# Generated by pormake.
# Topology smb, (6)-cn, num edge types: 1
# Building blocks:
#     Node 0, Type 0, BuildingBlock: OJICUG_clean_sbu_0, # of connection points: 6
#     Node 1, Type 0, BuildingBlock: OJICUG_clean_sbu_0, # of connection points: 6
#     Node 2, Type 0, BuildingBlock: OJICUG_clean_sbu_0, # of connection points: 6
#     Node 3, Type 0, BuildingBlock: OJICUG_clean_sbu_0, # of connection points: 6
#     Node 4, Type 0, BuildingBlock: OJICUG_clean_sbu_0, # of connection points: 6
#     Node 5, Type 0, BuildingBlock: OJICUG_clean_sbu_0, # of connection points: 6
#     Node 6, Type 0, BuildingBlock: OJICUG_clean_sbu_0, # of connection points: 6
#     Node 7, Type 0, BuildingBlock: OJICUG_clean_sbu_0, # of connection points: 6
#     Node 8, Type 0, BuildingBlock: OJICUG_clean_sbu_0, # of connection points: 6
#     Edge 9, Type (0, 0), BuildingBlock: KIFKEQ_clean_linker_1, # of connection points: 2
#     Edge 10, Type (0, 0), BuildingBlock: KIFKEQ_clean_linker_1, # of connection points: 2
#     Edge 11, Type (0, 0), BuildingBlock: KIFKEQ_clean_linker_1, # of connection points: 2
#     Edge 12, Type (0, 0), BuildingBlock: KIFKEQ_clean_linker_1, # of connection points: 2
#     Edge 13, Type (0, 0), BuildingBlock: KIFKEQ_clean_linker_1, # of connection points: 2
#     Edge 14, Type (0, 0), BuildingBlock: KIFKEQ_clean_linker_1, # of connection points: 2
#     Edge 15, Type (0, 0), BuildingBlock: KIFKEQ_clean_linker_1, # of connection points: 2
#     Edge 16, Type (0, 0), BuildingBlock: KIFKEQ_clean_linker_1, # of connection points: 2
#     Edge 17, Type (0, 0), BuildingBlock: KIFKEQ_clean_linker_1, # of connection points: 2
#     Edge 18, Type (0, 0), BuildingBlock: KIFKEQ_clean_linker_1, # of connection points: 2
#     Edge 19, Type (0, 0), BuildingBlock: KIFKEQ_clean_linker_1, # of connection points: 2
#     Edge 20, Type (0, 0), BuildingBlock: KIFKEQ_clean_linker_1, # of connection points: 2
#     Edge 21, Type (0, 0), BuildingBlock: KIFKEQ_clean_linker_1, # of connection points: 2
#     Edge 22, Type (0, 0), BuildingBlock: KIFKEQ_clean_linker_1, # of connection points: 2
#     Edge 23, Type (0, 0), BuildingBlock: KIFKEQ_clean_linker_1, # of connection points: 2
#     Edge 24, Type (0, 0), BuildingBlock: KIFKEQ_clean_linker_1, # of connection points: 2
#     Edge 25, Type (0, 0), BuildingBlock: KIFKEQ_clean_linker_1, # of connection points: 2
#     Edge 26, Type (0, 0), BuildingBlock: KIFKEQ_clean_linker_1, # of connection points: 2
#     Edge 27, Type (0, 0), BuildingBlock: KIFKEQ_clean_linker_1, # of connection points: 2
#     Edge 28, Type (0, 0), BuildingBlock: KIFKEQ_clean_linker_1, # of connection points: 2
#     Edge 29, Type (0, 0), BuildingBlock: KIFKEQ_clean_linker_1, # of connection points: 2
#     Edge 30, Type (0, 0), BuildingBlock: KIFKEQ_clean_linker_1, # of connection points: 2
#     Edge 31, Type (0, 0), BuildingBlock: KIFKEQ_clean_linker_1, # of connection points: 2
#     Edge 32, Type (0, 0), BuildingBlock: KIFKEQ_clean_linker_1, # of connection points: 2
#     Edge 33, Type (0, 0), BuildingBlock: KIFKEQ_clean_linker_1, # of connection points: 2
#     Edge 34, Type (0, 0), BuildingBlock: KIFKEQ_clean_linker_1, # of connection points: 2
#     Edge 35, Type (0, 0), BuildingBlock: KIFKEQ_clean_linker_1, # of connection points: 2
# Relax obj value: 0.341
# Max RMSD: 0.254
# Mean RMSD: 0.254
data_MOF--net-smb--node1-OJICUG_clean_sbu_0--edge1-KIFKEQ_clean_linker_1
_symmetry_space_group_name_H-M    P1
_symmetry_Int_Tables_number       1
_symmetry_cell_setting            triclinic
loop_
_symmetry_equiv_pos_as_xyz
'x, y, z'
_cell_length_a     40.933708
_cell_length_b     40.882261
_cell_length_c     29.108422
_cell_angle_alpha  90.141955
_cell_angle_beta   89.950243
_cell_angle_gamma 119.90304
loop_
_atom_site_label
_atom_site_type_symbol
_atom_site_fract_x
_atom_site_fract_y
_atom_site_fract_z
_atom_type_partial_charge
Sc0 Sc 0.33499 0.15881 0.01124 0.0
Sc1 Sc 0.41392 0.19935 0.93675 0.0
Sc2 Sc 0.42662 0.20773 0.05646 0.0
O3 O 0.39182 0.18867 0.00143 0.0
C4 C 0.35961 0.22058 0.08934 0.0
C5 C 0.34338 0.21163 0.92623 0.0
C6 C 0.46695 0.27719 0.98825 0.0
C7 C 0.34689 0.11429 0.92906 0.0
C8 C 0.3647 0.12626 0.08959 0.0
C9 C 0.47129 0.18171 0.9893 0.0
O10 O 0.33522 0.19844 0.06064 0.0
O11 O 0.3759 0.21816 0.91392 0.0
O12 O 0.4585 0.26342 0.02844 0.0
O13 O 0.32875 0.1163 0.96332 0.0
O14 O 0.39793 0.15426 0.0898 0.0
O15 O 0.45447 0.18208 0.9528 0.0
O16 O 0.33851 0.12373 0.06391 0.0
O17 O 0.37716 0.14226 0.91443 0.0
O18 O 0.4647 0.19133 0.02818 0.0
O19 O 0.32534 0.19007 0.95948 0.0
O20 O 0.39277 0.22576 0.09171 0.0
O21 O 0.45415 0.25739 0.95201 0.0
Sc22 Sc 0.82802 0.15744 0.00275 0.0
Sc23 Sc 0.78519 0.19555 0.93147 0.0
Sc24 Sc 0.77701 0.19675 0.05168 0.0
O25 O 0.79671 0.18322 -0.00478 0.0
C26 C 0.76423 0.11638 0.07863 0.0
C27 C 0.77341 0.11287 0.91907 0.0
C28 C 0.70788 0.17117 0.98262 0.0
C29 C 0.87025 0.21443 0.92028 0.0
C30 C 0.85911 0.2161 0.08439 0.0
C31 C 0.80486 0.26958 0.98893 0.0
O32 O 0.7908 0.11834 0.05404 0.0
O33 O 0.76794 0.13956 0.90658 0.0
O34 O 0.72236 0.17786 0.02247 0.0
O35 O 0.86872 0.19308 0.9528 0.0
O36 O 0.82869 0.21693 0.08854 0.0
O37 O 0.80064 0.25229 0.95107 0.0
O38 O 0.8645 0.19739 0.05346 0.0
O39 O 0.84226 0.21778 0.90834 0.0
O40 O 0.79781 0.25339 0.02785 0.0
O41 O 0.79471 0.11572 0.95243 0.0
O42 O 0.75511 0.14178 0.08003 0.0
O43 O 0.72688 0.17595 0.9463 0.0
Sc44 Sc 0.8262 0.64837 0.01324 0.0
Sc45 Sc 0.78959 0.56658 0.94366 0.0
Sc46 Sc 0.78311 0.55877 0.06417 0.0
O47 O 0.79973 0.59122 0.00702 0.0
C48 C 0.86355 0.62684 0.09397 0.0
C49 C 0.87168 0.63674 0.93132 0.0
C50 C 0.81237 0.5148 0.00162 0.0
C51 C 0.76982 0.63191 0.93007 0.0
C52 C 0.76467 0.62279 0.09198 0.0
C53 C 0.71352 0.51223 -0.00336 0.0
O54 O 0.86576 0.65004 0.06345 0.0
O55 O 0.84645 0.60333 0.92117 0.0
O56 O 0.8055 0.52424 0.04047 0.0
O57 O 0.78848 0.65109 0.96465 0.0
O58 O 0.75898 0.58942 0.09428 0.0
O59 O 0.7317 0.52689 0.95987 0.0
O60 O 0.78844 0.64774 0.06524 0.0
O61 O 0.76979 0.60244 0.91613 0.0
O62 O 0.7287 0.52049 0.03616 0.0
O63 O 0.86713 0.65635 0.96187 0.0
O64 O 0.83537 0.59389 0.09833 0.0
O65 O 0.80745 0.52732 0.96389 0.0
Sc66 Sc 0.00526 0.49826 0.33696 0.0
Sc67 Sc 0.08457 0.53414 0.26384 0.0
Sc68 Sc 0.09554 0.53284 0.38334 0.0
O69 O 0.06178 0.52174 0.32805 0.0
C70 C 0.03735 0.55598 0.42087 0.0
C71 C 0.02199 0.55866 0.25927 0.0
C72 C 0.14315 0.60566 0.32029 0.0
C73 C 0.01174 0.4547 0.2489 0.0
C74 C 0.0248 0.4531 0.40919 0.0
C75 C 0.13391 0.50358 0.31265 0.0
O76 O 0.01055 0.5341 0.39448 0.0
O77 O 0.04913 0.55626 0.2417 0.0
O78 O 0.13649 0.58757 0.35783 0.0
O79 O -0.00678 0.45988 0.28041 0.0
O80 O 0.05834 0.47983 0.41473 0.0
O81 O 0.12363 0.51442 0.27741 0.0
O82 O 0.00186 0.45406 0.38064 0.0
O83 O 0.04583 0.47841 0.23961 0.0
O84 O 0.12439 0.50668 0.35317 0.0
O85 O 0.00417 0.54042 0.29468 0.0
O86 O 0.06987 0.55943 0.41949 0.0
O87 O 0.12555 0.59071 0.28323 0.0
Sc88 Sc 0.48941 0.48749 0.34767 0.0
Sc89 Sc 0.45276 0.53155 0.27645 0.0
Sc90 Sc 0.44454 0.53324 0.39664 0.0
O91 O 0.46231 0.5175 0.34025 0.0
C92 C 0.4279 0.45185 0.4265 0.0
C93 C 0.4339 0.44653 0.26397 0.0
C94 C 0.3756 0.5085 0.32775 0.0
C95 C 0.53515 0.54406 0.26578 0.0
C96 C 0.52554 0.54787 0.42753 0.0
C97 C 0.47357 0.606 0.33359 0.0
O98 O 0.45161 0.45051 0.39965 0.0
O99 O 0.43361 0.47572 0.24968 0.0
O100 O 0.38987 0.51508 0.3678 0.0
O101 O 0.5307 0.52029 0.29666 0.0
O102 O 0.49704 0.55228 0.43104 0.0
O103 O 0.4702 0.58882 0.29593 0.0
O104 O 0.52815 0.5263 0.39802 0.0
O105 O 0.5097 0.5517 0.25493 0.0
O106 O 0.46552 0.58951 0.37222 0.0
O107 O 0.45241 0.44641 0.2989 0.0
O108 O 0.42188 0.47936 0.42807 0.0
O109 O 0.39478 0.5132 0.29154 0.0
Sc110 Sc 0.50013 0.98489 0.34757 0.0
Sc111 Sc 0.45823 0.90542 0.27344 0.0
Sc112 Sc 0.44852 0.89345 0.39308 0.0
O113 O 0.46897 0.92795 0.33798 0.0
C114 C 0.52951 0.95544 0.42929 0.0
C115 C 0.5439 0.97133 0.26582 0.0
C116 C 0.47646 0.84926 0.32845 0.0
C117 C 0.4477 0.97695 0.26225 0.0
C118 C 0.4348 0.96057 0.4216 0.0
C119 C 0.38018 0.85199 0.32273 0.0
O120 O 0.53488 0.98081 0.40036 0.0
O121 O 0.51564 0.94087 0.25201 0.0
O122 O 0.46881 0.85743 0.3677 0.0
O123 O 0.46903 -0.00503 0.29578 0.0
O124 O 0.42696 0.92642 0.4232 0.0
O125 O 0.39969 0.86651 0.28684 0.0
O126 O 0.46076 0.98552 0.39676 0.0
O127 O 0.4413 0.94448 0.24976 0.0
O128 O 0.39417 0.85909 0.36282 0.0
O129 O 0.54235 0.99034 0.29949 0.0
O130 O 0.49974 0.92351 0.4306 0.0
O131 O 0.47329 0.86365 0.29124 0.0
Sc132 Sc 0.67023 0.81743 0.6756 0.0
Sc133 Sc 0.75185 0.86069 0.60561 0.0
Sc134 Sc 0.75962 0.86618 0.72629 0.0
O135 O 0.72724 0.84803 0.66911 0.0
C136 C 0.6923 0.88013 0.75255 0.0
C137 C 0.68173 0.87283 0.59246 0.0
C138 C 0.8027 0.93708 0.65973 0.0
C139 C 0.68718 0.77547 0.59417 0.0
C140 C 0.69549 0.78435 0.75735 0.0
C141 C 0.80633 0.84095 0.66283 0.0
O142 O 0.66812 0.85506 0.72606 0.0
O143 O 0.71324 0.87729 0.57926 0.0
O144 O 0.79571 0.92126 0.69877 0.0
O145 O 0.66686 0.77687 0.62625 0.0
O146 O 0.72748 0.81384 0.76117 0.0
O147 O 0.79399 0.84647 0.62526 0.0
O148 O 0.67155 0.78026 0.72696 0.0
O149 O 0.71817 0.80357 0.5816 0.0
O150 O 0.7958 0.8459 0.70203 0.0
O151 O 0.66316 0.85184 0.62583 0.0
O152 O 0.72627 0.88767 0.75556 0.0
O153 O 0.78836 0.9191 0.62272 0.0
Sc154 Sc 0.16397 0.82219 0.68207 0.0
Sc155 Sc 0.12428 0.8658 0.61535 0.0
Sc156 Sc 0.12226 0.86919 0.73623 0.0
O157 O 0.1369 0.85249 0.67787 0.0
C158 C 0.10525 0.787 0.76381 0.0
C159 C 0.10568 0.78102 0.60088 0.0
C160 C 0.04999 0.84402 0.67284 0.0
C161 C 0.20669 0.87899 0.59909 0.0
C162 C 0.20396 0.88285 0.76082 0.0
C163 C 0.14724 0.94099 0.67253 0.0
O164 O 0.12705 0.78486 0.73451 0.0
O165 O 0.10402 0.80983 0.58806 0.0
O166 O 0.06636 0.85125 0.71167 0.0
O167 O 0.20372 0.85564 0.62984 0.0
O168 O 0.17644 0.88853 0.76644 0.0
O169 O 0.14205 0.92315 0.63496 0.0
O170 O 0.2045 0.86031 0.73118 0.0
O171 O 0.18042 0.88593 0.58987 0.0
O172 O 0.14189 0.92531 0.71154 0.0
O173 O 0.12592 0.78143 0.63408 0.0
O174 O 0.10072 0.81534 0.7679 0.0
O175 O 0.06706 0.84753 0.63507 0.0
Sc176 Sc 0.15813 0.31333 0.66584 0.0
Sc177 Sc 0.11413 0.23049 0.59771 0.0
Sc178 Sc 0.10675 0.22478 0.71845 0.0
O179 O 0.12628 0.25618 0.66064 0.0
C180 C 0.18877 0.28749 0.75017 0.0
C181 C 0.20012 0.29368 0.58776 0.0
C182 C 0.13175 0.17595 0.65761 0.0
C183 C 0.10503 0.30216 0.57965 0.0
C184 C 0.09498 0.29443 0.74091 0.0
C185 C 0.03677 0.18162 0.65068 0.0
O186 O 0.19295 0.31168 0.72015 0.0
O187 O 0.17121 0.26387 0.57384 0.0
O188 O 0.12468 0.18607 0.69595 0.0
O189 O 0.12733 0.32157 0.61181 0.0
O190 O 0.08763 0.26065 0.74632 0.0
O191 O 0.05591 0.19347 0.61402 0.0
O192 O 0.11954 0.31744 0.71304 0.0
O193 O 0.09748 0.26876 0.57016 0.0
O194 O 0.05131 0.19053 0.69047 0.0
O195 O 0.19948 0.3142 0.62014 0.0
O196 O 0.1594 0.25537 0.75354 0.0
O197 O 0.12872 0.18905 0.61927 0.0
H198 H 0.3831 0.09337 0.86614 0.0
H199 H 0.27879 0.05117 0.94176 0.0
H200 H 0.35909 0.0316 0.82993 0.0
H201 H 0.25468 0.99044 0.90499 0.0
H202 H 0.26817 0.94081 0.72803 0.0
H203 H 0.3118 -0.00444 0.77325 0.0
H204 H 0.25899 0.93475 0.89801 0.0
H205 H 0.21403 0.88097 0.85216 0.0
C206 C 0.35507 0.071 0.87496 0.0
C207 C 0.3327 0.07727 0.90652 0.0
C208 C 0.34144 0.03561 0.8544 0.0
C209 C 0.30518 0.00594 0.86494 0.0
C210 C 0.28317 0.01224 0.89698 0.0
C211 C 0.2968 0.04736 0.91763 0.0
C212 C 0.26719 0.93873 0.76518 0.0
C213 C 0.23795 0.90719 0.78695 0.0
C214 C 0.29211 0.97006 0.79117 0.0
C215 C 0.28806 0.96985 0.83918 0.0
C216 C 0.26201 0.9361 0.86098 0.0
C217 C 0.23663 0.90516 0.83494 0.0
H218 H 0.88736 0.26669 0.85185 0.0
H219 H 0.93562 0.2135 0.93436 0.0
H220 H 0.94713 0.30229 0.8111 0.0
H221 H -0.00556 0.24808 0.89321 0.0
H222 H 0.03348 0.29431 0.70853 0.0
H223 H 0.98056 0.28566 0.75569 0.0
H224 H 0.04883 0.30806 0.87766 0.0
H225 H 0.10109 0.31493 0.83009 0.0
C226 C 0.91066 0.26263 0.8614 0.0
C227 C 0.90653 0.23688 0.89603 0.0
C228 C 0.9449 0.28313 0.83814 0.0
C229 C 0.97565 0.27829 0.8491 0.0
C230 C 0.9717 0.25327 0.88455 0.0
C231 C 0.93765 0.23293 0.90777 0.0
C232 C 0.03756 0.29918 0.74523 0.0
C233 C 0.071 0.30529 0.76599 0.0
C234 C 0.00727 0.29415 0.77234 0.0
C235 C 0.01024 0.29525 0.82053 0.0
C236 C 0.04545 0.30615 0.84068 0.0
C237 C 0.07552 0.31062 0.81357 0.0
H238 H 0.66115 0.70918 0.73659 0.0
H239 H 0.71439 0.78965 0.84657 0.0
H240 H 0.6654 0.66107 0.78222 0.0
H241 H 0.71934 0.74266 0.89143 0.0
H242 H 0.72906 0.65957 0.96997 0.0
H243 H 0.69356 0.68502 0.9321 0.0
H244 H 0.72121 0.6567 0.79988 0.0
H245 H 0.75501 0.62931 0.83827 0.0
C246 C 0.67248 0.71609 0.77112 0.0
C247 C 0.68792 0.75303 0.78808 0.0
C248 C 0.67526 0.68877 0.79701 0.0
C249 C 0.69317 0.69817 0.84015 0.0
C250 C 0.70507 0.73419 0.85859 0.0
C251 C 0.70252 0.76133 0.83277 0.0
C252 C 0.72704 0.65838 0.93282 0.0
C253 C 0.74557 0.64361 0.90677 0.0
C254 C 0.70659 0.67273 0.91116 0.0
C255 C 0.70517 0.67356 0.86299 0.0
C256 C 0.72148 0.65625 0.83707 0.0
C257 C 0.74127 0.64103 0.85891 0.0
H258 H 0.05019 0.71951 0.73298 0.0
H259 H 0.10329 0.78226 0.85623 0.0
H260 H -0.00513 0.67586 0.77746 0.0
H261 H 0.0491 0.73762 0.90141 0.0
H262 H 0.89812 0.60188 0.87342 0.0
H263 H 0.96032 0.62987 0.83747 0.0
H264 H 0.99033 0.73695 0.90092 0.0
H265 H 0.92928 0.70919 0.93729 0.0
C266 C 0.05075 0.7226 0.77002 0.0
C267 C 0.08052 0.75407 0.79147 0.0
C268 C 0.01909 0.69771 0.79552 0.0
C269 C 0.01723 0.704 0.84274 0.0
C270 C 0.04931 0.73275 0.86484 0.0
C271 C 0.0805 0.758 0.83924 0.0
C272 C 0.91811 0.63138 0.8797 0.0
C273 C 0.90868 0.65333 0.90816 0.0
C274 C 0.95374 0.64732 0.85925 0.0
C275 C 0.9805 0.68543 0.86695 0.0
C276 C 0.97088 0.70721 0.89534 0.0
C277 C 0.93555 0.69136 0.91577 0.0
H278 H 0.25773 0.30174 0.72276 0.0
H279 H 0.18981 0.28635 0.84283 0.0
H280 H 0.30144 0.2913 0.76897 0.0
H281 H 0.23457 0.27832 0.88992 0.0
H282 H 0.37648 0.27248 0.86791 0.0
H283 H 0.34616 0.30378 0.82991 0.0
H284 H 0.23978 0.22325 0.89118 0.0
H285 H 0.26989 0.19312 0.92972 0.0
C286 C 0.25333 0.29802 0.75954 0.0
C287 C 0.22054 0.29445 0.77951 0.0
C288 C 0.2783 0.29203 0.78604 0.0
C289 C 0.27086 0.28291 0.83289 0.0
C290 C 0.24038 0.28406 0.85362 0.0
C291 C 0.21502 0.28909 0.82694 0.0
C292 C 0.34663 0.26165 0.87323 0.0
C293 C 0.32558 0.23033 0.90182 0.0
C294 C 0.32933 0.27962 0.85161 0.0
C295 C 0.29069 0.26645 0.85811 0.0
C296 C 0.26983 0.23502 0.88653 0.0
C297 C 0.28705 0.21735 0.90825 0.0
H298 H 0.68531 0.9373 0.71815 0.0
H299 H 0.68105 0.87987 0.84389 0.0
H300 H 0.69543 0.99252 0.76195 0.0
H301 H 0.68916 0.93419 0.88827 0.0
H302 H 0.71666 0.08991 0.8552 0.0
H303 H 0.6817 0.02793 0.81856 0.0
H304 H 0.7489 0.9912 0.89323 0.0
H305 H 0.78291 0.05209 0.9302 0.0
C306 C 0.68437 0.93585 0.75534 0.0
C307 C 0.68256 0.90479 0.77799 0.0
C308 C 0.69022 0.96744 0.78048 0.0
C309 C 0.69413 0.96804 0.82851 0.0
C310 C 0.68728 0.93485 0.8512 0.0
C311 C 0.68214 0.90361 0.82601 0.0
C312 C 0.72385 0.0685 0.86378 0.0
C313 C 0.75274 0.07604 0.89545 0.0
C314 C 0.70369 0.033 0.84298 0.0
C315 C 0.71208 0.00446 0.85354 0.0
C316 C 0.74086 0.01211 0.88531 0.0
C317 C 0.76083 0.04734 0.90607 0.0
H318 H 0.85861 0.22401 0.17641 0.0
H319 H 0.92892 0.26875 0.05635 0.0
H320 H 0.90178 0.28018 0.21988 0.0
H321 H 0.97131 0.326 0.09895 0.0
H322 H 0.93696 0.40269 0.24714 0.0
H323 H 0.9068 0.34089 0.21155 0.0
H324 H 0.01465 0.36104 0.16113 0.0
H325 H 0.045 0.42381 0.19602 0.0
C326 C 0.88405 0.24546 0.15989 0.0
C327 C 0.89056 0.24246 0.11324 0.0
C328 C 0.90848 0.27778 0.18446 0.0
C329 C 0.93919 0.30802 0.16235 0.0
C330 C 0.94784 0.30324 0.11692 0.0
C331 C 0.9237 0.27044 0.09255 0.0
C332 C 0.95433 0.39408 0.22844 0.0
C333 C -0.00664 0.41819 0.22442 0.0
C334 C 0.9371 0.35839 0.2085 0.0
C335 C 0.95848 0.34572 0.18437 0.0
C336 C -0.00253 0.37 0.17961 0.0
C337 C 0.01477 0.40597 0.19942 0.0
H338 H 0.56007 0.60338 0.20566 0.0
H339 H 0.59411 0.53132 0.27414 0.0
H340 H 0.62153 0.63686 0.16811 0.0
H341 H 0.65453 0.56388 0.23607 0.0
H342 H 0.76579 0.62972 0.18405 0.0
H343 H 0.71306 0.622 0.23122 0.0
H344 H 0.65362 0.62201 0.10842 0.0
H345 H 0.70737 0.63173 0.06189 0.0
C346 C 0.58058 0.59466 0.21269 0.0
C347 C 0.57209 0.56448 0.24266 0.0
C348 C 0.61577 0.61393 0.19131 0.0
C349 C 0.64305 0.60335 0.19952 0.0
C350 C 0.63459 0.57349 0.2299 0.0
C351 C 0.59964 0.5544 0.25131 0.0
C352 C 0.74211 0.62989 0.16765 0.0
C353 C 0.7402 0.63125 0.11977 0.0
C354 C 0.71181 0.62504 0.1944 0.0
C355 C 0.67879 0.62028 0.17338 0.0
C356 C 0.67865 0.62564 0.12568 0.0
C357 C 0.70935 0.63122 0.09899 0.0
H358 H 0.36379 0.12387 0.18206 0.0
H359 H 0.35357 0.05878 0.06069 0.0
H360 H 0.37381 0.08007 0.22863 0.0
H361 H 0.36572 0.016 0.10643 0.0
H362 H 0.38732 0.94257 0.20372 0.0
H363 H 0.35387 0.97097 0.16683 0.0
H364 H 0.43105 0.07814 0.22974 0.0
H365 H 0.46351 0.04981 0.26729 0.0
C366 C 0.36242 0.09933 0.16581 0.0
C367 C 0.358 0.09435 0.11821 0.0
C368 C 0.36861 0.07457 0.19218 0.0
C369 C 0.37172 0.0453 0.17094 0.0
C370 C 0.36345 0.03822 0.12385 0.0
C371 C 0.35646 0.06261 0.09762 0.0
C372 C 0.39705 0.9722 0.20961 0.0
C373 C 0.42816 -0.00599 0.23829 0.0
C374 C 0.37779 0.98837 0.18865 0.0
C375 C 0.38941 0.02663 0.1959 0.0
C376 C 0.42057 0.0483 0.2245 0.0
C377 C 0.43957 0.03217 0.24559 0.0
H378 H 0.70122 0.055 0.04973 0.0
H379 H 0.7731 0.10398 0.1677 0.0
H380 H 0.65031 0.01112 0.09934 0.0
H381 H 0.72266 0.05916 0.21783 0.0
H382 H 0.60925 0.03767 0.28035 0.0
H383 H 0.66757 0.06273 0.23759 0.0
H384 H 0.62031 0.96126 0.15501 0.0
H385 H 0.56119 0.93637 0.19721 0.0
C386 C 0.70661 0.05484 0.08616 0.0
C387 C 0.74075 0.08242 0.10522 0.0
C388 C 0.6775 0.02978 0.11468 0.0
C389 C 0.68222 0.03217 0.16266 0.0
C390 C 0.71798 0.05717 0.18106 0.0
C391 C 0.74698 0.08245 0.15249 0.0
C392 C 0.61127 0.02046 0.25338 0.0
C393 C 0.58027 0.98529 0.24172 0.0
C394 C 0.645 0.03465 0.22921 0.0
C395 C 0.64867 0.01393 0.19292 0.0
C396 C 0.61823 0.97802 0.18252 0.0
C397 C 0.58435 0.96385 0.20664 0.0
H398 H 0.02414 0.57582 0.16842 0.0
H399 H -0.00538 0.59882 0.30233 0.0
H400 H -0.0044 0.60938 0.1326 0.0
H401 H 0.9678 0.63407 0.26687 0.0
H402 H 0.86051 0.60923 0.1834 0.0
H403 H 0.9096 0.60736 0.22732 0.0
H404 H 0.9887 0.6638 0.11682 0.0
H405 H 0.93848 0.6649 0.07217 0.0
C406 C 0.01245 0.58899 0.19016 0.0
C407 C 0.01039 0.5838 0.23789 0.0
C408 C -0.00348 0.60865 0.16974 0.0
C409 C 0.97887 0.62391 0.1969 0.0
C410 C 0.98035 0.62185 0.24498 0.0
C411 C -0.00448 0.60156 0.26525 0.0
C412 C 0.8887 0.62234 0.16914 0.0
C413 C 0.89572 0.63659 0.1243 0.0
C414 C 0.91705 0.62158 0.19445 0.0
C415 C 0.95303 0.63494 0.17529 0.0
C416 C 0.96107 0.65278 0.13214 0.0
C417 C 0.93253 0.65374 0.10679 0.0
H418 H 0.32517 0.26138 0.06901 0.0
H419 H 0.37636 0.23211 0.17903 0.0
H420 H 0.32943 0.31351 0.11553 0.0
H421 H 0.38149 0.28385 0.22476 0.0
H422 H 0.39385 0.37806 0.30374 0.0
H423 H 0.35788 0.31713 0.26579 0.0
H424 H 0.3849 0.37286 0.13372 0.0
H425 H 0.419 0.434 0.17222 0.0
C426 C 0.33594 0.26527 0.10378 0.0
C427 C 0.35087 0.24331 0.12053 0.0
C428 C 0.3388 0.29526 0.13017 0.0
C429 C 0.3564 0.30328 0.17354 0.0
C430 C 0.36751 0.27852 0.19178 0.0
C431 C 0.36482 0.2489 0.16549 0.0
C432 C 0.39165 0.37718 0.2666 0.0
C433 C 0.40999 0.41042 0.24064 0.0
C434 C 0.37093 0.34237 0.24488 0.0
C435 C 0.36907 0.34002 0.19669 0.0
C436 C 0.38542 0.3736 0.17091 0.0
C437 C 0.40542 0.40859 0.19281 0.0
H438 H 0.65683 0.70783 0.6362 0.0
H439 H 0.69004 0.76078 0.50318 0.0
H440 H 0.62852 0.64583 0.60013 0.0
H441 H 0.65975 0.69867 0.46649 0.0
H442 H 0.60066 0.58449 0.40636 0.0
H443 H 0.65078 0.63628 0.45074 0.0
H444 H 0.57088 0.61627 0.55955 0.0
H445 H 0.52192 0.56486 0.51598 0.0
C446 C 0.65815 0.70604 0.59915 0.0
C447 C 0.67456 0.73877 0.57217 0.0
C448 C 0.6421 0.67063 0.57851 0.0
C449 C 0.64113 0.66728 0.53041 0.0
C450 C 0.66019 0.7002 0.50365 0.0
C451 C 0.67713 0.73577 0.5245 0.0
C452 C 0.59447 0.59044 0.44056 0.0
C453 C 0.55753 0.57125 0.45772 0.0
C454 C 0.62296 0.62023 0.46573 0.0
C455 C 0.61475 0.63075 0.5084 0.0
C456 C 0.57848 0.60888 0.52709 0.0
C457 C 0.55021 0.57952 0.50198 0.0
H458 H 0.43805 0.97462 0.51256 0.0
H459 H 0.3746 0.96337 0.38967 0.0
H460 H 0.38474 0.96572 0.55953 0.0
H461 H 0.32061 0.9529 0.43617 0.0
H462 H 0.227 0.9343 0.53378 0.0
H463 H 0.28742 0.96878 0.49397 0.0
H464 H 0.32839 0.90535 0.56898 0.0
H465 H 0.26894 0.87169 0.60909 0.0
C466 C 0.41319 0.9719 0.49578 0.0
C467 C 0.41016 0.96988 0.44786 0.0
C468 C 0.38252 0.96628 0.5225 0.0
C469 C 0.34816 0.95761 0.50152 0.0
C470 C 0.34667 0.95962 0.4534 0.0
C471 C 0.37756 0.96572 0.42672 0.0
C472 C 0.24901 0.92787 0.54187 0.0
C473 C 0.24297 0.89997 0.5744 0.0
C474 C 0.28362 0.94773 0.51918 0.0
C475 C 0.31285 0.94016 0.5287 0.0
C476 C 0.30687 0.91264 0.56164 0.0
C477 C 0.27246 0.89287 0.58422 0.0
H478 H 0.11617 0.3734 0.58752 0.0
H479 H 0.04892 0.26812 0.51492 0.0
H480 H 0.08289 0.40029 0.54878 0.0
H481 H 0.01488 0.29528 0.47636 0.0
H482 H 0.01797 0.38879 0.37457 0.0
H483 H 0.029 0.34439 0.4185 0.0
H484 H 0.02215 0.39665 0.54467 0.0
H485 H 0.01287 0.44195 0.5003 0.0
C486 C 0.09412 0.35585 0.56345 0.0
C487 C 0.08538 0.31861 0.55426 0.0
C488 C 0.0746 0.37115 0.54166 0.0
C489 C 0.04568 0.34965 0.51017 0.0
C490 C 0.03693 0.31244 0.50063 0.0
C491 C 0.05655 0.29702 0.52256 0.0
C492 C 0.01696 0.3894 0.41175 0.0
C493 C 0.01462 0.41848 0.43435 0.0
C494 C 0.02344 0.36414 0.43695 0.0
C495 C 0.02748 0.36776 0.48496 0.0
C496 C 0.02013 0.39385 0.50761 0.0
C497 C 0.01427 0.41941 0.4824 0.0
H498 H 0.26666 0.32064 0.63173 0.0
H499 H 0.21559 0.29027 0.49728 0.0
H500 H 0.32897 0.3471 0.59726 0.0
H501 H 0.27808 0.31864 0.46228 0.0
H502 H 0.39229 0.37687 0.40467 0.0
H503 H 0.34044 0.32626 0.44827 0.0
H504 H 0.35904 0.40568 0.55753 0.0
H505 H 0.41031 0.45519 0.51454 0.0
C506 C 0.26891 0.31944 0.59473 0.0
C507 C 0.23671 0.30459 0.56685 0.0
C508 C 0.30448 0.33436 0.57504 0.0
C509 C 0.30849 0.33572 0.52704 0.0
C510 C 0.27597 0.31785 0.49939 0.0
C511 C 0.24023 0.30205 0.51927 0.0
C512 C 0.386 0.38281 0.43882 0.0
C513 C 0.40464 0.41974 0.45629 0.0
C514 C 0.35626 0.35405 0.46356 0.0
C515 C 0.34534 0.36204 0.50608 0.0
C516 C 0.3668 0.3983 0.52518 0.0
C517 C 0.39604 0.42686 0.50042 0.0
H518 H 0.52156 0.93057 0.51628 0.0
H519 H 0.60518 0.99078 0.41185 0.0
H520 H 0.56666 0.92138 0.55951 0.0
H521 H 0.65148 0.9825 0.4561 0.0
H522 H 0.6846 0.89205 0.50204 0.0
H523 H 0.65606 0.92632 0.46748 0.0
H524 H 0.62225 0.94303 0.60237 0.0
H525 H 0.64867 0.90694 0.63611 0.0
C526 C 0.55018 0.94306 0.5035 0.0
C527 C 0.55986 0.96085 0.46059 0.0
C528 C 0.57623 0.93803 0.52841 0.0
C529 C 0.61262 0.95073 0.51093 0.0
C530 C 0.62344 0.97184 0.47002 0.0
C531 C 0.59717 0.977 0.445 0.0
C532 C 0.67116 0.90328 0.52405 0.0
C533 C 0.66757 0.89589 0.57133 0.0
C534 C 0.65532 0.92337 0.50448 0.0
C535 C 0.63643 0.93702 0.53217 0.0
C536 C 0.63571 0.93208 0.57997 0.0
C537 C 0.65065 0.91127 0.59926 0.0
H538 H -0.00252 0.59256 0.40785 0.0
H539 H 0.06637 0.57521 0.50603 0.0
H540 H 0.00139 0.64401 0.45559 0.0
H541 H 0.07064 0.62612 0.55304 0.0
H542 H 0.07167 0.71179 0.63947 0.0
H543 H 0.03987 0.65104 0.60039 0.0
H544 H 0.05588 0.70784 0.47027 0.0
H545 H 0.08641 0.76879 0.50993 0.0
C546 C 0.0124 0.599 0.4403 0.0
C547 C 0.03193 0.58037 0.4533 0.0
C548 C 0.0149 0.62853 0.46734 0.0
C549 C 0.03648 0.63924 0.50788 0.0
C550 C 0.05339 0.61838 0.52235 0.0
C551 C 0.05123 0.58936 0.49527 0.0
C552 C 0.06785 0.71121 0.60257 0.0
C553 C 0.08234 0.74482 0.57738 0.0
C554 C 0.04951 0.67648 0.58027 0.0
C555 C 0.04604 0.67472 0.53222 0.0
C556 C 0.05794 0.70828 0.50739 0.0
C557 C 0.07576 0.74316 0.52993 0.0
H558 H 0.51803 0.18501 0.05793 0.0
H559 H 0.49171 0.15433 0.91486 0.0
H560 H 0.57013 0.17319 0.05296 0.0
H561 H 0.54363 0.14115 0.91032 0.0
H562 H 0.65247 0.13544 0.04628 0.0
H563 H 0.58959 0.1279 0.04516 0.0
H564 H 0.61105 0.17755 0.90968 0.0
H565 H 0.67323 0.18345 0.91009 0.0
C566 C 0.52294 0.17511 0.02551 0.0
C567 C 0.50088 0.17105 0.98664 0.0
C568 C 0.55272 0.16791 0.02279 0.0
C569 C 0.56109 0.1561 0.98124 0.0
C570 C 0.5382 0.15064 0.9427 0.0
C571 C 0.5084 0.15811 0.94535 0.0
C572 C 0.64339 0.14401 0.01591 0.0
C573 C 0.6679 0.1606 0.97859 0.0
C574 C 0.60746 0.13987 0.01532 0.0
C575 C 0.59558 0.15291 0.97777 0.0
C576 C 0.61915 0.167 0.93907 0.0
C577 C 0.65491 0.17058 0.93937 0.0
H578 H 0.83975 0.49352 0.9284 0.0
H579 H 0.80934 0.46926 0.07165 0.0
H580 H 0.84887 0.43904 0.92387 0.0
H581 H 0.81682 0.41432 0.06666 0.0
H582 H 0.8415 0.3218 0.05607 0.0
H583 H 0.85505 0.38695 0.05786 0.0
H584 H 0.80732 0.37305 0.92182 0.0
H585 H 0.79555 0.30864 0.91933 0.0
C586 C 0.83534 0.47679 0.959 0.0
C587 C 0.82329 0.4854 0.0002 0.0
C588 C 0.8404 0.44548 0.95635 0.0
C589 C 0.83311 0.42196 -0.0053 0.0
C590 C 0.82319 0.43196 0.03653 0.0
C591 C 0.81859 0.46343 0.03932 0.0
C592 C 0.83444 0.33294 0.02633 0.0
C593 C 0.81694 0.31006 0.98784 0.0
C594 C 0.8421 0.37021 0.02737 0.0
C595 C 0.83175 0.38512 0.9903 0.0
C596 C 0.8161 0.36275 0.95081 0.0
C597 C 0.80904 0.32567 0.94947 0.0
H598 H 0.66722 0.49167 0.92112 0.0
H599 H 0.66848 0.46713 0.06535 0.0
H600 H 0.60195 0.44062 0.91575 0.0
H601 H 0.60431 0.41576 0.05962 0.0
H602 H 0.48477 0.33358 0.05042 0.0
H603 H 0.53992 0.39656 0.04942 0.0
H604 H 0.57072 0.37334 0.91616 0.0
H605 H 0.51473 0.31114 0.91637 0.0
C606 C 0.65358 0.47553 0.95168 0.0
C607 C 0.67321 0.48325 -0.00645 0.0
C608 C 0.61622 0.44626 0.94857 0.0
C609 C 0.59786 0.42402 0.9872 0.0
C610 C 0.61719 0.43268 0.02933 0.0
C611 C 0.65429 0.46202 0.03252 0.0
C612 C 0.50293 0.34232 0.0205 0.0
C613 C 0.49588 0.31729 0.98383 0.0
C614 C 0.5346 0.3783 0.02 0.0
C615 C 0.56022 0.38968 0.9832 0.0
C616 C 0.55154 0.36564 0.94497 0.0
C617 C 0.5195 0.32985 0.94516 0.0
H618 H 0.32735 0.50407 0.39531 0.0
H619 H 0.33232 0.48549 0.24971 0.0
H620 H 0.26335 0.49152 0.38663 0.0
H621 H 0.2674 0.47172 0.2413 0.0
H622 H 0.18422 0.51966 0.24301 0.0
H623 H 0.23839 0.51029 0.24354 0.0
H624 H 0.19897 0.44744 0.37019 0.0
H625 H 0.14551 0.45813 0.3705 0.0
C626 C 0.31456 0.49659 0.36154 0.0
C627 C 0.33521 0.49644 0.32308 0.0
C628 C 0.27759 0.48896 0.35662 0.0
C629 C 0.26025 0.48069 0.31319 0.0
C630 C 0.28018 0.47852 0.27509 0.0
C631 C 0.31735 0.48639 0.27996 0.0
C632 C 0.18663 0.50304 0.27033 0.0
C633 C 0.16122 0.49039 0.30726 0.0
C634 C 0.21761 0.49748 0.27055 0.0
C635 C 0.22338 0.47877 0.30744 0.0
C636 C 0.19582 0.46286 0.34195 0.0
C637 C 0.16517 0.46886 0.34205 0.0
H638 H 0.46653 0.80235 0.25666 0.0
H639 H 0.51108 0.83032 0.39458 0.0
H640 H 0.47536 0.74783 0.25688 0.0
H641 H 0.52182 0.77683 0.3941 0.0
H642 H 0.50208 0.65513 0.26103 0.0
H643 H 0.51389 0.71979 0.2581 0.0
H644 H 0.48055 0.7117 0.40054 0.0
H645 H 0.47042 0.64832 0.40397 0.0
C646 C 0.47916 0.79737 0.28657 0.0
C647 C 0.48742 0.82004 0.32594 0.0
C648 C 0.48453 0.76625 0.28661 0.0
C649 C 0.49882 0.75758 0.32579 0.0
C650 C 0.5098 0.7821 0.36382 0.0
C651 C 0.50378 0.8128 0.36408 0.0
C652 C 0.49787 0.66747 0.29186 0.0
C653 C 0.48486 0.64641 0.33255 0.0
C654 C 0.50451 0.70446 0.29014 0.0
C655 C 0.4979 0.72091 0.32895 0.0
C656 C 0.48658 0.70033 0.37014 0.0
C657 C 0.48039 0.66366 0.37199 0.0
H658 H 0.34551 0.80749 0.24812 0.0
H659 H 0.32474 0.83055 0.38676 0.0
H660 H 0.2834 0.75124 0.24618 0.0
H661 H 0.26209 0.77506 0.38429 0.0
H662 H 0.19131 0.64566 0.38987 0.0
H663 H 0.2437 0.70967 0.38767 0.0
H664 H 0.21551 0.72119 0.24781 0.0
H665 H 0.16331 0.65631 0.24948 0.0
C666 C 0.32722 0.80115 0.27766 0.0
C667 C 0.3402 0.82291 0.31792 0.0
C668 C 0.29154 0.76898 0.27651 0.0
C669 C 0.2681 0.7583 0.31543 0.0
C670 C 0.27991 0.782 0.3542 0.0
C671 C 0.3157 0.81385 0.35555 0.0
C672 C 0.19597 0.66182 0.35869 0.0
C673 C 0.17332 0.64565 0.31968 0.0
C674 C 0.22587 0.69877 0.35759 0.0
C675 C 0.23374 0.72061 0.31757 0.0
C676 C 0.21038 0.70493 0.27898 0.0
C677 C 0.18046 0.66779 0.28 0.0
H678 H 0.00787 0.84846 0.74259 0.0
H679 H 0.00121 0.81571 0.60001 0.0
H680 H 0.94468 0.83897 0.73818 0.0
H681 H 0.93703 0.80477 0.59607 0.0
H682 H 0.85481 0.85227 0.59238 0.0
H683 H 0.90979 0.84431 0.59416 0.0
H684 H 0.87924 0.79695 0.73062 0.0
H685 H 0.82507 0.80647 0.7295 0.0
C686 C -0.00739 0.83843 0.71052 0.0
C687 C 0.00981 0.83338 0.67146 0.0
C688 C 0.95613 0.83266 0.70808 0.0
C689 C 0.93578 0.82128 0.66666 0.0
C690 C 0.95221 0.81421 0.62825 0.0
C691 C 0.98893 0.82036 0.63056 0.0
C692 C 0.85951 0.8396 0.62246 0.0
C693 C 0.83607 0.83063 0.66112 0.0
C694 C 0.89093 0.83478 0.6234 0.0
C695 C 0.89922 0.82042 0.6628 0.0
C696 C 0.87417 0.80895 0.70019 0.0
C697 C 0.84308 0.81428 0.6995 0.0
H698 H 0.17173 0.98919 0.59892 0.0
H699 H 0.14196 0.98251 0.7425 0.0
H700 H 0.17715 0.05126 0.59432 0.0
H701 H 0.14557 0.04323 0.73744 0.0
H702 H 0.16656 0.15981 0.72642 0.0
H703 H 0.18068 0.10861 0.72902 0.0
H704 H 0.13457 0.07411 0.5923 0.0
H705 H 0.12237 0.12648 0.58901 0.0
C706 C 0.16666 0.00109 0.62957 0.0
C707 C 0.15602 0.98071 0.67093 0.0
C708 C 0.16951 0.03655 0.62687 0.0
C709 C 0.16131 0.05215 0.66532 0.0
C710 C 0.15261 0.03252 0.70722 0.0
C711 C 0.15028 -0.00259 0.71007 0.0
C712 C 0.15985 0.14146 0.69678 0.0
C713 C 0.14294 0.1468 0.65773 0.0
C714 C 0.16782 0.11204 0.69828 0.0
C715 C 0.15836 0.08683 0.66112 0.0
C716 C 0.14277 0.09318 0.62136 0.0
C717 C 0.13545 0.12305 0.61956 0.0
H718 H 0.82058 0.98419 0.58544 0.0
H719 H 0.84699 0.98239 0.72894 0.0
H720 H 0.87066 0.04993 0.58055 0.0
H721 H 0.89747 0.04699 0.72363 0.0
H722 H 0.98193 0.16545 0.71443 0.0
H723 H 0.91804 0.11172 0.71411 0.0
H724 H 0.93754 0.07981 0.57945 0.0
H725 H 0.00054 0.13434 0.579 0.0
C726 C 0.83686 -0.00216 0.61597 0.0
C727 C 0.83018 0.97787 0.65738 0.0
C728 C 0.86556 0.03547 0.61315 0.0
C729 C 0.88828 0.05369 0.65157 0.0
C730 C 0.88023 0.03418 0.69348 0.0
C731 C 0.85143 -0.00318 0.69641 0.0
C732 C 0.97218 0.14735 0.6844 0.0
C733 C -0.00361 0.15356 0.64714 0.0
C734 C 0.93567 0.11653 0.68424 0.0
C735 C 0.92295 0.09098 0.64721 0.0
C736 C 0.94623 0.09899 0.60844 0.0
C737 C 0.98253 0.13016 0.60829 0.0
loop_
_geom_bond_atom_site_label_1
_geom_bond_atom_site_label_2
_geom_bond_distance
_geom_bond_site_symmetry_2
_ccdc_geom_bond_type
Sc0 O3 2.025 . S
Sc0 O10 2.105 . S
Sc0 O13 2.105 1_554 S
Sc0 O16 2.105 . S
Sc0 O19 2.105 1_554 S
Sc1 O3 2.025 1_556 S
Sc1 O11 2.105 . S
Sc1 O15 2.105 . S
Sc1 O17 2.105 . S
Sc1 O21 2.105 . S
Sc2 O3 2.025 . S
Sc2 O12 2.105 . S
Sc2 O14 2.105 . S
Sc2 O18 2.105 . S
Sc2 O20 2.105 . S
O3 Sc0 2.025 . S
O3 Sc1 2.025 1_554 S
O3 Sc2 2.025 . S
C4 O10 1.268 . S
C4 O20 1.268 . S
C5 O11 1.268 . S
C5 O19 1.268 . S
C6 O12 1.268 1_556 S
C6 O21 1.268 . S
C7 O13 1.268 . S
C7 O17 1.268 . S
C8 O14 1.268 . S
C8 O16 1.268 . S
C9 O15 1.268 . S
C9 O18 1.268 1_556 S
O10 Sc0 2.105 . S
O10 C4 1.268 . S
O11 Sc1 2.105 . S
O11 C5 1.268 . S
O12 Sc2 2.105 . S
O12 C6 1.268 1_554 S
O13 Sc0 2.105 1_556 S
O13 C7 1.268 . S
O14 Sc2 2.105 . S
O14 C8 1.268 . S
O15 Sc1 2.105 . S
O15 C9 1.268 . S
O16 Sc0 2.105 . S
O16 C8 1.268 . S
O17 Sc1 2.105 . S
O17 C7 1.268 . S
O18 Sc2 2.105 . S
O18 C9 1.268 1_554 S
O19 Sc0 2.105 1_556 S
O19 C5 1.268 . S
O20 Sc2 2.105 . S
O20 C4 1.268 . S
O21 Sc1 2.105 . S
O21 C6 1.268 . S
Sc22 O25 2.025 . S
Sc22 O32 2.105 . S
Sc22 O35 2.105 1_554 S
Sc22 O38 2.105 . S
Sc22 O41 2.105 1_554 S
Sc23 O25 2.025 1_556 S
Sc23 O33 2.105 . S
Sc23 O37 2.105 . S
Sc23 O39 2.105 . S
Sc23 O43 2.105 . S
Sc24 O25 2.025 . S
Sc24 O34 2.105 . S
Sc24 O36 2.105 . S
Sc24 O40 2.105 . S
Sc24 O42 2.105 . S
O25 Sc22 2.025 . S
O25 Sc23 2.025 1_554 S
O25 Sc24 2.025 . S
C26 O32 1.268 . S
C26 O42 1.268 . S
C27 O33 1.268 . S
C27 O41 1.268 . S
C28 O34 1.268 1_556 S
C28 O43 1.268 . S
C29 O35 1.268 . S
C29 O39 1.268 . S
C30 O36 1.268 . S
C30 O38 1.268 . S
C31 O37 1.268 . S
C31 O40 1.268 1_556 S
O32 Sc22 2.105 . S
O32 C26 1.268 . S
O33 Sc23 2.105 . S
O33 C27 1.268 . S
O34 Sc24 2.105 . S
O34 C28 1.268 1_554 S
O35 Sc22 2.105 1_556 S
O35 C29 1.268 . S
O36 Sc24 2.105 . S
O36 C30 1.268 . S
O37 Sc23 2.105 . S
O37 C31 1.268 . S
O38 Sc22 2.105 . S
O38 C30 1.268 . S
O39 Sc23 2.105 . S
O39 C29 1.268 . S
O40 Sc24 2.105 . S
O40 C31 1.268 1_554 S
O41 Sc22 2.105 1_556 S
O41 C27 1.268 . S
O42 Sc24 2.105 . S
O42 C26 1.268 . S
O43 Sc23 2.105 . S
O43 C28 1.268 . S
Sc44 O47 2.025 . S
Sc44 O54 2.105 . S
Sc44 O57 2.105 1_554 S
Sc44 O60 2.105 . S
Sc44 O63 2.105 1_554 S
Sc45 O47 2.025 1_556 S
Sc45 O55 2.105 . S
Sc45 O59 2.105 . S
Sc45 O61 2.105 . S
Sc45 O65 2.105 . S
Sc46 O47 2.025 . S
Sc46 O56 2.105 . S
Sc46 O58 2.105 . S
Sc46 O62 2.105 . S
Sc46 O64 2.105 . S
O47 Sc44 2.025 . S
O47 Sc45 2.025 1_554 S
O47 Sc46 2.025 . S
C48 O54 1.268 . S
C48 O64 1.268 . S
C49 O55 1.268 . S
C49 O63 1.268 . S
C50 O56 1.268 1_556 S
C50 O65 1.268 . S
C51 O57 1.268 . S
C51 O61 1.268 . S
C52 O58 1.268 . S
C52 O60 1.268 . S
C53 O59 1.268 . S
C53 O62 1.268 1_556 S
O54 Sc44 2.105 . S
O54 C48 1.268 . S
O55 Sc45 2.105 . S
O55 C49 1.268 . S
O56 Sc46 2.105 . S
O56 C50 1.268 1_554 S
O57 Sc44 2.105 1_556 S
O57 C51 1.268 . S
O58 Sc46 2.105 . S
O58 C52 1.268 . S
O59 Sc45 2.105 . S
O59 C53 1.268 . S
O60 Sc44 2.105 . S
O60 C52 1.268 . S
O61 Sc45 2.105 . S
O61 C51 1.268 . S
O62 Sc46 2.105 . S
O62 C53 1.268 1_554 S
O63 Sc44 2.105 1_556 S
O63 C49 1.268 . S
O64 Sc46 2.105 . S
O64 C48 1.268 . S
O65 Sc45 2.105 . S
O65 C50 1.268 . S
Sc66 O69 2.025 . S
Sc66 O76 2.105 . S
Sc66 O79 2.105 . S
Sc66 O82 2.105 . S
Sc66 O85 2.105 . S
Sc67 O69 2.025 . S
Sc67 O77 2.105 . S
Sc67 O81 2.105 . S
Sc67 O83 2.105 . S
Sc67 O87 2.105 . S
Sc68 O69 2.025 . S
Sc68 O78 2.105 . S
Sc68 O80 2.105 . S
Sc68 O84 2.105 . S
Sc68 O86 2.105 . S
O69 Sc66 2.025 . S
O69 Sc67 2.025 . S
O69 Sc68 2.025 . S
C70 O76 1.268 . S
C70 O86 1.268 . S
C71 O77 1.268 . S
C71 O85 1.268 . S
C72 O78 1.268 . S
C72 O87 1.268 . S
C73 O79 1.268 . S
C73 O83 1.268 . S
C74 O80 1.268 . S
C74 O82 1.268 . S
C75 O81 1.268 . S
C75 O84 1.268 . S
O76 Sc66 2.105 . S
O76 C70 1.268 . S
O77 Sc67 2.105 . S
O77 C71 1.268 . S
O78 Sc68 2.105 . S
O78 C72 1.268 . S
O79 Sc66 2.105 . S
O79 C73 1.268 . S
O80 Sc68 2.105 . S
O80 C74 1.268 . S
O81 Sc67 2.105 . S
O81 C75 1.268 . S
O82 Sc66 2.105 . S
O82 C74 1.268 . S
O83 Sc67 2.105 . S
O83 C73 1.268 . S
O84 Sc68 2.105 . S
O84 C75 1.268 . S
O85 Sc66 2.105 . S
O85 C71 1.268 . S
O86 Sc68 2.105 . S
O86 C70 1.268 . S
O87 Sc67 2.105 . S
O87 C72 1.268 . S
Sc88 O91 2.025 . S
Sc88 O98 2.105 . S
Sc88 O101 2.105 . S
Sc88 O104 2.105 . S
Sc88 O107 2.105 . S
Sc89 O91 2.025 . S
Sc89 O99 2.105 . S
Sc89 O103 2.105 . S
Sc89 O105 2.105 . S
Sc89 O109 2.105 . S
Sc90 O91 2.025 . S
Sc90 O100 2.105 . S
Sc90 O102 2.105 . S
Sc90 O106 2.105 . S
Sc90 O108 2.105 . S
O91 Sc88 2.025 . S
O91 Sc89 2.025 . S
O91 Sc90 2.025 . S
C92 O98 1.268 . S
C92 O108 1.268 . S
C93 O99 1.268 . S
C93 O107 1.268 . S
C94 O100 1.268 . S
C94 O109 1.268 . S
C95 O101 1.268 . S
C95 O105 1.268 . S
C96 O102 1.268 . S
C96 O104 1.268 . S
C97 O103 1.268 . S
C97 O106 1.268 . S
O98 Sc88 2.105 . S
O98 C92 1.268 . S
O99 Sc89 2.105 . S
O99 C93 1.268 . S
O100 Sc90 2.105 . S
O100 C94 1.268 . S
O101 Sc88 2.105 . S
O101 C95 1.268 . S
O102 Sc90 2.105 . S
O102 C96 1.268 . S
O103 Sc89 2.105 . S
O103 C97 1.268 . S
O104 Sc88 2.105 . S
O104 C96 1.268 . S
O105 Sc89 2.105 . S
O105 C95 1.268 . S
O106 Sc90 2.105 . S
O106 C97 1.268 . S
O107 Sc88 2.105 . S
O107 C93 1.268 . S
O108 Sc90 2.105 . S
O108 C92 1.268 . S
O109 Sc89 2.105 . S
O109 C94 1.268 . S
Sc110 O113 2.025 . S
Sc110 O120 2.105 . S
Sc110 O123 2.105 . S
Sc110 O126 2.105 . S
Sc110 O129 2.105 . S
Sc111 O113 2.025 . S
Sc111 O121 2.105 . S
Sc111 O125 2.105 . S
Sc111 O127 2.105 . S
Sc111 O131 2.105 . S
Sc112 O113 2.025 . S
Sc112 O122 2.105 . S
Sc112 O124 2.105 . S
Sc112 O128 2.105 . S
Sc112 O130 2.105 . S
O113 Sc110 2.025 . S
O113 Sc111 2.025 . S
O113 Sc112 2.025 . S
C114 O120 1.268 . S
C114 O130 1.268 . S
C115 O121 1.268 . S
C115 O129 1.268 . S
C116 O122 1.268 . S
C116 O131 1.268 . S
C117 O123 1.268 . S
C117 O127 1.268 . S
C118 O124 1.268 . S
C118 O126 1.268 . S
C119 O125 1.268 . S
C119 O128 1.268 . S
O120 Sc110 2.105 . S
O120 C114 1.268 . S
O121 Sc111 2.105 . S
O121 C115 1.268 . S
O122 Sc112 2.105 . S
O122 C116 1.268 . S
O123 Sc110 2.105 . S
O123 C117 1.268 . S
O124 Sc112 2.105 . S
O124 C118 1.268 . S
O125 Sc111 2.105 . S
O125 C119 1.268 . S
O126 Sc110 2.105 . S
O126 C118 1.268 . S
O127 Sc111 2.105 . S
O127 C117 1.268 . S
O128 Sc112 2.105 . S
O128 C119 1.268 . S
O129 Sc110 2.105 . S
O129 C115 1.268 . S
O130 Sc112 2.105 . S
O130 C114 1.268 . S
O131 Sc111 2.105 . S
O131 C116 1.268 . S
Sc132 O135 2.025 . S
Sc132 O142 2.105 . S
Sc132 O145 2.105 . S
Sc132 O148 2.105 . S
Sc132 O151 2.105 . S
Sc133 O135 2.025 . S
Sc133 O143 2.105 . S
Sc133 O147 2.105 . S
Sc133 O149 2.105 . S
Sc133 O153 2.105 . S
Sc134 O135 2.025 . S
Sc134 O144 2.105 . S
Sc134 O146 2.105 . S
Sc134 O150 2.105 . S
Sc134 O152 2.105 . S
O135 Sc132 2.025 . S
O135 Sc133 2.025 . S
O135 Sc134 2.025 . S
C136 O142 1.268 . S
C136 O152 1.268 . S
C137 O143 1.268 . S
C137 O151 1.268 . S
C138 O144 1.268 . S
C138 O153 1.268 . S
C139 O145 1.268 . S
C139 O149 1.268 . S
C140 O146 1.268 . S
C140 O148 1.268 . S
C141 O147 1.268 . S
C141 O150 1.268 . S
O142 Sc132 2.105 . S
O142 C136 1.268 . S
O143 Sc133 2.105 . S
O143 C137 1.268 . S
O144 Sc134 2.105 . S
O144 C138 1.268 . S
O145 Sc132 2.105 . S
O145 C139 1.268 . S
O146 Sc134 2.105 . S
O146 C140 1.268 . S
O147 Sc133 2.105 . S
O147 C141 1.268 . S
O148 Sc132 2.105 . S
O148 C140 1.268 . S
O149 Sc133 2.105 . S
O149 C139 1.268 . S
O150 Sc134 2.105 . S
O150 C141 1.268 . S
O151 Sc132 2.105 . S
O151 C137 1.268 . S
O152 Sc134 2.105 . S
O152 C136 1.268 . S
O153 Sc133 2.105 . S
O153 C138 1.268 . S
Sc154 O157 2.025 . S
Sc154 O164 2.105 . S
Sc154 O167 2.105 . S
Sc154 O170 2.105 . S
Sc154 O173 2.105 . S
Sc155 O157 2.025 . S
Sc155 O165 2.105 . S
Sc155 O169 2.105 . S
Sc155 O171 2.105 . S
Sc155 O175 2.105 . S
Sc156 O157 2.025 . S
Sc156 O166 2.105 . S
Sc156 O168 2.105 . S
Sc156 O172 2.105 . S
Sc156 O174 2.105 . S
O157 Sc154 2.025 . S
O157 Sc155 2.025 . S
O157 Sc156 2.025 . S
C158 O164 1.268 . S
C158 O174 1.268 . S
C159 O165 1.268 . S
C159 O173 1.268 . S
C160 O166 1.268 . S
C160 O175 1.268 . S
C161 O167 1.268 . S
C161 O171 1.268 . S
C162 O168 1.268 . S
C162 O170 1.268 . S
C163 O169 1.268 . S
C163 O172 1.268 . S
O164 Sc154 2.105 . S
O164 C158 1.268 . S
O165 Sc155 2.105 . S
O165 C159 1.268 . S
O166 Sc156 2.105 . S
O166 C160 1.268 . S
O167 Sc154 2.105 . S
O167 C161 1.268 . S
O168 Sc156 2.105 . S
O168 C162 1.268 . S
O169 Sc155 2.105 . S
O169 C163 1.268 . S
O170 Sc154 2.105 . S
O170 C162 1.268 . S
O171 Sc155 2.105 . S
O171 C161 1.268 . S
O172 Sc156 2.105 . S
O172 C163 1.268 . S
O173 Sc154 2.105 . S
O173 C159 1.268 . S
O174 Sc156 2.105 . S
O174 C158 1.268 . S
O175 Sc155 2.105 . S
O175 C160 1.268 . S
Sc176 O179 2.025 . S
Sc176 O186 2.105 . S
Sc176 O189 2.105 . S
Sc176 O192 2.105 . S
Sc176 O195 2.105 . S
Sc177 O179 2.025 . S
Sc177 O187 2.105 . S
Sc177 O191 2.105 . S
Sc177 O193 2.105 . S
Sc177 O197 2.105 . S
Sc178 O179 2.025 . S
Sc178 O188 2.105 . S
Sc178 O190 2.105 . S
Sc178 O194 2.105 . S
Sc178 O196 2.105 . S
O179 Sc176 2.025 . S
O179 Sc177 2.025 . S
O179 Sc178 2.025 . S
C180 O186 1.268 . S
C180 O196 1.268 . S
C181 O187 1.268 . S
C181 O195 1.268 . S
C182 O188 1.268 . S
C182 O197 1.268 . S
C183 O189 1.268 . S
C183 O193 1.268 . S
C184 O190 1.268 . S
C184 O192 1.268 . S
C185 O191 1.268 . S
C185 O194 1.268 . S
O186 Sc176 2.105 . S
O186 C180 1.268 . S
O187 Sc177 2.105 . S
O187 C181 1.268 . S
O188 Sc178 2.105 . S
O188 C182 1.268 . S
O189 Sc176 2.105 . S
O189 C183 1.268 . S
O190 Sc178 2.105 . S
O190 C184 1.268 . S
O191 Sc177 2.105 . S
O191 C185 1.268 . S
O192 Sc176 2.105 . S
O192 C184 1.268 . S
O193 Sc177 2.105 . S
O193 C183 1.268 . S
O194 Sc178 2.105 . S
O194 C185 1.268 . S
O195 Sc176 2.105 . S
O195 C181 1.268 . S
O196 Sc178 2.105 . S
O196 C180 1.268 . S
O197 Sc177 2.105 . S
O197 C182 1.268 . S
H198 C206 0.950 . S
H199 C211 0.950 . S
H200 C208 0.950 . S
H201 C210 0.950 . S
H202 C212 0.950 . S
H203 C214 0.950 1_545 S
H204 C216 0.950 . S
H205 C217 0.950 . S
C206 H198 0.950 . S
C206 C207 1.386 . S
C206 C208 1.391 . S
C207 C206 1.386 . S
C207 C211 1.393 . S
C208 H200 0.950 . S
C208 C206 1.391 . S
C208 C209 1.400 . S
C209 C208 1.400 . S
C209 C210 1.398 . S
C209 C215 1.491 1_545 S
C210 H201 0.950 . S
C210 C209 1.398 . S
C210 C211 1.391 . S
C211 H199 0.950 . S
C211 C207 1.393 . S
C211 C210 1.391 . S
C212 H202 0.950 . S
C212 C213 1.386 . S
C212 C214 1.391 . S
C213 C212 1.386 . S
C213 C217 1.393 . S
C214 H203 0.950 1_565 S
C214 C212 1.391 . S
C214 C215 1.400 . S
C215 C209 1.491 1_565 S
C215 C214 1.400 . S
C215 C216 1.398 . S
C216 H204 0.950 . S
C216 C215 1.398 . S
C216 C217 1.391 . S
C217 H205 0.950 . S
C217 C213 1.393 . S
C217 C216 1.391 . S
H218 C226 0.950 . S
H219 C231 0.950 . S
H220 C228 0.957 . S
H221 C230 0.950 . S
H222 C232 0.950 . S
H223 C234 0.950 1_655 S
H224 C236 0.950 . S
H225 C237 0.950 . S
C226 H218 0.950 . S
C226 C227 1.386 . S
C226 C228 1.391 . S
C227 C226 1.386 . S
C227 C231 1.393 . S
C228 H220 0.957 . S
C228 C226 1.391 . S
C228 C229 1.400 . S
C229 C228 1.400 . S
C229 C230 1.398 . S
C229 C235 1.491 1_655 S
C230 H221 0.950 . S
C230 C229 1.398 . S
C230 C231 1.391 . S
C231 H219 0.950 . S
C231 C227 1.393 . S
C231 C230 1.391 . S
C232 H222 0.950 . S
C232 C233 1.386 . S
C232 C234 1.391 . S
C233 C232 1.386 . S
C233 C237 1.393 . S
C234 H223 0.950 1_455 S
C234 C232 1.391 . S
C234 C235 1.400 . S
C235 C229 1.491 1_455 S
C235 C234 1.400 . S
C235 C236 1.398 . S
C236 H224 0.950 . S
C236 C235 1.398 . S
C236 C237 1.391 . S
C237 H225 0.950 . S
C237 C233 1.393 . S
C237 C236 1.391 . S
H238 C246 0.950 . S
H239 C251 0.950 . S
H240 C248 0.950 . S
H241 C250 0.950 . S
H242 C252 0.950 . S
H243 C254 0.950 . S
H244 C256 0.950 . S
H245 C257 0.950 . S
C246 H238 0.950 . S
C246 C247 1.386 . S
C246 C248 1.391 . S
C247 C246 1.386 . S
C247 C251 1.393 . S
C248 H240 0.950 . S
C248 C246 1.391 . S
C248 C249 1.400 . S
C249 C248 1.400 . S
C249 C250 1.398 . S
C249 C255 1.491 . S
C250 H241 0.950 . S
C250 C249 1.398 . S
C250 C251 1.391 . S
C251 H239 0.950 . S
C251 C247 1.393 . S
C251 C250 1.391 . S
C252 H242 0.950 . S
C252 C253 1.386 . S
C252 C254 1.391 . S
C253 C252 1.386 . S
C253 C257 1.393 . S
C254 H243 0.950 . S
C254 C252 1.391 . S
C254 C255 1.400 . S
C255 C249 1.491 . S
C255 C254 1.400 . S
C255 C256 1.398 . S
C256 H244 0.950 . S
C256 C255 1.398 . S
C256 C257 1.391 . S
C257 H245 0.950 . S
C257 C253 1.393 . S
C257 C256 1.391 . S
H258 C266 0.950 . S
H259 C271 0.950 . S
H260 C268 0.950 1_655 S
H261 C270 0.950 . S
H262 C272 0.950 . S
H263 C274 0.950 . S
H264 C276 0.950 . S
H265 C277 0.950 . S
C266 H258 0.950 . S
C266 C267 1.386 . S
C266 C268 1.391 . S
C267 C266 1.386 . S
C267 C271 1.393 . S
C268 H260 0.950 1_455 S
C268 C266 1.391 . S
C268 C269 1.400 . S
C269 C268 1.400 . S
C269 C270 1.398 . S
C269 C275 1.491 1_455 S
C270 H261 0.950 . S
C270 C269 1.398 . S
C270 C271 1.391 . S
C271 H259 0.950 . S
C271 C267 1.393 . S
C271 C270 1.391 . S
C272 H262 0.950 . S
C272 C273 1.386 . S
C272 C274 1.391 . S
C273 C272 1.386 . S
C273 C277 1.393 . S
C274 H263 0.950 . S
C274 C272 1.391 . S
C274 C275 1.400 . S
C275 C269 1.491 1_655 S
C275 C274 1.400 . S
C275 C276 1.398 . S
C276 H264 0.950 . S
C276 C275 1.398 . S
C276 C277 1.391 . S
C277 H265 0.950 . S
C277 C273 1.393 . S
C277 C276 1.391 . S
H278 C286 0.950 . S
H279 C291 0.950 . S
H280 C288 0.950 . S
H281 C290 0.950 . S
H282 C292 0.950 . S
H283 C294 0.950 . S
H284 C296 0.950 . S
H285 C297 0.950 . S
C286 H278 0.950 . S
C286 C287 1.386 . S
C286 C288 1.391 . S
C287 C286 1.386 . S
C287 C291 1.393 . S
C288 H280 0.950 . S
C288 C286 1.391 . S
C288 C289 1.400 . S
C289 C288 1.400 . S
C289 C290 1.398 . S
C289 C295 1.491 . S
C290 H281 0.950 . S
C290 C289 1.398 . S
C290 C291 1.391 . S
C291 H279 0.950 . S
C291 C287 1.393 . S
C291 C290 1.391 . S
C292 H282 0.950 . S
C292 C293 1.386 . S
C292 C294 1.391 . S
C293 C292 1.386 . S
C293 C297 1.393 . S
C294 H283 0.950 . S
C294 C292 1.391 . S
C294 C295 1.400 . S
C295 C289 1.491 . S
C295 C294 1.400 . S
C295 C296 1.398 . S
C296 H284 0.950 . S
C296 C295 1.398 . S
C296 C297 1.391 . S
C297 H285 0.950 . S
C297 C293 1.393 . S
C297 C296 1.391 . S
H298 C306 0.950 . S
H299 C311 0.950 . S
H300 C308 0.950 1_545 S
H301 C310 0.950 . S
H302 C312 0.950 . S
H303 C314 0.950 . S
H304 C316 0.950 . S
H305 C317 0.950 . S
C306 H298 0.950 . S
C306 C307 1.386 . S
C306 C308 1.391 . S
C307 C306 1.386 . S
C307 C311 1.393 . S
C308 H300 0.950 1_565 S
C308 C306 1.391 . S
C308 C309 1.400 . S
C309 C308 1.400 . S
C309 C310 1.398 . S
C309 C315 1.491 1_565 S
C310 H301 0.950 . S
C310 C309 1.398 . S
C310 C311 1.391 . S
C311 H299 0.950 . S
C311 C307 1.393 . S
C311 C310 1.391 . S
C312 H302 0.950 . S
C312 C313 1.386 . S
C312 C314 1.391 . S
C313 C312 1.386 . S
C313 C317 1.393 . S
C314 H303 0.950 . S
C314 C312 1.391 . S
C314 C315 1.400 . S
C315 C309 1.491 1_545 S
C315 C314 1.400 . S
C315 C316 1.398 . S
C316 H304 0.950 . S
C316 C315 1.398 . S
C316 C317 1.391 . S
C317 H305 0.950 . S
C317 C313 1.393 . S
C317 C316 1.391 . S
H318 C326 0.950 . S
H319 C331 0.950 . S
H320 C328 0.950 . S
H321 C330 0.950 . S
H322 C332 0.950 . S
H323 C334 0.950 . S
H324 C336 0.950 1_455 S
H325 C337 0.950 . S
C326 H318 0.950 . S
C326 C327 1.386 . S
C326 C328 1.391 . S
C327 C326 1.386 . S
C327 C331 1.393 . S
C328 H320 0.950 . S
C328 C326 1.391 . S
C328 C329 1.400 . S
C329 C328 1.400 . S
C329 C330 1.398 . S
C329 C335 1.491 . S
C330 H321 0.950 . S
C330 C329 1.398 . S
C330 C331 1.391 . S
C331 H319 0.950 . S
C331 C327 1.393 . S
C331 C330 1.391 . S
C332 H322 0.950 . S
C332 C333 1.386 1_655 S
C332 C334 1.391 . S
C333 C332 1.386 1_455 S
C333 C337 1.393 . S
C334 H323 0.950 . S
C334 C332 1.391 . S
C334 C335 1.400 . S
C335 C329 1.491 . S
C335 C334 1.400 . S
C335 C336 1.398 . S
C336 H324 0.950 1_655 S
C336 C335 1.398 . S
C336 C337 1.391 1_655 S
C337 H325 0.950 . S
C337 C333 1.393 . S
C337 C336 1.391 1_455 S
H338 C346 0.950 . S
H339 C351 0.950 . S
H340 C348 0.950 . S
H341 C350 0.950 . S
H342 C352 0.950 . S
H343 C354 0.950 . S
H344 C356 0.950 . S
H345 C357 0.950 . S
C346 H338 0.950 . S
C346 C347 1.386 . S
C346 C348 1.391 . S
C347 C346 1.386 . S
C347 C351 1.393 . S
C348 H340 0.950 . S
C348 C346 1.391 . S
C348 C349 1.400 . S
C349 C348 1.400 . S
C349 C350 1.398 . S
C349 C355 1.491 . S
C350 H341 0.950 . S
C350 C349 1.398 . S
C350 C351 1.391 . S
C351 H339 0.950 . S
C351 C347 1.393 . S
C351 C350 1.391 . S
C352 H342 0.950 . S
C352 C353 1.386 . S
C352 C354 1.391 . S
C353 C352 1.386 . S
C353 C357 1.393 . S
C354 H343 0.950 . S
C354 C352 1.391 . S
C354 C355 1.400 . S
C355 C349 1.491 . S
C355 C354 1.400 . S
C355 C356 1.398 . S
C356 H344 0.950 . S
C356 C355 1.398 . S
C356 C357 1.391 . S
C357 H345 0.950 . S
C357 C353 1.393 . S
C357 C356 1.391 . S
H358 C366 0.950 . S
H359 C371 0.950 . S
H360 C368 0.950 . S
H361 C370 0.950 . S
H362 C372 0.950 . S
H363 C374 0.950 . S
H364 C376 0.950 . S
H365 C377 0.950 . S
C366 H358 0.950 . S
C366 C367 1.386 . S
C366 C368 1.391 . S
C367 C366 1.386 . S
C367 C371 1.393 . S
C368 H360 0.950 . S
C368 C366 1.391 . S
C368 C369 1.400 . S
C369 C368 1.400 . S
C369 C370 1.398 . S
C369 C375 1.491 . S
C370 H361 0.950 . S
C370 C369 1.398 . S
C370 C371 1.391 . S
C371 H359 0.950 . S
C371 C367 1.393 . S
C371 C370 1.391 . S
C372 H362 0.950 . S
C372 C373 1.386 . S
C372 C374 1.391 . S
C373 C372 1.386 . S
C373 C377 1.393 1_565 S
C374 H363 0.950 . S
C374 C372 1.391 . S
C374 C375 1.400 1_565 S
C375 C369 1.491 . S
C375 C374 1.400 1_545 S
C375 C376 1.398 . S
C376 H364 0.950 . S
C376 C375 1.398 . S
C376 C377 1.391 . S
C377 H365 0.950 . S
C377 C373 1.393 1_545 S
C377 C376 1.391 . S
H378 C386 0.950 . S
H379 C391 0.950 . S
H380 C388 0.950 . S
H381 C390 0.950 . S
H382 C392 0.950 . S
H383 C394 0.950 . S
H384 C396 0.934 1_565 S
H385 C397 0.950 . S
C386 H378 0.950 . S
C386 C387 1.386 . S
C386 C388 1.391 . S
C387 C386 1.386 . S
C387 C391 1.393 . S
C388 H380 0.950 . S
C388 C386 1.391 . S
C388 C389 1.400 . S
C389 C388 1.400 . S
C389 C390 1.398 . S
C389 C395 1.491 . S
C390 H381 0.950 . S
C390 C389 1.398 . S
C390 C391 1.391 . S
C391 H379 0.950 . S
C391 C387 1.393 . S
C391 C390 1.391 . S
C392 H382 0.950 . S
C392 C393 1.386 1_545 S
C392 C394 1.391 . S
C393 C392 1.386 1_565 S
C393 C397 1.393 . S
C394 H383 0.950 . S
C394 C392 1.391 . S
C394 C395 1.400 . S
C395 C389 1.491 . S
C395 C394 1.400 . S
C395 C396 1.419 . S
C396 H384 0.934 1_545 S
C396 C395 1.419 . S
C396 C397 1.385 1_545 S
C397 H385 0.950 . S
C397 C393 1.393 . S
C397 C396 1.385 1_565 S
H398 C406 0.950 . S
H399 C411 0.950 . S
H400 C408 0.950 . S
H401 C410 0.950 . S
H402 C412 0.950 . S
H403 C414 0.950 . S
H404 C416 0.950 . S
H405 C417 0.950 . S
C406 H398 0.950 . S
C406 C407 1.386 . S
C406 C408 1.391 1_455 S
C407 C406 1.386 . S
C407 C411 1.393 1_455 S
C408 H400 0.950 . S
C408 C406 1.391 1_655 S
C408 C409 1.400 . S
C409 C408 1.400 . S
C409 C410 1.398 . S
C409 C415 1.491 . S
C410 H401 0.950 . S
C410 C409 1.398 . S
C410 C411 1.391 . S
C411 H399 0.950 . S
C411 C407 1.393 1_655 S
C411 C410 1.391 . S
C412 H402 0.950 . S
C412 C413 1.386 . S
C412 C414 1.391 . S
C413 C412 1.386 . S
C413 C417 1.393 . S
C414 H403 0.950 . S
C414 C412 1.391 . S
C414 C415 1.400 . S
C415 C409 1.491 . S
C415 C414 1.400 . S
C415 C416 1.398 . S
C416 H404 0.950 . S
C416 C415 1.398 . S
C416 C417 1.391 . S
C417 H405 0.950 . S
C417 C413 1.393 . S
C417 C416 1.391 . S
H418 C426 0.950 . S
H419 C431 0.950 . S
H420 C428 0.950 . S
H421 C430 0.950 . S
H422 C432 0.950 . S
H423 C434 0.950 . S
H424 C436 0.950 . S
H425 C437 0.950 . S
C426 H418 0.950 . S
C426 C427 1.386 . S
C426 C428 1.391 . S
C427 C426 1.386 . S
C427 C431 1.393 . S
C428 H420 0.950 . S
C428 C426 1.391 . S
C428 C429 1.400 . S
C429 C428 1.400 . S
C429 C430 1.398 . S
C429 C435 1.491 . S
C430 H421 0.950 . S
C430 C429 1.398 . S
C430 C431 1.391 . S
C431 H419 0.950 . S
C431 C427 1.393 . S
C431 C430 1.391 . S
C432 H422 0.950 . S
C432 C433 1.386 . S
C432 C434 1.391 . S
C433 C432 1.386 . S
C433 C437 1.393 . S
C434 H423 0.950 . S
C434 C432 1.391 . S
C434 C435 1.400 . S
C435 C429 1.491 . S
C435 C434 1.400 . S
C435 C436 1.398 . S
C436 H424 0.950 . S
C436 C435 1.398 . S
C436 C437 1.391 . S
C437 H425 0.950 . S
C437 C433 1.393 . S
C437 C436 1.391 . S
H438 C446 0.950 . S
H439 C451 0.950 . S
H440 C448 0.950 . S
H441 C450 0.950 . S
H442 C452 0.950 . S
H443 C454 0.950 . S
H444 C456 0.950 . S
H445 C457 0.950 . S
C446 H438 0.950 . S
C446 C447 1.386 . S
C446 C448 1.391 . S
C447 C446 1.386 . S
C447 C451 1.393 . S
C448 H440 0.950 . S
C448 C446 1.391 . S
C448 C449 1.400 . S
C449 C448 1.400 . S
C449 C450 1.398 . S
C449 C455 1.491 . S
C450 H441 0.950 . S
C450 C449 1.398 . S
C450 C451 1.391 . S
C451 H439 0.950 . S
C451 C447 1.393 . S
C451 C450 1.391 . S
C452 H442 0.950 . S
C452 C453 1.386 . S
C452 C454 1.391 . S
C453 C452 1.386 . S
C453 C457 1.393 . S
C454 H443 0.950 . S
C454 C452 1.391 . S
C454 C455 1.400 . S
C455 C449 1.491 . S
C455 C454 1.400 . S
C455 C456 1.398 . S
C456 H444 0.950 . S
C456 C455 1.398 . S
C456 C457 1.391 . S
C457 H445 0.950 . S
C457 C453 1.393 . S
C457 C456 1.391 . S
H458 C466 0.950 . S
H459 C471 0.950 . S
H460 C468 0.950 . S
H461 C470 0.950 . S
H462 C472 0.950 . S
H463 C474 0.950 . S
H464 C476 0.950 . S
H465 C477 0.950 . S
C466 H458 0.950 . S
C466 C467 1.386 . S
C466 C468 1.391 . S
C467 C466 1.386 . S
C467 C471 1.393 . S
C468 H460 0.950 . S
C468 C466 1.391 . S
C468 C469 1.400 . S
C469 C468 1.400 . S
C469 C470 1.398 . S
C469 C475 1.491 . S
C470 H461 0.950 . S
C470 C469 1.398 . S
C470 C471 1.391 . S
C471 H459 0.950 . S
C471 C467 1.393 . S
C471 C470 1.391 . S
C472 H462 0.950 . S
C472 C473 1.386 . S
C472 C474 1.391 . S
C473 C472 1.386 . S
C473 C477 1.393 . S
C474 H463 0.950 . S
C474 C472 1.391 . S
C474 C475 1.400 . S
C475 C469 1.491 . S
C475 C474 1.400 . S
C475 C476 1.398 . S
C476 H464 0.950 . S
C476 C475 1.398 . S
C476 C477 1.391 . S
C477 H465 0.950 . S
C477 C473 1.393 . S
C477 C476 1.391 . S
H478 C486 0.950 . S
H479 C491 0.950 . S
H480 C488 0.950 . S
H481 C490 0.950 . S
H482 C492 0.950 . S
H483 C494 0.950 . S
H484 C496 0.950 . S
H485 C497 0.950 . S
C486 H478 0.950 . S
C486 C487 1.386 . S
C486 C488 1.391 . S
C487 C486 1.386 . S
C487 C491 1.393 . S
C488 H480 0.950 . S
C488 C486 1.391 . S
C488 C489 1.400 . S
C489 C488 1.400 . S
C489 C490 1.398 . S
C489 C495 1.491 . S
C490 H481 0.950 . S
C490 C489 1.398 . S
C490 C491 1.391 . S
C491 H479 0.950 . S
C491 C487 1.393 . S
C491 C490 1.391 . S
C492 H482 0.950 . S
C492 C493 1.386 . S
C492 C494 1.391 . S
C493 C492 1.386 . S
C493 C497 1.393 . S
C494 H483 0.950 . S
C494 C492 1.391 . S
C494 C495 1.400 . S
C495 C489 1.491 . S
C495 C494 1.400 . S
C495 C496 1.398 . S
C496 H484 0.950 . S
C496 C495 1.398 . S
C496 C497 1.391 . S
C497 H485 0.950 . S
C497 C493 1.393 . S
C497 C496 1.391 . S
H498 C506 0.950 . S
H499 C511 0.950 . S
H500 C508 0.950 . S
H501 C510 0.950 . S
H502 C512 0.950 . S
H503 C514 0.950 . S
H504 C516 0.950 . S
H505 C517 0.950 . S
C506 H498 0.950 . S
C506 C507 1.386 . S
C506 C508 1.391 . S
C507 C506 1.386 . S
C507 C511 1.393 . S
C508 H500 0.950 . S
C508 C506 1.391 . S
C508 C509 1.400 . S
C509 C508 1.400 . S
C509 C510 1.398 . S
C509 C515 1.491 . S
C510 H501 0.950 . S
C510 C509 1.398 . S
C510 C511 1.391 . S
C511 H499 0.950 . S
C511 C507 1.393 . S
C511 C510 1.391 . S
C512 H502 0.950 . S
C512 C513 1.386 . S
C512 C514 1.391 . S
C513 C512 1.386 . S
C513 C517 1.393 . S
C514 H503 0.950 . S
C514 C512 1.391 . S
C514 C515 1.400 . S
C515 C509 1.491 . S
C515 C514 1.400 . S
C515 C516 1.398 . S
C516 H504 0.950 . S
C516 C515 1.398 . S
C516 C517 1.391 . S
C517 H505 0.950 . S
C517 C513 1.393 . S
C517 C516 1.391 . S
H518 C526 0.950 . S
H519 C531 0.950 . S
H520 C528 0.950 . S
H521 C530 0.950 . S
H522 C532 0.950 . S
H523 C534 0.950 . S
H524 C536 0.950 . S
H525 C537 0.950 . S
C526 H518 0.950 . S
C526 C527 1.386 . S
C526 C528 1.391 . S
C527 C526 1.386 . S
C527 C531 1.393 . S
C528 H520 0.950 . S
C528 C526 1.391 . S
C528 C529 1.400 . S
C529 C528 1.400 . S
C529 C530 1.398 . S
C529 C535 1.491 . S
C530 H521 0.950 . S
C530 C529 1.398 . S
C530 C531 1.391 . S
C531 H519 0.950 . S
C531 C527 1.393 . S
C531 C530 1.391 . S
C532 H522 0.950 . S
C532 C533 1.386 . S
C532 C534 1.391 . S
C533 C532 1.386 . S
C533 C537 1.393 . S
C534 H523 0.950 . S
C534 C532 1.391 . S
C534 C535 1.400 . S
C535 C529 1.491 . S
C535 C534 1.400 . S
C535 C536 1.398 . S
C536 H524 0.950 . S
C536 C535 1.398 . S
C536 C537 1.391 . S
C537 H525 0.950 . S
C537 C533 1.393 . S
C537 C536 1.391 . S
H538 C546 0.950 . S
H539 C551 0.950 . S
H540 C548 0.950 . S
H541 C550 0.950 . S
H542 C552 0.950 . S
H543 C554 0.950 . S
H544 C556 0.950 . S
H545 C557 0.950 . S
C546 H538 0.950 . S
C546 C547 1.386 . S
C546 C548 1.391 . S
C547 C546 1.386 . S
C547 C551 1.393 . S
C548 H540 0.950 . S
C548 C546 1.391 . S
C548 C549 1.400 . S
C549 C548 1.400 . S
C549 C550 1.398 . S
C549 C555 1.491 . S
C550 H541 0.950 . S
C550 C549 1.398 . S
C550 C551 1.391 . S
C551 H539 0.950 . S
C551 C547 1.393 . S
C551 C550 1.391 . S
C552 H542 0.950 . S
C552 C553 1.386 . S
C552 C554 1.391 . S
C553 C552 1.386 . S
C553 C557 1.393 . S
C554 H543 0.950 . S
C554 C552 1.391 . S
C554 C555 1.400 . S
C555 C549 1.491 . S
C555 C554 1.400 . S
C555 C556 1.398 . S
C556 H544 0.950 . S
C556 C555 1.398 . S
C556 C557 1.391 . S
C557 H545 0.950 . S
C557 C553 1.393 . S
C557 C556 1.391 . S
H558 C566 0.950 . S
H559 C571 0.950 . S
H560 C568 0.950 . S
H561 C570 0.950 . S
H562 C572 0.950 . S
H563 C574 0.950 . S
H564 C576 0.950 . S
H565 C577 0.950 . S
C566 H558 0.950 . S
C566 C567 1.386 . S
C566 C568 1.391 . S
C567 C566 1.386 . S
C567 C571 1.393 . S
C568 H560 0.950 . S
C568 C566 1.391 . S
C568 C569 1.400 . S
C569 C568 1.400 . S
C569 C570 1.398 . S
C569 C575 1.491 . S
C570 H561 0.950 . S
C570 C569 1.398 . S
C570 C571 1.391 . S
C571 H559 0.950 . S
C571 C567 1.393 . S
C571 C570 1.391 . S
C572 H562 0.950 . S
C572 C573 1.386 . S
C572 C574 1.391 . S
C573 C572 1.386 . S
C573 C577 1.393 . S
C574 H563 0.950 . S
C574 C572 1.391 . S
C574 C575 1.400 . S
C575 C569 1.491 . S
C575 C574 1.400 . S
C575 C576 1.398 . S
C576 H564 0.950 . S
C576 C575 1.398 . S
C576 C577 1.391 . S
C577 H565 0.950 . S
C577 C573 1.393 . S
C577 C576 1.391 . S
H578 C586 0.950 . S
H579 C591 0.950 . S
H580 C588 0.950 . S
H581 C590 0.950 . S
H582 C592 0.950 . S
H583 C594 0.950 . S
H584 C596 0.950 . S
H585 C597 0.950 . S
C586 H578 0.950 . S
C586 C587 1.386 . S
C586 C588 1.391 . S
C587 C586 1.386 . S
C587 C591 1.393 . S
C588 H580 0.950 . S
C588 C586 1.391 . S
C588 C589 1.400 . S
C589 C588 1.400 . S
C589 C590 1.398 . S
C589 C595 1.491 . S
C590 H581 0.950 . S
C590 C589 1.398 . S
C590 C591 1.391 . S
C591 H579 0.950 . S
C591 C587 1.393 . S
C591 C590 1.391 . S
C592 H582 0.950 . S
C592 C593 1.386 . S
C592 C594 1.391 . S
C593 C592 1.386 . S
C593 C597 1.393 . S
C594 H583 0.950 . S
C594 C592 1.391 . S
C594 C595 1.400 . S
C595 C589 1.491 . S
C595 C594 1.400 . S
C595 C596 1.398 . S
C596 H584 0.950 . S
C596 C595 1.398 . S
C596 C597 1.391 . S
C597 H585 0.950 . S
C597 C593 1.393 . S
C597 C596 1.391 . S
H598 C606 0.950 . S
H599 C611 0.950 . S
H600 C608 0.950 . S
H601 C610 0.950 . S
H602 C612 0.950 . S
H603 C614 0.950 . S
H604 C616 0.950 . S
H605 C617 0.950 . S
C606 H598 0.950 . S
C606 C607 1.386 . S
C606 C608 1.391 . S
C607 C606 1.386 . S
C607 C611 1.393 1_556 S
C608 H600 0.950 . S
C608 C606 1.391 . S
C608 C609 1.400 . S
C609 C608 1.400 . S
C609 C610 1.398 1_556 S
C609 C615 1.491 . S
C610 H601 0.950 . S
C610 C609 1.398 1_554 S
C610 C611 1.391 . S
C611 H599 0.950 . S
C611 C607 1.393 1_554 S
C611 C610 1.391 . S
C612 H602 0.950 . S
C612 C613 1.386 1_554 S
C612 C614 1.391 . S
C613 C612 1.386 1_556 S
C613 C617 1.393 . S
C614 H603 0.950 . S
C614 C612 1.391 . S
C614 C615 1.400 1_554 S
C615 C609 1.491 . S
C615 C614 1.400 1_556 S
C615 C616 1.398 . S
C616 H604 0.950 . S
C616 C615 1.398 . S
C616 C617 1.391 . S
C617 H605 0.950 . S
C617 C613 1.393 . S
C617 C616 1.391 . S
H618 C626 0.950 . S
H619 C631 0.950 . S
H620 C628 0.950 . S
H621 C630 0.950 . S
H622 C632 0.950 . S
H623 C634 0.950 . S
H624 C636 0.950 . S
H625 C637 0.950 . S
C626 H618 0.950 . S
C626 C627 1.386 . S
C626 C628 1.391 . S
C627 C626 1.386 . S
C627 C631 1.393 . S
C628 H620 0.950 . S
C628 C626 1.391 . S
C628 C629 1.400 . S
C629 C628 1.400 . S
C629 C630 1.398 . S
C629 C635 1.491 . S
C630 H621 0.950 . S
C630 C629 1.398 . S
C630 C631 1.391 . S
C631 H619 0.950 . S
C631 C627 1.393 . S
C631 C630 1.391 . S
C632 H622 0.950 . S
C632 C633 1.386 . S
C632 C634 1.391 . S
C633 C632 1.386 . S
C633 C637 1.393 . S
C634 H623 0.950 . S
C634 C632 1.391 . S
C634 C635 1.400 . S
C635 C629 1.491 . S
C635 C634 1.400 . S
C635 C636 1.398 . S
C636 H624 0.950 . S
C636 C635 1.398 . S
C636 C637 1.391 . S
C637 H625 0.950 . S
C637 C633 1.393 . S
C637 C636 1.391 . S
H638 C646 0.950 . S
H639 C651 0.950 . S
H640 C648 0.950 . S
H641 C650 0.950 . S
H642 C652 0.950 . S
H643 C654 0.950 . S
H644 C656 0.950 . S
H645 C657 0.950 . S
C646 H638 0.950 . S
C646 C647 1.386 . S
C646 C648 1.391 . S
C647 C646 1.386 . S
C647 C651 1.393 . S
C648 H640 0.950 . S
C648 C646 1.391 . S
C648 C649 1.400 . S
C649 C648 1.400 . S
C649 C650 1.398 . S
C649 C655 1.491 . S
C650 H641 0.950 . S
C650 C649 1.398 . S
C650 C651 1.391 . S
C651 H639 0.950 . S
C651 C647 1.393 . S
C651 C650 1.391 . S
C652 H642 0.950 . S
C652 C653 1.386 . S
C652 C654 1.391 . S
C653 C652 1.386 . S
C653 C657 1.393 . S
C654 H643 0.950 . S
C654 C652 1.391 . S
C654 C655 1.400 . S
C655 C649 1.491 . S
C655 C654 1.400 . S
C655 C656 1.398 . S
C656 H644 0.950 . S
C656 C655 1.398 . S
C656 C657 1.391 . S
C657 H645 0.950 . S
C657 C653 1.393 . S
C657 C656 1.391 . S
H658 C666 0.950 . S
H659 C671 0.950 . S
H660 C668 0.950 . S
H661 C670 0.950 . S
H662 C672 0.950 . S
H663 C674 0.950 . S
H664 C676 0.950 . S
H665 C677 0.950 . S
C666 H658 0.950 . S
C666 C667 1.386 . S
C666 C668 1.391 . S
C667 C666 1.386 . S
C667 C671 1.393 . S
C668 H660 0.950 . S
C668 C666 1.391 . S
C668 C669 1.400 . S
C669 C668 1.400 . S
C669 C670 1.398 . S
C669 C675 1.491 . S
C670 H661 0.950 . S
C670 C669 1.398 . S
C670 C671 1.391 . S
C671 H659 0.950 . S
C671 C667 1.393 . S
C671 C670 1.391 . S
C672 H662 0.950 . S
C672 C673 1.386 . S
C672 C674 1.391 . S
C673 C672 1.386 . S
C673 C677 1.393 . S
C674 H663 0.950 . S
C674 C672 1.391 . S
C674 C675 1.400 . S
C675 C669 1.491 . S
C675 C674 1.400 . S
C675 C676 1.398 . S
C676 H664 0.950 . S
C676 C675 1.398 . S
C676 C677 1.391 . S
C677 H665 0.950 . S
C677 C673 1.393 . S
C677 C676 1.391 . S
H678 C686 0.950 . S
H679 C691 0.950 . S
H680 C688 0.950 . S
H681 C690 0.950 . S
H682 C692 0.950 . S
H683 C694 0.950 . S
H684 C696 0.950 . S
H685 C697 0.950 . S
C686 H678 0.950 . S
C686 C687 1.386 . S
C686 C688 1.391 1_455 S
C687 C686 1.386 . S
C687 C691 1.393 1_455 S
C688 H680 0.950 . S
C688 C686 1.391 1_655 S
C688 C689 1.400 . S
C689 C688 1.400 . S
C689 C690 1.398 . S
C689 C695 1.491 . S
C690 H681 0.950 . S
C690 C689 1.398 . S
C690 C691 1.391 . S
C691 H679 0.950 . S
C691 C687 1.393 1_655 S
C691 C690 1.391 . S
C692 H682 0.950 . S
C692 C693 1.386 . S
C692 C694 1.391 . S
C693 C692 1.386 . S
C693 C697 1.393 . S
C694 H683 0.950 . S
C694 C692 1.391 . S
C694 C695 1.400 . S
C695 C689 1.491 . S
C695 C694 1.400 . S
C695 C696 1.398 . S
C696 H684 0.950 . S
C696 C695 1.398 . S
C696 C697 1.391 . S
C697 H685 0.950 . S
C697 C693 1.393 . S
C697 C696 1.391 . S
H698 C706 0.950 . S
H699 C711 0.950 . S
H700 C708 0.950 . S
H701 C710 0.950 . S
H702 C712 0.950 . S
H703 C714 0.950 . S
H704 C716 0.950 . S
H705 C717 0.950 . S
C706 H698 0.950 . S
C706 C707 1.386 1_545 S
C706 C708 1.391 . S
C707 C706 1.386 1_565 S
C707 C711 1.393 . S
C708 H700 0.950 . S
C708 C706 1.391 . S
C708 C709 1.400 . S
C709 C708 1.400 . S
C709 C710 1.398 . S
C709 C715 1.491 . S
C710 H701 0.950 . S
C710 C709 1.398 . S
C710 C711 1.391 1_545 S
C711 H699 0.950 . S
C711 C707 1.393 . S
C711 C710 1.391 1_565 S
C712 H702 0.950 . S
C712 C713 1.386 . S
C712 C714 1.391 . S
C713 C712 1.386 . S
C713 C717 1.393 . S
C714 H703 0.950 . S
C714 C712 1.391 . S
C714 C715 1.400 . S
C715 C709 1.491 . S
C715 C714 1.400 . S
C715 C716 1.398 . S
C716 H704 0.950 . S
C716 C715 1.398 . S
C716 C717 1.391 . S
C717 H705 0.950 . S
C717 C713 1.393 . S
C717 C716 1.391 . S
H718 C726 0.950 . S
H719 C731 0.950 . S
H720 C728 0.950 . S
H721 C730 0.950 . S
H722 C732 0.950 . S
H723 C734 0.950 . S
H724 C736 0.950 . S
H725 C737 0.950 . S
C726 H718 0.950 . S
C726 C727 1.386 . S
C726 C728 1.391 1_565 S
C727 C726 1.386 . S
C727 C731 1.393 1_565 S
C728 H720 0.950 . S
C728 C726 1.391 1_545 S
C728 C729 1.400 . S
C729 C728 1.400 . S
C729 C730 1.398 . S
C729 C735 1.491 . S
C730 H721 0.950 . S
C730 C729 1.398 . S
C730 C731 1.391 . S
C731 H719 0.950 . S
C731 C727 1.393 1_545 S
C731 C730 1.391 . S
C732 H722 0.950 . S
C732 C733 1.386 1_655 S
C732 C734 1.391 . S
C733 C732 1.386 1_455 S
C733 C737 1.393 . S
C734 H723 0.950 . S
C734 C732 1.391 . S
C734 C735 1.400 . S
C735 C729 1.491 . S
C735 C734 1.400 . S
C735 C736 1.398 . S
C736 H724 0.950 . S
C736 C735 1.398 . S
C736 C737 1.391 1_655 S
C737 H725 0.950 . S
C737 C733 1.393 . S
C737 C736 1.391 1_455 S
C207 C7 1.178 . S
C213 C162 1.196 . S
C227 C29 1.171 . S
C233 C184 1.200 . S
C247 C140 1.183 . S
C253 C51 1.189 . S
C267 C158 1.195 . S
C273 C49 1.180 . S
C287 C180 1.200 . S
C293 C5 1.168 . S
C307 C136 1.195 . S
C313 C27 1.179 . S
C327 C30 1.193 . S
C333 C73 1.182 . S
C347 C95 1.183 . S
C353 C52 1.183 . S
C367 C8 1.196 . S
C373 C117 1.163 . S
C387 C26 1.189 . S
C393 C115 1.171 . S
C407 C71 1.165 . S
C413 C48 1.201 . S
C427 C4 1.200 . S
C433 C93 1.161 . S
C447 C139 1.165 . S
C453 C96 1.201 . S
C467 C118 1.201 . S
C473 C161 1.162 . S
C487 C183 1.162 . S
C493 C74 1.198 . S
C507 C181 1.188 . S
C513 C92 1.187 . S
C527 C114 1.191 . S
C533 C137 1.184 . S
C547 C70 1.201 . S
C553 C159 1.164 . S
C567 C9 1.120 . S
C573 C28 1.125 . S
C587 C50 1.130 . S
C593 C31 1.114 . S
C607 C53 1.111 . S
C613 C6 1.133 . S
C627 C94 1.110 . S
C633 C75 1.134 . S
C647 C116 1.122 . S
C653 C97 1.122 . S
C667 C119 1.116 . S
C673 C72 1.129 . S
C687 C160 1.120 . S
C693 C141 1.124 . S
C707 C163 1.111 . S
C713 C182 1.133 . S
C727 C138 1.134 . S
C733 C185 1.110 . S
