# Generated by pormake.
# Topology nfc, (4)-cn, num edge types: 1
# Building blocks:
#     Node 0, Type 0, BuildingBlock: NAWXER_clean_sbu_0, # of connection points: 4
#     Node 1, Type 0, BuildingBlock: NAWXER_clean_sbu_0, # of connection points: 4
#     Node 2, Type 0, BuildingBlock: NAWXER_clean_sbu_0, # of connection points: 4
#     Node 3, Type 0, BuildingBlock: NAWXER_clean_sbu_0, # of connection points: 4
#     Node 4, Type 0, BuildingBlock: NAWXER_clean_sbu_0, # of connection points: 4
#     Node 5, Type 0, BuildingBlock: NAWXER_clean_sbu_0, # of connection points: 4
#     Node 6, Type 0, BuildingBlock: NAWXER_clean_sbu_0, # of connection points: 4
#     Node 7, Type 0, BuildingBlock: NAWXER_clean_sbu_0, # of connection points: 4
#     Node 8, Type 0, BuildingBlock: NAWXER_clean_sbu_0, # of connection points: 4
#     Node 9, Type 0, BuildingBlock: NAWXER_clean_sbu_0, # of connection points: 4
#     Node 10, Type 0, BuildingBlock: NAWXER_clean_sbu_0, # of connection points: 4
#     Node 11, Type 0, BuildingBlock: NAWXER_clean_sbu_0, # of connection points: 4
#     Node 12, Type 0, BuildingBlock: NAWXER_clean_sbu_0, # of connection points: 4
#     Node 13, Type 0, BuildingBlock: NAWXER_clean_sbu_0, # of connection points: 4
#     Node 14, Type 0, BuildingBlock: NAWXER_clean_sbu_0, # of connection points: 4
#     Node 15, Type 0, BuildingBlock: NAWXER_clean_sbu_0, # of connection points: 4
#     Edge 16, Type (0, 0), BuildingBlock: OJICUG_clean_linker_0, # of connection points: 2
#     Edge 17, Type (0, 0), BuildingBlock: OJICUG_clean_linker_0, # of connection points: 2
#     Edge 18, Type (0, 0), BuildingBlock: OJICUG_clean_linker_0, # of connection points: 2
#     Edge 19, Type (0, 0), BuildingBlock: OJICUG_clean_linker_0, # of connection points: 2
#     Edge 20, Type (0, 0), BuildingBlock: OJICUG_clean_linker_0, # of connection points: 2
#     Edge 21, Type (0, 0), BuildingBlock: OJICUG_clean_linker_0, # of connection points: 2
#     Edge 22, Type (0, 0), BuildingBlock: OJICUG_clean_linker_0, # of connection points: 2
#     Edge 23, Type (0, 0), BuildingBlock: OJICUG_clean_linker_0, # of connection points: 2
#     Edge 24, Type (0, 0), BuildingBlock: OJICUG_clean_linker_0, # of connection points: 2
#     Edge 25, Type (0, 0), BuildingBlock: OJICUG_clean_linker_0, # of connection points: 2
#     Edge 26, Type (0, 0), BuildingBlock: OJICUG_clean_linker_0, # of connection points: 2
#     Edge 27, Type (0, 0), BuildingBlock: OJICUG_clean_linker_0, # of connection points: 2
#     Edge 28, Type (0, 0), BuildingBlock: OJICUG_clean_linker_0, # of connection points: 2
#     Edge 29, Type (0, 0), BuildingBlock: OJICUG_clean_linker_0, # of connection points: 2
#     Edge 30, Type (0, 0), BuildingBlock: OJICUG_clean_linker_0, # of connection points: 2
#     Edge 31, Type (0, 0), BuildingBlock: OJICUG_clean_linker_0, # of connection points: 2
#     Edge 32, Type (0, 0), BuildingBlock: OJICUG_clean_linker_0, # of connection points: 2
#     Edge 33, Type (0, 0), BuildingBlock: OJICUG_clean_linker_0, # of connection points: 2
#     Edge 34, Type (0, 0), BuildingBlock: OJICUG_clean_linker_0, # of connection points: 2
#     Edge 35, Type (0, 0), BuildingBlock: OJICUG_clean_linker_0, # of connection points: 2
#     Edge 36, Type (0, 0), BuildingBlock: OJICUG_clean_linker_0, # of connection points: 2
#     Edge 37, Type (0, 0), BuildingBlock: OJICUG_clean_linker_0, # of connection points: 2
#     Edge 38, Type (0, 0), BuildingBlock: OJICUG_clean_linker_0, # of connection points: 2
#     Edge 39, Type (0, 0), BuildingBlock: OJICUG_clean_linker_0, # of connection points: 2
#     Edge 40, Type (0, 0), BuildingBlock: OJICUG_clean_linker_0, # of connection points: 2
#     Edge 41, Type (0, 0), BuildingBlock: OJICUG_clean_linker_0, # of connection points: 2
#     Edge 42, Type (0, 0), BuildingBlock: OJICUG_clean_linker_0, # of connection points: 2
#     Edge 43, Type (0, 0), BuildingBlock: OJICUG_clean_linker_0, # of connection points: 2
#     Edge 44, Type (0, 0), BuildingBlock: OJICUG_clean_linker_0, # of connection points: 2
#     Edge 45, Type (0, 0), BuildingBlock: OJICUG_clean_linker_0, # of connection points: 2
#     Edge 46, Type (0, 0), BuildingBlock: OJICUG_clean_linker_0, # of connection points: 2
#     Edge 47, Type (0, 0), BuildingBlock: OJICUG_clean_linker_0, # of connection points: 2
# Relax obj value: 0.157
# Max RMSD: 0.167
# Mean RMSD: 0.167
data_MOF--net-nfc--node1-NAWXER_clean_sbu_0--edge1-OJICUG_clean_linker_0
_symmetry_space_group_name_H-M    P1
_symmetry_Int_Tables_number       1
_symmetry_cell_setting            triclinic
loop_
_symmetry_equiv_pos_as_xyz
'x, y, z'
_cell_length_a     26.395358
_cell_length_b     26.318209
_cell_length_c     19.830009
_cell_angle_alpha  90.585293
_cell_angle_beta   90.362592
_cell_angle_gamma 89.68446
loop_
_atom_site_label
_atom_site_type_symbol
_atom_site_fract_x
_atom_site_fract_y
_atom_site_fract_z
_atom_type_partial_charge
C0 C 0.208 0.10519 0.04893 0.0
C1 C 0.05093 0.03569 0.94034 0.0
O2 O 0.17812 0.13691 0.02071 0.0
Zn3 Zn 0.10932 0.14108 0.96635 0.0
O4 O 0.19859 0.05773 0.0444 0.0
Zn5 Zn 0.13365 0.06321 0.99223 0.0
O6 O 0.15523 0.08601 0.89599 0.0
O7 O 0.13064 0.16456 0.87605 0.0
O8 O 0.086 1.00874 0.96708 0.0
O9 O 0.05605 0.08398 0.93846 0.0
O10 O 0.07131 0.1796 0.0368 0.0
O11 O 0.091 0.10097 0.06538 0.0
C12 C 0.15214 0.12359 0.85594 0.0
C13 C 0.0701 0.1435 0.07942 0.0
C14 C 0.26892 0.78616 0.3239 0.0
C15 C 0.38292 0.65148 0.23882 0.0
O16 O 0.2447 0.74652 0.30411 0.0
Zn17 Zn 0.26299 0.67284 0.26199 0.0
O18 O 0.3169 0.7859 0.32017 0.0
Zn19 Zn 0.32659 0.71734 0.28236 0.0
O20 O 0.29849 0.72011 0.17915 0.0
O21 O 0.22895 0.6738 0.17713 0.0
O22 O 0.39458 0.69445 0.2644 0.0
O23 O 0.33608 0.63851 0.23545 0.0
O24 O 0.23691 0.62585 0.32543 0.0
O25 O 0.30523 0.66579 0.36189 0.0
C26 C 0.26073 0.70114 0.14668 0.0
C27 C 0.27033 0.6327 0.37075 0.0
C28 C 0.4255 0.99315 0.59675 0.0
C29 C 0.34583 0.99095 0.37577 0.0
O30 O 0.39522 0.02572 0.57185 0.0
Zn31 Zn 0.38257 0.99098 0.48781 0.0
O32 O 0.43835 0.95392 0.56199 0.0
Zn33 Zn 0.42336 0.92344 0.4636 0.0
O34 O 0.48944 0.9272 0.41904 0.0
O35 O 0.45228 1.00156 0.43531 0.0
O36 O 0.37513 0.95263 0.38537 0.0
O37 O 0.33733 1.02227 0.42366 0.0
O38 O 0.34533 0.92194 0.51819 0.0
O39 O 0.39434 0.85848 0.48494 0.0
C40 C 0.48883 0.97513 0.41096 0.0
C41 C 0.35446 0.87402 0.51456 0.0
C42 C 0.27322 0.28254 0.83655 0.0
C43 C 0.15247 0.40237 0.73597 0.0
O44 O 0.29384 0.32347 0.81606 0.0
Zn45 Zn 0.272 0.39215 0.76666 0.0
O46 O 0.22591 0.27602 0.82768 0.0
Zn47 Zn 0.21142 0.34132 0.78624 0.0
O48 O 0.24484 0.33306 0.68938 0.0
O49 O 0.30844 0.38704 0.68347 0.0
O50 O 0.14282 0.35973 0.76254 0.0
O51 O 0.19829 0.41836 0.73507 0.0
O52 O 0.29302 0.44205 0.83224 0.0
O53 O 0.22991 0.39364 0.86567 0.0
C54 C 0.28152 0.35237 0.65659 0.0
C55 C 0.26167 0.4294 0.87737 0.0
C56 C 0.02938 0.07078 0.52801 0.0
C57 C 0.15552 0.96219 0.42332 0.0
O58 O 0.02665 0.02428 0.51078 0.0
Zn59 Zn 0.09144 1.02151 0.46941 0.0
O60 O 0.06775 0.0972 0.51002 0.0
Zn61 Zn 0.13997 0.08168 0.4581 0.0
O62 O 0.13543 0.12412 0.3794 0.0
O63 O 0.07735 0.06473 0.37821 0.0
O64 O 0.17318 1.00773 0.42692 0.0
O65 O 0.11052 0.95456 0.44178 0.0
O66 O 0.13782 0.04212 0.55849 0.0
O67 O 0.18382 0.10779 0.52791 0.0
C68 C 0.09722 0.104 0.35119 0.0
C69 C 0.16913 0.07789 0.57356 0.0
C70 C 0.24809 0.67112 0.86137 0.0
C71 C 0.23997 0.58934 0.64093 0.0
O72 O 0.21005 0.68637 0.82646 0.0
Zn73 Zn 0.17921 0.67316 0.72811 0.0
O74 O 0.2788 0.63885 0.83636 0.0
Zn75 Zn 0.24396 0.62805 0.75177 0.0
O76 O 0.25949 0.69623 0.69752 0.0
O77 O 0.18806 0.73828 0.68186 0.0
O78 O 0.27142 0.57961 0.68798 0.0
O79 O 0.2041 0.62152 0.65095 0.0
O80 O 0.11247 0.64844 0.74919 0.0
O81 O 0.17264 0.59514 0.78092 0.0
C82 C 0.23563 0.73431 0.6728 0.0
C83 C 0.12548 0.60709 0.77733 0.0
C84 C 0.53094 1.01838 0.06274 0.0
C85 C 0.40209 0.1326 0.96495 0.0
O86 O 0.53334 0.06623 0.0557 0.0
Zn87 Zn 0.46619 0.07694 0.01448 0.0
O88 O 0.49111 0.99512 0.04218 0.0
Zn89 Zn 0.42029 1.01334 0.99481 0.0
O90 O 0.42364 0.97667 0.91174 0.0
O91 O 0.47145 0.04532 0.91348 0.0
O92 O 0.38902 0.0857 0.96348 0.0
O93 O 0.44414 0.14504 0.99214 0.0
O94 O 0.41345 0.05787 0.0935 0.0
O95 O 0.37126 0.99054 0.0576 0.0
C96 C 0.45275 1.00704 0.8816 0.0
C97 C 0.37929 0.02409 0.10274 0.0
C98 C 0.40761 0.40589 0.28692 0.0
C99 C 0.32009 0.25307 0.19574 0.0
O100 O 0.35911 0.40933 0.28872 0.0
Zn101 Zn 0.2945 0.36316 0.25928 0.0
O102 O 0.42799 0.36634 0.26085 0.0
Zn103 Zn 0.36585 0.33021 0.23862 0.0
O104 O 0.33508 0.37773 0.16058 0.0
O105 O 0.26031 0.405 0.19526 0.0
O106 O 0.36753 0.26119 0.19721 0.0
O107 O 0.29003 0.28795 0.21723 0.0
O108 O 0.26148 0.35475 0.34283 0.0
O109 O 0.33786 0.31972 0.33968 0.0
C110 C 0.29473 0.40419 0.15094 0.0
C111 C 0.29744 0.33137 0.37209 0.0
C112 C 0.76918 0.2643 0.83934 0.0
C113 C 0.88703 0.15328 0.71994 0.0
O114 O 0.74722 0.22347 0.81916 0.0
Zn115 Zn 0.76868 0.15703 0.76106 0.0
O116 O 0.81505 0.27154 0.82368 0.0
Zn117 Zn 0.8281 0.20766 0.77833 0.0
O118 O 0.7933 0.21258 0.67941 0.0
O119 O 0.72851 0.16012 0.6797 0.0
O120 O 0.8962 0.19486 0.7508 0.0
O121 O 0.84223 0.13451 0.72125 0.0
O122 O 0.75421 0.10285 0.82116 0.0
O123 O 0.81771 0.15098 0.85554 0.0
C124 C 0.75614 0.19128 0.64847 0.0
C125 C 0.78802 0.11322 0.86491 0.0
C126 C 0.79986 0.76572 0.27549 0.0
C127 C 0.69588 0.89709 0.17405 0.0
O128 O 0.82738 0.80165 0.25264 0.0
Zn129 Zn 0.81463 0.87255 0.19863 0.0
O130 O 0.75263 0.76533 0.26282 0.0
Zn131 Zn 0.75113 0.82951 0.21844 0.0
O132 O 0.78595 0.8112 0.12244 0.0
O133 O 0.85177 0.8617 0.1166 0.0
O134 O 0.68501 0.85401 0.1975 0.0
O135 O 0.74275 0.91033 0.17148 0.0
O136 O 0.8469 0.91638 0.26381 0.0
O137 O 0.77933 0.87686 0.30197 0.0
C138 C 0.82532 0.82637 0.09091 0.0
C139 C 0.81781 0.90568 0.31235 0.0
C140 C 0.75042 0.16128 0.36172 0.0
C141 C 0.75905 0.08252 0.13836 0.0
O142 O 0.71276 0.174 0.32437 0.0
Zn143 Zn 0.68845 0.16041 0.2225 0.0
O144 O 0.78489 0.13256 0.33789 0.0
Zn145 Zn 0.75488 0.12014 0.25018 0.0
O146 O 0.76735 0.19007 0.19826 0.0
O147 O 0.6933 0.22662 0.17957 0.0
O148 O 0.7891 0.07478 0.18764 0.0
O149 O 0.72048 0.11181 0.14594 0.0
O150 O 0.62305 0.13152 0.23591 0.0
O151 O 0.68449 0.08178 0.27315 0.0
C152 C 0.7412 0.2265 0.17321 0.0
C153 C 0.63697 0.09095 0.26513 0.0
C154 C 0.74501 0.84047 0.68937 0.0
C155 C 0.88496 0.94543 0.78709 0.0
O156 O 0.73698 0.88451 0.71511 0.0
Zn157 Zn 0.80949 0.90094 0.73467 0.0
O158 O 0.79029 0.82352 0.68455 0.0
Zn159 Zn 0.86635 0.8428 0.70367 0.0
O160 O 0.88474 0.7899 0.76951 0.0
O161 O 0.82624 0.84421 0.80573 0.0
O162 O 0.89708 0.90407 0.75713 0.0
O163 O 0.83902 0.9609 0.78429 0.0
O164 O 0.83435 0.90792 0.63521 0.0
O165 O 0.89203 0.8498 0.61099 0.0
C166 C 0.85425 0.8052 0.81534 0.0
C167 C 0.86416 0.887 0.5926 0.0
C168 C 0.52736 0.55419 0.43651 0.0
C169 C 0.62702 0.68878 0.55129 0.0
O170 O 0.51396 0.60021 0.4464 0.0
Zn171 Zn 0.57607 0.6232 0.49339 0.0
O172 O 0.56971 0.53878 0.46078 0.0
Zn173 Zn 0.6327 0.56839 0.51621 0.0
O174 O 0.63087 0.53053 0.59784 0.0
O175 O 0.57126 0.58968 0.59249 0.0
O176 O 0.6476 0.64447 0.55266 0.0
O177 O 0.58592 0.6951 0.51838 0.0
O178 O 0.6321 0.60955 0.41604 0.0
O179 O 0.68692 0.55319 0.45514 0.0
C180 C 0.59466 0.55481 0.62529 0.0
C181 C 0.67146 0.58132 0.40753 0.0
C182 C 0.91245 0.49532 0.11091 0.0
C183 C 0.83056 0.49408 0.89049 0.0
O184 O 0.88206 0.52811 0.08674 0.0
Zn185 Zn 0.87146 0.49584 0.00018 0.0
O186 O 0.9275 0.45806 0.07401 0.0
Zn187 Zn 0.91531 0.43121 0.9729 0.0
O188 O 0.98058 0.44047 0.92838 0.0
O189 O 0.93969 0.51238 0.94684 0.0
O190 O 0.86296 0.45799 0.89758 0.0
O191 O 0.82225 0.52486 0.93904 0.0
O192 O 0.83909 0.42354 0.02751 0.0
O193 O 0.89129 0.3638 0.99051 0.0
C194 C 0.97762 0.4884 0.92176 0.0
C195 C 0.85097 0.37634 0.02151 0.0
C196 C 0.53377 0.5303 0.0982 0.0
C197 C 0.65882 0.415 0.99612 0.0
O198 O 0.53055 0.48243 0.09033 0.0
Zn199 Zn 0.59608 0.47217 0.04671 0.0
O200 O 0.57218 0.55353 0.07446 0.0
Zn201 Zn 0.64084 0.53509 0.02183 0.0
O202 O 0.63199 0.56922 0.9379 0.0
O203 O 0.58477 0.50056 0.94578 0.0
O204 O 0.67175 0.46185 0.99175 0.0
O205 O 0.61842 0.40372 0.02701 0.0
O206 O 0.64792 0.49854 0.12468 0.0
O207 O 0.69011 0.5631 0.08263 0.0
C208 C 0.60092 0.53815 0.91148 0.0
C209 C 0.68074 0.5341 0.13169 0.0
C210 C 0.99919 0.51345 0.5875 0.0
C211 C 0.88386 0.6279 0.47111 0.0
O212 O 1.00425 0.56035 0.57526 0.0
Zn213 Zn 0.94028 0.57112 0.53 0.0
O214 O 0.95965 0.49017 0.56585 0.0
Zn215 Zn 0.8923 0.50932 0.50981 0.0
O216 O 0.89827 0.47053 0.42732 0.0
O217 O 0.94864 0.53713 0.43136 0.0
O218 O 0.86719 0.58216 0.47132 0.0
O219 O 0.92428 0.63884 0.5032 0.0
O220 O 0.88465 0.55621 0.60651 0.0
O221 O 0.83939 0.49094 0.57059 0.0
C222 C 0.92956 0.49957 0.39857 0.0
C223 C 0.84865 0.52441 0.61549 0.0
C224 C 0.0875 0.18171 0.19113 0.0
C225 C 0.05653 0.15041 0.1509 0.0
H226 H 0.12593 0.19076 0.28599 0.0
C227 C 0.03052 0.11043 0.1818 0.0
H228 H 0.1088 0.21215 0.1685 0.0
C229 C 0.04096 0.09743 0.24875 0.0
C230 C 0.07762 0.12425 0.28615 0.0
H231 H 1.00687 0.08529 0.15172 0.0
H232 H 0.02342 0.06383 0.26911 0.0
C233 C 0.09831 0.16851 0.2581 0.0
C234 C 0.30784 0.60517 0.48065 0.0
C235 C 0.26654 0.60608 0.43564 0.0
H236 H 0.33205 0.5954 0.58283 0.0
C237 C 0.21981 0.5864 0.4563 0.0
H238 H 0.34457 0.61913 0.46559 0.0
C239 C 0.21267 0.57287 0.52343 0.0
C240 C 0.25237 0.57801 0.57035 0.0
H241 H 0.18746 0.58594 0.42241 0.0
H242 H 0.17484 0.56354 0.54009 0.0
C243 C 0.30092 0.59059 0.54749 0.0
C244 C 0.45576 0.95605 0.77534 0.0
C245 C 0.45687 1.00356 0.8079 0.0
H246 H 0.44626 0.91574 0.68196 0.0
C247 C 0.45335 0.048 0.76944 0.0
H248 H 0.4581 0.92135 0.80415 0.0
C249 C 0.44495 0.04487 0.69991 0.0
C250 C 0.4415 0.99727 0.66777 0.0
H251 H 0.45341 0.0851 0.79367 0.0
H252 H 0.43952 0.07953 0.67169 0.0
C253 C 0.44894 0.95295 0.70559 0.0
C254 C 0.3188 0.44624 0.97395 0.0
C255 C 0.26928 0.44509 0.94783 0.0
H256 H 0.36588 0.43335 0.06042 0.0
C257 C 0.22819 0.44314 0.99231 0.0
H258 H 0.35112 0.44766 0.94062 0.0
C259 C 0.23661 0.43521 0.06089 0.0
C260 C 0.2862 0.42834 0.08526 0.0
H261 H 0.18965 0.44245 0.97312 0.0
H262 H 0.20427 0.42922 0.09317 0.0
C263 C 0.32725 0.43732 0.04235 0.0
C264 C 0.17257 0.14199 0.66771 0.0
C265 C 0.17752 0.09112 0.64546 0.0
H266 H 0.15989 0.19266 0.75194 0.0
C267 C 0.18054 0.05266 0.69349 0.0
H268 H 0.16933 0.17242 0.63152 0.0
C269 C 0.17613 0.06431 0.76205 0.0
C270 C 0.16688 0.11462 0.7844 0.0
H271 H 0.18395 1.01323 0.6778 0.0
H272 H 0.17677 0.03306 0.79717 0.0
C273 C 0.16672 0.15362 0.73658 0.0
C274 C 0.79738 0.18485 0.46723 0.0
C275 C 0.75126 0.17645 0.43356 0.0
H276 H 0.83461 0.19837 0.56182 0.0
C277 C 0.70586 0.17906 0.47023 0.0
H278 H 0.83284 0.18312 0.44005 0.0
C279 C 0.70686 0.1866 0.54022 0.0
C280 C 0.75315 0.19345 0.57421 0.0
H281 H 0.66979 0.17242 0.44539 0.0
H282 H 0.67169 0.18541 0.56801 0.0
C283 C 0.79825 0.19409 0.53677 0.0
C284 C 0.3562 0.06095 0.21521 0.0
C285 C 0.35458 1.02019 0.16896 0.0
H286 H 0.35152 0.08384 0.31885 0.0
C287 C 0.33608 0.97306 0.19009 0.0
H288 H 0.36972 0.09787 0.20004 0.0
C289 C 0.32645 0.96487 0.25815 0.0
C290 C 0.33378 1.00405 0.30566 0.0
H291 H 0.33395 0.94103 0.15547 0.0
H292 H 0.31809 0.92668 0.27425 0.0
C293 C 0.34515 0.05307 0.28312 0.0
C294 C 0.80127 0.78134 0.98327 0.0
C295 C 0.83823 0.80558 0.02326 0.0
H296 H 0.77864 0.75977 0.88304 0.0
C297 C 0.88619 0.81457 0.99524 0.0
H298 H 0.76412 0.77349 0.00343 0.0
C299 C 0.89505 0.80485 0.92676 0.0
C300 C 0.85585 0.78687 0.88498 0.0
H301 H 0.91578 0.83246 0.02504 0.0
H302 H 0.93034 0.81745 0.90504 0.0
C303 C 0.80989 0.77251 0.91452 0.0
C304 C 0.57975 0.59259 0.73865 0.0
C305 C 0.58578 0.54903 0.6979 0.0
H306 H 0.58078 0.6233 0.83928 0.0
C307 C 0.59071 0.50133 0.72827 0.0
H308 H 0.57665 0.62989 0.71628 0.0
C309 C 0.5915 0.49747 0.79851 0.0
C310 C 0.58923 0.54146 0.83912 0.0
H311 H 0.59581 0.46734 0.69771 0.0
H312 H 0.59743 0.46051 0.82091 0.0
C313 C 0.58236 0.58893 0.80881 0.0
C314 C 0.82786 0.09458 0.97691 0.0
C315 C 0.78749 0.08805 0.93109 0.0
H316 H 0.85087 0.09511 0.08072 0.0
C317 C 0.74262 0.06548 0.95343 0.0
H318 H 0.86315 0.11128 0.96082 0.0
C319 C 0.73546 0.05696 0.02196 0.0
C320 C 0.77351 0.06933 0.06889 0.0
H321 H 0.71093 0.05958 0.91932 0.0
H322 H 0.69839 0.0456 0.03862 0.0
C323 C 0.82106 0.08471 0.04546 0.0
C324 C 0.93022 0.54242 0.21829 0.0
C325 C 0.9252 0.49619 0.18328 0.0
H326 H 0.93765 0.57931 0.31439 0.0
C327 C 0.9276 0.45039 0.21916 0.0
H328 H 0.92838 0.57814 0.19168 0.0
C329 C 0.93155 0.45099 0.28952 0.0
C330 C 0.93496 0.49732 0.32472 0.0
H331 H 0.92333 0.41422 0.1932 0.0
H332 H 0.93027 0.41543 0.3165 0.0
C333 C 0.93591 0.54294 0.28835 0.0
C334 C 0.81296 0.92546 0.49982 0.0
C335 C 0.85811 0.90107 0.52066 0.0
H336 H 0.76451 0.94581 0.41696 0.0
C337 C 0.89319 0.88588 0.47143 0.0
H338 H 0.7848 0.93751 0.53623 0.0
C339 C 0.88203 0.89263 0.40282 0.0
C340 C 0.83513 0.91336 0.38242 0.0
H341 H 0.9281 0.86692 0.48573 0.0
H342 H 0.90834 0.87789 0.36563 0.0
C343 C 0.80119 0.93061 0.43148 0.0
C344 C 0.70769 0.51226 0.24863 0.0
C345 C 0.69606 0.54918 0.20034 0.0
H346 H 0.71173 0.4946 0.35366 0.0
C347 C 0.68675 0.59942 0.22143 0.0
H348 H 0.71445 0.47317 0.23336 0.0
C349 C 0.68286 0.61119 0.28997 0.0
C350 C 0.69064 0.57347 0.3385 0.0
H351 H 0.67689 0.6284 0.18512 0.0
H352 H 0.67033 0.64893 0.30481 0.0
C353 C 0.7061 0.52463 0.31738 0.0
C354 C 0.21148 0.70519 0.03951 0.0
C355 C 0.25847 0.70364 0.07274 0.0
H356 H 0.17168 0.69741 0.94575 0.0
C357 C 0.30285 0.69638 0.035 0.0
H358 H 0.1768 0.71037 0.06777 0.0
C359 C 0.29988 0.68732 0.96548 0.0
C360 C 0.25263 0.68693 0.93262 0.0
H361 H 0.33948 0.69431 0.05983 0.0
H362 H 0.3343 0.67922 0.93781 0.0
C363 C 0.20865 0.69773 0.96982 0.0
C364 C 0.80458 0.466 0.77571 0.0
C365 C 0.81373 0.50589 0.8216 0.0
H366 H 0.80682 0.44116 0.67285 0.0
C367 C 0.82171 0.55501 0.79702 0.0
H368 H 0.7984 0.42784 0.79347 0.0
C369 C 0.82805 0.56249 0.72791 0.0
C370 C 0.82523 0.52113 0.68266 0.0
H371 H 0.82926 0.58635 0.83143 0.0
H372 H 0.83949 0.59961 0.71065 0.0
C373 C 0.80959 0.4737 0.70655 0.0
C374 C 0.24987 0.31674 0.47747 0.0
C375 C 0.296 0.32583 0.44538 0.0
H376 H 0.20964 0.31683 0.57053 0.0
C377 C 0.33911 0.33789 0.48409 0.0
H378 H 0.21621 0.3076 0.44833 0.0
C379 C 0.33512 0.34473 0.55373 0.0
C380 C 0.28831 0.33816 0.58545 0.0
H381 H 0.37496 0.34564 0.46005 0.0
H382 H 0.36809 0.35683 0.58235 0.0
C383 C 0.24623 0.3221 0.54721 0.0
C384 C 0.29395 0.13953 0.07934 0.0
C385 C 0.24449 0.127 0.09831 0.0
H386 H 0.35771 0.18919 0.09557 0.0
C387 C 0.22429 0.15027 0.15624 0.0
H388 H 0.31011 0.12187 0.03516 0.0
C389 C 0.25051 0.18896 0.19019 0.0
C390 C 0.29816 0.20506 0.16767 0.0
H391 H 0.18614 0.1415 0.17179 0.0
H392 H 0.2321 0.20824 0.23199 0.0
C393 C 0.32088 0.17809 0.11392 0.0
C394 C 0.23883 0.91702 0.40052 0.0
C395 C 0.18569 0.91822 0.39711 0.0
H396 H 0.30697 0.87429 0.38075 0.0
C397 C 0.16046 0.87543 0.37045 0.0
H398 H 0.25905 0.94867 0.42272 0.0
C399 C 0.18749 0.83295 0.34706 0.0
C400 C 0.24071 0.83167 0.3498 0.0
H401 H 0.11948 0.8748 0.36724 0.0
H402 H 0.16645 0.80107 0.32654 0.0
C403 C 0.26607 0.87421 0.37719 0.0
C404 C 0.24551 0.81938 0.61589 0.0
C405 C 0.26382 0.7703 0.62977 0.0
H406 H 0.2598 0.89092 0.56847 0.0
C407 C 0.3102 0.7548 0.60132 0.0
H408 H 0.20971 0.83228 0.63647 0.0
C409 C 0.33831 0.78778 0.56168 0.0
C410 C 0.32127 0.83756 0.55 0.0
H411 H 0.32506 0.71691 0.60977 0.0
H412 H 0.37425 0.77458 0.54184 0.0
C413 C 0.27418 0.85286 0.57684 0.0
C414 C 0.35184 0.25836 0.89978 0.0
C415 C 0.30505 0.24415 0.87104 0.0
H416 H 0.41875 0.2347 0.95273 0.0
C417 C 0.28994 0.19324 0.87457 0.0
H418 H 0.36439 0.29746 0.89832 0.0
C419 C 0.32157 0.15708 0.90481 0.0
C420 C 0.36846 0.17127 0.93361 0.0
H421 H 0.25423 0.18115 0.85273 0.0
H422 H 0.30913 0.11795 0.90566 0.0
C423 C 0.38302 0.22242 0.9311 0.0
C424 C 0.96437 0.0427 0.88521 0.0
C425 C 1.00579 1.01239 0.90677 0.0
H426 H 0.8932 0.04582 0.83112 0.0
C427 C 1.00509 0.96034 0.89151 0.0
H428 H 0.96351 0.08308 0.89631 0.0
C429 C 0.96537 0.93946 0.85361 0.0
C430 C 0.92466 0.96975 0.83026 0.0
H431 H 0.03604 0.93584 0.90707 0.0
H432 H 0.9669 0.89915 0.84212 0.0
C433 C 0.92397 1.02152 0.84784 0.0
C434 C 0.91556 0.0838 0.64195 0.0
C435 C 0.92522 0.13041 0.67468 0.0
H436 H 0.9404 0.02877 0.56905 0.0
C437 C 0.96908 0.15746 0.65813 0.0
H438 H 0.88198 0.06211 0.6534 0.0
C439 C 1.00212 0.13876 0.60901 0.0
C440 C 0.9922 0.09242 0.57578 0.0
H441 H 0.9774 0.19369 0.68201 0.0
H442 H 0.03574 0.16042 0.59768 0.0
C443 C 0.94878 0.06492 0.59313 0.0
C444 C 0.54817 0.07412 0.30053 0.0
C445 C 0.59863 0.05743 0.29582 0.0
H446 H 0.47463 0.06139 0.34074 0.0
C447 C 0.61231 1.01084 0.32555 0.0
H448 H 0.53609 0.10954 0.27801 0.0
C449 C 0.57654 0.98269 0.36152 0.0
C450 C 0.52687 1.00122 0.36924 0.0
H451 H 0.65085 0.99673 0.32234 0.0
H452 H 0.58814 0.94755 0.38516 0.0
C453 C 0.51294 0.04663 0.3371 0.0
C454 C 0.65835 0.98266 0.14309 0.0
C455 C 0.65423 0.92957 0.14716 0.0
H456 H 0.62237 0.05288 0.11442 0.0
C457 C 0.60889 0.90666 0.12551 0.0
H458 H 0.69238 1.00137 0.16075 0.0
C459 C 0.56926 0.93567 0.09883 0.0
C460 C 0.57338 0.98872 0.09343 0.0
H461 H 0.60421 0.86586 0.12807 0.0
H462 H 0.53538 0.91619 0.08191 0.0
C463 C 0.61817 1.01204 0.11687 0.0
C464 C 0.64288 0.78231 0.57785 0.0
C465 C 0.65029 0.73041 0.59221 0.0
H466 H 0.66697 0.85925 0.59858 0.0
C467 C 0.6822 0.71739 0.64639 0.0
H468 H 0.61823 0.79356 0.53671 0.0
C469 C 0.70873 0.75458 0.68222 0.0
C470 C 0.70446 0.80605 0.66508 0.0
H471 H 0.688 0.67801 0.66006 0.0
H472 H 0.73513 0.74268 0.72116 0.0
C473 C 0.67013 0.81996 0.61383 0.0
C474 C 0.73545 0.38701 0.93114 0.0
C475 C 0.6885 0.37524 0.96002 0.0
H476 H 0.79842 0.36079 0.87255 0.0
C477 C 0.6689 0.3261 0.95031 0.0
H478 H 0.75172 0.42439 0.93782 0.0
C479 C 0.69497 0.29011 0.91103 0.0
C480 C 0.74165 0.30216 0.88153 0.0
H481 H 0.63277 0.31576 0.97165 0.0
H482 H 0.6785 0.25284 0.90376 0.0
C483 C 0.76205 0.35067 0.89326 0.0
C484 C 0.74776 0.31439 0.12498 0.0
C485 C 0.76718 0.26497 0.13217 0.0
H486 H 0.75952 0.38882 0.08524 0.0
C487 C 0.81241 0.2517 0.09908 0.0
H488 H 0.71279 0.32551 0.14947 0.0
C489 C 0.83836 0.28728 0.06088 0.0
C490 C 0.82027 0.33736 0.05582 0.0
H491 H 0.82784 0.21357 0.10261 0.0
H492 H 0.87339 0.27579 0.03686 0.0
C493 C 0.77447 0.35049 0.08797 0.0
C494 C 0.88744 0.70847 0.40599 0.0
C495 C 0.86049 0.66511 0.42511 0.0
H496 H 0.89007 0.77344 0.34237 0.0
C497 C 0.81366 0.65471 0.3939 0.0
H498 H 0.92388 0.71726 0.42853 0.0
C499 C 0.79439 0.68691 0.34434 0.0
C500 C 0.82177 0.72962 0.32424 0.0
H501 H 0.7921 0.62141 0.40725 0.0
H502 H 0.75811 0.67844 0.3216 0.0
C503 C 0.86843 0.74022 0.35578 0.0
C504 C 0.41705 0.49243 0.34166 0.0
C505 C 0.43893 0.44605 0.32 0.0
H506 H 0.42757 0.56329 0.39486 0.0
C507 C 0.4903 0.43707 0.33443 0.0
H508 H 0.37759 0.50079 0.33106 0.0
C509 C 0.51856 0.47247 0.3717 0.0
C510 C 0.4965 0.51821 0.39504 0.0
H511 H 0.50846 0.40196 0.31862 0.0
H512 H 0.55788 0.46365 0.38259 0.0
C513 C 0.44563 0.5283 0.37834 0.0
C514 C 0.50657 0.60912 0.15973 0.0
C515 C 0.49529 0.55962 0.13692 0.0
H516 H 0.48062 0.67628 0.21061 0.0
C517 C 0.44761 0.53917 0.15188 0.0
H518 H 0.5432 0.62583 0.15009 0.0
C519 C 0.41137 0.56848 0.18649 0.0
C520 C 0.4224 0.61848 0.20778 0.0
H521 H 0.43789 0.50101 0.13563 0.0
H522 H 0.37452 0.55216 0.19586 0.0
C523 C 0.47076 0.63801 0.19501 0.0
C524 C 0.10017 0.52661 0.83603 0.0
C525 C 0.08707 0.57466 0.81019 0.0
H526 H 0.07578 0.46108 0.8907 0.0
C527 C 0.03746 0.59281 0.81951 0.0
H528 H 0.13808 0.51141 0.82966 0.0
C529 C 1.00232 0.56454 0.85557 0.0
C530 C 1.01553 0.51695 0.88242 0.0
H531 H 0.02598 0.62955 0.80038 0.0
H532 H 0.9646 0.58012 0.86242 0.0
C533 C 0.06456 0.49775 0.8711 0.0
C534 C 0.02735 0.4376 0.65355 0.0
C535 C 0.03788 0.48591 0.62759 0.0
H536 H 0.05483 0.37371 0.70916 0.0
C537 C 0.08553 0.50758 0.64058 0.0
H538 H 0.99078 0.42009 0.64509 0.0
C539 C 0.12238 0.4808 0.67685 0.0
C540 C 0.11212 0.4321 0.70192 0.0
H541 H 0.09472 0.5449 0.62179 0.0
H542 H 0.15905 0.49822 0.68484 0.0
C543 C 0.06395 0.41112 0.69064 0.0
loop_
_geom_bond_atom_site_label_1
_geom_bond_atom_site_label_2
_geom_bond_distance
_geom_bond_site_symmetry_2
_ccdc_geom_bond_type
C0 O2 1.247 . S
C0 O4 1.258 . S
C1 O8 1.247 . S
C1 O9 1.258 . S
O2 C0 1.247 . S
O2 Zn3 2.030 1_455 S
Zn3 O2 2.030 1_655 S
Zn3 O7 2.027 1_554 S
Zn3 O9 2.033 1_544 S
Zn3 O10 2.036 . S
O4 C0 1.258 . S
O4 Zn5 2.034 1_544 S
Zn5 O4 2.034 1_566 S
Zn5 O6 2.033 . S
Zn5 O8 2.029 1_455 S
Zn5 O11 2.030 1_556 S
O6 Zn5 2.033 . S
O6 C12 1.247 1_565 S
O7 Zn3 2.027 1_556 S
O7 C12 1.258 1_655 S
O8 C1 1.247 . S
O8 Zn5 2.029 1_655 S
O9 C1 1.258 . S
O9 Zn3 2.033 1_566 S
O10 Zn3 2.036 . S
O10 C13 1.247 1_545 S
O11 Zn5 2.030 1_554 S
O11 C13 1.258 1_455 S
C12 O6 1.247 1_545 S
C12 O7 1.258 1_455 S
C13 O10 1.247 1_565 S
C13 O11 1.258 1_655 S
C14 O16 1.247 . S
C14 O18 1.258 . S
C15 O22 1.247 . S
C15 O23 1.258 . S
O16 C14 1.247 . S
O16 Zn17 2.028 . S
Zn17 O16 2.028 . S
Zn17 O21 2.035 . S
Zn17 O23 2.035 . S
Zn17 O24 2.028 . S
O18 C14 1.258 . S
O18 Zn19 2.035 . S
Zn19 O18 2.035 . S
Zn19 O20 2.028 . S
Zn19 O22 2.028 . S
Zn19 O25 2.035 . S
O20 Zn19 2.028 . S
O20 C26 1.247 . S
O21 Zn17 2.035 . S
O21 C26 1.258 . S
O22 C15 1.247 . S
O22 Zn19 2.028 . S
O23 C15 1.258 . S
O23 Zn17 2.035 . S
O24 Zn17 2.028 . S
O24 C27 1.247 . S
O25 Zn19 2.035 . S
O25 C27 1.258 . S
C26 O20 1.247 . S
C26 O21 1.258 . S
C27 O24 1.247 . S
C27 O25 1.258 . S
C28 O30 1.247 . S
C28 O32 1.258 1_545 S
C29 O36 1.247 . S
C29 O37 1.258 1_565 S
O30 C28 1.247 . S
O30 Zn31 2.028 . S
Zn31 O30 2.028 . S
Zn31 O35 2.035 . S
Zn31 O37 2.035 . S
Zn31 O38 2.028 1_545 S
O32 C28 1.258 1_565 S
O32 Zn33 2.035 . S
Zn33 O32 2.035 . S
Zn33 O34 2.028 1_565 S
Zn33 O36 2.028 . S
Zn33 O39 2.035 . S
O34 Zn33 2.028 1_545 S
O34 C40 1.247 . S
O35 Zn31 2.035 . S
O35 C40 1.258 . S
O36 C29 1.247 . S
O36 Zn33 2.028 . S
O37 C29 1.258 1_545 S
O37 Zn31 2.035 . S
O38 Zn31 2.028 1_565 S
O38 C41 1.247 . S
O39 Zn33 2.035 . S
O39 C41 1.258 . S
C40 O34 1.247 . S
C40 O35 1.258 . S
C41 O38 1.247 . S
C41 O39 1.258 . S
C42 O44 1.247 . S
C42 O46 1.258 . S
C43 O50 1.247 . S
C43 O51 1.258 . S
O44 C42 1.247 . S
O44 Zn45 2.028 . S
Zn45 O44 2.028 . S
Zn45 O49 2.035 . S
Zn45 O51 2.035 . S
Zn45 O52 2.028 . S
O46 C42 1.258 . S
O46 Zn47 2.035 . S
Zn47 O46 2.035 . S
Zn47 O48 2.028 . S
Zn47 O50 2.028 . S
Zn47 O53 2.035 . S
O48 Zn47 2.028 . S
O48 C54 1.247 . S
O49 Zn45 2.035 . S
O49 C54 1.258 . S
O50 C43 1.247 . S
O50 Zn47 2.028 . S
O51 C43 1.258 . S
O51 Zn45 2.035 . S
O52 Zn45 2.028 . S
O52 C55 1.247 . S
O53 Zn47 2.035 . S
O53 C55 1.258 . S
C54 O48 1.247 . S
C54 O49 1.258 . S
C55 O52 1.247 . S
C55 O53 1.258 . S
C56 O58 1.247 . S
C56 O60 1.258 . S
C57 O64 1.247 . S
C57 O65 1.258 . S
O58 C56 1.247 . S
O58 Zn59 2.028 1_545 S
Zn59 O58 2.028 1_565 S
Zn59 O63 2.035 . S
Zn59 O65 2.035 1_655 S
Zn59 O66 2.028 . S
O60 C56 1.258 . S
O60 Zn61 2.035 1_655 S
Zn61 O60 2.035 1_455 S
Zn61 O62 2.028 . S
Zn61 O64 2.028 1_545 S
Zn61 O67 2.035 . S
O62 Zn61 2.028 . S
O62 C68 1.247 1_455 S
O63 Zn59 2.035 . S
O63 C68 1.258 1_565 S
O64 C57 1.247 . S
O64 Zn61 2.028 1_565 S
O65 C57 1.258 . S
O65 Zn59 2.035 1_455 S
O66 Zn59 2.028 . S
O66 C69 1.247 1_655 S
O67 Zn61 2.035 . S
O67 C69 1.258 1_545 S
C68 O62 1.247 1_655 S
C68 O63 1.258 1_545 S
C69 O66 1.247 1_455 S
C69 O67 1.258 1_565 S
C70 O72 1.247 . S
C70 O74 1.258 . S
C71 O78 1.247 . S
C71 O79 1.258 . S
O72 C70 1.247 . S
O72 Zn73 2.028 . S
Zn73 O72 2.028 . S
Zn73 O77 2.035 . S
Zn73 O79 2.035 . S
Zn73 O80 2.028 . S
O74 C70 1.258 . S
O74 Zn75 2.035 . S
Zn75 O74 2.035 . S
Zn75 O76 2.028 . S
Zn75 O78 2.028 . S
Zn75 O81 2.035 . S
O76 Zn75 2.028 . S
O76 C82 1.247 . S
O77 Zn73 2.035 . S
O77 C82 1.258 . S
O78 C71 1.247 . S
O78 Zn75 2.028 . S
O79 C71 1.258 . S
O79 Zn73 2.035 . S
O80 Zn73 2.028 . S
O80 C83 1.247 . S
O81 Zn75 2.035 . S
O81 C83 1.258 . S
C82 O76 1.247 . S
C82 O77 1.258 . S
C83 O80 1.247 . S
C83 O81 1.258 . S
C84 O86 1.247 . S
C84 O88 1.258 . S
C85 O92 1.247 . S
C85 O93 1.258 . S
O86 C84 1.247 . S
O86 Zn87 2.030 1_565 S
Zn87 O86 2.030 1_545 S
Zn87 O91 2.027 1_554 S
Zn87 O93 2.033 1_554 S
Zn87 O94 2.036 . S
O88 C84 1.258 . S
O88 Zn89 2.034 1_554 S
Zn89 O88 2.034 1_556 S
Zn89 O90 2.033 . S
Zn89 O92 2.029 1_565 S
Zn89 O95 2.030 1_556 S
O90 Zn89 2.033 . S
O90 C96 1.247 . S
O91 Zn87 2.027 1_556 S
O91 C96 1.258 1_545 S
O92 C85 1.247 . S
O92 Zn89 2.029 1_545 S
O93 C85 1.258 . S
O93 Zn87 2.033 1_556 S
O94 Zn87 2.036 . S
O94 C97 1.247 . S
O95 Zn89 2.030 1_554 S
O95 C97 1.258 1_565 S
C96 O90 1.247 . S
C96 O91 1.258 1_565 S
C97 O94 1.247 . S
C97 O95 1.258 1_545 S
C98 O100 1.247 . S
C98 O102 1.258 . S
C99 O106 1.247 . S
C99 O107 1.258 . S
O100 C98 1.247 . S
O100 Zn101 2.028 . S
Zn101 O100 2.028 . S
Zn101 O105 2.035 . S
Zn101 O107 2.035 . S
Zn101 O108 2.028 . S
O102 C98 1.258 . S
O102 Zn103 2.035 . S
Zn103 O102 2.035 . S
Zn103 O104 2.028 . S
Zn103 O106 2.028 . S
Zn103 O109 2.035 . S
O104 Zn103 2.028 . S
O104 C110 1.247 . S
O105 Zn101 2.035 . S
O105 C110 1.258 . S
O106 C99 1.247 . S
O106 Zn103 2.028 . S
O107 C99 1.258 . S
O107 Zn101 2.035 . S
O108 Zn101 2.028 . S
O108 C111 1.247 . S
O109 Zn103 2.035 . S
O109 C111 1.258 . S
C110 O104 1.247 . S
C110 O105 1.258 . S
C111 O108 1.247 . S
C111 O109 1.258 . S
C112 O114 1.247 . S
C112 O116 1.258 . S
C113 O120 1.247 . S
C113 O121 1.258 . S
O114 C112 1.247 . S
O114 Zn115 2.028 . S
Zn115 O114 2.028 . S
Zn115 O119 2.035 . S
Zn115 O121 2.035 . S
Zn115 O122 2.028 . S
O116 C112 1.258 . S
O116 Zn117 2.035 . S
Zn117 O116 2.035 . S
Zn117 O118 2.028 . S
Zn117 O120 2.028 . S
Zn117 O123 2.035 . S
O118 Zn117 2.028 . S
O118 C124 1.247 . S
O119 Zn115 2.035 . S
O119 C124 1.258 . S
O120 C113 1.247 . S
O120 Zn117 2.028 . S
O121 C113 1.258 . S
O121 Zn115 2.035 . S
O122 Zn115 2.028 . S
O122 C125 1.247 . S
O123 Zn117 2.035 . S
O123 C125 1.258 . S
C124 O118 1.247 . S
C124 O119 1.258 . S
C125 O122 1.247 . S
C125 O123 1.258 . S
C126 O128 1.247 . S
C126 O130 1.258 . S
C127 O134 1.247 . S
C127 O135 1.258 . S
O128 C126 1.247 . S
O128 Zn129 2.028 . S
Zn129 O128 2.028 . S
Zn129 O133 2.035 . S
Zn129 O135 2.035 . S
Zn129 O136 2.028 . S
O130 C126 1.258 . S
O130 Zn131 2.035 . S
Zn131 O130 2.035 . S
Zn131 O132 2.028 . S
Zn131 O134 2.028 . S
Zn131 O137 2.035 . S
O132 Zn131 2.028 . S
O132 C138 1.247 . S
O133 Zn129 2.035 . S
O133 C138 1.258 . S
O134 C127 1.247 . S
O134 Zn131 2.028 . S
O135 C127 1.258 . S
O135 Zn129 2.035 . S
O136 Zn129 2.028 . S
O136 C139 1.247 . S
O137 Zn131 2.035 . S
O137 C139 1.258 . S
C138 O132 1.247 . S
C138 O133 1.258 . S
C139 O136 1.247 . S
C139 O137 1.258 . S
C140 O142 1.247 . S
C140 O144 1.258 . S
C141 O148 1.247 . S
C141 O149 1.258 . S
O142 C140 1.247 . S
O142 Zn143 2.028 . S
Zn143 O142 2.028 . S
Zn143 O147 2.035 . S
Zn143 O149 2.035 . S
Zn143 O150 2.028 . S
O144 C140 1.258 . S
O144 Zn145 2.035 . S
Zn145 O144 2.035 . S
Zn145 O146 2.028 . S
Zn145 O148 2.028 . S
Zn145 O151 2.035 . S
O146 Zn145 2.028 . S
O146 C152 1.247 . S
O147 Zn143 2.035 . S
O147 C152 1.258 . S
O148 C141 1.247 . S
O148 Zn145 2.028 . S
O149 C141 1.258 . S
O149 Zn143 2.035 . S
O150 Zn143 2.028 . S
O150 C153 1.247 . S
O151 Zn145 2.035 . S
O151 C153 1.258 . S
C152 O146 1.247 . S
C152 O147 1.258 . S
C153 O150 1.247 . S
C153 O151 1.258 . S
C154 O156 1.247 . S
C154 O158 1.258 . S
C155 O162 1.247 . S
C155 O163 1.258 . S
O156 C154 1.247 . S
O156 Zn157 2.028 . S
Zn157 O156 2.028 . S
Zn157 O161 2.035 . S
Zn157 O163 2.035 . S
Zn157 O164 2.028 . S
O158 C154 1.258 . S
O158 Zn159 2.035 . S
Zn159 O158 2.035 . S
Zn159 O160 2.028 . S
Zn159 O162 2.028 . S
Zn159 O165 2.035 . S
O160 Zn159 2.028 . S
O160 C166 1.247 . S
O161 Zn157 2.035 . S
O161 C166 1.258 . S
O162 C155 1.247 . S
O162 Zn159 2.028 . S
O163 C155 1.258 . S
O163 Zn157 2.035 . S
O164 Zn157 2.028 . S
O164 C167 1.247 . S
O165 Zn159 2.035 . S
O165 C167 1.258 . S
C166 O160 1.247 . S
C166 O161 1.258 . S
C167 O164 1.247 . S
C167 O165 1.258 . S
C168 O170 1.247 . S
C168 O172 1.258 . S
C169 O176 1.247 . S
C169 O177 1.258 . S
O170 C168 1.247 . S
O170 Zn171 2.028 . S
Zn171 O170 2.028 . S
Zn171 O175 2.035 . S
Zn171 O177 2.035 . S
Zn171 O178 2.028 . S
O172 C168 1.258 . S
O172 Zn173 2.035 . S
Zn173 O172 2.035 . S
Zn173 O174 2.028 . S
Zn173 O176 2.028 . S
Zn173 O179 2.035 . S
O174 Zn173 2.028 . S
O174 C180 1.247 . S
O175 Zn171 2.035 . S
O175 C180 1.258 . S
O176 C169 1.247 . S
O176 Zn173 2.028 . S
O177 C169 1.258 . S
O177 Zn171 2.035 . S
O178 Zn171 2.028 . S
O178 C181 1.247 . S
O179 Zn173 2.035 . S
O179 C181 1.258 . S
C180 O174 1.247 . S
C180 O175 1.258 . S
C181 O178 1.247 . S
C181 O179 1.258 . S
C182 O184 1.247 1_455 S
C182 O186 1.258 . S
C183 O190 1.247 1_655 S
C183 O191 1.258 . S
O184 C182 1.247 1_655 S
O184 Zn185 2.036 . S
Zn185 O184 2.036 . S
Zn185 O189 2.033 1_654 S
Zn185 O191 2.027 1_554 S
Zn185 O192 2.030 . S
O186 C182 1.258 . S
O186 Zn187 2.030 1_554 S
Zn187 O186 2.030 1_556 S
Zn187 O188 2.029 . S
Zn187 O190 2.033 . S
Zn187 O193 2.034 1_456 S
O188 Zn187 2.029 . S
O188 C194 1.247 . S
O189 Zn185 2.033 1_456 S
O189 C194 1.258 . S
O190 C183 1.247 1_455 S
O190 Zn187 2.033 . S
O191 C183 1.258 . S
O191 Zn185 2.027 1_556 S
O192 Zn185 2.030 . S
O192 C195 1.247 . S
O193 Zn187 2.034 1_654 S
O193 C195 1.258 . S
C194 O188 1.247 . S
C194 O189 1.258 . S
C195 O192 1.247 . S
C195 O193 1.258 . S
C196 O198 1.247 . S
C196 O200 1.258 . S
C197 O204 1.247 . S
C197 O205 1.258 . S
O198 C196 1.247 . S
O198 Zn199 2.030 . S
Zn199 O198 2.030 . S
Zn199 O203 2.027 1_554 S
Zn199 O205 2.033 1_554 S
Zn199 O206 2.036 . S
O200 C196 1.258 . S
O200 Zn201 2.034 1_554 S
Zn201 O200 2.034 1_556 S
Zn201 O202 2.033 . S
Zn201 O204 2.029 . S
Zn201 O207 2.030 1_556 S
O202 Zn201 2.033 . S
O202 C208 1.247 . S
O203 Zn199 2.027 1_556 S
O203 C208 1.258 . S
O204 C197 1.247 . S
O204 Zn201 2.029 . S
O205 C197 1.258 . S
O205 Zn199 2.033 1_556 S
O206 Zn199 2.036 . S
O206 C209 1.247 . S
O207 Zn201 2.030 1_554 S
O207 C209 1.258 . S
C208 O202 1.247 . S
C208 O203 1.258 . S
C209 O206 1.247 . S
C209 O207 1.258 . S
C210 O212 1.247 . S
C210 O214 1.258 . S
C211 O218 1.247 . S
C211 O219 1.258 . S
O212 C210 1.247 . S
O212 Zn213 2.028 . S
Zn213 O212 2.028 . S
Zn213 O217 2.035 . S
Zn213 O219 2.035 1_455 S
Zn213 O220 2.028 . S
O214 C210 1.258 . S
O214 Zn215 2.035 1_455 S
Zn215 O214 2.035 1_655 S
Zn215 O216 2.028 . S
Zn215 O218 2.028 . S
Zn215 O221 2.035 . S
O216 Zn215 2.028 . S
O216 C222 1.247 1_655 S
O217 Zn213 2.035 . S
O217 C222 1.258 . S
O218 C211 1.247 . S
O218 Zn215 2.028 . S
O219 C211 1.258 . S
O219 Zn213 2.035 1_655 S
O220 Zn213 2.028 . S
O220 C223 1.247 1_455 S
O221 Zn215 2.035 . S
O221 C223 1.258 . S
C222 O216 1.247 1_455 S
C222 O217 1.258 . S
C223 O220 1.247 1_655 S
C223 O221 1.258 . S
C224 C225 1.387 1_455 S
C224 H228 0.950 . S
C224 C233 1.390 1_565 S
C225 C224 1.387 1_655 S
C225 C227 1.387 . S
H226 C233 0.950 . S
C227 C225 1.387 . S
C227 C229 1.390 1_565 S
C227 H231 0.950 . S
H228 C224 0.950 . S
C229 C227 1.390 1_545 S
C229 C230 1.387 . S
C229 H232 0.950 . S
C230 C229 1.387 . S
C230 C233 1.387 1_655 S
H231 C227 0.950 . S
H232 C229 0.950 . S
C233 C224 1.390 1_545 S
C233 H226 0.950 . S
C233 C230 1.387 1_455 S
C234 C235 1.387 . S
C234 H238 0.950 . S
C234 C243 1.390 . S
C235 C234 1.387 . S
C235 C237 1.387 . S
H236 C243 0.950 . S
C237 C235 1.387 . S
C237 C239 1.390 . S
C237 H241 0.950 . S
H238 C234 0.950 . S
C239 C237 1.390 . S
C239 C240 1.387 . S
C239 H242 0.950 . S
C240 C239 1.387 . S
C240 C243 1.387 . S
H241 C237 0.950 . S
H242 C239 0.950 . S
C243 C234 1.390 . S
C243 H236 0.950 . S
C243 C240 1.387 . S
C244 C245 1.387 . S
C244 H248 0.950 . S
C244 C253 1.390 1_565 S
C245 C244 1.387 . S
C245 C247 1.387 . S
H246 C253 0.950 . S
C247 C245 1.387 . S
C247 C249 1.390 1_565 S
C247 H251 0.950 . S
H248 C244 0.950 . S
C249 C247 1.390 1_545 S
C249 C250 1.387 . S
C249 H252 0.950 . S
C250 C249 1.387 . S
C250 C253 1.387 . S
H251 C247 0.950 . S
H252 C249 0.950 . S
C253 C244 1.390 1_545 S
C253 H246 0.950 . S
C253 C250 1.387 . S
C254 C255 1.387 . S
C254 H258 0.950 . S
C254 C263 1.390 1_556 S
C255 C254 1.387 . S
C255 C257 1.387 . S
H256 C263 0.950 . S
C257 C255 1.387 . S
C257 C259 1.390 1_556 S
C257 H261 0.950 . S
H258 C254 0.950 . S
C259 C257 1.390 1_554 S
C259 C260 1.387 . S
C259 H262 0.950 . S
C260 C259 1.387 . S
C260 C263 1.387 . S
H261 C257 0.950 . S
H262 C259 0.950 . S
C263 C254 1.390 1_554 S
C263 H256 0.950 . S
C263 C260 1.387 . S
C264 C265 1.387 1_655 S
C264 H268 0.950 . S
C264 C273 1.390 1_565 S
C265 C264 1.387 1_455 S
C265 C267 1.387 . S
H266 C273 0.950 . S
C267 C265 1.387 . S
C267 C269 1.390 1_565 S
C267 H271 0.950 . S
H268 C264 0.950 . S
C269 C267 1.390 1_545 S
C269 C270 1.387 . S
C269 H272 0.950 . S
C270 C269 1.387 . S
C270 C273 1.387 1_455 S
H271 C267 0.950 . S
H272 C269 0.950 . S
C273 C264 1.390 1_545 S
C273 H266 0.950 . S
C273 C270 1.387 1_655 S
C274 C275 1.387 . S
C274 H278 0.950 . S
C274 C283 1.390 . S
C275 C274 1.387 . S
C275 C277 1.387 . S
H276 C283 0.950 . S
C277 C275 1.387 . S
C277 C279 1.390 . S
C277 H281 0.950 . S
H278 C274 0.950 . S
C279 C277 1.390 . S
C279 C280 1.387 . S
C279 H282 0.950 . S
C280 C279 1.387 . S
C280 C283 1.387 . S
H281 C277 0.950 . S
H282 C279 0.950 . S
C283 C274 1.390 . S
C283 H276 0.950 . S
C283 C280 1.387 . S
C284 C285 1.387 . S
C284 H288 0.950 . S
C284 C293 1.390 1_545 S
C285 C284 1.387 . S
C285 C287 1.387 . S
H286 C293 0.950 . S
C287 C285 1.387 . S
C287 C289 1.390 1_545 S
C287 H291 0.950 . S
H288 C284 0.950 . S
C289 C287 1.390 1_565 S
C289 C290 1.387 . S
C289 H292 0.950 . S
C290 C289 1.387 . S
C290 C293 1.387 . S
H291 C287 0.950 . S
H292 C289 0.950 . S
C293 C284 1.390 1_565 S
C293 H286 0.950 . S
C293 C290 1.387 . S
C294 C295 1.387 . S
C294 H298 0.950 . S
C294 C303 1.390 1_554 S
C295 C294 1.387 . S
C295 C297 1.387 . S
H296 C303 0.950 . S
C297 C295 1.387 . S
C297 C299 1.390 1_554 S
C297 H301 0.950 . S
H298 C294 0.950 . S
C299 C297 1.390 1_556 S
C299 C300 1.387 . S
C299 H302 0.950 . S
C300 C299 1.387 . S
C300 C303 1.387 . S
H301 C297 0.950 . S
H302 C299 0.950 . S
C303 C294 1.390 1_556 S
C303 H296 0.950 . S
C303 C300 1.387 . S
C304 C305 1.387 . S
C304 H308 0.950 . S
C304 C313 1.390 . S
C305 C304 1.387 . S
C305 C307 1.387 . S
H306 C313 0.950 . S
C307 C305 1.387 . S
C307 C309 1.390 . S
C307 H311 0.950 . S
H308 C304 0.950 . S
C309 C307 1.390 . S
C309 C310 1.387 . S
C309 H312 0.950 . S
C310 C309 1.387 . S
C310 C313 1.387 . S
H311 C307 0.950 . S
H312 C309 0.950 . S
C313 C304 1.390 . S
C313 H306 0.950 . S
C313 C310 1.387 . S
C314 C315 1.387 . S
C314 H318 0.950 . S
C314 C323 1.390 1_556 S
C315 C314 1.387 . S
C315 C317 1.387 . S
H316 C323 0.950 . S
C317 C315 1.387 . S
C317 C319 1.390 1_556 S
C317 H321 0.950 . S
H318 C314 0.950 . S
C319 C317 1.390 1_554 S
C319 C320 1.387 . S
C319 H322 0.950 . S
C320 C319 1.387 . S
C320 C323 1.387 . S
H321 C317 0.950 . S
H322 C319 0.950 . S
C323 C314 1.390 1_554 S
C323 H316 0.950 . S
C323 C320 1.387 . S
C324 C325 1.387 1_655 S
C324 H328 0.950 . S
C324 C333 1.390 . S
C325 C324 1.387 1_455 S
C325 C327 1.387 . S
H326 C333 0.950 . S
C327 C325 1.387 . S
C327 C329 1.390 . S
C327 H331 0.950 . S
H328 C324 0.950 . S
C329 C327 1.390 . S
C329 C330 1.387 . S
C329 H332 0.950 . S
C330 C329 1.387 . S
C330 C333 1.387 1_455 S
H331 C327 0.950 . S
H332 C329 0.950 . S
C333 C324 1.390 . S
C333 H326 0.950 . S
C333 C330 1.387 1_655 S
C334 C335 1.387 . S
C334 H338 0.950 . S
C334 C343 1.390 . S
C335 C334 1.387 . S
C335 C337 1.387 . S
H336 C343 0.950 . S
C337 C335 1.387 . S
C337 C339 1.390 . S
C337 H341 0.950 . S
H338 C334 0.950 . S
C339 C337 1.390 . S
C339 C340 1.387 . S
C339 H342 0.950 . S
C340 C339 1.387 . S
C340 C343 1.387 . S
H341 C337 0.950 . S
H342 C339 0.950 . S
C343 C334 1.390 . S
C343 H336 0.950 . S
C343 C340 1.387 . S
C344 C345 1.387 . S
C344 H348 0.950 . S
C344 C353 1.390 . S
C345 C344 1.387 . S
C345 C347 1.387 . S
H346 C353 0.950 . S
C347 C345 1.387 . S
C347 C349 1.390 . S
C347 H351 0.950 . S
H348 C344 0.950 . S
C349 C347 1.390 . S
C349 C350 1.387 . S
C349 H352 0.950 . S
C350 C349 1.387 . S
C350 C353 1.387 . S
H351 C347 0.950 . S
H352 C349 0.950 . S
C353 C344 1.390 . S
C353 H346 0.950 . S
C353 C350 1.387 . S
C354 C355 1.387 . S
C354 H358 0.950 . S
C354 C363 1.390 1_554 S
C355 C354 1.387 . S
C355 C357 1.387 . S
H356 C363 0.950 . S
C357 C355 1.387 . S
C357 C359 1.390 1_554 S
C357 H361 0.950 . S
H358 C354 0.950 . S
C359 C357 1.390 1_556 S
C359 C360 1.387 . S
C359 H362 0.950 . S
C360 C359 1.387 . S
C360 C363 1.387 . S
H361 C357 0.950 . S
H362 C359 0.950 . S
C363 C354 1.390 1_556 S
C363 H356 0.950 . S
C363 C360 1.387 . S
C364 C365 1.387 1_455 S
C364 H368 0.950 . S
C364 C373 1.390 . S
C365 C364 1.387 1_655 S
C365 C367 1.387 . S
H366 C373 0.950 . S
C367 C365 1.387 . S
C367 C369 1.390 . S
C367 H371 0.950 . S
H368 C364 0.950 . S
C369 C367 1.390 . S
C369 C370 1.387 . S
C369 H372 0.950 . S
C370 C369 1.387 . S
C370 C373 1.387 1_655 S
H371 C367 0.950 . S
H372 C369 0.950 . S
C373 C364 1.390 . S
C373 H366 0.950 . S
C373 C370 1.387 1_455 S
C374 C375 1.387 . S
C374 H378 0.950 . S
C374 C383 1.390 . S
C375 C374 1.387 . S
C375 C377 1.387 . S
H376 C383 0.950 . S
C377 C375 1.387 . S
C377 C379 1.390 . S
C377 H381 0.950 . S
H378 C374 0.950 . S
C379 C377 1.390 . S
C379 C380 1.387 . S
C379 H382 0.950 . S
C380 C379 1.387 . S
C380 C383 1.387 . S
H381 C377 0.950 . S
H382 C379 0.950 . S
C383 C374 1.390 . S
C383 H376 0.950 . S
C383 C380 1.387 . S
C384 C385 1.387 . S
C384 H388 0.950 . S
C384 C393 1.390 . S
C385 C384 1.387 . S
C385 C387 1.387 . S
H386 C393 0.950 . S
C387 C385 1.387 . S
C387 C389 1.390 . S
C387 H391 0.950 . S
H388 C384 0.950 . S
C389 C387 1.390 . S
C389 C390 1.387 . S
C389 H392 0.950 . S
C390 C389 1.387 . S
C390 C393 1.387 . S
H391 C387 0.950 . S
H392 C389 0.950 . S
C393 C384 1.390 . S
C393 H386 0.950 . S
C393 C390 1.387 . S
C394 C395 1.387 . S
C394 H398 0.950 . S
C394 C403 1.390 . S
C395 C394 1.387 . S
C395 C397 1.387 . S
H396 C403 0.950 . S
C397 C395 1.387 . S
C397 C399 1.390 . S
C397 H401 0.950 . S
H398 C394 0.950 . S
C399 C397 1.390 . S
C399 C400 1.387 . S
C399 H402 0.950 . S
C400 C399 1.387 . S
C400 C403 1.387 . S
H401 C397 0.950 . S
H402 C399 0.950 . S
C403 C394 1.390 . S
C403 H396 0.950 . S
C403 C400 1.387 . S
C404 C405 1.387 . S
C404 H408 0.950 . S
C404 C413 1.390 . S
C405 C404 1.387 . S
C405 C407 1.387 . S
H406 C413 0.950 . S
C407 C405 1.387 . S
C407 C409 1.390 . S
C407 H411 0.950 . S
H408 C404 0.950 . S
C409 C407 1.390 . S
C409 C410 1.387 . S
C409 H412 0.950 . S
C410 C409 1.387 . S
C410 C413 1.387 . S
H411 C407 0.950 . S
H412 C409 0.950 . S
C413 C404 1.390 . S
C413 H406 0.950 . S
C413 C410 1.387 . S
C414 C415 1.387 . S
C414 H418 0.950 . S
C414 C423 1.390 . S
C415 C414 1.387 . S
C415 C417 1.387 . S
H416 C423 0.950 . S
C417 C415 1.387 . S
C417 C419 1.390 . S
C417 H421 0.950 . S
H418 C414 0.950 . S
C419 C417 1.390 . S
C419 C420 1.387 . S
C419 H422 0.950 . S
C420 C419 1.387 . S
C420 C423 1.387 . S
H421 C417 0.950 . S
H422 C419 0.950 . S
C423 C414 1.390 . S
C423 H416 0.950 . S
C423 C420 1.387 . S
C424 C425 1.387 . S
C424 H428 0.950 . S
C424 C433 1.390 . S
C425 C424 1.387 . S
C425 C427 1.387 . S
H426 C433 0.950 . S
C427 C425 1.387 . S
C427 C429 1.390 . S
C427 H431 0.950 . S
H428 C424 0.950 . S
C429 C427 1.390 . S
C429 C430 1.387 . S
C429 H432 0.950 . S
C430 C429 1.387 . S
C430 C433 1.387 . S
H431 C427 0.950 . S
H432 C429 0.950 . S
C433 C424 1.390 . S
C433 H426 0.950 . S
C433 C430 1.387 . S
C434 C435 1.387 . S
C434 H438 0.950 . S
C434 C443 1.390 . S
C435 C434 1.387 . S
C435 C437 1.387 . S
H436 C443 0.950 . S
C437 C435 1.387 . S
C437 C439 1.390 . S
C437 H441 0.950 . S
H438 C434 0.950 . S
C439 C437 1.390 . S
C439 C440 1.387 . S
C439 H442 0.950 . S
C440 C439 1.387 . S
C440 C443 1.387 . S
H441 C437 0.950 . S
H442 C439 0.950 . S
C443 C434 1.390 . S
C443 H436 0.950 . S
C443 C440 1.387 . S
C444 C445 1.387 . S
C444 H448 0.950 . S
C444 C453 1.390 . S
C445 C444 1.387 . S
C445 C447 1.387 . S
H446 C453 0.950 . S
C447 C445 1.387 . S
C447 C449 1.390 . S
C447 H451 0.950 . S
H448 C444 0.950 . S
C449 C447 1.390 . S
C449 C450 1.387 . S
C449 H452 0.950 . S
C450 C449 1.387 . S
C450 C453 1.387 . S
H451 C447 0.950 . S
H452 C449 0.950 . S
C453 C444 1.390 . S
C453 H446 0.950 . S
C453 C450 1.387 . S
C454 C455 1.387 . S
C454 H458 0.950 . S
C454 C463 1.390 . S
C455 C454 1.387 . S
C455 C457 1.387 . S
H456 C463 0.950 . S
C457 C455 1.387 . S
C457 C459 1.390 . S
C457 H461 0.950 . S
H458 C454 0.950 . S
C459 C457 1.390 . S
C459 C460 1.387 . S
C459 H462 0.950 . S
C460 C459 1.387 . S
C460 C463 1.387 . S
H461 C457 0.950 . S
H462 C459 0.950 . S
C463 C454 1.390 . S
C463 H456 0.950 . S
C463 C460 1.387 . S
C464 C465 1.387 . S
C464 H468 0.950 . S
C464 C473 1.390 . S
C465 C464 1.387 . S
C465 C467 1.387 . S
H466 C473 0.950 . S
C467 C465 1.387 . S
C467 C469 1.390 . S
C467 H471 0.950 . S
H468 C464 0.950 . S
C469 C467 1.390 . S
C469 C470 1.387 . S
C469 H472 0.950 . S
C470 C469 1.387 . S
C470 C473 1.387 . S
H471 C467 0.950 . S
H472 C469 0.950 . S
C473 C464 1.390 . S
C473 H466 0.950 . S
C473 C470 1.387 . S
C474 C475 1.387 . S
C474 H478 0.950 . S
C474 C483 1.390 . S
C475 C474 1.387 . S
C475 C477 1.387 . S
H476 C483 0.950 . S
C477 C475 1.387 . S
C477 C479 1.390 . S
C477 H481 0.950 . S
H478 C474 0.950 . S
C479 C477 1.390 . S
C479 C480 1.387 . S
C479 H482 0.950 . S
C480 C479 1.387 . S
C480 C483 1.387 . S
H481 C477 0.950 . S
H482 C479 0.950 . S
C483 C474 1.390 . S
C483 H476 0.950 . S
C483 C480 1.387 . S
C484 C485 1.387 . S
C484 H488 0.950 . S
C484 C493 1.390 . S
C485 C484 1.387 . S
C485 C487 1.387 . S
H486 C493 0.950 . S
C487 C485 1.387 . S
C487 C489 1.390 . S
C487 H491 0.950 . S
H488 C484 0.950 . S
C489 C487 1.390 . S
C489 C490 1.387 . S
C489 H492 0.950 . S
C490 C489 1.387 . S
C490 C493 1.387 . S
H491 C487 0.950 . S
H492 C489 0.950 . S
C493 C484 1.390 . S
C493 H486 0.950 . S
C493 C490 1.387 . S
C494 C495 1.387 . S
C494 H498 0.950 . S
C494 C503 1.390 . S
C495 C494 1.387 . S
C495 C497 1.387 . S
H496 C503 0.950 . S
C497 C495 1.387 . S
C497 C499 1.390 . S
C497 H501 0.950 . S
H498 C494 0.950 . S
C499 C497 1.390 . S
C499 C500 1.387 . S
C499 H502 0.950 . S
C500 C499 1.387 . S
C500 C503 1.387 . S
H501 C497 0.950 . S
H502 C499 0.950 . S
C503 C494 1.390 . S
C503 H496 0.950 . S
C503 C500 1.387 . S
C504 C505 1.387 . S
C504 H508 0.950 . S
C504 C513 1.390 . S
C505 C504 1.387 . S
C505 C507 1.387 . S
H506 C513 0.950 . S
C507 C505 1.387 . S
C507 C509 1.390 . S
C507 H511 0.950 . S
H508 C504 0.950 . S
C509 C507 1.390 . S
C509 C510 1.387 . S
C509 H512 0.950 . S
C510 C509 1.387 . S
C510 C513 1.387 . S
H511 C507 0.950 . S
H512 C509 0.950 . S
C513 C504 1.390 . S
C513 H506 0.950 . S
C513 C510 1.387 . S
C514 C515 1.387 . S
C514 H518 0.950 . S
C514 C523 1.390 . S
C515 C514 1.387 . S
C515 C517 1.387 . S
H516 C523 0.950 . S
C517 C515 1.387 . S
C517 C519 1.390 . S
C517 H521 0.950 . S
H518 C514 0.950 . S
C519 C517 1.390 . S
C519 C520 1.387 . S
C519 H522 0.950 . S
C520 C519 1.387 . S
C520 C523 1.387 . S
H521 C517 0.950 . S
H522 C519 0.950 . S
C523 C514 1.390 . S
C523 H516 0.950 . S
C523 C520 1.387 . S
C524 C525 1.387 . S
C524 H528 0.950 . S
C524 C533 1.390 . S
C525 C524 1.387 . S
C525 C527 1.387 . S
H526 C533 0.950 . S
C527 C525 1.387 . S
C527 C529 1.390 . S
C527 H531 0.950 . S
H528 C524 0.950 . S
C529 C527 1.390 . S
C529 C530 1.387 . S
C529 H532 0.950 . S
C530 C529 1.387 . S
C530 C533 1.387 . S
H531 C527 0.950 . S
H532 C529 0.950 . S
C533 C524 1.390 . S
C533 H526 0.950 . S
C533 C530 1.387 . S
C534 C535 1.387 . S
C534 H538 0.950 . S
C534 C543 1.390 . S
C535 C534 1.387 . S
C535 C537 1.387 . S
H536 C543 0.950 . S
C537 C535 1.387 . S
C537 C539 1.390 . S
C537 H541 0.950 . S
H538 C534 0.950 . S
C539 C537 1.390 . S
C539 C540 1.387 . S
C539 H542 0.950 . S
C540 C539 1.387 . S
C540 C543 1.387 . S
H541 C537 0.950 . S
H542 C539 0.950 . S
C543 C534 1.390 . S
C543 H536 0.950 . S
C543 C540 1.387 . S
C225 C13 1.058 . S
C230 C68 1.057 . S
C235 C27 1.058 . S
C240 C71 1.058 . S
C245 C96 1.056 . S
C250 C28 1.058 . S
C255 C55 1.058 . S
C260 C110 1.059 . S
C265 C69 1.056 . S
C270 C12 1.058 . S
C275 C140 1.056 . S
C280 C124 1.056 . S
C285 C97 1.056 . S
C290 C29 1.054 . S
C295 C138 1.058 . S
C300 C166 1.058 . S
C305 C180 1.056 . S
C310 C208 1.058 . S
C315 C125 1.058 . S
C320 C141 1.058 . S
C325 C182 1.059 . S
C330 C222 1.057 . S
C335 C167 1.056 . S
C340 C139 1.056 . S
C345 C209 1.056 . S
C350 C181 1.054 . S
C355 C26 1.058 . S
C360 C70 1.058 . S
C365 C183 1.056 . S
C370 C223 1.058 . S
C375 C111 1.059 . S
C380 C54 1.058 . S
C385 C0 1.593 . S
C390 C99 1.589 . S
C395 C57 1.594 . S
C400 C14 1.594 . S
C405 C82 1.594 . S
C410 C41 1.595 . S
C415 C42 1.595 . S
C420 C85 1.594 . S
C425 C1 1.595 . S
C430 C155 1.599 . S
C435 C113 1.595 . S
C440 C56 1.595 . S
C445 C153 1.593 . S
C450 C40 1.591 . S
C455 C127 1.594 . S
C460 C84 1.595 . S
C465 C169 1.594 . S
C470 C154 1.594 . S
C475 C197 1.594 . S
C480 C112 1.595 . S
C485 C152 1.593 . S
C490 C195 1.594 . S
C495 C211 1.594 . S
C500 C126 1.596 . S
C505 C98 1.595 . S
C510 C168 1.595 . S
C515 C196 1.594 . S
C520 C15 1.593 . S
C525 C83 1.595 . S
C530 C194 1.594 . S
C535 C210 1.593 . S
C540 C43 1.592 . S
