# Generated by pormake.
# Topology wjw, (5)-cn, num edge types: 1
# Building blocks:
#     Node 0, Type 0, BuildingBlock: XOMCOT_clean_sbu_1, # of connection points: 5
#     Node 1, Type 0, BuildingBlock: XOMCOT_clean_sbu_1, # of connection points: 5
#     Node 2, Type 0, BuildingBlock: XOMCOT_clean_sbu_1, # of connection points: 5
#     Node 3, Type 0, BuildingBlock: XOMCOT_clean_sbu_1, # of connection points: 5
#     Node 4, Type 0, BuildingBlock: XOMCOT_clean_sbu_1, # of connection points: 5
#     Node 5, Type 0, BuildingBlock: XOMCOT_clean_sbu_1, # of connection points: 5
#     Node 6, Type 0, BuildingBlock: XOMCOT_clean_sbu_1, # of connection points: 5
#     Node 7, Type 0, BuildingBlock: XOMCOT_clean_sbu_1, # of connection points: 5
#     Node 8, Type 0, BuildingBlock: XOMCOT_clean_sbu_1, # of connection points: 5
#     Node 9, Type 0, BuildingBlock: XOMCOT_clean_sbu_1, # of connection points: 5
#     Node 10, Type 0, BuildingBlock: XOMCOT_clean_sbu_1, # of connection points: 5
#     Node 11, Type 0, BuildingBlock: XOMCOT_clean_sbu_1, # of connection points: 5
#     Edge 12, Type (0, 0), BuildingBlock: CIFDUS_clean_linker_0, # of connection points: 2
#     Edge 13, Type (0, 0), BuildingBlock: CIFDUS_clean_linker_0, # of connection points: 2
#     Edge 14, Type (0, 0), BuildingBlock: CIFDUS_clean_linker_0, # of connection points: 2
#     Edge 15, Type (0, 0), BuildingBlock: CIFDUS_clean_linker_0, # of connection points: 2
#     Edge 16, Type (0, 0), BuildingBlock: CIFDUS_clean_linker_0, # of connection points: 2
#     Edge 17, Type (0, 0), BuildingBlock: CIFDUS_clean_linker_0, # of connection points: 2
#     Edge 18, Type (0, 0), BuildingBlock: CIFDUS_clean_linker_0, # of connection points: 2
#     Edge 19, Type (0, 0), BuildingBlock: CIFDUS_clean_linker_0, # of connection points: 2
#     Edge 20, Type (0, 0), BuildingBlock: CIFDUS_clean_linker_0, # of connection points: 2
#     Edge 21, Type (0, 0), BuildingBlock: CIFDUS_clean_linker_0, # of connection points: 2
#     Edge 22, Type (0, 0), BuildingBlock: CIFDUS_clean_linker_0, # of connection points: 2
#     Edge 23, Type (0, 0), BuildingBlock: CIFDUS_clean_linker_0, # of connection points: 2
#     Edge 24, Type (0, 0), BuildingBlock: CIFDUS_clean_linker_0, # of connection points: 2
#     Edge 25, Type (0, 0), BuildingBlock: CIFDUS_clean_linker_0, # of connection points: 2
#     Edge 26, Type (0, 0), BuildingBlock: CIFDUS_clean_linker_0, # of connection points: 2
#     Edge 27, Type (0, 0), BuildingBlock: CIFDUS_clean_linker_0, # of connection points: 2
#     Edge 28, Type (0, 0), BuildingBlock: CIFDUS_clean_linker_0, # of connection points: 2
#     Edge 29, Type (0, 0), BuildingBlock: CIFDUS_clean_linker_0, # of connection points: 2
#     Edge 30, Type (0, 0), BuildingBlock: CIFDUS_clean_linker_0, # of connection points: 2
#     Edge 31, Type (0, 0), BuildingBlock: CIFDUS_clean_linker_0, # of connection points: 2
#     Edge 32, Type (0, 0), BuildingBlock: CIFDUS_clean_linker_0, # of connection points: 2
#     Edge 33, Type (0, 0), BuildingBlock: CIFDUS_clean_linker_0, # of connection points: 2
#     Edge 34, Type (0, 0), BuildingBlock: CIFDUS_clean_linker_0, # of connection points: 2
#     Edge 35, Type (0, 0), BuildingBlock: CIFDUS_clean_linker_0, # of connection points: 2
#     Edge 36, Type (0, 0), BuildingBlock: CIFDUS_clean_linker_0, # of connection points: 2
#     Edge 37, Type (0, 0), BuildingBlock: CIFDUS_clean_linker_0, # of connection points: 2
#     Edge 38, Type (0, 0), BuildingBlock: CIFDUS_clean_linker_0, # of connection points: 2
#     Edge 39, Type (0, 0), BuildingBlock: CIFDUS_clean_linker_0, # of connection points: 2
#     Edge 40, Type (0, 0), BuildingBlock: CIFDUS_clean_linker_0, # of connection points: 2
#     Edge 41, Type (0, 0), BuildingBlock: CIFDUS_clean_linker_0, # of connection points: 2
# Relax obj value: 0.185
# Max RMSD: 0.165
# Mean RMSD: 0.161
data_MOF--net-wjw--node1-XOMCOT_clean_sbu_1--edge1-CIFDUS_clean_linker_0
_symmetry_space_group_name_H-M    P1
_symmetry_Int_Tables_number       1
_symmetry_cell_setting            triclinic
loop_
_symmetry_equiv_pos_as_xyz
'x, y, z'
_cell_length_a     36.294925
_cell_length_b     36.236053
_cell_length_c     31.953385
_cell_angle_alpha  89.87638
_cell_angle_beta   90.009258
_cell_angle_gamma 120.38056
loop_
_atom_site_label
_atom_site_type_symbol
_atom_site_fract_x
_atom_site_fract_y
_atom_site_fract_z
_atom_type_partial_charge
C0 C 0.1932 0.36874 0.29443 0.0
C1 C 0.21272 0.34458 0.2946 0.0
N2 N 0.19763 0.31753 0.32747 0.0
N3 N 0.16594 0.35689 0.32702 0.0
C4 C 0.1689 0.32526 0.34615 0.0
H5 H 0.2 0.39475 0.27324 0.0
Co6 Co 0.13651 0.38371 0.34509 0.0
C7 C 0.11001 0.34734 0.43156 0.0
O8 O 0.07045 0.33835 0.42599 0.0
N9 N 0.10745 0.4113 0.3637 0.0
C10 C 0.09457 0.4565 0.39892 0.0
C11 C 0.1183 0.4367 0.39782 0.0
C12 C 0.0765 0.41574 0.34482 0.0
N13 N 0.06841 0.44331 0.36563 0.0
O14 O 0.08337 0.33354 0.33078 0.0
H15 H 0.14312 0.44176 0.41976 0.0
H16 H 0.06143 0.40052 0.31562 0.0
O17 O 0.13701 0.36436 0.40194 0.0
C18 C 0.08063 0.33472 0.29094 0.0
O19 O 0.11123 0.36758 0.27072 0.0
N20 N 0.18823 0.43343 0.35416 0.0
C21 C 0.26336 0.51151 0.3591 0.0
C22 C 0.25788 0.47689 0.38352 0.0
C23 C 0.21967 0.43777 0.38067 0.0
C24 C 0.19396 0.46631 0.32903 0.0
C25 C 0.23106 0.50596 0.33152 0.0
H26 H 0.21564 0.411 0.39922 0.0
H27 H 0.16924 0.46167 0.30713 0.0
H28 H 0.15135 0.30905 0.37412 0.0
H29 H 0.23794 0.34849 0.27372 0.0
H30 H 0.09647 0.47907 0.4222 0.0
H31 H 0.28264 0.48023 0.40476 0.0
H32 H 0.23475 0.53191 0.31168 0.0
C33 C 0.83477 0.2261 0.60996 0.0
C34 C 0.87861 0.24909 0.61007 0.0
N35 N 0.89287 0.22516 0.62824 0.0
N36 N 0.82103 0.18803 0.62914 0.0
C37 C 0.85745 0.18768 0.63785 0.0
H38 H 0.81478 0.23781 0.5981 0.0
Co39 Co 0.76434 0.14554 0.64483 0.0
C40 C 0.81446 0.17011 0.72535 0.0
O41 O 0.83638 0.2099 0.71215 0.0
N42 N 0.70858 0.10276 0.65981 0.0
C43 C 0.65511 0.04277 0.6867 0.0
C44 C 0.69877 0.06747 0.6824 0.0
C45 C 0.6702 0.09859 0.65045 0.0
N46 N 0.637 0.06236 0.66665 0.0
O47 O 0.77385 0.10219 0.62157 0.0
H48 H 0.72196 0.06008 0.69499 0.0
H49 H 0.66654 0.12138 0.63169 0.0
O50 O 0.78498 0.14147 0.70198 0.0
C51 C 0.77347 0.10555 0.5817 0.0
O52 O 0.77073 0.13754 0.56577 0.0
N53 N 0.75194 0.18749 0.66182 0.0
C54 C 0.74124 0.2581 0.66858 0.0
C55 C 0.74926 0.24039 0.70429 0.0
C56 C 0.7528 0.2039 0.70043 0.0
C57 C 0.73892 0.20083 0.62804 0.0
C58 C 0.73316 0.23583 0.63068 0.0
H59 H 0.75708 0.18991 0.7284 0.0
H60 H 0.73509 0.18531 0.59816 0.0
H61 H 0.85801 0.16223 0.65513 0.0
H62 H 0.8985 0.28196 0.59999 0.0
H63 H 0.63814 0.01308 0.70403 0.0
H64 H 0.75429 0.25511 0.73476 0.0
H65 H 0.72389 0.24603 0.60275 0.0
C66 C 0.59889 0.82457 0.93375 0.0
C67 C 0.61613 0.86821 0.93228 0.0
N68 N 0.6492 0.88641 0.95923 0.0
N69 N 0.62079 0.81519 0.96169 0.0
C70 C 0.6519 0.85359 0.97587 0.0
H71 H 0.57039 0.80102 0.91772 0.0
Co72 Co 0.60361 0.76046 0.98263 0.0
C73 C 0.65373 0.78472 0.0659 0.0
O74 O 0.66394 0.75475 0.06694 0.0
N75 N 0.58574 0.7053 1.00389 0.0
C76 C 0.5521 0.6472 0.04407 0.0
C77 C 0.56798 0.69057 0.04194 0.0
C78 C 0.58068 0.6702 0.9836 0.0
N79 N 0.56011 0.63452 1.00742 0.0
O80 O 0.65292 0.76289 0.95731 0.0
H81 H 0.56493 0.70983 0.06599 0.0
H82 H 0.58996 0.67029 0.95141 0.0
O83 O 0.63235 0.78667 0.03517 0.0
C84 C 0.64271 0.7547 0.91866 0.0
O85 O 0.60454 0.74658 0.9072 0.0
N86 N 0.55361 0.75664 1.00252 0.0
C87 C 0.4753 0.74949 1.02045 0.0
C88 C 0.51284 0.78142 0.03939 0.0
C89 C 0.55184 0.78459 0.02983 0.0
C90 C 0.51753 0.72542 0.9839 0.0
C91 C 0.47794 0.72087 0.99285 0.0
H92 H 0.5806 0.81054 0.04303 0.0
H93 H 0.51968 0.70431 0.96142 0.0
H94 H 0.67414 0.85739 1.0003 0.0
H95 H 0.60372 0.88502 0.91452 0.0
H96 H 0.5354 0.62637 0.07027 0.0
H97 H 0.51238 0.80481 0.06009 0.0
H98 H 0.44976 0.69553 0.97779 0.0
C99 C 0.80688 0.62812 0.29029 0.0
C100 C 0.78584 0.65082 0.29037 0.0
N101 N 0.79918 0.67711 0.32379 0.0
N102 N 0.83337 0.64005 0.32345 0.0
C103 C 0.82842 0.67032 0.34283 0.0
H104 H 0.80172 0.60306 0.26861 0.0
Co105 Co 0.86346 0.61399 0.34196 0.0
C106 C 0.88958 0.65027 0.42876 0.0
O107 O 0.92894 0.65823 0.4244 0.0
N108 N 0.89302 0.58696 0.36101 0.0
C109 C 0.9061 0.54222 0.39706 0.0
C110 C 0.88233 0.56193 0.39553 0.0
C111 C 0.92392 0.58232 0.34229 0.0
N112 N 0.93213 0.55502 0.36363 0.0
O113 O 0.91625 0.66411 0.32637 0.0
H114 H 0.85758 0.55705 0.4175 0.0
H115 H 0.9388 0.59712 0.31283 0.0
O116 O 0.86341 0.63413 0.39847 0.0
C117 C 0.91849 0.66169 0.28659 0.0
O118 O 0.88793 0.62793 0.26755 0.0
N119 N 0.81216 0.56436 0.35219 0.0
C120 C 0.73787 0.48576 0.35917 0.0
C121 C 0.7438 0.52026 0.38394 0.0
C122 C 0.78148 0.55966 0.37994 0.0
C123 C 0.80604 0.53166 0.32678 0.0
C124 C 0.76931 0.49183 0.33013 0.0
H125 H 0.78574 0.58628 0.39876 0.0
H126 H 0.83018 0.53662 0.30401 0.0
H127 H 0.84412 0.68537 0.3718 0.0
H128 H 0.76166 0.64714 0.26824 0.0
H129 H 0.90428 0.51992 0.42073 0.0
H130 H 0.71978 0.51665 0.40633 0.0
H131 H 0.76526 0.46614 0.3098 0.0
C132 C 0.17917 0.8023 0.62283 0.0
C133 C 0.13545 0.77771 0.62754 0.0
N134 N 0.12398 0.79289 0.66042 0.0
N135 N 0.19508 0.83296 0.65246 0.0
C136 C 0.16052 0.82657 0.67454 0.0
H137 H 0.19835 0.79699 0.60044 0.0
Co138 Co 0.2529 0.87127 0.66399 0.0
C139 C 0.25129 0.88299 0.75595 0.0
O140 O 0.28633 0.881 0.7594 0.0
N141 N 0.31169 0.91144 0.67555 0.0
C142 C 0.36778 0.97454 0.69329 0.0
C143 C 0.324 0.95045 0.69166 0.0
C144 C 0.34928 0.9131 0.66721 0.0
N145 N 0.38385 0.95111 0.67783 0.0
O146 O 0.24844 0.91637 0.63795 0.0
H147 H 0.30231 0.96115 0.70109 0.0
H148 H 0.35191 0.88792 0.65225 0.0
O149 O 0.23628 0.8823 0.71955 0.0
C150 C 0.25276 0.91368 0.59859 0.0
O151 O 0.257 0.88189 0.58478 0.0
N152 N 0.25699 0.82496 0.68427 0.0
C153 C 0.25528 0.74807 0.69787 0.0
C154 C 0.23118 0.75963 0.7231 0.0
C155 C 0.23153 0.79763 0.71499 0.0
C156 C 0.27868 0.81296 0.65814 0.0
C157 C 0.27929 0.77532 0.66501 0.0
H158 H 0.20899 0.80332 0.73145 0.0
H159 H 0.29348 0.83139 0.63021 0.0
H160 H 0.16188 0.8454 0.7013 0.0
H161 H 0.11411 0.74955 0.60962 0.0
H162 H 0.38631 0.00687 0.70507 0.0
H163 H 0.21031 0.73836 0.74731 0.0
H164 H 0.29738 0.76706 0.64395 0.0
C165 C 0.3939 0.18135 0.94171 0.0
C166 C 0.37109 0.13734 0.94486 0.0
N167 N 0.34357 0.12645 0.97712 0.0
N168 N 0.38078 0.19819 0.97177 0.0
C169 C 0.34964 0.16387 0.99233 0.0
H170 H 0.42 0.19993 0.92034 0.0
Co171 Co 0.40643 0.25627 0.98648 0.0
C172 C 0.36756 0.24881 0.07283 0.0
O173 O 0.36125 0.28128 0.06879 0.0
N174 N 0.43282 0.31457 1.00217 0.0
C175 C 0.47512 0.37463 0.03705 0.0
C176 C 0.45757 0.33108 0.03654 0.0
C177 C 0.43536 0.34907 0.98255 0.0
N178 N 0.46121 0.38592 1.00317 0.0
O179 O 0.35715 0.25756 0.96613 0.0
H180 H 0.46299 0.31265 0.05981 0.0
H181 H 0.41943 0.34745 0.9534 0.0
O182 O 0.38378 0.23876 0.04273 0.0
C183 C 0.36224 0.26072 0.92636 0.0
O184 O 0.39681 0.26288 0.91082 0.0
N185 N 0.45581 0.25598 1.0009 0.0
C186 C 0.53538 0.26448 1.01279 0.0
C187 C 0.50275 0.24247 0.04223 0.0
C188 C 0.46266 0.23793 0.03537 0.0
C189 C 0.48693 0.27664 0.97166 0.0
C190 C 0.52704 0.28118 0.9769 0.0
H191 H 0.43765 0.22042 0.05791 0.0
H192 H 0.48054 0.29014 0.9443 0.0
H193 H 0.3325 0.16614 1.01892 0.0
H194 H 0.37634 0.11529 0.92659 0.0
H195 H 0.49616 0.39643 0.06075 0.0
H196 H 0.50813 0.22863 0.07 0.0
H197 H 0.55157 0.29832 0.95355 0.0
C198 C 0.65341 0.82696 0.43567 0.0
C199 C 0.67285 0.80266 0.43593 0.0
N200 N 0.66869 0.7859 0.39757 0.0
N201 N 0.638 0.82632 0.39693 0.0
C202 C 0.6473 0.80029 0.3749 0.0
H203 H 0.65127 0.84407 0.46226 0.0
Co204 Co 0.61132 0.85528 0.37482 0.0
C205 C 0.65368 0.88383 0.2891 0.0
O206 O 0.65258 0.91949 0.28764 0.0
N207 N 0.58375 0.8837 0.35215 0.0
C208 C 0.54046 0.89619 0.31262 0.0
C209 C 0.5591 0.87156 0.31736 0.0
C210 C 0.58004 0.91661 0.36748 0.0
N211 N 0.55367 0.92445 0.34414 0.0
O212 O 0.65773 0.90855 0.39573 0.0
H213 H 0.55456 0.84614 0.29659 0.0
H214 H 0.5953 0.93397 0.39572 0.0
O215 O 0.6396 0.85978 0.32135 0.0
C216 C 0.64581 0.90975 0.43315 0.0
O217 O 0.60697 0.8803 0.44432 0.0
N218 N 0.56465 0.8028 0.36001 0.0
C219 C 0.49177 0.72269 0.35361 0.0
C220 C 0.52283 0.73766 0.32196 0.0
C221 C 0.55922 0.77817 0.32562 0.0
C222 C 0.53468 0.78874 0.39077 0.0
C223 C 0.49793 0.74883 0.3882 0.0
H224 H 0.58283 0.7893 0.30101 0.0
H225 H 0.53975 0.80858 0.41784 0.0
H226 H 0.63941 0.79253 0.3424 0.0
H227 H 0.68874 0.79769 0.46216 0.0
H228 H 0.51916 0.89386 0.28771 0.0
H229 H 0.51887 0.71838 0.29461 0.0
H230 H 0.47491 0.73818 0.41352 0.0
C231 C 0.82703 0.62453 0.76999 0.0
C232 C 0.87097 0.64693 0.76673 0.0
N233 N 0.88183 0.67177 0.73227 0.0
N234 N 0.81027 0.63533 0.7378 0.0
C235 C 0.84453 0.66466 0.71583 0.0
H236 H 0.80842 0.60006 0.7929 0.0
Co237 Co 0.75232 0.60854 0.72243 0.0
C238 C 0.75935 0.64242 0.63461 0.0
O239 O 0.72842 0.65084 0.63972 0.0
N240 N 0.69421 0.58122 0.70601 0.0
C241 C 0.63442 0.53631 0.67213 0.0
C242 C 0.67797 0.5543 0.67306 0.0
C243 C 0.65963 0.57957 0.72425 0.0
N244 N 0.62293 0.55215 0.70426 0.0
O245 O 0.75114 0.65923 0.73774 0.0
H246 H 0.69662 0.54736 0.65149 0.0
H247 H 0.66106 0.59706 0.75219 0.0
O248 O 0.76994 0.62664 0.66478 0.0
C249 C 0.74783 0.65605 0.77767 0.0
O250 O 0.74492 0.62192 0.79545 0.0
N251 N 0.75257 0.55817 0.71335 0.0
C252 C 0.74943 0.47984 0.7115 0.0
C253 C 0.77824 0.51398 0.68581 0.0
C254 C 0.77918 0.553 0.68706 0.0
C255 C 0.72545 0.52604 0.73933 0.0
C256 C 0.72261 0.48638 0.73823 0.0
H257 H 0.80198 0.57928 0.66789 0.0
H258 H 0.70558 0.53125 0.76092 0.0
H259 H 0.84233 0.67948 0.68729 0.0
H260 H 0.89298 0.64303 0.78653 0.0
H261 H 0.61276 0.51346 0.64945 0.0
H262 H 0.80046 0.51101 0.6655 0.0
H263 H 0.69933 0.46114 0.75813 0.0
C264 C 0.2004 0.82811 0.08896 0.0
C265 C 0.22682 0.87169 0.08415 0.0
N266 N 0.21666 0.88336 0.04791 0.0
N267 N 0.17338 0.81245 0.05614 0.0
C268 C 0.18423 0.84709 0.03181 0.0
H269 H 0.20175 0.80887 0.11417 0.0
Co270 Co 0.13359 0.75435 0.04612 0.0
C271 C 0.11108 0.78205 0.96181 0.0
O272 O 0.08701 0.7974 0.97432 0.0
N273 N 0.09307 0.69598 0.03572 0.0
C274 C 0.03206 0.63956 1.01444 0.0
C275 C 0.0556 0.68344 1.01612 0.0
C276 C 0.09123 0.65866 0.04594 0.0
N277 N 0.05446 0.62385 0.03317 0.0
O278 O 0.08839 0.76162 0.06777 0.0
H279 H 0.04565 0.70493 1.00407 0.0
H280 H 0.11567 0.65659 0.06318 0.0
O281 O 0.12654 0.76736 0.98855 0.0
C282 C 0.08898 0.75714 0.10744 0.0
O283 O 0.11927 0.75166 0.12334 0.0
N284 N 0.17868 0.74689 0.02976 0.0
C285 C 0.25107 0.74027 1.01751 0.0
C286 C 0.239 0.76061 0.9877 0.0
C287 C 0.20306 0.7642 0.99473 0.0
C288 C 0.19091 0.72856 0.05977 0.0
C289 C 0.22647 0.72407 0.05395 0.0
H290 H 0.19662 0.78299 0.97306 0.0
H291 H 0.17337 0.71818 0.08889 0.0
H292 H 0.16937 0.8463 1.00245 0.0
H293 H 0.25255 0.89279 0.10479 0.0
H294 H 1.00103 0.62072 0.99996 0.0
H295 H 0.2582 0.77533 0.96005 0.0
H296 H 0.23488 0.70859 0.07805 0.0
C297 C 0.36822 0.1885 0.41556 0.0
C298 C 0.34296 0.20677 0.41509 0.0
N299 N 0.31899 0.19396 0.38009 0.0
N300 N 0.36013 0.1642 0.38109 0.0
C301 C 0.32959 0.16772 0.36043 0.0
H302 H 0.3927 0.1945 0.4383 0.0
Co303 Co 0.3913 0.139 0.36333 0.0
C304 C 0.36091 0.11403 0.27468 0.0
O305 O 0.35772 0.07636 0.27768 0.0
N306 N 0.42348 0.11415 0.34524 0.0
C307 C 0.47271 0.10579 0.31195 0.0
C308 C 0.45293 0.12955 0.31425 0.0
C309 C 0.42553 0.0804 0.36086 0.0
N310 N 0.45542 0.07492 0.34122 0.0
O311 O 0.34368 0.08368 0.3765 0.0
H312 H 0.45999 0.15678 0.29473 0.0
H313 H 0.40626 0.06074 0.38665 0.0
O314 O 0.37272 0.13875 0.30625 0.0
C315 C 0.34596 0.0813 0.41626 0.0
O316 O 0.37861 0.11278 0.43572 0.0
N317 N 0.43812 0.19311 0.35557 0.0
C318 C 0.50939 0.27461 0.35672 0.0
C319 C 0.47615 0.26442 0.32828 0.0
C320 C 0.44044 0.22331 0.32837 0.0
C321 C 0.4697 0.20268 0.38384 0.0
C322 C 0.5058 0.24321 0.38483 0.0
H323 H 0.41444 0.21625 0.30731 0.0
H324 H 0.46641 0.17866 0.40612 0.0
H325 H 0.31642 0.15264 0.33069 0.0
H326 H 0.3443 0.22993 0.43729 0.0
H327 H 0.49752 0.11043 0.29012 0.0
H328 H 0.47778 0.2879 0.30618 0.0
H329 H 0.53032 0.25011 0.4079 0.0
C330 C 0.17715 0.39008 0.77431 0.0
C331 C 0.13351 0.37207 0.77387 0.0
N332 N 0.11782 0.34542 0.74088 0.0
N333 N 0.18916 0.37493 0.74177 0.0
C334 C 0.15214 0.34716 0.72242 0.0
H335 H 0.19898 0.41513 0.79512 0.0
Co336 Co 0.24582 0.39891 0.72328 0.0
C337 C 0.23571 0.3548 0.64031 0.0
O338 O 0.26867 0.34963 0.64604 0.0
N339 N 0.30305 0.42407 0.70448 0.0
C340 C 0.36193 0.46533 0.6674 0.0
C341 C 0.3183 0.44701 0.66877 0.0
C342 C 0.33826 0.42848 0.72401 0.0
N343 N 0.3744 0.45368 0.70211 0.0
O344 O 0.24839 0.35112 0.74649 0.0
H345 H 0.29898 0.45114 0.64556 0.0
H346 H 0.33777 0.41481 0.75427 0.0
O347 O 0.22511 0.37221 0.66881 0.0
C348 C 0.25546 0.35982 0.78551 0.0
O349 O 0.26035 0.39637 0.79866 0.0
N350 N 0.24425 0.44697 0.70578 0.0
C351 C 0.24424 0.52267 0.69186 0.0
C352 C 0.21761 0.48594 0.66834 0.0
C353 C 0.2179 0.44811 0.67598 0.0
C354 C 0.2701 0.48218 0.72895 0.0
C355 C 0.27101 0.52052 0.72218 0.0
H356 H 0.19617 0.41967 0.65879 0.0
H357 H 0.28999 0.48027 0.75308 0.0
H358 H 0.15044 0.33115 0.69342 0.0
H359 H 0.11505 0.38 0.79473 0.0
H360 H 0.38297 0.4856 0.64277 0.0
H361 H 0.19592 0.48609 0.64516 0.0
H362 H 0.29245 0.54817 0.74067 0.0
C363 C 0.78775 0.17125 0.0907 0.0
C364 C 0.76407 0.12745 0.08879 0.0
N365 N 0.7851 0.11374 0.06479 0.0
N366 N 0.82313 0.18572 0.06662 0.0
C367 C 0.82156 0.14936 0.05337 0.0
H368 H 0.77852 0.19057 0.10828 0.0
Co369 Co 0.86573 0.24318 0.05224 0.0
C370 C 0.84033 0.19789 0.97043 0.0
O371 O 0.80048 0.18012 0.98314 0.0
N372 N 0.90844 0.29915 0.03913 0.0
C373 C 0.96873 0.35444 1.01531 0.0
C374 C 0.94466 0.31051 1.01772 0.0
C375 C 0.91127 0.33668 0.04961 0.0
N376 N 0.94768 0.37098 0.03532 0.0
O377 O 0.90843 0.23297 0.07548 0.0
H378 H 0.95308 0.28821 1.00472 0.0
H379 H 0.8872 0.33879 0.0677 0.0
O380 O 0.87065 0.22391 0.9948 0.0
C381 C 0.90705 0.23601 0.11525 0.0
O382 O 0.8763 0.24067 0.13128 0.0
N383 N 0.82459 0.25643 0.03399 0.0
C384 C 0.7584 0.27195 1.0169 0.0
C385 C 0.78614 0.2744 0.98489 0.0
C386 C 0.81976 0.26745 0.9943 0.0
C387 C 0.80259 0.26099 0.06601 0.0
C388 C 0.76823 0.26686 0.05823 0.0
H389 H 0.84158 0.27077 0.96966 0.0
H390 H 0.8114 0.2593 0.09794 0.0
H391 H 0.8451 0.14905 0.03281 0.0
H392 H 0.73287 0.10725 0.10256 0.0
H393 H 0.99902 0.37273 0.99929 0.0
H394 H 0.78186 0.28134 0.95288 0.0
H395 H 0.74904 0.26601 0.08451 0.0
H396 H 0.90505 0.22873 0.19964 0.0
H397 H 0.98922 0.25991 0.09341 0.0
H398 H 0.05073 0.28787 0.14047 0.0
H399 H 0.08082 0.31355 0.21037 0.0
H400 H 0.99722 0.28533 0.31647 0.0
H401 H 0.93491 0.24545 0.2709 0.0
C402 C 0.9368 0.24085 0.18679 0.0
C403 C 0.94266 0.24283 0.143 0.0
C404 C 0.972 0.2578 0.214 0.0
C405 C 0.98384 0.25804 0.12688 0.0
C406 C 0.01903 0.27438 0.15381 0.0
C407 C 0.04893 0.29799 0.22368 0.0
C408 C 0.04347 0.30284 0.2666 0.0
C409 C 0.01355 0.27599 0.1972 0.0
C410 C 0.00216 0.28202 0.28358 0.0
C411 C 0.96661 0.25955 0.25744 0.0
H412 H 0.71841 0.98896 0.42392 0.0
H413 H 0.63707 0.89663 0.51649 0.0
H414 H 0.67576 0.94664 0.57233 0.0
H415 H 0.7253 0.02006 0.5947 0.0
H416 H 0.80427 0.11437 0.50296 0.0
H417 H 0.77526 0.06043 0.44775 0.0
C418 C 0.70977 0.97969 0.45633 0.0
C419 C 0.67431 0.93949 0.46581 0.0
C420 C 0.73187 0.00911 0.48878 0.0
C421 C 0.66361 0.92779 0.50808 0.0
C422 C 0.68587 0.95631 0.54027 0.0
C423 C 0.73733 0.02831 0.56293 0.0
C424 C 0.76681 0.07096 0.55287 0.0
C425 C 0.71909 0.99755 0.53101 0.0
C426 C 0.78155 0.08154 0.51139 0.0
C427 C 0.76464 0.05081 0.4797 0.0
H428 H 0.70754 0.73749 0.93015 0.0
H429 H 0.63774 0.76103 0.83481 0.0
H430 H 0.66964 0.739 0.78063 0.0
H431 H 0.70862 0.70216 0.76118 0.0
H432 H 0.7769 0.67685 0.85663 0.0
H433 H 0.7554 0.71098 0.90914 0.0
C434 C 0.70027 0.73886 0.89746 0.0
C435 C 0.66978 0.75017 0.88671 0.0
C436 C 0.71825 0.72535 0.86617 0.0
C437 C 0.66062 0.75173 0.8441 0.0
C438 C 0.67884 0.7391 0.81293 0.0
C439 C 0.7199 0.70548 0.79316 0.0
C440 C 0.74393 0.68673 0.80507 0.0
C441 C 0.70643 0.72423 0.82366 0.0
C442 C 0.75798 0.69077 0.84678 0.0
C443 C 0.74555 0.71012 0.87696 0.0
H444 H 0.09216 0.76684 0.19139 0.0
H445 H 0.00614 0.73126 0.08635 0.0
H446 H 0.94529 0.70383 0.13445 0.0
H447 H 0.91655 0.68004 0.20529 0.0
H448 H 0.0022 0.71292 0.31025 0.0
H449 H 0.06355 0.75202 0.26322 0.0
C450 C 0.06012 0.75387 0.17901 0.0
C451 C 0.05354 0.75052 0.13532 0.0
C452 C 0.02539 0.73731 0.20683 0.0
C453 C 0.01203 0.73422 0.11976 0.0
C454 C 0.97725 0.71819 0.14728 0.0
C455 C 0.94867 0.69645 0.21801 0.0
C456 C 0.955 0.69314 0.26109 0.0
C457 C 0.98352 0.71803 0.19071 0.0
C458 C 0.99659 0.71504 0.27727 0.0
C459 C 0.03159 0.73706 0.2503 0.0
H460 H 0.32357 0.08326 0.49576 0.0
H461 H 0.30072 0.99658 0.39373 0.0
H462 H 0.26358 0.9355 0.4417 0.0
H463 H 0.24774 0.90837 0.5141 0.0
H464 H 0.27357 0.99594 0.61625 0.0
H465 H 0.29898 0.05537 0.56653 0.0
C466 C 0.30974 0.0509 0.48387 0.0
C467 C 0.31527 0.04424 0.44148 0.0
C468 C 0.28943 0.01636 0.51171 0.0
C469 C 0.29674 1.00235 0.42622 0.0
C470 C 0.2759 0.96757 0.45373 0.0
C471 C 0.25827 0.94038 0.52547 0.0
C472 C 0.25945 0.94792 0.5689 0.0
C473 C 0.27358 0.97438 0.49677 0.0
C474 C 0.27247 0.98935 0.58308 0.0
C475 C 0.28725 0.02333 0.55466 0.0
H476 H 0.28366 0.30345 0.77163 0.0
H477 H 0.24294 0.35716 0.86899 0.0
H478 H 0.26714 0.3263 0.92245 0.0
H479 H 0.3092 0.2926 0.9417 0.0
H480 H 0.35154 0.24046 0.84426 0.0
H481 H 0.31713 0.26127 0.7914 0.0
C482 C 0.2791 0.30736 0.80451 0.0
C483 C 0.26203 0.33298 0.81622 0.0
C484 C 0.29395 0.29016 0.83541 0.0
C485 C 0.25654 0.338 0.85907 0.0
C486 C 0.27044 0.32041 0.88981 0.0
C487 C 0.30986 0.28482 0.90905 0.0
C488 C 0.33332 0.26551 0.89697 0.0
C489 C 0.29063 0.29771 0.87842 0.0
C490 C 0.33411 0.25585 0.85441 0.0
C491 C 0.31449 0.2678 0.82401 0.0
H492 H 0.18175 0.34422 0.45037 0.0
H493 H 0.07226 0.34065 0.50742 0.0
H494 H 0.10041 0.34056 0.57691 0.0
H495 H 0.15836 0.34633 0.62139 0.0
H496 H 0.26637 0.34656 0.56473 0.0
H497 H 0.23633 0.34265 0.49524 0.0
C498 C 0.16382 0.343 0.47799 0.0
C499 C 0.12504 0.34277 0.47356 0.0
C500 C 0.18002 0.3425 0.51796 0.0
C501 C 0.10211 0.34081 0.50978 0.0
C502 C 0.1183 0.34094 0.54959 0.0
C503 C 0.17518 0.34503 0.59398 0.0
C504 C 0.21482 0.34703 0.59852 0.0
C505 C 0.15755 0.34248 0.55407 0.0
C506 C 0.23584 0.345 0.56237 0.0
C507 C 0.21877 0.343 0.52253 0.0
H508 H 0.88016 0.21899 0.7777 0.0
H509 H 0.75654 0.10377 0.77451 0.0
H510 H 0.7566 0.09952 0.85096 0.0
H511 H 0.78732 0.1339 0.91847 0.0
H512 H 0.90988 0.25034 0.92176 0.0
H513 H 0.91498 0.24845 0.84542 0.0
C514 C 0.85349 0.19251 0.79366 0.0
C515 C 0.81808 0.16202 0.77035 0.0
C516 C 0.85343 0.19076 0.83765 0.0
C517 C 0.78413 0.12764 0.79154 0.0
C518 C 0.78404 0.12541 0.83533 0.0
C519 C 0.81551 0.15856 0.90256 0.0
C520 C 0.84796 0.19258 0.92577 0.0
C521 C 0.81782 0.15761 0.85868 0.0
C522 C 0.88449 0.22386 0.90473 0.0
C523 C 0.88723 0.22292 0.86103 0.0
H524 H 0.6521 0.90574 0.20738 0.0
H525 H 0.67878 0.8243 0.2845 0.0
H526 H 0.68364 0.78789 0.22251 0.0
H527 H 0.67429 0.77494 0.1463 0.0
H528 H 0.64942 0.85793 0.06932 0.0
H529 H 0.65062 0.89797 0.13072 0.0
C530 C 0.65971 0.88054 0.21064 0.0
C531 C 0.66392 0.86713 0.25087 0.0
C532 C 0.66255 0.85964 0.17461 0.0
C533 C 0.67394 0.83444 0.25421 0.0
C534 C 0.67703 0.81371 0.21861 0.0
C535 C 0.66977 0.80217 0.14283 0.0
C536 C 0.66092 0.81262 0.103 0.0
C537 C 0.67032 0.82527 0.17863 0.0
C538 C 0.65537 0.84828 0.0994 0.0
C539 C 0.65615 0.87145 0.13466 0.0
H540 H 0.83294 0.64279 0.61709 0.0
H541 H 0.73239 0.65439 0.55821 0.0
H542 H 0.76439 0.65918 0.48952 0.0
H543 H 0.81948 0.65704 0.4459 0.0
H544 H 0.92253 0.65023 0.50562 0.0
H545 H 0.89155 0.6475 0.57426 0.0
C546 C 0.81835 0.64701 0.58936 0.0
C547 C 0.78027 0.64823 0.59303 0.0
C548 C 0.83743 0.65063 0.55004 0.0
C549 C 0.7617 0.65344 0.55651 0.0
C550 C 0.77997 0.65609 0.51715 0.0
C551 C 0.83539 0.65537 0.47395 0.0
C552 C 0.87323 0.65359 0.47047 0.0
C553 C 0.81762 0.65432 0.51348 0.0
C554 C 0.89355 0.65181 0.50725 0.0
C555 C 0.87569 0.65 0.54657 0.0
H556 H 0.1247 0.84742 0.90791 0.0
H557 H 0.14131 0.73804 0.92 0.0
H558 H 0.18822 0.76144 0.85919 0.0
H559 H 0.22899 0.81547 0.80613 0.0
H560 H 0.20666 0.92011 0.78619 0.0
H561 H 0.158 0.89662 0.84686 0.0
C562 C 0.13773 0.82818 0.89658 0.0
C563 C 0.1303 0.7915 0.91921 0.0
C564 C 0.16443 0.84156 0.86084 0.0
C565 C 0.14723 0.76684 0.90379 0.0
C566 C 0.17423 0.78028 0.86908 0.0
C567 C 0.21339 0.83313 0.81496 0.0
C568 C 0.22207 0.87001 0.79241 0.0
C569 C 0.18402 0.81818 0.84817 0.0
C570 C 0.20093 0.892 0.8036 0.0
C571 C 0.17297 0.87839 0.83808 0.0
H572 H 0.36754 0.17493 0.08819 0.0
H573 H 0.35199 0.27192 0.14982 0.0
H574 H 0.34653 0.23766 0.21751 0.0
H575 H 0.35045 0.1824 0.25942 0.0
H576 H 0.36291 0.08384 0.19685 0.0
H577 H 0.36466 0.11612 0.12914 0.0
C578 C 0.36226 0.18827 0.11623 0.0
C579 C 0.36024 0.22607 0.11366 0.0
C580 C 0.35873 0.16814 0.15493 0.0
C581 C 0.35363 0.24291 0.15064 0.0
C582 C 0.35064 0.22337 0.18944 0.0
C583 C 0.35307 0.16768 0.23098 0.0
C584 C 0.35683 0.13081 0.23341 0.0
C585 C 0.35376 0.1863 0.192 0.0
C586 C 0.35989 0.11208 0.19607 0.0
C587 C 0.36108 0.13067 0.15728 0.0
H588 H 0.91446 0.47428 0.35556 0.0
H589 H 0.01655 0.60531 0.35098 0.0
H590 H 0.06931 0.58191 0.34775 0.0
H591 H 0.08595 0.52375 0.35451 0.0
H592 H 0.98378 0.39267 0.35536 0.0
H593 H 0.93096 0.41594 0.35125 0.0
C594 C 0.94827 0.49748 0.35297 0.0
C595 C 0.96197 0.54135 0.35378 0.0
C596 C 0.97808 0.48365 0.35078 0.0
C597 C 0.00562 0.57143 0.35019 0.0
C598 C 0.03562 0.55802 0.34866 0.0
C599 C 0.05209 0.5005 0.3529 0.0
C600 C 0.03839 0.45668 0.35549 0.0
C601 C 0.02223 0.51424 0.35014 0.0
C602 C 0.99468 0.4265 0.35319 0.0
C603 C 0.96466 0.43985 0.35115 0.0
H604 H 0.57053 0.98088 0.67109 0.0
H605 H 0.60108 0.11193 0.65838 0.0
H606 H 0.52513 0.08881 0.65925 0.0
H607 H 0.44998 0.03168 0.6661 0.0
H608 H 0.41922 0.90068 0.67968 0.0
H609 H 0.49511 0.92342 0.67587 0.0
C610 C 0.56067 0.00446 0.66867 0.0
C611 C 0.59183 0.04824 0.66489 0.0
C612 C 0.51675 0.9909 0.66939 0.0
C613 C 0.5781 0.07809 0.66095 0.0
C614 C 0.53455 0.06488 0.66172 0.0
C615 C 0.4598 0.00806 0.66845 0.0
C616 C 0.42867 0.96444 0.6735 0.0
C617 C 0.5036 0.02143 0.66635 0.0
C618 C 0.44222 0.93433 0.67551 0.0
C619 C 0.48573 0.94739 0.67357 0.0
H620 H 0.53889 0.45304 0.9882 0.0
H621 H 0.40625 0.41494 0.99927 0.0
H622 H 0.425 0.49031 0.99892 0.0
H623 H 0.4805 0.56723 1.00352 0.0
H624 H 0.61279 0.60525 0.98845 0.0
H625 H 0.59339 0.52998 0.98183 0.0
C626 C 0.5142 0.46149 0.98938 0.0
C627 C 0.4713 0.42885 0.99365 0.0
C628 C 0.52537 0.50478 0.98891 0.0
C629 C 0.43935 0.43972 0.99546 0.0
C630 C 0.45017 0.48273 0.99567 0.0
C631 C 0.50478 0.55878 0.99793 0.0
C632 C 0.54798 0.59132 0.99664 0.0
C633 C 0.49318 0.51554 0.9936 0.0
C634 C 0.57942 0.5805 0.98931 0.0
C635 C 0.5683 0.53756 0.98578 0.0
H636 H 0.47445 0.91234 0.34618 0.0
H637 H 0.60731 0.00869 0.35556 0.0
H638 H 0.5885 0.06495 0.35726 0.0
H639 H 0.53401 0.08658 0.35075 0.0
H640 H 0.40086 0.99005 0.34655 0.0
H641 H 0.41948 0.93367 0.3486 0.0
C642 C 0.49906 0.94569 0.3491 0.0
C643 C 0.54218 0.95668 0.35039 0.0
C644 C 0.48783 0.97758 0.35084 0.0
C645 C 0.57399 0.99977 0.35465 0.0
C646 C 0.5632 0.03179 0.35539 0.0
C647 C 0.50923 0.05313 0.35083 0.0
C648 C 0.46618 0.04222 0.34816 0.0
C649 C 0.52027 0.02111 0.35273 0.0
C650 C 0.43412 0.99895 0.34874 0.0
C651 C 0.44482 0.96685 0.34966 0.0
H652 H 0.55564 0.47414 0.71822 0.0
H653 H 0.59394 0.60722 0.70862 0.0
H654 H 0.51876 0.58859 0.70973 0.0
H655 H 0.44193 0.53326 0.70584 0.0
H656 H 0.4037 0.40051 0.71984 0.0
H657 H 0.47885 0.41967 0.72513 0.0
C658 C 0.54729 0.49894 0.71735 0.0
C659 C 0.57993 0.54194 0.71324 0.0
C660 C 0.50412 0.48787 0.71843 0.0
C661 C 0.56917 0.57403 0.71213 0.0
C662 C 0.52627 0.5633 0.71241 0.0
C663 C 0.45029 0.50878 0.71084 0.0
C664 C 0.41767 0.46555 0.71218 0.0
C665 C 0.49346 0.52023 0.71443 0.0
C666 C 0.42845 0.43391 0.71892 0.0
C667 C 0.47133 0.4449 0.72167 0.0
H668 H 0.0284 0.43841 0.03739 0.0
H669 H 0.89624 0.40486 0.04069 0.0
H670 H 0.9178 0.48057 0.04215 0.0
H671 H 0.97413 0.55644 0.03956 0.0
H672 H 0.10632 0.59023 0.03571 0.0
H673 H 0.08491 0.51448 0.03765 0.0
C674 C 0.0043 0.44764 0.03832 0.0
C675 C 0.96068 0.41579 0.03867 0.0
C676 C 0.01698 0.49138 0.03905 0.0
C677 C 0.92996 0.42849 0.04073 0.0
C678 C 0.9423 0.47187 0.0413 0.0
C679 C 0.99828 0.54728 0.03903 0.0
C680 C 0.04184 0.57917 0.03717 0.0
C681 C 0.98569 0.50359 0.04 0.0
C682 C 0.07266 0.56655 0.03742 0.0
C683 C 0.06039 0.52316 0.03826 0.0
H684 H 0.2309 0.27872 0.28239 0.0
H685 H 0.20153 0.29767 0.40853 0.0
H686 H 0.23408 0.25811 0.43595 0.0
H687 H 0.27493 0.22186 0.42444 0.0
H688 H 0.30631 0.20486 0.29847 0.0
H689 H 0.26882 0.23943 0.27071 0.0
C690 C 0.23158 0.27408 0.31584 0.0
C691 C 0.21387 0.29124 0.34326 0.0
C692 C 0.2508 0.25162 0.33149 0.0
C693 C 0.21441 0.28443 0.38658 0.0
C694 C 0.23335 0.26205 0.40238 0.0
C695 C 0.27344 0.22565 0.39094 0.0
C696 C 0.29353 0.21087 0.36369 0.0
C697 C 0.25221 0.24607 0.37516 0.0
C698 C 0.29076 0.21542 0.32024 0.0
C699 C 0.26958 0.23555 0.30429 0.0
H700 H 0.93815 0.29821 0.67008 0.0
H701 H 0.94049 0.18694 0.62728 0.0
H702 H 0.01168 0.21443 0.65855 0.0
H703 H 0.0734 0.27107 0.69832 0.0
H704 H 0.06742 0.38012 0.74314 0.0
H705 H 0.9975 0.35261 0.71118 0.0
C706 C 0.95454 0.28027 0.66724 0.0
C707 C 0.93476 0.24112 0.64577 0.0
C708 C 0.9946 0.29577 0.68604 0.0
C709 C 0.95552 0.21738 0.64337 0.0
C710 C 0.99606 0.23309 0.66126 0.0
C711 C 0.05663 0.28862 0.70105 0.0
C712 C 0.07554 0.32746 0.72337 0.0
C713 C 0.01597 0.27235 0.68272 0.0
C714 C 0.05337 0.34983 0.72688 0.0
C715 C 0.01349 0.3343 0.70828 0.0
H716 H 0.70697 0.06797 0.03247 0.0
H717 H 0.82351 0.06701 0.05384 0.0
H718 H 0.79192 0.99563 0.0218 0.0
H719 H 0.72989 0.93298 0.98872 0.0
H720 H 0.61489 0.93709 0.96571 0.0
H721 H 0.64714 0.00791 0.99686 0.0
C722 C 0.72524 0.05187 0.0304 0.0
C723 C 0.76708 0.07204 0.04615 0.0
C724 C 0.70722 0.01166 1.01128 0.0
C725 C 0.79107 0.05168 0.04219 0.0
C726 C 0.77301 0.01103 0.0239 0.0
C727 C 0.71208 0.94955 0.99044 0.0
C728 C 0.67006 0.92973 0.97471 0.0
C729 C 0.73096 0.9906 1.00845 0.0
C730 C 0.64744 0.95174 0.97685 0.0
C731 C 0.66572 0.99214 0.99506 0.0
H732 H 0.72112 0.66613 0.30779 0.0
H733 H 0.83751 0.74491 0.37653 0.0
H734 H 0.80605 0.78383 0.40794 0.0
H735 H 0.7455 0.79607 0.41549 0.0
H736 H 0.63093 0.71993 0.34394 0.0
H737 H 0.66175 0.67959 0.31365 0.0
C738 C 0.73997 0.69218 0.32909 0.0
C739 C 0.78166 0.70227 0.33978 0.0
C740 C 0.72187 0.7148 0.34674 0.0
C741 C 0.80515 0.73586 0.3681 0.0
C742 C 0.78723 0.7583 0.38604 0.0
C743 C 0.72725 0.77026 0.39367 0.0
C744 C 0.686 0.76062 0.38212 0.0
C745 C 0.74553 0.74788 0.37579 0.0
C746 C 0.66281 0.7278 0.35315 0.0
C747 C 0.68041 0.70483 0.33585 0.0
H748 H 0.04788 0.7547 0.62155 0.0
H749 H 0.10693 0.78852 0.74322 0.0
H750 H 0.03673 0.75465 0.77666 0.0
H751 H 0.95807 0.71359 0.77134 0.0
H752 H 0.89949 0.68126 0.64945 0.0
H753 H 0.96944 0.7163 0.61614 0.0
C754 C 0.04524 0.75455 0.65535 0.0
C755 C 0.08248 0.77404 0.67982 0.0
C756 C 0.00474 0.7353 0.67437 0.0
C757 C 0.07873 0.77415 0.72364 0.0
C758 C 0.03858 0.75457 0.74281 0.0
C759 C 0.96074 0.71434 0.73752 0.0
C760 C 0.92349 0.69481 0.71297 0.0
C761 C 1.00132 0.73483 0.71851 0.0
C762 C 0.92746 0.69643 0.66912 0.0
C763 C 0.96757 0.71625 0.65001 0.0
H764 H 0.3066 0.05016 0.93767 0.0
H765 H 0.32441 0.1081 0.0592 0.0
H766 H 0.28695 0.03791 0.09208 0.0
H767 H 0.25034 0.95942 0.08671 0.0
H768 H 0.23033 0.90094 0.96519 0.0
H769 H 0.26705 0.97142 0.93198 0.0
C770 C 0.30222 0.04734 0.97131 0.0
C771 C 0.31861 0.08455 0.99586 0.0
C772 C 0.2802 0.00658 0.99008 0.0
C773 C 0.31204 0.08026 0.03942 0.0
C774 C 0.29075 0.03998 0.05835 0.0
C775 C 0.25423 0.96224 0.053 0.0
C776 C 0.23783 0.92507 0.02853 0.0
C777 C 0.27499 0.0029 0.03406 0.0
C778 C 0.2424 0.92907 0.98475 0.0
C779 C 0.26357 0.96939 0.96573 0.0
H780 H 0.41072 0.70332 0.36786 0.0
H781 H 0.48626 0.64668 0.33412 0.0
H782 H 0.42209 0.57547 0.33458 0.0
H783 H 0.34433 0.52945 0.34541 0.0
H784 H 0.26937 0.58714 0.37742 0.0
H785 H 0.33369 0.65801 0.37773 0.0
C786 C 0.41309 0.67532 0.36076 0.0
C787 C 0.45297 0.68 0.35117 0.0
C788 C 0.37632 0.63481 0.36123 0.0
C789 C 0.4557 0.64372 0.34128 0.0
C790 C 0.41916 0.60308 0.34186 0.0
C791 C 0.34241 0.55764 0.35283 0.0
C792 C 0.30264 0.5535 0.36171 0.0
C793 C 0.37934 0.59825 0.35205 0.0
C794 C 0.29994 0.58996 0.37061 0.0
C795 C 0.33656 0.63032 0.37068 0.0
H796 H 0.76197 0.44068 0.64465 0.0
H797 H 0.73171 0.42354 0.77668 0.0
H798 H 0.72292 0.35251 0.77416 0.0
H799 H 0.72338 0.29513 0.73464 0.0
H800 H 0.76561 0.31774 0.60563 0.0
H801 H 0.76959 0.38644 0.60709 0.0
C802 C 0.75426 0.42194 0.67317 0.0
C803 C 0.74696 0.43759 0.71059 0.0
C804 C 0.75084 0.38167 0.67204 0.0
C805 C 0.73632 0.41213 0.74698 0.0
C806 C 0.73163 0.3715 0.74574 0.0
C807 C 0.73414 0.31511 0.70691 0.0
C808 C 0.74337 0.30028 0.66993 0.0
C809 C 0.73867 0.35588 0.70839 0.0
C810 C 0.75662 0.32702 0.63429 0.0
C811 C 0.75961 0.36687 0.63514 0.0
H812 H 0.41456 0.73426 0.96262 0.0
H813 H 0.4436 0.76092 0.09395 0.0
H814 H 0.37655 0.76015 0.1046 0.0
H815 H 0.31066 0.75334 0.07623 0.0
H816 H 0.2804 0.72352 0.94547 0.0
H817 H 0.34718 0.72387 0.93503 0.0
C818 C 0.40594 0.73916 0.99375 0.0
C819 C 0.43399 0.7475 0.02746 0.0
C820 C 0.36729 0.73825 0.99971 0.0
C821 C 0.42277 0.75486 0.06738 0.0
C822 C 0.38437 0.75421 0.07354 0.0
C823 C 0.31828 0.74617 0.04559 0.0
C824 C 0.29057 0.73839 1.01169 0.0
C825 C 0.3565 0.74608 0.03988 0.0
C826 C 0.30142 0.7301 0.97199 0.0
C827 C 0.33947 0.7301 0.96603 0.0
H828 H 0.59125 0.29352 0.3627 0.0
H829 H 0.51355 0.35203 0.3519 0.0
H830 H 0.57766 0.42311 0.35364 0.0
H831 H 0.65601 0.46835 0.35727 0.0
H832 H 0.73291 0.40898 0.36793 0.0
H833 H 0.66866 0.33822 0.36811 0.0
C834 C 0.58832 0.32184 0.36119 0.0
C835 C 0.54787 0.31766 0.35727 0.0
C836 C 0.62506 0.3623 0.36242 0.0
C837 C 0.54449 0.35455 0.35448 0.0
C838 C 0.58104 0.39511 0.35578 0.0
C839 C 0.65848 0.43984 0.36019 0.0
C840 C 0.69883 0.44356 0.36261 0.0
C841 C 0.62149 0.39933 0.3597 0.0
C842 C 0.70199 0.40661 0.36579 0.0
C843 C 0.66538 0.36627 0.36587 0.0
H844 H 0.24753 0.69177 0.63768 0.0
H845 H 0.2566 0.71045 0.77149 0.0
H846 H 0.25195 0.64133 0.78136 0.0
H847 H 0.24643 0.57647 0.75194 0.0
H848 H 0.24059 0.55909 0.618 0.0
H849 H 0.2425 0.62695 0.60819 0.0
C850 C 0.24905 0.68098 0.66897 0.0
C851 C 0.25279 0.70634 0.7038 0.0
C852 C 0.24669 0.64146 0.67437 0.0
C853 C 0.25354 0.6914 0.74421 0.0
C854 C 0.25103 0.652 0.74986 0.0
C855 C 0.24602 0.58771 0.72056 0.0
C856 C 0.24373 0.56295 0.68574 0.0
C857 C 0.24781 0.62692 0.71515 0.0
C858 C 0.24204 0.5774 0.64533 0.0
C859 C 0.24343 0.61631 0.63969 0.0
H860 H 0.5794 0.24346 0.95943 0.0
H861 H 0.58673 0.29888 0.08055 0.0
H862 H 0.65874 0.31046 0.0906 0.0
H863 H 0.71861 0.30396 0.06515 0.0
H864 H 0.70767 0.24078 0.94728 0.0
H865 H 0.63892 0.23517 0.93477 0.0
C866 C 0.59696 0.25814 0.98793 0.0
C867 C 0.57817 0.27031 1.01927 0.0
C868 C 0.63781 0.26394 0.99372 0.0
C869 C 0.60072 0.28899 0.05626 0.0
C870 C 0.64184 0.29581 0.06185 0.0
C871 C 0.70114 0.2884 0.03692 0.0
C872 C 0.71858 0.27262 1.00742 0.0
C873 C 0.66056 0.28317 0.03086 0.0
C874 C 0.69572 0.25396 0.97037 0.0
C875 C 0.65599 0.25015 0.96337 0.0
loop_
_geom_bond_atom_site_label_1
_geom_bond_atom_site_label_2
_geom_bond_distance
_geom_bond_site_symmetry_2
_ccdc_geom_bond_type
C0 C1 1.351 . S
C0 N3 1.368 . S
C0 H5 0.931 . S
C1 C0 1.351 . S
C1 N2 1.373 . S
C1 H29 0.930 . S
N2 C1 1.373 . S
N2 C4 1.340 . S
N3 C0 1.368 . S
N3 C4 1.321 . S
N3 Co6 2.135 . S
C4 N2 1.340 . S
C4 N3 1.321 . S
C4 H28 0.930 . S
H5 C0 0.931 . S
Co6 N3 2.135 . S
Co6 N9 2.121 . S
Co6 O14 2.055 . S
Co6 O17 2.039 . S
Co6 N20 2.140 . S
C7 O8 1.227 . S
C7 O17 1.265 . S
O8 C7 1.227 . S
N9 Co6 2.121 . S
N9 C11 1.375 . S
N9 C12 1.313 . S
C10 C11 1.338 . S
C10 N13 1.377 . S
C10 H30 0.930 . S
C11 N9 1.375 . S
C11 C10 1.338 . S
C11 H15 0.931 . S
C12 N9 1.313 . S
C12 N13 1.344 . S
C12 H16 0.930 . S
N13 C10 1.377 . S
N13 C12 1.344 . S
O14 Co6 2.055 . S
O14 C18 1.253 . S
H15 C11 0.931 . S
H16 C12 0.930 . S
O17 Co6 2.039 . S
O17 C7 1.265 . S
C18 O14 1.253 . S
C18 O19 1.227 . S
O19 C18 1.227 . S
N20 Co6 2.140 . S
N20 C23 1.346 . S
N20 C24 1.345 . S
C21 C22 1.387 . S
C21 C25 1.391 . S
C22 C21 1.387 . S
C22 C23 1.369 . S
C22 H31 0.929 . S
C23 N20 1.346 . S
C23 C22 1.369 . S
C23 H26 0.928 . S
C24 N20 1.345 . S
C24 C25 1.371 . S
C24 H27 0.931 . S
C25 C21 1.391 . S
C25 C24 1.371 . S
C25 H32 0.930 . S
H26 C23 0.928 . S
H27 C24 0.931 . S
H28 C4 0.930 . S
H29 C1 0.930 . S
H30 C10 0.930 . S
H31 C22 0.929 . S
H32 C25 0.930 . S
C33 C34 1.351 . S
C33 N36 1.368 . S
C33 H38 0.931 . S
C34 C33 1.351 . S
C34 N35 1.373 . S
C34 H62 0.930 . S
N35 C34 1.373 . S
N35 C37 1.340 . S
N36 C33 1.368 . S
N36 C37 1.321 . S
N36 Co39 2.135 . S
C37 N35 1.340 . S
C37 N36 1.321 . S
C37 H61 0.930 . S
H38 C33 0.931 . S
Co39 N36 2.135 . S
Co39 N42 2.121 . S
Co39 O47 2.055 . S
Co39 O50 2.039 . S
Co39 N53 2.140 . S
C40 O41 1.227 . S
C40 O50 1.265 . S
O41 C40 1.227 . S
N42 Co39 2.121 . S
N42 C44 1.375 . S
N42 C45 1.313 . S
C43 C44 1.338 . S
C43 N46 1.377 . S
C43 H63 0.930 . S
C44 N42 1.375 . S
C44 C43 1.338 . S
C44 H48 0.931 . S
C45 N42 1.313 . S
C45 N46 1.344 . S
C45 H49 0.930 . S
N46 C43 1.377 . S
N46 C45 1.344 . S
O47 Co39 2.055 . S
O47 C51 1.253 . S
H48 C44 0.931 . S
H49 C45 0.930 . S
O50 Co39 2.039 . S
O50 C40 1.265 . S
C51 O47 1.253 . S
C51 O52 1.227 . S
O52 C51 1.227 . S
N53 Co39 2.140 . S
N53 C56 1.346 . S
N53 C57 1.345 . S
C54 C55 1.387 . S
C54 C58 1.391 . S
C55 C54 1.387 . S
C55 C56 1.369 . S
C55 H64 0.929 . S
C56 N53 1.346 . S
C56 C55 1.369 . S
C56 H59 0.928 . S
C57 N53 1.345 . S
C57 C58 1.371 . S
C57 H60 0.931 . S
C58 C54 1.391 . S
C58 C57 1.371 . S
C58 H65 0.930 . S
H59 C56 0.928 . S
H60 C57 0.931 . S
H61 C37 0.930 . S
H62 C34 0.930 . S
H63 C43 0.930 . S
H64 C55 0.929 . S
H65 C58 0.930 . S
C66 C67 1.351 . S
C66 N69 1.368 . S
C66 H71 0.931 . S
C67 C66 1.351 . S
C67 N68 1.373 . S
C67 H95 0.930 . S
N68 C67 1.373 . S
N68 C70 1.340 1_556 S
N69 C66 1.368 . S
N69 C70 1.321 1_556 S
N69 Co72 2.135 1_556 S
C70 N68 1.340 1_554 S
C70 N69 1.321 1_554 S
C70 H94 0.930 . S
H71 C66 0.931 . S
Co72 N69 2.135 1_554 S
Co72 N75 2.121 . S
Co72 O80 2.055 1_554 S
Co72 O83 2.039 . S
Co72 N86 2.140 1_554 S
C73 O74 1.227 . S
C73 O83 1.265 . S
O74 C73 1.227 . S
N75 Co72 2.121 . S
N75 C77 1.375 . S
N75 C78 1.321 . S
C76 C77 1.338 . S
C76 N79 1.377 . S
C76 H96 0.930 . S
C77 N75 1.375 . S
C77 C76 1.338 . S
C77 H81 0.931 . S
C78 N75 1.321 . S
C78 N79 1.351 . S
C78 H82 0.917 1_554 S
N79 C76 1.377 . S
N79 C78 1.351 . S
O80 Co72 2.055 1_556 S
O80 C84 1.253 . S
H81 C77 0.931 . S
H82 C78 0.917 1_556 S
O83 Co72 2.039 . S
O83 C73 1.265 . S
C84 O80 1.253 . S
C84 O85 1.227 . S
O85 C84 1.227 . S
N86 Co72 2.140 1_556 S
N86 C89 1.346 1_556 S
N86 C90 1.345 . S
C87 C88 1.387 . S
C87 C91 1.391 . S
C88 C87 1.387 . S
C88 C89 1.369 1_556 S
C88 H97 0.929 1_556 S
C89 N86 1.346 1_554 S
C89 C88 1.369 1_554 S
C89 H92 0.928 . S
C90 N86 1.345 . S
C90 C91 1.371 . S
C90 H93 0.931 . S
C91 C87 1.391 . S
C91 C90 1.371 . S
C91 H98 0.930 . S
H92 C89 0.928 . S
H93 C90 0.931 . S
H94 C70 0.930 . S
H95 C67 0.930 . S
H96 C76 0.930 . S
H97 C88 0.929 1_554 S
H98 C91 0.930 . S
C99 C100 1.351 . S
C99 N102 1.368 . S
C99 H104 0.931 . S
C100 C99 1.351 . S
C100 N101 1.373 . S
C100 H128 0.930 . S
N101 C100 1.373 . S
N101 C103 1.340 . S
N102 C99 1.368 . S
N102 C103 1.321 . S
N102 Co105 2.135 . S
C103 N101 1.340 . S
C103 N102 1.321 . S
C103 H127 0.930 . S
H104 C99 0.931 . S
Co105 N102 2.135 . S
Co105 N108 2.121 . S
Co105 O113 2.055 . S
Co105 O116 2.039 . S
Co105 N119 2.140 . S
C106 O107 1.227 . S
C106 O116 1.265 . S
O107 C106 1.227 . S
N108 Co105 2.121 . S
N108 C110 1.375 . S
N108 C111 1.313 . S
C109 C110 1.338 . S
C109 N112 1.377 . S
C109 H129 0.930 . S
C110 N108 1.375 . S
C110 C109 1.338 . S
C110 H114 0.931 . S
C111 N108 1.313 . S
C111 N112 1.344 . S
C111 H115 0.930 . S
N112 C109 1.377 . S
N112 C111 1.344 . S
O113 Co105 2.055 . S
O113 C117 1.253 . S
H114 C110 0.931 . S
H115 C111 0.930 . S
O116 Co105 2.039 . S
O116 C106 1.265 . S
C117 O113 1.253 . S
C117 O118 1.227 . S
O118 C117 1.227 . S
N119 Co105 2.140 . S
N119 C122 1.346 . S
N119 C123 1.345 . S
C120 C121 1.387 . S
C120 C124 1.391 . S
C121 C120 1.387 . S
C121 C122 1.369 . S
C121 H130 0.929 . S
C122 N119 1.346 . S
C122 C121 1.369 . S
C122 H125 0.928 . S
C123 N119 1.345 . S
C123 C124 1.371 . S
C123 H126 0.931 . S
C124 C120 1.391 . S
C124 C123 1.371 . S
C124 H131 0.930 . S
H125 C122 0.928 . S
H126 C123 0.931 . S
H127 C103 0.930 . S
H128 C100 0.930 . S
H129 C109 0.930 . S
H130 C121 0.929 . S
H131 C124 0.930 . S
C132 C133 1.351 . S
C132 N135 1.368 . S
C132 H137 0.931 . S
C133 C132 1.351 . S
C133 N134 1.373 . S
C133 H161 0.930 . S
N134 C133 1.373 . S
N134 C136 1.340 . S
N135 C132 1.368 . S
N135 C136 1.321 . S
N135 Co138 2.135 . S
C136 N134 1.340 . S
C136 N135 1.321 . S
C136 H160 0.930 . S
H137 C132 0.931 . S
Co138 N135 2.135 . S
Co138 N141 2.121 . S
Co138 O146 2.055 . S
Co138 O149 2.039 . S
Co138 N152 2.140 . S
C139 O140 1.227 . S
C139 O149 1.265 . S
O140 C139 1.227 . S
N141 Co138 2.121 . S
N141 C143 1.375 . S
N141 C144 1.313 . S
C142 C143 1.338 . S
C142 N145 1.377 . S
C142 H162 0.930 . S
C143 N141 1.375 . S
C143 C142 1.338 . S
C143 H147 0.931 . S
C144 N141 1.313 . S
C144 N145 1.344 . S
C144 H148 0.930 . S
N145 C142 1.377 . S
N145 C144 1.344 . S
O146 Co138 2.055 . S
O146 C150 1.253 . S
H147 C143 0.931 . S
H148 C144 0.930 . S
O149 Co138 2.039 . S
O149 C139 1.265 . S
C150 O146 1.253 . S
C150 O151 1.227 . S
O151 C150 1.227 . S
N152 Co138 2.140 . S
N152 C155 1.346 . S
N152 C156 1.345 . S
C153 C154 1.387 . S
C153 C157 1.391 . S
C154 C153 1.387 . S
C154 C155 1.369 . S
C154 H163 0.929 . S
C155 N152 1.346 . S
C155 C154 1.369 . S
C155 H158 0.928 . S
C156 N152 1.345 . S
C156 C157 1.371 . S
C156 H159 0.931 . S
C157 C153 1.391 . S
C157 C156 1.371 . S
C157 H164 0.930 . S
H158 C155 0.928 . S
H159 C156 0.931 . S
H160 C136 0.930 . S
H161 C133 0.930 . S
H162 C142 0.930 . S
H163 C154 0.929 . S
H164 C157 0.930 . S
C165 C166 1.351 . S
C165 N168 1.368 . S
C165 H170 0.931 . S
C166 C165 1.351 . S
C166 N167 1.373 . S
C166 H194 0.930 . S
N167 C166 1.373 . S
N167 C169 1.340 1_556 S
N168 C165 1.368 . S
N168 C169 1.321 1_556 S
N168 Co171 2.135 1_556 S
C169 N167 1.340 1_554 S
C169 N168 1.321 1_554 S
C169 H193 0.930 . S
H170 C165 0.931 . S
Co171 N168 2.135 1_554 S
Co171 N174 2.121 . S
Co171 O179 2.055 1_554 S
Co171 O182 2.039 . S
Co171 N185 2.140 1_554 S
C172 O173 1.227 . S
C172 O182 1.265 . S
O173 C172 1.227 . S
N174 Co171 2.121 . S
N174 C176 1.375 . S
N174 C177 1.321 . S
C175 C176 1.338 . S
C175 N178 1.377 . S
C175 H195 0.930 . S
C176 N174 1.375 . S
C176 C175 1.338 . S
C176 H180 0.931 . S
C177 N174 1.321 . S
C177 N178 1.351 . S
C177 H181 0.917 1_554 S
N178 C175 1.377 . S
N178 C177 1.351 . S
O179 Co171 2.055 1_556 S
O179 C183 1.253 . S
H180 C176 0.931 . S
H181 C177 0.917 1_556 S
O182 Co171 2.039 . S
O182 C172 1.265 . S
C183 O179 1.253 . S
C183 O184 1.227 . S
O184 C183 1.227 . S
N185 Co171 2.140 1_556 S
N185 C188 1.346 1_556 S
N185 C189 1.345 . S
C186 C187 1.387 . S
C186 C190 1.391 . S
C187 C186 1.387 . S
C187 C188 1.369 1_556 S
C187 H196 0.929 1_556 S
C188 N185 1.346 1_554 S
C188 C187 1.369 1_554 S
C188 H191 0.928 . S
C189 N185 1.345 . S
C189 C190 1.371 . S
C189 H192 0.931 . S
C190 C186 1.391 . S
C190 C189 1.371 . S
C190 H197 0.930 . S
H191 C188 0.928 . S
H192 C189 0.931 . S
H193 C169 0.930 . S
H194 C166 0.930 . S
H195 C175 0.930 . S
H196 C187 0.929 1_554 S
H197 C190 0.930 . S
C198 C199 1.351 . S
C198 N201 1.368 . S
C198 H203 0.931 . S
C199 C198 1.351 . S
C199 N200 1.373 . S
C199 H227 0.930 . S
N200 C199 1.373 . S
N200 C202 1.340 . S
N201 C198 1.368 . S
N201 C202 1.321 . S
N201 Co204 2.135 . S
C202 N200 1.340 . S
C202 N201 1.321 . S
C202 H226 0.930 . S
H203 C198 0.931 . S
Co204 N201 2.135 . S
Co204 N207 2.121 . S
Co204 O212 2.055 . S
Co204 O215 2.039 . S
Co204 N218 2.140 . S
C205 O206 1.227 . S
C205 O215 1.265 . S
O206 C205 1.227 . S
N207 Co204 2.121 . S
N207 C209 1.375 . S
N207 C210 1.313 . S
C208 C209 1.338 . S
C208 N211 1.377 . S
C208 H228 0.930 . S
C209 N207 1.375 . S
C209 C208 1.338 . S
C209 H213 0.931 . S
C210 N207 1.313 . S
C210 N211 1.344 . S
C210 H214 0.930 . S
N211 C208 1.377 . S
N211 C210 1.344 . S
O212 Co204 2.055 . S
O212 C216 1.253 . S
H213 C209 0.931 . S
H214 C210 0.930 . S
O215 Co204 2.039 . S
O215 C205 1.265 . S
C216 O212 1.253 . S
C216 O217 1.227 . S
O217 C216 1.227 . S
N218 Co204 2.140 . S
N218 C221 1.346 . S
N218 C222 1.345 . S
C219 C220 1.387 . S
C219 C223 1.391 . S
C220 C219 1.387 . S
C220 C221 1.369 . S
C220 H229 0.929 . S
C221 N218 1.346 . S
C221 C220 1.369 . S
C221 H224 0.928 . S
C222 N218 1.345 . S
C222 C223 1.371 . S
C222 H225 0.931 . S
C223 C219 1.391 . S
C223 C222 1.371 . S
C223 H230 0.930 . S
H224 C221 0.928 . S
H225 C222 0.931 . S
H226 C202 0.930 . S
H227 C199 0.930 . S
H228 C208 0.930 . S
H229 C220 0.929 . S
H230 C223 0.930 . S
C231 C232 1.351 . S
C231 N234 1.368 . S
C231 H236 0.931 . S
C232 C231 1.351 . S
C232 N233 1.373 . S
C232 H260 0.930 . S
N233 C232 1.373 . S
N233 C235 1.340 . S
N234 C231 1.368 . S
N234 C235 1.321 . S
N234 Co237 2.135 . S
C235 N233 1.340 . S
C235 N234 1.321 . S
C235 H259 0.930 . S
H236 C231 0.931 . S
Co237 N234 2.135 . S
Co237 N240 2.121 . S
Co237 O245 2.055 . S
Co237 O248 2.039 . S
Co237 N251 2.140 . S
C238 O239 1.227 . S
C238 O248 1.265 . S
O239 C238 1.227 . S
N240 Co237 2.121 . S
N240 C242 1.375 . S
N240 C243 1.313 . S
C241 C242 1.338 . S
C241 N244 1.377 . S
C241 H261 0.930 . S
C242 N240 1.375 . S
C242 C241 1.338 . S
C242 H246 0.931 . S
C243 N240 1.313 . S
C243 N244 1.344 . S
C243 H247 0.930 . S
N244 C241 1.377 . S
N244 C243 1.344 . S
O245 Co237 2.055 . S
O245 C249 1.253 . S
H246 C242 0.931 . S
H247 C243 0.930 . S
O248 Co237 2.039 . S
O248 C238 1.265 . S
C249 O245 1.253 . S
C249 O250 1.227 . S
O250 C249 1.227 . S
N251 Co237 2.140 . S
N251 C254 1.346 . S
N251 C255 1.345 . S
C252 C253 1.387 . S
C252 C256 1.391 . S
C253 C252 1.387 . S
C253 C254 1.369 . S
C253 H262 0.929 . S
C254 N251 1.346 . S
C254 C253 1.369 . S
C254 H257 0.928 . S
C255 N251 1.345 . S
C255 C256 1.371 . S
C255 H258 0.931 . S
C256 C252 1.391 . S
C256 C255 1.371 . S
C256 H263 0.930 . S
H257 C254 0.928 . S
H258 C255 0.931 . S
H259 C235 0.930 . S
H260 C232 0.930 . S
H261 C241 0.930 . S
H262 C253 0.929 . S
H263 C256 0.930 . S
C264 C265 1.351 . S
C264 N267 1.368 . S
C264 H269 0.931 . S
C265 C264 1.351 . S
C265 N266 1.373 . S
C265 H293 0.930 . S
N266 C265 1.373 . S
N266 C268 1.340 1_554 S
N267 C264 1.368 . S
N267 C268 1.321 1_554 S
N267 Co270 2.135 1_554 S
C268 N266 1.340 1_556 S
C268 N267 1.321 1_556 S
C268 H292 0.930 . S
H269 C264 0.931 . S
Co270 N267 2.135 1_556 S
Co270 N273 2.121 . S
Co270 O278 2.055 1_556 S
Co270 O281 2.039 . S
Co270 N284 2.140 1_556 S
C271 O272 1.227 . S
C271 O281 1.265 . S
O272 C271 1.227 . S
N273 Co270 2.121 . S
N273 C275 1.375 . S
N273 C276 1.321 . S
C274 C275 1.338 . S
C274 N277 1.377 . S
C274 H294 0.930 . S
C275 N273 1.375 . S
C275 C274 1.338 . S
C275 H279 0.931 . S
C276 N273 1.321 . S
C276 N277 1.351 . S
C276 H280 0.917 1_556 S
N277 C274 1.377 . S
N277 C276 1.351 . S
O278 Co270 2.055 1_554 S
O278 C282 1.253 . S
H279 C275 0.931 . S
H280 C276 0.917 1_554 S
O281 Co270 2.039 . S
O281 C271 1.265 . S
C282 O278 1.253 . S
C282 O283 1.227 . S
O283 C282 1.227 . S
N284 Co270 2.140 1_554 S
N284 C287 1.346 1_554 S
N284 C288 1.345 . S
C285 C286 1.387 . S
C285 C289 1.391 . S
C286 C285 1.387 . S
C286 C287 1.369 1_554 S
C286 H295 0.929 1_554 S
C287 N284 1.346 1_556 S
C287 C286 1.369 1_556 S
C287 H290 0.928 . S
C288 N284 1.345 . S
C288 C289 1.371 . S
C288 H291 0.931 . S
C289 C285 1.391 . S
C289 C288 1.371 . S
C289 H296 0.930 . S
H290 C287 0.928 . S
H291 C288 0.931 . S
H292 C268 0.930 . S
H293 C265 0.930 . S
H294 C274 0.930 . S
H295 C286 0.929 1_556 S
H296 C289 0.930 . S
C297 C298 1.351 . S
C297 N300 1.368 . S
C297 H302 0.931 . S
C298 C297 1.351 . S
C298 N299 1.373 . S
C298 H326 0.930 . S
N299 C298 1.373 . S
N299 C301 1.340 . S
N300 C297 1.368 . S
N300 C301 1.321 . S
N300 Co303 2.135 . S
C301 N299 1.340 . S
C301 N300 1.321 . S
C301 H325 0.930 . S
H302 C297 0.931 . S
Co303 N300 2.135 . S
Co303 N306 2.121 . S
Co303 O311 2.055 . S
Co303 O314 2.039 . S
Co303 N317 2.140 . S
C304 O305 1.227 . S
C304 O314 1.265 . S
O305 C304 1.227 . S
N306 Co303 2.121 . S
N306 C308 1.375 . S
N306 C309 1.313 . S
C307 C308 1.338 . S
C307 N310 1.377 . S
C307 H327 0.930 . S
C308 N306 1.375 . S
C308 C307 1.338 . S
C308 H312 0.931 . S
C309 N306 1.313 . S
C309 N310 1.344 . S
C309 H313 0.930 . S
N310 C307 1.377 . S
N310 C309 1.344 . S
O311 Co303 2.055 . S
O311 C315 1.253 . S
H312 C308 0.931 . S
H313 C309 0.930 . S
O314 Co303 2.039 . S
O314 C304 1.265 . S
C315 O311 1.253 . S
C315 O316 1.227 . S
O316 C315 1.227 . S
N317 Co303 2.140 . S
N317 C320 1.346 . S
N317 C321 1.345 . S
C318 C319 1.387 . S
C318 C322 1.391 . S
C319 C318 1.387 . S
C319 C320 1.369 . S
C319 H328 0.929 . S
C320 N317 1.346 . S
C320 C319 1.369 . S
C320 H323 0.928 . S
C321 N317 1.345 . S
C321 C322 1.371 . S
C321 H324 0.931 . S
C322 C318 1.391 . S
C322 C321 1.371 . S
C322 H329 0.930 . S
H323 C320 0.928 . S
H324 C321 0.931 . S
H325 C301 0.930 . S
H326 C298 0.930 . S
H327 C307 0.930 . S
H328 C319 0.929 . S
H329 C322 0.930 . S
C330 C331 1.351 . S
C330 N333 1.368 . S
C330 H335 0.931 . S
C331 C330 1.351 . S
C331 N332 1.373 . S
C331 H359 0.930 . S
N332 C331 1.373 . S
N332 C334 1.340 . S
N333 C330 1.368 . S
N333 C334 1.321 . S
N333 Co336 2.135 . S
C334 N332 1.340 . S
C334 N333 1.321 . S
C334 H358 0.930 . S
H335 C330 0.931 . S
Co336 N333 2.135 . S
Co336 N339 2.121 . S
Co336 O344 2.055 . S
Co336 O347 2.039 . S
Co336 N350 2.140 . S
C337 O338 1.227 . S
C337 O347 1.265 . S
O338 C337 1.227 . S
N339 Co336 2.121 . S
N339 C341 1.375 . S
N339 C342 1.313 . S
C340 C341 1.338 . S
C340 N343 1.377 . S
C340 H360 0.930 . S
C341 N339 1.375 . S
C341 C340 1.338 . S
C341 H345 0.931 . S
C342 N339 1.313 . S
C342 N343 1.344 . S
C342 H346 0.930 . S
N343 C340 1.377 . S
N343 C342 1.344 . S
O344 Co336 2.055 . S
O344 C348 1.253 . S
H345 C341 0.931 . S
H346 C342 0.930 . S
O347 Co336 2.039 . S
O347 C337 1.265 . S
C348 O344 1.253 . S
C348 O349 1.227 . S
O349 C348 1.227 . S
N350 Co336 2.140 . S
N350 C353 1.346 . S
N350 C354 1.345 . S
C351 C352 1.387 . S
C351 C355 1.391 . S
C352 C351 1.387 . S
C352 C353 1.369 . S
C352 H361 0.929 . S
C353 N350 1.346 . S
C353 C352 1.369 . S
C353 H356 0.928 . S
C354 N350 1.345 . S
C354 C355 1.371 . S
C354 H357 0.931 . S
C355 C351 1.391 . S
C355 C354 1.371 . S
C355 H362 0.930 . S
H356 C353 0.928 . S
H357 C354 0.931 . S
H358 C334 0.930 . S
H359 C331 0.930 . S
H360 C340 0.930 . S
H361 C352 0.929 . S
H362 C355 0.930 . S
C363 C364 1.351 . S
C363 N366 1.368 . S
C363 H368 0.931 . S
C364 C363 1.351 . S
C364 N365 1.373 . S
C364 H392 0.930 . S
N365 C364 1.373 . S
N365 C367 1.340 1_554 S
N366 C363 1.368 . S
N366 C367 1.321 1_554 S
N366 Co369 2.135 1_554 S
C367 N365 1.340 1_556 S
C367 N366 1.321 1_556 S
C367 H391 0.930 . S
H368 C363 0.931 . S
Co369 N366 2.135 1_556 S
Co369 N372 2.121 . S
Co369 O377 2.055 1_556 S
Co369 O380 2.039 . S
Co369 N383 2.140 1_556 S
C370 O371 1.227 . S
C370 O380 1.265 . S
O371 C370 1.227 . S
N372 Co369 2.121 . S
N372 C374 1.375 . S
N372 C375 1.321 . S
C373 C374 1.338 . S
C373 N376 1.377 . S
C373 H393 0.930 . S
C374 N372 1.375 . S
C374 C373 1.338 . S
C374 H378 0.931 . S
C375 N372 1.321 . S
C375 N376 1.351 . S
C375 H379 0.917 1_556 S
N376 C373 1.377 . S
N376 C375 1.351 . S
O377 Co369 2.055 1_554 S
O377 C381 1.253 . S
H378 C374 0.931 . S
H379 C375 0.917 1_554 S
O380 Co369 2.039 . S
O380 C370 1.265 . S
C381 O377 1.253 . S
C381 O382 1.227 . S
O382 C381 1.227 . S
N383 Co369 2.140 1_554 S
N383 C386 1.346 1_554 S
N383 C387 1.345 . S
C384 C385 1.387 . S
C384 C388 1.391 . S
C385 C384 1.387 . S
C385 C386 1.369 1_554 S
C385 H394 0.929 1_554 S
C386 N383 1.346 1_556 S
C386 C385 1.369 1_556 S
C386 H389 0.928 . S
C387 N383 1.345 . S
C387 C388 1.371 . S
C387 H390 0.931 . S
C388 C384 1.391 . S
C388 C387 1.371 . S
C388 H395 0.930 . S
H389 C386 0.928 . S
H390 C387 0.931 . S
H391 C367 0.930 . S
H392 C364 0.930 . S
H393 C373 0.930 . S
H394 C385 0.929 1_556 S
H395 C388 0.930 . S
H396 C402 0.930 . S
H397 C405 0.930 . S
H398 C406 0.930 . S
H399 C407 0.930 . S
H400 C410 0.930 . S
H401 C411 0.930 . S
C402 H396 0.930 . S
C402 C403 1.355 . S
C402 C404 1.415 1_655 S
C403 C402 1.355 . S
C403 C405 1.419 . S
C404 C402 1.415 1_455 S
C404 C409 1.425 1_455 S
C404 C411 1.409 . S
C405 H397 0.930 . S
C405 C403 1.419 . S
C405 C406 1.362 . S
C406 H398 0.930 . S
C406 C405 1.362 . S
C406 C409 1.409 . S
C407 H399 0.930 . S
C407 C408 1.355 . S
C407 C409 1.415 1_455 S
C408 C407 1.355 . S
C408 C410 1.419 . S
C409 C404 1.425 1_655 S
C409 C406 1.409 . S
C409 C407 1.415 1_655 S
C410 H400 0.930 . S
C410 C408 1.419 . S
C410 C411 1.362 . S
C411 H401 0.930 . S
C411 C404 1.409 . S
C411 C410 1.362 . S
H412 C418 0.930 1_545 S
H413 C421 0.930 . S
H414 C422 0.930 . S
H415 C423 0.930 1_565 S
H416 C426 0.930 . S
H417 C427 0.930 . S
C418 H412 0.930 1_565 S
C418 C419 1.355 . S
C418 C420 1.415 1_565 S
C419 C418 1.355 . S
C419 C421 1.419 . S
C420 C418 1.415 1_545 S
C420 C425 1.425 1_545 S
C420 C427 1.409 . S
C421 H413 0.930 . S
C421 C419 1.419 . S
C421 C422 1.362 . S
C422 H414 0.930 . S
C422 C421 1.362 . S
C422 C425 1.409 . S
C423 H415 0.930 1_545 S
C423 C424 1.355 . S
C423 C425 1.415 1_545 S
C424 C423 1.355 . S
C424 C426 1.419 . S
C425 C420 1.425 1_565 S
C425 C422 1.409 . S
C425 C423 1.415 1_565 S
C426 H416 0.930 . S
C426 C424 1.419 . S
C426 C427 1.362 . S
C427 H417 0.930 . S
C427 C420 1.409 . S
C427 C426 1.362 . S
H428 C434 0.930 . S
H429 C437 0.930 . S
H430 C438 0.930 . S
H431 C439 0.930 . S
H432 C442 0.930 . S
H433 C443 0.930 . S
C434 H428 0.930 . S
C434 C435 1.355 . S
C434 C436 1.415 . S
C435 C434 1.355 . S
C435 C437 1.419 . S
C436 C434 1.415 . S
C436 C441 1.425 . S
C436 C443 1.409 . S
C437 H429 0.930 . S
C437 C435 1.419 . S
C437 C438 1.362 . S
C438 H430 0.930 . S
C438 C437 1.362 . S
C438 C441 1.409 . S
C439 H431 0.930 . S
C439 C440 1.355 . S
C439 C441 1.415 . S
C440 C439 1.355 . S
C440 C442 1.419 . S
C441 C436 1.425 . S
C441 C438 1.409 . S
C441 C439 1.415 . S
C442 H432 0.930 . S
C442 C440 1.419 . S
C442 C443 1.362 . S
C443 H433 0.930 . S
C443 C436 1.409 . S
C443 C442 1.362 . S
H444 C450 0.930 . S
H445 C453 0.930 . S
H446 C454 0.930 . S
H447 C455 0.930 . S
H448 C458 0.929 . S
H449 C459 0.930 . S
C450 H444 0.930 . S
C450 C451 1.355 . S
C450 C452 1.415 . S
C451 C450 1.355 . S
C451 C453 1.419 . S
C452 C450 1.415 . S
C452 C457 1.425 1_455 S
C452 C459 1.409 . S
C453 H445 0.930 . S
C453 C451 1.419 . S
C453 C454 1.362 1_455 S
C454 H446 0.930 . S
C454 C453 1.362 1_655 S
C454 C457 1.409 . S
C455 H447 0.930 . S
C455 C456 1.355 . S
C455 C457 1.415 . S
C456 C455 1.355 . S
C456 C458 1.419 . S
C457 C452 1.425 1_655 S
C457 C454 1.409 . S
C457 C455 1.415 . S
C458 H448 0.929 . S
C458 C456 1.419 . S
C458 C459 1.362 1_655 S
C459 H449 0.930 . S
C459 C452 1.409 . S
C459 C458 1.362 1_455 S
H460 C466 0.930 . S
H461 C469 0.930 . S
H462 C470 0.930 . S
H463 C471 0.930 . S
H464 C474 0.930 . S
H465 C475 0.930 . S
C466 H460 0.930 . S
C466 C467 1.355 . S
C466 C468 1.415 1_545 S
C467 C466 1.355 . S
C467 C469 1.419 . S
C468 C466 1.415 1_565 S
C468 C473 1.425 1_565 S
C468 C475 1.409 . S
C469 H461 0.930 . S
C469 C467 1.419 . S
C469 C470 1.362 . S
C470 H462 0.930 . S
C470 C469 1.362 . S
C470 C473 1.409 . S
C471 H463 0.930 . S
C471 C472 1.355 . S
C471 C473 1.415 1_565 S
C472 C471 1.355 . S
C472 C474 1.419 . S
C473 C468 1.425 1_545 S
C473 C470 1.409 . S
C473 C471 1.415 1_545 S
C474 H464 0.930 . S
C474 C472 1.419 . S
C474 C475 1.362 . S
C475 H465 0.930 . S
C475 C468 1.409 . S
C475 C474 1.362 . S
H476 C482 0.930 . S
H477 C485 0.930 . S
H478 C486 0.930 . S
H479 C487 0.930 . S
H480 C490 0.930 . S
H481 C491 0.930 . S
C482 H476 0.930 . S
C482 C483 1.355 . S
C482 C484 1.415 . S
C483 C482 1.355 . S
C483 C485 1.419 . S
C484 C482 1.415 . S
C484 C489 1.425 . S
C484 C491 1.409 . S
C485 H477 0.930 . S
C485 C483 1.419 . S
C485 C486 1.362 . S
C486 H478 0.930 . S
C486 C485 1.362 . S
C486 C489 1.409 . S
C487 H479 0.930 . S
C487 C488 1.355 . S
C487 C489 1.415 . S
C488 C487 1.355 . S
C488 C490 1.419 . S
C489 C484 1.425 . S
C489 C486 1.409 . S
C489 C487 1.415 . S
C490 H480 0.930 . S
C490 C488 1.419 . S
C490 C491 1.362 . S
C491 H481 0.930 . S
C491 C484 1.409 . S
C491 C490 1.362 . S
H492 C498 0.930 . S
H493 C501 0.930 . S
H494 C502 0.930 . S
H495 C503 0.930 . S
H496 C506 0.930 . S
H497 C507 0.930 . S
C498 H492 0.930 . S
C498 C499 1.355 . S
C498 C500 1.415 . S
C499 C498 1.355 . S
C499 C501 1.419 . S
C500 C498 1.415 . S
C500 C505 1.425 . S
C500 C507 1.409 . S
C501 H493 0.930 . S
C501 C499 1.419 . S
C501 C502 1.362 . S
C502 H494 0.930 . S
C502 C501 1.362 . S
C502 C505 1.409 . S
C503 H495 0.930 . S
C503 C504 1.355 . S
C503 C505 1.415 . S
C504 C503 1.355 . S
C504 C506 1.419 . S
C505 C500 1.425 . S
C505 C502 1.409 . S
C505 C503 1.415 . S
C506 H496 0.930 . S
C506 C504 1.419 . S
C506 C507 1.362 . S
C507 H497 0.930 . S
C507 C500 1.409 . S
C507 C506 1.362 . S
H508 C514 0.930 . S
H509 C517 0.930 . S
H510 C518 0.930 . S
H511 C519 0.930 . S
H512 C522 0.930 . S
H513 C523 0.930 . S
C514 H508 0.930 . S
C514 C515 1.355 . S
C514 C516 1.415 . S
C515 C514 1.355 . S
C515 C517 1.419 . S
C516 C514 1.415 . S
C516 C521 1.425 . S
C516 C523 1.409 . S
C517 H509 0.930 . S
C517 C515 1.419 . S
C517 C518 1.362 . S
C518 H510 0.930 . S
C518 C517 1.362 . S
C518 C521 1.409 . S
C519 H511 0.930 . S
C519 C520 1.355 . S
C519 C521 1.415 . S
C520 C519 1.355 . S
C520 C522 1.419 . S
C521 C516 1.425 . S
C521 C518 1.409 . S
C521 C519 1.415 . S
C522 H512 0.930 . S
C522 C520 1.419 . S
C522 C523 1.362 . S
C523 H513 0.930 . S
C523 C516 1.409 . S
C523 C522 1.362 . S
H524 C530 0.930 . S
H525 C533 0.930 . S
H526 C534 0.930 . S
H527 C535 0.930 . S
H528 C538 0.930 . S
H529 C539 0.930 . S
C530 H524 0.930 . S
C530 C531 1.355 . S
C530 C532 1.415 . S
C531 C530 1.355 . S
C531 C533 1.419 . S
C532 C530 1.415 . S
C532 C537 1.425 . S
C532 C539 1.409 . S
C533 H525 0.930 . S
C533 C531 1.419 . S
C533 C534 1.362 . S
C534 H526 0.930 . S
C534 C533 1.362 . S
C534 C537 1.409 . S
C535 H527 0.930 . S
C535 C536 1.355 . S
C535 C537 1.415 . S
C536 C535 1.355 . S
C536 C538 1.419 . S
C537 C532 1.425 . S
C537 C534 1.409 . S
C537 C535 1.415 . S
C538 H528 0.930 . S
C538 C536 1.419 . S
C538 C539 1.362 . S
C539 H529 0.930 . S
C539 C532 1.409 . S
C539 C538 1.362 . S
H540 C546 0.930 . S
H541 C549 0.930 . S
H542 C550 0.930 . S
H543 C551 0.930 . S
H544 C554 0.930 . S
H545 C555 0.930 . S
C546 H540 0.930 . S
C546 C547 1.355 . S
C546 C548 1.415 . S
C547 C546 1.355 . S
C547 C549 1.419 . S
C548 C546 1.415 . S
C548 C553 1.425 . S
C548 C555 1.409 . S
C549 H541 0.930 . S
C549 C547 1.419 . S
C549 C550 1.362 . S
C550 H542 0.930 . S
C550 C549 1.362 . S
C550 C553 1.409 . S
C551 H543 0.930 . S
C551 C552 1.355 . S
C551 C553 1.415 . S
C552 C551 1.355 . S
C552 C554 1.419 . S
C553 C548 1.425 . S
C553 C550 1.409 . S
C553 C551 1.415 . S
C554 H544 0.930 . S
C554 C552 1.419 . S
C554 C555 1.362 . S
C555 H545 0.930 . S
C555 C548 1.409 . S
C555 C554 1.362 . S
H556 C562 0.930 . S
H557 C565 0.930 . S
H558 C566 0.930 . S
H559 C567 0.930 . S
H560 C570 0.930 . S
H561 C571 0.930 . S
C562 H556 0.930 . S
C562 C563 1.355 . S
C562 C564 1.415 . S
C563 C562 1.355 . S
C563 C565 1.419 . S
C564 C562 1.415 . S
C564 C569 1.425 . S
C564 C571 1.409 . S
C565 H557 0.930 . S
C565 C563 1.419 . S
C565 C566 1.362 . S
C566 H558 0.930 . S
C566 C565 1.362 . S
C566 C569 1.409 . S
C567 H559 0.930 . S
C567 C568 1.355 . S
C567 C569 1.415 . S
C568 C567 1.355 . S
C568 C570 1.419 . S
C569 C564 1.425 . S
C569 C566 1.409 . S
C569 C567 1.415 . S
C570 H560 0.930 . S
C570 C568 1.419 . S
C570 C571 1.362 . S
C571 H561 0.930 . S
C571 C564 1.409 . S
C571 C570 1.362 . S
H572 C578 0.930 . S
H573 C581 0.930 . S
H574 C582 0.930 . S
H575 C583 0.930 . S
H576 C586 0.930 . S
H577 C587 0.930 . S
C578 H572 0.930 . S
C578 C579 1.355 . S
C578 C580 1.415 . S
C579 C578 1.355 . S
C579 C581 1.419 . S
C580 C578 1.415 . S
C580 C585 1.425 . S
C580 C587 1.409 . S
C581 H573 0.930 . S
C581 C579 1.419 . S
C581 C582 1.362 . S
C582 H574 0.930 . S
C582 C581 1.362 . S
C582 C585 1.409 . S
C583 H575 0.930 . S
C583 C584 1.355 . S
C583 C585 1.415 . S
C584 C583 1.355 . S
C584 C586 1.419 . S
C585 C580 1.425 . S
C585 C582 1.409 . S
C585 C583 1.415 . S
C586 H576 0.930 . S
C586 C584 1.419 . S
C586 C587 1.362 . S
C587 H577 0.930 . S
C587 C580 1.409 . S
C587 C586 1.362 . S
H588 C594 0.930 . S
H589 C597 0.930 . S
H590 C598 0.930 . S
H591 C599 0.930 . S
H592 C602 0.930 . S
H593 C603 0.930 . S
C594 H588 0.930 . S
C594 C595 1.355 . S
C594 C596 1.415 1_655 S
C595 C594 1.355 . S
C595 C597 1.419 . S
C596 C594 1.415 1_455 S
C596 C601 1.425 1_455 S
C596 C603 1.409 . S
C597 H589 0.930 . S
C597 C595 1.419 . S
C597 C598 1.362 . S
C598 H590 0.930 . S
C598 C597 1.362 . S
C598 C601 1.409 . S
C599 H591 0.930 . S
C599 C600 1.355 . S
C599 C601 1.415 1_455 S
C600 C599 1.355 . S
C600 C602 1.419 . S
C601 C596 1.425 1_655 S
C601 C598 1.409 . S
C601 C599 1.415 1_655 S
C602 H592 0.930 . S
C602 C600 1.419 . S
C602 C603 1.362 . S
C603 H593 0.930 . S
C603 C596 1.409 . S
C603 C602 1.362 . S
H604 C610 0.930 . S
H605 C613 0.930 . S
H606 C614 0.930 . S
H607 C615 0.930 . S
H608 C618 0.930 . S
H609 C619 0.930 . S
C610 H604 0.930 . S
C610 C611 1.355 . S
C610 C612 1.415 1_545 S
C611 C610 1.355 . S
C611 C613 1.419 . S
C612 C610 1.415 1_565 S
C612 C617 1.425 1_565 S
C612 C619 1.409 . S
C613 H605 0.930 . S
C613 C611 1.419 . S
C613 C614 1.362 . S
C614 H606 0.930 . S
C614 C613 1.362 . S
C614 C617 1.409 . S
C615 H607 0.930 . S
C615 C616 1.355 . S
C615 C617 1.415 1_565 S
C616 C615 1.355 . S
C616 C618 1.419 . S
C617 C612 1.425 1_545 S
C617 C614 1.409 . S
C617 C615 1.415 1_545 S
C618 H608 0.930 . S
C618 C616 1.419 . S
C618 C619 1.362 . S
C619 H609 0.930 . S
C619 C612 1.409 . S
C619 C618 1.362 . S
H620 C626 0.930 . S
H621 C629 0.930 . S
H622 C630 0.930 . S
H623 C631 0.930 1_556 S
H624 C634 0.930 . S
H625 C635 0.930 . S
C626 H620 0.930 . S
C626 C627 1.355 . S
C626 C628 1.415 . S
C627 C626 1.355 . S
C627 C629 1.419 1_554 S
C628 C626 1.415 . S
C628 C633 1.425 . S
C628 C635 1.409 . S
C629 H621 0.930 . S
C629 C627 1.419 1_556 S
C629 C630 1.362 . S
C630 H622 0.930 . S
C630 C629 1.362 . S
C630 C633 1.409 1_556 S
C631 H623 0.930 1_554 S
C631 C632 1.355 . S
C631 C633 1.415 . S
C632 C631 1.355 . S
C632 C634 1.419 . S
C633 C628 1.425 . S
C633 C630 1.409 1_554 S
C633 C631 1.415 . S
C634 H624 0.930 . S
C634 C632 1.419 . S
C634 C635 1.362 . S
C635 H625 0.930 . S
C635 C628 1.409 . S
C635 C634 1.362 . S
H636 C642 0.930 . S
H637 C645 0.930 . S
H638 C646 0.930 . S
H639 C647 0.930 . S
H640 C650 0.930 . S
H641 C651 0.930 . S
C642 H636 0.930 . S
C642 C643 1.355 . S
C642 C644 1.415 . S
C643 C642 1.355 . S
C643 C645 1.419 1_565 S
C644 C642 1.415 . S
C644 C649 1.425 1_565 S
C644 C651 1.409 . S
C645 H637 0.930 . S
C645 C643 1.419 1_545 S
C645 C646 1.362 . S
C646 H638 0.930 . S
C646 C645 1.362 . S
C646 C649 1.409 . S
C647 H639 0.930 . S
C647 C648 1.355 . S
C647 C649 1.415 . S
C648 C647 1.355 . S
C648 C650 1.419 1_545 S
C649 C644 1.425 1_545 S
C649 C646 1.409 . S
C649 C647 1.415 . S
C650 H640 0.930 . S
C650 C648 1.419 1_565 S
C650 C651 1.362 . S
C651 H641 0.930 . S
C651 C644 1.409 . S
C651 C650 1.362 . S
H652 C658 0.930 . S
H653 C661 0.930 . S
H654 C662 0.930 . S
H655 C663 0.930 . S
H656 C666 0.930 . S
H657 C667 0.930 . S
C658 H652 0.930 . S
C658 C659 1.355 . S
C658 C660 1.415 . S
C659 C658 1.355 . S
C659 C661 1.419 . S
C660 C658 1.415 . S
C660 C665 1.425 . S
C660 C667 1.409 . S
C661 H653 0.930 . S
C661 C659 1.419 . S
C661 C662 1.362 . S
C662 H654 0.930 . S
C662 C661 1.362 . S
C662 C665 1.409 . S
C663 H655 0.930 . S
C663 C664 1.355 . S
C663 C665 1.415 . S
C664 C663 1.355 . S
C664 C666 1.419 . S
C665 C660 1.425 . S
C665 C662 1.409 . S
C665 C663 1.415 . S
C666 H656 0.930 . S
C666 C664 1.419 . S
C666 C667 1.362 . S
C667 H657 0.930 . S
C667 C660 1.409 . S
C667 C666 1.362 . S
H668 C674 0.930 1_455 S
H669 C677 0.930 . S
H670 C678 0.930 . S
H671 C679 0.930 1_655 S
H672 C682 0.930 . S
H673 C683 0.930 . S
C674 H668 0.930 1_655 S
C674 C675 1.355 . S
C674 C676 1.415 1_655 S
C675 C674 1.355 . S
C675 C677 1.419 1_556 S
C676 C674 1.415 1_455 S
C676 C681 1.425 1_455 S
C676 C683 1.409 . S
C677 H669 0.930 . S
C677 C675 1.419 1_554 S
C677 C678 1.362 . S
C678 H670 0.930 . S
C678 C677 1.362 . S
C678 C681 1.409 1_554 S
C679 H671 0.930 1_455 S
C679 C680 1.355 1_554 S
C679 C681 1.415 1_454 S
C680 C679 1.355 1_556 S
C680 C682 1.419 . S
C681 C676 1.425 1_655 S
C681 C678 1.409 1_556 S
C681 C679 1.415 1_656 S
C682 H672 0.930 . S
C682 C680 1.419 . S
C682 C683 1.362 . S
C683 H673 0.930 . S
C683 C676 1.409 . S
C683 C682 1.362 . S
H684 C690 0.930 . S
H685 C693 0.930 . S
H686 C694 0.930 . S
H687 C695 0.930 . S
H688 C698 0.930 . S
H689 C699 0.930 . S
C690 H684 0.930 . S
C690 C691 1.355 . S
C690 C692 1.415 . S
C691 C690 1.355 . S
C691 C693 1.419 . S
C692 C690 1.415 . S
C692 C697 1.425 . S
C692 C699 1.409 . S
C693 H685 0.930 . S
C693 C691 1.419 . S
C693 C694 1.362 . S
C694 H686 0.930 . S
C694 C693 1.362 . S
C694 C697 1.409 . S
C695 H687 0.930 . S
C695 C696 1.355 . S
C695 C697 1.415 . S
C696 C695 1.355 . S
C696 C698 1.419 . S
C697 C692 1.425 . S
C697 C694 1.409 . S
C697 C695 1.415 . S
C698 H688 0.930 . S
C698 C696 1.419 . S
C698 C699 1.362 . S
C699 H689 0.930 . S
C699 C692 1.409 . S
C699 C698 1.362 . S
H700 C706 0.930 . S
H701 C709 0.930 . S
H702 C710 0.930 . S
H703 C711 0.930 . S
H704 C714 0.930 . S
H705 C715 0.930 . S
C706 H700 0.930 . S
C706 C707 1.355 . S
C706 C708 1.415 . S
C707 C706 1.355 . S
C707 C709 1.419 . S
C708 C706 1.415 . S
C708 C713 1.425 1_655 S
C708 C715 1.409 1_655 S
C709 H701 0.930 . S
C709 C707 1.419 . S
C709 C710 1.362 . S
C710 H702 0.930 . S
C710 C709 1.362 . S
C710 C713 1.409 1_655 S
C711 H703 0.930 . S
C711 C712 1.355 . S
C711 C713 1.415 . S
C712 C711 1.355 . S
C712 C714 1.419 . S
C713 C708 1.425 1_455 S
C713 C710 1.409 1_455 S
C713 C711 1.415 . S
C714 H704 0.930 . S
C714 C712 1.419 . S
C714 C715 1.362 . S
C715 H705 0.930 . S
C715 C708 1.409 1_455 S
C715 C714 1.362 . S
H716 C722 0.930 . S
H717 C725 0.930 . S
H718 C726 0.930 . S
H719 C727 0.930 . S
H720 C730 0.930 . S
H721 C731 0.930 . S
C722 H716 0.930 . S
C722 C723 1.355 1_556 S
C722 C724 1.415 . S
C723 C722 1.355 1_554 S
C723 C725 1.419 . S
C724 C722 1.415 . S
C724 C729 1.425 1_546 S
C724 C731 1.409 1_545 S
C725 H717 0.930 . S
C725 C723 1.419 . S
C725 C726 1.362 . S
C726 H718 0.930 . S
C726 C725 1.362 . S
C726 C729 1.409 1_545 S
C727 H719 0.930 . S
C727 C728 1.355 1_554 S
C727 C729 1.415 . S
C728 C727 1.355 1_556 S
C728 C730 1.419 . S
C729 C724 1.425 1_564 S
C729 C726 1.409 1_565 S
C729 C727 1.415 . S
C730 H720 0.930 . S
C730 C728 1.419 . S
C730 C731 1.362 . S
C731 H721 0.930 . S
C731 C724 1.409 1_565 S
C731 C730 1.362 . S
H732 C738 0.930 . S
H733 C741 0.930 . S
H734 C742 0.930 . S
H735 C743 0.930 . S
H736 C746 0.930 . S
H737 C747 0.930 . S
C738 H732 0.930 . S
C738 C739 1.355 . S
C738 C740 1.415 . S
C739 C738 1.355 . S
C739 C741 1.419 . S
C740 C738 1.415 . S
C740 C745 1.425 . S
C740 C747 1.409 . S
C741 H733 0.930 . S
C741 C739 1.419 . S
C741 C742 1.362 . S
C742 H734 0.930 . S
C742 C741 1.362 . S
C742 C745 1.409 . S
C743 H735 0.930 . S
C743 C744 1.355 . S
C743 C745 1.415 . S
C744 C743 1.355 . S
C744 C746 1.419 . S
C745 C740 1.425 . S
C745 C742 1.409 . S
C745 C743 1.415 . S
C746 H736 0.930 . S
C746 C744 1.419 . S
C746 C747 1.362 . S
C747 H737 0.930 . S
C747 C740 1.409 . S
C747 C746 1.362 . S
H748 C754 0.930 . S
H749 C757 0.930 . S
H750 C758 0.930 . S
H751 C759 0.930 . S
H752 C762 0.930 . S
H753 C763 0.930 . S
C754 H748 0.930 . S
C754 C755 1.355 . S
C754 C756 1.415 . S
C755 C754 1.355 . S
C755 C757 1.419 . S
C756 C754 1.415 . S
C756 C761 1.425 1_455 S
C756 C763 1.409 1_455 S
C757 H749 0.930 . S
C757 C755 1.419 . S
C757 C758 1.362 . S
C758 H750 0.930 . S
C758 C757 1.362 . S
C758 C761 1.409 1_455 S
C759 H751 0.930 . S
C759 C760 1.355 . S
C759 C761 1.415 . S
C760 C759 1.355 . S
C760 C762 1.419 . S
C761 C756 1.425 1_655 S
C761 C758 1.409 1_655 S
C761 C759 1.415 . S
C762 H752 0.930 . S
C762 C760 1.419 . S
C762 C763 1.362 . S
C763 H753 0.930 . S
C763 C756 1.409 1_655 S
C763 C762 1.362 . S
H764 C770 0.930 . S
H765 C773 0.930 . S
H766 C774 0.930 . S
H767 C775 0.930 . S
H768 C778 0.930 . S
H769 C779 0.930 . S
C770 H764 0.930 . S
C770 C771 1.355 . S
C770 C772 1.415 . S
C771 C770 1.355 . S
C771 C773 1.419 1_556 S
C772 C770 1.415 . S
C772 C777 1.425 1_546 S
C772 C779 1.409 1_545 S
C773 H765 0.930 . S
C773 C771 1.419 1_554 S
C773 C774 1.362 . S
C774 H766 0.930 . S
C774 C773 1.362 . S
C774 C777 1.409 1_545 S
C775 H767 0.930 . S
C775 C776 1.355 . S
C775 C777 1.415 . S
C776 C775 1.355 . S
C776 C778 1.419 1_554 S
C777 C772 1.425 1_564 S
C777 C774 1.409 1_565 S
C777 C775 1.415 . S
C778 H768 0.930 . S
C778 C776 1.419 1_556 S
C778 C779 1.362 . S
C779 H769 0.930 . S
C779 C772 1.409 1_565 S
C779 C778 1.362 . S
H780 C786 0.930 . S
H781 C789 0.930 . S
H782 C790 0.930 . S
H783 C791 0.930 . S
H784 C794 0.930 . S
H785 C795 0.930 . S
C786 H780 0.930 . S
C786 C787 1.355 . S
C786 C788 1.415 . S
C787 C786 1.355 . S
C787 C789 1.419 . S
C788 C786 1.415 . S
C788 C793 1.425 . S
C788 C795 1.409 . S
C789 H781 0.930 . S
C789 C787 1.419 . S
C789 C790 1.362 . S
C790 H782 0.930 . S
C790 C789 1.362 . S
C790 C793 1.409 . S
C791 H783 0.930 . S
C791 C792 1.355 . S
C791 C793 1.415 . S
C792 C791 1.355 . S
C792 C794 1.419 . S
C793 C788 1.425 . S
C793 C790 1.409 . S
C793 C791 1.415 . S
C794 H784 0.930 . S
C794 C792 1.419 . S
C794 C795 1.362 . S
C795 H785 0.930 . S
C795 C788 1.409 . S
C795 C794 1.362 . S
H796 C802 0.930 . S
H797 C805 0.930 . S
H798 C806 0.930 . S
H799 C807 0.930 . S
H800 C810 0.930 . S
H801 C811 0.930 . S
C802 H796 0.930 . S
C802 C803 1.355 . S
C802 C804 1.415 . S
C803 C802 1.355 . S
C803 C805 1.419 . S
C804 C802 1.415 . S
C804 C809 1.425 . S
C804 C811 1.409 . S
C805 H797 0.930 . S
C805 C803 1.419 . S
C805 C806 1.362 . S
C806 H798 0.930 . S
C806 C805 1.362 . S
C806 C809 1.409 . S
C807 H799 0.930 . S
C807 C808 1.355 . S
C807 C809 1.415 . S
C808 C807 1.355 . S
C808 C810 1.419 . S
C809 C804 1.425 . S
C809 C806 1.409 . S
C809 C807 1.415 . S
C810 H800 0.930 . S
C810 C808 1.419 . S
C810 C811 1.362 . S
C811 H801 0.930 . S
C811 C804 1.409 . S
C811 C810 1.362 . S
H812 C818 0.930 . S
H813 C821 0.930 . S
H814 C822 0.930 . S
H815 C823 0.930 . S
H816 C826 0.930 . S
H817 C827 0.930 . S
C818 H812 0.930 . S
C818 C819 1.355 . S
C818 C820 1.415 . S
C819 C818 1.355 . S
C819 C821 1.419 1_556 S
C820 C818 1.415 . S
C820 C825 1.425 1_556 S
C820 C827 1.409 . S
C821 H813 0.930 . S
C821 C819 1.419 1_554 S
C821 C822 1.362 . S
C822 H814 0.930 . S
C822 C821 1.362 . S
C822 C825 1.409 . S
C823 H815 0.930 . S
C823 C824 1.355 . S
C823 C825 1.415 . S
C824 C823 1.355 . S
C824 C826 1.419 1_554 S
C825 C820 1.425 1_554 S
C825 C822 1.409 . S
C825 C823 1.415 . S
C826 H816 0.930 . S
C826 C824 1.419 1_556 S
C826 C827 1.362 . S
C827 H817 0.930 . S
C827 C820 1.409 . S
C827 C826 1.362 . S
H828 C834 0.930 . S
H829 C837 0.930 . S
H830 C838 0.930 . S
H831 C839 0.930 . S
H832 C842 0.930 . S
H833 C843 0.930 . S
C834 H828 0.930 . S
C834 C835 1.355 . S
C834 C836 1.415 . S
C835 C834 1.355 . S
C835 C837 1.419 . S
C836 C834 1.415 . S
C836 C841 1.425 . S
C836 C843 1.409 . S
C837 H829 0.930 . S
C837 C835 1.419 . S
C837 C838 1.362 . S
C838 H830 0.930 . S
C838 C837 1.362 . S
C838 C841 1.409 . S
C839 H831 0.930 . S
C839 C840 1.355 . S
C839 C841 1.415 . S
C840 C839 1.355 . S
C840 C842 1.419 . S
C841 C836 1.425 . S
C841 C838 1.409 . S
C841 C839 1.415 . S
C842 H832 0.930 . S
C842 C840 1.419 . S
C842 C843 1.362 . S
C843 H833 0.930 . S
C843 C836 1.409 . S
C843 C842 1.362 . S
H844 C850 0.930 . S
H845 C853 0.930 . S
H846 C854 0.930 . S
H847 C855 0.930 . S
H848 C858 0.930 . S
H849 C859 0.930 . S
C850 H844 0.930 . S
C850 C851 1.355 . S
C850 C852 1.415 . S
C851 C850 1.355 . S
C851 C853 1.419 . S
C852 C850 1.415 . S
C852 C857 1.425 . S
C852 C859 1.409 . S
C853 H845 0.930 . S
C853 C851 1.419 . S
C853 C854 1.362 . S
C854 H846 0.930 . S
C854 C853 1.362 . S
C854 C857 1.409 . S
C855 H847 0.930 . S
C855 C856 1.355 . S
C855 C857 1.415 . S
C856 C855 1.355 . S
C856 C858 1.419 . S
C857 C852 1.425 . S
C857 C854 1.409 . S
C857 C855 1.415 . S
C858 H848 0.930 . S
C858 C856 1.419 . S
C858 C859 1.362 . S
C859 H849 0.930 . S
C859 C852 1.409 . S
C859 C858 1.362 . S
H860 C866 0.930 1_554 S
H861 C869 0.930 . S
H862 C870 0.930 . S
H863 C871 0.930 1_556 S
H864 C874 0.930 . S
H865 C875 0.930 . S
C866 H860 0.930 1_556 S
C866 C867 1.355 . S
C866 C868 1.415 1_556 S
C867 C866 1.355 . S
C867 C869 1.419 . S
C868 C866 1.415 1_554 S
C868 C873 1.425 1_554 S
C868 C875 1.409 . S
C869 H861 0.930 . S
C869 C867 1.419 . S
C869 C870 1.362 . S
C870 H862 0.930 . S
C870 C869 1.362 . S
C870 C873 1.409 . S
C871 H863 0.930 1_554 S
C871 C872 1.355 . S
C871 C873 1.415 1_554 S
C872 C871 1.355 . S
C872 C874 1.419 . S
C873 C868 1.425 1_556 S
C873 C870 1.409 . S
C873 C871 1.415 1_556 S
C874 H864 0.930 . S
C874 C872 1.419 . S
C874 C875 1.362 . S
C875 H865 0.930 . S
C875 C868 1.409 . S
C875 C874 1.362 . S
C403 C381 1.866 . S
C408 C18 1.879 . S
C419 C216 1.958 . S
C424 C51 1.957 . S
C435 C84 1.870 . S
C440 C249 1.872 . S
C451 C282 1.875 . S
C456 C117 1.891 . S
C467 C315 1.952 . S
C472 C150 1.967 . S
C483 C348 1.868 . S
C488 C183 1.874 . S
C499 C7 0.768 . S
C504 C337 0.758 . S
C515 C40 0.740 . S
C520 C370 0.655 . S
C531 C205 0.617 . S
C536 C73 0.618 . S
C547 C238 0.772 . S
C552 C106 0.738 . S
C563 C271 0.646 . S
C568 C139 0.737 . S
C579 C172 0.806 . S
C584 C304 0.814 . S
C595 N112 1.313 . S
C600 N13 1.265 . S
C611 N46 1.270 . S
C616 N145 1.298 . S
C627 N178 1.310 . S
C632 N79 1.310 . S
C643 N211 1.300 . S
C648 N310 1.320 . S
C659 N244 1.269 . S
C664 N343 1.316 . S
C675 N376 1.306 . S
C680 N277 1.267 . S
C691 N2 1.013 . S
C696 N299 1.040 . S
C707 N35 0.975 . S
C712 N332 1.012 . S
C723 N365 0.966 . S
C728 N68 0.993 . S
C739 N101 0.978 . S
C744 N200 1.014 . S
C755 N134 1.041 . S
C760 N233 1.021 . S
C771 N167 0.997 . S
C776 N266 1.029 . S
C787 C219 1.706 . S
C792 C21 1.708 . S
C803 C252 1.711 . S
C808 C54 1.709 . S
C819 C87 1.689 . S
C824 C285 1.691 . S
C835 C318 1.701 . S
C840 C120 1.703 . S
C851 C153 1.680 . S
C856 C351 1.679 . S
C867 C186 1.709 . S
C872 C384 1.707 . S
