# Generated by pormake.
# Topology uop, (4)-cn, num edge types: 1
# Building blocks:
#     Node 0, Type 0, BuildingBlock: NAWXER_clean_sbu_0, # of connection points: 4
#     Node 1, Type 0, BuildingBlock: NAWXER_clean_sbu_0, # of connection points: 4
#     Node 2, Type 0, BuildingBlock: NAWXER_clean_sbu_0, # of connection points: 4
#     Node 3, Type 0, BuildingBlock: NAWXER_clean_sbu_0, # of connection points: 4
#     Node 4, Type 0, BuildingBlock: NAWXER_clean_sbu_0, # of connection points: 4
#     Node 5, Type 0, BuildingBlock: NAWXER_clean_sbu_0, # of connection points: 4
#     Node 6, Type 0, BuildingBlock: NAWXER_clean_sbu_0, # of connection points: 4
#     Node 7, Type 0, BuildingBlock: NAWXER_clean_sbu_0, # of connection points: 4
#     Node 8, Type 0, BuildingBlock: NAWXER_clean_sbu_0, # of connection points: 4
#     Node 9, Type 0, BuildingBlock: NAWXER_clean_sbu_0, # of connection points: 4
#     Node 10, Type 0, BuildingBlock: NAWXER_clean_sbu_0, # of connection points: 4
#     Node 11, Type 0, BuildingBlock: NAWXER_clean_sbu_0, # of connection points: 4
#     Edge 12, Type (0, 0), BuildingBlock: ZUJKAS_clean_linker_0, # of connection points: 2
#     Edge 13, Type (0, 0), BuildingBlock: ZUJKAS_clean_linker_0, # of connection points: 2
#     Edge 14, Type (0, 0), BuildingBlock: ZUJKAS_clean_linker_0, # of connection points: 2
#     Edge 15, Type (0, 0), BuildingBlock: ZUJKAS_clean_linker_0, # of connection points: 2
#     Edge 16, Type (0, 0), BuildingBlock: ZUJKAS_clean_linker_0, # of connection points: 2
#     Edge 17, Type (0, 0), BuildingBlock: ZUJKAS_clean_linker_0, # of connection points: 2
#     Edge 18, Type (0, 0), BuildingBlock: ZUJKAS_clean_linker_0, # of connection points: 2
#     Edge 19, Type (0, 0), BuildingBlock: ZUJKAS_clean_linker_0, # of connection points: 2
#     Edge 20, Type (0, 0), BuildingBlock: ZUJKAS_clean_linker_0, # of connection points: 2
#     Edge 21, Type (0, 0), BuildingBlock: ZUJKAS_clean_linker_0, # of connection points: 2
#     Edge 22, Type (0, 0), BuildingBlock: ZUJKAS_clean_linker_0, # of connection points: 2
#     Edge 23, Type (0, 0), BuildingBlock: ZUJKAS_clean_linker_0, # of connection points: 2
#     Edge 24, Type (0, 0), BuildingBlock: ZUJKAS_clean_linker_0, # of connection points: 2
#     Edge 25, Type (0, 0), BuildingBlock: ZUJKAS_clean_linker_0, # of connection points: 2
#     Edge 26, Type (0, 0), BuildingBlock: ZUJKAS_clean_linker_0, # of connection points: 2
#     Edge 27, Type (0, 0), BuildingBlock: ZUJKAS_clean_linker_0, # of connection points: 2
#     Edge 28, Type (0, 0), BuildingBlock: ZUJKAS_clean_linker_0, # of connection points: 2
#     Edge 29, Type (0, 0), BuildingBlock: ZUJKAS_clean_linker_0, # of connection points: 2
#     Edge 30, Type (0, 0), BuildingBlock: ZUJKAS_clean_linker_0, # of connection points: 2
#     Edge 31, Type (0, 0), BuildingBlock: ZUJKAS_clean_linker_0, # of connection points: 2
#     Edge 32, Type (0, 0), BuildingBlock: ZUJKAS_clean_linker_0, # of connection points: 2
#     Edge 33, Type (0, 0), BuildingBlock: ZUJKAS_clean_linker_0, # of connection points: 2
#     Edge 34, Type (0, 0), BuildingBlock: ZUJKAS_clean_linker_0, # of connection points: 2
#     Edge 35, Type (0, 0), BuildingBlock: ZUJKAS_clean_linker_0, # of connection points: 2
# Relax obj value: 0.102
# Max RMSD: 0.272
# Mean RMSD: 0.272
data_MOF--net-uop--node1-NAWXER_clean_sbu_0--edge1-ZUJKAS_clean_linker_0
_symmetry_space_group_name_H-M    P1
_symmetry_Int_Tables_number       1
_symmetry_cell_setting            triclinic
loop_
_symmetry_equiv_pos_as_xyz
'x, y, z'
_cell_length_a     43.725326
_cell_length_b     43.733342
_cell_length_c     60.391969
_cell_angle_alpha  89.999024
_cell_angle_beta   90.002894
_cell_angle_gamma 120.01853
loop_
_atom_site_label
_atom_site_type_symbol
_atom_site_fract_x
_atom_site_fract_y
_atom_site_fract_z
_atom_type_partial_charge
C0 C 0.24048 0.37499 0.25271 0.0
C1 C 0.24691 0.47097 0.20925 0.0
O2 O 0.24465 0.37079 0.2321 0.0
Zn3 Zn 0.24799 0.39848 0.20155 0.0
O4 O 0.23755 0.40118 0.25871 0.0
Zn5 Zn 0.24301 0.42206 0.23024 0.0
O6 O 0.19371 0.38672 0.21402 0.0
O7 O 0.20715 0.36484 0.18521 0.0
O8 O 0.24342 0.46572 0.22997 0.0
O9 O 0.24897 0.44834 0.19668 0.0
O10 O 0.29293 0.40851 0.19013 0.0
O11 O 0.29692 0.43714 0.22104 0.0
C12 C 0.184 0.36646 0.197 0.0
C13 C 0.31186 0.42975 0.20524 0.0
C14 C 0.81741 0.18365 0.52906 0.0
C15 C 0.88213 0.31164 0.53613 0.0
O16 O 0.80805 0.19379 0.54644 0.0
Zn17 Zn 0.82234 0.24346 0.56224 0.0
O18 O 0.8412 0.20655 0.51659 0.0
Zn19 Zn 0.84968 0.24771 0.53296 0.0
O20 O 0.87516 0.24477 0.56296 0.0
O21 O 0.83974 0.23949 0.59049 0.0
O22 O 0.88456 0.29252 0.5212 0.0
O23 O 0.86012 0.29697 0.5521 0.0
O24 O 0.77892 0.24377 0.56255 0.0
O25 O 0.80076 0.24867 0.52896 0.0
C26 C 0.86829 0.24174 0.58378 0.0
C27 C 0.77652 0.24692 0.54183 0.0
C28 C 0.6269 0.86868 0.91702 0.0
C29 C 0.52885 0.77546 0.87662 0.0
O30 O 0.63019 0.87493 0.89611 0.0
Zn31 Zn 0.60093 0.84811 0.86648 0.0
O32 O 0.60088 0.84026 0.92414 0.0
Zn33 Zn 0.57878 0.82208 0.89624 0.0
O34 O 0.61383 0.80723 0.88052 0.0
O35 O 0.63331 0.83919 0.85015 0.0
O36 O 0.53485 0.77879 0.89728 0.0
O37 O 0.55109 0.79907 0.86334 0.0
O38 O 0.5903 0.88209 0.85408 0.0
O39 O 0.56347 0.8601 0.8859 0.0
C40 C 0.63288 0.81598 0.86295 0.0
C41 C 0.56997 0.88108 0.86943 0.0
C42 C 0.75955 0.62568 0.25282 0.0
C43 C 0.7526 0.52806 0.21096 0.0
O44 O 0.75571 0.6294 0.23207 0.0
Zn45 Zn 0.75219 0.60051 0.20195 0.0
O46 O 0.76195 0.5994 0.25934 0.0
Zn47 Zn 0.7567 0.5778 0.23121 0.0
O48 O 0.80627 0.61301 0.21521 0.0
O49 O 0.79323 0.63304 0.18533 0.0
O50 O 0.75584 0.53382 0.23163 0.0
O51 O 0.75098 0.55051 0.198 0.0
O52 O 0.70733 0.59039 0.19022 0.0
O53 O 0.70305 0.56299 0.22171 0.0
C54 C 0.81626 0.63236 0.19777 0.0
C55 C 0.68827 0.56991 0.2056 0.0
C56 C 0.13349 0.75995 0.58574 0.0
C57 C 0.22119 0.75217 0.54107 0.0
O58 O 0.12488 0.75645 0.56517 0.0
Zn59 Zn 0.14818 0.7526 0.53431 0.0
O60 O 0.16225 0.76175 0.59143 0.0
Zn61 Zn 0.17701 0.75655 0.56269 0.0
O62 O 0.19136 0.80633 0.54695 0.0
O63 O 0.15622 0.79372 0.51811 0.0
O64 O 0.21977 0.75525 0.56187 0.0
O65 O 0.19654 0.75085 0.52879 0.0
O66 O 0.11209 0.70813 0.52303 0.0
O67 O 0.13769 0.7031 0.5532 0.0
C68 C 0.18112 0.81652 0.53 0.0
C69 C 0.11472 0.68876 0.53767 0.0
C70 C 0.37435 0.13118 0.91721 0.0
C71 C 0.47012 0.22195 0.87401 0.0
O72 O 0.36993 0.12376 0.89647 0.0
Zn73 Zn 0.39738 0.14872 0.86608 0.0
O74 O 0.40079 0.15993 0.92353 0.0
Zn75 Zn 0.4215 0.17647 0.89503 0.0
O76 O 0.38632 0.1912 0.87939 0.0
O77 O 0.36374 0.15648 0.85032 0.0
O78 O 0.46552 0.21951 0.89482 0.0
O79 O 0.44703 0.19774 0.86139 0.0
O80 O 0.40726 0.114 0.854 0.0
O81 O 0.4361 0.13784 0.88498 0.0
C82 C 0.36586 0.18117 0.86244 0.0
C83 C 0.42856 0.1159 0.86894 0.0
C84 C 0.52709 0.75277 0.45389 0.0
C85 C 0.62646 0.75893 0.41444 0.0
O86 O 0.54893 0.75107 0.46736 0.0
Zn87 Zn 0.59893 0.75211 0.46469 0.0
O88 O 0.53375 0.75602 0.43331 0.0
Zn89 Zn 0.57768 0.75671 0.43478 0.0
O90 O 0.56215 0.70305 0.44469 0.0
O91 O 0.58813 0.70731 0.47675 0.0
O92 O 0.6006 0.76141 0.40711 0.0
O93 O 0.62915 0.75544 0.43535 0.0
O94 O 0.63068 0.79291 0.4816 0.0
O95 O 0.61224 0.80628 0.45111 0.0
C96 C 0.56828 0.68827 0.46115 0.0
C97 C 0.63069 0.81607 0.46894 0.0
C98 C 0.87033 0.62834 0.74933 0.0
C99 C 0.77622 0.52891 0.78828 0.0
O100 O 0.87628 0.63073 0.77027 0.0
Zn101 Zn 0.84896 0.60033 0.79942 0.0
O102 O 0.84196 0.60272 0.74183 0.0
Zn103 Zn 0.82327 0.57946 0.76938 0.0
O104 O 0.80837 0.61397 0.78581 0.0
O105 O 0.83995 0.63205 0.8164 0.0
O106 O 0.77981 0.53569 0.76772 0.0
O107 O 0.79977 0.55054 0.80183 0.0
O108 O 0.8826 0.58901 0.81151 0.0
O109 O 0.86092 0.5634 0.77934 0.0
C110 C 0.81693 0.63223 0.80371 0.0
C111 C 0.88167 0.56918 0.79585 0.0
C112 C 0.24638 0.77638 0.12303 0.0
C113 C 0.24017 0.86814 0.08201 0.0
O114 O 0.24888 0.80067 0.13615 0.0
Zn115 Zn 0.24799 0.84971 0.13264 0.0
O116 O 0.24242 0.77888 0.10244 0.0
Zn117 Zn 0.24237 0.82238 0.10325 0.0
O118 O 0.29646 0.86068 0.11245 0.0
O119 O 0.29318 0.88398 0.14413 0.0
O120 O 0.23681 0.83913 0.07533 0.0
O121 O 0.24459 0.87563 0.10276 0.0
O122 O 0.20736 0.84152 0.14967 0.0
O123 O 0.1934 0.80827 0.11983 0.0
C124 C 0.31176 0.88229 0.12854 0.0
C125 C 0.18394 0.81774 0.13745 0.0
C126 C 0.46999 0.24714 0.4563 0.0
C127 C 0.37158 0.24205 0.4162 0.0
O128 O 0.44804 0.24894 0.46962 0.0
Zn129 Zn 0.39837 0.24844 0.46663 0.0
O130 O 0.46373 0.24419 0.43567 0.0
Zn131 Zn 0.41994 0.24383 0.43679 0.0
O132 O 0.43554 0.29741 0.44665 0.0
O133 O 0.40939 0.29345 0.4786 0.0
O134 O 0.39742 0.23942 0.40899 0.0
O135 O 0.36866 0.24544 0.4371 0.0
O136 O 0.36614 0.20748 0.48334 0.0
O137 O 0.38486 0.19433 0.45289 0.0
C138 C 0.42938 0.31235 0.463 0.0
C139 C 0.36614 0.18441 0.4706 0.0
C140 C 0.1321 0.37254 0.74779 0.0
C141 C 0.22229 0.46919 0.79059 0.0
O142 O 0.12415 0.36851 0.76846 0.0
Zn143 Zn 0.14906 0.39646 0.7988 0.0
O144 O 0.16108 0.39873 0.74156 0.0
Zn145 Zn 0.17704 0.42006 0.7699 0.0
O146 O 0.1919 0.38544 0.78612 0.0
O147 O 0.15682 0.36316 0.81503 0.0
O148 O 0.21998 0.46407 0.76984 0.0
O149 O 0.19804 0.44638 0.80333 0.0
O150 O 0.11431 0.40644 0.81056 0.0
O151 O 0.13823 0.43483 0.77946 0.0
C152 C 0.18174 0.36525 0.80318 0.0
C153 C 0.11623 0.4275 0.79544 0.0
C154 C 0.75334 0.2227 0.12377 0.0
C155 C 0.75991 0.13291 0.08065 0.0
O156 O 0.75168 0.1983 0.13645 0.0
Zn157 Zn 0.75246 0.14928 0.13175 0.0
O158 O 0.7564 0.22058 0.10303 0.0
Zn159 Zn 0.75731 0.17758 0.10295 0.0
O160 O 0.70354 0.13864 0.11214 0.0
O161 O 0.70746 0.1144 0.14324 0.0
O162 O 0.76286 0.162 0.07455 0.0
O163 O 0.75576 0.12469 0.10129 0.0
O164 O 0.79336 0.15666 0.14809 0.0
O165 O 0.80666 0.19189 0.11923 0.0
C166 C 0.68857 0.11645 0.12799 0.0
C167 C 0.81644 0.18147 0.13628 0.0
H168 H 0.23333 0.71689 0.10055 0.0
H169 H 0.23433 0.6652 0.11501 0.0
H170 H 0.26337 0.7138 0.17945 0.0
H171 H 0.26226 0.76576 0.16521 0.0
H172 H 0.30534 0.68099 0.1591 0.0
H173 H 0.15913 0.5941 0.16248 0.0
H174 H 0.17772 0.61961 0.13767 0.0
H175 H 0.18024 0.64171 0.16319 0.0
C176 C 0.23999 0.7167 0.1178 0.0
C177 C 0.24762 0.74541 0.13176 0.0
C178 C 0.24047 0.6871 0.12601 0.0
C179 C 0.24873 0.68576 0.14826 0.0
C180 C 0.25687 0.71447 0.16221 0.0
H181 H 0.23505 0.51894 0.23072 0.0
H182 H 0.23652 0.57128 0.21524 0.0
C183 C 0.25614 0.74403 0.15406 0.0
C184 C 0.24862 0.65417 0.15695 0.0
H185 H 0.19366 0.56801 0.17116 0.0
C186 C 0.281 0.65626 0.16174 0.0
C187 C 0.21673 0.62213 0.16037 0.0
C188 C 0.18136 0.61902 0.15582 0.0
C189 C 0.28226 0.62678 0.16976 0.0
C190 C 0.25038 0.59472 0.17306 0.0
C191 C 0.21801 0.5927 0.16841 0.0
C192 C 0.25008 0.5633 0.18217 0.0
C193 C 0.31747 0.62994 0.1749 0.0
C194 C 0.2571 0.54157 0.16856 0.0
C195 C 0.25609 0.51144 0.17729 0.0
C196 C 0.2482 0.5028 0.1998 0.0
C197 C 0.24131 0.52486 0.21334 0.0
C198 C 0.24209 0.55475 0.20456 0.0
H199 H 0.33975 0.65735 0.17274 0.0
H200 H 0.31762 0.62141 0.19221 0.0
H201 H 0.32174 0.61217 0.16382 0.0
H202 H 0.26317 0.54784 0.15119 0.0
H203 H 0.26154 0.49502 0.16645 0.0
H204 H 0.76116 0.25039 0.49825 0.0
H205 H 0.71004 0.25229 0.48335 0.0
H206 H 0.67144 0.24817 0.54961 0.0
H207 H 0.7224 0.2465 0.56469 0.0
H208 H 0.63727 0.20122 0.49008 0.0
H209 H 0.67066 0.3338 0.52138 0.0
H210 H 0.70275 0.31938 0.51973 0.0
H211 H 0.67125 0.30446 0.54198 0.0
C212 C 0.7419 0.25008 0.50967 0.0
C213 C 0.74592 0.24842 0.53267 0.0
C214 C 0.71273 0.25114 0.50112 0.0
C215 C 0.6873 0.25087 0.51541 0.0
C216 C 0.69114 0.24907 0.53834 0.0
H217 H 0.48969 0.24928 0.49956 0.0
H218 H 0.54245 0.24973 0.51355 0.0
C219 C 0.7202 0.24792 0.5469 0.0
C220 C 0.65608 0.25126 0.50636 0.0
H221 H 0.61348 0.29873 0.50594 0.0
C222 C 0.63212 0.22261 0.49339 0.0
C223 C 0.64948 0.27916 0.51086 0.0
C224 C 0.675 0.31113 0.52409 0.0
C225 C 0.60123 0.22074 0.48515 0.0
C226 C 0.59459 0.24865 0.48966 0.0
C227 C 0.61865 0.27737 0.50256 0.0
C228 C 0.56283 0.24856 0.4811 0.0
C229 C 0.57555 0.1885 0.47219 0.0
C230 C 0.55714 0.24829 0.45823 0.0
C231 C 0.52702 0.24791 0.45019 0.0
C232 C 0.50216 0.24812 0.46488 0.0
C233 C 0.50827 0.24902 0.4878 0.0
C234 C 0.53839 0.2493 0.49583 0.0
H235 H 0.57976 0.16581 0.47523 0.0
H236 H 0.54783 0.18044 0.47649 0.0
H237 H 0.57934 0.19467 0.45424 0.0
H238 H 0.57609 0.24852 0.44659 0.0
H239 H 0.52327 0.24749 0.43244 0.0
H240 H 0.50953 0.75786 0.83332 0.0
H241 H 0.45625 0.70614 0.81923 0.0
H242 H 0.42218 0.67115 0.8861 0.0
H243 H 0.47513 0.72276 0.90037 0.0
H244 H 0.43451 0.63367 0.8278 0.0
H245 H 0.33566 0.66922 0.85682 0.0
H246 H 0.3822 0.70113 0.85476 0.0
H247 H 0.36581 0.67084 0.87764 0.0
C248 C 0.49062 0.73928 0.84504 0.0
C249 C 0.49653 0.74449 0.86797 0.0
C250 C 0.46024 0.70976 0.83696 0.0
C251 C 0.43514 0.68516 0.85165 0.0
C252 C 0.44097 0.6902 0.87452 0.0
H253 H 0.23755 0.48767 0.83428 0.0
H254 H 0.28953 0.53978 0.84936 0.0
C255 C 0.47135 0.71962 0.88262 0.0
C256 C 0.40342 0.65354 0.84305 0.0
H257 H 0.31336 0.61189 0.84176 0.0
C258 C 0.40801 0.62893 0.83075 0.0
C259 C 0.36896 0.64745 0.8471 0.0
C260 C 0.36269 0.67365 0.85964 0.0
C261 C 0.37893 0.59804 0.82257 0.0
C262 C 0.34445 0.59205 0.82646 0.0
C263 C 0.33986 0.61659 0.83886 0.0
C264 C 0.31285 0.5608 0.81736 0.0
C265 C 0.38535 0.57178 0.8102 0.0
C266 C 0.30855 0.55578 0.7944 0.0
C267 C 0.27903 0.52612 0.78575 0.0
C268 C 0.25306 0.501 0.79991 0.0
C269 C 0.25711 0.50645 0.82293 0.0
C270 C 0.28674 0.53619 0.83157 0.0
H271 H 0.4119 0.57548 0.81384 0.0
H272 H 0.36509 0.54425 0.81446 0.0
H273 H 0.38383 0.57547 0.79214 0.0
H274 H 0.32803 0.57488 0.78315 0.0
H275 H 0.27663 0.52289 0.76794 0.0
H276 H 0.74955 0.50889 0.16746 0.0
H277 H 0.74786 0.45578 0.1529 0.0
H278 H 0.75088 0.42162 0.21943 0.0
H279 H 0.75234 0.47432 0.23416 0.0
H280 H 0.79914 0.43453 0.16044 0.0
H281 H 0.66605 0.33476 0.19086 0.0
H282 H 0.68022 0.3812 0.18903 0.0
H283 H 0.69497 0.36493 0.21153 0.0
C284 C 0.74963 0.48998 0.179 0.0
C285 C 0.75098 0.4958 0.20197 0.0
C286 C 0.7487 0.45969 0.17066 0.0
C287 C 0.74876 0.43462 0.18512 0.0
C288 C 0.75015 0.44036 0.20802 0.0
H289 H 0.75073 0.23825 0.16749 0.0
H290 H 0.75022 0.29004 0.18255 0.0
C291 C 0.75119 0.47062 0.21639 0.0
C292 C 0.74873 0.40307 0.17628 0.0
H293 H 0.70136 0.31296 0.1755 0.0
C294 C 0.7777 0.40794 0.16361 0.0
C295 C 0.72081 0.36848 0.18063 0.0
C296 C 0.68857 0.36187 0.1936 0.0
C297 C 0.77977 0.37903 0.15539 0.0
C298 C 0.75175 0.34441 0.1596 0.0
C299 C 0.72281 0.33955 0.17234 0.0
C300 C 0.75168 0.31294 0.15053 0.0
C301 C 0.81227 0.38579 0.14265 0.0
C302 C 0.75204 0.30844 0.12757 0.0
C303 C 0.75243 0.27905 0.11894 0.0
C304 C 0.75215 0.25337 0.13311 0.0
C305 C 0.75107 0.25759 0.15613 0.0
C306 C 0.75076 0.28712 0.16476 0.0
H307 H 0.835 0.41252 0.1461 0.0
H308 H 0.82003 0.36585 0.14676 0.0
H309 H 0.80658 0.38408 0.12465 0.0
H310 H 0.75195 0.32766 0.1163 0.0
H311 H 0.75297 0.2765 0.10112 0.0
H312 H 0.50587 0.74858 0.49696 0.0
H313 H 0.45236 0.74694 0.51059 0.0
H314 H 0.42156 0.7524 0.44354 0.0
H315 H 0.47475 0.75378 0.4297 0.0
H316 H 0.43235 0.79892 0.50301 0.0
H317 H 0.33284 0.66728 0.47032 0.0
H318 H 0.37908 0.68088 0.47285 0.0
H319 H 0.36412 0.69697 0.45038 0.0
C320 C 0.48762 0.74922 0.48509 0.0
C321 C 0.49454 0.75122 0.46224 0.0
C322 C 0.4571 0.7483 0.49291 0.0
C323 C 0.43286 0.74908 0.47804 0.0
C324 C 0.43965 0.75112 0.45525 0.0
H325 H 0.23597 0.75078 0.49706 0.0
H326 H 0.28753 0.75069 0.48116 0.0
C327 C 0.47018 0.75211 0.4474 0.0
C328 C 0.40111 0.74912 0.48644 0.0
H329 H 0.31097 0.70179 0.48665 0.0
C330 C 0.4058 0.77766 0.4995 0.0
C331 C 0.36658 0.72146 0.48165 0.0
C332 C 0.36017 0.68973 0.46818 0.0
C333 C 0.37678 0.77942 0.50783 0.0
C334 C 0.34223 0.7515 0.50333 0.0
C335 C 0.33752 0.72313 0.49005 0.0
C336 C 0.31071 0.75082 0.51284 0.0
C337 C 0.38338 0.81141 0.5211 0.0
C338 C 0.30641 0.7502 0.53587 0.0
C339 C 0.27718 0.75036 0.54497 0.0
C340 C 0.25145 0.75081 0.53121 0.0
C341 C 0.25537 0.75054 0.5081 0.0
C342 C 0.28476 0.75048 0.499 0.0
H343 H 0.41002 0.83436 0.51777 0.0
H344 H 0.36328 0.81911 0.51737 0.0
H345 H 0.38183 0.80513 0.53901 0.0
H346 H 0.32574 0.74963 0.54683 0.0
H347 H 0.27485 0.75023 0.56283 0.0
H348 H 0.52491 0.27578 0.89631 0.0
H349 H 0.57646 0.32722 0.88074 0.0
H350 H 0.53848 0.28983 0.81475 0.0
H351 H 0.48684 0.23781 0.83019 0.0
H352 H 0.61051 0.31305 0.82068 0.0
H353 H 0.57683 0.41195 0.85181 0.0
H354 H 0.57757 0.38352 0.87298 0.0
H355 H 0.54526 0.36524 0.8512 0.0
C356 C 0.52741 0.27844 0.87848 0.0
C357 C 0.50163 0.25277 0.86448 0.0
C358 C 0.55682 0.30798 0.86962 0.0
C359 C 0.56091 0.31262 0.84662 0.0
C360 C 0.53562 0.2868 0.83257 0.0
H361 H 0.72278 0.47684 0.76396 0.0
H362 H 0.6707 0.42376 0.77769 0.0
C363 C 0.50616 0.25714 0.84141 0.0
C364 C 0.59194 0.34422 0.83732 0.0
H365 H 0.63464 0.43432 0.83711 0.0
C366 C 0.6157 0.33958 0.82411 0.0
C367 C 0.59855 0.37874 0.84185 0.0
C368 C 0.57305 0.38527 0.85506 0.0
C369 C 0.64649 0.36866 0.81577 0.0
C370 C 0.6533 0.40316 0.82057 0.0
C371 C 0.62937 0.40779 0.83359 0.0
C372 C 0.68515 0.43492 0.81223 0.0
C373 C 0.6719 0.36231 0.80236 0.0
C374 C 0.71017 0.45904 0.82715 0.0
C375 C 0.73992 0.48949 0.81939 0.0
C376 C 0.745 0.49645 0.79655 0.0
C377 C 0.71975 0.47223 0.78165 0.0
C378 C 0.69006 0.44177 0.78944 0.0
H379 H 0.66699 0.33498 0.80448 0.0
H380 H 0.66871 0.36632 0.78455 0.0
H381 H 0.69964 0.3812 0.8071 0.0
H382 H 0.70668 0.45425 0.84482 0.0
H383 H 0.75881 0.50763 0.8313 0.0
H384 H 0.63994 0.52728 0.23658 0.0
H385 H 0.57603 0.50349 0.23618 0.0
H386 H 0.58463 0.55412 0.17339 0.0
H387 H 0.6486 0.57845 0.17376 0.0
H388 H 0.54301 0.5645 0.2037 0.0
H389 H 0.50288 0.42262 0.19804 0.0
H390 H 0.53204 0.44549 0.22072 0.0
H391 H 0.54749 0.45753 0.19274 0.0
C392 C 0.62825 0.53322 0.22261 0.0
C393 C 0.64941 0.55468 0.20516 0.0
C394 C 0.59167 0.51944 0.22237 0.0
C395 C 0.57552 0.52663 0.20461 0.0
C396 C 0.59655 0.54813 0.18721 0.0
H397 H 0.35167 0.42017 0.17404 0.0
H398 H 0.41566 0.44482 0.17377 0.0
C399 C 0.63312 0.56196 0.18744 0.0
C400 C 0.53679 0.51246 0.20439 0.0
H401 H 0.45724 0.43586 0.20479 0.0
C402 C 0.52423 0.53638 0.20389 0.0
C403 C 0.51236 0.47576 0.20436 0.0
C404 C 0.52428 0.4488 0.20379 0.0
C405 C 0.48787 0.52459 0.20367 0.0
C406 C 0.46345 0.4879 0.20431 0.0
C407 C 0.47601 0.46398 0.2045 0.0
C408 C 0.42472 0.47371 0.20442 0.0
C409 C 0.47594 0.55149 0.20235 0.0
C410 C 0.40851 0.48161 0.22183 0.0
C411 C 0.3719 0.46764 0.22201 0.0
C412 C 0.35076 0.44528 0.20485 0.0
C413 C 0.36712 0.43735 0.18749 0.0
C414 C 0.4037 0.45136 0.18732 0.0
H415 H 0.49732 0.57742 0.19625 0.0
H416 H 0.45271 0.54226 0.19125 0.0
H417 H 0.46817 0.55553 0.2191 0.0
H418 H 0.42414 0.49825 0.23542 0.0
H419 H 0.36016 0.47411 0.23571 0.0
H420 H 0.05175 0.65196 0.51603 0.0
H421 H 0.01136 0.58818 0.51615 0.0
H422 H 0.08416 0.57412 0.55722 0.0
H423 H 0.12391 0.63808 0.55801 0.0
H424 H 0.01706 0.53553 0.50129 0.0
H425 H 0.99583 0.51813 0.59181 0.0
H426 H 0.01843 0.56112 0.57901 0.0
H427 H 0.04164 0.53764 0.58474 0.0
C428 C 0.05909 0.63528 0.52516 0.0
C429 C 0.09088 0.65004 0.53716 0.0
C430 C 0.03597 0.59881 0.52522 0.0
C431 C 0.04429 0.57629 0.53707 0.0
C432 C 0.07654 0.59094 0.54855 0.0
H433 H 0.94368 0.34998 0.51318 0.0
H434 H 0.98262 0.414 0.51322 0.0
C435 C 0.0994 0.6275 0.54884 0.0
C436 C 0.01954 0.53749 0.53693 0.0
H437 H 0.97553 0.46554 0.57053 0.0
C438 C 0.00781 0.52027 0.51645 0.0
C439 C 0.00689 0.51759 0.5567 0.0
C440 C 0.01604 0.53463 0.57929 0.0
C441 C 0.98422 0.48376 0.51516 0.0
C442 C 0.97305 0.46359 0.53489 0.0
C443 C 0.9844 0.48087 0.55538 0.0
C444 C 0.94937 0.42461 0.53474 0.0
C445 C 0.97091 0.46748 0.49265 0.0
C446 C 0.91829 0.40899 0.54745 0.0
C447 C 0.89641 0.3723 0.54789 0.0
C448 C 0.90501 0.35049 0.53543 0.0
C449 C 0.93608 0.36612 0.5227 0.0
C450 C 0.95826 0.40277 0.52259 0.0
H451 H 0.97244 0.48734 0.48055 0.0
H452 H 0.98763 0.45694 0.48629 0.0
H453 H 0.94314 0.44551 0.49345 0.0
H454 H 0.9109 0.42523 0.55705 0.0
H455 H 0.87265 0.36104 0.55786 0.0
H456 H 0.41872 0.0669 0.83732 0.0
H457 H 0.44274 0.02701 0.83686 0.0
H458 H 0.49658 0.0713 0.89851 0.0
H459 H 0.4731 0.11163 0.899 0.0
H460 H 0.53885 0.06346 0.8671 0.0
H461 H 0.40986 0.93992 0.8764 0.0
H462 H 0.41186 0.96721 0.85358 0.0
H463 H 0.41531 0.98305 0.88145 0.0
C464 C 0.43569 0.06821 0.85079 0.0
C465 C 0.44384 0.09237 0.86826 0.0
C466 C 0.44922 0.04523 0.85055 0.0
C467 C 0.47095 0.0458 0.86783 0.0
C468 C 0.47969 0.07031 0.88507 0.0
H469 H 0.52764 0.88741 0.90029 0.0
H470 H 0.50415 0.92773 0.89962 0.0
C471 C 0.46622 0.09332 0.88532 0.0
C472 C 0.48486 0.02107 0.86789 0.0
H473 H 0.45966 0.93349 0.86902 0.0
C474 C 0.52157 0.03504 0.86754 0.0
C475 C 0.46223 0.98403 0.86876 0.0
C476 C 0.42263 0.96756 0.87028 0.0
C477 C 0.5363 0.01295 0.86776 0.0
C478 C 0.51364 0.97588 0.86799 0.0
C479 C 0.47694 0.96192 0.86862 0.0
C480 C 0.52754 0.95114 0.86806 0.0
C481 C 0.57597 0.02948 0.86818 0.0
C482 C 0.548 0.95053 0.85035 0.0
C483 C 0.56154 0.92756 0.85068 0.0
C484 C 0.55465 0.90458 0.86868 0.0
C485 C 0.53353 0.90479 0.88619 0.0
C486 C 0.52005 0.9278 0.88584 0.0
H487 H 0.58915 0.05752 0.87358 0.0
H488 H 0.58412 0.01476 0.87944 0.0
H489 H 0.5855 0.02871 0.85128 0.0
H490 H 0.55349 0.96782 0.83624 0.0
H491 H 0.57752 0.92794 0.83686 0.0
H492 H 0.57623 0.64872 0.49334 0.0
H493 H 0.55263 0.58489 0.49359 0.0
H494 H 0.50283 0.57602 0.43044 0.0
H495 H 0.52598 0.63985 0.43011 0.0
H496 H 0.45871 0.52517 0.46139 0.0
H497 H 0.58859 0.53184 0.45524 0.0
H498 H 0.58533 0.55705 0.47766 0.0
H499 H 0.583 0.56928 0.44956 0.0
C500 C 0.56024 0.63324 0.47949 0.0
C501 C 0.55314 0.64945 0.46165 0.0
C502 C 0.54695 0.59678 0.47961 0.0
C503 C 0.52648 0.57583 0.46187 0.0
C504 C 0.51875 0.59177 0.44424 0.0
H505 H 0.47218 0.36026 0.43194 0.0
H506 H 0.49519 0.42402 0.43167 0.0
C507 C 0.53203 0.62825 0.44409 0.0
C508 C 0.51285 0.53724 0.46179 0.0
H509 H 0.53879 0.47542 0.46238 0.0
C510 C 0.47618 0.51425 0.46156 0.0
C511 C 0.53575 0.52312 0.46171 0.0
C512 C 0.57536 0.54654 0.46085 0.0
C513 C 0.46175 0.47745 0.46165 0.0
C514 C 0.48464 0.46335 0.46229 0.0
C515 C 0.52131 0.48633 0.46213 0.0
C516 C 0.47104 0.42476 0.46278 0.0
C517 C 0.42214 0.454 0.46068 0.0
C518 C 0.45033 0.40414 0.48055 0.0
C519 C 0.43712 0.36768 0.48077 0.0
C520 C 0.44453 0.35118 0.46325 0.0
C521 C 0.46589 0.37207 0.44568 0.0
C522 C 0.47908 0.40853 0.44549 0.0
H523 H 0.40895 0.46854 0.45471 0.0
H524 H 0.41463 0.431 0.44965 0.0
H525 H 0.41202 0.44388 0.47753 0.0
H526 H 0.4444 0.41627 0.49428 0.0
H527 H 0.42091 0.35242 0.49462 0.0
H528 H 0.88765 0.52712 0.7646 0.0
H529 H 0.92728 0.50278 0.7651 0.0
H530 H 0.96782 0.55134 0.8286 0.0
H531 H 0.92863 0.57616 0.82817 0.0
H532 H 0.02051 0.56251 0.79825 0.0
H533 H 0.91813 0.42064 0.80282 0.0
H534 H 0.91224 0.4442 0.78039 0.0
H535 H 0.90864 0.45559 0.80849 0.0
C536 C 0.90483 0.53247 0.77875 0.0
C537 C 0.90486 0.5535 0.79639 0.0
C538 C 0.92735 0.51838 0.77904 0.0
C539 C 0.95014 0.52487 0.79702 0.0
C540 C 0.95032 0.5459 0.81461 0.0
H541 H 0.06708 0.41773 0.82688 0.0
H542 H 0.02778 0.44243 0.82746 0.0
C543 C 0.92784 0.56001 0.81434 0.0
C544 C 0.97454 0.51056 0.79723 0.0
H545 H 0.97706 0.43379 0.79633 0.0
C546 C 0.01104 0.53437 0.79789 0.0
C547 C 0.96207 0.47384 0.79701 0.0
C548 C 0.92313 0.44702 0.79734 0.0
C549 C 0.03548 0.52244 0.79802 0.0
C550 C 0.02303 0.48574 0.79714 0.0
C551 C 0.98652 0.46192 0.79681 0.0
C552 C 0.04745 0.47145 0.79683 0.0
C553 C 0.07436 0.54919 0.79947 0.0
C554 C 0.07138 0.4794 0.77933 0.0
C555 C 0.09396 0.46539 0.77895 0.0
C556 C 0.09285 0.44297 0.79603 0.0
C557 C 0.06871 0.43496 0.81349 0.0
C558 C 0.04617 0.449 0.81384 0.0
H559 H 0.07902 0.57509 0.80569 0.0
H560 H 0.0882 0.53972 0.81052 0.0
H561 H 0.08626 0.55338 0.78273 0.0
H562 H 0.07231 0.49613 0.76581 0.0
H563 H 0.11206 0.47192 0.76519 0.0
H564 H 0.35243 0.93056 0.1601 0.0
H565 H 0.41637 0.97024 0.15972 0.0
H566 H 0.4232 0.92721 0.09689 0.0
H567 H 0.35926 0.88705 0.09722 0.0
H568 H 0.47447 0.93412 0.12713 0.0
H569 H 0.46968 0.05826 0.12086 0.0
H570 H 0.44496 0.03054 0.14367 0.0
H571 H 0.43162 0.01537 0.11577 0.0
C572 C 0.36748 0.92948 0.14618 0.0
C573 C 0.35066 0.90571 0.12863 0.0
C574 C 0.40403 0.95235 0.14594 0.0
C575 C 0.42445 0.95209 0.1281 0.0
C576 C 0.40788 0.92797 0.11076 0.0
H577 H 0.6406 0.11223 0.09723 0.0
H578 H 0.5767 0.07189 0.09707 0.0
C579 C 0.37132 0.90505 0.11098 0.0
C580 C 0.46315 0.97669 0.12764 0.0
H581 H 0.52591 0.0642 0.12776 0.0
C582 C 0.48575 0.96256 0.1272 0.0
C583 C 0.47777 0.01378 0.12744 0.0
C584 C 0.4548 0.03048 0.12675 0.0
C585 C 0.52262 0.98454 0.12697 0.0
C586 C 0.53724 0.02162 0.12753 0.0
C587 C 0.51464 0.03576 0.12756 0.0
C588 C 0.57595 0.04623 0.12786 0.0
C589 C 0.54557 0.96786 0.12577 0.0
C590 C 0.59665 0.04559 0.14541 0.0
C591 C 0.63318 0.06856 0.14555 0.0
C592 C 0.64971 0.09283 0.12819 0.0
C593 C 0.62877 0.09384 0.11083 0.0
C594 C 0.59223 0.07082 0.11071 0.0
H595 H 0.53063 0.94022 0.11964 0.0
H596 H 0.56865 0.98322 0.11476 0.0
H597 H 0.55558 0.96739 0.14258 0.0
H598 H 0.58453 0.02735 0.15906 0.0
H599 H 0.64845 0.0672 0.15924 0.0
H600 H 0.26263 0.32699 0.24749 0.0
H601 H 0.27251 0.29412 0.27663 0.0
H602 H 0.23071 0.33595 0.32512 0.0
H603 H 0.22162 0.36962 0.2962 0.0
H604 H 0.29472 0.3478 0.33626 0.0
H605 H 0.2119 0.2071 0.31313 0.0
H606 H 0.23975 0.23344 0.29085 0.0
H607 H 0.20573 0.24146 0.30111 0.0
C608 C 0.25484 0.3286 0.26429 0.0
C609 C 0.24161 0.3511 0.26958 0.0
C610 C 0.26025 0.30956 0.28091 0.0
C611 C 0.25196 0.31224 0.30303 0.0
C612 C 0.23717 0.33339 0.30815 0.0
H613 H 0.31745 0.25443 0.42555 0.0
H614 H 0.28266 0.2668 0.39905 0.0
C615 C 0.23207 0.35267 0.29161 0.0
C616 C 0.26291 0.29683 0.32108 0.0
H617 H 0.25898 0.22086 0.33903 0.0
C618 C 0.28638 0.31993 0.33709 0.0
C619 C 0.25218 0.26049 0.32205 0.0
C620 C 0.22572 0.23414 0.30598 0.0
C621 C 0.30048 0.30799 0.35353 0.0
C622 C 0.29049 0.27187 0.35416 0.0
C623 C 0.26646 0.24853 0.33848 0.0
C624 C 0.30687 0.25872 0.37009 0.0
C625 C 0.32712 0.33441 0.36955 0.0
C626 C 0.33083 0.24866 0.36249 0.0
C627 C 0.35073 0.24158 0.37754 0.0
C628 C 0.3469 0.24436 0.40046 0.0
C629 C 0.32122 0.2523 0.40801 0.0
C630 C 0.30135 0.25942 0.39292 0.0
H631 H 0.33662 0.3621 0.36435 0.0
H632 H 0.31477 0.33049 0.38613 0.0
H633 H 0.35025 0.33052 0.37117 0.0
H634 H 0.33537 0.24796 0.34491 0.0
H635 H 0.37008 0.23528 0.37117 0.0
H636 H 0.86217 0.23641 0.62887 0.0
H637 H 0.90881 0.24856 0.65566 0.0
H638 H 0.98073 0.26416 0.60232 0.0
H639 H 0.93436 0.25228 0.57532 0.0
H640 H 0.95689 0.21948 0.6624 0.0
H641 H 0.02328 0.36054 0.63638 0.0
H642 H 0.97784 0.32959 0.6296 0.0
H643 H 0.01287 0.32849 0.61479 0.0
C644 C 0.88773 0.24188 0.6228 0.0
C645 C 0.89471 0.24388 0.59994 0.0
C646 C 0.91428 0.24867 0.63815 0.0
C647 C 0.9482 0.25763 0.6309 0.0
C648 C 0.95472 0.25759 0.60817 0.0
H649 H 0.14483 0.36611 0.70432 0.0
H650 H 0.10142 0.33258 0.67566 0.0
C651 C 0.92818 0.25077 0.59279 0.0
C652 C 0.97745 0.27045 0.64703 0.0
H653 H 0.05022 0.34573 0.66464 0.0
C654 C 0.97752 0.24699 0.66285 0.0
C655 C 0.00416 0.30637 0.64752 0.0
C656 C 0.00462 0.33289 0.6313 0.0
C657 C 0.00379 0.25864 0.67926 0.0
C658 C 0.03005 0.29478 0.68005 0.0
C659 C 0.03019 0.31799 0.66395 0.0
C660 C 0.0567 0.30991 0.69798 0.0
C661 C 0.00326 0.23214 0.69546 0.0
C662 C 0.04608 0.30771 0.72015 0.0
C663 C 0.07091 0.32663 0.73662 0.0
C664 C 0.10668 0.34857 0.73112 0.0
C665 C 0.11742 0.34961 0.70906 0.0
C666 C 0.09266 0.33041 0.69267 0.0
H667 H 0.98944 0.20501 0.68845 0.0
H668 H 0.03042 0.23887 0.70031 0.0
H669 H 0.98881 0.23201 0.71059 0.0
H670 H 0.01839 0.29279 0.72458 0.0
H671 H 0.06179 0.32546 0.75344 0.0
H672 H 0.6277 0.86333 0.96207 0.0
H673 H 0.66245 0.91054 0.98844 0.0
H674 H 0.71627 0.98207 0.93446 0.0
H675 H 0.68143 0.93509 0.90786 0.0
H676 H 0.73882 0.9589 0.9946 0.0
H677 H 0.66333 0.02459 0.96897 0.0
H678 H 0.64909 0.97926 0.96208 0.0
H679 H 0.68503 0.0145 0.94726 0.0
C680 C 0.64728 0.88894 0.95576 0.0
C681 C 0.65144 0.8956 0.93285 0.0
C682 C 0.6672 0.91582 0.97087 0.0
C683 C 0.69152 0.94979 0.96335 0.0
C684 C 0.6973 0.95604 0.94054 0.0
H685 H 0.77916 0.14613 0.03721 0.0
H686 H 0.76951 0.10309 0.00836 0.0
C687 C 0.6774 0.92915 0.92538 0.0
C688 C 0.70813 0.97923 0.97934 0.0
H689 H 0.70522 0.05168 0.99714 0.0
C690 C 0.73181 0.97943 0.9951 0.0
C691 C 0.69874 0.0058 0.97991 0.0
C692 C 0.67248 0.0061 0.96379 0.0
C693 C 0.74634 0.00563 0.01155 0.0
C694 C 0.73623 0.0317 0.01245 0.0
C695 C 0.71308 0.03178 0.99637 0.0
C696 C 0.74752 0.05814 0.03049 0.0
C697 C 0.77241 0.0052 0.02772 0.0
C698 C 0.73904 0.04727 0.05261 0.0
C699 C 0.7448 0.07189 0.0692 0.0
C700 C 0.75856 0.1077 0.06385 0.0
C701 C 0.76831 0.11869 0.04184 0.0
C702 C 0.76288 0.09414 0.02533 0.0
H703 H 0.78588 0.99159 0.02063 0.0
H704 H 0.79271 0.03237 0.03263 0.0
H705 H 0.75812 0.99058 0.04282 0.0
H706 H 0.72635 0.01955 0.05692 0.0
H707 H 0.73682 0.06258 0.08599 0.0
H708 H 0.62807 0.76545 0.36939 0.0
H709 H 0.66327 0.75318 0.34331 0.0
H710 H 0.71648 0.73562 0.39771 0.0
H711 H 0.68116 0.74753 0.42404 0.0
H712 H 0.73939 0.78082 0.33726 0.0
H713 H 0.66369 0.63997 0.3636 0.0
H714 H 0.64962 0.67125 0.3703 0.0
H715 H 0.6855 0.67194 0.3852 0.0
C716 C 0.64763 0.75952 0.37586 0.0
C717 C 0.65143 0.75693 0.3988 0.0
C718 C 0.66782 0.75267 0.36091 0.0
C719 C 0.69206 0.74307 0.36863 0.0
C720 C 0.69757 0.74263 0.39148 0.0
H721 H 0.77936 0.63301 0.29616 0.0
H722 H 0.77011 0.66726 0.32459 0.0
C723 C 0.67739 0.74949 0.40648 0.0
C724 C 0.70869 0.73002 0.35281 0.0
H725 H 0.70569 0.65437 0.33556 0.0
C726 C 0.73236 0.75326 0.33695 0.0
C727 C 0.69925 0.69404 0.35247 0.0
C728 C 0.67294 0.66768 0.36866 0.0
C729 C 0.74685 0.74134 0.32063 0.0
C730 C 0.73673 0.70514 0.31999 0.0
C731 C 0.71358 0.68215 0.33615 0.0
C732 C 0.74801 0.68969 0.30214 0.0
C733 C 0.77289 0.76758 0.30434 0.0
C734 C 0.73938 0.69154 0.27997 0.0
C735 C 0.7449 0.67218 0.26362 0.0
C736 C 0.75857 0.65017 0.26927 0.0
C737 C 0.76855 0.64954 0.29132 0.0
C738 C 0.76336 0.66916 0.30758 0.0
H739 H 0.78631 0.79479 0.31122 0.0
H740 H 0.79322 0.76066 0.2996 0.0
H741 H 0.75858 0.76756 0.28916 0.0
H742 H 0.72671 0.70651 0.27545 0.0
H743 H 0.73677 0.67305 0.2468 0.0
H744 H 0.06369 0.73972 0.58106 0.0
H745 H 0.02164 0.73031 0.61057 0.0
H746 H 0.1059 0.76935 0.65862 0.0
H747 H 0.14793 0.77791 0.6293 0.0
H748 H 0.05305 0.70582 0.66952 0.0
H749 H 0.9974 0.79123 0.64829 0.0
H750 H 0.99489 0.76363 0.62559 0.0
H751 H 0.0374 0.79678 0.63582 0.0
C752 C 0.0734 0.74702 0.59784 0.0
C753 C 0.10906 0.75929 0.60289 0.0
C754 C 0.04936 0.74189 0.61468 0.0
C755 C 0.06069 0.74951 0.63678 0.0
C756 C 0.09661 0.76341 0.64167 0.0
H757 H 0.93697 0.68178 0.75924 0.0
H758 H 0.98451 0.71719 0.73308 0.0
C759 C 0.12057 0.76821 0.6249 0.0
C760 C 0.03459 0.73865 0.655 0.0
H761 H 0.96329 0.74337 0.67363 0.0
C762 C 0.03385 0.71457 0.67065 0.0
C763 C 0.00944 0.74994 0.65638 0.0
C764 C 0.01 0.7771 0.64074 0.0
C765 C 0.00784 0.70035 0.68711 0.0
C766 C 0.98208 0.71082 0.68808 0.0
C767 C 0.98319 0.73552 0.6728 0.0
C768 C 0.95239 0.69415 0.7039 0.0
C769 C 0.00716 0.67305 0.70272 0.0
C770 C 0.91837 0.67063 0.69607 0.0
C771 C 0.89118 0.65038 0.71092 0.0
C772 C 0.89759 0.6534 0.73386 0.0
C773 C 0.93122 0.67864 0.74167 0.0
C774 C 0.95842 0.69887 0.72678 0.0
H775 H 0.02522 0.66349 0.69732 0.0
H776 H 0.0155 0.6848 0.71946 0.0
H777 H 0.98002 0.65003 0.70408 0.0
H778 H 0.91327 0.66671 0.67844 0.0
H779 H 0.86552 0.63138 0.70436 0.0
H780 H 0.26565 0.93879 0.08816 0.0
H781 H 0.27722 0.98288 0.05958 0.0
H782 H 0.23018 0.90039 0.01048 0.0
H783 H 0.2194 0.8563 0.03882 0.0
H784 H 0.29559 0.9501 0.99932 0.0
H785 H 0.21995 0.01505 0.02426 0.0
H786 H 0.24738 0.01419 0.04607 0.0
H787 H 0.21137 0.97337 0.03578 0.0
C788 C 0.25702 0.92998 0.07137 0.0
C789 C 0.24188 0.89412 0.06569 0.0
C790 C 0.26344 0.95521 0.05507 0.0
C791 C 0.25425 0.94491 0.03292 0.0
C792 C 0.23741 0.90891 0.02747 0.0
H793 H 0.31821 0.06512 0.90962 0.0
H794 H 0.28418 0.01957 0.93718 0.0
C795 C 0.23133 0.88376 0.04369 0.0
C796 C 0.26633 0.97169 0.01506 0.0
H797 H 0.26613 0.04587 0.99751 0.0
C798 C 0.28867 0.97069 0.99874 0.0
C799 C 0.25751 0.99871 0.01444 0.0
C800 C 0.23246 0.00026 0.03096 0.0
C801 C 0.30326 0.9965 0.98219 0.0
C802 C 0.29495 0.02384 0.98178 0.0
C803 C 0.27228 0.02473 0.99788 0.0
C804 C 0.31133 0.05265 0.96535 0.0
C805 C 0.3285 0.99505 0.96572 0.0
C806 C 0.33679 0.08663 0.97218 0.0
C807 C 0.35628 0.11272 0.95652 0.0
C808 C 0.35052 0.10522 0.93374 0.0
C809 C 0.32348 0.07169 0.92701 0.0
C810 C 0.30403 0.04562 0.94271 0.0
H811 H 0.33721 0.9762 0.97085 0.0
H812 H 0.31523 0.98643 0.9494 0.0
H813 H 0.35222 0.02156 0.96358 0.0
H814 H 0.34272 0.0925 0.98961 0.0
H815 H 0.37674 0.13834 0.96226 0.0
H816 H 0.86983 0.24551 0.12249 0.0
H817 H 0.9321 0.27433 0.13289 0.0
H818 H 0.91119 0.18455 0.17331 0.0
H819 H 0.8485 0.15623 0.16371 0.0
H820 H 0.95228 0.24274 0.19468 0.0
H821 H 0.00695 0.25591 0.11044 0.0
H822 H 0.98083 0.2769 0.11248 0.0
H823 H 0.9603 0.22978 0.11609 0.0
C824 C 0.87853 0.23181 0.13349 0.0
C825 C 0.85429 0.19852 0.1422 0.0
C826 C 0.91422 0.24821 0.1393 0.0
C827 C 0.92659 0.23129 0.15347 0.0
C828 C 0.90236 0.19806 0.16224 0.0
H829 H 0.15215 0.30886 0.16979 0.0
H830 H 0.08946 0.27407 0.16026 0.0
C831 C 0.86654 0.18189 0.15674 0.0
C832 C 0.96449 0.24881 0.15983 0.0
H833 H 0.04816 0.29063 0.13874 0.0
C834 C 0.97323 0.25292 0.18243 0.0
C835 C 0.99191 0.26152 0.14389 0.0
C836 C 0.98452 0.25545 0.11939 0.0
C837 C 0.00854 0.27011 0.18953 0.0
C838 C 0.03596 0.28479 0.17359 0.0
C839 C 0.02721 0.27987 0.15099 0.0
C840 C 0.07386 0.30541 0.17993 0.0
C841 C 0.01594 0.27174 0.21405 0.0
C842 C 0.0861 0.33482 0.19399 0.0
C843 C 0.1218 0.35436 0.19975 0.0
C844 C 0.14615 0.34542 0.19112 0.0
C845 C 0.13402 0.31641 0.1767 0.0
C846 C 0.0982 0.29652 0.17124 0.0
H847 H 0.99358 0.24978 0.22305 0.0
H848 H 0.04025 0.27049 0.21743 0.0
H849 H 0.01947 0.29688 0.22083 0.0
H850 H 0.06812 0.34297 0.20033 0.0
H851 H 0.13041 0.37685 0.21067 0.0
H852 H 0.76618 0.12799 0.55241 0.0
H853 H 0.73636 0.06541 0.54254 0.0
H854 H 0.79853 0.09063 0.48286 0.0
H855 H 0.82888 0.15325 0.49272 0.0
H856 H 0.6963 0.03357 0.5052 0.0
H857 H 0.81074 0.0118 0.51014 0.0
H858 H 0.8116 0.05026 0.52176 0.0
H859 H 0.81781 0.04785 0.49252 0.0
C860 C 0.77374 0.12025 0.53726 0.0
C861 C 0.80002 0.14564 0.52339 0.0
C862 C 0.75662 0.08446 0.53164 0.0
C863 C 0.76555 0.07334 0.51212 0.0
C864 C 0.79174 0.09857 0.49823 0.0
H865 H 0.63734 0.8725 0.44531 0.0
H866 H 0.67029 0.9349 0.45566 0.0
C867 C 0.80892 0.13438 0.50384 0.0
C868 C 0.74646 0.03547 0.50592 0.0
H869 H 0.75796 0.96541 0.49447 0.0
C870 C 0.70974 0.01862 0.50291 0.0
C871 C 0.76403 0.01597 0.50319 0.0
C872 C 0.80317 0.03224 0.50726 0.0
C873 C 0.69014 0.98286 0.49694 0.0
C874 C 0.70787 0.96363 0.49354 0.0
C875 C 0.74451 0.98034 0.49687 0.0
C876 C 0.6887 0.92595 0.48693 0.0
C877 C 0.65057 0.96582 0.49472 0.0
C878 C 0.68898 0.90035 0.50078 0.0
C879 C 0.67038 0.86468 0.49486 0.0
C880 C 0.65125 0.85397 0.47491 0.0
C881 C 0.65159 0.8798 0.46087 0.0
C882 C 0.67025 0.91547 0.4668 0.0
H883 H 0.6403 0.98134 0.50328 0.0
H884 H 0.64357 0.96418 0.47692 0.0
H885 H 0.63709 0.93862 0.50159 0.0
H886 H 0.70322 0.90793 0.51635 0.0
H887 H 0.67077 0.8455 0.50603 0.0
H888 H 0.82656 0.67122 0.8412 0.0
H889 H 0.79605 0.7031 0.85164 0.0
H890 H 0.73788 0.67197 0.79027 0.0
H891 H 0.76783 0.63958 0.7798 0.0
H892 H 0.79353 0.75834 0.83033 0.0
H893 H 0.66001 0.63994 0.83705 0.0
H894 H 0.69973 0.63707 0.83558 0.0
H895 H 0.68122 0.64417 0.81086 0.0
C896 C 0.80728 0.67112 0.82991 0.0
C897 C 0.79946 0.65264 0.80973 0.0
C898 C 0.7899 0.68939 0.8359 0.0
C899 C 0.76432 0.68941 0.82189 0.0
C900 C 0.75701 0.67166 0.80153 0.0
H901 H 0.67554 0.82783 0.82699 0.0
H902 H 0.70841 0.79793 0.81758 0.0
C903 C 0.7743 0.65332 0.79553 0.0
C904 C 0.74541 0.70814 0.82856 0.0
H905 H 0.66329 0.69571 0.83927 0.0
C906 C 0.76506 0.74468 0.83235 0.0
C907 C 0.70834 0.69012 0.83148 0.0
C908 C 0.68606 0.65061 0.82875 0.0
C909 C 0.74853 0.76383 0.8386 0.0
C910 C 0.71135 0.74598 0.8408 0.0
C911 C 0.69177 0.70935 0.83738 0.0
C912 C 0.69216 0.76474 0.84674 0.0
C913 C 0.77104 0.80286 0.84312 0.0
C914 C 0.67161 0.75553 0.86606 0.0
C915 C 0.65263 0.77241 0.87144 0.0
C916 C 0.65367 0.7987 0.85751 0.0
C917 C 0.67429 0.80783 0.83814 0.0
C918 C 0.69327 0.79092 0.83279 0.0
H919 H 0.79902 0.81056 0.84631 0.0
H920 H 0.7704 0.81784 0.82847 0.0
H921 H 0.76087 0.81076 0.85758 0.0
H922 H 0.67028 0.73525 0.87699 0.0
H923 H 0.63696 0.76467 0.88645 0.0
H924 H 0.87228 0.63894 0.22177 0.0
H925 H 0.93494 0.67281 0.21221 0.0
H926 H 0.9091 0.70638 0.15136 0.0
H927 H 0.84638 0.67306 0.16093 0.0
H928 H 0.96833 0.66469 0.17611 0.0
H929 H 0.98588 0.7994 0.17736 0.0
H930 H 0.94766 0.76167 0.1891 0.0
H931 H 0.95066 0.76911 0.15969 0.0
C932 C 0.87989 0.65371 0.20641 0.0
C933 C 0.85429 0.65337 0.19215 0.0
C934 C 0.91573 0.67304 0.20097 0.0
C935 C 0.92673 0.69252 0.18123 0.0
C936 C 0.90127 0.69217 0.16691 0.0
H937 H 0.12747 0.76608 0.11488 0.0
H938 H 0.06528 0.73624 0.12566 0.0
C939 C 0.8654 0.67292 0.17235 0.0
C940 C 0.96472 0.71201 0.17525 0.0
H941 H 0.03332 0.79389 0.16245 0.0
C942 C 0.98258 0.69296 0.17321 0.0
C943 C 0.98335 0.74896 0.17172 0.0
C944 C 0.96605 0.77109 0.17478 0.0
C945 C 0.01843 0.70974 0.16737 0.0
C946 C 0.03674 0.74647 0.16308 0.0
C947 C 0.01909 0.76566 0.16552 0.0
C948 C 0.07431 0.76543 0.1562 0.0
C949 C 0.03652 0.68808 0.16615 0.0
C950 C 0.09989 0.79249 0.16946 0.0
C951 C 0.13549 0.80978 0.16329 0.0
C952 C 0.14612 0.80042 0.14366 0.0
C953 C 0.12026 0.7738 0.13018 0.0
C954 C 0.0847 0.75657 0.13636 0.0
H955 H 0.02167 0.66282 0.17538 0.0
H956 H 0.03825 0.68167 0.14858 0.0
H957 H 0.06375 0.70298 0.17292 0.0
H958 H 0.09236 0.79985 0.18478 0.0
H959 H 0.15469 0.83023 0.17402 0.0
H960 H 0.16808 0.84677 0.49423 0.0
H961 H 0.19875 0.90922 0.48391 0.0
H962 H 0.2641 0.93463 0.54215 0.0
H963 H 0.234 0.87222 0.55246 0.0
H964 H 0.20561 0.96758 0.50669 0.0
H965 H 0.33635 0.97918 0.49217 0.0
H966 H 0.29625 0.93711 0.49485 0.0
H967 H 0.31819 0.96254 0.51909 0.0
C968 C 0.18899 0.86561 0.50486 0.0
C969 C 0.19875 0.85445 0.5241 0.0
C970 C 0.20645 0.90129 0.49894 0.0
C971 C 0.23406 0.92645 0.51207 0.0
C972 C 0.24336 0.91553 0.53153 0.0
H973 H 0.32656 0.15443 0.50784 0.0
H974 H 0.29358 0.09177 0.51753 0.0
C975 C 0.22598 0.87986 0.53746 0.0
C976 C 0.253 0.96412 0.50544 0.0
H977 H 0.33452 0.03253 0.49191 0.0
C978 C 0.23378 0.9818 0.50339 0.0
C979 C 0.28965 0.98242 0.50085 0.0
C980 C 0.31132 0.96431 0.50163 0.0
C981 C 0.25035 0.01752 0.49722 0.0
C982 C 0.28721 0.03613 0.49336 0.0
C983 C 0.30631 0.01828 0.49507 0.0
C984 C 0.30652 0.07407 0.48733 0.0
C985 C 0.22816 0.03484 0.49453 0.0
C986 C 0.32534 0.08498 0.46735 0.0
C987 C 0.34446 0.12079 0.46183 0.0
C988 C 0.34523 0.14641 0.47626 0.0
C989 C 0.32634 0.13538 0.49629 0.0
C990 C 0.30729 0.09955 0.5018 0.0
H991 H 0.19977 0.01502 0.49223 0.0
H992 H 0.23059 0.05033 0.50964 0.0
H993 H 0.2372 0.05314 0.48016 0.0
H994 H 0.32522 0.06573 0.45599 0.0
H995 H 0.35874 0.12835 0.4463 0.0
H996 H 0.15746 0.30798 0.83057 0.0
H997 H 0.1873 0.27528 0.84061 0.0
H998 H 0.27651 0.34541 0.80015 0.0
H999 H 0.24617 0.37721 0.78931 0.0
H1000 H 0.26131 0.28008 0.79399 0.0
H1001 H 0.26536 0.30375 0.8843 0.0
H1002 H 0.22118 0.28194 0.87362 0.0
H1003 H 0.25226 0.32613 0.86469 0.0
C1004 C 0.18346 0.31643 0.82385 0.0
C1005 C 0.19954 0.34525 0.80922 0.0
C1006 C 0.20061 0.29789 0.82973 0.0
C1007 C 0.23452 0.30836 0.82155 0.0
C1008 C 0.25043 0.33692 0.80676 0.0
H1009 H 0.37832 0.24576 0.87631 0.0
H1010 H 0.34635 0.27612 0.86582 0.0
C1011 C 0.23306 0.35508 0.80058 0.0
C1012 C 0.25325 0.28923 0.82799 0.0
H1013 H 0.28136 0.26173 0.87249 0.0
C1014 C 0.26583 0.27621 0.81116 0.0
C1015 C 0.25965 0.28463 0.85039 0.0
C1016 C 0.24924 0.30017 0.86927 0.0
C1017 C 0.28445 0.25862 0.81608 0.0
C1018 C 0.28952 0.25269 0.83849 0.0
C1019 C 0.27711 0.26588 0.85531 0.0
C1020 C 0.30854 0.23384 0.84489 0.0
C1021 C 0.29936 0.24757 0.79716 0.0
C1022 C 0.29766 0.19974 0.8369 0.0
C1023 C 0.31629 0.18259 0.84257 0.0
C1024 C 0.34562 0.19887 0.85679 0.0
C1025 C 0.3558 0.23252 0.86533 0.0
C1026 C 0.33754 0.24989 0.85935 0.0
H1027 H 0.30272 0.26339 0.78202 0.0
H1028 H 0.32534 0.25045 0.80155 0.0
H1029 H 0.28083 0.21947 0.79309 0.0
H1030 H 0.27471 0.18632 0.8263 0.0
H1031 H 0.30756 0.15648 0.83595 0.0
loop_
_geom_bond_atom_site_label_1
_geom_bond_atom_site_label_2
_geom_bond_distance
_geom_bond_site_symmetry_2
_ccdc_geom_bond_type
C0 O2 1.247 . S
C0 O4 1.258 . S
C1 O8 1.247 . S
C1 O9 1.258 . S
O2 C0 1.247 . S
O2 Zn3 2.028 . S
Zn3 O2 2.028 . S
Zn3 O7 2.035 . S
Zn3 O9 2.035 . S
Zn3 O10 2.028 . S
O4 C0 1.258 . S
O4 Zn5 2.035 . S
Zn5 O4 2.035 . S
Zn5 O6 2.028 . S
Zn5 O8 2.028 . S
Zn5 O11 2.035 . S
O6 Zn5 2.028 . S
O6 C12 1.247 . S
O7 Zn3 2.035 . S
O7 C12 1.258 . S
O8 C1 1.247 . S
O8 Zn5 2.028 . S
O9 C1 1.258 . S
O9 Zn3 2.035 . S
O10 Zn3 2.028 . S
O10 C13 1.247 . S
O11 Zn5 2.035 . S
O11 C13 1.258 . S
C12 O6 1.247 . S
C12 O7 1.258 . S
C13 O10 1.247 . S
C13 O11 1.258 . S
C14 O16 1.247 . S
C14 O18 1.258 . S
C15 O22 1.247 . S
C15 O23 1.258 . S
O16 C14 1.247 . S
O16 Zn17 2.028 . S
Zn17 O16 2.028 . S
Zn17 O21 2.035 . S
Zn17 O23 2.035 . S
Zn17 O24 2.028 . S
O18 C14 1.258 . S
O18 Zn19 2.035 . S
Zn19 O18 2.035 . S
Zn19 O20 2.028 . S
Zn19 O22 2.028 . S
Zn19 O25 2.035 . S
O20 Zn19 2.028 . S
O20 C26 1.247 . S
O21 Zn17 2.035 . S
O21 C26 1.258 . S
O22 C15 1.247 . S
O22 Zn19 2.028 . S
O23 C15 1.258 . S
O23 Zn17 2.035 . S
O24 Zn17 2.028 . S
O24 C27 1.247 . S
O25 Zn19 2.035 . S
O25 C27 1.258 . S
C26 O20 1.247 . S
C26 O21 1.258 . S
C27 O24 1.247 . S
C27 O25 1.258 . S
C28 O30 1.247 . S
C28 O32 1.258 . S
C29 O36 1.247 . S
C29 O37 1.258 . S
O30 C28 1.247 . S
O30 Zn31 2.028 . S
Zn31 O30 2.028 . S
Zn31 O35 2.035 . S
Zn31 O37 2.035 . S
Zn31 O38 2.028 . S
O32 C28 1.258 . S
O32 Zn33 2.035 . S
Zn33 O32 2.035 . S
Zn33 O34 2.028 . S
Zn33 O36 2.028 . S
Zn33 O39 2.035 . S
O34 Zn33 2.028 . S
O34 C40 1.247 . S
O35 Zn31 2.035 . S
O35 C40 1.258 . S
O36 C29 1.247 . S
O36 Zn33 2.028 . S
O37 C29 1.258 . S
O37 Zn31 2.035 . S
O38 Zn31 2.028 . S
O38 C41 1.247 . S
O39 Zn33 2.035 . S
O39 C41 1.258 . S
C40 O34 1.247 . S
C40 O35 1.258 . S
C41 O38 1.247 . S
C41 O39 1.258 . S
C42 O44 1.247 . S
C42 O46 1.258 . S
C43 O50 1.247 . S
C43 O51 1.258 . S
O44 C42 1.247 . S
O44 Zn45 2.028 . S
Zn45 O44 2.028 . S
Zn45 O49 2.035 . S
Zn45 O51 2.035 . S
Zn45 O52 2.028 . S
O46 C42 1.258 . S
O46 Zn47 2.035 . S
Zn47 O46 2.035 . S
Zn47 O48 2.028 . S
Zn47 O50 2.028 . S
Zn47 O53 2.035 . S
O48 Zn47 2.028 . S
O48 C54 1.247 . S
O49 Zn45 2.035 . S
O49 C54 1.258 . S
O50 C43 1.247 . S
O50 Zn47 2.028 . S
O51 C43 1.258 . S
O51 Zn45 2.035 . S
O52 Zn45 2.028 . S
O52 C55 1.247 . S
O53 Zn47 2.035 . S
O53 C55 1.258 . S
C54 O48 1.247 . S
C54 O49 1.258 . S
C55 O52 1.247 . S
C55 O53 1.258 . S
C56 O58 1.247 . S
C56 O60 1.258 . S
C57 O64 1.247 . S
C57 O65 1.258 . S
O58 C56 1.247 . S
O58 Zn59 2.028 . S
Zn59 O58 2.028 . S
Zn59 O63 2.035 . S
Zn59 O65 2.035 . S
Zn59 O66 2.028 . S
O60 C56 1.258 . S
O60 Zn61 2.035 . S
Zn61 O60 2.035 . S
Zn61 O62 2.028 . S
Zn61 O64 2.028 . S
Zn61 O67 2.035 . S
O62 Zn61 2.028 . S
O62 C68 1.247 . S
O63 Zn59 2.035 . S
O63 C68 1.258 . S
O64 C57 1.247 . S
O64 Zn61 2.028 . S
O65 C57 1.258 . S
O65 Zn59 2.035 . S
O66 Zn59 2.028 . S
O66 C69 1.247 . S
O67 Zn61 2.035 . S
O67 C69 1.258 . S
C68 O62 1.247 . S
C68 O63 1.258 . S
C69 O66 1.247 . S
C69 O67 1.258 . S
C70 O72 1.247 . S
C70 O74 1.258 . S
C71 O78 1.247 . S
C71 O79 1.258 . S
O72 C70 1.247 . S
O72 Zn73 2.028 . S
Zn73 O72 2.028 . S
Zn73 O77 2.035 . S
Zn73 O79 2.035 . S
Zn73 O80 2.028 . S
O74 C70 1.258 . S
O74 Zn75 2.035 . S
Zn75 O74 2.035 . S
Zn75 O76 2.028 . S
Zn75 O78 2.028 . S
Zn75 O81 2.035 . S
O76 Zn75 2.028 . S
O76 C82 1.247 . S
O77 Zn73 2.035 . S
O77 C82 1.258 . S
O78 C71 1.247 . S
O78 Zn75 2.028 . S
O79 C71 1.258 . S
O79 Zn73 2.035 . S
O80 Zn73 2.028 . S
O80 C83 1.247 . S
O81 Zn75 2.035 . S
O81 C83 1.258 . S
C82 O76 1.247 . S
C82 O77 1.258 . S
C83 O80 1.247 . S
C83 O81 1.258 . S
C84 O86 1.247 . S
C84 O88 1.258 . S
C85 O92 1.247 . S
C85 O93 1.258 . S
O86 C84 1.247 . S
O86 Zn87 2.028 . S
Zn87 O86 2.028 . S
Zn87 O91 2.035 . S
Zn87 O93 2.035 . S
Zn87 O94 2.028 . S
O88 C84 1.258 . S
O88 Zn89 2.035 . S
Zn89 O88 2.035 . S
Zn89 O90 2.028 . S
Zn89 O92 2.028 . S
Zn89 O95 2.035 . S
O90 Zn89 2.028 . S
O90 C96 1.247 . S
O91 Zn87 2.035 . S
O91 C96 1.258 . S
O92 C85 1.247 . S
O92 Zn89 2.028 . S
O93 C85 1.258 . S
O93 Zn87 2.035 . S
O94 Zn87 2.028 . S
O94 C97 1.247 . S
O95 Zn89 2.035 . S
O95 C97 1.258 . S
C96 O90 1.247 . S
C96 O91 1.258 . S
C97 O94 1.247 . S
C97 O95 1.258 . S
C98 O100 1.247 . S
C98 O102 1.258 . S
C99 O106 1.247 . S
C99 O107 1.258 . S
O100 C98 1.247 . S
O100 Zn101 2.028 . S
Zn101 O100 2.028 . S
Zn101 O105 2.035 . S
Zn101 O107 2.035 . S
Zn101 O108 2.028 . S
O102 C98 1.258 . S
O102 Zn103 2.035 . S
Zn103 O102 2.035 . S
Zn103 O104 2.028 . S
Zn103 O106 2.028 . S
Zn103 O109 2.035 . S
O104 Zn103 2.028 . S
O104 C110 1.247 . S
O105 Zn101 2.035 . S
O105 C110 1.258 . S
O106 C99 1.247 . S
O106 Zn103 2.028 . S
O107 C99 1.258 . S
O107 Zn101 2.035 . S
O108 Zn101 2.028 . S
O108 C111 1.247 . S
O109 Zn103 2.035 . S
O109 C111 1.258 . S
C110 O104 1.247 . S
C110 O105 1.258 . S
C111 O108 1.247 . S
C111 O109 1.258 . S
C112 O114 1.247 . S
C112 O116 1.258 . S
C113 O120 1.247 . S
C113 O121 1.258 . S
O114 C112 1.247 . S
O114 Zn115 2.028 . S
Zn115 O114 2.028 . S
Zn115 O119 2.035 . S
Zn115 O121 2.035 . S
Zn115 O122 2.028 . S
O116 C112 1.258 . S
O116 Zn117 2.035 . S
Zn117 O116 2.035 . S
Zn117 O118 2.028 . S
Zn117 O120 2.028 . S
Zn117 O123 2.035 . S
O118 Zn117 2.028 . S
O118 C124 1.247 . S
O119 Zn115 2.035 . S
O119 C124 1.258 . S
O120 C113 1.247 . S
O120 Zn117 2.028 . S
O121 C113 1.258 . S
O121 Zn115 2.035 . S
O122 Zn115 2.028 . S
O122 C125 1.247 . S
O123 Zn117 2.035 . S
O123 C125 1.258 . S
C124 O118 1.247 . S
C124 O119 1.258 . S
C125 O122 1.247 . S
C125 O123 1.258 . S
C126 O128 1.247 . S
C126 O130 1.258 . S
C127 O134 1.247 . S
C127 O135 1.258 . S
O128 C126 1.247 . S
O128 Zn129 2.028 . S
Zn129 O128 2.028 . S
Zn129 O133 2.035 . S
Zn129 O135 2.035 . S
Zn129 O136 2.028 . S
O130 C126 1.258 . S
O130 Zn131 2.035 . S
Zn131 O130 2.035 . S
Zn131 O132 2.028 . S
Zn131 O134 2.028 . S
Zn131 O137 2.035 . S
O132 Zn131 2.028 . S
O132 C138 1.247 . S
O133 Zn129 2.035 . S
O133 C138 1.258 . S
O134 C127 1.247 . S
O134 Zn131 2.028 . S
O135 C127 1.258 . S
O135 Zn129 2.035 . S
O136 Zn129 2.028 . S
O136 C139 1.247 . S
O137 Zn131 2.035 . S
O137 C139 1.258 . S
C138 O132 1.247 . S
C138 O133 1.258 . S
C139 O136 1.247 . S
C139 O137 1.258 . S
C140 O142 1.247 . S
C140 O144 1.258 . S
C141 O148 1.247 . S
C141 O149 1.258 . S
O142 C140 1.247 . S
O142 Zn143 2.028 . S
Zn143 O142 2.028 . S
Zn143 O147 2.035 . S
Zn143 O149 2.035 . S
Zn143 O150 2.028 . S
O144 C140 1.258 . S
O144 Zn145 2.035 . S
Zn145 O144 2.035 . S
Zn145 O146 2.028 . S
Zn145 O148 2.028 . S
Zn145 O151 2.035 . S
O146 Zn145 2.028 . S
O146 C152 1.247 . S
O147 Zn143 2.035 . S
O147 C152 1.258 . S
O148 C141 1.247 . S
O148 Zn145 2.028 . S
O149 C141 1.258 . S
O149 Zn143 2.035 . S
O150 Zn143 2.028 . S
O150 C153 1.247 . S
O151 Zn145 2.035 . S
O151 C153 1.258 . S
C152 O146 1.247 . S
C152 O147 1.258 . S
C153 O150 1.247 . S
C153 O151 1.258 . S
C154 O156 1.247 . S
C154 O158 1.258 . S
C155 O162 1.247 . S
C155 O163 1.258 . S
O156 C154 1.247 . S
O156 Zn157 2.028 . S
Zn157 O156 2.028 . S
Zn157 O161 2.035 . S
Zn157 O163 2.035 . S
Zn157 O164 2.028 . S
O158 C154 1.258 . S
O158 Zn159 2.035 . S
Zn159 O158 2.035 . S
Zn159 O160 2.028 . S
Zn159 O162 2.028 . S
Zn159 O165 2.035 . S
O160 Zn159 2.028 . S
O160 C166 1.247 . S
O161 Zn157 2.035 . S
O161 C166 1.258 . S
O162 C155 1.247 . S
O162 Zn159 2.028 . S
O163 C155 1.258 . S
O163 Zn157 2.035 . S
O164 Zn157 2.028 . S
O164 C167 1.247 . S
O165 Zn159 2.035 . S
O165 C167 1.258 . S
C166 O160 1.247 . S
C166 O161 1.258 . S
C167 O164 1.247 . S
C167 O165 1.258 . S
H168 C176 0.929 . S
H169 C178 0.930 . S
H170 C180 0.930 . S
H171 C183 0.929 . S
H172 C186 0.930 . S
H173 C188 0.960 . S
H174 C188 0.960 . S
H175 C188 0.960 . S
C176 H168 0.929 . S
C176 C177 1.377 . S
C176 C178 1.384 . S
C177 C176 1.377 . S
C177 C183 1.390 . S
C178 H169 0.930 . S
C178 C176 1.384 . S
C178 C179 1.372 . S
C179 C178 1.372 . S
C179 C180 1.400 . S
C179 C184 1.490 . S
C180 H170 0.930 . S
C180 C179 1.400 . S
C180 C183 1.386 . S
H181 C197 0.930 . S
H182 C198 0.931 . S
C183 H171 0.929 . S
C183 C177 1.390 . S
C183 C180 1.386 . S
C184 C179 1.490 . S
C184 C186 1.395 . S
C184 C187 1.403 . S
H185 C191 0.930 . S
C186 H172 0.930 . S
C186 C184 1.395 . S
C186 C189 1.403 . S
C187 C184 1.403 . S
C187 C188 1.524 . S
C187 C191 1.400 . S
C188 H173 0.960 . S
C188 H174 0.960 . S
C188 H175 0.960 . S
C188 C187 1.524 . S
C189 C186 1.403 . S
C189 C190 1.392 . S
C189 C193 1.495 . S
C190 C189 1.392 . S
C190 C191 1.385 . S
C190 C192 1.478 . S
C191 H185 0.930 . S
C191 C187 1.400 . S
C191 C190 1.385 . S
C192 C190 1.478 . S
C192 C194 1.381 . S
C192 C198 1.383 . S
C193 C189 1.495 . S
C193 H199 0.959 . S
C193 H200 0.961 . S
C193 H201 0.960 . S
C194 C192 1.381 . S
C194 C195 1.394 . S
C194 H202 0.930 . S
C195 C194 1.394 . S
C195 C196 1.383 . S
C195 H203 0.929 . S
C196 C195 1.383 . S
C196 C197 1.377 . S
C197 H181 0.930 . S
C197 C196 1.377 . S
C197 C198 1.379 . S
C198 H182 0.931 . S
C198 C192 1.383 . S
C198 C197 1.379 . S
H199 C193 0.959 . S
H200 C193 0.961 . S
H201 C193 0.960 . S
H202 C194 0.930 . S
H203 C195 0.929 . S
H204 C212 0.929 . S
H205 C214 0.930 . S
H206 C216 0.930 . S
H207 C219 0.929 . S
H208 C222 0.930 . S
H209 C224 0.960 . S
H210 C224 0.960 . S
H211 C224 0.960 . S
C212 H204 0.929 . S
C212 C213 1.377 . S
C212 C214 1.384 . S
C213 C212 1.377 . S
C213 C219 1.390 . S
C214 H205 0.930 . S
C214 C212 1.384 . S
C214 C215 1.372 . S
C215 C214 1.372 . S
C215 C216 1.400 . S
C215 C220 1.490 . S
C216 H206 0.930 . S
C216 C215 1.400 . S
C216 C219 1.386 . S
H217 C233 0.930 . S
H218 C234 0.931 . S
C219 H207 0.929 . S
C219 C213 1.390 . S
C219 C216 1.386 . S
C220 C215 1.490 . S
C220 C222 1.395 . S
C220 C223 1.403 . S
H221 C227 0.930 . S
C222 H208 0.930 . S
C222 C220 1.395 . S
C222 C225 1.403 . S
C223 C220 1.403 . S
C223 C224 1.524 . S
C223 C227 1.400 . S
C224 H209 0.960 . S
C224 H210 0.960 . S
C224 H211 0.960 . S
C224 C223 1.524 . S
C225 C222 1.403 . S
C225 C226 1.392 . S
C225 C229 1.495 . S
C226 C225 1.392 . S
C226 C227 1.385 . S
C226 C228 1.478 . S
C227 H221 0.930 . S
C227 C223 1.400 . S
C227 C226 1.385 . S
C228 C226 1.478 . S
C228 C230 1.381 . S
C228 C234 1.383 . S
C229 C225 1.495 . S
C229 H235 0.959 . S
C229 H236 0.961 . S
C229 H237 0.960 . S
C230 C228 1.381 . S
C230 C231 1.394 . S
C230 H238 0.930 . S
C231 C230 1.394 . S
C231 C232 1.383 . S
C231 H239 0.929 . S
C232 C231 1.383 . S
C232 C233 1.377 . S
C233 H217 0.930 . S
C233 C232 1.377 . S
C233 C234 1.379 . S
C234 H218 0.931 . S
C234 C228 1.383 . S
C234 C233 1.379 . S
H235 C229 0.959 . S
H236 C229 0.961 . S
H237 C229 0.960 . S
H238 C230 0.930 . S
H239 C231 0.929 . S
H240 C248 0.929 . S
H241 C250 0.930 . S
H242 C252 0.930 . S
H243 C255 0.929 . S
H244 C258 0.930 . S
H245 C260 0.960 . S
H246 C260 0.960 . S
H247 C260 0.960 . S
C248 H240 0.929 . S
C248 C249 1.377 . S
C248 C250 1.384 . S
C249 C248 1.377 . S
C249 C255 1.390 . S
C250 H241 0.930 . S
C250 C248 1.384 . S
C250 C251 1.372 . S
C251 C250 1.372 . S
C251 C252 1.400 . S
C251 C256 1.490 . S
C252 H242 0.930 . S
C252 C251 1.400 . S
C252 C255 1.386 . S
H253 C269 0.930 . S
H254 C270 0.931 . S
C255 H243 0.929 . S
C255 C249 1.390 . S
C255 C252 1.386 . S
C256 C251 1.490 . S
C256 C258 1.395 . S
C256 C259 1.403 . S
H257 C263 0.930 . S
C258 H244 0.930 . S
C258 C256 1.395 . S
C258 C261 1.403 . S
C259 C256 1.403 . S
C259 C260 1.524 . S
C259 C263 1.400 . S
C260 H245 0.960 . S
C260 H246 0.960 . S
C260 H247 0.960 . S
C260 C259 1.524 . S
C261 C258 1.403 . S
C261 C262 1.392 . S
C261 C265 1.495 . S
C262 C261 1.392 . S
C262 C263 1.385 . S
C262 C264 1.478 . S
C263 H257 0.930 . S
C263 C259 1.400 . S
C263 C262 1.385 . S
C264 C262 1.478 . S
C264 C266 1.381 . S
C264 C270 1.383 . S
C265 C261 1.495 . S
C265 H271 0.959 . S
C265 H272 0.961 . S
C265 H273 0.960 . S
C266 C264 1.381 . S
C266 C267 1.394 . S
C266 H274 0.930 . S
C267 C266 1.394 . S
C267 C268 1.383 . S
C267 H275 0.929 . S
C268 C267 1.383 . S
C268 C269 1.377 . S
C269 H253 0.930 . S
C269 C268 1.377 . S
C269 C270 1.379 . S
C270 H254 0.931 . S
C270 C264 1.383 . S
C270 C269 1.379 . S
H271 C265 0.959 . S
H272 C265 0.961 . S
H273 C265 0.960 . S
H274 C266 0.930 . S
H275 C267 0.929 . S
H276 C284 0.929 . S
H277 C286 0.930 . S
H278 C288 0.930 . S
H279 C291 0.929 . S
H280 C294 0.930 . S
H281 C296 0.960 . S
H282 C296 0.960 . S
H283 C296 0.960 . S
C284 H276 0.929 . S
C284 C285 1.377 . S
C284 C286 1.384 . S
C285 C284 1.377 . S
C285 C291 1.390 . S
C286 H277 0.930 . S
C286 C284 1.384 . S
C286 C287 1.372 . S
C287 C286 1.372 . S
C287 C288 1.400 . S
C287 C292 1.490 . S
C288 H278 0.930 . S
C288 C287 1.400 . S
C288 C291 1.386 . S
H289 C305 0.930 . S
H290 C306 0.931 . S
C291 H279 0.929 . S
C291 C285 1.390 . S
C291 C288 1.386 . S
C292 C287 1.490 . S
C292 C294 1.395 . S
C292 C295 1.403 . S
H293 C299 0.930 . S
C294 H280 0.930 . S
C294 C292 1.395 . S
C294 C297 1.403 . S
C295 C292 1.403 . S
C295 C296 1.524 . S
C295 C299 1.400 . S
C296 H281 0.960 . S
C296 H282 0.960 . S
C296 H283 0.960 . S
C296 C295 1.524 . S
C297 C294 1.403 . S
C297 C298 1.392 . S
C297 C301 1.495 . S
C298 C297 1.392 . S
C298 C299 1.385 . S
C298 C300 1.478 . S
C299 H293 0.930 . S
C299 C295 1.400 . S
C299 C298 1.385 . S
C300 C298 1.478 . S
C300 C302 1.381 . S
C300 C306 1.383 . S
C301 C297 1.495 . S
C301 H307 0.959 . S
C301 H308 0.961 . S
C301 H309 0.960 . S
C302 C300 1.381 . S
C302 C303 1.394 . S
C302 H310 0.930 . S
C303 C302 1.394 . S
C303 C304 1.383 . S
C303 H311 0.929 . S
C304 C303 1.383 . S
C304 C305 1.377 . S
C305 H289 0.930 . S
C305 C304 1.377 . S
C305 C306 1.379 . S
C306 H290 0.931 . S
C306 C300 1.383 . S
C306 C305 1.379 . S
H307 C301 0.959 . S
H308 C301 0.961 . S
H309 C301 0.960 . S
H310 C302 0.930 . S
H311 C303 0.929 . S
H312 C320 0.929 . S
H313 C322 0.930 . S
H314 C324 0.930 . S
H315 C327 0.929 . S
H316 C330 0.930 . S
H317 C332 0.960 . S
H318 C332 0.960 . S
H319 C332 0.960 . S
C320 H312 0.929 . S
C320 C321 1.377 . S
C320 C322 1.384 . S
C321 C320 1.377 . S
C321 C327 1.390 . S
C322 H313 0.930 . S
C322 C320 1.384 . S
C322 C323 1.372 . S
C323 C322 1.372 . S
C323 C324 1.400 . S
C323 C328 1.490 . S
C324 H314 0.930 . S
C324 C323 1.400 . S
C324 C327 1.386 . S
H325 C341 0.930 . S
H326 C342 0.931 . S
C327 H315 0.929 . S
C327 C321 1.390 . S
C327 C324 1.386 . S
C328 C323 1.490 . S
C328 C330 1.395 . S
C328 C331 1.403 . S
H329 C335 0.930 . S
C330 H316 0.930 . S
C330 C328 1.395 . S
C330 C333 1.403 . S
C331 C328 1.403 . S
C331 C332 1.524 . S
C331 C335 1.400 . S
C332 H317 0.960 . S
C332 H318 0.960 . S
C332 H319 0.960 . S
C332 C331 1.524 . S
C333 C330 1.403 . S
C333 C334 1.392 . S
C333 C337 1.495 . S
C334 C333 1.392 . S
C334 C335 1.385 . S
C334 C336 1.478 . S
C335 H329 0.930 . S
C335 C331 1.400 . S
C335 C334 1.385 . S
C336 C334 1.478 . S
C336 C338 1.381 . S
C336 C342 1.383 . S
C337 C333 1.495 . S
C337 H343 0.959 . S
C337 H344 0.961 . S
C337 H345 0.960 . S
C338 C336 1.381 . S
C338 C339 1.394 . S
C338 H346 0.930 . S
C339 C338 1.394 . S
C339 C340 1.383 . S
C339 H347 0.929 . S
C340 C339 1.383 . S
C340 C341 1.377 . S
C341 H325 0.930 . S
C341 C340 1.377 . S
C341 C342 1.379 . S
C342 H326 0.931 . S
C342 C336 1.383 . S
C342 C341 1.379 . S
H343 C337 0.959 . S
H344 C337 0.961 . S
H345 C337 0.960 . S
H346 C338 0.930 . S
H347 C339 0.929 . S
H348 C356 0.929 . S
H349 C358 0.930 . S
H350 C360 0.930 . S
H351 C363 0.929 . S
H352 C366 0.930 . S
H353 C368 0.960 . S
H354 C368 0.960 . S
H355 C368 0.960 . S
C356 H348 0.929 . S
C356 C357 1.377 . S
C356 C358 1.384 . S
C357 C356 1.377 . S
C357 C363 1.390 . S
C358 H349 0.930 . S
C358 C356 1.384 . S
C358 C359 1.372 . S
C359 C358 1.372 . S
C359 C360 1.400 . S
C359 C364 1.490 . S
C360 H350 0.930 . S
C360 C359 1.400 . S
C360 C363 1.386 . S
H361 C377 0.930 . S
H362 C378 0.931 . S
C363 H351 0.929 . S
C363 C357 1.390 . S
C363 C360 1.386 . S
C364 C359 1.490 . S
C364 C366 1.395 . S
C364 C367 1.403 . S
H365 C371 0.930 . S
C366 H352 0.930 . S
C366 C364 1.395 . S
C366 C369 1.403 . S
C367 C364 1.403 . S
C367 C368 1.524 . S
C367 C371 1.400 . S
C368 H353 0.960 . S
C368 H354 0.960 . S
C368 H355 0.960 . S
C368 C367 1.524 . S
C369 C366 1.403 . S
C369 C370 1.392 . S
C369 C373 1.495 . S
C370 C369 1.392 . S
C370 C371 1.385 . S
C370 C372 1.478 . S
C371 H365 0.930 . S
C371 C367 1.400 . S
C371 C370 1.385 . S
C372 C370 1.478 . S
C372 C374 1.381 . S
C372 C378 1.383 . S
C373 C369 1.495 . S
C373 H379 0.959 . S
C373 H380 0.961 . S
C373 H381 0.960 . S
C374 C372 1.381 . S
C374 C375 1.394 . S
C374 H382 0.930 . S
C375 C374 1.394 . S
C375 C376 1.383 . S
C375 H383 0.929 . S
C376 C375 1.383 . S
C376 C377 1.377 . S
C377 H361 0.930 . S
C377 C376 1.377 . S
C377 C378 1.379 . S
C378 H362 0.931 . S
C378 C372 1.383 . S
C378 C377 1.379 . S
H379 C373 0.959 . S
H380 C373 0.961 . S
H381 C373 0.960 . S
H382 C374 0.930 . S
H383 C375 0.929 . S
H384 C392 0.929 . S
H385 C394 0.930 . S
H386 C396 0.930 . S
H387 C399 0.929 . S
H388 C402 0.930 . S
H389 C404 0.960 . S
H390 C404 0.960 . S
H391 C404 0.960 . S
C392 H384 0.929 . S
C392 C393 1.377 . S
C392 C394 1.384 . S
C393 C392 1.377 . S
C393 C399 1.390 . S
C394 H385 0.930 . S
C394 C392 1.384 . S
C394 C395 1.372 . S
C395 C394 1.372 . S
C395 C396 1.400 . S
C395 C400 1.490 . S
C396 H386 0.930 . S
C396 C395 1.400 . S
C396 C399 1.386 . S
H397 C413 0.930 . S
H398 C414 0.931 . S
C399 H387 0.929 . S
C399 C393 1.390 . S
C399 C396 1.386 . S
C400 C395 1.490 . S
C400 C402 1.395 . S
C400 C403 1.403 . S
H401 C407 0.930 . S
C402 H388 0.930 . S
C402 C400 1.395 . S
C402 C405 1.403 . S
C403 C400 1.403 . S
C403 C404 1.524 . S
C403 C407 1.400 . S
C404 H389 0.960 . S
C404 H390 0.960 . S
C404 H391 0.960 . S
C404 C403 1.524 . S
C405 C402 1.403 . S
C405 C406 1.392 . S
C405 C409 1.495 . S
C406 C405 1.392 . S
C406 C407 1.385 . S
C406 C408 1.478 . S
C407 H401 0.930 . S
C407 C403 1.400 . S
C407 C406 1.385 . S
C408 C406 1.478 . S
C408 C410 1.381 . S
C408 C414 1.383 . S
C409 C405 1.495 . S
C409 H415 0.959 . S
C409 H416 0.961 . S
C409 H417 0.960 . S
C410 C408 1.381 . S
C410 C411 1.394 . S
C410 H418 0.930 . S
C411 C410 1.394 . S
C411 C412 1.383 . S
C411 H419 0.929 . S
C412 C411 1.383 . S
C412 C413 1.377 . S
C413 H397 0.930 . S
C413 C412 1.377 . S
C413 C414 1.379 . S
C414 H398 0.931 . S
C414 C408 1.383 . S
C414 C413 1.379 . S
H415 C409 0.959 . S
H416 C409 0.961 . S
H417 C409 0.960 . S
H418 C410 0.930 . S
H419 C411 0.929 . S
H420 C428 0.929 . S
H421 C430 0.930 . S
H422 C432 0.930 . S
H423 C435 0.929 . S
H424 C438 0.930 . S
H425 C440 0.960 . S
H426 C440 0.960 . S
H427 C440 0.960 . S
C428 H420 0.929 . S
C428 C429 1.377 . S
C428 C430 1.384 . S
C429 C428 1.377 . S
C429 C435 1.390 . S
C430 H421 0.930 . S
C430 C428 1.384 . S
C430 C431 1.372 . S
C431 C430 1.372 . S
C431 C432 1.400 . S
C431 C436 1.490 . S
C432 H422 0.930 . S
C432 C431 1.400 . S
C432 C435 1.386 . S
H433 C449 0.930 . S
H434 C450 0.931 . S
C435 H423 0.929 . S
C435 C429 1.390 . S
C435 C432 1.386 . S
C436 C431 1.490 . S
C436 C438 1.395 1_455 S
C436 C439 1.403 . S
H437 C443 0.930 . S
C438 H424 0.930 . S
C438 C436 1.395 1_655 S
C438 C441 1.403 . S
C439 C436 1.403 . S
C439 C440 1.524 . S
C439 C443 1.400 . S
C440 H425 0.960 . S
C440 H426 0.960 . S
C440 H427 0.960 . S
C440 C439 1.524 . S
C441 C438 1.403 . S
C441 C442 1.392 . S
C441 C445 1.495 . S
C442 C441 1.392 . S
C442 C443 1.385 1_655 S
C442 C444 1.478 . S
C443 H437 0.930 . S
C443 C439 1.400 . S
C443 C442 1.385 1_455 S
C444 C442 1.478 . S
C444 C446 1.381 . S
C444 C450 1.383 . S
C445 C441 1.495 . S
C445 H451 0.959 . S
C445 H452 0.961 . S
C445 H453 0.960 . S
C446 C444 1.381 . S
C446 C447 1.394 . S
C446 H454 0.930 . S
C447 C446 1.394 . S
C447 C448 1.383 . S
C447 H455 0.929 . S
C448 C447 1.383 . S
C448 C449 1.377 . S
C449 H433 0.930 . S
C449 C448 1.377 . S
C449 C450 1.379 . S
C450 H434 0.931 . S
C450 C444 1.383 . S
C450 C449 1.379 . S
H451 C445 0.959 . S
H452 C445 0.961 . S
H453 C445 0.960 . S
H454 C446 0.930 . S
H455 C447 0.929 . S
H456 C464 0.929 . S
H457 C466 0.930 . S
H458 C468 0.930 . S
H459 C471 0.929 . S
H460 C474 0.930 . S
H461 C476 0.960 . S
H462 C476 0.960 . S
H463 C476 0.960 . S
C464 H456 0.929 . S
C464 C465 1.377 . S
C464 C466 1.384 . S
C465 C464 1.377 . S
C465 C471 1.390 . S
C466 H457 0.930 . S
C466 C464 1.384 . S
C466 C467 1.372 . S
C467 C466 1.372 . S
C467 C468 1.400 . S
C467 C472 1.490 . S
C468 H458 0.930 . S
C468 C467 1.400 . S
C468 C471 1.386 . S
H469 C485 0.930 . S
H470 C486 0.931 . S
C471 H459 0.929 . S
C471 C465 1.390 . S
C471 C468 1.386 . S
C472 C467 1.490 . S
C472 C474 1.395 . S
C472 C475 1.403 1_545 S
H473 C479 0.930 . S
C474 H460 0.930 . S
C474 C472 1.395 . S
C474 C477 1.403 . S
C475 C472 1.403 1_565 S
C475 C476 1.524 . S
C475 C479 1.400 . S
C476 H461 0.960 . S
C476 H462 0.960 . S
C476 H463 0.960 . S
C476 C475 1.524 . S
C477 C474 1.403 . S
C477 C478 1.392 1_545 S
C477 C481 1.495 . S
C478 C477 1.392 1_565 S
C478 C479 1.385 . S
C478 C480 1.478 . S
C479 H473 0.930 . S
C479 C475 1.400 . S
C479 C478 1.385 . S
C480 C478 1.478 . S
C480 C482 1.381 . S
C480 C486 1.383 . S
C481 C477 1.495 . S
C481 H487 0.959 . S
C481 H488 0.961 . S
C481 H489 0.960 . S
C482 C480 1.381 . S
C482 C483 1.394 . S
C482 H490 0.930 . S
C483 C482 1.394 . S
C483 C484 1.383 . S
C483 H491 0.929 . S
C484 C483 1.383 . S
C484 C485 1.377 . S
C485 H469 0.930 . S
C485 C484 1.377 . S
C485 C486 1.379 . S
C486 H470 0.931 . S
C486 C480 1.383 . S
C486 C485 1.379 . S
H487 C481 0.959 . S
H488 C481 0.961 . S
H489 C481 0.960 . S
H490 C482 0.930 . S
H491 C483 0.929 . S
H492 C500 0.929 . S
H493 C502 0.930 . S
H494 C504 0.930 . S
H495 C507 0.929 . S
H496 C510 0.930 . S
H497 C512 0.960 . S
H498 C512 0.960 . S
H499 C512 0.960 . S
C500 H492 0.929 . S
C500 C501 1.377 . S
C500 C502 1.384 . S
C501 C500 1.377 . S
C501 C507 1.390 . S
C502 H493 0.930 . S
C502 C500 1.384 . S
C502 C503 1.372 . S
C503 C502 1.372 . S
C503 C504 1.400 . S
C503 C508 1.490 . S
C504 H494 0.930 . S
C504 C503 1.400 . S
C504 C507 1.386 . S
H505 C521 0.930 . S
H506 C522 0.931 . S
C507 H495 0.929 . S
C507 C501 1.390 . S
C507 C504 1.386 . S
C508 C503 1.490 . S
C508 C510 1.395 . S
C508 C511 1.403 . S
H509 C515 0.930 . S
C510 H496 0.930 . S
C510 C508 1.395 . S
C510 C513 1.403 . S
C511 C508 1.403 . S
C511 C512 1.524 . S
C511 C515 1.400 . S
C512 H497 0.960 . S
C512 H498 0.960 . S
C512 H499 0.960 . S
C512 C511 1.524 . S
C513 C510 1.403 . S
C513 C514 1.392 . S
C513 C517 1.495 . S
C514 C513 1.392 . S
C514 C515 1.385 . S
C514 C516 1.478 . S
C515 H509 0.930 . S
C515 C511 1.400 . S
C515 C514 1.385 . S
C516 C514 1.478 . S
C516 C518 1.381 . S
C516 C522 1.383 . S
C517 C513 1.495 . S
C517 H523 0.959 . S
C517 H524 0.961 . S
C517 H525 0.960 . S
C518 C516 1.381 . S
C518 C519 1.394 . S
C518 H526 0.930 . S
C519 C518 1.394 . S
C519 C520 1.383 . S
C519 H527 0.929 . S
C520 C519 1.383 . S
C520 C521 1.377 . S
C521 H505 0.930 . S
C521 C520 1.377 . S
C521 C522 1.379 . S
C522 H506 0.931 . S
C522 C516 1.383 . S
C522 C521 1.379 . S
H523 C517 0.959 . S
H524 C517 0.961 . S
H525 C517 0.960 . S
H526 C518 0.930 . S
H527 C519 0.929 . S
H528 C536 0.929 . S
H529 C538 0.930 . S
H530 C540 0.930 . S
H531 C543 0.929 . S
H532 C546 0.930 . S
H533 C548 0.960 . S
H534 C548 0.960 . S
H535 C548 0.960 . S
C536 H528 0.929 . S
C536 C537 1.377 . S
C536 C538 1.384 . S
C537 C536 1.377 . S
C537 C543 1.390 . S
C538 H529 0.930 . S
C538 C536 1.384 . S
C538 C539 1.372 . S
C539 C538 1.372 . S
C539 C540 1.400 . S
C539 C544 1.490 . S
C540 H530 0.930 . S
C540 C539 1.400 . S
C540 C543 1.386 . S
H541 C557 0.930 . S
H542 C558 0.931 . S
C543 H531 0.929 . S
C543 C537 1.390 . S
C543 C540 1.386 . S
C544 C539 1.490 . S
C544 C546 1.395 1_655 S
C544 C547 1.403 . S
H545 C551 0.930 . S
C546 H532 0.930 . S
C546 C544 1.395 1_455 S
C546 C549 1.403 . S
C547 C544 1.403 . S
C547 C548 1.524 . S
C547 C551 1.400 . S
C548 H533 0.960 . S
C548 H534 0.960 . S
C548 H535 0.960 . S
C548 C547 1.524 . S
C549 C546 1.403 . S
C549 C550 1.392 . S
C549 C553 1.495 . S
C550 C549 1.392 . S
C550 C551 1.385 1_455 S
C550 C552 1.478 . S
C551 H545 0.930 . S
C551 C547 1.400 . S
C551 C550 1.385 1_655 S
C552 C550 1.478 . S
C552 C554 1.381 . S
C552 C558 1.383 . S
C553 C549 1.495 . S
C553 H559 0.959 . S
C553 H560 0.961 . S
C553 H561 0.960 . S
C554 C552 1.381 . S
C554 C555 1.394 . S
C554 H562 0.930 . S
C555 C554 1.394 . S
C555 C556 1.383 . S
C555 H563 0.929 . S
C556 C555 1.383 . S
C556 C557 1.377 . S
C557 H541 0.930 . S
C557 C556 1.377 . S
C557 C558 1.379 . S
C558 H542 0.931 . S
C558 C552 1.383 . S
C558 C557 1.379 . S
H559 C553 0.959 . S
H560 C553 0.961 . S
H561 C553 0.960 . S
H562 C554 0.930 . S
H563 C555 0.929 . S
H564 C572 0.929 . S
H565 C574 0.930 . S
H566 C576 0.930 . S
H567 C579 0.929 . S
H568 C582 0.930 . S
H569 C584 0.960 . S
H570 C584 0.960 . S
H571 C584 0.960 . S
C572 H564 0.929 . S
C572 C573 1.377 . S
C572 C574 1.384 . S
C573 C572 1.377 . S
C573 C579 1.390 . S
C574 H565 0.930 . S
C574 C572 1.384 . S
C574 C575 1.372 . S
C575 C574 1.372 . S
C575 C576 1.400 . S
C575 C580 1.490 . S
C576 H566 0.930 . S
C576 C575 1.400 . S
C576 C579 1.386 . S
H577 C593 0.930 . S
H578 C594 0.931 . S
C579 H567 0.929 . S
C579 C573 1.390 . S
C579 C576 1.386 . S
C580 C575 1.490 . S
C580 C582 1.395 . S
C580 C583 1.403 1_565 S
H581 C587 0.930 . S
C582 H568 0.930 . S
C582 C580 1.395 . S
C582 C585 1.403 . S
C583 C580 1.403 1_545 S
C583 C584 1.524 . S
C583 C587 1.400 . S
C584 H569 0.960 . S
C584 H570 0.960 . S
C584 H571 0.960 . S
C584 C583 1.524 . S
C585 C582 1.403 . S
C585 C586 1.392 1_565 S
C585 C589 1.495 . S
C586 C585 1.392 1_545 S
C586 C587 1.385 . S
C586 C588 1.478 . S
C587 H581 0.930 . S
C587 C583 1.400 . S
C587 C586 1.385 . S
C588 C586 1.478 . S
C588 C590 1.381 . S
C588 C594 1.383 . S
C589 C585 1.495 . S
C589 H595 0.959 . S
C589 H596 0.961 . S
C589 H597 0.960 . S
C590 C588 1.381 . S
C590 C591 1.394 . S
C590 H598 0.930 . S
C591 C590 1.394 . S
C591 C592 1.383 . S
C591 H599 0.929 . S
C592 C591 1.383 . S
C592 C593 1.377 . S
C593 H577 0.930 . S
C593 C592 1.377 . S
C593 C594 1.379 . S
C594 H578 0.931 . S
C594 C588 1.383 . S
C594 C593 1.379 . S
H595 C589 0.959 . S
H596 C589 0.961 . S
H597 C589 0.960 . S
H598 C590 0.930 . S
H599 C591 0.929 . S
H600 C608 0.929 . S
H601 C610 0.930 . S
H602 C612 0.930 . S
H603 C615 0.929 . S
H604 C618 0.930 . S
H605 C620 0.960 . S
H606 C620 0.960 . S
H607 C620 0.960 . S
C608 H600 0.929 . S
C608 C609 1.377 . S
C608 C610 1.384 . S
C609 C608 1.377 . S
C609 C615 1.390 . S
C610 H601 0.930 . S
C610 C608 1.384 . S
C610 C611 1.372 . S
C611 C610 1.372 . S
C611 C612 1.400 . S
C611 C616 1.490 . S
C612 H602 0.930 . S
C612 C611 1.400 . S
C612 C615 1.386 . S
H613 C629 0.930 . S
H614 C630 0.931 . S
C615 H603 0.929 . S
C615 C609 1.390 . S
C615 C612 1.386 . S
C616 C611 1.490 . S
C616 C618 1.395 . S
C616 C619 1.403 . S
H617 C623 0.930 . S
C618 H604 0.930 . S
C618 C616 1.395 . S
C618 C621 1.403 . S
C619 C616 1.403 . S
C619 C620 1.524 . S
C619 C623 1.400 . S
C620 H605 0.960 . S
C620 H606 0.960 . S
C620 H607 0.960 . S
C620 C619 1.524 . S
C621 C618 1.403 . S
C621 C622 1.392 . S
C621 C625 1.495 . S
C622 C621 1.392 . S
C622 C623 1.385 . S
C622 C624 1.478 . S
C623 H617 0.930 . S
C623 C619 1.400 . S
C623 C622 1.385 . S
C624 C622 1.478 . S
C624 C626 1.381 . S
C624 C630 1.383 . S
C625 C621 1.495 . S
C625 H631 0.959 . S
C625 H632 0.961 . S
C625 H633 0.960 . S
C626 C624 1.381 . S
C626 C627 1.394 . S
C626 H634 0.930 . S
C627 C626 1.394 . S
C627 C628 1.383 . S
C627 H635 0.929 . S
C628 C627 1.383 . S
C628 C629 1.377 . S
C629 H613 0.930 . S
C629 C628 1.377 . S
C629 C630 1.379 . S
C630 H614 0.931 . S
C630 C624 1.383 . S
C630 C629 1.379 . S
H631 C625 0.959 . S
H632 C625 0.961 . S
H633 C625 0.960 . S
H634 C626 0.930 . S
H635 C627 0.929 . S
H636 C644 0.929 . S
H637 C646 0.930 . S
H638 C648 0.930 1_455 S
H639 C651 0.929 . S
H640 C654 0.930 . S
H641 C656 0.960 . S
H642 C656 0.960 . S
H643 C656 0.960 . S
C644 H636 0.929 . S
C644 C645 1.377 . S
C644 C646 1.384 . S
C645 C644 1.377 . S
C645 C651 1.390 . S
C646 H637 0.930 . S
C646 C644 1.384 . S
C646 C647 1.372 . S
C647 C646 1.372 . S
C647 C648 1.400 . S
C647 C652 1.490 . S
C648 H638 0.930 1_655 S
C648 C647 1.400 . S
C648 C651 1.386 . S
H649 C665 0.930 . S
H650 C666 0.931 . S
C651 H639 0.929 . S
C651 C645 1.390 . S
C651 C648 1.386 . S
C652 C647 1.490 . S
C652 C654 1.395 . S
C652 C655 1.403 1_655 S
H653 C659 0.930 . S
C654 H640 0.930 . S
C654 C652 1.395 . S
C654 C657 1.403 . S
C655 C652 1.403 1_455 S
C655 C656 1.524 . S
C655 C659 1.400 . S
C656 H641 0.960 . S
C656 H642 0.960 . S
C656 H643 0.960 . S
C656 C655 1.524 . S
C657 C654 1.403 . S
C657 C658 1.392 1_655 S
C657 C661 1.495 . S
C658 C657 1.392 1_455 S
C658 C659 1.385 . S
C658 C660 1.478 . S
C659 H653 0.930 . S
C659 C655 1.400 . S
C659 C658 1.385 . S
C660 C658 1.478 . S
C660 C662 1.381 . S
C660 C666 1.383 . S
C661 C657 1.495 . S
C661 H667 0.959 . S
C661 H668 0.961 . S
C661 H669 0.960 . S
C662 C660 1.381 . S
C662 C663 1.394 . S
C662 H670 0.930 1_455 S
C663 C662 1.394 . S
C663 C664 1.383 . S
C663 H671 0.929 . S
C664 C663 1.383 . S
C664 C665 1.377 . S
C665 H649 0.930 . S
C665 C664 1.377 . S
C665 C666 1.379 . S
C666 H650 0.931 . S
C666 C660 1.383 . S
C666 C665 1.379 . S
H667 C661 0.959 . S
H668 C661 0.961 . S
H669 C661 0.960 . S
H670 C662 0.930 1_655 S
H671 C663 0.929 . S
H672 C680 0.929 . S
H673 C682 0.930 . S
H674 C684 0.930 . S
H675 C687 0.929 . S
H676 C690 0.930 . S
H677 C692 0.960 . S
H678 C692 0.960 . S
H679 C692 0.960 . S
C680 H672 0.929 . S
C680 C681 1.377 . S
C680 C682 1.384 . S
C681 C680 1.377 . S
C681 C687 1.390 . S
C682 H673 0.930 . S
C682 C680 1.384 . S
C682 C683 1.372 . S
C683 C682 1.372 . S
C683 C684 1.400 . S
C683 C688 1.490 . S
C684 H674 0.930 . S
C684 C683 1.400 . S
C684 C687 1.386 . S
H685 C701 0.930 . S
H686 C702 0.931 . S
C687 H675 0.929 . S
C687 C681 1.390 . S
C687 C684 1.386 . S
C688 C683 1.490 . S
C688 C690 1.395 . S
C688 C691 1.403 1_565 S
H689 C695 0.930 . S
C690 H676 0.930 . S
C690 C688 1.395 . S
C690 C693 1.403 1_556 S
C691 C688 1.403 1_545 S
C691 C692 1.524 . S
C691 C695 1.400 1_556 S
C692 H677 0.960 . S
C692 H678 0.960 . S
C692 H679 0.960 . S
C692 C691 1.524 . S
C693 C690 1.403 1_554 S
C693 C694 1.392 1_565 S
C693 C697 1.495 . S
C694 C693 1.392 1_545 S
C694 C695 1.385 . S
C694 C696 1.478 . S
C695 H689 0.930 . S
C695 C691 1.400 1_554 S
C695 C694 1.385 . S
C696 C694 1.478 . S
C696 C698 1.381 . S
C696 C702 1.383 . S
C697 C693 1.495 . S
C697 H703 0.959 . S
C697 H704 0.961 . S
C697 H705 0.960 . S
C698 C696 1.381 . S
C698 C699 1.394 . S
C698 H706 0.930 . S
C699 C698 1.394 . S
C699 C700 1.383 . S
C699 H707 0.929 . S
C700 C699 1.383 . S
C700 C701 1.377 . S
C701 H685 0.930 . S
C701 C700 1.377 . S
C701 C702 1.379 . S
C702 H686 0.931 . S
C702 C696 1.383 . S
C702 C701 1.379 . S
H703 C697 0.959 . S
H704 C697 0.961 . S
H705 C697 0.960 . S
H706 C698 0.930 . S
H707 C699 0.929 . S
H708 C716 0.929 . S
H709 C718 0.930 . S
H710 C720 0.930 . S
H711 C723 0.929 . S
H712 C726 0.930 . S
H713 C728 0.960 . S
H714 C728 0.960 . S
H715 C728 0.960 . S
C716 H708 0.929 . S
C716 C717 1.377 . S
C716 C718 1.384 . S
C717 C716 1.377 . S
C717 C723 1.390 . S
C718 H709 0.930 . S
C718 C716 1.384 . S
C718 C719 1.372 . S
C719 C718 1.372 . S
C719 C720 1.400 . S
C719 C724 1.490 . S
C720 H710 0.930 . S
C720 C719 1.400 . S
C720 C723 1.386 . S
H721 C737 0.930 . S
H722 C738 0.931 . S
C723 H711 0.929 . S
C723 C717 1.390 . S
C723 C720 1.386 . S
C724 C719 1.490 . S
C724 C726 1.395 . S
C724 C727 1.403 . S
H725 C731 0.930 . S
C726 H712 0.930 . S
C726 C724 1.395 . S
C726 C729 1.403 . S
C727 C724 1.403 . S
C727 C728 1.524 . S
C727 C731 1.400 . S
C728 H713 0.960 . S
C728 H714 0.960 . S
C728 H715 0.960 . S
C728 C727 1.524 . S
C729 C726 1.403 . S
C729 C730 1.392 . S
C729 C733 1.495 . S
C730 C729 1.392 . S
C730 C731 1.385 . S
C730 C732 1.478 . S
C731 H725 0.930 . S
C731 C727 1.400 . S
C731 C730 1.385 . S
C732 C730 1.478 . S
C732 C734 1.381 . S
C732 C738 1.383 . S
C733 C729 1.495 . S
C733 H739 0.959 . S
C733 H740 0.961 . S
C733 H741 0.960 . S
C734 C732 1.381 . S
C734 C735 1.394 . S
C734 H742 0.930 . S
C735 C734 1.394 . S
C735 C736 1.383 . S
C735 H743 0.929 . S
C736 C735 1.383 . S
C736 C737 1.377 . S
C737 H721 0.930 . S
C737 C736 1.377 . S
C737 C738 1.379 . S
C738 H722 0.931 . S
C738 C732 1.383 . S
C738 C737 1.379 . S
H739 C733 0.959 . S
H740 C733 0.961 . S
H741 C733 0.960 . S
H742 C734 0.930 . S
H743 C735 0.929 . S
H744 C752 0.929 . S
H745 C754 0.930 . S
H746 C756 0.930 . S
H747 C759 0.929 . S
H748 C762 0.930 . S
H749 C764 0.960 . S
H750 C764 0.960 . S
H751 C764 0.960 1_455 S
C752 H744 0.929 . S
C752 C753 1.377 . S
C752 C754 1.384 . S
C753 C752 1.377 . S
C753 C759 1.390 . S
C754 H745 0.930 . S
C754 C752 1.384 . S
C754 C755 1.372 . S
C755 C754 1.372 . S
C755 C756 1.400 . S
C755 C760 1.490 . S
C756 H746 0.930 . S
C756 C755 1.400 . S
C756 C759 1.386 . S
H757 C773 0.930 . S
H758 C774 0.919 1_455 S
C759 H747 0.929 . S
C759 C753 1.390 . S
C759 C756 1.386 . S
C760 C755 1.490 . S
C760 C762 1.395 . S
C760 C763 1.403 1_455 S
H761 C767 0.930 . S
C762 H748 0.930 . S
C762 C760 1.395 . S
C762 C765 1.403 . S
C763 C760 1.403 1_655 S
C763 C764 1.524 . S
C763 C767 1.400 . S
C764 H749 0.960 . S
C764 H750 0.960 . S
C764 H751 0.960 1_655 S
C764 C763 1.524 . S
C765 C762 1.403 . S
C765 C766 1.392 1_455 S
C765 C769 1.495 . S
C766 C765 1.392 1_655 S
C766 C767 1.385 . S
C766 C768 1.478 . S
C767 H761 0.930 . S
C767 C763 1.400 . S
C767 C766 1.385 . S
C768 C766 1.478 . S
C768 C770 1.381 . S
C768 C774 1.383 . S
C769 C765 1.495 . S
C769 H775 0.959 . S
C769 H776 0.961 . S
C769 H777 0.960 1_455 S
C770 C768 1.381 . S
C770 C771 1.394 . S
C770 H778 0.930 . S
C771 C770 1.394 . S
C771 C772 1.383 . S
C771 H779 0.929 . S
C772 C771 1.383 . S
C772 C773 1.377 . S
C773 H757 0.930 . S
C773 C772 1.377 . S
C773 C774 1.379 . S
C774 H758 0.919 1_655 S
C774 C768 1.383 . S
C774 C773 1.379 . S
H775 C769 0.959 . S
H776 C769 0.961 . S
H777 C769 0.960 1_655 S
H778 C770 0.930 . S
H779 C771 0.929 . S
H780 C788 0.929 . S
H781 C790 0.930 . S
H782 C792 0.930 . S
H783 C795 0.929 . S
H784 C798 0.930 . S
H785 C800 0.960 . S
H786 C800 0.960 . S
H787 C800 0.960 . S
C788 H780 0.929 . S
C788 C789 1.377 . S
C788 C790 1.384 . S
C789 C788 1.377 . S
C789 C795 1.390 . S
C790 H781 0.930 . S
C790 C788 1.384 . S
C790 C791 1.372 . S
C791 C790 1.372 . S
C791 C792 1.400 . S
C791 C796 1.490 . S
C792 H782 0.930 . S
C792 C791 1.400 . S
C792 C795 1.386 . S
H793 C809 0.930 . S
H794 C810 0.931 . S
C795 H783 0.929 . S
C795 C789 1.390 . S
C795 C792 1.386 . S
C796 C791 1.490 . S
C796 C798 1.395 . S
C796 C799 1.403 1_565 S
H797 C803 0.930 . S
C798 H784 0.930 . S
C798 C796 1.395 . S
C798 C801 1.403 1_554 S
C799 C796 1.403 1_545 S
C799 C800 1.524 . S
C799 C803 1.400 1_554 S
C800 H785 0.960 . S
C800 H786 0.960 . S
C800 H787 0.960 . S
C800 C799 1.524 . S
C801 C798 1.403 1_556 S
C801 C802 1.392 1_565 S
C801 C805 1.495 . S
C802 C801 1.392 1_545 S
C802 C803 1.385 . S
C802 C804 1.478 . S
C803 H797 0.930 . S
C803 C799 1.400 1_556 S
C803 C802 1.385 . S
C804 C802 1.478 . S
C804 C806 1.381 . S
C804 C810 1.383 . S
C805 C801 1.495 . S
C805 H811 0.959 . S
C805 H812 0.961 . S
C805 H813 0.960 . S
C806 C804 1.381 . S
C806 C807 1.394 . S
C806 H814 0.930 . S
C807 C806 1.394 . S
C807 C808 1.383 . S
C807 H815 0.929 . S
C808 C807 1.383 . S
C808 C809 1.377 . S
C809 H793 0.930 . S
C809 C808 1.377 . S
C809 C810 1.379 . S
C810 H794 0.931 . S
C810 C804 1.383 . S
C810 C809 1.379 . S
H811 C805 0.959 . S
H812 C805 0.961 . S
H813 C805 0.960 . S
H814 C806 0.930 . S
H815 C807 0.929 . S
H816 C824 0.929 . S
H817 C826 0.930 . S
H818 C828 0.930 . S
H819 C831 0.929 . S
H820 C834 0.930 . S
H821 C836 0.960 1_455 S
H822 C836 0.960 . S
H823 C836 0.960 . S
C824 H816 0.929 . S
C824 C825 1.377 . S
C824 C826 1.384 . S
C825 C824 1.377 . S
C825 C831 1.390 . S
C826 H817 0.930 . S
C826 C824 1.384 . S
C826 C827 1.372 . S
C827 C826 1.372 . S
C827 C828 1.400 . S
C827 C832 1.490 . S
C828 H818 0.930 . S
C828 C827 1.400 . S
C828 C831 1.386 . S
H829 C845 0.930 . S
H830 C846 0.931 . S
C831 H819 0.929 . S
C831 C825 1.390 . S
C831 C828 1.386 . S
C832 C827 1.490 . S
C832 C834 1.395 . S
C832 C835 1.403 . S
H833 C839 0.930 . S
C834 H820 0.930 . S
C834 C832 1.395 . S
C834 C837 1.403 1_655 S
C835 C832 1.403 . S
C835 C836 1.524 . S
C835 C839 1.400 1_655 S
C836 H821 0.960 1_655 S
C836 H822 0.960 . S
C836 H823 0.960 . S
C836 C835 1.524 . S
C837 C834 1.403 1_455 S
C837 C838 1.392 . S
C837 C841 1.495 . S
C838 C837 1.392 . S
C838 C839 1.385 . S
C838 C840 1.478 . S
C839 H833 0.930 . S
C839 C835 1.400 1_455 S
C839 C838 1.385 . S
C840 C838 1.478 . S
C840 C842 1.381 . S
C840 C846 1.383 . S
C841 C837 1.495 . S
C841 H847 0.959 1_455 S
C841 H848 0.961 . S
C841 H849 0.960 . S
C842 C840 1.381 . S
C842 C843 1.394 . S
C842 H850 0.930 . S
C843 C842 1.394 . S
C843 C844 1.383 . S
C843 H851 0.929 . S
C844 C843 1.383 . S
C844 C845 1.377 . S
C845 H829 0.930 . S
C845 C844 1.377 . S
C845 C846 1.379 . S
C846 H830 0.931 . S
C846 C840 1.383 . S
C846 C845 1.379 . S
H847 C841 0.959 1_655 S
H848 C841 0.961 . S
H849 C841 0.960 . S
H850 C842 0.930 . S
H851 C843 0.929 . S
H852 C860 0.929 . S
H853 C862 0.930 . S
H854 C864 0.930 . S
H855 C867 0.929 . S
H856 C870 0.930 . S
H857 C872 0.963 . S
H858 C872 0.960 . S
H859 C872 0.960 . S
C860 H852 0.929 . S
C860 C861 1.377 . S
C860 C862 1.384 . S
C861 C860 1.377 . S
C861 C867 1.390 . S
C862 H853 0.930 . S
C862 C860 1.384 . S
C862 C863 1.372 . S
C863 C862 1.372 . S
C863 C864 1.400 . S
C863 C868 1.490 . S
C864 H854 0.930 . S
C864 C863 1.400 . S
C864 C867 1.386 . S
H865 C881 0.930 . S
H866 C882 0.931 . S
C867 H855 0.929 . S
C867 C861 1.390 . S
C867 C864 1.386 . S
C868 C863 1.490 . S
C868 C870 1.395 . S
C868 C871 1.403 . S
H869 C875 0.930 . S
C870 H856 0.930 . S
C870 C868 1.395 . S
C870 C873 1.403 1_545 S
C871 C868 1.403 . S
C871 C872 1.524 . S
C871 C875 1.400 1_545 S
C872 H857 0.963 . S
C872 H858 0.960 . S
C872 H859 0.960 . S
C872 C871 1.524 . S
C873 C870 1.403 1_565 S
C873 C874 1.392 . S
C873 C877 1.495 . S
C874 C873 1.392 . S
C874 C875 1.385 . S
C874 C876 1.478 . S
C875 H869 0.930 . S
C875 C871 1.400 1_565 S
C875 C874 1.385 . S
C876 C874 1.478 . S
C876 C878 1.381 . S
C876 C882 1.383 . S
C877 C873 1.495 . S
C877 H883 0.959 . S
C877 H884 0.961 . S
C877 H885 0.960 . S
C878 C876 1.381 . S
C878 C879 1.394 . S
C878 H886 0.930 . S
C879 C878 1.394 . S
C879 C880 1.383 . S
C879 H887 0.929 . S
C880 C879 1.383 . S
C880 C881 1.377 . S
C881 H865 0.930 . S
C881 C880 1.377 . S
C881 C882 1.379 . S
C882 H866 0.931 . S
C882 C876 1.383 . S
C882 C881 1.379 . S
H883 C877 0.959 . S
H884 C877 0.961 . S
H885 C877 0.960 . S
H886 C878 0.930 . S
H887 C879 0.929 . S
H888 C896 0.929 . S
H889 C898 0.930 . S
H890 C900 0.930 . S
H891 C903 0.929 . S
H892 C906 0.930 . S
H893 C908 0.960 . S
H894 C908 0.960 . S
H895 C908 0.960 . S
C896 H888 0.929 . S
C896 C897 1.377 . S
C896 C898 1.384 . S
C897 C896 1.377 . S
C897 C903 1.390 . S
C898 H889 0.930 . S
C898 C896 1.384 . S
C898 C899 1.372 . S
C899 C898 1.372 . S
C899 C900 1.400 . S
C899 C904 1.490 . S
C900 H890 0.930 . S
C900 C899 1.400 . S
C900 C903 1.386 . S
H901 C917 0.930 . S
H902 C918 0.931 . S
C903 H891 0.929 . S
C903 C897 1.390 . S
C903 C900 1.386 . S
C904 C899 1.490 . S
C904 C906 1.395 . S
C904 C907 1.403 . S
H905 C911 0.930 . S
C906 H892 0.930 . S
C906 C904 1.395 . S
C906 C909 1.403 . S
C907 C904 1.403 . S
C907 C908 1.524 . S
C907 C911 1.400 . S
C908 H893 0.960 . S
C908 H894 0.960 . S
C908 H895 0.960 . S
C908 C907 1.524 . S
C909 C906 1.403 . S
C909 C910 1.392 . S
C909 C913 1.495 . S
C910 C909 1.392 . S
C910 C911 1.385 . S
C910 C912 1.478 . S
C911 H905 0.930 . S
C911 C907 1.400 . S
C911 C910 1.385 . S
C912 C910 1.478 . S
C912 C914 1.381 . S
C912 C918 1.383 . S
C913 C909 1.495 . S
C913 H919 0.959 . S
C913 H920 0.961 . S
C913 H921 0.960 . S
C914 C912 1.381 . S
C914 C915 1.394 . S
C914 H922 0.930 . S
C915 C914 1.394 . S
C915 C916 1.383 . S
C915 H923 0.929 . S
C916 C915 1.383 . S
C916 C917 1.377 . S
C917 H901 0.930 . S
C917 C916 1.377 . S
C917 C918 1.379 . S
C918 H902 0.931 . S
C918 C912 1.383 . S
C918 C917 1.379 . S
H919 C913 0.959 . S
H920 C913 0.961 . S
H921 C913 0.960 . S
H922 C914 0.930 . S
H923 C915 0.929 . S
H924 C932 0.929 . S
H925 C934 0.930 . S
H926 C936 0.930 . S
H927 C939 0.929 . S
H928 C942 0.930 . S
H929 C944 0.960 . S
H930 C944 0.960 . S
H931 C944 0.960 . S
C932 H924 0.929 . S
C932 C933 1.377 . S
C932 C934 1.384 . S
C933 C932 1.377 . S
C933 C939 1.390 . S
C934 H925 0.930 . S
C934 C932 1.384 . S
C934 C935 1.372 . S
C935 C934 1.372 . S
C935 C936 1.400 . S
C935 C940 1.490 . S
C936 H926 0.930 . S
C936 C935 1.400 . S
C936 C939 1.386 . S
H937 C953 0.930 . S
H938 C954 0.931 . S
C939 H927 0.929 . S
C939 C933 1.390 . S
C939 C936 1.386 . S
C940 C935 1.490 . S
C940 C942 1.395 . S
C940 C943 1.403 . S
H941 C947 0.930 . S
C942 H928 0.930 . S
C942 C940 1.395 . S
C942 C945 1.403 1_655 S
C943 C940 1.403 . S
C943 C944 1.524 . S
C943 C947 1.400 1_655 S
C944 H929 0.960 . S
C944 H930 0.960 . S
C944 H931 0.960 . S
C944 C943 1.524 . S
C945 C942 1.403 1_455 S
C945 C946 1.392 . S
C945 C949 1.495 . S
C946 C945 1.392 . S
C946 C947 1.385 . S
C946 C948 1.478 . S
C947 H941 0.930 . S
C947 C943 1.400 1_455 S
C947 C946 1.385 . S
C948 C946 1.478 . S
C948 C950 1.381 . S
C948 C954 1.383 . S
C949 C945 1.495 . S
C949 H955 0.959 . S
C949 H956 0.961 . S
C949 H957 0.960 . S
C950 C948 1.381 . S
C950 C951 1.394 . S
C950 H958 0.930 . S
C951 C950 1.394 . S
C951 C952 1.383 . S
C951 H959 0.929 . S
C952 C951 1.383 . S
C952 C953 1.377 . S
C953 H937 0.930 . S
C953 C952 1.377 . S
C953 C954 1.379 . S
C954 H938 0.931 . S
C954 C948 1.383 . S
C954 C953 1.379 . S
H955 C949 0.959 . S
H956 C949 0.961 . S
H957 C949 0.960 . S
H958 C950 0.930 . S
H959 C951 0.929 . S
H960 C968 0.929 . S
H961 C970 0.930 . S
H962 C972 0.930 . S
H963 C975 0.929 . S
H964 C978 0.930 . S
H965 C980 0.960 . S
H966 C980 0.960 . S
H967 C980 0.960 . S
C968 H960 0.929 . S
C968 C969 1.377 . S
C968 C970 1.384 . S
C969 C968 1.377 . S
C969 C975 1.390 . S
C970 H961 0.930 . S
C970 C968 1.384 . S
C970 C971 1.372 . S
C971 C970 1.372 . S
C971 C972 1.400 . S
C971 C976 1.490 . S
C972 H962 0.930 . S
C972 C971 1.400 . S
C972 C975 1.386 . S
H973 C989 0.930 . S
H974 C990 0.931 . S
C975 H963 0.929 . S
C975 C969 1.390 . S
C975 C972 1.386 . S
C976 C971 1.490 . S
C976 C978 1.395 . S
C976 C979 1.403 . S
H977 C983 0.930 . S
C978 H964 0.930 . S
C978 C976 1.395 . S
C978 C981 1.403 1_565 S
C979 C976 1.403 . S
C979 C980 1.524 . S
C979 C983 1.400 1_565 S
C980 H965 0.960 . S
C980 H966 0.960 . S
C980 H967 0.960 . S
C980 C979 1.524 . S
C981 C978 1.403 1_545 S
C981 C982 1.392 . S
C981 C985 1.495 . S
C982 C981 1.392 . S
C982 C983 1.385 . S
C982 C984 1.478 . S
C983 H977 0.930 . S
C983 C979 1.400 1_545 S
C983 C982 1.385 . S
C984 C982 1.478 . S
C984 C986 1.381 . S
C984 C990 1.383 . S
C985 C981 1.495 . S
C985 H991 0.959 . S
C985 H992 0.961 . S
C985 H993 0.960 . S
C986 C984 1.381 . S
C986 C987 1.394 . S
C986 H994 0.930 . S
C987 C986 1.394 . S
C987 C988 1.383 . S
C987 H995 0.929 . S
C988 C987 1.383 . S
C988 C989 1.377 . S
C989 H973 0.930 . S
C989 C988 1.377 . S
C989 C990 1.379 . S
C990 H974 0.931 . S
C990 C984 1.383 . S
C990 C989 1.379 . S
H991 C985 0.959 . S
H992 C985 0.961 . S
H993 C985 0.960 . S
H994 C986 0.930 . S
H995 C987 0.929 . S
H996 C1004 0.929 . S
H997 C1006 0.930 . S
H998 C1008 0.930 . S
H999 C1011 0.929 . S
H1000 C1014 0.930 . S
H1001 C1016 0.960 . S
H1002 C1016 0.960 . S
H1003 C1016 0.960 . S
C1004 H996 0.929 . S
C1004 C1005 1.377 . S
C1004 C1006 1.384 . S
C1005 C1004 1.377 . S
C1005 C1011 1.390 . S
C1006 H997 0.930 . S
C1006 C1004 1.384 . S
C1006 C1007 1.372 . S
C1007 C1006 1.372 . S
C1007 C1008 1.400 . S
C1007 C1012 1.490 . S
C1008 H998 0.930 . S
C1008 C1007 1.400 . S
C1008 C1011 1.386 . S
H1009 C1025 0.930 . S
H1010 C1026 0.931 . S
C1011 H999 0.929 . S
C1011 C1005 1.390 . S
C1011 C1008 1.386 . S
C1012 C1007 1.490 . S
C1012 C1014 1.395 . S
C1012 C1015 1.403 . S
H1013 C1019 0.930 . S
C1014 H1000 0.930 . S
C1014 C1012 1.395 . S
C1014 C1017 1.403 . S
C1015 C1012 1.403 . S
C1015 C1016 1.524 . S
C1015 C1019 1.400 . S
C1016 H1001 0.960 . S
C1016 H1002 0.960 . S
C1016 H1003 0.960 . S
C1016 C1015 1.524 . S
C1017 C1014 1.403 . S
C1017 C1018 1.392 . S
C1017 C1021 1.495 . S
C1018 C1017 1.392 . S
C1018 C1019 1.385 . S
C1018 C1020 1.478 . S
C1019 H1013 0.930 . S
C1019 C1015 1.400 . S
C1019 C1018 1.385 . S
C1020 C1018 1.478 . S
C1020 C1022 1.381 . S
C1020 C1026 1.383 . S
C1021 C1017 1.495 . S
C1021 H1027 0.959 . S
C1021 H1028 0.961 . S
C1021 H1029 0.960 . S
C1022 C1020 1.381 . S
C1022 C1023 1.394 . S
C1022 H1030 0.930 . S
C1023 C1022 1.394 . S
C1023 C1024 1.383 . S
C1023 H1031 0.929 . S
C1024 C1023 1.383 . S
C1024 C1025 1.377 . S
C1025 H1009 0.930 . S
C1025 C1024 1.377 . S
C1025 C1026 1.379 . S
C1026 H1010 0.931 . S
C1026 C1020 1.383 . S
C1026 C1025 1.379 . S
H1027 C1021 0.959 . S
H1028 C1021 0.961 . S
H1029 C1021 0.960 . S
H1030 C1022 0.930 . S
H1031 C1023 0.929 . S
C177 C112 2.260 . S
C196 C1 2.242 . S
C213 C27 2.257 . S
C232 C126 2.242 . S
C249 C29 2.263 . S
C268 C141 2.266 . S
C285 C43 2.260 . S
C304 C154 2.251 . S
C321 C84 2.260 . S
C340 C57 2.237 . S
C357 C71 2.256 . S
C376 C99 2.237 . S
C393 C55 1.446 . S
C412 C13 1.443 . S
C429 C69 1.446 . S
C448 C15 1.441 . S
C465 C83 1.444 . S
C484 C41 1.437 . S
C501 C96 1.444 . S
C520 C138 1.442 . S
C537 C111 1.446 . S
C556 C153 1.445 . S
C573 C124 1.444 . S
C592 C166 1.439 . S
C609 C0 1.854 . S
C628 C127 1.844 . S
C645 C26 1.848 . S
C664 C140 1.868 . S
C681 C28 1.851 . S
C700 C155 1.862 . S
C717 C85 1.845 . S
C736 C42 1.868 . S
C753 C56 1.855 . S
C772 C98 1.845 . S
C789 C113 1.850 . S
C808 C70 1.854 . S
C825 C167 1.383 . S
C844 C12 1.390 . S
C861 C14 1.384 . S
C880 C97 1.388 . S
C897 C110 1.383 . S
C916 C40 1.387 . S
C933 C54 1.381 . S
C952 C125 1.371 . S
C969 C68 1.380 . S
C988 C139 1.372 . S
C1005 C152 1.380 . S
C1024 C82 1.369 . S
