# Generated by pormake.
# Topology unm, (4)-cn, num edge types: 1
# Building blocks:
#     Node 0, Type 0, BuildingBlock: CEKHIL_clean_sbu_0, # of connection points: 4
#     Node 1, Type 0, BuildingBlock: CEKHIL_clean_sbu_0, # of connection points: 4
#     Node 2, Type 0, BuildingBlock: CEKHIL_clean_sbu_0, # of connection points: 4
#     Node 3, Type 0, BuildingBlock: CEKHIL_clean_sbu_0, # of connection points: 4
#     Node 4, Type 0, BuildingBlock: CEKHIL_clean_sbu_0, # of connection points: 4
#     Node 5, Type 0, BuildingBlock: CEKHIL_clean_sbu_0, # of connection points: 4
#     Node 6, Type 0, BuildingBlock: CEKHIL_clean_sbu_0, # of connection points: 4
#     Node 7, Type 0, BuildingBlock: CEKHIL_clean_sbu_0, # of connection points: 4
#     Edge 8, Type (0, 0), BuildingBlock: ZUJKAS_clean_linker_0, # of connection points: 2
#     Edge 9, Type (0, 0), BuildingBlock: ZUJKAS_clean_linker_0, # of connection points: 2
#     Edge 10, Type (0, 0), BuildingBlock: ZUJKAS_clean_linker_0, # of connection points: 2
#     Edge 11, Type (0, 0), BuildingBlock: ZUJKAS_clean_linker_0, # of connection points: 2
#     Edge 12, Type (0, 0), BuildingBlock: ZUJKAS_clean_linker_0, # of connection points: 2
#     Edge 13, Type (0, 0), BuildingBlock: ZUJKAS_clean_linker_0, # of connection points: 2
#     Edge 14, Type (0, 0), BuildingBlock: ZUJKAS_clean_linker_0, # of connection points: 2
#     Edge 15, Type (0, 0), BuildingBlock: ZUJKAS_clean_linker_0, # of connection points: 2
#     Edge 16, Type (0, 0), BuildingBlock: ZUJKAS_clean_linker_0, # of connection points: 2
#     Edge 17, Type (0, 0), BuildingBlock: ZUJKAS_clean_linker_0, # of connection points: 2
#     Edge 18, Type (0, 0), BuildingBlock: ZUJKAS_clean_linker_0, # of connection points: 2
#     Edge 19, Type (0, 0), BuildingBlock: ZUJKAS_clean_linker_0, # of connection points: 2
#     Edge 20, Type (0, 0), BuildingBlock: ZUJKAS_clean_linker_0, # of connection points: 2
#     Edge 21, Type (0, 0), BuildingBlock: ZUJKAS_clean_linker_0, # of connection points: 2
#     Edge 22, Type (0, 0), BuildingBlock: ZUJKAS_clean_linker_0, # of connection points: 2
#     Edge 23, Type (0, 0), BuildingBlock: ZUJKAS_clean_linker_0, # of connection points: 2
# Relax obj value: 0.187
# Max RMSD: 0.153
# Mean RMSD: 0.153
data_MOF--net-unm--node1-CEKHIL_clean_sbu_0--edge1-ZUJKAS_clean_linker_0
_symmetry_space_group_name_H-M    P1
_symmetry_Int_Tables_number       1
_symmetry_cell_setting            triclinic
loop_
_symmetry_equiv_pos_as_xyz
'x, y, z'
_cell_length_a     32.56349
_cell_length_b     32.566653
_cell_length_c     56.895601
_cell_angle_alpha  89.998634
_cell_angle_beta   89.999945
_cell_angle_gamma 90.003142
loop_
_atom_site_label
_atom_site_type_symbol
_atom_site_fract_x
_atom_site_fract_y
_atom_site_fract_z
_atom_type_partial_charge
Co0 Co 0.18221 0.25974 0.17526 0.0
O1 O 0.22965 0.22824 0.18454 0.0
O2 O 0.23014 0.29466 0.17629 0.0
C3 C 0.13852 0.2369 0.2032 0.0
O4 O 0.13985 0.30304 0.16658 0.0
Co5 Co 0.10254 0.21683 0.15764 0.0
O6 O 0.0791 0.27302 0.15855 0.0
C7 C 0.17343 0.22434 0.12565 0.0
C8 C 0.25021 0.26237 0.18327 0.0
C9 C 0.10134 0.30479 0.16159 0.0
O10 O 0.19233 0.24685 0.14085 0.0
O11 O 0.13917 0.20657 0.12997 0.0
O12 O 0.16535 0.26516 0.20803 0.0
O13 O 0.14245 0.21993 0.18278 0.0
Co14 Co 0.2421 0.67899 0.67369 0.0
O15 O 0.27489 0.72464 0.68428 0.0
O16 O 0.20903 0.72826 0.67479 0.0
C17 C 0.26194 0.63324 0.70128 0.0
O18 O 0.1977 0.63863 0.6638 0.0
Co19 Co 0.28309 0.59887 0.65531 0.0
O20 O 0.22616 0.5772 0.65561 0.0
C21 C 0.27924 0.67131 0.62438 0.0
C22 C 0.24169 0.74658 0.68271 0.0
C23 C 0.19498 0.60031 0.6585 0.0
O24 O 0.25687 0.69019 0.63964 0.0
O25 O 0.29568 0.63625 0.62829 0.0
O26 O 0.23452 0.66095 0.70609 0.0
O27 O 0.28001 0.6374 0.68118 0.0
Co28 Co 0.81943 0.74342 0.17371 0.0
O29 O 0.77276 0.77643 0.18263 0.0
O30 O 0.77097 0.7095 0.17593 0.0
C31 C 0.86449 0.7673 0.20063 0.0
O32 O 0.86077 0.69879 0.16565 0.0
Co33 Co 0.89861 0.78397 0.15374 0.0
O34 O 0.92097 0.72733 0.15491 0.0
C35 C 0.82605 0.77614 0.12338 0.0
C36 C 0.75158 0.74261 0.18223 0.0
C37 C 0.89872 0.69616 0.15952 0.0
O38 O 0.80838 0.75386 0.13913 0.0
O39 O 0.8603 0.79447 0.12682 0.0
O40 O 0.83702 0.74025 0.20643 0.0
O41 O 0.86036 0.78283 0.17982 0.0
Co42 Co 0.75822 0.31722 0.67384 0.0
O43 O 0.72616 0.27003 0.68298 0.0
O44 O 0.79306 0.26941 0.67608 0.0
C45 C 0.73365 0.3618 0.7008 0.0
O46 O 0.802 0.35932 0.66555 0.0
Co47 Co 0.71611 0.39575 0.65406 0.0
O48 O 0.77236 0.41909 0.65502 0.0
C49 C 0.72471 0.32319 0.6237 0.0
C50 C 0.76038 0.2495 0.68259 0.0
C51 C 0.80396 0.39733 0.65944 0.0
O52 O 0.74754 0.30585 0.63933 0.0
O53 O 0.70591 0.35714 0.62726 0.0
O54 O 0.76141 0.33499 0.70653 0.0
O55 O 0.71808 0.35737 0.68004 0.0
Co56 Co 0.6824 0.24279 0.32915 0.0
O57 O 0.73007 0.27389 0.31986 0.0
O58 O 0.72996 0.20737 0.32785 0.0
C59 C 0.63872 0.26648 0.30147 0.0
O60 O 0.63949 0.19996 0.33781 0.0
Co61 Co 0.60366 0.28635 0.34738 0.0
O62 O 0.5786 0.23132 0.34286 0.0
C63 C 0.67479 0.2773 0.37902 0.0
C64 C 0.7503 0.23956 0.32098 0.0
C65 C 0.60029 0.19893 0.34076 0.0
O66 O 0.69308 0.25498 0.36352 0.0
O67 O 0.64055 0.29544 0.37517 0.0
O68 O 0.66527 0.23806 0.29643 0.0
O69 O 0.64304 0.28315 0.32196 0.0
Co70 Co 0.25742 0.17885 0.83074 0.0
O71 O 0.22451 0.22527 0.82131 0.0
O72 O 0.29114 0.22751 0.82892 0.0
C73 C 0.23485 0.13371 0.8035 0.0
O74 O 0.30202 0.13782 0.83942 0.0
Co75 Co 0.21685 0.09913 0.84999 0.0
O76 O 0.27359 0.0771 0.84922 0.0
C77 C 0.22288 0.17166 0.88064 0.0
C78 C 0.2582 0.24664 0.82209 0.0
C79 C 0.30475 0.09974 0.84526 0.0
O80 O 0.24531 0.1899 0.86516 0.0
O81 O 0.20542 0.13705 0.87692 0.0
O82 O 0.26209 0.16123 0.79808 0.0
O83 O 0.21851 0.13772 0.8241 0.0
Co84 Co 0.31958 0.75861 0.32914 0.0
O85 O 0.27297 0.726 0.31983 0.0
O86 O 0.2705 0.79208 0.32887 0.0
C87 C 0.36299 0.73759 0.30057 0.0
O88 O 0.36104 0.80288 0.33784 0.0
Co89 Co 0.40122 0.71795 0.34542 0.0
O90 O 0.42359 0.77398 0.34048 0.0
C91 C 0.33169 0.72365 0.37866 0.0
C92 C 0.25144 0.75944 0.32149 0.0
C93 C 0.4004 0.80548 0.33955 0.0
O94 O 0.31087 0.7446 0.36355 0.0
O95 O 0.36676 0.70779 0.37402 0.0
O96 O 0.33533 0.76529 0.29625 0.0
O97 O 0.36016 0.72015 0.32092 0.0
Co98 Co 0.74045 0.81611 0.82911 0.0
O99 O 0.77225 0.76962 0.81873 0.0
O100 O 0.70601 0.76785 0.82751 0.0
C101 C 0.76237 0.86169 0.80198 0.0
O102 O 0.69699 0.85762 0.83873 0.0
Co103 Co 0.78337 0.89448 0.84845 0.0
O104 O 0.72708 0.91784 0.84792 0.0
C105 C 0.77673 0.82157 0.8787 0.0
C106 C 0.73842 0.7486 0.81997 0.0
C107 C 0.69529 0.89583 0.84442 0.0
O108 O 0.75372 0.80407 0.86324 0.0
O109 O 0.79479 0.85593 0.87515 0.0
O110 O 0.73444 0.83474 0.79673 0.0
O111 O 0.77976 0.8567 0.82222 0.0
H112 H 0.14821 0.17219 0.09101 0.0
H113 H 0.16558 0.17463 0.04941 0.0
H114 H 0.25113 0.27293 0.06253 0.0
H115 H 0.23382 0.27097 0.10457 0.0
H116 H 0.1559 0.25501 0.02245 0.0
H117 H 0.31141 0.18363 0.01836 0.0
H118 H 0.27587 0.171 0.04165 0.0
H119 H 0.2997 0.22056 0.04103 0.0
C120 C 0.1712 0.19402 0.08525 0.0
C121 C 0.18936 0.22163 0.10121 0.0
C122 C 0.18105 0.19534 0.06141 0.0
C123 C 0.20946 0.22402 0.05293 0.0
C124 C 0.22924 0.25042 0.06881 0.0
H125 H 0.27222 0.22957 0.90176 0.0
H126 H 0.27082 0.25117 0.94314 0.0
C127 C 0.21935 0.24917 0.09282 0.0
C128 C 0.21554 0.22775 0.02721 0.0
H129 H 0.27843 0.19763 0.98241 0.0
C130 C 0.18297 0.2431 0.01367 0.0
C131 C 0.25104 0.21263 0.01588 0.0
C132 C 0.28667 0.19589 0.02982 0.0
C133 C 0.18415 0.24197 0.98903 0.0
C134 C 0.21845 0.22423 0.97765 0.0
C135 C 0.25211 0.21112 0.99117 0.0
C136 C 0.21771 0.21451 0.95216 0.0
C137 C 0.14816 0.25882 0.97541 0.0
C138 C 0.18821 0.18701 0.94351 0.0
C139 C 0.18894 0.17462 0.92005 0.0
C140 C 0.21932 0.18933 0.90461 0.0
C141 C 0.2482 0.2179 0.91311 0.0
C142 C 0.24761 0.2301 0.93676 0.0
H143 H 0.13165 0.28278 0.98561 0.0
H144 H 0.15814 0.27216 0.95837 0.0
H145 H 0.12616 0.2336 0.97176 0.0
H146 H 0.16529 0.17402 0.95514 0.0
H147 H 0.16622 0.1526 0.91417 0.0
H148 H 0.23214 0.73083 0.60306 0.0
H149 H 0.23373 0.75125 0.56151 0.0
H150 H 0.33652 0.67042 0.54974 0.0
H151 H 0.33543 0.65012 0.59095 0.0
H152 H 0.34356 0.74961 0.52806 0.0
H153 H 0.19477 0.67233 0.50824 0.0
H154 H 0.19562 0.70925 0.53177 0.0
H155 H 0.22323 0.66189 0.53481 0.0
C156 C 0.2555 0.71793 0.5917 0.0
C157 C 0.28347 0.68857 0.60033 0.0
C158 C 0.25611 0.72935 0.56792 0.0
C159 C 0.28479 0.71178 0.55247 0.0
C160 C 0.31395 0.68415 0.56132 0.0
H161 H 0.3621 0.67489 0.41358 0.0
H162 H 0.34567 0.67707 0.45529 0.0
C163 C 0.31324 0.67256 0.58493 0.0
C164 C 0.2842 0.72062 0.52688 0.0
H165 H 0.23228 0.69822 0.4762 0.0
C166 C 0.31892 0.73899 0.51676 0.0
C167 C 0.25195 0.70681 0.51216 0.0
C168 C 0.21428 0.68624 0.52214 0.0
C169 C 0.32299 0.74247 0.49229 0.0
C170 C 0.29185 0.72659 0.47754 0.0
C171 C 0.25611 0.71022 0.48761 0.0
C172 C 0.29818 0.72304 0.45181 0.0
C173 C 0.36121 0.76206 0.48233 0.0
C174 C 0.27562 0.74695 0.43585 0.0
C175 C 0.28491 0.74579 0.41176 0.0
C176 C 0.31685 0.72057 0.40332 0.0
C177 C 0.33765 0.69504 0.41936 0.0
C178 C 0.3284 0.69628 0.44329 0.0
H179 H 0.37672 0.78197 0.49547 0.0
H180 H 0.38308 0.73762 0.47702 0.0
H181 H 0.35386 0.7807 0.46654 0.0
H182 H 0.25192 0.76756 0.44212 0.0
H183 H 0.26826 0.76585 0.39994 0.0
H184 H 0.83719 0.83597 0.09047 0.0
H185 H 0.81739 0.83405 0.04905 0.0
H186 H 0.75741 0.71762 0.05989 0.0
H187 H 0.77658 0.71952 0.10165 0.0
H188 H 0.82533 0.72644 0.02158 0.0
H189 H 0.69744 0.83924 0.01666 0.0
H190 H 0.74081 0.85354 0.03452 0.0
H191 H 0.70933 0.8109 0.04314 0.0
C192 C 0.81909 0.8103 0.08419 0.0
C193 C 0.80849 0.77787 0.09936 0.0
C194 C 0.80776 0.80931 0.06053 0.0
C195 C 0.78594 0.77574 0.05148 0.0
C196 C 0.7741 0.74388 0.06663 0.0
H197 H 0.72102 0.77184 0.90095 0.0
H198 H 0.72033 0.75281 0.94272 0.0
C199 C 0.7849 0.74514 0.09048 0.0
C200 C 0.77884 0.77286 0.02582 0.0
H201 H 0.72939 0.82059 0.98052 0.0
C202 C 0.8038 0.74641 0.01258 0.0
C203 C 0.75072 0.79891 0.01421 0.0
C204 C 0.72274 0.82714 0.02779 0.0
C205 C 0.8029 0.747 0.98789 0.0
C206 C 0.77633 0.77463 0.97627 0.0
C207 C 0.74976 0.79944 0.98952 0.0
C208 C 0.77868 0.78137 0.95056 0.0
C209 C 0.83124 0.71913 0.97432 0.0
C210 C 0.812 0.80313 0.94117 0.0
C211 C 0.81231 0.8144 0.91748 0.0
C212 C 0.77943 0.80378 0.90264 0.0
C213 C 0.74698 0.78016 0.91185 0.0
C214 C 0.74641 0.76944 0.93572 0.0
H215 H 0.84365 0.69405 0.98549 0.0
H216 H 0.81499 0.70544 0.95905 0.0
H217 H 0.85743 0.73736 0.96746 0.0
H218 H 0.83704 0.81286 0.95241 0.0
H219 H 0.83775 0.83253 0.91094 0.0
H220 H 0.65932 0.33544 0.4124 0.0
H221 H 0.67994 0.33459 0.45366 0.0
H222 H 0.74821 0.22303 0.44208 0.0
H223 H 0.728 0.22376 0.4005 0.0
H224 H 0.6864 0.22295 0.48083 0.0
H225 H 0.79547 0.35372 0.48512 0.0
H226 H 0.74889 0.36403 0.4692 0.0
H227 H 0.78444 0.32652 0.45814 0.0
C228 C 0.6793 0.31105 0.41848 0.0
C229 C 0.69198 0.27965 0.40313 0.0
C230 C 0.69116 0.31071 0.44206 0.0
C231 C 0.71574 0.27887 0.45087 0.0
C232 C 0.72939 0.24798 0.43555 0.0
H233 H 0.78113 0.27366 0.60175 0.0
H234 H 0.78299 0.25531 0.55985 0.0
C235 C 0.71797 0.24858 0.4118 0.0
C236 C 0.7242 0.27668 0.47643 0.0
H237 H 0.76621 0.33147 0.52159 0.0
C238 C 0.70457 0.24612 0.48974 0.0
C239 C 0.74796 0.3069 0.48797 0.0
C240 C 0.77074 0.33951 0.4744 0.0
C241 C 0.70612 0.24654 0.51443 0.0
C242 C 0.72795 0.27811 0.52595 0.0
C243 C 0.74946 0.3073 0.51263 0.0
C244 C 0.72498 0.28423 0.55165 0.0
C245 C 0.68307 0.21441 0.52819 0.0
C246 C 0.69141 0.30582 0.56082 0.0
C247 C 0.69039 0.3166 0.58456 0.0
C248 C 0.72285 0.30574 0.59965 0.0
C249 C 0.75552 0.2822 0.59064 0.0
C250 C 0.75675 0.27186 0.56672 0.0
H251 H 0.6721 0.18895 0.51682 0.0
H252 H 0.70298 0.20159 0.54224 0.0
H253 H 0.65611 0.22884 0.53683 0.0
H254 H 0.66668 0.31568 0.5494 0.0
H255 H 0.66472 0.33458 0.59095 0.0
H256 H 0.29867 0.33083 0.18687 0.0
H257 H 0.36707 0.33566 0.20455 0.0
H258 H 0.36745 0.20477 0.21601 0.0
H259 H 0.29895 0.19975 0.19869 0.0
H260 H 0.38694 0.24902 0.25581 0.0
H261 H 0.48013 0.30184 0.17987 0.0
H262 H 0.43548 0.33251 0.18582 0.0
H263 H 0.42944 0.28014 0.1765 0.0
C264 C 0.3136 0.30298 0.19281 0.0
C265 C 0.29337 0.26489 0.19137 0.0
C266 C 0.35277 0.30579 0.20284 0.0
C267 C 0.37253 0.27052 0.21143 0.0
C268 C 0.3528 0.23236 0.20946 0.0
H269 H 0.62039 0.23013 0.25958 0.0
H270 H 0.55603 0.23443 0.23759 0.0
C271 C 0.31367 0.22954 0.19949 0.0
C272 C 0.41252 0.27353 0.22386 0.0
H273 H 0.51306 0.30124 0.2171 0.0
C274 C 0.41451 0.26045 0.24735 0.0
C275 C 0.4485 0.28823 0.21274 0.0
C276 C 0.44857 0.30116 0.18728 0.0
C277 C 0.45147 0.26163 0.26004 0.0
C278 C 0.4873 0.27697 0.24906 0.0
C279 C 0.4854 0.28996 0.22555 0.0
C280 C 0.52744 0.2776 0.26139 0.0
C281 C 0.45209 0.24539 0.28489 0.0
C282 C 0.53313 0.30136 0.28173 0.0
C283 C 0.56994 0.29897 0.29437 0.0
C284 C 0.60168 0.27284 0.28684 0.0
C285 C 0.59648 0.25045 0.26591 0.0
C286 C 0.55974 0.25289 0.25329 0.0
H287 H 0.42452 0.22652 0.28887 0.0
H288 H 0.47992 0.22647 0.28804 0.0
H289 H 0.45269 0.27159 0.29735 0.0
H290 H 0.50881 0.32116 0.28807 0.0
H291 H 0.57308 0.31677 0.31035 0.0
H292 H 0.29497 0.78274 0.7131 0.0
H293 H 0.28948 0.85042 0.73115 0.0
H294 H 0.18109 0.87541 0.68989 0.0
H295 H 0.18519 0.80647 0.67275 0.0
H296 H 0.29354 0.92416 0.71606 0.0
H297 H 0.13745 0.90302 0.75285 0.0
H298 H 0.16561 0.86153 0.73949 0.0
H299 H 0.13846 0.89807 0.72149 0.0
C300 C 0.27001 0.80269 0.70781 0.0
C301 C 0.24034 0.78922 0.69163 0.0
C302 C 0.26686 0.84143 0.71817 0.0
C303 C 0.23431 0.86788 0.71236 0.0
C304 C 0.20567 0.85517 0.69534 0.0
H305 H 0.25186 0.12523 0.75692 0.0
H306 H 0.24842 0.0626 0.73328 0.0
C307 C 0.20828 0.81593 0.68534 0.0
C308 C 0.23085 0.90857 0.72419 0.0
H309 H 0.16623 0.96962 0.75614 0.0
C310 C 0.26567 0.93402 0.72485 0.0
C311 C 0.19472 0.92133 0.73602 0.0
C312 C 0.1571 0.89439 0.73767 0.0
C313 C 0.26565 0.97139 0.73716 0.0
C314 C 0.22907 0.98486 0.74825 0.0
C315 C 0.19411 0.95963 0.74742 0.0
C316 C 0.22707 0.02398 0.76177 0.0
C317 C 0.30545 0.99499 0.73895 0.0
C318 C 0.21354 0.02393 0.78524 0.0
C319 C 0.21416 0.06005 0.79855 0.0
C320 C 0.22894 0.09678 0.78876 0.0
C321 C 0.24087 0.0972 0.76503 0.0
C322 C 0.23932 0.06131 0.75157 0.0
H323 H 0.33247 0.97481 0.73596 0.0
H324 H 0.30601 0.01929 0.72528 0.0
H325 H 0.30881 0.00971 0.75644 0.0
H326 H 0.20359 0.99566 0.7935 0.0
H327 H 0.20459 0.05875 0.81675 0.0
H328 H 0.42972 0.68826 0.30797 0.0
H329 H 0.49358 0.68652 0.28526 0.0
H330 H 0.44365 0.77504 0.2367 0.0
H331 H 0.37962 0.77686 0.25923 0.0
H332 H 0.48782 0.70859 0.21504 0.0
H333 H 0.57563 0.78397 0.28683 0.0
H334 H 0.54805 0.73852 0.2953 0.0
H335 H 0.52022 0.7833 0.28603 0.0
C336 C 0.43217 0.70706 0.29233 0.0
C337 C 0.39976 0.73297 0.2855 0.0
C338 C 0.46873 0.70616 0.27944 0.0
C339 C 0.47353 0.73114 0.25953 0.0
C340 C 0.4406 0.75567 0.25208 0.0
H341 H 0.70425 0.80683 0.19706 0.0
H342 H 0.63526 0.80389 0.21397 0.0
C343 C 0.40406 0.75667 0.26499 0.0
C344 C 0.51341 0.73299 0.247 0.0
H345 H 0.61367 0.76112 0.25392 0.0
C346 C 0.51539 0.72005 0.22349 0.0
C347 C 0.54911 0.74858 0.25799 0.0
C348 C 0.5483 0.76476 0.28286 0.0
C349 C 0.55238 0.72171 0.21077 0.0
C350 C 0.58833 0.73631 0.22198 0.0
C351 C 0.58614 0.74973 0.24539 0.0
C352 C 0.62865 0.73818 0.20982 0.0
C353 C 0.5525 0.70854 0.18535 0.0
C354 C 0.64774 0.70225 0.20168 0.0
C355 C 0.68717 0.70385 0.19192 0.0
C356 C 0.70834 0.74139 0.1903 0.0
C357 C 0.68877 0.77743 0.19801 0.0
C358 C 0.64937 0.77581 0.20773 0.0
H359 H 0.52105 0.70853 0.17777 0.0
H360 H 0.5723 0.729 0.17461 0.0
H361 H 0.56485 0.67687 0.18407 0.0
H362 H 0.63269 0.67277 0.20351 0.0
H363 H 0.70149 0.67549 0.18628 0.0
H364 H 0.8286 0.20107 0.68739 0.0
H365 H 0.83268 0.13302 0.70552 0.0
H366 H 0.70141 0.13305 0.71551 0.0
H367 H 0.69711 0.20124 0.69771 0.0
H368 H 0.74459 0.11394 0.75594 0.0
H369 H 0.79918 0.0198 0.68079 0.0
H370 H 0.82975 0.06449 0.68683 0.0
H371 H 0.77762 0.07047 0.67705 0.0
C372 C 0.80051 0.18632 0.69311 0.0
C373 C 0.76251 0.20656 0.6911 0.0
C374 C 0.8029 0.14734 0.7034 0.0
C375 C 0.7673 0.12778 0.71169 0.0
C376 C 0.72925 0.14754 0.70919 0.0
H377 H 0.72601 0.88024 0.76015 0.0
H378 H 0.73023 0.94468 0.73824 0.0
C379 C 0.72684 0.18649 0.69895 0.0
C380 C 0.76984 0.08794 0.72429 0.0
H381 H 0.79756 0.98731 0.71813 0.0
C382 C 0.75619 0.08625 0.74768 0.0
C383 C 0.78475 0.05182 0.71343 0.0
C384 C 0.79835 0.05144 0.68808 0.0
C385 C 0.75702 0.04945 0.76052 0.0
C386 C 0.77256 0.01347 0.74979 0.0
C387 C 0.78612 0.01507 0.72638 0.0
C388 C 0.77287 0.97348 0.76227 0.0
C389 C 0.74027 0.04916 0.78526 0.0
C390 C 0.79628 0.96792 0.78276 0.0
C391 C 0.79394 0.93106 0.79536 0.0
C392 C 0.76821 0.89914 0.78762 0.0
C393 C 0.74602 0.90429 0.76662 0.0
C394 C 0.74842 0.94107 0.75405 0.0
H395 H 0.72138 0.0768 0.789 0.0
H396 H 0.72122 0.02139 0.78837 0.0
H397 H 0.76621 0.04864 0.7979 0.0
H398 H 0.81587 0.99233 0.7892 0.0
H399 H 0.81156 0.92795 0.8114 0.0
H400 H 0.79791 0.30111 0.3032 0.0
H401 H 0.86614 0.29519 0.28561 0.0
H402 H 0.86843 0.16603 0.30214 0.0
H403 H 0.79999 0.17164 0.31988 0.0
H404 H 0.94471 0.21059 0.31122 0.0
H405 H 0.88293 0.23565 0.22139 0.0
H406 H 0.86826 0.27396 0.24252 0.0
H407 H 0.8507 0.222 0.24601 0.0
C408 C 0.81304 0.2715 0.30334 0.0
C409 C 0.79339 0.23677 0.31279 0.0
C410 C 0.85196 0.26816 0.29318 0.0
C411 C 0.87198 0.23006 0.29225 0.0
C412 C 0.85333 0.19566 0.30258 0.0
H413 H 0.0755 0.18275 0.19617 0.0
H414 H 0.01212 0.17651 0.21909 0.0
C415 C 0.81426 0.19894 0.31271 0.0
C416 C 0.91166 0.22603 0.27969 0.0
H417 H 0.95542 0.2367 0.22552 0.0
C418 C 0.94712 0.21603 0.29247 0.0
C419 C 0.91452 0.23247 0.25516 0.0
C420 C 0.87706 0.24126 0.24036 0.0
C421 C 0.9857 0.21361 0.28144 0.0
C422 C 0.98882 0.22189 0.25707 0.0
C423 C 0.95308 0.23061 0.24422 0.0
C424 C 0.02885 0.22294 0.24457 0.0
C425 C 0.02268 0.202 0.29596 0.0
C426 C 0.05941 0.25096 0.25132 0.0
C427 C 0.09567 0.25446 0.23832 0.0
C428 C 0.10192 0.2303 0.21815 0.0
C429 C 0.07163 0.20174 0.21164 0.0
C430 C 0.03539 0.19817 0.2247 0.0
H431 H 0.01368 0.18489 0.31206 0.0
H432 H 0.04447 0.1829 0.28568 0.0
H433 H 0.03886 0.23034 0.30157 0.0
H434 H 0.05468 0.27109 0.26623 0.0
H435 H 0.11828 0.27697 0.2437 0.0
H436 H 0.3106 0.56621 0.69297 0.0
H437 H 0.31336 0.50233 0.71568 0.0
H438 H 0.2262 0.55194 0.76516 0.0
H439 H 0.22352 0.61595 0.74272 0.0
H440 H 0.29232 0.50929 0.78646 0.0
H441 H 0.21838 0.41851 0.7154 0.0
H442 H 0.26368 0.44613 0.70672 0.0
H443 H 0.2186 0.47393 0.71557 0.0
C444 C 0.29228 0.56364 0.70878 0.0
C445 C 0.26661 0.596 0.71595 0.0
C446 C 0.29374 0.52706 0.72167 0.0
C447 C 0.26949 0.52219 0.74189 0.0
C448 C 0.24503 0.55502 0.74956 0.0
H449 H 0.1943 0.29352 0.80638 0.0
H450 H 0.19764 0.36185 0.78866 0.0
C451 C 0.24351 0.59154 0.73668 0.0
C452 C 0.26846 0.4825 0.75468 0.0
H453 H 0.24125 0.38179 0.74875 0.0
C454 C 0.28123 0.48136 0.77825 0.0
C455 C 0.25336 0.4463 0.744 0.0
C456 C 0.23736 0.44612 0.7191 0.0
C457 C 0.27968 0.4448 0.79137 0.0
C458 C 0.26541 0.40839 0.78052 0.0
C459 C 0.25236 0.40968 0.75701 0.0
C460 C 0.26327 0.36858 0.79318 0.0
C461 C 0.29249 0.44565 0.81684 0.0
C462 C 0.29901 0.3498 0.80184 0.0
C463 C 0.29717 0.31076 0.81208 0.0
C464 C 0.25958 0.28966 0.81367 0.0
C465 C 0.22372 0.30895 0.80547 0.0
C466 C 0.22558 0.34797 0.79528 0.0
H467 H 0.29238 0.47736 0.82404 0.0
H468 H 0.27188 0.42625 0.82773 0.0
H469 H 0.32415 0.43336 0.81842 0.0
H470 H 0.32854 0.36477 0.80002 0.0
H471 H 0.3254 0.29664 0.81809 0.0
H472 H 0.21343 0.70503 0.29254 0.0
H473 H 0.14581 0.71113 0.27454 0.0
H474 H 0.12393 0.82268 0.31354 0.0
H475 H 0.19289 0.81788 0.33063 0.0
H476 H 0.07204 0.71002 0.28965 0.0
H477 H 0.09737 0.86308 0.24969 0.0
H478 H 0.13809 0.83464 0.26363 0.0
H479 H 0.10228 0.86382 0.28106 0.0
C480 C 0.19418 0.7308 0.29739 0.0
C481 C 0.20858 0.76113 0.31289 0.0
C482 C 0.15545 0.7343 0.28703 0.0
C483 C 0.12991 0.7679 0.29218 0.0
C484 C 0.14347 0.79723 0.30859 0.0
H485 H 0.87241 0.75362 0.24757 0.0
H486 H 0.93499 0.75743 0.27122 0.0
C487 C 0.18271 0.79421 0.31858 0.0
C488 C 0.08931 0.77171 0.28025 0.0
H489 H 0.03012 0.83575 0.24678 0.0
C490 C 0.06296 0.73755 0.28026 0.0
C491 C 0.07754 0.80736 0.26763 0.0
C492 C 0.10547 0.84413 0.26526 0.0
C493 C 0.02568 0.73772 0.26785 0.0
C494 C 0.01321 0.77388 0.25596 0.0
C495 C 0.03934 0.80821 0.25612 0.0
C496 C 0.97416 0.77601 0.24235 0.0
C497 C 0.0011 0.69843 0.26684 0.0
C498 C 0.97456 0.78799 0.2186 0.0
C499 C 0.93847 0.7872 0.20524 0.0
C500 C 0.90142 0.77378 0.21529 0.0
C501 C 0.90068 0.76352 0.23927 0.0
C502 C 0.93653 0.76528 0.25275 0.0
H503 H 0.02061 0.67113 0.27041 0.0
H504 H 0.97675 0.69931 0.28047 0.0
H505 H 0.98638 0.69434 0.2494 0.0
H506 H 0.00307 0.79677 0.21017 0.0
H507 H 0.94002 0.79546 0.18684 0.0
H508 H 0.74674 0.36936 0.74779 0.0
H509 H 0.74027 0.43123 0.77184 0.0
H510 H 0.70042 0.49924 0.71084 0.0
H511 H 0.70432 0.43686 0.68717 0.0
H512 H 0.78143 0.49695 0.76989 0.0
H513 H 0.61995 0.54213 0.75626 0.0
H514 H 0.63929 0.49285 0.74698 0.0
H515 H 0.64565 0.53751 0.72856 0.0
C516 C 0.73574 0.39736 0.73965 0.0
C517 C 0.72591 0.39826 0.71562 0.0
C518 C 0.73217 0.43276 0.75339 0.0
C519 C 0.71931 0.47003 0.74332 0.0
C520 C 0.70911 0.47078 0.71931 0.0
H521 H 0.79319 0.70928 0.79177 0.0
H522 H 0.78752 0.64065 0.775 0.0
C523 C 0.71171 0.43509 0.70568 0.0
C524 C 0.71994 0.50856 0.75746 0.0
H525 H 0.66546 0.59555 0.76985 0.0
C526 C 0.75575 0.51816 0.77012 0.0
C527 C 0.68632 0.53614 0.75826 0.0
C528 C 0.64552 0.52636 0.74699 0.0
C529 C 0.75939 0.5549 0.78284 0.0
C530 C 0.72702 0.58392 0.78209 0.0
C531 C 0.69063 0.57373 0.77015 0.0
C532 C 0.73077 0.62543 0.79287 0.0
C533 C 0.7978 0.5618 0.79716 0.0
C534 C 0.70005 0.64061 0.80791 0.0
C535 C 0.70272 0.68044 0.81707 0.0
C536 C 0.73638 0.70568 0.81154 0.0
C537 C 0.76723 0.69034 0.79669 0.0
C538 C 0.76415 0.6509 0.78719 0.0
H539 H 0.81148 0.53218 0.80288 0.0
H540 H 0.82098 0.5778 0.78618 0.0
H541 H 0.79156 0.5807 0.813 0.0
H542 H 0.67385 0.62172 0.81246 0.0
H543 H 0.67839 0.69153 0.8284 0.0
H544 H 0.95535 0.67056 0.12765 0.0
H545 H 0.98773 0.60298 0.12502 0.0
H546 H 0.91964 0.56329 0.18607 0.0
H547 H 0.88522 0.62999 0.18771 0.0
H548 H 0.0367 0.56611 0.15218 0.0
H549 H 0.89917 0.46773 0.14548 0.0
H550 H 0.89621 0.52284 0.14327 0.0
H551 H 0.89705 0.49816 0.17166 0.0
C552 C 0.94698 0.64714 0.1403 0.0
C553 C 0.91761 0.65521 0.15776 0.0
C554 C 0.96551 0.60857 0.13882 0.0
C555 C 0.95563 0.57761 0.15507 0.0
C556 C 0.92674 0.58601 0.17279 0.0
H557 H 0.11825 0.37389 0.1867 0.0
H558 H 0.08329 0.44021 0.18435 0.0
C559 C 0.90732 0.62423 0.17386 0.0
C560 C 0.97713 0.53739 0.15413 0.0
H561 H 0.96175 0.43385 0.15643 0.0
C562 C 0.02022 0.53719 0.15282 0.0
C563 C 0.95577 0.49951 0.15448 0.0
C564 C 0.90951 0.49706 0.15352 0.0
C565 C 0.04252 0.50036 0.15231 0.0
C566 C 0.02131 0.46258 0.15439 0.0
C567 C 0.97818 0.46274 0.15521 0.0
C568 C 0.04301 0.42251 0.15575 0.0
C569 C 0.08847 0.50257 0.14897 0.0
C570 C 0.03098 0.38983 0.14117 0.0
C571 C 0.04993 0.35152 0.1431 0.0
C572 C 0.08182 0.3454 0.15934 0.0
C573 C 0.09416 0.37808 0.17378 0.0
C574 C 0.07442 0.41608 0.1723 0.0
H575 H 0.09746 0.53093 0.1394 0.0
H576 H 0.10364 0.50345 0.16642 0.0
H577 H 0.10023 0.47567 0.13905 0.0
H578 H 0.00678 0.3939 0.12831 0.0
H579 H 0.03992 0.32678 0.13173 0.0
H580 H 0.82778 0.4551 0.62779 0.0
H581 H 0.89495 0.48818 0.62458 0.0
H582 H 0.93756 0.41908 0.68459 0.0
H583 H 0.87125 0.384 0.6868 0.0
H584 H 0.93274 0.53682 0.65165 0.0
H585 H 0.03138 0.39989 0.64244 0.0
H586 H 0.9762 0.39674 0.64099 0.0
H587 H 0.0021 0.39708 0.66902 0.0
C588 C 0.85174 0.44669 0.6401 0.0
C589 C 0.8446 0.41682 0.65741 0.0
C590 C 0.89007 0.46561 0.63829 0.0
C591 C 0.92174 0.45562 0.65405 0.0
C592 C 0.91427 0.42628 0.67167 0.0
H593 H 0.12662 0.61763 0.68411 0.0
H594 H 0.05998 0.58322 0.68213 0.0
C595 C 0.87627 0.40649 0.67306 0.0
C596 C 0.9618 0.47734 0.65269 0.0
H597 H 0.06547 0.46238 0.65323 0.0
C598 C 0.96176 0.52046 0.6517 0.0
C599 C 0.99977 0.45616 0.65228 0.0
C600 C 0.00236 0.40993 0.65096 0.0
C601 C 0.99846 0.54294 0.65077 0.0
C602 C 0.03641 0.52185 0.65206 0.0
C603 C 0.03646 0.47871 0.65257 0.0
C604 C 0.07646 0.54365 0.65296 0.0
C605 C 0.99591 0.58895 0.64785 0.0
C606 C 0.10855 0.53194 0.63787 0.0
C607 C 0.14704 0.55057 0.63958 0.0
C608 C 0.15393 0.58184 0.65609 0.0
C609 C 0.12179 0.59406 0.67095 0.0
C610 C 0.08361 0.57461 0.66969 0.0
H611 H 0.96708 0.59805 0.63879 0.0
H612 H 0.99576 0.60366 0.66544 0.0
H613 H 0.02229 0.60109 0.63764 0.0
H614 H 0.10391 0.5081 0.62485 0.0
H615 H 0.1714 0.54065 0.62791 0.0
H616 H 0.51783 0.18399 0.34468 0.0
H617 H 0.48327 0.1175 0.34588 0.0
H618 H 0.60002 0.05601 0.33973 0.0
H619 H 0.63511 0.12233 0.33878 0.0
H620 H 0.48527 0.05559 0.31143 0.0
H621 H 0.54639 0.00014 0.39685 0.0
H622 H 0.54906 0.05332 0.38801 0.0
H623 H 0.58491 0.01667 0.37633 0.0
C624 C 0.53631 0.15638 0.34375 0.0
C625 C 0.57935 0.15857 0.34176 0.0
C626 C 0.51643 0.11842 0.3444 0.0
C627 C 0.53915 0.08193 0.34323 0.0
C628 C 0.58203 0.08387 0.34112 0.0
H629 H 0.48236 0.82367 0.33833 0.0
H630 H 0.51441 0.89135 0.3392 0.0
C631 C 0.60199 0.12184 0.34045 0.0
C632 C 0.5178 0.04185 0.34341 0.0
H633 H 0.50953 0.95186 0.37377 0.0
C634 C 0.49032 0.03295 0.32512 0.0
C635 C 0.52457 0.01251 0.36131 0.0
C636 C 0.55255 0.02114 0.38187 0.0
C637 C 0.4701 0.99497 0.32391 0.0
C638 C 0.47705 0.96552 0.34174 0.0
C639 C 0.50431 0.97455 0.36013 0.0
C640 C 0.4571 0.92471 0.34134 0.0
C641 C 0.44239 0.98628 0.30323 0.0
C642 C 0.41421 0.92106 0.34253 0.0
C643 C 0.39567 0.88236 0.34197 0.0
C644 C 0.41977 0.8466 0.34045 0.0
C645 C 0.4628 0.85048 0.33958 0.0
C646 C 0.48124 0.88915 0.34006 0.0
H647 H 0.44822 0.0077 0.2884 0.0
H648 H 0.44652 0.95431 0.29687 0.0
H649 H 0.40992 0.99003 0.30875 0.0
H650 H 0.39509 0.94815 0.344 0.0
H651 H 0.36249 0.88051 0.34282 0.0
H652 H 0.32929 0.04195 0.8767 0.0
H653 H 0.39677 0.00947 0.87968 0.0
H654 H 0.43877 0.08043 0.82024 0.0
H655 H 0.37211 0.11489 0.81828 0.0
H656 H 0.43415 0.96173 0.852 0.0
H657 H 0.53314 0.09819 0.86221 0.0
H658 H 0.47797 0.10138 0.86387 0.0
H659 H 0.50359 0.10183 0.83576 0.0
C660 C 0.3532 0.05096 0.8645 0.0
C661 C 0.34576 0.08109 0.84738 0.0
C662 C 0.39171 0.03237 0.86618 0.0
C663 C 0.42326 0.04296 0.85046 0.0
C664 C 0.41556 0.07273 0.83312 0.0
H665 H 0.62697 0.88079 0.81831 0.0
H666 H 0.56085 0.91613 0.82052 0.0
C667 C 0.37737 0.09219 0.83187 0.0
C668 C 0.46332 0.02118 0.85146 0.0
H669 H 0.56702 0.03594 0.85069 0.0
C670 C 0.4632 0.97804 0.85201 0.0
C671 C 0.50133 0.04228 0.85194 0.0
C672 C 0.50402 0.08845 0.85369 0.0
C673 C 0.49985 0.95546 0.85257 0.0
C674 C 0.53784 0.97652 0.85133 0.0
C675 C 0.53798 0.01967 0.85127 0.0
C676 C 0.57779 0.95461 0.85006 0.0
C677 C 0.49722 0.90938 0.85503 0.0
C678 C 0.61002 0.96554 0.86525 0.0
C679 C 0.64825 0.94638 0.86343 0.0
C680 C 0.65471 0.91538 0.84669 0.0
C681 C 0.62248 0.90413 0.83164 0.0
C682 C 0.58459 0.9241 0.83303 0.0
H683 H 0.46845 0.90006 0.86409 0.0
H684 H 0.49688 0.8952 0.8373 0.0
H685 H 0.52366 0.89687 0.86505 0.0
H686 H 0.60566 0.98904 0.87849 0.0
H687 H 0.67267 0.95557 0.87525 0.0
loop_
_geom_bond_atom_site_label_1
_geom_bond_atom_site_label_2
_geom_bond_distance
_geom_bond_site_symmetry_2
_ccdc_geom_bond_type
Co0 O1 2.216 . S
Co0 O2 2.091 . S
Co0 O4 2.004 . S
Co0 O10 2.021 . S
Co0 O12 2.137 . S
Co0 O13 2.244 . S
O1 Co0 2.216 . S
O1 C8 1.247 . S
O2 Co0 2.091 . S
O2 C8 1.261 . S
C3 O12 1.247 . S
C3 O13 1.272 . S
O4 Co0 2.004 . S
O4 C9 1.259 . S
Co5 O6 2.061 . S
Co5 O11 2.052 . S
Co5 O13 2.135 . S
O6 Co5 2.061 . S
O6 C9 1.235 . S
C7 O10 1.238 . S
C7 O11 1.241 . S
C8 O1 1.247 . S
C8 O2 1.261 . S
C9 O4 1.259 . S
C9 O6 1.235 . S
O10 Co0 2.021 . S
O10 C7 1.238 . S
O11 Co5 2.052 . S
O11 C7 1.241 . S
O12 Co0 2.137 . S
O12 C3 1.247 . S
O13 Co0 2.244 . S
O13 C3 1.272 . S
O13 Co5 2.135 . S
Co14 O15 2.216 . S
Co14 O16 2.091 . S
Co14 O18 2.004 . S
Co14 O24 2.021 . S
Co14 O26 2.137 . S
Co14 O27 2.244 . S
O15 Co14 2.216 . S
O15 C22 1.247 . S
O16 Co14 2.091 . S
O16 C22 1.261 . S
C17 O26 1.247 . S
C17 O27 1.272 . S
O18 Co14 2.004 . S
O18 C23 1.259 . S
Co19 O20 2.061 . S
Co19 O25 2.052 . S
Co19 O27 2.135 . S
O20 Co19 2.061 . S
O20 C23 1.235 . S
C21 O24 1.238 . S
C21 O25 1.241 . S
C22 O15 1.247 . S
C22 O16 1.261 . S
C23 O18 1.259 . S
C23 O20 1.235 . S
O24 Co14 2.021 . S
O24 C21 1.238 . S
O25 Co19 2.052 . S
O25 C21 1.241 . S
O26 Co14 2.137 . S
O26 C17 1.247 . S
O27 Co14 2.244 . S
O27 C17 1.272 . S
O27 Co19 2.135 . S
Co28 O29 2.216 . S
Co28 O30 2.091 . S
Co28 O32 2.004 . S
Co28 O38 2.021 . S
Co28 O40 2.137 . S
Co28 O41 2.244 . S
O29 Co28 2.216 . S
O29 C36 1.247 . S
O30 Co28 2.091 . S
O30 C36 1.261 . S
C31 O40 1.247 . S
C31 O41 1.272 . S
O32 Co28 2.004 . S
O32 C37 1.259 . S
Co33 O34 2.061 . S
Co33 O39 2.052 . S
Co33 O41 2.135 . S
O34 Co33 2.061 . S
O34 C37 1.235 . S
C35 O38 1.238 . S
C35 O39 1.241 . S
C36 O29 1.247 . S
C36 O30 1.261 . S
C37 O32 1.259 . S
C37 O34 1.235 . S
O38 Co28 2.021 . S
O38 C35 1.238 . S
O39 Co33 2.052 . S
O39 C35 1.241 . S
O40 Co28 2.137 . S
O40 C31 1.247 . S
O41 Co28 2.244 . S
O41 C31 1.272 . S
O41 Co33 2.135 . S
Co42 O43 2.216 . S
Co42 O44 2.091 . S
Co42 O46 2.004 . S
Co42 O52 2.021 . S
Co42 O54 2.137 . S
Co42 O55 2.244 . S
O43 Co42 2.216 . S
O43 C50 1.247 . S
O44 Co42 2.091 . S
O44 C50 1.261 . S
C45 O54 1.247 . S
C45 O55 1.272 . S
O46 Co42 2.004 . S
O46 C51 1.259 . S
Co47 O48 2.061 . S
Co47 O53 2.052 . S
Co47 O55 2.135 . S
O48 Co47 2.061 . S
O48 C51 1.235 . S
C49 O52 1.238 . S
C49 O53 1.241 . S
C50 O43 1.247 . S
C50 O44 1.261 . S
C51 O46 1.259 . S
C51 O48 1.235 . S
O52 Co42 2.021 . S
O52 C49 1.238 . S
O53 Co47 2.052 . S
O53 C49 1.241 . S
O54 Co42 2.137 . S
O54 C45 1.247 . S
O55 Co42 2.244 . S
O55 C45 1.272 . S
O55 Co47 2.135 . S
Co56 O57 2.216 . S
Co56 O58 2.091 . S
Co56 O60 2.004 . S
Co56 O66 2.021 . S
Co56 O68 2.137 . S
Co56 O69 2.244 . S
O57 Co56 2.216 . S
O57 C64 1.247 . S
O58 Co56 2.091 . S
O58 C64 1.261 . S
C59 O68 1.247 . S
C59 O69 1.272 . S
O60 Co56 2.004 . S
O60 C65 1.259 . S
Co61 O62 2.061 . S
Co61 O67 2.052 . S
Co61 O69 2.135 . S
O62 Co61 2.061 . S
O62 C65 1.235 . S
C63 O66 1.238 . S
C63 O67 1.241 . S
C64 O57 1.247 . S
C64 O58 1.261 . S
C65 O60 1.259 . S
C65 O62 1.235 . S
O66 Co56 2.021 . S
O66 C63 1.238 . S
O67 Co61 2.052 . S
O67 C63 1.241 . S
O68 Co56 2.137 . S
O68 C59 1.247 . S
O69 Co56 2.244 . S
O69 C59 1.272 . S
O69 Co61 2.135 . S
Co70 O71 2.216 . S
Co70 O72 2.091 . S
Co70 O74 2.004 . S
Co70 O80 2.021 . S
Co70 O82 2.137 . S
Co70 O83 2.244 . S
O71 Co70 2.216 . S
O71 C78 1.247 . S
O72 Co70 2.091 . S
O72 C78 1.261 . S
C73 O82 1.247 . S
C73 O83 1.272 . S
O74 Co70 2.004 . S
O74 C79 1.259 . S
Co75 O76 2.061 . S
Co75 O81 2.052 . S
Co75 O83 2.135 . S
O76 Co75 2.061 . S
O76 C79 1.235 . S
C77 O80 1.238 . S
C77 O81 1.241 . S
C78 O71 1.247 . S
C78 O72 1.261 . S
C79 O74 1.259 . S
C79 O76 1.235 . S
O80 Co70 2.021 . S
O80 C77 1.238 . S
O81 Co75 2.052 . S
O81 C77 1.241 . S
O82 Co70 2.137 . S
O82 C73 1.247 . S
O83 Co70 2.244 . S
O83 C73 1.272 . S
O83 Co75 2.135 . S
Co84 O85 2.216 . S
Co84 O86 2.091 . S
Co84 O88 2.004 . S
Co84 O94 2.021 . S
Co84 O96 2.137 . S
Co84 O97 2.244 . S
O85 Co84 2.216 . S
O85 C92 1.247 . S
O86 Co84 2.091 . S
O86 C92 1.261 . S
C87 O96 1.247 . S
C87 O97 1.272 . S
O88 Co84 2.004 . S
O88 C93 1.259 . S
Co89 O90 2.061 . S
Co89 O95 2.052 . S
Co89 O97 2.135 . S
O90 Co89 2.061 . S
O90 C93 1.235 . S
C91 O94 1.238 . S
C91 O95 1.241 . S
C92 O85 1.247 . S
C92 O86 1.261 . S
C93 O88 1.259 . S
C93 O90 1.235 . S
O94 Co84 2.021 . S
O94 C91 1.238 . S
O95 Co89 2.052 . S
O95 C91 1.241 . S
O96 Co84 2.137 . S
O96 C87 1.247 . S
O97 Co84 2.244 . S
O97 C87 1.272 . S
O97 Co89 2.135 . S
Co98 O99 2.216 . S
Co98 O100 2.091 . S
Co98 O102 2.004 . S
Co98 O108 2.021 . S
Co98 O110 2.137 . S
Co98 O111 2.244 . S
O99 Co98 2.216 . S
O99 C106 1.247 . S
O100 Co98 2.091 . S
O100 C106 1.261 . S
C101 O110 1.247 . S
C101 O111 1.272 . S
O102 Co98 2.004 . S
O102 C107 1.259 . S
Co103 O104 2.061 . S
Co103 O109 2.052 . S
Co103 O111 2.135 . S
O104 Co103 2.061 . S
O104 C107 1.235 . S
C105 O108 1.238 . S
C105 O109 1.241 . S
C106 O99 1.247 . S
C106 O100 1.261 . S
C107 O102 1.259 . S
C107 O104 1.235 . S
O108 Co98 2.021 . S
O108 C105 1.238 . S
O109 Co103 2.052 . S
O109 C105 1.241 . S
O110 Co98 2.137 . S
O110 C101 1.247 . S
O111 Co98 2.244 . S
O111 C101 1.272 . S
O111 Co103 2.135 . S
H112 C120 0.929 . S
H113 C122 0.930 . S
H114 C124 0.930 . S
H115 C127 0.929 . S
H116 C130 0.930 . S
H117 C132 0.960 . S
H118 C132 0.960 . S
H119 C132 0.960 . S
C120 H112 0.929 . S
C120 C121 1.377 . S
C120 C122 1.384 . S
C121 C120 1.377 . S
C121 C127 1.390 . S
C122 H113 0.930 . S
C122 C120 1.384 . S
C122 C123 1.372 . S
C123 C122 1.372 . S
C123 C124 1.400 . S
C123 C128 1.490 . S
C124 H114 0.930 . S
C124 C123 1.400 . S
C124 C127 1.386 . S
H125 C141 0.930 . S
H126 C142 0.931 . S
C127 H115 0.929 . S
C127 C121 1.390 . S
C127 C124 1.386 . S
C128 C123 1.490 . S
C128 C130 1.395 . S
C128 C131 1.403 . S
H129 C135 0.930 . S
C130 H116 0.930 . S
C130 C128 1.395 . S
C130 C133 1.403 1_554 S
C131 C128 1.403 . S
C131 C132 1.524 . S
C131 C135 1.400 1_554 S
C132 H117 0.960 . S
C132 H118 0.960 . S
C132 H119 0.960 . S
C132 C131 1.524 . S
C133 C130 1.403 1_556 S
C133 C134 1.392 . S
C133 C137 1.495 . S
C134 C133 1.392 . S
C134 C135 1.385 . S
C134 C136 1.478 . S
C135 H129 0.930 . S
C135 C131 1.400 1_556 S
C135 C134 1.385 . S
C136 C134 1.478 . S
C136 C138 1.381 . S
C136 C142 1.383 . S
C137 C133 1.495 . S
C137 H143 0.959 . S
C137 H144 0.961 . S
C137 H145 0.960 . S
C138 C136 1.381 . S
C138 C139 1.394 . S
C138 H146 0.930 . S
C139 C138 1.394 . S
C139 C140 1.383 . S
C139 H147 0.929 . S
C140 C139 1.383 . S
C140 C141 1.377 . S
C141 H125 0.930 . S
C141 C140 1.377 . S
C141 C142 1.379 . S
C142 H126 0.931 . S
C142 C136 1.383 . S
C142 C141 1.379 . S
H143 C137 0.959 . S
H144 C137 0.961 . S
H145 C137 0.960 . S
H146 C138 0.930 . S
H147 C139 0.929 . S
H148 C156 0.929 . S
H149 C158 0.930 . S
H150 C160 0.930 . S
H151 C163 0.929 . S
H152 C166 0.930 . S
H153 C168 0.960 . S
H154 C168 0.960 . S
H155 C168 0.960 . S
C156 H148 0.929 . S
C156 C157 1.377 . S
C156 C158 1.384 . S
C157 C156 1.377 . S
C157 C163 1.390 . S
C158 H149 0.930 . S
C158 C156 1.384 . S
C158 C159 1.372 . S
C159 C158 1.372 . S
C159 C160 1.400 . S
C159 C164 1.490 . S
C160 H150 0.930 . S
C160 C159 1.400 . S
C160 C163 1.386 . S
H161 C177 0.930 . S
H162 C178 0.931 . S
C163 H151 0.929 . S
C163 C157 1.390 . S
C163 C160 1.386 . S
C164 C159 1.490 . S
C164 C166 1.395 . S
C164 C167 1.403 . S
H165 C171 0.930 . S
C166 H152 0.930 . S
C166 C164 1.395 . S
C166 C169 1.403 . S
C167 C164 1.403 . S
C167 C168 1.524 . S
C167 C171 1.400 . S
C168 H153 0.960 . S
C168 H154 0.960 . S
C168 H155 0.960 . S
C168 C167 1.524 . S
C169 C166 1.403 . S
C169 C170 1.392 . S
C169 C173 1.495 . S
C170 C169 1.392 . S
C170 C171 1.385 . S
C170 C172 1.478 . S
C171 H165 0.930 . S
C171 C167 1.400 . S
C171 C170 1.385 . S
C172 C170 1.478 . S
C172 C174 1.381 . S
C172 C178 1.383 . S
C173 C169 1.495 . S
C173 H179 0.959 . S
C173 H180 0.961 . S
C173 H181 0.960 . S
C174 C172 1.381 . S
C174 C175 1.394 . S
C174 H182 0.930 . S
C175 C174 1.394 . S
C175 C176 1.383 . S
C175 H183 0.929 . S
C176 C175 1.383 . S
C176 C177 1.377 . S
C177 H161 0.930 . S
C177 C176 1.377 . S
C177 C178 1.379 . S
C178 H162 0.931 . S
C178 C172 1.383 . S
C178 C177 1.379 . S
H179 C173 0.959 . S
H180 C173 0.961 . S
H181 C173 0.960 . S
H182 C174 0.930 . S
H183 C175 0.929 . S
H184 C192 0.929 . S
H185 C194 0.930 . S
H186 C196 0.930 . S
H187 C199 0.929 . S
H188 C202 0.930 . S
H189 C204 0.960 . S
H190 C204 0.960 . S
H191 C204 0.960 . S
C192 H184 0.929 . S
C192 C193 1.377 . S
C192 C194 1.384 . S
C193 C192 1.377 . S
C193 C199 1.390 . S
C194 H185 0.930 . S
C194 C192 1.384 . S
C194 C195 1.372 . S
C195 C194 1.372 . S
C195 C196 1.400 . S
C195 C200 1.490 . S
C196 H186 0.930 . S
C196 C195 1.400 . S
C196 C199 1.386 . S
H197 C213 0.930 . S
H198 C214 0.931 . S
C199 H187 0.929 . S
C199 C193 1.390 . S
C199 C196 1.386 . S
C200 C195 1.490 . S
C200 C202 1.395 . S
C200 C203 1.403 . S
H201 C207 0.930 . S
C202 H188 0.930 . S
C202 C200 1.395 . S
C202 C205 1.403 1_554 S
C203 C200 1.403 . S
C203 C204 1.524 . S
C203 C207 1.400 1_554 S
C204 H189 0.960 . S
C204 H190 0.960 . S
C204 H191 0.960 . S
C204 C203 1.524 . S
C205 C202 1.403 1_556 S
C205 C206 1.392 . S
C205 C209 1.495 . S
C206 C205 1.392 . S
C206 C207 1.385 . S
C206 C208 1.478 . S
C207 H201 0.930 . S
C207 C203 1.400 1_556 S
C207 C206 1.385 . S
C208 C206 1.478 . S
C208 C210 1.381 . S
C208 C214 1.383 . S
C209 C205 1.495 . S
C209 H215 0.959 . S
C209 H216 0.961 . S
C209 H217 0.960 . S
C210 C208 1.381 . S
C210 C211 1.394 . S
C210 H218 0.930 . S
C211 C210 1.394 . S
C211 C212 1.383 . S
C211 H219 0.929 . S
C212 C211 1.383 . S
C212 C213 1.377 . S
C213 H197 0.930 . S
C213 C212 1.377 . S
C213 C214 1.379 . S
C214 H198 0.931 . S
C214 C208 1.383 . S
C214 C213 1.379 . S
H215 C209 0.959 . S
H216 C209 0.961 . S
H217 C209 0.960 . S
H218 C210 0.930 . S
H219 C211 0.929 . S
H220 C228 0.929 . S
H221 C230 0.930 . S
H222 C232 0.930 . S
H223 C235 0.929 . S
H224 C238 0.930 . S
H225 C240 0.960 . S
H226 C240 0.960 . S
H227 C240 0.960 . S
C228 H220 0.929 . S
C228 C229 1.377 . S
C228 C230 1.384 . S
C229 C228 1.377 . S
C229 C235 1.390 . S
C230 H221 0.930 . S
C230 C228 1.384 . S
C230 C231 1.372 . S
C231 C230 1.372 . S
C231 C232 1.400 . S
C231 C236 1.490 . S
C232 H222 0.930 . S
C232 C231 1.400 . S
C232 C235 1.386 . S
H233 C249 0.930 . S
H234 C250 0.931 . S
C235 H223 0.929 . S
C235 C229 1.390 . S
C235 C232 1.386 . S
C236 C231 1.490 . S
C236 C238 1.395 . S
C236 C239 1.403 . S
H237 C243 0.930 . S
C238 H224 0.930 . S
C238 C236 1.395 . S
C238 C241 1.403 . S
C239 C236 1.403 . S
C239 C240 1.524 . S
C239 C243 1.400 . S
C240 H225 0.960 . S
C240 H226 0.960 . S
C240 H227 0.960 . S
C240 C239 1.524 . S
C241 C238 1.403 . S
C241 C242 1.392 . S
C241 C245 1.495 . S
C242 C241 1.392 . S
C242 C243 1.385 . S
C242 C244 1.478 . S
C243 H237 0.930 . S
C243 C239 1.400 . S
C243 C242 1.385 . S
C244 C242 1.478 . S
C244 C246 1.381 . S
C244 C250 1.383 . S
C245 C241 1.495 . S
C245 H251 0.959 . S
C245 H252 0.961 . S
C245 H253 0.960 . S
C246 C244 1.381 . S
C246 C247 1.394 . S
C246 H254 0.930 . S
C247 C246 1.394 . S
C247 C248 1.383 . S
C247 H255 0.929 . S
C248 C247 1.383 . S
C248 C249 1.377 . S
C249 H233 0.930 . S
C249 C248 1.377 . S
C249 C250 1.379 . S
C250 H234 0.931 . S
C250 C244 1.383 . S
C250 C249 1.379 . S
H251 C245 0.959 . S
H252 C245 0.961 . S
H253 C245 0.960 . S
H254 C246 0.930 . S
H255 C247 0.929 . S
H256 C264 0.929 . S
H257 C266 0.930 . S
H258 C268 0.930 . S
H259 C271 0.929 . S
H260 C274 0.930 . S
H261 C276 0.960 . S
H262 C276 0.960 . S
H263 C276 0.960 . S
C264 H256 0.929 . S
C264 C265 1.377 . S
C264 C266 1.384 . S
C265 C264 1.377 . S
C265 C271 1.390 . S
C266 H257 0.930 . S
C266 C264 1.384 . S
C266 C267 1.372 . S
C267 C266 1.372 . S
C267 C268 1.400 . S
C267 C272 1.490 . S
C268 H258 0.930 . S
C268 C267 1.400 . S
C268 C271 1.386 . S
H269 C285 0.930 . S
H270 C286 0.931 . S
C271 H259 0.929 . S
C271 C265 1.390 . S
C271 C268 1.386 . S
C272 C267 1.490 . S
C272 C274 1.395 . S
C272 C275 1.403 . S
H273 C279 0.930 . S
C274 H260 0.930 . S
C274 C272 1.395 . S
C274 C277 1.403 . S
C275 C272 1.403 . S
C275 C276 1.524 . S
C275 C279 1.400 . S
C276 H261 0.960 . S
C276 H262 0.960 . S
C276 H263 0.960 . S
C276 C275 1.524 . S
C277 C274 1.403 . S
C277 C278 1.392 . S
C277 C281 1.495 . S
C278 C277 1.392 . S
C278 C279 1.385 . S
C278 C280 1.478 . S
C279 H273 0.930 . S
C279 C275 1.400 . S
C279 C278 1.385 . S
C280 C278 1.478 . S
C280 C282 1.381 . S
C280 C286 1.383 . S
C281 C277 1.495 . S
C281 H287 0.959 . S
C281 H288 0.961 . S
C281 H289 0.960 . S
C282 C280 1.381 . S
C282 C283 1.394 . S
C282 H290 0.930 . S
C283 C282 1.394 . S
C283 C284 1.383 . S
C283 H291 0.929 . S
C284 C283 1.383 . S
C284 C285 1.377 . S
C285 H269 0.930 . S
C285 C284 1.377 . S
C285 C286 1.379 . S
C286 H270 0.931 . S
C286 C280 1.383 . S
C286 C285 1.379 . S
H287 C281 0.959 . S
H288 C281 0.961 . S
H289 C281 0.960 . S
H290 C282 0.930 . S
H291 C283 0.929 . S
H292 C300 0.929 . S
H293 C302 0.930 . S
H294 C304 0.930 . S
H295 C307 0.929 . S
H296 C310 0.930 . S
H297 C312 0.960 . S
H298 C312 0.960 . S
H299 C312 0.960 . S
C300 H292 0.929 . S
C300 C301 1.377 . S
C300 C302 1.384 . S
C301 C300 1.377 . S
C301 C307 1.390 . S
C302 H293 0.930 . S
C302 C300 1.384 . S
C302 C303 1.372 . S
C303 C302 1.372 . S
C303 C304 1.400 . S
C303 C308 1.490 . S
C304 H294 0.930 . S
C304 C303 1.400 . S
C304 C307 1.386 . S
H305 C321 0.930 . S
H306 C322 0.931 . S
C307 H295 0.929 . S
C307 C301 1.390 . S
C307 C304 1.386 . S
C308 C303 1.490 . S
C308 C310 1.395 . S
C308 C311 1.403 . S
H309 C315 0.930 . S
C310 H296 0.930 . S
C310 C308 1.395 . S
C310 C313 1.403 . S
C311 C308 1.403 . S
C311 C312 1.524 . S
C311 C315 1.400 . S
C312 H297 0.960 . S
C312 H298 0.960 . S
C312 H299 0.960 . S
C312 C311 1.524 . S
C313 C310 1.403 . S
C313 C314 1.392 . S
C313 C317 1.495 . S
C314 C313 1.392 . S
C314 C315 1.385 . S
C314 C316 1.478 . S
C315 H309 0.930 . S
C315 C311 1.400 . S
C315 C314 1.385 . S
C316 C314 1.478 . S
C316 C318 1.381 . S
C316 C322 1.383 1_565 S
C317 C313 1.495 . S
C317 H323 0.959 . S
C317 H324 0.961 . S
C317 H325 0.960 . S
C318 C316 1.381 . S
C318 C319 1.394 1_565 S
C318 H326 0.930 . S
C319 C318 1.394 1_545 S
C319 C320 1.383 . S
C319 H327 0.929 . S
C320 C319 1.383 . S
C320 C321 1.377 . S
C321 H305 0.930 . S
C321 C320 1.377 . S
C321 C322 1.379 . S
C322 H306 0.931 . S
C322 C316 1.383 1_545 S
C322 C321 1.379 . S
H323 C317 0.959 . S
H324 C317 0.961 . S
H325 C317 0.960 . S
H326 C318 0.930 . S
H327 C319 0.929 . S
H328 C336 0.929 . S
H329 C338 0.930 . S
H330 C340 0.930 . S
H331 C343 0.929 . S
H332 C346 0.930 . S
H333 C348 0.960 . S
H334 C348 0.960 . S
H335 C348 0.960 . S
C336 H328 0.929 . S
C336 C337 1.377 . S
C336 C338 1.384 . S
C337 C336 1.377 . S
C337 C343 1.390 . S
C338 H329 0.930 . S
C338 C336 1.384 . S
C338 C339 1.372 . S
C339 C338 1.372 . S
C339 C340 1.400 . S
C339 C344 1.490 . S
C340 H330 0.930 . S
C340 C339 1.400 . S
C340 C343 1.386 . S
H341 C357 0.930 . S
H342 C358 0.931 . S
C343 H331 0.929 . S
C343 C337 1.390 . S
C343 C340 1.386 . S
C344 C339 1.490 . S
C344 C346 1.395 . S
C344 C347 1.403 . S
H345 C351 0.930 . S
C346 H332 0.930 . S
C346 C344 1.395 . S
C346 C349 1.403 . S
C347 C344 1.403 . S
C347 C348 1.524 . S
C347 C351 1.400 . S
C348 H333 0.960 . S
C348 H334 0.960 . S
C348 H335 0.960 . S
C348 C347 1.524 . S
C349 C346 1.403 . S
C349 C350 1.392 . S
C349 C353 1.495 . S
C350 C349 1.392 . S
C350 C351 1.385 . S
C350 C352 1.478 . S
C351 H345 0.930 . S
C351 C347 1.400 . S
C351 C350 1.385 . S
C352 C350 1.478 . S
C352 C354 1.381 . S
C352 C358 1.383 . S
C353 C349 1.495 . S
C353 H359 0.959 . S
C353 H360 0.961 . S
C353 H361 0.960 . S
C354 C352 1.381 . S
C354 C355 1.394 . S
C354 H362 0.930 . S
C355 C354 1.394 . S
C355 C356 1.383 . S
C355 H363 0.929 . S
C356 C355 1.383 . S
C356 C357 1.377 . S
C357 H341 0.930 . S
C357 C356 1.377 . S
C357 C358 1.379 . S
C358 H342 0.931 . S
C358 C352 1.383 . S
C358 C357 1.379 . S
H359 C353 0.959 . S
H360 C353 0.961 . S
H361 C353 0.960 . S
H362 C354 0.930 . S
H363 C355 0.929 . S
H364 C372 0.929 . S
H365 C374 0.930 . S
H366 C376 0.930 . S
H367 C379 0.929 . S
H368 C382 0.930 . S
H369 C384 0.960 . S
H370 C384 0.960 . S
H371 C384 0.960 . S
C372 H364 0.929 . S
C372 C373 1.377 . S
C372 C374 1.384 . S
C373 C372 1.377 . S
C373 C379 1.390 . S
C374 H365 0.930 . S
C374 C372 1.384 . S
C374 C375 1.372 . S
C375 C374 1.372 . S
C375 C376 1.400 . S
C375 C380 1.490 . S
C376 H366 0.930 . S
C376 C375 1.400 . S
C376 C379 1.386 . S
H377 C393 0.930 . S
H378 C394 0.931 . S
C379 H367 0.929 . S
C379 C373 1.390 . S
C379 C376 1.386 . S
C380 C375 1.490 . S
C380 C382 1.395 . S
C380 C383 1.403 . S
H381 C387 0.930 . S
C382 H368 0.930 . S
C382 C380 1.395 . S
C382 C385 1.403 . S
C383 C380 1.403 . S
C383 C384 1.524 . S
C383 C387 1.400 . S
C384 H369 0.960 . S
C384 H370 0.960 . S
C384 H371 0.960 . S
C384 C383 1.524 . S
C385 C382 1.403 . S
C385 C386 1.392 . S
C385 C389 1.495 . S
C386 C385 1.392 . S
C386 C387 1.385 . S
C386 C388 1.478 . S
C387 H381 0.930 . S
C387 C383 1.400 . S
C387 C386 1.385 . S
C388 C386 1.478 . S
C388 C390 1.381 1_545 S
C388 C394 1.383 1_545 S
C389 C385 1.495 . S
C389 H395 0.959 . S
C389 H396 0.961 . S
C389 H397 0.960 . S
C390 C388 1.381 1_565 S
C390 C391 1.394 . S
C390 H398 0.930 1_565 S
C391 C390 1.394 . S
C391 C392 1.383 . S
C391 H399 0.929 . S
C392 C391 1.383 . S
C392 C393 1.377 . S
C393 H377 0.930 . S
C393 C392 1.377 . S
C393 C394 1.379 . S
C394 H378 0.931 . S
C394 C388 1.383 1_565 S
C394 C393 1.379 . S
H395 C389 0.959 . S
H396 C389 0.961 . S
H397 C389 0.960 . S
H398 C390 0.930 1_545 S
H399 C391 0.929 . S
H400 C408 0.929 . S
H401 C410 0.930 . S
H402 C412 0.930 . S
H403 C415 0.929 . S
H404 C418 0.930 . S
H405 C420 0.960 . S
H406 C420 0.960 . S
H407 C420 0.960 . S
C408 H400 0.929 . S
C408 C409 1.377 . S
C408 C410 1.384 . S
C409 C408 1.377 . S
C409 C415 1.390 . S
C410 H401 0.930 . S
C410 C408 1.384 . S
C410 C411 1.372 . S
C411 C410 1.372 . S
C411 C412 1.400 . S
C411 C416 1.490 . S
C412 H402 0.930 . S
C412 C411 1.400 . S
C412 C415 1.386 . S
H413 C429 0.930 . S
H414 C430 0.931 . S
C415 H403 0.929 . S
C415 C409 1.390 . S
C415 C412 1.386 . S
C416 C411 1.490 . S
C416 C418 1.395 . S
C416 C419 1.403 . S
H417 C423 0.930 . S
C418 H404 0.930 . S
C418 C416 1.395 . S
C418 C421 1.403 . S
C419 C416 1.403 . S
C419 C420 1.524 . S
C419 C423 1.400 . S
C420 H405 0.960 . S
C420 H406 0.960 . S
C420 H407 0.960 . S
C420 C419 1.524 . S
C421 C418 1.403 . S
C421 C422 1.392 . S
C421 C425 1.495 . S
C422 C421 1.392 . S
C422 C423 1.385 . S
C422 C424 1.478 1_655 S
C423 H417 0.930 . S
C423 C419 1.400 . S
C423 C422 1.385 . S
C424 C422 1.478 1_455 S
C424 C426 1.381 . S
C424 C430 1.383 . S
C425 C421 1.495 . S
C425 H431 0.959 . S
C425 H432 0.961 1_655 S
C425 H433 0.960 . S
C426 C424 1.381 . S
C426 C427 1.394 . S
C426 H434 0.930 1_455 S
C427 C426 1.394 . S
C427 C428 1.383 . S
C427 H435 0.929 . S
C428 C427 1.383 . S
C428 C429 1.377 . S
C429 H413 0.930 . S
C429 C428 1.377 . S
C429 C430 1.379 . S
C430 H414 0.931 . S
C430 C424 1.383 . S
C430 C429 1.379 . S
H431 C425 0.959 . S
H432 C425 0.961 1_455 S
H433 C425 0.960 . S
H434 C426 0.930 1_655 S
H435 C427 0.929 . S
H436 C444 0.929 . S
H437 C446 0.930 . S
H438 C448 0.930 . S
H439 C451 0.929 . S
H440 C454 0.930 . S
H441 C456 0.960 . S
H442 C456 0.960 . S
H443 C456 0.960 . S
C444 H436 0.929 . S
C444 C445 1.377 . S
C444 C446 1.384 . S
C445 C444 1.377 . S
C445 C451 1.390 . S
C446 H437 0.930 . S
C446 C444 1.384 . S
C446 C447 1.372 . S
C447 C446 1.372 . S
C447 C448 1.400 . S
C447 C452 1.490 . S
C448 H438 0.930 . S
C448 C447 1.400 . S
C448 C451 1.386 . S
H449 C465 0.930 . S
H450 C466 0.931 . S
C451 H439 0.929 . S
C451 C445 1.390 . S
C451 C448 1.386 . S
C452 C447 1.490 . S
C452 C454 1.395 . S
C452 C455 1.403 . S
H453 C459 0.930 . S
C454 H440 0.930 . S
C454 C452 1.395 . S
C454 C457 1.403 . S
C455 C452 1.403 . S
C455 C456 1.524 . S
C455 C459 1.400 . S
C456 H441 0.960 . S
C456 H442 0.960 . S
C456 H443 0.960 . S
C456 C455 1.524 . S
C457 C454 1.403 . S
C457 C458 1.392 . S
C457 C461 1.495 . S
C458 C457 1.392 . S
C458 C459 1.385 . S
C458 C460 1.478 . S
C459 H453 0.930 . S
C459 C455 1.400 . S
C459 C458 1.385 . S
C460 C458 1.478 . S
C460 C462 1.381 . S
C460 C466 1.383 . S
C461 C457 1.495 . S
C461 H467 0.959 . S
C461 H468 0.961 . S
C461 H469 0.960 . S
C462 C460 1.381 . S
C462 C463 1.394 . S
C462 H470 0.930 . S
C463 C462 1.394 . S
C463 C464 1.383 . S
C463 H471 0.929 . S
C464 C463 1.383 . S
C464 C465 1.377 . S
C465 H449 0.930 . S
C465 C464 1.377 . S
C465 C466 1.379 . S
C466 H450 0.931 . S
C466 C460 1.383 . S
C466 C465 1.379 . S
H467 C461 0.959 . S
H468 C461 0.961 . S
H469 C461 0.960 . S
H470 C462 0.930 . S
H471 C463 0.929 . S
H472 C480 0.929 . S
H473 C482 0.930 . S
H474 C484 0.930 . S
H475 C487 0.929 . S
H476 C490 0.930 . S
H477 C492 0.960 . S
H478 C492 0.960 . S
H479 C492 0.960 . S
C480 H472 0.929 . S
C480 C481 1.377 . S
C480 C482 1.384 . S
C481 C480 1.377 . S
C481 C487 1.390 . S
C482 H473 0.930 . S
C482 C480 1.384 . S
C482 C483 1.372 . S
C483 C482 1.372 . S
C483 C484 1.400 . S
C483 C488 1.490 . S
C484 H474 0.930 . S
C484 C483 1.400 . S
C484 C487 1.386 . S
H485 C501 0.930 . S
H486 C502 0.931 . S
C487 H475 0.929 . S
C487 C481 1.390 . S
C487 C484 1.386 . S
C488 C483 1.490 . S
C488 C490 1.395 . S
C488 C491 1.403 . S
H489 C495 0.930 . S
C490 H476 0.930 . S
C490 C488 1.395 . S
C490 C493 1.403 . S
C491 C488 1.403 . S
C491 C492 1.524 . S
C491 C495 1.400 . S
C492 H477 0.960 . S
C492 H478 0.960 . S
C492 H479 0.960 . S
C492 C491 1.524 . S
C493 C490 1.403 . S
C493 C494 1.392 . S
C493 C497 1.495 . S
C494 C493 1.392 . S
C494 C495 1.385 . S
C494 C496 1.478 . S
C495 H489 0.930 . S
C495 C491 1.400 . S
C495 C494 1.385 . S
C496 C494 1.478 . S
C496 C498 1.381 . S
C496 C502 1.383 1_455 S
C497 C493 1.495 . S
C497 H503 0.959 . S
C497 H504 0.961 . S
C497 H505 0.960 . S
C498 C496 1.381 . S
C498 C499 1.394 1_455 S
C498 H506 0.930 . S
C499 C498 1.394 1_655 S
C499 C500 1.383 . S
C499 H507 0.929 . S
C500 C499 1.383 . S
C500 C501 1.377 . S
C501 H485 0.930 . S
C501 C500 1.377 . S
C501 C502 1.379 . S
C502 H486 0.931 . S
C502 C496 1.383 1_655 S
C502 C501 1.379 . S
H503 C497 0.959 . S
H504 C497 0.961 . S
H505 C497 0.960 . S
H506 C498 0.930 . S
H507 C499 0.929 . S
H508 C516 0.929 . S
H509 C518 0.930 . S
H510 C520 0.930 . S
H511 C523 0.929 . S
H512 C526 0.930 . S
H513 C528 0.960 . S
H514 C528 0.960 . S
H515 C528 0.960 . S
C516 H508 0.929 . S
C516 C517 1.377 . S
C516 C518 1.384 . S
C517 C516 1.377 . S
C517 C523 1.390 . S
C518 H509 0.930 . S
C518 C516 1.384 . S
C518 C519 1.372 . S
C519 C518 1.372 . S
C519 C520 1.400 . S
C519 C524 1.490 . S
C520 H510 0.930 . S
C520 C519 1.400 . S
C520 C523 1.386 . S
H521 C537 0.930 . S
H522 C538 0.931 . S
C523 H511 0.929 . S
C523 C517 1.390 . S
C523 C520 1.386 . S
C524 C519 1.490 . S
C524 C526 1.395 . S
C524 C527 1.403 . S
H525 C531 0.930 . S
C526 H512 0.930 . S
C526 C524 1.395 . S
C526 C529 1.403 . S
C527 C524 1.403 . S
C527 C528 1.524 . S
C527 C531 1.400 . S
C528 H513 0.960 . S
C528 H514 0.960 . S
C528 H515 0.960 . S
C528 C527 1.524 . S
C529 C526 1.403 . S
C529 C530 1.392 . S
C529 C533 1.495 . S
C530 C529 1.392 . S
C530 C531 1.385 . S
C530 C532 1.478 . S
C531 H525 0.930 . S
C531 C527 1.400 . S
C531 C530 1.385 . S
C532 C530 1.478 . S
C532 C534 1.381 . S
C532 C538 1.383 . S
C533 C529 1.495 . S
C533 H539 0.959 . S
C533 H540 0.961 . S
C533 H541 0.960 . S
C534 C532 1.381 . S
C534 C535 1.394 . S
C534 H542 0.930 . S
C535 C534 1.394 . S
C535 C536 1.383 . S
C535 H543 0.929 . S
C536 C535 1.383 . S
C536 C537 1.377 . S
C537 H521 0.930 . S
C537 C536 1.377 . S
C537 C538 1.379 . S
C538 H522 0.931 . S
C538 C532 1.383 . S
C538 C537 1.379 . S
H539 C533 0.959 . S
H540 C533 0.961 . S
H541 C533 0.960 . S
H542 C534 0.930 . S
H543 C535 0.929 . S
H544 C552 0.929 . S
H545 C554 0.930 . S
H546 C556 0.930 . S
H547 C559 0.929 . S
H548 C562 0.930 . S
H549 C564 0.960 . S
H550 C564 0.960 . S
H551 C564 0.960 . S
C552 H544 0.929 . S
C552 C553 1.377 . S
C552 C554 1.384 . S
C553 C552 1.377 . S
C553 C559 1.390 . S
C554 H545 0.930 . S
C554 C552 1.384 . S
C554 C555 1.372 . S
C555 C554 1.372 . S
C555 C556 1.400 . S
C555 C560 1.490 . S
C556 H546 0.930 . S
C556 C555 1.400 . S
C556 C559 1.386 . S
H557 C573 0.930 . S
H558 C574 0.931 . S
C559 H547 0.929 . S
C559 C553 1.390 . S
C559 C556 1.386 . S
C560 C555 1.490 . S
C560 C562 1.395 1_655 S
C560 C563 1.403 . S
H561 C567 0.930 . S
C562 H548 0.930 . S
C562 C560 1.395 1_455 S
C562 C565 1.403 . S
C563 C560 1.403 . S
C563 C564 1.524 . S
C563 C567 1.399 . S
C564 H549 0.960 . S
C564 H550 0.960 . S
C564 H551 0.960 . S
C564 C563 1.524 . S
C565 C562 1.403 . S
C565 C566 1.392 . S
C565 C569 1.495 . S
C566 C565 1.392 . S
C566 C567 1.386 1_455 S
C566 C568 1.478 . S
C567 H561 0.930 . S
C567 C563 1.399 . S
C567 C566 1.386 1_655 S
C568 C566 1.478 . S
C568 C570 1.381 . S
C568 C574 1.383 . S
C569 C565 1.495 . S
C569 H575 0.959 . S
C569 H576 0.961 . S
C569 H577 0.960 . S
C570 C568 1.381 . S
C570 C571 1.394 . S
C570 H578 0.930 . S
C571 C570 1.394 . S
C571 C572 1.383 . S
C571 H579 0.929 . S
C572 C571 1.383 . S
C572 C573 1.377 . S
C573 H557 0.930 . S
C573 C572 1.377 . S
C573 C574 1.379 . S
C574 H558 0.931 . S
C574 C568 1.383 . S
C574 C573 1.379 . S
H575 C569 0.959 . S
H576 C569 0.961 . S
H577 C569 0.960 . S
H578 C570 0.930 . S
H579 C571 0.929 . S
H580 C588 0.929 . S
H581 C590 0.930 . S
H582 C592 0.930 . S
H583 C595 0.929 . S
H584 C598 0.930 . S
H585 C600 0.960 . S
H586 C600 0.960 . S
H587 C600 0.960 . S
C588 H580 0.929 . S
C588 C589 1.377 . S
C588 C590 1.384 . S
C589 C588 1.377 . S
C589 C595 1.390 . S
C590 H581 0.930 . S
C590 C588 1.384 . S
C590 C591 1.372 . S
C591 C590 1.372 . S
C591 C592 1.400 . S
C591 C596 1.490 . S
C592 H582 0.930 . S
C592 C591 1.400 . S
C592 C595 1.386 . S
H593 C609 0.930 . S
H594 C610 0.931 . S
C595 H583 0.929 . S
C595 C589 1.390 . S
C595 C592 1.386 . S
C596 C591 1.490 . S
C596 C598 1.395 . S
C596 C599 1.403 1_655 S
H597 C603 0.930 . S
C598 H584 0.930 . S
C598 C596 1.395 . S
C598 C601 1.403 . S
C599 C596 1.403 1_455 S
C599 C600 1.524 . S
C599 C603 1.400 . S
C600 H585 0.960 . S
C600 H586 0.960 . S
C600 H587 0.960 . S
C600 C599 1.524 . S
C601 C598 1.403 . S
C601 C602 1.392 1_655 S
C601 C605 1.495 . S
C602 C601 1.392 1_455 S
C602 C603 1.385 . S
C602 C604 1.478 . S
C603 H597 0.930 . S
C603 C599 1.400 . S
C603 C602 1.385 . S
C604 C602 1.478 . S
C604 C606 1.381 . S
C604 C610 1.383 . S
C605 C601 1.495 . S
C605 H611 0.959 . S
C605 H612 0.961 . S
C605 H613 0.960 . S
C606 C604 1.381 . S
C606 C607 1.394 . S
C606 H614 0.930 . S
C607 C606 1.394 . S
C607 C608 1.383 . S
C607 H615 0.929 . S
C608 C607 1.383 . S
C608 C609 1.377 . S
C609 H593 0.930 . S
C609 C608 1.377 . S
C609 C610 1.379 . S
C610 H594 0.931 . S
C610 C604 1.383 . S
C610 C609 1.379 . S
H611 C605 0.959 . S
H612 C605 0.961 . S
H613 C605 0.960 . S
H614 C606 0.930 . S
H615 C607 0.929 . S
H616 C624 0.929 . S
H617 C626 0.930 . S
H618 C628 0.930 . S
H619 C631 0.929 . S
H620 C634 0.930 . S
H621 C636 0.960 . S
H622 C636 0.960 1_545 S
H623 C636 0.960 . S
C624 H616 0.929 . S
C624 C625 1.377 . S
C624 C626 1.384 . S
C625 C624 1.377 . S
C625 C631 1.390 . S
C626 H617 0.930 . S
C626 C624 1.384 . S
C626 C627 1.372 . S
C627 C626 1.372 . S
C627 C628 1.400 . S
C627 C632 1.490 . S
C628 H618 0.930 . S
C628 C627 1.400 . S
C628 C631 1.386 . S
H629 C645 0.930 . S
H630 C646 0.931 . S
C631 H619 0.929 . S
C631 C625 1.390 . S
C631 C628 1.386 . S
C632 C627 1.490 . S
C632 C634 1.395 . S
C632 C635 1.403 1_545 S
H633 C639 0.930 . S
C634 H620 0.930 . S
C634 C632 1.395 . S
C634 C637 1.403 . S
C635 C632 1.403 1_565 S
C635 C636 1.524 . S
C635 C639 1.400 . S
C636 H621 0.960 . S
C636 H622 0.960 1_565 S
C636 H623 0.960 . S
C636 C635 1.524 . S
C637 C634 1.403 . S
C637 C638 1.392 1_545 S
C637 C641 1.495 . S
C638 C637 1.392 1_565 S
C638 C639 1.385 . S
C638 C640 1.478 . S
C639 H633 0.930 . S
C639 C635 1.400 . S
C639 C638 1.385 . S
C640 C638 1.478 . S
C640 C642 1.381 . S
C640 C646 1.383 . S
C641 C637 1.495 . S
C641 H647 0.959 . S
C641 H648 0.961 . S
C641 H649 0.960 . S
C642 C640 1.381 . S
C642 C643 1.394 . S
C642 H650 0.930 . S
C643 C642 1.394 . S
C643 C644 1.383 . S
C643 H651 0.929 . S
C644 C643 1.383 . S
C644 C645 1.377 . S
C645 H629 0.930 . S
C645 C644 1.377 . S
C645 C646 1.379 . S
C646 H630 0.931 . S
C646 C640 1.383 . S
C646 C645 1.379 . S
H647 C641 0.959 . S
H648 C641 0.961 . S
H649 C641 0.960 . S
H650 C642 0.930 . S
H651 C643 0.929 . S
H652 C660 0.929 . S
H653 C662 0.930 . S
H654 C664 0.930 . S
H655 C667 0.929 . S
H656 C670 0.930 . S
H657 C672 0.960 . S
H658 C672 0.960 . S
H659 C672 0.960 . S
C660 H652 0.929 . S
C660 C661 1.377 . S
C660 C662 1.384 . S
C661 C660 1.377 . S
C661 C667 1.390 . S
C662 H653 0.930 . S
C662 C660 1.384 . S
C662 C663 1.372 . S
C663 C662 1.372 . S
C663 C664 1.400 . S
C663 C668 1.490 . S
C664 H654 0.930 . S
C664 C663 1.400 . S
C664 C667 1.386 . S
H665 C681 0.930 . S
H666 C682 0.931 . S
C667 H655 0.929 . S
C667 C661 1.390 . S
C667 C664 1.386 . S
C668 C663 1.490 . S
C668 C670 1.395 1_545 S
C668 C671 1.403 . S
H669 C675 0.930 . S
C670 H656 0.930 . S
C670 C668 1.395 1_565 S
C670 C673 1.403 . S
C671 C668 1.403 . S
C671 C672 1.524 . S
C671 C675 1.400 . S
C672 H657 0.960 . S
C672 H658 0.960 . S
C672 H659 0.960 . S
C672 C671 1.524 . S
C673 C670 1.403 . S
C673 C674 1.392 . S
C673 C677 1.495 . S
C674 C673 1.392 . S
C674 C675 1.385 1_565 S
C674 C676 1.478 . S
C675 H669 0.930 . S
C675 C671 1.400 . S
C675 C674 1.385 1_545 S
C676 C674 1.478 . S
C676 C678 1.381 . S
C676 C682 1.383 . S
C677 C673 1.495 . S
C677 H683 0.959 . S
C677 H684 0.961 . S
C677 H685 0.960 . S
C678 C676 1.381 . S
C678 C679 1.394 . S
C678 H686 0.930 . S
C679 C678 1.394 . S
C679 C680 1.383 . S
C679 H687 0.929 . S
C680 C679 1.383 . S
C680 C681 1.377 . S
C681 H665 0.930 . S
C681 C680 1.377 . S
C681 C682 1.379 . S
C682 H666 0.931 . S
C682 C676 1.383 . S
C682 C681 1.379 . S
H683 C677 0.959 . S
H684 C677 0.961 . S
H685 C677 0.960 . S
H686 C678 0.930 . S
H687 C679 0.929 . S
C121 C7 1.271 . S
C140 C77 1.263 . S
C157 C21 1.270 . S
C176 C91 1.241 . S
C193 C35 1.265 . S
C212 C105 1.289 . S
C229 C63 1.263 . S
C248 C49 1.290 . S
C265 C8 1.650 . S
C284 C59 1.623 . S
C301 C22 1.649 . S
C320 C73 1.610 . S
C337 C87 1.633 . S
C356 C36 1.649 . S
C373 C50 1.650 . S
C392 C101 1.619 . S
C409 C64 1.651 . S
C428 C3 1.616 . S
C445 C17 1.632 . S
C464 C78 1.646 . S
C481 C92 1.649 . S
C500 C31 1.610 . S
C517 C45 1.633 . S
C536 C106 1.657 . S
C553 C37 0.446 . S
C572 C9 0.526 . S
C589 C51 0.444 . S
C608 C23 0.529 . S
C625 C65 0.426 . S
C644 C93 0.495 . S
C661 C79 0.440 . S
C680 C107 0.527 . S
