# Generated by pormake.
# Topology unp, (4)-cn, num edge types: 1
# Building blocks:
#     Node 0, Type 0, BuildingBlock: UXUYUI_clean_sbu_0, # of connection points: 4
#     Node 1, Type 0, BuildingBlock: UXUYUI_clean_sbu_0, # of connection points: 4
#     Node 2, Type 0, BuildingBlock: UXUYUI_clean_sbu_0, # of connection points: 4
#     Node 3, Type 0, BuildingBlock: UXUYUI_clean_sbu_0, # of connection points: 4
#     Node 4, Type 0, BuildingBlock: UXUYUI_clean_sbu_0, # of connection points: 4
#     Node 5, Type 0, BuildingBlock: UXUYUI_clean_sbu_0, # of connection points: 4
#     Node 6, Type 0, BuildingBlock: UXUYUI_clean_sbu_0, # of connection points: 4
#     Node 7, Type 0, BuildingBlock: UXUYUI_clean_sbu_0, # of connection points: 4
#     Node 8, Type 0, BuildingBlock: UXUYUI_clean_sbu_0, # of connection points: 4
#     Node 9, Type 0, BuildingBlock: UXUYUI_clean_sbu_0, # of connection points: 4
#     Node 10, Type 0, BuildingBlock: UXUYUI_clean_sbu_0, # of connection points: 4
#     Node 11, Type 0, BuildingBlock: UXUYUI_clean_sbu_0, # of connection points: 4
#     Node 12, Type 0, BuildingBlock: UXUYUI_clean_sbu_0, # of connection points: 4
#     Node 13, Type 0, BuildingBlock: UXUYUI_clean_sbu_0, # of connection points: 4
#     Node 14, Type 0, BuildingBlock: UXUYUI_clean_sbu_0, # of connection points: 4
#     Node 15, Type 0, BuildingBlock: UXUYUI_clean_sbu_0, # of connection points: 4
#     Node 16, Type 0, BuildingBlock: UXUYUI_clean_sbu_0, # of connection points: 4
#     Node 17, Type 0, BuildingBlock: UXUYUI_clean_sbu_0, # of connection points: 4
#     Edge 18, Type (0, 0), BuildingBlock: ZUJKAS_clean_linker_0, # of connection points: 2
#     Edge 19, Type (0, 0), BuildingBlock: ZUJKAS_clean_linker_0, # of connection points: 2
#     Edge 20, Type (0, 0), BuildingBlock: ZUJKAS_clean_linker_0, # of connection points: 2
#     Edge 21, Type (0, 0), BuildingBlock: ZUJKAS_clean_linker_0, # of connection points: 2
#     Edge 22, Type (0, 0), BuildingBlock: ZUJKAS_clean_linker_0, # of connection points: 2
#     Edge 23, Type (0, 0), BuildingBlock: ZUJKAS_clean_linker_0, # of connection points: 2
#     Edge 24, Type (0, 0), BuildingBlock: ZUJKAS_clean_linker_0, # of connection points: 2
#     Edge 25, Type (0, 0), BuildingBlock: ZUJKAS_clean_linker_0, # of connection points: 2
#     Edge 26, Type (0, 0), BuildingBlock: ZUJKAS_clean_linker_0, # of connection points: 2
#     Edge 27, Type (0, 0), BuildingBlock: ZUJKAS_clean_linker_0, # of connection points: 2
#     Edge 28, Type (0, 0), BuildingBlock: ZUJKAS_clean_linker_0, # of connection points: 2
#     Edge 29, Type (0, 0), BuildingBlock: ZUJKAS_clean_linker_0, # of connection points: 2
#     Edge 30, Type (0, 0), BuildingBlock: ZUJKAS_clean_linker_0, # of connection points: 2
#     Edge 31, Type (0, 0), BuildingBlock: ZUJKAS_clean_linker_0, # of connection points: 2
#     Edge 32, Type (0, 0), BuildingBlock: ZUJKAS_clean_linker_0, # of connection points: 2
#     Edge 33, Type (0, 0), BuildingBlock: ZUJKAS_clean_linker_0, # of connection points: 2
#     Edge 34, Type (0, 0), BuildingBlock: ZUJKAS_clean_linker_0, # of connection points: 2
#     Edge 35, Type (0, 0), BuildingBlock: ZUJKAS_clean_linker_0, # of connection points: 2
#     Edge 36, Type (0, 0), BuildingBlock: ZUJKAS_clean_linker_0, # of connection points: 2
#     Edge 37, Type (0, 0), BuildingBlock: ZUJKAS_clean_linker_0, # of connection points: 2
#     Edge 38, Type (0, 0), BuildingBlock: ZUJKAS_clean_linker_0, # of connection points: 2
#     Edge 39, Type (0, 0), BuildingBlock: ZUJKAS_clean_linker_0, # of connection points: 2
#     Edge 40, Type (0, 0), BuildingBlock: ZUJKAS_clean_linker_0, # of connection points: 2
#     Edge 41, Type (0, 0), BuildingBlock: ZUJKAS_clean_linker_0, # of connection points: 2
#     Edge 42, Type (0, 0), BuildingBlock: ZUJKAS_clean_linker_0, # of connection points: 2
#     Edge 43, Type (0, 0), BuildingBlock: ZUJKAS_clean_linker_0, # of connection points: 2
#     Edge 44, Type (0, 0), BuildingBlock: ZUJKAS_clean_linker_0, # of connection points: 2
#     Edge 45, Type (0, 0), BuildingBlock: ZUJKAS_clean_linker_0, # of connection points: 2
#     Edge 46, Type (0, 0), BuildingBlock: ZUJKAS_clean_linker_0, # of connection points: 2
#     Edge 47, Type (0, 0), BuildingBlock: ZUJKAS_clean_linker_0, # of connection points: 2
#     Edge 48, Type (0, 0), BuildingBlock: ZUJKAS_clean_linker_0, # of connection points: 2
#     Edge 49, Type (0, 0), BuildingBlock: ZUJKAS_clean_linker_0, # of connection points: 2
#     Edge 50, Type (0, 0), BuildingBlock: ZUJKAS_clean_linker_0, # of connection points: 2
#     Edge 51, Type (0, 0), BuildingBlock: ZUJKAS_clean_linker_0, # of connection points: 2
#     Edge 52, Type (0, 0), BuildingBlock: ZUJKAS_clean_linker_0, # of connection points: 2
#     Edge 53, Type (0, 0), BuildingBlock: ZUJKAS_clean_linker_0, # of connection points: 2
# Relax obj value: 0.501
# Max RMSD: 0.229
# Mean RMSD: 0.224
data_MOF--net-unp--node1-UXUYUI_clean_sbu_0--edge1-ZUJKAS_clean_linker_0
_symmetry_space_group_name_H-M    P1
_symmetry_Int_Tables_number       1
_symmetry_cell_setting            triclinic
loop_
_symmetry_equiv_pos_as_xyz
'x, y, z'
_cell_length_a     75.066991
_cell_length_b     75.060572
_cell_length_c     124.14388
_cell_angle_alpha  90.225707
_cell_angle_beta   89.770577
_cell_angle_gamma 120.52422
loop_
_atom_site_label
_atom_site_type_symbol
_atom_site_fract_x
_atom_site_fract_y
_atom_site_fract_z
_atom_type_partial_charge
Li0 Li 0.17844 0.21641 0.0946 0.0
Li1 Li 0.18946 0.22713 0.11265 0.0
Li2 Li 0.17008 0.19045 0.10902 0.0
Li3 Li 0.15418 0.2122 0.10855 0.0
C4 C 0.20561 0.20106 0.09783 0.0
N5 N 0.22169 0.18036 0.08676 0.0
C6 C 0.22569 0.20539 0.09995 0.0
C7 C 0.19368 0.18616 0.0901 0.0
C8 C 0.23355 0.19477 0.09426 0.0
C9 C 0.2021 0.17588 0.08458 0.0
C10 C 0.19167 0.25718 0.09865 0.0
C11 C 0.20189 0.29121 0.09199 0.0
N12 N 0.22137 0.29484 0.0903 0.0
C13 C 0.2118 0.26125 0.09684 0.0
C14 C 0.18666 0.27226 0.0962 0.0
C15 C 0.22658 0.28038 0.09262 0.0
C16 C 0.17101 0.2194 0.07251 0.0
N17 N 0.18576 0.22208 0.0797 0.0
C18 C 0.2101 0.2295 0.06548 0.0
C19 C 0.20525 0.22777 0.07642 0.0
C20 C 0.19486 0.22572 0.0578 0.0
C21 C 0.17522 0.22115 0.06147 0.0
H22 H 0.15587 0.21559 0.07534 0.0
H23 H 0.21695 0.23039 0.08227 0.0
C24 C 0.22345 0.23946 0.1258 0.0
N25 N 0.21152 0.24643 0.1215 0.0
C26 C 0.23988 0.25215 0.13255 0.0
C27 C 0.23163 0.27915 0.13024 0.0
C28 C 0.2151 0.26577 0.12364 0.0
C29 C 0.24417 0.27229 0.1348 0.0
H30 H 0.22007 0.22393 0.12401 0.0
H31 H 0.20513 0.27079 0.12026 0.0
C32 C 0.1306 0.1781 0.0976 0.0
N33 N 0.08799 0.1533 0.09799 0.0
C34 C 0.12073 0.16493 0.10632 0.0
C35 C 0.11876 0.1786 0.08907 0.0
C36 C 0.0992 0.15251 0.10636 0.0
C37 C 0.09725 0.16597 0.08943 0.0
C38 C 0.16989 0.21407 0.13095 0.0
C39 C 0.17804 0.20725 0.13896 0.0
C40 C 0.16681 0.23062 0.13306 0.0
C41 C 0.18314 0.21724 0.14895 0.0
C42 C 0.1721 0.24019 0.14315 0.0
N43 N 0.18011 0.23337 0.15082 0.0
C44 C 0.17872 0.1624 0.11975 0.0
C45 C 0.15516 0.14812 0.10522 0.0
C46 C 0.17784 0.14355 0.1214 0.0
N47 N 0.16734 0.16425 0.11181 0.0
C48 C 0.15376 0.12904 0.10659 0.0
C49 C 0.16528 0.12656 0.11473 0.0
H50 H 0.18882 0.17568 0.12463 0.0
H51 H 0.14676 0.15014 0.09875 0.0
C52 C 0.12066 0.21834 0.104 0.0
N53 N 0.12873 0.21107 0.11136 0.0
C54 C 0.10027 0.21395 0.10507 0.0
C55 C 0.09738 0.19553 0.12153 0.0
C56 C 0.11778 0.20034 0.12016 0.0
C57 C 0.08815 0.20187 0.11378 0.0
H58 H 0.1297 0.22664 0.09701 0.0
H59 H 0.12446 0.19439 0.12577 0.0
O60 O 0.19768 0.21117 0.10348 0.0
O61 O 0.17677 0.23855 0.10272 0.0
O62 O 0.15165 0.19097 0.09765 0.0
O63 O 0.16541 0.20496 0.12099 0.0
H64 H 0.2351 0.21683 0.10594 0.0
H65 H 0.17811 0.18258 0.08834 0.0
H66 H 0.24908 0.19798 0.09581 0.0
H67 H 0.19304 0.16433 0.07857 0.0
H68 H 0.19821 0.30302 0.09006 0.0
H69 H 0.21605 0.24986 0.09872 0.0
H70 H 0.17113 0.26934 0.09754 0.0
H71 H 0.24221 0.28373 0.09119 0.0
H72 H 0.22542 0.23298 0.06309 0.0
H73 H 0.16314 0.21867 0.05588 0.0
H74 H 0.24933 0.24639 0.13584 0.0
H75 H 0.23442 0.29455 0.13187 0.0
H76 H 0.12957 0.16463 0.11311 0.0
H77 H 0.12601 0.18873 0.08228 0.0
H78 H 0.09138 0.14237 0.1131 0.0
H79 H 0.0879 0.1663 0.08291 0.0
H80 H 0.18053 0.19448 0.13746 0.0
H81 H 0.16073 0.23623 0.1269 0.0
H82 H 0.18957 0.2122 0.15521 0.0
H83 H 0.16993 0.25311 0.14487 0.0
H84 H 0.18726 0.14244 0.12764 0.0
H85 H 0.1437 0.11635 0.10133 0.0
H86 H 0.09388 0.21935 0.09897 0.0
H87 H 0.0886 0.18586 0.12825 0.0
Li88 Li 0.81098 -0.0002 0.10301 0.0
Li89 Li 0.7929 0.96273 0.1048 0.0
Li90 Li 0.78647 0.97831 0.08936 0.0
Li91 Li 0.77423 0.98049 0.10687 0.0
C92 C 0.83047 0.97925 0.09452 0.0
N93 N 0.86621 0.9777 0.09707 0.0
C94 C 0.84035 0.98373 0.10452 0.0
C95 C 0.83877 0.97399 0.08582 0.0
C96 C 0.8584 0.98286 0.10565 0.0
C97 C 0.85686 0.9733 0.08727 0.0
C98 C 0.78918 0.97416 0.12578 0.0
C99 C 0.76392 0.94507 0.13615 0.0
N100 N 0.77282 0.95563 0.14538 0.0
C101 C 0.79806 0.98473 0.13537 0.0
C102 C 0.77195 0.95417 0.12616 0.0
C103 C 0.78958 0.97509 0.1452 0.0
C104 C 0.83841 0.03679 0.11416 0.0
N105 N 0.83632 0.0251 0.10534 0.0
C106 C 0.87077 0.04927 0.09968 0.0
C107 C 0.85195 0.03109 0.09809 0.0
C108 C 0.87356 0.06168 0.10875 0.0
C109 C 0.85699 0.05527 0.11603 0.0
H110 H 0.82564 0.03173 0.11974 0.0
H111 H 0.84992 0.02164 0.0911 0.0
C112 C 0.79145 0.92509 0.10161 0.0
N113 N 0.79686 0.94058 0.10888 0.0
C114 C 0.79733 0.91038 0.1032 0.0
C115 C 0.81345 0.92735 0.11995 0.0
C116 C 0.80738 0.94179 0.11801 0.0
C117 C 0.80888 0.91169 0.11236 0.0
H118 H 0.78341 0.92477 0.09433 0.0
H119 H 0.81208 0.95461 0.1235 0.0
C120 C 0.7978 0.02017 0.08978 0.0
N121 N 0.81574 0.05434 0.07645 0.0
C122 C 0.79201 0.03512 0.09056 0.0
C123 C 0.81271 0.02259 0.08221 0.0
C124 C 0.80126 0.05229 0.08375 0.0
C125 C 0.8216 0.03997 0.07555 0.0
C126 C 0.74659 0.94763 0.09386 0.0
C127 C 0.74018 0.9614 0.09079 0.0
C128 C 0.73336 0.9264 0.09236 0.0
C129 C 0.7206 0.95366 0.08626 0.0
C130 C 0.71389 0.91927 0.0878 0.0
N131 N 0.70797 0.93294 0.08487 0.0
C132 C 0.78789 0.96504 0.06841 0.0
C133 C 0.77266 0.98597 0.06953 0.0
C134 C 0.78692 0.96492 0.05718 0.0
N135 N 0.78125 0.97585 0.0743 0.0
C136 C 0.77152 0.9864 0.05833 0.0
C137 C 0.77913 0.97616 0.05198 0.0
H138 H 0.79448 0.95698 0.07245 0.0
H139 H 0.76745 0.99444 0.07439 0.0
C140 C 0.75706 0.00108 0.11725 0.0
N141 N 0.75316 0.98184 0.11466 0.0
C142 C 0.74251 0.00362 0.123 0.0
C143 C 0.72022 0.96643 0.12339 0.0
C144 C 0.73524 0.96461 0.11761 0.0
C145 C 0.72377 0.98615 0.12613 0.0
H146 H 0.77158 0.01445 0.11489 0.0
H147 H 0.73259 0.94947 0.1155 0.0
O148 O 0.81253 0.97958 0.09326 0.0
O149 O 0.79726 0.98356 0.11612 0.0
O150 O 0.78887 0.00334 0.09644 0.0
O151 O 0.7657 0.95472 0.0983 0.0
H152 H 0.83413 0.98775 0.11137 0.0
H153 H 0.83131 0.97045 0.07803 0.0
H154 H 0.86617 0.98625 0.11334 0.0
H155 H 0.86344 0.96923 0.08061 0.0
H156 H 0.75059 0.92962 0.13656 0.0
H157 H 0.81138 0.00023 0.1352 0.0
H158 H 0.76486 0.94573 0.11884 0.0
H159 H 0.7963 0.98309 0.15269 0.0
H160 H 0.88314 0.05327 0.09395 0.0
H161 H 0.85831 0.06444 0.12306 0.0
H162 H 0.79343 0.89849 0.09717 0.0
H163 H 0.82268 0.92918 0.12701 0.0
H164 H 0.78047 0.03347 0.09636 0.0
H165 H 0.81732 0.01115 0.08143 0.0
H166 H 0.79693 0.06398 0.08427 0.0
H167 H 0.83314 0.04202 0.06965 0.0
H168 H 0.75012 0.97787 0.09192 0.0
H169 H 0.73812 0.91555 0.09469 0.0
H170 H 0.71543 0.96414 0.08385 0.0
H171 H 0.7035 0.90287 0.08659 0.0
H172 H 0.79258 0.95646 0.05263 0.0
H173 H 0.7656 0.99545 0.0547 0.0
H174 H 0.74609 0.01909 0.12513 0.0
H175 H 0.70594 0.95258 0.12559 0.0
Li176 Li 0.00431 0.82722 0.10913 0.0
Li177 Li 0.04228 0.84553 0.10918 0.0
Li178 Li 0.0223 0.81983 0.09529 0.0
Li179 Li 0.02306 0.8097 0.11388 0.0
C180 C 0.01579 0.85874 0.09624 0.0
N181 N 0.99828 0.88308 0.09338 0.0
C182 C 0.02481 0.87837 0.10095 0.0
C183 C 0.99793 0.85155 0.09002 0.0
C184 C 0.01572 0.89044 0.09941 0.0
C185 C 0.98928 0.86406 0.08869 0.0
C186 C 0.02109 0.8272 0.13184 0.0
C187 C 0.03529 0.82205 0.14812 0.0
N188 N 0.01623 0.81306 0.15277 0.0
C189 C 0.00166 0.81802 0.13678 0.0
C190 C 0.03808 0.82936 0.13756 0.0
C191 C -0.00048 0.81094 0.14737 0.0
C192 C 0.96199 0.81618 0.10876 0.0
N193 N 0.9812 0.83022 0.11236 0.0
C194 C 0.96876 0.85131 0.11973 0.0
C195 C 0.98476 0.84731 0.11796 0.0
C196 C 0.94888 0.83748 0.11578 0.0
C197 C 0.9455 0.81953 0.11039 0.0
H198 H 0.95956 0.80262 0.10444 0.0
H199 H 0.00018 0.85807 0.12083 0.0
C200 C 0.07795 0.88291 0.10323 0.0
N201 N 0.06582 0.87204 0.1117 0.0
C202 C 0.09311 0.90369 0.10448 0.0
C203 C 0.08315 0.90161 0.12318 0.0
C204 C 0.06836 0.88079 0.1216 0.0
C205 C 0.09543 0.91351 0.11448 0.0
H206 H 0.07521 0.87573 0.09538 0.0
H207 H 0.05811 0.87195 0.12812 0.0
C208 C 0.98812 0.78354 0.09758 0.0
N209 N 0.9681 0.75103 0.08326 0.0
C210 C 0.98986 0.76595 0.09862 0.0
C211 C 0.97613 0.78456 0.08928 0.0
C212 C 0.97961 0.74967 0.0913 0.0
C213 C 0.96617 0.76799 0.08211 0.0
C214 C 0.067 0.83294 0.1018 0.0
C215 C 0.07476 0.83782 0.09131 0.0
C216 C 0.08067 0.83903 0.11049 0.0
C217 C 0.09615 0.84891 0.08968 0.0
C218 C 0.10195 0.85013 0.10853 0.0
N219 N 0.10918 0.8548 0.09825 0.0
C220 C 0.01972 0.82522 0.07313 0.0
C221 C 0.02182 0.79559 0.0774 0.0
C222 C 0.01722 0.81995 0.06224 0.0
N223 N 0.0215 0.81284 0.08047 0.0
C224 C 0.01915 0.7896 0.06657 0.0
C225 C 0.01657 0.80175 0.05886 0.0
H226 H 0.01989 0.83903 0.07575 0.0
H227 H 0.02365 0.78623 0.08339 0.0
C228 C 0.00309 0.77621 0.12773 0.0
N229 N 0.02166 0.7888 0.12298 0.0
C230 C 0.00079 0.76092 0.13487 0.0
C231 C 0.03667 0.77142 0.13188 0.0
C232 C 0.03832 0.78667 0.12483 0.0
C233 C 0.01774 0.75844 0.13706 0.0
H234 H 0.99008 0.77817 0.126 0.0
H235 H 0.05287 0.79688 0.12089 0.0
O236 O 0.02413 0.84645 0.09788 0.0
O237 O 0.0234 0.83375 0.1214 0.0
O238 O 0.99826 0.79976 0.10458 0.0
O239 O 0.04613 0.82225 0.10357 0.0
H240 H 0.03854 0.88418 0.10584 0.0
H241 H 0.99061 0.83632 0.0864 0.0
H242 H 0.02248 0.90561 0.10305 0.0
H243 H 0.97536 0.85861 0.08398 0.0
H244 H 0.04826 0.82346 0.15262 0.0
H245 H 0.98834 0.81615 0.13245 0.0
H246 H 0.0532 0.83638 0.13383 0.0
H247 H 0.98456 0.80369 0.15128 0.0
H248 H 0.97196 0.86517 0.12407 0.0
H249 H 0.93044 0.80853 0.10717 0.0
H250 H 0.10236 0.91213 0.09757 0.0
H251 H 0.08405 0.90853 0.13097 0.0
H252 H 0.99918 0.76493 0.10493 0.0
H253 H 0.97482 0.79815 0.08827 0.0
H254 H 0.98088 0.73599 0.09198 0.0
H255 H 0.95699 0.76865 0.07559 0.0
H256 H 0.0644 0.83322 0.08449 0.0
H257 H 0.0749 0.83542 0.11867 0.0
H258 H 0.10238 0.85287 0.0816 0.0
H259 H 0.11271 0.85506 0.11518 0.0
H260 H 0.01515 0.82969 0.05658 0.0
H261 H 0.01901 0.7756 0.06427 0.0
H262 H 0.98584 0.751 0.13855 0.0
H263 H 0.0501 0.77001 0.13339 0.0
Li264 Li 0.226 0.19421 0.89015 0.0
Li265 Li 0.21386 0.18364 0.90891 0.0
Li266 Li 0.2079 0.15867 0.895 0.0
Li267 Li 0.18947 0.17646 0.89402 0.0
C268 C 0.25418 0.19368 0.9049 0.0
N269 N 0.29271 0.22093 0.91331 0.0
C270 C 0.25926 0.21376 0.90777 0.0
C271 C 0.26868 0.18746 0.90633 0.0
C272 C 0.27882 0.22729 0.912 0.0
C273 C 0.28809 0.20147 0.91058 0.0
C274 C 0.20032 0.21357 0.90099 0.0
C275 C 0.17433 0.21729 0.91054 0.0
N276 N 0.17675 0.23207 0.90341 0.0
C277 C 0.20262 0.22886 0.89379 0.0
C278 C 0.18612 0.20778 0.90947 0.0
C279 C 0.19054 0.23801 0.89514 0.0
C280 C 0.23714 0.22195 0.87368 0.0
N281 N 0.24584 0.21507 0.88088 0.0
C282 C 0.27965 0.23912 0.87424 0.0
C283 C 0.26663 0.22285 0.88108 0.0
C284 C 0.2711 0.24719 0.86706 0.0
C285 C 0.24949 0.23804 0.86668 0.0
H286 H 0.22051 0.21498 0.87346 0.0
H287 H 0.27322 0.21668 0.88659 0.0
C288 C 0.21888 0.17763 0.93103 0.0
N289 N 0.2193 0.19125 0.9237 0.0
C290 C 0.22082 0.18241 0.94201 0.0
C291 C 0.22461 0.21551 0.93762 0.0
C292 C 0.22274 0.21016 0.92675 0.0
C293 C 0.22321 0.20138 0.94542 0.0
H294 H 0.21661 0.16291 0.92836 0.0
H295 H 0.22363 0.22097 0.92076 0.0
C296 C 0.21168 0.16747 0.87309 0.0
N297 N 0.22861 0.1603 0.85496 0.0
C298 C 0.2019 0.16418 0.86313 0.0
C299 C 0.23011 0.16717 0.87384 0.0
C300 C 0.2107 0.16055 0.85405 0.0
C301 C 0.23841 0.16351 0.86458 0.0
C302 C 0.17398 0.13731 0.90661 0.0
C303 C 0.1591 0.12687 0.89863 0.0
C304 C 0.17533 0.12623 0.91528 0.0
C305 C 0.14589 0.1055 0.89944 0.0
C306 C 0.16186 0.10486 0.91579 0.0
N307 N 0.14755 0.09502 0.90792 0.0
C308 C 0.21193 0.12397 0.9 0.0
C309 C 0.19192 0.12022 0.88451 0.0
C310 C 0.2061 0.10308 0.89951 0.0
N311 N 0.20441 0.13193 0.8927 0.0
C312 C 0.18584 0.09938 0.88367 0.0
C313 C 0.19251 0.09041 0.89138 0.0
H314 H 0.22157 0.13359 0.90653 0.0
H315 H 0.18559 0.1267 0.87902 0.0
C316 C 0.162 0.18185 0.88071 0.0
N317 N 0.16416 0.17491 0.89043 0.0
C318 C 0.14338 0.18073 0.87804 0.0
C319 C 0.1298 0.16557 0.89549 0.0
C320 C 0.14861 0.16695 0.8978 0.0
C321 C 0.12695 0.17243 0.88548 0.0
H322 H 0.17474 0.18825 0.87505 0.0
H323 H 0.15083 0.16163 0.90549 0.0
O324 O 0.23506 0.17993 0.90086 0.0
O325 O 0.21162 0.20402 0.89967 0.0
O326 O 0.20325 0.17121 0.882 0.0
O327 O 0.18753 0.15814 0.90576 0.0
H328 H 0.24837 0.21896 0.90666 0.0
H329 H 0.26495 0.17195 0.90418 0.0
H330 H 0.28297 0.24288 0.91423 0.0
H331 H 0.29946 0.19686 0.91172 0.0
H332 H 0.16318 0.21285 0.91701 0.0
H333 H 0.21361 0.23366 0.88724 0.0
H334 H 0.18397 0.19579 0.91504 0.0
H335 H 0.19212 0.24982 0.8896 0.0
H336 H 0.29621 0.24563 0.87477 0.0
H337 H 0.24216 0.2433 0.86106 0.0
H338 H 0.2197 0.1711 0.94779 0.0
H339 H 0.22687 0.23047 0.93991 0.0
H340 H 0.18766 0.16443 0.86241 0.0
H341 H 0.23797 0.16974 0.88146 0.0
H342 H 0.20328 0.15797 0.84629 0.0
H343 H 0.25266 0.16323 0.86504 0.0
H344 H 0.15807 0.13509 0.89175 0.0
H345 H 0.18677 0.13399 0.9215 0.0
H346 H 0.13443 0.09721 0.89328 0.0
H347 H 0.16284 0.09608 0.92241 0.0
H348 H 0.21163 0.09678 0.90559 0.0
H349 H 0.17499 0.09012 0.87743 0.0
H350 H 0.14189 0.18636 0.87027 0.0
H351 H 0.11747 0.15875 0.9014 0.0
Li352 Li 0.80716 0.0236 0.88312 0.0
Li353 Li 0.81814 0.02029 0.90109 0.0
Li354 Li 0.84367 0.03795 0.88583 0.0
Li355 Li 0.82147 0.00017 0.88608 0.0
C356 C 0.81732 0.05893 0.89292 0.0
N357 N 0.80015 0.08386 0.89201 0.0
C358 C 0.80302 0.05711 0.90072 0.0
C359 C 0.82313 0.07362 0.88475 0.0
C360 C 0.79445 0.06981 0.9001 0.0
C361 C 0.8142 0.08603 0.8844 0.0
C362 C 0.78099 0.98167 0.89782 0.0
C363 C 0.77105 0.95296 0.90987 0.0
N364 N 0.75112 0.94859 0.90951 0.0
C365 C 0.76037 0.97675 0.89748 0.0
C366 C 0.78633 0.96956 0.90399 0.0
C367 C 0.74552 0.96003 0.90348 0.0
C368 C 0.78744 0.02887 0.86497 0.0
N369 N 0.78647 0.0263 0.87582 0.0
C370 C 0.75362 0.02415 0.8765 0.0
C371 C 0.77019 0.0243 0.88165 0.0
C372 C 0.75392 0.02616 0.86526 0.0
C373 C 0.7713 0.029 0.85949 0.0
H374 H 0.80038 0.03011 0.8605 0.0
H375 H 0.7698 0.02224 0.89028 0.0
C376 C 0.83034 0.0288 0.92274 0.0
N377 N 0.81357 0.02028 0.91617 0.0
C378 C 0.8278 0.02743 0.9339 0.0
C379 C 0.79077 0.00942 0.93133 0.0
C380 C 0.79405 0.01125 0.92022 0.0
C381 C 0.80778 0.01723 0.93835 0.0
H382 H 0.84571 0.0362 0.91928 0.0
H383 H 0.78098 0.00514 0.91485 0.0
C384 C 0.83771 0.02669 0.86471 0.0
N385 N 0.86132 0.04199 0.84624 0.0
C386 C 0.84402 0.01472 0.85903 0.0
C387 C 0.8432 0.04635 0.86092 0.0
C388 C 0.856 0.02275 0.84973 0.0
C389 C 0.85521 0.05384 0.85159 0.0
C390 C 0.8531 0.01003 0.90172 0.0
C391 C 0.87272 0.01501 0.89803 0.0
C392 C 0.84462 0.99707 0.91065 0.0
C393 C 0.88322 0.00646 0.90311 0.0
C394 C 0.85561 0.98886 0.91553 0.0
N395 N 0.8745 0.99364 0.91168 0.0
C396 C 0.87854 0.07882 0.88618 0.0
C397 C 0.88299 0.05408 0.87648 0.0
C398 C 0.89917 0.09398 0.88427 0.0
N399 N 0.87099 0.05928 0.88236 0.0
C400 C 0.90353 0.06873 0.87429 0.0
C401 C 0.91196 0.08892 0.87833 0.0
H402 H 0.86869 0.08248 0.89091 0.0
H403 H 0.87676 0.03834 0.87375 0.0
C404 C 0.80312 0.95655 0.88227 0.0
N405 N 0.82097 0.97521 0.88242 0.0
C406 C 0.80371 0.93839 0.88076 0.0
C407 C 0.84083 0.95914 0.87875 0.0
C408 C 0.83951 0.97682 0.88036 0.0
C409 C 0.82282 0.93956 0.87918 0.0
H410 H 0.78845 0.95568 0.88352 0.0
H411 H 0.85337 0.99187 0.88013 0.0
O412 O 0.82564 0.04642 0.89332 0.0
O413 O 0.7958 0.99823 0.89212 0.0
O414 O 0.82619 0.01916 0.87391 0.0
O415 O 0.84263 0.01836 0.89683 0.0
H416 H 0.79841 0.04586 0.90712 0.0
H417 H 0.8344 0.07544 0.87875 0.0
H418 H 0.78323 0.06846 0.90603 0.0
H419 H 0.81847 0.09739 0.87809 0.0
H420 H 0.77501 0.94348 0.91468 0.0
H421 H 0.75582 0.98571 0.89264 0.0
H422 H 0.80202 0.97269 0.90407 0.0
H423 H 0.72952 0.95613 0.90333 0.0
H424 H 0.74052 0.02201 0.88123 0.0
H425 H 0.77196 0.03027 0.85079 0.0
H426 H 0.84138 0.0341 0.93899 0.0
H427 H 0.77506 0.00138 0.93436 0.0
H428 H 0.83972 0.99939 0.86177 0.0
H429 H 0.83838 0.05577 0.86518 0.0
H430 H 0.86106 0.01369 0.84528 0.0
H431 H 0.85968 0.06908 0.84861 0.0
H432 H 0.87974 0.02523 0.89125 0.0
H433 H 0.82986 0.99358 0.91392 0.0
H434 H 0.89831 0.01005 0.90025 0.0
H435 H 0.84916 0.97876 0.92243 0.0
H436 H 0.90511 0.10939 0.88752 0.0
H437 H 0.91295 0.06403 0.86988 0.0
H438 H 0.78943 0.9236 0.88095 0.0
H439 H 0.8559 0.96078 0.87757 0.0
Li440 Li 0.99097 0.80913 0.89753 0.0
Li441 Li 0.95445 0.79104 0.89563 0.0
Li442 Li 0.96947 0.78235 0.91045 0.0
Li443 Li 0.97263 0.7733 0.89088 0.0
C444 C 0.97186 0.8275 0.90818 0.0
N445 N 0.97399 0.86534 0.90866 0.0
C446 C 0.97279 0.8376 0.89858 0.0
C447 C 0.97203 0.83666 0.91803 0.0
C448 C 0.97385 0.85671 0.89898 0.0
C449 C 0.97312 0.8558 0.9181 0.0
C450 C 0.97072 0.7998 0.87371 0.0
C451 C 0.95419 0.78406 0.85686 0.0
N452 N 0.96178 0.80317 0.85249 0.0
C453 C 0.97851 0.81928 0.86902 0.0
C454 C 0.95858 0.78203 0.86755 0.0
C455 C 0.97374 0.82066 0.8583 0.0
C456 C 0.02621 0.84049 0.88665 0.0
N457 N 0.01601 0.83504 0.89623 0.0
C458 C 0.04099 0.86721 0.90412 0.0
C459 C 0.02316 0.84778 0.90493 0.0
C460 C 0.05167 0.87355 0.89426 0.0
C461 C 0.04417 0.85978 0.88547 0.0
H462 H 0.0203 0.8299 0.8799 0.0
H463 H 0.01488 0.84293 0.91249 0.0
C464 C 0.92282 0.79906 0.90102 0.0
N465 N 0.93119 0.79443 0.89249 0.0
C466 C 0.90767 0.80433 0.89943 0.0
C467 C 0.90902 0.79877 0.88035 0.0
C468 C 0.9241 0.79355 0.88232 0.0
C469 C 0.90101 0.80478 0.88894 0.0
H470 H 0.92841 0.79932 0.90907 0.0
H471 H 0.93035 0.78926 0.87567 0.0
C472 C 0.0148 0.79578 0.90433 0.0
N473 N 0.05698 0.81804 0.90777 0.0
C474 C 0.02841 0.7975 0.89614 0.0
C475 C 0.02261 0.8053 0.91429 0.0
C476 C 0.04969 0.80885 0.89804 0.0
C477 C 0.044 0.8165 0.91586 0.0
C478 C 0.92655 0.7531 0.89976 0.0
C479 C 0.91518 0.75272 0.90879 0.0
C480 C 0.91636 0.74411 0.89012 0.0
C481 C 0.89373 0.74355 0.90796 0.0
C482 C 0.89489 0.7351 0.88962 0.0
N483 N 0.88412 0.73503 0.89847 0.0
C484 C 0.95846 0.78085 0.93219 0.0
C485 C 0.97725 0.76405 0.92816 0.0
C486 C 0.95913 0.77741 0.94318 0.0
N487 N 0.9677 0.77443 0.92499 0.0
C488 C 0.97839 0.76038 0.93908 0.0
C489 C 0.96955 0.76741 0.94677 0.0
H490 H 0.95115 0.78924 0.92941 0.0
H491 H 0.98458 0.75927 0.92223 0.0
C492 C 0.98837 0.76157 0.87359 0.0
N493 N 0.97457 0.75408 0.88184 0.0
C494 C 0.99042 0.74804 0.86668 0.0
C495 C 0.96412 0.71931 0.87696 0.0
C496 C 0.96248 0.73344 0.88364 0.0
C497 C 0.97823 0.7266 0.86833 0.0
H498 H 0.99778 0.77809 0.87239 0.0
H499 H 0.95161 0.72798 0.89028 0.0
O500 O 0.97084 0.80877 0.908 0.0
O501 O 0.97565 0.7982 0.88413 0.0
O502 O 0.99396 0.78531 0.90253 0.0
O503 O 0.9476 0.76253 0.90033 0.0
H504 H 0.97259 0.83071 0.8909 0.0
H505 H 0.97137 0.82906 0.92554 0.0
H506 H 0.97453 0.86466 0.89161 0.0
H507 H 0.97327 0.86307 0.92567 0.0
H508 H 0.9447 0.77044 0.85203 0.0
H509 H 0.98822 0.83322 0.87358 0.0
H510 H 0.95236 0.76683 0.87101 0.0
H511 H 0.97961 0.83564 0.85459 0.0
H512 H 0.046 0.87734 0.91107 0.0
H513 H 0.05207 0.86387 0.87777 0.0
H514 H 0.90198 0.80893 0.90629 0.0
H515 H 0.904 0.79851 0.87215 0.0
H516 H 0.0226 0.79032 0.88838 0.0
H517 H 0.01229 0.80432 0.92067 0.0
H518 H 0.06041 0.8104 0.89175 0.0
H519 H 0.05027 0.82405 0.9235 0.0
H520 H 0.92288 0.75965 0.91631 0.0
H521 H 0.92494 0.7442 0.88308 0.0
H522 H 0.88474 0.74327 0.91486 0.0
H523 H 0.88679 0.72819 0.88218 0.0
H524 H 0.95235 0.78333 0.94884 0.0
H525 H 0.98643 0.75247 0.94151 0.0
H526 H 0.00173 0.75432 0.86023 0.0
H527 H 0.95438 0.7029 0.87846 0.0
Li528 Li 0.85657 0.55812 0.44716 0.0
Li529 Li 0.84789 0.54691 0.42869 0.0
Li530 Li 0.81976 0.53621 0.44226 0.0
Li531 Li 0.84218 0.52156 0.44206 0.0
C532 C 0.8491 0.58423 0.43287 0.0
N533 N 0.86732 0.62337 0.42405 0.0
C534 C 0.87052 0.59589 0.43155 0.0
C535 C 0.83691 0.59248 0.42972 0.0
C536 C 0.87946 0.61564 0.42706 0.0
C537 C 0.84642 0.61231 0.42528 0.0
C538 C 0.88638 0.55177 0.43198 0.0
C539 C 0.90444 0.54595 0.41753 0.0
N540 N 0.92178 0.56424 0.41989 0.0
C541 C 0.90446 0.57041 0.43433 0.0
C542 C 0.88642 0.53934 0.42357 0.0
C543 C 0.92216 0.57648 0.4281 0.0
C544 C 0.8867 0.57226 0.4626 0.0
N545 N 0.87536 0.5784 0.45691 0.0
C546 C 0.89235 0.61141 0.46562 0.0
C547 C 0.87759 0.5974 0.45838 0.0
C548 C 0.90445 0.60551 0.47151 0.0
C549 C 0.90137 0.5856 0.46999 0.0
H550 H 0.88443 0.55698 0.46129 0.0
H551 H 0.86799 0.60171 0.45395 0.0
C552 C 0.83896 0.54208 0.40674 0.0
N553 N 0.85439 0.55374 0.4138 0.0
C554 C 0.84268 0.54422 0.39567 0.0
C555 C 0.87796 0.57091 0.39927 0.0
C556 C 0.87347 0.56842 0.41028 0.0
C557 C 0.86253 0.55846 0.39183 0.0
H558 H 0.82385 0.53068 0.40972 0.0
H559 H 0.88545 0.5778 0.41598 0.0
C560 C 0.82938 0.53854 0.46406 0.0
N561 N 0.81938 0.55041 0.48317 0.0
C562 C 0.82766 0.52789 0.47358 0.0
C563 C 0.82604 0.55525 0.46426 0.0
C564 C 0.82258 0.53412 0.48316 0.0
C565 C 0.821 0.56101 0.474 0.0
C566 C 0.81339 0.49951 0.4276 0.0
C567 C 0.79402 0.48503 0.43176 0.0
C568 C 0.82326 0.49314 0.42029 0.0
C569 C 0.78504 0.4643 0.42868 0.0
C570 C 0.81379 0.47227 0.41743 0.0
N571 N 0.79504 0.4584 0.42166 0.0
C572 C 0.78277 0.53621 0.43788 0.0
C573 C 0.78108 0.51535 0.45259 0.0
C574 C 0.7616 0.52897 0.43878 0.0
N575 N 0.79195 0.52915 0.44467 0.0
C576 C 0.75994 0.50774 0.45378 0.0
C577 C 0.74983 0.51426 0.4467 0.0
H578 H 0.79174 0.5469 0.43154 0.0
H579 H 0.78863 0.50952 0.45767 0.0
C580 C 0.85827 0.49439 0.44209 0.0
N581 N 0.84208 0.49668 0.44501 0.0
C582 C 0.85715 0.47538 0.44343 0.0
C583 C 0.82302 0.46171 0.45111 0.0
C584 C 0.82489 0.48102 0.4497 0.0
C585 C 0.83918 0.45859 0.44781 0.0
H586 H 0.87195 0.5072 0.4386 0.0
H587 H 0.81234 0.48338 0.45205 0.0
O588 O 0.84 0.56482 0.4372 0.0
O589 O 0.86889 0.54561 0.438 0.0
O590 O 0.83447 0.53264 0.45465 0.0
O591 O 0.82266 0.5198 0.4307 0.0
H592 H 0.88015 0.58977 0.43399 0.0
H593 H 0.82029 0.58368 0.43072 0.0
H594 H 0.89605 0.62481 0.42599 0.0
H595 H 0.83719 0.61889 0.42281 0.0
H596 H 0.90462 0.53656 0.41094 0.0
H597 H 0.90483 0.58015 0.44087 0.0
H598 H 0.87266 0.52484 0.42167 0.0
H599 H 0.93621 0.59092 0.42979 0.0
H600 H 0.89419 0.62659 0.46666 0.0
H601 H 0.91055 0.58055 0.47429 0.0
H602 H 0.83038 0.53423 0.3902 0.0
H603 H 0.89339 0.58224 0.3966 0.0
H604 H 0.83023 0.51494 0.47355 0.0
H605 H 0.82731 0.5637 0.45699 0.0
H606 H 0.82118 0.52602 0.49058 0.0
H607 H 0.81838 0.5739 0.47428 0.0
H608 H 0.78611 0.48968 0.43738 0.0
H609 H 0.83809 0.50417 0.41688 0.0
H610 H 0.77014 0.45291 0.43191 0.0
H611 H 0.82133 0.4671 0.41184 0.0
H612 H 0.75444 0.53448 0.43318 0.0
H613 H 0.75145 0.4961 0.45985 0.0
H614 H 0.87016 0.47383 0.44098 0.0
H615 H 0.80877 0.44921 0.45441 0.0
Li616 Li 0.46923 0.30923 0.43799 0.0
Li617 Li 0.44685 0.27141 0.43889 0.0
Li618 Li 0.44202 0.28931 0.42415 0.0
Li619 Li 0.43286 0.29224 0.44287 0.0
C620 C 0.47848 0.27872 0.42656 0.0
N621 N 0.49999 0.25783 0.42569 0.0
C622 C 0.49323 0.28222 0.43441 0.0
C623 C 0.47463 0.26452 0.41828 0.0
C624 C 0.50394 0.27153 0.43383 0.0
C625 C 0.4857 0.25415 0.41798 0.0
C626 C 0.44855 0.29031 0.46104 0.0
C627 C 0.42455 0.27052 0.47519 0.0
N628 N 0.43293 0.28769 0.48154 0.0
C629 C 0.45705 0.30771 0.46773 0.0
C630 C 0.43229 0.27152 0.46482 0.0
C631 C 0.44889 0.30609 0.47806 0.0
C632 C 0.4982 0.34837 0.44671 0.0
N633 N 0.4958 0.33329 0.43975 0.0
C634 C 0.53136 0.353 0.4346 0.0
C635 C 0.51179 0.33544 0.4336 0.0
C636 C 0.53449 0.36866 0.44191 0.0
C637 C 0.51755 0.36623 0.44799 0.0
H638 H 0.48502 0.34665 0.45117 0.0
H639 H 0.50934 0.32358 0.42784 0.0
C640 C 0.44245 0.23146 0.43543 0.0
N641 N 0.44822 0.24724 0.44257 0.0
C642 C 0.44802 0.21656 0.43712 0.0
C643 C 0.4645 0.23378 0.45373 0.0
C644 C 0.45854 0.2483 0.45174 0.0
C645 C 0.45987 0.21805 0.44617 0.0
H646 H 0.43494 0.23124 0.42801 0.0
H647 H 0.46353 0.26129 0.45715 0.0
C648 C 0.45633 0.33186 0.42595 0.0
N649 N 0.47326 0.36631 0.41283 0.0
C650 C 0.44982 0.34624 0.42687 0.0
C651 C 0.47147 0.335 0.41836 0.0
C652 C 0.45857 0.36356 0.42017 0.0
C653 C 0.47983 0.35251 0.4118 0.0
C654 C 0.40809 0.24706 0.43114 0.0
C655 C 0.40591 0.23991 0.42054 0.0
C656 C 0.39748 0.23304 0.43944 0.0
C657 C 0.39341 0.21877 0.41844 0.0
C658 C 0.38516 0.21202 0.43702 0.0
N659 N 0.38341 0.20537 0.42666 0.0
C660 C 0.44818 0.28979 0.4017 0.0
C661 C 0.42035 0.29428 0.40706 0.0
C662 C 0.44505 0.29255 0.39092 0.0
N663 N 0.43588 0.29066 0.40948 0.0
C664 C 0.41685 0.29744 0.39638 0.0
C665 C 0.42937 0.29666 0.38817 0.0
H666 H 0.46087 0.28765 0.40389 0.0
H667 H 0.41106 0.29524 0.41347 0.0
C668 C 0.42134 0.31566 0.45532 0.0
N669 N 0.41422 0.29634 0.45133 0.0
C670 C 0.40839 0.32002 0.46143 0.0
C671 C 0.38097 0.28448 0.45919 0.0
C672 C 0.39451 0.28079 0.45314 0.0
C673 C 0.38784 0.30437 0.46337 0.0
H674 H 0.43712 0.32769 0.45373 0.0
H675 H 0.38926 0.26562 0.44979 0.0
O676 O 0.4674 0.28862 0.42721 0.0
O677 O 0.45587 0.29168 0.45078 0.0
O678 O 0.44783 0.31481 0.43245 0.0
O679 O 0.4201 0.26773 0.43334 0.0
H680 H 0.49609 0.29281 0.44101 0.0
H681 H 0.4629 0.26114 0.4123 0.0
H682 H 0.51529 0.274 0.43989 0.0
H683 H 0.48277 0.24303 0.41166 0.0
H684 H 0.41187 0.25609 0.4782 0.0
H685 H 0.46974 0.32233 0.46499 0.0
H686 H 0.42566 0.25789 0.45978 0.0
H687 H 0.45524 0.31947 0.4833 0.0
H688 H 0.54396 0.35415 0.42978 0.0
H689 H 0.51917 0.3781 0.45355 0.0
H690 H 0.44401 0.20462 0.43111 0.0
H691 H 0.47392 0.23578 0.46073 0.0
H692 H 0.43812 0.34401 0.43271 0.0
H693 H 0.47671 0.32404 0.41752 0.0
H694 H 0.45367 0.37482 0.42079 0.0
H695 H 0.49154 0.35512 0.40589 0.0
H696 H 0.4139 0.25048 0.41399 0.0
H697 H 0.39873 0.23829 0.44767 0.0
H698 H 0.39169 0.21301 0.41028 0.0
H699 H 0.37696 0.20099 0.44337 0.0
H700 H 0.45531 0.29228 0.38485 0.0
H701 H 0.40465 0.30063 0.39456 0.0
H702 H 0.41446 0.33547 0.46464 0.0
H703 H 0.36521 0.27203 0.4604 0.0
Li704 Li 0.67091 0.15736 0.43751 0.0
Li705 Li 0.70885 0.17528 0.43807 0.0
Li706 Li 0.69043 0.15106 0.42364 0.0
Li707 Li 0.6896 0.1401 0.44228 0.0
C708 C 0.69276 0.19622 0.42724 0.0
N709 N 0.69709 0.23503 0.42847 0.0
C710 C 0.69152 0.20432 0.43721 0.0
C711 C 0.69621 0.20792 0.41791 0.0
C712 C 0.69376 0.22395 0.43766 0.0
C713 C 0.69834 0.22748 0.4187 0.0
C714 C 0.68956 0.15751 0.46062 0.0
C715 C 0.70686 0.15093 0.47506 0.0
N716 N 0.6902 0.14534 0.48154 0.0
C717 C 0.67274 0.152 0.46747 0.0
C718 C 0.70688 0.15725 0.4645 0.0
C719 C 0.67331 0.1458 0.478 0.0
C720 C 0.6319 0.1444 0.44696 0.0
N721 N 0.64573 0.15762 0.4396 0.0
C722 C 0.62273 0.1695 0.43475 0.0
C723 C 0.64127 0.1697 0.43336 0.0
C724 C 0.6084 0.15648 0.44252 0.0
C725 C 0.61313 0.14372 0.44864 0.0
H726 H 0.63531 0.13415 0.45141 0.0
H727 H 0.65189 0.17933 0.42718 0.0
C728 C 0.74243 0.21402 0.43233 0.0
N729 N 0.73253 0.2017 0.44091 0.0
C730 C 0.75746 0.23473 0.43387 0.0
C731 C 0.75251 0.22949 0.4531 0.0
C732 C 0.73748 0.20888 0.45117 0.0
C733 C 0.76232 0.24287 0.44437 0.0
H734 H 0.73783 0.20804 0.42425 0.0
H735 H 0.72911 0.19893 0.45786 0.0
C736 C 0.64863 0.12123 0.42605 0.0
N737 N 0.6132 0.10226 0.41366 0.0
C738 C 0.63406 0.10032 0.42757 0.0
C739 C 0.64516 0.13252 0.41824 0.0
C740 C 0.61625 0.09101 0.42122 0.0
C741 C 0.62717 0.12264 0.41206 0.0
C742 C 0.73433 0.16441 0.43034 0.0
C743 C 0.74151 0.17204 0.41999 0.0
C744 C 0.74853 0.16873 0.43862 0.0
C745 C 0.76278 0.18412 0.41815 0.0
C746 C 0.76967 0.18088 0.43646 0.0
N747 N 0.77631 0.18828 0.42635 0.0
C748 C 0.69458 0.15819 0.40121 0.0
C749 C 0.68185 0.1234 0.40641 0.0
C750 C 0.69193 0.15257 0.39035 0.0
N751 N 0.68934 0.14361 0.40895 0.0
C752 C 0.67879 0.11706 0.39565 0.0
C753 C 0.68365 0.13171 0.38747 0.0
H754 H 0.70047 0.17411 0.40348 0.0
H755 H 0.67773 0.11215 0.41276 0.0
C756 C 0.66817 0.10543 0.45523 0.0
N757 N 0.68698 0.11795 0.4507 0.0
C758 C 0.66477 0.08849 0.46138 0.0
C759 C 0.70026 0.09774 0.45815 0.0
C760 C 0.70295 0.1145 0.45201 0.0
C761 C 0.6809 0.08439 0.46285 0.0
H762 H 0.65581 0.10865 0.45403 0.0
H763 H 0.71771 0.12469 0.44824 0.0
O764 O 0.69124 0.17727 0.42662 0.0
O765 O 0.68916 0.16329 0.45021 0.0
O766 O 0.66609 0.13053 0.43224 0.0
O767 O 0.71353 0.15286 0.43233 0.0
H768 H 0.68891 0.19562 0.44454 0.0
H769 H 0.6973 0.20201 0.41013 0.0
H770 H 0.69287 0.23038 0.44531 0.0
H771 H 0.70103 0.23669 0.41154 0.0
H772 H 0.72008 0.15043 0.47811 0.0
H773 H 0.65946 0.15268 0.46475 0.0
H774 H 0.7201 0.16165 0.45935 0.0
H775 H 0.66035 0.14141 0.48337 0.0
H776 H 0.61977 0.17962 0.42985 0.0
H777 H 0.60231 0.1331 0.45453 0.0
H778 H 0.76429 0.2445 0.42689 0.0
H779 H 0.7559 0.23505 0.46133 0.0
H780 H 0.63651 0.0914 0.43359 0.0
H781 H 0.65623 0.14873 0.41697 0.0
H782 H 0.60484 0.07483 0.4223 0.0
H783 H 0.6243 0.13118 0.40599 0.0
H784 H 0.73081 0.16887 0.41348 0.0
H785 H 0.74332 0.16282 0.44665 0.0
H786 H 0.76854 0.19023 0.4102 0.0
H787 H 0.78081 0.18443 0.44282 0.0
H788 H 0.69566 0.16432 0.3843 0.0
H789 H 0.67255 0.10086 0.39376 0.0
H790 H 0.64971 0.07878 0.465 0.0
H791 H 0.71302 0.095 0.45903 0.0
Li792 Li 0.88993 0.52703 0.22531 0.0
Li793 Li 0.8785 0.51162 0.24334 0.0
Li794 Li 0.87478 0.49152 0.22748 0.0
Li795 Li 0.85305 0.5073 0.22909 0.0
C796 C 0.91197 0.50341 0.23585 0.0
N797 N 0.93401 0.48354 0.23904 0.0
C798 C 0.91316 0.49653 0.24613 0.0
C799 C 0.92221 0.50042 0.22723 0.0
C800 C 0.92434 0.48647 0.24757 0.0
C801 C 0.93319 0.49026 0.229 0.0
C802 C 0.8658 0.54092 0.24299 0.0
C803 C 0.84095 0.53602 0.25675 0.0
N804 N 0.84872 0.5568 0.25706 0.0
C805 C 0.87353 0.56221 0.24343 0.0
C806 C 0.84936 0.52769 0.2497 0.0
C807 C 0.86469 0.56994 0.2506 0.0
C808 C 0.90371 0.56468 0.21504 0.0
N809 N 0.90973 0.55112 0.21795 0.0
C810 C 0.94273 0.572 0.20964 0.0
C811 C 0.92882 0.55443 0.21546 0.0
C812 C 0.93688 0.58625 0.20645 0.0
C813 C 0.91708 0.58241 0.20924 0.0
H814 H 0.88834 0.5615 0.21709 0.0
H815 H 0.93317 0.54335 0.21791 0.0
C816 C 0.86883 0.50246 0.26534 0.0
N817 N 0.8829 0.51646 0.25836 0.0
C818 C 0.87034 0.50686 0.27634 0.0
C819 C 0.90078 0.54007 0.27274 0.0
C820 C 0.8988 0.53492 0.26181 0.0
C821 C 0.88629 0.52601 0.28013 0.0
H822 H 0.85592 0.48827 0.26233 0.0
H823 H 0.90952 0.54589 0.25601 0.0
C824 C 0.87499 0.51354 0.20632 0.0
N825 N 0.89125 0.53177 0.18663 0.0
C826 C 0.86641 0.52345 0.20068 0.0
C827 C 0.89164 0.51263 0.20186 0.0
C828 C 0.87489 0.53264 0.19076 0.0
C829 C 0.8997 0.52201 0.19193 0.0
C830 C 0.84115 0.46517 0.23815 0.0
C831 C 0.82854 0.45598 0.22916 0.0
C832 C 0.84198 0.45266 0.24621 0.0
C833 C 0.81698 0.43443 0.22839 0.0
C834 C 0.83013 0.43116 0.24516 0.0
N835 N 0.81801 0.42257 0.23634 0.0
C836 C 0.87634 0.45435 0.22957 0.0
C837 C 0.86602 0.45977 0.21247 0.0
C838 C 0.87059 0.43411 0.22675 0.0
N839 N 0.87341 0.46652 0.22256 0.0
C840 C 0.86012 0.43966 0.2093 0.0
C841 C 0.86163 0.42629 0.21663 0.0
H842 H 0.88157 0.45971 0.23766 0.0
H843 H 0.86336 0.46949 0.20712 0.0
C844 C 0.82632 0.52123 0.22203 0.0
N845 N 0.82713 0.50582 0.22731 0.0
C846 C 0.80762 0.52099 0.2212 0.0
C847 C 0.79112 0.48933 0.23151 0.0
C848 C 0.81007 0.49019 0.23213 0.0
C849 C 0.78971 0.50489 0.22601 0.0
H850 H 0.8403 0.53396 0.21867 0.0
H851 H 0.81122 0.47857 0.23665 0.0
O852 O 0.90118 0.51338 0.23431 0.0
O853 O 0.8744 0.53318 0.23604 0.0
O854 O 0.8673 0.50495 0.21619 0.0
O855 O 0.8531 0.48627 0.23884 0.0
H856 H 0.90542 0.49877 0.25291 0.0
H857 H 0.92161 0.50579 0.21925 0.0
H858 H 0.92529 0.48096 0.25546 0.0
H859 H 0.94108 0.48772 0.22238 0.0
H860 H 0.82824 0.52596 0.262 0.0
H861 H 0.88627 0.57265 0.2383 0.0
H862 H 0.84317 0.51117 0.24948 0.0
H863 H 0.87053 0.5864 0.25103 0.0
H864 H 0.9579 0.57446 0.20772 0.0
H865 H 0.91179 0.59278 0.20679 0.0
H866 H 0.85861 0.49579 0.28175 0.0
H867 H 0.9133 0.55498 0.27536 0.0
H868 H 0.85339 0.52411 0.20393 0.0
H869 H 0.89839 0.50493 0.20609 0.0
H870 H 0.86849 0.54048 0.18634 0.0
H871 H 0.9127 0.52158 0.18844 0.0
H872 H 0.82798 0.46541 0.22274 0.0
H873 H 0.85199 0.45942 0.25311 0.0
H874 H 0.80729 0.42713 0.22143 0.0
H875 H 0.83073 0.42131 0.2513 0.0
H876 H 0.8717 0.42427 0.23274 0.0
H877 H 0.85346 0.43433 0.20139 0.0
H878 H 0.80731 0.5335 0.21706 0.0
H879 H 0.7777 0.47657 0.23529 0.0
Li880 Li 0.47311 0.37016 0.22357 0.0
Li881 Li 0.48042 0.3683 0.24266 0.0
Li882 Li 0.50816 0.38799 0.22959 0.0
Li883 Li 0.48869 0.34991 0.22927 0.0
C884 C 0.49619 0.41359 0.23605 0.0
N885 N 0.51944 0.45566 0.23976 0.0
C886 C 0.50114 0.42115 0.24658 0.0
C887 C 0.50287 0.4274 0.22741 0.0
C888 C 0.51295 0.44248 0.24828 0.0
C889 C 0.51468 0.44862 0.22945 0.0
C890 C 0.44363 0.33423 0.23878 0.0
C891 C 0.42491 0.31062 0.25325 0.0
N892 N 0.4082 0.3125 0.25105 0.0
C893 C 0.42626 0.33589 0.23664 0.0
C894 C 0.44294 0.32143 0.24712 0.0
C895 C 0.40849 0.32477 0.24293 0.0
C896 C 0.4435 0.35251 0.20753 0.0
N897 N 0.45365 0.36972 0.21376 0.0
C898 C 0.43474 0.38411 0.20589 0.0
C899 C 0.4496 0.38541 0.21313 0.0
C900 C 0.42443 0.36668 0.19919 0.0
C901 C 0.42898 0.3508 0.20003 0.0
H902 H 0.44667 0.34006 0.20843 0.0
H903 H 0.45774 0.39879 0.2183 0.0
C904 C 0.48531 0.368 0.26489 0.0
N905 N 0.47204 0.36725 0.25726 0.0
C906 C 0.47964 0.36537 0.27572 0.0
C907 C 0.44696 0.36198 0.27073 0.0
C908 C 0.45343 0.36503 0.25997 0.0
C909 C 0.46008 0.36186 0.27872 0.0
H910 H 0.50017 0.37021 0.26256 0.0
H911 H 0.44339 0.36505 0.25377 0.0
C912 C 0.49332 0.36816 0.20634 0.0
N913 N 0.48414 0.36507 0.18464 0.0
C914 C 0.48644 0.34944 0.2009 0.0
C915 C 0.49574 0.38536 0.20072 0.0
C916 C 0.48184 0.34819 0.18993 0.0
C917 C 0.49094 0.38346 0.18976 0.0
C918 C 0.51789 0.35996 0.24384 0.0
C919 C 0.53823 0.36826 0.2402 0.0
C920 C 0.50896 0.34222 0.25026 0.0
C921 C 0.54926 0.35855 0.24299 0.0
C922 C 0.52048 0.33295 0.25285 0.0
N923 N 0.54022 0.34123 0.24918 0.0
C924 C 0.54566 0.42165 0.23698 0.0
C925 C 0.5449 0.41474 0.21828 0.0
C926 C 0.5667 0.43638 0.23641 0.0
N927 N 0.53533 0.41102 0.22802 0.0
C928 C 0.56597 0.42923 0.21736 0.0
C929 C 0.57729 0.4399 0.22656 0.0
H930 H 0.53777 0.41799 0.24466 0.0
H931 H 0.53645 0.40571 0.21135 0.0
C932 C 0.47378 0.30686 0.22865 0.0
N933 N 0.49038 0.32585 0.22659 0.0
C934 C 0.47524 0.28916 0.22734 0.0
C935 C 0.51067 0.31089 0.22153 0.0
C936 C 0.50845 0.32813 0.22285 0.0
C937 C 0.49398 0.29104 0.22389 0.0
H938 H 0.45944 0.30544 0.23137 0.0
H939 H 0.5213 0.34342 0.22112 0.0
O940 O 0.4849 0.39276 0.2342 0.0
O941 O 0.46121 0.34508 0.23274 0.0
O942 O 0.4976 0.3696 0.21711 0.0
O943 O 0.5067 0.369 0.24104 0.0
H944 H 0.49607 0.41065 0.25335 0.0
H945 H 0.49911 0.42177 0.21922 0.0
H946 H 0.517 0.44856 0.25639 0.0
H947 H 0.52007 0.45949 0.22284 0.0
H948 H 0.42421 0.30077 0.25977 0.0
H949 H 0.42652 0.34575 0.23023 0.0
H950 H 0.45627 0.32005 0.24892 0.0
H951 H 0.39496 0.32595 0.24139 0.0
H952 H 0.43142 0.39654 0.20547 0.0
H953 H 0.421 0.33697 0.19512 0.0
H954 H 0.49016 0.36528 0.28164 0.0
H955 H 0.43184 0.35954 0.27276 0.0
H956 H 0.48449 0.33598 0.20513 0.0
H957 H 0.50106 0.39995 0.20482 0.0
H958 H 0.47639 0.33378 0.18563 0.0
H959 H 0.49258 0.3966 0.18533 0.0
H960 H 0.54537 0.3819 0.23518 0.0
H961 H 0.49322 0.33559 0.25313 0.0
H962 H 0.56498 0.36474 0.24018 0.0
H963 H 0.51371 0.31914 0.25775 0.0
H964 H 0.57472 0.44438 0.24369 0.0
H965 H 0.5735 0.43113 0.20964 0.0
H966 H 0.46182 0.27418 0.22903 0.0
H967 H 0.52549 0.31319 0.21896 0.0
Li968 Li 0.61834 0.13236 0.22686 0.0
Li969 Li 0.65592 0.1484 0.22602 0.0
Li970 Li 0.63287 0.11275 0.21999 0.0
Li971 Li 0.63669 0.1214 0.239 0.0
C972 C 0.62842 0.14694 0.20711 0.0
N973 N 0.61175 0.16467 0.19418 0.0
C974 C 0.63916 0.16831 0.20543 0.0
C975 C 0.60927 0.13457 0.20214 0.0
C976 C 0.63046 0.17698 0.19888 0.0
C977 C 0.60108 0.14384 0.19566 0.0
C978 C 0.63757 0.15312 0.24852 0.0
C979 C 0.65232 0.16285 0.26632 0.0
N980 N 0.63397 0.15982 0.27013 0.0
C981 C 0.61886 0.15011 0.25262 0.0
C982 C 0.65447 0.1596 0.25542 0.0
C983 C 0.61737 0.1536 0.26356 0.0
C984 C 0.57693 0.12547 0.22505 0.0
N985 N 0.59752 0.13947 0.22569 0.0
C986 C 0.5914 0.16755 0.22401 0.0
C987 C 0.60487 0.16014 0.22537 0.0
C988 C 0.57009 0.15356 0.22319 0.0
C989 C 0.56278 0.13226 0.22385 0.0
H990 H 0.57153 0.10911 0.22541 0.0
H991 H 0.62131 0.17087 0.22606 0.0
C992 C 0.69191 0.17736 0.21422 0.0
N993 N 0.6807 0.17403 0.2234 0.0
C994 C 0.70952 0.19667 0.21231 0.0
C995 C 0.70361 0.2086 0.22933 0.0
C996 C 0.6862 0.18916 0.23089 0.0
C997 C 0.71542 0.21266 0.21989 0.0
H998 H 0.68696 0.16514 0.2083 0.0
H999 H 0.67687 0.18626 0.23802 0.0
C1000 C 0.59909 0.08346 0.22882 0.0
N1001 N 0.57729 0.04186 0.22375 0.0
C1002 C 0.60173 0.06938 0.23493 0.0
C1003 C 0.58527 0.0764 0.22019 0.0
C1004 C 0.59057 0.0484 0.23223 0.0
C1005 C 0.57443 0.0553 0.21773 0.0
C1006 C 0.6785 0.1314 0.22668 0.0
C1007 C 0.68439 0.12692 0.21681 0.0
C1008 C 0.69369 0.14469 0.23395 0.0
C1009 C 0.7054 0.13578 0.21438 0.0
C1010 C 0.71453 0.15328 0.23122 0.0
N1011 N 0.7199 0.14868 0.22158 0.0
C1012 C 0.62536 0.09281 0.19958 0.0
C1013 C 0.63475 0.07796 0.21367 0.0
C1014 C 0.62542 0.0788 0.19218 0.0
N1015 N 0.6302 0.09226 0.21006 0.0
C1016 C 0.63505 0.06371 0.20655 0.0
C1017 C 0.63072 0.06425 0.19559 0.0
H1018 H 0.62203 0.10449 0.19691 0.0
H1019 H 0.63887 0.07814 0.22202 0.0
C1020 C 0.62157 0.10714 0.26006 0.0
N1021 N 0.6376 0.11237 0.25317 0.0
C1022 C 0.62343 0.10359 0.27092 0.0
C1023 C 0.65768 0.10956 0.26719 0.0
C1024 C 0.65515 0.11299 0.25642 0.0
C1025 C 0.64192 0.10535 0.27465 0.0
H1026 H 0.60774 0.10666 0.25721 0.0
H1027 H 0.66747 0.11679 0.25073 0.0
O1028 O 0.63646 0.13821 0.2137 0.0
O1029 O 0.63923 0.14936 0.23788 0.0
O1030 O 0.61019 0.1041 0.2312 0.0
O1031 O 0.65801 0.12315 0.22914 0.0
H1032 H 0.65393 0.17815 0.20925 0.0
H1033 H 0.60065 0.11804 0.20344 0.0
H1034 H 0.63854 0.19351 0.19756 0.0
H1035 H 0.5862 0.13447 0.19185 0.0
H1036 H 0.6652 0.16768 0.27176 0.0
H1037 H 0.60556 0.14492 0.24745 0.0
H1038 H 0.66897 0.1617 0.25243 0.0
H1039 H 0.60296 0.15127 0.26684 0.0
H1040 H 0.59758 0.1841 0.22374 0.0
H1041 H 0.54641 0.12105 0.22329 0.0
H1042 H 0.71805 0.19921 0.20487 0.0
H1043 H 0.70772 0.22036 0.23545 0.0
H1044 H 0.61242 0.07461 0.24162 0.0
H1045 H 0.58311 0.08712 0.21536 0.0
H1046 H 0.59253 0.03732 0.23685 0.0
H1047 H 0.56379 0.04963 0.21102 0.0
H1048 H 0.67291 0.11689 0.21101 0.0
H1049 H 0.68944 0.14865 0.24155 0.0
H1050 H 0.71017 0.13249 0.20676 0.0
H1051 H 0.72643 0.16369 0.23674 0.0
H1052 H 0.62181 0.07965 0.18383 0.0
H1053 H 0.63958 0.05304 0.20951 0.0
H1054 H 0.61095 0.10049 0.27642 0.0
H1055 H 0.672 0.11064 0.26969 0.0
Li1056 Li 0.52166 0.8795 0.75655 0.0
Li1057 Li 0.53048 0.88872 0.77509 0.0
Li1058 Li 0.51604 0.85305 0.76936 0.0
Li1059 Li 0.49485 0.8686 0.77013 0.0
C1060 C 0.55384 0.87094 0.75907 0.0
N1061 N 0.57613 0.8579 0.747 0.0
C1062 C 0.57436 0.87755 0.76171 0.0
C1063 C 0.54466 0.85768 0.75029 0.0
C1064 C 0.58537 0.87079 0.75551 0.0
C1065 C 0.55618 0.85127 0.74428 0.0
C1066 C 0.52699 0.9174 0.76224 0.0
C1067 C 0.53071 0.94993 0.7568 0.0
N1068 N 0.55139 0.95786 0.7555 0.0
C1069 C 0.54828 0.92586 0.76084 0.0
C1070 C 0.51812 0.9295 0.7602 0.0
C1071 C 0.56035 0.94635 0.75743 0.0
C1072 C 0.51332 0.88122 0.7347 0.0
N1073 N 0.52889 0.88799 0.74199 0.0
C1074 C 0.55424 0.90333 0.72805 0.0
C1075 C 0.54906 0.89924 0.73892 0.0
C1076 C 0.5385 0.89584 0.72028 0.0
C1077 C 0.51779 0.88501 0.72374 0.0
H1078 H 0.49743 0.87232 0.73739 0.0
H1079 H 0.56117 0.90445 0.74488 0.0
C1080 C 0.56292 0.90351 0.78947 0.0
N1081 N 0.54967 0.90855 0.7849 0.0
C1082 C 0.57765 0.91685 0.79685 0.0
C1083 C 0.56487 0.94043 0.79466 0.0
C1084 C 0.55015 0.92644 0.78743 0.0
C1085 C 0.57881 0.93562 0.79947 0.0
H1086 H 0.56201 0.88908 0.78734 0.0
H1087 H 0.53914 0.92988 0.78385 0.0
C1088 C 0.47885 0.83299 0.75798 0.0
N1089 N 0.44265 0.79504 0.75754 0.0
C1090 C 0.4711 0.82147 0.76744 0.0
C1091 C 0.46818 0.8252 0.74831 0.0
C1092 C 0.45278 0.80233 0.76705 0.0
C1093 C 0.44991 0.80598 0.74825 0.0
C1094 C 0.50405 0.86904 0.79196 0.0
C1095 C 0.5027 0.85815 0.80133 0.0
C1096 C 0.50081 0.88579 0.79252 0.0
C1097 C 0.49808 0.86418 0.81111 0.0
C1098 C 0.49624 0.89135 0.80245 0.0
N1099 N 0.49497 0.88051 0.81146 0.0
C1100 C 0.52265 0.82453 0.781 0.0
C1101 C 0.51087 0.81438 0.76311 0.0
C1102 C 0.52247 0.80604 0.78274 0.0
N1103 N 0.51673 0.82822 0.77133 0.0
C1104 C 0.51041 0.79574 0.76449 0.0
C1105 C 0.51614 0.79127 0.77443 0.0
H1106 H 0.52732 0.83587 0.78739 0.0
H1107 H 0.50619 0.81763 0.75549 0.0
C1108 C 0.45827 0.86855 0.76511 0.0
N1109 N 0.46718 0.86231 0.77256 0.0
C1110 C 0.43721 0.86194 0.76582 0.0
C1111 C 0.43517 0.84323 0.78202 0.0
C1112 C 0.45614 0.85001 0.78095 0.0
C1113 C 0.42536 0.84889 0.7743 0.0
H1114 H 0.46738 0.87807 0.75843 0.0
H1115 H 0.46335 0.84467 0.78657 0.0
O1116 O 0.54293 0.87744 0.76512 0.0
O1117 O 0.51474 0.89734 0.76551 0.0
O1118 O 0.49663 0.85192 0.75815 0.0
O1119 O 0.50878 0.86338 0.78237 0.0
H1120 H 0.58168 0.88781 0.76849 0.0
H1121 H 0.52882 0.85244 0.7481 0.0
H1122 H 0.60127 0.87579 0.75747 0.0
H1123 H 0.54926 0.84104 0.73746 0.0
H1124 H 0.52404 0.95948 0.75519 0.0
H1125 H 0.55547 0.9168 0.76243 0.0
H1126 H 0.50165 0.92315 0.76123 0.0
H1127 H 0.57684 0.9531 0.75634 0.0
H1128 H 0.57039 0.91194 0.72573 0.0
H1129 H 0.50519 0.87877 0.71801 0.0
H1130 H 0.58826 0.91271 0.80033 0.0
H1131 H 0.56523 0.95469 0.79658 0.0
H1132 H 0.47911 0.82721 0.77501 0.0
H1133 H 0.47396 0.83391 0.74092 0.0
H1134 H 0.44662 0.79327 0.77431 0.0
H1135 H 0.44149 0.79977 0.74082 0.0
H1136 H 0.50521 0.84517 0.80103 0.0
H1137 H 0.50179 0.89443 0.78537 0.0
H1138 H 0.49698 0.85588 0.81842 0.0
H1139 H 0.49369 0.90428 0.803 0.0
H1140 H 0.52721 0.80334 0.7905 0.0
H1141 H 0.50506 0.78471 0.75791 0.0
H1142 H 0.4302 0.86663 0.75969 0.0
H1143 H 0.42651 0.83281 0.78854 0.0
Li1144 Li 0.14283 0.64669 0.77328 0.0
Li1145 Li 0.12315 0.60829 0.77344 0.0
Li1146 Li 0.11422 0.626 0.76007 0.0
Li1147 Li 0.10772 0.62668 0.77933 0.0
C1148 C 0.15444 0.63691 0.75365 0.0
N1149 N 0.18177 0.65717 0.73697 0.0
C1150 C 0.16656 0.62923 0.74952 0.0
C1151 C 0.15622 0.65491 0.74932 0.0
C1152 C 0.18029 0.6397 0.74108 0.0
C1153 C 0.17012 0.66492 0.74088 0.0
C1154 C 0.13171 0.63116 0.79641 0.0
C1155 C 0.11662 0.61924 0.81401 0.0
N1156 N 0.1299 0.63827 0.81815 0.0
C1157 C 0.14531 0.65056 0.80086 0.0
C1158 C 0.11735 0.61531 0.80306 0.0
C1159 C 0.14411 0.65385 0.81186 0.0
C1160 C 0.17368 0.68905 0.77085 0.0
N1161 N 0.16957 0.67028 0.7745 0.0
C1162 C 0.20493 0.68394 0.77928 0.0
C1163 C 0.18464 0.66743 0.77865 0.0
C1164 C 0.20974 0.70354 0.77553 0.0
C1165 C 0.19378 0.70603 0.77134 0.0
H1166 H 0.16145 0.69072 0.76736 0.0
H1167 H 0.18087 0.65224 0.7814 0.0
C1168 C 0.13044 0.57708 0.76619 0.0
N1169 N 0.12746 0.58563 0.77518 0.0
C1170 C 0.13725 0.56295 0.76707 0.0
C1171 C 0.13682 0.566 0.78646 0.0
C1172 C 0.13005 0.58009 0.78519 0.0
C1173 C 0.14113 0.55773 0.77731 0.0
H1174 H 0.12851 0.58202 0.75833 0.0
H1175 H 0.12781 0.58731 0.79219 0.0
C1176 C 0.10839 0.65952 0.77114 0.0
N1177 N 0.08448 0.6767 0.77634 0.0
C1178 C 0.08741 0.64923 0.76844 0.0
C1179 C 0.11723 0.67859 0.77644 0.0
C1180 C 0.07558 0.65815 0.77116 0.0
C1181 C 0.10487 0.68701 0.77901 0.0
C1182 C 0.08536 0.5816 0.76964 0.0
C1183 C 0.082 0.57045 0.76008 0.0
C1184 C 0.07935 0.5711 0.77946 0.0
C1185 C 0.07298 0.54897 0.76052 0.0
C1186 C 0.07039 0.54962 0.77957 0.0
N1187 N 0.06743 0.53909 0.77017 0.0
C1188 C 0.11023 0.61404 0.73837 0.0
C1189 C 0.10285 0.64071 0.74183 0.0
C1190 C 0.10882 0.61612 0.72729 0.0
N1191 N 0.10742 0.62638 0.74537 0.0
C1192 C 0.10122 0.64327 0.73082 0.0
C1193 C 0.10463 0.63116 0.72338 0.0
H1194 H 0.11453 0.60325 0.74138 0.0
H1195 H 0.10147 0.65088 0.74751 0.0
C1196 C 0.09678 0.64442 0.79626 0.0
N1197 N 0.0891 0.62781 0.78954 0.0
C1198 C 0.08387 0.64668 0.80348 0.0
C1199 C 0.05508 0.61484 0.7967 0.0
C1200 C 0.06868 0.61308 0.78963 0.0
C1201 C 0.0627 0.63184 0.80374 0.0
H1202 H 0.1129 0.65625 0.79581 0.0
H1203 H 0.06288 0.60022 0.78407 0.0
O1204 O 0.14082 0.62671 0.76186 0.0
O1205 O 0.13267 0.62767 0.78565 0.0
O1206 O 0.12007 0.65074 0.76879 0.0
O1207 O 0.09466 0.60268 0.7694 0.0
H1208 H 0.16535 0.6153 0.75279 0.0
H1209 H 0.14693 0.66107 0.75239 0.0
H1210 H 0.18977 0.63392 0.73779 0.0
H1211 H 0.17163 0.67885 0.73744 0.0
H1212 H 0.10548 0.60715 0.81922 0.0
H1213 H 0.1565 0.66303 0.79587 0.0
H1214 H 0.10673 0.60021 0.79979 0.0
H1215 H 0.15445 0.66883 0.81539 0.0
H1216 H 0.21672 0.6814 0.78268 0.0
H1217 H 0.19688 0.72079 0.76821 0.0
H1218 H 0.14063 0.55719 0.7598 0.0
H1219 H 0.13941 0.56224 0.79449 0.0
H1220 H 0.08028 0.63434 0.76444 0.0
H1221 H 0.13335 0.68663 0.77873 0.0
H1222 H 0.0593 0.65029 0.76919 0.0
H1223 H 0.11148 0.70169 0.78317 0.0
H1224 H 0.08638 0.57829 0.7524 0.0
H1225 H 0.08169 0.57947 0.78692 0.0
H1226 H 0.0704 0.54017 0.75318 0.0
H1227 H 0.06579 0.54131 0.78712 0.0
H1228 H 0.11149 0.60642 0.72183 0.0
H1229 H 0.09839 0.65533 0.72816 0.0
H1230 H 0.09029 0.6603 0.80857 0.0
H1231 H 0.03882 0.60313 0.79663 0.0
Li1232 Li 0.35232 0.49328 0.7698 0.0
Li1233 Li 0.38993 0.50984 0.77022 0.0
Li1234 Li 0.37134 0.48613 0.75561 0.0
Li1235 Li 0.36893 0.47411 0.77403 0.0
C1236 C 0.3807 0.53325 0.75833 0.0
N1237 N 0.39936 0.57584 0.75779 0.0
C1238 C 0.37753 0.5438 0.76673 0.0
C1239 C 0.39324 0.54436 0.74961 0.0
C1240 C 0.38712 0.56533 0.76632 0.0
C1241 C 0.40257 0.56589 0.74951 0.0
C1242 C 0.37453 0.49361 0.79231 0.0
C1243 C 0.39801 0.4915 0.80472 0.0
N1244 N 0.38298 0.48406 0.8124 0.0
C1245 C 0.35934 0.48603 0.80033 0.0
C1246 C 0.39405 0.49644 0.79451 0.0
C1247 C 0.36391 0.48126 0.81044 0.0
C1248 C 0.31505 0.48539 0.78013 0.0
N1249 N 0.32876 0.49607 0.77212 0.0
C1250 C 0.30825 0.51024 0.76632 0.0
C1251 C 0.32555 0.50812 0.76519 0.0
C1252 C 0.29395 0.49969 0.7746 0.0
C1253 C 0.29741 0.48698 0.78152 0.0
H1254 H 0.31772 0.47548 0.78534 0.0
H1255 H 0.33628 0.51587 0.75866 0.0
C1256 C 0.42948 0.54468 0.76608 0.0
N1257 N 0.414 0.53559 0.77346 0.0
C1258 C 0.44486 0.56543 0.76727 0.0
C1259 C 0.42869 0.56654 0.78395 0.0
C1260 C 0.41363 0.54585 0.78242 0.0
C1261 C 0.44421 0.5768 0.77615 0.0
H1262 H 0.42916 0.53619 0.75895 0.0
H1263 H 0.40085 0.5384 0.78801 0.0
C1264 C 0.32635 0.4582 0.76011 0.0
N1265 N 0.28632 0.44326 0.75308 0.0
C1266 C 0.30993 0.44082 0.76497 0.0
C1267 C 0.3224 0.46793 0.75164 0.0
C1268 C 0.2898 0.43351 0.76131 0.0
C1269 C 0.30206 0.46016 0.74821 0.0
C1270 C 0.39885 0.47343 0.76062 0.0
C1271 C 0.38306 0.45349 0.75791 0.0
C1272 C 0.41948 0.47886 0.75922 0.0
C1273 C 0.38821 0.43929 0.75385 0.0
C1274 C 0.424 0.46422 0.75514 0.0
N1275 N 0.4084 0.4449 0.75256 0.0
C1276 C 0.38633 0.49373 0.73413 0.0
C1277 C 0.35605 0.46124 0.73698 0.0
C1278 C 0.3854 0.48995 0.72305 0.0
N1279 N 0.37143 0.47968 0.74078 0.0
C1280 C 0.35439 0.4569 0.72599 0.0
C1281 C 0.36895 0.47152 0.7188 0.0
H1282 H 0.39875 0.50799 0.73741 0.0
H1283 H 0.34471 0.45005 0.74246 0.0
C1284 C 0.34673 0.44064 0.78764 0.0
N1285 N 0.36556 0.45195 0.78292 0.0
C1286 C 0.34255 0.42408 0.79431 0.0
C1287 C 0.37746 0.43131 0.79135 0.0
C1288 C 0.38099 0.44787 0.78477 0.0
C1289 C 0.35794 0.41904 0.79615 0.0
H1290 H 0.33505 0.44477 0.78635 0.0
H1291 H 0.39605 0.45745 0.78118 0.0
O1292 O 0.37207 0.51222 0.75881 0.0
O1293 O 0.37019 0.49775 0.78225 0.0
O1294 O 0.34613 0.46603 0.76379 0.0
O1295 O 0.39434 0.48777 0.76455 0.0
H1296 H 0.3681 0.53548 0.77361 0.0
H1297 H 0.39588 0.53649 0.74304 0.0
H1298 H 0.38495 0.5737 0.77281 0.0
H1299 H 0.41242 0.5747 0.74285 0.0
H1300 H 0.41301 0.49348 0.80652 0.0
H1301 H 0.34415 0.48372 0.79875 0.0
H1302 H 0.40591 0.5021 0.78835 0.0
H1303 H 0.35228 0.4753 0.81672 0.0
H1304 H 0.30592 0.51978 0.76064 0.0
H1305 H 0.28674 0.47856 0.788 0.0
H1306 H 0.45663 0.57271 0.76111 0.0
H1307 H 0.42733 0.57475 0.7908 0.0
H1308 H 0.31265 0.433 0.77149 0.0
H1309 H 0.3349 0.48154 0.74785 0.0
H1310 H 0.27695 0.42009 0.76501 0.0
H1311 H 0.29879 0.46762 0.74171 0.0
H1312 H 0.36701 0.44891 0.75896 0.0
H1313 H 0.43187 0.49425 0.76126 0.0
H1314 H 0.37615 0.42381 0.75173 0.0
H1315 H 0.4399 0.46821 0.75402 0.0
H1316 H 0.39728 0.50146 0.71788 0.0
H1317 H 0.34135 0.44255 0.72314 0.0
H1318 H 0.32749 0.41548 0.7981 0.0
H1319 H 0.38978 0.42802 0.79255 0.0
Li1320 Li 0.55543 0.85592 0.55364 0.0
Li1321 Li 0.54633 0.84445 0.57248 0.0
Li1322 Li 0.54055 0.82085 0.55786 0.0
Li1323 Li 0.5191 0.83698 0.55871 0.0
C1324 C 0.57933 0.83518 0.56556 0.0
N1325 N 0.6031 0.81771 0.57031 0.0
C1326 C 0.58111 0.83023 0.5762 0.0
C1327 C 0.58987 0.83148 0.55736 0.0
C1328 C 0.59315 0.82137 0.57843 0.0
C1329 C 0.60172 0.82255 0.55991 0.0
C1330 C 0.53348 0.8738 0.57039 0.0
C1331 C 0.51093 0.87276 0.58457 0.0
N1332 N 0.51818 0.89328 0.58313 0.0
C1333 C 0.5407 0.89486 0.56903 0.0
C1334 C 0.51847 0.86264 0.57821 0.0
C1335 C 0.53277 0.90443 0.57556 0.0
C1336 C 0.56693 0.89018 0.54079 0.0
N1337 N 0.57402 0.87815 0.5448 0.0
C1338 C 0.60607 0.89779 0.53542 0.0
C1339 C 0.5932 0.88165 0.54235 0.0
C1340 C 0.59898 0.91027 0.53099 0.0
C1341 C 0.57918 0.90637 0.53381 0.0
H1342 H 0.55159 0.88698 0.54292 0.0
H1343 H 0.5984 0.87179 0.54568 0.0
C1344 C 0.53828 0.8392 0.59462 0.0
N1345 N 0.55225 0.85188 0.58719 0.0
C1346 C 0.54081 0.84487 0.60545 0.0
C1347 C 0.5721 0.87664 0.6008 0.0
C1348 C 0.56902 0.87027 0.59002 0.0
C1349 C 0.55778 0.8639 0.60865 0.0
H1350 H 0.52473 0.82503 0.59209 0.0
H1351 H 0.57969 0.88016 0.58388 0.0
C1352 C 0.53944 0.83708 0.53563 0.0
N1353 N 0.55575 0.84846 0.51512 0.0
C1354 C 0.53186 0.84616 0.5286 0.0
C1355 C 0.55514 0.83357 0.53218 0.0
C1356 C 0.54036 0.85186 0.51827 0.0
C1357 C 0.56322 0.83947 0.5218 0.0
C1358 C 0.50903 0.79733 0.5706 0.0
C1359 C 0.49347 0.78557 0.56314 0.0
C1360 C 0.51317 0.78741 0.57889 0.0
C1361 C 0.4823 0.76405 0.56411 0.0
C1362 C 0.50163 0.76585 0.57959 0.0
N1363 N 0.48658 0.75472 0.57224 0.0
C1364 C 0.54385 0.78477 0.56146 0.0
C1365 C 0.52742 0.78512 0.54528 0.0
C1366 C 0.53797 0.7641 0.55979 0.0
N1367 N 0.53815 0.79472 0.55435 0.0
C1368 C 0.52124 0.76447 0.54328 0.0
C1369 C 0.52598 0.75352 0.55076 0.0
H1370 H 0.55164 0.79231 0.56882 0.0
H1371 H 0.52243 0.79304 0.53992 0.0
C1372 C 0.48922 0.84515 0.54955 0.0
N1373 N 0.49267 0.83444 0.55726 0.0
C1374 C 0.46988 0.84355 0.54874 0.0
C1375 C 0.45837 0.82064 0.56411 0.0
C1376 C 0.47778 0.82247 0.56452 0.0
C1377 C 0.4542 0.83119 0.55611 0.0
H1378 H 0.50155 0.85515 0.54413 0.0
H1379 H 0.48106 0.81451 0.57074 0.0
O1380 O 0.56779 0.84409 0.56323 0.0
O1381 O 0.54117 0.86427 0.56406 0.0
O1382 O 0.53186 0.83203 0.54592 0.0
O1383 O 0.52057 0.81838 0.56955 0.0
H1384 H 0.57314 0.833 0.58267 0.0
H1385 H 0.58895 0.83546 0.54911 0.0
H1386 H 0.59455 0.81735 0.58661 0.0
H1387 H 0.60987 0.8195 0.55364 0.0
H1388 H 0.49932 0.8643 0.59066 0.0
H1389 H 0.55233 0.90371 0.56301 0.0
H1390 H 0.5127 0.84633 0.57937 0.0
H1391 H 0.53822 0.92073 0.5746 0.0
H1392 H 0.62119 0.90023 0.53339 0.0
H1393 H 0.57325 0.91582 0.53072 0.0
H1394 H 0.52914 0.83481 0.61119 0.0
H1395 H 0.5854 0.89142 0.60294 0.0
H1396 H 0.51968 0.84894 0.53108 0.0
H1397 H 0.56109 0.82647 0.5375 0.0
H1398 H 0.53474 0.85904 0.51277 0.0
H1399 H 0.57547 0.83695 0.51906 0.0
H1400 H 0.4903 0.79297 0.55656 0.0
H1401 H 0.52546 0.7962 0.58459 0.0
H1402 H 0.47032 0.75476 0.55835 0.0
H1403 H 0.50476 0.75796 0.58592 0.0
H1404 H 0.54196 0.75623 0.56576 0.0
H1405 H 0.51168 0.75682 0.53633 0.0
H1406 H 0.46732 0.85213 0.54256 0.0
H1407 H 0.44665 0.81086 0.5699 0.0
Li1408 Li 0.14424 0.66083 0.55877 0.0
Li1409 Li 0.16851 0.6971 0.55815 0.0
Li1410 Li 0.14282 0.68154 0.57358 0.0
Li1411 Li 0.1329 0.68498 0.55481 0.0
C1412 C 0.17517 0.66632 0.57215 0.0
N1413 N 0.19313 0.64325 0.57747 0.0
C1414 C 0.18469 0.66074 0.56421 0.0
C1415 C 0.17477 0.66014 0.5828 0.0
C1416 C 0.19366 0.64906 0.56705 0.0
C1417 C 0.18396 0.64851 0.58533 0.0
C1418 C 0.1652 0.68818 0.5378 0.0
C1419 C 0.18473 0.71721 0.52594 0.0
N1420 N 0.19401 0.70735 0.52154 0.0
C1421 C 0.17495 0.67834 0.53314 0.0
C1422 C 0.17012 0.70776 0.53415 0.0
C1423 C 0.18945 0.68828 0.52493 0.0
C1424 C 0.13809 0.62631 0.54605 0.0
N1425 N 0.13919 0.63342 0.55625 0.0
C1426 C 0.1359 0.60248 0.56355 0.0
C1427 C 0.13728 0.62158 0.56493 0.0
C1428 C 0.13615 0.59531 0.55311 0.0
C1429 C 0.13668 0.60724 0.54428 0.0
H1430 H 0.13867 0.63561 0.53928 0.0
H1431 H 0.13753 0.6273 0.57296 0.0
C1432 C 0.20323 0.73797 0.55828 0.0
N1433 N 0.19661 0.71807 0.55538 0.0
C1434 C 0.22406 0.75321 0.55711 0.0
C1435 C 0.2307 0.72729 0.54975 0.0
C1436 C 0.20988 0.71258 0.55116 0.0
C1437 C 0.2381 0.74787 0.55286 0.0
H1438 H 0.19244 0.74191 0.56175 0.0
H1439 H 0.20446 0.69672 0.54906 0.0
C1440 C 0.10411 0.64146 0.56281 0.0
N1441 N 0.07344 0.60127 0.5585 0.0
C1442 C 0.09602 0.63582 0.55242 0.0
C1443 C 0.09663 0.62668 0.57101 0.0
C1444 C 0.0805 0.61542 0.5504 0.0
C1445 C 0.08111 0.60644 0.56866 0.0
C1446 C 0.14302 0.71982 0.56484 0.0
C1447 C 0.12831 0.7174 0.57253 0.0
C1448 C 0.14875 0.73471 0.55678 0.0
C1449 C 0.11936 0.72975 0.57194 0.0
C1450 C 0.13943 0.74676 0.55646 0.0
N1451 N 0.12504 0.74404 0.56398 0.0
C1452 C 0.15457 0.69264 0.59513 0.0
C1453 C 0.11853 0.67066 0.59243 0.0
C1454 C 0.15177 0.69151 0.60629 0.0
N1455 N 0.13809 0.68196 0.58851 0.0
C1456 C 0.11501 0.66911 0.60353 0.0
C1457 C 0.13182 0.67931 0.61062 0.0
H1458 H 0.16994 0.70155 0.59175 0.0
H1459 H 0.10572 0.66246 0.58694 0.0
C1460 C 0.11445 0.69221 0.53654 0.0
N1461 N 0.1128 0.6884 0.5473 0.0
C1462 C 0.09845 0.69252 0.53101 0.0
C1463 C 0.07946 0.68515 0.54776 0.0
C1464 C 0.09584 0.68505 0.55296 0.0
C1465 C 0.0805 0.68859 0.5366 0.0
H1466 H 0.12777 0.6942 0.53216 0.0
H1467 H 0.09478 0.68165 0.56148 0.0
O1468 O 0.16605 0.67754 0.56953 0.0
O1469 O 0.15107 0.67881 0.54593 0.0
O1470 O 0.11968 0.66122 0.56487 0.0
O1471 O 0.15163 0.70756 0.56516 0.0
H1472 H 0.18451 0.66473 0.55588 0.0
H1473 H 0.16732 0.66415 0.58905 0.0
H1474 H 0.20089 0.64446 0.56096 0.0
H1475 H 0.18374 0.64361 0.59354 0.0
H1476 H 0.18873 0.7324 0.5231 0.0
H1477 H 0.17171 0.66339 0.53596 0.0
H1478 H 0.16292 0.7157 0.53772 0.0
H1479 H 0.19718 0.68089 0.52131 0.0
H1480 H 0.13561 0.59392 0.57061 0.0
H1481 H 0.13639 0.60207 0.53609 0.0
H1482 H 0.22917 0.76892 0.55961 0.0
H1483 H 0.24104 0.72239 0.54664 0.0
H1484 H 0.10183 0.64699 0.54595 0.0
H1485 H 0.10295 0.63072 0.57906 0.0
H1486 H 0.07414 0.61081 0.54239 0.0
H1487 H 0.07524 0.59481 0.57491 0.0
H1488 H 0.12367 0.70593 0.57882 0.0
H1489 H 0.16026 0.73695 0.55083 0.0
H1490 H 0.10785 0.72795 0.5778 0.0
H1491 H 0.14365 0.75827 0.55023 0.0
H1492 H 0.16512 0.69987 0.61146 0.0
H1493 H 0.0994 0.65941 0.60652 0.0
H1494 H 0.0997 0.69482 0.52237 0.0
H1495 H 0.06593 0.68212 0.55237 0.0
Li1496 Li 0.2795 0.45763 0.55855 0.0
Li1497 Li 0.31746 0.4766 0.55728 0.0
Li1498 Li 0.29542 0.43884 0.55233 0.0
Li1499 Li 0.30025 0.4493 0.57124 0.0
C1500 C 0.28778 0.46975 0.5382 0.0
N1501 N 0.26835 0.48275 0.52409 0.0
C1502 C 0.29701 0.49065 0.53549 0.0
C1503 C 0.26881 0.45542 0.53363 0.0
C1504 C 0.28691 0.49693 0.52836 0.0
C1505 C 0.25918 0.46231 0.52655 0.0
C1506 C 0.30737 0.49036 0.5774 0.0
C1507 C 0.3315 0.50888 0.59173 0.0
N1508 N 0.32223 0.52021 0.5934 0.0
C1509 C 0.29793 0.50203 0.57936 0.0
C1510 C 0.32418 0.4937 0.58371 0.0
C1511 C 0.30574 0.51711 0.58743 0.0
C1512 C 0.23689 0.44704 0.55741 0.0
N1513 N 0.25706 0.4624 0.55714 0.0
C1514 C 0.24745 0.48773 0.55399 0.0
C1515 C 0.26252 0.48241 0.55552 0.0
C1516 C 0.22645 0.47228 0.55415 0.0
C1517 C 0.2212 0.45169 0.55596 0.0
H1518 H 0.233 0.43122 0.5587 0.0
H1519 H 0.27869 0.49428 0.55535 0.0
C1520 C 0.35765 0.50378 0.54892 0.0
N1521 N 0.34114 0.50267 0.55411 0.0
C1522 C 0.37554 0.52295 0.54721 0.0
C1523 C 0.35871 0.53942 0.55587 0.0
C1524 C 0.34119 0.52 0.55737 0.0
C1525 C 0.3763 0.54105 0.55089 0.0
H1526 H 0.35708 0.48973 0.5463 0.0
H1527 H 0.32764 0.51875 0.56116 0.0
C1528 C 0.26256 0.40929 0.56247 0.0
N1529 N 0.24063 0.36694 0.55956 0.0
C1530 C 0.26509 0.39643 0.56964 0.0
C1531 C 0.24873 0.40062 0.5539 0.0
C1532 C 0.25388 0.37505 0.56801 0.0
C1533 C 0.23784 0.37917 0.55253 0.0
C1534 C 0.33992 0.45468 0.56382 0.0
C1535 C 0.3435 0.43837 0.56195 0.0
C1536 C 0.35521 0.47267 0.56884 0.0
C1537 C 0.36206 0.44015 0.56534 0.0
C1538 C 0.37358 0.47388 0.57211 0.0
N1539 N 0.37659 0.45772 0.57032 0.0
C1540 C 0.29211 0.42057 0.53194 0.0
C1541 C 0.29503 0.40212 0.54661 0.0
C1542 C 0.29271 0.40671 0.52463 0.0
N1543 N 0.29357 0.41821 0.54269 0.0
C1544 C 0.29584 0.38799 0.53959 0.0
C1545 C 0.29508 0.3904 0.52841 0.0
H1546 H 0.29108 0.43355 0.52902 0.0
H1547 H 0.29628 0.40066 0.55519 0.0
C1548 C 0.29289 0.44704 0.5935 0.0
N1549 N 0.30307 0.44285 0.58574 0.0
C1550 C 0.29673 0.44564 0.60437 0.0
C1551 C 0.32061 0.43455 0.59904 0.0
C1552 C 0.31617 0.43601 0.58828 0.0
C1553 C 0.3112 0.43989 0.60722 0.0
H1554 H 0.28248 0.45237 0.59124 0.0
H1555 H 0.32364 0.43221 0.58201 0.0
O1556 O 0.29722 0.46338 0.54535 0.0
O1557 O 0.29989 0.47553 0.56949 0.0
O1558 O 0.27353 0.43026 0.56388 0.0
O1559 O 0.32176 0.45312 0.56054 0.0
H1560 H 0.31172 0.50194 0.53893 0.0
H1561 H 0.26147 0.43918 0.53564 0.0
H1562 H 0.2938 0.51307 0.52625 0.0
H1563 H 0.24441 0.45142 0.52302 0.0
H1564 H 0.34448 0.51156 0.59667 0.0
H1565 H 0.2847 0.49949 0.57472 0.0
H1566 H 0.33122 0.48439 0.58262 0.0
H1567 H 0.29863 0.52631 0.58898 0.0
H1568 H 0.25222 0.50384 0.55284 0.0
H1569 H 0.20519 0.43932 0.5561 0.0
H1570 H 0.38878 0.52355 0.54334 0.0
H1571 H 0.35847 0.55303 0.55859 0.0
H1572 H 0.2757 0.40291 0.57634 0.0
H1573 H 0.24655 0.41037 0.5483 0.0
H1574 H 0.25575 0.3649 0.57346 0.0
H1575 H 0.22718 0.37225 0.54589 0.0
H1576 H 0.33206 0.42442 0.55796 0.0
H1577 H 0.35315 0.48574 0.57008 0.0
H1578 H 0.36493 0.42757 0.56399 0.0
H1579 H 0.3855 0.48773 0.57601 0.0
H1580 H 0.29176 0.40901 0.51609 0.0
H1581 H 0.29798 0.37588 0.5429 0.0
H1582 H 0.28923 0.44998 0.61045 0.0
H1583 H 0.33158 0.42971 0.60093 0.0
H1584 H 0.42312 0.36015 0.17763 0.0
H1585 H 0.39387 0.35051 0.16556 0.0
H1586 H 0.35954 0.35653 0.1919 0.0
H1587 H 0.38918 0.36705 0.20384 0.0
H1588 H 0.35868 0.31659 0.16791 0.0
H1589 H 0.3433 0.38124 0.16815 0.0
H1590 H 0.36712 0.384 0.17317 0.0
H1591 H 0.34433 0.37294 0.18154 0.0
C1592 C 0.40951 0.35998 0.18072 0.0
C1593 C 0.40829 0.36433 0.19161 0.0
C1594 C 0.39283 0.35446 0.17385 0.0
C1595 C 0.37452 0.35292 0.17779 0.0
C1596 C 0.37364 0.35812 0.18859 0.0
H1597 H 0.25381 0.26339 0.15438 0.0
H1598 H 0.28523 0.28453 0.16487 0.0
C1599 C 0.39051 0.36401 0.19543 0.0
C1600 C 0.35563 0.3432 0.17103 0.0
H1601 H 0.31527 0.34816 0.16226 0.0
C1602 C 0.34937 0.32367 0.16658 0.0
C1603 C 0.3435 0.35244 0.1692 0.0
C1604 C 0.35003 0.37391 0.17318 0.0
C1605 C 0.33116 0.31292 0.16058 0.0
C1606 C 0.31841 0.3216 0.15929 0.0
C1607 C 0.3249 0.34139 0.16344 0.0
C1608 C 0.2983 0.31013 0.15367 0.0
C1609 C 0.32584 0.2924 0.15562 0.0
C1610 C 0.29475 0.31802 0.1442 0.0
C1611 C 0.27667 0.30606 0.13827 0.0
C1612 C 0.26197 0.28603 0.1417 0.0
C1613 C 0.26509 0.27864 0.15147 0.0
C1614 C 0.28301 0.29067 0.15745 0.0
H1615 H 0.33977 0.29095 0.15464 0.0
H1616 H 0.31485 0.2797 0.16096 0.0
H1617 H 0.31848 0.29029 0.14761 0.0
H1618 H 0.30633 0.33307 0.14119 0.0
H1619 H 0.27461 0.31208 0.13075 0.0
H1620 H 0.70063 0.96326 0.14336 0.0
H1621 H 0.67721 0.96925 0.15452 0.0
H1622 H 0.68941 0.02125 0.13462 0.0
H1623 H 0.71213 0.01489 0.12321 0.0
H1624 H 0.68888 0.00387 0.16618 0.0
H1625 H 0.62738 0.99279 0.13791 0.0
H1626 H 0.6451 0.98379 0.13499 0.0
H1627 H 0.65261 0.01037 0.13263 0.0
C1628 C 0.6979 0.97564 0.1412 0.0
C1629 C 0.7083 0.98865 0.13241 0.0
C1630 C 0.68459 0.97909 0.14761 0.0
C1631 C 0.68132 0.9955 0.14531 0.0
C1632 C 0.6913 0.0082 0.1364 0.0
H1633 H 0.64823 0.07498 0.17558 0.0
H1634 H 0.65671 0.05465 0.16348 0.0
C1635 C 0.70455 0.00474 0.12998 0.0
C1636 C 0.66933 0.00083 0.15282 0.0
H1637 H 0.63171 0.01364 0.1537 0.0
C1638 C 0.67608 0.00557 0.16353 0.0
C1639 C 0.65263 0.00303 0.14932 0.0
C1640 C 0.64387 0.99701 0.13811 0.0
C1641 C 0.66741 0.01364 0.17066 0.0
C1642 C 0.65141 0.0168 0.16701 0.0
C1643 C 0.64403 0.01123 0.15645 0.0
C1644 C 0.64363 0.02768 0.17374 0.0
C1645 C 0.6762 0.01979 0.18188 0.0
C1646 C 0.63288 0.01895 0.18336 0.0
C1647 C 0.62788 0.0305 0.19029 0.0
C1648 C 0.63352 0.05095 0.18769 0.0
C1649 C 0.64341 0.05921 0.17778 0.0
C1650 C 0.64836 0.04765 0.17087 0.0
H1651 H 0.69066 0.01931 0.18287 0.0
H1652 H 0.67951 0.03564 0.18382 0.0
H1653 H 0.6647 0.00902 0.1878 0.0
H1654 H 0.62886 0.00343 0.18563 0.0
H1655 H 0.61995 0.02357 0.19777 0.0
H1656 H 0.96169 0.58895 0.18953 0.0
H1657 H 0.98299 0.61912 0.17818 0.0
H1658 H 0.96455 0.65525 0.19723 0.0
H1659 H 0.94389 0.62549 0.2088 0.0
H1660 H 0.96827 0.63871 0.16595 0.0
H1661 H 0.02613 0.69472 0.19447 0.0
H1662 H 0.0106 0.66744 0.19743 0.0
H1663 H 0.00031 0.68427 0.19952 0.0
C1664 C 0.96259 0.60347 0.19146 0.0
C1665 C 0.95107 0.60483 0.20005 0.0
C1666 C 0.97469 0.62065 0.18493 0.0
C1667 C 0.97561 0.63952 0.18695 0.0
C1668 C 0.96447 0.64101 0.19566 0.0
H1669 H 0.99862 0.7491 0.15664 0.0
H1670 H 0.99178 0.72031 0.16845 0.0
C1671 C 0.95241 0.62388 0.20218 0.0
C1672 C 0.98645 0.65708 0.17939 0.0
H1673 H 0.02002 0.7092 0.17849 0.0
C1674 C 0.97993 0.65404 0.16862 0.0
C1675 C 0.00169 0.67705 0.1829 0.0
C1676 C 0.01024 0.68103 0.19419 0.0
C1677 C 0.98726 0.67069 0.16143 0.0
C1678 C 0.00165 0.69082 0.16511 0.0
C1679 C 0.00892 0.69373 0.17573 0.0
C1680 C 0.00767 0.7092 0.15835 0.0
C1681 C 0.97869 0.66683 0.15013 0.0
C1682 C 0.01927 0.71272 0.14889 0.0
C1683 C 0.02315 0.72914 0.1421 0.0
C1684 C 0.0154 0.74221 0.14467 0.0
C1685 C 0.00448 0.73907 0.15437 0.0
C1686 C 0.0007 0.72275 0.16115 0.0
H1687 H 0.96546 0.65083 0.14906 0.0
H1688 H 0.97352 0.67789 0.14809 0.0
H1689 H 0.99101 0.66925 0.14433 0.0
H1690 H 0.02494 0.70251 0.14666 0.0
H1691 H 0.03157 0.73117 0.13466 0.0
H1692 H 0.32245 0.38134 0.79693 0.0
H1693 H 0.31397 0.35288 0.80924 0.0
H1694 H 0.37509 0.38702 0.82296 0.0
H1695 H 0.38342 0.4161 0.81098 0.0
H1696 H 0.33102 0.32858 0.81245 0.0
H1697 H 0.33813 0.37434 0.84924 0.0
H1698 H 0.33795 0.38357 0.83588 0.0
H1699 H 0.36083 0.38454 0.84092 0.0
C1700 C 0.33406 0.38292 0.80263 0.0
C1701 C 0.3535 0.40115 0.80309 0.0
C1702 C 0.32926 0.36653 0.80958 0.0
C1703 C 0.34378 0.36796 0.81713 0.0
C1704 C 0.36352 0.38576 0.81733 0.0
H1705 H 0.30668 0.25599 0.85618 0.0
H1706 H 0.32788 0.28581 0.84456 0.0
C1707 C 0.36832 0.40227 0.8104 0.0
C1708 C 0.33769 0.351 0.82498 0.0
H1709 H 0.32734 0.33931 0.85165 0.0
C1710 C 0.33044 0.33092 0.82105 0.0
C1711 C 0.33686 0.35415 0.83617 0.0
C1712 C 0.34369 0.37526 0.84084 0.0
C1713 C 0.32157 0.31374 0.82794 0.0
C1714 C 0.32034 0.31685 0.83911 0.0
C1715 C 0.32842 0.33703 0.84309 0.0
C1716 C 0.30858 0.29934 0.84659 0.0
C1717 C 0.31254 0.29237 0.82315 0.0
C1718 C 0.29114 0.29745 0.85185 0.0
C1719 C 0.27923 0.28069 0.85858 0.0
C1720 C 0.28444 0.26536 0.86019 0.0
C1721 C 0.30225 0.26753 0.85512 0.0
C1722 C 0.31426 0.28444 0.84839 0.0
H1723 H 0.31127 0.29248 0.81424 0.0
H1724 H 0.32266 0.28605 0.82514 0.0
H1725 H 0.29695 0.28178 0.82655 0.0
H1726 H 0.28654 0.30884 0.85061 0.0
H1727 H 0.26591 0.27977 0.86255 0.0
H1728 H 0.71397 0.99598 0.8685 0.0
H1729 H 0.684 0.98821 0.85749 0.0
H1730 H 0.72195 0.04194 0.83795 0.0
H1731 H 0.75224 0.04951 0.84882 0.0
H1732 H 0.66361 0.00818 0.85213 0.0
H1733 H 0.70014 0.99621 0.81583 0.0
H1734 H 0.71111 -0.00041 0.82909 0.0
H1735 H 0.71418 0.02155 0.82171 0.0
C1736 C 0.71587 0.00636 0.86197 0.0
C1737 C 0.73545 0.02326 0.85945 0.0
C1738 C 0.69874 0.00188 0.85568 0.0
C1739 C 0.70082 0.01426 0.84677 0.0
C1740 C 0.72011 0.03188 0.84461 0.0
H1741 H 0.60569 0.97693 0.79669 0.0
H1742 H 0.63476 -0.0 0.80839 0.0
C1743 C 0.73736 0.03623 0.85084 0.0
C1744 C 0.68302 0.00769 0.83943 0.0
H1745 H 0.66616 0.98928 0.81405 0.0
C1746 C 0.66423 0.00431 0.84376 0.0
C1747 C 0.68387 0.00261 0.82851 0.0
C1748 C 0.70332 0.00499 0.8235 0.0
C1749 C 0.6461 0.99526 0.83758 0.0
C1750 C 0.64684 0.9895 0.82682 0.0
C1751 C 0.66578 0.99386 0.82231 0.0
C1752 C 0.62788 0.97671 0.82049 0.0
C1753 C 0.62616 0.9914 0.84265 0.0
C1754 C 0.61445 0.9561 0.82349 0.0
C1755 C 0.59807 0.94291 0.81681 0.0
C1756 C 0.59481 0.95016 0.80703 0.0
C1757 C 0.6078 0.97104 0.80423 0.0
C1758 C 0.62437 0.98418 0.81087 0.0
H1759 H 0.62902 0.00131 0.84986 0.0
H1760 H 0.61676 0.99426 0.83678 0.0
H1761 H 0.61701 0.97499 0.84521 0.0
H1762 H 0.61713 0.94999 0.83081 0.0
H1763 H 0.5882 0.92691 0.81917 0.0
H1764 H 0.02529 0.62771 0.79881 0.0
H1765 H 0.00543 0.63879 0.80984 0.0
H1766 H 0.0491 0.65475 0.83574 0.0
H1767 H 0.06891 0.64358 0.82484 0.0
H1768 H 0.98872 0.62906 0.83307 0.0
H1769 H 0.05153 0.70979 0.82495 0.0
H1770 H 0.04787 0.68811 0.81689 0.0
H1771 H 0.0597 0.6926 0.82992 0.0
C1772 C 0.03032 0.63304 0.80697 0.0
C1773 C 0.04877 0.63503 0.81094 0.0
C1774 C 0.019 0.63939 0.81323 0.0
C1775 C 0.02599 0.64777 0.82352 0.0
C1776 C 0.04361 0.64847 0.82776 0.0
H1777 H 0.98081 0.69296 0.87432 0.0
H1778 H 0.98926 0.67167 0.86284 0.0
C1779 C 0.05492 0.64217 0.82152 0.0
C1780 C 0.01635 0.65787 0.82938 0.0
H1781 H 0.0259 0.70535 0.83752 0.0
C1782 C 0.99672 0.64573 0.83402 0.0
C1783 C 0.02678 0.67962 0.83043 0.0
C1784 C 0.04757 0.69338 0.82522 0.0
C1785 C 0.98747 0.65487 0.83999 0.0
C1786 C 0.99827 0.6766 0.84137 0.0
C1787 C 0.01767 0.68868 0.83647 0.0
C1788 C 0.99022 0.68733 0.84806 0.0
C1789 C 0.96621 0.64125 0.84471 0.0
C1790 C 0.98792 0.70316 0.84356 0.0
C1791 C 0.98325 0.71542 0.85009 0.0
C1792 C 0.98086 0.71212 0.86127 0.0
C1793 C 0.98234 0.69572 0.86571 0.0
C1794 C 0.9871 0.68349 0.85916 0.0
H1795 H 0.95782 0.62608 0.84051 0.0
H1796 H 0.96772 0.6383 0.85332 0.0
H1797 H 0.95683 0.64885 0.84426 0.0
H1798 H 0.99033 0.70641 0.83501 0.0
H1799 H 0.98193 0.72777 0.84643 0.0
H1800 H 0.91165 0.59787 0.49197 0.0
H1801 H 0.94135 0.62004 0.50334 0.0
H1802 H 0.96397 0.66798 0.47927 0.0
H1803 H 0.93424 0.6457 0.46777 0.0
H1804 H 0.99232 0.65582 0.48553 0.0
H1805 H 0.95889 0.67267 0.52123 0.0
H1806 H 0.94535 0.64577 0.51762 0.0
H1807 H 0.94551 0.66441 0.50849 0.0
C1808 C 0.92278 0.61327 0.48918 0.0
C1809 C 0.92073 0.62005 0.47898 0.0
C1810 C 0.93961 0.62599 0.49573 0.0
C1811 C 0.95471 0.64574 0.4922 0.0
C1812 C 0.95235 0.65287 0.48217 0.0
H1813 H 0.07981 0.71298 0.52039 0.0
H1814 H 0.04997 0.70679 0.50951 0.0
C1815 C 0.93537 0.64018 0.47564 0.0
C1816 C 0.97405 0.65762 0.49842 0.0
H1817 H 0.99216 0.67568 0.52367 0.0
C1818 C 0.99246 0.66063 0.49379 0.0
C1819 C 0.97408 0.66377 0.50919 0.0
C1820 C 0.95493 0.66168 0.5144 0.0
C1821 C 0.01061 0.66833 0.49988 0.0
C1822 C 0.01041 0.67359 0.51083 0.0
C1823 C 0.99226 0.6716 0.51529 0.0
C1824 C 0.02814 0.67902 0.51804 0.0
C1825 C 0.02942 0.66945 0.49474 0.0
C1826 C 0.02556 0.66597 0.52671 0.0
C1827 C 0.04247 0.66955 0.53296 0.0
C1828 C 0.06232 0.68626 0.53066 0.0
C1829 C 0.06474 0.69981 0.52224 0.0
C1830 C 0.04774 0.69629 0.51603 0.0
H1831 H 0.02571 0.66098 0.48695 0.0
H1832 H 0.04118 0.68587 0.49317 0.0
H1833 H 0.03639 0.66294 0.50018 0.0
H1834 H 0.01057 0.65254 0.52839 0.0
H1835 H 0.04012 0.65869 0.5393 0.0
H1836 H 0.31744 0.40199 0.5097 0.0
H1837 H 0.326 0.38115 0.49811 0.0
H1838 H 0.29018 0.3281 0.51841 0.0
H1839 H 0.281 0.34875 0.52999 0.0
H1840 H 0.33164 0.33818 0.51463 0.0
H1841 H 0.29184 0.3342 0.47645 0.0
H1842 H 0.30636 0.35988 0.4819 0.0
H1843 H 0.2845 0.34024 0.48923 0.0
C1844 C 0.31081 0.38574 0.51156 0.0
C1845 C 0.29847 0.37706 0.52079 0.0
C1846 C 0.31577 0.37385 0.50491 0.0
C1847 C 0.30851 0.35304 0.50733 0.0
C1848 C 0.29583 0.34413 0.51638 0.0
H1849 H 0.35888 0.28013 0.4785 0.0
H1850 H 0.33649 0.28854 0.48909 0.0
C1851 C 0.29073 0.356 0.52302 0.0
C1852 C 0.31595 0.34139 0.50097 0.0
H1853 H 0.32004 0.32777 0.47523 0.0
C1854 C 0.3288 0.33548 0.50605 0.0
C1855 C 0.3122 0.33798 0.48979 0.0
C1856 C 0.29781 0.34322 0.48403 0.0
C1857 C 0.33908 0.32743 0.50013 0.0
C1858 C 0.33604 0.32484 0.48886 0.0
C1859 C 0.32239 0.32983 0.48386 0.0
C1860 C 0.34828 0.31879 0.48199 0.0
C1861 C 0.35404 0.32291 0.50588 0.0
C1862 C 0.36177 0.3327 0.47425 0.0
C1863 C 0.37434 0.32785 0.46811 0.0
C1864 C 0.3737 0.30897 0.46959 0.0
C1865 C 0.35972 0.29478 0.47715 0.0
C1866 C 0.34706 0.29963 0.48327 0.0
H1867 H 0.35768 0.32965 0.51412 0.0
H1868 H 0.34711 0.30593 0.50661 0.0
H1869 H 0.36871 0.3291 0.50128 0.0
H1870 H 0.36285 0.34752 0.47309 0.0
H1871 H 0.3846 0.33894 0.4622 0.0
H1872 H 0.70616 0.08221 0.47801 0.0
H1873 H 0.69905 0.05227 0.48907 0.0
H1874 H 0.64026 0.01582 0.47321 0.0
H1875 H 0.64743 0.04537 0.462 0.0
H1876 H 0.66601 0.03204 0.50318 0.0
H1877 H 0.66368 0.97731 0.47249 0.0
H1878 H 0.67533 0.00469 0.46995 0.0
H1879 H 0.64776 0.98784 0.46889 0.0
C1880 C 0.69191 0.06768 0.47675 0.0
C1881 C 0.67732 0.06613 0.46916 0.0
C1882 C 0.68785 0.05064 0.48309 0.0
C1883 C 0.66929 0.03176 0.48183 0.0
C1884 C 0.65488 0.03011 0.47415 0.0
H1885 H 0.58706 0.92011 0.51231 0.0
H1886 H 0.60767 0.94981 0.50064 0.0
C1887 C 0.65888 0.0471 0.46785 0.0
C1888 C 0.66395 0.01419 0.48913 0.0
H1889 H 0.64563 0.96225 0.48917 0.0
C1890 C 0.66199 0.01686 0.50018 0.0
C1891 C 0.65878 0.99445 0.48517 0.0
C1892 C 0.66169 0.99093 0.47348 0.0
C1893 C 0.65365 -0.0 0.50727 0.0
C1894 C 0.6474 0.98005 0.50319 0.0
C1895 C 0.65037 0.97757 0.49224 0.0
C1896 C 0.63577 0.96137 0.50991 0.0
C1897 C 0.65041 0.00342 0.51893 0.0
C1898 C 0.64492 0.95783 0.51886 0.0
C1899 C 0.63312 0.94091 0.52559 0.0
C1900 C 0.61202 0.92731 0.52347 0.0
C1901 C 0.60318 0.93053 0.51427 0.0
C1902 C 0.61496 0.94738 0.50755 0.0
H1903 H 0.65313 0.01922 0.5204 0.0
H1904 H 0.63444 0.99197 0.52154 0.0
H1905 H 0.66129 0.00128 0.52402 0.0
H1906 H 0.66105 0.96835 0.52072 0.0
H1907 H 0.64034 0.93883 0.53264 0.0
H1908 H 0.06074 0.18883 0.09702 0.0
H1909 H 0.0231 0.17106 0.09804 0.0
H1910 H 0.02635 0.17793 0.13258 0.0
H1911 H 0.06416 0.19645 0.13165 0.0
H1912 H 0.00284 0.13565 0.12369 0.0
H1913 H 0.97977 0.18896 0.10622 0.0
H1914 H -0.00057 0.18688 0.09896 0.0
H1915 H 0.00485 0.19796 0.11223 0.0
C1916 C 0.05357 0.18728 0.10481 0.0
C1917 C 0.06554 0.19404 0.11426 0.0
C1918 C 0.03201 0.17704 0.10537 0.0
C1919 C 0.02201 0.17332 0.11537 0.0
C1920 C 0.03384 0.18077 0.12478 0.0
H1921 H 0.89329 0.07717 0.12809 0.0
H1922 H 0.92817 0.10643 0.13096 0.0
C1923 C 0.05542 0.1912 0.12423 0.0
C1924 C -0.00064 0.15936 0.11604 0.0
H1925 H 0.95337 0.15359 0.1079 0.0
C1926 C 0.99193 0.13962 0.12041 0.0
C1927 C 0.98534 0.16463 0.11165 0.0
C1928 C 0.99265 0.18581 0.10706 0.0
C1929 C 0.97085 0.12457 0.12004 0.0
C1930 C 0.95674 0.12968 0.11548 0.0
C1931 C 0.96416 0.14971 0.11143 0.0
C1932 C 0.93456 0.11394 0.11404 0.0
C1933 C 0.96414 0.10303 0.12396 0.0
C1934 C 0.92609 0.10927 0.10366 0.0
C1935 C 0.90597 0.09291 0.10201 0.0
C1936 C 0.89392 0.08072 0.11071 0.0
C1937 C 0.90206 0.08618 0.12119 0.0
C1938 C 0.92213 0.10275 0.12284 0.0
H1939 H 0.97741 0.10044 0.12467 0.0
H1940 H 0.95699 0.10078 0.13205 0.0
H1941 H 0.95257 0.09114 0.11845 0.0
H1942 H 0.93531 0.11784 0.09675 0.0
H1943 H 0.90002 0.08956 0.09386 0.0
H1944 H 0.82772 0.90131 0.0968 0.0
H1945 H 0.8466 0.88306 0.09904 0.0
H1946 H 0.83015 0.87393 0.13273 0.0
H1947 H 0.81129 0.89242 0.13055 0.0
H1948 H 0.87081 0.89035 0.12989 0.0
H1949 H 0.82992 0.82327 0.10259 0.0
H1950 H 0.83703 0.84699 0.09577 0.0
H1951 H 0.81889 0.83868 0.1068 0.0
C1952 C 0.8276 0.89491 0.10462 0.0
C1953 C 0.81794 0.89824 0.11349 0.0
C1954 C 0.83839 0.88443 0.10589 0.0
C1955 C 0.83952 0.87683 0.11602 0.0
C1956 C 0.82937 0.87957 0.12483 0.0
H1957 H 0.90825 0.81097 0.12112 0.0
H1958 H 0.88043 0.81895 0.12247 0.0
C1959 C 0.81866 0.89018 0.12358 0.0
C1960 C 0.85311 0.86803 0.11757 0.0
H1961 H 0.86527 0.83352 0.10692 0.0
C1962 C 0.86938 0.87768 0.125 0.0
C1963 C 0.85109 0.8513 0.11131 0.0
C1964 C 0.83314 0.83933 0.10376 0.0
C1965 C 0.88431 0.87181 0.12591 0.0
C1966 C 0.88319 0.85619 0.11905 0.0
C1967 C 0.86629 0.84573 0.11206 0.0
C1968 C 0.90001 0.85135 0.11856 0.0
C1969 C 0.90127 0.88258 0.13415 0.0
C1970 C 0.92014 0.86685 0.11578 0.0
C1971 C 0.936 0.86236 0.11501 0.0
C1972 C 0.93201 0.8422 0.1169 0.0
C1973 C 0.91177 0.82662 0.11958 0.0
C1974 C 0.8959 0.83117 0.12039 0.0
H1975 H 0.89631 0.88885 0.1409 0.0
H1976 H 0.90605 0.87195 0.13748 0.0
H1977 H 0.91491 0.89577 0.13026 0.0
H1978 H 0.92353 0.8824 0.11403 0.0
H1979 H 0.9513 0.87458 0.11269 0.0
H1980 H 0.16407 0.10707 0.13363 0.0
H1981 H 0.15982 0.07271 0.13579 0.0
H1982 H 0.15852 0.06562 0.10126 0.0
H1983 H 0.16377 0.10017 0.09903 0.0
H1984 H 0.12719 0.03717 0.12959 0.0
H1985 H 0.19612 0.04454 0.10927 0.0
H1986 H 0.19422 0.06678 0.11303 0.0
H1987 H 0.18295 0.05316 0.10063 0.0
C1988 C 0.16341 0.0984 0.1265 0.0
C1989 C 0.16415 0.10635 0.11615 0.0
C1990 C 0.16088 0.07873 0.12775 0.0
C1991 C 0.15918 0.06669 0.11869 0.0
C1992 C 0.16032 0.07477 0.10837 0.0
H1993 H 0.10179 0.94301 0.09962 0.0
H1994 H 0.12069 0.98042 0.10195 0.0
C1995 C 0.16296 0.09443 0.10711 0.0
C1996 C 0.15406 0.04494 0.11992 0.0
H1997 H 0.16623 0.00972 0.11028 0.0
C1998 C 0.13602 0.03126 0.1256 0.0
C1999 C 0.16562 0.03722 0.11474 0.0
C2000 C 0.18592 0.05128 0.10918 0.0
C2001 C 0.12851 0.00991 0.12564 0.0
C2002 C 0.13935 0.00211 0.11987 0.0
C2003 C 0.15793 0.01582 0.11464 0.0
C2004 C 0.13033 0.97966 0.11823 0.0
C2005 C 0.10842 0.99565 0.13133 0.0
C2006 C 0.12997 0.96693 0.12656 0.0
C2007 C 0.11938 0.94544 0.12522 0.0
C2008 C 0.10888 0.93636 0.11554 0.0
C2009 C 0.10997 0.94936 0.10711 0.0
C2010 C 0.12066 0.97078 0.10843 0.0
H2011 H 0.1013 0.00411 0.13498 0.0
H2012 H 0.09726 0.98397 0.12558 0.0
H2013 H 0.11121 0.9872 0.1378 0.0
H2014 H 0.13745 0.9736 0.13417 0.0
H2015 H 0.11912 0.93593 0.13183 0.0
H2016 H 0.06172 0.8997 0.87706 0.0
H2017 H 0.09005 0.93547 0.87568 0.0
H2018 H 0.11047 0.93165 0.90756 0.0
H2019 H 0.08274 0.89557 0.90883 0.0
H2020 H 0.09454 0.96651 0.88862 0.0
H2021 H 0.16477 0.96006 0.8912 0.0
H2022 H 0.13947 0.93809 0.88845 0.0
H2023 H 0.14685 0.94731 0.90203 0.0
C2024 C 0.07256 0.90625 0.88367 0.0
C2025 C 0.06991 0.89473 0.89306 0.0
C2026 C 0.08867 0.92676 0.88289 0.0
C2027 C 0.10252 0.93618 0.89147 0.0
C2028 C 0.10024 0.92461 0.90076 0.0
H2029 H 0.17844 0.06458 0.90877 0.0
H2030 H 0.15871 0.02672 0.9086 0.0
C2031 C 0.08417 0.90405 0.90153 0.0
C2032 C 0.11808 0.95859 0.89108 0.0
H2033 H 0.16966 0.99397 0.89356 0.0
C2034 C 0.11097 0.97247 0.8896 0.0
C2035 C 0.13953 0.96636 0.89237 0.0
C2036 C 0.14816 0.95218 0.8935 0.0
C2037 C 0.12466 0.99389 0.88958 0.0
C2038 C 0.14598 0.00162 0.8911 0.0
C2039 C 0.15323 0.98787 0.89245 0.0
C2040 C 0.16073 0.02411 0.89136 0.0
C2041 C 0.11632 0.00825 0.88807 0.0
C2042 C 0.16877 0.03499 0.88173 0.0
C2043 C 0.18013 0.0566 0.88179 0.0
C2044 C 0.18355 0.06764 0.89149 0.0
C2045 C 0.17633 0.05657 0.90119 0.0
C2046 C 0.16499 0.03496 0.90111 0.0
H2047 H 0.09925 -0.00024 0.8871 0.0
H2048 H 0.12049 0.01878 0.89512 0.0
H2049 H 0.1235 0.018 0.88084 0.0
H2050 H 0.16554 0.02679 0.87412 0.0
H2051 H 0.18566 0.06469 0.8742 0.0
H2052 H 0.10612 0.15959 0.86636 0.0
H2053 H 0.07095 0.15188 0.86256 0.0
H2054 H 0.06624 0.17105 0.89473 0.0
H2055 H 0.1016 0.17949 0.89846 0.0
H2056 H 0.03761 0.12245 0.87355 0.0
H2057 H 0.04021 0.19728 0.87707 0.0
H2058 H 0.06323 0.19557 0.87543 0.0
H2059 H 0.05135 0.19194 0.88848 0.0
C2060 C 0.09782 0.16274 0.87252 0.0
C2061 C 0.10661 0.17005 0.88273 0.0
C2062 C 0.0777 0.15824 0.87035 0.0
C2063 C 0.06605 0.1611 0.87831 0.0
C2064 C 0.07506 0.16912 0.88838 0.0
H2065 H 0.93914 0.11431 0.89363 0.0
H2066 H 0.9769 0.13427 0.8923 0.0
C2067 C 0.09518 0.17365 0.89055 0.0
C2068 C 0.04376 0.15332 0.87661 0.0
H2069 H 0.00657 0.16664 0.87842 0.0
C2070 C 0.03086 0.13218 0.87442 0.0
C2071 C 0.035 0.16603 0.87784 0.0
C2072 C 0.0482 0.18901 0.87973 0.0
C2073 C 0.00934 0.1232 0.87387 0.0
C2074 C 0.00051 0.1358 0.87534 0.0
C2075 C 0.01342 0.15705 0.87728 0.0
C2076 C 0.97782 0.12676 0.87554 0.0
C2077 C 0.99617 0.10011 0.87219 0.0
C2078 C 0.96588 0.11669 0.86643 0.0
C2079 C 0.94433 0.10525 0.86717 0.0
C2080 C 0.93438 0.10386 0.87702 0.0
C2081 C 0.94635 0.11519 0.88592 0.0
C2082 C 0.96792 0.12655 0.88518 0.0
H2083 H 0.00506 0.09215 0.87347 0.0
H2084 H 0.98269 0.09333 0.87775 0.0
H2085 H 0.99024 0.09696 0.86381 0.0
H2086 H 0.97326 0.117 0.85886 0.0
H2087 H 0.93547 0.09694 0.86014 0.0
H2088 H 0.90467 0.83163 0.87318 0.0
H2089 H 0.8844 0.8485 0.87099 0.0
H2090 H 0.84589 0.81398 0.89789 0.0
H2091 H 0.86627 0.79707 0.90019 0.0
H2092 H 0.84258 0.83436 0.86757 0.0
H2093 H 0.86918 0.87395 0.90722 0.0
H2094 H 0.88064 0.86045 0.90093 0.0
H2095 H 0.85605 0.84621 0.90762 0.0
C2096 C 0.89164 0.82731 0.87851 0.0
C2097 C 0.88715 0.81311 0.88691 0.0
C2098 C 0.88011 0.83702 0.87727 0.0
C2099 C 0.86387 0.83275 0.88439 0.0
C2100 C 0.85865 0.81782 0.89245 0.0
H2101 H 0.80295 0.90517 0.89185 0.0
H2102 H 0.80884 0.87597 0.89253 0.0
C2103 C 0.87028 0.80817 0.89375 0.0
C2104 C 0.85339 0.84493 0.88369 0.0
H2105 H 0.84757 0.88149 0.89705 0.0
C2106 C 0.84348 0.84453 0.87405 0.0
C2107 C 0.85463 0.85819 0.89216 0.0
C2108 C 0.86582 0.85994 0.90254 0.0
C2109 C 0.83509 0.85734 0.87257 0.0
C2110 C 0.83691 0.87104 0.88091 0.0
C2111 C 0.84614 0.87089 0.89069 0.0
C2112 C 0.83097 0.88691 0.87943 0.0
C2113 C 0.82454 0.85626 0.86207 0.0
C2114 C 0.84127 0.90257 0.87175 0.0
C2115 C 0.83793 0.91924 0.87134 0.0
C2116 C 0.82429 0.92059 0.87863 0.0
C2117 C 0.81337 0.90445 0.88604 0.0
C2118 C 0.81679 0.88781 0.88647 0.0
H2119 H 0.8189 0.84114 0.85798 0.0
H2120 H 0.81128 0.8587 0.86335 0.0
H2121 H 0.83577 0.86857 0.85662 0.0
H2122 H 0.85258 0.90239 0.86638 0.0
H2123 H 0.84645 0.93136 0.8655 0.0
H2124 H 0.72305 0.50149 0.42971 0.0
H2125 H 0.68535 0.4814 0.43031 0.0
H2126 H 0.68695 0.48384 0.46502 0.0
H2127 H 0.72478 0.50412 0.4645 0.0
H2128 H 0.66419 0.44433 0.45698 0.0
H2129 H 0.6405 0.49504 0.43721 0.0
H2130 H 0.65903 0.492 0.42946 0.0
H2131 H 0.66627 0.50466 0.44237 0.0
C2132 C 0.71541 0.4983 0.43747 0.0
C2133 C 0.72695 0.50441 0.44706 0.0
C2134 C 0.69382 0.4868 0.4378 0.0
C2135 C 0.68333 0.48133 0.4477 0.0
C2136 C 0.69475 0.48798 0.45729 0.0
H2137 H 0.5535 0.38846 0.46067 0.0
H2138 H 0.58886 0.41748 0.46291 0.0
C2139 C 0.71636 0.49947 0.45698 0.0
C2140 C 0.66067 0.46686 0.44803 0.0
H2141 H 0.61471 0.45899 0.43833 0.0
C2142 C 0.65331 0.44765 0.45306 0.0
C2143 C 0.64655 0.47122 0.44287 0.0
C2144 C 0.65345 0.49193 0.43776 0.0
C2145 C 0.63232 0.43231 0.45266 0.0
C2146 C 0.61828 0.43646 0.44725 0.0
C2147 C 0.62553 0.45587 0.44247 0.0
C2148 C 0.59625 0.42034 0.44591 0.0
C2149 C 0.62553 0.41147 0.45762 0.0
C2150 C 0.58848 0.41289 0.43558 0.0
C2151 C 0.56826 0.39647 0.43426 0.0
C2152 C 0.55539 0.38721 0.44326 0.0
C2153 C 0.56298 0.39528 0.45357 0.0
C2154 C 0.58323 0.41173 0.45488 0.0
H2155 H 0.63885 0.40942 0.45946 0.0
H2156 H 0.61719 0.41 0.46526 0.0
H2157 H 0.61483 0.39879 0.45216 0.0
H2158 H 0.59826 0.41942 0.42855 0.0
H2159 H 0.56276 0.39089 0.42619 0.0
H2160 H 0.46511 0.20031 0.46431 0.0
H2161 H 0.48545 0.18319 0.4659 0.0
H2162 H 0.49716 0.18978 0.4317 0.0
H2163 H 0.47722 0.20706 0.43004 0.0
H2164 H 0.48775 0.1502 0.44063 0.0
H2165 H 0.54946 0.21813 0.46285 0.0
H2166 H 0.52366 0.20631 0.46825 0.0
H2167 H 0.5294 0.21934 0.45551 0.0
C2168 C 0.47188 0.19795 0.45712 0.0
C2169 C 0.46957 0.2051 0.44705 0.0
C2170 C 0.48346 0.18816 0.45804 0.0
C2171 C 0.49296 0.18545 0.44893 0.0
C2172 C 0.48987 0.19168 0.43882 0.0
H2173 H 0.583 0.15772 0.42719 0.0
H2174 H 0.55288 0.16146 0.42998 0.0
C2175 C 0.47835 0.20146 0.43789 0.0
C2176 C 0.50737 0.17756 0.44991 0.0
H2177 H 0.556 0.19167 0.45835 0.0
C2178 C 0.50257 0.15909 0.44462 0.0
C2179 C 0.52665 0.1892 0.45515 0.0
C2180 C 0.53278 0.20942 0.46072 0.0
C2181 C 0.51681 0.15222 0.4442 0.0
C2182 C 0.53649 0.16439 0.44899 0.0
C2183 C 0.54091 0.18236 0.45468 0.0
C2184 C 0.55342 0.15992 0.44738 0.0
C2185 C 0.51072 0.13211 0.43853 0.0
C2186 C 0.56394 0.15807 0.45624 0.0
C2187 C 0.58142 0.15625 0.45467 0.0
C2188 C 0.58879 0.15645 0.4442 0.0
C2189 C 0.57787 0.15776 0.43536 0.0
C2190 C 0.56045 0.15959 0.43693 0.0
H2191 H 0.49369 0.12155 0.43866 0.0
H2192 H 0.51566 0.13533 0.42998 0.0
H2193 H 0.51818 0.12412 0.44226 0.0
H2194 H 0.5589 0.15851 0.46437 0.0
H2195 H 0.5896 0.15548 0.46165 0.0
H2196 H 0.82059 0.42963 0.46379 0.0
H2197 H 0.81347 0.39409 0.4638 0.0
H2198 H 0.84582 0.40481 0.43356 0.0
H2199 H 0.85206 0.44003 0.43319 0.0
H2200 H 0.80871 0.37078 0.43284 0.0
H2201 H 0.84821 0.36853 0.46988 0.0
H2202 H 0.83078 0.37778 0.47249 0.0
H2203 H 0.85296 0.39249 0.46395 0.0
C2204 C 0.82626 0.42447 0.45715 0.0
C2205 C 0.83683 0.43771 0.44847 0.0
C2206 C 0.82246 0.40422 0.45726 0.0
C2207 C 0.82942 0.39688 0.44878 0.0
C2208 C 0.84048 0.41021 0.44025 0.0
H2209 H 0.79789 0.26988 0.4335 0.0
H2210 H 0.81703 0.30772 0.43468 0.0
C2211 C 0.84415 0.43041 0.44009 0.0
C2212 C 0.82335 0.37475 0.44826 0.0
H2213 H 0.82224 0.33555 0.46271 0.0
C2214 C 0.812 0.36316 0.43929 0.0
C2215 C 0.82762 0.36481 0.45669 0.0
C2216 C 0.84075 0.37661 0.46624 0.0
C2217 C 0.80406 0.34178 0.43871 0.0
C2218 C 0.80771 0.33176 0.4473 0.0
C2219 C 0.81949 0.34335 0.45615 0.0
C2220 C 0.79809 0.30902 0.44748 0.0
C2221 C 0.79109 0.32989 0.42912 0.0
C2222 C 0.78157 0.29733 0.45451 0.0
C2223 C 0.77052 0.27578 0.45381 0.0
C2224 C 0.77587 0.26552 0.44608 0.0
C2225 C 0.79316 0.27731 0.43942 0.0
C2226 C 0.80416 0.29889 0.44011 0.0
H2227 H 0.78723 0.33949 0.42394 0.0
H2228 H 0.7997 0.3244 0.42417 0.0
H2229 H 0.77647 0.31609 0.43182 0.0
H2230 H 0.77664 0.30493 0.46022 0.0
H2231 H 0.75714 0.26727 0.45896 0.0
H2232 H 0.71773 0.24953 0.22379 0.0
H2233 H 0.74751 0.28422 0.22152 0.0
H2234 H 0.78334 0.25849 0.20905 0.0
H2235 H 0.75353 0.22344 0.21146 0.0
H2236 H 0.78798 0.29863 0.23148 0.0
H2237 H 0.79008 0.30397 0.18667 0.0
H2238 H 0.767 0.28575 0.19388 0.0
H2239 H 0.7883 0.28139 0.1928 0.0
C2240 C 0.73195 0.25118 0.22062 0.0
C2241 C 0.73333 0.23371 0.21791 0.0
C2242 C 0.74891 0.27102 0.21927 0.0
C2243 C 0.76755 0.27387 0.21511 0.0
C2244 C 0.76898 0.25656 0.21218 0.0
H2245 H 0.87553 0.39967 0.22144 0.0
H2246 H 0.85596 0.3618 0.22011 0.0
C2247 C 0.75195 0.23659 0.21355 0.0
C2248 C 0.78551 0.2951 0.21425 0.0
H2249 H 0.81328 0.33393 0.1963 0.0
C2250 C 0.79382 0.30631 0.2238 0.0
C2251 C 0.7929 0.30495 0.20421 0.0
C2252 C 0.78414 0.29354 0.19376 0.0
C2253 C 0.80876 0.32742 0.22358 0.0
C2254 C 0.81574 0.33749 0.21354 0.0
C2255 C 0.808 0.32608 0.20397 0.0
C2256 C 0.82903 0.36025 0.21288 0.0
C2257 C 0.81605 0.33906 0.23411 0.0
C2258 C 0.82067 0.37187 0.20887 0.0
C2259 C 0.83173 0.39339 0.20962 0.0
C2260 C 0.85147 0.40376 0.21437 0.0
C2261 C 0.86027 0.39212 0.21786 0.0
C2262 C 0.84915 0.37052 0.2171 0.0
H2263 H 0.80667 0.32966 0.24106 0.0
H2264 H 0.83236 0.34343 0.23551 0.0
H2265 H 0.81537 0.35349 0.23383 0.0
H2266 H 0.80511 0.36421 0.20563 0.0
H2267 H 0.82431 0.40179 0.20701 0.0
H2268 H 0.77278 0.51349 0.20868 0.0
H2269 H 0.73864 0.51021 0.20757 0.0
H2270 H 0.72694 0.49081 0.24078 0.0
H2271 H 0.76115 0.49475 0.24206 0.0
H2272 H 0.70189 0.47465 0.21028 0.0
H2273 H 0.70788 0.53234 0.24004 0.0
H2274 H 0.73031 0.53228 0.23478 0.0
H2275 H 0.71563 0.51539 0.24571 0.0
C2276 C 0.7631 0.50898 0.21581 0.0
C2277 C 0.76964 0.50429 0.22544 0.0
C2278 C 0.74358 0.50703 0.21515 0.0
C2279 C 0.73037 0.50058 0.22413 0.0
C2280 C 0.73703 0.49628 0.23381 0.0
H2281 H 0.60517 0.44242 0.24147 0.0
H2282 H 0.64273 0.46075 0.23995 0.0
C2283 C 0.7565 0.49823 0.23448 0.0
C2284 C 0.70889 0.49639 0.22322 0.0
H2285 H 0.67322 0.50458 0.23593 0.0
C2286 C 0.6957 0.48153 0.21571 0.0
C2287 C 0.70086 0.50543 0.23031 0.0
C2288 C 0.71449 0.52241 0.23808 0.0
C2289 C 0.67445 0.47449 0.21557 0.0
C2290 C 0.66626 0.4827 0.22306 0.0
C2291 C 0.67957 0.49827 0.23022 0.0
C2292 C 0.64369 0.47377 0.2243 0.0
C2293 C 0.6607 0.45747 0.20783 0.0
C2294 C 0.63184 0.4755 0.21611 0.0
C2295 C 0.61027 0.46516 0.21699 0.0
C2296 C 0.60023 0.45292 0.22608 0.0
C2297 C 0.61232 0.45194 0.23444 0.0
C2298 C 0.63382 0.46232 0.23356 0.0
H2299 H 0.66908 0.45083 0.20359 0.0
H2300 H 0.64727 0.44484 0.21217 0.0
H2301 H 0.65464 0.46372 0.2017 0.0
H2302 H 0.63925 0.48449 0.20896 0.0
H2303 H 0.60145 0.46649 0.21049 0.0
H2304 H 0.47778 0.25731 0.23725 0.0
H2305 H 0.48348 0.22807 0.23656 0.0
H2306 H 0.5221 0.2541 0.20847 0.0
H2307 H 0.51556 0.28282 0.20872 0.0
H2308 H 0.49685 0.21192 0.20692 0.0
H2309 H 0.53742 0.23367 0.24637 0.0
H2310 H 0.51139 0.22872 0.24674 0.0
H2311 H 0.53082 0.2504 0.23924 0.0
C2312 C 0.48716 0.25665 0.23079 0.0
C2313 C 0.49639 0.27259 0.2231 0.0
C2314 C 0.49061 0.24003 0.23049 0.0
C2315 C 0.50358 0.23915 0.22261 0.0
C2316 C 0.51217 0.25457 0.21469 0.0
H2317 H 0.5732 0.18211 0.20873 0.0
H2318 H 0.55285 0.19921 0.20822 0.0
C2319 C 0.50859 0.2711 0.21491 0.0
C2320 C 0.50902 0.22274 0.22283 0.0
H2321 H 0.5342 0.20424 0.23777 0.0
C2322 C 0.50487 0.21012 0.2137 0.0
C2323 C 0.51947 0.2204 0.23169 0.0
C2324 C 0.52523 0.23411 0.24153 0.0
C2325 C 0.51128 0.19553 0.21311 0.0
C2326 C 0.5222 0.19363 0.22184 0.0
C2327 C 0.52567 0.20566 0.23112 0.0
C2328 C 0.53219 0.18101 0.22113 0.0
C2329 C 0.5066 0.18246 0.20309 0.0
C2330 C 0.52722 0.16502 0.22852 0.0
C2331 C 0.53884 0.1552 0.22881 0.0
C2332 C 0.55581 0.16154 0.22186 0.0
C2333 C 0.56025 0.17702 0.21422 0.0
C2334 C 0.54853 0.18666 0.21385 0.0
H2335 H 0.49334 0.18143 0.19858 0.0
H2336 H 0.52032 0.18959 0.19771 0.0
H2337 H 0.50308 0.1666 0.20511 0.0
H2338 H 0.51478 0.16061 0.23427 0.0
H2339 H 0.53523 0.14342 0.23483 0.0
H2340 H 0.24483 0.70301 0.77033 0.0
H2341 H 0.28053 0.73164 0.77112 0.0
H2342 H 0.25948 0.77255 0.78189 0.0
H2343 H 0.22357 0.74387 0.78117 0.0
H2344 H 0.28988 0.78951 0.76564 0.0
H2345 H 0.31351 0.75686 0.79883 0.0
H2346 H 0.30166 0.73912 0.78783 0.0
H2347 H 0.28675 0.74734 0.79554 0.0
C2348 C 0.24778 0.71804 0.77298 0.0
C2349 C 0.23138 0.72112 0.77581 0.0
C2350 C 0.26819 0.73438 0.77342 0.0
C2351 C 0.27264 0.7541 0.77675 0.0
C2352 C 0.25634 0.7574 0.77935 0.0
H2353 H 0.4012 0.84448 0.79179 0.0
H2354 H 0.36338 0.82467 0.7928 0.0
C2355 C 0.23586 0.74103 0.7789 0.0
C2356 C 0.29439 0.77119 0.77743 0.0
H2357 H 0.34079 0.78418 0.7887 0.0
C2358 C 0.301 0.78852 0.77077 0.0
C2359 C 0.30875 0.77003 0.78429 0.0
C2360 C 0.30229 0.75244 0.79211 0.0
C2361 C 0.32188 0.80427 0.77042 0.0
C2362 C 0.33648 0.80241 0.77675 0.0
C2363 C 0.32964 0.78554 0.78378 0.0
C2364 C 0.35905 0.81697 0.77583 0.0
C2365 C 0.32809 0.82268 0.76323 0.0
C2366 C 0.36916 0.81952 0.76592 0.0
C2367 C 0.39073 0.83087 0.76532 0.0
C2368 C 0.4026 0.83967 0.77465 0.0
C2369 C 0.39244 0.83775 0.78449 0.0
C2370 C 0.37086 0.8265 0.78507 0.0
H2371 H 0.31494 0.82524 0.76186 0.0
H2372 H 0.34118 0.83698 0.76672 0.0
H2373 H 0.33298 0.81981 0.75528 0.0
H2374 H 0.36043 0.81187 0.75874 0.0
H2375 H 0.39812 0.83179 0.75767 0.0
H2376 H 0.2927 0.53527 0.77348 0.0
H2377 H 0.26241 0.53921 0.77462 0.0
H2378 H 0.2234 0.4736 0.77977 0.0
H2379 H 0.25378 0.46949 0.77863 0.0
H2380 H 0.22779 0.52018 0.76111 0.0
H2381 H 0.20636 0.49962 0.80414 0.0
H2382 H 0.23141 0.50617 0.79885 0.0
H2383 H 0.20925 0.48125 0.7961 0.0
C2384 C 0.27768 0.52166 0.77486 0.0
C2385 C 0.27561 0.50206 0.77592 0.0
C2386 C 0.26041 0.52395 0.77554 0.0
C2387 C 0.2407 0.50672 0.77734 0.0
C2388 C 0.23853 0.48713 0.77855 0.0
H2389 H 0.13429 0.52335 0.76591 0.0
H2390 H 0.15545 0.50698 0.76609 0.0
C2391 C 0.25588 0.48482 0.7779 0.0
C2392 C 0.22252 0.50948 0.7775 0.0
H2393 H 0.18562 0.50863 0.79402 0.0
C2394 C 0.21839 0.51745 0.76826 0.0
C2395 C 0.21041 0.50595 0.78687 0.0
C2396 C 0.21457 0.49791 0.7971 0.0
C2397 C 0.20293 0.52268 0.76822 0.0
C2398 C 0.19099 0.51946 0.77764 0.0
C2399 C 0.19469 0.51089 0.78679 0.0
C2400 C 0.17627 0.52705 0.77847 0.0
C2401 C 0.20025 0.53262 0.75828 0.0
C2402 C 0.18042 0.54309 0.7857 0.0
C2403 C 0.16837 0.55238 0.78564 0.0
C2404 C 0.15187 0.54578 0.77836 0.0
C2405 C 0.14708 0.52897 0.7715 0.0
C2406 C 0.15913 0.51961 0.7716 0.0
H2407 H 0.21331 0.53761 0.75252 0.0
H2408 H 0.18581 0.52132 0.75409 0.0
H2409 H 0.19897 0.54628 0.76047 0.0
H2410 H 0.1936 0.54909 0.79105 0.0
H2411 H 0.17268 0.56545 0.79093 0.0
H2412 H 0.50234 0.76688 0.79245 0.0
H2413 H 0.49639 0.73192 0.7946 0.0
H2414 H 0.51897 0.73404 0.76235 0.0
H2415 H 0.52589 0.76931 0.76031 0.0
H2416 H 0.46944 0.69945 0.78283 0.0
H2417 H 0.54693 0.70835 0.77833 0.0
H2418 H 0.54335 0.73006 0.78079 0.0
H2419 H 0.54084 0.71983 0.76737 0.0
C2420 C 0.50663 0.76017 0.78593 0.0
C2421 C 0.51453 0.7709 0.77619 0.0
C2422 C 0.50309 0.74011 0.78715 0.0
C2423 C 0.50744 0.73042 0.77869 0.0
C2424 C 0.51591 0.74133 0.76908 0.0
H2425 H 0.45563 0.60454 0.75967 0.0
H2426 H 0.4737 0.64225 0.761 0.0
C2427 C 0.51955 0.7614 0.76787 0.0
C2428 C 0.50104 0.70824 0.77945 0.0
H2429 H 0.51778 0.67392 0.77578 0.0
C2430 C 0.4801 0.69392 0.78146 0.0
C2431 C 0.51496 0.70101 0.77765 0.0
C2432 C 0.53781 0.71565 0.77602 0.0
C2433 C 0.47257 0.67259 0.78135 0.0
C2434 C 0.4863 0.6654 0.77914 0.0
C2435 C 0.50733 0.6796 0.77741 0.0
C2436 C 0.47859 0.64305 0.77818 0.0
C2437 C 0.44985 0.65774 0.78329 0.0
C2438 C 0.47591 0.63119 0.78739 0.0
C2439 C 0.46571 0.60963 0.78666 0.0
C2440 C 0.45799 0.59962 0.77671 0.0
C2441 C 0.46166 0.61172 0.76742 0.0
C2442 C 0.47188 0.63326 0.76817 0.0
H2443 H 0.44119 0.66584 0.78495 0.0
H2444 H 0.44297 0.64764 0.77612 0.0
H2445 H 0.44785 0.64761 0.79023 0.0
H2446 H 0.48097 0.63857 0.79519 0.0
H2447 H 0.4633 0.60075 0.79393 0.0
H2448 H 0.50782 0.7249 0.56668 0.0
H2449 H 0.48804 0.68741 0.56484 0.0
H2450 H 0.50159 0.69286 0.53082 0.0
H2451 H 0.52153 0.73063 0.5326 0.0
H2452 H 0.46065 0.66915 0.53495 0.0
H2453 H 0.50286 0.64312 0.56071 0.0
H2454 H 0.49752 0.6608 0.56775 0.0
H2455 H 0.51427 0.66951 0.55613 0.0
C2456 C 0.50717 0.71815 0.55886 0.0
C2457 C 0.51637 0.73074 0.54979 0.0
C2458 C 0.49585 0.69667 0.55782 0.0
C2459 C 0.49363 0.68729 0.54773 0.0
C2460 C 0.50325 0.69978 0.5387 0.0
H2461 H 0.40182 0.55672 0.53328 0.0
H2462 H 0.43245 0.59135 0.53132 0.0
C2463 C 0.51456 0.72133 0.53972 0.0
C2464 C 0.47937 0.66472 0.54651 0.0
H2465 H 0.46664 0.61819 0.55764 0.0
C2466 C 0.46219 0.65792 0.53971 0.0
C2467 C 0.48143 0.6501 0.55272 0.0
C2468 C 0.50015 0.65625 0.55965 0.0
C2469 C 0.44634 0.63711 0.5395 0.0
C2470 C 0.44787 0.62274 0.54618 0.0
C2471 C 0.46551 0.62931 0.55257 0.0
C2472 C 0.43041 0.60132 0.54742 0.0
C2473 C 0.42753 0.63083 0.53261 0.0
C2474 C 0.4195 0.5954 0.55719 0.0
C2475 C 0.40212 0.57574 0.55833 0.0
C2476 C 0.39536 0.56156 0.54973 0.0
C2477 C 0.4067 0.56731 0.54004 0.0
C2478 C 0.42409 0.58708 0.53889 0.0
H2479 H 0.42752 0.64438 0.52904 0.0
H2480 H 0.42715 0.62075 0.52595 0.0
H2481 H 0.41319 0.62186 0.53744 0.0
H2482 H 0.4242 0.60619 0.56387 0.0
H2483 H 0.39392 0.57164 0.56595 0.0
H2484 H 0.26503 0.75394 0.53646 0.0
H2485 H 0.30285 0.77461 0.53702 0.0
H2486 H 0.2999 0.79666 0.56871 0.0
H2487 H 0.26208 0.77579 0.5683 0.0
H2488 H 0.33299 0.81962 0.54195 0.0
H2489 H 0.33089 0.76305 0.5716 0.0
H2490 H 0.30901 0.75738 0.56323 0.0
H2491 H 0.31531 0.7744 0.57459 0.0
C2492 C 0.27244 0.76341 0.54349 0.0
C2493 C 0.26061 0.76306 0.55239 0.0
C2494 C 0.29401 0.7753 0.54376 0.0
C2495 C 0.30408 0.78694 0.55294 0.0
C2496 C 0.29234 0.78766 0.56157 0.0
H2497 H 0.43134 0.83376 0.57252 0.0
H2498 H 0.39569 0.82647 0.57176 0.0
C2499 C 0.27075 0.77582 0.5613 0.0
C2500 C 0.32674 0.79648 0.55392 0.0
H2501 H 0.3635 0.79009 0.56637 0.0
C2502 C 0.33975 0.81332 0.54733 0.0
C2503 C 0.3354 0.78814 0.56094 0.0
C2504 C 0.32201 0.76966 0.56797 0.0
C2505 C 0.36134 0.82211 0.54761 0.0
C2506 C 0.36997 0.81343 0.55446 0.0
C2507 C 0.35689 0.79678 0.56115 0.0
C2508 C 0.39239 0.82062 0.55459 0.0
C2509 C 0.37465 0.84067 0.54065 0.0
C2510 C 0.4025 0.82003 0.54516 0.0
C2511 C 0.42292 0.82433 0.54557 0.0
C2512 C 0.43345 0.82892 0.55545 0.0
C2513 C 0.42351 0.83006 0.56482 0.0
C2514 C 0.40319 0.82598 0.56438 0.0
H2515 H 0.36666 0.84932 0.53873 0.0
H2516 H 0.38958 0.85137 0.54463 0.0
H2517 H 0.37796 0.8354 0.53294 0.0
H2518 H 0.39433 0.81539 0.53756 0.0
H2519 H 0.43015 0.82311 0.53825 0.0
H2520 H 0.22652 0.49956 0.53966 0.0
H2521 H 0.20286 0.51284 0.53892 0.0
H2522 H 0.1659 0.47087 0.5642 0.0
H2523 H 0.19003 0.458 0.56528 0.0
H2524 H 0.16029 0.49511 0.53557 0.0
H2525 H 0.18335 0.52774 0.57694 0.0
H2526 H 0.1972 0.51786 0.56951 0.0
H2527 H 0.17274 0.50033 0.57566 0.0
C2528 C 0.21334 0.49312 0.54506 0.0
C2529 C 0.21038 0.47802 0.55268 0.0
C2530 C 0.19973 0.50059 0.54456 0.0
C2531 C 0.18285 0.49311 0.55164 0.0
C2532 C 0.17906 0.4771 0.5588 0.0
H2533 H 0.11608 0.55876 0.56434 0.0
H2534 H 0.12281 0.53009 0.5635 0.0
C2535 C 0.19275 0.46964 0.55933 0.0
C2536 C 0.17039 0.50333 0.55199 0.0
H2537 H 0.16134 0.53559 0.56749 0.0
C2538 C 0.16025 0.50373 0.54259 0.0
C2539 C 0.17036 0.51456 0.56117 0.0
C2540 C 0.1816 0.51531 0.57138 0.0
C2541 C 0.15065 0.5156 0.54202 0.0
C2542 C 0.15147 0.52757 0.55103 0.0
C2543 C 0.1607 0.52635 0.5606 0.0
C2544 C 0.14493 0.54314 0.55045 0.0
C2545 C 0.14003 0.51552 0.53172 0.0
C2546 C 0.15497 0.55985 0.54332 0.0
C2547 C 0.15131 0.5763 0.54383 0.0
C2548 C 0.13761 0.57644 0.55155 0.0
C2549 C 0.12692 0.55925 0.55839 0.0
C2550 C 0.13063 0.5428 0.55788 0.0
H2551 H 0.13481 0.50099 0.52709 0.0
H2552 H 0.12648 0.51733 0.53335 0.0
H2553 H 0.1511 0.5286 0.52659 0.0
H2554 H 0.16648 0.5607 0.53771 0.0
H2555 H 0.1601 0.58943 0.53858 0.0
H2556 H 0.1686 0.19955 0.04232 0.0
H2557 H 0.17615 0.19765 0.02338 0.0
H2558 H 0.23853 0.24822 0.02787 0.0
H2559 H 0.23079 0.25106 0.04673 0.0
H2560 H 0.22253 0.25203 0.0093 0.0
H2561 H 0.20918 0.17263 0.01235 0.0
H2562 H 0.18708 0.17401 0.01665 0.0
H2563 H 0.21093 0.18777 0.02405 0.0
C2564 C 0.18384 0.21055 0.03927 0.0
C2565 C 0.19912 0.2254 0.04611 0.0
C2566 C 0.18822 0.20919 0.02846 0.0
C2567 C 0.20806 0.22241 0.02428 0.0
C2568 C 0.22318 0.23768 0.03096 0.0
H2569 H 0.24412 0.19564 0.96183 0.0
H2570 H 0.24289 0.20247 0.98107 0.0
C2571 C 0.21877 0.23918 0.04177 0.0
C2572 C 0.21293 0.22036 0.01292 0.0
H2573 H 0.21087 0.18544 0.99453 0.0
C2574 C 0.22017 0.23753 0.00609 0.0
C2575 C 0.21032 0.20157 0.00879 0.0
C2576 C 0.20417 0.18303 0.01587 0.0
C2577 C 0.22407 0.2362 0.99514 0.0
C2578 C 0.22011 0.21701 0.99085 0.0
C2579 C 0.21365 0.20007 0.99778 0.0
C2580 C 0.22178 0.21391 0.97917 0.0
C2581 C 0.23254 0.2554 0.9883 0.0
C2582 C 0.21021 0.21789 0.97173 0.0
C2583 C 0.21101 0.21414 0.96077 0.0
C2584 C 0.22314 0.20602 0.95704 0.0
C2585 C 0.2346 0.20186 0.96449 0.0
C2586 C 0.23395 0.20581 0.97546 0.0
H2587 H 0.24112 0.26964 0.99326 0.0
H2588 H 0.24303 0.25559 0.98191 0.0
H2589 H 0.21951 0.25587 0.9844 0.0
H2590 H 0.20018 0.22348 0.97442 0.0
H2591 H 0.20167 0.21709 0.95525 0.0
H2592 H 0.77844 0.01878 0.95098 0.0
H2593 H 0.7724 0.01166 0.9703 0.0
H2594 H 0.82389 0.00146 0.97181 0.0
H2595 H 0.82972 0.00792 0.9525 0.0
H2596 H 0.76555 0.97312 0.98117 0.0
H2597 H 0.83409 0.04547 0.99592 0.0
H2598 H 0.82334 0.04326 0.98266 0.0
H2599 H 0.83888 0.03189 0.98539 0.0
C2600 C 0.78843 0.01492 0.9554 0.0
C2601 C 0.80462 0.014 0.95017 0.0
C2602 C 0.785 0.01096 0.96644 0.0
C2603 C 0.79782 0.00624 0.97245 0.0
C2604 C 0.81403 0.00539 0.96731 0.0
H2605 H 0.81025 0.98084 0.0386 0.0
H2606 H 0.81322 0.98669 0.0192 0.0
C2607 C 0.8174 0.00921 0.95628 0.0
C2608 C 0.79402 0.00164 0.98406 0.0
H2609 H 0.8152 0.01941 0.00884 0.0
C2610 C 0.77629 0.98326 0.98726 0.0
C2611 C 0.80814 0.01491 0.99191 0.0
C2612 C 0.82713 0.03509 0.98886 0.0
C2613 C 0.77258 0.97748 0.99815 0.0
C2614 C 0.78679 0.99072 0.00602 0.0
C2615 C 0.80437 0.00925 0.00279 0.0
C2616 C 0.78399 0.9856 0.01764 0.0
C2617 C 0.75389 0.95697 0.00107 0.0
C2618 C 0.76646 0.98287 0.0232 0.0
C2619 C 0.76454 0.97917 0.0343 0.0
C2620 C 0.78023 0.97838 0.04006 0.0
C2621 C 0.79767 0.98093 0.03441 0.0
C2622 C 0.79951 0.9845 0.02333 0.0
H2623 H 0.74789 0.94637 0.99403 0.0
H2624 H 0.75756 0.94926 0.0076 0.0
H2625 H 0.7414 0.95958 0.00398 0.0
H2626 H 0.75448 0.98405 0.01902 0.0
H2627 H 0.75084 0.97712 0.03837 0.0
H2628 H 0.00485 0.77501 0.957 0.0
H2629 H 0.01075 0.77586 0.97637 0.0
H2630 H 0.94703 0.75741 0.98239 0.0
H2631 H 0.94102 0.75664 0.96297 0.0
H2632 H 0.97334 0.79136 0.9937 0.0
H2633 H 0.99496 0.73156 0.99897 0.0
H2634 H 0.01007 0.75 0.98875 0.0
H2635 H 0.98264 0.73343 0.98691 0.0
C2636 C 0.99195 0.77062 0.96243 0.0
C2637 C 0.97245 0.76573 0.95846 0.0
C2638 C 0.99534 0.77107 0.97351 0.0
C2639 C 0.97926 0.76641 0.98083 0.0
C2640 C 0.95963 0.76097 0.97688 0.0
H2641 H 0.99022 0.76307 0.05088 0.0
H2642 H 0.98072 0.75324 0.032 0.0
C2643 C 0.95624 0.76062 0.96579 0.0
C2644 C 0.98348 0.76922 0.99255 0.0
H2645 H 0.00406 0.75609 0.01342 0.0
C2646 C 0.97984 0.78346 0.99803 0.0
C2647 C 0.99176 0.75876 0.99823 0.0
C2648 C 0.99489 0.74243 0.99294 0.0
C2649 C 0.98489 0.78805 0.00894 0.0
C2650 C 0.99424 0.77847 0.01445 0.0
C2651 C 0.99719 0.76365 0.00911 0.0
C2652 C 0.00124 0.78392 0.02574 0.0
C2653 C 0.98015 0.80313 0.01446 0.0
C2654 C 0.01641 0.80424 0.02841 0.0
C2655 C 0.02186 0.80988 0.03915 0.0
C2656 C 0.01237 0.79525 0.04741 0.0
C2657 C 0.99789 0.77465 0.04468 0.0
C2658 C 0.99238 0.76903 0.03391 0.0
H2659 H 0.96808 0.80462 0.01009 0.0
H2660 H 0.97485 0.7983 0.02287 0.0
H2661 H 0.99437 0.81862 0.01469 0.0
H2662 H 0.02377 0.81584 0.02219 0.0
H2663 H 0.03334 0.82577 0.041 0.0
H2664 H 0.88179 0.5024 0.29777 0.0
H2665 H 0.87981 0.51063 0.31668 0.0
H2666 H 0.88961 0.57027 0.30736 0.0
H2667 H 0.89195 0.56225 0.28845 0.0
H2668 H 0.91131 0.57271 0.32545 0.0
H2669 H 0.82967 0.50973 0.32949 0.0
H2670 H 0.84653 0.50063 0.32522 0.0
H2671 H 0.84261 0.5176 0.31663 0.0
C2672 C 0.88359 0.51729 0.29977 0.0
C2673 C 0.88689 0.53164 0.29164 0.0
C2674 C 0.88238 0.52194 0.31056 0.0
C2675 C 0.88409 0.54087 0.31339 0.0
C2676 C 0.88815 0.55553 0.30534 0.0
H2677 H 0.83977 0.55929 0.3749 0.0
H2678 H 0.84608 0.55742 0.35568 0.0
C2679 C 0.88955 0.55096 0.29455 0.0
C2680 C 0.8812 0.5452 0.32473 0.0
H2681 H 0.84697 0.52654 0.34567 0.0
C2682 C 0.89721 0.56269 0.32987 0.0
C2683 C 0.86263 0.53235 0.33041 0.0
C2684 C 0.84429 0.51416 0.32513 0.0
C2685 C 0.89534 0.56739 0.34063 0.0
C2686 C 0.87715 0.55396 0.34646 0.0
C2687 C 0.86099 0.53674 0.34123 0.0
C2688 C 0.87453 0.55718 0.35802 0.0
C2689 C 0.91274 0.58683 0.34558 0.0
C2690 C 0.88849 0.55784 0.36573 0.0
C2691 C 0.885 0.55908 0.3767 0.0
C2692 C 0.86729 0.55934 0.38017 0.0
C2693 C 0.85349 0.559 0.37245 0.0
C2694 C 0.8571 0.55797 0.36148 0.0
H2695 H 0.92216 0.5984 0.33932 0.0
H2696 H 0.90677 0.59399 0.3513 0.0
H2697 H 0.92309 0.58295 0.35004 0.0
H2698 H 0.90173 0.55667 0.36329 0.0
H2699 H 0.8957 0.55895 0.38248 0.0
H2700 H 0.48131 0.3821 0.29683 0.0
H2701 H 0.47203 0.37081 0.31552 0.0
H2702 H 0.4143 0.3187 0.30489 0.0
H2703 H 0.42338 0.33012 0.28617 0.0
H2704 H 0.41048 0.33628 0.32407 0.0
H2705 H 0.47541 0.32107 0.32591 0.0
H2706 H 0.4834 0.34726 0.32238 0.0
H2707 H 0.46682 0.32648 0.31344 0.0
C2708 C 0.46654 0.36838 0.2985 0.0
C2709 C 0.45316 0.35686 0.29006 0.0
C2710 C 0.46128 0.36193 0.30916 0.0
C2711 C 0.4427 0.34366 0.31155 0.0
C2712 C 0.42876 0.33278 0.3032 0.0
H2713 H 0.42791 0.27502 0.37018 0.0
H2714 H 0.42806 0.28484 0.35139 0.0
C2715 C 0.43393 0.33935 0.29253 0.0
C2716 C 0.43853 0.33522 0.32262 0.0
H2717 H 0.45817 0.31866 0.34234 0.0
C2718 C 0.42083 0.33233 0.32807 0.0
C2719 C 0.45182 0.32967 0.32773 0.0
C2720 C 0.47031 0.33106 0.32204 0.0
C2721 C 0.41637 0.32451 0.33863 0.0
C2722 C 0.43019 0.31985 0.34389 0.0
C2723 C 0.44763 0.32235 0.33833 0.0
C2724 C 0.42724 0.31259 0.35521 0.0
C2725 C 0.39676 0.32104 0.34396 0.0
C2726 C 0.4264 0.32474 0.3636 0.0
C2727 C 0.42612 0.31904 0.37434 0.0
C2728 C 0.42704 0.30128 0.37686 0.0
C2729 C 0.42732 0.28885 0.36845 0.0
C2730 C 0.42737 0.29443 0.35773 0.0
H2731 H 0.38505 0.31914 0.33791 0.0
H2732 H 0.38993 0.30716 0.3492 0.0
H2733 H 0.40034 0.33468 0.34901 0.0
H2734 H 0.42685 0.33909 0.36188 0.0
H2735 H 0.4262 0.32905 0.38067 0.0
H2736 H 0.64908 0.09843 0.3791 0.0
H2737 H 0.64097 0.08907 0.36009 0.0
H2738 H 0.69983 0.14139 0.35097 0.0
H2739 H 0.70823 0.15061 0.36995 0.0
H2740 H 0.63876 0.11496 0.34434 0.0
H2741 H 0.69698 0.09325 0.33343 0.0
H2742 H 0.68988 0.0945 0.34722 0.0
H2743 H 0.70761 0.11778 0.34017 0.0
C2744 C 0.66047 0.10768 0.37306 0.0
C2745 C 0.67932 0.12524 0.37602 0.0
C2746 C 0.65576 0.10238 0.36221 0.0
C2747 C 0.66991 0.11439 0.35415 0.0
C2748 C 0.68886 0.13171 0.35708 0.0
H2749 H 0.67667 0.13059 0.28615 0.0
H2750 H 0.68203 0.13023 0.30551 0.0
C2751 C 0.69354 0.13708 0.36791 0.0
C2752 C 0.66431 0.10975 0.34265 0.0
H2753 H 0.68024 0.09953 0.31884 0.0
C2754 C 0.64762 0.11129 0.33877 0.0
C2755 C 0.67594 0.105 0.33544 0.0
C2756 C 0.69349 0.10234 0.33927 0.0
C2757 C 0.6428 0.10914 0.32776 0.0
C2758 C 0.65478 0.10492 0.32049 0.0
C2759 C 0.6711 0.10277 0.32443 0.0
C2760 C 0.65154 0.1041 0.3087 0.0
C2761 C 0.62558 0.11235 0.32393 0.0
C2762 C 0.63272 0.08928 0.30406 0.0
C2763 C 0.6296 0.08944 0.29296 0.0
C2764 C 0.64535 0.10428 0.28633 0.0
C2765 C 0.66434 0.11876 0.29101 0.0
C2766 C 0.6674 0.11864 0.30207 0.0
H2767 H 0.62094 0.11986 0.33018 0.0
H2768 H 0.63025 0.12202 0.31655 0.0
H2769 H 0.61184 0.09714 0.32196 0.0
H2770 H 0.62043 0.07768 0.30902 0.0
H2771 H 0.6149 0.07794 0.28957 0.0
H2772 H 0.55198 0.84093 0.62671 0.0
H2773 H 0.55117 0.85084 0.64541 0.0
H2774 H 0.56695 0.91194 0.63509 0.0
H2775 H 0.56771 0.90211 0.61631 0.0
H2776 H 0.58816 0.91108 0.65405 0.0
H2777 H 0.50329 0.85801 0.6567 0.0
H2778 H 0.51718 0.84565 0.65225 0.0
H2779 H 0.51706 0.86525 0.64403 0.0
C2780 C 0.55534 0.8565 0.62842 0.0
C2781 C 0.55969 0.87067 0.62004 0.0
C2782 C 0.55487 0.86213 0.6391 0.0
C2783 C 0.5586 0.88198 0.64158 0.0
C2784 C 0.56392 0.89651 0.6333 0.0
H2785 H 0.52037 0.9055 0.70397 0.0
H2786 H 0.52664 0.90552 0.68459 0.0
C2787 C 0.56445 0.89089 0.6226 0.0
C2788 C 0.55616 0.88719 0.65278 0.0
H2789 H 0.52095 0.87223 0.67321 0.0
C2790 C 0.57345 0.90274 0.65824 0.0
C2791 C 0.53684 0.87657 0.65812 0.0
C2792 C 0.51747 0.86058 0.65246 0.0
C2793 C 0.57211 0.90734 0.66908 0.0
C2794 C 0.55305 0.89587 0.6746 0.0
C2795 C 0.53559 0.88092 0.66899 0.0
C2796 C 0.55095 0.89826 0.68631 0.0
C2797 C 0.59109 0.92442 0.67453 0.0
C2798 C 0.5626 0.89428 0.69369 0.0
C2799 C 0.55904 0.89424 0.70474 0.0
C2800 C 0.5436 0.89798 0.70862 0.0
C2801 C 0.53225 0.90241 0.70122 0.0
C2802 C 0.53588 0.90252 0.69016 0.0
H2803 H 0.60207 0.93572 0.66858 0.0
H2804 H 0.58694 0.93279 0.68049 0.0
H2805 H 0.59918 0.91763 0.67882 0.0
H2806 H 0.57389 0.89039 0.6909 0.0
H2807 H 0.56777 0.89038 0.71021 0.0
H2808 H 0.1007 0.67807 0.6229 0.0
H2809 H 0.09483 0.67134 0.64227 0.0
H2810 H 0.14964 0.66666 0.64435 0.0
H2811 H 0.15555 0.67323 0.62506 0.0
H2812 H 0.08873 0.63647 0.65339 0.0
H2813 H 0.15806 0.70703 0.66861 0.0
H2814 H 0.14902 0.7047 0.65494 0.0
H2815 H 0.16408 0.69326 0.65879 0.0
C2816 C 0.11152 0.67566 0.62749 0.0
C2817 C 0.12868 0.67633 0.62245 0.0
C2818 C 0.10818 0.67189 0.63855 0.0
C2819 C 0.12198 0.66884 0.64476 0.0
C2820 C 0.13909 0.6695 0.63976 0.0
H2821 H 0.13269 0.63302 0.7087 0.0
H2822 H 0.13524 0.64171 0.6896 0.0
C2823 C 0.14246 0.67328 0.62873 0.0
C2824 C 0.11808 0.664 0.65639 0.0
H2825 H 0.14025 0.67943 0.68119 0.0
C2826 C 0.09985 0.64597 0.6595 0.0
C2827 C 0.13262 0.67646 0.66432 0.0
C2828 C 0.15195 0.69655 0.66152 0.0
C2829 C 0.09616 0.63964 0.67031 0.0
C2830 C 0.111 0.6518 0.67818 0.0
C2831 C 0.12897 0.67008 0.67511 0.0
C2832 C 0.10856 0.64554 0.68963 0.0
C2833 C 0.07682 0.61963 0.67319 0.0
C2834 C 0.09266 0.64477 0.69595 0.0
C2835 C 0.09107 0.63968 0.70688 0.0
C2836 C 0.10539 0.6353 0.71165 0.0
C2837 C 0.12118 0.63593 0.70524 0.0
C2838 C 0.12278 0.64106 0.69434 0.0
H2839 H 0.06905 0.61009 0.66595 0.0
H2840 H 0.08044 0.61041 0.67879 0.0
H2841 H 0.06579 0.62312 0.67731 0.0
H2842 H 0.0817 0.64845 0.69248 0.0
H2843 H 0.0787 0.63926 0.7116 0.0
H2844 H 0.28636 0.42499 0.62505 0.0
H2845 H 0.29722 0.42896 0.64392 0.0
H2846 H 0.36116 0.46169 0.6339 0.0
H2847 H 0.35038 0.45733 0.61506 0.0
H2848 H 0.3549 0.43519 0.64995 0.0
H2849 H 0.31948 0.48223 0.66056 0.0
H2850 H 0.30119 0.45723 0.65529 0.0
H2851 H 0.32181 0.47573 0.64683 0.0
C2852 C 0.30271 0.43296 0.6269 0.0
C2853 C 0.31753 0.44092 0.6186 0.0
C2854 C 0.30891 0.4353 0.63767 0.0
C2855 C 0.33001 0.44601 0.64033 0.0
C2856 C 0.3448 0.45343 0.63204 0.0
H2857 H 0.37685 0.5001 0.70305 0.0
H2858 H 0.36952 0.49396 0.68385 0.0
C2859 C 0.33862 0.45088 0.62128 0.0
C2860 C 0.33677 0.44989 0.65173 0.0
H2861 H 0.33265 0.47181 0.67503 0.0
C2862 C 0.3501 0.44325 0.65544 0.0
C2863 C 0.33081 0.46076 0.65882 0.0
C2864 C 0.31771 0.46959 0.65516 0.0
C2865 C 0.35742 0.44696 0.66608 0.0
C2866 C 0.35079 0.45711 0.67328 0.0
C2867 C 0.33763 0.46391 0.66953 0.0
C2868 C 0.35725 0.46095 0.68474 0.0
C2869 C 0.37255 0.44039 0.66941 0.0
C2870 C 0.3531 0.44448 0.69162 0.0
C2871 C 0.3577 0.44801 0.70259 0.0
C2872 C 0.36619 0.46803 0.70696 0.0
C2873 C 0.37067 0.48454 0.69998 0.0
C2874 C 0.36628 0.48102 0.689 0.0
H2875 H 0.38087 0.43896 0.66234 0.0
H2876 H 0.38412 0.45155 0.6752 0.0
H2877 H 0.364 0.42503 0.67334 0.0
H2878 H 0.34575 0.42879 0.68857 0.0
H2879 H 0.35428 0.43495 0.70767 0.0
loop_
_geom_bond_atom_site_label_1
_geom_bond_atom_site_label_2
_geom_bond_distance
_geom_bond_site_symmetry_2
_ccdc_geom_bond_type
Li0 N17 1.990 . S
Li0 O60 1.956 . S
Li0 O61 1.970 . S
Li0 O62 1.961 . S
Li1 N25 1.990 . S
Li1 O60 1.970 . S
Li1 O61 1.956 . S
Li1 O63 1.961 . S
Li2 N47 1.990 . S
Li2 O60 1.961 . S
Li2 O62 1.956 . S
Li2 O63 1.970 . S
Li3 N53 1.990 . S
Li3 O61 1.961 . S
Li3 O62 1.970 . S
Li3 O63 1.956 . S
C4 C6 1.348 . S
C4 C7 1.356 . S
C4 O60 1.325 . S
N5 C8 1.314 . S
N5 C9 1.279 . S
C6 C4 1.348 . S
C6 C8 1.353 . S
C6 H64 0.929 . S
C7 C4 1.356 . S
C7 C9 1.358 . S
C7 H65 0.930 . S
C8 N5 1.314 . S
C8 C6 1.353 . S
C8 H66 0.930 . S
C9 N5 1.279 . S
C9 C7 1.358 . S
C9 H67 0.930 . S
C10 C13 1.348 . S
C10 C14 1.356 . S
C10 O61 1.325 . S
C11 N12 1.279 . S
C11 C14 1.358 . S
C11 H68 0.930 . S
N12 C11 1.279 . S
N12 C15 1.314 . S
C13 C10 1.348 . S
C13 C15 1.353 . S
C13 H69 0.929 . S
C14 C10 1.356 . S
C14 C11 1.358 . S
C14 H70 0.930 . S
C15 N12 1.314 . S
C15 C13 1.353 . S
C15 H71 0.930 . S
C16 N17 1.314 . S
C16 C21 1.353 . S
C16 H22 0.930 . S
N17 Li0 1.990 . S
N17 C16 1.314 . S
N17 C19 1.279 . S
C18 C19 1.358 . S
C18 C20 1.356 . S
C18 H72 0.930 . S
C19 N17 1.279 . S
C19 C18 1.358 . S
C19 H23 0.930 . S
C20 C18 1.356 . S
C20 C21 1.348 . S
C21 C16 1.353 . S
C21 C20 1.348 . S
C21 H73 0.929 . S
H22 C16 0.930 . S
H23 C19 0.930 . S
C24 N25 1.314 . S
C24 C26 1.353 . S
C24 H30 0.930 . S
N25 Li1 1.990 . S
N25 C24 1.314 . S
N25 C28 1.279 . S
C26 C24 1.353 . S
C26 C29 1.348 . S
C26 H74 0.929 . S
C27 C28 1.358 . S
C27 C29 1.356 . S
C27 H75 0.930 . S
C28 N25 1.279 . S
C28 C27 1.358 . S
C28 H31 0.930 . S
C29 C26 1.348 . S
C29 C27 1.356 . S
H30 C24 0.930 . S
H31 C28 0.930 . S
C32 C34 1.348 . S
C32 C35 1.356 . S
C32 O62 1.325 . S
N33 C36 1.314 . S
N33 C37 1.279 . S
C34 C32 1.348 . S
C34 C36 1.353 . S
C34 H76 0.929 . S
C35 C32 1.356 . S
C35 C37 1.358 . S
C35 H77 0.930 . S
C36 N33 1.314 . S
C36 C34 1.353 . S
C36 H78 0.930 . S
C37 N33 1.279 . S
C37 C35 1.358 . S
C37 H79 0.930 . S
C38 C39 1.348 . S
C38 C40 1.356 . S
C38 O63 1.325 . S
C39 C38 1.348 . S
C39 C41 1.353 . S
C39 H80 0.929 . S
C40 C38 1.356 . S
C40 C42 1.358 . S
C40 H81 0.930 . S
C41 C39 1.353 . S
C41 N43 1.314 . S
C41 H82 0.930 . S
C42 C40 1.358 . S
C42 N43 1.279 . S
C42 H83 0.930 . S
N43 C41 1.314 . S
N43 C42 1.279 . S
C44 C46 1.353 . S
C44 N47 1.314 . S
C44 H50 0.930 . S
C45 N47 1.279 . S
C45 C48 1.358 . S
C45 H51 0.930 . S
C46 C44 1.353 . S
C46 C49 1.348 . S
C46 H84 0.929 . S
N47 Li2 1.990 . S
N47 C44 1.314 . S
N47 C45 1.279 . S
C48 C45 1.358 . S
C48 C49 1.356 . S
C48 H85 0.930 . S
C49 C46 1.348 . S
C49 C48 1.356 . S
H50 C44 0.930 . S
H51 C45 0.930 . S
C52 N53 1.314 . S
C52 C54 1.353 . S
C52 H58 0.930 . S
N53 Li3 1.990 . S
N53 C52 1.314 . S
N53 C56 1.279 . S
C54 C52 1.353 . S
C54 C57 1.348 . S
C54 H86 0.929 . S
C55 C56 1.358 . S
C55 C57 1.356 . S
C55 H87 0.930 . S
C56 N53 1.279 . S
C56 C55 1.358 . S
C56 H59 0.930 . S
C57 C54 1.348 . S
C57 C55 1.356 . S
H58 C52 0.930 . S
H59 C56 0.930 . S
O60 Li0 1.956 . S
O60 Li1 1.970 . S
O60 Li2 1.961 . S
O60 C4 1.325 . S
O61 Li0 1.970 . S
O61 Li1 1.956 . S
O61 Li3 1.961 . S
O61 C10 1.325 . S
O62 Li0 1.961 . S
O62 Li2 1.956 . S
O62 Li3 1.970 . S
O62 C32 1.325 . S
O63 Li1 1.961 . S
O63 Li2 1.970 . S
O63 Li3 1.956 . S
O63 C38 1.325 . S
H64 C6 0.929 . S
H65 C7 0.930 . S
H66 C8 0.930 . S
H67 C9 0.930 . S
H68 C11 0.930 . S
H69 C13 0.929 . S
H70 C14 0.930 . S
H71 C15 0.930 . S
H72 C18 0.930 . S
H73 C21 0.929 . S
H74 C26 0.929 . S
H75 C27 0.930 . S
H76 C34 0.929 . S
H77 C35 0.930 . S
H78 C36 0.930 . S
H79 C37 0.930 . S
H80 C39 0.929 . S
H81 C40 0.930 . S
H82 C41 0.930 . S
H83 C42 0.930 . S
H84 C46 0.929 . S
H85 C48 0.930 . S
H86 C54 0.929 . S
H87 C55 0.930 . S
Li88 N105 1.990 . S
Li88 O148 1.956 1_545 S
Li88 O149 1.970 . S
Li88 O150 1.961 . S
Li89 N113 1.990 . S
Li89 O148 1.970 . S
Li89 O149 1.956 1_565 S
Li89 O151 1.961 . S
Li90 N135 1.991 . S
Li90 O148 1.966 . S
Li90 O150 1.949 1_565 S
Li90 O151 1.974 . S
Li91 N141 1.990 . S
Li91 O149 1.961 . S
Li91 O150 1.970 . S
Li91 O151 1.956 1_545 S
C92 C94 1.348 . S
C92 C95 1.356 1_565 S
C92 O148 1.325 . S
N93 C96 1.314 . S
N93 C97 1.279 1_565 S
C94 C92 1.348 . S
C94 C96 1.353 . S
C94 H152 0.929 . S
C95 C92 1.356 1_545 S
C95 C97 1.358 . S
C95 H153 0.930 . S
C96 N93 1.314 . S
C96 C94 1.353 . S
C96 H154 0.930 . S
C97 N93 1.279 1_545 S
C97 C95 1.358 . S
C97 H155 0.930 . S
C98 C101 1.348 . S
C98 C102 1.356 1_545 S
C98 O149 1.325 . S
C99 N100 1.279 1_565 S
C99 C102 1.358 . S
C99 H156 0.930 . S
N100 C99 1.279 1_545 S
N100 C103 1.314 . S
C101 C98 1.348 . S
C101 C103 1.353 . S
C101 H157 0.929 . S
C102 C98 1.356 1_565 S
C102 C99 1.358 . S
C102 H158 0.930 . S
C103 N100 1.314 . S
C103 C101 1.353 . S
C103 H159 0.930 . S
C104 N105 1.314 . S
C104 C109 1.353 . S
C104 H110 0.930 . S
N105 Li88 1.990 . S
N105 C104 1.314 . S
N105 C107 1.279 . S
C106 C107 1.358 . S
C106 C108 1.356 . S
C106 H160 0.930 . S
C107 N105 1.279 . S
C107 C106 1.358 . S
C107 H111 0.930 . S
C108 C106 1.356 . S
C108 C109 1.348 . S
C109 C104 1.353 . S
C109 C108 1.348 . S
C109 H161 0.929 . S
H110 C104 0.930 . S
H111 C107 0.930 . S
C112 N113 1.314 . S
C112 C114 1.353 . S
C112 H118 0.930 . S
N113 Li89 1.990 . S
N113 C112 1.314 . S
N113 C116 1.279 . S
C114 C112 1.353 . S
C114 C117 1.348 . S
C114 H162 0.929 . S
C115 C116 1.358 . S
C115 C117 1.356 . S
C115 H163 0.930 . S
C116 N113 1.279 . S
C116 C115 1.358 . S
C116 H119 0.930 . S
C117 C114 1.348 . S
C117 C115 1.356 . S
H118 C112 0.930 . S
H119 C116 0.930 . S
C120 C122 1.348 . S
C120 C123 1.356 . S
C120 O150 1.325 . S
N121 C124 1.314 . S
N121 C125 1.279 . S
C122 C120 1.348 . S
C122 C124 1.353 . S
C122 H164 0.929 . S
C123 C120 1.356 . S
C123 C125 1.358 . S
C123 H165 0.930 . S
C124 N121 1.314 . S
C124 C122 1.353 . S
C124 H166 0.930 . S
C125 N121 1.279 . S
C125 C123 1.358 . S
C125 H167 0.930 . S
C126 C127 1.348 . S
C126 C128 1.356 . S
C126 O151 1.325 . S
C127 C126 1.348 . S
C127 C129 1.353 . S
C127 H168 0.929 . S
C128 C126 1.356 . S
C128 C130 1.358 . S
C128 H169 0.930 . S
C129 C127 1.353 . S
C129 N131 1.314 . S
C129 H170 0.930 . S
C130 C128 1.358 . S
C130 N131 1.279 . S
C130 H171 0.930 . S
N131 C129 1.314 . S
N131 C130 1.279 . S
C132 C134 1.353 . S
C132 N135 1.324 . S
C132 H138 0.930 . S
C133 N135 1.268 1_545 S
C133 C136 1.358 . S
C133 H139 0.930 . S
C134 C132 1.353 . S
C134 C137 1.348 . S
C134 H172 0.929 . S
N135 Li90 1.991 . S
N135 C132 1.324 . S
N135 C133 1.268 1_565 S
C136 C133 1.358 . S
C136 C137 1.356 1_545 S
C136 H173 0.930 . S
C137 C134 1.348 . S
C137 C136 1.356 1_565 S
H138 C132 0.930 . S
H139 C133 0.930 . S
C140 N141 1.314 . S
C140 C142 1.353 . S
C140 H146 0.930 . S
N141 Li91 1.990 . S
N141 C140 1.314 . S
N141 C144 1.279 1_545 S
C142 C140 1.353 . S
C142 C145 1.348 . S
C142 H174 0.929 . S
C143 C144 1.370 . S
C143 C145 1.343 1_565 S
C143 H175 0.931 . S
C144 N141 1.279 1_565 S
C144 C143 1.370 . S
C144 H147 0.930 . S
C145 C142 1.348 . S
C145 C143 1.343 1_545 S
H146 C140 0.930 . S
H147 C144 0.930 . S
O148 Li88 1.956 1_565 S
O148 Li89 1.970 . S
O148 Li90 1.966 . S
O148 C92 1.325 . S
O149 Li88 1.970 . S
O149 Li89 1.956 1_545 S
O149 Li91 1.961 . S
O149 C98 1.325 . S
O150 Li88 1.961 . S
O150 Li90 1.949 1_545 S
O150 Li91 1.970 . S
O150 C120 1.325 . S
O151 Li89 1.961 . S
O151 Li90 1.974 . S
O151 Li91 1.956 1_565 S
O151 C126 1.325 . S
H152 C94 0.929 . S
H153 C95 0.930 . S
H154 C96 0.930 . S
H155 C97 0.930 . S
H156 C99 0.930 . S
H157 C101 0.929 . S
H158 C102 0.930 . S
H159 C103 0.930 . S
H160 C106 0.930 . S
H161 C109 0.929 . S
H162 C114 0.929 . S
H163 C115 0.930 . S
H164 C122 0.929 . S
H165 C123 0.930 . S
H166 C124 0.930 . S
H167 C125 0.930 . S
H168 C127 0.929 . S
H169 C128 0.930 . S
H170 C129 0.930 . S
H171 C130 0.930 . S
H172 C134 0.929 . S
H173 C136 0.930 . S
H174 C142 0.929 . S
H175 C143 0.931 . S
Li176 N193 1.990 . S
Li176 O236 1.956 1_655 S
Li176 O237 1.970 . S
Li176 O238 1.961 . S
Li177 N201 1.990 . S
Li177 O236 1.970 . S
Li177 O237 1.956 1_455 S
Li177 O239 1.961 . S
Li178 N223 1.990 . S
Li178 O236 1.959 . S
Li178 O238 1.952 1_455 S
Li178 O239 1.975 . S
Li179 N229 1.990 . S
Li179 O237 1.961 . S
Li179 O238 1.970 . S
Li179 O239 1.956 1_655 S
C180 C182 1.348 . S
C180 C183 1.356 1_455 S
C180 O236 1.325 . S
N181 C184 1.314 . S
N181 C185 1.279 1_455 S
C182 C180 1.348 . S
C182 C184 1.353 . S
C182 H240 0.929 . S
C183 C180 1.356 1_655 S
C183 C185 1.358 . S
C183 H241 0.930 . S
C184 N181 1.314 . S
C184 C182 1.353 . S
C184 H242 0.930 . S
C185 N181 1.279 1_655 S
C185 C183 1.358 . S
C185 H243 0.930 . S
C186 C189 1.348 . S
C186 C190 1.356 1_655 S
C186 O237 1.325 . S
C187 N188 1.279 1_455 S
C187 C190 1.358 . S
C187 H244 0.930 . S
N188 C187 1.279 1_655 S
N188 C191 1.314 . S
C189 C186 1.348 . S
C189 C191 1.353 . S
C189 H245 0.929 . S
C190 C186 1.356 1_455 S
C190 C187 1.358 . S
C190 H246 0.930 . S
C191 N188 1.314 . S
C191 C189 1.353 . S
C191 H247 0.930 . S
C192 N193 1.314 . S
C192 C197 1.353 . S
C192 H198 0.930 . S
N193 Li176 1.990 . S
N193 C192 1.314 . S
N193 C195 1.279 . S
C194 C195 1.358 . S
C194 C196 1.356 . S
C194 H248 0.930 . S
C195 N193 1.279 . S
C195 C194 1.358 . S
C195 H199 0.930 . S
C196 C194 1.356 . S
C196 C197 1.348 . S
C197 C192 1.353 . S
C197 C196 1.348 . S
C197 H249 0.929 . S
H198 C192 0.930 . S
H199 C195 0.930 . S
C200 N201 1.314 . S
C200 C202 1.353 . S
C200 H206 0.930 . S
N201 Li177 1.990 . S
N201 C200 1.314 . S
N201 C204 1.279 . S
C202 C200 1.353 . S
C202 C205 1.348 . S
C202 H250 0.929 . S
C203 C204 1.358 . S
C203 C205 1.356 . S
C203 H251 0.930 . S
C204 N201 1.279 . S
C204 C203 1.358 . S
C204 H207 0.930 . S
C205 C202 1.348 . S
C205 C203 1.356 . S
H206 C200 0.930 . S
H207 C204 0.930 . S
C208 C210 1.348 . S
C208 C211 1.356 . S
C208 O238 1.325 . S
N209 C212 1.314 . S
N209 C213 1.279 . S
C210 C208 1.348 . S
C210 C212 1.353 . S
C210 H252 0.929 . S
C211 C208 1.356 . S
C211 C213 1.358 . S
C211 H253 0.930 . S
C212 N209 1.314 . S
C212 C210 1.353 . S
C212 H254 0.930 . S
C213 N209 1.279 . S
C213 C211 1.358 . S
C213 H255 0.930 . S
C214 C215 1.348 . S
C214 C216 1.356 . S
C214 O239 1.325 . S
C215 C214 1.348 . S
C215 C217 1.353 . S
C215 H256 0.929 . S
C216 C214 1.356 . S
C216 C218 1.358 . S
C216 H257 0.930 . S
C217 C215 1.353 . S
C217 N219 1.314 . S
C217 H258 0.930 . S
C218 C216 1.358 . S
C218 N219 1.279 . S
C218 H259 0.930 . S
N219 C217 1.314 . S
N219 C218 1.279 . S
C220 C222 1.353 . S
C220 N223 1.318 . S
C220 H226 0.930 . S
C221 N223 1.278 1_655 S
C221 C224 1.358 . S
C221 H227 0.930 . S
C222 C220 1.353 . S
C222 C225 1.348 . S
C222 H260 0.929 . S
N223 Li178 1.990 . S
N223 C220 1.318 . S
N223 C221 1.278 1_455 S
C224 C221 1.358 . S
C224 C225 1.356 1_655 S
C224 H261 0.930 . S
C225 C222 1.348 . S
C225 C224 1.356 1_455 S
H226 C220 0.930 . S
H227 C221 0.930 . S
C228 N229 1.314 . S
C228 C230 1.353 . S
C228 H234 0.930 . S
N229 Li179 1.990 . S
N229 C228 1.314 . S
N229 C232 1.279 1_655 S
C230 C228 1.353 . S
C230 C233 1.348 . S
C230 H262 0.929 . S
C231 C232 1.363 1_655 S
C231 C233 1.367 . S
C231 H263 0.914 1_655 S
C232 N229 1.279 1_455 S
C232 C231 1.363 1_455 S
C232 H235 0.930 . S
C233 C230 1.348 . S
C233 C231 1.367 . S
H234 C228 0.930 . S
H235 C232 0.930 . S
O236 Li176 1.956 1_455 S
O236 Li177 1.970 . S
O236 Li178 1.959 . S
O236 C180 1.325 . S
O237 Li176 1.970 . S
O237 Li177 1.956 1_655 S
O237 Li179 1.961 . S
O237 C186 1.325 . S
O238 Li176 1.961 . S
O238 Li178 1.952 1_655 S
O238 Li179 1.970 . S
O238 C208 1.325 . S
O239 Li177 1.961 . S
O239 Li178 1.975 . S
O239 Li179 1.956 1_455 S
O239 C214 1.325 . S
H240 C182 0.929 . S
H241 C183 0.930 . S
H242 C184 0.930 . S
H243 C185 0.930 . S
H244 C187 0.930 . S
H245 C189 0.929 . S
H246 C190 0.930 . S
H247 C191 0.930 . S
H248 C194 0.930 . S
H249 C197 0.929 . S
H250 C202 0.929 . S
H251 C203 0.930 . S
H252 C210 0.929 . S
H253 C211 0.930 . S
H254 C212 0.930 . S
H255 C213 0.930 . S
H256 C215 0.929 . S
H257 C216 0.930 . S
H258 C217 0.930 . S
H259 C218 0.930 . S
H260 C222 0.929 . S
H261 C224 0.930 . S
H262 C230 0.929 . S
H263 C231 0.914 1_455 S
Li264 N281 1.990 . S
Li264 O324 1.956 . S
Li264 O325 1.970 . S
Li264 O326 1.961 . S
Li265 N289 1.990 . S
Li265 O324 1.970 . S
Li265 O325 1.956 . S
Li265 O327 1.961 . S
Li266 N311 1.990 . S
Li266 O324 1.961 . S
Li266 O326 1.956 . S
Li266 O327 1.970 . S
Li267 N317 1.990 . S
Li267 O325 1.961 . S
Li267 O326 1.970 . S
Li267 O327 1.956 . S
C268 C270 1.348 . S
C268 C271 1.356 . S
C268 O324 1.325 . S
N269 C272 1.314 . S
N269 C273 1.279 . S
C270 C268 1.348 . S
C270 C272 1.353 . S
C270 H328 0.929 . S
C271 C268 1.356 . S
C271 C273 1.358 . S
C271 H329 0.930 . S
C272 N269 1.314 . S
C272 C270 1.353 . S
C272 H330 0.930 . S
C273 N269 1.279 . S
C273 C271 1.358 . S
C273 H331 0.930 . S
C274 C277 1.348 . S
C274 C278 1.356 . S
C274 O325 1.325 . S
C275 N276 1.279 . S
C275 C278 1.358 . S
C275 H332 0.930 . S
N276 C275 1.279 . S
N276 C279 1.314 . S
C277 C274 1.348 . S
C277 C279 1.353 . S
C277 H333 0.929 . S
C278 C274 1.356 . S
C278 C275 1.358 . S
C278 H334 0.930 . S
C279 N276 1.314 . S
C279 C277 1.353 . S
C279 H335 0.930 . S
C280 N281 1.314 . S
C280 C285 1.353 . S
C280 H286 0.930 . S
N281 Li264 1.990 . S
N281 C280 1.314 . S
N281 C283 1.279 . S
C282 C283 1.358 . S
C282 C284 1.356 . S
C282 H336 0.930 . S
C283 N281 1.279 . S
C283 C282 1.358 . S
C283 H287 0.930 . S
C284 C282 1.356 . S
C284 C285 1.348 . S
C285 C280 1.353 . S
C285 C284 1.348 . S
C285 H337 0.929 . S
H286 C280 0.930 . S
H287 C283 0.930 . S
C288 N289 1.314 . S
C288 C290 1.353 . S
C288 H294 0.930 . S
N289 Li265 1.990 . S
N289 C288 1.314 . S
N289 C292 1.279 . S
C290 C288 1.353 . S
C290 C293 1.348 . S
C290 H338 0.929 . S
C291 C292 1.358 . S
C291 C293 1.356 . S
C291 H339 0.930 . S
C292 N289 1.279 . S
C292 C291 1.358 . S
C292 H295 0.930 . S
C293 C290 1.348 . S
C293 C291 1.356 . S
H294 C288 0.930 . S
H295 C292 0.930 . S
C296 C298 1.348 . S
C296 C299 1.356 . S
C296 O326 1.325 . S
N297 C300 1.314 . S
N297 C301 1.279 . S
C298 C296 1.348 . S
C298 C300 1.353 . S
C298 H340 0.929 . S
C299 C296 1.356 . S
C299 C301 1.358 . S
C299 H341 0.930 . S
C300 N297 1.314 . S
C300 C298 1.353 . S
C300 H342 0.930 . S
C301 N297 1.279 . S
C301 C299 1.358 . S
C301 H343 0.930 . S
C302 C303 1.348 . S
C302 C304 1.356 . S
C302 O327 1.325 . S
C303 C302 1.348 . S
C303 C305 1.353 . S
C303 H344 0.929 . S
C304 C302 1.356 . S
C304 C306 1.358 . S
C304 H345 0.930 . S
C305 C303 1.353 . S
C305 N307 1.314 . S
C305 H346 0.930 . S
C306 C304 1.358 . S
C306 N307 1.279 . S
C306 H347 0.930 . S
N307 C305 1.314 . S
N307 C306 1.279 . S
C308 C310 1.353 . S
C308 N311 1.314 . S
C308 H314 0.930 . S
C309 N311 1.279 . S
C309 C312 1.358 . S
C309 H315 0.930 . S
C310 C308 1.353 . S
C310 C313 1.348 . S
C310 H348 0.929 . S
N311 Li266 1.990 . S
N311 C308 1.314 . S
N311 C309 1.279 . S
C312 C309 1.358 . S
C312 C313 1.356 . S
C312 H349 0.930 . S
C313 C310 1.348 . S
C313 C312 1.356 . S
H314 C308 0.930 . S
H315 C309 0.930 . S
C316 N317 1.314 . S
C316 C318 1.353 . S
C316 H322 0.930 . S
N317 Li267 1.990 . S
N317 C316 1.314 . S
N317 C320 1.279 . S
C318 C316 1.353 . S
C318 C321 1.348 . S
C318 H350 0.929 . S
C319 C320 1.358 . S
C319 C321 1.356 . S
C319 H351 0.930 . S
C320 N317 1.279 . S
C320 C319 1.358 . S
C320 H323 0.930 . S
C321 C318 1.348 . S
C321 C319 1.356 . S
H322 C316 0.930 . S
H323 C320 0.930 . S
O324 Li264 1.956 . S
O324 Li265 1.970 . S
O324 Li266 1.961 . S
O324 C268 1.325 . S
O325 Li264 1.970 . S
O325 Li265 1.956 . S
O325 Li267 1.961 . S
O325 C274 1.325 . S
O326 Li264 1.961 . S
O326 Li266 1.956 . S
O326 Li267 1.970 . S
O326 C296 1.325 . S
O327 Li265 1.961 . S
O327 Li266 1.970 . S
O327 Li267 1.956 . S
O327 C302 1.325 . S
H328 C270 0.929 . S
H329 C271 0.930 . S
H330 C272 0.930 . S
H331 C273 0.930 . S
H332 C275 0.930 . S
H333 C277 0.929 . S
H334 C278 0.930 . S
H335 C279 0.930 . S
H336 C282 0.930 . S
H337 C285 0.929 . S
H338 C290 0.929 . S
H339 C291 0.930 . S
H340 C298 0.929 . S
H341 C299 0.930 . S
H342 C300 0.930 . S
H343 C301 0.930 . S
H344 C303 0.929 . S
H345 C304 0.930 . S
H346 C305 0.930 . S
H347 C306 0.930 . S
H348 C310 0.929 . S
H349 C312 0.930 . S
H350 C318 0.929 . S
H351 C319 0.930 . S
Li352 N369 1.990 . S
Li352 O412 1.956 1_565 S
Li352 O413 1.970 . S
Li352 O414 1.961 . S
Li353 N377 1.990 . S
Li353 O412 1.975 . S
Li353 O413 1.952 1_545 S
Li353 O415 1.959 . S
Li354 N399 1.990 . S
Li354 O412 1.961 . S
Li354 O414 1.956 1_545 S
Li354 O415 1.970 . S
Li355 N405 1.990 . S
Li355 O413 1.961 . S
Li355 O414 1.970 . S
Li355 O415 1.956 1_565 S
C356 C358 1.348 . S
C356 C359 1.356 . S
C356 O412 1.325 . S
N357 C360 1.314 . S
N357 C361 1.279 . S
C358 C356 1.348 . S
C358 C360 1.353 . S
C358 H416 0.929 . S
C359 C356 1.356 . S
C359 C361 1.358 . S
C359 H417 0.930 . S
C360 N357 1.314 . S
C360 C358 1.353 . S
C360 H418 0.930 . S
C361 N357 1.279 . S
C361 C359 1.358 . S
C361 H419 0.930 . S
C362 C365 1.348 . S
C362 C366 1.356 . S
C362 O413 1.325 . S
C363 N364 1.279 . S
C363 C366 1.358 . S
C363 H420 0.930 . S
N364 C363 1.279 . S
N364 C367 1.314 . S
C365 C362 1.348 . S
C365 C367 1.353 . S
C365 H421 0.929 . S
C366 C362 1.356 . S
C366 C363 1.358 . S
C366 H422 0.930 . S
C367 N364 1.314 . S
C367 C365 1.353 . S
C367 H423 0.930 . S
C368 N369 1.314 . S
C368 C373 1.353 . S
C368 H374 0.930 . S
N369 Li352 1.990 . S
N369 C368 1.314 . S
N369 C371 1.279 1_565 S
C370 C371 1.363 1_565 S
C370 C372 1.367 . S
C370 H424 0.914 1_565 S
C371 N369 1.279 1_545 S
C371 C370 1.363 1_545 S
C371 H375 0.930 . S
C372 C370 1.367 . S
C372 C373 1.348 . S
C373 C368 1.353 . S
C373 C372 1.348 . S
C373 H425 0.929 . S
H374 C368 0.930 . S
H375 C371 0.930 . S
C376 N377 1.318 . S
C376 C378 1.353 . S
C376 H382 0.930 . S
N377 Li353 1.990 . S
N377 C376 1.318 . S
N377 C380 1.278 1_545 S
C378 C376 1.353 . S
C378 C381 1.348 . S
C378 H426 0.929 . S
C379 C380 1.358 . S
C379 C381 1.356 1_565 S
C379 H427 0.930 . S
C380 N377 1.278 1_565 S
C380 C379 1.358 . S
C380 H383 0.930 . S
C381 C378 1.348 . S
C381 C379 1.356 1_545 S
H382 C376 0.930 . S
H383 C380 0.930 . S
C384 C386 1.348 . S
C384 C387 1.356 1_565 S
C384 O414 1.325 . S
N385 C388 1.314 . S
N385 C389 1.279 1_565 S
C386 C384 1.348 . S
C386 C388 1.353 . S
C386 H428 0.929 . S
C387 C384 1.356 1_545 S
C387 C389 1.358 . S
C387 H429 0.930 . S
C388 N385 1.314 . S
C388 C386 1.353 . S
C388 H430 0.930 . S
C389 N385 1.279 1_545 S
C389 C387 1.358 . S
C389 H431 0.930 . S
C390 C391 1.348 . S
C390 C392 1.356 1_545 S
C390 O415 1.325 . S
C391 C390 1.348 . S
C391 C393 1.353 . S
C391 H432 0.929 . S
C392 C390 1.356 1_565 S
C392 C394 1.358 . S
C392 H433 0.930 . S
C393 C391 1.353 . S
C393 N395 1.314 . S
C393 H434 0.930 . S
C394 C392 1.358 . S
C394 N395 1.279 1_565 S
C394 H435 0.930 . S
N395 C393 1.314 . S
N395 C394 1.279 1_545 S
C396 C398 1.353 . S
C396 N399 1.314 . S
C396 H402 0.930 . S
C397 N399 1.279 . S
C397 C400 1.358 . S
C397 H403 0.930 . S
C398 C396 1.353 . S
C398 C401 1.348 . S
C398 H436 0.929 . S
N399 Li354 1.990 . S
N399 C396 1.314 . S
N399 C397 1.279 . S
C400 C397 1.358 . S
C400 C401 1.356 . S
C400 H437 0.930 . S
C401 C398 1.348 . S
C401 C400 1.356 . S
H402 C396 0.930 . S
H403 C397 0.930 . S
C404 N405 1.314 . S
C404 C406 1.353 . S
C404 H410 0.930 . S
N405 Li355 1.990 . S
N405 C404 1.314 . S
N405 C408 1.279 . S
C406 C404 1.353 . S
C406 C409 1.348 . S
C406 H438 0.929 . S
C407 C408 1.358 . S
C407 C409 1.356 . S
C407 H439 0.930 . S
C408 N405 1.279 . S
C408 C407 1.358 . S
C408 H411 0.930 . S
C409 C406 1.348 . S
C409 C407 1.356 . S
H410 C404 0.930 . S
H411 C408 0.930 . S
O412 Li352 1.956 1_545 S
O412 Li353 1.975 . S
O412 Li354 1.961 . S
O412 C356 1.325 . S
O413 Li352 1.970 . S
O413 Li353 1.952 1_565 S
O413 Li355 1.961 . S
O413 C362 1.325 . S
O414 Li352 1.961 . S
O414 Li354 1.956 1_565 S
O414 Li355 1.970 . S
O414 C384 1.325 . S
O415 Li353 1.959 . S
O415 Li354 1.970 . S
O415 Li355 1.956 1_545 S
O415 C390 1.325 . S
H416 C358 0.929 . S
H417 C359 0.930 . S
H418 C360 0.930 . S
H419 C361 0.930 . S
H420 C363 0.930 . S
H421 C365 0.929 . S
H422 C366 0.930 . S
H423 C367 0.930 . S
H424 C370 0.914 1_545 S
H425 C373 0.929 . S
H426 C378 0.929 . S
H427 C379 0.930 . S
H428 C386 0.929 . S
H429 C387 0.930 . S
H430 C388 0.930 . S
H431 C389 0.930 . S
H432 C391 0.929 . S
H433 C392 0.930 . S
H434 C393 0.930 . S
H435 C394 0.930 . S
H436 C398 0.929 . S
H437 C400 0.930 . S
H438 C406 0.929 . S
H439 C407 0.930 . S
Li440 N457 1.990 . S
Li440 O500 1.956 1_455 S
Li440 O501 1.970 . S
Li440 O502 1.961 . S
Li441 N465 1.990 . S
Li441 O500 1.970 . S
Li441 O501 1.956 1_655 S
Li441 O503 1.961 . S
Li442 N487 1.991 . S
Li442 O500 1.966 . S
Li442 O502 1.949 1_655 S
Li442 O503 1.974 . S
Li443 N493 1.990 . S
Li443 O501 1.961 . S
Li443 O502 1.970 . S
Li443 O503 1.956 1_455 S
C444 C446 1.348 . S
C444 C447 1.356 1_655 S
C444 O500 1.325 . S
N445 C448 1.314 . S
N445 C449 1.279 1_655 S
C446 C444 1.348 . S
C446 C448 1.353 . S
C446 H504 0.929 . S
C447 C444 1.356 1_455 S
C447 C449 1.358 . S
C447 H505 0.930 . S
C448 N445 1.314 . S
C448 C446 1.353 . S
C448 H506 0.930 . S
C449 N445 1.279 1_455 S
C449 C447 1.358 . S
C449 H507 0.930 . S
C450 C453 1.348 . S
C450 C454 1.356 1_455 S
C450 O501 1.325 . S
C451 N452 1.279 1_655 S
C451 C454 1.358 . S
C451 H508 0.930 . S
N452 C451 1.279 1_455 S
N452 C455 1.314 . S
C453 C450 1.348 . S
C453 C455 1.353 . S
C453 H509 0.929 . S
C454 C450 1.356 1_655 S
C454 C451 1.358 . S
C454 H510 0.930 . S
C455 N452 1.314 . S
C455 C453 1.353 . S
C455 H511 0.930 . S
C456 N457 1.314 . S
C456 C461 1.353 . S
C456 H462 0.930 . S
N457 Li440 1.990 . S
N457 C456 1.314 . S
N457 C459 1.279 . S
C458 C459 1.358 . S
C458 C460 1.356 . S
C458 H512 0.930 . S
C459 N457 1.279 . S
C459 C458 1.358 . S
C459 H463 0.930 . S
C460 C458 1.356 . S
C460 C461 1.348 . S
C461 C456 1.353 . S
C461 C460 1.348 . S
C461 H513 0.929 . S
H462 C456 0.930 . S
H463 C459 0.930 . S
C464 N465 1.314 . S
C464 C466 1.353 . S
C464 H470 0.930 . S
N465 Li441 1.990 . S
N465 C464 1.314 . S
N465 C468 1.279 . S
C466 C464 1.353 . S
C466 C469 1.348 . S
C466 H514 0.929 . S
C467 C468 1.358 . S
C467 C469 1.356 . S
C467 H515 0.930 . S
C468 N465 1.279 . S
C468 C467 1.358 . S
C468 H471 0.930 . S
C469 C466 1.348 . S
C469 C467 1.356 . S
H470 C464 0.930 . S
H471 C468 0.930 . S
C472 C474 1.348 . S
C472 C475 1.356 . S
C472 O502 1.325 . S
N473 C476 1.314 . S
N473 C477 1.279 . S
C474 C472 1.348 . S
C474 C476 1.353 . S
C474 H516 0.929 . S
C475 C472 1.356 . S
C475 C477 1.358 . S
C475 H517 0.930 . S
C476 N473 1.314 . S
C476 C474 1.353 . S
C476 H518 0.930 . S
C477 N473 1.279 . S
C477 C475 1.358 . S
C477 H519 0.930 . S
C478 C479 1.348 . S
C478 C480 1.356 . S
C478 O503 1.325 . S
C479 C478 1.348 . S
C479 C481 1.353 . S
C479 H520 0.929 . S
C480 C478 1.356 . S
C480 C482 1.358 . S
C480 H521 0.930 . S
C481 C479 1.353 . S
C481 N483 1.314 . S
C481 H522 0.930 . S
C482 C480 1.358 . S
C482 N483 1.279 . S
C482 H523 0.930 . S
N483 C481 1.314 . S
N483 C482 1.279 . S
C484 C486 1.353 . S
C484 N487 1.324 . S
C484 H490 0.930 . S
C485 N487 1.268 1_455 S
C485 C488 1.358 . S
C485 H491 0.930 . S
C486 C484 1.353 . S
C486 C489 1.348 . S
C486 H524 0.929 . S
N487 Li442 1.991 . S
N487 C484 1.324 . S
N487 C485 1.268 1_655 S
C488 C485 1.358 . S
C488 C489 1.356 1_455 S
C488 H525 0.930 . S
C489 C486 1.348 . S
C489 C488 1.356 1_655 S
H490 C484 0.930 . S
H491 C485 0.930 . S
C492 N493 1.314 . S
C492 C494 1.353 . S
C492 H498 0.930 . S
N493 Li443 1.990 . S
N493 C492 1.314 . S
N493 C496 1.279 1_455 S
C494 C492 1.353 . S
C494 C497 1.348 . S
C494 H526 0.929 . S
C495 C496 1.370 . S
C495 C497 1.343 1_655 S
C495 H527 0.931 . S
C496 N493 1.279 1_655 S
C496 C495 1.370 . S
C496 H499 0.930 . S
C497 C494 1.348 . S
C497 C495 1.343 1_455 S
H498 C492 0.930 . S
H499 C496 0.930 . S
O500 Li440 1.956 1_655 S
O500 Li441 1.970 . S
O500 Li442 1.966 . S
O500 C444 1.325 . S
O501 Li440 1.970 . S
O501 Li441 1.956 1_455 S
O501 Li443 1.961 . S
O501 C450 1.325 . S
O502 Li440 1.961 . S
O502 Li442 1.949 1_455 S
O502 Li443 1.970 . S
O502 C472 1.325 . S
O503 Li441 1.961 . S
O503 Li442 1.974 . S
O503 Li443 1.956 1_655 S
O503 C478 1.325 . S
H504 C446 0.929 . S
H505 C447 0.930 . S
H506 C448 0.930 . S
H507 C449 0.930 . S
H508 C451 0.930 . S
H509 C453 0.929 . S
H510 C454 0.930 . S
H511 C455 0.930 . S
H512 C458 0.930 . S
H513 C461 0.929 . S
H514 C466 0.929 . S
H515 C467 0.930 . S
H516 C474 0.929 . S
H517 C475 0.930 . S
H518 C476 0.930 . S
H519 C477 0.930 . S
H520 C479 0.929 . S
H521 C480 0.930 . S
H522 C481 0.930 . S
H523 C482 0.930 . S
H524 C486 0.929 . S
H525 C488 0.930 . S
H526 C494 0.929 . S
H527 C495 0.931 . S
Li528 N545 1.990 . S
Li528 O588 1.956 . S
Li528 O589 1.970 . S
Li528 O590 1.961 . S
Li529 N553 1.990 . S
Li529 O588 1.970 . S
Li529 O589 1.956 . S
Li529 O591 1.961 . S
Li530 N575 1.990 . S
Li530 O588 1.961 . S
Li530 O590 1.956 . S
Li530 O591 1.970 . S
Li531 N581 1.990 . S
Li531 O589 1.961 . S
Li531 O590 1.970 . S
Li531 O591 1.956 . S
C532 C534 1.348 . S
C532 C535 1.356 . S
C532 O588 1.325 . S
N533 C536 1.314 . S
N533 C537 1.279 . S
C534 C532 1.348 . S
C534 C536 1.353 . S
C534 H592 0.929 . S
C535 C532 1.356 . S
C535 C537 1.358 . S
C535 H593 0.930 . S
C536 N533 1.314 . S
C536 C534 1.353 . S
C536 H594 0.930 . S
C537 N533 1.279 . S
C537 C535 1.358 . S
C537 H595 0.930 . S
C538 C541 1.348 . S
C538 C542 1.356 . S
C538 O589 1.325 . S
C539 N540 1.279 . S
C539 C542 1.358 . S
C539 H596 0.930 . S
N540 C539 1.279 . S
N540 C543 1.314 . S
C541 C538 1.348 . S
C541 C543 1.353 . S
C541 H597 0.929 . S
C542 C538 1.356 . S
C542 C539 1.358 . S
C542 H598 0.930 . S
C543 N540 1.314 . S
C543 C541 1.353 . S
C543 H599 0.930 . S
C544 N545 1.314 . S
C544 C549 1.353 . S
C544 H550 0.930 . S
N545 Li528 1.990 . S
N545 C544 1.314 . S
N545 C547 1.279 . S
C546 C547 1.358 . S
C546 C548 1.356 . S
C546 H600 0.930 . S
C547 N545 1.279 . S
C547 C546 1.358 . S
C547 H551 0.930 . S
C548 C546 1.356 . S
C548 C549 1.348 . S
C549 C544 1.353 . S
C549 C548 1.348 . S
C549 H601 0.929 . S
H550 C544 0.930 . S
H551 C547 0.930 . S
C552 N553 1.314 . S
C552 C554 1.353 . S
C552 H558 0.930 . S
N553 Li529 1.990 . S
N553 C552 1.314 . S
N553 C556 1.279 . S
C554 C552 1.353 . S
C554 C557 1.348 . S
C554 H602 0.929 . S
C555 C556 1.358 . S
C555 C557 1.356 . S
C555 H603 0.930 . S
C556 N553 1.279 . S
C556 C555 1.358 . S
C556 H559 0.930 . S
C557 C554 1.348 . S
C557 C555 1.356 . S
H558 C552 0.930 . S
H559 C556 0.930 . S
C560 C562 1.348 . S
C560 C563 1.356 . S
C560 O590 1.325 . S
N561 C564 1.314 . S
N561 C565 1.279 . S
C562 C560 1.348 . S
C562 C564 1.353 . S
C562 H604 0.929 . S
C563 C560 1.356 . S
C563 C565 1.358 . S
C563 H605 0.930 . S
C564 N561 1.314 . S
C564 C562 1.353 . S
C564 H606 0.930 . S
C565 N561 1.279 . S
C565 C563 1.358 . S
C565 H607 0.930 . S
C566 C567 1.348 . S
C566 C568 1.356 . S
C566 O591 1.325 . S
C567 C566 1.348 . S
C567 C569 1.353 . S
C567 H608 0.929 . S
C568 C566 1.356 . S
C568 C570 1.358 . S
C568 H609 0.930 . S
C569 C567 1.353 . S
C569 N571 1.314 . S
C569 H610 0.930 . S
C570 C568 1.358 . S
C570 N571 1.279 . S
C570 H611 0.930 . S
N571 C569 1.314 . S
N571 C570 1.279 . S
C572 C574 1.353 . S
C572 N575 1.314 . S
C572 H578 0.930 . S
C573 N575 1.279 . S
C573 C576 1.358 . S
C573 H579 0.930 . S
C574 C572 1.353 . S
C574 C577 1.348 . S
C574 H612 0.929 . S
N575 Li530 1.990 . S
N575 C572 1.314 . S
N575 C573 1.279 . S
C576 C573 1.358 . S
C576 C577 1.356 . S
C576 H613 0.930 . S
C577 C574 1.348 . S
C577 C576 1.356 . S
H578 C572 0.930 . S
H579 C573 0.930 . S
C580 N581 1.314 . S
C580 C582 1.353 . S
C580 H586 0.930 . S
N581 Li531 1.990 . S
N581 C580 1.314 . S
N581 C584 1.279 . S
C582 C580 1.353 . S
C582 C585 1.348 . S
C582 H614 0.929 . S
C583 C584 1.358 . S
C583 C585 1.356 . S
C583 H615 0.930 . S
C584 N581 1.279 . S
C584 C583 1.358 . S
C584 H587 0.930 . S
C585 C582 1.348 . S
C585 C583 1.356 . S
H586 C580 0.930 . S
H587 C584 0.930 . S
O588 Li528 1.956 . S
O588 Li529 1.970 . S
O588 Li530 1.961 . S
O588 C532 1.325 . S
O589 Li528 1.970 . S
O589 Li529 1.956 . S
O589 Li531 1.961 . S
O589 C538 1.325 . S
O590 Li528 1.961 . S
O590 Li530 1.956 . S
O590 Li531 1.970 . S
O590 C560 1.325 . S
O591 Li529 1.961 . S
O591 Li530 1.970 . S
O591 Li531 1.956 . S
O591 C566 1.325 . S
H592 C534 0.929 . S
H593 C535 0.930 . S
H594 C536 0.930 . S
H595 C537 0.930 . S
H596 C539 0.930 . S
H597 C541 0.929 . S
H598 C542 0.930 . S
H599 C543 0.930 . S
H600 C546 0.930 . S
H601 C549 0.929 . S
H602 C554 0.929 . S
H603 C555 0.930 . S
H604 C562 0.929 . S
H605 C563 0.930 . S
H606 C564 0.930 . S
H607 C565 0.930 . S
H608 C567 0.929 . S
H609 C568 0.930 . S
H610 C569 0.930 . S
H611 C570 0.930 . S
H612 C574 0.929 . S
H613 C576 0.930 . S
H614 C582 0.929 . S
H615 C583 0.930 . S
Li616 N633 1.990 . S
Li616 O676 1.956 . S
Li616 O677 1.970 . S
Li616 O678 1.961 . S
Li617 N641 1.990 . S
Li617 O676 1.970 . S
Li617 O677 1.956 . S
Li617 O679 1.961 . S
Li618 N663 1.990 . S
Li618 O676 1.961 . S
Li618 O678 1.956 . S
Li618 O679 1.970 . S
Li619 N669 1.990 . S
Li619 O677 1.961 . S
Li619 O678 1.970 . S
Li619 O679 1.956 . S
C620 C622 1.348 . S
C620 C623 1.356 . S
C620 O676 1.325 . S
N621 C624 1.314 . S
N621 C625 1.279 . S
C622 C620 1.348 . S
C622 C624 1.353 . S
C622 H680 0.929 . S
C623 C620 1.356 . S
C623 C625 1.358 . S
C623 H681 0.930 . S
C624 N621 1.314 . S
C624 C622 1.353 . S
C624 H682 0.930 . S
C625 N621 1.279 . S
C625 C623 1.358 . S
C625 H683 0.930 . S
C626 C629 1.348 . S
C626 C630 1.356 . S
C626 O677 1.325 . S
C627 N628 1.279 . S
C627 C630 1.358 . S
C627 H684 0.930 . S
N628 C627 1.279 . S
N628 C631 1.314 . S
C629 C626 1.348 . S
C629 C631 1.353 . S
C629 H685 0.929 . S
C630 C626 1.356 . S
C630 C627 1.358 . S
C630 H686 0.930 . S
C631 N628 1.314 . S
C631 C629 1.353 . S
C631 H687 0.930 . S
C632 N633 1.314 . S
C632 C637 1.353 . S
C632 H638 0.930 . S
N633 Li616 1.990 . S
N633 C632 1.314 . S
N633 C635 1.279 . S
C634 C635 1.358 . S
C634 C636 1.356 . S
C634 H688 0.930 . S
C635 N633 1.279 . S
C635 C634 1.358 . S
C635 H639 0.930 . S
C636 C634 1.356 . S
C636 C637 1.348 . S
C637 C632 1.353 . S
C637 C636 1.348 . S
C637 H689 0.929 . S
H638 C632 0.930 . S
H639 C635 0.930 . S
C640 N641 1.314 . S
C640 C642 1.353 . S
C640 H646 0.930 . S
N641 Li617 1.990 . S
N641 C640 1.314 . S
N641 C644 1.279 . S
C642 C640 1.353 . S
C642 C645 1.348 . S
C642 H690 0.929 . S
C643 C644 1.358 . S
C643 C645 1.356 . S
C643 H691 0.930 . S
C644 N641 1.279 . S
C644 C643 1.358 . S
C644 H647 0.930 . S
C645 C642 1.348 . S
C645 C643 1.356 . S
H646 C640 0.930 . S
H647 C644 0.930 . S
C648 C650 1.348 . S
C648 C651 1.356 . S
C648 O678 1.325 . S
N649 C652 1.314 . S
N649 C653 1.279 . S
C650 C648 1.348 . S
C650 C652 1.353 . S
C650 H692 0.929 . S
C651 C648 1.356 . S
C651 C653 1.358 . S
C651 H693 0.930 . S
C652 N649 1.314 . S
C652 C650 1.353 . S
C652 H694 0.930 . S
C653 N649 1.279 . S
C653 C651 1.358 . S
C653 H695 0.930 . S
C654 C655 1.348 . S
C654 C656 1.356 . S
C654 O679 1.325 . S
C655 C654 1.348 . S
C655 C657 1.353 . S
C655 H696 0.929 . S
C656 C654 1.356 . S
C656 C658 1.358 . S
C656 H697 0.930 . S
C657 C655 1.353 . S
C657 N659 1.314 . S
C657 H698 0.930 . S
C658 C656 1.358 . S
C658 N659 1.279 . S
C658 H699 0.930 . S
N659 C657 1.314 . S
N659 C658 1.279 . S
C660 C662 1.353 . S
C660 N663 1.314 . S
C660 H666 0.930 . S
C661 N663 1.279 . S
C661 C664 1.358 . S
C661 H667 0.930 . S
C662 C660 1.353 . S
C662 C665 1.348 . S
C662 H700 0.929 . S
N663 Li618 1.990 . S
N663 C660 1.314 . S
N663 C661 1.279 . S
C664 C661 1.358 . S
C664 C665 1.356 . S
C664 H701 0.930 . S
C665 C662 1.348 . S
C665 C664 1.356 . S
H666 C660 0.930 . S
H667 C661 0.930 . S
C668 N669 1.314 . S
C668 C670 1.353 . S
C668 H674 0.930 . S
N669 Li619 1.990 . S
N669 C668 1.314 . S
N669 C672 1.279 . S
C670 C668 1.353 . S
C670 C673 1.348 . S
C670 H702 0.929 . S
C671 C672 1.358 . S
C671 C673 1.356 . S
C671 H703 0.930 . S
C672 N669 1.279 . S
C672 C671 1.358 . S
C672 H675 0.930 . S
C673 C670 1.348 . S
C673 C671 1.356 . S
H674 C668 0.930 . S
H675 C672 0.930 . S
O676 Li616 1.956 . S
O676 Li617 1.970 . S
O676 Li618 1.961 . S
O676 C620 1.325 . S
O677 Li616 1.970 . S
O677 Li617 1.956 . S
O677 Li619 1.961 . S
O677 C626 1.325 . S
O678 Li616 1.961 . S
O678 Li618 1.956 . S
O678 Li619 1.970 . S
O678 C648 1.325 . S
O679 Li617 1.961 . S
O679 Li618 1.970 . S
O679 Li619 1.956 . S
O679 C654 1.325 . S
H680 C622 0.929 . S
H681 C623 0.930 . S
H682 C624 0.930 . S
H683 C625 0.930 . S
H684 C627 0.930 . S
H685 C629 0.929 . S
H686 C630 0.930 . S
H687 C631 0.930 . S
H688 C634 0.930 . S
H689 C637 0.929 . S
H690 C642 0.929 . S
H691 C643 0.930 . S
H692 C650 0.929 . S
H693 C651 0.930 . S
H694 C652 0.930 . S
H695 C653 0.930 . S
H696 C655 0.929 . S
H697 C656 0.930 . S
H698 C657 0.930 . S
H699 C658 0.930 . S
H700 C662 0.929 . S
H701 C664 0.930 . S
H702 C670 0.929 . S
H703 C671 0.930 . S
Li704 N721 1.990 . S
Li704 O764 1.956 . S
Li704 O765 1.970 . S
Li704 O766 1.961 . S
Li705 N729 1.990 . S
Li705 O764 1.970 . S
Li705 O765 1.956 . S
Li705 O767 1.961 . S
Li706 N751 1.990 . S
Li706 O764 1.961 . S
Li706 O766 1.956 . S
Li706 O767 1.970 . S
Li707 N757 1.990 . S
Li707 O765 1.961 . S
Li707 O766 1.970 . S
Li707 O767 1.956 . S
C708 C710 1.348 . S
C708 C711 1.356 . S
C708 O764 1.325 . S
N709 C712 1.314 . S
N709 C713 1.279 . S
C710 C708 1.348 . S
C710 C712 1.353 . S
C710 H768 0.929 . S
C711 C708 1.356 . S
C711 C713 1.358 . S
C711 H769 0.930 . S
C712 N709 1.314 . S
C712 C710 1.353 . S
C712 H770 0.930 . S
C713 N709 1.279 . S
C713 C711 1.358 . S
C713 H771 0.930 . S
C714 C717 1.348 . S
C714 C718 1.356 . S
C714 O765 1.325 . S
C715 N716 1.279 . S
C715 C718 1.358 . S
C715 H772 0.930 . S
N716 C715 1.279 . S
N716 C719 1.314 . S
C717 C714 1.348 . S
C717 C719 1.353 . S
C717 H773 0.929 . S
C718 C714 1.356 . S
C718 C715 1.358 . S
C718 H774 0.930 . S
C719 N716 1.314 . S
C719 C717 1.353 . S
C719 H775 0.930 . S
C720 N721 1.314 . S
C720 C725 1.353 . S
C720 H726 0.930 . S
N721 Li704 1.990 . S
N721 C720 1.314 . S
N721 C723 1.279 . S
C722 C723 1.358 . S
C722 C724 1.356 . S
C722 H776 0.930 . S
C723 N721 1.279 . S
C723 C722 1.358 . S
C723 H727 0.930 . S
C724 C722 1.356 . S
C724 C725 1.348 . S
C725 C720 1.353 . S
C725 C724 1.348 . S
C725 H777 0.929 . S
H726 C720 0.930 . S
H727 C723 0.930 . S
C728 N729 1.314 . S
C728 C730 1.353 . S
C728 H734 0.930 . S
N729 Li705 1.990 . S
N729 C728 1.314 . S
N729 C732 1.279 . S
C730 C728 1.353 . S
C730 C733 1.348 . S
C730 H778 0.929 . S
C731 C732 1.358 . S
C731 C733 1.356 . S
C731 H779 0.930 . S
C732 N729 1.279 . S
C732 C731 1.358 . S
C732 H735 0.930 . S
C733 C730 1.348 . S
C733 C731 1.356 . S
H734 C728 0.930 . S
H735 C732 0.930 . S
C736 C738 1.348 . S
C736 C739 1.356 . S
C736 O766 1.325 . S
N737 C740 1.314 . S
N737 C741 1.279 . S
C738 C736 1.348 . S
C738 C740 1.353 . S
C738 H780 0.929 . S
C739 C736 1.356 . S
C739 C741 1.358 . S
C739 H781 0.930 . S
C740 N737 1.314 . S
C740 C738 1.353 . S
C740 H782 0.930 . S
C741 N737 1.279 . S
C741 C739 1.358 . S
C741 H783 0.930 . S
C742 C743 1.348 . S
C742 C744 1.356 . S
C742 O767 1.325 . S
C743 C742 1.348 . S
C743 C745 1.353 . S
C743 H784 0.929 . S
C744 C742 1.356 . S
C744 C746 1.358 . S
C744 H785 0.930 . S
C745 C743 1.353 . S
C745 N747 1.314 . S
C745 H786 0.930 . S
C746 C744 1.358 . S
C746 N747 1.279 . S
C746 H787 0.930 . S
N747 C745 1.314 . S
N747 C746 1.279 . S
C748 C750 1.353 . S
C748 N751 1.314 . S
C748 H754 0.930 . S
C749 N751 1.279 . S
C749 C752 1.358 . S
C749 H755 0.930 . S
C750 C748 1.353 . S
C750 C753 1.348 . S
C750 H788 0.929 . S
N751 Li706 1.990 . S
N751 C748 1.314 . S
N751 C749 1.279 . S
C752 C749 1.358 . S
C752 C753 1.356 . S
C752 H789 0.930 . S
C753 C750 1.348 . S
C753 C752 1.356 . S
H754 C748 0.930 . S
H755 C749 0.930 . S
C756 N757 1.314 . S
C756 C758 1.353 . S
C756 H762 0.930 . S
N757 Li707 1.990 . S
N757 C756 1.314 . S
N757 C760 1.279 . S
C758 C756 1.353 . S
C758 C761 1.348 . S
C758 H790 0.929 . S
C759 C760 1.358 . S
C759 C761 1.356 . S
C759 H791 0.930 . S
C760 N757 1.279 . S
C760 C759 1.358 . S
C760 H763 0.930 . S
C761 C758 1.348 . S
C761 C759 1.356 . S
H762 C756 0.930 . S
H763 C760 0.930 . S
O764 Li704 1.956 . S
O764 Li705 1.970 . S
O764 Li706 1.961 . S
O764 C708 1.325 . S
O765 Li704 1.970 . S
O765 Li705 1.956 . S
O765 Li707 1.961 . S
O765 C714 1.325 . S
O766 Li704 1.961 . S
O766 Li706 1.956 . S
O766 Li707 1.970 . S
O766 C736 1.325 . S
O767 Li705 1.961 . S
O767 Li706 1.970 . S
O767 Li707 1.956 . S
O767 C742 1.325 . S
H768 C710 0.929 . S
H769 C711 0.930 . S
H770 C712 0.930 . S
H771 C713 0.930 . S
H772 C715 0.930 . S
H773 C717 0.929 . S
H774 C718 0.930 . S
H775 C719 0.930 . S
H776 C722 0.930 . S
H777 C725 0.929 . S
H778 C730 0.929 . S
H779 C731 0.930 . S
H780 C738 0.929 . S
H781 C739 0.930 . S
H782 C740 0.930 . S
H783 C741 0.930 . S
H784 C743 0.929 . S
H785 C744 0.930 . S
H786 C745 0.930 . S
H787 C746 0.930 . S
H788 C750 0.929 . S
H789 C752 0.930 . S
H790 C758 0.929 . S
H791 C759 0.930 . S
Li792 N809 1.990 . S
Li792 O852 1.956 . S
Li792 O853 1.970 . S
Li792 O854 1.961 . S
Li793 N817 1.990 . S
Li793 O852 1.970 . S
Li793 O853 1.956 . S
Li793 O855 1.961 . S
Li794 N839 1.990 . S
Li794 O852 1.961 . S
Li794 O854 1.956 . S
Li794 O855 1.970 . S
Li795 N845 1.990 . S
Li795 O853 1.961 . S
Li795 O854 1.970 . S
Li795 O855 1.956 . S
C796 C798 1.348 . S
C796 C799 1.356 . S
C796 O852 1.325 . S
N797 C800 1.314 . S
N797 C801 1.279 . S
C798 C796 1.348 . S
C798 C800 1.353 . S
C798 H856 0.929 . S
C799 C796 1.356 . S
C799 C801 1.358 . S
C799 H857 0.930 . S
C800 N797 1.314 . S
C800 C798 1.353 . S
C800 H858 0.930 . S
C801 N797 1.279 . S
C801 C799 1.358 . S
C801 H859 0.930 . S
C802 C805 1.348 . S
C802 C806 1.356 . S
C802 O853 1.325 . S
C803 N804 1.279 . S
C803 C806 1.358 . S
C803 H860 0.930 . S
N804 C803 1.279 . S
N804 C807 1.314 . S
C805 C802 1.348 . S
C805 C807 1.353 . S
C805 H861 0.929 . S
C806 C802 1.356 . S
C806 C803 1.358 . S
C806 H862 0.930 . S
C807 N804 1.314 . S
C807 C805 1.353 . S
C807 H863 0.930 . S
C808 N809 1.314 . S
C808 C813 1.353 . S
C808 H814 0.930 . S
N809 Li792 1.990 . S
N809 C808 1.314 . S
N809 C811 1.279 . S
C810 C811 1.358 . S
C810 C812 1.356 . S
C810 H864 0.930 . S
C811 N809 1.279 . S
C811 C810 1.358 . S
C811 H815 0.930 . S
C812 C810 1.356 . S
C812 C813 1.348 . S
C813 C808 1.353 . S
C813 C812 1.348 . S
C813 H865 0.929 . S
H814 C808 0.930 . S
H815 C811 0.930 . S
C816 N817 1.314 . S
C816 C818 1.353 . S
C816 H822 0.930 . S
N817 Li793 1.990 . S
N817 C816 1.314 . S
N817 C820 1.279 . S
C818 C816 1.353 . S
C818 C821 1.348 . S
C818 H866 0.929 . S
C819 C820 1.358 . S
C819 C821 1.356 . S
C819 H867 0.930 . S
C820 N817 1.279 . S
C820 C819 1.358 . S
C820 H823 0.930 . S
C821 C818 1.348 . S
C821 C819 1.356 . S
H822 C816 0.930 . S
H823 C820 0.930 . S
C824 C826 1.348 . S
C824 C827 1.356 . S
C824 O854 1.325 . S
N825 C828 1.314 . S
N825 C829 1.279 . S
C826 C824 1.348 . S
C826 C828 1.353 . S
C826 H868 0.929 . S
C827 C824 1.356 . S
C827 C829 1.358 . S
C827 H869 0.930 . S
C828 N825 1.314 . S
C828 C826 1.353 . S
C828 H870 0.930 . S
C829 N825 1.279 . S
C829 C827 1.358 . S
C829 H871 0.930 . S
C830 C831 1.348 . S
C830 C832 1.356 . S
C830 O855 1.325 . S
C831 C830 1.348 . S
C831 C833 1.353 . S
C831 H872 0.929 . S
C832 C830 1.356 . S
C832 C834 1.358 . S
C832 H873 0.930 . S
C833 C831 1.353 . S
C833 N835 1.314 . S
C833 H874 0.930 . S
C834 C832 1.358 . S
C834 N835 1.279 . S
C834 H875 0.930 . S
N835 C833 1.314 . S
N835 C834 1.279 . S
C836 C838 1.353 . S
C836 N839 1.314 . S
C836 H842 0.930 . S
C837 N839 1.279 . S
C837 C840 1.358 . S
C837 H843 0.930 . S
C838 C836 1.353 . S
C838 C841 1.348 . S
C838 H876 0.929 . S
N839 Li794 1.990 . S
N839 C836 1.314 . S
N839 C837 1.279 . S
C840 C837 1.358 . S
C840 C841 1.356 . S
C840 H877 0.930 . S
C841 C838 1.348 . S
C841 C840 1.356 . S
H842 C836 0.930 . S
H843 C837 0.930 . S
C844 N845 1.314 . S
C844 C846 1.353 . S
C844 H850 0.930 . S
N845 Li795 1.990 . S
N845 C844 1.314 . S
N845 C848 1.279 . S
C846 C844 1.353 . S
C846 C849 1.348 . S
C846 H878 0.929 . S
C847 C848 1.358 . S
C847 C849 1.356 . S
C847 H879 0.930 . S
C848 N845 1.279 . S
C848 C847 1.358 . S
C848 H851 0.930 . S
C849 C846 1.348 . S
C849 C847 1.356 . S
H850 C844 0.930 . S
H851 C848 0.930 . S
O852 Li792 1.956 . S
O852 Li793 1.970 . S
O852 Li794 1.961 . S
O852 C796 1.325 . S
O853 Li792 1.970 . S
O853 Li793 1.956 . S
O853 Li795 1.961 . S
O853 C802 1.325 . S
O854 Li792 1.961 . S
O854 Li794 1.956 . S
O854 Li795 1.970 . S
O854 C824 1.325 . S
O855 Li793 1.961 . S
O855 Li794 1.970 . S
O855 Li795 1.956 . S
O855 C830 1.325 . S
H856 C798 0.929 . S
H857 C799 0.930 . S
H858 C800 0.930 . S
H859 C801 0.930 . S
H860 C803 0.930 . S
H861 C805 0.929 . S
H862 C806 0.930 . S
H863 C807 0.930 . S
H864 C810 0.930 . S
H865 C813 0.929 . S
H866 C818 0.929 . S
H867 C819 0.930 . S
H868 C826 0.929 . S
H869 C827 0.930 . S
H870 C828 0.930 . S
H871 C829 0.930 . S
H872 C831 0.929 . S
H873 C832 0.930 . S
H874 C833 0.930 . S
H875 C834 0.930 . S
H876 C838 0.929 . S
H877 C840 0.930 . S
H878 C846 0.929 . S
H879 C847 0.930 . S
Li880 N897 1.990 . S
Li880 O940 1.956 . S
Li880 O941 1.970 . S
Li880 O942 1.961 . S
Li881 N905 1.990 . S
Li881 O940 1.970 . S
Li881 O941 1.956 . S
Li881 O943 1.961 . S
Li882 N927 1.990 . S
Li882 O940 1.961 . S
Li882 O942 1.956 . S
Li882 O943 1.970 . S
Li883 N933 1.990 . S
Li883 O941 1.961 . S
Li883 O942 1.970 . S
Li883 O943 1.956 . S
C884 C886 1.348 . S
C884 C887 1.356 . S
C884 O940 1.325 . S
N885 C888 1.314 . S
N885 C889 1.279 . S
C886 C884 1.348 . S
C886 C888 1.353 . S
C886 H944 0.929 . S
C887 C884 1.356 . S
C887 C889 1.358 . S
C887 H945 0.930 . S
C888 N885 1.314 . S
C888 C886 1.353 . S
C888 H946 0.930 . S
C889 N885 1.279 . S
C889 C887 1.358 . S
C889 H947 0.930 . S
C890 C893 1.348 . S
C890 C894 1.356 . S
C890 O941 1.325 . S
C891 N892 1.279 . S
C891 C894 1.358 . S
C891 H948 0.930 . S
N892 C891 1.279 . S
N892 C895 1.314 . S
C893 C890 1.348 . S
C893 C895 1.353 . S
C893 H949 0.929 . S
C894 C890 1.356 . S
C894 C891 1.358 . S
C894 H950 0.930 . S
C895 N892 1.314 . S
C895 C893 1.353 . S
C895 H951 0.930 . S
C896 N897 1.314 . S
C896 C901 1.353 . S
C896 H902 0.930 . S
N897 Li880 1.990 . S
N897 C896 1.314 . S
N897 C899 1.279 . S
C898 C899 1.358 . S
C898 C900 1.356 . S
C898 H952 0.930 . S
C899 N897 1.279 . S
C899 C898 1.358 . S
C899 H903 0.930 . S
C900 C898 1.356 . S
C900 C901 1.348 . S
C901 C896 1.353 . S
C901 C900 1.348 . S
C901 H953 0.929 . S
H902 C896 0.930 . S
H903 C899 0.930 . S
C904 N905 1.314 . S
C904 C906 1.353 . S
C904 H910 0.930 . S
N905 Li881 1.990 . S
N905 C904 1.314 . S
N905 C908 1.279 . S
C906 C904 1.353 . S
C906 C909 1.348 . S
C906 H954 0.929 . S
C907 C908 1.358 . S
C907 C909 1.356 . S
C907 H955 0.930 . S
C908 N905 1.279 . S
C908 C907 1.358 . S
C908 H911 0.930 . S
C909 C906 1.348 . S
C909 C907 1.356 . S
H910 C904 0.930 . S
H911 C908 0.930 . S
C912 C914 1.348 . S
C912 C915 1.356 . S
C912 O942 1.325 . S
N913 C916 1.314 . S
N913 C917 1.279 . S
C914 C912 1.348 . S
C914 C916 1.353 . S
C914 H956 0.929 . S
C915 C912 1.356 . S
C915 C917 1.358 . S
C915 H957 0.930 . S
C916 N913 1.314 . S
C916 C914 1.353 . S
C916 H958 0.930 . S
C917 N913 1.279 . S
C917 C915 1.358 . S
C917 H959 0.930 . S
C918 C919 1.348 . S
C918 C920 1.356 . S
C918 O943 1.325 . S
C919 C918 1.348 . S
C919 C921 1.353 . S
C919 H960 0.929 . S
C920 C918 1.356 . S
C920 C922 1.358 . S
C920 H961 0.930 . S
C921 C919 1.353 . S
C921 N923 1.314 . S
C921 H962 0.930 . S
C922 C920 1.358 . S
C922 N923 1.279 . S
C922 H963 0.930 . S
N923 C921 1.314 . S
N923 C922 1.279 . S
C924 C926 1.353 . S
C924 N927 1.314 . S
C924 H930 0.930 . S
C925 N927 1.279 . S
C925 C928 1.358 . S
C925 H931 0.930 . S
C926 C924 1.353 . S
C926 C929 1.348 . S
C926 H964 0.929 . S
N927 Li882 1.990 . S
N927 C924 1.314 . S
N927 C925 1.279 . S
C928 C925 1.358 . S
C928 C929 1.356 . S
C928 H965 0.930 . S
C929 C926 1.348 . S
C929 C928 1.356 . S
H930 C924 0.930 . S
H931 C925 0.930 . S
C932 N933 1.314 . S
C932 C934 1.353 . S
C932 H938 0.930 . S
N933 Li883 1.990 . S
N933 C932 1.314 . S
N933 C936 1.279 . S
C934 C932 1.353 . S
C934 C937 1.348 . S
C934 H966 0.929 . S
C935 C936 1.358 . S
C935 C937 1.356 . S
C935 H967 0.930 . S
C936 N933 1.279 . S
C936 C935 1.358 . S
C936 H939 0.930 . S
C937 C934 1.348 . S
C937 C935 1.356 . S
H938 C932 0.930 . S
H939 C936 0.930 . S
O940 Li880 1.956 . S
O940 Li881 1.970 . S
O940 Li882 1.961 . S
O940 C884 1.325 . S
O941 Li880 1.970 . S
O941 Li881 1.956 . S
O941 Li883 1.961 . S
O941 C890 1.325 . S
O942 Li880 1.961 . S
O942 Li882 1.956 . S
O942 Li883 1.970 . S
O942 C912 1.325 . S
O943 Li881 1.961 . S
O943 Li882 1.970 . S
O943 Li883 1.956 . S
O943 C918 1.325 . S
H944 C886 0.929 . S
H945 C887 0.930 . S
H946 C888 0.930 . S
H947 C889 0.930 . S
H948 C891 0.930 . S
H949 C893 0.929 . S
H950 C894 0.930 . S
H951 C895 0.930 . S
H952 C898 0.930 . S
H953 C901 0.929 . S
H954 C906 0.929 . S
H955 C907 0.930 . S
H956 C914 0.929 . S
H957 C915 0.930 . S
H958 C916 0.930 . S
H959 C917 0.930 . S
H960 C919 0.929 . S
H961 C920 0.930 . S
H962 C921 0.930 . S
H963 C922 0.930 . S
H964 C926 0.929 . S
H965 C928 0.930 . S
H966 C934 0.929 . S
H967 C935 0.930 . S
Li968 N985 1.990 . S
Li968 O1028 1.956 . S
Li968 O1029 1.970 . S
Li968 O1030 1.961 . S
Li969 N993 1.990 . S
Li969 O1028 1.970 . S
Li969 O1029 1.956 . S
Li969 O1031 1.961 . S
Li970 N1015 1.990 . S
Li970 O1028 1.961 . S
Li970 O1030 1.956 . S
Li970 O1031 1.970 . S
Li971 N1021 1.990 . S
Li971 O1029 1.961 . S
Li971 O1030 1.970 . S
Li971 O1031 1.956 . S
C972 C974 1.348 . S
C972 C975 1.356 . S
C972 O1028 1.325 . S
N973 C976 1.314 . S
N973 C977 1.279 . S
C974 C972 1.348 . S
C974 C976 1.353 . S
C974 H1032 0.929 . S
C975 C972 1.356 . S
C975 C977 1.358 . S
C975 H1033 0.930 . S
C976 N973 1.314 . S
C976 C974 1.353 . S
C976 H1034 0.930 . S
C977 N973 1.279 . S
C977 C975 1.358 . S
C977 H1035 0.930 . S
C978 C981 1.348 . S
C978 C982 1.356 . S
C978 O1029 1.325 . S
C979 N980 1.279 . S
C979 C982 1.358 . S
C979 H1036 0.930 . S
N980 C979 1.279 . S
N980 C983 1.314 . S
C981 C978 1.348 . S
C981 C983 1.353 . S
C981 H1037 0.929 . S
C982 C978 1.356 . S
C982 C979 1.358 . S
C982 H1038 0.930 . S
C983 N980 1.314 . S
C983 C981 1.353 . S
C983 H1039 0.930 . S
C984 N985 1.314 . S
C984 C989 1.353 . S
C984 H990 0.930 . S
N985 Li968 1.990 . S
N985 C984 1.314 . S
N985 C987 1.279 . S
C986 C987 1.358 . S
C986 C988 1.356 . S
C986 H1040 0.930 . S
C987 N985 1.279 . S
C987 C986 1.358 . S
C987 H991 0.930 . S
C988 C986 1.356 . S
C988 C989 1.348 . S
C989 C984 1.353 . S
C989 C988 1.348 . S
C989 H1041 0.929 . S
H990 C984 0.930 . S
H991 C987 0.930 . S
C992 N993 1.314 . S
C992 C994 1.353 . S
C992 H998 0.930 . S
N993 Li969 1.990 . S
N993 C992 1.314 . S
N993 C996 1.279 . S
C994 C992 1.353 . S
C994 C997 1.348 . S
C994 H1042 0.929 . S
C995 C996 1.358 . S
C995 C997 1.356 . S
C995 H1043 0.930 . S
C996 N993 1.279 . S
C996 C995 1.358 . S
C996 H999 0.930 . S
C997 C994 1.348 . S
C997 C995 1.356 . S
H998 C992 0.930 . S
H999 C996 0.930 . S
C1000 C1002 1.348 . S
C1000 C1003 1.356 . S
C1000 O1030 1.325 . S
N1001 C1004 1.314 . S
N1001 C1005 1.279 . S
C1002 C1000 1.348 . S
C1002 C1004 1.353 . S
C1002 H1044 0.929 . S
C1003 C1000 1.356 . S
C1003 C1005 1.358 . S
C1003 H1045 0.930 . S
C1004 N1001 1.314 . S
C1004 C1002 1.353 . S
C1004 H1046 0.930 . S
C1005 N1001 1.279 . S
C1005 C1003 1.358 . S
C1005 H1047 0.930 . S
C1006 C1007 1.348 . S
C1006 C1008 1.356 . S
C1006 O1031 1.325 . S
C1007 C1006 1.348 . S
C1007 C1009 1.353 . S
C1007 H1048 0.929 . S
C1008 C1006 1.356 . S
C1008 C1010 1.358 . S
C1008 H1049 0.930 . S
C1009 C1007 1.353 . S
C1009 N1011 1.314 . S
C1009 H1050 0.930 . S
C1010 C1008 1.358 . S
C1010 N1011 1.279 . S
C1010 H1051 0.930 . S
N1011 C1009 1.314 . S
N1011 C1010 1.279 . S
C1012 C1014 1.353 . S
C1012 N1015 1.314 . S
C1012 H1018 0.930 . S
C1013 N1015 1.279 . S
C1013 C1016 1.358 . S
C1013 H1019 0.930 . S
C1014 C1012 1.353 . S
C1014 C1017 1.348 . S
C1014 H1052 0.929 . S
N1015 Li970 1.990 . S
N1015 C1012 1.314 . S
N1015 C1013 1.279 . S
C1016 C1013 1.358 . S
C1016 C1017 1.356 . S
C1016 H1053 0.930 . S
C1017 C1014 1.348 . S
C1017 C1016 1.356 . S
H1018 C1012 0.930 . S
H1019 C1013 0.930 . S
C1020 N1021 1.314 . S
C1020 C1022 1.353 . S
C1020 H1026 0.930 . S
N1021 Li971 1.990 . S
N1021 C1020 1.314 . S
N1021 C1024 1.279 . S
C1022 C1020 1.353 . S
C1022 C1025 1.348 . S
C1022 H1054 0.929 . S
C1023 C1024 1.358 . S
C1023 C1025 1.356 . S
C1023 H1055 0.930 . S
C1024 N1021 1.279 . S
C1024 C1023 1.358 . S
C1024 H1027 0.930 . S
C1025 C1022 1.348 . S
C1025 C1023 1.356 . S
H1026 C1020 0.930 . S
H1027 C1024 0.930 . S
O1028 Li968 1.956 . S
O1028 Li969 1.970 . S
O1028 Li970 1.961 . S
O1028 C972 1.325 . S
O1029 Li968 1.970 . S
O1029 Li969 1.956 . S
O1029 Li971 1.961 . S
O1029 C978 1.325 . S
O1030 Li968 1.961 . S
O1030 Li970 1.956 . S
O1030 Li971 1.970 . S
O1030 C1000 1.325 . S
O1031 Li969 1.961 . S
O1031 Li970 1.970 . S
O1031 Li971 1.956 . S
O1031 C1006 1.325 . S
H1032 C974 0.929 . S
H1033 C975 0.930 . S
H1034 C976 0.930 . S
H1035 C977 0.930 . S
H1036 C979 0.930 . S
H1037 C981 0.929 . S
H1038 C982 0.930 . S
H1039 C983 0.930 . S
H1040 C986 0.930 . S
H1041 C989 0.929 . S
H1042 C994 0.929 . S
H1043 C995 0.930 . S
H1044 C1002 0.929 . S
H1045 C1003 0.930 . S
H1046 C1004 0.930 . S
H1047 C1005 0.930 . S
H1048 C1007 0.929 . S
H1049 C1008 0.930 . S
H1050 C1009 0.930 . S
H1051 C1010 0.930 . S
H1052 C1014 0.929 . S
H1053 C1016 0.930 . S
H1054 C1022 0.929 . S
H1055 C1023 0.930 . S
Li1056 N1073 1.990 . S
Li1056 O1116 1.956 . S
Li1056 O1117 1.970 . S
Li1056 O1118 1.961 . S
Li1057 N1081 1.990 . S
Li1057 O1116 1.970 . S
Li1057 O1117 1.956 . S
Li1057 O1119 1.961 . S
Li1058 N1103 1.990 . S
Li1058 O1116 1.961 . S
Li1058 O1118 1.956 . S
Li1058 O1119 1.970 . S
Li1059 N1109 1.990 . S
Li1059 O1117 1.961 . S
Li1059 O1118 1.970 . S
Li1059 O1119 1.956 . S
C1060 C1062 1.348 . S
C1060 C1063 1.356 . S
C1060 O1116 1.325 . S
N1061 C1064 1.314 . S
N1061 C1065 1.279 . S
C1062 C1060 1.348 . S
C1062 C1064 1.353 . S
C1062 H1120 0.929 . S
C1063 C1060 1.356 . S
C1063 C1065 1.358 . S
C1063 H1121 0.930 . S
C1064 N1061 1.314 . S
C1064 C1062 1.353 . S
C1064 H1122 0.930 . S
C1065 N1061 1.279 . S
C1065 C1063 1.358 . S
C1065 H1123 0.930 . S
C1066 C1069 1.348 . S
C1066 C1070 1.356 . S
C1066 O1117 1.325 . S
C1067 N1068 1.279 . S
C1067 C1070 1.358 . S
C1067 H1124 0.930 . S
N1068 C1067 1.279 . S
N1068 C1071 1.314 . S
C1069 C1066 1.348 . S
C1069 C1071 1.353 . S
C1069 H1125 0.929 . S
C1070 C1066 1.356 . S
C1070 C1067 1.358 . S
C1070 H1126 0.930 . S
C1071 N1068 1.314 . S
C1071 C1069 1.353 . S
C1071 H1127 0.930 . S
C1072 N1073 1.314 . S
C1072 C1077 1.353 . S
C1072 H1078 0.930 . S
N1073 Li1056 1.990 . S
N1073 C1072 1.314 . S
N1073 C1075 1.279 . S
C1074 C1075 1.358 . S
C1074 C1076 1.356 . S
C1074 H1128 0.930 . S
C1075 N1073 1.279 . S
C1075 C1074 1.358 . S
C1075 H1079 0.930 . S
C1076 C1074 1.356 . S
C1076 C1077 1.348 . S
C1077 C1072 1.353 . S
C1077 C1076 1.348 . S
C1077 H1129 0.929 . S
H1078 C1072 0.930 . S
H1079 C1075 0.930 . S
C1080 N1081 1.314 . S
C1080 C1082 1.353 . S
C1080 H1086 0.930 . S
N1081 Li1057 1.990 . S
N1081 C1080 1.314 . S
N1081 C1084 1.279 . S
C1082 C1080 1.353 . S
C1082 C1085 1.348 . S
C1082 H1130 0.929 . S
C1083 C1084 1.358 . S
C1083 C1085 1.356 . S
C1083 H1131 0.930 . S
C1084 N1081 1.279 . S
C1084 C1083 1.358 . S
C1084 H1087 0.930 . S
C1085 C1082 1.348 . S
C1085 C1083 1.356 . S
H1086 C1080 0.930 . S
H1087 C1084 0.930 . S
C1088 C1090 1.348 . S
C1088 C1091 1.356 . S
C1088 O1118 1.325 . S
N1089 C1092 1.314 . S
N1089 C1093 1.279 . S
C1090 C1088 1.348 . S
C1090 C1092 1.353 . S
C1090 H1132 0.929 . S
C1091 C1088 1.356 . S
C1091 C1093 1.358 . S
C1091 H1133 0.930 . S
C1092 N1089 1.314 . S
C1092 C1090 1.353 . S
C1092 H1134 0.930 . S
C1093 N1089 1.279 . S
C1093 C1091 1.358 . S
C1093 H1135 0.930 . S
C1094 C1095 1.348 . S
C1094 C1096 1.356 . S
C1094 O1119 1.325 . S
C1095 C1094 1.348 . S
C1095 C1097 1.353 . S
C1095 H1136 0.929 . S
C1096 C1094 1.356 . S
C1096 C1098 1.358 . S
C1096 H1137 0.930 . S
C1097 C1095 1.353 . S
C1097 N1099 1.314 . S
C1097 H1138 0.930 . S
C1098 C1096 1.358 . S
C1098 N1099 1.279 . S
C1098 H1139 0.930 . S
N1099 C1097 1.314 . S
N1099 C1098 1.279 . S
C1100 C1102 1.353 . S
C1100 N1103 1.314 . S
C1100 H1106 0.930 . S
C1101 N1103 1.279 . S
C1101 C1104 1.358 . S
C1101 H1107 0.930 . S
C1102 C1100 1.353 . S
C1102 C1105 1.348 . S
C1102 H1140 0.929 . S
N1103 Li1058 1.990 . S
N1103 C1100 1.314 . S
N1103 C1101 1.279 . S
C1104 C1101 1.358 . S
C1104 C1105 1.356 . S
C1104 H1141 0.930 . S
C1105 C1102 1.348 . S
C1105 C1104 1.356 . S
H1106 C1100 0.930 . S
H1107 C1101 0.930 . S
C1108 N1109 1.314 . S
C1108 C1110 1.353 . S
C1108 H1114 0.930 . S
N1109 Li1059 1.990 . S
N1109 C1108 1.314 . S
N1109 C1112 1.279 . S
C1110 C1108 1.353 . S
C1110 C1113 1.348 . S
C1110 H1142 0.929 . S
C1111 C1112 1.358 . S
C1111 C1113 1.356 . S
C1111 H1143 0.930 . S
C1112 N1109 1.279 . S
C1112 C1111 1.358 . S
C1112 H1115 0.930 . S
C1113 C1110 1.348 . S
C1113 C1111 1.356 . S
H1114 C1108 0.930 . S
H1115 C1112 0.930 . S
O1116 Li1056 1.956 . S
O1116 Li1057 1.970 . S
O1116 Li1058 1.961 . S
O1116 C1060 1.325 . S
O1117 Li1056 1.970 . S
O1117 Li1057 1.956 . S
O1117 Li1059 1.961 . S
O1117 C1066 1.325 . S
O1118 Li1056 1.961 . S
O1118 Li1058 1.956 . S
O1118 Li1059 1.970 . S
O1118 C1088 1.325 . S
O1119 Li1057 1.961 . S
O1119 Li1058 1.970 . S
O1119 Li1059 1.956 . S
O1119 C1094 1.325 . S
H1120 C1062 0.929 . S
H1121 C1063 0.930 . S
H1122 C1064 0.930 . S
H1123 C1065 0.930 . S
H1124 C1067 0.930 . S
H1125 C1069 0.929 . S
H1126 C1070 0.930 . S
H1127 C1071 0.930 . S
H1128 C1074 0.930 . S
H1129 C1077 0.929 . S
H1130 C1082 0.929 . S
H1131 C1083 0.930 . S
H1132 C1090 0.929 . S
H1133 C1091 0.930 . S
H1134 C1092 0.930 . S
H1135 C1093 0.930 . S
H1136 C1095 0.929 . S
H1137 C1096 0.930 . S
H1138 C1097 0.930 . S
H1139 C1098 0.930 . S
H1140 C1102 0.929 . S
H1141 C1104 0.930 . S
H1142 C1110 0.929 . S
H1143 C1111 0.930 . S
Li1144 N1161 1.990 . S
Li1144 O1204 1.956 . S
Li1144 O1205 1.970 . S
Li1144 O1206 1.961 . S
Li1145 N1169 1.990 . S
Li1145 O1204 1.970 . S
Li1145 O1205 1.956 . S
Li1145 O1207 1.961 . S
Li1146 N1191 1.990 . S
Li1146 O1204 1.961 . S
Li1146 O1206 1.956 . S
Li1146 O1207 1.970 . S
Li1147 N1197 1.990 . S
Li1147 O1205 1.961 . S
Li1147 O1206 1.970 . S
Li1147 O1207 1.956 . S
C1148 C1150 1.348 . S
C1148 C1151 1.356 . S
C1148 O1204 1.325 . S
N1149 C1152 1.314 . S
N1149 C1153 1.279 . S
C1150 C1148 1.348 . S
C1150 C1152 1.353 . S
C1150 H1208 0.929 . S
C1151 C1148 1.356 . S
C1151 C1153 1.358 . S
C1151 H1209 0.930 . S
C1152 N1149 1.314 . S
C1152 C1150 1.353 . S
C1152 H1210 0.930 . S
C1153 N1149 1.279 . S
C1153 C1151 1.358 . S
C1153 H1211 0.930 . S
C1154 C1157 1.348 . S
C1154 C1158 1.356 . S
C1154 O1205 1.325 . S
C1155 N1156 1.279 . S
C1155 C1158 1.358 . S
C1155 H1212 0.930 . S
N1156 C1155 1.279 . S
N1156 C1159 1.314 . S
C1157 C1154 1.348 . S
C1157 C1159 1.353 . S
C1157 H1213 0.929 . S
C1158 C1154 1.356 . S
C1158 C1155 1.358 . S
C1158 H1214 0.930 . S
C1159 N1156 1.314 . S
C1159 C1157 1.353 . S
C1159 H1215 0.930 . S
C1160 N1161 1.314 . S
C1160 C1165 1.353 . S
C1160 H1166 0.930 . S
N1161 Li1144 1.990 . S
N1161 C1160 1.314 . S
N1161 C1163 1.279 . S
C1162 C1163 1.358 . S
C1162 C1164 1.356 . S
C1162 H1216 0.930 . S
C1163 N1161 1.279 . S
C1163 C1162 1.358 . S
C1163 H1167 0.930 . S
C1164 C1162 1.356 . S
C1164 C1165 1.348 . S
C1165 C1160 1.353 . S
C1165 C1164 1.348 . S
C1165 H1217 0.929 . S
H1166 C1160 0.930 . S
H1167 C1163 0.930 . S
C1168 N1169 1.314 . S
C1168 C1170 1.353 . S
C1168 H1174 0.930 . S
N1169 Li1145 1.990 . S
N1169 C1168 1.314 . S
N1169 C1172 1.279 . S
C1170 C1168 1.353 . S
C1170 C1173 1.348 . S
C1170 H1218 0.929 . S
C1171 C1172 1.358 . S
C1171 C1173 1.356 . S
C1171 H1219 0.930 . S
C1172 N1169 1.279 . S
C1172 C1171 1.358 . S
C1172 H1175 0.930 . S
C1173 C1170 1.348 . S
C1173 C1171 1.356 . S
H1174 C1168 0.930 . S
H1175 C1172 0.930 . S
C1176 C1178 1.348 . S
C1176 C1179 1.356 . S
C1176 O1206 1.325 . S
N1177 C1180 1.314 . S
N1177 C1181 1.279 . S
C1178 C1176 1.348 . S
C1178 C1180 1.353 . S
C1178 H1220 0.929 . S
C1179 C1176 1.356 . S
C1179 C1181 1.358 . S
C1179 H1221 0.930 . S
C1180 N1177 1.314 . S
C1180 C1178 1.353 . S
C1180 H1222 0.930 . S
C1181 N1177 1.279 . S
C1181 C1179 1.358 . S
C1181 H1223 0.930 . S
C1182 C1183 1.348 . S
C1182 C1184 1.356 . S
C1182 O1207 1.325 . S
C1183 C1182 1.348 . S
C1183 C1185 1.353 . S
C1183 H1224 0.929 . S
C1184 C1182 1.356 . S
C1184 C1186 1.358 . S
C1184 H1225 0.930 . S
C1185 C1183 1.353 . S
C1185 N1187 1.314 . S
C1185 H1226 0.930 . S
C1186 C1184 1.358 . S
C1186 N1187 1.279 . S
C1186 H1227 0.930 . S
N1187 C1185 1.314 . S
N1187 C1186 1.279 . S
C1188 C1190 1.353 . S
C1188 N1191 1.314 . S
C1188 H1194 0.930 . S
C1189 N1191 1.279 . S
C1189 C1192 1.358 . S
C1189 H1195 0.930 . S
C1190 C1188 1.353 . S
C1190 C1193 1.348 . S
C1190 H1228 0.929 . S
N1191 Li1146 1.990 . S
N1191 C1188 1.314 . S
N1191 C1189 1.279 . S
C1192 C1189 1.358 . S
C1192 C1193 1.356 . S
C1192 H1229 0.930 . S
C1193 C1190 1.348 . S
C1193 C1192 1.356 . S
H1194 C1188 0.930 . S
H1195 C1189 0.930 . S
C1196 N1197 1.314 . S
C1196 C1198 1.353 . S
C1196 H1202 0.930 . S
N1197 Li1147 1.990 . S
N1197 C1196 1.314 . S
N1197 C1200 1.279 . S
C1198 C1196 1.353 . S
C1198 C1201 1.348 . S
C1198 H1230 0.929 . S
C1199 C1200 1.358 . S
C1199 C1201 1.356 . S
C1199 H1231 0.930 . S
C1200 N1197 1.279 . S
C1200 C1199 1.358 . S
C1200 H1203 0.930 . S
C1201 C1198 1.348 . S
C1201 C1199 1.356 . S
H1202 C1196 0.930 . S
H1203 C1200 0.930 . S
O1204 Li1144 1.956 . S
O1204 Li1145 1.970 . S
O1204 Li1146 1.961 . S
O1204 C1148 1.325 . S
O1205 Li1144 1.970 . S
O1205 Li1145 1.956 . S
O1205 Li1147 1.961 . S
O1205 C1154 1.325 . S
O1206 Li1144 1.961 . S
O1206 Li1146 1.956 . S
O1206 Li1147 1.970 . S
O1206 C1176 1.325 . S
O1207 Li1145 1.961 . S
O1207 Li1146 1.970 . S
O1207 Li1147 1.956 . S
O1207 C1182 1.325 . S
H1208 C1150 0.929 . S
H1209 C1151 0.930 . S
H1210 C1152 0.930 . S
H1211 C1153 0.930 . S
H1212 C1155 0.930 . S
H1213 C1157 0.929 . S
H1214 C1158 0.930 . S
H1215 C1159 0.930 . S
H1216 C1162 0.930 . S
H1217 C1165 0.929 . S
H1218 C1170 0.929 . S
H1219 C1171 0.930 . S
H1220 C1178 0.929 . S
H1221 C1179 0.930 . S
H1222 C1180 0.930 . S
H1223 C1181 0.930 . S
H1224 C1183 0.929 . S
H1225 C1184 0.930 . S
H1226 C1185 0.930 . S
H1227 C1186 0.930 . S
H1228 C1190 0.929 . S
H1229 C1192 0.930 . S
H1230 C1198 0.929 . S
H1231 C1199 0.930 . S
Li1232 N1249 1.990 . S
Li1232 O1292 1.956 . S
Li1232 O1293 1.970 . S
Li1232 O1294 1.961 . S
Li1233 N1257 1.990 . S
Li1233 O1292 1.970 . S
Li1233 O1293 1.956 . S
Li1233 O1295 1.961 . S
Li1234 N1279 1.990 . S
Li1234 O1292 1.961 . S
Li1234 O1294 1.956 . S
Li1234 O1295 1.970 . S
Li1235 N1285 1.990 . S
Li1235 O1293 1.961 . S
Li1235 O1294 1.970 . S
Li1235 O1295 1.956 . S
C1236 C1238 1.348 . S
C1236 C1239 1.356 . S
C1236 O1292 1.325 . S
N1237 C1240 1.314 . S
N1237 C1241 1.279 . S
C1238 C1236 1.348 . S
C1238 C1240 1.353 . S
C1238 H1296 0.929 . S
C1239 C1236 1.356 . S
C1239 C1241 1.358 . S
C1239 H1297 0.930 . S
C1240 N1237 1.314 . S
C1240 C1238 1.353 . S
C1240 H1298 0.930 . S
C1241 N1237 1.279 . S
C1241 C1239 1.358 . S
C1241 H1299 0.930 . S
C1242 C1245 1.348 . S
C1242 C1246 1.356 . S
C1242 O1293 1.325 . S
C1243 N1244 1.279 . S
C1243 C1246 1.358 . S
C1243 H1300 0.930 . S
N1244 C1243 1.279 . S
N1244 C1247 1.314 . S
C1245 C1242 1.348 . S
C1245 C1247 1.353 . S
C1245 H1301 0.929 . S
C1246 C1242 1.356 . S
C1246 C1243 1.358 . S
C1246 H1302 0.930 . S
C1247 N1244 1.314 . S
C1247 C1245 1.353 . S
C1247 H1303 0.930 . S
C1248 N1249 1.314 . S
C1248 C1253 1.353 . S
C1248 H1254 0.930 . S
N1249 Li1232 1.990 . S
N1249 C1248 1.314 . S
N1249 C1251 1.279 . S
C1250 C1251 1.358 . S
C1250 C1252 1.356 . S
C1250 H1304 0.930 . S
C1251 N1249 1.279 . S
C1251 C1250 1.358 . S
C1251 H1255 0.930 . S
C1252 C1250 1.356 . S
C1252 C1253 1.348 . S
C1253 C1248 1.353 . S
C1253 C1252 1.348 . S
C1253 H1305 0.929 . S
H1254 C1248 0.930 . S
H1255 C1251 0.930 . S
C1256 N1257 1.314 . S
C1256 C1258 1.353 . S
C1256 H1262 0.930 . S
N1257 Li1233 1.990 . S
N1257 C1256 1.314 . S
N1257 C1260 1.279 . S
C1258 C1256 1.353 . S
C1258 C1261 1.348 . S
C1258 H1306 0.929 . S
C1259 C1260 1.358 . S
C1259 C1261 1.356 . S
C1259 H1307 0.930 . S
C1260 N1257 1.279 . S
C1260 C1259 1.358 . S
C1260 H1263 0.930 . S
C1261 C1258 1.348 . S
C1261 C1259 1.356 . S
H1262 C1256 0.930 . S
H1263 C1260 0.930 . S
C1264 C1266 1.348 . S
C1264 C1267 1.356 . S
C1264 O1294 1.325 . S
N1265 C1268 1.314 . S
N1265 C1269 1.279 . S
C1266 C1264 1.348 . S
C1266 C1268 1.353 . S
C1266 H1308 0.929 . S
C1267 C1264 1.356 . S
C1267 C1269 1.358 . S
C1267 H1309 0.930 . S
C1268 N1265 1.314 . S
C1268 C1266 1.353 . S
C1268 H1310 0.930 . S
C1269 N1265 1.279 . S
C1269 C1267 1.358 . S
C1269 H1311 0.930 . S
C1270 C1271 1.348 . S
C1270 C1272 1.356 . S
C1270 O1295 1.325 . S
C1271 C1270 1.348 . S
C1271 C1273 1.353 . S
C1271 H1312 0.929 . S
C1272 C1270 1.356 . S
C1272 C1274 1.358 . S
C1272 H1313 0.930 . S
C1273 C1271 1.353 . S
C1273 N1275 1.314 . S
C1273 H1314 0.930 . S
C1274 C1272 1.358 . S
C1274 N1275 1.279 . S
C1274 H1315 0.930 . S
N1275 C1273 1.314 . S
N1275 C1274 1.279 . S
C1276 C1278 1.353 . S
C1276 N1279 1.314 . S
C1276 H1282 0.930 . S
C1277 N1279 1.279 . S
C1277 C1280 1.358 . S
C1277 H1283 0.930 . S
C1278 C1276 1.353 . S
C1278 C1281 1.348 . S
C1278 H1316 0.929 . S
N1279 Li1234 1.990 . S
N1279 C1276 1.314 . S
N1279 C1277 1.279 . S
C1280 C1277 1.358 . S
C1280 C1281 1.356 . S
C1280 H1317 0.930 . S
C1281 C1278 1.348 . S
C1281 C1280 1.356 . S
H1282 C1276 0.930 . S
H1283 C1277 0.930 . S
C1284 N1285 1.314 . S
C1284 C1286 1.353 . S
C1284 H1290 0.930 . S
N1285 Li1235 1.990 . S
N1285 C1284 1.314 . S
N1285 C1288 1.279 . S
C1286 C1284 1.353 . S
C1286 C1289 1.348 . S
C1286 H1318 0.929 . S
C1287 C1288 1.358 . S
C1287 C1289 1.356 . S
C1287 H1319 0.930 . S
C1288 N1285 1.279 . S
C1288 C1287 1.358 . S
C1288 H1291 0.930 . S
C1289 C1286 1.348 . S
C1289 C1287 1.356 . S
H1290 C1284 0.930 . S
H1291 C1288 0.930 . S
O1292 Li1232 1.956 . S
O1292 Li1233 1.970 . S
O1292 Li1234 1.961 . S
O1292 C1236 1.325 . S
O1293 Li1232 1.970 . S
O1293 Li1233 1.956 . S
O1293 Li1235 1.961 . S
O1293 C1242 1.325 . S
O1294 Li1232 1.961 . S
O1294 Li1234 1.956 . S
O1294 Li1235 1.970 . S
O1294 C1264 1.325 . S
O1295 Li1233 1.961 . S
O1295 Li1234 1.970 . S
O1295 Li1235 1.956 . S
O1295 C1270 1.325 . S
H1296 C1238 0.929 . S
H1297 C1239 0.930 . S
H1298 C1240 0.930 . S
H1299 C1241 0.930 . S
H1300 C1243 0.930 . S
H1301 C1245 0.929 . S
H1302 C1246 0.930 . S
H1303 C1247 0.930 . S
H1304 C1250 0.930 . S
H1305 C1253 0.929 . S
H1306 C1258 0.929 . S
H1307 C1259 0.930 . S
H1308 C1266 0.929 . S
H1309 C1267 0.930 . S
H1310 C1268 0.930 . S
H1311 C1269 0.930 . S
H1312 C1271 0.929 . S
H1313 C1272 0.930 . S
H1314 C1273 0.930 . S
H1315 C1274 0.930 . S
H1316 C1278 0.929 . S
H1317 C1280 0.930 . S
H1318 C1286 0.929 . S
H1319 C1287 0.930 . S
Li1320 N1337 1.990 . S
Li1320 O1380 1.956 . S
Li1320 O1381 1.970 . S
Li1320 O1382 1.961 . S
Li1321 N1345 1.990 . S
Li1321 O1380 1.970 . S
Li1321 O1381 1.956 . S
Li1321 O1383 1.961 . S
Li1322 N1367 1.990 . S
Li1322 O1380 1.961 . S
Li1322 O1382 1.956 . S
Li1322 O1383 1.970 . S
Li1323 N1373 1.990 . S
Li1323 O1381 1.961 . S
Li1323 O1382 1.970 . S
Li1323 O1383 1.956 . S
C1324 C1326 1.348 . S
C1324 C1327 1.356 . S
C1324 O1380 1.325 . S
N1325 C1328 1.314 . S
N1325 C1329 1.279 . S
C1326 C1324 1.348 . S
C1326 C1328 1.353 . S
C1326 H1384 0.929 . S
C1327 C1324 1.356 . S
C1327 C1329 1.358 . S
C1327 H1385 0.930 . S
C1328 N1325 1.314 . S
C1328 C1326 1.353 . S
C1328 H1386 0.930 . S
C1329 N1325 1.279 . S
C1329 C1327 1.358 . S
C1329 H1387 0.930 . S
C1330 C1333 1.348 . S
C1330 C1334 1.356 . S
C1330 O1381 1.325 . S
C1331 N1332 1.279 . S
C1331 C1334 1.358 . S
C1331 H1388 0.930 . S
N1332 C1331 1.279 . S
N1332 C1335 1.314 . S
C1333 C1330 1.348 . S
C1333 C1335 1.353 . S
C1333 H1389 0.929 . S
C1334 C1330 1.356 . S
C1334 C1331 1.358 . S
C1334 H1390 0.930 . S
C1335 N1332 1.314 . S
C1335 C1333 1.353 . S
C1335 H1391 0.930 . S
C1336 N1337 1.314 . S
C1336 C1341 1.353 . S
C1336 H1342 0.930 . S
N1337 Li1320 1.990 . S
N1337 C1336 1.314 . S
N1337 C1339 1.279 . S
C1338 C1339 1.358 . S
C1338 C1340 1.356 . S
C1338 H1392 0.930 . S
C1339 N1337 1.279 . S
C1339 C1338 1.358 . S
C1339 H1343 0.930 . S
C1340 C1338 1.356 . S
C1340 C1341 1.348 . S
C1341 C1336 1.353 . S
C1341 C1340 1.348 . S
C1341 H1393 0.929 . S
H1342 C1336 0.930 . S
H1343 C1339 0.930 . S
C1344 N1345 1.314 . S
C1344 C1346 1.353 . S
C1344 H1350 0.930 . S
N1345 Li1321 1.990 . S
N1345 C1344 1.314 . S
N1345 C1348 1.279 . S
C1346 C1344 1.353 . S
C1346 C1349 1.348 . S
C1346 H1394 0.929 . S
C1347 C1348 1.358 . S
C1347 C1349 1.356 . S
C1347 H1395 0.930 . S
C1348 N1345 1.279 . S
C1348 C1347 1.358 . S
C1348 H1351 0.930 . S
C1349 C1346 1.348 . S
C1349 C1347 1.356 . S
H1350 C1344 0.930 . S
H1351 C1348 0.930 . S
C1352 C1354 1.348 . S
C1352 C1355 1.356 . S
C1352 O1382 1.325 . S
N1353 C1356 1.314 . S
N1353 C1357 1.279 . S
C1354 C1352 1.348 . S
C1354 C1356 1.353 . S
C1354 H1396 0.929 . S
C1355 C1352 1.356 . S
C1355 C1357 1.358 . S
C1355 H1397 0.930 . S
C1356 N1353 1.314 . S
C1356 C1354 1.353 . S
C1356 H1398 0.930 . S
C1357 N1353 1.279 . S
C1357 C1355 1.358 . S
C1357 H1399 0.930 . S
C1358 C1359 1.348 . S
C1358 C1360 1.356 . S
C1358 O1383 1.325 . S
C1359 C1358 1.348 . S
C1359 C1361 1.353 . S
C1359 H1400 0.929 . S
C1360 C1358 1.356 . S
C1360 C1362 1.358 . S
C1360 H1401 0.930 . S
C1361 C1359 1.353 . S
C1361 N1363 1.314 . S
C1361 H1402 0.930 . S
C1362 C1360 1.358 . S
C1362 N1363 1.279 . S
C1362 H1403 0.930 . S
N1363 C1361 1.314 . S
N1363 C1362 1.279 . S
C1364 C1366 1.353 . S
C1364 N1367 1.314 . S
C1364 H1370 0.930 . S
C1365 N1367 1.279 . S
C1365 C1368 1.358 . S
C1365 H1371 0.930 . S
C1366 C1364 1.353 . S
C1366 C1369 1.348 . S
C1366 H1404 0.929 . S
N1367 Li1322 1.990 . S
N1367 C1364 1.314 . S
N1367 C1365 1.279 . S
C1368 C1365 1.358 . S
C1368 C1369 1.356 . S
C1368 H1405 0.930 . S
C1369 C1366 1.348 . S
C1369 C1368 1.356 . S
H1370 C1364 0.930 . S
H1371 C1365 0.930 . S
C1372 N1373 1.314 . S
C1372 C1374 1.353 . S
C1372 H1378 0.930 . S
N1373 Li1323 1.990 . S
N1373 C1372 1.314 . S
N1373 C1376 1.279 . S
C1374 C1372 1.353 . S
C1374 C1377 1.348 . S
C1374 H1406 0.929 . S
C1375 C1376 1.358 . S
C1375 C1377 1.356 . S
C1375 H1407 0.930 . S
C1376 N1373 1.279 . S
C1376 C1375 1.358 . S
C1376 H1379 0.930 . S
C1377 C1374 1.348 . S
C1377 C1375 1.356 . S
H1378 C1372 0.930 . S
H1379 C1376 0.930 . S
O1380 Li1320 1.956 . S
O1380 Li1321 1.970 . S
O1380 Li1322 1.961 . S
O1380 C1324 1.325 . S
O1381 Li1320 1.970 . S
O1381 Li1321 1.956 . S
O1381 Li1323 1.961 . S
O1381 C1330 1.325 . S
O1382 Li1320 1.961 . S
O1382 Li1322 1.956 . S
O1382 Li1323 1.970 . S
O1382 C1352 1.325 . S
O1383 Li1321 1.961 . S
O1383 Li1322 1.970 . S
O1383 Li1323 1.956 . S
O1383 C1358 1.325 . S
H1384 C1326 0.929 . S
H1385 C1327 0.930 . S
H1386 C1328 0.930 . S
H1387 C1329 0.930 . S
H1388 C1331 0.930 . S
H1389 C1333 0.929 . S
H1390 C1334 0.930 . S
H1391 C1335 0.930 . S
H1392 C1338 0.930 . S
H1393 C1341 0.929 . S
H1394 C1346 0.929 . S
H1395 C1347 0.930 . S
H1396 C1354 0.929 . S
H1397 C1355 0.930 . S
H1398 C1356 0.930 . S
H1399 C1357 0.930 . S
H1400 C1359 0.929 . S
H1401 C1360 0.930 . S
H1402 C1361 0.930 . S
H1403 C1362 0.930 . S
H1404 C1366 0.929 . S
H1405 C1368 0.930 . S
H1406 C1374 0.929 . S
H1407 C1375 0.930 . S
Li1408 N1425 1.990 . S
Li1408 O1468 1.956 . S
Li1408 O1469 1.970 . S
Li1408 O1470 1.961 . S
Li1409 N1433 1.990 . S
Li1409 O1468 1.970 . S
Li1409 O1469 1.956 . S
Li1409 O1471 1.961 . S
Li1410 N1455 1.990 . S
Li1410 O1468 1.961 . S
Li1410 O1470 1.956 . S
Li1410 O1471 1.970 . S
Li1411 N1461 1.990 . S
Li1411 O1469 1.961 . S
Li1411 O1470 1.970 . S
Li1411 O1471 1.956 . S
C1412 C1414 1.348 . S
C1412 C1415 1.356 . S
C1412 O1468 1.325 . S
N1413 C1416 1.314 . S
N1413 C1417 1.279 . S
C1414 C1412 1.348 . S
C1414 C1416 1.353 . S
C1414 H1472 0.929 . S
C1415 C1412 1.356 . S
C1415 C1417 1.358 . S
C1415 H1473 0.930 . S
C1416 N1413 1.314 . S
C1416 C1414 1.353 . S
C1416 H1474 0.930 . S
C1417 N1413 1.279 . S
C1417 C1415 1.358 . S
C1417 H1475 0.930 . S
C1418 C1421 1.348 . S
C1418 C1422 1.356 . S
C1418 O1469 1.325 . S
C1419 N1420 1.279 . S
C1419 C1422 1.358 . S
C1419 H1476 0.930 . S
N1420 C1419 1.279 . S
N1420 C1423 1.314 . S
C1421 C1418 1.348 . S
C1421 C1423 1.353 . S
C1421 H1477 0.929 . S
C1422 C1418 1.356 . S
C1422 C1419 1.358 . S
C1422 H1478 0.930 . S
C1423 N1420 1.314 . S
C1423 C1421 1.353 . S
C1423 H1479 0.930 . S
C1424 N1425 1.314 . S
C1424 C1429 1.353 . S
C1424 H1430 0.930 . S
N1425 Li1408 1.990 . S
N1425 C1424 1.314 . S
N1425 C1427 1.279 . S
C1426 C1427 1.358 . S
C1426 C1428 1.356 . S
C1426 H1480 0.930 . S
C1427 N1425 1.279 . S
C1427 C1426 1.358 . S
C1427 H1431 0.930 . S
C1428 C1426 1.356 . S
C1428 C1429 1.348 . S
C1429 C1424 1.353 . S
C1429 C1428 1.348 . S
C1429 H1481 0.929 . S
H1430 C1424 0.930 . S
H1431 C1427 0.930 . S
C1432 N1433 1.314 . S
C1432 C1434 1.353 . S
C1432 H1438 0.930 . S
N1433 Li1409 1.990 . S
N1433 C1432 1.314 . S
N1433 C1436 1.279 . S
C1434 C1432 1.353 . S
C1434 C1437 1.348 . S
C1434 H1482 0.929 . S
C1435 C1436 1.358 . S
C1435 C1437 1.356 . S
C1435 H1483 0.930 . S
C1436 N1433 1.279 . S
C1436 C1435 1.358 . S
C1436 H1439 0.930 . S
C1437 C1434 1.348 . S
C1437 C1435 1.356 . S
H1438 C1432 0.930 . S
H1439 C1436 0.930 . S
C1440 C1442 1.348 . S
C1440 C1443 1.356 . S
C1440 O1470 1.325 . S
N1441 C1444 1.314 . S
N1441 C1445 1.279 . S
C1442 C1440 1.348 . S
C1442 C1444 1.353 . S
C1442 H1484 0.929 . S
C1443 C1440 1.356 . S
C1443 C1445 1.358 . S
C1443 H1485 0.930 . S
C1444 N1441 1.314 . S
C1444 C1442 1.353 . S
C1444 H1486 0.930 . S
C1445 N1441 1.279 . S
C1445 C1443 1.358 . S
C1445 H1487 0.930 . S
C1446 C1447 1.348 . S
C1446 C1448 1.356 . S
C1446 O1471 1.325 . S
C1447 C1446 1.348 . S
C1447 C1449 1.353 . S
C1447 H1488 0.929 . S
C1448 C1446 1.356 . S
C1448 C1450 1.358 . S
C1448 H1489 0.930 . S
C1449 C1447 1.353 . S
C1449 N1451 1.314 . S
C1449 H1490 0.930 . S
C1450 C1448 1.358 . S
C1450 N1451 1.279 . S
C1450 H1491 0.930 . S
N1451 C1449 1.314 . S
N1451 C1450 1.279 . S
C1452 C1454 1.353 . S
C1452 N1455 1.314 . S
C1452 H1458 0.930 . S
C1453 N1455 1.279 . S
C1453 C1456 1.358 . S
C1453 H1459 0.930 . S
C1454 C1452 1.353 . S
C1454 C1457 1.348 . S
C1454 H1492 0.929 . S
N1455 Li1410 1.990 . S
N1455 C1452 1.314 . S
N1455 C1453 1.279 . S
C1456 C1453 1.358 . S
C1456 C1457 1.356 . S
C1456 H1493 0.930 . S
C1457 C1454 1.348 . S
C1457 C1456 1.356 . S
H1458 C1452 0.930 . S
H1459 C1453 0.930 . S
C1460 N1461 1.314 . S
C1460 C1462 1.353 . S
C1460 H1466 0.930 . S
N1461 Li1411 1.990 . S
N1461 C1460 1.314 . S
N1461 C1464 1.279 . S
C1462 C1460 1.353 . S
C1462 C1465 1.348 . S
C1462 H1494 0.929 . S
C1463 C1464 1.358 . S
C1463 C1465 1.356 . S
C1463 H1495 0.930 . S
C1464 N1461 1.279 . S
C1464 C1463 1.358 . S
C1464 H1467 0.930 . S
C1465 C1462 1.348 . S
C1465 C1463 1.356 . S
H1466 C1460 0.930 . S
H1467 C1464 0.930 . S
O1468 Li1408 1.956 . S
O1468 Li1409 1.970 . S
O1468 Li1410 1.961 . S
O1468 C1412 1.325 . S
O1469 Li1408 1.970 . S
O1469 Li1409 1.956 . S
O1469 Li1411 1.961 . S
O1469 C1418 1.325 . S
O1470 Li1408 1.961 . S
O1470 Li1410 1.956 . S
O1470 Li1411 1.970 . S
O1470 C1440 1.325 . S
O1471 Li1409 1.961 . S
O1471 Li1410 1.970 . S
O1471 Li1411 1.956 . S
O1471 C1446 1.325 . S
H1472 C1414 0.929 . S
H1473 C1415 0.930 . S
H1474 C1416 0.930 . S
H1475 C1417 0.930 . S
H1476 C1419 0.930 . S
H1477 C1421 0.929 . S
H1478 C1422 0.930 . S
H1479 C1423 0.930 . S
H1480 C1426 0.930 . S
H1481 C1429 0.929 . S
H1482 C1434 0.929 . S
H1483 C1435 0.930 . S
H1484 C1442 0.929 . S
H1485 C1443 0.930 . S
H1486 C1444 0.930 . S
H1487 C1445 0.930 . S
H1488 C1447 0.929 . S
H1489 C1448 0.930 . S
H1490 C1449 0.930 . S
H1491 C1450 0.930 . S
H1492 C1454 0.929 . S
H1493 C1456 0.930 . S
H1494 C1462 0.929 . S
H1495 C1463 0.930 . S
Li1496 N1513 1.990 . S
Li1496 O1556 1.956 . S
Li1496 O1557 1.970 . S
Li1496 O1558 1.961 . S
Li1497 N1521 1.990 . S
Li1497 O1556 1.970 . S
Li1497 O1557 1.956 . S
Li1497 O1559 1.961 . S
Li1498 N1543 1.990 . S
Li1498 O1556 1.961 . S
Li1498 O1558 1.956 . S
Li1498 O1559 1.970 . S
Li1499 N1549 1.990 . S
Li1499 O1557 1.961 . S
Li1499 O1558 1.970 . S
Li1499 O1559 1.956 . S
C1500 C1502 1.348 . S
C1500 C1503 1.356 . S
C1500 O1556 1.325 . S
N1501 C1504 1.314 . S
N1501 C1505 1.279 . S
C1502 C1500 1.348 . S
C1502 C1504 1.353 . S
C1502 H1560 0.929 . S
C1503 C1500 1.356 . S
C1503 C1505 1.358 . S
C1503 H1561 0.930 . S
C1504 N1501 1.314 . S
C1504 C1502 1.353 . S
C1504 H1562 0.930 . S
C1505 N1501 1.279 . S
C1505 C1503 1.358 . S
C1505 H1563 0.930 . S
C1506 C1509 1.348 . S
C1506 C1510 1.356 . S
C1506 O1557 1.325 . S
C1507 N1508 1.279 . S
C1507 C1510 1.358 . S
C1507 H1564 0.930 . S
N1508 C1507 1.279 . S
N1508 C1511 1.314 . S
C1509 C1506 1.348 . S
C1509 C1511 1.353 . S
C1509 H1565 0.929 . S
C1510 C1506 1.356 . S
C1510 C1507 1.358 . S
C1510 H1566 0.930 . S
C1511 N1508 1.314 . S
C1511 C1509 1.353 . S
C1511 H1567 0.930 . S
C1512 N1513 1.314 . S
C1512 C1517 1.353 . S
C1512 H1518 0.930 . S
N1513 Li1496 1.990 . S
N1513 C1512 1.314 . S
N1513 C1515 1.279 . S
C1514 C1515 1.358 . S
C1514 C1516 1.356 . S
C1514 H1568 0.930 . S
C1515 N1513 1.279 . S
C1515 C1514 1.358 . S
C1515 H1519 0.930 . S
C1516 C1514 1.356 . S
C1516 C1517 1.348 . S
C1517 C1512 1.353 . S
C1517 C1516 1.348 . S
C1517 H1569 0.929 . S
H1518 C1512 0.930 . S
H1519 C1515 0.930 . S
C1520 N1521 1.314 . S
C1520 C1522 1.353 . S
C1520 H1526 0.930 . S
N1521 Li1497 1.990 . S
N1521 C1520 1.314 . S
N1521 C1524 1.279 . S
C1522 C1520 1.353 . S
C1522 C1525 1.348 . S
C1522 H1570 0.929 . S
C1523 C1524 1.358 . S
C1523 C1525 1.356 . S
C1523 H1571 0.930 . S
C1524 N1521 1.279 . S
C1524 C1523 1.358 . S
C1524 H1527 0.930 . S
C1525 C1522 1.348 . S
C1525 C1523 1.356 . S
H1526 C1520 0.930 . S
H1527 C1524 0.930 . S
C1528 C1530 1.348 . S
C1528 C1531 1.356 . S
C1528 O1558 1.325 . S
N1529 C1532 1.314 . S
N1529 C1533 1.279 . S
C1530 C1528 1.348 . S
C1530 C1532 1.353 . S
C1530 H1572 0.929 . S
C1531 C1528 1.356 . S
C1531 C1533 1.358 . S
C1531 H1573 0.930 . S
C1532 N1529 1.314 . S
C1532 C1530 1.353 . S
C1532 H1574 0.930 . S
C1533 N1529 1.279 . S
C1533 C1531 1.358 . S
C1533 H1575 0.930 . S
C1534 C1535 1.348 . S
C1534 C1536 1.356 . S
C1534 O1559 1.325 . S
C1535 C1534 1.348 . S
C1535 C1537 1.353 . S
C1535 H1576 0.929 . S
C1536 C1534 1.356 . S
C1536 C1538 1.358 . S
C1536 H1577 0.930 . S
C1537 C1535 1.353 . S
C1537 N1539 1.314 . S
C1537 H1578 0.930 . S
C1538 C1536 1.358 . S
C1538 N1539 1.279 . S
C1538 H1579 0.930 . S
N1539 C1537 1.314 . S
N1539 C1538 1.279 . S
C1540 C1542 1.353 . S
C1540 N1543 1.314 . S
C1540 H1546 0.930 . S
C1541 N1543 1.279 . S
C1541 C1544 1.358 . S
C1541 H1547 0.930 . S
C1542 C1540 1.353 . S
C1542 C1545 1.348 . S
C1542 H1580 0.929 . S
N1543 Li1498 1.990 . S
N1543 C1540 1.314 . S
N1543 C1541 1.279 . S
C1544 C1541 1.358 . S
C1544 C1545 1.356 . S
C1544 H1581 0.930 . S
C1545 C1542 1.348 . S
C1545 C1544 1.356 . S
H1546 C1540 0.930 . S
H1547 C1541 0.930 . S
C1548 N1549 1.314 . S
C1548 C1550 1.353 . S
C1548 H1554 0.930 . S
N1549 Li1499 1.990 . S
N1549 C1548 1.314 . S
N1549 C1552 1.279 . S
C1550 C1548 1.353 . S
C1550 C1553 1.348 . S
C1550 H1582 0.929 . S
C1551 C1552 1.358 . S
C1551 C1553 1.356 . S
C1551 H1583 0.930 . S
C1552 N1549 1.279 . S
C1552 C1551 1.358 . S
C1552 H1555 0.930 . S
C1553 C1550 1.348 . S
C1553 C1551 1.356 . S
H1554 C1548 0.930 . S
H1555 C1552 0.930 . S
O1556 Li1496 1.956 . S
O1556 Li1497 1.970 . S
O1556 Li1498 1.961 . S
O1556 C1500 1.325 . S
O1557 Li1496 1.970 . S
O1557 Li1497 1.956 . S
O1557 Li1499 1.961 . S
O1557 C1506 1.325 . S
O1558 Li1496 1.961 . S
O1558 Li1498 1.956 . S
O1558 Li1499 1.970 . S
O1558 C1528 1.325 . S
O1559 Li1497 1.961 . S
O1559 Li1498 1.970 . S
O1559 Li1499 1.956 . S
O1559 C1534 1.325 . S
H1560 C1502 0.929 . S
H1561 C1503 0.930 . S
H1562 C1504 0.930 . S
H1563 C1505 0.930 . S
H1564 C1507 0.930 . S
H1565 C1509 0.929 . S
H1566 C1510 0.930 . S
H1567 C1511 0.930 . S
H1568 C1514 0.930 . S
H1569 C1517 0.929 . S
H1570 C1522 0.929 . S
H1571 C1523 0.930 . S
H1572 C1530 0.929 . S
H1573 C1531 0.930 . S
H1574 C1532 0.930 . S
H1575 C1533 0.930 . S
H1576 C1535 0.929 . S
H1577 C1536 0.930 . S
H1578 C1537 0.930 . S
H1579 C1538 0.930 . S
H1580 C1542 0.929 . S
H1581 C1544 0.930 . S
H1582 C1550 0.929 . S
H1583 C1551 0.930 . S
H1584 C1592 0.929 . S
H1585 C1594 0.930 . S
H1586 C1596 0.930 . S
H1587 C1599 0.929 . S
H1588 C1602 0.930 . S
H1589 C1604 0.960 . S
H1590 C1604 0.960 . S
H1591 C1604 0.960 . S
C1592 H1584 0.929 . S
C1592 C1593 1.377 . S
C1592 C1594 1.384 . S
C1593 C1592 1.377 . S
C1593 C1599 1.390 . S
C1594 H1585 0.930 . S
C1594 C1592 1.384 . S
C1594 C1595 1.372 . S
C1595 C1594 1.372 . S
C1595 C1596 1.400 . S
C1595 C1600 1.490 . S
C1596 H1586 0.930 . S
C1596 C1595 1.400 . S
C1596 C1599 1.386 . S
H1597 C1613 0.930 . S
H1598 C1614 0.931 . S
C1599 H1587 0.929 . S
C1599 C1593 1.390 . S
C1599 C1596 1.386 . S
C1600 C1595 1.490 . S
C1600 C1602 1.395 . S
C1600 C1603 1.403 . S
H1601 C1607 0.930 . S
C1602 H1588 0.930 . S
C1602 C1600 1.395 . S
C1602 C1605 1.403 . S
C1603 C1600 1.403 . S
C1603 C1604 1.524 . S
C1603 C1607 1.400 . S
C1604 H1589 0.960 . S
C1604 H1590 0.960 . S
C1604 H1591 0.960 . S
C1604 C1603 1.524 . S
C1605 C1602 1.403 . S
C1605 C1606 1.392 . S
C1605 C1609 1.495 . S
C1606 C1605 1.392 . S
C1606 C1607 1.385 . S
C1606 C1608 1.478 . S
C1607 H1601 0.930 . S
C1607 C1603 1.400 . S
C1607 C1606 1.385 . S
C1608 C1606 1.478 . S
C1608 C1610 1.381 . S
C1608 C1614 1.383 . S
C1609 C1605 1.495 . S
C1609 H1615 0.959 . S
C1609 H1616 0.961 . S
C1609 H1617 0.960 . S
C1610 C1608 1.381 . S
C1610 C1611 1.394 . S
C1610 H1618 0.930 . S
C1611 C1610 1.394 . S
C1611 C1612 1.383 . S
C1611 H1619 0.929 . S
C1612 C1611 1.383 . S
C1612 C1613 1.377 . S
C1613 H1597 0.930 . S
C1613 C1612 1.377 . S
C1613 C1614 1.379 . S
C1614 H1598 0.931 . S
C1614 C1608 1.383 . S
C1614 C1613 1.379 . S
H1615 C1609 0.959 . S
H1616 C1609 0.961 . S
H1617 C1609 0.960 . S
H1618 C1610 0.930 . S
H1619 C1611 0.929 . S
H1620 C1628 0.929 1_565 S
H1621 C1630 0.945 . S
H1622 C1632 0.930 . S
H1623 C1635 0.929 . S
H1624 C1638 0.930 . S
H1625 C1640 0.960 . S
H1626 C1640 0.960 . S
H1627 C1640 0.960 . S
C1628 H1620 0.929 1_545 S
C1628 C1629 1.377 . S
C1628 C1630 1.384 . S
C1629 C1628 1.377 . S
C1629 C1635 1.390 . S
C1630 H1621 0.945 . S
C1630 C1628 1.384 . S
C1630 C1631 1.372 . S
C1631 C1630 1.372 . S
C1631 C1632 1.400 . S
C1631 C1636 1.490 . S
C1632 H1622 0.930 . S
C1632 C1631 1.400 . S
C1632 C1635 1.386 . S
H1633 C1649 0.930 . S
H1634 C1650 0.931 . S
C1635 H1623 0.929 . S
C1635 C1629 1.390 . S
C1635 C1632 1.386 . S
C1636 C1631 1.490 . S
C1636 C1638 1.395 . S
C1636 C1639 1.403 . S
H1637 C1643 0.930 . S
C1638 H1624 0.930 . S
C1638 C1636 1.395 . S
C1638 C1641 1.403 . S
C1639 C1636 1.403 . S
C1639 C1640 1.524 . S
C1639 C1643 1.400 . S
C1640 H1625 0.960 . S
C1640 H1626 0.960 . S
C1640 H1627 0.960 . S
C1640 C1639 1.524 . S
C1641 C1638 1.403 . S
C1641 C1642 1.392 . S
C1641 C1645 1.495 . S
C1642 C1641 1.392 . S
C1642 C1643 1.385 . S
C1642 C1644 1.478 . S
C1643 H1637 0.930 . S
C1643 C1639 1.400 . S
C1643 C1642 1.385 . S
C1644 C1642 1.478 . S
C1644 C1646 1.381 . S
C1644 C1650 1.383 . S
C1645 C1641 1.495 . S
C1645 H1651 0.959 . S
C1645 H1652 0.961 . S
C1645 H1653 0.960 . S
C1646 C1644 1.381 . S
C1646 C1647 1.394 . S
C1646 H1654 0.930 . S
C1647 C1646 1.394 . S
C1647 C1648 1.383 . S
C1647 H1655 0.929 . S
C1648 C1647 1.383 . S
C1648 C1649 1.377 . S
C1649 H1633 0.930 . S
C1649 C1648 1.377 . S
C1649 C1650 1.379 . S
C1650 H1634 0.931 . S
C1650 C1644 1.383 . S
C1650 C1649 1.379 . S
H1651 C1645 0.959 . S
H1652 C1645 0.961 . S
H1653 C1645 0.960 . S
H1654 C1646 0.930 . S
H1655 C1647 0.929 . S
H1656 C1664 0.929 . S
H1657 C1666 0.930 . S
H1658 C1668 0.930 . S
H1659 C1671 0.929 . S
H1660 C1674 0.930 . S
H1661 C1676 0.960 . S
H1662 C1676 0.960 . S
H1663 C1676 0.960 . S
C1664 H1656 0.929 . S
C1664 C1665 1.377 . S
C1664 C1666 1.384 . S
C1665 C1664 1.377 . S
C1665 C1671 1.390 . S
C1666 H1657 0.930 . S
C1666 C1664 1.384 . S
C1666 C1667 1.372 . S
C1667 C1666 1.372 . S
C1667 C1668 1.400 . S
C1667 C1672 1.490 . S
C1668 H1658 0.930 . S
C1668 C1667 1.400 . S
C1668 C1671 1.386 . S
H1669 C1685 0.930 . S
H1670 C1686 0.931 . S
C1671 H1659 0.929 . S
C1671 C1665 1.390 . S
C1671 C1668 1.386 . S
C1672 C1667 1.490 . S
C1672 C1674 1.395 . S
C1672 C1675 1.403 . S
H1673 C1679 0.930 . S
C1674 H1660 0.930 . S
C1674 C1672 1.395 . S
C1674 C1677 1.403 . S
C1675 C1672 1.403 . S
C1675 C1676 1.524 . S
C1675 C1679 1.400 . S
C1676 H1661 0.960 . S
C1676 H1662 0.960 . S
C1676 H1663 0.960 . S
C1676 C1675 1.524 . S
C1677 C1674 1.403 . S
C1677 C1678 1.392 . S
C1677 C1681 1.495 . S
C1678 C1677 1.392 . S
C1678 C1679 1.385 . S
C1678 C1680 1.478 . S
C1679 H1673 0.930 . S
C1679 C1675 1.400 . S
C1679 C1678 1.385 . S
C1680 C1678 1.478 . S
C1680 C1682 1.381 . S
C1680 C1686 1.383 . S
C1681 C1677 1.495 . S
C1681 H1687 0.959 . S
C1681 H1688 0.961 . S
C1681 H1689 0.960 . S
C1682 C1680 1.381 . S
C1682 C1683 1.394 . S
C1682 H1690 0.930 . S
C1683 C1682 1.394 . S
C1683 C1684 1.383 . S
C1683 H1691 0.929 . S
C1684 C1683 1.383 . S
C1684 C1685 1.377 . S
C1685 H1669 0.930 . S
C1685 C1684 1.377 . S
C1685 C1686 1.379 . S
C1686 H1670 0.931 . S
C1686 C1680 1.383 . S
C1686 C1685 1.379 . S
H1687 C1681 0.959 . S
H1688 C1681 0.961 . S
H1689 C1681 0.960 . S
H1690 C1682 0.930 . S
H1691 C1683 0.929 . S
H1692 C1700 0.929 . S
H1693 C1702 0.930 . S
H1694 C1704 0.930 . S
H1695 C1707 0.929 . S
H1696 C1710 0.930 . S
H1697 C1712 0.960 . S
H1698 C1712 0.960 . S
H1699 C1712 0.960 . S
C1700 H1692 0.929 . S
C1700 C1701 1.377 . S
C1700 C1702 1.384 . S
C1701 C1700 1.377 . S
C1701 C1707 1.390 . S
C1702 H1693 0.930 . S
C1702 C1700 1.384 . S
C1702 C1703 1.372 . S
C1703 C1702 1.372 . S
C1703 C1704 1.400 . S
C1703 C1708 1.490 . S
C1704 H1694 0.930 . S
C1704 C1703 1.400 . S
C1704 C1707 1.386 . S
H1705 C1721 0.930 . S
H1706 C1722 0.931 . S
C1707 H1695 0.929 . S
C1707 C1701 1.390 . S
C1707 C1704 1.386 . S
C1708 C1703 1.490 . S
C1708 C1710 1.395 . S
C1708 C1711 1.403 . S
H1709 C1715 0.930 . S
C1710 H1696 0.930 . S
C1710 C1708 1.395 . S
C1710 C1713 1.403 . S
C1711 C1708 1.403 . S
C1711 C1712 1.524 . S
C1711 C1715 1.400 . S
C1712 H1697 0.960 . S
C1712 H1698 0.960 . S
C1712 H1699 0.960 . S
C1712 C1711 1.524 . S
C1713 C1710 1.403 . S
C1713 C1714 1.392 . S
C1713 C1717 1.495 . S
C1714 C1713 1.392 . S
C1714 C1715 1.385 . S
C1714 C1716 1.478 . S
C1715 H1709 0.930 . S
C1715 C1711 1.400 . S
C1715 C1714 1.385 . S
C1716 C1714 1.478 . S
C1716 C1718 1.381 . S
C1716 C1722 1.383 . S
C1717 C1713 1.495 . S
C1717 H1723 0.959 . S
C1717 H1724 0.961 . S
C1717 H1725 0.960 . S
C1718 C1716 1.381 . S
C1718 C1719 1.394 . S
C1718 H1726 0.930 . S
C1719 C1718 1.394 . S
C1719 C1720 1.383 . S
C1719 H1727 0.929 . S
C1720 C1719 1.383 . S
C1720 C1721 1.377 . S
C1721 H1705 0.930 . S
C1721 C1720 1.377 . S
C1721 C1722 1.379 . S
C1722 H1706 0.931 . S
C1722 C1716 1.383 . S
C1722 C1721 1.379 . S
H1723 C1717 0.959 . S
H1724 C1717 0.961 . S
H1725 C1717 0.960 . S
H1726 C1718 0.930 . S
H1727 C1719 0.929 . S
H1728 C1736 0.929 . S
H1729 C1738 0.930 . S
H1730 C1740 0.930 . S
H1731 C1743 0.929 . S
H1732 C1746 0.930 . S
H1733 C1748 0.960 . S
H1734 C1748 0.960 . S
H1735 C1748 0.960 . S
C1736 H1728 0.929 . S
C1736 C1737 1.377 . S
C1736 C1738 1.384 . S
C1737 C1736 1.377 . S
C1737 C1743 1.390 . S
C1738 H1729 0.930 . S
C1738 C1736 1.384 . S
C1738 C1739 1.372 . S
C1739 C1738 1.372 . S
C1739 C1740 1.400 . S
C1739 C1744 1.490 . S
C1740 H1730 0.930 . S
C1740 C1739 1.400 . S
C1740 C1743 1.386 . S
H1741 C1757 0.930 . S
H1742 C1758 0.931 . S
C1743 H1731 0.929 . S
C1743 C1737 1.390 . S
C1743 C1740 1.386 . S
C1744 C1739 1.490 . S
C1744 C1746 1.395 . S
C1744 C1747 1.403 . S
H1745 C1751 0.930 . S
C1746 H1732 0.930 . S
C1746 C1744 1.395 . S
C1746 C1749 1.403 . S
C1747 C1744 1.403 . S
C1747 C1748 1.524 . S
C1747 C1751 1.400 . S
C1748 H1733 0.960 . S
C1748 H1734 0.960 . S
C1748 H1735 0.960 . S
C1748 C1747 1.524 . S
C1749 C1746 1.403 . S
C1749 C1750 1.392 . S
C1749 C1753 1.495 . S
C1750 C1749 1.392 . S
C1750 C1751 1.385 . S
C1750 C1752 1.478 . S
C1751 H1745 0.930 . S
C1751 C1747 1.400 . S
C1751 C1750 1.385 . S
C1752 C1750 1.478 . S
C1752 C1754 1.381 . S
C1752 C1758 1.383 . S
C1753 C1749 1.495 . S
C1753 H1759 0.959 . S
C1753 H1760 0.961 . S
C1753 H1761 0.960 . S
C1754 C1752 1.381 . S
C1754 C1755 1.394 . S
C1754 H1762 0.930 . S
C1755 C1754 1.394 . S
C1755 C1756 1.383 . S
C1755 H1763 0.929 . S
C1756 C1755 1.383 . S
C1756 C1757 1.377 . S
C1757 H1741 0.930 . S
C1757 C1756 1.377 . S
C1757 C1758 1.379 . S
C1758 H1742 0.931 . S
C1758 C1752 1.383 . S
C1758 C1757 1.379 . S
H1759 C1753 0.959 . S
H1760 C1753 0.961 . S
H1761 C1753 0.960 . S
H1762 C1754 0.930 . S
H1763 C1755 0.929 . S
H1764 C1772 0.929 . S
H1765 C1774 0.930 . S
H1766 C1776 0.930 . S
H1767 C1779 0.929 . S
H1768 C1782 0.930 . S
H1769 C1784 0.960 . S
H1770 C1784 0.960 . S
H1771 C1784 0.960 . S
C1772 H1764 0.929 . S
C1772 C1773 1.377 . S
C1772 C1774 1.384 . S
C1773 C1772 1.377 . S
C1773 C1779 1.390 . S
C1774 H1765 0.930 . S
C1774 C1772 1.384 . S
C1774 C1775 1.372 . S
C1775 C1774 1.372 . S
C1775 C1776 1.400 . S
C1775 C1780 1.490 . S
C1776 H1766 0.930 . S
C1776 C1775 1.400 . S
C1776 C1779 1.386 . S
H1777 C1793 0.930 . S
H1778 C1794 0.931 . S
C1779 H1767 0.929 . S
C1779 C1773 1.390 . S
C1779 C1776 1.386 . S
C1780 C1775 1.490 . S
C1780 C1782 1.395 . S
C1780 C1783 1.403 . S
H1781 C1787 0.930 . S
C1782 H1768 0.930 . S
C1782 C1780 1.395 . S
C1782 C1785 1.403 . S
C1783 C1780 1.403 . S
C1783 C1784 1.524 . S
C1783 C1787 1.400 . S
C1784 H1769 0.960 . S
C1784 H1770 0.960 . S
C1784 H1771 0.960 . S
C1784 C1783 1.524 . S
C1785 C1782 1.403 . S
C1785 C1786 1.392 . S
C1785 C1789 1.495 . S
C1786 C1785 1.392 . S
C1786 C1787 1.385 . S
C1786 C1788 1.478 . S
C1787 H1781 0.930 . S
C1787 C1783 1.400 . S
C1787 C1786 1.385 . S
C1788 C1786 1.478 . S
C1788 C1790 1.381 . S
C1788 C1794 1.383 . S
C1789 C1785 1.495 . S
C1789 H1795 0.959 1_455 S
C1789 H1796 0.961 1_455 S
C1789 H1797 0.960 . S
C1790 C1788 1.381 . S
C1790 C1791 1.394 . S
C1790 H1798 0.930 . S
C1791 C1790 1.394 . S
C1791 C1792 1.383 . S
C1791 H1799 0.929 . S
C1792 C1791 1.383 . S
C1792 C1793 1.377 . S
C1793 H1777 0.930 . S
C1793 C1792 1.377 . S
C1793 C1794 1.379 . S
C1794 H1778 0.931 . S
C1794 C1788 1.383 . S
C1794 C1793 1.379 . S
H1795 C1789 0.959 1_655 S
H1796 C1789 0.961 1_655 S
H1797 C1789 0.960 . S
H1798 C1790 0.930 . S
H1799 C1791 0.929 . S
H1800 C1808 0.929 . S
H1801 C1810 0.930 . S
H1802 C1812 0.930 . S
H1803 C1815 0.929 . S
H1804 C1818 0.930 . S
H1805 C1820 0.960 . S
H1806 C1820 0.960 . S
H1807 C1820 0.960 . S
C1808 H1800 0.929 . S
C1808 C1809 1.377 . S
C1808 C1810 1.384 . S
C1809 C1808 1.377 . S
C1809 C1815 1.390 . S
C1810 H1801 0.930 . S
C1810 C1808 1.384 . S
C1810 C1811 1.372 . S
C1811 C1810 1.372 . S
C1811 C1812 1.400 . S
C1811 C1816 1.490 . S
C1812 H1802 0.930 . S
C1812 C1811 1.400 . S
C1812 C1815 1.386 . S
H1813 C1829 0.930 . S
H1814 C1830 0.931 . S
C1815 H1803 0.929 . S
C1815 C1809 1.390 . S
C1815 C1812 1.386 . S
C1816 C1811 1.490 . S
C1816 C1818 1.395 . S
C1816 C1819 1.403 . S
H1817 C1823 0.930 . S
C1818 H1804 0.930 . S
C1818 C1816 1.395 . S
C1818 C1821 1.403 1_655 S
C1819 C1816 1.403 . S
C1819 C1820 1.524 . S
C1819 C1823 1.400 1_655 S
C1820 H1805 0.960 . S
C1820 H1806 0.960 . S
C1820 H1807 0.960 . S
C1820 C1819 1.524 . S
C1821 C1818 1.403 1_455 S
C1821 C1822 1.392 . S
C1821 C1825 1.495 . S
C1822 C1821 1.392 . S
C1822 C1823 1.385 . S
C1822 C1824 1.478 . S
C1823 H1817 0.930 . S
C1823 C1819 1.400 1_455 S
C1823 C1822 1.385 . S
C1824 C1822 1.478 . S
C1824 C1826 1.381 . S
C1824 C1830 1.383 . S
C1825 C1821 1.495 . S
C1825 H1831 0.959 1_455 S
C1825 H1832 0.961 . S
C1825 H1833 0.960 . S
C1826 C1824 1.381 . S
C1826 C1827 1.394 . S
C1826 H1834 0.930 . S
C1827 C1826 1.394 . S
C1827 C1828 1.383 . S
C1827 H1835 0.929 . S
C1828 C1827 1.383 . S
C1828 C1829 1.377 . S
C1829 H1813 0.930 . S
C1829 C1828 1.377 . S
C1829 C1830 1.379 . S
C1830 H1814 0.931 . S
C1830 C1824 1.383 . S
C1830 C1829 1.379 . S
H1831 C1825 0.959 1_655 S
H1832 C1825 0.961 . S
H1833 C1825 0.960 . S
H1834 C1826 0.930 . S
H1835 C1827 0.929 . S
H1836 C1844 0.929 . S
H1837 C1846 0.930 . S
H1838 C1848 0.930 . S
H1839 C1851 0.929 . S
H1840 C1854 0.930 . S
H1841 C1856 0.960 . S
H1842 C1856 0.960 . S
H1843 C1856 0.960 . S
C1844 H1836 0.929 . S
C1844 C1845 1.377 . S
C1844 C1846 1.384 . S
C1845 C1844 1.377 . S
C1845 C1851 1.390 . S
C1846 H1837 0.930 . S
C1846 C1844 1.384 . S
C1846 C1847 1.372 . S
C1847 C1846 1.372 . S
C1847 C1848 1.400 . S
C1847 C1852 1.490 . S
C1848 H1838 0.930 . S
C1848 C1847 1.400 . S
C1848 C1851 1.386 . S
H1849 C1865 0.930 . S
H1850 C1866 0.931 . S
C1851 H1839 0.929 . S
C1851 C1845 1.390 . S
C1851 C1848 1.386 . S
C1852 C1847 1.490 . S
C1852 C1854 1.395 . S
C1852 C1855 1.403 . S
H1853 C1859 0.930 . S
C1854 H1840 0.930 . S
C1854 C1852 1.395 . S
C1854 C1857 1.403 . S
C1855 C1852 1.403 . S
C1855 C1856 1.524 . S
C1855 C1859 1.400 . S
C1856 H1841 0.960 . S
C1856 H1842 0.960 . S
C1856 H1843 0.960 . S
C1856 C1855 1.524 . S
C1857 C1854 1.403 . S
C1857 C1858 1.392 . S
C1857 C1861 1.495 . S
C1858 C1857 1.392 . S
C1858 C1859 1.385 . S
C1858 C1860 1.478 . S
C1859 H1853 0.930 . S
C1859 C1855 1.400 . S
C1859 C1858 1.385 . S
C1860 C1858 1.478 . S
C1860 C1862 1.381 . S
C1860 C1866 1.383 . S
C1861 C1857 1.495 . S
C1861 H1867 0.959 . S
C1861 H1868 0.961 . S
C1861 H1869 0.960 . S
C1862 C1860 1.381 . S
C1862 C1863 1.394 . S
C1862 H1870 0.930 . S
C1863 C1862 1.394 . S
C1863 C1864 1.383 . S
C1863 H1871 0.929 . S
C1864 C1863 1.383 . S
C1864 C1865 1.377 . S
C1865 H1849 0.930 . S
C1865 C1864 1.377 . S
C1865 C1866 1.379 . S
C1866 H1850 0.931 . S
C1866 C1860 1.383 . S
C1866 C1865 1.379 . S
H1867 C1861 0.959 . S
H1868 C1861 0.961 . S
H1869 C1861 0.960 . S
H1870 C1862 0.930 . S
H1871 C1863 0.929 . S
H1872 C1880 0.929 . S
H1873 C1882 0.930 . S
H1874 C1884 0.930 . S
H1875 C1887 0.929 . S
H1876 C1890 0.930 . S
H1877 C1892 0.960 . S
H1878 C1892 0.960 1_545 S
H1879 C1892 0.960 . S
C1880 H1872 0.929 . S
C1880 C1881 1.377 . S
C1880 C1882 1.384 . S
C1881 C1880 1.377 . S
C1881 C1887 1.390 . S
C1882 H1873 0.930 . S
C1882 C1880 1.384 . S
C1882 C1883 1.372 . S
C1883 C1882 1.372 . S
C1883 C1884 1.400 . S
C1883 C1888 1.490 . S
C1884 H1874 0.930 . S
C1884 C1883 1.400 . S
C1884 C1887 1.386 . S
H1885 C1901 0.930 . S
H1886 C1902 0.931 . S
C1887 H1875 0.929 . S
C1887 C1881 1.390 . S
C1887 C1884 1.386 . S
C1888 C1883 1.490 . S
C1888 C1890 1.395 . S
C1888 C1891 1.403 1_545 S
H1889 C1895 0.930 . S
C1890 H1876 0.930 . S
C1890 C1888 1.395 . S
C1890 C1893 1.403 1_545 S
C1891 C1888 1.403 1_565 S
C1891 C1892 1.524 . S
C1891 C1895 1.400 . S
C1892 H1877 0.960 . S
C1892 H1878 0.960 1_565 S
C1892 H1879 0.960 . S
C1892 C1891 1.524 . S
C1893 C1890 1.403 1_565 S
C1893 C1894 1.392 . S
C1893 C1897 1.490 1_565 S
C1894 C1893 1.392 . S
C1894 C1895 1.385 . S
C1894 C1896 1.478 . S
C1895 H1889 0.930 . S
C1895 C1891 1.400 . S
C1895 C1894 1.385 . S
C1896 C1894 1.478 . S
C1896 C1898 1.381 . S
C1896 C1902 1.383 . S
C1897 C1893 1.490 1_545 S
C1897 H1903 0.978 . S
C1897 H1904 0.958 1_545 S
C1897 H1905 0.950 1_545 S
C1898 C1896 1.381 . S
C1898 C1899 1.394 . S
C1898 H1906 0.930 . S
C1899 C1898 1.394 . S
C1899 C1900 1.383 . S
C1899 H1907 0.929 . S
C1900 C1899 1.383 . S
C1900 C1901 1.377 . S
C1901 H1885 0.930 . S
C1901 C1900 1.377 . S
C1901 C1902 1.379 . S
C1902 H1886 0.931 . S
C1902 C1896 1.383 . S
C1902 C1901 1.379 . S
H1903 C1897 0.978 . S
H1904 C1897 0.958 1_565 S
H1905 C1897 0.950 1_565 S
H1906 C1898 0.930 . S
H1907 C1899 0.929 . S
H1908 C1916 0.929 . S
H1909 C1918 0.930 . S
H1910 C1920 0.930 . S
H1911 C1923 0.929 . S
H1912 C1926 0.930 . S
H1913 C1928 1.023 . S
H1914 C1928 0.960 . S
H1915 C1928 0.960 . S
C1916 H1908 0.929 . S
C1916 C1917 1.377 . S
C1916 C1918 1.384 . S
C1917 C1916 1.377 . S
C1917 C1923 1.390 . S
C1918 H1909 0.930 . S
C1918 C1916 1.384 . S
C1918 C1919 1.372 . S
C1919 C1918 1.372 . S
C1919 C1920 1.400 . S
C1919 C1924 1.490 . S
C1920 H1910 0.930 . S
C1920 C1919 1.400 . S
C1920 C1923 1.386 . S
H1921 C1937 0.930 . S
H1922 C1938 0.931 . S
C1923 H1911 0.929 . S
C1923 C1917 1.390 . S
C1923 C1920 1.386 . S
C1924 C1919 1.490 . S
C1924 C1926 1.395 . S
C1924 C1927 1.403 . S
H1925 C1931 0.930 . S
C1926 H1912 0.930 . S
C1926 C1924 1.395 . S
C1926 C1929 1.403 1_455 S
C1927 C1924 1.403 . S
C1927 C1928 1.524 . S
C1927 C1931 1.400 1_455 S
C1928 H1913 1.023 . S
C1928 H1914 0.960 . S
C1928 H1915 0.960 . S
C1928 C1927 1.524 . S
C1929 C1926 1.403 1_655 S
C1929 C1930 1.392 . S
C1929 C1933 1.495 . S
C1930 C1929 1.392 . S
C1930 C1931 1.385 . S
C1930 C1932 1.478 . S
C1931 H1925 0.930 . S
C1931 C1927 1.400 1_655 S
C1931 C1930 1.385 . S
C1932 C1930 1.478 . S
C1932 C1934 1.381 . S
C1932 C1938 1.383 . S
C1933 C1929 1.495 . S
C1933 H1939 0.959 1_655 S
C1933 H1940 0.961 . S
C1933 H1941 0.960 . S
C1934 C1932 1.381 . S
C1934 C1935 1.394 . S
C1934 H1942 0.930 . S
C1935 C1934 1.394 . S
C1935 C1936 1.383 . S
C1935 H1943 0.929 . S
C1936 C1935 1.383 . S
C1936 C1937 1.377 . S
C1937 H1921 0.930 . S
C1937 C1936 1.377 . S
C1937 C1938 1.379 . S
C1938 H1922 0.931 . S
C1938 C1932 1.383 . S
C1938 C1937 1.379 . S
H1939 C1933 0.959 1_455 S
H1940 C1933 0.961 . S
H1941 C1933 0.960 . S
H1942 C1934 0.930 . S
H1943 C1935 0.929 . S
H1944 C1952 0.929 . S
H1945 C1954 0.930 . S
H1946 C1956 0.930 . S
H1947 C1959 0.929 . S
H1948 C1962 0.930 . S
H1949 C1964 0.960 . S
H1950 C1964 0.960 . S
H1951 C1964 0.960 . S
C1952 H1944 0.929 . S
C1952 C1953 1.377 . S
C1952 C1954 1.384 . S
C1953 C1952 1.377 . S
C1953 C1959 1.390 . S
C1954 H1945 0.930 . S
C1954 C1952 1.384 . S
C1954 C1955 1.372 . S
C1955 C1954 1.372 . S
C1955 C1956 1.400 . S
C1955 C1960 1.490 . S
C1956 H1946 0.930 . S
C1956 C1955 1.400 . S
C1956 C1959 1.386 . S
H1957 C1973 0.930 . S
H1958 C1974 0.931 . S
C1959 H1947 0.929 . S
C1959 C1953 1.390 . S
C1959 C1956 1.386 . S
C1960 C1955 1.490 . S
C1960 C1962 1.395 . S
C1960 C1963 1.403 . S
H1961 C1967 0.930 . S
C1962 H1948 0.930 . S
C1962 C1960 1.395 . S
C1962 C1965 1.403 . S
C1963 C1960 1.403 . S
C1963 C1964 1.524 . S
C1963 C1967 1.400 . S
C1964 H1949 0.960 . S
C1964 H1950 0.960 . S
C1964 H1951 0.960 . S
C1964 C1963 1.524 . S
C1965 C1962 1.403 . S
C1965 C1966 1.392 . S
C1965 C1969 1.495 . S
C1966 C1965 1.392 . S
C1966 C1967 1.385 . S
C1966 C1968 1.478 . S
C1967 H1961 0.930 . S
C1967 C1963 1.400 . S
C1967 C1966 1.385 . S
C1968 C1966 1.478 . S
C1968 C1970 1.381 . S
C1968 C1974 1.383 . S
C1969 C1965 1.495 . S
C1969 H1975 0.959 . S
C1969 H1976 0.961 . S
C1969 H1977 0.960 . S
C1970 C1968 1.381 . S
C1970 C1971 1.394 . S
C1970 H1978 0.930 . S
C1971 C1970 1.394 . S
C1971 C1972 1.383 . S
C1971 H1979 0.929 . S
C1972 C1971 1.383 . S
C1972 C1973 1.377 . S
C1973 H1957 0.930 . S
C1973 C1972 1.377 . S
C1973 C1974 1.379 . S
C1974 H1958 0.931 . S
C1974 C1968 1.383 . S
C1974 C1973 1.379 . S
H1975 C1969 0.959 . S
H1976 C1969 0.961 . S
H1977 C1969 0.960 . S
H1978 C1970 0.930 . S
H1979 C1971 0.929 . S
H1980 C1988 0.929 . S
H1981 C1990 0.930 . S
H1982 C1992 0.930 . S
H1983 C1995 0.929 . S
H1984 C1998 0.930 . S
H1985 C2000 0.960 . S
H1986 C2000 0.960 . S
H1987 C2000 0.960 . S
C1988 H1980 0.929 . S
C1988 C1989 1.377 . S
C1988 C1990 1.384 . S
C1989 C1988 1.377 . S
C1989 C1995 1.390 . S
C1990 H1981 0.930 . S
C1990 C1988 1.384 . S
C1990 C1991 1.372 . S
C1991 C1990 1.372 . S
C1991 C1992 1.400 . S
C1991 C1996 1.490 . S
C1992 H1982 0.930 . S
C1992 C1991 1.400 . S
C1992 C1995 1.386 . S
H1993 C2009 0.930 . S
H1994 C2010 0.931 . S
C1995 H1983 0.929 . S
C1995 C1989 1.390 . S
C1995 C1992 1.386 . S
C1996 C1991 1.490 . S
C1996 C1998 1.395 . S
C1996 C1999 1.403 . S
H1997 C2003 0.930 . S
C1998 H1984 0.930 . S
C1998 C1996 1.395 . S
C1998 C2001 1.403 1_545 S
C1999 C1996 1.403 . S
C1999 C2000 1.524 . S
C1999 C2003 1.400 1_545 S
C2000 H1985 0.960 . S
C2000 H1986 0.960 . S
C2000 H1987 0.960 . S
C2000 C1999 1.524 . S
C2001 C1998 1.403 1_565 S
C2001 C2002 1.392 . S
C2001 C2005 1.495 . S
C2002 C2001 1.392 . S
C2002 C2003 1.385 . S
C2002 C2004 1.478 . S
C2003 H1997 0.930 . S
C2003 C1999 1.400 1_565 S
C2003 C2002 1.385 . S
C2004 C2002 1.478 . S
C2004 C2006 1.381 . S
C2004 C2010 1.383 . S
C2005 C2001 1.495 . S
C2005 H2011 0.959 . S
C2005 H2012 0.961 . S
C2005 H2013 0.960 . S
C2006 C2004 1.381 . S
C2006 C2007 1.394 . S
C2006 H2014 0.930 . S
C2007 C2006 1.394 . S
C2007 C2008 1.383 . S
C2007 H2015 0.929 . S
C2008 C2007 1.383 . S
C2008 C2009 1.377 . S
C2009 H1993 0.930 . S
C2009 C2008 1.377 . S
C2009 C2010 1.379 . S
C2010 H1994 0.931 . S
C2010 C2004 1.383 . S
C2010 C2009 1.379 . S
H2011 C2005 0.959 . S
H2012 C2005 0.961 . S
H2013 C2005 0.960 . S
H2014 C2006 0.930 . S
H2015 C2007 0.929 . S
H2016 C2024 0.929 . S
H2017 C2026 0.930 . S
H2018 C2028 0.930 . S
H2019 C2031 0.929 . S
H2020 C2034 0.930 . S
H2021 C2036 0.960 . S
H2022 C2036 0.960 . S
H2023 C2036 0.960 . S
C2024 H2016 0.929 . S
C2024 C2025 1.377 . S
C2024 C2026 1.384 . S
C2025 C2024 1.377 . S
C2025 C2031 1.390 . S
C2026 H2017 0.930 . S
C2026 C2024 1.384 . S
C2026 C2027 1.372 . S
C2027 C2026 1.372 . S
C2027 C2028 1.400 . S
C2027 C2032 1.490 . S
C2028 H2018 0.930 . S
C2028 C2027 1.400 . S
C2028 C2031 1.386 . S
H2029 C2045 0.930 . S
H2030 C2046 0.931 . S
C2031 H2019 0.929 . S
C2031 C2025 1.390 . S
C2031 C2028 1.386 . S
C2032 C2027 1.490 . S
C2032 C2034 1.395 . S
C2032 C2035 1.403 . S
H2033 C2039 0.930 . S
C2034 H2020 0.930 . S
C2034 C2032 1.395 . S
C2034 C2037 1.403 1_565 S
C2035 C2032 1.403 . S
C2035 C2036 1.524 . S
C2035 C2039 1.400 1_565 S
C2036 H2021 0.960 . S
C2036 H2022 0.960 . S
C2036 H2023 0.960 . S
C2036 C2035 1.524 . S
C2037 C2034 1.403 1_545 S
C2037 C2038 1.392 . S
C2037 C2041 1.495 . S
C2038 C2037 1.392 . S
C2038 C2039 1.385 . S
C2038 C2040 1.478 . S
C2039 H2033 0.930 . S
C2039 C2035 1.400 1_545 S
C2039 C2038 1.385 . S
C2040 C2038 1.478 . S
C2040 C2042 1.381 . S
C2040 C2046 1.383 . S
C2041 C2037 1.495 . S
C2041 H2047 0.959 . S
C2041 H2048 0.961 . S
C2041 H2049 0.960 . S
C2042 C2040 1.381 . S
C2042 C2043 1.394 . S
C2042 H2050 0.930 . S
C2043 C2042 1.394 . S
C2043 C2044 1.383 . S
C2043 H2051 0.929 . S
C2044 C2043 1.383 . S
C2044 C2045 1.377 . S
C2045 H2029 0.930 . S
C2045 C2044 1.377 . S
C2045 C2046 1.379 . S
C2046 H2030 0.931 . S
C2046 C2040 1.383 . S
C2046 C2045 1.379 . S
H2047 C2041 0.959 . S
H2048 C2041 0.961 . S
H2049 C2041 0.960 . S
H2050 C2042 0.930 . S
H2051 C2043 0.929 . S
H2052 C2060 0.929 . S
H2053 C2062 0.930 . S
H2054 C2064 0.930 . S
H2055 C2067 0.929 . S
H2056 C2070 0.930 . S
H2057 C2072 0.960 . S
H2058 C2072 0.960 . S
H2059 C2072 0.960 . S
C2060 H2052 0.929 . S
C2060 C2061 1.377 . S
C2060 C2062 1.384 . S
C2061 C2060 1.377 . S
C2061 C2067 1.390 . S
C2062 H2053 0.930 . S
C2062 C2060 1.384 . S
C2062 C2063 1.372 . S
C2063 C2062 1.372 . S
C2063 C2064 1.400 . S
C2063 C2068 1.490 . S
C2064 H2054 0.930 . S
C2064 C2063 1.400 . S
C2064 C2067 1.386 . S
H2065 C2081 0.930 . S
H2066 C2082 0.931 . S
C2067 H2055 0.929 . S
C2067 C2061 1.390 . S
C2067 C2064 1.386 . S
C2068 C2063 1.490 . S
C2068 C2070 1.395 . S
C2068 C2071 1.403 . S
H2069 C2075 0.930 . S
C2070 H2056 0.930 . S
C2070 C2068 1.395 . S
C2070 C2073 1.403 1_455 S
C2071 C2068 1.403 . S
C2071 C2072 1.524 . S
C2071 C2075 1.400 1_455 S
C2072 H2057 0.960 . S
C2072 H2058 0.960 . S
C2072 H2059 0.960 . S
C2072 C2071 1.524 . S
C2073 C2070 1.403 1_655 S
C2073 C2074 1.392 . S
C2073 C2077 1.495 . S
C2074 C2073 1.392 . S
C2074 C2075 1.385 . S
C2074 C2076 1.478 . S
C2075 H2069 0.930 . S
C2075 C2071 1.400 1_655 S
C2075 C2074 1.385 . S
C2076 C2074 1.478 . S
C2076 C2078 1.381 . S
C2076 C2082 1.383 . S
C2077 C2073 1.495 . S
C2077 H2083 0.959 . S
C2077 H2084 0.961 . S
C2077 H2085 0.960 . S
C2078 C2076 1.381 . S
C2078 C2079 1.394 . S
C2078 H2086 0.930 . S
C2079 C2078 1.394 . S
C2079 C2080 1.383 . S
C2079 H2087 0.929 . S
C2080 C2079 1.383 . S
C2080 C2081 1.377 . S
C2081 H2065 0.930 . S
C2081 C2080 1.377 . S
C2081 C2082 1.379 . S
C2082 H2066 0.931 . S
C2082 C2076 1.383 . S
C2082 C2081 1.379 . S
H2083 C2077 0.959 . S
H2084 C2077 0.961 . S
H2085 C2077 0.960 . S
H2086 C2078 0.930 . S
H2087 C2079 0.929 . S
H2088 C2096 0.929 . S
H2089 C2098 0.930 . S
H2090 C2100 0.930 . S
H2091 C2103 0.929 . S
H2092 C2106 0.930 . S
H2093 C2108 0.960 . S
H2094 C2108 0.960 . S
H2095 C2108 0.960 . S
C2096 H2088 0.929 . S
C2096 C2097 1.377 . S
C2096 C2098 1.384 . S
C2097 C2096 1.377 . S
C2097 C2103 1.390 . S
C2098 H2089 0.930 . S
C2098 C2096 1.384 . S
C2098 C2099 1.372 . S
C2099 C2098 1.372 . S
C2099 C2100 1.400 . S
C2099 C2104 1.490 . S
C2100 H2090 0.930 . S
C2100 C2099 1.400 . S
C2100 C2103 1.386 . S
H2101 C2117 0.930 . S
H2102 C2118 0.931 . S
C2103 H2091 0.929 . S
C2103 C2097 1.390 . S
C2103 C2100 1.386 . S
C2104 C2099 1.490 . S
C2104 C2106 1.395 . S
C2104 C2107 1.403 . S
H2105 C2111 0.930 . S
C2106 H2092 0.930 . S
C2106 C2104 1.395 . S
C2106 C2109 1.403 . S
C2107 C2104 1.403 . S
C2107 C2108 1.524 . S
C2107 C2111 1.400 . S
C2108 H2093 0.960 . S
C2108 H2094 0.960 . S
C2108 H2095 0.960 . S
C2108 C2107 1.524 . S
C2109 C2106 1.403 . S
C2109 C2110 1.392 . S
C2109 C2113 1.495 . S
C2110 C2109 1.392 . S
C2110 C2111 1.385 . S
C2110 C2112 1.478 . S
C2111 H2105 0.930 . S
C2111 C2107 1.400 . S
C2111 C2110 1.385 . S
C2112 C2110 1.478 . S
C2112 C2114 1.381 . S
C2112 C2118 1.383 . S
C2113 C2109 1.495 . S
C2113 H2119 0.959 . S
C2113 H2120 0.961 . S
C2113 H2121 0.960 . S
C2114 C2112 1.381 . S
C2114 C2115 1.394 . S
C2114 H2122 0.930 . S
C2115 C2114 1.394 . S
C2115 C2116 1.383 . S
C2115 H2123 0.929 . S
C2116 C2115 1.383 . S
C2116 C2117 1.377 . S
C2117 H2101 0.930 . S
C2117 C2116 1.377 . S
C2117 C2118 1.379 . S
C2118 H2102 0.931 . S
C2118 C2112 1.383 . S
C2118 C2117 1.379 . S
H2119 C2113 0.959 . S
H2120 C2113 0.961 . S
H2121 C2113 0.960 . S
H2122 C2114 0.930 . S
H2123 C2115 0.929 . S
H2124 C2132 0.929 . S
H2125 C2134 0.930 . S
H2126 C2136 0.930 . S
H2127 C2139 0.929 . S
H2128 C2142 0.930 . S
H2129 C2144 0.960 . S
H2130 C2144 0.960 . S
H2131 C2144 0.960 . S
C2132 H2124 0.929 . S
C2132 C2133 1.377 . S
C2132 C2134 1.384 . S
C2133 C2132 1.377 . S
C2133 C2139 1.390 . S
C2134 H2125 0.930 . S
C2134 C2132 1.384 . S
C2134 C2135 1.372 . S
C2135 C2134 1.372 . S
C2135 C2136 1.400 . S
C2135 C2140 1.490 . S
C2136 H2126 0.930 . S
C2136 C2135 1.400 . S
C2136 C2139 1.386 . S
H2137 C2153 0.930 . S
H2138 C2154 0.931 . S
C2139 H2127 0.929 . S
C2139 C2133 1.390 . S
C2139 C2136 1.386 . S
C2140 C2135 1.490 . S
C2140 C2142 1.395 . S
C2140 C2143 1.403 . S
H2141 C2147 0.930 . S
C2142 H2128 0.930 . S
C2142 C2140 1.395 . S
C2142 C2145 1.403 . S
C2143 C2140 1.403 . S
C2143 C2144 1.524 . S
C2143 C2147 1.400 . S
C2144 H2129 0.960 . S
C2144 H2130 0.960 . S
C2144 H2131 0.960 . S
C2144 C2143 1.524 . S
C2145 C2142 1.403 . S
C2145 C2146 1.392 . S
C2145 C2149 1.495 . S
C2146 C2145 1.392 . S
C2146 C2147 1.385 . S
C2146 C2148 1.478 . S
C2147 H2141 0.930 . S
C2147 C2143 1.400 . S
C2147 C2146 1.385 . S
C2148 C2146 1.478 . S
C2148 C2150 1.381 . S
C2148 C2154 1.383 . S
C2149 C2145 1.495 . S
C2149 H2155 0.959 . S
C2149 H2156 0.961 . S
C2149 H2157 0.960 . S
C2150 C2148 1.381 . S
C2150 C2151 1.394 . S
C2150 H2158 0.930 . S
C2151 C2150 1.394 . S
C2151 C2152 1.383 . S
C2151 H2159 0.929 . S
C2152 C2151 1.383 . S
C2152 C2153 1.377 . S
C2153 H2137 0.930 . S
C2153 C2152 1.377 . S
C2153 C2154 1.379 . S
C2154 H2138 0.931 . S
C2154 C2148 1.383 . S
C2154 C2153 1.379 . S
H2155 C2149 0.959 . S
H2156 C2149 0.961 . S
H2157 C2149 0.960 . S
H2158 C2150 0.930 . S
H2159 C2151 0.929 . S
H2160 C2168 0.929 . S
H2161 C2170 0.930 . S
H2162 C2172 0.930 . S
H2163 C2175 0.929 . S
H2164 C2178 0.930 . S
H2165 C2180 0.960 . S
H2166 C2180 0.960 . S
H2167 C2180 0.960 . S
C2168 H2160 0.929 . S
C2168 C2169 1.377 . S
C2168 C2170 1.384 . S
C2169 C2168 1.377 . S
C2169 C2175 1.390 . S
C2170 H2161 0.930 . S
C2170 C2168 1.384 . S
C2170 C2171 1.372 . S
C2171 C2170 1.372 . S
C2171 C2172 1.400 . S
C2171 C2176 1.490 . S
C2172 H2162 0.930 . S
C2172 C2171 1.400 . S
C2172 C2175 1.386 . S
H2173 C2189 0.930 . S
H2174 C2190 0.931 . S
C2175 H2163 0.929 . S
C2175 C2169 1.390 . S
C2175 C2172 1.386 . S
C2176 C2171 1.490 . S
C2176 C2178 1.395 . S
C2176 C2179 1.403 . S
H2177 C2183 0.930 . S
C2178 H2164 0.930 . S
C2178 C2176 1.395 . S
C2178 C2181 1.403 . S
C2179 C2176 1.403 . S
C2179 C2180 1.524 . S
C2179 C2183 1.400 . S
C2180 H2165 0.960 . S
C2180 H2166 0.960 . S
C2180 H2167 0.960 . S
C2180 C2179 1.524 . S
C2181 C2178 1.403 . S
C2181 C2182 1.392 . S
C2181 C2185 1.495 . S
C2182 C2181 1.392 . S
C2182 C2183 1.385 . S
C2182 C2184 1.478 . S
C2183 H2177 0.930 . S
C2183 C2179 1.400 . S
C2183 C2182 1.385 . S
C2184 C2182 1.478 . S
C2184 C2186 1.381 . S
C2184 C2190 1.383 . S
C2185 C2181 1.495 . S
C2185 H2191 0.959 . S
C2185 H2192 0.961 . S
C2185 H2193 0.960 . S
C2186 C2184 1.381 . S
C2186 C2187 1.394 . S
C2186 H2194 0.930 . S
C2187 C2186 1.394 . S
C2187 C2188 1.383 . S
C2187 H2195 0.929 . S
C2188 C2187 1.383 . S
C2188 C2189 1.377 . S
C2189 H2173 0.930 . S
C2189 C2188 1.377 . S
C2189 C2190 1.379 . S
C2190 H2174 0.931 . S
C2190 C2184 1.383 . S
C2190 C2189 1.379 . S
H2191 C2185 0.959 . S
H2192 C2185 0.961 . S
H2193 C2185 0.960 . S
H2194 C2186 0.930 . S
H2195 C2187 0.929 . S
H2196 C2204 0.929 . S
H2197 C2206 0.930 . S
H2198 C2208 0.930 . S
H2199 C2211 0.929 . S
H2200 C2214 0.930 . S
H2201 C2216 0.960 . S
H2202 C2216 0.960 . S
H2203 C2216 0.960 . S
C2204 H2196 0.929 . S
C2204 C2205 1.377 . S
C2204 C2206 1.384 . S
C2205 C2204 1.377 . S
C2205 C2211 1.390 . S
C2206 H2197 0.930 . S
C2206 C2204 1.384 . S
C2206 C2207 1.372 . S
C2207 C2206 1.372 . S
C2207 C2208 1.400 . S
C2207 C2212 1.490 . S
C2208 H2198 0.930 . S
C2208 C2207 1.400 . S
C2208 C2211 1.386 . S
H2209 C2225 0.930 . S
H2210 C2226 0.931 . S
C2211 H2199 0.929 . S
C2211 C2205 1.390 . S
C2211 C2208 1.386 . S
C2212 C2207 1.490 . S
C2212 C2214 1.395 . S
C2212 C2215 1.403 . S
H2213 C2219 0.930 . S
C2214 H2200 0.930 . S
C2214 C2212 1.395 . S
C2214 C2217 1.403 . S
C2215 C2212 1.403 . S
C2215 C2216 1.524 . S
C2215 C2219 1.400 . S
C2216 H2201 0.960 . S
C2216 H2202 0.960 . S
C2216 H2203 0.960 . S
C2216 C2215 1.524 . S
C2217 C2214 1.403 . S
C2217 C2218 1.392 . S
C2217 C2221 1.495 . S
C2218 C2217 1.392 . S
C2218 C2219 1.385 . S
C2218 C2220 1.478 . S
C2219 H2213 0.930 . S
C2219 C2215 1.400 . S
C2219 C2218 1.385 . S
C2220 C2218 1.478 . S
C2220 C2222 1.381 . S
C2220 C2226 1.383 . S
C2221 C2217 1.495 . S
C2221 H2227 0.959 . S
C2221 H2228 0.961 . S
C2221 H2229 0.960 . S
C2222 C2220 1.381 . S
C2222 C2223 1.394 . S
C2222 H2230 0.930 . S
C2223 C2222 1.394 . S
C2223 C2224 1.383 . S
C2223 H2231 0.929 . S
C2224 C2223 1.383 . S
C2224 C2225 1.377 . S
C2225 H2209 0.930 . S
C2225 C2224 1.377 . S
C2225 C2226 1.379 . S
C2226 H2210 0.931 . S
C2226 C2220 1.383 . S
C2226 C2225 1.379 . S
H2227 C2221 0.959 . S
H2228 C2221 0.961 . S
H2229 C2221 0.960 . S
H2230 C2222 0.930 . S
H2231 C2223 0.929 . S
H2232 C2240 0.929 . S
H2233 C2242 0.930 . S
H2234 C2244 0.930 . S
H2235 C2247 0.929 . S
H2236 C2250 0.930 . S
H2237 C2252 0.960 . S
H2238 C2252 0.960 . S
H2239 C2252 0.960 . S
C2240 H2232 0.929 . S
C2240 C2241 1.377 . S
C2240 C2242 1.384 . S
C2241 C2240 1.377 . S
C2241 C2247 1.390 . S
C2242 H2233 0.930 . S
C2242 C2240 1.384 . S
C2242 C2243 1.372 . S
C2243 C2242 1.372 . S
C2243 C2244 1.400 . S
C2243 C2248 1.490 . S
C2244 H2234 0.930 . S
C2244 C2243 1.400 . S
C2244 C2247 1.386 . S
H2245 C2261 0.930 . S
H2246 C2262 0.931 . S
C2247 H2235 0.929 . S
C2247 C2241 1.390 . S
C2247 C2244 1.386 . S
C2248 C2243 1.490 . S
C2248 C2250 1.395 . S
C2248 C2251 1.403 . S
H2249 C2255 0.930 . S
C2250 H2236 0.930 . S
C2250 C2248 1.395 . S
C2250 C2253 1.403 . S
C2251 C2248 1.403 . S
C2251 C2252 1.524 . S
C2251 C2255 1.400 . S
C2252 H2237 0.960 . S
C2252 H2238 0.960 . S
C2252 H2239 0.960 . S
C2252 C2251 1.524 . S
C2253 C2250 1.403 . S
C2253 C2254 1.392 . S
C2253 C2257 1.495 . S
C2254 C2253 1.392 . S
C2254 C2255 1.385 . S
C2254 C2256 1.478 . S
C2255 H2249 0.930 . S
C2255 C2251 1.400 . S
C2255 C2254 1.385 . S
C2256 C2254 1.478 . S
C2256 C2258 1.381 . S
C2256 C2262 1.383 . S
C2257 C2253 1.495 . S
C2257 H2263 0.959 . S
C2257 H2264 0.961 . S
C2257 H2265 0.960 . S
C2258 C2256 1.381 . S
C2258 C2259 1.394 . S
C2258 H2266 0.930 . S
C2259 C2258 1.394 . S
C2259 C2260 1.383 . S
C2259 H2267 0.929 . S
C2260 C2259 1.383 . S
C2260 C2261 1.377 . S
C2261 H2245 0.930 . S
C2261 C2260 1.377 . S
C2261 C2262 1.379 . S
C2262 H2246 0.931 . S
C2262 C2256 1.383 . S
C2262 C2261 1.379 . S
H2263 C2257 0.959 . S
H2264 C2257 0.961 . S
H2265 C2257 0.960 . S
H2266 C2258 0.930 . S
H2267 C2259 0.929 . S
H2268 C2276 0.929 . S
H2269 C2278 0.930 . S
H2270 C2280 0.930 . S
H2271 C2283 0.929 . S
H2272 C2286 0.930 . S
H2273 C2288 0.960 . S
H2274 C2288 0.960 . S
H2275 C2288 0.960 . S
C2276 H2268 0.929 . S
C2276 C2277 1.377 . S
C2276 C2278 1.384 . S
C2277 C2276 1.377 . S
C2277 C2283 1.390 . S
C2278 H2269 0.930 . S
C2278 C2276 1.384 . S
C2278 C2279 1.372 . S
C2279 C2278 1.372 . S
C2279 C2280 1.400 . S
C2279 C2284 1.490 . S
C2280 H2270 0.930 . S
C2280 C2279 1.400 . S
C2280 C2283 1.386 . S
H2281 C2297 0.930 . S
H2282 C2298 0.931 . S
C2283 H2271 0.929 . S
C2283 C2277 1.390 . S
C2283 C2280 1.386 . S
C2284 C2279 1.490 . S
C2284 C2286 1.395 . S
C2284 C2287 1.403 . S
H2285 C2291 0.930 . S
C2286 H2272 0.930 . S
C2286 C2284 1.395 . S
C2286 C2289 1.403 . S
C2287 C2284 1.403 . S
C2287 C2288 1.524 . S
C2287 C2291 1.400 . S
C2288 H2273 0.960 . S
C2288 H2274 0.960 . S
C2288 H2275 0.960 . S
C2288 C2287 1.524 . S
C2289 C2286 1.403 . S
C2289 C2290 1.392 . S
C2289 C2293 1.495 . S
C2290 C2289 1.392 . S
C2290 C2291 1.385 . S
C2290 C2292 1.478 . S
C2291 H2285 0.930 . S
C2291 C2287 1.400 . S
C2291 C2290 1.385 . S
C2292 C2290 1.478 . S
C2292 C2294 1.381 . S
C2292 C2298 1.383 . S
C2293 C2289 1.495 . S
C2293 H2299 0.959 . S
C2293 H2300 0.961 . S
C2293 H2301 0.960 . S
C2294 C2292 1.381 . S
C2294 C2295 1.394 . S
C2294 H2302 0.930 . S
C2295 C2294 1.394 . S
C2295 C2296 1.383 . S
C2295 H2303 0.929 . S
C2296 C2295 1.383 . S
C2296 C2297 1.377 . S
C2297 H2281 0.930 . S
C2297 C2296 1.377 . S
C2297 C2298 1.379 . S
C2298 H2282 0.931 . S
C2298 C2292 1.383 . S
C2298 C2297 1.379 . S
H2299 C2293 0.959 . S
H2300 C2293 0.961 . S
H2301 C2293 0.960 . S
H2302 C2294 0.930 . S
H2303 C2295 0.929 . S
H2304 C2312 0.929 . S
H2305 C2314 0.930 . S
H2306 C2316 0.930 . S
H2307 C2319 0.929 . S
H2308 C2322 0.930 . S
H2309 C2324 0.960 . S
H2310 C2324 0.960 . S
H2311 C2324 0.960 . S
C2312 H2304 0.929 . S
C2312 C2313 1.377 . S
C2312 C2314 1.384 . S
C2313 C2312 1.377 . S
C2313 C2319 1.390 . S
C2314 H2305 0.930 . S
C2314 C2312 1.384 . S
C2314 C2315 1.372 . S
C2315 C2314 1.372 . S
C2315 C2316 1.400 . S
C2315 C2320 1.490 . S
C2316 H2306 0.930 . S
C2316 C2315 1.400 . S
C2316 C2319 1.386 . S
H2317 C2333 0.930 . S
H2318 C2334 0.931 . S
C2319 H2307 0.929 . S
C2319 C2313 1.390 . S
C2319 C2316 1.386 . S
C2320 C2315 1.490 . S
C2320 C2322 1.395 . S
C2320 C2323 1.403 . S
H2321 C2327 0.930 . S
C2322 H2308 0.930 . S
C2322 C2320 1.395 . S
C2322 C2325 1.403 . S
C2323 C2320 1.403 . S
C2323 C2324 1.524 . S
C2323 C2327 1.400 . S
C2324 H2309 0.960 . S
C2324 H2310 0.960 . S
C2324 H2311 0.960 . S
C2324 C2323 1.524 . S
C2325 C2322 1.403 . S
C2325 C2326 1.392 . S
C2325 C2329 1.495 . S
C2326 C2325 1.392 . S
C2326 C2327 1.385 . S
C2326 C2328 1.478 . S
C2327 H2321 0.930 . S
C2327 C2323 1.400 . S
C2327 C2326 1.385 . S
C2328 C2326 1.478 . S
C2328 C2330 1.381 . S
C2328 C2334 1.383 . S
C2329 C2325 1.495 . S
C2329 H2335 0.959 . S
C2329 H2336 0.961 . S
C2329 H2337 0.960 . S
C2330 C2328 1.381 . S
C2330 C2331 1.394 . S
C2330 H2338 0.930 . S
C2331 C2330 1.394 . S
C2331 C2332 1.383 . S
C2331 H2339 0.929 . S
C2332 C2331 1.383 . S
C2332 C2333 1.377 . S
C2333 H2317 0.930 . S
C2333 C2332 1.377 . S
C2333 C2334 1.379 . S
C2334 H2318 0.931 . S
C2334 C2328 1.383 . S
C2334 C2333 1.379 . S
H2335 C2329 0.959 . S
H2336 C2329 0.961 . S
H2337 C2329 0.960 . S
H2338 C2330 0.930 . S
H2339 C2331 0.929 . S
H2340 C2348 0.929 . S
H2341 C2350 0.930 . S
H2342 C2352 0.930 . S
H2343 C2355 0.929 . S
H2344 C2358 0.930 . S
H2345 C2360 0.960 . S
H2346 C2360 0.960 . S
H2347 C2360 0.960 . S
C2348 H2340 0.929 . S
C2348 C2349 1.377 . S
C2348 C2350 1.384 . S
C2349 C2348 1.377 . S
C2349 C2355 1.390 . S
C2350 H2341 0.930 . S
C2350 C2348 1.384 . S
C2350 C2351 1.372 . S
C2351 C2350 1.372 . S
C2351 C2352 1.400 . S
C2351 C2356 1.490 . S
C2352 H2342 0.930 . S
C2352 C2351 1.400 . S
C2352 C2355 1.386 . S
H2353 C2369 0.930 . S
H2354 C2370 0.931 . S
C2355 H2343 0.929 . S
C2355 C2349 1.390 . S
C2355 C2352 1.386 . S
C2356 C2351 1.490 . S
C2356 C2358 1.395 . S
C2356 C2359 1.403 . S
H2357 C2363 0.930 . S
C2358 H2344 0.930 . S
C2358 C2356 1.395 . S
C2358 C2361 1.403 . S
C2359 C2356 1.403 . S
C2359 C2360 1.524 . S
C2359 C2363 1.400 . S
C2360 H2345 0.960 . S
C2360 H2346 0.960 . S
C2360 H2347 0.960 . S
C2360 C2359 1.524 . S
C2361 C2358 1.403 . S
C2361 C2362 1.392 . S
C2361 C2365 1.495 . S
C2362 C2361 1.392 . S
C2362 C2363 1.385 . S
C2362 C2364 1.478 . S
C2363 H2357 0.930 . S
C2363 C2359 1.400 . S
C2363 C2362 1.385 . S
C2364 C2362 1.478 . S
C2364 C2366 1.381 . S
C2364 C2370 1.383 . S
C2365 C2361 1.495 . S
C2365 H2371 0.959 . S
C2365 H2372 0.961 . S
C2365 H2373 0.960 . S
C2366 C2364 1.381 . S
C2366 C2367 1.394 . S
C2366 H2374 0.930 . S
C2367 C2366 1.394 . S
C2367 C2368 1.383 . S
C2367 H2375 0.929 . S
C2368 C2367 1.383 . S
C2368 C2369 1.377 . S
C2369 H2353 0.930 . S
C2369 C2368 1.377 . S
C2369 C2370 1.379 . S
C2370 H2354 0.931 . S
C2370 C2364 1.383 . S
C2370 C2369 1.379 . S
H2371 C2365 0.959 . S
H2372 C2365 0.961 . S
H2373 C2365 0.960 . S
H2374 C2366 0.930 . S
H2375 C2367 0.929 . S
H2376 C2384 0.929 . S
H2377 C2386 0.930 . S
H2378 C2388 0.930 . S
H2379 C2391 0.929 . S
H2380 C2394 0.930 . S
H2381 C2396 0.960 . S
H2382 C2396 0.960 . S
H2383 C2396 0.960 . S
C2384 H2376 0.929 . S
C2384 C2385 1.377 . S
C2384 C2386 1.384 . S
C2385 C2384 1.377 . S
C2385 C2391 1.390 . S
C2386 H2377 0.930 . S
C2386 C2384 1.384 . S
C2386 C2387 1.372 . S
C2387 C2386 1.372 . S
C2387 C2388 1.400 . S
C2387 C2392 1.490 . S
C2388 H2378 0.930 . S
C2388 C2387 1.400 . S
C2388 C2391 1.386 . S
H2389 C2405 0.930 . S
H2390 C2406 0.931 . S
C2391 H2379 0.929 . S
C2391 C2385 1.390 . S
C2391 C2388 1.386 . S
C2392 C2387 1.490 . S
C2392 C2394 1.395 . S
C2392 C2395 1.403 . S
H2393 C2399 0.930 . S
C2394 H2380 0.930 . S
C2394 C2392 1.395 . S
C2394 C2397 1.403 . S
C2395 C2392 1.403 . S
C2395 C2396 1.524 . S
C2395 C2399 1.400 . S
C2396 H2381 0.960 . S
C2396 H2382 0.960 . S
C2396 H2383 0.960 . S
C2396 C2395 1.524 . S
C2397 C2394 1.403 . S
C2397 C2398 1.392 . S
C2397 C2401 1.495 . S
C2398 C2397 1.392 . S
C2398 C2399 1.385 . S
C2398 C2400 1.478 . S
C2399 H2393 0.930 . S
C2399 C2395 1.400 . S
C2399 C2398 1.385 . S
C2400 C2398 1.478 . S
C2400 C2402 1.381 . S
C2400 C2406 1.383 . S
C2401 C2397 1.495 . S
C2401 H2407 0.959 . S
C2401 H2408 0.961 . S
C2401 H2409 0.960 . S
C2402 C2400 1.381 . S
C2402 C2403 1.394 . S
C2402 H2410 0.930 . S
C2403 C2402 1.394 . S
C2403 C2404 1.383 . S
C2403 H2411 0.929 . S
C2404 C2403 1.383 . S
C2404 C2405 1.377 . S
C2405 H2389 0.930 . S
C2405 C2404 1.377 . S
C2405 C2406 1.379 . S
C2406 H2390 0.931 . S
C2406 C2400 1.383 . S
C2406 C2405 1.379 . S
H2407 C2401 0.959 . S
H2408 C2401 0.961 . S
H2409 C2401 0.960 . S
H2410 C2402 0.930 . S
H2411 C2403 0.929 . S
H2412 C2420 0.929 . S
H2413 C2422 0.930 . S
H2414 C2424 0.930 . S
H2415 C2427 0.929 . S
H2416 C2430 0.930 . S
H2417 C2432 0.960 . S
H2418 C2432 0.960 . S
H2419 C2432 0.960 . S
C2420 H2412 0.929 . S
C2420 C2421 1.377 . S
C2420 C2422 1.384 . S
C2421 C2420 1.377 . S
C2421 C2427 1.390 . S
C2422 H2413 0.930 . S
C2422 C2420 1.384 . S
C2422 C2423 1.372 . S
C2423 C2422 1.372 . S
C2423 C2424 1.400 . S
C2423 C2428 1.490 . S
C2424 H2414 0.930 . S
C2424 C2423 1.400 . S
C2424 C2427 1.386 . S
H2425 C2441 0.930 . S
H2426 C2442 0.931 . S
C2427 H2415 0.929 . S
C2427 C2421 1.390 . S
C2427 C2424 1.386 . S
C2428 C2423 1.490 . S
C2428 C2430 1.395 . S
C2428 C2431 1.403 . S
H2429 C2435 0.930 . S
C2430 H2416 0.930 . S
C2430 C2428 1.395 . S
C2430 C2433 1.403 . S
C2431 C2428 1.403 . S
C2431 C2432 1.524 . S
C2431 C2435 1.400 . S
C2432 H2417 0.960 . S
C2432 H2418 0.960 . S
C2432 H2419 0.960 . S
C2432 C2431 1.524 . S
C2433 C2430 1.403 . S
C2433 C2434 1.392 . S
C2433 C2437 1.495 . S
C2434 C2433 1.392 . S
C2434 C2435 1.385 . S
C2434 C2436 1.478 . S
C2435 H2429 0.930 . S
C2435 C2431 1.400 . S
C2435 C2434 1.385 . S
C2436 C2434 1.478 . S
C2436 C2438 1.381 . S
C2436 C2442 1.383 . S
C2437 C2433 1.495 . S
C2437 H2443 0.959 . S
C2437 H2444 0.961 . S
C2437 H2445 0.960 . S
C2438 C2436 1.381 . S
C2438 C2439 1.394 . S
C2438 H2446 0.930 . S
C2439 C2438 1.394 . S
C2439 C2440 1.383 . S
C2439 H2447 0.929 . S
C2440 C2439 1.383 . S
C2440 C2441 1.377 . S
C2441 H2425 0.930 . S
C2441 C2440 1.377 . S
C2441 C2442 1.379 . S
C2442 H2426 0.931 . S
C2442 C2436 1.383 . S
C2442 C2441 1.379 . S
H2443 C2437 0.959 . S
H2444 C2437 0.961 . S
H2445 C2437 0.960 . S
H2446 C2438 0.930 . S
H2447 C2439 0.929 . S
H2448 C2456 0.929 . S
H2449 C2458 0.930 . S
H2450 C2460 0.930 . S
H2451 C2463 0.929 . S
H2452 C2466 0.930 . S
H2453 C2468 0.960 . S
H2454 C2468 0.960 . S
H2455 C2468 0.960 . S
C2456 H2448 0.929 . S
C2456 C2457 1.377 . S
C2456 C2458 1.384 . S
C2457 C2456 1.377 . S
C2457 C2463 1.390 . S
C2458 H2449 0.930 . S
C2458 C2456 1.384 . S
C2458 C2459 1.372 . S
C2459 C2458 1.372 . S
C2459 C2460 1.400 . S
C2459 C2464 1.490 . S
C2460 H2450 0.930 . S
C2460 C2459 1.400 . S
C2460 C2463 1.386 . S
H2461 C2477 0.930 . S
H2462 C2478 0.931 . S
C2463 H2451 0.929 . S
C2463 C2457 1.390 . S
C2463 C2460 1.386 . S
C2464 C2459 1.490 . S
C2464 C2466 1.395 . S
C2464 C2467 1.403 . S
H2465 C2471 0.930 . S
C2466 H2452 0.930 . S
C2466 C2464 1.395 . S
C2466 C2469 1.403 . S
C2467 C2464 1.403 . S
C2467 C2468 1.524 . S
C2467 C2471 1.400 . S
C2468 H2453 0.960 . S
C2468 H2454 0.960 . S
C2468 H2455 0.960 . S
C2468 C2467 1.524 . S
C2469 C2466 1.403 . S
C2469 C2470 1.392 . S
C2469 C2473 1.495 . S
C2470 C2469 1.392 . S
C2470 C2471 1.385 . S
C2470 C2472 1.478 . S
C2471 H2465 0.930 . S
C2471 C2467 1.400 . S
C2471 C2470 1.385 . S
C2472 C2470 1.478 . S
C2472 C2474 1.381 . S
C2472 C2478 1.383 . S
C2473 C2469 1.495 . S
C2473 H2479 0.959 . S
C2473 H2480 0.961 . S
C2473 H2481 0.960 . S
C2474 C2472 1.381 . S
C2474 C2475 1.394 . S
C2474 H2482 0.930 . S
C2475 C2474 1.394 . S
C2475 C2476 1.383 . S
C2475 H2483 0.929 . S
C2476 C2475 1.383 . S
C2476 C2477 1.377 . S
C2477 H2461 0.930 . S
C2477 C2476 1.377 . S
C2477 C2478 1.379 . S
C2478 H2462 0.931 . S
C2478 C2472 1.383 . S
C2478 C2477 1.379 . S
H2479 C2473 0.959 . S
H2480 C2473 0.961 . S
H2481 C2473 0.960 . S
H2482 C2474 0.930 . S
H2483 C2475 0.929 . S
H2484 C2492 0.929 . S
H2485 C2494 0.930 . S
H2486 C2496 0.930 . S
H2487 C2499 0.929 . S
H2488 C2502 0.930 . S
H2489 C2504 0.960 . S
H2490 C2504 0.960 . S
H2491 C2504 0.960 . S
C2492 H2484 0.929 . S
C2492 C2493 1.377 . S
C2492 C2494 1.384 . S
C2493 C2492 1.377 . S
C2493 C2499 1.390 . S
C2494 H2485 0.930 . S
C2494 C2492 1.384 . S
C2494 C2495 1.372 . S
C2495 C2494 1.372 . S
C2495 C2496 1.400 . S
C2495 C2500 1.490 . S
C2496 H2486 0.930 . S
C2496 C2495 1.400 . S
C2496 C2499 1.386 . S
H2497 C2513 0.930 . S
H2498 C2514 0.931 . S
C2499 H2487 0.929 . S
C2499 C2493 1.390 . S
C2499 C2496 1.386 . S
C2500 C2495 1.490 . S
C2500 C2502 1.395 . S
C2500 C2503 1.403 . S
H2501 C2507 0.930 . S
C2502 H2488 0.930 . S
C2502 C2500 1.395 . S
C2502 C2505 1.403 . S
C2503 C2500 1.403 . S
C2503 C2504 1.524 . S
C2503 C2507 1.400 . S
C2504 H2489 0.960 . S
C2504 H2490 0.960 . S
C2504 H2491 0.960 . S
C2504 C2503 1.524 . S
C2505 C2502 1.403 . S
C2505 C2506 1.392 . S
C2505 C2509 1.495 . S
C2506 C2505 1.392 . S
C2506 C2507 1.385 . S
C2506 C2508 1.478 . S
C2507 H2501 0.930 . S
C2507 C2503 1.400 . S
C2507 C2506 1.385 . S
C2508 C2506 1.478 . S
C2508 C2510 1.381 . S
C2508 C2514 1.383 . S
C2509 C2505 1.495 . S
C2509 H2515 0.959 . S
C2509 H2516 0.961 . S
C2509 H2517 0.960 . S
C2510 C2508 1.381 . S
C2510 C2511 1.394 . S
C2510 H2518 0.930 . S
C2511 C2510 1.394 . S
C2511 C2512 1.383 . S
C2511 H2519 0.929 . S
C2512 C2511 1.383 . S
C2512 C2513 1.377 . S
C2513 H2497 0.930 . S
C2513 C2512 1.377 . S
C2513 C2514 1.379 . S
C2514 H2498 0.931 . S
C2514 C2508 1.383 . S
C2514 C2513 1.379 . S
H2515 C2509 0.959 . S
H2516 C2509 0.961 . S
H2517 C2509 0.960 . S
H2518 C2510 0.930 . S
H2519 C2511 0.929 . S
H2520 C2528 0.929 . S
H2521 C2530 0.930 . S
H2522 C2532 0.930 . S
H2523 C2535 0.929 . S
H2524 C2538 0.930 . S
H2525 C2540 0.960 . S
H2526 C2540 0.960 . S
H2527 C2540 0.960 . S
C2528 H2520 0.929 . S
C2528 C2529 1.377 . S
C2528 C2530 1.384 . S
C2529 C2528 1.377 . S
C2529 C2535 1.390 . S
C2530 H2521 0.930 . S
C2530 C2528 1.384 . S
C2530 C2531 1.372 . S
C2531 C2530 1.372 . S
C2531 C2532 1.400 . S
C2531 C2536 1.490 . S
C2532 H2522 0.930 . S
C2532 C2531 1.400 . S
C2532 C2535 1.386 . S
H2533 C2549 0.930 . S
H2534 C2550 0.931 . S
C2535 H2523 0.929 . S
C2535 C2529 1.390 . S
C2535 C2532 1.386 . S
C2536 C2531 1.490 . S
C2536 C2538 1.395 . S
C2536 C2539 1.403 . S
H2537 C2543 0.930 . S
C2538 H2524 0.930 . S
C2538 C2536 1.395 . S
C2538 C2541 1.403 . S
C2539 C2536 1.403 . S
C2539 C2540 1.524 . S
C2539 C2543 1.400 . S
C2540 H2525 0.960 . S
C2540 H2526 0.960 . S
C2540 H2527 0.960 . S
C2540 C2539 1.524 . S
C2541 C2538 1.403 . S
C2541 C2542 1.392 . S
C2541 C2545 1.495 . S
C2542 C2541 1.392 . S
C2542 C2543 1.385 . S
C2542 C2544 1.478 . S
C2543 H2537 0.930 . S
C2543 C2539 1.400 . S
C2543 C2542 1.385 . S
C2544 C2542 1.478 . S
C2544 C2546 1.381 . S
C2544 C2550 1.383 . S
C2545 C2541 1.495 . S
C2545 H2551 0.959 . S
C2545 H2552 0.961 . S
C2545 H2553 0.960 . S
C2546 C2544 1.381 . S
C2546 C2547 1.394 . S
C2546 H2554 0.930 . S
C2547 C2546 1.394 . S
C2547 C2548 1.383 . S
C2547 H2555 0.929 . S
C2548 C2547 1.383 . S
C2548 C2549 1.377 . S
C2549 H2533 0.930 . S
C2549 C2548 1.377 . S
C2549 C2550 1.379 . S
C2550 H2534 0.931 . S
C2550 C2544 1.383 . S
C2550 C2549 1.379 . S
H2551 C2545 0.959 . S
H2552 C2545 0.961 . S
H2553 C2545 0.960 . S
H2554 C2546 0.930 . S
H2555 C2547 0.929 . S
H2556 C2564 0.929 . S
H2557 C2566 0.930 . S
H2558 C2568 0.930 . S
H2559 C2571 0.929 . S
H2560 C2574 0.930 . S
H2561 C2576 0.960 . S
H2562 C2576 0.960 . S
H2563 C2576 0.960 . S
C2564 H2556 0.929 . S
C2564 C2565 1.377 . S
C2564 C2566 1.384 . S
C2565 C2564 1.377 . S
C2565 C2571 1.390 . S
C2566 H2557 0.930 . S
C2566 C2564 1.384 . S
C2566 C2567 1.372 . S
C2567 C2566 1.372 . S
C2567 C2568 1.400 . S
C2567 C2572 1.490 . S
C2568 H2558 0.930 . S
C2568 C2567 1.400 . S
C2568 C2571 1.386 . S
H2569 C2585 0.930 . S
H2570 C2586 0.931 . S
C2571 H2559 0.929 . S
C2571 C2565 1.390 . S
C2571 C2568 1.386 . S
C2572 C2567 1.490 . S
C2572 C2574 1.395 . S
C2572 C2575 1.403 . S
H2573 C2579 0.930 . S
C2574 H2560 0.930 . S
C2574 C2572 1.395 . S
C2574 C2577 1.403 1_554 S
C2575 C2572 1.403 . S
C2575 C2576 1.524 . S
C2575 C2579 1.400 1_554 S
C2576 H2561 0.960 . S
C2576 H2562 0.960 . S
C2576 H2563 0.960 . S
C2576 C2575 1.524 . S
C2577 C2574 1.403 1_556 S
C2577 C2578 1.392 . S
C2577 C2581 1.495 . S
C2578 C2577 1.392 . S
C2578 C2579 1.385 . S
C2578 C2580 1.478 . S
C2579 H2573 0.930 . S
C2579 C2575 1.400 1_556 S
C2579 C2578 1.385 . S
C2580 C2578 1.478 . S
C2580 C2582 1.381 . S
C2580 C2586 1.383 . S
C2581 C2577 1.495 . S
C2581 H2587 0.959 . S
C2581 H2588 0.961 . S
C2581 H2589 0.960 . S
C2582 C2580 1.381 . S
C2582 C2583 1.394 . S
C2582 H2590 0.930 . S
C2583 C2582 1.394 . S
C2583 C2584 1.383 . S
C2583 H2591 0.929 . S
C2584 C2583 1.383 . S
C2584 C2585 1.377 . S
C2585 H2569 0.930 . S
C2585 C2584 1.377 . S
C2585 C2586 1.379 . S
C2586 H2570 0.931 . S
C2586 C2580 1.383 . S
C2586 C2585 1.379 . S
H2587 C2581 0.959 . S
H2588 C2581 0.961 . S
H2589 C2581 0.960 . S
H2590 C2582 0.930 . S
H2591 C2583 0.929 . S
H2592 C2600 0.929 . S
H2593 C2602 0.930 . S
H2594 C2604 0.930 . S
H2595 C2607 0.929 . S
H2596 C2610 0.930 . S
H2597 C2612 0.960 . S
H2598 C2612 0.960 . S
H2599 C2612 0.960 . S
C2600 H2592 0.929 . S
C2600 C2601 1.377 . S
C2600 C2602 1.384 . S
C2601 C2600 1.377 . S
C2601 C2607 1.390 1_545 S
C2602 H2593 0.930 . S
C2602 C2600 1.384 . S
C2602 C2603 1.372 . S
C2603 C2602 1.372 . S
C2603 C2604 1.400 1_545 S
C2603 C2608 1.490 . S
C2604 H2594 0.930 . S
C2604 C2603 1.400 1_565 S
C2604 C2607 1.386 . S
H2605 C2621 0.930 . S
H2606 C2622 0.931 . S
C2607 H2595 0.929 . S
C2607 C2601 1.390 1_565 S
C2607 C2604 1.386 . S
C2608 C2603 1.490 . S
C2608 C2610 1.395 1_545 S
C2608 C2611 1.403 . S
H2609 C2615 0.930 . S
C2610 H2596 0.930 . S
C2610 C2608 1.395 1_565 S
C2610 C2613 1.403 1_556 S
C2611 C2608 1.403 . S
C2611 C2612 1.524 . S
C2611 C2615 1.400 1_556 S
C2612 H2597 0.960 . S
C2612 H2598 0.960 . S
C2612 H2599 0.960 . S
C2612 C2611 1.524 . S
C2613 C2610 1.403 1_554 S
C2613 C2614 1.392 . S
C2613 C2617 1.495 . S
C2614 C2613 1.392 . S
C2614 C2615 1.385 1_565 S
C2614 C2616 1.478 . S
C2615 H2609 0.930 . S
C2615 C2611 1.400 1_554 S
C2615 C2614 1.385 1_545 S
C2616 C2614 1.478 . S
C2616 C2618 1.381 1_565 S
C2616 C2622 1.383 . S
C2617 C2613 1.495 . S
C2617 H2623 1.007 . S
C2617 H2624 0.961 . S
C2617 H2625 0.960 . S
C2618 C2616 1.381 1_545 S
C2618 C2619 1.394 . S
C2618 H2626 0.930 . S
C2619 C2618 1.394 . S
C2619 C2620 1.383 1_545 S
C2619 H2627 0.929 . S
C2620 C2619 1.383 1_565 S
C2620 C2621 1.377 . S
C2621 H2605 0.930 . S
C2621 C2620 1.377 . S
C2621 C2622 1.379 . S
C2622 H2606 0.931 . S
C2622 C2616 1.383 . S
C2622 C2621 1.379 . S
H2623 C2617 1.007 . S
H2624 C2617 0.961 . S
H2625 C2617 0.960 . S
H2626 C2618 0.930 . S
H2627 C2619 0.929 . S
H2628 C2636 0.929 . S
H2629 C2638 0.930 . S
H2630 C2640 0.930 . S
H2631 C2643 0.929 . S
H2632 C2646 0.930 . S
H2633 C2648 0.960 . S
H2634 C2648 0.960 . S
H2635 C2648 0.949 1_655 S
C2636 H2628 0.929 . S
C2636 C2637 1.377 1_455 S
C2636 C2638 1.384 . S
C2637 C2636 1.377 1_655 S
C2637 C2643 1.390 . S
C2638 H2629 0.930 . S
C2638 C2636 1.384 . S
C2638 C2639 1.372 1_455 S
C2639 C2638 1.372 1_655 S
C2639 C2640 1.400 . S
C2639 C2644 1.490 . S
C2640 H2630 0.930 . S
C2640 C2639 1.400 . S
C2640 C2643 1.386 . S
H2641 C2657 0.930 . S
H2642 C2658 0.931 . S
C2643 H2631 0.929 . S
C2643 C2637 1.390 . S
C2643 C2640 1.386 . S
C2644 C2639 1.490 . S
C2644 C2646 1.411 . S
C2644 C2647 1.387 1_655 S
H2645 C2651 0.930 . S
C2646 H2632 0.930 . S
C2646 C2644 1.411 . S
C2646 C2649 1.403 1_556 S
C2647 C2644 1.387 1_455 S
C2647 C2648 1.524 . S
C2647 C2651 1.400 1_556 S
C2648 H2633 0.960 . S
C2648 H2634 0.960 . S
C2648 H2635 0.949 1_455 S
C2648 C2647 1.524 . S
C2649 C2646 1.403 1_554 S
C2649 C2650 1.358 1_655 S
C2649 C2653 1.495 . S
C2650 C2649 1.358 1_455 S
C2650 C2651 1.421 . S
C2650 C2652 1.479 . S
C2651 H2645 0.930 . S
C2651 C2647 1.400 1_554 S
C2651 C2650 1.421 . S
C2652 C2650 1.479 . S
C2652 C2654 1.381 . S
C2652 C2658 1.383 1_455 S
C2653 C2649 1.495 . S
C2653 H2659 0.959 . S
C2653 H2660 0.961 . S
C2653 H2661 0.960 1_655 S
C2654 C2652 1.381 . S
C2654 C2655 1.394 . S
C2654 H2662 0.930 . S
C2655 C2654 1.394 . S
C2655 C2656 1.383 . S
C2655 H2663 0.929 . S
C2656 C2655 1.383 . S
C2656 C2657 1.377 1_455 S
C2657 H2641 0.930 . S
C2657 C2656 1.377 1_655 S
C2657 C2658 1.379 . S
C2658 H2642 0.931 . S
C2658 C2652 1.383 1_655 S
C2658 C2657 1.379 . S
H2659 C2653 0.959 . S
H2660 C2653 0.961 . S
H2661 C2653 0.960 1_455 S
H2662 C2654 0.930 . S
H2663 C2655 0.929 . S
H2664 C2672 0.929 . S
H2665 C2674 0.930 . S
H2666 C2676 0.930 . S
H2667 C2679 0.929 . S
H2668 C2682 0.930 . S
H2669 C2684 0.960 . S
H2670 C2684 0.960 . S
H2671 C2684 0.960 . S
C2672 H2664 0.929 . S
C2672 C2673 1.377 . S
C2672 C2674 1.384 . S
C2673 C2672 1.377 . S
C2673 C2679 1.390 . S
C2674 H2665 0.930 . S
C2674 C2672 1.384 . S
C2674 C2675 1.372 . S
C2675 C2674 1.372 . S
C2675 C2676 1.400 . S
C2675 C2680 1.490 . S
C2676 H2666 0.930 . S
C2676 C2675 1.400 . S
C2676 C2679 1.386 . S
H2677 C2693 0.930 . S
H2678 C2694 0.931 . S
C2679 H2667 0.929 . S
C2679 C2673 1.390 . S
C2679 C2676 1.386 . S
C2680 C2675 1.490 . S
C2680 C2682 1.395 . S
C2680 C2683 1.403 . S
H2681 C2687 0.930 . S
C2682 H2668 0.930 . S
C2682 C2680 1.395 . S
C2682 C2685 1.403 . S
C2683 C2680 1.403 . S
C2683 C2684 1.524 . S
C2683 C2687 1.400 . S
C2684 H2669 0.960 . S
C2684 H2670 0.960 . S
C2684 H2671 0.960 . S
C2684 C2683 1.524 . S
C2685 C2682 1.403 . S
C2685 C2686 1.392 . S
C2685 C2689 1.495 . S
C2686 C2685 1.392 . S
C2686 C2687 1.385 . S
C2686 C2688 1.478 . S
C2687 H2681 0.930 . S
C2687 C2683 1.400 . S
C2687 C2686 1.385 . S
C2688 C2686 1.478 . S
C2688 C2690 1.381 . S
C2688 C2694 1.383 . S
C2689 C2685 1.495 . S
C2689 H2695 0.959 . S
C2689 H2696 0.961 . S
C2689 H2697 0.960 . S
C2690 C2688 1.381 . S
C2690 C2691 1.394 . S
C2690 H2698 0.930 . S
C2691 C2690 1.394 . S
C2691 C2692 1.383 . S
C2691 H2699 0.929 . S
C2692 C2691 1.383 . S
C2692 C2693 1.377 . S
C2693 H2677 0.930 . S
C2693 C2692 1.377 . S
C2693 C2694 1.379 . S
C2694 H2678 0.931 . S
C2694 C2688 1.383 . S
C2694 C2693 1.379 . S
H2695 C2689 0.959 . S
H2696 C2689 0.961 . S
H2697 C2689 0.960 . S
H2698 C2690 0.930 . S
H2699 C2691 0.929 . S
H2700 C2708 0.929 . S
H2701 C2710 0.930 . S
H2702 C2712 0.930 . S
H2703 C2715 0.929 . S
H2704 C2718 0.930 . S
H2705 C2720 0.960 . S
H2706 C2720 0.960 . S
H2707 C2720 0.960 . S
C2708 H2700 0.929 . S
C2708 C2709 1.377 . S
C2708 C2710 1.384 . S
C2709 C2708 1.377 . S
C2709 C2715 1.390 . S
C2710 H2701 0.930 . S
C2710 C2708 1.384 . S
C2710 C2711 1.372 . S
C2711 C2710 1.372 . S
C2711 C2712 1.400 . S
C2711 C2716 1.490 . S
C2712 H2702 0.930 . S
C2712 C2711 1.400 . S
C2712 C2715 1.386 . S
H2713 C2729 0.930 . S
H2714 C2730 0.931 . S
C2715 H2703 0.929 . S
C2715 C2709 1.390 . S
C2715 C2712 1.386 . S
C2716 C2711 1.490 . S
C2716 C2718 1.395 . S
C2716 C2719 1.403 . S
H2717 C2723 0.930 . S
C2718 H2704 0.930 . S
C2718 C2716 1.395 . S
C2718 C2721 1.403 . S
C2719 C2716 1.403 . S
C2719 C2720 1.524 . S
C2719 C2723 1.400 . S
C2720 H2705 0.960 . S
C2720 H2706 0.960 . S
C2720 H2707 0.960 . S
C2720 C2719 1.524 . S
C2721 C2718 1.403 . S
C2721 C2722 1.392 . S
C2721 C2725 1.495 . S
C2722 C2721 1.392 . S
C2722 C2723 1.385 . S
C2722 C2724 1.478 . S
C2723 H2717 0.930 . S
C2723 C2719 1.400 . S
C2723 C2722 1.385 . S
C2724 C2722 1.478 . S
C2724 C2726 1.381 . S
C2724 C2730 1.383 . S
C2725 C2721 1.495 . S
C2725 H2731 0.959 . S
C2725 H2732 0.961 . S
C2725 H2733 0.960 . S
C2726 C2724 1.381 . S
C2726 C2727 1.394 . S
C2726 H2734 0.930 . S
C2727 C2726 1.394 . S
C2727 C2728 1.383 . S
C2727 H2735 0.929 . S
C2728 C2727 1.383 . S
C2728 C2729 1.377 . S
C2729 H2713 0.930 . S
C2729 C2728 1.377 . S
C2729 C2730 1.379 . S
C2730 H2714 0.931 . S
C2730 C2724 1.383 . S
C2730 C2729 1.379 . S
H2731 C2725 0.959 . S
H2732 C2725 0.961 . S
H2733 C2725 0.960 . S
H2734 C2726 0.930 . S
H2735 C2727 0.929 . S
H2736 C2744 0.929 . S
H2737 C2746 0.930 . S
H2738 C2748 0.930 . S
H2739 C2751 0.929 . S
H2740 C2754 0.930 . S
H2741 C2756 0.960 . S
H2742 C2756 0.960 . S
H2743 C2756 0.960 . S
C2744 H2736 0.929 . S
C2744 C2745 1.377 . S
C2744 C2746 1.384 . S
C2745 C2744 1.377 . S
C2745 C2751 1.390 . S
C2746 H2737 0.930 . S
C2746 C2744 1.384 . S
C2746 C2747 1.372 . S
C2747 C2746 1.372 . S
C2747 C2748 1.400 . S
C2747 C2752 1.490 . S
C2748 H2738 0.930 . S
C2748 C2747 1.400 . S
C2748 C2751 1.386 . S
H2749 C2765 0.930 . S
H2750 C2766 0.931 . S
C2751 H2739 0.929 . S
C2751 C2745 1.390 . S
C2751 C2748 1.386 . S
C2752 C2747 1.490 . S
C2752 C2754 1.395 . S
C2752 C2755 1.403 . S
H2753 C2759 0.930 . S
C2754 H2740 0.930 . S
C2754 C2752 1.395 . S
C2754 C2757 1.403 . S
C2755 C2752 1.403 . S
C2755 C2756 1.524 . S
C2755 C2759 1.400 . S
C2756 H2741 0.960 . S
C2756 H2742 0.960 . S
C2756 H2743 0.960 . S
C2756 C2755 1.524 . S
C2757 C2754 1.403 . S
C2757 C2758 1.392 . S
C2757 C2761 1.495 . S
C2758 C2757 1.392 . S
C2758 C2759 1.385 . S
C2758 C2760 1.478 . S
C2759 H2753 0.930 . S
C2759 C2755 1.400 . S
C2759 C2758 1.385 . S
C2760 C2758 1.478 . S
C2760 C2762 1.381 . S
C2760 C2766 1.383 . S
C2761 C2757 1.495 . S
C2761 H2767 0.959 . S
C2761 H2768 0.961 . S
C2761 H2769 0.960 . S
C2762 C2760 1.381 . S
C2762 C2763 1.394 . S
C2762 H2770 0.930 . S
C2763 C2762 1.394 . S
C2763 C2764 1.383 . S
C2763 H2771 0.929 . S
C2764 C2763 1.383 . S
C2764 C2765 1.377 . S
C2765 H2749 0.930 . S
C2765 C2764 1.377 . S
C2765 C2766 1.379 . S
C2766 H2750 0.931 . S
C2766 C2760 1.383 . S
C2766 C2765 1.379 . S
H2767 C2761 0.959 . S
H2768 C2761 0.961 . S
H2769 C2761 0.960 . S
H2770 C2762 0.930 . S
H2771 C2763 0.929 . S
H2772 C2780 0.929 . S
H2773 C2782 0.930 . S
H2774 C2784 0.930 . S
H2775 C2787 0.929 . S
H2776 C2790 0.930 . S
H2777 C2792 0.960 . S
H2778 C2792 0.960 . S
H2779 C2792 0.960 . S
C2780 H2772 0.929 . S
C2780 C2781 1.377 . S
C2780 C2782 1.384 . S
C2781 C2780 1.377 . S
C2781 C2787 1.390 . S
C2782 H2773 0.930 . S
C2782 C2780 1.384 . S
C2782 C2783 1.372 . S
C2783 C2782 1.372 . S
C2783 C2784 1.400 . S
C2783 C2788 1.490 . S
C2784 H2774 0.930 . S
C2784 C2783 1.400 . S
C2784 C2787 1.386 . S
H2785 C2801 0.930 . S
H2786 C2802 0.931 . S
C2787 H2775 0.929 . S
C2787 C2781 1.390 . S
C2787 C2784 1.386 . S
C2788 C2783 1.490 . S
C2788 C2790 1.395 . S
C2788 C2791 1.403 . S
H2789 C2795 0.930 . S
C2790 H2776 0.930 . S
C2790 C2788 1.395 . S
C2790 C2793 1.403 . S
C2791 C2788 1.403 . S
C2791 C2792 1.524 . S
C2791 C2795 1.400 . S
C2792 H2777 0.960 . S
C2792 H2778 0.960 . S
C2792 H2779 0.960 . S
C2792 C2791 1.524 . S
C2793 C2790 1.403 . S
C2793 C2794 1.392 . S
C2793 C2797 1.495 . S
C2794 C2793 1.392 . S
C2794 C2795 1.385 . S
C2794 C2796 1.478 . S
C2795 H2789 0.930 . S
C2795 C2791 1.400 . S
C2795 C2794 1.385 . S
C2796 C2794 1.478 . S
C2796 C2798 1.381 . S
C2796 C2802 1.383 . S
C2797 C2793 1.495 . S
C2797 H2803 0.959 . S
C2797 H2804 0.961 . S
C2797 H2805 0.960 . S
C2798 C2796 1.381 . S
C2798 C2799 1.394 . S
C2798 H2806 0.930 . S
C2799 C2798 1.394 . S
C2799 C2800 1.383 . S
C2799 H2807 0.929 . S
C2800 C2799 1.383 . S
C2800 C2801 1.377 . S
C2801 H2785 0.930 . S
C2801 C2800 1.377 . S
C2801 C2802 1.379 . S
C2802 H2786 0.931 . S
C2802 C2796 1.383 . S
C2802 C2801 1.379 . S
H2803 C2797 0.959 . S
H2804 C2797 0.961 . S
H2805 C2797 0.960 . S
H2806 C2798 0.930 . S
H2807 C2799 0.929 . S
H2808 C2816 0.929 . S
H2809 C2818 0.930 . S
H2810 C2820 0.930 . S
H2811 C2823 0.929 . S
H2812 C2826 0.930 . S
H2813 C2828 0.960 . S
H2814 C2828 0.960 . S
H2815 C2828 0.960 . S
C2816 H2808 0.929 . S
C2816 C2817 1.377 . S
C2816 C2818 1.384 . S
C2817 C2816 1.377 . S
C2817 C2823 1.390 . S
C2818 H2809 0.930 . S
C2818 C2816 1.384 . S
C2818 C2819 1.372 . S
C2819 C2818 1.372 . S
C2819 C2820 1.400 . S
C2819 C2824 1.490 . S
C2820 H2810 0.930 . S
C2820 C2819 1.400 . S
C2820 C2823 1.386 . S
H2821 C2837 0.930 . S
H2822 C2838 0.931 . S
C2823 H2811 0.929 . S
C2823 C2817 1.390 . S
C2823 C2820 1.386 . S
C2824 C2819 1.490 . S
C2824 C2826 1.395 . S
C2824 C2827 1.403 . S
H2825 C2831 0.930 . S
C2826 H2812 0.930 . S
C2826 C2824 1.395 . S
C2826 C2829 1.403 . S
C2827 C2824 1.403 . S
C2827 C2828 1.524 . S
C2827 C2831 1.400 . S
C2828 H2813 0.960 . S
C2828 H2814 0.960 . S
C2828 H2815 0.960 . S
C2828 C2827 1.524 . S
C2829 C2826 1.403 . S
C2829 C2830 1.392 . S
C2829 C2833 1.495 . S
C2830 C2829 1.392 . S
C2830 C2831 1.385 . S
C2830 C2832 1.478 . S
C2831 H2825 0.930 . S
C2831 C2827 1.400 . S
C2831 C2830 1.385 . S
C2832 C2830 1.478 . S
C2832 C2834 1.381 . S
C2832 C2838 1.383 . S
C2833 C2829 1.495 . S
C2833 H2839 0.959 . S
C2833 H2840 0.961 . S
C2833 H2841 0.960 . S
C2834 C2832 1.381 . S
C2834 C2835 1.394 . S
C2834 H2842 0.930 . S
C2835 C2834 1.394 . S
C2835 C2836 1.383 . S
C2835 H2843 0.929 . S
C2836 C2835 1.383 . S
C2836 C2837 1.377 . S
C2837 H2821 0.930 . S
C2837 C2836 1.377 . S
C2837 C2838 1.379 . S
C2838 H2822 0.931 . S
C2838 C2832 1.383 . S
C2838 C2837 1.379 . S
H2839 C2833 0.959 . S
H2840 C2833 0.961 . S
H2841 C2833 0.960 . S
H2842 C2834 0.930 . S
H2843 C2835 0.929 . S
H2844 C2852 0.929 . S
H2845 C2854 0.930 . S
H2846 C2856 0.930 . S
H2847 C2859 0.929 . S
H2848 C2862 0.930 . S
H2849 C2864 0.960 . S
H2850 C2864 0.960 . S
H2851 C2864 0.960 . S
C2852 H2844 0.929 . S
C2852 C2853 1.377 . S
C2852 C2854 1.384 . S
C2853 C2852 1.377 . S
C2853 C2859 1.390 . S
C2854 H2845 0.930 . S
C2854 C2852 1.384 . S
C2854 C2855 1.372 . S
C2855 C2854 1.372 . S
C2855 C2856 1.400 . S
C2855 C2860 1.490 . S
C2856 H2846 0.930 . S
C2856 C2855 1.400 . S
C2856 C2859 1.386 . S
H2857 C2873 0.930 . S
H2858 C2874 0.931 . S
C2859 H2847 0.929 . S
C2859 C2853 1.390 . S
C2859 C2856 1.386 . S
C2860 C2855 1.490 . S
C2860 C2862 1.395 . S
C2860 C2863 1.403 . S
H2861 C2867 0.930 . S
C2862 H2848 0.930 . S
C2862 C2860 1.395 . S
C2862 C2865 1.403 . S
C2863 C2860 1.403 . S
C2863 C2864 1.524 . S
C2863 C2867 1.400 . S
C2864 H2849 0.960 . S
C2864 H2850 0.960 . S
C2864 H2851 0.960 . S
C2864 C2863 1.524 . S
C2865 C2862 1.403 . S
C2865 C2866 1.392 . S
C2865 C2869 1.495 . S
C2866 C2865 1.392 . S
C2866 C2867 1.385 . S
C2866 C2868 1.478 . S
C2867 H2861 0.930 . S
C2867 C2863 1.400 . S
C2867 C2866 1.385 . S
C2868 C2866 1.478 . S
C2868 C2870 1.381 . S
C2868 C2874 1.383 . S
C2869 C2865 1.495 . S
C2869 H2875 0.959 . S
C2869 H2876 0.961 . S
C2869 H2877 0.960 . S
C2870 C2868 1.381 . S
C2870 C2871 1.394 . S
C2870 H2878 0.930 . S
C2871 C2870 1.394 . S
C2871 C2872 1.383 . S
C2871 H2879 0.929 . S
C2872 C2871 1.383 . S
C2872 C2873 1.377 . S
C2873 H2857 0.930 . S
C2873 C2872 1.377 . S
C2873 C2874 1.379 . S
C2874 H2858 0.931 . S
C2874 C2868 1.383 . S
C2874 C2873 1.379 . S
H2875 C2869 0.959 . S
H2876 C2869 0.961 . S
H2877 C2869 0.960 . S
H2878 C2870 0.930 . S
H2879 C2871 0.929 . S
C1593 C900 0.596 . S
C1612 C29 0.560 . S
C1629 C145 0.564 . S
C1648 C1017 0.552 . S
C1665 C812 0.573 . S
C1684 C233 0.541 . S
C1701 C1289 0.588 . S
C1720 C284 0.586 . S
C1737 C372 0.555 . S
C1756 C1085 0.601 . S
C1773 C1201 0.557 . S
C1792 C497 0.586 . S
C1809 C548 0.630 . S
C1828 C1465 0.598 . S
C1845 C1545 0.599 . S
C1864 C673 0.600 . S
C1881 C761 0.629 . S
C1900 C1340 0.601 . S
C1917 C57 0.743 . S
C1936 C108 0.712 . S
C1953 C117 0.709 . S
C1972 C196 0.667 . S
C1989 C49 0.761 . S
C2008 C205 0.761 . S
C2025 C460 0.734 . S
C2044 C313 0.669 . S
C2061 C321 0.761 . S
C2080 C401 0.717 . S
C2097 C469 0.692 . S
C2116 C409 0.690 . S
C2133 C577 0.783 . S
C2152 C636 0.767 . S
C2169 C645 0.750 . S
C2188 C724 0.760 . S
C2205 C585 0.750 . S
C2224 C733 0.678 . S
C2241 C997 0.799 . S
C2260 C841 0.738 . S
C2277 C849 0.729 . S
C2296 C929 0.727 . S
C2313 C937 0.742 . S
C2332 C988 0.817 . S
C2349 C1164 0.796 . S
C2368 C1113 0.829 . S
C2385 C1252 0.746 . S
C2404 C1173 0.673 . S
C2421 C1105 0.729 . S
C2440 C1261 0.718 . S
C2457 C1369 0.767 . S
C2476 C1525 0.776 . S
C2493 C1437 0.738 . S
C2512 C1377 0.765 . S
C2529 C1516 0.738 . S
C2548 C1428 0.764 . S
C2565 C20 1.539 . S
C2584 C293 1.539 . S
C2601 C381 1.492 . S
C2620 C137 1.498 . S
C2637 C489 1.483 . S
C2656 C225 1.470 . S
C2673 C821 1.541 . S
C2692 C557 1.552 . S
C2709 C909 1.515 . S
C2728 C665 1.527 . S
C2745 C753 1.542 . S
C2764 C1025 1.524 . S
C2781 C1349 1.541 . S
C2800 C1076 1.545 . S
C2817 C1457 1.545 . S
C2836 C1193 1.557 . S
C2853 C1553 1.518 . S
C2872 C1281 1.531 . S
