# Generated by pormake.
# Topology bnn, (5)-cn, num edge types: 1
# Building blocks:
#     Node 0, Type 0, BuildingBlock: XOMCOT_clean_sbu_1, # of connection points: 5
#     Node 1, Type 0, BuildingBlock: XOMCOT_clean_sbu_1, # of connection points: 5
#     Edge 2, Type (0, 0), BuildingBlock: MIFKUJ_clean_linker_0, # of connection points: 2
#     Edge 3, Type (0, 0), BuildingBlock: MIFKUJ_clean_linker_0, # of connection points: 2
#     Edge 4, Type (0, 0), BuildingBlock: MIFKUJ_clean_linker_0, # of connection points: 2
#     Edge 5, Type (0, 0), BuildingBlock: MIFKUJ_clean_linker_0, # of connection points: 2
#     Edge 6, Type (0, 0), BuildingBlock: MIFKUJ_clean_linker_0, # of connection points: 2
# Relax obj value: 0.038
# Max RMSD: 0.098
# Mean RMSD: 0.098
data_MOF--net-bnn--node1-XOMCOT_clean_sbu_1--edge1-MIFKUJ_clean_linker_0
_symmetry_space_group_name_H-M    P1
_symmetry_Int_Tables_number       1
_symmetry_cell_setting            triclinic
loop_
_symmetry_equiv_pos_as_xyz
'x, y, z'
_cell_length_a     37.681378
_cell_length_b     35.229392
_cell_length_c     22.045785
_cell_angle_alpha  97.423243
_cell_angle_beta   89.907356
_cell_angle_gamma 122.61614
loop_
_atom_site_label
_atom_site_type_symbol
_atom_site_fract_x
_atom_site_fract_y
_atom_site_fract_z
_atom_type_partial_charge
C0 C 0.31005 0.62298 0.99922 0.0
C1 C 0.3042 0.61468 0.93614 0.0
N2 N 0.31449 0.65365 0.9159 0.0
N3 N 0.32408 0.667 0.01881 0.0
C4 C 0.32618 0.68476 0.96707 0.0
H5 H 0.30514 0.59873 0.02901 0.0
Co6 Co 0.33732 0.69453 0.10098 0.0
C7 C 0.41007 0.78769 0.08717 0.0
O8 O 0.43401 0.78165 0.12272 0.0
N9 N 0.34865 0.72192 0.18535 0.0
C10 C 0.36323 0.77118 0.27072 0.0
C11 C 0.36326 0.76588 0.20798 0.0
C12 C 0.33729 0.70087 0.23595 0.0
N13 N 0.3471 0.73024 0.28856 0.0
O14 O 0.28601 0.69391 0.09835 0.0
H15 H 0.37116 0.79254 0.18119 0.0
H16 H 0.32083 0.66438 0.23427 0.0
O17 O 0.37076 0.75615 0.07521 0.0
C18 C 0.25795 0.65454 0.11084 0.0
O19 O 0.2707 0.6286 0.12594 0.0
N20 N 0.38455 0.68799 0.10291 0.0
C21 C 0.42991 0.64547 0.08621 0.0
C22 C 0.43232 0.67431 0.0456 0.0
C23 C 0.40947 0.69527 0.05479 0.0
C24 C 0.38381 0.66185 0.14406 0.0
C25 C 0.40708 0.64168 0.13774 0.0
H26 H 0.40889 0.71398 0.02004 0.0
H27 H 0.36205 0.65223 0.17886 0.0
H28 H 0.33605 0.71981 0.96686 0.0
H29 H 0.29425 0.58272 0.90742 0.0
H30 H 0.37257 0.80254 0.30058 0.0
H31 H 0.44907 0.6781 1.00461 0.0
H32 H 0.40471 0.62066 0.17126 0.0
C33 C 0.6978 0.42012 0.08378 0.0
C34 C 0.70265 0.42697 0.14687 0.0
N35 N 0.6839 0.38596 0.16597 0.0
N36 N 0.67611 0.37506 0.06304 0.0
C37 C 0.66797 0.35509 0.11409 0.0
H38 H 0.70944 0.4463 0.0547 0.0
Co39 Co 0.66286 0.34995 0.98055 0.0
C40 C 0.6385 0.25448 0.97729 0.0
O41 O 0.66485 0.26143 0.93457 0.0
N42 N 0.64818 0.32446 0.89606 0.0
C43 C 0.6055 0.28085 0.81237 0.0
C44 C 0.60888 0.28894 0.87526 0.0
C45 C 0.66795 0.33766 0.84417 0.0
N46 N 0.64268 0.31162 0.79258 0.0
O47 O 0.61116 0.34859 0.98379 0.0
H48 H 0.58352 0.27094 0.90415 0.0
H49 H 0.69979 0.36639 0.8435 0.0
O50 O 0.63491 0.28727 1.00145 0.0
C51 C 0.61897 0.38455 0.9636 0.0
O52 O 0.65605 0.41002 0.94253 0.0
N53 N 0.71685 0.35904 0.97862 0.0
C54 C 0.80495 0.4042 0.99853 0.0
C55 C 0.77782 0.36474 0.02471 0.0
C56 C 0.73373 0.34298 1.01492 0.0
C57 C 0.74289 0.39708 0.95301 0.0
C58 C 0.78662 0.41912 0.96053 0.0
H59 H 0.71364 0.31589 0.04068 0.0
H60 H 0.72982 0.413 0.93084 0.0
H61 H 0.65146 0.31865 0.11329 0.0
H62 H 0.71839 0.45967 0.17627 0.0
H63 H 0.57705 0.25565 0.78359 0.0
H64 H 0.79038 0.35265 0.05589 0.0
H65 H 0.80586 0.44925 0.93917 0.0
H66 H 0.50209 0.66423 0.02942 0.0
H67 H 0.52755 0.61346 1.00467 0.0
H68 H 0.42239 0.50898 0.08738 0.0
H69 H 0.3956 0.55803 0.10963 0.0
H70 H 0.50149 0.52342 0.12428 0.0
H71 H 0.41736 0.49638 0.94054 0.0
H72 H 0.39564 0.51898 0.85359 0.0
H73 H 0.51942 0.5764 0.78886 0.0
H74 H 0.54209 0.55475 0.87602 0.0
H75 H 0.54639 0.3535 0.02546 0.0
H76 H 0.5061 0.38988 0.04216 0.0
H77 H 0.58857 0.4914 0.93168 0.0
H78 H 0.62727 0.45468 0.91309 0.0
H79 H 0.51392 0.47267 0.9092 0.0
H80 H 0.60122 0.50794 0.09445 0.0
H81 H 0.62644 0.48936 0.18229 0.0
H82 H 0.50179 0.42172 0.24533 0.0
H83 H 0.4757 0.43935 0.1573 0.0
C84 C 0.48416 0.63038 0.042 0.0
C85 C 0.44698 0.61577 0.07235 0.0
C86 C 0.49888 0.60146 0.02803 0.0
C87 C 0.47688 0.55747 0.04439 0.0
C88 C 0.44008 0.54292 0.07493 0.0
C89 C 0.42506 0.57141 0.0881 0.0
C90 C 0.49181 0.52626 0.02918 0.0
C91 C 0.50373 0.51181 0.07724 0.0
C92 C 0.4952 0.51162 0.96789 0.0
C93 C 0.48154 0.52433 0.91516 0.0
C94 C 0.44006 0.51416 0.90806 0.0
C95 C 0.42755 0.52674 0.85869 0.0
C96 C 0.45616 0.54922 0.81581 0.0
C97 C 0.49731 0.55904 0.82215 0.0
C98 C 0.50999 0.54659 0.8715 0.0
C99 C 0.55528 0.38303 1.00389 0.0
C100 C 0.59031 0.40139 0.96849 0.0
C101 C 0.53251 0.40408 1.01385 0.0
C102 C 0.54475 0.44406 0.98915 0.0
C103 C 0.57839 0.46079 0.95143 0.0
C104 C 0.60073 0.43973 0.94111 0.0
C105 C 0.52457 0.47036 1.00439 0.0
C106 C 0.51149 0.48391 0.95632 0.0
C107 C 0.52071 0.48474 0.06576 0.0
C108 C 0.53642 0.47449 0.11895 0.0
C109 C 0.57914 0.48885 0.12685 0.0
C110 C 0.5936 0.47852 0.17667 0.0
C111 C 0.5657 0.45426 0.21927 0.0
C112 C 0.52333 0.44042 0.21222 0.0
C113 C 0.50869 0.45057 0.16239 0.0
H114 H 0.57695 0.44628 0.25781 0.0
H115 H 0.44641 0.55894 0.77763 0.0
H116 H 0.85748 0.49745 0.01807 0.0
H117 H 0.93392 0.54392 0.03958 0.0
H118 H 0.9356 0.4227 0.04108 0.0
H119 H 0.85868 0.37532 0.01715 0.0
H120 H 0.98505 0.4941 0.14098 0.0
H121 H 0.9655 0.47402 0.91972 0.0
H122 H 0.93623 0.47737 0.82205 0.0
H123 H 0.9949 0.62184 0.87223 0.0
H124 H 0.02403 0.61923 0.97066 0.0
H125 H 0.19532 0.56755 0.11784 0.0
H126 H 0.11978 0.53212 0.10345 0.0
H127 H 0.13833 0.66013 0.07389 0.0
H128 H 0.2156 0.69623 0.08639 0.0
H129 H 0.07814 0.59249 0.99361 0.0
H130 H 0.10209 0.61605 0.20999 0.0
H131 H 0.131 0.61541 0.30981 0.0
H132 H 0.06356 0.46929 0.27409 0.0
H133 H 0.03471 0.46905 0.17361 0.0
C134 C 0.87394 0.48032 0.02176 0.0
C135 C 0.8517 0.43231 1.01446 0.0
C136 C 0.91776 0.50715 0.03461 0.0
C137 C 0.94056 0.48683 0.04116 0.0
C138 C 0.91858 0.43908 0.03596 0.0
C139 C 0.87459 0.41204 0.02247 0.0
C140 C 0.98735 0.51558 0.05332 0.0
C141 C 1.00549 0.51521 0.10852 0.0
C142 C 0.01383 0.54472 1.01215 0.0
C143 C 0.99657 0.54634 0.95282 0.0
C144 C 0.97186 0.50644 0.91015 0.0
C145 C 0.95535 0.50822 0.85462 0.0
C146 C 0.9636 0.54977 0.84102 0.0
C147 C 0.98849 0.58967 0.88287 0.0
C148 C 1.00503 0.58806 0.93851 0.0
C149 C 0.18373 0.58866 0.10872 0.0
C150 C 0.21177 0.63505 0.10384 0.0
C151 C 0.14018 0.56817 0.10081 0.0
C152 C 0.12304 0.59352 0.08907 0.0
C153 C 0.15078 0.6399 0.08351 0.0
C154 C 0.19487 0.66055 0.09083 0.0
C155 C 0.07617 0.57037 0.0809 0.0
C156 C 0.05785 0.57179 0.02652 0.0
C157 C 0.04941 0.54269 0.12333 0.0
C158 C 0.06642 0.54258 0.18402 0.0
C159 C 0.09362 0.58379 0.22322 0.0
C160 C 0.10998 0.58358 0.27996 0.0
C161 C 0.09918 0.54234 0.29824 0.0
C162 C 0.0719 0.50121 0.25987 0.0
C163 C 0.05548 0.50122 0.20304 0.0
H164 H 0.11189 0.54226 0.34217 0.0
H165 H 0.95079 0.55108 0.79799 0.0
H166 H 0.37034 0.83229 0.06788 0.0
H167 H 0.40398 0.91196 0.05175 0.0
H168 H 0.52481 0.92549 0.04755 0.0
H169 H 0.49168 0.8471 0.06655 0.0
H170 H 0.53656 0.99508 0.11486 0.0
H171 H 0.46336 0.91924 0.91539 0.0
H172 H 0.4017 0.86659 0.8414 0.0
H173 H 0.34293 0.93907 0.90264 0.0
H174 H 0.40404 0.9918 0.9776 0.0
H175 H 0.65566 0.18827 0.96413 0.0
H176 H 0.61163 0.1102 0.98592 0.0
H177 H 0.5172 0.13603 0.04899 0.0
H178 H 0.56183 0.21515 0.02835 0.0
H179 H 0.48709 0.04971 0.95894 0.0
H180 H 0.56702 0.12981 0.15337 0.0
H181 H 0.63231 0.18294 0.22053 0.0
H182 H 0.68216 0.10117 0.16003 0.0
H183 H 0.61741 0.04792 0.09174 0.0
C184 C 0.40395 0.85216 0.06253 0.0
C185 C 0.42835 0.83339 0.06849 0.0
C186 C 0.42326 0.89781 0.05323 0.0
C187 C 0.46719 0.92523 0.04813 0.0
C188 C 0.49106 0.90564 0.05187 0.0
C189 C 0.472 0.86056 0.06237 0.0
C190 C 0.48905 0.97472 0.04155 0.0
C191 C 0.52573 1.00666 0.08024 0.0
C192 C 0.47475 0.99074 0.99765 0.0
C193 C 0.43805 0.95913 0.95258 0.0
C194 C 0.43714 0.92373 0.9134 0.0
C195 C 0.40232 0.89391 0.87123 0.0
C196 C 0.36837 0.8994 0.86745 0.0
C197 C 0.36922 0.9348 0.90571 0.0
C198 C 0.40395 0.96468 0.94801 0.0
C199 C 0.62565 0.17757 0.983 0.0
C200 C 0.61234 0.20805 0.99465 0.0
C201 C 0.60048 0.13283 0.99537 0.0
C202 C 0.56104 0.11714 0.01888 0.0
C203 C 0.54747 0.14737 0.03064 0.0
C204 C 0.57312 0.19263 0.0193 0.0
C205 C 0.53466 0.06917 0.03126 0.0
C206 C 0.49736 0.03777 0.99379 0.0
C207 C 0.54869 0.05339 0.07549 0.0
C208 C 0.58747 0.08506 0.11707 0.0
C209 C 0.59203 0.12334 0.15402 0.0
C210 C 0.62892 0.15345 0.19236 0.0
C211 C 0.6614 0.14548 0.19446 0.0
C212 C 0.65699 0.10731 0.15834 0.0
C213 C 0.62018 0.07713 0.11986 0.0
H214 H 0.68994 0.16883 0.22416 0.0
H215 H 0.34145 0.87629 0.83477 0.0
H216 H 0.26555 0.59079 0.81776 0.0
H217 H 0.26823 0.60204 0.7104 0.0
H218 H 0.36689 0.74381 0.76273 0.0
H219 H 0.36425 0.73278 0.87027 0.0
H220 H 0.31113 0.7352 0.67955 0.0
H221 H 0.38843 0.66422 0.69863 0.0
H222 H 0.3995 0.60526 0.72529 0.0
H223 H 0.29558 0.50383 0.59704 0.0
H224 H 0.28352 0.5621 0.57022 0.0
H225 H 0.39184 0.78862 0.39201 0.0
H226 H 0.38244 0.7733 0.4974 0.0
H227 H 0.28105 0.63449 0.43353 0.0
H228 H 0.29008 0.64968 0.32738 0.0
H229 H 0.33453 0.63895 0.52114 0.0
H230 H 0.25989 0.71223 0.49916 0.0
H231 H 0.25046 0.77237 0.47292 0.0
H232 H 0.35139 0.87094 0.60727 0.0
H233 H 0.36186 0.81151 0.63371 0.0
C234 C 0.28797 0.62432 0.80645 0.0
C235 C 0.31486 0.6608 0.85275 0.0
C236 C 0.28947 0.63071 0.74496 0.0
C237 C 0.31823 0.67362 0.72821 0.0
C238 C 0.34445 0.71037 0.77443 0.0
C239 C 0.34282 0.70404 0.83602 0.0
C240 C 0.32113 0.6802 0.66255 0.0
C241 C 0.31674 0.71449 0.64508 0.0
C242 C 0.32744 0.65249 0.61712 0.0
C243 C 0.3348 0.61744 0.63288 0.0
C244 C 0.36774 0.62928 0.67645 0.0
C245 C 0.37423 0.596 0.69153 0.0
C246 C 0.34819 0.55081 0.663 0.0
C247 C 0.31569 0.53884 0.61917 0.0
C248 C 0.30903 0.57198 0.60397 0.0
C249 C 0.36715 0.75494 0.40015 0.0
C250 C 0.34146 0.72055 0.35092 0.0
C251 C 0.36188 0.7462 0.46063 0.0
C252 C 0.33062 0.70293 0.4736 0.0
C253 C 0.30533 0.66819 0.42466 0.0
C254 C 0.31062 0.67691 0.36391 0.0
C255 C 0.32482 0.69416 0.5383 0.0
C256 C 0.32869 0.65948 0.55558 0.0
C257 C 0.31825 0.72168 0.58365 0.0
C258 C 0.31189 0.75746 0.56803 0.0
C259 C 0.28029 0.74679 0.52279 0.0
C260 C 0.27472 0.78075 0.50793 0.0
C261 C 0.30037 0.82547 0.53831 0.0
C262 C 0.33158 0.83629 0.58373 0.0
C263 C 0.33731 0.80248 0.59871 0.0
H264 H 0.29601 0.85171 0.52674 0.0
H265 H 0.35326 0.5251 0.67475 0.0
H266 H 0.73706 0.44324 0.26517 0.0
H267 H 0.73223 0.42902 0.37114 0.0
H268 H 0.62189 0.29403 0.31546 0.0
H269 H 0.62554 0.30861 0.20958 0.0
H270 H 0.60966 0.33441 0.41596 0.0
H271 H 0.71851 0.311 0.35197 0.0
H272 H 0.78517 0.32989 0.30736 0.0
H273 H 0.85484 0.44692 0.44693 0.0
H274 H 0.78849 0.4291 0.4919 0.0
H275 H 0.60297 0.24817 0.69089 0.0
H276 H 0.61275 0.26034 0.58416 0.0
H277 H 0.71261 0.40065 0.64268 0.0
H278 H 0.70235 0.38927 0.7499 0.0
H279 H 0.7307 0.35687 0.5412 0.0
H280 H 0.62017 0.37962 0.60324 0.0
H281 H 0.55295 0.35876 0.64752 0.0
H282 H 0.48584 0.23997 0.50999 0.0
H283 H 0.5528 0.25977 0.46543 0.0
C284 C 0.71154 0.41063 0.27533 0.0
C285 C 0.68167 0.37712 0.22853 0.0
C286 C 0.70912 0.40234 0.336 0.0
C287 C 0.67699 0.36024 0.35126 0.0
C288 C 0.64707 0.32672 0.30478 0.0
C289 C 0.64942 0.335 0.24407 0.0
C290 C 0.67391 0.35168 0.41597 0.0
C291 C 0.63596 0.33866 0.44296 0.0
C292 C 0.70849 0.35816 0.45177 0.0
C293 C 0.74847 0.36896 0.42494 0.0
C294 C 0.74801 0.34098 0.37286 0.0
C295 C 0.78574 0.35146 0.34756 0.0
C296 C 0.82421 0.38965 0.3742 0.0
C297 C 0.82502 0.41738 0.4263 0.0
C298 C 0.78736 0.40709 0.45175 0.0
C299 C 0.62693 0.28173 0.68138 0.0
C300 C 0.65144 0.31785 0.72946 0.0
C301 C 0.63262 0.28852 0.62019 0.0
C302 C 0.66306 0.33152 0.60556 0.0
C303 C 0.68892 0.36718 0.65306 0.0
C304 C 0.68306 0.36052 0.71445 0.0
C305 C 0.66651 0.33957 0.54077 0.0
C306 C 0.70447 0.35255 0.51393 0.0
C307 C 0.63189 0.33278 0.5049 0.0
C308 C 0.59155 0.32093 0.5314 0.0
C309 C 0.59113 0.34884 0.58276 0.0
C310 C 0.55306 0.33725 0.60785 0.0
C311 C 0.51516 0.298 0.58169 0.0
C312 C 0.51523 0.27032 0.53027 0.0
C313 C 0.55323 0.28173 0.50505 0.0
H314 H 0.48572 0.28908 0.60117 0.0
H315 H 0.85339 0.3977 0.35455 0.0
loop_
_geom_bond_atom_site_label_1
_geom_bond_atom_site_label_2
_geom_bond_distance
_geom_bond_site_symmetry_2
_ccdc_geom_bond_type
C0 C1 1.351 . S
C0 N3 1.368 . S
C0 H5 0.931 . S
C1 C0 1.351 . S
C1 N2 1.373 . S
C1 H29 0.930 . S
N2 C1 1.373 . S
N2 C4 1.340 . S
N3 C0 1.368 . S
N3 C4 1.321 . S
N3 Co6 2.135 1_556 S
C4 N2 1.340 . S
C4 N3 1.321 . S
C4 H28 0.930 . S
H5 C0 0.931 . S
Co6 N3 2.135 1_554 S
Co6 N9 2.121 . S
Co6 O14 2.055 . S
Co6 O17 2.039 . S
Co6 N20 2.140 . S
C7 O8 1.227 . S
C7 O17 1.265 . S
O8 C7 1.227 . S
N9 Co6 2.121 . S
N9 C11 1.375 . S
N9 C12 1.313 . S
C10 C11 1.338 . S
C10 N13 1.377 . S
C10 H30 0.930 . S
C11 N9 1.375 . S
C11 C10 1.338 . S
C11 H15 0.931 . S
C12 N9 1.313 . S
C12 N13 1.344 . S
C12 H16 0.930 . S
N13 C10 1.377 . S
N13 C12 1.344 . S
O14 Co6 2.055 . S
O14 C18 1.253 . S
H15 C11 0.931 . S
H16 C12 0.930 . S
O17 Co6 2.039 . S
O17 C7 1.265 . S
C18 O14 1.253 . S
C18 O19 1.227 . S
O19 C18 1.227 . S
N20 Co6 2.140 . S
N20 C23 1.346 1_554 S
N20 C24 1.345 . S
C21 C22 1.387 1_554 S
C21 C25 1.391 . S
C22 C21 1.387 1_556 S
C22 C23 1.369 . S
C22 H31 0.929 . S
C23 N20 1.346 1_556 S
C23 C22 1.369 . S
C23 H26 0.928 . S
C24 N20 1.345 . S
C24 C25 1.371 . S
C24 H27 0.931 . S
C25 C21 1.391 . S
C25 C24 1.371 . S
C25 H32 0.930 . S
H26 C23 0.928 . S
H27 C24 0.931 . S
H28 C4 0.930 . S
H29 C1 0.930 . S
H30 C10 0.930 . S
H31 C22 0.929 . S
H32 C25 0.930 . S
C33 C34 1.351 . S
C33 N36 1.368 . S
C33 H38 0.931 . S
C34 C33 1.351 . S
C34 N35 1.373 . S
C34 H62 0.930 . S
N35 C34 1.373 . S
N35 C37 1.340 . S
N36 C33 1.368 . S
N36 C37 1.321 . S
N36 Co39 2.135 . S
C37 N35 1.340 . S
C37 N36 1.321 . S
C37 H61 0.930 . S
H38 C33 0.931 . S
Co39 N36 2.135 . S
Co39 N42 2.121 1_554 S
Co39 O47 2.055 . S
Co39 O50 2.039 . S
Co39 N53 2.140 . S
C40 O41 1.227 . S
C40 O50 1.265 . S
O41 C40 1.227 . S
N42 Co39 2.121 1_556 S
N42 C44 1.375 . S
N42 C45 1.313 . S
C43 C44 1.338 . S
C43 N46 1.377 . S
C43 H63 0.930 . S
C44 N42 1.375 . S
C44 C43 1.338 . S
C44 H48 0.931 . S
C45 N42 1.313 . S
C45 N46 1.344 . S
C45 H49 0.930 . S
N46 C43 1.377 . S
N46 C45 1.344 . S
O47 Co39 2.055 . S
O47 C51 1.253 . S
H48 C44 0.931 . S
H49 C45 0.930 . S
O50 Co39 2.039 . S
O50 C40 1.265 . S
C51 O47 1.253 . S
C51 O52 1.227 . S
O52 C51 1.227 . S
N53 Co39 2.140 . S
N53 C56 1.346 . S
N53 C57 1.345 1_554 S
C54 C55 1.387 . S
C54 C58 1.391 1_554 S
C55 C54 1.387 . S
C55 C56 1.369 . S
C55 H64 0.929 . S
C56 N53 1.346 . S
C56 C55 1.369 . S
C56 H59 0.928 . S
C57 N53 1.345 1_556 S
C57 C58 1.371 . S
C57 H60 0.931 . S
C58 C54 1.391 1_556 S
C58 C57 1.371 . S
C58 H65 0.930 . S
H59 C56 0.928 . S
H60 C57 0.931 . S
H61 C37 0.930 . S
H62 C34 0.930 . S
H63 C43 0.930 . S
H64 C55 0.929 . S
H65 C58 0.930 . S
H66 C84 0.951 . S
H67 C86 0.951 . S
H68 C88 0.950 . S
H69 C89 0.950 . S
H70 C91 0.950 . S
H71 C94 0.950 . S
H72 C95 0.950 . S
H73 C97 0.950 . S
H74 C98 0.950 . S
H75 C99 0.951 . S
H76 C101 0.951 . S
H77 C103 0.950 . S
H78 C104 0.950 . S
H79 C106 0.950 . S
H80 C109 0.950 . S
H81 C110 0.950 . S
H82 C112 0.950 . S
H83 C113 0.950 . S
C84 H66 0.951 . S
C84 C85 1.366 . S
C84 C86 1.388 . S
C85 C84 1.366 . S
C85 C89 1.385 . S
C86 H67 0.951 . S
C86 C84 1.388 . S
C86 C87 1.366 . S
C87 C86 1.366 . S
C87 C88 1.414 . S
C87 C90 1.499 . S
C88 H68 0.950 . S
C88 C87 1.414 . S
C88 C89 1.374 . S
C89 H69 0.950 . S
C89 C85 1.385 . S
C89 C88 1.374 . S
C90 C87 1.499 . S
C90 C91 1.373 . S
C90 C92 1.389 1_554 S
C91 H70 0.950 . S
C91 C90 1.373 . S
C91 C107 1.377 . S
C92 C90 1.389 1_556 S
C92 C93 1.524 . S
C92 C106 1.377 . S
C93 C92 1.524 . S
C93 C94 1.397 . S
C93 C98 1.363 . S
C94 H71 0.950 . S
C94 C93 1.397 . S
C94 C95 1.334 . S
C95 H72 0.950 . S
C95 C94 1.334 . S
C95 C96 1.287 . S
C96 C95 1.287 . S
C96 C97 1.524 . S
C96 H115 0.913 . S
C97 H73 0.950 . S
C97 C96 1.524 . S
C97 C98 1.415 . S
C98 H74 0.950 . S
C98 C93 1.363 . S
C98 C97 1.415 . S
C99 H75 0.951 . S
C99 C100 1.366 . S
C99 C101 1.388 . S
C100 C99 1.366 . S
C100 C104 1.385 . S
C101 H76 0.951 . S
C101 C99 1.388 . S
C101 C102 1.366 . S
C102 C101 1.366 . S
C102 C103 1.414 . S
C102 C105 1.499 . S
C103 H77 0.950 . S
C103 C102 1.414 . S
C103 C104 1.374 . S
C104 H78 0.950 . S
C104 C100 1.385 . S
C104 C103 1.374 . S
C105 C102 1.499 . S
C105 C106 1.373 1_554 S
C105 C107 1.389 . S
C106 H79 0.950 . S
C106 C92 1.377 . S
C106 C105 1.373 1_556 S
C107 C91 1.377 . S
C107 C105 1.389 . S
C107 C108 1.524 . S
C108 C107 1.524 . S
C108 C109 1.397 . S
C108 C113 1.363 . S
C109 H80 0.950 . S
C109 C108 1.397 . S
C109 C110 1.334 . S
C110 H81 0.950 . S
C110 C109 1.334 . S
C110 C111 1.287 . S
C111 C110 1.287 . S
C111 C112 1.524 . S
C111 H114 0.999 . S
C112 H82 0.950 . S
C112 C111 1.524 . S
C112 C113 1.415 . S
C113 H83 0.950 . S
C113 C108 1.363 . S
C113 C112 1.415 . S
H114 C111 0.999 . S
H115 C96 0.913 . S
H116 C134 0.951 . S
H117 C136 0.951 . S
H118 C138 0.950 . S
H119 C139 0.950 . S
H120 C141 0.950 . S
H121 C144 0.950 . S
H122 C145 0.950 . S
H123 C147 0.950 . S
H124 C148 0.950 1_455 S
H125 C149 0.951 . S
H126 C151 0.951 . S
H127 C153 0.950 . S
H128 C154 0.950 . S
H129 C156 0.950 1_556 S
H130 C159 0.950 . S
H131 C160 0.950 . S
H132 C162 0.950 . S
H133 C163 0.950 . S
C134 H116 0.951 . S
C134 C135 1.366 . S
C134 C136 1.388 . S
C135 C134 1.366 . S
C135 C139 1.385 . S
C136 H117 0.951 . S
C136 C134 1.388 . S
C136 C137 1.366 . S
C137 C136 1.366 . S
C137 C138 1.414 . S
C137 C140 1.499 . S
C138 H118 0.950 . S
C138 C137 1.414 . S
C138 C139 1.374 . S
C139 H119 0.950 . S
C139 C135 1.385 . S
C139 C138 1.374 . S
C140 C137 1.499 . S
C140 C141 1.373 . S
C140 C142 1.389 . S
C141 H120 0.950 . S
C141 C140 1.373 . S
C141 C157 1.377 1_655 S
C142 C140 1.389 . S
C142 C143 1.524 1_554 S
C142 C156 1.377 1_655 S
C143 C142 1.524 1_556 S
C143 C144 1.397 . S
C143 C148 1.363 . S
C144 H121 0.950 . S
C144 C143 1.397 . S
C144 C145 1.334 . S
C145 H122 0.950 . S
C145 C144 1.334 . S
C145 C146 1.287 . S
C146 C145 1.287 . S
C146 C147 1.524 . S
C146 H165 0.913 . S
C147 H123 0.950 . S
C147 C146 1.524 . S
C147 C148 1.415 . S
C148 H124 0.950 1_655 S
C148 C143 1.363 . S
C148 C147 1.415 . S
C149 H125 0.951 . S
C149 C150 1.366 . S
C149 C151 1.388 . S
C150 C149 1.366 . S
C150 C154 1.385 . S
C151 H126 0.951 . S
C151 C149 1.388 . S
C151 C152 1.366 . S
C152 C151 1.366 . S
C152 C153 1.414 . S
C152 C155 1.499 . S
C153 H127 0.950 . S
C153 C152 1.414 . S
C153 C154 1.374 . S
C154 H128 0.950 . S
C154 C150 1.385 . S
C154 C153 1.374 . S
C155 C152 1.499 . S
C155 C156 1.373 . S
C155 C157 1.389 . S
C156 H129 0.950 1_554 S
C156 C142 1.377 1_455 S
C156 C155 1.373 . S
C157 C141 1.377 1_455 S
C157 C155 1.389 . S
C157 C158 1.524 . S
C158 C157 1.524 . S
C158 C159 1.397 . S
C158 C163 1.363 . S
C159 H130 0.950 . S
C159 C158 1.397 . S
C159 C160 1.334 . S
C160 H131 0.950 . S
C160 C159 1.334 . S
C160 C161 1.287 . S
C161 C160 1.287 . S
C161 C162 1.524 . S
C161 H164 0.999 . S
C162 H132 0.950 . S
C162 C161 1.524 . S
C162 C163 1.415 . S
C163 H133 0.950 . S
C163 C158 1.363 . S
C163 C162 1.415 . S
H164 C161 0.999 . S
H165 C146 0.913 . S
H166 C184 0.951 . S
H167 C186 0.951 . S
H168 C188 0.950 . S
H169 C189 0.950 . S
H170 C191 0.950 . S
H171 C194 0.950 . S
H172 C195 0.950 . S
H173 C197 0.950 . S
H174 C198 0.950 . S
H175 C199 0.951 . S
H176 C201 0.951 . S
H177 C203 0.950 . S
H178 C204 0.950 . S
H179 C206 0.950 . S
H180 C209 0.950 . S
H181 C210 0.950 . S
H182 C212 0.950 . S
H183 C213 0.950 . S
C184 H166 0.951 . S
C184 C185 1.366 . S
C184 C186 1.388 . S
C185 C184 1.366 . S
C185 C189 1.385 1_554 S
C186 H167 0.951 . S
C186 C184 1.388 . S
C186 C187 1.366 . S
C187 C186 1.366 . S
C187 C188 1.414 1_554 S
C187 C190 1.499 . S
C188 H168 0.950 . S
C188 C187 1.414 1_556 S
C188 C189 1.374 . S
C189 H169 0.950 . S
C189 C185 1.385 1_556 S
C189 C188 1.374 . S
C190 C187 1.499 . S
C190 C191 1.373 . S
C190 C192 1.389 . S
C191 H170 0.950 . S
C191 C190 1.373 . S
C191 C207 1.377 1_565 S
C192 C190 1.389 . S
C192 C193 1.524 . S
C192 C206 1.377 1_565 S
C193 C192 1.524 . S
C193 C194 1.397 1_554 S
C193 C198 1.363 . S
C194 H171 0.950 . S
C194 C193 1.397 1_556 S
C194 C195 1.334 . S
C195 H172 0.950 . S
C195 C194 1.334 . S
C195 C196 1.287 1_556 S
C196 C195 1.287 1_554 S
C196 C197 1.524 . S
C196 H215 0.913 . S
C197 H173 0.950 . S
C197 C196 1.524 . S
C197 C198 1.415 . S
C198 H174 0.950 . S
C198 C193 1.363 . S
C198 C197 1.415 . S
C199 H175 0.951 . S
C199 C200 1.366 1_556 S
C199 C201 1.388 . S
C200 C199 1.366 1_554 S
C200 C204 1.385 . S
C201 H176 0.951 . S
C201 C199 1.388 . S
C201 C202 1.366 1_556 S
C202 C201 1.366 1_554 S
C202 C203 1.414 . S
C202 C205 1.499 . S
C203 H177 0.950 . S
C203 C202 1.414 . S
C203 C204 1.374 . S
C204 H178 0.950 . S
C204 C200 1.385 . S
C204 C203 1.374 . S
C205 C202 1.499 . S
C205 C206 1.373 . S
C205 C207 1.389 . S
C206 H179 0.950 . S
C206 C192 1.377 1_545 S
C206 C205 1.373 . S
C207 C191 1.377 1_545 S
C207 C205 1.389 . S
C207 C208 1.524 . S
C208 C207 1.524 . S
C208 C209 1.397 . S
C208 C213 1.363 1_554 S
C209 H180 0.950 . S
C209 C208 1.397 . S
C209 C210 1.334 . S
C210 H181 0.950 . S
C210 C209 1.334 . S
C210 C211 1.287 . S
C211 C210 1.287 . S
C211 C212 1.524 1_554 S
C211 H214 0.999 . S
C212 H182 0.950 . S
C212 C211 1.524 1_556 S
C212 C213 1.415 . S
C213 H183 0.950 . S
C213 C208 1.363 1_556 S
C213 C212 1.415 . S
H214 C211 0.999 . S
H215 C196 0.913 . S
H216 C234 0.951 . S
H217 C236 0.951 . S
H218 C238 0.950 . S
H219 C239 0.950 . S
H220 C241 0.950 . S
H221 C244 0.950 . S
H222 C245 0.950 . S
H223 C247 0.950 . S
H224 C248 0.950 . S
H225 C249 0.951 . S
H226 C251 0.951 . S
H227 C253 0.950 . S
H228 C254 0.950 . S
H229 C256 0.950 . S
H230 C259 0.950 . S
H231 C260 0.950 . S
H232 C262 0.950 . S
H233 C263 0.950 . S
C234 H216 0.951 . S
C234 C235 1.366 . S
C234 C236 1.388 . S
C235 C234 1.366 . S
C235 C239 1.385 . S
C236 H217 0.951 . S
C236 C234 1.388 . S
C236 C237 1.366 . S
C237 C236 1.366 . S
C237 C238 1.414 . S
C237 C240 1.499 . S
C238 H218 0.950 . S
C238 C237 1.414 . S
C238 C239 1.374 . S
C239 H219 0.950 . S
C239 C235 1.385 . S
C239 C238 1.374 . S
C240 C237 1.499 . S
C240 C241 1.373 . S
C240 C242 1.389 . S
C241 H220 0.950 . S
C241 C240 1.373 . S
C241 C257 1.377 . S
C242 C240 1.389 . S
C242 C243 1.524 . S
C242 C256 1.377 . S
C243 C242 1.524 . S
C243 C244 1.397 . S
C243 C248 1.363 . S
C244 H221 0.950 . S
C244 C243 1.397 . S
C244 C245 1.334 . S
C245 H222 0.950 . S
C245 C244 1.334 . S
C245 C246 1.287 . S
C246 C245 1.287 . S
C246 C247 1.524 . S
C246 H265 0.913 . S
C247 H223 0.950 . S
C247 C246 1.524 . S
C247 C248 1.415 . S
C248 H224 0.950 . S
C248 C243 1.363 . S
C248 C247 1.415 . S
C249 H225 0.951 . S
C249 C250 1.366 . S
C249 C251 1.388 . S
C250 C249 1.366 . S
C250 C254 1.385 . S
C251 H226 0.951 . S
C251 C249 1.388 . S
C251 C252 1.366 . S
C252 C251 1.366 . S
C252 C253 1.414 . S
C252 C255 1.499 . S
C253 H227 0.950 . S
C253 C252 1.414 . S
C253 C254 1.374 . S
C254 H228 0.950 . S
C254 C250 1.385 . S
C254 C253 1.374 . S
C255 C252 1.499 . S
C255 C256 1.373 . S
C255 C257 1.389 . S
C256 H229 0.950 . S
C256 C242 1.377 . S
C256 C255 1.373 . S
C257 C241 1.377 . S
C257 C255 1.389 . S
C257 C258 1.524 . S
C258 C257 1.524 . S
C258 C259 1.397 . S
C258 C263 1.363 . S
C259 H230 0.950 . S
C259 C258 1.397 . S
C259 C260 1.334 . S
C260 H231 0.950 . S
C260 C259 1.334 . S
C260 C261 1.287 . S
C261 C260 1.287 . S
C261 C262 1.524 . S
C261 H264 0.999 . S
C262 H232 0.950 . S
C262 C261 1.524 . S
C262 C263 1.415 . S
C263 H233 0.950 . S
C263 C258 1.363 . S
C263 C262 1.415 . S
H264 C261 0.999 . S
H265 C246 0.913 . S
H266 C284 0.951 . S
H267 C286 0.951 . S
H268 C288 0.950 . S
H269 C289 0.950 . S
H270 C291 0.950 . S
H271 C294 0.950 . S
H272 C295 0.950 . S
H273 C297 0.950 . S
H274 C298 0.950 . S
H275 C299 0.951 . S
H276 C301 0.951 . S
H277 C303 0.950 . S
H278 C304 0.950 . S
H279 C306 0.950 . S
H280 C309 0.950 . S
H281 C310 0.950 . S
H282 C312 0.950 . S
H283 C313 0.950 . S
C284 H266 0.951 . S
C284 C285 1.366 . S
C284 C286 1.388 . S
C285 C284 1.366 . S
C285 C289 1.385 . S
C286 H267 0.951 . S
C286 C284 1.388 . S
C286 C287 1.366 . S
C287 C286 1.366 . S
C287 C288 1.414 . S
C287 C290 1.499 . S
C288 H268 0.950 . S
C288 C287 1.414 . S
C288 C289 1.374 . S
C289 H269 0.950 . S
C289 C285 1.385 . S
C289 C288 1.374 . S
C290 C287 1.499 . S
C290 C291 1.373 . S
C290 C292 1.389 . S
C291 H270 0.950 . S
C291 C290 1.373 . S
C291 C307 1.377 . S
C292 C290 1.389 . S
C292 C293 1.524 . S
C292 C306 1.377 . S
C293 C292 1.524 . S
C293 C294 1.397 . S
C293 C298 1.363 . S
C294 H271 0.950 . S
C294 C293 1.397 . S
C294 C295 1.334 . S
C295 H272 0.950 . S
C295 C294 1.334 . S
C295 C296 1.287 . S
C296 C295 1.287 . S
C296 C297 1.524 . S
C296 H315 0.913 . S
C297 H273 0.950 . S
C297 C296 1.524 . S
C297 C298 1.415 . S
C298 H274 0.950 . S
C298 C293 1.363 . S
C298 C297 1.415 . S
C299 H275 0.951 . S
C299 C300 1.366 . S
C299 C301 1.388 . S
C300 C299 1.366 . S
C300 C304 1.385 . S
C301 H276 0.951 . S
C301 C299 1.388 . S
C301 C302 1.366 . S
C302 C301 1.366 . S
C302 C303 1.414 . S
C302 C305 1.499 . S
C303 H277 0.950 . S
C303 C302 1.414 . S
C303 C304 1.374 . S
C304 H278 0.950 . S
C304 C300 1.385 . S
C304 C303 1.374 . S
C305 C302 1.499 . S
C305 C306 1.373 . S
C305 C307 1.389 . S
C306 H279 0.950 . S
C306 C292 1.377 . S
C306 C305 1.373 . S
C307 C291 1.377 . S
C307 C305 1.389 . S
C307 C308 1.524 . S
C308 C307 1.524 . S
C308 C309 1.397 . S
C308 C313 1.363 . S
C309 H280 0.950 . S
C309 C308 1.397 . S
C309 C310 1.334 . S
C310 H281 0.950 . S
C310 C309 1.334 . S
C310 C311 1.287 . S
C311 C310 1.287 . S
C311 C312 1.524 . S
C311 H314 0.999 . S
C312 H282 0.950 . S
C312 C311 1.524 . S
C312 C313 1.415 . S
C313 H283 0.950 . S
C313 C308 1.363 . S
C313 C312 1.415 . S
H314 C311 0.999 . S
H315 C296 0.913 . S
C85 C21 1.506 . S
C100 C51 1.507 . S
C135 C54 1.506 . S
C150 C18 1.507 . S
C185 C7 1.496 . S
C200 C40 1.496 . S
C235 N2 1.443 . S
C250 N13 1.446 . S
C285 N35 1.443 . S
C300 N46 1.445 . S
