# Generated by pormake.
# Topology ghw, (5)-cn, num edge types: 1
# Building blocks:
#     Node 0, Type 0, BuildingBlock: XOMCOT_clean_sbu_0, # of connection points: 5
#     Node 1, Type 0, BuildingBlock: XOMCOT_clean_sbu_0, # of connection points: 5
#     Node 2, Type 0, BuildingBlock: XOMCOT_clean_sbu_0, # of connection points: 5
#     Node 3, Type 0, BuildingBlock: XOMCOT_clean_sbu_0, # of connection points: 5
#     Node 4, Type 0, BuildingBlock: XOMCOT_clean_sbu_0, # of connection points: 5
#     Node 5, Type 0, BuildingBlock: XOMCOT_clean_sbu_0, # of connection points: 5
#     Node 6, Type 0, BuildingBlock: XOMCOT_clean_sbu_0, # of connection points: 5
#     Node 7, Type 0, BuildingBlock: XOMCOT_clean_sbu_0, # of connection points: 5
#     Node 8, Type 0, BuildingBlock: XOMCOT_clean_sbu_0, # of connection points: 5
#     Node 9, Type 0, BuildingBlock: XOMCOT_clean_sbu_0, # of connection points: 5
#     Node 10, Type 0, BuildingBlock: XOMCOT_clean_sbu_0, # of connection points: 5
#     Node 11, Type 0, BuildingBlock: XOMCOT_clean_sbu_0, # of connection points: 5
#     Node 12, Type 0, BuildingBlock: XOMCOT_clean_sbu_0, # of connection points: 5
#     Node 13, Type 0, BuildingBlock: XOMCOT_clean_sbu_0, # of connection points: 5
#     Node 14, Type 0, BuildingBlock: XOMCOT_clean_sbu_0, # of connection points: 5
#     Node 15, Type 0, BuildingBlock: XOMCOT_clean_sbu_0, # of connection points: 5
#     Edge 16, Type (0, 0), BuildingBlock: KIFKEQ_clean_linker_1, # of connection points: 2
#     Edge 17, Type (0, 0), BuildingBlock: KIFKEQ_clean_linker_1, # of connection points: 2
#     Edge 18, Type (0, 0), BuildingBlock: KIFKEQ_clean_linker_1, # of connection points: 2
#     Edge 19, Type (0, 0), BuildingBlock: KIFKEQ_clean_linker_1, # of connection points: 2
#     Edge 20, Type (0, 0), BuildingBlock: KIFKEQ_clean_linker_1, # of connection points: 2
#     Edge 21, Type (0, 0), BuildingBlock: KIFKEQ_clean_linker_1, # of connection points: 2
#     Edge 22, Type (0, 0), BuildingBlock: KIFKEQ_clean_linker_1, # of connection points: 2
#     Edge 23, Type (0, 0), BuildingBlock: KIFKEQ_clean_linker_1, # of connection points: 2
#     Edge 24, Type (0, 0), BuildingBlock: KIFKEQ_clean_linker_1, # of connection points: 2
#     Edge 25, Type (0, 0), BuildingBlock: KIFKEQ_clean_linker_1, # of connection points: 2
#     Edge 26, Type (0, 0), BuildingBlock: KIFKEQ_clean_linker_1, # of connection points: 2
#     Edge 27, Type (0, 0), BuildingBlock: KIFKEQ_clean_linker_1, # of connection points: 2
#     Edge 28, Type (0, 0), BuildingBlock: KIFKEQ_clean_linker_1, # of connection points: 2
#     Edge 29, Type (0, 0), BuildingBlock: KIFKEQ_clean_linker_1, # of connection points: 2
#     Edge 30, Type (0, 0), BuildingBlock: KIFKEQ_clean_linker_1, # of connection points: 2
#     Edge 31, Type (0, 0), BuildingBlock: KIFKEQ_clean_linker_1, # of connection points: 2
#     Edge 32, Type (0, 0), BuildingBlock: KIFKEQ_clean_linker_1, # of connection points: 2
#     Edge 33, Type (0, 0), BuildingBlock: KIFKEQ_clean_linker_1, # of connection points: 2
#     Edge 34, Type (0, 0), BuildingBlock: KIFKEQ_clean_linker_1, # of connection points: 2
#     Edge 35, Type (0, 0), BuildingBlock: KIFKEQ_clean_linker_1, # of connection points: 2
#     Edge 36, Type (0, 0), BuildingBlock: KIFKEQ_clean_linker_1, # of connection points: 2
#     Edge 37, Type (0, 0), BuildingBlock: KIFKEQ_clean_linker_1, # of connection points: 2
#     Edge 38, Type (0, 0), BuildingBlock: KIFKEQ_clean_linker_1, # of connection points: 2
#     Edge 39, Type (0, 0), BuildingBlock: KIFKEQ_clean_linker_1, # of connection points: 2
#     Edge 40, Type (0, 0), BuildingBlock: KIFKEQ_clean_linker_1, # of connection points: 2
#     Edge 41, Type (0, 0), BuildingBlock: KIFKEQ_clean_linker_1, # of connection points: 2
#     Edge 42, Type (0, 0), BuildingBlock: KIFKEQ_clean_linker_1, # of connection points: 2
#     Edge 43, Type (0, 0), BuildingBlock: KIFKEQ_clean_linker_1, # of connection points: 2
#     Edge 44, Type (0, 0), BuildingBlock: KIFKEQ_clean_linker_1, # of connection points: 2
#     Edge 45, Type (0, 0), BuildingBlock: KIFKEQ_clean_linker_1, # of connection points: 2
#     Edge 46, Type (0, 0), BuildingBlock: KIFKEQ_clean_linker_1, # of connection points: 2
#     Edge 47, Type (0, 0), BuildingBlock: KIFKEQ_clean_linker_1, # of connection points: 2
#     Edge 48, Type (0, 0), BuildingBlock: KIFKEQ_clean_linker_1, # of connection points: 2
#     Edge 49, Type (0, 0), BuildingBlock: KIFKEQ_clean_linker_1, # of connection points: 2
#     Edge 50, Type (0, 0), BuildingBlock: KIFKEQ_clean_linker_1, # of connection points: 2
#     Edge 51, Type (0, 0), BuildingBlock: KIFKEQ_clean_linker_1, # of connection points: 2
#     Edge 52, Type (0, 0), BuildingBlock: KIFKEQ_clean_linker_1, # of connection points: 2
#     Edge 53, Type (0, 0), BuildingBlock: KIFKEQ_clean_linker_1, # of connection points: 2
#     Edge 54, Type (0, 0), BuildingBlock: KIFKEQ_clean_linker_1, # of connection points: 2
#     Edge 55, Type (0, 0), BuildingBlock: KIFKEQ_clean_linker_1, # of connection points: 2
# Relax obj value: 0.161
# Max RMSD: 0.198
# Mean RMSD: 0.198
data_MOF--net-ghw--node1-XOMCOT_clean_sbu_0--edge1-KIFKEQ_clean_linker_1
_symmetry_space_group_name_H-M    P1
_symmetry_Int_Tables_number       1
_symmetry_cell_setting            triclinic
loop_
_symmetry_equiv_pos_as_xyz
'x, y, z'
_cell_length_a     33.638558
_cell_length_b     40.821102
_cell_length_c     35.295651
_cell_angle_alpha  89.942633
_cell_angle_beta   91.004034
_cell_angle_gamma 90.016116
loop_
_atom_site_label
_atom_site_type_symbol
_atom_site_fract_x
_atom_site_fract_y
_atom_site_fract_z
_atom_type_partial_charge
Co0 Co 0.13374 0.14198 0.42227 0.0
C1 C 0.21151 0.10672 0.41809 0.0
C2 C 0.18062 0.09677 0.46938 0.0
C3 C 0.21707 0.08154 0.47143 0.0
N4 N 0.17688 0.11231 0.43574 0.0
N5 N 0.23639 0.08784 0.43912 0.0
H6 H 0.21987 0.11781 0.39174 0.0
H7 H 0.15878 0.09743 0.4915 0.0
C8 C 0.09547 0.07658 0.43641 0.0
O9 O 0.124 0.06211 0.41776 0.0
N10 N 0.09034 0.17169 0.40988 0.0
C11 C 0.09254 0.20301 0.39779 0.0
C12 C 0.05451 0.21474 0.39152 0.0
C13 C 0.0511 0.16479 0.41033 0.0
N14 N 0.02862 0.19054 0.39926 0.0
C15 C 0.16261 0.13961 0.3467 0.0
C16 C 0.1004 0.10522 0.31378 0.0
C17 C 0.13107 0.11651 0.29056 0.0
C18 C 0.16266 0.13351 0.30788 0.0
C19 C 0.10181 0.11149 0.35293 0.0
N20 N 0.13321 0.12791 0.36921 0.0
H21 H 0.18615 0.15462 0.35834 0.0
H22 H 0.07668 0.10431 0.36956 0.0
H23 H 0.11973 0.21648 0.39335 0.0
H24 H 0.03889 0.14144 0.41853 0.0
O25 O 0.17177 0.17748 0.41903 0.0
O26 O 0.14105 0.16285 0.47129 0.0
O27 O 0.09414 0.10778 0.43853 0.0
C28 C 0.16673 0.18188 0.45508 0.0
H29 H 0.22888 0.06774 0.49529 0.0
H30 H 0.04659 0.2389 0.38125 0.0
H31 H 0.07472 0.09282 0.30168 0.0
H32 H 0.18724 0.14268 0.29154 0.0
Co33 Co 0.12204 0.14072 0.87525 0.0
C34 C 0.04481 0.10455 0.8777 0.0
C35 C 0.07284 0.10073 0.82387 0.0
C36 C 0.03594 0.08618 0.82113 0.0
N37 N 0.07848 0.11226 0.8594 0.0
N38 N 0.01859 0.08855 0.8551 0.0
H39 H 0.03788 0.11221 0.90595 0.0
H40 H 0.09351 0.10397 0.80103 0.0
C41 C 0.15886 0.07606 0.85618 0.0
O42 O 0.12949 0.06122 0.87326 0.0
N43 N 0.16531 0.16929 0.89019 0.0
C44 C 0.16457 0.19244 0.91732 0.0
C45 C 0.20252 0.20449 0.92269 0.0
C46 C 0.20348 0.16767 0.87927 0.0
N47 N 0.22701 0.18877 0.89885 0.0
C48 C 0.09325 0.13396 0.95078 0.0
C49 C 0.15644 0.09861 0.98045 0.0
C50 C 0.12586 0.10813 1.00464 0.0
C51 C 0.09389 0.12586 0.98919 0.0
C52 C 0.15426 0.10675 0.94183 0.0
N53 N 0.12233 0.12353 0.92708 0.0
H54 H 0.0697 0.1497 0.94047 0.0
H55 H 0.17933 0.10092 0.92447 0.0
H56 H 0.13854 0.19924 0.93305 0.0
H57 H 0.2142 0.1504 0.85865 0.0
O58 O 0.08437 0.17622 0.88094 0.0
O59 O 0.11567 0.16457 0.82804 0.0
O60 O 0.16149 0.10727 0.85682 0.0
C61 C 0.08987 0.18267 0.84534 0.0
H62 H 0.02235 0.07575 0.79587 0.0
H63 H 0.21142 0.22297 0.9431 0.0
H64 H 0.18226 0.08563 0.99142 0.0
H65 H 0.07046 0.13493 1.00704 0.0
Co66 Co 0.87055 0.88441 0.62161 0.0
C67 C 0.79362 0.92086 0.62642 0.0
C68 C 0.82162 0.92707 0.57287 0.0
C69 C 0.78479 0.94184 0.57106 0.0
N70 N 0.82723 0.91386 0.60764 0.0
N71 N 0.76746 0.93797 0.60486 0.0
H72 H 0.78662 0.91196 0.65418 0.0
H73 H 0.84219 0.92476 0.54981 0.0
C74 C 0.90958 0.94888 0.60427 0.0
O75 O 0.88247 0.96435 0.62375 0.0
N76 N 0.91378 0.85506 0.63482 0.0
C77 C 0.91297 0.83091 0.66081 0.0
C78 C 0.95107 0.81922 0.66642 0.0
C79 C 0.95222 0.85763 0.62482 0.0
N80 N 0.97577 0.83618 0.64389 0.0
C81 C 0.84307 0.88921 0.69732 0.0
C82 C 0.90688 0.923 0.72818 0.0
C83 C 0.87656 0.91243 0.75222 0.0
C84 C 0.8441 0.89584 0.73595 0.0
C85 C 0.90433 0.91623 0.68917 0.0
N86 N 0.87211 0.90016 0.67393 0.0
H87 H 0.81906 0.87421 0.68657 0.0
H88 H 0.92931 0.92247 0.67184 0.0
H89 H 0.88683 0.82332 0.67592 0.0
H90 H 0.9632 0.87598 0.60552 0.0
O91 O 0.83244 0.8492 0.62702 0.0
O92 O 0.8626 0.86177 0.57377 0.0
O93 O 0.91002 0.91763 0.6032 0.0
C94 C 0.83695 0.84353 0.59114 0.0
H95 H 0.77122 0.95347 0.54648 0.0
H96 H 0.95996 0.80025 0.68626 0.0
H97 H 0.93316 0.93503 0.73957 0.0
H98 H 0.8198 0.88721 0.75304 0.0
Co99 Co 0.88569 0.88465 0.16604 0.0
C100 C 0.96332 0.92034 0.16346 0.0
C101 C 0.93612 0.9234 0.21775 0.0
C102 C 0.97307 0.93791 0.22024 0.0
N103 N 0.92993 0.91236 0.18208 0.0
N104 N 0.98989 0.93602 0.18598 0.0
H105 H 0.96974 0.91326 0.13489 0.0
H106 H 0.91572 0.92 0.24077 0.0
C107 C 0.85035 0.9498 0.18521 0.0
O108 O 0.88042 0.96424 0.16879 0.0
N109 N 0.84179 0.85679 0.15077 0.0
C110 C 0.84239 0.83354 0.12375 0.0
C111 C 0.80423 0.82218 0.11776 0.0
C112 C 0.80342 0.85916 0.161 0.0
N113 N 0.77969 0.83843 0.14107 0.0
C114 C 0.9147 0.89139 0.0906 0.0
C115 C 0.85281 0.92863 0.06157 0.0
C116 C 0.88326 0.91897 0.03734 0.0
C117 C 0.91454 0.90021 0.05242 0.0
C118 C 0.85448 0.91969 0.09991 0.0
N119 N 0.88587 0.90209 0.1144 0.0
H120 H 0.93779 0.8751 0.10072 0.0
H121 H 0.82943 0.92566 0.11723 0.0
H122 H 0.86851 0.82622 0.10848 0.0
H123 H 0.79275 0.8767 0.18133 0.0
O124 O 0.92258 0.84862 0.16025 0.0
O125 O 0.89134 0.86054 0.21313 0.0
O126 O 0.847 0.91864 0.18444 0.0
C127 C 0.9168 0.84214 0.19581 0.0
H128 H 0.98697 0.94813 0.24547 0.0
H129 H 0.79524 0.80379 0.09728 0.0
H130 H 0.82746 0.94234 0.05081 0.0
H131 H 0.93778 0.89099 0.03444 0.0
Co132 Co 0.1345 0.64253 0.91939 0.0
C133 C 0.21179 0.60669 0.91424 0.0
C134 C 0.18369 0.59991 0.96767 0.0
C135 C 0.22066 0.58545 0.9695 0.0
N136 N 0.17803 0.61325 0.93296 0.0
N137 N 0.23802 0.58966 0.93579 0.0
H138 H 0.2188 0.61598 0.88662 0.0
H139 H 0.16305 0.60199 0.99071 0.0
C140 C 0.096 0.57792 0.93736 0.0
O141 O 0.12282 0.56245 0.91751 0.0
N142 N 0.09072 0.67178 0.90686 0.0
C143 C 0.09243 0.70168 0.89062 0.0
C144 C 0.0542 0.71333 0.88531 0.0
C145 C 0.05156 0.66561 0.91081 0.0
N146 N 0.02867 0.69045 0.89782 0.0
C147 C 0.16096 0.63697 0.84308 0.0
C148 C 0.09754 0.60143 0.81422 0.0
C149 C 0.12819 0.61046 0.78984 0.0
C150 C 0.16009 0.62854 0.80482 0.0
C151 C 0.09997 0.60991 0.85274 0.0
N152 N 0.13219 0.62653 0.86713 0.0
H153 H 0.18469 0.65265 0.85305 0.0
H154 H 0.07513 0.60406 0.87042 0.0
H155 H 0.11941 0.71403 0.8825 0.0
H156 H 0.03967 0.64337 0.92276 0.0
O157 O 0.17261 0.67773 0.91349 0.0
O158 O 0.14296 0.66521 0.96705 0.0
O159 O 0.09568 0.60915 0.93863 0.0
C160 C 0.16838 0.68346 0.94943 0.0
H161 H 0.23432 0.57384 0.99405 0.0
H162 H 0.04581 0.73637 0.87222 0.0
H163 H 0.07175 0.58823 0.80357 0.0
H164 H 0.18356 0.63728 0.78675 0.0
Co165 Co 0.12239 0.64106 0.37449 0.0
C166 C 0.04549 0.60471 0.37848 0.0
C167 C 0.07455 0.59793 0.32556 0.0
C168 C 0.03774 0.58319 0.32327 0.0
N169 N 0.07948 0.61143 0.36024 0.0
N170 N 0.01978 0.5874 0.35669 0.0
H171 H 0.03791 0.61408 0.40588 0.0
H172 H 0.09557 0.60005 0.30284 0.0
C173 C 0.16183 0.5766 0.3577 0.0
O174 O 0.1344 0.56097 0.37666 0.0
N175 N 0.16519 0.67062 0.38788 0.0
C176 C 0.1642 0.69451 0.41413 0.0
C177 C 0.20211 0.70672 0.41936 0.0
C178 C 0.20346 0.66873 0.37731 0.0
N179 N 0.22678 0.69035 0.39629 0.0
C180 C 0.09411 0.63591 0.45032 0.0
C181 C 0.15727 0.60097 0.48074 0.0
C182 C 0.12612 0.61007 0.50449 0.0
C183 C 0.09434 0.62783 0.48872 0.0
C184 C 0.15552 0.60914 0.44211 0.0
N185 N 0.12343 0.62543 0.42695 0.0
H186 H 0.07052 0.65144 0.43968 0.0
H187 H 0.18081 0.60343 0.42498 0.0
H188 H 0.13809 0.7016 0.42957 0.0
H189 H 0.21449 0.65076 0.35762 0.0
O190 O 0.0842 0.67647 0.3789 0.0
O191 O 0.11508 0.66301 0.32632 0.0
O192 O 0.16226 0.60786 0.35685 0.0
C193 C 0.08932 0.6816 0.34293 0.0
H194 H 0.02459 0.57141 0.29861 0.0
H195 H 0.21091 0.72564 0.43926 0.0
H196 H 0.18298 0.58802 0.49197 0.0
H197 H 0.07051 0.63664 0.50627 0.0
Co198 Co 0.87205 0.38499 0.12088 0.0
C199 C 0.79493 0.42059 0.12888 0.0
C200 C 0.82133 0.42827 0.0748 0.0
C201 C 0.78449 0.44295 0.07444 0.0
N202 N 0.82804 0.41433 0.10902 0.0
N203 N 0.76811 0.43813 0.10853 0.0
H204 H 0.78885 0.41083 0.1565 0.0
H205 H 0.84126 0.42669 0.05115 0.0
C206 C 0.90879 0.4505 0.10405 0.0
O207 O 0.88028 0.4651 0.12259 0.0
N208 N 0.91607 0.35549 0.13189 0.0
C209 C 0.91432 0.32439 0.14479 0.0
C210 C 0.9525 0.31272 0.15002 0.0
C211 C 0.95527 0.36233 0.12995 0.0
N212 N 0.97812 0.33672 0.14083 0.0
C213 C 0.84669 0.38764 0.19776 0.0
C214 C 0.90883 0.42458 0.22682 0.0
C215 C 0.87882 0.41427 0.25122 0.0
C216 C 0.84759 0.39548 0.23619 0.0
C217 C 0.90635 0.41671 0.18817 0.0
N218 N 0.87473 0.39937 0.17372 0.0
H219 H 0.82331 0.37172 0.18751 0.0
H220 H 0.93066 0.42375 0.17042 0.0
H221 H 0.88732 0.31109 0.15061 0.0
H222 H 0.96715 0.38556 0.1209 0.0
O223 O 0.83432 0.34928 0.12546 0.0
O224 O 0.86319 0.36411 0.07227 0.0
O225 O 0.9107 0.41927 0.10298 0.0
C226 C 0.8381 0.34505 0.08919 0.0
H227 H 0.77028 0.45524 0.05062 0.0
H228 H 0.96075 0.28875 0.16067 0.0
H229 H 0.9341 0.43841 0.23755 0.0
H230 H 0.82462 0.3859 0.25429 0.0
Co231 Co 0.8845 0.38361 0.66647 0.0
C232 C 0.9623 0.41882 0.66105 0.0
C233 C 0.93531 0.42478 0.71513 0.0
C234 C 0.97227 0.4393 0.71648 0.0
N235 N 0.92893 0.41196 0.6803 0.0
N236 N 0.98899 0.43558 0.68238 0.0
H237 H 0.96859 0.41019 0.63302 0.0
H238 H 0.91499 0.42264 0.73842 0.0
C239 C 0.84909 0.44952 0.68302 0.0
O240 O 0.87884 0.46362 0.66573 0.0
N241 N 0.84043 0.35515 0.65339 0.0
C242 C 0.84082 0.33067 0.62787 0.0
C243 C 0.80262 0.3191 0.62282 0.0
C244 C 0.80213 0.35808 0.66367 0.0
N245 N 0.77826 0.33648 0.64521 0.0
C246 C 0.91254 0.38721 0.59042 0.0
C247 C 0.85105 0.42425 0.56022 0.0
C248 C 0.88154 0.41399 0.53638 0.0
C249 C 0.9125 0.39519 0.55199 0.0
C250 C 0.85264 0.4162 0.59885 0.0
N251 N 0.88395 0.39884 0.6139 0.0
H252 H 0.93554 0.37109 0.6011 0.0
H253 H 0.82778 0.4229 0.61607 0.0
H254 H 0.86681 0.32259 0.61289 0.0
H255 H 0.79161 0.37658 0.68291 0.0
O256 O 0.92114 0.34712 0.66232 0.0
O257 O 0.89101 0.36178 0.71487 0.0
O258 O 0.84599 0.41833 0.68351 0.0
C259 C 0.916 0.3424 0.69835 0.0
H260 H 0.98625 0.45083 0.7409 0.0
H261 H 0.79348 0.29979 0.60358 0.0
H262 H 0.82595 0.43803 0.54905 0.0
H263 H 0.93579 0.38559 0.53432 0.0
Co264 Co 0.63165 0.14343 0.91387 0.0
C265 C 0.70955 0.10892 0.91014 0.0
C266 C 0.6835 0.10528 0.96498 0.0
C267 C 0.72064 0.09111 0.96669 0.0
N268 N 0.67646 0.11635 0.92945 0.0
N269 N 0.7368 0.09339 0.93213 0.0
H270 H 0.71503 0.11633 0.88141 0.0
H271 H 0.66347 0.10829 0.98837 0.0
C272 C 0.59781 0.07784 0.93482 0.0
O273 O 0.62837 0.0634 0.91926 0.0
N274 N 0.58728 0.17079 0.89882 0.0
C275 C 0.58758 0.19464 0.87245 0.0
C276 C 0.54938 0.20613 0.8672 0.0
C277 C 0.54906 0.16817 0.9094 0.0
N278 N 0.52513 0.18936 0.89035 0.0
C279 C 0.65939 0.14 0.83796 0.0
C280 C 0.60431 0.09598 0.80948 0.0
C281 C 0.63246 0.1092 0.7847 0.0
C282 C 0.65993 0.13177 0.7997 0.0
C283 C 0.60431 0.10547 0.84771 0.0
N284 N 0.63257 0.12642 0.86198 0.0
H285 H 0.6806 0.15791 0.84801 0.0
H286 H 0.58064 0.09663 0.86513 0.0
H287 H 0.61358 0.20253 0.85731 0.0
H288 H 0.53869 0.15031 0.92955 0.0
O289 O 0.66781 0.17998 0.90844 0.0
O290 O 0.63695 0.16731 0.96124 0.0
O291 O 0.5935 0.10887 0.93231 0.0
C292 C 0.66212 0.18611 0.94403 0.0
H293 H 0.73507 0.08075 0.9916 0.0
H294 H 0.54021 0.22512 0.8475 0.0
H295 H 0.58201 0.07878 0.79952 0.0
H296 H 0.68117 0.14406 0.78192 0.0
Co297 Co 0.62376 0.14285 0.36731 0.0
C298 C 0.54857 0.1083 0.38309 0.0
C299 C 0.56894 0.09852 0.32702 0.0
C300 C 0.53222 0.0842 0.33103 0.0
N301 N 0.57933 0.11334 0.35982 0.0
N302 N 0.51929 0.09051 0.36628 0.0
H303 H 0.54689 0.11863 0.41111 0.0
H304 H 0.58616 0.09929 0.30144 0.0
C305 C 0.65974 0.07703 0.34786 0.0
O306 O 0.63154 0.06139 0.36576 0.0
N307 N 0.66818 0.17268 0.37458 0.0
C308 C 0.66724 0.20557 0.37843 0.0
C309 C 0.70559 0.21697 0.38285 0.0
C310 C 0.70705 0.16458 0.37737 0.0
N311 N 0.73053 0.19115 0.38218 0.0
C312 C 0.60746 0.14897 0.44607 0.0
C313 C 0.65362 0.098 0.47322 0.0
C314 C 0.63019 0.11544 0.49892 0.0
C315 C 0.60784 0.14186 0.48469 0.0
C316 C 0.65312 0.10651 0.43466 0.0
N317 N 0.62862 0.13071 0.42104 0.0
H318 H 0.58951 0.16928 0.43652 0.0
H319 H 0.67305 0.09369 0.41647 0.0
H320 H 0.64073 0.22051 0.37821 0.0
H321 H 0.71812 0.13979 0.37557 0.0
O322 O 0.58608 0.17862 0.37126 0.0
O323 O 0.61236 0.1617 0.3178 0.0
O324 O 0.66185 0.10828 0.34901 0.0
C325 C 0.5881 0.18145 0.33468 0.0
H326 H 0.51542 0.07185 0.30886 0.0
H327 H 0.71434 0.24227 0.38677 0.0
H328 H 0.67215 0.07777 0.48252 0.0
H329 H 0.5908 0.15741 0.50317 0.0
Co330 Co 0.3754 0.88639 0.12305 0.0
C331 C 0.29795 0.9218 0.12844 0.0
C332 C 0.32539 0.92862 0.07471 0.0
C333 C 0.28842 0.94317 0.07336 0.0
N334 N 0.33147 0.91526 0.10934 0.0
N335 N 0.27146 0.93893 0.10729 0.0
H336 H 0.29131 0.91255 0.15615 0.0
H337 H 0.34581 0.92669 0.05148 0.0
C338 C 0.41303 0.95137 0.10494 0.0
O339 O 0.38539 0.96672 0.12388 0.0
N340 N 0.41914 0.85754 0.13609 0.0
C341 C 0.41844 0.83294 0.16152 0.0
C342 C 0.45653 0.82117 0.1667 0.0
C343 C 0.45754 0.86036 0.12604 0.0
N344 N 0.48114 0.83855 0.14451 0.0
C345 C 0.3483 0.89138 0.1992 0.0
C346 C 0.41002 0.92887 0.22807 0.0
C347 C 0.37922 0.91964 0.25215 0.0
C348 C 0.34827 0.90045 0.23725 0.0
C349 C 0.40849 0.9197 0.18976 0.0
N350 N 0.37694 0.90229 0.17531 0.0
H351 H 0.32522 0.87506 0.18916 0.0
H352 H 0.43343 0.92573 0.1723 0.0
H353 H 0.39232 0.82494 0.17639 0.0
H354 H 0.46838 0.87898 0.10704 0.0
O355 O 0.33812 0.85043 0.12834 0.0
O356 O 0.36778 0.86411 0.07515 0.0
O357 O 0.41419 0.92013 0.1045 0.0
C358 C 0.34275 0.84519 0.09235 0.0
H359 H 0.27457 0.95499 0.04905 0.0
H360 H 0.46544 0.80175 0.18593 0.0
H361 H 0.4352 0.94282 0.23878 0.0
H362 H 0.32482 0.8915 0.2552 0.0
Co363 Co 0.38025 0.88617 0.66486 0.0
C364 C 0.45803 0.92131 0.66006 0.0
C365 C 0.43034 0.92781 0.71371 0.0
C366 C 0.46749 0.94204 0.71543 0.0
N367 N 0.42429 0.91484 0.67891 0.0
N368 N 0.48462 0.938 0.68157 0.0
H369 H 0.46475 0.91226 0.63231 0.0
H370 H 0.4098 0.92576 0.73683 0.0
C371 C 0.34266 0.9509 0.68397 0.0
O372 O 0.3701 0.96646 0.66495 0.0
N373 N 0.33642 0.85747 0.65145 0.0
C374 C 0.33726 0.83302 0.62589 0.0
C375 C 0.29921 0.82128 0.62041 0.0
C376 C 0.29793 0.86023 0.66127 0.0
N377 N 0.27444 0.83852 0.64252 0.0
C378 C 0.40723 0.89224 0.5888 0.0
C379 C 0.34503 0.92947 0.56039 0.0
C380 C 0.37579 0.92055 0.53613 0.0
C381 C 0.40702 0.90155 0.55082 0.0
C382 C 0.34683 0.92011 0.59865 0.0
N383 N 0.37857 0.90277 0.61286 0.0
H384 H 0.43041 0.87592 0.59859 0.0
H385 H 0.32193 0.92587 0.61627 0.0
H386 H 0.36347 0.82511 0.61113 0.0
H387 H 0.28694 0.87874 0.6803 0.0
O388 O 0.41748 0.85029 0.65883 0.0
O389 O 0.38804 0.8632 0.71235 0.0
O390 O 0.34154 0.91965 0.6841 0.0
C391 C 0.41299 0.84454 0.69475 0.0
H392 H 0.48135 0.95348 0.73996 0.0
H393 H 0.29043 0.80196 0.60104 0.0
H394 H 0.31966 0.94327 0.54982 0.0
H395 H 0.43044 0.89283 0.53271 0.0
Co396 Co 0.63138 0.64211 0.41439 0.0
C397 C 0.70956 0.60829 0.41005 0.0
C398 C 0.68354 0.6037 0.46483 0.0
C399 C 0.72088 0.58993 0.46634 0.0
N400 N 0.67635 0.6151 0.42946 0.0
N401 N 0.73703 0.59283 0.43185 0.0
H402 H 0.7149 0.61617 0.38143 0.0
H403 H 0.66347 0.60623 0.48826 0.0
C404 C 0.59804 0.57594 0.43448 0.0
O405 O 0.62909 0.56172 0.41954 0.0
N406 N 0.58689 0.66951 0.39974 0.0
C407 C 0.58755 0.69414 0.37435 0.0
C408 C 0.54944 0.70574 0.36903 0.0
C409 C 0.54851 0.66652 0.40968 0.0
N410 N 0.52487 0.68826 0.39114 0.0
C411 C 0.65897 0.64109 0.33828 0.0
C412 C 0.60688 0.59502 0.3091 0.0
C413 C 0.63409 0.60975 0.28445 0.0
C414 C 0.65998 0.6334 0.29985 0.0
C415 C 0.60612 0.60416 0.34741 0.0
N416 N 0.63293 0.62617 0.36203 0.0
H417 H 0.67919 0.6596 0.3487 0.0
H418 H 0.58305 0.59403 0.36461 0.0
H419 H 0.61377 0.70257 0.35996 0.0
H420 H 0.53783 0.64811 0.429 0.0
O421 O 0.66706 0.67927 0.4104 0.0
O422 O 0.63612 0.66479 0.46252 0.0
O423 O 0.59335 0.60694 0.4317 0.0
C424 C 0.661 0.68439 0.44615 0.0
H425 H 0.73548 0.57947 0.49111 0.0
H426 H 0.54055 0.72533 0.35002 0.0
H427 H 0.58587 0.5768 0.29906 0.0
H428 H 0.68041 0.64686 0.28235 0.0
Co429 Co 0.62424 0.64305 0.8672 0.0
C430 C 0.54772 0.60777 0.87667 0.0
C431 C 0.573 0.59943 0.82216 0.0
C432 C 0.53592 0.58521 0.82259 0.0
N433 N 0.58051 0.61345 0.85614 0.0
N434 N 0.5202 0.59048 0.85689 0.0
H435 H 0.54252 0.61805 0.90428 0.0
H436 H 0.59243 0.60084 0.79811 0.0
C437 C 0.66193 0.57815 0.84813 0.0
O438 O 0.63433 0.56253 0.86688 0.0
N439 N 0.66811 0.67284 0.87768 0.0
C440 C 0.66682 0.70562 0.8826 0.0
C441 C 0.70503 0.71717 0.88781 0.0
C442 C 0.70705 0.66496 0.8806 0.0
N443 N 0.7302 0.69153 0.88658 0.0
C444 C 0.60184 0.64303 0.94484 0.0
C445 C 0.65678 0.59854 0.97256 0.0
C446 C 0.62967 0.61236 0.99793 0.0
C447 C 0.60254 0.63542 0.98333 0.0
C448 C 0.65572 0.60756 0.93412 0.0
N449 N 0.62729 0.62854 0.92021 0.0
H450 H 0.58047 0.66092 0.93512 0.0
H451 H 0.67849 0.59801 0.91621 0.0
H452 H 0.64019 0.72041 0.88223 0.0
H453 H 0.71851 0.64037 0.8777 0.0
O454 O 0.58585 0.67815 0.87207 0.0
O455 O 0.61451 0.66424 0.81859 0.0
O456 O 0.66321 0.60944 0.8483 0.0
C457 C 0.58908 0.68271 0.83583 0.0
H458 H 0.521 0.57308 0.79907 0.0
H459 H 0.71361 0.74244 0.89236 0.0
H460 H 0.67888 0.58099 0.98208 0.0
H461 H 0.5822 0.64831 1.00146 0.0
Co462 Co 0.37474 0.38595 0.62552 0.0
C463 C 0.29744 0.4219 0.62796 0.0
C464 C 0.32572 0.42639 0.57432 0.0
C465 C 0.28875 0.44084 0.5716 0.0
N466 N 0.33125 0.41452 0.60974 0.0
N467 N 0.27126 0.43807 0.60547 0.0
H468 H 0.29032 0.41381 0.65603 0.0
H469 H 0.34646 0.42338 0.55151 0.0
C470 C 0.41295 0.44994 0.60497 0.0
O471 O 0.38537 0.46566 0.62359 0.0
N472 N 0.41806 0.35736 0.64051 0.0
C473 C 0.41715 0.33413 0.66758 0.0
C474 C 0.45512 0.32225 0.67338 0.0
C475 C 0.45641 0.35924 0.63008 0.0
N476 N 0.47982 0.33819 0.6499 0.0
C477 C 0.34707 0.39457 0.70107 0.0
C478 C 0.41042 0.4308 0.72884 0.0
C479 C 0.37943 0.42279 0.75329 0.0
C480 C 0.34756 0.40437 0.73888 0.0
C481 C 0.40837 0.42095 0.69077 0.0
N482 N 0.37614 0.40407 0.67684 0.0
H483 H 0.3235 0.37847 0.69166 0.0
H484 H 0.43355 0.42583 0.67314 0.0
H485 H 0.391 0.32719 0.68307 0.0
H486 H 0.46737 0.37673 0.60976 0.0
O487 O 0.33684 0.35079 0.63279 0.0
O488 O 0.36724 0.36132 0.57907 0.0
O489 O 0.41401 0.41867 0.60533 0.0
C490 C 0.34169 0.34363 0.59729 0.0
H491 H 0.2752 0.45149 0.54642 0.0
H492 H 0.46388 0.30377 0.69387 0.0
H493 H 0.43626 0.44413 0.73915 0.0
H494 H 0.3239 0.39631 0.75713 0.0
Co495 Co 0.38189 0.38692 0.16528 0.0
C496 C 0.45972 0.42243 0.16352 0.0
C497 C 0.43202 0.42516 0.21761 0.0
C498 C 0.46909 0.43937 0.22063 0.0
N499 N 0.42605 0.41453 0.18174 0.0
N500 N 0.48623 0.43769 0.18651 0.0
H501 H 0.4664 0.41547 0.13497 0.0
H502 H 0.41142 0.42158 0.24043 0.0
C503 C 0.34639 0.45162 0.18622 0.0
O504 O 0.37597 0.46643 0.16942 0.0
N505 N 0.33803 0.35912 0.14982 0.0
C506 C 0.33886 0.3349 0.12401 0.0
C507 C 0.30092 0.3227 0.11917 0.0
C508 C 0.29978 0.36133 0.16034 0.0
N509 N 0.27621 0.33946 0.1419 0.0
C510 C 0.41064 0.39507 0.09003 0.0
C511 C 0.34867 0.43262 0.06173 0.0
C512 C 0.37946 0.42376 0.03746 0.0
C513 C 0.41067 0.40474 0.05216 0.0
C514 C 0.35018 0.42287 0.09987 0.0
N515 N 0.38167 0.40519 0.11402 0.0
H516 H 0.4338 0.37869 0.09975 0.0
H517 H 0.32511 0.42846 0.11735 0.0
H518 H 0.36503 0.32713 0.10911 0.0
H519 H 0.28922 0.37931 0.18017 0.0
O520 O 0.41887 0.35118 0.15829 0.0
O521 O 0.38811 0.36198 0.21174 0.0
O522 O 0.34321 0.42046 0.18484 0.0
C523 C 0.41342 0.34396 0.19368 0.0
H524 H 0.48291 0.44915 0.24613 0.0
H525 H 0.29238 0.30319 0.09998 0.0
H526 H 0.32336 0.44652 0.05121 0.0
H527 H 0.43419 0.39613 0.03409 0.0
H528 H 0.29777 0.08133 0.48927 0.0
H529 H 0.26735 0.07761 0.37001 0.0
H530 H 0.36796 0.07519 0.47442 0.0
H531 H 0.33765 0.07207 0.35508 0.0
H532 H 0.46718 0.04366 0.34216 0.0
H533 H 0.39859 0.03644 0.36209 0.0
H534 H 0.41407 0.11454 0.44338 0.0
H535 H 0.48184 0.1223 0.42327 0.0
C536 C 0.30599 0.07858 0.45994 0.0
C537 C 0.27711 0.08031 0.43075 0.0
C538 C 0.34619 0.07531 0.45144 0.0
C539 C 0.35827 0.07342 0.4136 0.0
C540 C 0.32921 0.07329 0.38452 0.0
C541 C 0.28904 0.07682 0.39302 0.0
C542 C 0.45603 0.05929 0.3643 0.0
C543 C 0.4802 0.08381 0.38073 0.0
C544 C 0.41678 0.05502 0.37579 0.0
C545 C 0.401 0.07497 0.40421 0.0
C546 C 0.42558 0.09847 0.42177 0.0
C547 C 0.46462 0.10291 0.41013 0.0
H548 H 0.9799 0.1403 0.38028 0.0
H549 H 0.98051 0.24272 0.41036 0.0
H550 H 0.90764 0.14104 0.37602 0.0
H551 H 0.90791 0.24349 0.40694 0.0
H552 H 0.77967 0.24008 0.36056 0.0
H553 H 0.85211 0.24054 0.36412 0.0
H554 H 0.85088 0.14421 0.41507 0.0
H555 H 0.77858 0.14366 0.41085 0.0
C556 C 0.96451 0.16292 0.38636 0.0
C557 C 0.98588 0.19141 0.39587 0.0
C558 C 0.92303 0.16336 0.38402 0.0
C559 C 0.90178 0.19226 0.39143 0.0
C560 C 0.92324 0.22089 0.40058 0.0
C561 C 0.96484 0.22048 0.40261 0.0
C562 C 0.79489 0.21913 0.37278 0.0
C563 C 0.77334 0.19178 0.38527 0.0
C564 C 0.83646 0.21939 0.37488 0.0
C565 C 0.85748 0.19236 0.38974 0.0
C566 C 0.8358 0.16519 0.40271 0.0
C567 C 0.79429 0.16487 0.40037 0.0
H568 H 0.47419 0.21106 0.83525 0.0
H569 H 0.47845 0.1726 0.94933 0.0
H570 H 0.40199 0.21339 0.83752 0.0
H571 H 0.40609 0.17378 0.95104 0.0
H572 H 0.2778 0.20897 0.95483 0.0
H573 H 0.35005 0.21144 0.95276 0.0
H574 H 0.34608 0.17569 0.83762 0.0
H575 H 0.27373 0.17437 0.8392 0.0
C576 C 0.45984 0.2033 0.86094 0.0
C577 C 0.48233 0.19163 0.89212 0.0
C578 C 0.41833 0.20427 0.86205 0.0
C579 C 0.39818 0.19366 0.89439 0.0
C580 C 0.42064 0.18243 0.92579 0.0
C581 C 0.46217 0.1814 0.92465 0.0
C582 C 0.29221 0.20211 0.92886 0.0
C583 C 0.26978 0.19145 0.89717 0.0
C584 C 0.33374 0.20314 0.92784 0.0
C585 C 0.35393 0.19363 0.89509 0.0
C586 C 0.33151 0.18347 0.86321 0.0
C587 C 0.28998 0.18238 0.86425 0.0
H588 H 0.99231 0.06357 0.92069 0.0
H589 H 0.95364 0.09726 0.81033 0.0
H590 H 0.92317 0.0572 0.93932 0.0
H591 H 0.88457 0.09263 0.8291 0.0
H592 H 0.76096 0.07001 0.86487 0.0
H593 H 0.8294 0.06111 0.84531 0.0
H594 H 0.87133 0.09184 0.95629 0.0
H595 H 0.803 0.09917 0.97589 0.0
C596 C 0.96884 0.06941 0.90041 0.0
C597 C 0.97814 0.08101 0.8642 0.0
C598 C 0.92924 0.06602 0.91107 0.0
C599 C 0.89805 0.07485 0.88598 0.0
C600 C 0.90757 0.08513 0.84911 0.0
C601 C 0.94719 0.08792 0.83827 0.0
C602 C 0.78497 0.07443 0.88506 0.0
C603 C 0.7768 0.08536 0.92181 0.0
C604 C 0.82418 0.06951 0.87388 0.0
C605 C 0.85615 0.076 0.89905 0.0
C606 C 0.84768 0.08597 0.93624 0.0
C607 C 0.80846 0.09035 0.94754 0.0
H608 H 0.70216 0.93091 0.5602 0.0
H609 H 0.74174 0.96096 0.67158 0.0
H610 H 0.63325 0.93604 0.57921 0.0
H611 H 0.6728 0.96808 0.6905 0.0
H612 H 0.55006 0.93097 0.72611 0.0
H613 H 0.61892 0.93618 0.70699 0.0
H614 H 0.57917 0.9677 0.5955 0.0
H615 H 0.51028 0.96053 0.61454 0.0
C616 C 0.69595 0.93954 0.58848 0.0
C617 C 0.7271 0.94538 0.61452 0.0
C618 C 0.6564 0.94264 0.59948 0.0
C619 C 0.64709 0.95227 0.63663 0.0
C620 C 0.67857 0.95979 0.662 0.0
C621 C 0.71809 0.95601 0.65117 0.0
C622 C 0.55621 0.93947 0.69774 0.0
C623 C 0.52501 0.94517 0.6717 0.0
C624 C 0.59574 0.94264 0.68669 0.0
C625 C 0.60498 0.95218 0.64947 0.0
C626 C 0.57345 0.9595 0.62407 0.0
C627 C 0.53395 0.95565 0.63495 0.0
H628 H 0.02372 0.85249 0.5858 0.0
H629 H 0.02557 0.81625 0.70081 0.0
H630 H 0.09622 0.85233 0.58593 0.0
H631 H 0.098 0.81515 0.70054 0.0
H632 H 0.22621 0.8554 0.70023 0.0
H633 H 0.15368 0.85389 0.70033 0.0
H634 H 0.15264 0.81461 0.58675 0.0
H635 H 0.22493 0.81706 0.58622 0.0
C636 C 0.03954 0.8444 0.61107 0.0
C637 C 0.01868 0.83443 0.64329 0.0
C638 C 0.08114 0.844 0.61103 0.0
C639 C 0.10298 0.83375 0.64327 0.0
C640 C 0.08214 0.8235 0.67537 0.0
C641 C 0.04053 0.82376 0.67535 0.0
C642 C 0.21053 0.84658 0.67523 0.0
C643 C 0.23155 0.83638 0.64323 0.0
C644 C 0.16893 0.8454 0.67541 0.0
C645 C 0.14729 0.83415 0.64352 0.0
C646 C 0.16832 0.82373 0.61165 0.0
C647 C 0.20988 0.82477 0.61153 0.0
H648 H 0.72958 0.81916 0.08413 0.0
H649 H 0.73204 0.85347 0.19988 0.0
H650 H 0.65726 0.81727 0.08501 0.0
H651 H 0.65958 0.85262 0.20031 0.0
H652 H 0.53115 0.81659 0.20022 0.0
H653 H 0.60347 0.81466 0.19925 0.0
H654 H 0.6013 0.8553 0.0862 0.0
H655 H 0.52883 0.85621 0.08669 0.0
C656 C 0.71479 0.82609 0.10988 0.0
C657 C 0.73681 0.83644 0.14196 0.0
C658 C 0.67322 0.82539 0.11021 0.0
C659 C 0.65255 0.8349 0.14267 0.0
C660 C 0.67453 0.84485 0.17493 0.0
C661 C 0.71612 0.84566 0.17456 0.0
C662 C 0.54597 0.82469 0.17493 0.0
C663 C 0.52401 0.83653 0.1435 0.0
C664 C 0.58754 0.82395 0.17456 0.0
C665 C 0.60825 0.83493 0.14271 0.0
C666 C 0.58632 0.84638 0.11109 0.0
C667 C 0.54473 0.84722 0.11151 0.0
H668 H 0.05573 0.92774 0.22964 0.0
H669 H 0.01467 0.96198 0.12027 0.0
H670 H 0.12434 0.93418 0.21025 0.0
H671 H 0.08334 0.97023 0.10104 0.0
H672 H 0.20568 0.9334 0.06291 0.0
H673 H 0.13701 0.93842 0.08272 0.0
H674 H 0.17787 0.96726 0.19475 0.0
H675 H 0.24656 0.96041 0.17497 0.0
C676 C 0.06153 0.93755 0.20177 0.0
C677 C 0.03006 0.94416 0.17633 0.0
C678 C 0.1009 0.94141 0.19058 0.0
C679 C 0.10969 0.95253 0.15384 0.0
C680 C 0.07791 0.96084 0.12918 0.0
C681 C 0.03856 0.95636 0.14018 0.0
C682 C 0.19982 0.94133 0.09154 0.0
C683 C 0.23126 0.9463 0.11752 0.0
C684 C 0.16042 0.94437 0.10298 0.0
C685 C 0.15158 0.95301 0.14056 0.0
C686 C 0.18334 0.95975 0.1659 0.0
C687 C 0.22269 0.95608 0.15459 0.0
H688 H 0.30306 0.5991 0.98005 0.0
H689 H 0.26408 0.56513 0.87004 0.0
H690 H 0.37211 0.5945 0.96116 0.0
H691 H 0.33315 0.55833 0.85139 0.0
H692 H 0.454 0.59619 0.81334 0.0
H693 H 0.38563 0.59089 0.83346 0.0
H694 H 0.42726 0.56361 0.94587 0.0
H695 H 0.49583 0.57093 0.9257 0.0
C696 C 0.3095 0.58974 0.95213 0.0
C697 C 0.2785 0.58265 0.92636 0.0
C698 C 0.34909 0.58691 0.94123 0.0
C699 C 0.35855 0.57631 0.90448 0.0
C700 C 0.32723 0.56745 0.87951 0.0
C701 C 0.28766 0.57104 0.89018 0.0
C702 C 0.44841 0.58864 0.84217 0.0
C703 C 0.48005 0.58406 0.86804 0.0
C704 C 0.40915 0.58539 0.85379 0.0
C705 C 0.40054 0.57685 0.89146 0.0
C706 C 0.4325 0.57094 0.9169 0.0
C707 C 0.4718 0.57489 0.9054 0.0
H708 H 0.77824 0.64504 0.91703 0.0
H709 H 0.77907 0.73982 0.86292 0.0
H710 H 0.8506 0.6456 0.92087 0.0
H711 H 0.85156 0.74014 0.86548 0.0
H712 H 0.98131 0.7435 0.90604 0.0
H713 H 0.90866 0.74456 0.90493 0.0
H714 H 0.90683 0.64034 0.88306 0.0
H715 H 0.97911 0.63939 0.88552 0.0
C716 C 0.79399 0.66588 0.90566 0.0
C717 C 0.77299 0.69233 0.8896 0.0
C718 C 0.83553 0.6662 0.90769 0.0
C719 C 0.85721 0.69282 0.89323 0.0
C720 C 0.83604 0.71943 0.87745 0.0
C721 C 0.79444 0.71925 0.87586 0.0
C722 C 0.96522 0.72092 0.90091 0.0
C723 C 0.98584 0.69135 0.89616 0.0
C724 C 0.92358 0.72147 0.90015 0.0
C725 C 0.90162 0.69249 0.8941 0.0
C726 C 0.9225 0.66302 0.88874 0.0
C727 C 0.96402 0.66244 0.89 0.0
H728 H 0.47487 0.71088 0.33587 0.0
H729 H 0.47735 0.6708 0.4492 0.0
H730 H 0.40267 0.71378 0.3374 0.0
H731 H 0.4049 0.67269 0.45022 0.0
H732 H 0.27704 0.71013 0.45284 0.0
H733 H 0.34945 0.71165 0.45171 0.0
H734 H 0.34638 0.676 0.33652 0.0
H735 H 0.27394 0.67548 0.33725 0.0
C736 C 0.46011 0.70288 0.36124 0.0
C737 C 0.48207 0.69062 0.39244 0.0
C738 C 0.41861 0.70419 0.36193 0.0
C739 C 0.39797 0.69337 0.39387 0.0
C740 C 0.41989 0.6815 0.42529 0.0
C741 C 0.46143 0.68008 0.42455 0.0
C742 C 0.29173 0.70309 0.42707 0.0
C743 C 0.26958 0.69267 0.39511 0.0
C744 C 0.3333 0.70358 0.42659 0.0
C745 C 0.35373 0.69382 0.39409 0.0
C746 C 0.33158 0.68394 0.36192 0.0
C747 C 0.29004 0.68333 0.36245 0.0
H748 H 0.8029 0.59984 0.47567 0.0
H749 H 0.76185 0.56966 0.36473 0.0
H750 H 0.87141 0.5929 0.45656 0.0
H751 H 0.83052 0.56096 0.34567 0.0
H752 H 0.95542 0.5954 0.31105 0.0
H753 H 0.88608 0.59155 0.32929 0.0
H754 H 0.92338 0.55843 0.44089 0.0
H755 H 0.99274 0.56427 0.42277 0.0
C756 C 0.80865 0.59089 0.44743 0.0
C757 C 0.77721 0.58542 0.4216 0.0
C758 C 0.84798 0.58671 0.43641 0.0
C759 C 0.8568 0.5764 0.39942 0.0
C760 C 0.82505 0.5696 0.3741 0.0
C761 C 0.78571 0.57438 0.38498 0.0
C762 C 0.94858 0.58677 0.33921 0.0
C763 C 0.97919 0.58033 0.36564 0.0
C764 C 0.90882 0.58442 0.34975 0.0
C765 C 0.89886 0.57499 0.38681 0.0
C766 C 0.92976 0.56664 0.41246 0.0
C767 C 0.96948 0.56968 0.4021 0.0
H768 H 0.51212 0.46483 0.12192 0.0
H769 H 0.55144 0.42723 0.23035 0.0
H770 H 0.58113 0.47235 0.10341 0.0
H771 H 0.62039 0.43285 0.21159 0.0
H772 H 0.74371 0.45767 0.17725 0.0
H773 H 0.67517 0.46502 0.19732 0.0
H774 H 0.63365 0.43981 0.08431 0.0
H775 H 0.7021 0.43426 0.06431 0.0
C776 C 0.53572 0.45832 0.14178 0.0
C777 C 0.52665 0.4454 0.17744 0.0
C778 C 0.57525 0.46236 0.13118 0.0
C779 C 0.60663 0.45281 0.15573 0.0
C780 C 0.59729 0.441 0.19203 0.0
C781 C 0.55774 0.43761 0.20286 0.0
C782 C 0.71974 0.45419 0.15676 0.0
C783 C 0.72805 0.44535 0.11932 0.0
C784 C 0.68046 0.45818 0.16822 0.0
C785 C 0.64856 0.45272 0.14262 0.0
C786 C 0.65719 0.44484 0.10479 0.0
C787 C 0.69648 0.44148 0.09323 0.0
H788 H 0.22598 0.30893 0.09165 0.0
H789 H 0.22804 0.36325 0.19689 0.0
H790 H 0.15388 0.30657 0.09354 0.0
H791 H 0.15585 0.36143 0.19797 0.0
H792 H 0.02784 0.38713 0.15688 0.0
H793 H 0.10037 0.38598 0.15875 0.0
H794 H 0.09826 0.28279 0.13199 0.0
H795 H 0.02549 0.28407 0.1297 0.0
C796 C 0.2114 0.3201 0.11542 0.0
C797 C 0.23337 0.33653 0.14396 0.0
C798 C 0.16987 0.31873 0.11642 0.0
C799 C 0.14919 0.33398 0.14577 0.0
C800 C 0.17097 0.34987 0.17466 0.0
C801 C 0.21249 0.35097 0.17391 0.0
C802 C 0.04284 0.36424 0.15124 0.0
C803 C 0.02095 0.33572 0.14295 0.0
C804 C 0.08437 0.3635 0.1527 0.0
C805 C 0.10501 0.33429 0.14554 0.0
C806 C 0.08316 0.30571 0.1374 0.0
C807 C 0.04155 0.30637 0.13637 0.0
H808 H 0.52991 0.31858 0.70675 0.0
H809 H 0.52735 0.35249 0.59077 0.0
H810 H 0.6022 0.31616 0.7056 0.0
H811 H 0.59979 0.35113 0.59006 0.0
H812 H 0.72782 0.3146 0.58983 0.0
H813 H 0.65553 0.31295 0.59115 0.0
H814 H 0.6585 0.35385 0.70397 0.0
H815 H 0.73095 0.35446 0.70317 0.0
C816 C 0.54467 0.32531 0.68089 0.0
C817 C 0.52265 0.33573 0.64882 0.0
C818 C 0.58622 0.3243 0.6804 0.0
C819 C 0.60686 0.33357 0.6478 0.0
C820 C 0.58486 0.34354 0.61555 0.0
C821 C 0.5433 0.34465 0.61608 0.0
C822 C 0.71319 0.3228 0.61516 0.0
C823 C 0.73539 0.33463 0.64643 0.0
C824 C 0.67163 0.32223 0.61572 0.0
C825 C 0.65115 0.33336 0.6476 0.0
C826 C 0.67331 0.3448 0.67907 0.0
C827 C 0.71489 0.34548 0.67847 0.0
H828 H 0.01368 0.45757 0.61469 0.0
H829 H 0.05484 0.43034 0.72666 0.0
H830 H 0.08229 0.46563 0.59517 0.0
H831 H 0.1234 0.43661 0.70713 0.0
H832 H 0.24509 0.46308 0.671 0.0
H833 H 0.176 0.46984 0.68959 0.0
H834 H 0.13717 0.43404 0.57965 0.0
H835 H 0.20623 0.42916 0.56089 0.0
C836 C 0.03757 0.4534 0.63509 0.0
C837 C 0.02911 0.44328 0.6721 0.0
C838 C 0.0769 0.45779 0.62394 0.0
C839 C 0.10871 0.45148 0.64937 0.0
C840 C 0.09993 0.44232 0.68681 0.0
C841 C 0.06059 0.43855 0.6981 0.0
C842 C 0.22156 0.45724 0.65078 0.0
C843 C 0.2308 0.44554 0.61462 0.0
C844 C 0.18199 0.46083 0.66143 0.0
C845 C 0.15071 0.45207 0.63639 0.0
C846 C 0.1602 0.44154 0.59962 0.0
C847 C 0.19981 0.43859 0.58878 0.0
H848 H 0.10317 0.06384 0.2486 0.0
H849 H 0.15512 0.1601 0.23652 0.0
H850 H 0.103 0.0574 0.1795 0.0
H851 H 0.1561 0.15307 0.16832 0.0
H852 H 0.1898 0.11875 0.05183 0.0
H853 H 0.19155 0.11726 0.12105 0.0
H854 H 0.06948 0.08464 0.12115 0.0
H855 H 0.06775 0.08604 0.05175 0.0
C856 C 0.11446 0.08363 0.23139 0.0
C857 C 0.12968 0.11231 0.24844 0.0
C858 C 0.11452 0.07984 0.19183 0.0
C859 C 0.13015 0.10452 0.16854 0.0
C860 C 0.1448 0.13326 0.18552 0.0
C861 C 0.1443 0.13721 0.22479 0.0
C862 C 0.16362 0.11057 0.06657 0.0
C863 C 0.12859 0.10265 0.04632 0.0
C864 C 0.1645 0.11 0.10622 0.0
C865 C 0.13052 0.10114 0.12655 0.0
C866 C 0.09614 0.09149 0.1063 0.0
C867 C 0.0951 0.09247 0.06661 0.0
H868 H 0.9422 0.94072 0.99095 0.0
H869 H 0.81914 0.91056 0.98995 0.0
H870 H 0.9407 0.94307 0.92153 0.0
H871 H 0.81769 0.91297 0.9208 0.0
H872 H 0.85455 0.86856 0.80646 0.0
H873 H 0.85432 0.87569 0.87464 0.0
H874 H 0.9064 0.97168 0.86273 0.0
H875 H 0.90541 0.96513 0.79352 0.0
C876 C 0.91469 0.9351 0.9759 0.0
C877 C 0.88084 0.92527 0.99587 0.0
C878 C 0.9138 0.93664 0.93625 0.0
C879 C 0.8792 0.9279 0.91582 0.0
C880 C 0.84487 0.91957 0.93586 0.0
C881 C 0.8456 0.91843 0.97544 0.0
C882 C 0.86534 0.89152 0.81805 0.0
C883 C 0.87923 0.91656 0.79422 0.0
C884 C 0.86528 0.89552 0.85725 0.0
C885 C 0.8797 0.92443 0.87395 0.0
C886 C 0.89496 0.94916 0.85052 0.0
C887 C 0.89456 0.94532 0.81096 0.0
H888 H 0.18859 0.619 0.55409 0.0
H889 H 0.06653 0.58658 0.54868 0.0
H890 H 0.18838 0.61436 0.6229 0.0
H891 H 0.06645 0.58089 0.6175 0.0
H892 H 0.06537 0.61939 0.74062 0.0
H893 H 0.06521 0.61469 0.67176 0.0
H894 H 0.18672 0.58023 0.67683 0.0
H895 H 0.18703 0.58605 0.74561 0.0
C896 C 0.16199 0.61013 0.56759 0.0
C897 C 0.12753 0.60334 0.54596 0.0
C898 C 0.16181 0.60738 0.60714 0.0
C899 C 0.12727 0.59744 0.62607 0.0
C900 C 0.09333 0.58931 0.60414 0.0
C901 C 0.09341 0.5924 0.56464 0.0
C902 C 0.09177 0.61028 0.72702 0.0
C903 C 0.12627 0.60331 0.74851 0.0
C904 C 0.09174 0.6075 0.68746 0.0
C905 C 0.12611 0.59734 0.66843 0.0
C906 C 0.16 0.58888 0.69026 0.0
C907 C 0.16014 0.59201 0.72973 0.0
H908 H 0.81889 0.40558 0.48708 0.0
H909 H 0.94138 0.43682 0.49217 0.0
H910 H 0.81892 0.4102 0.41828 0.0
H911 H 0.94126 0.44275 0.42336 0.0
H912 H 0.94178 0.40528 0.30009 0.0
H913 H 0.94216 0.40968 0.36897 0.0
H914 H 0.82046 0.44381 0.36442 0.0
H915 H 0.81989 0.43804 0.29563 0.0
C916 C 0.84555 0.4142 0.47348 0.0
C917 C 0.88017 0.42067 0.49497 0.0
C918 C 0.84562 0.41697 0.43395 0.0
C919 C 0.88021 0.42668 0.41493 0.0
C920 C 0.91433 0.4345 0.43676 0.0
C921 C 0.91438 0.4313 0.47624 0.0
C922 C 0.91537 0.4142 0.31386 0.0
C923 C 0.88075 0.42111 0.29255 0.0
C924 C 0.91553 0.41684 0.35341 0.0
C925 C 0.88119 0.42686 0.37259 0.0
C926 C 0.84716 0.43526 0.3509 0.0
C927 C 0.84687 0.43218 0.31143 0.0
H928 H 0.5684 0.12281 0.54827 0.0
H929 H 0.68986 0.08847 0.54424 0.0
H930 H 0.56932 0.11646 0.61607 0.0
H931 H 0.68911 0.07821 0.61184 0.0
H932 H 0.69591 0.10693 0.73648 0.0
H933 H 0.69444 0.10406 0.66828 0.0
H934 H 0.56763 0.08646 0.66975 0.0
H935 H 0.56844 0.09345 0.73786 0.0
C936 C 0.59537 0.11365 0.56168 0.0
C937 C 0.62946 0.10715 0.54032 0.0
C938 C 0.59555 0.10918 0.60092 0.0
C939 C 0.62943 0.09703 0.62022 0.0
C940 C 0.66272 0.08852 0.59855 0.0
C941 C 0.66291 0.09387 0.55931 0.0
C942 C 0.66748 0.103 0.72239 0.0
C943 C 0.63213 0.10151 0.74315 0.0
C944 C 0.66676 0.10058 0.68288 0.0
C945 C 0.63079 0.09554 0.66274 0.0
C946 C 0.59585 0.09147 0.68376 0.0
C947 C 0.59641 0.09483 0.72327 0.0
H948 H 0.44115 0.91272 0.30269 0.0
H949 H 0.31892 0.94427 0.29432 0.0
H950 H 0.43963 0.91871 0.37133 0.0
H951 H 0.31755 0.95147 0.36291 0.0
H952 H 0.31389 0.91241 0.48588 0.0
H953 H 0.31518 0.91785 0.41714 0.0
H954 H 0.43637 0.95289 0.42497 0.0
H955 H 0.43527 0.94619 0.49366 0.0
C956 C 0.41426 0.92176 0.3155 0.0
C957 C 0.38009 0.92778 0.29319 0.0
C958 C 0.41334 0.9253 0.35493 0.0
C959 C 0.3783 0.93532 0.37296 0.0
C960 C 0.34476 0.94297 0.35025 0.0
C961 C 0.34558 0.93905 0.31091 0.0
C962 C 0.34051 0.92185 0.4729 0.0
C963 C 0.37455 0.92865 0.49507 0.0
C964 C 0.34131 0.92507 0.43342 0.0
C965 C 0.37607 0.93553 0.41521 0.0
C966 C 0.4094 0.94402 0.43777 0.0
C967 C 0.40873 0.9404 0.47717 0.0
H968 H 0.56699 0.61237 0.04721 0.0
H969 H 0.69328 0.59308 0.04381 0.0
H970 H 0.569 0.60766 0.11505 0.0
H971 H 0.69426 0.58386 0.11152 0.0
H972 H 0.69719 0.61293 0.23553 0.0
H973 H 0.69573 0.60946 0.16754 0.0
H974 H 0.572 0.5806 0.16999 0.0
H975 H 0.57206 0.58865 0.23773 0.0
C976 C 0.59532 0.60685 0.06074 0.0
C977 C 0.63022 0.60424 0.03945 0.0
C978 C 0.59628 0.60326 0.10012 0.0
C979 C 0.63194 0.59569 0.11971 0.0
C980 C 0.66634 0.59076 0.09812 0.0
C981 C 0.66562 0.59541 0.05874 0.0
C982 C 0.66927 0.60656 0.22174 0.0
C983 C 0.63444 0.6022 0.24278 0.0
C984 C 0.66869 0.60371 0.18226 0.0
C985 C 0.63356 0.59519 0.16233 0.0
C986 C 0.59944 0.58838 0.18365 0.0
C987 C 0.59969 0.59232 0.22309 0.0
H988 H 0.44174 0.41448 0.80311 0.0
H989 H 0.32064 0.44904 0.79618 0.0
H990 H 0.4413 0.42043 0.87179 0.0
H991 H 0.32038 0.45612 0.86482 0.0
H992 H 0.31691 0.41666 0.98767 0.0
H993 H 0.3176 0.42214 0.91894 0.0
H994 H 0.43981 0.45481 0.92559 0.0
H995 H 0.43925 0.44822 0.99431 0.0
C996 C 0.41537 0.42418 0.81623 0.0
C997 C 0.38116 0.43108 0.7943 0.0
C998 C 0.41506 0.42769 0.85568 0.0
C999 C 0.38063 0.4385 0.87414 0.0
C1000 C 0.34711 0.44702 0.85182 0.0
C1001 C 0.34731 0.44316 0.81244 0.0
C1002 C 0.34364 0.42561 0.97446 0.0
C1003 C 0.37808 0.4318 0.99635 0.0
C1004 C 0.3441 0.42884 0.93498 0.0
C1005 C 0.37892 0.43866 0.91643 0.0
C1006 C 0.41274 0.44647 0.93867 0.0
C1007 C 0.41238 0.44289 0.97809 0.0
H1008 H 0.35388 0.31585 0.52812 0.0
H1009 H 0.27387 0.31476 0.62237 0.0
H1010 H 0.3118 0.27634 0.49477 0.0
H1011 H 0.23062 0.2765 0.58845 0.0
H1012 H 0.17869 0.18526 0.53175 0.0
H1013 H 0.22207 0.2228 0.56679 0.0
H1014 H 0.25123 0.27151 0.46199 0.0
H1015 H 0.20938 0.23292 0.42707 0.0
C1016 C 0.32721 0.30718 0.54167 0.0
C1017 C 0.31726 0.31834 0.57789 0.0
C1018 C 0.30279 0.28473 0.5224 0.0
C1019 C 0.26741 0.27326 0.53862 0.0
C1020 C 0.2578 0.28427 0.57515 0.0
C1021 C 0.28255 0.30637 0.59461 0.0
C1022 C 0.19426 0.20413 0.51631 0.0
C1023 C 0.19067 0.20614 0.47668 0.0
C1024 C 0.21908 0.22578 0.5364 0.0
C1025 C 0.24052 0.25028 0.51736 0.0
C1026 C 0.23608 0.25259 0.47769 0.0
C1027 C 0.21173 0.23065 0.45761 0.0
H1028 H 0.95614 0.92506 0.54817 0.0
H1029 H 0.92712 0.01454 0.60673 0.0
H1030 H 0.99929 0.9553 0.50635 0.0
H1031 H 0.97205 0.04481 0.56597 0.0
H1032 H 0.0239 0.09602 0.46423 0.0
H1033 H 0.97936 0.0651 0.50443 0.0
H1034 H 0.05965 0.98245 0.50116 0.0
H1035 H 0.10303 1.01294 0.45942 0.0
C1036 C 0.95947 0.95119 0.55254 0.0
C1037 C 0.93811 0.96738 0.58085 0.0
C1038 C 0.98448 0.96859 0.52856 0.0
C1039 C 0.98936 1.00266 0.53252 0.0
C1040 C 0.96853 0.01874 0.56142 0.0
C1041 C 0.943 1.00135 0.5851 0.0
C1042 C 0.03179 0.07111 0.47177 0.0
C1043 C 0.06694 0.05689 0.45846 0.0
C1044 C 0.00643 0.05344 0.49524 0.0
C1045 C 0.01585 0.02123 0.50653 0.0
C1046 C 0.05089 1.00695 0.49274 0.0
C1047 C 0.07593 0.02447 0.46879 0.0
H1048 H 0.32742 0.017 0.68428 0.0
H1049 H 0.29466 0.92628 0.73855 0.0
H1050 H 0.28304 0.04687 0.72593 0.0
H1051 H 0.25203 0.95603 0.7812 0.0
H1052 H 0.14946 1.01384 0.82922 0.0
H1053 H 0.19238 0.98424 0.7864 0.0
H1054 H 0.27539 0.06517 0.78846 0.0
H1055 H 0.23134 0.09532 0.82994 0.0
C1056 C 0.31082 1.00345 0.70514 0.0
C1057 C 0.3145 0.96925 0.70792 0.0
C1058 C 0.28561 0.0206 0.72933 0.0
C1059 C 0.26386 1.004 0.75724 0.0
C1060 C 0.26757 0.96973 0.75976 0.0
C1061 C 0.29228 0.9526 0.7353 0.0
C1062 C 0.17704 0.0252 0.82079 0.0
C1063 C 0.18697 0.05693 0.83305 0.0
C1064 C 0.20182 1.00817 0.79622 0.0
C1065 C 0.23754 0.0222 0.78368 0.0
C1066 C 0.24782 0.05374 0.79673 0.0
C1067 C 0.22272 0.07095 0.82088 0.0
H1068 H 0.95944 0.29138 0.67083 0.0
H1069 H 0.927 0.33899 0.77493 0.0
H1070 H 1.00107 0.25297 0.70656 0.0
H1071 H 0.97005 0.30184 0.81063 0.0
H1072 H 0.10294 0.20919 0.7755 0.0
H1073 H 0.061 0.24785 0.74048 0.0
H1074 H 0.97827 0.24865 0.83292 0.0
H1075 H 0.02132 0.2114 0.86845 0.0
C1076 C 0.9613 0.29365 0.70138 0.0
C1077 C 0.93977 0.31807 0.72008 0.0
C1078 C 0.98552 0.27183 0.72193 0.0
C1079 C 0.98931 0.27422 0.76166 0.0
C1080 C 0.9675 0.2987 0.78023 0.0
C1081 C 0.94284 0.32016 0.75973 0.0
C1082 C 0.07596 0.21793 0.78841 0.0
C1083 C 0.06556 0.20741 0.8248 0.0
C1084 C 0.05161 0.23987 0.76818 0.0
C1085 C 0.0159 0.25143 0.78361 0.0
C1086 C 0.00575 0.24089 0.82021 0.0
C1087 C 0.03041 0.21937 0.84062 0.0
H1088 H 0.84806 0.8179 0.52056 0.0
H1089 H 0.76861 0.81513 0.6152 0.0
H1090 H 0.80511 0.77967 0.48607 0.0
H1091 H 0.72453 0.77837 0.58024 0.0
H1092 H 0.67238 0.68798 0.5227 0.0
H1093 H 0.71563 0.72533 0.55786 0.0
H1094 H 0.74451 0.77474 0.4534 0.0
H1095 H 0.70276 0.73613 0.41823 0.0
C1096 C 0.82131 0.80916 0.53392 0.0
C1097 C 0.81185 0.81935 0.57065 0.0
C1098 C 0.79638 0.78747 0.51402 0.0
C1099 C 0.76099 0.77587 0.53013 0.0
C1100 C 0.75174 0.78616 0.56701 0.0
C1101 C 0.77698 0.80741 0.58709 0.0
C1102 C 0.68773 0.70701 0.50734 0.0
C1103 C 0.68414 0.70916 0.46773 0.0
C1104 C 0.71253 0.72858 0.52752 0.0
C1105 C 0.73391 0.75319 0.50864 0.0
C1106 C 0.72936 0.75575 0.46898 0.0
C1107 C 0.70505 0.73382 0.44877 0.0
H1108 H 0.67429 1.01095 0.34829 0.0
H1109 H 0.71099 0.10145 0.29588 0.0
H1110 H 0.72053 0.98076 0.30901 0.0
H1111 H 0.75569 0.07131 0.25541 0.0
H1112 H 0.85994 1.01183 0.21269 0.0
H1113 H 0.81529 0.04222 0.25322 0.0
H1114 H 0.73052 0.96265 0.24679 0.0
H1115 H 0.77611 0.93176 0.20771 0.0
C1116 C 0.69215 0.02439 0.32831 0.0
C1117 C 0.68899 0.0586 0.32531 0.0
C1118 C 0.71845 1.00705 0.30547 0.0
C1119 C 0.74186 0.02346 0.2787 0.0
C1120 C 0.73877 0.05777 0.27601 0.0
C1121 C 0.71291 0.0751 0.29917 0.0
C1122 C 0.83163 1.00095 0.21972 0.0
C1123 C 0.82161 0.96937 0.20701 0.0
C1124 C 0.80588 0.01842 0.24293 0.0
C1125 C 0.76917 1.00495 0.25358 0.0
C1126 C 0.75884 0.97361 0.24001 0.0
C1127 C 0.78484 0.95596 0.21725 0.0
H1128 H 0.90261 0.81523 0.26523 0.0
H1129 H 0.98525 0.81306 0.17311 0.0
H1130 H 0.94381 0.77611 0.30036 0.0
H1131 H 0.02759 0.77539 0.20877 0.0
H1132 H 0.07834 0.68508 0.26643 0.0
H1133 H 0.03531 0.72218 0.23072 0.0
H1134 H 1.00324 0.77041 0.33489 0.0
H1135 H 0.04483 0.73196 0.37065 0.0
C1136 C 0.92965 0.80639 0.25253 0.0
C1137 C 0.94056 0.81706 0.21634 0.0
C1138 C 0.95357 0.78419 0.27283 0.0
C1139 C 0.98937 0.77252 0.25767 0.0
C1140 C 1.00001 0.7832 0.22126 0.0
C1141 C 0.97576 0.80497 0.20076 0.0
C1142 C 0.06222 0.70373 0.28166 0.0
C1143 C 0.06505 0.70567 0.32134 0.0
C1144 C 0.03759 0.72518 0.26115 0.0
C1145 C 0.01558 0.74952 0.27972 0.0
C1146 C 0.01898 0.75167 0.3195 0.0
C1147 C 0.04316 0.72983 0.34007 0.0
H1148 H 0.30008 0.79428 0.12135 0.0
H1149 H 0.33048 0.84106 1.01604 0.0
H1150 H 0.25854 0.75508 0.08675 0.0
H1151 H 0.28747 0.80318 0.98149 0.0
H1152 H 0.23666 0.71208 0.92544 0.0
H1153 H 0.27987 0.74975 0.96014 0.0
H1154 H 0.19837 0.74889 0.0536 0.0
H1155 H 0.15635 0.70979 1.01943 0.0
C1156 C 0.29775 0.79622 0.09078 0.0
C1157 C 0.31871 0.8206 0.0714 0.0
C1158 C 0.2736 0.77394 0.07089 0.0
C1159 C 0.2693 0.77586 0.03115 0.0
C1160 C 0.29046 0.80036 1.01191 0.0
C1161 C 0.31507 0.82226 0.03175 0.0
C1162 C 0.22792 0.72009 0.95334 0.0
C1163 C 0.19309 0.70803 0.96969 0.0
C1164 C 0.25264 0.74186 0.97327 0.0
C1165 C 0.24284 0.75257 1.00987 0.0
C1166 C 0.20749 0.7408 0.02588 0.0
C1167 C 0.18311 0.71859 1.00615 0.0
H1168 H 0.07823 0.51232 0.93446 0.0
H1169 H 0.04925 0.60166 0.99334 0.0
H1170 H 0.03274 0.48206 0.97466 0.0
H1171 H 0.0055 0.57141 0.03459 0.0
H1172 H 0.90113 0.51399 0.08045 0.0
H1173 H 0.9448 0.54439 0.03887 0.0
H1174 H 0.02505 0.4617 0.03622 0.0
H1175 H 0.9803 0.43088 0.07624 0.0
C1176 C 0.06225 0.52547 0.95605 0.0
C1177 C 0.06733 0.5594 0.96058 0.0
C1178 C 0.03639 0.50809 0.9794 0.0
C1179 C 0.0154 0.52415 1.0082 0.0
C1180 C 0.02046 0.55816 1.01244 0.0
C1181 C 0.04582 0.57556 0.9888 0.0
C1182 C 0.92826 0.50242 0.07121 0.0
C1183 C 0.93722 0.47002 0.08171 0.0
C1184 C 0.95346 0.51989 0.04737 0.0
C1185 C 0.9886 0.50558 0.03387 0.0
C1186 C 0.99792 0.47338 0.04522 0.0
C1187 C 0.97242 0.45576 0.06858 0.0
H1188 H 0.21067 0.60126 0.30381 0.0
H1189 H 0.17748 0.51056 0.35792 0.0
H1190 H 0.25382 0.57151 0.26167 0.0
H1191 H 0.22233 0.48069 0.31673 0.0
H1192 H 0.2738 0.43251 0.21233 0.0
H1193 H 0.22993 0.46261 0.25398 0.0
H1194 H 0.31353 0.54311 0.25691 0.0
H1195 H 0.35634 0.51355 0.21392 0.0
C1196 C 0.21308 0.57495 0.30717 0.0
C1197 C 0.19055 0.5583 0.33432 0.0
C1198 C 0.23808 0.55782 0.28299 0.0
C1199 C 0.24175 0.52356 0.28556 0.0
C1200 C 0.21978 0.50697 0.31331 0.0
C1201 C 0.19431 0.52412 0.33724 0.0
C1202 C 0.28262 0.45676 0.22163 0.0
C1203 C 0.3185 0.47068 0.20963 0.0
C1204 C 0.25762 0.47394 0.24589 0.0
C1205 C 0.2681 0.50534 0.25919 0.0
C1206 C 0.30397 0.51927 0.24688 0.0
C1207 C 0.32867 0.50227 0.22222 0.0
H1208 H 0.79542 0.29375 0.11719 0.0
H1209 H 0.82382 0.34333 1.01306 0.0
H1210 H 0.7526 0.25585 0.08201 0.0
H1211 H 0.77958 0.30674 0.97801 0.0
H1212 H 0.72915 0.21642 0.92002 0.0
H1213 H 0.7721 0.2538 0.95518 0.0
H1214 H 0.69172 0.25037 0.04944 0.0
H1215 H 0.64982 0.21146 1.01466 0.0
C1216 C 0.79235 0.29659 0.08675 0.0
C1217 C 0.81318 0.32133 0.06784 0.0
C1218 C 0.76747 0.27507 0.06656 0.0
C1219 C 0.76233 0.27811 0.027 0.0
C1220 C 0.78324 0.30306 1.00825 0.0
C1221 C 0.80857 0.32421 0.02837 0.0
C1222 C 0.72049 0.22384 0.94816 0.0
C1223 C 0.68604 0.21106 0.96454 0.0
C1224 C 0.7451 0.24546 0.96836 0.0
C1225 C 0.7356 0.25531 1.00534 0.0
C1226 C 0.70056 0.24295 0.02139 0.0
C1227 C 0.67624 0.22089 1.00132 0.0
H1228 H 0.77545 0.43177 0.70743 0.0
H1229 H 0.85885 0.51219 0.70864 0.0
H1230 H 0.7308 0.46308 0.74701 0.0
H1231 H 0.81513 0.54306 0.74965 0.0
H1232 H 0.71162 0.60231 0.79454 0.0
H1233 H 0.75543 0.57197 0.75334 0.0
H1234 H 0.72261 0.48184 0.80918 0.0
H1235 H 0.67727 0.5122 0.84923 0.0
C1236 C 0.78429 0.45615 0.71621 0.0
C1237 C 0.82069 0.4695 0.70481 0.0
C1238 C 0.75882 0.47405 0.73928 0.0
C1239 C 0.76932 0.50561 0.75201 0.0
C1240 C 0.8056 0.51908 0.74009 0.0
C1241 C 0.83081 0.50133 0.71657 0.0
C1242 C 0.71387 0.57602 0.79817 0.0
C1243 C 0.69084 0.55968 0.82517 0.0
C1244 C 0.73922 0.55857 0.77458 0.0
C1245 C 0.74267 0.52431 0.77765 0.0
C1246 C 0.72021 0.50808 0.80531 0.0
C1247 C 0.69443 0.52552 0.82859 0.0
H1248 H 0.42699 0.01767 0.10427 0.0
H1249 H 0.46295 0.92707 0.05183 0.0
H1250 H 0.47172 0.0479 0.06321 0.0
H1251 H 0.50605 0.95715 1.00985 0.0
H1252 H 0.52405 0.09592 0.95894 0.0
H1253 H 0.47994 0.06548 1.00013 0.0
H1254 H 0.56541 0.98646 1.0061 0.0
H1255 H 0.60855 0.01634 0.96363 0.0
C1256 C 0.44439 1.00422 0.08397 0.0
C1257 C 0.44146 0.96995 0.08149 0.0
C1258 C 0.4698 0.02156 0.06013 0.0
C1259 C 0.49256 1.00509 0.03293 0.0
C1260 C 0.48967 0.97076 0.03076 0.0
C1261 C 0.4647 0.95344 0.05483 0.0
C1262 C 0.53324 0.07192 0.9688 0.0
C1263 C 0.56976 0.05851 0.95783 0.0
C1264 C 0.50809 0.05455 0.99278 0.0
C1265 C 0.51903 0.02347 1.0068 0.0
C1266 C 0.55551 1.01003 0.99549 0.0
C1267 C 0.5804 0.02723 0.97114 0.0
H1268 H 0.40143 0.31718 0.26356 0.0
H1269 H 0.47959 0.31325 0.16796 0.0
H1270 H 0.44286 0.27708 0.29687 0.0
H1271 H 0.52208 0.27439 0.20173 0.0
H1272 H 0.5724 0.18304 0.25857 0.0
H1273 H 0.52852 0.22052 0.22403 0.0
H1274 H 0.50453 0.27169 0.32841 0.0
H1275 H 0.54698 0.23322 0.36297 0.0
C1276 C 0.42751 0.30773 0.24969 0.0
C1277 C 0.43718 0.31828 0.21312 0.0
C1278 C 0.45154 0.28495 0.26891 0.0
C1279 C 0.48615 0.27251 0.25222 0.0
C1280 C 0.49544 0.28291 0.21537 0.0
C1281 C 0.47112 0.30535 0.196 0.0
C1282 C 0.5578 0.20238 0.27405 0.0
C1283 C 0.56312 0.20521 0.31345 0.0
C1284 C 0.53272 0.224 0.25424 0.0
C1285 C 0.51274 0.24925 0.27331 0.0
C1286 C 0.51863 0.25222 0.31276 0.0
C1287 C 0.54329 0.23033 0.3326 0.0
H1288 H 0.42631 0.83983 0.77083 0.0
H1289 H 0.45497 0.79371 0.66479 0.0
H1290 H 0.46959 0.80162 0.80455 0.0
H1291 H 0.49676 0.75411 0.69859 0.0
H1292 H 0.59977 0.70814 0.76499 0.0
H1293 H 0.55722 0.74708 0.731 0.0
H1294 H 0.47706 0.74823 0.82552 0.0
H1295 H 0.52079 0.71085 0.85997 0.0
C1296 C 0.44137 0.82109 0.75479 0.0
C1297 C 0.43717 0.81971 0.71519 0.0
C1298 C 0.46614 0.79898 0.77416 0.0
C1299 C 0.48686 0.77451 0.75448 0.0
C1300 C 0.48202 0.7729 0.71478 0.0
C1301 C 0.45773 0.79541 0.69535 0.0
C1302 C 0.57316 0.71696 0.77849 0.0
C1303 C 0.56377 0.70666 0.81522 0.0
C1304 C 0.54848 0.73908 0.75889 0.0
C1305 C 0.51343 0.75099 0.77533 0.0
C1306 C 0.50409 0.74032 0.81208 0.0
C1307 C 0.5291 0.71868 0.83186 0.0
H1308 H 0.60874 0.51436 0.46323 0.0
H1309 H 0.52384 0.59363 0.45785 0.0
H1310 H 0.56542 0.48435 0.50543 0.0
H1311 H 0.47961 0.56308 0.49879 0.0
H1312 H 0.42693 0.51614 0.60336 0.0
H1313 H 0.47156 0.546 0.56196 0.0
H1314 H 0.50612 0.45481 0.50974 0.0
H1315 H 0.46299 0.42504 0.55216 0.0
C1316 C 0.58047 0.52515 0.47051 0.0
C1317 C 0.5698 0.55642 0.45713 0.0
C1318 C 0.55547 0.50787 0.49472 0.0
C1319 C 0.51888 0.52122 0.50584 0.0
C1320 C 0.50785 0.55222 0.49163 0.0
C1321 C 0.53309 0.56967 0.46778 0.0
C1322 C 0.44432 0.50249 0.58323 0.0
C1323 C 0.44142 0.4682 0.5812 0.0
C1324 C 0.46969 0.51963 0.55917 0.0
C1325 C 0.49246 0.50295 0.53216 0.0
C1326 C 0.48967 0.46858 0.53046 0.0
C1327 C 0.4647 0.45145 0.55477 0.0
loop_
_geom_bond_atom_site_label_1
_geom_bond_atom_site_label_2
_geom_bond_distance
_geom_bond_site_symmetry_2
_ccdc_geom_bond_type
Co0 N4 2.148 . S
Co0 N10 2.128 . S
Co0 N20 2.194 . S
Co0 O25 2.351 . S
Co0 O26 2.155 . S
Co0 O27 2.096 . S
C1 N4 1.301 . S
C1 N5 1.328 . S
C1 H6 0.930 . S
C2 C3 1.333 . S
C2 N4 1.317 . S
C2 H7 0.930 . S
C3 C2 1.333 . S
C3 N5 1.350 . S
C3 H29 0.931 . S
N4 Co0 2.148 . S
N4 C1 1.301 . S
N4 C2 1.317 . S
N5 C1 1.328 . S
N5 C3 1.350 . S
H6 C1 0.930 . S
H7 C2 0.930 . S
C8 O9 1.224 . S
C8 O27 1.247 . S
O9 C8 1.224 . S
N10 Co0 2.128 . S
N10 C11 1.355 . S
N10 C13 1.311 . S
C11 N10 1.355 . S
C11 C12 1.363 . S
C11 H23 0.929 . S
C12 C11 1.363 . S
C12 N14 1.375 . S
C12 H30 0.931 . S
C13 N10 1.311 . S
C13 N14 1.347 . S
C13 H24 0.929 . S
N14 C12 1.375 . S
N14 C13 1.347 . S
C15 C18 1.365 . S
C15 N20 1.328 . S
C15 H21 0.929 . S
C16 C17 1.362 . S
C16 C19 1.378 . S
C16 H31 0.929 . S
C17 C16 1.362 . S
C17 C18 1.366 . S
C18 C15 1.365 . S
C18 C17 1.366 . S
C18 H32 0.930 . S
C19 C16 1.378 . S
C19 N20 1.315 . S
C19 H22 0.930 . S
N20 Co0 2.194 . S
N20 C15 1.328 . S
N20 C19 1.315 . S
H21 C15 0.929 . S
H22 C19 0.930 . S
H23 C11 0.929 . S
H24 C13 0.929 . S
O25 Co0 2.351 . S
O25 C28 1.244 . S
O26 Co0 2.155 . S
O26 C28 1.240 . S
O27 Co0 2.096 . S
O27 C8 1.247 . S
C28 O25 1.244 . S
C28 O26 1.240 . S
H29 C3 0.931 . S
H30 C12 0.931 . S
H31 C16 0.929 . S
H32 C18 0.930 . S
Co33 N37 2.148 . S
Co33 N43 2.128 . S
Co33 N53 2.194 . S
Co33 O58 2.351 . S
Co33 O59 2.155 . S
Co33 O60 2.096 . S
C34 N37 1.301 . S
C34 N38 1.344 . S
C34 H39 0.930 . S
C35 C36 1.333 . S
C35 N37 1.317 . S
C35 H40 0.930 . S
C36 C35 1.333 . S
C36 N38 1.358 . S
C36 H62 0.931 . S
N37 Co33 2.148 . S
N37 C34 1.301 . S
N37 C35 1.317 . S
N38 C34 1.344 . S
N38 C36 1.358 . S
H39 C34 0.930 . S
H40 C35 0.930 . S
C41 O42 1.224 . S
C41 O60 1.247 . S
O42 C41 1.224 . S
N43 Co33 2.128 . S
N43 C44 1.355 . S
N43 C46 1.311 . S
C44 N43 1.355 . S
C44 C45 1.363 . S
C44 H56 0.929 . S
C45 C44 1.363 . S
C45 N47 1.375 . S
C45 H63 0.931 . S
C46 N43 1.311 . S
C46 N47 1.347 . S
C46 H57 0.929 . S
N47 C45 1.375 . S
N47 C46 1.347 . S
C48 C51 1.365 . S
C48 N53 1.328 . S
C48 H54 0.929 . S
C49 C50 1.362 . S
C49 C52 1.378 . S
C49 H64 0.929 . S
C50 C49 1.362 . S
C50 C51 1.366 . S
C51 C48 1.365 . S
C51 C50 1.366 . S
C51 H65 0.930 . S
C52 C49 1.378 . S
C52 N53 1.315 . S
C52 H55 0.930 . S
N53 Co33 2.194 . S
N53 C48 1.328 . S
N53 C52 1.315 . S
H54 C48 0.929 . S
H55 C52 0.930 . S
H56 C44 0.929 . S
H57 C46 0.929 . S
O58 Co33 2.351 . S
O58 C61 1.244 . S
O59 Co33 2.155 . S
O59 C61 1.240 . S
O60 Co33 2.096 . S
O60 C41 1.247 . S
C61 O58 1.244 . S
C61 O59 1.240 . S
H62 C36 0.931 . S
H63 C45 0.931 . S
H64 C49 0.929 . S
H65 C51 0.930 . S
Co66 N70 2.148 . S
Co66 N76 2.128 . S
Co66 N86 2.194 . S
Co66 O91 2.351 . S
Co66 O92 2.155 . S
Co66 O93 2.096 . S
C67 N70 1.301 . S
C67 N71 1.328 . S
C67 H72 0.930 . S
C68 C69 1.333 . S
C68 N70 1.317 . S
C68 H73 0.930 . S
C69 C68 1.333 . S
C69 N71 1.350 . S
C69 H95 0.931 . S
N70 Co66 2.148 . S
N70 C67 1.301 . S
N70 C68 1.317 . S
N71 C67 1.328 . S
N71 C69 1.350 . S
H72 C67 0.930 . S
H73 C68 0.930 . S
C74 O75 1.224 . S
C74 O93 1.247 . S
O75 C74 1.224 . S
N76 Co66 2.128 . S
N76 C77 1.355 . S
N76 C79 1.311 . S
C77 N76 1.355 . S
C77 C78 1.363 . S
C77 H89 0.929 . S
C78 C77 1.363 . S
C78 N80 1.375 . S
C78 H96 0.931 . S
C79 N76 1.311 . S
C79 N80 1.347 . S
C79 H90 0.929 . S
N80 C78 1.375 . S
N80 C79 1.347 . S
C81 C84 1.365 . S
C81 N86 1.328 . S
C81 H87 0.929 . S
C82 C83 1.362 . S
C82 C85 1.378 . S
C82 H97 0.929 . S
C83 C82 1.362 . S
C83 C84 1.366 . S
C84 C81 1.365 . S
C84 C83 1.366 . S
C84 H98 0.930 . S
C85 C82 1.378 . S
C85 N86 1.315 . S
C85 H88 0.930 . S
N86 Co66 2.194 . S
N86 C81 1.328 . S
N86 C85 1.315 . S
H87 C81 0.929 . S
H88 C85 0.930 . S
H89 C77 0.929 . S
H90 C79 0.929 . S
O91 Co66 2.351 . S
O91 C94 1.244 . S
O92 Co66 2.155 . S
O92 C94 1.240 . S
O93 Co66 2.096 . S
O93 C74 1.247 . S
C94 O91 1.244 . S
C94 O92 1.240 . S
H95 C69 0.931 . S
H96 C78 0.931 . S
H97 C82 0.929 . S
H98 C84 0.930 . S
Co99 N103 2.148 . S
Co99 N109 2.128 . S
Co99 N119 2.194 . S
Co99 O124 2.351 . S
Co99 O125 2.155 . S
Co99 O126 2.096 . S
C100 N103 1.301 . S
C100 N104 1.344 . S
C100 H105 0.930 . S
C101 C102 1.333 . S
C101 N103 1.317 . S
C101 H106 0.930 . S
C102 C101 1.333 . S
C102 N104 1.358 . S
C102 H128 0.931 . S
N103 Co99 2.148 . S
N103 C100 1.301 . S
N103 C101 1.317 . S
N104 C100 1.344 . S
N104 C102 1.358 . S
H105 C100 0.930 . S
H106 C101 0.930 . S
C107 O108 1.224 . S
C107 O126 1.247 . S
O108 C107 1.224 . S
N109 Co99 2.128 . S
N109 C110 1.355 . S
N109 C112 1.311 . S
C110 N109 1.355 . S
C110 C111 1.363 . S
C110 H122 0.929 . S
C111 C110 1.363 . S
C111 N113 1.375 . S
C111 H129 0.931 . S
C112 N109 1.311 . S
C112 N113 1.347 . S
C112 H123 0.929 . S
N113 C111 1.375 . S
N113 C112 1.347 . S
C114 C117 1.365 . S
C114 N119 1.328 . S
C114 H120 0.929 . S
C115 C116 1.362 . S
C115 C118 1.378 . S
C115 H130 0.929 . S
C116 C115 1.362 . S
C116 C117 1.366 . S
C117 C114 1.365 . S
C117 C116 1.366 . S
C117 H131 0.930 . S
C118 C115 1.378 . S
C118 N119 1.315 . S
C118 H121 0.930 . S
N119 Co99 2.194 . S
N119 C114 1.328 . S
N119 C118 1.315 . S
H120 C114 0.929 . S
H121 C118 0.930 . S
H122 C110 0.929 . S
H123 C112 0.929 . S
O124 Co99 2.351 . S
O124 C127 1.244 . S
O125 Co99 2.155 . S
O125 C127 1.240 . S
O126 Co99 2.096 . S
O126 C107 1.247 . S
C127 O124 1.244 . S
C127 O125 1.240 . S
H128 C102 0.931 . S
H129 C111 0.931 . S
H130 C115 0.929 . S
H131 C117 0.930 . S
Co132 N136 2.148 . S
Co132 N142 2.128 . S
Co132 N152 2.194 . S
Co132 O157 2.351 . S
Co132 O158 2.155 . S
Co132 O159 2.096 . S
C133 N136 1.301 . S
C133 N137 1.328 . S
C133 H138 0.930 . S
C134 C135 1.333 . S
C134 N136 1.317 . S
C134 H139 0.930 . S
C135 C134 1.333 . S
C135 N137 1.350 . S
C135 H161 0.931 . S
N136 Co132 2.148 . S
N136 C133 1.301 . S
N136 C134 1.317 . S
N137 C133 1.328 . S
N137 C135 1.350 . S
H138 C133 0.930 . S
H139 C134 0.930 . S
C140 O141 1.224 . S
C140 O159 1.247 . S
O141 C140 1.224 . S
N142 Co132 2.128 . S
N142 C143 1.355 . S
N142 C145 1.311 . S
C143 N142 1.355 . S
C143 C144 1.363 . S
C143 H155 0.929 . S
C144 C143 1.363 . S
C144 N146 1.375 . S
C144 H162 0.931 . S
C145 N142 1.311 . S
C145 N146 1.347 . S
C145 H156 0.929 . S
N146 C144 1.375 . S
N146 C145 1.347 . S
C147 C150 1.365 . S
C147 N152 1.328 . S
C147 H153 0.929 . S
C148 C149 1.362 . S
C148 C151 1.378 . S
C148 H163 0.929 . S
C149 C148 1.362 . S
C149 C150 1.366 . S
C150 C147 1.365 . S
C150 C149 1.366 . S
C150 H164 0.930 . S
C151 C148 1.378 . S
C151 N152 1.315 . S
C151 H154 0.930 . S
N152 Co132 2.194 . S
N152 C147 1.328 . S
N152 C151 1.315 . S
H153 C147 0.929 . S
H154 C151 0.930 . S
H155 C143 0.929 . S
H156 C145 0.929 . S
O157 Co132 2.351 . S
O157 C160 1.244 . S
O158 Co132 2.155 . S
O158 C160 1.240 . S
O159 Co132 2.096 . S
O159 C140 1.247 . S
C160 O157 1.244 . S
C160 O158 1.240 . S
H161 C135 0.931 . S
H162 C144 0.931 . S
H163 C148 0.929 . S
H164 C150 0.930 . S
Co165 N169 2.148 . S
Co165 N175 2.128 . S
Co165 N185 2.194 . S
Co165 O190 2.351 . S
Co165 O191 2.155 . S
Co165 O192 2.096 . S
C166 N169 1.301 . S
C166 N170 1.344 . S
C166 H171 0.930 . S
C167 C168 1.333 . S
C167 N169 1.317 . S
C167 H172 0.930 . S
C168 C167 1.333 . S
C168 N170 1.358 . S
C168 H194 0.931 . S
N169 Co165 2.148 . S
N169 C166 1.301 . S
N169 C167 1.317 . S
N170 C166 1.344 . S
N170 C168 1.358 . S
H171 C166 0.930 . S
H172 C167 0.930 . S
C173 O174 1.224 . S
C173 O192 1.247 . S
O174 C173 1.224 . S
N175 Co165 2.128 . S
N175 C176 1.355 . S
N175 C178 1.311 . S
C176 N175 1.355 . S
C176 C177 1.363 . S
C176 H188 0.929 . S
C177 C176 1.363 . S
C177 N179 1.375 . S
C177 H195 0.931 . S
C178 N175 1.311 . S
C178 N179 1.347 . S
C178 H189 0.929 . S
N179 C177 1.375 . S
N179 C178 1.347 . S
C180 C183 1.365 . S
C180 N185 1.328 . S
C180 H186 0.929 . S
C181 C182 1.362 . S
C181 C184 1.378 . S
C181 H196 0.929 . S
C182 C181 1.362 . S
C182 C183 1.366 . S
C183 C180 1.365 . S
C183 C182 1.366 . S
C183 H197 0.930 . S
C184 C181 1.378 . S
C184 N185 1.315 . S
C184 H187 0.930 . S
N185 Co165 2.194 . S
N185 C180 1.328 . S
N185 C184 1.315 . S
H186 C180 0.929 . S
H187 C184 0.930 . S
H188 C176 0.929 . S
H189 C178 0.929 . S
O190 Co165 2.351 . S
O190 C193 1.244 . S
O191 Co165 2.155 . S
O191 C193 1.240 . S
O192 Co165 2.096 . S
O192 C173 1.247 . S
C193 O190 1.244 . S
C193 O191 1.240 . S
H194 C168 0.931 . S
H195 C177 0.931 . S
H196 C181 0.929 . S
H197 C183 0.930 . S
Co198 N202 2.148 . S
Co198 N208 2.128 . S
Co198 N218 2.194 . S
Co198 O223 2.351 . S
Co198 O224 2.155 . S
Co198 O225 2.096 . S
C199 N202 1.301 . S
C199 N203 1.328 . S
C199 H204 0.930 . S
C200 C201 1.333 . S
C200 N202 1.317 . S
C200 H205 0.930 . S
C201 C200 1.333 . S
C201 N203 1.350 . S
C201 H227 0.931 . S
N202 Co198 2.148 . S
N202 C199 1.301 . S
N202 C200 1.317 . S
N203 C199 1.328 . S
N203 C201 1.350 . S
H204 C199 0.930 . S
H205 C200 0.930 . S
C206 O207 1.224 . S
C206 O225 1.247 . S
O207 C206 1.224 . S
N208 Co198 2.128 . S
N208 C209 1.355 . S
N208 C211 1.311 . S
C209 N208 1.355 . S
C209 C210 1.363 . S
C209 H221 0.929 . S
C210 C209 1.363 . S
C210 N212 1.375 . S
C210 H228 0.931 . S
C211 N208 1.311 . S
C211 N212 1.347 . S
C211 H222 0.929 . S
N212 C210 1.375 . S
N212 C211 1.347 . S
C213 C216 1.365 . S
C213 N218 1.328 . S
C213 H219 0.929 . S
C214 C215 1.362 . S
C214 C217 1.378 . S
C214 H229 0.929 . S
C215 C214 1.362 . S
C215 C216 1.366 . S
C216 C213 1.365 . S
C216 C215 1.366 . S
C216 H230 0.930 . S
C217 C214 1.378 . S
C217 N218 1.315 . S
C217 H220 0.930 . S
N218 Co198 2.194 . S
N218 C213 1.328 . S
N218 C217 1.315 . S
H219 C213 0.929 . S
H220 C217 0.930 . S
H221 C209 0.929 . S
H222 C211 0.929 . S
O223 Co198 2.351 . S
O223 C226 1.244 . S
O224 Co198 2.155 . S
O224 C226 1.240 . S
O225 Co198 2.096 . S
O225 C206 1.247 . S
C226 O223 1.244 . S
C226 O224 1.240 . S
H227 C201 0.931 . S
H228 C210 0.931 . S
H229 C214 0.929 . S
H230 C216 0.930 . S
Co231 N235 2.148 . S
Co231 N241 2.128 . S
Co231 N251 2.194 . S
Co231 O256 2.351 . S
Co231 O257 2.155 . S
Co231 O258 2.096 . S
C232 N235 1.301 . S
C232 N236 1.344 . S
C232 H237 0.930 . S
C233 C234 1.333 . S
C233 N235 1.317 . S
C233 H238 0.930 . S
C234 C233 1.333 . S
C234 N236 1.358 . S
C234 H260 0.931 . S
N235 Co231 2.148 . S
N235 C232 1.301 . S
N235 C233 1.317 . S
N236 C232 1.344 . S
N236 C234 1.358 . S
H237 C232 0.930 . S
H238 C233 0.930 . S
C239 O240 1.224 . S
C239 O258 1.247 . S
O240 C239 1.224 . S
N241 Co231 2.128 . S
N241 C242 1.355 . S
N241 C244 1.311 . S
C242 N241 1.355 . S
C242 C243 1.363 . S
C242 H254 0.929 . S
C243 C242 1.363 . S
C243 N245 1.375 . S
C243 H261 0.931 . S
C244 N241 1.311 . S
C244 N245 1.347 . S
C244 H255 0.929 . S
N245 C243 1.375 . S
N245 C244 1.347 . S
C246 C249 1.365 . S
C246 N251 1.328 . S
C246 H252 0.929 . S
C247 C248 1.362 . S
C247 C250 1.378 . S
C247 H262 0.929 . S
C248 C247 1.362 . S
C248 C249 1.366 . S
C249 C246 1.365 . S
C249 C248 1.366 . S
C249 H263 0.930 . S
C250 C247 1.378 . S
C250 N251 1.315 . S
C250 H253 0.930 . S
N251 Co231 2.194 . S
N251 C246 1.328 . S
N251 C250 1.315 . S
H252 C246 0.929 . S
H253 C250 0.930 . S
H254 C242 0.929 . S
H255 C244 0.929 . S
O256 Co231 2.351 . S
O256 C259 1.244 . S
O257 Co231 2.155 . S
O257 C259 1.240 . S
O258 Co231 2.096 . S
O258 C239 1.247 . S
C259 O256 1.244 . S
C259 O257 1.240 . S
H260 C234 0.931 . S
H261 C243 0.931 . S
H262 C247 0.929 . S
H263 C249 0.930 . S
Co264 N268 2.148 . S
Co264 N274 2.128 . S
Co264 N284 2.194 . S
Co264 O289 2.351 . S
Co264 O290 2.155 . S
Co264 O291 2.096 . S
C265 N268 1.301 . S
C265 N269 1.328 . S
C265 H270 0.930 . S
C266 C267 1.333 . S
C266 N268 1.317 . S
C266 H271 0.930 . S
C267 C266 1.333 . S
C267 N269 1.350 . S
C267 H293 0.931 . S
N268 Co264 2.148 . S
N268 C265 1.301 . S
N268 C266 1.317 . S
N269 C265 1.328 . S
N269 C267 1.350 . S
H270 C265 0.930 . S
H271 C266 0.930 . S
C272 O273 1.224 . S
C272 O291 1.247 . S
O273 C272 1.224 . S
N274 Co264 2.128 . S
N274 C275 1.355 . S
N274 C277 1.311 . S
C275 N274 1.355 . S
C275 C276 1.363 . S
C275 H287 0.929 . S
C276 C275 1.363 . S
C276 N278 1.375 . S
C276 H294 0.931 . S
C277 N274 1.311 . S
C277 N278 1.347 . S
C277 H288 0.929 . S
N278 C276 1.375 . S
N278 C277 1.347 . S
C279 C282 1.365 . S
C279 N284 1.328 . S
C279 H285 0.929 . S
C280 C281 1.362 . S
C280 C283 1.378 . S
C280 H295 0.929 . S
C281 C280 1.362 . S
C281 C282 1.366 . S
C282 C279 1.365 . S
C282 C281 1.366 . S
C282 H296 0.930 . S
C283 C280 1.378 . S
C283 N284 1.315 . S
C283 H286 0.930 . S
N284 Co264 2.194 . S
N284 C279 1.328 . S
N284 C283 1.315 . S
H285 C279 0.929 . S
H286 C283 0.930 . S
H287 C275 0.929 . S
H288 C277 0.929 . S
O289 Co264 2.351 . S
O289 C292 1.244 . S
O290 Co264 2.155 . S
O290 C292 1.240 . S
O291 Co264 2.096 . S
O291 C272 1.247 . S
C292 O289 1.244 . S
C292 O290 1.240 . S
H293 C267 0.931 . S
H294 C276 0.931 . S
H295 C280 0.929 . S
H296 C282 0.930 . S
Co297 N301 2.148 . S
Co297 N307 2.128 . S
Co297 N317 2.194 . S
Co297 O322 2.351 . S
Co297 O323 2.155 . S
Co297 O324 2.096 . S
C298 N301 1.301 . S
C298 N302 1.328 . S
C298 H303 0.930 . S
C299 C300 1.333 . S
C299 N301 1.317 . S
C299 H304 0.930 . S
C300 C299 1.333 . S
C300 N302 1.350 . S
C300 H326 0.931 . S
N301 Co297 2.148 . S
N301 C298 1.301 . S
N301 C299 1.317 . S
N302 C298 1.328 . S
N302 C300 1.350 . S
H303 C298 0.930 . S
H304 C299 0.930 . S
C305 O306 1.224 . S
C305 O324 1.247 . S
O306 C305 1.224 . S
N307 Co297 2.128 . S
N307 C308 1.355 . S
N307 C310 1.311 . S
C308 N307 1.355 . S
C308 C309 1.363 . S
C308 H320 0.929 . S
C309 C308 1.363 . S
C309 N311 1.375 . S
C309 H327 0.931 . S
C310 N307 1.311 . S
C310 N311 1.347 . S
C310 H321 0.929 . S
N311 C309 1.375 . S
N311 C310 1.347 . S
C312 C315 1.365 . S
C312 N317 1.328 . S
C312 H318 0.929 . S
C313 C314 1.362 . S
C313 C316 1.378 . S
C313 H328 0.929 . S
C314 C313 1.362 . S
C314 C315 1.366 . S
C315 C312 1.365 . S
C315 C314 1.366 . S
C315 H329 0.930 . S
C316 C313 1.378 . S
C316 N317 1.315 . S
C316 H319 0.930 . S
N317 Co297 2.194 . S
N317 C312 1.328 . S
N317 C316 1.315 . S
H318 C312 0.929 . S
H319 C316 0.930 . S
H320 C308 0.929 . S
H321 C310 0.929 . S
O322 Co297 2.351 . S
O322 C325 1.244 . S
O323 Co297 2.155 . S
O323 C325 1.240 . S
O324 Co297 2.096 . S
O324 C305 1.247 . S
C325 O322 1.244 . S
C325 O323 1.240 . S
H326 C300 0.931 . S
H327 C309 0.931 . S
H328 C313 0.929 . S
H329 C315 0.930 . S
Co330 N334 2.148 . S
Co330 N340 2.128 . S
Co330 N350 2.194 . S
Co330 O355 2.351 . S
Co330 O356 2.155 . S
Co330 O357 2.096 . S
C331 N334 1.301 . S
C331 N335 1.328 . S
C331 H336 0.930 . S
C332 C333 1.333 . S
C332 N334 1.317 . S
C332 H337 0.930 . S
C333 C332 1.333 . S
C333 N335 1.350 . S
C333 H359 0.931 . S
N334 Co330 2.148 . S
N334 C331 1.301 . S
N334 C332 1.317 . S
N335 C331 1.328 . S
N335 C333 1.350 . S
H336 C331 0.930 . S
H337 C332 0.930 . S
C338 O339 1.224 . S
C338 O357 1.247 . S
O339 C338 1.224 . S
N340 Co330 2.128 . S
N340 C341 1.355 . S
N340 C343 1.311 . S
C341 N340 1.355 . S
C341 C342 1.363 . S
C341 H353 0.929 . S
C342 C341 1.363 . S
C342 N344 1.375 . S
C342 H360 0.931 . S
C343 N340 1.311 . S
C343 N344 1.347 . S
C343 H354 0.929 . S
N344 C342 1.375 . S
N344 C343 1.347 . S
C345 C348 1.365 . S
C345 N350 1.328 . S
C345 H351 0.929 . S
C346 C347 1.362 . S
C346 C349 1.378 . S
C346 H361 0.929 . S
C347 C346 1.362 . S
C347 C348 1.366 . S
C348 C345 1.365 . S
C348 C347 1.366 . S
C348 H362 0.930 . S
C349 C346 1.378 . S
C349 N350 1.315 . S
C349 H352 0.930 . S
N350 Co330 2.194 . S
N350 C345 1.328 . S
N350 C349 1.315 . S
H351 C345 0.929 . S
H352 C349 0.930 . S
H353 C341 0.929 . S
H354 C343 0.929 . S
O355 Co330 2.351 . S
O355 C358 1.244 . S
O356 Co330 2.155 . S
O356 C358 1.240 . S
O357 Co330 2.096 . S
O357 C338 1.247 . S
C358 O355 1.244 . S
C358 O356 1.240 . S
H359 C333 0.931 . S
H360 C342 0.931 . S
H361 C346 0.929 . S
H362 C348 0.930 . S
Co363 N367 2.148 . S
Co363 N373 2.128 . S
Co363 N383 2.194 . S
Co363 O388 2.351 . S
Co363 O389 2.155 . S
Co363 O390 2.096 . S
C364 N367 1.301 . S
C364 N368 1.328 . S
C364 H369 0.930 . S
C365 C366 1.333 . S
C365 N367 1.317 . S
C365 H370 0.930 . S
C366 C365 1.333 . S
C366 N368 1.350 . S
C366 H392 0.931 . S
N367 Co363 2.148 . S
N367 C364 1.301 . S
N367 C365 1.317 . S
N368 C364 1.328 . S
N368 C366 1.350 . S
H369 C364 0.930 . S
H370 C365 0.930 . S
C371 O372 1.224 . S
C371 O390 1.247 . S
O372 C371 1.224 . S
N373 Co363 2.128 . S
N373 C374 1.355 . S
N373 C376 1.311 . S
C374 N373 1.355 . S
C374 C375 1.363 . S
C374 H386 0.929 . S
C375 C374 1.363 . S
C375 N377 1.375 . S
C375 H393 0.931 . S
C376 N373 1.311 . S
C376 N377 1.347 . S
C376 H387 0.929 . S
N377 C375 1.375 . S
N377 C376 1.347 . S
C378 C381 1.365 . S
C378 N383 1.328 . S
C378 H384 0.929 . S
C379 C380 1.362 . S
C379 C382 1.378 . S
C379 H394 0.929 . S
C380 C379 1.362 . S
C380 C381 1.366 . S
C381 C378 1.365 . S
C381 C380 1.366 . S
C381 H395 0.930 . S
C382 C379 1.378 . S
C382 N383 1.315 . S
C382 H385 0.930 . S
N383 Co363 2.194 . S
N383 C378 1.328 . S
N383 C382 1.315 . S
H384 C378 0.929 . S
H385 C382 0.930 . S
H386 C374 0.929 . S
H387 C376 0.929 . S
O388 Co363 2.351 . S
O388 C391 1.244 . S
O389 Co363 2.155 . S
O389 C391 1.240 . S
O390 Co363 2.096 . S
O390 C371 1.247 . S
C391 O388 1.244 . S
C391 O389 1.240 . S
H392 C366 0.931 . S
H393 C375 0.931 . S
H394 C379 0.929 . S
H395 C381 0.930 . S
Co396 N400 2.148 . S
Co396 N406 2.128 . S
Co396 N416 2.194 . S
Co396 O421 2.351 . S
Co396 O422 2.155 . S
Co396 O423 2.096 . S
C397 N400 1.301 . S
C397 N401 1.328 . S
C397 H402 0.930 . S
C398 C399 1.333 . S
C398 N400 1.317 . S
C398 H403 0.930 . S
C399 C398 1.333 . S
C399 N401 1.350 . S
C399 H425 0.931 . S
N400 Co396 2.148 . S
N400 C397 1.301 . S
N400 C398 1.317 . S
N401 C397 1.328 . S
N401 C399 1.350 . S
H402 C397 0.930 . S
H403 C398 0.930 . S
C404 O405 1.224 . S
C404 O423 1.247 . S
O405 C404 1.224 . S
N406 Co396 2.128 . S
N406 C407 1.355 . S
N406 C409 1.311 . S
C407 N406 1.355 . S
C407 C408 1.363 . S
C407 H419 0.929 . S
C408 C407 1.363 . S
C408 N410 1.375 . S
C408 H426 0.931 . S
C409 N406 1.311 . S
C409 N410 1.347 . S
C409 H420 0.929 . S
N410 C408 1.375 . S
N410 C409 1.347 . S
C411 C414 1.365 . S
C411 N416 1.328 . S
C411 H417 0.929 . S
C412 C413 1.362 . S
C412 C415 1.378 . S
C412 H427 0.929 . S
C413 C412 1.362 . S
C413 C414 1.366 . S
C414 C411 1.365 . S
C414 C413 1.366 . S
C414 H428 0.930 . S
C415 C412 1.378 . S
C415 N416 1.315 . S
C415 H418 0.930 . S
N416 Co396 2.194 . S
N416 C411 1.328 . S
N416 C415 1.315 . S
H417 C411 0.929 . S
H418 C415 0.930 . S
H419 C407 0.929 . S
H420 C409 0.929 . S
O421 Co396 2.351 . S
O421 C424 1.244 . S
O422 Co396 2.155 . S
O422 C424 1.240 . S
O423 Co396 2.096 . S
O423 C404 1.247 . S
C424 O421 1.244 . S
C424 O422 1.240 . S
H425 C399 0.931 . S
H426 C408 0.931 . S
H427 C412 0.929 . S
H428 C414 0.930 . S
Co429 N433 2.148 . S
Co429 N439 2.128 . S
Co429 N449 2.194 . S
Co429 O454 2.351 . S
Co429 O455 2.155 . S
Co429 O456 2.096 . S
C430 N433 1.301 . S
C430 N434 1.328 . S
C430 H435 0.930 . S
C431 C432 1.333 . S
C431 N433 1.317 . S
C431 H436 0.930 . S
C432 C431 1.333 . S
C432 N434 1.350 . S
C432 H458 0.931 . S
N433 Co429 2.148 . S
N433 C430 1.301 . S
N433 C431 1.317 . S
N434 C430 1.328 . S
N434 C432 1.350 . S
H435 C430 0.930 . S
H436 C431 0.930 . S
C437 O438 1.224 . S
C437 O456 1.247 . S
O438 C437 1.224 . S
N439 Co429 2.128 . S
N439 C440 1.355 . S
N439 C442 1.311 . S
C440 N439 1.355 . S
C440 C441 1.363 . S
C440 H452 0.929 . S
C441 C440 1.363 . S
C441 N443 1.375 . S
C441 H459 0.931 . S
C442 N439 1.311 . S
C442 N443 1.347 . S
C442 H453 0.929 . S
N443 C441 1.375 . S
N443 C442 1.347 . S
C444 C447 1.365 . S
C444 N449 1.328 . S
C444 H450 0.929 . S
C445 C446 1.362 . S
C445 C448 1.378 . S
C445 H460 0.929 . S
C446 C445 1.362 . S
C446 C447 1.366 . S
C447 C444 1.365 . S
C447 C446 1.366 . S
C447 H461 0.930 . S
C448 C445 1.378 . S
C448 N449 1.315 . S
C448 H451 0.930 . S
N449 Co429 2.194 . S
N449 C444 1.328 . S
N449 C448 1.315 . S
H450 C444 0.929 . S
H451 C448 0.930 . S
H452 C440 0.929 . S
H453 C442 0.929 . S
O454 Co429 2.351 . S
O454 C457 1.244 . S
O455 Co429 2.155 . S
O455 C457 1.240 . S
O456 Co429 2.096 . S
O456 C437 1.247 . S
C457 O454 1.244 . S
C457 O455 1.240 . S
H458 C432 0.931 . S
H459 C441 0.931 . S
H460 C445 0.929 . S
H461 C447 0.930 . S
Co462 N466 2.148 . S
Co462 N472 2.128 . S
Co462 N482 2.194 . S
Co462 O487 2.351 . S
Co462 O488 2.155 . S
Co462 O489 2.096 . S
C463 N466 1.301 . S
C463 N467 1.328 . S
C463 H468 0.930 . S
C464 C465 1.333 . S
C464 N466 1.317 . S
C464 H469 0.930 . S
C465 C464 1.333 . S
C465 N467 1.350 . S
C465 H491 0.931 . S
N466 Co462 2.148 . S
N466 C463 1.301 . S
N466 C464 1.317 . S
N467 C463 1.328 . S
N467 C465 1.350 . S
H468 C463 0.930 . S
H469 C464 0.930 . S
C470 O471 1.224 . S
C470 O489 1.247 . S
O471 C470 1.224 . S
N472 Co462 2.128 . S
N472 C473 1.355 . S
N472 C475 1.311 . S
C473 N472 1.355 . S
C473 C474 1.363 . S
C473 H485 0.929 . S
C474 C473 1.363 . S
C474 N476 1.375 . S
C474 H492 0.931 . S
C475 N472 1.311 . S
C475 N476 1.347 . S
C475 H486 0.929 . S
N476 C474 1.375 . S
N476 C475 1.347 . S
C477 C480 1.365 . S
C477 N482 1.328 . S
C477 H483 0.929 . S
C478 C479 1.362 . S
C478 C481 1.378 . S
C478 H493 0.929 . S
C479 C478 1.362 . S
C479 C480 1.366 . S
C480 C477 1.365 . S
C480 C479 1.366 . S
C480 H494 0.930 . S
C481 C478 1.378 . S
C481 N482 1.315 . S
C481 H484 0.930 . S
N482 Co462 2.194 . S
N482 C477 1.328 . S
N482 C481 1.315 . S
H483 C477 0.929 . S
H484 C481 0.930 . S
H485 C473 0.929 . S
H486 C475 0.929 . S
O487 Co462 2.351 . S
O487 C490 1.244 . S
O488 Co462 2.155 . S
O488 C490 1.240 . S
O489 Co462 2.096 . S
O489 C470 1.247 . S
C490 O487 1.244 . S
C490 O488 1.240 . S
H491 C465 0.931 . S
H492 C474 0.931 . S
H493 C478 0.929 . S
H494 C480 0.930 . S
Co495 N499 2.148 . S
Co495 N505 2.128 . S
Co495 N515 2.194 . S
Co495 O520 2.351 . S
Co495 O521 2.155 . S
Co495 O522 2.096 . S
C496 N499 1.301 . S
C496 N500 1.328 . S
C496 H501 0.930 . S
C497 C498 1.333 . S
C497 N499 1.317 . S
C497 H502 0.930 . S
C498 C497 1.333 . S
C498 N500 1.350 . S
C498 H524 0.931 . S
N499 Co495 2.148 . S
N499 C496 1.301 . S
N499 C497 1.317 . S
N500 C496 1.328 . S
N500 C498 1.350 . S
H501 C496 0.930 . S
H502 C497 0.930 . S
C503 O504 1.224 . S
C503 O522 1.247 . S
O504 C503 1.224 . S
N505 Co495 2.128 . S
N505 C506 1.355 . S
N505 C508 1.311 . S
C506 N505 1.355 . S
C506 C507 1.363 . S
C506 H518 0.929 . S
C507 C506 1.363 . S
C507 N509 1.375 . S
C507 H525 0.931 . S
C508 N505 1.311 . S
C508 N509 1.347 . S
C508 H519 0.929 . S
N509 C507 1.375 . S
N509 C508 1.347 . S
C510 C513 1.365 . S
C510 N515 1.328 . S
C510 H516 0.929 . S
C511 C512 1.362 . S
C511 C514 1.378 . S
C511 H526 0.929 . S
C512 C511 1.362 . S
C512 C513 1.366 . S
C513 C510 1.365 . S
C513 C512 1.366 . S
C513 H527 0.930 . S
C514 C511 1.378 . S
C514 N515 1.315 . S
C514 H517 0.930 . S
N515 Co495 2.194 . S
N515 C510 1.328 . S
N515 C514 1.315 . S
H516 C510 0.929 . S
H517 C514 0.930 . S
H518 C506 0.929 . S
H519 C508 0.929 . S
O520 Co495 2.351 . S
O520 C523 1.244 . S
O521 Co495 2.155 . S
O521 C523 1.240 . S
O522 Co495 2.096 . S
O522 C503 1.247 . S
C523 O520 1.244 . S
C523 O521 1.240 . S
H524 C498 0.931 . S
H525 C507 0.931 . S
H526 C511 0.929 . S
H527 C513 0.930 . S
H528 C536 0.950 . S
H529 C541 0.950 . S
H530 C538 0.950 . S
H531 C540 0.950 . S
H532 C542 0.950 . S
H533 C544 0.950 . S
H534 C546 0.950 . S
H535 C547 0.950 . S
C536 H528 0.950 . S
C536 C537 1.386 . S
C536 C538 1.391 . S
C537 C536 1.386 . S
C537 C541 1.393 . S
C538 H530 0.950 . S
C538 C536 1.391 . S
C538 C539 1.400 . S
C539 C538 1.400 . S
C539 C540 1.398 . S
C539 C545 1.491 . S
C540 H531 0.950 . S
C540 C539 1.398 . S
C540 C541 1.391 . S
C541 H529 0.950 . S
C541 C537 1.393 . S
C541 C540 1.391 . S
C542 H532 0.950 . S
C542 C543 1.386 . S
C542 C544 1.391 . S
C543 C542 1.386 . S
C543 C547 1.393 . S
C544 H533 0.950 . S
C544 C542 1.391 . S
C544 C545 1.400 . S
C545 C539 1.491 . S
C545 C544 1.400 . S
C545 C546 1.398 . S
C546 H534 0.950 . S
C546 C545 1.398 . S
C546 C547 1.391 . S
C547 H535 0.950 . S
C547 C543 1.393 . S
C547 C546 1.391 . S
H548 C556 0.950 . S
H549 C561 0.950 . S
H550 C558 0.950 . S
H551 C560 0.950 . S
H552 C562 0.950 . S
H553 C564 0.950 . S
H554 C566 0.950 . S
H555 C567 0.950 . S
C556 H548 0.950 . S
C556 C557 1.386 . S
C556 C558 1.391 . S
C557 C556 1.386 . S
C557 C561 1.393 . S
C558 H550 0.950 . S
C558 C556 1.391 . S
C558 C559 1.400 . S
C559 C558 1.400 . S
C559 C560 1.398 . S
C559 C565 1.491 . S
C560 H551 0.950 . S
C560 C559 1.398 . S
C560 C561 1.391 . S
C561 H549 0.950 . S
C561 C557 1.393 . S
C561 C560 1.391 . S
C562 H552 0.950 . S
C562 C563 1.386 . S
C562 C564 1.391 . S
C563 C562 1.386 . S
C563 C567 1.393 . S
C564 H553 0.950 . S
C564 C562 1.391 . S
C564 C565 1.400 . S
C565 C559 1.491 . S
C565 C564 1.400 . S
C565 C566 1.398 . S
C566 H554 0.950 . S
C566 C565 1.398 . S
C566 C567 1.391 . S
C567 H555 0.950 . S
C567 C563 1.393 . S
C567 C566 1.391 . S
H568 C576 0.950 . S
H569 C581 0.950 . S
H570 C578 0.950 . S
H571 C580 0.950 . S
H572 C582 0.950 . S
H573 C584 0.950 . S
H574 C586 0.950 . S
H575 C587 0.950 . S
C576 H568 0.950 . S
C576 C577 1.386 . S
C576 C578 1.391 . S
C577 C576 1.386 . S
C577 C581 1.393 . S
C578 H570 0.950 . S
C578 C576 1.391 . S
C578 C579 1.400 . S
C579 C578 1.400 . S
C579 C580 1.398 . S
C579 C585 1.491 . S
C580 H571 0.950 . S
C580 C579 1.398 . S
C580 C581 1.391 . S
C581 H569 0.950 . S
C581 C577 1.393 . S
C581 C580 1.391 . S
C582 H572 0.950 . S
C582 C583 1.386 . S
C582 C584 1.391 . S
C583 C582 1.386 . S
C583 C587 1.393 . S
C584 H573 0.950 . S
C584 C582 1.391 . S
C584 C585 1.400 . S
C585 C579 1.491 . S
C585 C584 1.400 . S
C585 C586 1.398 . S
C586 H574 0.950 . S
C586 C585 1.398 . S
C586 C587 1.391 . S
C587 H575 0.950 . S
C587 C583 1.393 . S
C587 C586 1.391 . S
H588 C596 0.950 . S
H589 C601 0.950 . S
H590 C598 0.950 . S
H591 C600 0.950 . S
H592 C602 0.950 . S
H593 C604 0.950 . S
H594 C606 0.950 . S
H595 C607 0.950 . S
C596 H588 0.950 . S
C596 C597 1.386 . S
C596 C598 1.391 . S
C597 C596 1.386 . S
C597 C601 1.393 . S
C598 H590 0.950 . S
C598 C596 1.391 . S
C598 C599 1.400 . S
C599 C598 1.400 . S
C599 C600 1.398 . S
C599 C605 1.491 . S
C600 H591 0.950 . S
C600 C599 1.398 . S
C600 C601 1.391 . S
C601 H589 0.950 . S
C601 C597 1.393 . S
C601 C600 1.391 . S
C602 H592 0.950 . S
C602 C603 1.386 . S
C602 C604 1.391 . S
C603 C602 1.386 . S
C603 C607 1.393 . S
C604 H593 0.950 . S
C604 C602 1.391 . S
C604 C605 1.400 . S
C605 C599 1.491 . S
C605 C604 1.400 . S
C605 C606 1.398 . S
C606 H594 0.950 . S
C606 C605 1.398 . S
C606 C607 1.391 . S
C607 H595 0.950 . S
C607 C603 1.393 . S
C607 C606 1.391 . S
H608 C616 0.950 . S
H609 C621 0.950 . S
H610 C618 0.950 . S
H611 C620 0.950 . S
H612 C622 0.950 . S
H613 C624 0.950 . S
H614 C626 0.950 . S
H615 C627 0.950 . S
C616 H608 0.950 . S
C616 C617 1.386 . S
C616 C618 1.391 . S
C617 C616 1.386 . S
C617 C621 1.393 . S
C618 H610 0.950 . S
C618 C616 1.391 . S
C618 C619 1.400 . S
C619 C618 1.400 . S
C619 C620 1.398 . S
C619 C625 1.491 . S
C620 H611 0.950 . S
C620 C619 1.398 . S
C620 C621 1.391 . S
C621 H609 0.950 . S
C621 C617 1.393 . S
C621 C620 1.391 . S
C622 H612 0.950 . S
C622 C623 1.386 . S
C622 C624 1.391 . S
C623 C622 1.386 . S
C623 C627 1.393 . S
C624 H613 0.950 . S
C624 C622 1.391 . S
C624 C625 1.400 . S
C625 C619 1.491 . S
C625 C624 1.400 . S
C625 C626 1.398 . S
C626 H614 0.950 . S
C626 C625 1.398 . S
C626 C627 1.391 . S
C627 H615 0.950 . S
C627 C623 1.393 . S
C627 C626 1.391 . S
H628 C636 0.950 . S
H629 C641 0.950 . S
H630 C638 0.950 . S
H631 C640 0.950 . S
H632 C642 0.950 . S
H633 C644 0.950 . S
H634 C646 0.950 . S
H635 C647 0.950 . S
C636 H628 0.950 . S
C636 C637 1.386 . S
C636 C638 1.391 . S
C637 C636 1.386 . S
C637 C641 1.393 . S
C638 H630 0.950 . S
C638 C636 1.391 . S
C638 C639 1.400 . S
C639 C638 1.400 . S
C639 C640 1.398 . S
C639 C645 1.491 . S
C640 H631 0.950 . S
C640 C639 1.398 . S
C640 C641 1.391 . S
C641 H629 0.950 . S
C641 C637 1.393 . S
C641 C640 1.391 . S
C642 H632 0.950 . S
C642 C643 1.386 . S
C642 C644 1.391 . S
C643 C642 1.386 . S
C643 C647 1.393 . S
C644 H633 0.950 . S
C644 C642 1.391 . S
C644 C645 1.400 . S
C645 C639 1.491 . S
C645 C644 1.400 . S
C645 C646 1.398 . S
C646 H634 0.950 . S
C646 C645 1.398 . S
C646 C647 1.391 . S
C647 H635 0.950 . S
C647 C643 1.393 . S
C647 C646 1.391 . S
H648 C656 0.950 . S
H649 C661 0.950 . S
H650 C658 0.950 . S
H651 C660 0.950 . S
H652 C662 0.950 . S
H653 C664 0.950 . S
H654 C666 0.950 . S
H655 C667 0.950 . S
C656 H648 0.950 . S
C656 C657 1.386 . S
C656 C658 1.391 . S
C657 C656 1.386 . S
C657 C661 1.393 . S
C658 H650 0.950 . S
C658 C656 1.391 . S
C658 C659 1.400 . S
C659 C658 1.400 . S
C659 C660 1.398 . S
C659 C665 1.491 . S
C660 H651 0.950 . S
C660 C659 1.398 . S
C660 C661 1.391 . S
C661 H649 0.950 . S
C661 C657 1.393 . S
C661 C660 1.391 . S
C662 H652 0.950 . S
C662 C663 1.386 . S
C662 C664 1.391 . S
C663 C662 1.386 . S
C663 C667 1.393 . S
C664 H653 0.950 . S
C664 C662 1.391 . S
C664 C665 1.400 . S
C665 C659 1.491 . S
C665 C664 1.400 . S
C665 C666 1.398 . S
C666 H654 0.950 . S
C666 C665 1.398 . S
C666 C667 1.391 . S
C667 H655 0.950 . S
C667 C663 1.393 . S
C667 C666 1.391 . S
H668 C676 0.950 . S
H669 C681 0.950 . S
H670 C678 0.950 . S
H671 C680 0.950 . S
H672 C682 0.950 . S
H673 C684 0.950 . S
H674 C686 0.950 . S
H675 C687 0.950 . S
C676 H668 0.950 . S
C676 C677 1.386 . S
C676 C678 1.391 . S
C677 C676 1.386 . S
C677 C681 1.393 . S
C678 H670 0.950 . S
C678 C676 1.391 . S
C678 C679 1.400 . S
C679 C678 1.400 . S
C679 C680 1.398 . S
C679 C685 1.491 . S
C680 H671 0.950 . S
C680 C679 1.398 . S
C680 C681 1.391 . S
C681 H669 0.950 . S
C681 C677 1.393 . S
C681 C680 1.391 . S
C682 H672 0.950 . S
C682 C683 1.386 . S
C682 C684 1.391 . S
C683 C682 1.386 . S
C683 C687 1.393 . S
C684 H673 0.950 . S
C684 C682 1.391 . S
C684 C685 1.400 . S
C685 C679 1.491 . S
C685 C684 1.400 . S
C685 C686 1.398 . S
C686 H674 0.950 . S
C686 C685 1.398 . S
C686 C687 1.391 . S
C687 H675 0.950 . S
C687 C683 1.393 . S
C687 C686 1.391 . S
H688 C696 0.950 . S
H689 C701 0.950 . S
H690 C698 0.950 . S
H691 C700 0.950 . S
H692 C702 0.950 . S
H693 C704 0.950 . S
H694 C706 0.950 . S
H695 C707 0.950 . S
C696 H688 0.950 . S
C696 C697 1.386 . S
C696 C698 1.391 . S
C697 C696 1.386 . S
C697 C701 1.393 . S
C698 H690 0.950 . S
C698 C696 1.391 . S
C698 C699 1.400 . S
C699 C698 1.400 . S
C699 C700 1.398 . S
C699 C705 1.491 . S
C700 H691 0.950 . S
C700 C699 1.398 . S
C700 C701 1.391 . S
C701 H689 0.950 . S
C701 C697 1.393 . S
C701 C700 1.391 . S
C702 H692 0.950 . S
C702 C703 1.386 . S
C702 C704 1.391 . S
C703 C702 1.386 . S
C703 C707 1.393 . S
C704 H693 0.950 . S
C704 C702 1.391 . S
C704 C705 1.400 . S
C705 C699 1.491 . S
C705 C704 1.400 . S
C705 C706 1.398 . S
C706 H694 0.950 . S
C706 C705 1.398 . S
C706 C707 1.391 . S
C707 H695 0.950 . S
C707 C703 1.393 . S
C707 C706 1.391 . S
H708 C716 0.950 . S
H709 C721 0.950 . S
H710 C718 0.950 . S
H711 C720 0.950 . S
H712 C722 0.950 . S
H713 C724 0.950 . S
H714 C726 0.950 . S
H715 C727 0.950 . S
C716 H708 0.950 . S
C716 C717 1.386 . S
C716 C718 1.391 . S
C717 C716 1.386 . S
C717 C721 1.393 . S
C718 H710 0.950 . S
C718 C716 1.391 . S
C718 C719 1.400 . S
C719 C718 1.400 . S
C719 C720 1.398 . S
C719 C725 1.491 . S
C720 H711 0.950 . S
C720 C719 1.398 . S
C720 C721 1.391 . S
C721 H709 0.950 . S
C721 C717 1.393 . S
C721 C720 1.391 . S
C722 H712 0.950 . S
C722 C723 1.386 . S
C722 C724 1.391 . S
C723 C722 1.386 . S
C723 C727 1.393 . S
C724 H713 0.950 . S
C724 C722 1.391 . S
C724 C725 1.400 . S
C725 C719 1.491 . S
C725 C724 1.400 . S
C725 C726 1.398 . S
C726 H714 0.950 . S
C726 C725 1.398 . S
C726 C727 1.391 . S
C727 H715 0.950 . S
C727 C723 1.393 . S
C727 C726 1.391 . S
H728 C736 0.950 . S
H729 C741 0.950 . S
H730 C738 0.950 . S
H731 C740 0.950 . S
H732 C742 0.950 . S
H733 C744 0.950 . S
H734 C746 0.950 . S
H735 C747 0.950 . S
C736 H728 0.950 . S
C736 C737 1.386 . S
C736 C738 1.391 . S
C737 C736 1.386 . S
C737 C741 1.393 . S
C738 H730 0.950 . S
C738 C736 1.391 . S
C738 C739 1.400 . S
C739 C738 1.400 . S
C739 C740 1.398 . S
C739 C745 1.491 . S
C740 H731 0.950 . S
C740 C739 1.398 . S
C740 C741 1.391 . S
C741 H729 0.950 . S
C741 C737 1.393 . S
C741 C740 1.391 . S
C742 H732 0.950 . S
C742 C743 1.386 . S
C742 C744 1.391 . S
C743 C742 1.386 . S
C743 C747 1.393 . S
C744 H733 0.950 . S
C744 C742 1.391 . S
C744 C745 1.400 . S
C745 C739 1.491 . S
C745 C744 1.400 . S
C745 C746 1.398 . S
C746 H734 0.950 . S
C746 C745 1.398 . S
C746 C747 1.391 . S
C747 H735 0.950 . S
C747 C743 1.393 . S
C747 C746 1.391 . S
H748 C756 0.950 . S
H749 C761 0.950 . S
H750 C758 0.950 . S
H751 C760 0.950 . S
H752 C762 0.950 . S
H753 C764 0.950 . S
H754 C766 0.950 . S
H755 C767 0.950 . S
C756 H748 0.950 . S
C756 C757 1.386 . S
C756 C758 1.391 . S
C757 C756 1.386 . S
C757 C761 1.393 . S
C758 H750 0.950 . S
C758 C756 1.391 . S
C758 C759 1.400 . S
C759 C758 1.400 . S
C759 C760 1.398 . S
C759 C765 1.491 . S
C760 H751 0.950 . S
C760 C759 1.398 . S
C760 C761 1.391 . S
C761 H749 0.950 . S
C761 C757 1.393 . S
C761 C760 1.391 . S
C762 H752 0.950 . S
C762 C763 1.386 . S
C762 C764 1.391 . S
C763 C762 1.386 . S
C763 C767 1.393 . S
C764 H753 0.950 . S
C764 C762 1.391 . S
C764 C765 1.400 . S
C765 C759 1.491 . S
C765 C764 1.400 . S
C765 C766 1.398 . S
C766 H754 0.950 . S
C766 C765 1.398 . S
C766 C767 1.391 . S
C767 H755 0.950 . S
C767 C763 1.393 . S
C767 C766 1.391 . S
H768 C776 0.950 . S
H769 C781 0.950 . S
H770 C778 0.950 . S
H771 C780 0.950 . S
H772 C782 0.950 . S
H773 C784 0.950 . S
H774 C786 0.950 . S
H775 C787 0.950 . S
C776 H768 0.950 . S
C776 C777 1.386 . S
C776 C778 1.391 . S
C777 C776 1.386 . S
C777 C781 1.393 . S
C778 H770 0.950 . S
C778 C776 1.391 . S
C778 C779 1.400 . S
C779 C778 1.400 . S
C779 C780 1.398 . S
C779 C785 1.491 . S
C780 H771 0.950 . S
C780 C779 1.398 . S
C780 C781 1.391 . S
C781 H769 0.950 . S
C781 C777 1.393 . S
C781 C780 1.391 . S
C782 H772 0.950 . S
C782 C783 1.386 . S
C782 C784 1.391 . S
C783 C782 1.386 . S
C783 C787 1.393 . S
C784 H773 0.950 . S
C784 C782 1.391 . S
C784 C785 1.400 . S
C785 C779 1.491 . S
C785 C784 1.400 . S
C785 C786 1.398 . S
C786 H774 0.950 . S
C786 C785 1.398 . S
C786 C787 1.391 . S
C787 H775 0.950 . S
C787 C783 1.393 . S
C787 C786 1.391 . S
H788 C796 0.950 . S
H789 C801 0.950 . S
H790 C798 0.950 . S
H791 C800 0.950 . S
H792 C802 0.950 . S
H793 C804 0.950 . S
H794 C806 0.950 . S
H795 C807 0.950 . S
C796 H788 0.950 . S
C796 C797 1.386 . S
C796 C798 1.391 . S
C797 C796 1.386 . S
C797 C801 1.393 . S
C798 H790 0.950 . S
C798 C796 1.391 . S
C798 C799 1.400 . S
C799 C798 1.400 . S
C799 C800 1.398 . S
C799 C805 1.491 . S
C800 H791 0.950 . S
C800 C799 1.398 . S
C800 C801 1.391 . S
C801 H789 0.950 . S
C801 C797 1.393 . S
C801 C800 1.391 . S
C802 H792 0.950 . S
C802 C803 1.386 . S
C802 C804 1.391 . S
C803 C802 1.386 . S
C803 C807 1.393 . S
C804 H793 0.950 . S
C804 C802 1.391 . S
C804 C805 1.400 . S
C805 C799 1.491 . S
C805 C804 1.400 . S
C805 C806 1.398 . S
C806 H794 0.950 . S
C806 C805 1.398 . S
C806 C807 1.391 . S
C807 H795 0.950 . S
C807 C803 1.393 . S
C807 C806 1.391 . S
H808 C816 0.950 . S
H809 C821 0.950 . S
H810 C818 0.950 . S
H811 C820 0.950 . S
H812 C822 0.950 . S
H813 C824 0.950 . S
H814 C826 0.950 . S
H815 C827 0.950 . S
C816 H808 0.950 . S
C816 C817 1.386 . S
C816 C818 1.391 . S
C817 C816 1.386 . S
C817 C821 1.393 . S
C818 H810 0.950 . S
C818 C816 1.391 . S
C818 C819 1.400 . S
C819 C818 1.400 . S
C819 C820 1.398 . S
C819 C825 1.491 . S
C820 H811 0.950 . S
C820 C819 1.398 . S
C820 C821 1.391 . S
C821 H809 0.950 . S
C821 C817 1.393 . S
C821 C820 1.391 . S
C822 H812 0.950 . S
C822 C823 1.386 . S
C822 C824 1.391 . S
C823 C822 1.386 . S
C823 C827 1.393 . S
C824 H813 0.950 . S
C824 C822 1.391 . S
C824 C825 1.400 . S
C825 C819 1.491 . S
C825 C824 1.400 . S
C825 C826 1.398 . S
C826 H814 0.950 . S
C826 C825 1.398 . S
C826 C827 1.391 . S
C827 H815 0.950 . S
C827 C823 1.393 . S
C827 C826 1.391 . S
H828 C836 0.950 . S
H829 C841 0.950 . S
H830 C838 0.950 . S
H831 C840 0.950 . S
H832 C842 0.950 . S
H833 C844 0.950 . S
H834 C846 0.950 . S
H835 C847 0.950 . S
C836 H828 0.950 . S
C836 C837 1.386 . S
C836 C838 1.391 . S
C837 C836 1.386 . S
C837 C841 1.393 . S
C838 H830 0.950 . S
C838 C836 1.391 . S
C838 C839 1.400 . S
C839 C838 1.400 . S
C839 C840 1.398 . S
C839 C845 1.491 . S
C840 H831 0.950 . S
C840 C839 1.398 . S
C840 C841 1.391 . S
C841 H829 0.950 . S
C841 C837 1.393 . S
C841 C840 1.391 . S
C842 H832 0.950 . S
C842 C843 1.386 . S
C842 C844 1.391 . S
C843 C842 1.386 . S
C843 C847 1.393 . S
C844 H833 0.950 . S
C844 C842 1.391 . S
C844 C845 1.400 . S
C845 C839 1.491 . S
C845 C844 1.400 . S
C845 C846 1.398 . S
C846 H834 0.950 . S
C846 C845 1.398 . S
C846 C847 1.391 . S
C847 H835 0.950 . S
C847 C843 1.393 . S
C847 C846 1.391 . S
H848 C856 0.950 . S
H849 C861 0.950 . S
H850 C858 0.950 . S
H851 C860 0.950 . S
H852 C862 0.950 . S
H853 C864 0.950 . S
H854 C866 0.950 . S
H855 C867 0.950 . S
C856 H848 0.950 . S
C856 C857 1.386 . S
C856 C858 1.391 . S
C857 C856 1.386 . S
C857 C861 1.393 . S
C858 H850 0.950 . S
C858 C856 1.391 . S
C858 C859 1.400 . S
C859 C858 1.400 . S
C859 C860 1.398 . S
C859 C865 1.491 . S
C860 H851 0.950 . S
C860 C859 1.398 . S
C860 C861 1.391 . S
C861 H849 0.950 . S
C861 C857 1.393 . S
C861 C860 1.391 . S
C862 H852 0.950 . S
C862 C863 1.386 . S
C862 C864 1.391 . S
C863 C862 1.386 . S
C863 C867 1.393 . S
C864 H853 0.950 . S
C864 C862 1.391 . S
C864 C865 1.400 . S
C865 C859 1.491 . S
C865 C864 1.400 . S
C865 C866 1.398 . S
C866 H854 0.950 . S
C866 C865 1.398 . S
C866 C867 1.391 . S
C867 H855 0.950 . S
C867 C863 1.393 . S
C867 C866 1.391 . S
H868 C876 0.950 . S
H869 C881 0.950 . S
H870 C878 0.950 . S
H871 C880 0.950 . S
H872 C882 0.950 . S
H873 C884 0.950 . S
H874 C886 0.950 . S
H875 C887 0.950 . S
C876 H868 0.950 . S
C876 C877 1.386 . S
C876 C878 1.391 . S
C877 C876 1.386 . S
C877 C881 1.393 . S
C878 H870 0.950 . S
C878 C876 1.391 . S
C878 C879 1.400 . S
C879 C878 1.400 . S
C879 C880 1.398 . S
C879 C885 1.491 . S
C880 H871 0.950 . S
C880 C879 1.398 . S
C880 C881 1.391 . S
C881 H869 0.950 . S
C881 C877 1.393 . S
C881 C880 1.391 . S
C882 H872 0.950 . S
C882 C883 1.386 . S
C882 C884 1.391 . S
C883 C882 1.386 . S
C883 C887 1.393 . S
C884 H873 0.950 . S
C884 C882 1.391 . S
C884 C885 1.400 . S
C885 C879 1.491 . S
C885 C884 1.400 . S
C885 C886 1.398 . S
C886 H874 0.950 . S
C886 C885 1.398 . S
C886 C887 1.391 . S
C887 H875 0.950 . S
C887 C883 1.393 . S
C887 C886 1.391 . S
H888 C896 0.950 . S
H889 C901 0.950 . S
H890 C898 0.950 . S
H891 C900 0.950 . S
H892 C902 0.950 . S
H893 C904 0.950 . S
H894 C906 0.950 . S
H895 C907 0.950 . S
C896 H888 0.950 . S
C896 C897 1.386 . S
C896 C898 1.391 . S
C897 C896 1.386 . S
C897 C901 1.393 . S
C898 H890 0.950 . S
C898 C896 1.391 . S
C898 C899 1.400 . S
C899 C898 1.400 . S
C899 C900 1.398 . S
C899 C905 1.491 . S
C900 H891 0.950 . S
C900 C899 1.398 . S
C900 C901 1.391 . S
C901 H889 0.950 . S
C901 C897 1.393 . S
C901 C900 1.391 . S
C902 H892 0.950 . S
C902 C903 1.386 . S
C902 C904 1.391 . S
C903 C902 1.386 . S
C903 C907 1.393 . S
C904 H893 0.950 . S
C904 C902 1.391 . S
C904 C905 1.400 . S
C905 C899 1.491 . S
C905 C904 1.400 . S
C905 C906 1.398 . S
C906 H894 0.950 . S
C906 C905 1.398 . S
C906 C907 1.391 . S
C907 H895 0.950 . S
C907 C903 1.393 . S
C907 C906 1.391 . S
H908 C916 0.950 . S
H909 C921 0.950 . S
H910 C918 0.950 . S
H911 C920 0.950 . S
H912 C922 0.950 . S
H913 C924 0.950 . S
H914 C926 0.950 . S
H915 C927 0.950 . S
C916 H908 0.950 . S
C916 C917 1.386 . S
C916 C918 1.391 . S
C917 C916 1.386 . S
C917 C921 1.393 . S
C918 H910 0.950 . S
C918 C916 1.391 . S
C918 C919 1.400 . S
C919 C918 1.400 . S
C919 C920 1.398 . S
C919 C925 1.491 . S
C920 H911 0.950 . S
C920 C919 1.398 . S
C920 C921 1.391 . S
C921 H909 0.950 . S
C921 C917 1.393 . S
C921 C920 1.391 . S
C922 H912 0.950 . S
C922 C923 1.386 . S
C922 C924 1.391 . S
C923 C922 1.386 . S
C923 C927 1.393 . S
C924 H913 0.950 . S
C924 C922 1.391 . S
C924 C925 1.400 . S
C925 C919 1.491 . S
C925 C924 1.400 . S
C925 C926 1.398 . S
C926 H914 0.950 . S
C926 C925 1.398 . S
C926 C927 1.391 . S
C927 H915 0.950 . S
C927 C923 1.393 . S
C927 C926 1.391 . S
H928 C936 0.950 . S
H929 C941 0.950 . S
H930 C938 0.950 . S
H931 C940 0.950 . S
H932 C942 0.950 . S
H933 C944 0.950 . S
H934 C946 0.950 . S
H935 C947 0.950 . S
C936 H928 0.950 . S
C936 C937 1.386 . S
C936 C938 1.391 . S
C937 C936 1.386 . S
C937 C941 1.393 . S
C938 H930 0.950 . S
C938 C936 1.391 . S
C938 C939 1.400 . S
C939 C938 1.400 . S
C939 C940 1.398 . S
C939 C945 1.491 . S
C940 H931 0.950 . S
C940 C939 1.398 . S
C940 C941 1.391 . S
C941 H929 0.950 . S
C941 C937 1.393 . S
C941 C940 1.391 . S
C942 H932 0.950 . S
C942 C943 1.386 . S
C942 C944 1.391 . S
C943 C942 1.386 . S
C943 C947 1.393 . S
C944 H933 0.950 . S
C944 C942 1.391 . S
C944 C945 1.400 . S
C945 C939 1.491 . S
C945 C944 1.400 . S
C945 C946 1.398 . S
C946 H934 0.950 . S
C946 C945 1.398 . S
C946 C947 1.391 . S
C947 H935 0.950 . S
C947 C943 1.393 . S
C947 C946 1.391 . S
H948 C956 0.950 . S
H949 C961 0.950 . S
H950 C958 0.950 . S
H951 C960 0.950 . S
H952 C962 0.950 . S
H953 C964 0.950 . S
H954 C966 0.950 . S
H955 C967 0.950 . S
C956 H948 0.950 . S
C956 C957 1.386 . S
C956 C958 1.391 . S
C957 C956 1.386 . S
C957 C961 1.393 . S
C958 H950 0.950 . S
C958 C956 1.391 . S
C958 C959 1.400 . S
C959 C958 1.400 . S
C959 C960 1.398 . S
C959 C965 1.491 . S
C960 H951 0.950 . S
C960 C959 1.398 . S
C960 C961 1.391 . S
C961 H949 0.950 . S
C961 C957 1.393 . S
C961 C960 1.391 . S
C962 H952 0.950 . S
C962 C963 1.386 . S
C962 C964 1.391 . S
C963 C962 1.386 . S
C963 C967 1.393 . S
C964 H953 0.950 . S
C964 C962 1.391 . S
C964 C965 1.400 . S
C965 C959 1.491 . S
C965 C964 1.400 . S
C965 C966 1.398 . S
C966 H954 0.950 . S
C966 C965 1.398 . S
C966 C967 1.391 . S
C967 H955 0.950 . S
C967 C963 1.393 . S
C967 C966 1.391 . S
H968 C976 0.950 . S
H969 C981 0.950 . S
H970 C978 0.950 . S
H971 C980 0.950 . S
H972 C982 0.950 . S
H973 C984 0.950 . S
H974 C986 0.950 . S
H975 C987 0.950 . S
C976 H968 0.950 . S
C976 C977 1.386 . S
C976 C978 1.391 . S
C977 C976 1.386 . S
C977 C981 1.393 . S
C978 H970 0.950 . S
C978 C976 1.391 . S
C978 C979 1.400 . S
C979 C978 1.400 . S
C979 C980 1.398 . S
C979 C985 1.491 . S
C980 H971 0.950 . S
C980 C979 1.398 . S
C980 C981 1.391 . S
C981 H969 0.950 . S
C981 C977 1.393 . S
C981 C980 1.391 . S
C982 H972 0.950 . S
C982 C983 1.386 . S
C982 C984 1.391 . S
C983 C982 1.386 . S
C983 C987 1.393 . S
C984 H973 0.950 . S
C984 C982 1.391 . S
C984 C985 1.400 . S
C985 C979 1.491 . S
C985 C984 1.400 . S
C985 C986 1.398 . S
C986 H974 0.950 . S
C986 C985 1.398 . S
C986 C987 1.391 . S
C987 H975 0.950 . S
C987 C983 1.393 . S
C987 C986 1.391 . S
H988 C996 0.950 . S
H989 C1001 0.950 . S
H990 C998 0.950 . S
H991 C1000 0.950 . S
H992 C1002 0.950 . S
H993 C1004 0.950 . S
H994 C1006 0.950 . S
H995 C1007 0.950 . S
C996 H988 0.950 . S
C996 C997 1.386 . S
C996 C998 1.391 . S
C997 C996 1.386 . S
C997 C1001 1.393 . S
C998 H990 0.950 . S
C998 C996 1.391 . S
C998 C999 1.400 . S
C999 C998 1.400 . S
C999 C1000 1.398 . S
C999 C1005 1.491 . S
C1000 H991 0.950 . S
C1000 C999 1.398 . S
C1000 C1001 1.391 . S
C1001 H989 0.950 . S
C1001 C997 1.393 . S
C1001 C1000 1.391 . S
C1002 H992 0.950 . S
C1002 C1003 1.386 . S
C1002 C1004 1.391 . S
C1003 C1002 1.386 . S
C1003 C1007 1.393 . S
C1004 H993 0.950 . S
C1004 C1002 1.391 . S
C1004 C1005 1.400 . S
C1005 C999 1.491 . S
C1005 C1004 1.400 . S
C1005 C1006 1.398 . S
C1006 H994 0.950 . S
C1006 C1005 1.398 . S
C1006 C1007 1.391 . S
C1007 H995 0.950 . S
C1007 C1003 1.393 . S
C1007 C1006 1.391 . S
H1008 C1016 0.950 . S
H1009 C1021 0.950 . S
H1010 C1018 0.950 . S
H1011 C1020 0.950 . S
H1012 C1022 0.950 . S
H1013 C1024 0.950 . S
H1014 C1026 0.950 . S
H1015 C1027 0.950 . S
C1016 H1008 0.950 . S
C1016 C1017 1.386 . S
C1016 C1018 1.391 . S
C1017 C1016 1.386 . S
C1017 C1021 1.393 . S
C1018 H1010 0.950 . S
C1018 C1016 1.391 . S
C1018 C1019 1.400 . S
C1019 C1018 1.400 . S
C1019 C1020 1.398 . S
C1019 C1025 1.491 . S
C1020 H1011 0.950 . S
C1020 C1019 1.398 . S
C1020 C1021 1.391 . S
C1021 H1009 0.950 . S
C1021 C1017 1.393 . S
C1021 C1020 1.391 . S
C1022 H1012 0.950 . S
C1022 C1023 1.386 . S
C1022 C1024 1.391 . S
C1023 C1022 1.386 . S
C1023 C1027 1.393 . S
C1024 H1013 0.950 . S
C1024 C1022 1.391 . S
C1024 C1025 1.400 . S
C1025 C1019 1.491 . S
C1025 C1024 1.400 . S
C1025 C1026 1.398 . S
C1026 H1014 0.950 . S
C1026 C1025 1.398 . S
C1026 C1027 1.391 . S
C1027 H1015 0.950 . S
C1027 C1023 1.393 . S
C1027 C1026 1.391 . S
H1028 C1036 0.950 . S
H1029 C1041 0.960 . S
H1030 C1038 0.950 1_455 S
H1031 C1040 0.950 . S
H1032 C1042 0.950 . S
H1033 C1044 0.950 1_655 S
H1034 C1046 0.950 . S
H1035 C1047 0.960 . S
C1036 H1028 0.950 . S
C1036 C1037 1.386 . S
C1036 C1038 1.391 . S
C1037 C1036 1.386 . S
C1037 C1041 1.393 . S
C1038 H1030 0.950 1_655 S
C1038 C1036 1.391 . S
C1038 C1039 1.400 . S
C1039 C1038 1.400 . S
C1039 C1040 1.398 1_565 S
C1039 C1045 1.491 1_665 S
C1040 H1031 0.950 . S
C1040 C1039 1.398 1_545 S
C1040 C1041 1.391 1_545 S
C1041 H1029 0.960 . S
C1041 C1037 1.393 . S
C1041 C1040 1.391 1_565 S
C1042 H1032 0.950 . S
C1042 C1043 1.386 . S
C1042 C1044 1.391 . S
C1043 C1042 1.386 . S
C1043 C1047 1.393 . S
C1044 H1033 0.950 1_455 S
C1044 C1042 1.391 . S
C1044 C1045 1.400 . S
C1045 C1039 1.491 1_445 S
C1045 C1044 1.400 . S
C1045 C1046 1.398 1_545 S
C1046 H1034 0.950 . S
C1046 C1045 1.398 1_565 S
C1046 C1047 1.391 1_565 S
C1047 H1035 0.960 . S
C1047 C1043 1.393 . S
C1047 C1046 1.391 1_545 S
H1048 C1056 0.950 . S
H1049 C1061 0.950 . S
H1050 C1058 0.950 1_545 S
H1051 C1060 0.950 . S
H1052 C1062 0.950 . S
H1053 C1064 0.950 1_565 S
H1054 C1066 0.950 . S
H1055 C1067 0.950 . S
C1056 H1048 0.950 . S
C1056 C1057 1.386 . S
C1056 C1058 1.391 . S
C1057 C1056 1.386 . S
C1057 C1061 1.393 . S
C1058 H1050 0.950 1_565 S
C1058 C1056 1.391 . S
C1058 C1059 1.400 . S
C1059 C1058 1.400 . S
C1059 C1060 1.398 . S
C1059 C1065 1.491 1_565 S
C1060 H1051 0.950 . S
C1060 C1059 1.398 . S
C1060 C1061 1.391 . S
C1061 H1049 0.950 . S
C1061 C1057 1.393 . S
C1061 C1060 1.391 . S
C1062 H1052 0.950 . S
C1062 C1063 1.386 . S
C1062 C1064 1.391 . S
C1063 C1062 1.386 . S
C1063 C1067 1.393 . S
C1064 H1053 0.950 1_545 S
C1064 C1062 1.391 . S
C1064 C1065 1.400 . S
C1065 C1059 1.491 1_545 S
C1065 C1064 1.400 . S
C1065 C1066 1.398 . S
C1066 H1054 0.950 . S
C1066 C1065 1.398 . S
C1066 C1067 1.391 . S
C1067 H1055 0.950 . S
C1067 C1063 1.393 . S
C1067 C1066 1.391 . S
H1068 C1076 0.950 . S
H1069 C1081 0.950 . S
H1070 C1078 0.950 . S
H1071 C1080 0.950 1_455 S
H1072 C1082 0.950 . S
H1073 C1084 0.950 . S
H1074 C1086 0.950 1_655 S
H1075 C1087 0.950 . S
C1076 H1068 0.950 . S
C1076 C1077 1.386 . S
C1076 C1078 1.391 . S
C1077 C1076 1.386 . S
C1077 C1081 1.393 . S
C1078 H1070 0.950 . S
C1078 C1076 1.391 . S
C1078 C1079 1.400 . S
C1079 C1078 1.400 . S
C1079 C1080 1.398 . S
C1079 C1085 1.491 1_655 S
C1080 H1071 0.950 1_655 S
C1080 C1079 1.398 . S
C1080 C1081 1.391 . S
C1081 H1069 0.950 . S
C1081 C1077 1.393 . S
C1081 C1080 1.391 . S
C1082 H1072 0.950 . S
C1082 C1083 1.386 . S
C1082 C1084 1.391 . S
C1083 C1082 1.386 . S
C1083 C1087 1.393 . S
C1084 H1073 0.950 . S
C1084 C1082 1.391 . S
C1084 C1085 1.400 . S
C1085 C1079 1.491 1_455 S
C1085 C1084 1.400 . S
C1085 C1086 1.398 . S
C1086 H1074 0.950 1_455 S
C1086 C1085 1.398 . S
C1086 C1087 1.391 . S
C1087 H1075 0.950 . S
C1087 C1083 1.393 . S
C1087 C1086 1.391 . S
H1088 C1096 0.950 . S
H1089 C1101 0.950 . S
H1090 C1098 0.950 . S
H1091 C1100 0.950 . S
H1092 C1102 0.950 . S
H1093 C1104 0.950 . S
H1094 C1106 0.950 . S
H1095 C1107 0.950 . S
C1096 H1088 0.950 . S
C1096 C1097 1.386 . S
C1096 C1098 1.391 . S
C1097 C1096 1.386 . S
C1097 C1101 1.393 . S
C1098 H1090 0.950 . S
C1098 C1096 1.391 . S
C1098 C1099 1.400 . S
C1099 C1098 1.400 . S
C1099 C1100 1.398 . S
C1099 C1105 1.491 . S
C1100 H1091 0.950 . S
C1100 C1099 1.398 . S
C1100 C1101 1.391 . S
C1101 H1089 0.950 . S
C1101 C1097 1.393 . S
C1101 C1100 1.391 . S
C1102 H1092 0.950 . S
C1102 C1103 1.386 . S
C1102 C1104 1.391 . S
C1103 C1102 1.386 . S
C1103 C1107 1.393 . S
C1104 H1093 0.950 . S
C1104 C1102 1.391 . S
C1104 C1105 1.400 . S
C1105 C1099 1.491 . S
C1105 C1104 1.400 . S
C1105 C1106 1.398 . S
C1106 H1094 0.950 . S
C1106 C1105 1.398 . S
C1106 C1107 1.391 . S
C1107 H1095 0.950 . S
C1107 C1103 1.393 . S
C1107 C1106 1.391 . S
H1108 C1116 0.950 . S
H1109 C1121 0.950 . S
H1110 C1118 0.950 . S
H1111 C1120 0.950 . S
H1112 C1122 0.950 . S
H1113 C1124 0.950 . S
H1114 C1126 0.950 . S
H1115 C1127 0.950 . S
C1116 H1108 0.950 . S
C1116 C1117 1.386 . S
C1116 C1118 1.391 1_545 S
C1117 C1116 1.386 . S
C1117 C1121 1.393 . S
C1118 H1110 0.950 . S
C1118 C1116 1.391 1_565 S
C1118 C1119 1.400 1_565 S
C1119 C1118 1.400 1_545 S
C1119 C1120 1.398 . S
C1119 C1125 1.491 1_545 S
C1120 H1111 0.950 . S
C1120 C1119 1.398 . S
C1120 C1121 1.391 . S
C1121 H1109 0.950 . S
C1121 C1117 1.393 . S
C1121 C1120 1.391 . S
C1122 H1112 0.950 . S
C1122 C1123 1.386 . S
C1122 C1124 1.391 1_565 S
C1123 C1122 1.386 . S
C1123 C1127 1.393 . S
C1124 H1113 0.950 . S
C1124 C1122 1.391 1_545 S
C1124 C1125 1.400 1_545 S
C1125 C1119 1.491 1_565 S
C1125 C1124 1.400 1_565 S
C1125 C1126 1.398 . S
C1126 H1114 0.950 . S
C1126 C1125 1.398 . S
C1126 C1127 1.391 . S
C1127 H1115 0.950 . S
C1127 C1123 1.393 . S
C1127 C1126 1.391 . S
H1128 C1136 0.950 . S
H1129 C1141 0.950 . S
H1130 C1138 0.950 . S
H1131 C1140 0.950 . S
H1132 C1142 0.950 . S
H1133 C1144 0.950 . S
H1134 C1146 0.950 . S
H1135 C1147 0.950 . S
C1136 H1128 0.950 . S
C1136 C1137 1.386 . S
C1136 C1138 1.391 . S
C1137 C1136 1.386 . S
C1137 C1141 1.393 . S
C1138 H1130 0.950 . S
C1138 C1136 1.391 . S
C1138 C1139 1.400 . S
C1139 C1138 1.400 . S
C1139 C1140 1.398 . S
C1139 C1145 1.491 1_655 S
C1140 H1131 0.950 . S
C1140 C1139 1.398 . S
C1140 C1141 1.391 . S
C1141 H1129 0.950 . S
C1141 C1137 1.393 . S
C1141 C1140 1.391 . S
C1142 H1132 0.950 . S
C1142 C1143 1.386 . S
C1142 C1144 1.391 . S
C1143 C1142 1.386 . S
C1143 C1147 1.393 . S
C1144 H1133 0.950 . S
C1144 C1142 1.391 . S
C1144 C1145 1.400 . S
C1145 C1139 1.491 1_455 S
C1145 C1144 1.400 . S
C1145 C1146 1.398 . S
C1146 H1134 0.950 . S
C1146 C1145 1.398 . S
C1146 C1147 1.391 . S
C1147 H1135 0.950 . S
C1147 C1143 1.393 . S
C1147 C1146 1.391 . S
H1148 C1156 0.950 . S
H1149 C1161 0.950 . S
H1150 C1158 0.950 . S
H1151 C1160 0.950 . S
H1152 C1162 0.950 . S
H1153 C1164 0.950 . S
H1154 C1166 0.950 . S
H1155 C1167 0.950 . S
C1156 H1148 0.950 . S
C1156 C1157 1.386 . S
C1156 C1158 1.391 . S
C1157 C1156 1.386 . S
C1157 C1161 1.393 . S
C1158 H1150 0.950 . S
C1158 C1156 1.391 . S
C1158 C1159 1.400 . S
C1159 C1158 1.400 . S
C1159 C1160 1.398 . S
C1159 C1165 1.491 1_554 S
C1160 H1151 0.950 . S
C1160 C1159 1.398 . S
C1160 C1161 1.391 . S
C1161 H1149 0.950 . S
C1161 C1157 1.393 . S
C1161 C1160 1.391 . S
C1162 H1152 0.950 . S
C1162 C1163 1.386 . S
C1162 C1164 1.391 . S
C1163 C1162 1.386 . S
C1163 C1167 1.393 . S
C1164 H1153 0.950 . S
C1164 C1162 1.391 . S
C1164 C1165 1.400 . S
C1165 C1159 1.491 1_556 S
C1165 C1164 1.400 . S
C1165 C1166 1.398 . S
C1166 H1154 0.950 . S
C1166 C1165 1.398 . S
C1166 C1167 1.391 . S
C1167 H1155 0.950 . S
C1167 C1163 1.393 . S
C1167 C1166 1.391 . S
H1168 C1176 0.950 . S
H1169 C1181 0.950 . S
H1170 C1178 0.950 1_655 S
H1171 C1180 0.950 . S
H1172 C1182 0.950 . S
H1173 C1184 0.950 1_455 S
H1174 C1186 0.950 . S
H1175 C1187 0.950 . S
C1176 H1168 0.950 . S
C1176 C1177 1.386 . S
C1176 C1178 1.391 . S
C1177 C1176 1.386 . S
C1177 C1181 1.393 . S
C1178 H1170 0.950 1_455 S
C1178 C1176 1.391 . S
C1178 C1179 1.400 . S
C1179 C1178 1.400 . S
C1179 C1180 1.398 1_556 S
C1179 C1185 1.491 1_456 S
C1180 H1171 0.950 . S
C1180 C1179 1.398 1_554 S
C1180 C1181 1.391 1_554 S
C1181 H1169 0.950 . S
C1181 C1177 1.393 . S
C1181 C1180 1.391 1_556 S
C1182 H1172 0.950 . S
C1182 C1183 1.386 . S
C1182 C1184 1.391 . S
C1183 C1182 1.386 . S
C1183 C1187 1.393 . S
C1184 H1173 0.950 1_655 S
C1184 C1182 1.391 . S
C1184 C1185 1.400 . S
C1185 C1179 1.491 1_654 S
C1185 C1184 1.400 . S
C1185 C1186 1.398 1_554 S
C1186 H1174 0.950 . S
C1186 C1185 1.398 1_556 S
C1186 C1187 1.391 1_556 S
C1187 H1175 0.950 . S
C1187 C1183 1.393 . S
C1187 C1186 1.391 1_554 S
H1188 C1196 0.950 . S
H1189 C1201 0.950 . S
H1190 C1198 0.950 . S
H1191 C1200 0.950 . S
H1192 C1202 0.950 . S
H1193 C1204 0.950 . S
H1194 C1206 0.950 . S
H1195 C1207 0.950 . S
C1196 H1188 0.950 . S
C1196 C1197 1.386 . S
C1196 C1198 1.391 . S
C1197 C1196 1.386 . S
C1197 C1201 1.393 . S
C1198 H1190 0.950 . S
C1198 C1196 1.391 . S
C1198 C1199 1.400 . S
C1199 C1198 1.400 . S
C1199 C1200 1.398 . S
C1199 C1205 1.491 . S
C1200 H1191 0.950 . S
C1200 C1199 1.398 . S
C1200 C1201 1.391 . S
C1201 H1189 0.950 . S
C1201 C1197 1.393 . S
C1201 C1200 1.391 . S
C1202 H1192 0.950 . S
C1202 C1203 1.386 . S
C1202 C1204 1.391 . S
C1203 C1202 1.386 . S
C1203 C1207 1.393 . S
C1204 H1193 0.950 . S
C1204 C1202 1.391 . S
C1204 C1205 1.400 . S
C1205 C1199 1.491 . S
C1205 C1204 1.400 . S
C1205 C1206 1.398 . S
C1206 H1194 0.950 . S
C1206 C1205 1.398 . S
C1206 C1207 1.391 . S
C1207 H1195 0.950 . S
C1207 C1203 1.393 . S
C1207 C1206 1.391 . S
H1208 C1216 0.950 . S
H1209 C1221 0.950 . S
H1210 C1218 0.950 . S
H1211 C1220 0.950 . S
H1212 C1222 0.950 . S
H1213 C1224 0.950 . S
H1214 C1226 0.950 . S
H1215 C1227 0.950 . S
C1216 H1208 0.950 . S
C1216 C1217 1.386 . S
C1216 C1218 1.391 . S
C1217 C1216 1.386 . S
C1217 C1221 1.393 . S
C1218 H1210 0.950 . S
C1218 C1216 1.391 . S
C1218 C1219 1.400 . S
C1219 C1218 1.400 . S
C1219 C1220 1.398 1_554 S
C1219 C1225 1.491 1_554 S
C1220 H1211 0.950 . S
C1220 C1219 1.398 1_556 S
C1220 C1221 1.391 1_556 S
C1221 H1209 0.950 . S
C1221 C1217 1.393 . S
C1221 C1220 1.391 1_554 S
C1222 H1212 0.950 . S
C1222 C1223 1.386 . S
C1222 C1224 1.391 . S
C1223 C1222 1.386 . S
C1223 C1227 1.393 . S
C1224 H1213 0.950 . S
C1224 C1222 1.391 . S
C1224 C1225 1.400 . S
C1225 C1219 1.491 1_556 S
C1225 C1224 1.400 . S
C1225 C1226 1.398 1_556 S
C1226 H1214 0.950 . S
C1226 C1225 1.398 1_554 S
C1226 C1227 1.391 1_554 S
C1227 H1215 0.950 . S
C1227 C1223 1.393 . S
C1227 C1226 1.391 1_556 S
H1228 C1236 0.950 . S
H1229 C1241 0.950 . S
H1230 C1238 0.950 . S
H1231 C1240 0.950 . S
H1232 C1242 0.950 . S
H1233 C1244 0.950 . S
H1234 C1246 0.950 . S
H1235 C1247 0.950 . S
C1236 H1228 0.950 . S
C1236 C1237 1.386 . S
C1236 C1238 1.391 . S
C1237 C1236 1.386 . S
C1237 C1241 1.393 . S
C1238 H1230 0.950 . S
C1238 C1236 1.391 . S
C1238 C1239 1.400 . S
C1239 C1238 1.400 . S
C1239 C1240 1.398 . S
C1239 C1245 1.491 . S
C1240 H1231 0.950 . S
C1240 C1239 1.398 . S
C1240 C1241 1.391 . S
C1241 H1229 0.950 . S
C1241 C1237 1.393 . S
C1241 C1240 1.391 . S
C1242 H1232 0.950 . S
C1242 C1243 1.386 . S
C1242 C1244 1.391 . S
C1243 C1242 1.386 . S
C1243 C1247 1.393 . S
C1244 H1233 0.950 . S
C1244 C1242 1.391 . S
C1244 C1245 1.400 . S
C1245 C1239 1.491 . S
C1245 C1244 1.400 . S
C1245 C1246 1.398 . S
C1246 H1234 0.950 . S
C1246 C1245 1.398 . S
C1246 C1247 1.391 . S
C1247 H1235 0.950 . S
C1247 C1243 1.393 . S
C1247 C1246 1.391 . S
H1248 C1256 0.950 . S
H1249 C1261 0.950 . S
H1250 C1258 0.950 . S
H1251 C1260 0.950 . S
H1252 C1262 0.950 . S
H1253 C1264 0.950 . S
H1254 C1266 0.950 . S
H1255 C1267 0.950 . S
C1256 H1248 0.950 . S
C1256 C1257 1.386 . S
C1256 C1258 1.391 . S
C1257 C1256 1.386 . S
C1257 C1261 1.393 . S
C1258 H1250 0.950 . S
C1258 C1256 1.391 . S
C1258 C1259 1.400 . S
C1259 C1258 1.400 . S
C1259 C1260 1.398 1_554 S
C1259 C1265 1.491 1_564 S
C1260 H1251 0.950 . S
C1260 C1259 1.398 1_556 S
C1260 C1261 1.391 1_556 S
C1261 H1249 0.950 . S
C1261 C1257 1.393 . S
C1261 C1260 1.391 1_554 S
C1262 H1252 0.950 . S
C1262 C1263 1.386 . S
C1262 C1264 1.391 . S
C1263 C1262 1.386 . S
C1263 C1267 1.393 . S
C1264 H1253 0.950 . S
C1264 C1262 1.391 . S
C1264 C1265 1.400 . S
C1265 C1259 1.491 1_546 S
C1265 C1264 1.400 . S
C1265 C1266 1.398 1_556 S
C1266 H1254 0.950 . S
C1266 C1265 1.398 1_554 S
C1266 C1267 1.391 1_554 S
C1267 H1255 0.950 . S
C1267 C1263 1.393 . S
C1267 C1266 1.391 1_556 S
H1268 C1276 0.950 . S
H1269 C1281 0.950 . S
H1270 C1278 0.950 . S
H1271 C1280 0.950 . S
H1272 C1282 0.950 . S
H1273 C1284 0.950 . S
H1274 C1286 0.950 . S
H1275 C1287 0.950 . S
C1276 H1268 0.950 . S
C1276 C1277 1.386 . S
C1276 C1278 1.391 . S
C1277 C1276 1.386 . S
C1277 C1281 1.393 . S
C1278 H1270 0.950 . S
C1278 C1276 1.391 . S
C1278 C1279 1.400 . S
C1279 C1278 1.400 . S
C1279 C1280 1.398 . S
C1279 C1285 1.491 . S
C1280 H1271 0.950 . S
C1280 C1279 1.398 . S
C1280 C1281 1.391 . S
C1281 H1269 0.950 . S
C1281 C1277 1.393 . S
C1281 C1280 1.391 . S
C1282 H1272 0.950 . S
C1282 C1283 1.386 . S
C1282 C1284 1.391 . S
C1283 C1282 1.386 . S
C1283 C1287 1.393 . S
C1284 H1273 0.950 . S
C1284 C1282 1.391 . S
C1284 C1285 1.400 . S
C1285 C1279 1.491 . S
C1285 C1284 1.400 . S
C1285 C1286 1.398 . S
C1286 H1274 0.950 . S
C1286 C1285 1.398 . S
C1286 C1287 1.391 . S
C1287 H1275 0.950 . S
C1287 C1283 1.393 . S
C1287 C1286 1.391 . S
H1288 C1296 0.950 . S
H1289 C1301 0.950 . S
H1290 C1298 0.950 . S
H1291 C1300 0.950 . S
H1292 C1302 0.950 . S
H1293 C1304 0.950 . S
H1294 C1306 0.950 . S
H1295 C1307 0.950 . S
C1296 H1288 0.950 . S
C1296 C1297 1.386 . S
C1296 C1298 1.391 . S
C1297 C1296 1.386 . S
C1297 C1301 1.393 . S
C1298 H1290 0.950 . S
C1298 C1296 1.391 . S
C1298 C1299 1.400 . S
C1299 C1298 1.400 . S
C1299 C1300 1.398 . S
C1299 C1305 1.491 . S
C1300 H1291 0.950 . S
C1300 C1299 1.398 . S
C1300 C1301 1.391 . S
C1301 H1289 0.950 . S
C1301 C1297 1.393 . S
C1301 C1300 1.391 . S
C1302 H1292 0.950 . S
C1302 C1303 1.386 . S
C1302 C1304 1.391 . S
C1303 C1302 1.386 . S
C1303 C1307 1.393 . S
C1304 H1293 0.950 . S
C1304 C1302 1.391 . S
C1304 C1305 1.400 . S
C1305 C1299 1.491 . S
C1305 C1304 1.400 . S
C1305 C1306 1.398 . S
C1306 H1294 0.950 . S
C1306 C1305 1.398 . S
C1306 C1307 1.391 . S
C1307 H1295 0.950 . S
C1307 C1303 1.393 . S
C1307 C1306 1.391 . S
H1308 C1316 0.950 . S
H1309 C1321 0.950 . S
H1310 C1318 0.950 . S
H1311 C1320 0.950 . S
H1312 C1322 0.950 . S
H1313 C1324 0.950 . S
H1314 C1326 0.950 . S
H1315 C1327 0.950 . S
C1316 H1308 0.950 . S
C1316 C1317 1.386 . S
C1316 C1318 1.391 . S
C1317 C1316 1.386 . S
C1317 C1321 1.393 . S
C1318 H1310 0.950 . S
C1318 C1316 1.391 . S
C1318 C1319 1.400 . S
C1319 C1318 1.400 . S
C1319 C1320 1.398 . S
C1319 C1325 1.491 . S
C1320 H1311 0.950 . S
C1320 C1319 1.398 . S
C1320 C1321 1.391 . S
C1321 H1309 0.950 . S
C1321 C1317 1.393 . S
C1321 C1320 1.391 . S
C1322 H1312 0.950 . S
C1322 C1323 1.386 . S
C1322 C1324 1.391 . S
C1323 C1322 1.386 . S
C1323 C1327 1.393 . S
C1324 H1313 0.950 . S
C1324 C1322 1.391 . S
C1324 C1325 1.400 . S
C1325 C1319 1.491 . S
C1325 C1324 1.400 . S
C1325 C1326 1.398 . S
C1326 H1314 0.950 . S
C1326 C1325 1.398 . S
C1326 C1327 1.391 . S
C1327 H1315 0.950 . S
C1327 C1323 1.393 . S
C1327 C1326 1.391 . S
C537 N5 0.745 . S
C543 N302 0.749 . S
C557 N14 0.853 1_655 S
C563 N311 0.852 . S
C577 N278 0.854 . S
C583 N47 0.845 . S
C597 N38 0.736 1_655 S
C603 N269 0.741 . S
C617 N71 0.757 . S
C623 N368 0.746 . S
C637 N80 0.829 1_455 S
C643 N377 0.821 . S
C657 N113 0.822 . S
C663 N344 0.835 . S
C677 N104 0.738 1_455 S
C683 N335 0.742 . S
C697 N137 0.745 . S
C703 N434 0.757 . S
C717 N443 0.852 . S
C723 N146 0.853 1_655 S
C737 N410 0.854 . S
C743 N179 0.849 . S
C757 N401 0.745 . S
C763 N170 0.738 1_655 S
C777 N500 0.742 . S
C783 N203 0.753 . S
C797 N509 0.841 . S
C803 N212 0.853 1_455 S
C817 N476 0.845 . S
C823 N245 0.854 . S
C837 N236 0.722 1_455 S
C843 N467 0.754 . S
C857 C17 1.192 . S
C863 C50 1.192 1_554 S
C877 C116 1.185 1_556 S
C883 C83 1.186 . S
C897 C182 1.187 . S
C903 C149 1.187 . S
C917 C248 1.187 . S
C923 C215 1.187 . S
C937 C314 1.191 . S
C943 C281 1.191 . S
C957 C347 1.191 . S
C963 C380 1.191 . S
C977 C446 1.190 1_554 S
C983 C413 1.190 . S
C997 C479 1.191 . S
C1003 C512 1.191 1_556 S
C1017 C490 1.800 . S
C1023 C28 1.800 . S
C1037 C74 1.816 . S
C1043 C8 1.816 . S
C1057 C371 1.819 . S
C1063 C41 1.819 . S
C1077 C259 1.795 . S
C1083 C61 1.795 . S
C1097 C94 1.801 . S
C1103 C424 1.801 . S
C1117 C305 1.823 . S
C1123 C107 1.823 . S
C1137 C127 1.801 . S
C1143 C193 1.801 . S
C1157 C358 1.793 . S
C1163 C160 1.793 . S
C1177 C140 1.824 . S
C1183 C206 1.824 . S
C1197 C173 1.809 . S
C1203 C503 1.809 . S
C1217 C226 1.787 . S
C1223 C292 1.787 . S
C1237 C239 1.823 . S
C1243 C437 1.823 . S
C1257 C338 1.808 . S
C1263 C272 1.808 . S
C1277 C523 1.801 . S
C1283 C325 1.801 . S
C1297 C391 1.802 . S
C1303 C457 1.802 . S
C1317 C404 1.812 . S
C1323 C470 1.812 . S
