# Generated by pormake.
# Topology rob, (6)-cn, num edge types: 1
# Building blocks:
#     Node 0, Type 0, BuildingBlock: BETFEN_clean_sbu_0, # of connection points: 6
#     Node 1, Type 0, BuildingBlock: BETFEN_clean_sbu_0, # of connection points: 6
#     Node 2, Type 0, BuildingBlock: BETFEN_clean_sbu_0, # of connection points: 6
#     Node 3, Type 0, BuildingBlock: BETFEN_clean_sbu_0, # of connection points: 6
#     Edge 4, Type (0, 0), BuildingBlock: AJUNOK_clean_linker_0, # of connection points: 2
#     Edge 5, Type (0, 0), BuildingBlock: AJUNOK_clean_linker_0, # of connection points: 2
#     Edge 6, Type (0, 0), BuildingBlock: AJUNOK_clean_linker_0, # of connection points: 2
#     Edge 7, Type (0, 0), BuildingBlock: AJUNOK_clean_linker_0, # of connection points: 2
#     Edge 8, Type (0, 0), BuildingBlock: AJUNOK_clean_linker_0, # of connection points: 2
#     Edge 9, Type (0, 0), BuildingBlock: AJUNOK_clean_linker_0, # of connection points: 2
#     Edge 10, Type (0, 0), BuildingBlock: AJUNOK_clean_linker_0, # of connection points: 2
#     Edge 11, Type (0, 0), BuildingBlock: AJUNOK_clean_linker_0, # of connection points: 2
#     Edge 12, Type (0, 0), BuildingBlock: AJUNOK_clean_linker_0, # of connection points: 2
#     Edge 13, Type (0, 0), BuildingBlock: AJUNOK_clean_linker_0, # of connection points: 2
#     Edge 14, Type (0, 0), BuildingBlock: AJUNOK_clean_linker_0, # of connection points: 2
#     Edge 15, Type (0, 0), BuildingBlock: AJUNOK_clean_linker_0, # of connection points: 2
# Relax obj value: 0.054
# Max RMSD: 0.178
# Mean RMSD: 0.178
data_MOF--net-rob--node1-BETFEN_clean_sbu_0--edge1-AJUNOK_clean_linker_0
_symmetry_space_group_name_H-M    P1
_symmetry_Int_Tables_number       1
_symmetry_cell_setting            triclinic
loop_
_symmetry_equiv_pos_as_xyz
'x, y, z'
_cell_length_a     12.233374
_cell_length_b     17.133495
_cell_length_c     29.372216
_cell_angle_alpha  96.573313
_cell_angle_beta   89.737754
_cell_angle_gamma 89.996217
loop_
_atom_site_label
_atom_site_type_symbol
_atom_site_fract_x
_atom_site_fract_y
_atom_site_fract_z
_atom_type_partial_charge
Pr0 Pr 0.1427 0.32593 0.0576 0.0
Pr1 Pr 0.35079 0.22973 1.00933 0.0
C2 C 0.96548 0.35034 0.11157 0.0
C3 C 0.95131 0.35591 0.16215 0.0
C4 C 0.92993 0.42871 0.18786 0.0
C5 C 0.92141 0.43458 0.23574 0.0
C6 C 0.93299 0.36763 0.25897 0.0
C7 C 0.95492 0.295 0.23326 0.0
C8 C 0.96386 0.28914 0.18552 0.0
C9 C 0.31903 0.42874 0.05028 0.0
C10 C 0.3385 0.24683 0.1203 0.0
C11 C 0.5051 0.1704 0.94924 0.0
C12 C 0.5296 0.1808 0.90109 0.0
C13 C 0.58955 0.12357 0.87357 0.0
C14 C 0.60646 0.13056 0.82698 0.0
C15 C 0.56315 0.19479 0.80707 0.0
C16 C 0.50343 0.25208 0.83493 0.0
C17 C 0.48617 0.24479 0.88132 0.0
C18 C 0.17143 0.14235 1.03173 0.0
C19 C 0.16407 0.31971 0.94699 0.0
O20 O -0.00827 0.28117 0.09063 0.0
O21 O 0.01788 0.408 0.09534 0.0
O22 O 0.31687 0.35572 0.03828 0.0
O23 O 0.22541 0.45142 0.06825 0.0
O24 O 0.4082 0.23652 0.08547 0.0
O25 O 0.23677 0.27086 0.11561 0.0
O26 O 0.52291 0.23055 0.98009 0.0
O27 O 0.41284 0.1348 0.95567 0.0
O28 O 0.16743 0.20665 1.01474 0.0
O29 O 0.27176 0.11997 0.03689 0.0
O30 O 0.09528 0.3357 0.98173 0.0
O31 O 0.26237 0.28901 0.9513 0.0
H32 H 0.92071 0.48131 0.17096 0.0
H33 H 0.90639 0.49165 0.2546 0.0
H34 H 0.96327 0.24221 0.25002 0.0
H35 H 0.98079 0.23201 0.16704 0.0
H36 H 0.62233 0.07308 0.88798 0.0
H37 H 0.65266 0.08539 0.80642 0.0
H38 H 0.4711 0.3032 0.82106 0.0
H39 H 0.43856 0.28921 0.90169 0.0
Pr40 Pr 0.61344 0.84742 0.05557 0.0
Pr41 Pr 0.8349 0.75613 1.01422 0.0
C42 C 0.44541 0.89461 0.11125 0.0
C43 C 0.42232 0.88706 0.16006 0.0
C44 C 0.39821 0.95423 0.19059 0.0
C45 C 0.38324 0.94847 0.23744 0.0
C46 C 0.39147 0.87531 0.25446 0.0
C47 C 0.41576 0.8083 0.22389 0.0
C48 C 0.43177 0.81411 0.17727 0.0
C49 C 0.79437 0.93916 0.04099 0.0
C50 C 0.79656 0.76567 0.12467 0.0
C51 C 0.0178 0.74026 0.96338 0.0
C52 C 0.0357 0.73785 0.91301 0.0
C53 C 0.03257 0.66673 0.8837 0.0
C54 C 0.04398 0.66641 0.83604 0.0
C55 C 0.05871 0.73716 0.81675 0.0
C56 C 0.0617 0.80791 0.8461 0.0
C57 C 0.05094 0.80827 0.89345 0.0
C58 C 0.66112 0.65053 1.01629 0.0
C59 C 0.64081 0.82175 0.94466 0.0
O60 O 0.44216 0.83027 0.08234 0.0
O61 O 0.52729 0.94053 0.10368 0.0
O62 O 0.79592 0.87364 0.05655 0.0
O63 O 0.69497 0.96106 1.03299 0.0
O64 O 0.8702 0.74857 0.09171 0.0
O65 O 0.69837 0.79468 0.11725 0.0
O66 O 0.98499 0.80779 0.98453 0.0
O67 O 0.96899 0.67989 0.97842 0.0
O68 O 0.65981 0.72356 1.02777 0.0
O69 O 0.75897 0.6287 1.00269 0.0
O70 O 0.5678 0.83722 0.97791 0.0
O71 O 0.74279 0.80092 0.95212 0.0
H72 H 0.39174 1.01128 0.17824 0.0
H73 H 0.36358 1.00086 0.26021 0.0
H74 H 0.42315 0.75131 0.23622 0.0
H75 H 0.45248 0.76152 0.15483 0.0
H76 H 0.02117 0.61134 0.89754 0.0
H77 H 0.04336 0.61082 0.81442 0.0
H78 H 0.07248 0.86347 0.83236 0.0
H79 H 0.05375 0.86423 0.91471 0.0
Pr80 Pr 0.11723 0.74153 0.51204 0.0
Pr81 Pr 0.33934 0.83032 0.55429 0.0
C82 C 0.9488 0.69697 0.45651 0.0
C83 C 0.92437 0.70833 0.4085 0.0
C84 C 0.87957 0.64657 0.37886 0.0
C85 C 0.86304 0.65504 0.33248 0.0
C86 C 0.89066 0.72556 0.31508 0.0
C87 C 0.93675 0.78691 0.34472 0.0
C88 C 0.95363 0.77837 0.39094 0.0
C89 C 0.29637 0.64775 0.52579 0.0
C90 C 0.30123 0.82815 0.44453 0.0
C91 C 0.52051 0.84712 0.60551 0.0
C92 C 0.53456 0.84482 0.65557 0.0
C93 C 0.58445 0.90751 0.68291 0.0
C94 C 0.59424 0.90611 0.73046 0.0
C95 C 0.55489 0.84173 0.75138 0.0
C96 C 0.50305 0.78002 0.72416 0.0
C97 C 0.49287 0.78151 0.67692 0.0
C98 C 0.16563 0.93688 0.55284 0.0
C99 C 0.14607 0.75936 0.62278 0.0
O100 O 0.94513 0.75939 0.48688 0.0
O101 O 0.0323 0.65138 0.46199 0.0
O102 O 0.29974 0.71385 0.51087 0.0
O103 O 0.19632 0.62641 0.53334 0.0
O104 O 0.37544 0.84156 0.47731 0.0
O105 O 0.20305 0.7984 0.45159 0.0
O106 O 0.49384 0.78068 0.58145 0.0
O107 O 0.46728 0.90759 0.59312 0.0
O108 O 0.16477 0.86393 0.54133 0.0
O109 O 0.26331 0.95812 0.56649 0.0
O110 O 0.07172 0.7488 0.58994 0.0
O111 O 0.24835 0.77916 0.61478 0.0
H112 H 0.8582 0.59161 0.39155 0.0
H113 H 0.82724 0.60704 0.31032 0.0
H114 H 0.96041 0.84142 0.33202 0.0
H115 H -0.0093 0.82628 0.4128 0.0
H116 H 0.61597 0.95747 0.66749 0.0
H117 H 0.63475 0.95436 0.75071 0.0
H118 H 0.47063 0.73024 0.7395 0.0
H119 H 0.45183 0.73291 0.6572 0.0
Pr120 Pr 0.64548 0.26004 0.51089 0.0
Pr121 Pr 0.84901 0.35548 0.56118 0.0
C122 C 0.46906 0.23188 0.4575 0.0
C123 C 0.45717 0.22509 0.40713 0.0
C124 C 0.39063 0.16675 0.38422 0.0
C125 C 0.38091 0.16012 0.33639 0.0
C126 C 0.43766 0.21178 0.31061 0.0
C127 C 0.50492 0.26962 0.33376 0.0
C128 C 0.51496 0.27588 0.38137 0.0
C129 C 0.82342 0.15781 0.51745 0.0
C130 C 0.84257 0.34241 0.45046 0.0
C131 C -0.00189 0.41794 0.62207 0.0
C132 C 0.02672 0.40188 0.66868 0.0
C133 C 0.08132 0.45849 0.69856 0.0
C134 C 0.09942 0.4456 0.7442 0.0
C135 C 0.06298 0.37594 0.76045 0.0
C136 C 0.00712 0.32005 0.73046 0.0
C137 C -0.01044 0.33286 0.68504 0.0
C138 C 0.67032 0.44304 0.53835 0.0
C139 C 0.66728 0.25596 0.62064 0.0
O140 O 0.49375 0.30187 0.47759 0.0
O141 O 0.52337 0.17548 0.47387 0.0
O142 O 0.81921 0.23038 0.53038 0.0
O143 O 0.73084 0.13513 0.49893 0.0
O144 O 0.91125 0.34954 0.48541 0.0
O145 O 0.74003 0.31941 0.45424 0.0
O146 O 0.02256 0.36354 0.58845 0.0
O147 O 0.90028 0.44708 0.61844 0.0
O148 O 0.66532 0.37853 0.5551 0.0
O149 O 0.77083 0.46513 0.5335 0.0
O150 O 0.59619 0.24938 0.58658 0.0
O151 O 0.76763 0.28355 0.6163 0.0
H152 H 0.34603 0.12646 0.4033 0.0
H153 H 0.3281 0.11505 0.31961 0.0
H154 H 0.54715 0.31188 0.31531 0.0
H155 H 0.56691 0.32137 0.39809 0.0
H156 H 0.10875 0.51288 0.68676 0.0
H157 H 0.14271 0.48962 0.76664 0.0
H158 H 0.97602 0.26662 0.74224 0.0
H159 H 0.94577 0.28915 0.66279 0.0
C160 C 0.48705 0.61584 0.05451 0.0
C161 C 0.57182 0.59499 1.02308 0.0
C162 C 0.40627 0.56119 0.06328 0.0
C163 C 0.40746 0.48387 0.04092 0.0
H164 H 0.48439 0.67406 0.07318 0.0
H165 H 0.34286 0.57957 0.08808 0.0
S166 S 0.6068 0.40306 0.9524 0.0
N167 N 0.64923 0.49358 0.96774 0.0
N168 N 0.49652 0.39173 0.98362 0.0
C169 C 0.49043 0.4632 1.00864 0.0
C170 C 0.57282 0.51858 0.99988 0.0
C171 C 0.38304 0.52631 0.54866 0.0
C172 C 0.39246 0.59609 0.52797 0.0
C173 C 0.47276 0.47601 0.55096 0.0
C174 C 0.57504 0.49386 0.5327 0.0
H175 H 0.30603 0.51067 0.56356 0.0
H176 H 0.46226 0.42349 0.56785 0.0
S177 S 0.64054 0.66626 0.4717 0.0
N178 N 0.51078 0.67817 0.48655 0.0
N179 N 0.67927 0.58396 0.49113 0.0
C180 C 0.58498 0.56253 0.51101 0.0
C181 C 0.49371 0.61365 0.50862 0.0
C182 C 0.97407 0.11086 1.0183 0.0
C183 C 0.07552 0.09156 0.03643 0.0
C184 C 0.88358 0.06101 1.01976 0.0
C185 C 0.89134 0.99021 0.03945 0.0
H186 H 0.96476 0.16429 1.00221 0.0
H187 H 0.80725 0.07789 1.00507 0.0
S188 S 0.13701 0.91543 0.09448 0.0
N189 N 0.17739 0.99859 0.07645 0.0
N190 N 0.00746 0.90519 0.07952 0.0
C191 C -0.00816 0.97103 0.05855 0.0
C192 C 0.08391 1.0217 0.05699 0.0
C193 C 0.90794 1.02403 0.50737 0.0
C194 C 0.91236 0.1031 0.5268 0.0
C195 C -0.01106 0.96988 0.51646 0.0
C196 C 0.07719 0.99282 0.54535 0.0
H197 H 0.84158 1.00373 0.48474 0.0
H198 H 0.98339 0.91019 0.50011 0.0
S199 S 0.12466 0.19148 0.60634 0.0
N200 N 0.01077 0.20034 0.57741 0.0
N201 N 0.16302 0.09914 0.5943 0.0
C202 C 0.08208 0.07133 0.5653 0.0
C203 C -0.00031 0.12632 0.55608 0.0
C204 C 0.3103 0.20738 0.24421 0.0
C205 C 0.41814 0.21091 0.2605 0.0
C206 C 0.28692 0.21645 0.19858 0.0
C207 C 0.37021 0.22948 0.16694 0.0
H208 H 0.24251 0.20087 0.26734 0.0
H209 H 0.20189 0.21482 0.18839 0.0
S210 S 0.66772 0.23564 0.19105 0.0
N211 N 0.6105 0.22176 0.24054 0.0
N212 N 0.5661 0.23987 0.15454 0.0
C213 C 0.47909 0.22937 0.18209 0.0
C214 C 0.50308 0.22015 0.22889 0.0
C215 C 0.29031 0.81322 0.31473 0.0
C216 C 0.3696 0.86716 0.30348 0.0
C217 C 0.26907 0.80187 0.36035 0.0
C218 C 0.32741 0.84309 0.3968 0.0
H219 H 0.24376 0.77961 0.28796 0.0
H220 H 0.20709 0.75934 0.36689 0.0
S221 S 0.54441 0.99114 0.38549 0.0
N222 N 0.50613 0.9632 0.33224 0.0
N223 N 0.4683 0.94047 0.41826 0.0
C224 C 0.40734 0.89727 0.38605 0.0
C225 C 0.42762 0.90985 0.33937 0.0
C226 C 0.55232 0.88845 0.88191 0.0
C227 C 0.61032 0.82457 0.89609 0.0
C228 C 0.53516 0.89448 0.83496 0.0
C229 C 0.57336 0.83595 0.80093 0.0
H230 H 0.52328 0.93512 0.90706 0.0
H231 H 0.4916 0.94502 0.82521 0.0
S232 S 0.72626 0.656 0.82064 0.0
N233 N 0.70378 0.70131 0.87247 0.0
N234 N 0.67031 0.71205 0.78495 0.0
C235 C 0.62941 0.77132 0.81495 0.0
C236 C 0.64811 0.76579 0.86233 0.0
C237 C 0.71652 0.20946 0.69551 0.0
C238 C 0.6354 0.23334 0.66615 0.0
C239 C 0.69172 0.1949 0.7404 0.0
C240 C 0.58478 0.20411 0.75799 0.0
H241 H 0.80046 0.20266 0.68392 0.0
H242 H 0.7577 0.17875 0.76196 0.0
S243 S 0.34104 0.26106 0.6944 0.0
N244 N 0.44262 0.26225 0.65727 0.0
N245 N 0.39579 0.2345 0.74156 0.0
C246 C 0.50212 0.22558 0.72854 0.0
C247 C 0.52735 0.23998 0.68264 0.0
C248 C 0.88884 0.69373 0.18423 0.0
C249 C 0.82414 0.75661 0.17294 0.0
C250 C 0.90949 0.68334 0.23031 0.0
C251 C 0.86808 0.73643 0.2665 0.0
H252 H 0.92167 0.65145 0.1574 0.0
H253 H 0.95893 0.6339 0.23769 0.0
S254 S 0.69818 0.91226 0.25506 0.0
N255 N 0.72146 0.8737 0.20184 0.0
N256 N 0.76074 0.85427 0.28782 0.0
C257 C 0.80487 0.80001 0.25553 0.0
C258 C 0.78281 0.81005 0.20893 0.0
C259 C 0.97147 0.32858 0.38332 0.0
C260 C 0.87688 0.36189 0.40475 0.0
C261 C -0.00858 0.33324 0.33646 0.0
C262 C 0.91788 0.37189 0.30963 0.0
H263 H 0.02708 0.29508 0.40213 0.0
H264 H 0.06338 0.30446 0.3208 0.0
S265 S 0.66388 0.47553 0.35148 0.0
N266 N 0.7145 0.44084 0.39713 0.0
N267 N 0.74989 0.4478 0.30923 0.0
C268 C 0.82613 0.40899 0.33156 0.0
C269 C 0.80618 0.40435 0.37906 0.0
C270 C 0.05844 0.41636 0.84558 0.0
C271 C 0.08522 0.36031 0.80824 0.0
C272 C 0.07997 0.40216 0.89093 0.0
C273 C 0.13093 0.33216 0.90013 0.0
H274 H 0.02022 0.4713 0.83967 0.0
H275 H 0.05966 0.44701 0.91874 0.0
S276 S 0.2136 0.16569 0.8149 0.0
N277 N 0.16196 0.23124 0.78396 0.0
N278 N 0.20373 0.20525 0.86868 0.0
C279 C 0.15665 0.27547 0.86319 0.0
C280 C 0.13344 0.28933 0.81736 0.0
C281 C 0.18491 0.78961 0.70609 0.0
C282 C 0.11809 0.75135 0.67143 0.0
C283 C 0.16549 0.78336 0.75243 0.0
C284 C 0.07826 0.73851 0.76665 0.0
H285 H 0.25304 0.82569 0.69755 0.0
H286 H 0.21993 0.81401 0.77742 0.0
S287 S 0.87939 0.62513 0.69018 0.0
N288 N 0.96139 0.6657 0.6547 0.0
N289 N 0.92463 0.65397 0.74232 0.0
C290 C 0.01109 0.69896 0.73257 0.0
C291 C 0.03061 0.70574 0.68495 0.0
loop_
_geom_bond_atom_site_label_1
_geom_bond_atom_site_label_2
_geom_bond_distance
_geom_bond_site_symmetry_2
_ccdc_geom_bond_type
Pr0 C2 2.880 . S
Pr0 O20 2.562 . S
Pr0 O21 2.490 . S
Pr0 O22 2.695 1_554 S
Pr0 O23 2.512 . S
Pr0 O25 2.437 . S
Pr0 O28 2.436 . S
Pr0 O30 2.438 1_554 S
Pr1 C11 2.880 . S
Pr1 O22 2.436 . S
Pr1 O24 2.438 1_556 S
Pr1 O26 2.562 . S
Pr1 O27 2.490 . S
Pr1 O28 2.695 1_556 S
Pr1 O29 2.512 . S
Pr1 O31 2.437 . S
C2 Pr0 2.880 . S
C2 C3 1.491 . S
C2 O20 1.254 . S
C2 O21 1.225 . S
C3 C2 1.491 . S
C3 C4 1.392 1_455 S
C3 C8 1.356 1_455 S
C4 C3 1.392 1_655 S
C4 C5 1.368 . S
C4 H32 0.929 1_655 S
C5 C4 1.368 . S
C5 C6 1.386 . S
C5 H33 0.929 . S
C6 C5 1.386 . S
C6 C7 1.373 . S
C7 C6 1.373 . S
C7 C8 1.409 . S
C7 H34 0.931 . S
C8 C3 1.356 1_655 S
C8 C7 1.409 . S
C8 H35 0.930 1_655 S
C9 O22 1.270 1_554 S
C9 O23 1.248 . S
C10 O24 1.267 . S
C10 O25 1.278 . S
C11 Pr1 2.880 . S
C11 C12 1.491 . S
C11 O26 1.254 . S
C11 O27 1.225 . S
C12 C11 1.491 . S
C12 C13 1.392 . S
C12 C17 1.356 . S
C13 C12 1.392 . S
C13 C14 1.368 . S
C13 H36 0.929 . S
C14 C13 1.368 . S
C14 C15 1.386 . S
C14 H37 0.929 . S
C15 C14 1.386 . S
C15 C16 1.373 . S
C16 C15 1.373 . S
C16 C17 1.409 . S
C16 H38 0.931 . S
C17 C12 1.356 . S
C17 C16 1.409 . S
C17 H39 0.930 . S
C18 O28 1.270 1_556 S
C18 O29 1.248 . S
C19 O30 1.267 . S
C19 O31 1.278 . S
O20 Pr0 2.562 . S
O20 C2 1.254 . S
O21 Pr0 2.490 . S
O21 C2 1.225 . S
O22 Pr0 2.695 1_556 S
O22 Pr1 2.436 . S
O22 C9 1.270 1_556 S
O23 Pr0 2.512 . S
O23 C9 1.248 . S
O24 Pr1 2.438 1_554 S
O24 C10 1.267 . S
O25 Pr0 2.437 . S
O25 C10 1.278 . S
O26 Pr1 2.562 . S
O26 C11 1.254 . S
O27 Pr1 2.490 . S
O27 C11 1.225 . S
O28 Pr0 2.436 . S
O28 Pr1 2.695 1_554 S
O28 C18 1.270 1_554 S
O29 Pr1 2.512 . S
O29 C18 1.248 . S
O30 Pr0 2.438 1_556 S
O30 C19 1.267 . S
O31 Pr1 2.437 . S
O31 C19 1.278 . S
H32 C4 0.929 1_455 S
H33 C5 0.929 . S
H34 C7 0.931 . S
H35 C8 0.930 1_455 S
H36 C13 0.929 . S
H37 C14 0.929 . S
H38 C16 0.931 . S
H39 C17 0.930 . S
Pr40 C42 2.880 . S
Pr40 O60 2.562 . S
Pr40 O61 2.490 . S
Pr40 O62 2.695 1_554 S
Pr40 O63 2.512 . S
Pr40 O65 2.437 . S
Pr40 O68 2.436 . S
Pr40 O70 2.438 1_554 S
Pr41 C51 2.880 . S
Pr41 O62 2.436 . S
Pr41 O64 2.438 1_556 S
Pr41 O66 2.562 . S
Pr41 O67 2.490 . S
Pr41 O68 2.695 1_556 S
Pr41 O69 2.512 . S
Pr41 O71 2.437 . S
C42 Pr40 2.880 . S
C42 C43 1.491 . S
C42 O60 1.254 . S
C42 O61 1.225 . S
C43 C42 1.491 . S
C43 C44 1.392 . S
C43 C48 1.356 . S
C44 C43 1.392 . S
C44 C45 1.368 . S
C44 H72 0.929 . S
C45 C44 1.368 . S
C45 C46 1.386 . S
C45 H73 0.929 . S
C46 C45 1.386 . S
C46 C47 1.373 . S
C47 C46 1.373 . S
C47 C48 1.409 . S
C47 H74 0.931 . S
C48 C43 1.356 . S
C48 C47 1.409 . S
C48 H75 0.930 . S
C49 O62 1.270 1_554 S
C49 O63 1.248 . S
C50 O64 1.267 . S
C50 O65 1.278 . S
C51 Pr41 2.880 . S
C51 C52 1.491 . S
C51 O66 1.254 . S
C51 O67 1.225 . S
C52 C51 1.491 . S
C52 C53 1.392 1_655 S
C52 C57 1.356 1_655 S
C53 C52 1.392 1_455 S
C53 C54 1.368 . S
C53 H76 0.929 1_455 S
C54 C53 1.368 . S
C54 C55 1.386 . S
C54 H77 0.929 . S
C55 C54 1.386 . S
C55 C56 1.373 . S
C56 C55 1.373 . S
C56 C57 1.409 . S
C56 H78 0.931 . S
C57 C52 1.356 1_455 S
C57 C56 1.409 . S
C57 H79 0.930 1_455 S
C58 O68 1.270 1_556 S
C58 O69 1.248 . S
C59 O70 1.267 . S
C59 O71 1.278 . S
O60 Pr40 2.562 . S
O60 C42 1.254 . S
O61 Pr40 2.490 . S
O61 C42 1.225 . S
O62 Pr40 2.695 1_556 S
O62 Pr41 2.436 . S
O62 C49 1.270 1_556 S
O63 Pr40 2.512 . S
O63 C49 1.248 . S
O64 Pr41 2.438 1_554 S
O64 C50 1.267 . S
O65 Pr40 2.437 . S
O65 C50 1.278 . S
O66 Pr41 2.562 . S
O66 C51 1.254 . S
O67 Pr41 2.490 . S
O67 C51 1.225 . S
O68 Pr40 2.436 . S
O68 Pr41 2.695 1_554 S
O68 C58 1.270 1_554 S
O69 Pr41 2.512 . S
O69 C58 1.248 . S
O70 Pr40 2.438 1_556 S
O70 C59 1.267 . S
O71 Pr41 2.437 . S
O71 C59 1.278 . S
H72 C44 0.929 . S
H73 C45 0.929 . S
H74 C47 0.931 . S
H75 C48 0.930 . S
H76 C53 0.929 1_655 S
H77 C54 0.929 . S
H78 C56 0.931 . S
H79 C57 0.930 1_655 S
Pr80 C82 2.880 . S
Pr80 O100 2.562 . S
Pr80 O101 2.490 . S
Pr80 O102 2.695 . S
Pr80 O103 2.512 . S
Pr80 O105 2.437 . S
Pr80 O108 2.436 . S
Pr80 O110 2.438 . S
Pr81 C91 2.880 . S
Pr81 O102 2.436 . S
Pr81 O104 2.438 . S
Pr81 O106 2.562 . S
Pr81 O107 2.490 . S
Pr81 O108 2.695 . S
Pr81 O109 2.512 . S
Pr81 O111 2.437 . S
C82 Pr80 2.880 . S
C82 C83 1.491 . S
C82 O100 1.254 . S
C82 O101 1.225 . S
C83 C82 1.491 . S
C83 C84 1.392 1_455 S
C83 C88 1.356 1_455 S
C84 C83 1.392 1_655 S
C84 C85 1.368 . S
C84 H112 0.929 1_655 S
C85 C84 1.368 . S
C85 C86 1.386 . S
C85 H113 0.929 . S
C86 C85 1.386 . S
C86 C87 1.373 . S
C87 C86 1.373 . S
C87 C88 1.409 . S
C87 H114 0.931 . S
C88 C83 1.356 1_655 S
C88 C87 1.409 . S
C88 H115 0.930 1_655 S
C89 O102 1.270 . S
C89 O103 1.248 . S
C90 O104 1.267 . S
C90 O105 1.278 . S
C91 Pr81 2.880 . S
C91 C92 1.491 . S
C91 O106 1.254 . S
C91 O107 1.225 . S
C92 C91 1.491 . S
C92 C93 1.392 . S
C92 C97 1.356 . S
C93 C92 1.392 . S
C93 C94 1.368 . S
C93 H116 0.929 . S
C94 C93 1.368 . S
C94 C95 1.386 . S
C94 H117 0.929 . S
C95 C94 1.386 . S
C95 C96 1.373 . S
C96 C95 1.373 . S
C96 C97 1.409 . S
C96 H118 0.931 . S
C97 C92 1.356 . S
C97 C96 1.409 . S
C97 H119 0.930 . S
C98 O108 1.270 . S
C98 O109 1.248 . S
C99 O110 1.267 . S
C99 O111 1.278 . S
O100 Pr80 2.562 . S
O100 C82 1.254 . S
O101 Pr80 2.490 . S
O101 C82 1.225 . S
O102 Pr80 2.695 . S
O102 Pr81 2.436 . S
O102 C89 1.270 . S
O103 Pr80 2.512 . S
O103 C89 1.248 . S
O104 Pr81 2.438 . S
O104 C90 1.267 . S
O105 Pr80 2.437 . S
O105 C90 1.278 . S
O106 Pr81 2.562 . S
O106 C91 1.254 . S
O107 Pr81 2.490 . S
O107 C91 1.225 . S
O108 Pr80 2.436 . S
O108 Pr81 2.695 . S
O108 C98 1.270 . S
O109 Pr81 2.512 . S
O109 C98 1.248 . S
O110 Pr80 2.438 . S
O110 C99 1.267 . S
O111 Pr81 2.437 . S
O111 C99 1.278 . S
H112 C84 0.929 1_455 S
H113 C85 0.929 . S
H114 C87 0.931 . S
H115 C88 0.930 1_455 S
H116 C93 0.929 . S
H117 C94 0.929 . S
H118 C96 0.931 . S
H119 C97 0.930 . S
Pr120 C122 2.880 . S
Pr120 O140 2.562 . S
Pr120 O141 2.490 . S
Pr120 O142 2.695 . S
Pr120 O143 2.512 . S
Pr120 O145 2.437 . S
Pr120 O148 2.436 . S
Pr120 O150 2.438 . S
Pr121 C131 2.880 . S
Pr121 O142 2.436 . S
Pr121 O144 2.438 . S
Pr121 O146 2.562 . S
Pr121 O147 2.490 . S
Pr121 O148 2.695 . S
Pr121 O149 2.512 . S
Pr121 O151 2.437 . S
C122 Pr120 2.880 . S
C122 C123 1.491 . S
C122 O140 1.254 . S
C122 O141 1.225 . S
C123 C122 1.491 . S
C123 C124 1.392 . S
C123 C128 1.356 . S
C124 C123 1.392 . S
C124 C125 1.368 . S
C124 H152 0.929 . S
C125 C124 1.368 . S
C125 C126 1.386 . S
C125 H153 0.929 . S
C126 C125 1.386 . S
C126 C127 1.373 . S
C127 C126 1.373 . S
C127 C128 1.409 . S
C127 H154 0.931 . S
C128 C123 1.356 . S
C128 C127 1.409 . S
C128 H155 0.930 . S
C129 O142 1.270 . S
C129 O143 1.248 . S
C130 O144 1.267 . S
C130 O145 1.278 . S
C131 Pr121 2.880 . S
C131 C132 1.491 . S
C131 O146 1.254 . S
C131 O147 1.225 . S
C132 C131 1.491 . S
C132 C133 1.392 1_655 S
C132 C137 1.356 1_655 S
C133 C132 1.392 1_455 S
C133 C134 1.368 . S
C133 H156 0.929 1_455 S
C134 C133 1.368 . S
C134 C135 1.386 . S
C134 H157 0.929 . S
C135 C134 1.386 . S
C135 C136 1.373 . S
C136 C135 1.373 . S
C136 C137 1.409 . S
C136 H158 0.931 . S
C137 C132 1.356 1_455 S
C137 C136 1.409 . S
C137 H159 0.930 1_455 S
C138 O148 1.270 . S
C138 O149 1.248 . S
C139 O150 1.267 . S
C139 O151 1.278 . S
O140 Pr120 2.562 . S
O140 C122 1.254 . S
O141 Pr120 2.490 . S
O141 C122 1.225 . S
O142 Pr120 2.695 . S
O142 Pr121 2.436 . S
O142 C129 1.270 . S
O143 Pr120 2.512 . S
O143 C129 1.248 . S
O144 Pr121 2.438 . S
O144 C130 1.267 . S
O145 Pr120 2.437 . S
O145 C130 1.278 . S
O146 Pr121 2.562 . S
O146 C131 1.254 . S
O147 Pr121 2.490 . S
O147 C131 1.225 . S
O148 Pr120 2.436 . S
O148 Pr121 2.695 . S
O148 C138 1.270 . S
O149 Pr121 2.512 . S
O149 C138 1.248 . S
O150 Pr120 2.438 . S
O150 C139 1.267 . S
O151 Pr121 2.437 . S
O151 C139 1.278 . S
H152 C124 0.929 . S
H153 C125 0.929 . S
H154 C127 0.931 . S
H155 C128 0.930 . S
H156 C133 0.929 1_655 S
H157 C134 0.929 . S
H158 C136 0.931 . S
H159 C137 0.930 1_655 S
C160 C161 1.363 1_554 S
C160 C162 1.419 . S
C160 H164 0.930 . S
C161 C160 1.363 1_556 S
C161 C170 1.434 . S
C162 C160 1.419 . S
C162 C163 1.373 . S
C162 H165 0.929 . S
C163 C162 1.373 . S
C163 C169 1.417 1_554 S
H164 C160 0.930 . S
H165 C162 0.929 . S
S166 N167 1.613 . S
S166 N168 1.610 . S
N167 S166 1.613 . S
N167 C170 1.350 . S
N168 S166 1.610 . S
N168 C169 1.351 . S
C169 C163 1.417 1_556 S
C169 N168 1.351 . S
C169 C170 1.434 . S
C170 C161 1.434 . S
C170 N167 1.350 . S
C170 C169 1.434 . S
C171 C172 1.369 . S
C171 C173 1.419 . S
C171 H175 0.930 . S
C172 C171 1.369 . S
C172 C181 1.429 . S
C173 C171 1.419 . S
C173 C174 1.363 . S
C173 H176 0.929 . S
C174 C173 1.363 . S
C174 C180 1.428 . S
H175 C171 0.930 . S
H176 C173 0.929 . S
S177 N178 1.613 . S
S177 N179 1.610 . S
N178 S177 1.613 . S
N178 C181 1.350 . S
N179 S177 1.610 . S
N179 C180 1.351 . S
C180 C174 1.428 . S
C180 N179 1.351 . S
C180 C181 1.434 . S
C181 C172 1.429 . S
C181 N178 1.350 . S
C181 C180 1.434 . S
C182 C183 1.369 1_654 S
C182 C184 1.419 . S
C182 H186 0.930 . S
C183 C182 1.369 1_456 S
C183 C192 1.429 1_545 S
C184 C182 1.419 . S
C184 C185 1.365 1_545 S
C184 H187 0.929 . S
C185 C184 1.365 1_565 S
C185 C191 1.425 1_654 S
H186 C182 0.930 . S
H187 C184 0.929 . S
S188 N189 1.613 . S
S188 N190 1.610 . S
N189 S188 1.613 . S
N189 C192 1.350 . S
N190 S188 1.610 . S
N190 C191 1.351 . S
C191 C185 1.425 1_456 S
C191 N190 1.351 . S
C191 C192 1.434 . S
C192 C183 1.429 1_565 S
C192 N189 1.350 . S
C192 C191 1.434 . S
C193 C194 1.369 . S
C193 C195 1.419 1_645 S
C193 H197 0.930 . S
C194 C193 1.369 . S
C194 C203 1.429 . S
C195 C193 1.419 1_465 S
C195 C196 1.363 . S
C195 H198 0.929 . S
C196 C195 1.363 . S
C196 C202 1.428 . S
H197 C193 0.930 . S
H198 C195 0.929 . S
S199 N200 1.613 . S
S199 N201 1.610 1_645 S
N200 S199 1.613 . S
N200 C203 1.350 . S
N201 S199 1.610 1_465 S
N201 C202 1.351 . S
C202 C196 1.428 . S
C202 N201 1.351 . S
C202 C203 1.434 1_465 S
C203 C194 1.429 . S
C203 N200 1.350 . S
C203 C202 1.434 1_645 S
C204 C205 1.369 . S
C204 C206 1.419 . S
C204 H208 0.930 . S
C205 C204 1.369 . S
C205 C214 1.429 . S
C206 C204 1.419 . S
C206 C207 1.363 . S
C206 H209 0.929 . S
C207 C206 1.363 . S
C207 C213 1.428 . S
H208 C204 0.930 . S
H209 C206 0.929 . S
S210 N211 1.613 . S
S210 N212 1.610 . S
N211 S210 1.613 . S
N211 C214 1.350 . S
N212 S210 1.610 . S
N212 C213 1.351 . S
C213 C207 1.428 . S
C213 N212 1.351 . S
C213 C214 1.434 . S
C214 C205 1.429 . S
C214 N211 1.350 . S
C214 C213 1.434 . S
C215 C216 1.369 . S
C215 C217 1.419 . S
C215 H219 0.930 . S
C216 C215 1.369 . S
C216 C225 1.429 . S
C217 C215 1.419 . S
C217 C218 1.363 . S
C217 H220 0.929 . S
C218 C217 1.363 . S
C218 C224 1.428 . S
H219 C215 0.930 . S
H220 C217 0.929 . S
S221 N222 1.613 . S
S221 N223 1.610 . S
N222 S221 1.613 . S
N222 C225 1.350 . S
N223 S221 1.610 . S
N223 C224 1.351 . S
C224 C218 1.428 . S
C224 N223 1.351 . S
C224 C225 1.434 . S
C225 C216 1.429 . S
C225 N222 1.350 . S
C225 C224 1.434 . S
C226 C227 1.369 . S
C226 C228 1.419 . S
C226 H230 0.930 . S
C227 C226 1.369 . S
C227 C236 1.429 . S
C228 C226 1.419 . S
C228 C229 1.363 . S
C228 H231 0.929 . S
C229 C228 1.363 . S
C229 C235 1.428 . S
H230 C226 0.930 . S
H231 C228 0.929 . S
S232 N233 1.613 . S
S232 N234 1.610 . S
N233 S232 1.613 . S
N233 C236 1.350 . S
N234 S232 1.610 . S
N234 C235 1.351 . S
C235 C229 1.428 . S
C235 N234 1.351 . S
C235 C236 1.434 . S
C236 C227 1.429 . S
C236 N233 1.350 . S
C236 C235 1.434 . S
C237 C238 1.369 . S
C237 C239 1.419 . S
C237 H241 0.930 . S
C238 C237 1.369 . S
C238 C247 1.429 . S
C239 C237 1.419 . S
C239 C240 1.363 . S
C239 H242 0.929 . S
C240 C239 1.363 . S
C240 C246 1.428 . S
H241 C237 0.930 . S
H242 C239 0.929 . S
S243 N244 1.613 . S
S243 N245 1.610 . S
N244 S243 1.613 . S
N244 C247 1.350 . S
N245 S243 1.610 . S
N245 C246 1.351 . S
C246 C240 1.428 . S
C246 N245 1.351 . S
C246 C247 1.434 . S
C247 C238 1.429 . S
C247 N244 1.350 . S
C247 C246 1.434 . S
C248 C249 1.369 . S
C248 C250 1.419 . S
C248 H252 0.930 . S
C249 C248 1.369 . S
C249 C258 1.429 . S
C250 C248 1.419 . S
C250 C251 1.363 . S
C250 H253 0.929 1_655 S
C251 C250 1.363 . S
C251 C257 1.428 . S
H252 C248 0.930 . S
H253 C250 0.929 1_455 S
S254 N255 1.613 . S
S254 N256 1.610 . S
N255 S254 1.613 . S
N255 C258 1.350 . S
N256 S254 1.610 . S
N256 C257 1.351 . S
C257 C251 1.428 . S
C257 N256 1.351 . S
C257 C258 1.434 . S
C258 C249 1.429 . S
C258 N255 1.350 . S
C258 C257 1.434 . S
C259 C260 1.369 . S
C259 C261 1.419 . S
C259 H263 0.930 . S
C260 C259 1.369 . S
C260 C269 1.429 . S
C261 C259 1.419 . S
C261 C262 1.363 . S
C261 H264 0.929 1_655 S
C262 C261 1.363 . S
C262 C268 1.428 . S
H263 C259 0.930 . S
H264 C261 0.929 1_455 S
S265 N266 1.613 . S
S265 N267 1.610 . S
N266 S265 1.613 . S
N266 C269 1.350 . S
N267 S265 1.610 . S
N267 C268 1.351 . S
C268 C262 1.428 . S
C268 N267 1.351 . S
C268 C269 1.434 . S
C269 C260 1.429 . S
C269 N266 1.350 . S
C269 C268 1.434 . S
C270 C271 1.369 . S
C270 C272 1.419 . S
C270 H274 0.930 1_455 S
C271 C270 1.369 . S
C271 C280 1.429 . S
C272 C270 1.419 . S
C272 C273 1.363 . S
C272 H275 0.929 1_455 S
C273 C272 1.363 . S
C273 C279 1.428 . S
H274 C270 0.930 1_655 S
H275 C272 0.929 1_655 S
S276 N277 1.613 . S
S276 N278 1.610 . S
N277 S276 1.613 . S
N277 C280 1.350 . S
N278 S276 1.610 . S
N278 C279 1.351 . S
C279 C273 1.428 . S
C279 N278 1.351 . S
C279 C280 1.434 . S
C280 C271 1.429 . S
C280 N277 1.350 . S
C280 C279 1.434 . S
C281 C282 1.369 . S
C281 C283 1.419 . S
C281 H285 0.930 . S
C282 C281 1.369 . S
C282 C291 1.429 . S
C283 C281 1.419 . S
C283 C284 1.363 . S
C283 H286 0.929 . S
C284 C283 1.363 . S
C284 C290 1.428 . S
H285 C281 0.930 . S
H286 C283 0.929 . S
S287 N288 1.613 . S
S287 N289 1.610 . S
N288 S287 1.613 . S
N288 C291 1.350 1_655 S
N289 S287 1.610 . S
N289 C290 1.351 1_655 S
C290 C284 1.428 . S
C290 N289 1.351 1_455 S
C290 C291 1.434 . S
C291 C282 1.429 . S
C291 N288 1.350 1_455 S
C291 C290 1.434 . S
C161 C58 1.554 . S
C163 C9 1.557 . S
C172 C89 1.553 . S
C174 C138 1.555 . S
C183 C18 1.552 . S
C185 C49 1.559 . S
C194 C129 1.556 . S
C196 C98 1.552 . S
C205 C126 1.397 . S
C207 C10 1.441 . S
C216 C46 1.401 . S
C218 C90 1.441 . S
C227 C59 1.439 . S
C229 C95 1.398 . S
C238 C139 1.440 . S
C240 C15 1.397 . S
C249 C50 1.439 . S
C251 C86 1.399 . S
C260 C130 1.439 . S
C262 C6 1.404 . S
C271 C135 1.399 . S
C273 C19 1.439 . S
C282 C99 1.441 . S
C284 C55 1.400 . S
