# Generated by pormake.
# Topology wjd, (6)-cn, num edge types: 1
# Building blocks:
#     Node 0, Type 0, BuildingBlock: CUWYAW_clean_sbu_0, # of connection points: 6
#     Node 1, Type 0, BuildingBlock: CUWYAW_clean_sbu_0, # of connection points: 6
#     Node 2, Type 0, BuildingBlock: CUWYAW_clean_sbu_0, # of connection points: 6
#     Node 3, Type 0, BuildingBlock: CUWYAW_clean_sbu_0, # of connection points: 6
#     Node 4, Type 0, BuildingBlock: CUWYAW_clean_sbu_0, # of connection points: 6
#     Node 5, Type 0, BuildingBlock: CUWYAW_clean_sbu_0, # of connection points: 6
#     Node 6, Type 0, BuildingBlock: CUWYAW_clean_sbu_0, # of connection points: 6
#     Node 7, Type 0, BuildingBlock: CUWYAW_clean_sbu_0, # of connection points: 6
#     Node 8, Type 0, BuildingBlock: CUWYAW_clean_sbu_0, # of connection points: 6
#     Node 9, Type 0, BuildingBlock: CUWYAW_clean_sbu_0, # of connection points: 6
#     Node 10, Type 0, BuildingBlock: CUWYAW_clean_sbu_0, # of connection points: 6
#     Node 11, Type 0, BuildingBlock: CUWYAW_clean_sbu_0, # of connection points: 6
#     Edge 12, Type (0, 0), BuildingBlock: EZIPEK_clean_linker_0, # of connection points: 2
#     Edge 13, Type (0, 0), BuildingBlock: EZIPEK_clean_linker_0, # of connection points: 2
#     Edge 14, Type (0, 0), BuildingBlock: EZIPEK_clean_linker_0, # of connection points: 2
#     Edge 15, Type (0, 0), BuildingBlock: EZIPEK_clean_linker_0, # of connection points: 2
#     Edge 16, Type (0, 0), BuildingBlock: EZIPEK_clean_linker_0, # of connection points: 2
#     Edge 17, Type (0, 0), BuildingBlock: EZIPEK_clean_linker_0, # of connection points: 2
#     Edge 18, Type (0, 0), BuildingBlock: EZIPEK_clean_linker_0, # of connection points: 2
#     Edge 19, Type (0, 0), BuildingBlock: EZIPEK_clean_linker_0, # of connection points: 2
#     Edge 20, Type (0, 0), BuildingBlock: EZIPEK_clean_linker_0, # of connection points: 2
#     Edge 21, Type (0, 0), BuildingBlock: EZIPEK_clean_linker_0, # of connection points: 2
#     Edge 22, Type (0, 0), BuildingBlock: EZIPEK_clean_linker_0, # of connection points: 2
#     Edge 23, Type (0, 0), BuildingBlock: EZIPEK_clean_linker_0, # of connection points: 2
#     Edge 24, Type (0, 0), BuildingBlock: EZIPEK_clean_linker_0, # of connection points: 2
#     Edge 25, Type (0, 0), BuildingBlock: EZIPEK_clean_linker_0, # of connection points: 2
#     Edge 26, Type (0, 0), BuildingBlock: EZIPEK_clean_linker_0, # of connection points: 2
#     Edge 27, Type (0, 0), BuildingBlock: EZIPEK_clean_linker_0, # of connection points: 2
#     Edge 28, Type (0, 0), BuildingBlock: EZIPEK_clean_linker_0, # of connection points: 2
#     Edge 29, Type (0, 0), BuildingBlock: EZIPEK_clean_linker_0, # of connection points: 2
#     Edge 30, Type (0, 0), BuildingBlock: EZIPEK_clean_linker_0, # of connection points: 2
#     Edge 31, Type (0, 0), BuildingBlock: EZIPEK_clean_linker_0, # of connection points: 2
#     Edge 32, Type (0, 0), BuildingBlock: EZIPEK_clean_linker_0, # of connection points: 2
#     Edge 33, Type (0, 0), BuildingBlock: EZIPEK_clean_linker_0, # of connection points: 2
#     Edge 34, Type (0, 0), BuildingBlock: EZIPEK_clean_linker_0, # of connection points: 2
#     Edge 35, Type (0, 0), BuildingBlock: EZIPEK_clean_linker_0, # of connection points: 2
#     Edge 36, Type (0, 0), BuildingBlock: EZIPEK_clean_linker_0, # of connection points: 2
#     Edge 37, Type (0, 0), BuildingBlock: EZIPEK_clean_linker_0, # of connection points: 2
#     Edge 38, Type (0, 0), BuildingBlock: EZIPEK_clean_linker_0, # of connection points: 2
#     Edge 39, Type (0, 0), BuildingBlock: EZIPEK_clean_linker_0, # of connection points: 2
#     Edge 40, Type (0, 0), BuildingBlock: EZIPEK_clean_linker_0, # of connection points: 2
#     Edge 41, Type (0, 0), BuildingBlock: EZIPEK_clean_linker_0, # of connection points: 2
#     Edge 42, Type (0, 0), BuildingBlock: EZIPEK_clean_linker_0, # of connection points: 2
#     Edge 43, Type (0, 0), BuildingBlock: EZIPEK_clean_linker_0, # of connection points: 2
#     Edge 44, Type (0, 0), BuildingBlock: EZIPEK_clean_linker_0, # of connection points: 2
#     Edge 45, Type (0, 0), BuildingBlock: EZIPEK_clean_linker_0, # of connection points: 2
#     Edge 46, Type (0, 0), BuildingBlock: EZIPEK_clean_linker_0, # of connection points: 2
#     Edge 47, Type (0, 0), BuildingBlock: EZIPEK_clean_linker_0, # of connection points: 2
# Relax obj value: 0.101
# Max RMSD: 0.228
# Mean RMSD: 0.228
data_MOF--net-wjd--node1-CUWYAW_clean_sbu_0--edge1-EZIPEK_clean_linker_0
_symmetry_space_group_name_H-M    P1
_symmetry_Int_Tables_number       1
_symmetry_cell_setting            triclinic
loop_
_symmetry_equiv_pos_as_xyz
'x, y, z'
_cell_length_a     31.866819
_cell_length_b     31.888381
_cell_length_c     37.602033
_cell_angle_alpha  90.290855
_cell_angle_beta   89.748525
_cell_angle_gamma 120.20667
loop_
_atom_site_label
_atom_site_type_symbol
_atom_site_fract_x
_atom_site_fract_y
_atom_site_fract_z
_atom_type_partial_charge
C0 C 0.28017 1.00164 0.12995 0.0
Eu1 Eu 0.33763 0.09544 0.12933 0.0
C2 C 0.22659 0.96988 0.12863 0.0
C3 C 0.19682 0.97033 0.15626 0.0
C4 C 0.14642 0.93993 0.15487 0.0
C5 C 0.12473 0.90866 0.12582 0.0
C6 C 0.15409 0.90871 0.09785 0.0
C7 C 0.20462 0.93906 0.09926 0.0
C8 C 0.37064 0.15329 0.18791 0.0
C9 C 0.29187 0.16394 0.13167 0.0
C10 C 0.44832 0.29023 0.09918 0.0
Eu11 Eu 0.40103 0.19628 0.10944 0.0
C12 C 0.4837 0.33746 0.11532 0.0
C13 C 0.46985 0.37243 0.12105 0.0
C14 C 0.50404 0.41967 0.13154 0.0
C15 C 0.55276 0.43278 0.13633 0.0
C16 C 0.56634 0.3974 0.1323 0.0
C17 C 0.5321 0.35006 0.12187 0.0
C18 C 0.35955 0.13209 0.0527 0.0
C19 C 0.45538 0.13956 0.12178 0.0
O20 O 0.30113 1.02598 0.10108 0.0
O21 O 0.29858 1.02763 0.15873 0.0
O22 O 0.32746 0.11617 0.18408 0.0
O23 O 0.3962 0.15804 0.16057 0.0
O24 O 0.28103 0.11873 0.12576 0.0
O25 O 0.33711 0.19947 0.13187 0.0
O26 O 0.40529 0.26668 0.11364 0.0
O27 O 0.4637 0.26138 0.08812 0.0
O28 O 0.40426 0.16649 0.05459 0.0
O29 O 0.3395 0.13403 0.08094 0.0
O30 O 0.45977 0.18245 0.12645 0.0
O31 O 0.4116 0.10031 0.11831 0.0
H32 H 0.21238 0.99386 0.17915 0.0
H33 H 0.12432 0.94014 0.17677 0.0
H34 H 0.13796 0.88457 0.07533 0.0
H35 H 0.2266 0.93819 0.07751 0.0
H36 H 0.43288 0.36376 0.11598 0.0
H37 H 0.49302 0.44661 0.13421 0.0
H38 H 0.6039 0.40704 0.13565 0.0
H39 H 0.54395 0.32398 0.11768 0.0
C40 C 0.87703 0.60754 0.44655 0.0
Eu41 Eu 0.85093 0.66826 0.42303 0.0
C42 C 0.88835 0.57036 0.4342 0.0
C43 C 0.88287 0.5343 0.45807 0.0
C44 C 0.89406 0.49894 0.44763 0.0
C45 C 0.9109 0.49898 0.41309 0.0
C46 C 0.91643 0.53504 0.38904 0.0
C47 C 0.90509 0.57052 0.39951 0.0
C48 C 0.82221 0.71796 0.4677 0.0
C49 C 0.74012 0.61058 0.39715 0.0
C50 C 0.78981 0.79066 0.37252 0.0
Eu51 Eu 0.81109 0.72374 0.38768 0.0
C52 C 0.81454 0.84372 0.37787 0.0
C53 C 0.8031 0.87207 0.35603 0.0
C54 C 0.8259 0.92235 0.36116 0.0
C55 C 0.86047 0.94499 0.38823 0.0
C56 C 0.87253 0.91676 0.40976 0.0
C57 C 0.84975 0.86648 0.40459 0.0
C58 C 0.83151 0.67222 0.34018 0.0
C59 C 0.92674 0.77443 0.40434 0.0
O60 O 0.9076 0.65252 0.4381 0.0
O61 O 0.83195 0.59702 0.44409 0.0
O62 O 0.8597 0.71354 0.47362 0.0
O63 O 0.80099 0.6937 0.4408 0.0
O64 O 0.7806 0.60904 0.39969 0.0
O65 O 0.74091 0.65251 0.39619 0.0
O66 O 0.77482 0.76417 0.4013 0.0
O67 O 0.81016 0.77509 0.34986 0.0
O68 O 0.79428 0.6784 0.33872 0.0
O69 O 0.85792 0.69491 0.36676 0.0
O70 O 0.88875 0.78067 0.40373 0.0
O71 O 0.921 0.7308 0.40531 0.0
H72 H 0.87003 0.53359 0.48492 0.0
H73 H 0.88951 0.47138 0.46651 0.0
H74 H 0.92934 0.53557 0.36226 0.0
H75 H 0.90948 0.59803 0.38066 0.0
H76 H 0.77626 0.85527 0.33518 0.0
H77 H 0.81612 0.94357 0.34434 0.0
H78 H 0.89905 0.93357 0.4308 0.0
H79 H 0.85929 0.84533 0.42164 0.0
C80 C 0.07922 0.31251 0.14398 0.0
Eu81 Eu 0.98568 0.27324 0.13626 0.0
C82 C 0.10907 0.28951 0.1489 0.0
C83 C 0.15962 0.31752 0.15292 0.0
C84 C 0.18797 0.29515 0.15258 0.0
C85 C 0.16599 0.24462 0.14798 0.0
C86 C 0.11543 0.21664 0.14498 0.0
C87 C 0.08735 0.23893 0.14546 0.0
C88 C 0.91604 0.22478 0.18709 0.0
C89 C 0.9259 0.15843 0.12216 0.0
C90 C 0.79262 0.1895 0.08908 0.0
Eu91 Eu 0.88403 0.22684 0.10674 0.0
C92 C 0.74448 0.18387 0.09814 0.0
C93 C 0.72412 0.20444 0.07605 0.0
C94 C 0.67633 0.19433 0.08143 0.0
C95 C 0.64772 0.16316 0.10886 0.0
C96 C 0.66803 0.14297 0.13125 0.0
C97 C 0.71587 0.15318 0.12597 0.0
C98 C 0.95908 0.25486 0.05788 0.0
C99 C 0.93455 0.33915 0.13023 0.0
O100 O 0.05761 0.30332 0.11308 0.0
O101 O 0.05024 0.30873 0.17021 0.0
O102 O 0.95748 0.22669 0.18499 0.0
O103 O 0.91324 0.25004 0.16224 0.0
O104 O 0.96883 0.19787 0.11808 0.0
O105 O 0.88649 0.1615 0.12495 0.0
O106 O 0.80918 0.16795 0.10948 0.0
O107 O 0.82719 0.23118 0.0769 0.0
O108 O 0.91739 0.21548 0.05489 0.0
O109 O 0.95717 0.27681 0.0848 0.0
O110 O 0.89318 0.29851 0.1244 0.0
O111 O 0.97624 0.33973 0.13452 0.0
H112 H 0.17724 0.35664 0.15514 0.0
H113 H 0.22708 0.31731 0.15472 0.0
H114 H 0.09786 0.17772 0.1412 0.0
H115 H 0.04878 0.21678 0.14165 0.0
H116 H 0.74479 0.22747 0.05403 0.0
H117 H 0.66141 0.21037 0.06389 0.0
H118 H 0.64665 0.11891 0.1526 0.0
H119 H 0.72995 0.13608 0.14323 0.0
C120 C 0.43892 0.28526 0.42968 0.0
Eu121 Eu 0.39644 0.19225 0.41579 0.0
C122 C 0.48129 0.33244 0.4206 0.0
C123 C 0.48799 0.37389 0.43869 0.0
C124 C 0.52849 0.4192 0.43159 0.0
C125 C 0.56286 0.42375 0.40618 0.0
C126 C 0.55575 0.38243 0.38742 0.0
C127 C 0.51505 0.33689 0.39458 0.0
C128 C 0.35486 0.1245 0.46999 0.0
C129 C 0.45631 0.14152 0.40232 0.0
C130 C 0.28566 0.99936 0.38641 0.0
Eu131 Eu 0.3386 0.09313 0.39223 0.0
C132 C 0.23288 0.9681 0.39084 0.0
C133 C 0.20776 0.92349 0.37299 0.0
C134 C 0.15713 0.89542 0.37569 0.0
C135 C 0.13127 0.91183 0.39621 0.0
C136 C 0.15637 0.95644 0.41401 0.0
C137 C 0.20679 0.98447 0.41118 0.0
C138 C 0.37198 0.15511 0.33607 0.0
C139 C 0.28535 0.15423 0.39619 0.0
O140 O 0.40624 0.26374 0.40496 0.0
O141 O 0.44689 0.25499 0.4476 0.0
O142 O 0.39935 0.15964 0.4692 0.0
O143 O 0.33503 0.1269 0.44192 0.0
O144 O 0.45856 0.18356 0.39902 0.0
O145 O 0.4135 0.10083 0.4041 0.0
O146 O 0.29898 1.02849 0.35914 0.0
O147 O 0.30985 1.02115 0.41524 0.0
O148 O 0.32867 0.11817 0.33926 0.0
O149 O 0.39684 0.1584 0.36335 0.0
O150 O 0.2779 0.10993 0.39995 0.0
O151 O 0.32941 0.19187 0.39686 0.0
H152 H 0.4622 0.37108 0.45877 0.0
H153 H 0.5337 0.4506 0.44654 0.0
H154 H 0.58227 0.38528 0.36801 0.0
H155 H 0.5103 0.30519 0.38032 0.0
H156 H 0.22721 0.91059 0.35682 0.0
H157 H 0.13812 0.86087 0.36195 0.0
H158 H 0.13692 0.96944 0.43007 0.0
H159 H 0.22541 1.01912 0.42468 0.0
C160 C 0.79739 0.8077 0.16914 0.0
Eu161 Eu 0.80591 0.73285 0.15205 0.0
C162 C 0.82404 0.85983 0.1611 0.0
C163 C 0.81581 0.89166 0.18178 0.0
C164 C 0.83859 0.94087 0.17314 0.0
C165 C 0.86981 0.95878 0.14367 0.0
C166 C 0.87907 0.92721 0.12343 0.0
C167 C 0.85626 0.87792 0.1321 0.0
C168 C 0.82275 0.67911 0.19891 0.0
C169 C 0.91774 0.76808 0.12928 0.0
C170 C 0.84159 0.59239 0.09658 0.0
Eu171 Eu 0.82944 0.66471 0.11556 0.0
C172 C 0.86284 0.56272 0.10862 0.0
C173 C 0.83148 0.51384 0.11759 0.0
C174 C 0.84974 0.48307 0.12478 0.0
C175 C 0.89979 0.5004 0.12315 0.0
C176 C 0.93161 0.54966 0.11561 0.0
C177 C 0.91328 0.58062 0.10833 0.0
C178 C 0.80275 0.71634 0.07023 0.0
C179 C 0.72095 0.62212 0.14695 0.0
O180 O 0.77518 0.77908 0.14229 0.0
O181 O 0.81967 0.79155 0.18903 0.0
O182 O 0.78954 0.69094 0.20239 0.0
O183 O 0.847 0.69695 0.17052 0.0
O184 O 0.88419 0.7808 0.1322 0.0
O185 O 0.9052 0.72209 0.12822 0.0
O186 O 0.87067 0.63728 0.08675 0.0
O187 O 0.80375 0.5872 0.11402 0.0
O188 O 0.83309 0.70184 0.06247 0.0
O189 O 0.78503 0.69799 0.09978 0.0
O190 O 0.75531 0.61299 0.13752 0.0
O191 O 0.7297 0.66694 0.15181 0.0
H192 H 0.79109 0.87828 0.20423 0.0
H193 H 0.83114 0.96486 0.189 0.0
H194 H 0.90311 0.94055 0.10062 0.0
H195 H 0.86301 0.85381 0.1158 0.0
H196 H 0.79249 0.49885 0.11774 0.0
H197 H 0.8246 0.44509 0.13014 0.0
H198 H 0.97032 0.56354 0.11378 0.0
H199 H 0.93845 0.61799 0.10133 0.0
C200 C 0.79058 0.18145 0.43273 0.0
Eu201 Eu 0.88241 0.21955 0.41613 0.0
C202 C 0.7439 0.17989 0.42772 0.0
C203 C 0.70692 0.15484 0.45257 0.0
C204 C 0.66141 0.15067 0.44832 0.0
C205 C 0.65187 0.17414 0.42021 0.0
C206 C 0.68798 0.19409 0.39312 0.0
C207 C 0.73372 0.19827 0.39735 0.0
C208 C 0.95501 0.2459 0.466 0.0
C209 C 0.93539 0.33289 0.39517 0.0
C210 C 0.077 0.3045 0.38053 0.0
Eu211 Eu 0.98346 0.26412 0.38785 0.0
C212 C 0.10672 0.28166 0.37496 0.0
C213 C 0.08373 0.23156 0.36832 0.0
C214 C 0.10987 0.20723 0.36974 0.0
C215 C 0.15963 0.23284 0.37749 0.0
C216 C 0.18317 0.28338 0.38263 0.0
C217 C 0.15677 0.30762 0.38158 0.0
C218 C 0.91666 0.22006 0.33535 0.0
C219 C 0.92272 0.14879 0.40137 0.0
O220 O 0.80653 0.16611 0.4065 0.0
O221 O 0.82544 0.21839 0.44974 0.0
O222 O 0.91336 0.20629 0.46783 0.0
O223 O 0.95494 0.26889 0.4393 0.0
O224 O 0.89443 0.29398 0.40481 0.0
O225 O 0.97509 0.33108 0.38712 0.0
O226 O 0.05508 0.29448 0.4114 0.0
O227 O 0.0483 0.30098 0.35439 0.0
O228 O 0.95633 0.21868 0.33867 0.0
O229 O 0.91279 0.24426 0.36089 0.0
O230 O 0.96633 0.18787 0.40406 0.0
O231 O 0.88389 0.15286 0.3993 0.0
H232 H 0.71284 0.13735 0.47508 0.0
H233 H 0.6337 0.12775 0.46713 0.0
H234 H 0.68153 0.20531 0.36777 0.0
H235 H 0.7607 0.21484 0.37649 0.0
H236 H 0.04509 0.21095 0.36365 0.0
H237 H 0.09102 0.16824 0.36595 0.0
H238 H 0.22154 0.30365 0.38884 0.0
H239 H 0.17497 0.34613 0.38735 0.0
C240 C 0.28277 0.45502 0.59024 0.0
Eu241 Eu 0.19529 0.38971 0.61084 0.0
C242 C 0.33402 0.48359 0.60214 0.0
C243 C 0.37048 0.48258 0.58165 0.0
C244 C 0.41957 0.51564 0.58827 0.0
C245 C 0.43307 0.55051 0.61539 0.0
C246 C 0.39692 0.54968 0.63735 0.0
C247 C 0.34778 0.51645 0.63085 0.0
C248 C 0.11938 0.3377 0.56438 0.0
C249 C 0.13456 0.44247 0.63495 0.0
C250 C 1.0169 0.26163 0.66353 0.0
Eu251 Eu 0.10253 0.33205 0.64566 0.0
C252 C 0.98924 0.20834 0.65838 0.0
C253 C 0.98452 0.17728 0.68627 0.0
C254 C 0.95511 0.12697 0.68258 0.0
C255 C 0.92631 0.10623 0.65183 0.0
C256 C 0.93805 0.13755 0.6222 0.0
C257 C 0.96762 0.18776 0.62567 0.0
C258 C 0.17424 0.38326 0.69389 0.0
C259 C 0.16926 0.28475 0.62851 0.0
O260 O 0.26418 0.4086 0.58442 0.0
O261 O 0.25162 0.46522 0.60466 0.0
O262 O 0.16277 0.34512 0.55971 0.0
O263 O 0.11926 0.361 0.59132 0.0
O264 O 0.17763 0.44742 0.62882 0.0
O265 O 0.09593 0.39912 0.63947 0.0
O266 O 1.02491 0.28862 0.63539 0.0
O267 O 0.0545 0.27887 0.68459 0.0
O268 O 0.13107 0.37773 0.69489 0.0
O269 O 0.17843 0.36189 0.6667 0.0
O270 O 0.12457 0.27716 0.62728 0.0
O271 O 0.20601 0.32942 0.63001 0.0
H272 H 0.36094 0.45789 0.55929 0.0
H273 H 0.44691 0.51597 0.57085 0.0
H274 H 0.40658 0.57651 0.65823 0.0
H275 H 0.32062 0.51819 0.64719 0.0
H276 H 1.00357 0.19184 0.71113 0.0
H277 H 0.95651 0.10569 0.7041 0.0
H278 H 0.92378 0.12377 0.59601 0.0
H279 H 0.973 0.21032 0.6027 0.0
C280 C 0.31564 0.06436 0.86971 0.0
Eu281 Eu 0.29839 0.97691 0.88357 0.0
C282 C 0.28811 0.08994 0.87363 0.0
C283 C 0.30079 0.13122 0.85307 0.0
C284 C 0.27599 0.15677 0.85733 0.0
C285 C 0.23807 0.14131 0.88218 0.0
C286 C 0.22451 0.09927 0.90216 0.0
C287 C 0.24943 0.07381 0.89798 0.0
C288 C 0.27919 0.90754 0.83358 0.0
C289 C 0.18373 0.90648 0.89824 0.0
C290 C 0.2392 0.79284 0.93591 0.0
Eu291 Eu 0.26209 0.88068 0.91629 0.0
C292 C 0.21842 0.74182 0.92347 0.0
C293 C 0.17709 0.70473 0.94054 0.0
C294 C 0.16136 0.65579 0.93354 0.0
C295 C 0.18676 0.64292 0.90939 0.0
C296 C 0.22661 0.67978 0.89096 0.0
C297 C 0.24233 0.72877 0.89791 0.0
C298 C 0.28964 0.95711 0.96376 0.0
C299 C 0.37359 0.9406 0.89247 0.0
O300 O 0.32867 0.05258 0.89922 0.0
O301 O 0.29936 1.02955 0.84607 0.0
O302 O 0.31634 0.95129 0.83333 0.0
O303 O 0.2531 0.90171 0.86087 0.0
O304 O 0.22018 0.95155 0.90089 0.0
O305 O 0.19218 0.87035 0.89614 0.0
O306 O 0.21008 0.81029 0.93966 0.0
O307 O 0.28193 0.82518 0.92395 0.0
O308 O 0.25322 0.91389 0.96884 0.0
O309 O 0.31042 0.95604 0.93586 0.0
O310 O 0.33455 0.89727 0.8941 0.0
O311 O 0.37045 0.98043 0.89238 0.0
H312 H 0.33036 0.1441 0.83408 0.0
H313 H 0.28702 0.1892 0.84178 0.0
H314 H 0.19546 0.08693 0.92154 0.0
H315 H 0.23902 0.04205 0.91415 0.0
H316 H 0.15818 0.71359 0.96055 0.0
H317 H 0.1308 0.62795 0.94827 0.0
H318 H 0.24696 0.67064 0.87245 0.0
H319 H 0.2744 0.75632 0.88434 0.0
C320 C 0.6305 0.86825 0.58073 0.0
Eu321 Eu 0.68619 0.83358 0.59874 0.0
C322 C 0.59752 0.88455 0.59429 0.0
C323 C 0.59879 0.9248 0.57822 0.0
C324 C 0.56439 0.93804 0.58711 0.0
C325 C 0.52824 0.91129 0.61234 0.0
C326 C 0.52833 0.87249 0.62985 0.0
C327 C 0.56281 0.85915 0.62088 0.0
C328 C 0.73375 0.80723 0.55081 0.0
C329 C 0.62701 0.71975 0.62104 0.0
C330 C 0.80602 0.7558 0.62458 0.0
Eu331 Eu 0.74337 0.78528 0.62833 0.0
C332 C 0.85906 0.77895 0.6292 0.0
C333 C 0.8839 0.8148 0.65526 0.0
C334 C 0.93473 0.83905 0.65702 0.0
C335 C 0.96129 0.82811 0.63252 0.0
C336 C 0.93647 0.7926 0.60639 0.0
C337 C 0.88579 0.76824 0.60475 0.0
C338 C 0.71299 0.81632 0.68496 0.0
C339 C 0.79294 0.90239 0.62515 0.0
O340 O 0.67662 0.89548 0.58806 0.0
O341 O 0.61573 0.82182 0.58166 0.0
O342 O 0.73061 0.84583 0.54722 0.0
O343 O 0.70989 0.78445 0.57749 0.0
O344 O 0.62607 0.7606 0.61744 0.0
O345 O 0.66817 0.71869 0.62271 0.0
O346 O 0.79288 0.77165 0.59731 0.0
O347 O 0.77912 0.74936 0.65285 0.0
O348 O 0.73731 0.79381 0.68736 0.0
O349 O 0.70516 0.82108 0.6526 0.0
O350 O 0.80052 0.86544 0.62123 0.0
O351 O 0.74903 0.89644 0.62452 0.0
H352 H 0.62526 0.94486 0.55766 0.0
H353 H 0.5645 0.96766 0.57305 0.0
H354 H 0.50027 0.85109 0.64908 0.0
H355 H 0.56123 0.82805 0.63372 0.0
H356 H 0.86411 0.82438 0.67396 0.0
H357 H 0.95337 0.8663 0.67741 0.0
H358 H 0.9564 0.78364 0.58736 0.0
H359 H 0.8674 0.74143 0.58403 0.0
C360 C 1.01842 0.26883 0.8782 0.0
Eu361 Eu 0.10977 0.33334 0.88878 0.0
C362 C 0.98558 0.21544 0.88202 0.0
C363 C 0.9756 0.18426 0.85265 0.0
C364 C 0.94259 0.13439 0.85562 0.0
C365 C 0.91851 0.11463 0.8879 0.0
C366 C 0.92869 0.14546 0.91739 0.0
C367 C 0.96185 0.19531 0.91451 0.0
C368 C 0.17857 0.38268 0.83843 0.0
C369 C 0.17328 0.2795 0.89849 0.0
C370 C 0.29937 0.44609 0.93912 0.0
Eu371 Eu 0.20883 0.38656 0.92019 0.0
C372 C 0.34945 0.47937 0.92563 0.0
C373 C 0.37471 0.52752 0.93808 0.0
C374 C 0.42331 0.5588 0.92856 0.0
C375 C 0.44796 0.54276 0.90632 0.0
C376 C 0.42276 0.49483 0.89337 0.0
C377 C 0.37396 0.46339 0.90293 0.0
C378 C 0.13317 0.33774 0.96791 0.0
C379 C 0.15645 0.44734 0.89936 0.0
O380 O 0.05146 0.28397 0.85316 0.0
O381 O 1.03474 0.29439 0.90742 0.0
O382 O 0.13546 0.37753 0.83906 0.0
O383 O 0.18354 0.36005 0.86437 0.0
O384 O 0.12937 0.2743 0.8994 0.0
O385 O 0.21223 0.32271 0.89974 0.0
O386 O 0.28078 0.39941 0.93471 0.0
O387 O 0.26696 0.45935 0.93548 0.0
O388 O 0.17541 0.3419 0.97158 0.0
O389 O 0.13508 0.36284 0.94191 0.0
O390 O 0.19796 0.44764 0.90107 0.0
O391 O 0.11438 0.40604 0.89843 0.0
H392 H 0.9928 0.19847 0.82718 0.0
H393 H 0.93517 0.11127 0.83252 0.0
H394 H 0.91043 0.131 0.94252 0.0
H395 H 0.96831 0.21814 0.93764 0.0
H396 H 0.35705 0.54075 0.95585 0.0
H397 H 0.44196 0.59553 0.93892 0.0
H398 H 0.44105 0.48162 0.87624 0.0
H399 H 0.35574 0.42645 0.89302 0.0
C400 C 0.22229 0.78467 0.58672 0.0
Eu401 Eu 0.24603 0.87333 0.6056 0.0
C402 C 0.20534 0.73462 0.59932 0.0
C403 C 0.2251 0.70834 0.58356 0.0
C404 C 0.20815 0.65996 0.59285 0.0
C405 C 0.1711 0.63678 0.6182 0.0
C406 C 0.15159 0.66308 0.63447 0.0
C407 C 0.16857 0.71169 0.62509 0.0
C408 C 0.2729 0.94699 0.55599 0.0
C409 C 0.35848 0.93222 0.62583 0.0
C410 C 0.30714 0.06282 0.64283 0.0
Eu411 Eu 0.28595 0.97287 0.63511 0.0
C412 C 0.28065 0.08975 0.64065 0.0
C413 C 0.29287 0.12882 0.66385 0.0
C414 C 0.26983 0.15623 0.66112 0.0
C415 C 0.23428 0.14505 0.63507 0.0
C416 C 0.22124 0.10538 0.61226 0.0
C417 C 0.24414 0.0778 0.61508 0.0
C418 C 0.27314 0.90955 0.68711 0.0
C419 C 0.16797 0.90012 0.62775 0.0
O420 O 0.19181 0.80073 0.58741 0.0
O421 O 0.26635 0.81823 0.59501 0.0
O422 O 0.23562 0.90393 0.55245 0.0
O423 O 0.2942 0.94691 0.58365 0.0
O424 O 0.31862 0.88943 0.62661 0.0
O425 O 0.35641 0.97271 0.62463 0.0
O426 O 0.3127 0.04486 0.61301 0.0
O427 O 0.29635 0.03296 0.66953 0.0
O428 O 0.30923 0.9538 0.68509 0.0
O429 O 0.24361 0.89989 0.66127 0.0
O430 O 0.20454 0.9456 0.62706 0.0
O431 O 0.17607 0.86373 0.62566 0.0
H432 H 0.2533 0.72511 0.56355 0.0
H433 H 0.22368 0.64039 0.58001 0.0
H434 H 0.12296 0.64583 0.65409 0.0
H435 H 0.15264 0.73108 0.63762 0.0
H436 H 0.32079 0.13859 0.68376 0.0
H437 H 0.28042 0.1868 0.67886 0.0
H438 H 0.19395 0.0963 0.59195 0.0
H439 H 0.23384 0.04765 0.59695 0.0
C440 C 0.83071 0.80224 0.87908 0.0
Eu441 Eu 0.74589 0.79417 0.88098 0.0
C442 C 0.88024 0.81006 0.88209 0.0
C443 C 0.90276 0.79992 0.85384 0.0
C444 C 0.95224 0.8146 0.85583 0.0
C445 C 0.97936 0.83951 0.88605 0.0
C446 C 0.95642 0.84809 0.9146 0.0
C447 C 0.90743 0.83344 0.9127 0.0
C448 C 0.69961 0.80838 0.8268 0.0
C449 C 0.77453 0.90822 0.89503 0.0
C450 C 0.60026 0.8209 0.92655 0.0
Eu451 Eu 0.67651 0.81469 0.90974 0.0
C452 C 0.57632 0.84854 0.91695 0.0
C453 C 0.52615 0.82289 0.91085 0.0
C454 C 0.50136 0.84761 0.90399 0.0
C455 C 0.52631 0.89846 0.90312 0.0
C456 C 0.57683 0.92442 0.90801 0.0
C457 C 0.60182 0.89954 0.9148 0.0
C458 C 0.72404 0.7899 0.96011 0.0
C459 C 0.63908 0.70439 0.88659 0.0
O460 O 0.81688 0.82332 0.90237 0.0
O461 O 0.7973 0.77414 0.85602 0.0
O462 O 0.71501 0.7777 0.82649 0.0
O463 O 0.71159 0.83311 0.85551 0.0
O464 O 0.78929 0.87648 0.89139 0.0
O465 O 0.72813 0.89284 0.89811 0.0
O466 O 0.6413 0.84354 0.94382 0.0
O467 O 0.60002 0.79135 0.90234 0.0
O468 O 0.71689 0.82627 0.96297 0.0
O469 O 0.70612 0.7693 0.93125 0.0
O470 O 0.62821 0.73897 0.88826 0.0
O471 O 0.68508 0.71544 0.88828 0.0
H472 H 0.88269 0.78234 0.82989 0.0
H473 H 0.96961 0.80753 0.83364 0.0
H474 H 0.97676 0.86695 0.93818 0.0
H475 H 0.89125 0.84185 0.935 0.0
H476 H 0.50587 0.78362 0.91229 0.0
H477 H 0.46231 0.82709 0.90058 0.0
H478 H 0.59648 0.96372 0.90778 0.0
H479 H 0.64066 0.92013 0.91917 0.0
C480 C 0.20483 0.19949 0.17347 0.0
C481 C 0.19583 0.22099 0.1437 0.0
C482 C 0.24085 0.19477 0.10507 0.0
C483 C 0.25362 0.17727 0.13539 0.0
N484 N 0.25174 0.16624 0.19883 0.0
N485 N 0.20628 0.24157 0.08144 0.0
C486 C 0.23635 0.18014 0.16968 0.0
C487 C 0.21389 0.21904 0.10949 0.0
N488 N 0.18275 0.1971 0.20527 0.0
N489 N 0.25445 0.1879 0.07199 0.0
H490 H 0.18517 0.25805 0.0833 0.0
H491 H 0.22286 0.24654 0.05671 0.0
H492 H 0.27567 0.1719 0.06795 0.0
H493 H 0.24233 0.19493 0.04835 0.0
H494 H 0.18315 0.17711 0.22692 0.0
H495 H 0.16104 0.21259 0.20939 0.0
H496 H 0.2459 0.17313 0.22493 0.0
H497 H 0.27285 0.14988 0.1969 0.0
C498 C 0.0589 0.84925 0.42973 0.0
C499 C 0.07792 0.88116 0.40036 0.0
C500 C 0.99604 0.84825 0.37568 0.0
C501 C 0.97704 0.81622 0.40511 0.0
N502 N 0.98804 0.79476 0.46431 0.0
N503 N 0.06505 0.9191 0.34963 0.0
C504 C 1.00785 0.81944 0.43344 0.0
C505 C 0.04653 0.8833 0.37471 0.0
N506 N 0.08975 0.84624 0.45342 0.0
N507 N 0.96652 0.84343 0.34779 0.0
H508 H 0.10198 0.94467 0.3478 0.0
H509 H 1.04363 0.92594 0.33249 0.0
H510 H 0.9293 0.81887 0.34769 0.0
H511 H 0.97925 0.86151 0.32372 0.0
H512 H 0.07841 0.81953 0.47284 0.0
H513 H 0.1274 0.86855 0.45229 0.0
H514 H 1.00795 0.79944 0.48735 0.0
H515 H 0.95075 0.77295 0.46803 0.0
C516 C 0.88673 0.0733 0.09918 0.0
C517 C 0.92024 0.10917 0.12298 0.0
C518 C 0.9304 0.04674 0.15323 0.0
C519 C 0.89099 1.01047 0.1335 0.0
N520 N 0.82916 0.98817 0.08884 0.0
N521 N 0.97123 0.12923 0.17505 0.0
C522 C 0.86882 1.02343 0.10645 0.0
C523 C 0.94208 0.0959 0.1503 0.0
N524 N 0.8725 0.08701 0.06931 0.0
N525 N 0.95664 0.03408 0.17478 0.0
H526 H 0.98085 0.16549 0.17407 0.0
H527 H 0.98301 0.12028 0.19806 0.0
H528 H 0.9486 0.99824 0.17767 0.0
H529 H 0.98889 0.0593 0.18706 0.0
H530 H 0.85216 0.06303 0.04906 0.0
H531 H 0.88503 0.1232 0.06308 0.0
H532 H 0.80774 0.99546 0.07203 0.0
H533 H 0.81547 0.95118 0.09285 0.0
C534 C 0.23527 0.18684 0.4224 0.0
C535 C 0.24468 0.16392 0.39351 0.0
C536 C 0.19663 0.18431 0.35397 0.0
C537 C 0.18635 0.20629 0.38309 0.0
N538 N 0.18448 0.21658 0.4466 0.0
N539 N 0.22535 0.13045 0.33435 0.0
C540 C 0.20209 0.20378 0.41786 0.0
C541 C 0.2221 0.15899 0.36015 0.0
N542 N 0.25931 0.19393 0.45387 0.0
N543 N 0.18437 0.1898 0.32023 0.0
H544 H 0.24346 0.11128 0.33832 0.0
H545 H 0.20623 0.12196 0.31051 0.0
H546 H 0.16612 0.20846 0.3146 0.0
H547 H 0.19563 0.17931 0.29754 0.0
H548 H 0.25854 0.21563 0.47437 0.0
H549 H 0.28265 0.1806 0.45869 0.0
H550 H 0.1909 0.211 0.47281 0.0
H551 H 0.15953 0.22849 0.44434 0.0
C552 C 1.03907 0.88151 0.10613 0.0
C553 C 0.07164 0.87307 0.12627 0.0
C554 C 1.00302 0.79987 0.15161 0.0
C555 C 0.9705 0.80542 0.12885 0.0
N556 N 0.95927 0.84701 0.07947 0.0
N557 N 0.08574 0.81976 0.16312 0.0
C558 C 0.98891 0.8452 0.10485 0.0
C559 C 0.0539 0.83095 0.14753 0.0
N560 N 0.05593 0.92456 0.08869 0.0
N561 N 0.98553 0.76626 0.17828 0.0
H562 H 0.12336 0.84172 0.16109 0.0
H563 H 0.07495 0.78661 0.17534 0.0
H564 H 0.94876 0.74258 0.18275 0.0
H565 H 1.00735 0.76488 0.19826 0.0
H566 H 1.03326 0.93517 0.07686 0.0
H567 H 0.09252 0.95146 0.08848 0.0
H568 H 0.97182 0.87232 0.05897 0.0
H569 H 0.92287 0.82046 0.07667 0.0
C570 C 0.86459 1.01477 0.42277 0.0
C571 C 0.88241 0.9981 0.39472 0.0
C572 C 0.93238 0.08164 0.37306 0.0
C573 C 0.91539 0.09863 0.40162 0.0
N574 N 0.87499 0.08269 0.45847 0.0
N575 N 0.94129 1.01599 0.34835 0.0
C576 C 0.88454 0.0655 0.42799 0.0
C577 C 0.91902 0.03175 0.37158 0.0
N578 N 0.82703 0.98209 0.4435 0.0
N579 N 0.95867 0.11226 0.34611 0.0
H580 H 0.93202 0.97967 0.34644 0.0
H581 H 0.97171 0.03932 0.33335 0.0
H582 H 0.96935 0.14885 0.3462 0.0
H583 H 0.96689 0.10075 0.32247 0.0
H584 H 0.80847 0.99187 0.46149 0.0
H585 H 0.8118 0.94463 0.44094 0.0
H586 H 0.8571 0.06102 0.48035 0.0
H587 H 0.88929 0.11952 0.4633 0.0
C588 C 0.17392 0.17047 0.65283 0.0
C589 C 0.21278 0.17679 0.63061 0.0
C590 C 0.2126 0.24519 0.60123 0.0
C591 C 0.17924 0.2438 0.62704 0.0
N592 N 0.12889 0.20589 0.67866 0.0
N593 N 0.2719 0.22205 0.58514 0.0
C594 C 0.15948 0.20621 0.65291 0.0
C595 C 0.23268 0.21449 0.60504 0.0
N596 N 0.15052 0.12995 0.67356 0.0
N597 N 0.22372 0.27467 0.57225 0.0
H598 H 0.28698 0.19966 0.58642 0.0
H599 H 0.29171 0.25248 0.56923 0.0
H600 H 0.20845 0.29643 0.56797 0.0
H601 H 0.24382 0.27375 0.55066 0.0
H602 H 0.11866 0.12032 0.68751 0.0
H603 H 0.16073 0.10359 0.67446 0.0
H604 H 0.11819 0.18325 0.70074 0.0
H605 H 0.11647 0.23047 0.67944 0.0
C606 C 0.1161 0.91487 0.87098 0.0
C607 C 0.13261 0.89488 0.8974 0.0
C608 C 0.04869 0.83557 0.91313 0.0
C609 C 1.0321 0.8574 0.88846 0.0
N610 N 0.04965 0.92409 0.84934 0.0
N611 N 0.1152 0.8455 0.94985 0.0
C612 C 0.06571 0.89898 0.86897 0.0
C613 C 0.09901 0.85799 0.92037 0.0
N614 N 0.14786 0.94712 0.84671 0.0
N615 N 1.01648 0.79264 0.92894 0.0
H616 H 0.15183 0.86261 0.95678 0.0
H617 H 0.09212 0.82214 0.96939 0.0
H618 H 0.97923 0.77472 0.92395 0.0
H619 H 1.02714 0.77256 0.94434 0.0
H620 H 0.13681 0.95827 0.82441 0.0
H621 H 0.18504 0.95988 0.84701 0.0
H622 H 0.07286 0.95769 0.83788 0.0
H623 H 1.01301 0.9134 0.84696 0.0
C624 C 0.83286 0.98847 0.60749 0.0
C625 C 0.83333 0.953 0.62967 0.0
C626 C 0.88155 1.01646 0.6732 0.0
C627 C 0.88698 0.05275 0.64862 0.0
N628 N 0.83687 0.06568 0.60739 0.0
N629 N 0.8638 0.93401 0.68213 0.0
C630 C 0.85405 0.03692 0.61961 0.0
C631 C 0.8603 0.96735 0.6617 0.0
N632 N 0.81197 0.97584 0.57463 0.0
N633 N 0.88522 1.02602 0.70877 0.0
H634 H 0.84737 0.89742 0.67529 0.0
H635 H 0.88652 0.94382 0.70423 0.0
H636 H 0.8842 0.0561 0.71871 0.0
H637 H 0.87914 1.00029 0.72814 0.0
H638 H 0.81429 1.00137 0.5563 0.0
H639 H 0.79699 0.94064 0.56457 0.0
H640 H 0.80935 0.05409 0.58849 0.0
H641 H 0.84524 0.09825 0.61995 0.0
C642 C 0.20721 0.2312 0.92488 0.0
C643 C 0.18036 0.23685 0.8972 0.0
C644 C 0.1816 0.17109 0.86375 0.0
C645 C 0.21493 0.17123 0.88877 0.0
N646 N 0.26304 0.20431 0.94188 0.0
N647 N 0.14293 0.2136 0.83937 0.0
C648 C 0.22833 0.20171 0.91922 0.0
C649 C 0.16711 0.20666 0.86655 0.0
N650 N 0.21168 0.25341 0.95694 0.0
N651 N 0.16348 0.13657 0.83758 0.0
H652 H 0.13078 0.23841 0.84078 0.0
H653 H 0.1375 0.19702 0.81457 0.0
H654 H 0.17361 0.11027 0.83481 0.0
H655 H 0.13555 0.13135 0.82058 0.0
H656 H 0.2265 0.24688 0.97941 0.0
H657 H 0.19584 0.27452 0.9621 0.0
H658 H 0.27845 0.23006 0.9621 0.0
H659 H 0.27939 0.18323 0.93891 0.0
C660 C 0.08733 0.85335 0.65863 0.0
C661 C 0.11664 0.8884 0.63262 0.0
C662 C 0.04493 0.89173 0.61256 0.0
C663 C 1.01511 0.85192 0.63493 0.0
N664 N 1.00673 0.79187 0.67742 0.0
N665 N 0.12224 0.93793 0.58231 0.0
C666 C 1.03604 0.83221 0.65769 0.0
C667 C 0.09534 0.90742 0.60922 0.0
N668 N 0.1086 0.84094 0.68487 0.0
N669 N 1.02497 0.91459 0.59458 0.0
H670 H 0.15902 0.9503 0.57864 0.0
H671 H 0.10739 0.9482 0.56187 0.0
H672 H 0.98809 0.9034 0.59603 0.0
H673 H 0.04542 0.94694 0.58079 0.0
H674 H 0.08988 0.82029 0.70694 0.0
H675 H 0.14587 0.85479 0.68645 0.0
H676 H 1.01931 0.77189 0.69086 0.0
H677 H 0.96905 0.77614 0.67843 0.0
C678 C 0.89055 1.03005 0.91067 0.0
C679 C 0.88121 0.06189 0.89039 0.0
C680 C 0.80338 0.99265 0.87105 0.0
C681 C 0.81063 0.96141 0.89394 0.0
N682 N 0.85655 0.95335 0.94169 0.0
N683 N 0.82419 0.0751 0.85738 0.0
C684 C 0.85303 0.98093 0.91544 0.0
C685 C 0.83626 0.04363 0.87238 0.0
N686 N 0.93573 0.04631 0.92458 0.0
N687 N 0.76655 0.97378 0.84672 0.0
H688 H 0.84702 0.11267 0.85797 0.0
H689 H 0.78976 0.06427 0.84738 0.0
H690 H 0.7419 0.93684 0.84406 0.0
H691 H 0.76327 0.99441 0.8267 0.0
H692 H 0.94623 1.02346 0.93625 0.0
H693 H 0.96413 0.08195 0.92165 0.0
H694 H 0.88433 0.96718 0.96045 0.0
H695 H 0.8291 0.91801 0.94723 0.0
C696 C 0.3995 0.13234 0.28075 0.0
C697 C 0.39247 0.1671 0.29954 0.0
C698 C 0.38888 0.20377 0.24323 0.0
C699 C 0.39057 0.16589 0.22454 0.0
N700 N 0.40835 0.10084 0.22398 0.0
N701 N 0.39293 0.24242 0.30032 0.0
C702 C 0.40025 0.13285 0.24289 0.0
C703 C 0.39179 0.20536 0.28116 0.0
N704 N 0.4016 0.09657 0.29922 0.0
N705 N 0.38197 0.23649 0.22462 0.0
H706 H 0.39538 0.24379 0.32803 0.0
H707 H 0.39505 0.27318 0.2891 0.0
H708 H 0.38206 0.23712 0.19687 0.0
H709 H 0.37533 0.26224 0.23628 0.0
H710 H 0.40035 0.06632 0.28759 0.0
H711 H 0.40312 0.09627 0.32689 0.0
H712 H 0.42023 0.07888 0.23515 0.0
H713 H 0.40658 0.09852 0.19632 0.0
C714 C 0.88584 0.7053 0.28795 0.0
C715 C 0.8497 0.66409 0.30592 0.0
C716 C 0.81695 0.62518 0.2483 0.0
C717 C 0.843 0.67125 0.23192 0.0
N718 N 0.9016 0.75707 0.23715 0.0
N719 N 0.78565 0.58112 0.30379 0.0
C720 C 0.87848 0.71171 0.25166 0.0
C721 C 0.81764 0.62227 0.28608 0.0
N722 N 0.92587 0.73894 0.30587 0.0
N723 N 0.79023 0.58498 0.22775 0.0
H724 H 0.78738 0.57835 0.33135 0.0
H725 H 0.75719 0.55084 0.29158 0.0
H726 H 0.78961 0.58705 0.20006 0.0
H727 H 0.7723 0.54977 0.23767 0.0
H728 H 0.9549 0.76849 0.29342 0.0
H729 H 0.93237 0.7335 0.33212 0.0
H730 H 0.92352 0.7883 0.25193 0.0
H731 H 0.8962 0.76402 0.21105 0.0
C732 C 0.88149 0.17356 0.24148 0.0
C733 C 0.89271 0.21667 0.22298 0.0
C734 C 0.90772 0.26011 0.27949 0.0
C735 C 0.89814 0.21748 0.2984 0.0
N736 N 0.86299 0.13073 0.29791 0.0
N737 N 0.89364 0.29255 0.22564 0.0
C738 C 0.88019 0.17308 0.27946 0.0
C739 C 0.89756 0.2569 0.24246 0.0
N740 N 0.87439 0.13382 0.2226 0.0
N741 N 0.93104 0.3046 0.29551 0.0
H742 H 0.88338 0.28965 0.19908 0.0
H743 H 0.89389 0.32126 0.23923 0.0
H744 H 0.94258 0.31 0.32174 0.0
H745 H 0.94333 0.3369 0.28157 0.0
H746 H 0.87229 0.10321 0.23414 0.0
H747 H 0.87223 0.1325 0.19489 0.0
H748 H 0.84613 0.09663 0.28592 0.0
H749 H 0.86173 0.12964 0.32566 0.0
C750 C 0.216 0.43444 0.7466 0.0
C751 C 0.20032 0.39021 0.72832 0.0
C752 C 0.20408 0.35352 0.7847 0.0
C753 C 0.20395 0.39215 0.80336 0.0
N754 N 0.21789 0.47354 0.80262 0.0
N755 N 0.18573 0.30813 0.72964 0.0
C756 C 0.21355 0.43442 0.78442 0.0
C757 C 0.19734 0.35015 0.74711 0.0
N758 N 0.23306 0.47616 0.72753 0.0
N759 N 0.21108 0.32054 0.8027 0.0
H760 H 0.18522 0.30558 0.7021 0.0
H761 H 0.17581 0.27563 0.74258 0.0
H762 H 0.2198 0.32458 0.8296 0.0
H763 H 0.21478 0.29333 0.79025 0.0
H764 H 0.24846 0.51046 0.73914 0.0
H765 H 0.23579 0.47621 0.69982 0.0
H766 H 0.21899 0.50328 0.79033 0.0
H767 H 0.21891 0.47515 0.83036 0.0
C768 C 0.22387 0.88894 0.78156 0.0
C769 C 0.26033 0.88336 0.79847 0.0
C770 C 0.28588 0.86997 0.73975 0.0
C771 C 0.25869 0.88868 0.72339 0.0
N772 N 0.20622 0.92276 0.73052 0.0
N773 N 0.32369 0.86378 0.79405 0.0
C774 C 0.22795 0.89903 0.7446 0.0
C775 C 0.28997 0.87135 0.77759 0.0
N776 N 0.18594 0.88555 0.80074 0.0
N777 N 0.30874 0.8523 0.71897 0.0
H778 H 0.32541 0.86227 0.82171 0.0
H779 H 0.35058 0.86064 0.78054 0.0
H780 H 0.30573 0.85084 0.69131 0.0
H781 H 0.32665 0.83521 0.72909 0.0
H782 H 0.15679 0.88645 0.78905 0.0
H783 H 0.18044 0.8749 0.82724 0.0
H784 H 0.18809 0.93585 0.74606 0.0
H785 H 0.20952 0.93287 0.70392 0.0
C786 C 0.73151 0.86965 0.73708 0.0
C787 C 0.69584 0.83046 0.71718 0.0
C788 C 0.6507 0.79485 0.7723 0.0
C789 C 0.69307 0.82601 0.79196 0.0
N790 N 0.77516 0.89442 0.79261 0.0
N791 N 0.61694 0.75938 0.71456 0.0
C792 C 0.73341 0.86491 0.77446 0.0
C793 C 0.65327 0.79481 0.73443 0.0
N794 N 0.76437 0.91064 0.71982 0.0
N795 N 0.60886 0.76449 0.79009 0.0
H796 H 0.61774 0.76078 0.68686 0.0
H797 H 0.58713 0.7288 0.72526 0.0
H798 H 0.60688 0.7647 0.81783 0.0
H799 H 0.57571 0.7425 0.77761 0.0
H800 H 0.78932 0.94226 0.73296 0.0
H801 H 0.762 0.91412 0.69248 0.0
H802 H 0.80734 0.91958 0.78018 0.0
H803 H 0.77863 0.89177 0.81987 0.0
C804 C 0.35592 0.03706 0.98913 0.0
C805 C 0.30568 1.00179 0.98662 0.0
C806 C 0.28825 0.05459 0.025 0.0
C807 C 0.33877 0.09055 0.02589 0.0
N808 N 0.41384 0.1225 0.99252 0.0
N809 N 0.22321 0.9844 0.99501 0.0
C810 C 0.37058 0.08392 1.00302 0.0
C811 C 0.2715 1.01239 1.00277 0.0
N812 N 0.39043 1.02578 0.97957 0.0
N813 N 0.25562 0.06104 0.04435 0.0
H814 H 0.20936 0.95494 0.97766 0.0
H815 H 0.1972 0.99323 1.00282 0.0
H816 H 0.26343 0.09442 0.05478 0.0
H817 H 0.22061 0.03295 0.04999 0.0
H818 H 0.4274 0.04925 0.98392 0.0
H819 H 0.38203 0.99115 0.97179 0.0
H820 H 0.4366 0.11919 0.97412 0.0
H821 H 0.42298 0.15834 0.99703 0.0
C822 C 0.75189 0.71576 0.49942 0.0
C823 C 0.80209 0.74193 0.49089 0.0
C824 C 0.80848 0.8141 0.52058 0.0
C825 C 0.75738 0.78857 0.52602 0.0
N826 N 0.67958 0.72003 0.51124 0.0
N827 N 0.87735 0.81851 0.48915 0.0
C828 C 0.7289 0.74085 0.51261 0.0
C829 C 0.83032 0.79185 0.5004 0.0
N830 N 0.72644 0.66635 0.49656 0.0
N831 N 0.83636 0.85872 0.53577 0.0
H832 H 0.89471 0.80353 0.47486 0.0
H833 H 0.89802 0.8561 0.49163 0.0
H834 H 0.82153 0.87671 0.5495 0.0
H835 H 0.87413 0.87655 0.53665 0.0
H836 H 0.69077 0.64507 0.5054 0.0
H837 H 0.74291 0.64638 0.4896 0.0
H838 H 0.65703 0.68677 0.49895 0.0
H839 H 0.66211 0.73906 0.5183 0.0
C840 C 0.06248 0.26409 0.99758 0.0
C841 C 0.09145 0.31529 0.99372 0.0
C842 C 1.02986 0.32475 0.02637 0.0
C843 C 1.0026 0.27401 0.03338 0.0
N844 N 0.9985 0.1963 0.0301 0.0
N845 N 0.10891 0.39404 0.01378 0.0
C846 C 1.02029 0.24379 0.02005 0.0
C847 C 0.07691 0.34544 1.01094 0.0
N848 N 0.07467 0.23467 0.97927 0.0
N849 N 1.00986 0.3532 0.0326 0.0
H850 H 0.14472 0.4095 1.00504 0.0
H851 H 0.10193 0.41746 0.02878 0.0
H852 H 0.97408 0.33896 0.0408 0.0
H853 H 1.02648 0.38952 0.02512 0.0
H854 H 0.05178 0.1973 0.97695 0.0
H855 H 0.10676 0.24817 0.96474 0.0
H856 H 1.01287 0.17401 0.02455 0.0
H857 H 0.96816 0.18005 0.04657 0.0
C858 C 0.28145 0.05076 0.4976 0.0
C859 C 0.33286 0.08185 0.49548 0.0
C860 C 0.34317 1.0215 0.52865 0.0
C861 C 0.29202 0.99007 0.53116 0.0
N862 N 0.21219 0.97192 0.5123 0.0
N863 N 0.40883 0.10403 0.52478 0.0
C864 C 0.261 1.00382 0.51394 0.0
C865 C 0.36271 0.06948 0.51554 0.0
N866 N 0.2521 0.06835 0.48744 0.0
N867 N 0.37372 1.00455 0.53664 0.0
H868 H 0.42284 0.14092 0.5207 0.0
H869 H 0.43033 0.09707 0.5418 0.0
H870 H 0.36111 0.96843 0.54294 0.0
H871 H 0.41103 1.02436 0.53197 0.0
H872 H 0.21469 0.05018 0.49123 0.0
H873 H 0.26577 0.104 0.47918 0.0
H874 H 0.18846 0.97704 0.49646 0.0
H875 H 0.19536 0.93809 0.52437 0.0
C876 C 0.80339 0.75084 1.00943 0.0
C877 C 0.78275 0.73844 0.04404 0.0
C878 C 0.72565 0.76577 0.02474 0.0
C879 C 0.74163 0.76951 0.98895 0.0
N880 N 0.78215 0.74256 0.9478 0.0
N881 N 0.71436 0.72661 0.08122 0.0
C882 C 0.77618 0.75495 0.98133 0.0
C883 C 0.7413 0.74405 0.05096 0.0
N884 N 0.84962 0.76061 1.00294 0.0
N885 N 0.69371 0.78073 0.03394 0.0
H886 H 0.72269 0.71125 0.102 0.0
H887 H 0.68049 0.72367 0.08456 0.0
H888 H 0.67505 0.78948 0.01555 0.0
H889 H 0.68704 0.78594 0.0603 0.0
H890 H 0.86584 0.77139 0.97796 0.0
H891 H 0.87395 0.76554 0.02315 0.0
H892 H 0.80524 0.72902 0.9422 0.0
H893 H 0.75953 0.73925 0.92692 0.0
C894 C 0.05725 0.26325 0.52985 0.0
C895 C 0.07824 0.31343 0.5383 0.0
C896 C 1.0129 0.31535 0.50515 0.0
C897 C 0.99436 0.26662 0.49371 0.0
N898 N 1.00308 0.1958 0.49176 0.0
N899 N 0.08326 0.38958 0.52501 0.0
C900 C 1.01749 0.24083 0.50534 0.0
C901 C 0.058 0.34008 0.52348 0.0
N902 N 0.07467 0.23664 0.54568 0.0
N903 N 0.98638 0.33766 0.4999 0.0
H904 H 0.11736 0.40918 0.53688 0.0
H905 H 0.07277 0.41104 0.51116 0.0
H906 H 0.95206 0.32019 0.48822 0.0
H907 H 0.99606 0.3715 0.51071 0.0
H908 H 0.05719 0.19893 0.54447 0.0
H909 H 0.10537 0.25212 0.56179 0.0
H910 H 1.02205 0.1775 0.49565 0.0
H911 H 0.97388 0.17795 0.47443 0.0
C912 C 0.58482 0.17268 0.14334 0.0
C913 C 0.59651 0.15198 0.11419 0.0
C914 C 0.51339 0.11822 0.0911 0.0
C915 C 0.50106 0.13714 0.12117 0.0
N916 N 0.522 0.17244 0.17992 0.0
N917 N 0.56929 0.096 0.06484 0.0
C918 C 0.5359 0.16119 0.14855 0.0
C919 C 0.55986 0.1218 0.08953 0.0
N920 N 0.62086 0.20527 0.16515 0.0
N921 N 0.48221 0.09969 0.06295 0.0
H922 H 0.60285 0.09784 0.06288 0.0
H923 H 0.54268 0.06955 0.04856 0.0
H924 H 0.44812 0.09668 0.06263 0.0
H925 H 0.49167 0.09086 0.03866 0.0
H926 H 0.61553 0.22595 0.18421 0.0
H927 H 0.65717 0.21482 0.16229 0.0
H928 H 0.54419 0.18508 0.20228 0.0
H929 H 0.48664 0.16476 0.18478 0.0
C930 C 0.6588 0.54844 0.37129 0.0
C931 C 0.69347 0.56372 0.39915 0.0
C932 C 0.64547 0.48453 0.42814 0.0
C933 C 0.60865 0.47105 0.40229 0.0
N934 N 0.57678 0.49154 0.35151 0.0
N935 N 0.71492 0.5497 0.45772 0.0
C936 C 0.6143 0.50342 0.37445 0.0
C937 C 0.68547 0.53263 0.42855 0.0
N938 N 0.66924 0.57576 0.34119 0.0
N939 N 0.6428 0.45094 0.45193 0.0
H940 H 0.74431 0.58487 0.45957 0.0
H941 H 0.70752 0.53062 0.4815 0.0
H942 H 0.61386 0.4153 0.45275 0.0
H943 H 0.6713 0.45702 0.46866 0.0
H944 H 0.64796 0.56401 0.31834 0.0
H945 H 0.70133 0.60876 0.33795 0.0
H946 H 0.5765 0.51568 0.3331 0.0
H947 H 0.54431 0.4584 0.35255 0.0
C948 C 0.94333 0.41582 0.15803 0.0
C949 C 0.93346 0.38531 0.1278 0.0
C950 C 0.91421 0.43873 0.0931 0.0
C951 C 0.91733 0.46496 0.12441 0.0
N952 N 0.93345 0.47883 0.18707 0.0
N953 N 0.90501 0.36528 0.06702 0.0
C954 C 0.93207 0.45397 0.15697 0.0
C955 C 0.91797 0.3963 0.09541 0.0
N956 N 0.96271 0.40789 0.18783 0.0
N957 N 0.90811 0.45476 0.06091 0.0
H958 H 0.90879 0.33474 0.06647 0.0
H959 H 0.88714 0.36776 0.04472 0.0
H960 H 0.90441 0.48526 0.05815 0.0
H961 H 0.91128 0.4407 0.03664 0.0
H962 H 0.97504 0.4313 0.20959 0.0
H963 H 0.96951 0.37926 0.18997 0.0
H964 H 0.93852 0.46944 0.21249 0.0
H965 H 0.92698 0.50782 0.18678 0.0
C966 C 0.5179 0.13339 0.4384 0.0
C967 C 0.50353 0.14273 0.40513 0.0
C968 C 0.58931 0.18935 0.38743 0.0
C969 C 0.6029 0.17252 0.41774 0.0
N970 N 0.58378 0.16385 0.4803 0.0
N971 N 0.5259 0.17532 0.34592 0.0
C972 C 0.56823 0.15371 0.44591 0.0
C973 C 0.53939 0.16895 0.37894 0.0
N974 N 0.48387 0.10623 0.46338 0.0
N975 N 0.62243 0.23156 0.37148 0.0
H976 H 0.48959 0.16074 0.3387 0.0
H977 H 0.55066 0.19099 0.32508 0.0
H978 H 0.65621 0.25442 0.38303 0.0
H979 H 0.61351 0.24771 0.35109 0.0
H980 H 0.49257 0.09495 0.4868 0.0
H981 H 0.44673 0.09124 0.45924 0.0
H982 H 0.56032 0.1553 0.50193 0.0
H983 H 0.62021 0.18744 0.48653 0.0
C984 C 0.60881 0.5146 0.11016 0.0
C985 C 0.59071 0.48474 0.14076 0.0
C986 C 0.65258 0.55038 0.17774 0.0
C987 C 0.67084 0.57993 0.14706 0.0
N988 N 0.66111 0.59475 0.08577 0.0
N989 N 0.58829 0.47625 0.20441 0.0
C990 C 0.64687 0.56351 0.11389 0.0
C991 C 0.61033 0.50342 0.17488 0.0
N992 N 0.59152 0.49534 0.0772 0.0
N993 N 0.67691 0.56659 0.20921 0.0
H994 H 0.5577 0.44163 0.20296 0.0
H995 H 0.59789 0.48913 0.23032 0.0
H996 H 0.70632 0.60169 0.21234 0.0
H997 H 0.66941 0.54503 0.23169 0.0
H998 H 0.60723 0.51316 0.0535 0.0
H999 H 0.5632 0.45991 0.07319 0.0
H1000 H 0.64203 0.58712 0.06197 0.0
H1001 H 0.6901 0.63016 0.08727 0.0
C1002 C 0.9646 0.46246 0.41607 0.0
C1003 C 0.92218 0.46056 0.40262 0.0
C1004 C 0.89743 0.38135 0.37551 0.0
C1005 C 0.93551 0.37969 0.39385 0.0
N1006 N 1.00299 0.41737 0.4349 0.0
N1007 N 0.84599 0.41697 0.37148 0.0
C1008 C 0.96904 0.42022 0.41458 0.0
C1009 C 0.88824 0.41992 0.38247 0.0
N1010 N 1.00075 0.50485 0.43021 0.0
N1011 N 0.87035 0.34626 0.35102 0.0
H1012 H 0.83822 0.44475 0.37548 0.0
H1013 H 0.81711 0.38568 0.36062 0.0
H1014 H 0.87574 0.31731 0.34532 0.0
H1015 H 0.84565 0.34818 0.33404 0.0
H1016 H 1.03468 0.51016 0.43719 0.0
H1017 H 0.99841 0.5363 0.43182 0.0
H1018 H 1.02409 0.44328 0.4539 0.0
H1019 H 1.0077 0.38736 0.43506 0.0
C1020 C 0.11936 0.54775 0.6035 0.0
C1021 C 0.15264 0.5846 0.62685 0.0
C1022 C 0.15646 0.5225 0.66276 0.0
C1023 C 0.13109 0.48755 0.63592 0.0
N1024 N 0.08382 0.46459 0.58226 0.0
N1025 N 0.20359 0.60765 0.67885 0.0
C1026 C 0.11047 0.49933 0.60699 0.0
C1027 C 0.17089 0.57205 0.65684 0.0
N1028 N 0.09612 0.55924 0.5782 0.0
N1029 N 0.16511 0.50768 0.69446 0.0
H1030 H 0.2141 0.64415 0.6759 0.0
H1031 H 0.22253 0.60143 0.69866 0.0
H1032 H 0.15237 0.47112 0.69972 0.0
H1033 H 0.17959 0.5303 0.71653 0.0
H1034 H 0.06833 0.53377 0.5622 0.0
H1035 H 0.10214 0.59433 0.57501 0.0
H1036 H 0.07264 0.4716 0.55818 0.0
H1037 H 0.07368 0.42829 0.58564 0.0
C1038 C 0.43082 0.92789 0.92969 0.0
C1039 C 0.42074 0.94273 0.89675 0.0
C1040 C 0.48808 0.93837 0.86865 0.0
C1041 C 0.49753 0.92329 0.90161 0.0
N1042 N 0.48871 0.91854 0.96527 0.0
N1043 N 0.44474 0.97137 0.83687 0.0
C1044 C 0.47265 0.92344 0.93276 0.0
C1045 C 0.45147 0.9516 0.86693 0.0
N1046 N 0.39881 0.91487 0.95744 0.0
N1047 N 0.51242 0.93769 0.83886 0.0
H1048 H 0.41753 0.98029 0.83483 0.0
H1049 H 0.46812 0.9823 0.8151 0.0
H1050 H 0.54035 0.92966 0.83972 0.0
H1051 H 0.50372 0.94295 0.81325 0.0
H1052 H 0.4014 0.89816 0.98039 0.0
H1053 H 0.36722 0.91687 0.95657 0.0
H1054 H 0.47491 0.92311 0.98922 0.0
H1055 H 0.51921 0.91481 0.96829 0.0
C1056 C 0.56282 0.63906 0.64693 0.0
C1057 C 0.5793 0.67373 0.61904 0.0
C1058 C 0.49917 0.62909 0.59069 0.0
C1059 C 0.48377 0.59244 0.61692 0.0
N1060 N 0.50255 0.55841 0.66722 0.0
N1061 N 0.5665 0.69532 0.5602 0.0
C1062 C 0.51615 0.59617 0.64424 0.0
C1063 C 0.5484 0.66678 0.58972 0.0
N1064 N 0.59063 0.64812 0.67667 0.0
N1065 N 0.46627 0.62916 0.56746 0.0
H1066 H 0.60239 0.72325 0.55812 0.0
H1067 H 0.54729 0.68829 0.53648 0.0
H1068 H 0.42962 0.60251 0.56722 0.0
H1069 H 0.47429 0.65811 0.55062 0.0
H1070 H 0.5784 0.62706 0.69957 0.0
H1071 H 0.62479 0.67897 0.67955 0.0
H1072 H 0.52611 0.55661 0.68542 0.0
H1073 H 0.46849 0.52699 0.66619 0.0
C1074 C 0.19312 0.57335 0.93424 0.0
C1075 C 0.17585 0.59154 0.9071 0.0
C1076 C 0.14367 0.51411 0.87451 0.0
C1077 C 0.15868 0.49515 0.9027 0.0
N1078 N 0.18886 0.50336 0.96255 0.0
N1079 N 0.12873 0.57771 0.85396 0.0
C1080 C 0.18077 0.52387 0.93348 0.0
C1081 C 0.14926 0.56138 0.87797 0.0
N1082 N 0.22316 0.60395 0.96011 0.0
N1083 N 0.12618 0.48795 0.84383 0.0
H1084 H 0.13287 0.61228 0.85549 0.0
H1085 H 0.1048 0.55601 0.83416 0.0
H1086 H 0.12086 0.45312 0.84067 0.0
H1087 H 0.12001 0.50183 0.8207 0.0
H1088 H 0.24175 0.5944 0.97802 0.0
H1089 H 0.23295 0.64039 0.96197 0.0
H1090 H 0.19923 0.52039 0.98726 0.0
H1091 H 0.18097 0.46749 0.96295 0.0
C1092 C 0.4086 0.90528 0.59233 0.0
C1093 C 0.40494 0.93242 0.62111 0.0
C1094 C 0.48519 0.95035 0.64239 0.0
C1095 C 0.48604 0.91894 0.61585 0.0
N1096 N 0.44591 0.86124 0.56841 0.0
N1097 N 0.43697 0.97659 0.67586 0.0
C1098 C 0.44703 0.89503 0.59159 0.0
C1099 C 0.44272 0.95427 0.64666 0.0
N1100 N 0.376 0.89038 0.56496 0.0
N1101 N 0.52517 0.97672 0.6632 0.0
H1102 H 0.40664 0.9804 0.67965 0.0
H1103 H 0.46054 0.9884 0.69747 0.0
H1104 H 0.55615 0.97355 0.66133 0.0
H1105 H 0.52903 1.00402 0.6805 0.0
H1106 H 0.38023 0.87586 0.54126 0.0
H1107 H 0.34678 0.89639 0.56434 0.0
H1108 H 0.41552 0.83801 0.55338 0.0
H1109 H 0.47389 0.85342 0.56613 0.0
C1110 C 0.58423 0.62692 0.91959 0.0
C1111 C 0.59727 0.65354 0.8873 0.0
C1112 C 0.51411 0.60188 0.86482 0.0
C1113 C 0.50052 0.57645 0.89763 0.0
N1114 N 0.52488 0.55583 0.95224 0.0
N1115 N 0.5795 0.65829 0.82606 0.0
C1116 C 0.53649 0.58603 0.92366 0.0
C1117 C 0.56363 0.63805 0.85884 0.0
N1118 N 0.61642 0.64251 0.9472 0.0
N1119 N 0.47928 0.59323 0.84014 0.0
H1120 H 0.61579 0.68418 0.82126 0.0
H1121 H 0.55829 0.64642 0.8032 0.0
H1122 H 0.44295 0.56651 0.84332 0.0
H1123 H 0.48566 0.61427 0.8175 0.0
H1124 H 0.60721 0.629 0.97295 0.0
H1125 H 0.6522 0.67072 0.94473 0.0
H1126 H 0.55029 0.55781 0.97049 0.0
H1127 H 0.49026 0.52586 0.95598 0.0
loop_
_geom_bond_atom_site_label_1
_geom_bond_atom_site_label_2
_geom_bond_distance
_geom_bond_site_symmetry_2
_ccdc_geom_bond_type
C0 Eu1 2.835 . S
C0 C2 1.500 1_545 S
C0 O20 1.257 . S
C0 O21 1.260 . S
Eu1 C0 2.835 . S
Eu1 O20 2.473 . S
Eu1 O21 2.480 . S
Eu1 O22 2.430 . S
Eu1 O23 2.670 . S
Eu1 O24 2.394 . S
Eu1 O29 2.355 . S
Eu1 O31 2.374 . S
C2 C0 1.500 1_565 S
C2 C3 1.377 . S
C2 C7 1.377 . S
C3 C2 1.377 . S
C3 C4 1.395 . S
C3 H32 0.931 . S
C4 C3 1.395 . S
C4 C5 1.383 . S
C4 H33 0.931 . S
C5 C4 1.383 . S
C5 C6 1.394 . S
C6 C5 1.394 . S
C6 C7 1.378 . S
C6 H34 0.931 . S
C7 C2 1.377 . S
C7 C6 1.378 . S
C7 H35 0.931 . S
C8 O22 1.259 . S
C8 O23 1.270 . S
C9 O24 1.251 . S
C9 O25 1.251 . S
C10 Eu11 2.835 . S
C10 C12 1.500 . S
C10 O26 1.257 . S
C10 O27 1.260 . S
Eu11 C10 2.835 . S
Eu11 O23 2.355 . S
Eu11 O25 2.374 . S
Eu11 O26 2.473 . S
Eu11 O27 2.480 . S
Eu11 O28 2.430 . S
Eu11 O29 2.670 . S
Eu11 O30 2.394 . S
C12 C10 1.500 . S
C12 C13 1.377 . S
C12 C17 1.377 . S
C13 C12 1.377 . S
C13 C14 1.395 . S
C13 H36 0.931 . S
C14 C13 1.395 . S
C14 C15 1.383 . S
C14 H37 0.931 . S
C15 C14 1.383 . S
C15 C16 1.394 . S
C16 C15 1.394 . S
C16 C17 1.378 . S
C16 H38 0.931 . S
C17 C12 1.377 . S
C17 C16 1.378 . S
C17 H39 0.931 . S
C18 O28 1.259 . S
C18 O29 1.270 . S
C19 O30 1.251 . S
C19 O31 1.251 . S
O20 C0 1.257 . S
O20 Eu1 2.473 . S
O21 C0 1.260 . S
O21 Eu1 2.480 . S
O22 Eu1 2.430 . S
O22 C8 1.259 . S
O23 Eu1 2.670 . S
O23 C8 1.270 . S
O23 Eu11 2.355 . S
O24 Eu1 2.394 . S
O24 C9 1.251 . S
O25 C9 1.251 . S
O25 Eu11 2.374 . S
O26 C10 1.257 . S
O26 Eu11 2.473 . S
O27 C10 1.260 . S
O27 Eu11 2.480 . S
O28 Eu11 2.430 . S
O28 C18 1.259 . S
O29 Eu1 2.355 . S
O29 Eu11 2.670 . S
O29 C18 1.270 . S
O30 Eu11 2.394 . S
O30 C19 1.251 . S
O31 Eu1 2.374 . S
O31 C19 1.251 . S
H32 C3 0.931 . S
H33 C4 0.931 . S
H34 C6 0.931 . S
H35 C7 0.931 . S
H36 C13 0.931 . S
H37 C14 0.931 . S
H38 C16 0.931 . S
H39 C17 0.931 . S
C40 Eu41 2.835 . S
C40 C42 1.500 . S
C40 O60 1.257 . S
C40 O61 1.260 . S
Eu41 C40 2.835 . S
Eu41 O60 2.473 . S
Eu41 O61 2.480 . S
Eu41 O62 2.430 . S
Eu41 O63 2.670 . S
Eu41 O64 2.394 . S
Eu41 O69 2.355 . S
Eu41 O71 2.374 . S
C42 C40 1.500 . S
C42 C43 1.377 . S
C42 C47 1.377 . S
C43 C42 1.377 . S
C43 C44 1.395 . S
C43 H72 0.931 . S
C44 C43 1.395 . S
C44 C45 1.383 . S
C44 H73 0.931 . S
C45 C44 1.383 . S
C45 C46 1.394 . S
C46 C45 1.394 . S
C46 C47 1.378 . S
C46 H74 0.931 . S
C47 C42 1.377 . S
C47 C46 1.378 . S
C47 H75 0.931 . S
C48 O62 1.259 . S
C48 O63 1.270 . S
C49 O64 1.251 . S
C49 O65 1.251 . S
C50 Eu51 2.835 . S
C50 C52 1.500 . S
C50 O66 1.257 . S
C50 O67 1.260 . S
Eu51 C50 2.835 . S
Eu51 O63 2.355 . S
Eu51 O65 2.374 . S
Eu51 O66 2.473 . S
Eu51 O67 2.480 . S
Eu51 O68 2.430 . S
Eu51 O69 2.670 . S
Eu51 O70 2.394 . S
C52 C50 1.500 . S
C52 C53 1.377 . S
C52 C57 1.377 . S
C53 C52 1.377 . S
C53 C54 1.395 . S
C53 H76 0.931 . S
C54 C53 1.395 . S
C54 C55 1.383 . S
C54 H77 0.931 . S
C55 C54 1.383 . S
C55 C56 1.394 . S
C56 C55 1.394 . S
C56 C57 1.378 . S
C56 H78 0.931 . S
C57 C52 1.377 . S
C57 C56 1.378 . S
C57 H79 0.931 . S
C58 O68 1.259 . S
C58 O69 1.270 . S
C59 O70 1.251 . S
C59 O71 1.251 . S
O60 C40 1.257 . S
O60 Eu41 2.473 . S
O61 C40 1.260 . S
O61 Eu41 2.480 . S
O62 Eu41 2.430 . S
O62 C48 1.259 . S
O63 Eu41 2.670 . S
O63 C48 1.270 . S
O63 Eu51 2.355 . S
O64 Eu41 2.394 . S
O64 C49 1.251 . S
O65 C49 1.251 . S
O65 Eu51 2.374 . S
O66 C50 1.257 . S
O66 Eu51 2.473 . S
O67 C50 1.260 . S
O67 Eu51 2.480 . S
O68 Eu51 2.430 . S
O68 C58 1.259 . S
O69 Eu41 2.355 . S
O69 Eu51 2.670 . S
O69 C58 1.270 . S
O70 Eu51 2.394 . S
O70 C59 1.251 . S
O71 Eu41 2.374 . S
O71 C59 1.251 . S
H72 C43 0.931 . S
H73 C44 0.931 . S
H74 C46 0.931 . S
H75 C47 0.931 . S
H76 C53 0.931 . S
H77 C54 0.931 . S
H78 C56 0.931 . S
H79 C57 0.931 . S
C80 Eu81 2.835 . S
C80 C82 1.500 1_655 S
C80 O100 1.257 . S
C80 O101 1.260 . S
Eu81 C80 2.835 . S
Eu81 O100 2.473 . S
Eu81 O101 2.480 . S
Eu81 O102 2.430 . S
Eu81 O103 2.670 . S
Eu81 O104 2.394 . S
Eu81 O109 2.355 . S
Eu81 O111 2.374 . S
C82 C80 1.500 1_455 S
C82 C83 1.377 . S
C82 C87 1.377 . S
C83 C82 1.377 . S
C83 C84 1.395 . S
C83 H112 0.931 . S
C84 C83 1.395 . S
C84 C85 1.383 . S
C84 H113 0.931 . S
C85 C84 1.383 . S
C85 C86 1.394 . S
C86 C85 1.394 . S
C86 C87 1.378 . S
C86 H114 0.931 . S
C87 C82 1.377 . S
C87 C86 1.378 . S
C87 H115 0.931 . S
C88 O102 1.259 . S
C88 O103 1.270 . S
C89 O104 1.251 . S
C89 O105 1.251 . S
C90 Eu91 2.835 . S
C90 C92 1.500 . S
C90 O106 1.257 . S
C90 O107 1.260 . S
Eu91 C90 2.835 . S
Eu91 O103 2.355 . S
Eu91 O105 2.374 . S
Eu91 O106 2.473 . S
Eu91 O107 2.480 . S
Eu91 O108 2.430 . S
Eu91 O109 2.670 . S
Eu91 O110 2.394 . S
C92 C90 1.500 . S
C92 C93 1.377 . S
C92 C97 1.377 . S
C93 C92 1.377 . S
C93 C94 1.395 . S
C93 H116 0.931 . S
C94 C93 1.395 . S
C94 C95 1.383 . S
C94 H117 0.931 . S
C95 C94 1.383 . S
C95 C96 1.394 . S
C96 C95 1.394 . S
C96 C97 1.378 . S
C96 H118 0.931 . S
C97 C92 1.377 . S
C97 C96 1.378 . S
C97 H119 0.931 . S
C98 O108 1.259 . S
C98 O109 1.270 . S
C99 O110 1.251 . S
C99 O111 1.251 . S
O100 C80 1.257 . S
O100 Eu81 2.473 . S
O101 C80 1.260 . S
O101 Eu81 2.480 . S
O102 Eu81 2.430 . S
O102 C88 1.259 . S
O103 Eu81 2.670 . S
O103 C88 1.270 . S
O103 Eu91 2.355 . S
O104 Eu81 2.394 . S
O104 C89 1.251 . S
O105 C89 1.251 . S
O105 Eu91 2.374 . S
O106 C90 1.257 . S
O106 Eu91 2.473 . S
O107 C90 1.260 . S
O107 Eu91 2.480 . S
O108 Eu91 2.430 . S
O108 C98 1.259 . S
O109 Eu81 2.355 . S
O109 Eu91 2.670 . S
O109 C98 1.270 . S
O110 Eu91 2.394 . S
O110 C99 1.251 . S
O111 Eu81 2.374 . S
O111 C99 1.251 . S
H112 C83 0.931 . S
H113 C84 0.931 . S
H114 C86 0.931 . S
H115 C87 0.931 . S
H116 C93 0.931 . S
H117 C94 0.931 . S
H118 C96 0.931 . S
H119 C97 0.931 . S
C120 Eu121 2.835 . S
C120 C122 1.500 . S
C120 O140 1.257 . S
C120 O141 1.260 . S
Eu121 C120 2.835 . S
Eu121 O140 2.473 . S
Eu121 O141 2.480 . S
Eu121 O142 2.430 . S
Eu121 O143 2.670 . S
Eu121 O144 2.394 . S
Eu121 O149 2.355 . S
Eu121 O151 2.374 . S
C122 C120 1.500 . S
C122 C123 1.377 . S
C122 C127 1.377 . S
C123 C122 1.377 . S
C123 C124 1.395 . S
C123 H152 0.931 . S
C124 C123 1.395 . S
C124 C125 1.383 . S
C124 H153 0.931 . S
C125 C124 1.383 . S
C125 C126 1.394 . S
C126 C125 1.394 . S
C126 C127 1.378 . S
C126 H154 0.931 . S
C127 C122 1.377 . S
C127 C126 1.378 . S
C127 H155 0.931 . S
C128 O142 1.259 . S
C128 O143 1.270 . S
C129 O144 1.251 . S
C129 O145 1.251 . S
C130 Eu131 2.835 . S
C130 C132 1.500 1_545 S
C130 O146 1.257 . S
C130 O147 1.260 . S
Eu131 C130 2.835 . S
Eu131 O143 2.355 . S
Eu131 O145 2.374 . S
Eu131 O146 2.473 . S
Eu131 O147 2.480 . S
Eu131 O148 2.430 . S
Eu131 O149 2.670 . S
Eu131 O150 2.394 . S
C132 C130 1.500 1_565 S
C132 C133 1.377 . S
C132 C137 1.377 . S
C133 C132 1.377 . S
C133 C134 1.395 . S
C133 H156 0.931 . S
C134 C133 1.395 . S
C134 C135 1.383 . S
C134 H157 0.931 . S
C135 C134 1.383 . S
C135 C136 1.394 . S
C136 C135 1.394 . S
C136 C137 1.378 . S
C136 H158 0.931 . S
C137 C132 1.377 . S
C137 C136 1.378 . S
C137 H159 0.931 . S
C138 O148 1.259 . S
C138 O149 1.270 . S
C139 O150 1.251 . S
C139 O151 1.251 . S
O140 C120 1.257 . S
O140 Eu121 2.473 . S
O141 C120 1.260 . S
O141 Eu121 2.480 . S
O142 Eu121 2.430 . S
O142 C128 1.259 . S
O143 Eu121 2.670 . S
O143 C128 1.270 . S
O143 Eu131 2.355 . S
O144 Eu121 2.394 . S
O144 C129 1.251 . S
O145 C129 1.251 . S
O145 Eu131 2.374 . S
O146 C130 1.257 . S
O146 Eu131 2.473 . S
O147 C130 1.260 . S
O147 Eu131 2.480 . S
O148 Eu131 2.430 . S
O148 C138 1.259 . S
O149 Eu121 2.355 . S
O149 Eu131 2.670 . S
O149 C138 1.270 . S
O150 Eu131 2.394 . S
O150 C139 1.251 . S
O151 Eu121 2.374 . S
O151 C139 1.251 . S
H152 C123 0.931 . S
H153 C124 0.931 . S
H154 C126 0.931 . S
H155 C127 0.931 . S
H156 C133 0.931 . S
H157 C134 0.931 . S
H158 C136 0.931 . S
H159 C137 0.931 . S
C160 Eu161 2.835 . S
C160 C162 1.500 . S
C160 O180 1.257 . S
C160 O181 1.260 . S
Eu161 C160 2.835 . S
Eu161 O180 2.473 . S
Eu161 O181 2.480 . S
Eu161 O182 2.430 . S
Eu161 O183 2.670 . S
Eu161 O184 2.394 . S
Eu161 O189 2.355 . S
Eu161 O191 2.374 . S
C162 C160 1.500 . S
C162 C163 1.377 . S
C162 C167 1.377 . S
C163 C162 1.377 . S
C163 C164 1.395 . S
C163 H192 0.931 . S
C164 C163 1.395 . S
C164 C165 1.383 . S
C164 H193 0.931 . S
C165 C164 1.383 . S
C165 C166 1.394 . S
C166 C165 1.394 . S
C166 C167 1.378 . S
C166 H194 0.931 . S
C167 C162 1.377 . S
C167 C166 1.378 . S
C167 H195 0.931 . S
C168 O182 1.259 . S
C168 O183 1.270 . S
C169 O184 1.251 . S
C169 O185 1.251 . S
C170 Eu171 2.835 . S
C170 C172 1.500 . S
C170 O186 1.257 . S
C170 O187 1.260 . S
Eu171 C170 2.835 . S
Eu171 O183 2.355 . S
Eu171 O185 2.374 . S
Eu171 O186 2.473 . S
Eu171 O187 2.480 . S
Eu171 O188 2.430 . S
Eu171 O189 2.670 . S
Eu171 O190 2.394 . S
C172 C170 1.500 . S
C172 C173 1.377 . S
C172 C177 1.377 . S
C173 C172 1.377 . S
C173 C174 1.395 . S
C173 H196 0.931 . S
C174 C173 1.395 . S
C174 C175 1.383 . S
C174 H197 0.931 . S
C175 C174 1.383 . S
C175 C176 1.394 . S
C176 C175 1.394 . S
C176 C177 1.378 . S
C176 H198 0.931 . S
C177 C172 1.377 . S
C177 C176 1.378 . S
C177 H199 0.931 . S
C178 O188 1.259 . S
C178 O189 1.270 . S
C179 O190 1.251 . S
C179 O191 1.251 . S
O180 C160 1.257 . S
O180 Eu161 2.473 . S
O181 C160 1.260 . S
O181 Eu161 2.480 . S
O182 Eu161 2.430 . S
O182 C168 1.259 . S
O183 Eu161 2.670 . S
O183 C168 1.270 . S
O183 Eu171 2.355 . S
O184 Eu161 2.394 . S
O184 C169 1.251 . S
O185 C169 1.251 . S
O185 Eu171 2.374 . S
O186 C170 1.257 . S
O186 Eu171 2.473 . S
O187 C170 1.260 . S
O187 Eu171 2.480 . S
O188 Eu171 2.430 . S
O188 C178 1.259 . S
O189 Eu161 2.355 . S
O189 Eu171 2.670 . S
O189 C178 1.270 . S
O190 Eu171 2.394 . S
O190 C179 1.251 . S
O191 Eu161 2.374 . S
O191 C179 1.251 . S
H192 C163 0.931 . S
H193 C164 0.931 . S
H194 C166 0.931 . S
H195 C167 0.931 . S
H196 C173 0.931 . S
H197 C174 0.931 . S
H198 C176 0.931 . S
H199 C177 0.931 . S
C200 Eu201 2.835 . S
C200 C202 1.500 . S
C200 O220 1.257 . S
C200 O221 1.260 . S
Eu201 C200 2.835 . S
Eu201 O220 2.473 . S
Eu201 O221 2.480 . S
Eu201 O222 2.430 . S
Eu201 O223 2.670 . S
Eu201 O224 2.394 . S
Eu201 O229 2.355 . S
Eu201 O231 2.374 . S
C202 C200 1.500 . S
C202 C203 1.377 . S
C202 C207 1.377 . S
C203 C202 1.377 . S
C203 C204 1.395 . S
C203 H232 0.931 . S
C204 C203 1.395 . S
C204 C205 1.383 . S
C204 H233 0.931 . S
C205 C204 1.383 . S
C205 C206 1.394 . S
C206 C205 1.394 . S
C206 C207 1.378 . S
C206 H234 0.931 . S
C207 C202 1.377 . S
C207 C206 1.378 . S
C207 H235 0.931 . S
C208 O222 1.259 . S
C208 O223 1.270 . S
C209 O224 1.251 . S
C209 O225 1.251 . S
C210 Eu211 2.835 . S
C210 C212 1.500 1_655 S
C210 O226 1.257 . S
C210 O227 1.260 . S
Eu211 C210 2.835 . S
Eu211 O223 2.355 . S
Eu211 O225 2.374 . S
Eu211 O226 2.473 . S
Eu211 O227 2.480 . S
Eu211 O228 2.430 . S
Eu211 O229 2.670 . S
Eu211 O230 2.394 . S
C212 C210 1.500 1_455 S
C212 C213 1.377 . S
C212 C217 1.377 . S
C213 C212 1.377 . S
C213 C214 1.395 . S
C213 H236 0.931 . S
C214 C213 1.395 . S
C214 C215 1.383 . S
C214 H237 0.931 . S
C215 C214 1.383 . S
C215 C216 1.394 . S
C216 C215 1.394 . S
C216 C217 1.378 . S
C216 H238 0.931 . S
C217 C212 1.377 . S
C217 C216 1.378 . S
C217 H239 0.931 . S
C218 O228 1.259 . S
C218 O229 1.270 . S
C219 O230 1.251 . S
C219 O231 1.251 . S
O220 C200 1.257 . S
O220 Eu201 2.473 . S
O221 C200 1.260 . S
O221 Eu201 2.480 . S
O222 Eu201 2.430 . S
O222 C208 1.259 . S
O223 Eu201 2.670 . S
O223 C208 1.270 . S
O223 Eu211 2.355 . S
O224 Eu201 2.394 . S
O224 C209 1.251 . S
O225 C209 1.251 . S
O225 Eu211 2.374 . S
O226 C210 1.257 . S
O226 Eu211 2.473 . S
O227 C210 1.260 . S
O227 Eu211 2.480 . S
O228 Eu211 2.430 . S
O228 C218 1.259 . S
O229 Eu201 2.355 . S
O229 Eu211 2.670 . S
O229 C218 1.270 . S
O230 Eu211 2.394 . S
O230 C219 1.251 . S
O231 Eu201 2.374 . S
O231 C219 1.251 . S
H232 C203 0.931 . S
H233 C204 0.931 . S
H234 C206 0.931 . S
H235 C207 0.931 . S
H236 C213 0.931 . S
H237 C214 0.931 . S
H238 C216 0.931 . S
H239 C217 0.931 . S
C240 Eu241 2.835 . S
C240 C242 1.500 . S
C240 O260 1.257 . S
C240 O261 1.260 . S
Eu241 C240 2.835 . S
Eu241 O260 2.473 . S
Eu241 O261 2.480 . S
Eu241 O262 2.430 . S
Eu241 O263 2.670 . S
Eu241 O264 2.394 . S
Eu241 O269 2.355 . S
Eu241 O271 2.374 . S
C242 C240 1.500 . S
C242 C243 1.377 . S
C242 C247 1.377 . S
C243 C242 1.377 . S
C243 C244 1.395 . S
C243 H272 0.931 . S
C244 C243 1.395 . S
C244 C245 1.383 . S
C244 H273 0.931 . S
C245 C244 1.383 . S
C245 C246 1.394 . S
C246 C245 1.394 . S
C246 C247 1.378 . S
C246 H274 0.931 . S
C247 C242 1.377 . S
C247 C246 1.378 . S
C247 H275 0.931 . S
C248 O262 1.259 . S
C248 O263 1.270 . S
C249 O264 1.251 . S
C249 O265 1.251 . S
C250 Eu251 2.835 . S
C250 C252 1.500 1_455 S
C250 O266 1.257 . S
C250 O267 1.260 . S
Eu251 C250 2.835 . S
Eu251 O263 2.355 . S
Eu251 O265 2.374 . S
Eu251 O266 2.473 . S
Eu251 O267 2.480 . S
Eu251 O268 2.430 . S
Eu251 O269 2.670 . S
Eu251 O270 2.394 . S
C252 C250 1.500 1_655 S
C252 C253 1.377 . S
C252 C257 1.377 . S
C253 C252 1.377 . S
C253 C254 1.395 . S
C253 H276 0.931 . S
C254 C253 1.395 . S
C254 C255 1.383 . S
C254 H277 0.931 . S
C255 C254 1.383 . S
C255 C256 1.394 . S
C256 C255 1.394 . S
C256 C257 1.378 . S
C256 H278 0.931 . S
C257 C252 1.377 . S
C257 C256 1.378 . S
C257 H279 0.931 . S
C258 O268 1.259 . S
C258 O269 1.270 . S
C259 O270 1.251 . S
C259 O271 1.251 . S
O260 C240 1.257 . S
O260 Eu241 2.473 . S
O261 C240 1.260 . S
O261 Eu241 2.480 . S
O262 Eu241 2.430 . S
O262 C248 1.259 . S
O263 Eu241 2.670 . S
O263 C248 1.270 . S
O263 Eu251 2.355 . S
O264 Eu241 2.394 . S
O264 C249 1.251 . S
O265 C249 1.251 . S
O265 Eu251 2.374 . S
O266 C250 1.257 . S
O266 Eu251 2.473 . S
O267 C250 1.260 . S
O267 Eu251 2.480 . S
O268 Eu251 2.430 . S
O268 C258 1.259 . S
O269 Eu241 2.355 . S
O269 Eu251 2.670 . S
O269 C258 1.270 . S
O270 Eu251 2.394 . S
O270 C259 1.251 . S
O271 Eu241 2.374 . S
O271 C259 1.251 . S
H272 C243 0.931 . S
H273 C244 0.931 . S
H274 C246 0.931 . S
H275 C247 0.931 . S
H276 C253 0.931 . S
H277 C254 0.931 . S
H278 C256 0.931 . S
H279 C257 0.931 . S
C280 Eu281 2.835 . S
C280 C282 1.500 1_565 S
C280 O300 1.257 . S
C280 O301 1.260 . S
Eu281 C280 2.835 . S
Eu281 O300 2.473 . S
Eu281 O301 2.480 . S
Eu281 O302 2.430 . S
Eu281 O303 2.670 . S
Eu281 O304 2.394 . S
Eu281 O309 2.355 . S
Eu281 O311 2.374 . S
C282 C280 1.500 1_545 S
C282 C283 1.377 . S
C282 C287 1.377 . S
C283 C282 1.377 . S
C283 C284 1.395 . S
C283 H312 0.931 . S
C284 C283 1.395 . S
C284 C285 1.383 . S
C284 H313 0.931 . S
C285 C284 1.383 . S
C285 C286 1.394 . S
C286 C285 1.394 . S
C286 C287 1.378 . S
C286 H314 0.931 . S
C287 C282 1.377 . S
C287 C286 1.378 . S
C287 H315 0.931 . S
C288 O302 1.259 . S
C288 O303 1.270 . S
C289 O304 1.251 . S
C289 O305 1.251 . S
C290 Eu291 2.835 . S
C290 C292 1.500 . S
C290 O306 1.257 . S
C290 O307 1.260 . S
Eu291 C290 2.835 . S
Eu291 O303 2.355 . S
Eu291 O305 2.374 . S
Eu291 O306 2.473 . S
Eu291 O307 2.480 . S
Eu291 O308 2.430 . S
Eu291 O309 2.670 . S
Eu291 O310 2.394 . S
C292 C290 1.500 . S
C292 C293 1.377 . S
C292 C297 1.377 . S
C293 C292 1.377 . S
C293 C294 1.395 . S
C293 H316 0.931 . S
C294 C293 1.395 . S
C294 C295 1.383 . S
C294 H317 0.931 . S
C295 C294 1.383 . S
C295 C296 1.394 . S
C296 C295 1.394 . S
C296 C297 1.378 . S
C296 H318 0.931 . S
C297 C292 1.377 . S
C297 C296 1.378 . S
C297 H319 0.931 . S
C298 O308 1.259 . S
C298 O309 1.270 . S
C299 O310 1.251 . S
C299 O311 1.251 . S
O300 C280 1.257 . S
O300 Eu281 2.473 . S
O301 C280 1.260 . S
O301 Eu281 2.480 . S
O302 Eu281 2.430 . S
O302 C288 1.259 . S
O303 Eu281 2.670 . S
O303 C288 1.270 . S
O303 Eu291 2.355 . S
O304 Eu281 2.394 . S
O304 C289 1.251 . S
O305 C289 1.251 . S
O305 Eu291 2.374 . S
O306 C290 1.257 . S
O306 Eu291 2.473 . S
O307 C290 1.260 . S
O307 Eu291 2.480 . S
O308 Eu291 2.430 . S
O308 C298 1.259 . S
O309 Eu281 2.355 . S
O309 Eu291 2.670 . S
O309 C298 1.270 . S
O310 Eu291 2.394 . S
O310 C299 1.251 . S
O311 Eu281 2.374 . S
O311 C299 1.251 . S
H312 C283 0.931 . S
H313 C284 0.931 . S
H314 C286 0.931 . S
H315 C287 0.931 . S
H316 C293 0.931 . S
H317 C294 0.931 . S
H318 C296 0.931 . S
H319 C297 0.931 . S
C320 Eu321 2.835 . S
C320 C322 1.500 . S
C320 O340 1.257 . S
C320 O341 1.260 . S
Eu321 C320 2.835 . S
Eu321 O340 2.473 . S
Eu321 O341 2.480 . S
Eu321 O342 2.430 . S
Eu321 O343 2.670 . S
Eu321 O344 2.394 . S
Eu321 O349 2.355 . S
Eu321 O351 2.374 . S
C322 C320 1.500 . S
C322 C323 1.377 . S
C322 C327 1.377 . S
C323 C322 1.377 . S
C323 C324 1.395 . S
C323 H352 0.931 . S
C324 C323 1.395 . S
C324 C325 1.383 . S
C324 H353 0.931 . S
C325 C324 1.383 . S
C325 C326 1.394 . S
C326 C325 1.394 . S
C326 C327 1.378 . S
C326 H354 0.931 . S
C327 C322 1.377 . S
C327 C326 1.378 . S
C327 H355 0.931 . S
C328 O342 1.259 . S
C328 O343 1.270 . S
C329 O344 1.251 . S
C329 O345 1.251 . S
C330 Eu331 2.835 . S
C330 C332 1.500 . S
C330 O346 1.257 . S
C330 O347 1.260 . S
Eu331 C330 2.835 . S
Eu331 O343 2.355 . S
Eu331 O345 2.374 . S
Eu331 O346 2.473 . S
Eu331 O347 2.480 . S
Eu331 O348 2.430 . S
Eu331 O349 2.670 . S
Eu331 O350 2.394 . S
C332 C330 1.500 . S
C332 C333 1.377 . S
C332 C337 1.377 . S
C333 C332 1.377 . S
C333 C334 1.395 . S
C333 H356 0.931 . S
C334 C333 1.395 . S
C334 C335 1.383 . S
C334 H357 0.931 . S
C335 C334 1.383 . S
C335 C336 1.394 . S
C336 C335 1.394 . S
C336 C337 1.378 . S
C336 H358 0.931 . S
C337 C332 1.377 . S
C337 C336 1.378 . S
C337 H359 0.931 . S
C338 O348 1.259 . S
C338 O349 1.270 . S
C339 O350 1.251 . S
C339 O351 1.251 . S
O340 C320 1.257 . S
O340 Eu321 2.473 . S
O341 C320 1.260 . S
O341 Eu321 2.480 . S
O342 Eu321 2.430 . S
O342 C328 1.259 . S
O343 Eu321 2.670 . S
O343 C328 1.270 . S
O343 Eu331 2.355 . S
O344 Eu321 2.394 . S
O344 C329 1.251 . S
O345 C329 1.251 . S
O345 Eu331 2.374 . S
O346 C330 1.257 . S
O346 Eu331 2.473 . S
O347 C330 1.260 . S
O347 Eu331 2.480 . S
O348 Eu331 2.430 . S
O348 C338 1.259 . S
O349 Eu321 2.355 . S
O349 Eu331 2.670 . S
O349 C338 1.270 . S
O350 Eu331 2.394 . S
O350 C339 1.251 . S
O351 Eu321 2.374 . S
O351 C339 1.251 . S
H352 C323 0.931 . S
H353 C324 0.931 . S
H354 C326 0.931 . S
H355 C327 0.931 . S
H356 C333 0.931 . S
H357 C334 0.931 . S
H358 C336 0.931 . S
H359 C337 0.931 . S
C360 Eu361 2.835 . S
C360 C362 1.500 1_455 S
C360 O380 1.257 . S
C360 O381 1.260 . S
Eu361 C360 2.835 . S
Eu361 O380 2.473 . S
Eu361 O381 2.480 . S
Eu361 O382 2.430 . S
Eu361 O383 2.670 . S
Eu361 O384 2.394 . S
Eu361 O389 2.355 . S
Eu361 O391 2.374 . S
C362 C360 1.500 1_655 S
C362 C363 1.377 . S
C362 C367 1.377 . S
C363 C362 1.377 . S
C363 C364 1.395 . S
C363 H392 0.931 . S
C364 C363 1.395 . S
C364 C365 1.383 . S
C364 H393 0.931 . S
C365 C364 1.383 . S
C365 C366 1.394 . S
C366 C365 1.394 . S
C366 C367 1.378 . S
C366 H394 0.931 . S
C367 C362 1.377 . S
C367 C366 1.378 . S
C367 H395 0.931 . S
C368 O382 1.259 . S
C368 O383 1.270 . S
C369 O384 1.251 . S
C369 O385 1.251 . S
C370 Eu371 2.835 . S
C370 C372 1.500 . S
C370 O386 1.257 . S
C370 O387 1.260 . S
Eu371 C370 2.835 . S
Eu371 O383 2.355 . S
Eu371 O385 2.374 . S
Eu371 O386 2.473 . S
Eu371 O387 2.480 . S
Eu371 O388 2.430 . S
Eu371 O389 2.670 . S
Eu371 O390 2.394 . S
C372 C370 1.500 . S
C372 C373 1.377 . S
C372 C377 1.377 . S
C373 C372 1.377 . S
C373 C374 1.395 . S
C373 H396 0.931 . S
C374 C373 1.395 . S
C374 C375 1.383 . S
C374 H397 0.931 . S
C375 C374 1.383 . S
C375 C376 1.394 . S
C376 C375 1.394 . S
C376 C377 1.378 . S
C376 H398 0.931 . S
C377 C372 1.377 . S
C377 C376 1.378 . S
C377 H399 0.931 . S
C378 O388 1.259 . S
C378 O389 1.270 . S
C379 O390 1.251 . S
C379 O391 1.251 . S
O380 C360 1.257 . S
O380 Eu361 2.473 . S
O381 C360 1.260 . S
O381 Eu361 2.480 . S
O382 Eu361 2.430 . S
O382 C368 1.259 . S
O383 Eu361 2.670 . S
O383 C368 1.270 . S
O383 Eu371 2.355 . S
O384 Eu361 2.394 . S
O384 C369 1.251 . S
O385 C369 1.251 . S
O385 Eu371 2.374 . S
O386 C370 1.257 . S
O386 Eu371 2.473 . S
O387 C370 1.260 . S
O387 Eu371 2.480 . S
O388 Eu371 2.430 . S
O388 C378 1.259 . S
O389 Eu361 2.355 . S
O389 Eu371 2.670 . S
O389 C378 1.270 . S
O390 Eu371 2.394 . S
O390 C379 1.251 . S
O391 Eu361 2.374 . S
O391 C379 1.251 . S
H392 C363 0.931 . S
H393 C364 0.931 . S
H394 C366 0.931 . S
H395 C367 0.931 . S
H396 C373 0.931 . S
H397 C374 0.931 . S
H398 C376 0.931 . S
H399 C377 0.931 . S
C400 Eu401 2.835 . S
C400 C402 1.500 . S
C400 O420 1.257 . S
C400 O421 1.260 . S
Eu401 C400 2.835 . S
Eu401 O420 2.473 . S
Eu401 O421 2.480 . S
Eu401 O422 2.430 . S
Eu401 O423 2.670 . S
Eu401 O424 2.394 . S
Eu401 O429 2.355 . S
Eu401 O431 2.374 . S
C402 C400 1.500 . S
C402 C403 1.377 . S
C402 C407 1.377 . S
C403 C402 1.377 . S
C403 C404 1.395 . S
C403 H432 0.931 . S
C404 C403 1.395 . S
C404 C405 1.383 . S
C404 H433 0.931 . S
C405 C404 1.383 . S
C405 C406 1.394 . S
C406 C405 1.394 . S
C406 C407 1.378 . S
C406 H434 0.931 . S
C407 C402 1.377 . S
C407 C406 1.378 . S
C407 H435 0.931 . S
C408 O422 1.259 . S
C408 O423 1.270 . S
C409 O424 1.251 . S
C409 O425 1.251 . S
C410 Eu411 2.835 . S
C410 C412 1.500 1_565 S
C410 O426 1.257 . S
C410 O427 1.260 . S
Eu411 C410 2.835 . S
Eu411 O423 2.355 . S
Eu411 O425 2.374 . S
Eu411 O426 2.473 . S
Eu411 O427 2.480 . S
Eu411 O428 2.430 . S
Eu411 O429 2.670 . S
Eu411 O430 2.394 . S
C412 C410 1.500 1_545 S
C412 C413 1.377 . S
C412 C417 1.377 . S
C413 C412 1.377 . S
C413 C414 1.395 . S
C413 H436 0.931 . S
C414 C413 1.395 . S
C414 C415 1.383 . S
C414 H437 0.931 . S
C415 C414 1.383 . S
C415 C416 1.394 . S
C416 C415 1.394 . S
C416 C417 1.378 . S
C416 H438 0.931 . S
C417 C412 1.377 . S
C417 C416 1.378 . S
C417 H439 0.931 . S
C418 O428 1.259 . S
C418 O429 1.270 . S
C419 O430 1.251 . S
C419 O431 1.251 . S
O420 C400 1.257 . S
O420 Eu401 2.473 . S
O421 C400 1.260 . S
O421 Eu401 2.480 . S
O422 Eu401 2.430 . S
O422 C408 1.259 . S
O423 Eu401 2.670 . S
O423 C408 1.270 . S
O423 Eu411 2.355 . S
O424 Eu401 2.394 . S
O424 C409 1.251 . S
O425 C409 1.251 . S
O425 Eu411 2.374 . S
O426 C410 1.257 . S
O426 Eu411 2.473 . S
O427 C410 1.260 . S
O427 Eu411 2.480 . S
O428 Eu411 2.430 . S
O428 C418 1.259 . S
O429 Eu401 2.355 . S
O429 Eu411 2.670 . S
O429 C418 1.270 . S
O430 Eu411 2.394 . S
O430 C419 1.251 . S
O431 Eu401 2.374 . S
O431 C419 1.251 . S
H432 C403 0.931 . S
H433 C404 0.931 . S
H434 C406 0.931 . S
H435 C407 0.931 . S
H436 C413 0.931 . S
H437 C414 0.931 . S
H438 C416 0.931 . S
H439 C417 0.931 . S
C440 Eu441 2.835 . S
C440 C442 1.500 . S
C440 O460 1.257 . S
C440 O461 1.260 . S
Eu441 C440 2.835 . S
Eu441 O460 2.473 . S
Eu441 O461 2.480 . S
Eu441 O462 2.430 . S
Eu441 O463 2.670 . S
Eu441 O464 2.394 . S
Eu441 O469 2.355 . S
Eu441 O471 2.374 . S
C442 C440 1.500 . S
C442 C443 1.377 . S
C442 C447 1.377 . S
C443 C442 1.377 . S
C443 C444 1.395 . S
C443 H472 0.931 . S
C444 C443 1.395 . S
C444 C445 1.383 . S
C444 H473 0.931 . S
C445 C444 1.383 . S
C445 C446 1.394 . S
C446 C445 1.394 . S
C446 C447 1.378 . S
C446 H474 0.931 . S
C447 C442 1.377 . S
C447 C446 1.378 . S
C447 H475 0.931 . S
C448 O462 1.259 . S
C448 O463 1.270 . S
C449 O464 1.251 . S
C449 O465 1.251 . S
C450 Eu451 2.835 . S
C450 C452 1.500 . S
C450 O466 1.257 . S
C450 O467 1.260 . S
Eu451 C450 2.835 . S
Eu451 O463 2.355 . S
Eu451 O465 2.374 . S
Eu451 O466 2.473 . S
Eu451 O467 2.480 . S
Eu451 O468 2.430 . S
Eu451 O469 2.670 . S
Eu451 O470 2.394 . S
C452 C450 1.500 . S
C452 C453 1.377 . S
C452 C457 1.377 . S
C453 C452 1.377 . S
C453 C454 1.395 . S
C453 H476 0.931 . S
C454 C453 1.395 . S
C454 C455 1.383 . S
C454 H477 0.931 . S
C455 C454 1.383 . S
C455 C456 1.394 . S
C456 C455 1.394 . S
C456 C457 1.378 . S
C456 H478 0.931 . S
C457 C452 1.377 . S
C457 C456 1.378 . S
C457 H479 0.931 . S
C458 O468 1.259 . S
C458 O469 1.270 . S
C459 O470 1.251 . S
C459 O471 1.251 . S
O460 C440 1.257 . S
O460 Eu441 2.473 . S
O461 C440 1.260 . S
O461 Eu441 2.480 . S
O462 Eu441 2.430 . S
O462 C448 1.259 . S
O463 Eu441 2.670 . S
O463 C448 1.270 . S
O463 Eu451 2.355 . S
O464 Eu441 2.394 . S
O464 C449 1.251 . S
O465 C449 1.251 . S
O465 Eu451 2.374 . S
O466 C450 1.257 . S
O466 Eu451 2.473 . S
O467 C450 1.260 . S
O467 Eu451 2.480 . S
O468 Eu451 2.430 . S
O468 C458 1.259 . S
O469 Eu441 2.355 . S
O469 Eu451 2.670 . S
O469 C458 1.270 . S
O470 Eu451 2.394 . S
O470 C459 1.251 . S
O471 Eu441 2.374 . S
O471 C459 1.251 . S
H472 C443 0.931 . S
H473 C444 0.931 . S
H474 C446 0.931 . S
H475 C447 0.931 . S
H476 C453 0.931 . S
H477 C454 0.931 . S
H478 C456 0.931 . S
H479 C457 0.931 . S
C480 C481 1.363 . S
C480 C486 1.379 . S
C480 N488 1.356 . S
C481 C480 1.363 . S
C481 C487 1.363 . S
C482 C483 1.363 . S
C482 C487 1.379 . S
C482 N489 1.356 . S
C483 C482 1.363 . S
C483 C486 1.363 . S
N484 C486 1.356 . S
N484 H496 0.984 . S
N484 H497 0.985 . S
N485 C487 1.356 . S
N485 H490 0.984 . S
N485 H491 0.985 . S
C486 C480 1.379 . S
C486 C483 1.363 . S
C486 N484 1.356 . S
C487 C481 1.363 . S
C487 C482 1.379 . S
C487 N485 1.356 . S
N488 C480 1.356 . S
N488 H494 0.984 . S
N488 H495 0.984 . S
N489 C482 1.356 . S
N489 H492 0.984 . S
N489 H493 0.985 . S
H490 N485 0.984 . S
H491 N485 0.985 . S
H492 N489 0.984 . S
H493 N489 0.985 . S
H494 N488 0.984 . S
H495 N488 0.984 . S
H496 N484 0.984 . S
H497 N484 0.985 . S
C498 C499 1.363 . S
C498 C504 1.379 1_455 S
C498 N506 1.356 . S
C499 C498 1.363 . S
C499 C505 1.363 1_455 S
C500 C501 1.363 . S
C500 C505 1.379 . S
C500 N507 1.356 . S
C501 C500 1.363 . S
C501 C504 1.363 . S
N502 C504 1.356 . S
N502 H514 0.984 . S
N502 H515 0.985 . S
N503 C505 1.356 1_455 S
N503 H508 0.984 . S
N503 H509 0.985 . S
C504 C498 1.379 1_655 S
C504 C501 1.363 . S
C504 N502 1.356 . S
C505 C499 1.363 1_655 S
C505 C500 1.379 . S
C505 N503 1.356 1_655 S
N506 C498 1.356 . S
N506 H512 0.984 . S
N506 H513 0.984 . S
N507 C500 1.356 . S
N507 H510 0.984 . S
N507 H511 0.985 . S
H508 N503 0.984 . S
H509 N503 0.985 . S
H510 N507 0.984 . S
H511 N507 0.985 . S
H512 N506 0.984 . S
H513 N506 0.984 . S
H514 N502 0.984 . S
H515 N502 0.985 . S
C516 C517 1.363 . S
C516 C522 1.379 1_545 S
C516 N524 1.356 . S
C517 C516 1.363 . S
C517 C523 1.363 . S
C518 C519 1.363 1_545 S
C518 C523 1.379 . S
C518 N525 1.356 1_545 S
C519 C518 1.363 1_565 S
C519 C522 1.363 . S
N520 C522 1.356 . S
N520 H532 0.984 . S
N520 H533 0.985 . S
N521 C523 1.356 . S
N521 H526 0.984 . S
N521 H527 0.985 . S
C522 C516 1.379 1_565 S
C522 C519 1.363 . S
C522 N520 1.356 . S
C523 C517 1.363 . S
C523 C518 1.379 . S
C523 N521 1.356 . S
N524 C516 1.356 . S
N524 H530 0.984 . S
N524 H531 0.984 . S
N525 C518 1.356 1_565 S
N525 H528 0.984 . S
N525 H529 0.985 1_565 S
H526 N521 0.984 . S
H527 N521 0.985 . S
H528 N525 0.984 . S
H529 N525 0.985 1_545 S
H530 N524 0.984 . S
H531 N524 0.984 . S
H532 N520 0.984 . S
H533 N520 0.985 . S
C534 C535 1.363 . S
C534 C540 1.379 . S
C534 N542 1.356 . S
C535 C534 1.363 . S
C535 C541 1.363 . S
C536 C537 1.363 . S
C536 C541 1.379 . S
C536 N543 1.356 . S
C537 C536 1.363 . S
C537 C540 1.363 . S
N538 C540 1.356 . S
N538 H550 0.984 . S
N538 H551 0.985 . S
N539 C541 1.356 . S
N539 H544 0.984 . S
N539 H545 0.985 . S
C540 C534 1.379 . S
C540 C537 1.363 . S
C540 N538 1.356 . S
C541 C535 1.363 . S
C541 C536 1.379 . S
C541 N539 1.356 . S
N542 C534 1.356 . S
N542 H548 0.984 . S
N542 H549 0.984 . S
N543 C536 1.356 . S
N543 H546 0.984 . S
N543 H547 0.985 . S
H544 N539 0.984 . S
H545 N539 0.985 . S
H546 N543 0.984 . S
H547 N543 0.985 . S
H548 N542 0.984 . S
H549 N542 0.984 . S
H550 N538 0.984 . S
H551 N538 0.985 . S
C552 C553 1.363 1_655 S
C552 C558 1.379 . S
C552 N560 1.356 1_655 S
C553 C552 1.363 1_455 S
C553 C559 1.363 . S
C554 C555 1.363 . S
C554 C559 1.360 1_655 S
C554 N561 1.356 . S
C555 C554 1.363 . S
C555 C558 1.363 . S
N556 C558 1.356 . S
N556 H568 0.984 . S
N556 H569 0.985 . S
N557 C559 1.379 . S
N557 H562 0.984 . S
N557 H563 0.985 . S
C558 C552 1.379 . S
C558 C555 1.363 . S
C558 N556 1.356 . S
C559 C553 1.363 . S
C559 C554 1.360 1_455 S
C559 N557 1.379 . S
N560 C552 1.356 1_455 S
N560 H566 0.984 . S
N560 H567 0.984 . S
N561 C554 1.356 . S
N561 H564 0.984 . S
N561 H565 0.985 . S
H562 N557 0.984 . S
H563 N557 0.985 . S
H564 N561 0.984 . S
H565 N561 0.985 . S
H566 N560 0.984 . S
H567 N560 0.984 . S
H568 N556 0.984 . S
H569 N556 0.985 . S
C570 C571 1.363 . S
C570 C576 1.379 1_565 S
C570 N578 1.356 . S
C571 C570 1.363 . S
C571 C577 1.363 1_565 S
C572 C573 1.363 . S
C572 C577 1.379 . S
C572 N579 1.356 . S
C573 C572 1.363 . S
C573 C576 1.363 . S
N574 C576 1.356 . S
N574 H586 0.984 . S
N574 H587 0.985 . S
N575 C577 1.356 1_565 S
N575 H580 0.984 . S
N575 H581 0.985 1_565 S
C576 C570 1.379 1_545 S
C576 C573 1.363 . S
C576 N574 1.356 . S
C577 C571 1.363 1_545 S
C577 C572 1.379 . S
C577 N575 1.356 1_545 S
N578 C570 1.356 . S
N578 H584 0.984 . S
N578 H585 0.984 . S
N579 C572 1.356 . S
N579 H582 0.984 . S
N579 H583 0.985 . S
H580 N575 0.984 . S
H581 N575 0.985 1_545 S
H582 N579 0.984 . S
H583 N579 0.985 . S
H584 N578 0.984 . S
H585 N578 0.984 . S
H586 N574 0.984 . S
H587 N574 0.985 . S
C588 C589 1.363 . S
C588 C594 1.379 . S
C588 N596 1.356 . S
C589 C588 1.363 . S
C589 C595 1.363 . S
C590 C591 1.363 . S
C590 C595 1.379 . S
C590 N597 1.356 . S
C591 C590 1.363 . S
C591 C594 1.363 . S
N592 C594 1.356 . S
N592 H604 0.984 . S
N592 H605 0.985 . S
N593 C595 1.356 . S
N593 H598 0.984 . S
N593 H599 0.985 . S
C594 C588 1.379 . S
C594 C591 1.363 . S
C594 N592 1.356 . S
C595 C589 1.363 . S
C595 C590 1.379 . S
C595 N593 1.356 . S
N596 C588 1.356 . S
N596 H602 0.984 . S
N596 H603 0.984 . S
N597 C590 1.356 . S
N597 H600 0.984 . S
N597 H601 0.985 . S
H598 N593 0.984 . S
H599 N593 0.985 . S
H600 N597 0.984 . S
H601 N597 0.985 . S
H602 N596 0.984 . S
H603 N596 0.984 . S
H604 N592 0.984 . S
H605 N592 0.985 . S
C606 C607 1.363 . S
C606 C612 1.379 . S
C606 N614 1.356 . S
C607 C606 1.363 . S
C607 C613 1.363 . S
C608 C609 1.363 . S
C608 C613 1.379 1_655 S
C608 N615 1.356 . S
C609 C608 1.363 . S
C609 C612 1.363 1_655 S
N610 C612 1.356 1_655 S
N610 H622 0.984 1_655 S
N610 H623 0.985 . S
N611 C613 1.356 . S
N611 H616 0.984 . S
N611 H617 0.985 . S
C612 C606 1.379 . S
C612 C609 1.363 1_455 S
C612 N610 1.356 1_455 S
C613 C607 1.363 . S
C613 C608 1.379 1_455 S
C613 N611 1.356 . S
N614 C606 1.356 . S
N614 H620 0.984 . S
N614 H621 0.984 . S
N615 C608 1.356 . S
N615 H618 0.984 . S
N615 H619 0.985 . S
H616 N611 0.984 . S
H617 N611 0.985 . S
H618 N615 0.984 . S
H619 N615 0.985 . S
H620 N614 0.984 . S
H621 N614 0.984 . S
H622 N610 0.984 1_455 S
H623 N610 0.985 . S
C624 C625 1.363 . S
C624 C630 1.379 1_565 S
C624 N632 1.356 . S
C625 C624 1.363 . S
C625 C631 1.363 . S
C626 C627 1.363 1_565 S
C626 C631 1.379 . S
C626 N633 1.356 1_565 S
C627 C626 1.363 1_545 S
C627 C630 1.363 . S
N628 C630 1.356 . S
N628 H640 0.984 . S
N628 H641 0.985 . S
N629 C631 1.356 . S
N629 H634 0.984 . S
N629 H635 0.985 . S
C630 C624 1.379 1_545 S
C630 C627 1.363 . S
C630 N628 1.356 . S
C631 C625 1.363 . S
C631 C626 1.379 . S
C631 N629 1.356 . S
N632 C624 1.356 . S
N632 H638 0.984 . S
N632 H639 0.984 . S
N633 C626 1.356 1_545 S
N633 H636 0.984 . S
N633 H637 0.985 . S
H634 N629 0.984 . S
H635 N629 0.985 . S
H636 N633 0.984 . S
H637 N633 0.985 . S
H638 N632 0.984 . S
H639 N632 0.984 . S
H640 N628 0.984 . S
H641 N628 0.985 . S
C642 C643 1.363 . S
C642 C648 1.379 . S
C642 N650 1.356 . S
C643 C642 1.363 . S
C643 C649 1.363 . S
C644 C645 1.363 . S
C644 C649 1.379 . S
C644 N651 1.356 . S
C645 C644 1.363 . S
C645 C648 1.363 . S
N646 C648 1.356 . S
N646 H658 0.984 . S
N646 H659 0.985 . S
N647 C649 1.356 . S
N647 H652 0.984 . S
N647 H653 0.985 . S
C648 C642 1.379 . S
C648 C645 1.363 . S
C648 N646 1.356 . S
C649 C643 1.363 . S
C649 C644 1.379 . S
C649 N647 1.356 . S
N650 C642 1.356 . S
N650 H656 0.984 . S
N650 H657 0.984 . S
N651 C644 1.356 . S
N651 H654 0.984 . S
N651 H655 0.985 . S
H652 N647 0.984 . S
H653 N647 0.985 . S
H654 N651 0.984 . S
H655 N651 0.985 . S
H656 N650 0.984 . S
H657 N650 0.984 . S
H658 N646 0.984 . S
H659 N646 0.985 . S
C660 C661 1.363 . S
C660 C666 1.379 1_455 S
C660 N668 1.356 . S
C661 C660 1.363 . S
C661 C667 1.363 . S
C662 C663 1.363 1_455 S
C662 C667 1.379 . S
C662 N669 1.356 1_455 S
C663 C662 1.363 1_655 S
C663 C666 1.363 . S
N664 C666 1.356 . S
N664 H676 0.984 . S
N664 H677 0.985 . S
N665 C667 1.356 . S
N665 H670 0.984 . S
N665 H671 0.985 . S
C666 C660 1.379 1_655 S
C666 C663 1.363 . S
C666 N664 1.356 . S
C667 C661 1.363 . S
C667 C662 1.379 . S
C667 N665 1.356 . S
N668 C660 1.356 . S
N668 H674 0.984 . S
N668 H675 0.984 . S
N669 C662 1.356 1_655 S
N669 H672 0.984 . S
N669 H673 0.985 . S
H670 N665 0.984 . S
H671 N665 0.985 . S
H672 N669 0.984 . S
H673 N669 0.985 . S
H674 N668 0.984 . S
H675 N668 0.984 . S
H676 N664 0.984 . S
H677 N664 0.985 . S
C678 C679 1.381 . S
C678 C684 1.357 1_545 S
C678 N686 1.367 . S
C679 C678 1.381 . S
C679 C685 1.363 1_545 S
C680 C681 1.363 . S
C680 C685 1.379 . S
C680 N687 1.356 . S
C681 C680 1.363 . S
C681 C684 1.363 . S
N682 C684 1.356 . S
N682 H694 0.984 . S
N682 H695 0.985 . S
N683 C685 1.356 1_545 S
N683 H688 0.984 . S
N683 H689 0.985 . S
C684 C678 1.357 1_565 S
C684 C681 1.363 . S
C684 N682 1.356 . S
C685 C679 1.363 1_565 S
C685 C680 1.379 . S
C685 N683 1.356 1_565 S
N686 C678 1.367 . S
N686 H692 0.984 . S
N686 H693 0.984 . S
N687 C680 1.356 . S
N687 H690 0.984 . S
N687 H691 0.985 . S
H688 N683 0.984 . S
H689 N683 0.985 . S
H690 N687 0.984 . S
H691 N687 0.985 . S
H692 N686 0.984 . S
H693 N686 0.984 . S
H694 N682 0.984 . S
H695 N682 0.985 . S
C696 C697 1.363 . S
C696 C702 1.379 . S
C696 N704 1.356 . S
C697 C696 1.363 . S
C697 C703 1.363 . S
C698 C699 1.363 . S
C698 C703 1.379 . S
C698 N705 1.356 . S
C699 C698 1.363 . S
C699 C702 1.363 . S
N700 C702 1.356 . S
N700 H712 0.984 . S
N700 H713 0.985 . S
N701 C703 1.356 . S
N701 H706 0.984 . S
N701 H707 0.985 . S
C702 C696 1.379 . S
C702 C699 1.363 . S
C702 N700 1.356 . S
C703 C697 1.363 . S
C703 C698 1.379 . S
C703 N701 1.356 . S
N704 C696 1.356 . S
N704 H710 0.984 . S
N704 H711 0.984 . S
N705 C698 1.356 . S
N705 H708 0.984 . S
N705 H709 0.985 . S
H706 N701 0.984 . S
H707 N701 0.985 . S
H708 N705 0.984 . S
H709 N705 0.985 . S
H710 N704 0.984 . S
H711 N704 0.984 . S
H712 N700 0.984 . S
H713 N700 0.985 . S
C714 C715 1.363 . S
C714 C720 1.379 . S
C714 N722 1.356 . S
C715 C714 1.363 . S
C715 C721 1.363 . S
C716 C717 1.363 . S
C716 C721 1.379 . S
C716 N723 1.356 . S
C717 C716 1.363 . S
C717 C720 1.363 . S
N718 C720 1.356 . S
N718 H730 0.984 . S
N718 H731 0.985 . S
N719 C721 1.356 . S
N719 H724 0.984 . S
N719 H725 0.985 . S
C720 C714 1.379 . S
C720 C717 1.363 . S
C720 N718 1.356 . S
C721 C715 1.363 . S
C721 C716 1.379 . S
C721 N719 1.356 . S
N722 C714 1.356 . S
N722 H728 0.984 . S
N722 H729 0.984 . S
N723 C716 1.356 . S
N723 H726 0.984 . S
N723 H727 0.985 . S
H724 N719 0.984 . S
H725 N719 0.985 . S
H726 N723 0.984 . S
H727 N723 0.985 . S
H728 N722 0.984 . S
H729 N722 0.984 . S
H730 N718 0.984 . S
H731 N718 0.985 . S
C732 C733 1.363 . S
C732 C738 1.379 . S
C732 N740 1.356 . S
C733 C732 1.363 . S
C733 C739 1.363 . S
C734 C735 1.363 . S
C734 C739 1.379 . S
C734 N741 1.356 . S
C735 C734 1.363 . S
C735 C738 1.363 . S
N736 C738 1.356 . S
N736 H748 0.984 . S
N736 H749 0.985 . S
N737 C739 1.356 . S
N737 H742 0.984 . S
N737 H743 0.985 . S
C738 C732 1.379 . S
C738 C735 1.363 . S
C738 N736 1.356 . S
C739 C733 1.363 . S
C739 C734 1.379 . S
C739 N737 1.356 . S
N740 C732 1.356 . S
N740 H746 0.984 . S
N740 H747 0.984 . S
N741 C734 1.356 . S
N741 H744 0.984 . S
N741 H745 0.985 . S
H742 N737 0.984 . S
H743 N737 0.985 . S
H744 N741 0.984 . S
H745 N741 0.985 . S
H746 N740 0.984 . S
H747 N740 0.984 . S
H748 N736 0.984 . S
H749 N736 0.985 . S
C750 C751 1.363 . S
C750 C756 1.379 . S
C750 N758 1.356 . S
C751 C750 1.363 . S
C751 C757 1.363 . S
C752 C753 1.363 . S
C752 C757 1.379 . S
C752 N759 1.356 . S
C753 C752 1.363 . S
C753 C756 1.363 . S
N754 C756 1.356 . S
N754 H766 0.984 . S
N754 H767 0.985 . S
N755 C757 1.356 . S
N755 H760 0.984 . S
N755 H761 0.985 . S
C756 C750 1.379 . S
C756 C753 1.363 . S
C756 N754 1.356 . S
C757 C751 1.363 . S
C757 C752 1.379 . S
C757 N755 1.356 . S
N758 C750 1.356 . S
N758 H764 0.984 . S
N758 H765 0.984 . S
N759 C752 1.356 . S
N759 H762 0.984 . S
N759 H763 0.985 . S
H760 N755 0.984 . S
H761 N755 0.985 . S
H762 N759 0.984 . S
H763 N759 0.985 . S
H764 N758 0.984 . S
H765 N758 0.984 . S
H766 N754 0.984 . S
H767 N754 0.985 . S
C768 C769 1.363 . S
C768 C774 1.379 . S
C768 N776 1.356 . S
C769 C768 1.363 . S
C769 C775 1.363 . S
C770 C771 1.363 . S
C770 C775 1.379 . S
C770 N777 1.356 . S
C771 C770 1.363 . S
C771 C774 1.363 . S
N772 C774 1.356 . S
N772 H784 0.984 . S
N772 H785 0.985 . S
N773 C775 1.356 . S
N773 H778 0.984 . S
N773 H779 0.985 . S
C774 C768 1.379 . S
C774 C771 1.363 . S
C774 N772 1.356 . S
C775 C769 1.363 . S
C775 C770 1.379 . S
C775 N773 1.356 . S
N776 C768 1.356 . S
N776 H782 0.984 . S
N776 H783 0.984 . S
N777 C770 1.356 . S
N777 H780 0.984 . S
N777 H781 0.985 . S
H778 N773 0.984 . S
H779 N773 0.985 . S
H780 N777 0.984 . S
H781 N777 0.985 . S
H782 N776 0.984 . S
H783 N776 0.984 . S
H784 N772 0.984 . S
H785 N772 0.985 . S
C786 C787 1.363 . S
C786 C792 1.379 . S
C786 N794 1.356 . S
C787 C786 1.363 . S
C787 C793 1.363 . S
C788 C789 1.363 . S
C788 C793 1.379 . S
C788 N795 1.356 . S
C789 C788 1.363 . S
C789 C792 1.363 . S
N790 C792 1.356 . S
N790 H802 0.984 . S
N790 H803 0.985 . S
N791 C793 1.356 . S
N791 H796 0.984 . S
N791 H797 0.985 . S
C792 C786 1.379 . S
C792 C789 1.363 . S
C792 N790 1.356 . S
C793 C787 1.363 . S
C793 C788 1.379 . S
C793 N791 1.356 . S
N794 C786 1.356 . S
N794 H800 0.984 . S
N794 H801 0.984 . S
N795 C788 1.356 . S
N795 H798 0.984 . S
N795 H799 0.985 . S
H796 N791 0.984 . S
H797 N791 0.985 . S
H798 N795 0.984 . S
H799 N795 0.985 . S
H800 N794 0.984 . S
H801 N794 0.984 . S
H802 N790 0.984 . S
H803 N790 0.985 . S
C804 C805 1.363 . S
C804 C810 1.379 1_565 S
C804 N812 1.356 . S
C805 C804 1.363 . S
C805 C811 1.363 1_556 S
C806 C807 1.363 . S
C806 C811 1.379 1_545 S
C806 N813 1.356 . S
C807 C806 1.363 . S
C807 C810 1.363 1_554 S
N808 C810 1.356 . S
N808 H820 0.984 . S
N808 H821 0.985 . S
N809 C811 1.356 . S
N809 H814 0.984 . S
N809 H815 0.985 . S
C810 C804 1.379 1_545 S
C810 C807 1.363 1_556 S
C810 N808 1.356 . S
C811 C805 1.363 1_554 S
C811 C806 1.379 1_565 S
C811 N809 1.356 . S
N812 C804 1.356 . S
N812 H818 0.984 . S
N812 H819 0.984 . S
N813 C806 1.356 . S
N813 H816 0.984 . S
N813 H817 0.985 . S
H814 N809 0.984 . S
H815 N809 0.985 . S
H816 N813 0.984 . S
H817 N813 0.985 . S
H818 N812 0.984 . S
H819 N812 0.984 . S
H820 N808 0.984 . S
H821 N808 0.985 . S
C822 C823 1.363 . S
C822 C828 1.379 . S
C822 N830 1.356 . S
C823 C822 1.363 . S
C823 C829 1.363 . S
C824 C825 1.363 . S
C824 C829 1.379 . S
C824 N831 1.356 . S
C825 C824 1.363 . S
C825 C828 1.363 . S
N826 C828 1.356 . S
N826 H838 0.984 . S
N826 H839 0.985 . S
N827 C829 1.356 . S
N827 H832 0.984 . S
N827 H833 0.985 . S
C828 C822 1.379 . S
C828 C825 1.363 . S
C828 N826 1.356 . S
C829 C823 1.363 . S
C829 C824 1.379 . S
C829 N827 1.356 . S
N830 C822 1.356 . S
N830 H836 0.984 . S
N830 H837 0.984 . S
N831 C824 1.356 . S
N831 H834 0.984 . S
N831 H835 0.985 . S
H832 N827 0.984 . S
H833 N827 0.985 . S
H834 N831 0.984 . S
H835 N831 0.985 . S
H836 N830 0.984 . S
H837 N830 0.984 . S
H838 N826 0.984 . S
H839 N826 0.985 . S
C840 C841 1.363 . S
C840 C846 1.379 1_455 S
C840 N848 1.356 . S
C841 C840 1.363 . S
C841 C847 1.363 1_556 S
C842 C843 1.363 . S
C842 C847 1.379 1_655 S
C842 N849 1.356 . S
C843 C842 1.363 . S
C843 C846 1.363 1_554 S
N844 C846 1.356 . S
N844 H856 0.984 . S
N844 H857 0.985 . S
N845 C847 1.356 . S
N845 H850 0.984 . S
N845 H851 0.985 . S
C846 C840 1.379 1_655 S
C846 C843 1.363 1_556 S
C846 N844 1.356 . S
C847 C841 1.363 1_554 S
C847 C842 1.379 1_455 S
C847 N845 1.356 . S
N848 C840 1.356 . S
N848 H854 0.984 . S
N848 H855 0.984 . S
N849 C842 1.356 . S
N849 H852 0.984 . S
N849 H853 0.985 . S
H850 N845 0.984 . S
H851 N845 0.985 . S
H852 N849 0.984 . S
H853 N849 0.985 . S
H854 N848 0.984 . S
H855 N848 0.984 . S
H856 N844 0.984 . S
H857 N844 0.985 . S
C858 C859 1.363 . S
C858 C864 1.379 1_545 S
C858 N866 1.356 . S
C859 C858 1.363 . S
C859 C865 1.363 . S
C860 C861 1.363 . S
C860 C865 1.379 1_565 S
C860 N867 1.356 . S
C861 C860 1.363 . S
C861 C864 1.363 . S
N862 C864 1.356 . S
N862 H874 0.984 . S
N862 H875 0.985 . S
N863 C865 1.356 . S
N863 H868 0.984 . S
N863 H869 0.985 . S
C864 C858 1.379 1_565 S
C864 C861 1.363 . S
C864 N862 1.356 . S
C865 C859 1.363 . S
C865 C860 1.379 1_545 S
C865 N863 1.356 . S
N866 C858 1.356 . S
N866 H872 0.984 . S
N866 H873 0.984 . S
N867 C860 1.356 . S
N867 H870 0.984 . S
N867 H871 0.985 . S
H868 N863 0.984 . S
H869 N863 0.985 . S
H870 N867 0.984 . S
H871 N867 0.985 . S
H872 N866 0.984 . S
H873 N866 0.984 . S
H874 N862 0.984 . S
H875 N862 0.985 . S
C876 C877 1.363 1_556 S
C876 C882 1.379 . S
C876 N884 1.356 . S
C877 C876 1.363 1_554 S
C877 C883 1.363 . S
C878 C879 1.363 1_554 S
C878 C883 1.379 . S
C878 N885 1.356 . S
C879 C878 1.363 1_556 S
C879 C882 1.363 . S
N880 C882 1.356 . S
N880 H892 0.984 . S
N880 H893 0.985 . S
N881 C883 1.356 . S
N881 H886 0.984 . S
N881 H887 0.985 . S
C882 C876 1.379 . S
C882 C879 1.363 . S
C882 N880 1.356 . S
C883 C877 1.363 . S
C883 C878 1.379 . S
C883 N881 1.356 . S
N884 C876 1.356 . S
N884 H890 0.984 . S
N884 H891 0.984 . S
N885 C878 1.356 . S
N885 H888 0.984 . S
N885 H889 0.985 . S
H886 N881 0.984 . S
H887 N881 0.985 . S
H888 N885 0.984 . S
H889 N885 0.985 . S
H890 N884 0.984 . S
H891 N884 0.984 . S
H892 N880 0.984 . S
H893 N880 0.985 . S
C894 C895 1.363 . S
C894 C900 1.379 1_455 S
C894 N902 1.356 . S
C895 C894 1.363 . S
C895 C901 1.363 . S
C896 C897 1.363 . S
C896 C901 1.379 1_655 S
C896 N903 1.356 . S
C897 C896 1.363 . S
C897 C900 1.363 . S
N898 C900 1.356 . S
N898 H910 0.984 . S
N898 H911 0.985 . S
N899 C901 1.356 . S
N899 H904 0.984 . S
N899 H905 0.985 . S
C900 C894 1.379 1_655 S
C900 C897 1.363 . S
C900 N898 1.356 . S
C901 C895 1.363 . S
C901 C896 1.379 1_455 S
C901 N899 1.356 . S
N902 C894 1.356 . S
N902 H908 0.984 . S
N902 H909 0.984 . S
N903 C896 1.356 . S
N903 H906 0.984 . S
N903 H907 0.985 . S
H904 N899 0.984 . S
H905 N899 0.985 . S
H906 N903 0.984 . S
H907 N903 0.985 . S
H908 N902 0.984 . S
H909 N902 0.984 . S
H910 N898 0.984 . S
H911 N898 0.985 . S
C912 C913 1.363 . S
C912 C918 1.379 . S
C912 N920 1.356 . S
C913 C912 1.363 . S
C913 C919 1.363 . S
C914 C915 1.363 . S
C914 C919 1.379 . S
C914 N921 1.356 . S
C915 C914 1.363 . S
C915 C918 1.363 . S
N916 C918 1.356 . S
N916 H928 0.984 . S
N916 H929 0.985 . S
N917 C919 1.356 . S
N917 H922 0.984 . S
N917 H923 0.985 . S
C918 C912 1.379 . S
C918 C915 1.363 . S
C918 N916 1.356 . S
C919 C913 1.363 . S
C919 C914 1.379 . S
C919 N917 1.356 . S
N920 C912 1.356 . S
N920 H926 0.984 . S
N920 H927 0.984 . S
N921 C914 1.356 . S
N921 H924 0.984 . S
N921 H925 0.985 . S
H922 N917 0.984 . S
H923 N917 0.985 . S
H924 N921 0.984 . S
H925 N921 0.985 . S
H926 N920 0.984 . S
H927 N920 0.984 . S
H928 N916 0.984 . S
H929 N916 0.985 . S
C930 C931 1.363 . S
C930 C936 1.379 . S
C930 N938 1.356 . S
C931 C930 1.363 . S
C931 C937 1.363 . S
C932 C933 1.363 . S
C932 C937 1.379 . S
C932 N939 1.356 . S
C933 C932 1.363 . S
C933 C936 1.363 . S
N934 C936 1.356 . S
N934 H946 0.984 . S
N934 H947 0.985 . S
N935 C937 1.356 . S
N935 H940 0.984 . S
N935 H941 0.985 . S
C936 C930 1.379 . S
C936 C933 1.363 . S
C936 N934 1.356 . S
C937 C931 1.363 . S
C937 C932 1.379 . S
C937 N935 1.356 . S
N938 C930 1.356 . S
N938 H944 0.984 . S
N938 H945 0.984 . S
N939 C932 1.356 . S
N939 H942 0.984 . S
N939 H943 0.985 . S
H940 N935 0.984 . S
H941 N935 0.985 . S
H942 N939 0.984 . S
H943 N939 0.985 . S
H944 N938 0.984 . S
H945 N938 0.984 . S
H946 N934 0.984 . S
H947 N934 0.985 . S
C948 C949 1.363 . S
C948 C954 1.379 . S
C948 N956 1.356 . S
C949 C948 1.363 . S
C949 C955 1.363 . S
C950 C951 1.363 . S
C950 C955 1.379 . S
C950 N957 1.356 . S
C951 C950 1.363 . S
C951 C954 1.363 . S
N952 C954 1.356 . S
N952 H964 0.984 . S
N952 H965 0.985 . S
N953 C955 1.356 . S
N953 H958 0.984 . S
N953 H959 0.985 . S
C954 C948 1.379 . S
C954 C951 1.363 . S
C954 N952 1.356 . S
C955 C949 1.363 . S
C955 C950 1.379 . S
C955 N953 1.356 . S
N956 C948 1.356 . S
N956 H962 0.984 . S
N956 H963 0.984 . S
N957 C950 1.356 . S
N957 H960 0.984 . S
N957 H961 0.985 . S
H958 N953 0.984 . S
H959 N953 0.985 . S
H960 N957 0.984 . S
H961 N957 0.985 . S
H962 N956 0.984 . S
H963 N956 0.984 . S
H964 N952 0.984 . S
H965 N952 0.985 . S
C966 C967 1.363 . S
C966 C972 1.379 . S
C966 N974 1.356 . S
C967 C966 1.363 . S
C967 C973 1.363 . S
C968 C969 1.363 . S
C968 C973 1.379 . S
C968 N975 1.356 . S
C969 C968 1.363 . S
C969 C972 1.363 . S
N970 C972 1.356 . S
N970 H982 0.984 . S
N970 H983 0.985 . S
N971 C973 1.356 . S
N971 H976 0.984 . S
N971 H977 0.985 . S
C972 C966 1.379 . S
C972 C969 1.363 . S
C972 N970 1.356 . S
C973 C967 1.363 . S
C973 C968 1.379 . S
C973 N971 1.356 . S
N974 C966 1.356 . S
N974 H980 0.984 . S
N974 H981 0.984 . S
N975 C968 1.356 . S
N975 H978 0.984 . S
N975 H979 0.985 . S
H976 N971 0.984 . S
H977 N971 0.985 . S
H978 N975 0.984 . S
H979 N975 0.985 . S
H980 N974 0.984 . S
H981 N974 0.984 . S
H982 N970 0.984 . S
H983 N970 0.985 . S
C984 C985 1.363 . S
C984 C990 1.379 . S
C984 N992 1.356 . S
C985 C984 1.363 . S
C985 C991 1.363 . S
C986 C987 1.363 . S
C986 C991 1.379 . S
C986 N993 1.356 . S
C987 C986 1.363 . S
C987 C990 1.363 . S
N988 C990 1.356 . S
N988 H1000 0.984 . S
N988 H1001 0.985 . S
N989 C991 1.356 . S
N989 H994 0.984 . S
N989 H995 0.985 . S
C990 C984 1.379 . S
C990 C987 1.363 . S
C990 N988 1.356 . S
C991 C985 1.363 . S
C991 C986 1.379 . S
C991 N989 1.356 . S
N992 C984 1.356 . S
N992 H998 0.984 . S
N992 H999 0.984 . S
N993 C986 1.356 . S
N993 H996 0.984 . S
N993 H997 0.985 . S
H994 N989 0.984 . S
H995 N989 0.985 . S
H996 N993 0.984 . S
H997 N993 0.985 . S
H998 N992 0.984 . S
H999 N992 0.984 . S
H1000 N988 0.984 . S
H1001 N988 0.985 . S
C1002 C1003 1.363 . S
C1002 C1008 1.379 . S
C1002 N1010 1.356 . S
C1003 C1002 1.363 . S
C1003 C1009 1.363 . S
C1004 C1005 1.363 . S
C1004 C1009 1.379 . S
C1004 N1011 1.356 . S
C1005 C1004 1.363 . S
C1005 C1008 1.363 . S
N1006 C1008 1.356 . S
N1006 H1018 0.984 . S
N1006 H1019 0.985 . S
N1007 C1009 1.356 . S
N1007 H1012 0.984 . S
N1007 H1013 0.985 . S
C1008 C1002 1.379 . S
C1008 C1005 1.363 . S
C1008 N1006 1.356 . S
C1009 C1003 1.363 . S
C1009 C1004 1.379 . S
C1009 N1007 1.356 . S
N1010 C1002 1.356 . S
N1010 H1016 0.984 . S
N1010 H1017 0.984 . S
N1011 C1004 1.356 . S
N1011 H1014 0.984 . S
N1011 H1015 0.985 . S
H1012 N1007 0.984 . S
H1013 N1007 0.985 . S
H1014 N1011 0.984 . S
H1015 N1011 0.985 . S
H1016 N1010 0.984 . S
H1017 N1010 0.984 . S
H1018 N1006 0.984 . S
H1019 N1006 0.985 . S
C1020 C1021 1.363 . S
C1020 C1026 1.379 . S
C1020 N1028 1.356 . S
C1021 C1020 1.363 . S
C1021 C1027 1.363 . S
C1022 C1023 1.363 . S
C1022 C1027 1.379 . S
C1022 N1029 1.356 . S
C1023 C1022 1.363 . S
C1023 C1026 1.363 . S
N1024 C1026 1.356 . S
N1024 H1036 0.984 . S
N1024 H1037 0.985 . S
N1025 C1027 1.356 . S
N1025 H1030 0.984 . S
N1025 H1031 0.985 . S
C1026 C1020 1.379 . S
C1026 C1023 1.363 . S
C1026 N1024 1.356 . S
C1027 C1021 1.363 . S
C1027 C1022 1.379 . S
C1027 N1025 1.356 . S
N1028 C1020 1.356 . S
N1028 H1034 0.984 . S
N1028 H1035 0.984 . S
N1029 C1022 1.356 . S
N1029 H1032 0.984 . S
N1029 H1033 0.985 . S
H1030 N1025 0.984 . S
H1031 N1025 0.985 . S
H1032 N1029 0.984 . S
H1033 N1029 0.985 . S
H1034 N1028 0.984 . S
H1035 N1028 0.984 . S
H1036 N1024 0.984 . S
H1037 N1024 0.985 . S
C1038 C1039 1.363 . S
C1038 C1044 1.379 . S
C1038 N1046 1.356 . S
C1039 C1038 1.363 . S
C1039 C1045 1.363 . S
C1040 C1041 1.363 . S
C1040 C1045 1.379 . S
C1040 N1047 1.356 . S
C1041 C1040 1.363 . S
C1041 C1044 1.363 . S
N1042 C1044 1.356 . S
N1042 H1054 0.984 . S
N1042 H1055 0.985 . S
N1043 C1045 1.356 . S
N1043 H1048 0.984 . S
N1043 H1049 0.985 . S
C1044 C1038 1.379 . S
C1044 C1041 1.363 . S
C1044 N1042 1.356 . S
C1045 C1039 1.363 . S
C1045 C1040 1.379 . S
C1045 N1043 1.356 . S
N1046 C1038 1.356 . S
N1046 H1052 0.984 . S
N1046 H1053 0.984 . S
N1047 C1040 1.356 . S
N1047 H1050 0.984 . S
N1047 H1051 0.985 . S
H1048 N1043 0.984 . S
H1049 N1043 0.985 . S
H1050 N1047 0.984 . S
H1051 N1047 0.985 . S
H1052 N1046 0.984 . S
H1053 N1046 0.984 . S
H1054 N1042 0.984 . S
H1055 N1042 0.985 . S
C1056 C1057 1.363 . S
C1056 C1062 1.379 . S
C1056 N1064 1.356 . S
C1057 C1056 1.363 . S
C1057 C1063 1.363 . S
C1058 C1059 1.363 . S
C1058 C1063 1.379 . S
C1058 N1065 1.356 . S
C1059 C1058 1.363 . S
C1059 C1062 1.363 . S
N1060 C1062 1.356 . S
N1060 H1072 0.984 . S
N1060 H1073 0.985 . S
N1061 C1063 1.356 . S
N1061 H1066 0.984 . S
N1061 H1067 0.985 . S
C1062 C1056 1.379 . S
C1062 C1059 1.363 . S
C1062 N1060 1.356 . S
C1063 C1057 1.363 . S
C1063 C1058 1.379 . S
C1063 N1061 1.356 . S
N1064 C1056 1.356 . S
N1064 H1070 0.984 . S
N1064 H1071 0.984 . S
N1065 C1058 1.356 . S
N1065 H1068 0.984 . S
N1065 H1069 0.985 . S
H1066 N1061 0.984 . S
H1067 N1061 0.985 . S
H1068 N1065 0.984 . S
H1069 N1065 0.985 . S
H1070 N1064 0.984 . S
H1071 N1064 0.984 . S
H1072 N1060 0.984 . S
H1073 N1060 0.985 . S
C1074 C1075 1.363 . S
C1074 C1080 1.379 . S
C1074 N1082 1.356 . S
C1075 C1074 1.363 . S
C1075 C1081 1.363 . S
C1076 C1077 1.363 . S
C1076 C1081 1.379 . S
C1076 N1083 1.356 . S
C1077 C1076 1.363 . S
C1077 C1080 1.363 . S
N1078 C1080 1.356 . S
N1078 H1090 0.984 . S
N1078 H1091 0.985 . S
N1079 C1081 1.356 . S
N1079 H1084 0.984 . S
N1079 H1085 0.985 . S
C1080 C1074 1.379 . S
C1080 C1077 1.363 . S
C1080 N1078 1.356 . S
C1081 C1075 1.363 . S
C1081 C1076 1.379 . S
C1081 N1079 1.356 . S
N1082 C1074 1.356 . S
N1082 H1088 0.984 . S
N1082 H1089 0.984 . S
N1083 C1076 1.356 . S
N1083 H1086 0.984 . S
N1083 H1087 0.985 . S
H1084 N1079 0.984 . S
H1085 N1079 0.985 . S
H1086 N1083 0.984 . S
H1087 N1083 0.985 . S
H1088 N1082 0.984 . S
H1089 N1082 0.984 . S
H1090 N1078 0.984 . S
H1091 N1078 0.985 . S
C1092 C1093 1.363 . S
C1092 C1098 1.379 . S
C1092 N1100 1.356 . S
C1093 C1092 1.363 . S
C1093 C1099 1.363 . S
C1094 C1095 1.363 . S
C1094 C1099 1.379 . S
C1094 N1101 1.356 . S
C1095 C1094 1.363 . S
C1095 C1098 1.363 . S
N1096 C1098 1.356 . S
N1096 H1108 0.984 . S
N1096 H1109 0.985 . S
N1097 C1099 1.356 . S
N1097 H1102 0.984 . S
N1097 H1103 0.985 . S
C1098 C1092 1.379 . S
C1098 C1095 1.363 . S
C1098 N1096 1.356 . S
C1099 C1093 1.363 . S
C1099 C1094 1.379 . S
C1099 N1097 1.356 . S
N1100 C1092 1.356 . S
N1100 H1106 0.984 . S
N1100 H1107 0.984 . S
N1101 C1094 1.356 . S
N1101 H1104 0.984 . S
N1101 H1105 0.985 . S
H1102 N1097 0.984 . S
H1103 N1097 0.985 . S
H1104 N1101 0.984 . S
H1105 N1101 0.985 . S
H1106 N1100 0.984 . S
H1107 N1100 0.984 . S
H1108 N1096 0.984 . S
H1109 N1096 0.985 . S
C1110 C1111 1.363 . S
C1110 C1116 1.379 . S
C1110 N1118 1.356 . S
C1111 C1110 1.363 . S
C1111 C1117 1.363 . S
C1112 C1113 1.363 . S
C1112 C1117 1.379 . S
C1112 N1119 1.356 . S
C1113 C1112 1.363 . S
C1113 C1116 1.363 . S
N1114 C1116 1.356 . S
N1114 H1126 0.984 . S
N1114 H1127 0.985 . S
N1115 C1117 1.356 . S
N1115 H1120 0.984 . S
N1115 H1121 0.985 . S
C1116 C1110 1.379 . S
C1116 C1113 1.363 . S
C1116 N1114 1.356 . S
C1117 C1111 1.363 . S
C1117 C1112 1.379 . S
C1117 N1115 1.356 . S
N1118 C1110 1.356 . S
N1118 H1124 0.984 . S
N1118 H1125 0.984 . S
N1119 C1112 1.356 . S
N1119 H1122 0.984 . S
N1119 H1123 0.985 . S
H1120 N1115 0.984 . S
H1121 N1115 0.985 . S
H1122 N1119 0.984 . S
H1123 N1119 0.985 . S
H1124 N1118 0.984 . S
H1125 N1118 0.984 . S
H1126 N1114 0.984 . S
H1127 N1114 0.985 . S
C481 C85 1.347 . S
C483 C9 1.299 . S
C499 C135 1.347 . S
C501 C59 1.299 . S
C517 C89 1.299 . S
C519 C165 1.347 . S
C535 C139 1.299 . S
C537 C215 1.348 . S
C553 C5 1.347 . S
C555 C169 1.299 . S
C571 C55 1.347 . S
C573 C219 1.299 . S
C589 C415 1.348 . S
C591 C259 1.299 . S
C607 C289 1.299 . S
C609 C445 1.347 . S
C625 C339 1.299 . S
C627 C255 1.347 . S
C643 C369 1.299 . S
C645 C285 1.348 . S
C661 C419 1.299 . S
C663 C335 1.347 . S
C679 C365 1.347 . S
C681 C449 1.299 . S
C697 C138 1.699 . S
C699 C8 1.699 . S
C715 C58 1.699 . S
C717 C168 1.699 . S
C733 C88 1.699 . S
C735 C218 1.699 . S
C751 C258 1.699 . S
C753 C368 1.699 . S
C769 C288 1.699 . S
C771 C418 1.699 . S
C787 C338 1.699 . S
C789 C448 1.699 . S
C805 C298 2.516 . S
C807 C18 2.516 . S
C823 C48 2.517 . S
C825 C328 2.517 . S
C841 C378 2.516 . S
C843 C98 2.516 . S
C859 C128 2.516 . S
C861 C408 2.516 . S
C877 C178 2.517 . S
C879 C458 2.517 . S
C895 C248 2.516 . S
C897 C208 2.516 . S
C913 C95 1.726 . S
C915 C19 1.735 . S
C931 C49 1.735 . S
C933 C125 1.726 . S
C949 C99 1.735 . S
C951 C175 1.726 . S
C967 C129 1.735 . S
C969 C205 1.726 . S
C985 C15 1.726 . S
C987 C179 1.735 . S
C1003 C45 1.726 . S
C1005 C209 1.735 . S
C1021 C405 1.726 . S
C1023 C249 1.735 . S
C1039 C299 1.735 . S
C1041 C455 1.726 . S
C1057 C329 1.735 . S
C1059 C245 1.726 . S
C1075 C295 1.726 . S
C1077 C379 1.735 . S
C1093 C409 1.735 . S
C1095 C325 1.726 . S
C1111 C459 1.735 . S
C1113 C375 1.726 . S
