# Generated by pormake.
# Topology uof, (4)-cn, num edge types: 1
# Building blocks:
#     Node 0, Type 0, BuildingBlock: UXUYUI_clean_sbu_0, # of connection points: 4
#     Node 1, Type 0, BuildingBlock: UXUYUI_clean_sbu_0, # of connection points: 4
#     Node 2, Type 0, BuildingBlock: UXUYUI_clean_sbu_0, # of connection points: 4
#     Node 3, Type 0, BuildingBlock: UXUYUI_clean_sbu_0, # of connection points: 4
#     Node 4, Type 0, BuildingBlock: UXUYUI_clean_sbu_0, # of connection points: 4
#     Node 5, Type 0, BuildingBlock: UXUYUI_clean_sbu_0, # of connection points: 4
#     Node 6, Type 0, BuildingBlock: UXUYUI_clean_sbu_0, # of connection points: 4
#     Node 7, Type 0, BuildingBlock: UXUYUI_clean_sbu_0, # of connection points: 4
#     Node 8, Type 0, BuildingBlock: UXUYUI_clean_sbu_0, # of connection points: 4
#     Node 9, Type 0, BuildingBlock: UXUYUI_clean_sbu_0, # of connection points: 4
#     Node 10, Type 0, BuildingBlock: UXUYUI_clean_sbu_0, # of connection points: 4
#     Node 11, Type 0, BuildingBlock: UXUYUI_clean_sbu_0, # of connection points: 4
#     Edge 12, Type (0, 0), BuildingBlock: UVAHIK_clean_linker_0, # of connection points: 2
#     Edge 13, Type (0, 0), BuildingBlock: UVAHIK_clean_linker_0, # of connection points: 2
#     Edge 14, Type (0, 0), BuildingBlock: UVAHIK_clean_linker_0, # of connection points: 2
#     Edge 15, Type (0, 0), BuildingBlock: UVAHIK_clean_linker_0, # of connection points: 2
#     Edge 16, Type (0, 0), BuildingBlock: UVAHIK_clean_linker_0, # of connection points: 2
#     Edge 17, Type (0, 0), BuildingBlock: UVAHIK_clean_linker_0, # of connection points: 2
#     Edge 18, Type (0, 0), BuildingBlock: UVAHIK_clean_linker_0, # of connection points: 2
#     Edge 19, Type (0, 0), BuildingBlock: UVAHIK_clean_linker_0, # of connection points: 2
#     Edge 20, Type (0, 0), BuildingBlock: UVAHIK_clean_linker_0, # of connection points: 2
#     Edge 21, Type (0, 0), BuildingBlock: UVAHIK_clean_linker_0, # of connection points: 2
#     Edge 22, Type (0, 0), BuildingBlock: UVAHIK_clean_linker_0, # of connection points: 2
#     Edge 23, Type (0, 0), BuildingBlock: UVAHIK_clean_linker_0, # of connection points: 2
#     Edge 24, Type (0, 0), BuildingBlock: UVAHIK_clean_linker_0, # of connection points: 2
#     Edge 25, Type (0, 0), BuildingBlock: UVAHIK_clean_linker_0, # of connection points: 2
#     Edge 26, Type (0, 0), BuildingBlock: UVAHIK_clean_linker_0, # of connection points: 2
#     Edge 27, Type (0, 0), BuildingBlock: UVAHIK_clean_linker_0, # of connection points: 2
#     Edge 28, Type (0, 0), BuildingBlock: UVAHIK_clean_linker_0, # of connection points: 2
#     Edge 29, Type (0, 0), BuildingBlock: UVAHIK_clean_linker_0, # of connection points: 2
#     Edge 30, Type (0, 0), BuildingBlock: UVAHIK_clean_linker_0, # of connection points: 2
#     Edge 31, Type (0, 0), BuildingBlock: UVAHIK_clean_linker_0, # of connection points: 2
#     Edge 32, Type (0, 0), BuildingBlock: UVAHIK_clean_linker_0, # of connection points: 2
#     Edge 33, Type (0, 0), BuildingBlock: UVAHIK_clean_linker_0, # of connection points: 2
#     Edge 34, Type (0, 0), BuildingBlock: UVAHIK_clean_linker_0, # of connection points: 2
#     Edge 35, Type (0, 0), BuildingBlock: UVAHIK_clean_linker_0, # of connection points: 2
# Relax obj value: 0.353
# Max RMSD: 0.222
# Mean RMSD: 0.221
data_MOF--net-uof--node1-UXUYUI_clean_sbu_0--edge1-UVAHIK_clean_linker_0
_symmetry_space_group_name_H-M    P1
_symmetry_Int_Tables_number       1
_symmetry_cell_setting            triclinic
loop_
_symmetry_equiv_pos_as_xyz
'x, y, z'
_cell_length_a     55.606318
_cell_length_b     55.606859
_cell_length_c     107.45895
_cell_angle_alpha  90.010177
_cell_angle_beta   89.98861
_cell_angle_gamma 120.03553
loop_
_atom_site_label
_atom_site_type_symbol
_atom_site_fract_x
_atom_site_fract_y
_atom_site_fract_z
_atom_type_partial_charge
Li0 Li 0.21597 0.33804 0.21368 0.0
Li1 Li 0.23896 0.33425 0.23296 0.0
Li2 Li 0.26631 0.36384 0.21517 0.0
Li3 Li 0.24142 0.31359 0.21346 0.0
C4 C 0.23951 0.39211 0.22274 0.0
N5 N 0.23944 0.44009 0.21613 0.0
C6 C 0.2373 0.40876 0.23188 0.0
C7 C 0.24172 0.39986 0.21023 0.0
C8 C 0.23729 0.43294 0.22835 0.0
C9 C 0.24164 0.42419 0.20708 0.0
C10 C 0.19287 0.27631 0.22239 0.0
C11 C 0.18625 0.23109 0.22736 0.0
N12 N 0.16423 0.21929 0.21944 0.0
C13 C 0.17004 0.26372 0.21438 0.0
C14 C 0.20092 0.25987 0.22902 0.0
C15 C 0.15587 0.23486 0.213 0.0
C16 C 0.176 0.32517 0.19557 0.0
N17 N 0.18411 0.33724 0.20693 0.0
C18 C 0.14439 0.34303 0.20824 0.0
C19 C 0.16914 0.34646 0.21327 0.0
C20 C 0.13496 0.32977 0.19665 0.0
C21 C 0.15139 0.32113 0.19025 0.0
H22 H 0.18818 0.31771 0.19084 0.0
H23 H 0.17608 0.35592 0.22233 0.0
C24 C 0.26234 0.34856 0.25671 0.0
N25 N 0.239 0.33037 0.25045 0.0
C26 C 0.26611 0.34336 0.26906 0.0
C27 C 0.22107 0.30158 0.26845 0.0
C28 C 0.21817 0.3076 0.25611 0.0
C29 C 0.24565 0.31917 0.27498 0.0
H30 H 0.27875 0.36621 0.25186 0.0
H31 H 0.19993 0.29341 0.25086 0.0
C32 C 0.25884 0.34255 0.19094 0.0
N33 N 0.29092 0.34648 0.17056 0.0
C34 C 0.28229 0.33974 0.1924 0.0
C35 C 0.25164 0.34725 0.1791 0.0
C36 C 0.29825 0.34182 0.18199 0.0
C37 C 0.26815 0.34921 0.16891 0.0
C38 C 0.29127 0.33183 0.22965 0.0
C39 C 0.3184 0.34575 0.225 0.0
C40 C 0.28451 0.3127 0.23934 0.0
C41 C 0.33829 0.34034 0.23012 0.0
C42 C 0.305 0.30789 0.24422 0.0
N43 N 0.33124 0.32169 0.23955 0.0
C44 C 0.31711 0.40732 0.22213 0.0
C45 C 0.31011 0.40691 0.20036 0.0
C46 C 0.34488 0.42783 0.22084 0.0
N47 N 0.30069 0.39664 0.21194 0.0
C48 C 0.33789 0.4273 0.19861 0.0
C49 C 0.35583 0.43738 0.20891 0.0
H50 H 0.30901 0.39865 0.23122 0.0
H51 H 0.29652 0.3985 0.19241 0.0
C52 C 0.2234 0.26951 0.19662 0.0
N53 N 0.24177 0.2825 0.20603 0.0
C54 C 0.2218 0.24628 0.19085 0.0
C55 C 0.25883 0.25086 0.20421 0.0
C56 C 0.25943 0.27373 0.20984 0.0
C57 C 0.23972 0.23675 0.19465 0.0
H58 H 0.20985 0.27716 0.19367 0.0
H59 H 0.27398 0.28432 0.21724 0.0
O60 O 0.23942 0.36833 0.22608 0.0
O61 O 0.20743 0.30459 0.22363 0.0
O62 O 0.24278 0.34056 0.20096 0.0
O63 O 0.27161 0.33717 0.22484 0.0
H64 H 0.23557 0.40302 0.2416 0.0
H65 H 0.24344 0.38728 0.203 0.0
H66 H 0.23557 0.44602 0.23533 0.0
H67 H 0.24332 0.43043 0.19744 0.0
H68 H 0.19242 0.21814 0.23235 0.0
H69 H 0.16343 0.2761 0.20923 0.0
H70 H 0.21854 0.26925 0.23525 0.0
H71 H 0.13826 0.22486 0.20677 0.0
H72 H 0.13261 0.3503 0.21346 0.0
H73 H 0.14481 0.3103 0.18144 0.0
H74 H 0.28552 0.3573 0.27366 0.0
H75 H 0.20463 0.28292 0.27272 0.0
H76 H 0.28812 0.336 0.20146 0.0
H77 H 0.23354 0.34947 0.1778 0.0
H78 H 0.31647 0.33972 0.183 0.0
H79 H 0.26286 0.35291 0.15969 0.0
H80 H 0.32408 0.36054 0.21747 0.0
H81 H 0.26365 0.30152 0.24302 0.0
H82 H 0.35934 0.35097 0.2266 0.0
H83 H 0.30002 0.29314 0.25172 0.0
H84 H 0.35801 0.43483 0.22902 0.0
H85 H 0.34548 0.43445 0.18928 0.0
H86 H 0.20697 0.23607 0.18341 0.0
H87 H 0.27286 0.24399 0.20744 0.0
Li88 Li 0.87074 0.2082 0.54716 0.0
Li89 Li 0.89979 0.23222 0.56548 0.0
Li90 Li 0.89584 0.25778 0.54773 0.0
Li91 Li 0.92114 0.23221 0.54556 0.0
C92 C 0.85301 0.24678 0.56201 0.0
N93 N 0.82862 0.2785 0.56696 0.0
C94 C 0.85592 0.25878 0.57375 0.0
C95 C 0.83747 0.25065 0.55283 0.0
C96 C 0.84347 0.27481 0.57605 0.0
C97 C 0.82538 0.26685 0.5555 0.0
C98 C 0.8973 0.18244 0.56489 0.0
C99 C 0.92126 0.17088 0.58041 0.0
N100 N 0.89713 0.14717 0.58307 0.0
C101 C 0.87271 0.15801 0.56783 0.0
C102 C 0.92177 0.18897 0.57125 0.0
C103 C 0.87307 0.14042 0.57702 0.0
C104 C 0.84382 0.15484 0.53775 0.0
N105 N 0.8389 0.17544 0.54129 0.0
C106 C 0.79105 0.1479 0.53559 0.0
C107 C 0.81321 0.17258 0.54028 0.0
C108 C 0.79552 0.12609 0.53209 0.0
C109 C 0.82235 0.12988 0.53317 0.0
H110 H 0.86456 0.1579 0.53849 0.0
H111 H 0.80994 0.1894 0.54307 0.0
C112 C 0.92497 0.26051 0.58714 0.0
N113 N 0.90585 0.23479 0.58304 0.0
C114 C 0.93361 0.26466 0.59951 0.0
C115 C 0.90194 0.21594 0.60343 0.0
C116 C 0.89344 0.21287 0.591 0.0
C117 C 0.9226 0.24205 0.60772 0.0
H118 H 0.93406 0.27776 0.58071 0.0
H119 H 0.87755 0.19284 0.58766 0.0
C120 C 0.88119 0.22007 0.52348 0.0
N121 N 0.852 0.1889 0.50309 0.0
C122 C 0.88896 0.20247 0.5177 0.0
C123 C 0.85877 0.22204 0.51884 0.0
C124 C 0.87389 0.18684 0.50741 0.0
C125 C 0.84421 0.20604 0.50854 0.0
C126 C 0.95741 0.28055 0.5555 0.0
C127 C 0.96834 0.30263 0.54706 0.0
C128 C 0.97536 0.27525 0.56256 0.0
C129 C 0.99713 0.31894 0.54574 0.0
C130 C 0.00402 0.29201 0.56096 0.0
N131 N 0.01422 0.31332 0.55265 0.0
C132 C 0.90561 0.31005 0.5539 0.0
C133 C 0.90031 0.30165 0.53216 0.0
C134 C 0.91378 0.33788 0.55208 0.0
N135 N 0.89929 0.29268 0.54402 0.0
C136 C 0.9088 0.32958 0.52989 0.0
C137 C 0.91612 0.34814 0.53994 0.0
H138 H 0.9058 0.3026 0.56317 0.0
H139 H 0.89598 0.28753 0.52446 0.0
C140 C 0.95984 0.21414 0.54129 0.0
N141 N 0.95196 0.23264 0.53778 0.0
C142 C 0.9829 0.21481 0.53582 0.0
C143 C 0.98879 0.253 0.52292 0.0
C144 C 0.96562 0.25162 0.52868 0.0
C145 C 0.9978 0.2345 0.52653 0.0
H146 H 0.94824 0.19881 0.54832 0.0
H147 H 0.95849 0.2657 0.5259 0.0
O148 O 0.86531 0.23131 0.55953 0.0
O149 O 0.89741 0.19986 0.55586 0.0
O150 O 0.89516 0.23492 0.53378 0.0
O151 O 0.92928 0.26397 0.55675 0.0
H152 H 0.86781 0.25589 0.58097 0.0
H153 H 0.83508 0.24154 0.5437 0.0
H154 H 0.84566 0.28434 0.58507 0.0
H155 H 0.81347 0.27021 0.54846 0.0
H156 H 0.94002 0.17575 0.58543 0.0
H157 H 0.85347 0.15277 0.56317 0.0
H158 H 0.9409 0.20797 0.56925 0.0
H159 H 0.85419 0.12147 0.57939 0.0
H160 H 0.77062 0.14572 0.53487 0.0
H161 H 0.82677 0.11378 0.53036 0.0
H162 H 0.9496 0.28511 0.60248 0.0
H163 H 0.89274 0.19812 0.60958 0.0
H164 H 0.9062 0.20064 0.52122 0.0
H165 H 0.85252 0.23557 0.52322 0.0
H166 H 0.87953 0.17299 0.50288 0.0
H167 H 0.82669 0.20719 0.50489 0.0
H168 H 0.95477 0.30696 0.54147 0.0
H169 H 0.96724 0.2583 0.56916 0.0
H170 H 0.00587 0.33601 0.53919 0.0
H171 H 0.01816 0.28807 0.56631 0.0
H172 H 0.91986 0.35157 0.56007 0.0
H173 H 0.91046 0.33676 0.52039 0.0
H174 H 0.98918 0.20027 0.53896 0.0
H175 H -0.00069 0.26817 0.51564 0.0
Li176 Li 0.67055 0.90681 0.90116 0.0
Li177 Li 0.66652 0.87824 0.88279 0.0
Li178 Li 0.69093 0.92861 0.88119 0.0
Li179 Li 0.64016 0.90123 0.88358 0.0
C180 C 0.71854 0.90588 0.90038 0.0
N181 N 0.75384 0.90567 0.91844 0.0
C182 C 0.71883 0.88142 0.90307 0.0
C183 C 0.73614 0.9302 0.90692 0.0
C184 C 0.73687 0.88177 0.9122 0.0
C185 C 0.75382 0.92967 0.91601 0.0
C186 C 0.61003 0.85817 0.89788 0.0
C187 C 0.56245 0.82845 0.89159 0.0
N188 N 0.55382 0.83203 0.90293 0.0
C189 C 0.60074 0.86141 0.9095 0.0
C190 C 0.59079 0.84142 0.88887 0.0
C191 C 0.57221 0.84807 0.91187 0.0
C192 C 0.66693 0.93167 0.92282 0.0
N193 N 0.67418 0.91304 0.91872 0.0
C194 C 0.68927 0.9095 0.93914 0.0
C195 C 0.68418 0.90109 0.92668 0.0
C196 C 0.68302 0.92959 0.94345 0.0
C197 C 0.6711 0.9402 0.93521 0.0
H198 H 0.65839 0.94038 0.9164 0.0
H199 H 0.68888 0.8856 0.92334 0.0
C200 C 0.69492 0.85457 0.87242 0.0
N201 N 0.66928 0.84761 0.87671 0.0
C202 C 0.69992 0.8344 0.86745 0.0
C203 C 0.65183 0.80004 0.87119 0.0
C204 C 0.64776 0.82102 0.87618 0.0
C205 C 0.6783 0.80667 0.86685 0.0
H206 H 0.71152 0.87596 0.87284 0.0
H207 H 0.62751 0.81613 0.87959 0.0
C208 C 0.67703 0.96329 0.89111 0.0
N209 N 0.69901 0.01977 0.88797 0.0
C210 C 0.66472 0.97322 0.88278 0.0
C211 C 0.70042 0.98206 0.8979 0.0
C212 C 0.67616 0.00186 0.88132 0.0
C213 C 0.71126 0.01055 0.89615 0.0
C214 C 0.66382 0.88839 0.85907 0.0
C215 C 0.68899 0.89794 0.85278 0.0
C216 C 0.63997 0.86478 0.85478 0.0
C217 C 0.68994 0.88344 0.84235 0.0
C218 C 0.64179 0.85083 0.84433 0.0
N219 N 0.66653 0.86036 0.83839 0.0
C220 C 0.74716 0.96821 0.87692 0.0
C221 C 0.71519 0.97374 0.8644 0.0
C222 C 0.76942 0.99147 0.8715 0.0
N223 N 0.72071 0.96007 0.87342 0.0
C224 C 0.73687 0.99712 0.85869 0.0
C225 C 0.76445 0.0063 0.86226 0.0
H226 H 0.75104 0.95662 0.88389 0.0
H227 H 0.69394 0.96642 0.86162 0.0
C228 C 0.59716 0.90971 0.89 0.0
N229 N 0.60754 0.90263 0.88012 0.0
C230 C 0.57656 0.91662 0.88828 0.0
C231 C 0.57729 0.90842 0.86622 0.0
C232 C 0.59785 0.90141 0.86839 0.0
C233 C 0.56684 0.91673 0.87623 0.0
H234 H 0.60606 0.91153 0.89913 0.0
H235 H 0.60707 0.89643 0.86066 0.0
O236 O 0.70116 0.90601 0.8914 0.0
O237 O 0.63784 0.87138 0.89533 0.0
O238 O 0.66651 0.93534 0.8925 0.0
O239 O 0.66262 0.90187 0.86949 0.0
H240 H 0.70513 0.8623 0.89824 0.0
H241 H 0.7359 0.94921 0.90511 0.0
H242 H 0.7373 0.86299 0.91438 0.0
H243 H 0.76745 0.94831 0.92117 0.0
H244 H 0.5473 0.81558 0.88467 0.0
H245 H 0.61538 0.87425 0.91659 0.0
H246 H 0.59767 0.83871 0.87983 0.0
H247 H 0.5647 0.8505 0.9208 0.0
H248 H 0.69815 0.9006 0.9453 0.0
H249 H 0.66602 0.95575 0.93819 0.0
H250 H 0.72049 0.84053 0.86397 0.0
H251 H 0.63465 0.77888 0.87091 0.0
H252 H 0.64673 0.959 0.87739 0.0
H253 H 0.71018 0.9747 0.90438 0.0
H254 H 0.66693 0.00985 0.87486 0.0
H255 H 0.72943 0.02532 0.90129 0.0
H256 H 0.70766 0.91614 0.85602 0.0
H257 H 0.62034 0.85715 0.85955 0.0
H258 H 0.70931 0.89046 0.83744 0.0
H259 H 0.62355 0.8324 0.84095 0.0
H260 H 0.79029 0.99789 0.87463 0.0
H261 H 0.73209 0.00763 0.85145 0.0
H262 H 0.56964 0.92353 0.89623 0.0
H263 H 0.57036 0.90827 0.85679 0.0
Li264 Li 0.79503 0.66441 0.21575 0.0
Li265 Li 0.77375 0.67139 0.23464 0.0
Li266 Li 0.74622 0.6399 0.2177 0.0
Li267 Li 0.77184 0.69073 0.21371 0.0
C268 C 0.7592 0.60938 0.23161 0.0
N269 N 0.72907 0.5532 0.23674 0.0
C270 C 0.74936 0.60022 0.24364 0.0
C271 C 0.75405 0.59 0.22222 0.0
C272 C 0.73408 0.57172 0.24604 0.0
C273 C 0.73867 0.56168 0.22498 0.0
C274 C 0.81528 0.72566 0.22993 0.0
C275 C 0.8081 0.76013 0.24022 0.0
N276 N 0.83603 0.77642 0.24171 0.0
C277 C 0.84391 0.74275 0.23156 0.0
C278 C 0.79722 0.73441 0.2343 0.0
C279 C 0.85399 0.76834 0.23753 0.0
C280 C 0.84834 0.69066 0.20645 0.0
N281 N 0.82741 0.66499 0.2096 0.0
C282 C 0.8541 0.64443 0.20291 0.0
C283 C 0.82976 0.64199 0.20799 0.0
C284 C 0.8761 0.6708 0.19958 0.0
C285 C 0.8729 0.69406 0.20141 0.0
H286 H 0.84569 0.7085 0.20763 0.0
H287 H 0.81273 0.62179 0.21053 0.0
C288 C 0.74819 0.66261 0.25768 0.0
N289 N 0.7734 0.67709 0.25207 0.0
C290 C 0.74469 0.66834 0.26996 0.0
C291 C 0.79345 0.7031 0.27066 0.0
C292 C 0.79611 0.69635 0.2584 0.0
C293 C 0.76734 0.68937 0.27647 0.0
H294 H 0.73052 0.6474 0.2524 0.0
H295 H 0.81606 0.70724 0.25382 0.0
C296 C 0.781 0.65964 0.19241 0.0
N297 N 0.81052 0.65902 0.17186 0.0
C298 C 0.79949 0.68447 0.18645 0.0
C299 C 0.77726 0.63446 0.18785 0.0
C300 C 0.81429 0.68373 0.17609 0.0
C301 C 0.79245 0.6346 0.17746 0.0
C302 C 0.71892 0.67192 0.22683 0.0
C303 C 0.69814 0.66017 0.21776 0.0
C304 C 0.71554 0.68582 0.23693 0.0
C305 C 0.67434 0.66242 0.21897 0.0
C306 C 0.69146 0.68769 0.23779 0.0
N307 N 0.67151 0.67602 0.22888 0.0
C308 C 0.69456 0.59886 0.22573 0.0
C309 C 0.69959 0.59977 0.20378 0.0
C310 C 0.66599 0.5813 0.22472 0.0
N311 N 0.71054 0.60829 0.21534 0.0
C312 C 0.67092 0.58233 0.20234 0.0
C313 C 0.65364 0.57384 0.21289 0.0
H314 H 0.70373 0.60666 0.23476 0.0
H315 H 0.71271 0.6083 0.19568 0.0
C316 C 0.79317 0.74614 0.20473 0.0
N317 N 0.7706 0.72015 0.20508 0.0
C318 C 0.79174 0.76764 0.19874 0.0
C319 C 0.74456 0.73489 0.19274 0.0
C320 C 0.74684 0.71409 0.19896 0.0
C321 C 0.76709 0.76224 0.19273 0.0
H322 H 0.81237 0.75034 0.20907 0.0
H323 H 0.72972 0.69302 0.19877 0.0
O324 O 0.77392 0.6372 0.22905 0.0
O325 O 0.80516 0.7004 0.22424 0.0
O326 O 0.76697 0.66004 0.20278 0.0
O327 O 0.74208 0.66923 0.22602 0.0
H328 H 0.75342 0.61495 0.25105 0.0
H329 H 0.76154 0.59675 0.21286 0.0
H330 H 0.72621 0.56433 0.2553 0.0
H331 H 0.73433 0.54644 0.21778 0.0
H332 H 0.79434 0.76714 0.24363 0.0
H333 H 0.85819 0.73625 0.22829 0.0
H334 H 0.77508 0.7216 0.23305 0.0
H335 H 0.8761 0.78176 0.23886 0.0
H336 H 0.85575 0.62599 0.20168 0.0
H337 H 0.88901 0.71468 0.19872 0.0
H338 H 0.72419 0.65743 0.2741 0.0
H339 H 0.81145 0.71923 0.27545 0.0
H340 H 0.80269 0.70414 0.1899 0.0
H341 H 0.76292 0.61505 0.19231 0.0
H342 H 0.82885 0.70281 0.17145 0.0
H343 H 0.78991 0.61529 0.17387 0.0
H344 H 0.70041 0.6496 0.20981 0.0
H345 H 0.73132 0.6951 0.24406 0.0
H346 H 0.65812 0.65338 0.21201 0.0
H347 H 0.68862 0.69838 0.24557 0.0
H348 H 0.65351 0.57489 0.23311 0.0
H349 H 0.66224 0.57728 0.19305 0.0
H350 H 0.80969 0.78834 0.19901 0.0
H351 H 0.72545 0.72951 0.18789 0.0
Li352 Li 0.12352 0.78769 0.54591 0.0
Li353 Li 0.09686 0.76667 0.56546 0.0
Li354 Li 0.09861 0.73749 0.54835 0.0
Li355 Li 0.07352 0.76251 0.54579 0.0
C356 C 0.15379 0.76465 0.55578 0.0
N357 N 0.20157 0.76379 0.54956 0.0
C358 C 0.17293 0.76796 0.56499 0.0
C359 C 0.15892 0.76087 0.54339 0.0
C360 C 0.19698 0.76748 0.56167 0.0
C361 C 0.1832 0.76051 0.54045 0.0
C362 C 0.08537 0.81202 0.55381 0.0
C363 C 0.04689 0.81918 0.55825 0.0
N364 N 0.05752 0.84096 0.55019 0.0
C365 C 0.09603 0.83461 0.54565 0.0
C366 C 0.06073 0.80437 0.56025 0.0
C367 C 0.08161 0.84894 0.54392 0.0
C368 C 0.1507 0.82634 0.52725 0.0
N369 N 0.15464 0.81892 0.53878 0.0
C370 C 0.2002 0.85869 0.53981 0.0
C371 C 0.17885 0.83428 0.54506 0.0
C372 C 0.19641 0.86742 0.52803 0.0
C373 C 0.17133 0.85061 0.5217 0.0
H374 H 0.13104 0.81389 0.52257 0.0
H375 H 0.18133 0.82791 0.55426 0.0
C376 C 0.08804 0.74586 0.58974 0.0
N377 N 0.0931 0.76845 0.58289 0.0
C378 C 0.0791 0.74344 0.60206 0.0
C379 C 0.08217 0.78824 0.60018 0.0
C380 C 0.09111 0.78982 0.5879 0.0
C381 C 0.07525 0.76444 0.6073 0.0
H382 H 0.0893 0.72898 0.5854 0.0
H383 H 0.09512 0.80745 0.58219 0.0
C384 C 0.08471 0.74301 0.52377 0.0
N385 N 0.05626 0.70949 0.50379 0.0
C386 C 0.05825 0.71993 0.52545 0.0
C387 C 0.09665 0.74911 0.51192 0.0
C388 C 0.04421 0.70323 0.51524 0.0
C389 C 0.08195 0.73189 0.50194 0.0
C390 C 0.0419 0.71415 0.56284 0.0
C391 C 0.02854 0.6867 0.55858 0.0
C392 C 0.02966 0.72167 0.57231 0.0
C393 C 0.00328 0.66722 0.56391 0.0
C394 C 0.00439 0.70157 0.5774 0.0
N395 N 0.99184 0.67499 0.57313 0.0
C396 C 0.09036 0.68721 0.55658 0.0
C397 C 0.09533 0.69114 0.53466 0.0
C398 C 0.08077 0.6588 0.55597 0.0
N399 N 0.09612 0.70242 0.54599 0.0
C400 C 0.08561 0.66267 0.53359 0.0
C401 C 0.07696 0.64592 0.54431 0.0
H402 H 0.09128 0.69681 0.56546 0.0
H403 H 0.10053 0.70374 0.52637 0.0
C404 C 0.04723 0.77978 0.52866 0.0
N405 N 0.04199 0.76157 0.53812 0.0
C406 C 0.02544 0.78085 0.52275 0.0
C407 C 0.99315 0.74351 0.53605 0.0
C408 C 0.01557 0.74349 0.54183 0.0
C409 C 0.99801 0.7625 0.52645 0.0
H410 H 0.06843 0.79361 0.52576 0.0
H411 H 0.0117 0.72902 0.54924 0.0
O412 O 0.13025 0.76524 0.55892 0.0
O413 O 0.09885 0.79733 0.55539 0.0
O414 O 0.0989 0.75981 0.5336 0.0
O415 O 0.06686 0.73345 0.55782 0.0
H416 H 0.16925 0.77092 0.57462 0.0
H417 H 0.1444 0.75828 0.53612 0.0
H418 H 0.21199 0.77004 0.5687 0.0
H419 H 0.18745 0.75762 0.53091 0.0
H420 H 0.02766 0.81332 0.56309 0.0
H421 H 0.11515 0.84092 0.54064 0.0
H422 H 0.05216 0.78692 0.56658 0.0
H423 H 0.08954 0.86636 0.53758 0.0
H424 H 0.21927 0.87077 0.54498 0.0
H425 H 0.16712 0.85666 0.51274 0.0
H426 H 0.07368 0.72459 0.60715 0.0
H427 H 0.07981 0.80503 0.60391 0.0
H428 H 0.04867 0.71492 0.53453 0.0
H429 H 0.11711 0.76693 0.51046 0.0
H430 H 0.02375 0.68528 0.51643 0.0
H431 H 0.09096 0.73632 0.49272 0.0
H432 H 0.03746 0.68046 0.55119 0.0
H433 H 0.03942 0.7428 0.57565 0.0
H434 H 0.99277 0.64592 0.5607 0.0
H435 H 0.99474 0.70712 0.58473 0.0
H436 H 0.07501 0.64681 0.56449 0.0
H437 H 0.08314 0.65365 0.52442 0.0
H438 H 0.02992 0.79561 0.51529 0.0
H439 H 0.97224 0.72914 0.53918 0.0
Li440 Li 0.32815 0.09251 0.89786 0.0
Li441 Li 0.33255 0.12011 0.87851 0.0
Li442 Li 0.31001 0.06931 0.87752 0.0
Li443 Li 0.35938 0.0969 0.88075 0.0
C444 C 0.27032 0.07679 0.88632 0.0
N445 N 0.21368 0.04338 0.8831 0.0
C446 C 0.25605 0.08483 0.87817 0.0
C447 C 0.25576 0.05184 0.89289 0.0
C448 C 0.22741 0.06764 0.87666 0.0
C449 C 0.22714 0.03521 0.89111 0.0
C450 C 0.384 0.15308 0.89017 0.0
C451 C 0.42267 0.18689 0.87803 0.0
N452 N 0.42891 0.20595 0.88722 0.0
C453 C 0.39089 0.17292 0.89953 0.0
C454 C 0.40008 0.16003 0.87936 0.0
C455 C 0.41363 0.19957 0.89785 0.0
C456 C 0.34126 0.08644 0.92242 0.0
N457 N 0.32211 0.08827 0.91525 0.0
C458 C 0.2908 0.07545 0.93242 0.0
C459 C 0.29765 0.08389 0.92007 0.0
C460 C 0.30943 0.07168 0.93986 0.0
C461 C 0.33533 0.07815 0.93484 0.0
H462 H 0.36061 0.09022 0.91832 0.0
H463 H 0.28296 0.08587 0.91419 0.0
C464 C 0.31603 0.14326 0.86038 0.0
N465 N 0.32978 0.14982 0.87141 0.0
C466 C 0.31026 0.16206 0.85448 0.0
C467 C 0.33342 0.19454 0.87127 0.0
C468 C 0.33871 0.17493 0.8769 0.0
C469 C 0.31854 0.18791 0.86002 0.0
H470 H 0.30887 0.12299 0.85631 0.0
H471 H 0.34922 0.17946 0.88578 0.0
C472 C 0.34184 0.0447 0.88902 0.0
N473 N 0.36429 0.01035 0.88699 0.0
C474 C 0.3419 0.03285 0.87755 0.0
C475 C 0.35296 0.03884 0.89948 0.0
C476 C 0.3534 0.0156 0.87671 0.0
C477 C 0.36426 0.02147 0.89825 0.0
C478 C 0.34624 0.0993 0.85429 0.0
C479 C 0.33777 0.07564 0.84694 0.0
C480 C 0.36328 0.12559 0.84914 0.0
C481 C 0.34694 0.07867 0.83464 0.0
C482 C 0.37199 0.12775 0.8368 0.0
N483 N 0.36373 0.10445 0.82986 0.0
C484 C 0.26854 0.04058 0.85954 0.0
C485 C 0.27189 0.01205 0.87504 0.0
C486 C 0.24626 0.01751 0.85398 0.0
N487 N 0.28078 0.0374 0.86986 0.0
C488 C 0.24979 0.98841 0.86976 0.0
C489 C 0.23659 0.99096 0.85911 0.0
H490 H 0.27593 0.06112 0.85574 0.0
H491 H 0.28179 0.01023 0.88337 0.0
C492 C 0.40743 0.09763 0.88845 0.0
N493 N 0.393 0.09631 0.87802 0.0
C494 C 0.42701 0.08894 0.88811 0.0
C495 C 0.41835 0.08019 0.86607 0.0
C496 C 0.39883 0.0889 0.86685 0.0
C497 C 0.43176 0.07894 0.87691 0.0
H498 H 0.40203 0.10321 0.89723 0.0
H499 H 0.38687 0.08751 0.85873 0.0
O500 O 0.2985 0.09289 0.88763 0.0
O501 O 0.36164 0.12701 0.89166 0.0
O502 O 0.33162 0.0625 0.88991 0.0
O503 O 0.33722 0.0967 0.86633 0.0
H504 H 0.26696 0.10407 0.87302 0.0
H505 H 0.26656 0.04511 0.8991 0.0
H506 H 0.21611 0.07356 0.87035 0.0
H507 H 0.21566 0.01573 0.89605 0.0
H508 H 0.43526 0.19257 0.8697 0.0
H509 H 0.37865 0.1678 0.90797 0.0
H510 H 0.39529 0.14484 0.87212 0.0
H511 H 0.41913 0.21518 0.90499 0.0
H512 H 0.27083 0.07114 0.936 0.0
H513 H 0.35023 0.0754 0.94023 0.0
H514 H 0.29906 0.15625 0.84574 0.0
H515 H 0.33996 0.21418 0.87588 0.0
H516 H 0.33356 0.0373 0.86936 0.0
H517 H 0.35307 0.04776 0.90843 0.0
H518 H 0.35381 0.00652 0.86786 0.0
H519 H 0.37311 0.01693 0.90625 0.0
H520 H 0.32435 0.05513 0.8507 0.0
H521 H 0.36954 0.14418 0.85457 0.0
H522 H 0.34066 0.06053 0.82887 0.0
H523 H 0.38523 0.14797 0.83271 0.0
H524 H 0.23642 0.02051 0.8459 0.0
H525 H 0.24324 0.96835 0.87395 0.0
H526 H 0.43715 0.08856 0.89665 0.0
H527 H 0.42119 0.07242 0.85728 0.0
Li528 Li 0.68932 0.77082 0.45371 0.0
Li529 Li 0.63831 0.74456 0.44981 0.0
Li530 Li 0.66945 0.77251 0.43285 0.0
Li531 Li 0.66223 0.79333 0.45187 0.0
C532 C 0.67086 0.71818 0.44015 0.0
N533 N 0.67541 0.6712 0.43716 0.0
C534 C 0.65922 0.69674 0.44891 0.0
C535 C 0.68494 0.71571 0.42988 0.0
C536 C 0.66168 0.67316 0.44723 0.0
C537 C 0.68701 0.69183 0.42853 0.0
C538 C 0.65791 0.77843 0.47535 0.0
C539 C 0.63265 0.78907 0.49053 0.0
N540 N 0.65691 0.80625 0.49648 0.0
C541 C 0.68255 0.79593 0.48169 0.0
C542 C 0.6327 0.77472 0.47987 0.0
C543 C 0.68163 0.8099 0.49232 0.0
C544 C 0.74456 0.79398 0.46286 0.0
N545 N 0.71942 0.77035 0.46205 0.0
C546 C 0.73667 0.74502 0.47327 0.0
C547 C 0.71498 0.74632 0.46739 0.0
C548 C 0.76325 0.76877 0.47372 0.0
C549 C 0.76692 0.79357 0.4685 0.0
H550 H 0.7474 0.81323 0.45911 0.0
H551 H 0.69453 0.72819 0.46719 0.0
C552 C 0.59737 0.69286 0.44172 0.0
N553 N 0.60703 0.70867 0.45215 0.0
C554 C 0.58005 0.66423 0.44266 0.0
C555 C 0.58175 0.66877 0.46507 0.0
C556 C 0.59896 0.69749 0.46369 0.0
C557 C 0.57304 0.65168 0.45446 0.0
H558 H 0.6048 0.70222 0.43269 0.0
H559 H 0.60764 0.7105 0.47182 0.0
C560 C 0.72358 0.81485 0.43758 0.0
N561 N 0.77466 0.83691 0.42599 0.0
C562 C 0.74003 0.84356 0.43597 0.0
C563 C 0.73315 0.79737 0.43332 0.0
C564 C 0.76579 0.8543 0.43008 0.0
C565 C 0.75902 0.80892 0.42748 0.0
C566 C 0.6071 0.75744 0.43623 0.0
C567 C 0.59744 0.74773 0.42423 0.0
C568 C 0.58809 0.75225 0.4458 0.0
C569 C 0.56885 0.73249 0.42205 0.0
C570 C 0.55966 0.73692 0.44326 0.0
N571 N 0.55071 0.72741 0.43154 0.0
C572 C 0.65879 0.74606 0.41013 0.0
C573 C 0.69514 0.79285 0.40885 0.0
C574 C 0.66423 0.74087 0.39808 0.0
N575 N 0.67476 0.77142 0.4154 0.0
C576 C 0.70166 0.78846 0.3968 0.0
C577 C 0.68668 0.76188 0.39141 0.0
H578 H 0.64267 0.72942 0.41556 0.0
H579 H 0.70732 0.81299 0.41314 0.0
C580 C 0.68746 0.84468 0.46296 0.0
N581 N 0.66236 0.8251 0.45848 0.0
C582 C 0.69015 0.86774 0.46928 0.0
C583 C 0.64134 0.85097 0.4657 0.0
C584 C 0.63949 0.82788 0.45955 0.0
C585 C 0.66685 0.87091 0.47086 0.0
H586 H 0.70525 0.84185 0.46198 0.0
H587 H 0.61977 0.81193 0.45592 0.0
O588 O 0.66794 0.74112 0.44142 0.0
O589 O 0.65851 0.76523 0.46472 0.0
O590 O 0.69828 0.80411 0.44329 0.0
O591 O 0.63501 0.77212 0.43857 0.0
H592 H 0.6486 0.69835 0.45701 0.0
H593 H 0.69422 0.73205 0.423 0.0
H594 H 0.65271 0.65643 0.45394 0.0
H595 H 0.69782 0.68967 0.42062 0.0
H596 H 0.61332 0.78657 0.49408 0.0
H597 H 0.70224 0.79904 0.47832 0.0
H598 H 0.61341 0.76102 0.47517 0.0
H599 H 0.70057 0.82373 0.49725 0.0
H600 H 0.73256 0.72566 0.4775 0.0
H601 H 0.78696 0.81243 0.46858 0.0
H602 H 0.57345 0.6519 0.43424 0.0
H603 H 0.57704 0.65993 0.47434 0.0
H604 H 0.73292 0.85737 0.43922 0.0
H605 H 0.72085 0.77518 0.43458 0.0
H606 H 0.77873 0.87648 0.42876 0.0
H607 H 0.76666 0.79562 0.42414 0.0
H608 H 0.61185 0.75191 0.41667 0.0
H609 H 0.59522 0.75975 0.45511 0.0
H610 H 0.56108 0.72472 0.41282 0.0
H611 H 0.54472 0.73256 0.4506 0.0
H612 H 0.65154 0.72029 0.39421 0.0
H613 H 0.71918 0.80533 0.39208 0.0
H614 H 0.71023 0.88285 0.473 0.0
H615 H 0.62294 0.85278 0.46677 0.0
Li616 Li 0.92269 0.68224 0.78491 0.0
Li617 Li 0.89369 0.63375 0.78076 0.0
Li618 Li 0.90048 0.66741 0.76452 0.0
Li619 Li 0.87302 0.66252 0.78456 0.0
C620 C 0.94825 0.65333 0.77451 0.0
N621 N 0.98609 0.63612 0.77945 0.0
C622 C 0.95579 0.65188 0.78678 0.0
C623 C 0.96005 0.64613 0.76475 0.0
C624 C 0.97495 0.64313 0.78908 0.0
C625 C 0.97911 0.63745 0.76744 0.0
C626 C 0.88022 0.63797 0.80607 0.0
C627 C 0.83993 0.59711 0.81401 0.0
N628 N 0.84885 0.60572 0.82583 0.0
C629 C 0.88912 0.6463 0.81829 0.0
C630 C 0.85554 0.61311 0.80391 0.0
C631 C 0.87292 0.62976 0.82815 0.0
C632 C 0.95292 0.71971 0.80401 0.0
N633 N 0.95535 0.71025 0.7927 0.0
C634 C 0.00397 0.74289 0.79215 0.0
C635 C 0.98017 0.72126 0.78672 0.0
C636 C 0.0021 0.75339 0.80379 0.0
C637 C 0.97614 0.74142 0.80975 0.0
H638 H 0.93276 0.7108 0.80841 0.0
H639 H 0.98139 0.71352 0.77765 0.0
C640 C 0.89502 0.58746 0.77167 0.0
N641 N 0.89356 0.59948 0.78245 0.0
C642 C 0.90484 0.56879 0.77172 0.0
C643 C 0.91006 0.57395 0.79404 0.0
C644 C 0.90008 0.59249 0.79357 0.0
C645 C 0.91374 0.56284 0.78294 0.0
H646 H 0.89129 0.59445 0.7629 0.0
H647 H 0.9004 0.60335 0.80194 0.0
C648 C 0.91788 0.72433 0.77748 0.0
N649 N 0.95308 0.78025 0.78189 0.0
C650 C 0.91233 0.73757 0.78719 0.0
C651 C 0.94121 0.73955 0.76995 0.0
C652 C 0.93041 0.76586 0.78928 0.0
C653 C 0.95878 0.76779 0.77235 0.0
C654 C 0.84331 0.6104 0.76666 0.0
C655 C 0.84597 0.59862 0.75563 0.0
C656 C 0.81833 0.59694 0.77329 0.0
C657 C 0.82408 0.57304 0.75168 0.0
C658 C 0.79689 0.5714 0.76904 0.0
N659 N 0.8002 0.56004 0.75843 0.0
C660 C 0.9131 0.65881 0.74056 0.0
C661 C 0.90679 0.69782 0.7422 0.0
C662 C 0.92215 0.66566 0.72829 0.0
N663 N 0.90608 0.67508 0.74727 0.0
C664 C 0.91596 0.7056 0.72996 0.0
C665 C 0.9243 0.68969 0.72293 0.0
H666 H 0.91278 0.64114 0.74492 0.0
H667 H 0.90138 0.71056 0.74782 0.0
C668 C 0.84874 0.67554 0.80395 0.0
N669 N 0.84412 0.66643 0.79199 0.0
C670 C 0.82977 0.68061 0.81014 0.0
C671 C 0.80171 0.66763 0.79151 0.0
C672 C 0.82113 0.66227 0.78571 0.0
C673 C 0.80609 0.67727 0.80388 0.0
H674 H 0.86759 0.67958 0.80861 0.0
H675 H 0.81821 0.65546 0.77612 0.0
O676 O 0.92853 0.66059 0.77207 0.0
O677 O 0.89575 0.65418 0.79633 0.0
O678 O 0.90095 0.69647 0.77554 0.0
O679 O 0.86436 0.63571 0.77054 0.0
H680 H 0.94657 0.65693 0.79448 0.0
H681 H 0.95439 0.64699 0.7552 0.0
H682 H 0.9808 0.64172 0.79854 0.0
H683 H 0.98828 0.63165 0.75998 0.0
H684 H 0.8208 0.57778 0.81246 0.0
H685 H 0.90828 0.66543 0.82013 0.0
H686 H 0.84887 0.60601 0.79455 0.0
H687 H 0.87949 0.63603 0.83766 0.0
H688 H 0.02359 0.75127 0.78728 0.0
H689 H 0.97362 0.74918 0.81861 0.0
H690 H 0.90723 0.5606 0.76295 0.0
H691 H 0.91718 0.5704 0.80286 0.0
H692 H 0.89442 0.72607 0.79313 0.0
H693 H 0.94598 0.72952 0.76249 0.0
H694 H 0.92647 0.77635 0.79681 0.0
H695 H 0.97704 0.77978 0.76667 0.0
H696 H 0.86476 0.60908 0.75016 0.0
H697 H 0.81539 0.60618 0.78159 0.0
H698 H 0.82601 0.56358 0.74323 0.0
H699 H 0.77755 0.56069 0.77414 0.0
H700 H 0.92876 0.65304 0.7233 0.0
H701 H 0.91716 0.72419 0.72614 0.0
H702 H 0.83391 0.68743 0.81974 0.0
H703 H 0.78399 0.66506 0.78624 0.0
Li704 Li 0.2285 0.92013 0.11976 0.0
Li705 Li 0.25562 0.89614 0.1164 0.0
Li706 Li 0.22931 0.89997 0.09888 0.0
Li707 Li 0.20663 0.87081 0.1174 0.0
C708 C 0.28249 0.95569 0.10759 0.0
N709 N 0.32941 0.00775 0.10612 0.0
C710 C 0.30259 0.96492 0.11697 0.0
C711 C 0.28627 0.97307 0.09748 0.0
C712 C 0.32617 0.99125 0.11605 0.0
C713 C 0.3101 0.99929 0.09691 0.0
C714 C 0.21853 0.87942 0.141 0.0
C715 C 0.20713 0.84293 0.15594 0.0
N716 N 0.1877 0.848 0.16103 0.0
C717 C 0.19864 0.88446 0.14644 0.0
C718 C 0.223 0.85866 0.14583 0.0
C719 C 0.1832 0.86827 0.15654 0.0
C720 C 0.20502 0.95272 0.1282 0.0
N721 N 0.22806 0.95009 0.12827 0.0
C722 C 0.25234 0.99094 0.14076 0.0
C723 C 0.25118 0.96822 0.13467 0.0
C724 C 0.22935 0.99498 0.14032 0.0
C725 C 0.20533 0.97528 0.13404 0.0
H726 H 0.18632 0.93739 0.12361 0.0
H727 H 0.26868 0.9649 0.13517 0.0
C728 C 0.30787 0.9079 0.10902 0.0
N729 N 0.29149 0.90111 0.11928 0.0
C730 C 0.33647 0.91954 0.11024 0.0
C731 C 0.33082 0.9158 0.1326 0.0
C732 C 0.30212 0.90393 0.13094 0.0
C733 C 0.34844 0.92482 0.12216 0.0
H734 H 0.29894 0.90622 0.09991 0.0
H735 H 0.28866 0.89912 0.13894 0.0
C736 C 0.1865 0.91124 0.10257 0.0
N737 N 0.16608 0.94084 0.09019 0.0
C738 C 0.15807 0.89905 0.10016 0.0
C739 C 0.20454 0.93848 0.09868 0.0
C740 C 0.14815 0.91436 0.09389 0.0
C741 C 0.19382 0.9531 0.09244 0.0
C742 C 0.24456 0.85304 0.10241 0.0
C743 C 0.25516 0.85376 0.09053 0.0
C744 C 0.24939 0.83906 0.11202 0.0
C745 C 0.27084 0.84082 0.08852 0.0
C746 C 0.26518 0.82639 0.10964 0.0
N747 N 0.2755 0.82754 0.09804 0.0
C748 C 0.25787 0.91804 0.07668 0.0
C749 C 0.21027 0.90417 0.07445 0.0
C750 C 0.26341 0.92856 0.0646 0.0
N751 N 0.23186 0.90696 0.08147 0.0
C752 C 0.21493 0.91469 0.06233 0.0
C753 C 0.24199 0.92785 0.05738 0.0
H754 H 0.2746 0.91982 0.08246 0.0
H755 H 0.18967 0.89492 0.0784 0.0
C756 C 0.15236 0.84223 0.1255 0.0
N757 N 0.17415 0.83836 0.12307 0.0
C758 C 0.12779 0.82073 0.13039 0.0
C759 C 0.14832 0.79133 0.13015 0.0
C760 C 0.17262 0.81352 0.1252 0.0
C761 C 0.12549 0.79484 0.13281 0.0
H762 H 0.15436 0.86236 0.12395 0.0
H763 H 0.19033 0.81106 0.12326 0.0
O764 O 0.25961 0.92957 0.10812 0.0
O765 O 0.23322 0.89447 0.13087 0.0
O766 O 0.19648 0.89632 0.10857 0.0
O767 O 0.22943 0.86584 0.10459 0.0
H768 H 0.29997 0.95201 0.12495 0.0
H769 H 0.27099 0.96646 0.09012 0.0
H770 H 0.34187 0.99857 0.12325 0.0
H771 H 0.31325 0.01291 0.08912 0.0
H772 H 0.21023 0.82666 0.15973 0.0
H773 H 0.19488 0.90041 0.14278 0.0
H774 H 0.23843 0.85462 0.14177 0.0
H775 H 0.16756 0.87177 0.16078 0.0
H776 H 0.27099 0.00504 0.14582 0.0
H777 H 0.18706 0.97743 0.13345 0.0
H778 H 0.34923 0.92575 0.10194 0.0
H779 H 0.33921 0.91969 0.14195 0.0
H780 H 0.14383 0.87794 0.10305 0.0
H781 H 0.22651 0.94831 0.10053 0.0
H782 H 0.1262 0.90518 0.09195 0.0
H783 H 0.20756 0.97421 0.0894 0.0
H784 H 0.25137 0.86424 0.08296 0.0
H785 H 0.24133 0.83831 0.12125 0.0
H786 H 0.27928 0.84132 0.0794 0.0
H787 H 0.26926 0.81569 0.11702 0.0
H788 H 0.28445 0.93785 0.06108 0.0
H789 H 0.19776 0.91369 0.05714 0.0
H790 H 0.11102 0.82462 0.13256 0.0
H791 H 0.14738 0.77169 0.13186 0.0
Li792 Li 0.36345 0.26476 0.45128 0.0
Li793 Li 0.3132 0.24075 0.45286 0.0
Li794 Li 0.33663 0.21447 0.45303 0.0
Li795 Li 0.33377 0.23735 0.43353 0.0
C796 C 0.34241 0.25881 0.47536 0.0
N797 N 0.34779 0.29259 0.49528 0.0
C798 C 0.33975 0.28228 0.4736 0.0
C799 C 0.34773 0.25248 0.48727 0.0
C800 C 0.34256 0.2991 0.48378 0.0
C801 C 0.3504 0.26983 0.49722 0.0
C802 C 0.33234 0.29024 0.43641 0.0
C803 C 0.30952 0.30421 0.42133 0.0
N804 N 0.32343 0.33052 0.42592 0.0
C805 C 0.34639 0.31744 0.44097 0.0
C806 C 0.31372 0.28356 0.42651 0.0
C807 C 0.34158 0.33749 0.43555 0.0
C808 C 0.40724 0.31538 0.44427 0.0
N809 N 0.3966 0.29889 0.45444 0.0
C810 C 0.42766 0.33587 0.46778 0.0
C811 C 0.4071 0.30815 0.46601 0.0
C812 C 0.43766 0.35391 0.45751 0.0
C813 C 0.4279 0.34309 0.44558 0.0
H814 H 0.39839 0.30742 0.43519 0.0
H815 H 0.39873 0.29451 0.47394 0.0
C816 C 0.27128 0.22659 0.47053 0.0
N817 N 0.28244 0.24207 0.46009 0.0
C818 C 0.24855 0.226 0.47634 0.0
C819 C 0.24946 0.25765 0.46068 0.0
C820 C 0.27203 0.25745 0.45513 0.0
C821 C 0.23741 0.24172 0.47142 0.0
H822 H 0.28002 0.21459 0.4743 0.0
H823 H 0.28096 0.26942 0.44682 0.0
C824 C 0.39071 0.23664 0.44415 0.0
N825 N 0.43792 0.23538 0.45105 0.0
C826 C 0.4071 0.23362 0.43513 0.0
C827 C 0.39833 0.23904 0.45669 0.0
C828 C 0.43089 0.23302 0.4388 0.0
C829 C 0.42227 0.23835 0.45998 0.0
C830 C 0.27531 0.19261 0.44454 0.0
C831 C 0.26291 0.17149 0.45341 0.0
C832 C 0.25885 0.20004 0.43753 0.0
C833 C 0.23421 0.15835 0.45523 0.0
C834 C 0.23023 0.18644 0.43965 0.0
N835 N 0.21861 0.16606 0.44839 0.0
C836 C 0.32546 0.17644 0.47193 0.0
C837 C 0.34235 0.166 0.45366 0.0
C838 C 0.32192 0.15247 0.47772 0.0
N839 N 0.33529 0.18259 0.4601 0.0
C840 C 0.33915 0.1417 0.45911 0.0
C841 C 0.32857 0.13455 0.47129 0.0
H842 H 0.3196 0.18982 0.47673 0.0
H843 H 0.35005 0.1714 0.44423 0.0
C844 C 0.35061 0.26059 0.41001 0.0
N845 N 0.33079 0.2377 0.41601 0.0
C846 C 0.34658 0.26566 0.39769 0.0
C847 C 0.30256 0.22267 0.39774 0.0
C848 C 0.30747 0.2184 0.41007 0.0
C849 C 0.32185 0.24706 0.39153 0.0
H850 H 0.36876 0.27573 0.41506 0.0
H851 H 0.29193 0.20055 0.41514 0.0
O852 O 0.33982 0.24197 0.46555 0.0
O853 O 0.33729 0.27048 0.44143 0.0
O854 O 0.36729 0.23712 0.44066 0.0
O855 O 0.30348 0.20627 0.44288 0.0
H856 H 0.33554 0.28746 0.46449 0.0
H857 H 0.34991 0.23443 0.4888 0.0
H858 H 0.34058 0.31734 0.48253 0.0
H859 H 0.35458 0.26522 0.50648 0.0
H860 H 0.29516 0.29929 0.41368 0.0
H861 H 0.36084 0.32308 0.44863 0.0
H862 H 0.30236 0.26262 0.42293 0.0
H863 H 0.35233 0.3586 0.439 0.0
H864 H 0.43497 0.34333 0.4771 0.0
H865 H 0.43482 0.35631 0.43743 0.0
H866 H 0.23999 0.21363 0.48467 0.0
H867 H 0.24125 0.26977 0.45651 0.0
H868 H 0.40145 0.23173 0.42539 0.0
H869 H 0.38594 0.24137 0.46382 0.0
H870 H 0.44377 0.23068 0.43192 0.0
H871 H 0.4284 0.24017 0.46964 0.0
H872 H 0.27533 0.16547 0.4589 0.0
H873 H 0.26813 0.21646 0.43069 0.0
H874 H 0.22435 0.14208 0.46212 0.0
H875 H 0.21727 0.19215 0.43438 0.0
H876 H 0.31316 0.14757 0.487 0.0
H877 H 0.34472 0.1286 0.45385 0.0
H878 H 0.36219 0.28449 0.3932 0.0
H879 H 0.28311 0.20789 0.3934 0.0
Li880 Li 0.07393 0.3148 0.78517 0.0
Li881 Li 0.10072 0.36432 0.78137 0.0
Li882 Li 0.09608 0.33064 0.76505 0.0
Li883 Li 0.12371 0.3375 0.78432 0.0
C884 C 0.04265 0.33116 0.76777 0.0
N885 N 0.99268 0.32102 0.75767 0.0
C886 C 0.03021 0.34628 0.77182 0.0
C887 C 0.02958 0.31084 0.75858 0.0
C888 C 0.00496 0.34084 0.7666 0.0
C889 C 0.00436 0.30604 0.75359 0.0
C890 C 0.08812 0.34854 0.80635 0.0
C891 C 0.0875 0.3604 0.82789 0.0
N892 N 0.06232 0.35833 0.82609 0.0
C893 C 0.0622 0.34644 0.80473 0.0
C894 C 0.10087 0.3555 0.81803 0.0
C895 C 0.0495 0.3515 0.81482 0.0
C896 C 0.04698 0.2762 0.80433 0.0
N897 N 0.04215 0.28615 0.79363 0.0
C898 C 0.99338 0.25457 0.79537 0.0
C899 C 0.01597 0.27586 0.78912 0.0
C900 C 0.99778 0.24364 0.80634 0.0
C901 C 0.025 0.25472 0.81084 0.0
H902 H 0.06802 0.28482 0.80773 0.0
H903 H 0.01248 0.2838 0.78061 0.0
C904 C 0.09334 0.40665 0.77268 0.0
N905 N 0.10075 0.39826 0.78314 0.0
C906 C 0.08628 0.42738 0.77332 0.0
C907 C 0.09691 0.43209 0.79532 0.0
C908 C 0.10392 0.41131 0.79422 0.0
C909 C 0.08695 0.43959 0.78486 0.0
H910 H 0.091 0.39581 0.76401 0.0
H911 H 0.11043 0.40467 0.80236 0.0
C912 C 0.08246 0.27463 0.77864 0.0
N913 N 0.05191 0.21906 0.78491 0.0
C914 C 0.09226 0.26367 0.78771 0.0
C915 C 0.05724 0.25727 0.77267 0.0
C916 C 0.07649 0.23552 0.79077 0.0
C917 C 0.04206 0.22925 0.776 0.0
C918 C 0.15507 0.38934 0.77305 0.0
C919 C 0.17321 0.4038 0.76329 0.0
C920 C 0.16197 0.39953 0.7852 0.0
C921 C 0.19805 0.42825 0.76585 0.0
C922 C 0.18701 0.42404 0.78738 0.0
N923 N 0.20438 0.43777 0.77774 0.0
C924 C 0.08978 0.34265 0.74044 0.0
C925 C 0.08511 0.2982 0.74333 0.0
C926 C 0.08032 0.33599 0.7282 0.0
N927 N 0.09129 0.32354 0.74777 0.0
C928 C 0.07518 0.29053 0.73121 0.0
C929 C 0.07202 0.30931 0.72362 0.0
H930 H 0.09438 0.36244 0.74434 0.0
H931 H 0.08645 0.28342 0.7494 0.0
C932 C 0.1525 0.32834 0.80309 0.0
N933 N 0.15496 0.33737 0.79117 0.0
C934 C 0.17351 0.32512 0.80848 0.0
C935 C 0.1998 0.34174 0.78939 0.0
C936 C 0.1781 0.3444 0.78432 0.0
C937 C 0.19745 0.33146 0.80156 0.0
H938 H 0.13367 0.32262 0.80824 0.0
H939 H 0.17942 0.35148 0.77484 0.0
O940 O 0.06766 0.33657 0.77262 0.0
O941 O 0.10107 0.34374 0.79664 0.0
O942 O 0.09723 0.30231 0.77577 0.0
O943 O 0.13072 0.36534 0.77065 0.0
H944 H 0.03986 0.36203 0.77894 0.0
H945 H 0.03856 0.29862 0.75544 0.0
H946 H 0.99514 0.3524 0.76966 0.0
H947 H 0.99405 0.29035 0.7465 0.0
H948 H 0.09716 0.36587 0.83698 0.0
H949 H 0.05197 0.34094 0.7958 0.0
H950 H 0.12094 0.35721 0.81944 0.0
H951 H 0.02946 0.34998 0.81368 0.0
H952 H 0.97274 0.24634 0.79151 0.0
H953 H 0.02923 0.24698 0.81932 0.0
H954 H 0.0785 0.43232 0.76505 0.0
H955 H 0.09815 0.44135 0.80433 0.0
H956 H 0.11175 0.27677 0.7924 0.0
H957 H 0.04921 0.26544 0.7657 0.0
H958 H 0.08376 0.22679 0.79782 0.0
H959 H 0.02238 0.21565 0.77154 0.0
H960 H 0.16813 0.39617 0.75383 0.0
H961 H 0.14825 0.38866 0.79289 0.0
H962 H 0.21231 0.43964 0.75839 0.0
H963 H 0.19262 0.43214 0.79673 0.0
H964 H 0.07789 0.3509 0.72266 0.0
H965 H 0.06913 0.26983 0.72794 0.0
H966 H 0.17041 0.31659 0.81778 0.0
H967 H 0.21797 0.34721 0.78376 0.0
Li968 Li 0.73411 0.09879 0.11978 0.0
Li969 Li 0.75585 0.07053 0.12161 0.0
Li970 Li 0.78411 0.12028 0.12222 0.0
Li971 Li 0.7619 0.09577 0.10241 0.0
C972 C 0.73755 0.08191 0.14389 0.0
N973 N 0.70199 0.05351 0.16332 0.0
C974 C 0.71332 0.05657 0.14173 0.0
C975 C 0.74373 0.09276 0.15594 0.0
C976 C 0.6956 0.04254 0.15166 0.0
C977 C 0.72547 0.0781 0.16564 0.0
C978 C 0.70784 0.04231 0.10445 0.0
C979 C 0.69471 0.0054 0.08951 0.0
N980 N 0.66798 0.99342 0.09354 0.0
C981 C 0.68022 0.02959 0.10845 0.0
C982 C 0.71515 0.03007 0.09491 0.0
C983 C 0.6604 0.0049 0.10282 0.0
C984 C 0.68421 0.09356 0.11251 0.0
N985 N 0.70065 0.0993 0.12269 0.0
C986 C 0.66411 0.09468 0.13597 0.0
C987 C 0.69163 0.10119 0.13422 0.0
C988 C 0.64603 0.08663 0.12572 0.0
C989 C 0.65668 0.08715 0.11381 0.0
H990 H 0.69198 0.09215 0.10347 0.0
H991 H 0.70526 0.10636 0.14215 0.0
C992 C 0.77052 0.04193 0.13837 0.0
N993 N 0.75277 0.03766 0.12883 0.0
C994 C 0.77121 0.01958 0.14386 0.0
C995 C 0.73426 0.98861 0.13006 0.0
C996 C 0.73457 0.01162 0.12471 0.0
C997 C 0.75301 0.99253 0.13964 0.0
H998 H 0.78449 0.06285 0.14157 0.0
H999 H 0.72046 0.00855 0.11723 0.0
C1000 C 0.76475 0.15441 0.11315 0.0
N1001 N 0.76777 0.20362 0.12023 0.0
C1002 C 0.76883 0.17436 0.10422 0.0
C1003 C 0.76219 0.15947 0.12569 0.0
C1004 C 0.77031 0.19912 0.10798 0.0
C1005 C 0.76377 0.18448 0.12908 0.0
C1006 C 0.80488 0.07996 0.11387 0.0
C1007 C 0.82738 0.08977 0.12206 0.0
C1008 C 0.79612 0.05498 0.10751 0.0
C1009 C 0.84049 0.0742 0.12389 0.0
C1010 C 0.80973 0.03999 0.10962 0.0
N1011 N 0.83144 0.04982 0.11771 0.0
C1012 C 0.8214 0.14413 0.14154 0.0
C1013 C 0.83446 0.17305 0.12369 0.0
C1014 C 0.84594 0.16273 0.14756 0.0
N1015 N 0.81635 0.14936 0.12977 0.0
C1016 C 0.85935 0.19239 0.12942 0.0
C1017 C 0.86556 0.18698 0.14142 0.0
H1018 H 0.80673 0.12496 0.14607 0.0
H1019 H 0.82994 0.17653 0.11429 0.0
C1020 C 0.74261 0.09305 0.07815 0.0
N1021 N 0.76322 0.09302 0.08491 0.0
C1022 C 0.73864 0.08454 0.06573 0.0
C1023 C 0.77793 0.07731 0.06738 0.0
C1024 C 0.78137 0.08634 0.07971 0.0
C1025 C 0.75575 0.07544 0.06031 0.0
H1026 H 0.72831 0.09818 0.08261 0.0
H1027 H 0.79742 0.08629 0.08536 0.0
O1028 O 0.75525 0.09615 0.13432 0.0
O1029 O 0.72745 0.06677 0.10975 0.0
O1030 O 0.76337 0.13015 0.10957 0.0
O1031 O 0.79136 0.0946 0.11219 0.0
H1032 H 0.70821 0.04781 0.13249 0.0
H1033 H 0.76235 0.11239 0.15778 0.0
H1034 H 0.67677 0.02294 0.15011 0.0
H1035 H 0.72996 0.08629 0.17501 0.0
H1036 H 0.70011 0.99574 0.08212 0.0
H1037 H 0.67411 0.0386 0.11586 0.0
H1038 H 0.73637 0.03933 0.09176 0.0
H1039 H 0.63897 0.99486 0.10584 0.0
H1040 H 0.65678 0.09492 0.14528 0.0
H1041 H 0.64343 0.08085 0.10566 0.0
H1042 H 0.78575 0.02336 0.15134 0.0
H1043 H 0.71998 0.96803 0.12655 0.0
H1044 H 0.77086 0.17074 0.09448 0.0
H1045 H 0.75904 0.14434 0.13276 0.0
H1046 H 0.77348 0.21475 0.10117 0.0
H1047 H 0.76184 0.18867 0.13875 0.0
H1048 H 0.83457 0.10913 0.12699 0.0
H1049 H 0.77869 0.04701 0.10119 0.0
H1050 H 0.85783 0.08148 0.13025 0.0
H1051 H 0.80298 0.02049 0.10487 0.0
H1052 H 0.84975 0.15793 0.15687 0.0
H1053 H 0.87402 0.21076 0.12434 0.0
H1054 H 0.72166 0.08409 0.0606 0.0
H1055 H 0.79149 0.07028 0.06372 0.0
C1056 C 0.90493 0.23457 0.147 0.0
C1057 C 0.89288 0.20551 0.14732 0.0
C1058 C 0.93048 0.25166 0.15285 0.0
C1059 C 0.97747 0.24924 0.17676 0.0
H1060 H 0.03393 0.31663 0.16091 0.0
C1061 C 0.08434 0.31414 0.19956 0.0
C1062 C 0.10733 0.32306 0.1916 0.0
C1063 C 0.0577 0.30432 0.19471 0.0
C1064 C 0.0184 0.29784 0.16545 0.0
H1065 H 0.89872 0.17169 0.15354 0.0
H1066 H 0.94313 0.20127 0.16354 0.0
H1067 H 0.98836 0.28969 0.15117 0.0
H1068 H 0.12047 0.33052 0.17229 0.0
H1069 H 0.07403 0.31236 0.16383 0.0
H1070 H 0.00769 0.25637 0.19066 0.0
C1071 C 0.93259 0.21096 0.15915 0.0
C1072 C 0.99217 0.28256 0.15994 0.0
C1073 C 0.90712 0.19396 0.15338 0.0
C1074 C 0.10318 0.32328 0.1787 0.0
C1075 C 0.07652 0.31322 0.17384 0.0
C1076 C 0.00366 0.26436 0.18221 0.0
C1077 C 0.9445 0.24 0.15907 0.0
C1078 C 0.97157 0.25776 0.1654 0.0
C1079 C 0.05333 0.30291 0.18177 0.0
C1080 C 0.02465 0.28863 0.17654 0.0
H1081 H 0.89436 0.24404 0.14244 0.0
H1082 H 0.939 0.27394 0.15267 0.0
H1083 H 0.96194 0.23053 0.18136 0.0
H1084 H 0.08663 0.31351 0.20954 0.0
H1085 H 0.04042 0.29709 0.20112 0.0
C1086 C 0.75497 0.09875 0.5178 0.0
C1087 C 0.77265 0.09939 0.5273 0.0
C1088 C 0.73551 0.07345 0.5124 0.0
C1089 C 0.7005 0.99682 0.51672 0.0
H1090 H 0.70342 0.99459 0.48071 0.0
C1091 C 0.68272 0.90075 0.48981 0.0
C1092 C 0.66947 0.89466 0.47818 0.0
C1093 C 0.68791 0.92458 0.49629 0.0
C1094 C 0.70182 0.99488 0.49075 0.0
H1095 H 0.78278 0.07409 0.53909 0.0
H1096 H 0.74916 0.03017 0.52968 0.0
H1097 H 0.72601 0.03927 0.49141 0.0
H1098 H 0.65029 0.90808 0.46439 0.0
H1099 H 0.65963 0.95023 0.47574 0.0
H1100 H 0.67744 0.95238 0.51608 0.0
C1101 C 0.75011 0.04903 0.52638 0.0
C1102 C 0.71477 0.02051 0.49689 0.0
C1103 C 0.76961 0.07423 0.53169 0.0
C1104 C 0.66051 0.91233 0.47335 0.0
C1105 C 0.66599 0.93646 0.47981 0.0
C1106 C 0.68762 0.97123 0.51059 0.0
C1107 C 0.7332 0.04835 0.51651 0.0
C1108 C 0.7151 0.0217 0.50997 0.0
C1109 C 0.68012 0.94302 0.49127 0.0
C1110 C 0.68899 0.96996 0.49757 0.0
H1111 H 0.75696 0.11787 0.51422 0.0
H1112 H 0.72265 0.07356 0.50486 0.0
H1113 H 0.69991 0.99707 0.52679 0.0
H1114 H 0.68962 0.88731 0.49377 0.0
H1115 H 0.69913 0.92917 0.50501 0.0
C1116 C 0.66569 0.76529 0.85312 0.0
C1117 C 0.68386 0.78514 0.86172 0.0
C1118 C 0.6727 0.74693 0.84743 0.0
C1119 C 0.72225 0.7203 0.84978 0.0
H1120 H 0.71475 0.71357 0.81387 0.0
C1121 C 0.79773 0.70734 0.81861 0.0
C1122 C 0.78698 0.68492 0.8102 0.0
C1123 C 0.78015 0.71404 0.82505 0.0
C1124 C 0.71651 0.71485 0.82392 0.0
H1125 H 0.72276 0.80027 0.87163 0.0
H1126 H 0.73524 0.76899 0.86161 0.0
H1127 H 0.69222 0.73484 0.82543 0.0
H1128 H 0.74901 0.65256 0.80173 0.0
H1129 H 0.71828 0.66529 0.81273 0.0
H1130 H 0.74807 0.70202 0.84813 0.0
C1131 C 0.71547 0.76722 0.85927 0.0
C1132 C 0.70357 0.72694 0.83056 0.0
C1133 C 0.7085 0.78547 0.86491 0.0
C1134 C 0.75808 0.67003 0.80808 0.0
C1135 C 0.74045 0.67714 0.8144 0.0
C1136 C 0.73542 0.7086 0.84314 0.0
C1137 C 0.6979 0.74798 0.85032 0.0
C1138 C 0.70712 0.73068 0.84353 0.0
C1139 C 0.75139 0.69893 0.82309 0.0
C1140 C 0.73336 0.70657 0.83013 0.0
H1141 H 0.64659 0.76463 0.85045 0.0
H1142 H 0.65859 0.73221 0.84066 0.0
H1143 H 0.72484 0.72219 0.85979 0.0
H1144 H 0.81986 0.71998 0.8202 0.0
H1145 H 0.7891 0.73133 0.83151 0.0
C1146 C 0.92789 0.6972 0.19737 0.0
C1147 C 0.90213 0.67441 0.19397 0.0
C1148 C 0.95213 0.70272 0.19115 0.0
C1149 C 0.9749 0.69126 0.16074 0.0
H1150 H 0.04708 0.72971 0.17669 0.0
C1151 C 0.10074 0.75622 0.14834 0.0
C1152 C 0.09963 0.77226 0.13848 0.0
C1153 C 0.07649 0.73749 0.15468 0.0
C1154 C 0.02715 0.71851 0.17206 0.0
H1155 H 0.88186 0.63871 0.18173 0.0
H1156 H 0.92443 0.64801 0.17099 0.0
H1157 H 0.00528 0.70838 0.18938 0.0
H1158 H 0.072 0.77976 0.127 0.0
H1159 H 0.03007 0.74793 0.13819 0.0
H1160 H 0.99678 0.70144 0.14342 0.0
C1161 C 0.92575 0.66191 0.17836 0.0
C1162 C 0.00312 0.70659 0.17936 0.0
C1163 C 0.90139 0.6564 0.1846 0.0
C1164 C 0.07363 0.76806 0.13468 0.0
C1165 C 0.04948 0.74946 0.14102 0.0
C1166 C 0.99894 0.70299 0.15345 0.0
C1167 C 0.95133 0.6855 0.18138 0.0
C1168 C 0.97669 0.6937 0.17378 0.0
C1169 C 0.05063 0.73439 0.15128 0.0
C1170 C 0.02536 0.71764 0.159 0.0
H1171 H 0.92923 0.71124 0.20469 0.0
H1172 H 0.97132 0.72126 0.19366 0.0
H1173 H 0.95494 0.68159 0.1561 0.0
H1174 H 0.12047 0.75903 0.15152 0.0
H1175 H 0.0781 0.72594 0.16244 0.0
C1176 C 0.32753 0.10669 0.4899 0.0
C1177 C 0.32295 0.10794 0.4771 0.0
C1178 C 0.31917 0.08121 0.4957 0.0
C1179 C 0.29692 0.00727 0.49014 0.0
H1180 H 0.25342 0.99519 0.52009 0.0
C1181 C 0.222 0.89797 0.50977 0.0
C1182 C 0.21746 0.89468 0.5227 0.0
C1183 C 0.23917 0.92424 0.50462 0.0
C1184 C 0.26598 0.99827 0.5119 0.0
H1185 H 0.30696 0.08337 0.46028 0.0
H1186 H 0.2926 0.03893 0.4704 0.0
H1187 H 0.27612 0.04065 0.5103 0.0
H1188 H 0.22861 0.91653 0.54037 0.0
H1189 H 0.25934 0.96202 0.53145 0.0
H1190 H 0.28654 0.96474 0.49169 0.0
C1191 C 0.3028 0.05772 0.47593 0.0
C1192 C 0.27896 0.02439 0.50626 0.0
C1193 C 0.31107 0.08322 0.47013 0.0
C1194 C 0.2317 0.91815 0.53039 0.0
C1195 C 0.24905 0.94437 0.52525 0.0
C1196 C 0.28408 0.98112 0.49584 0.0
C1197 C 0.30615 0.05639 0.48883 0.0
C1198 C 0.29429 0.02912 0.49524 0.0
C1199 C 0.25244 0.94788 0.51228 0.0
C1200 C 0.26813 0.97619 0.50671 0.0
H1201 H 0.33716 0.12539 0.4955 0.0
H1202 H 0.32247 0.0809 0.50561 0.0
H1203 H 0.30884 0.01038 0.48172 0.0
H1204 H 0.2118 0.88032 0.50357 0.0
H1205 H 0.2411 0.92608 0.4946 0.0
C1206 C 0.28326 0.19627 0.84962 0.0
C1207 C 0.31033 0.20697 0.85427 0.0
C1208 C 0.27549 0.21349 0.84359 0.0
C1209 C 0.29319 0.28621 0.83934 0.0
H1210 H 0.24603 0.25524 0.81034 0.0
C1211 C 0.22479 0.3282 0.81951 0.0
C1212 C 0.21852 0.32512 0.80672 0.0
C1213 C 0.24125 0.31827 0.82465 0.0
C1214 C 0.2596 0.26452 0.81827 0.0
H1215 H 0.35029 0.24435 0.85656 0.0
H1216 H 0.33667 0.27471 0.84589 0.0
H1217 H 0.26445 0.22906 0.82059 0.0
H1218 H 0.22628 0.31072 0.78921 0.0
H1219 H 0.25581 0.29452 0.79808 0.0
H1220 H 0.28832 0.32181 0.83694 0.0
C1221 C 0.32148 0.2529 0.84698 0.0
C1222 C 0.26982 0.24927 0.82428 0.0
C1223 C 0.32927 0.23556 0.85308 0.0
C1224 C 0.2307 0.31359 0.79908 0.0
C1225 C 0.24736 0.30392 0.8042 0.0
C1226 C 0.28299 0.30159 0.83329 0.0
C1227 C 0.2946 0.24191 0.842 0.0
C1228 C 0.28619 0.25961 0.83504 0.0
C1229 C 0.25204 0.30524 0.81711 0.0
C1230 C 0.26564 0.29068 0.82281 0.0
H1231 H 0.26798 0.17446 0.85066 0.0
H1232 H 0.25439 0.2045 0.84018 0.0
H1233 H 0.30574 0.29474 0.84763 0.0
H1234 H 0.21625 0.33749 0.82564 0.0
H1235 H 0.24431 0.31959 0.83464 0.0
C1236 C 0.60852 0.5392 0.2027 0.0
C1237 C 0.62295 0.56 0.21164 0.0
C1238 C 0.57963 0.52684 0.20154 0.0
C1239 C 0.51784 0.51479 0.21931 0.0
H1240 H 0.48207 0.50108 0.18705 0.0
C1241 C 0.40165 0.47755 0.21553 0.0
C1242 C 0.38624 0.45556 0.20725 0.0
C1243 C 0.43065 0.49204 0.21512 0.0
C1244 C 0.49174 0.50459 0.19612 0.0
H1245 H 0.61846 0.58501 0.22598 0.0
H1246 H 0.56838 0.56334 0.22406 0.0
H1247 H 0.53255 0.5218 0.18827 0.0
H1248 H 0.38911 0.43217 0.19175 0.0
H1249 H 0.43973 0.45735 0.19105 0.0
H1250 H 0.47727 0.49741 0.2272 0.0
C1251 C 0.5792 0.55611 0.21812 0.0
C1252 C 0.52063 0.51639 0.19681 0.0
C1253 C 0.60794 0.56844 0.21925 0.0
C1254 C 0.40041 0.44924 0.19816 0.0
C1255 C 0.42944 0.46366 0.19777 0.0
C1256 C 0.48906 0.50298 0.21862 0.0
C1257 C 0.56467 0.53506 0.20932 0.0
C1258 C 0.53398 0.52175 0.20843 0.0
C1259 C 0.4449 0.48475 0.20646 0.0
C1260 C 0.47565 0.49786 0.20703 0.0
H1261 H 0.6195 0.53224 0.19671 0.0
H1262 H 0.56895 0.51053 0.19472 0.0
H1263 H 0.52744 0.51818 0.22839 0.0
H1264 H 0.39128 0.48313 0.22253 0.0
H1265 H 0.44193 0.50861 0.22175 0.0
C1266 C 0.03773 0.59958 0.55076 0.0
C1267 C 0.06136 0.61512 0.54331 0.0
C1268 C 0.02203 0.57079 0.5496 0.0
C1269 C 0.00553 0.51296 0.52812 0.0
H1270 H 0.97785 0.46876 0.55815 0.0
C1271 C 0.95048 0.39229 0.5293 0.0
C1272 C 0.92883 0.3785 0.53795 0.0
C1273 C 0.9657 0.42133 0.52892 0.0
C1274 C 0.98507 0.48081 0.54966 0.0
H1275 H 0.08695 0.61247 0.52876 0.0
H1276 H 0.05939 0.56185 0.52675 0.0
H1277 H 0.00754 0.51884 0.55975 0.0
H1278 H 0.9048 0.3842 0.55232 0.0
H1279 H 0.93106 0.43482 0.55156 0.0
H1280 H 0.983 0.47468 0.51805 0.0
C1281 C 0.05301 0.57215 0.53344 0.0
C1282 C 0.00218 0.50953 0.55058 0.0
C1283 C 0.06882 0.6011 0.53461 0.0
C1284 C 0.92164 0.39428 0.54569 0.0
C1285 C 0.93677 0.42325 0.54529 0.0
C1286 C 0.98836 0.48411 0.5272 0.0
C1287 C 0.02945 0.5567 0.54095 0.0
C1288 C 0.01241 0.52599 0.53984 0.0
C1289 C 0.95952 0.43711 0.53718 0.0
C1290 C 0.97773 0.46776 0.53797 0.0
H1291 H 0.03088 0.60973 0.55731 0.0
H1292 H 0.00367 0.55959 0.55534 0.0
H1293 H 0.01287 0.52511 0.51967 0.0
H1294 H 0.95669 0.38068 0.52331 0.0
H1295 H 0.98318 0.43137 0.52261 0.0
C1296 C 0.4656 0.06727 0.86696 0.0
C1297 C 0.4476 0.06399 0.87682 0.0
C1298 C 0.4783 0.05102 0.86637 0.0
C1299 C 0.49496 0.0059 0.88563 0.0
H1300 H 0.49984 0.97575 0.85378 0.0
C1301 C 0.52701 0.92302 0.8827 0.0
C1302 C 0.54836 0.92848 0.87419 0.0
C1303 C 0.51296 0.93792 0.88215 0.0
C1304 C 0.49872 0.98414 0.86272 0.0
H1305 H 0.42861 0.04091 0.89372 0.0
H1306 H 0.45053 0.01261 0.89269 0.0
H1307 H 0.48033 0.00652 0.85484 0.0
H1308 H 0.57062 0.9528 0.85802 0.0
H1309 H 0.5458 0.97859 0.85699 0.0
H1310 H 0.51312 0.9834 0.89352 0.0
C1311 C 0.45541 0.02812 0.88554 0.0
C1312 C 0.4877 0.00188 0.86333 0.0
C1313 C 0.44287 0.04442 0.88616 0.0
C1314 C 0.55409 0.94788 0.86463 0.0
C1315 C 0.53995 0.96274 0.86406 0.0
C1316 C 0.50579 0.98808 0.88502 0.0
C1317 C 0.47312 0.03105 0.8756 0.0
C1318 C 0.48562 0.0129 0.87481 0.0
C1319 C 0.51988 0.95854 0.87307 0.0
C1320 C 0.5077 0.97692 0.87358 0.0
H1321 H 0.46971 0.08227 0.85965 0.0
H1322 H 0.49216 0.0541 0.85869 0.0
H1323 H 0.49418 0.01442 0.89458 0.0
H1324 H 0.5218 0.90786 0.89004 0.0
H1325 H 0.49717 0.93382 0.88906 0.0
C1326 C 0.56781 0.60622 0.44778 0.0
C1327 C 0.55943 0.62098 0.45559 0.0
C1328 C 0.55569 0.57748 0.4488 0.0
C1329 C 0.51681 0.51852 0.47005 0.0
H1330 H 0.4973 0.47558 0.43953 0.0
C1331 C 0.44977 0.39835 0.46845 0.0
C1332 C 0.4559 0.38429 0.45922 0.0
C1333 C 0.4642 0.42737 0.4689 0.0
C1334 C 0.50302 0.48726 0.44814 0.0
H1335 H 0.53201 0.61709 0.47076 0.0
H1336 H 0.51067 0.56655 0.47255 0.0
H1337 H 0.51785 0.52574 0.4385 0.0
H1338 H 0.48315 0.38952 0.44377 0.0
H1339 H 0.50865 0.44017 0.44467 0.0
H1340 H 0.50185 0.47986 0.47968 0.0
C1341 C 0.52676 0.57742 0.46566 0.0
C1342 C 0.51471 0.51603 0.44755 0.0
C1343 C 0.53891 0.6063 0.46462 0.0
C1344 C 0.47772 0.39981 0.45087 0.0
C1345 C 0.49222 0.4288 0.45136 0.0
C1346 C 0.50513 0.48964 0.47064 0.0
C1347 C 0.53493 0.5627 0.4577 0.0
C1348 C 0.52184 0.53202 0.45848 0.0
C1349 C 0.48511 0.44294 0.46016 0.0
C1350 C 0.4982 0.4737 0.45968 0.0
H1351 H 0.58416 0.61694 0.44098 0.0
H1352 H 0.56288 0.56686 0.44271 0.0
H1353 H 0.52236 0.53032 0.47863 0.0
H1354 H 0.43282 0.38699 0.47491 0.0
H1355 H 0.45803 0.43758 0.47573 0.0
C1356 C 0.95086 0.5554 0.77378 0.0
C1357 C 0.9303 0.54861 0.7829 0.0
C1358 C 0.96843 0.54428 0.77428 0.0
C1359 C 0.99718 0.5143 0.79611 0.0
H1360 H 0.01648 0.48938 0.76599 0.0
C1361 C 0.0555 0.45258 0.79593 0.0
C1362 C 0.07411 0.45729 0.78613 0.0
C1363 C 0.03983 0.46587 0.79611 0.0
C1364 C 0.01167 0.49667 0.77446 0.0
H1365 H 0.91176 0.52439 0.79958 0.0
H1366 H 0.94251 0.50481 0.80044 0.0
H1367 H 0.98397 0.50658 0.76493 0.0
H1368 H 0.09225 0.48099 0.7693 0.0
H1369 H 0.0651 0.50448 0.76967 0.0
H1370 H 0.02487 0.50429 0.80564 0.0
C1371 C 0.94514 0.519 0.79297 0.0
C1372 C 0.99293 0.50641 0.77386 0.0
C1373 C 0.92748 0.53011 0.79245 0.0
C1374 C 0.0778 0.47668 0.77687 0.0
C1375 C 0.06217 0.49002 0.77707 0.0
C1376 C 0.01598 0.50458 0.79671 0.0
C1377 C 0.96596 0.52617 0.78394 0.0
C1378 C 0.98546 0.51531 0.78467 0.0
C1379 C 0.04245 0.48418 0.7865 0.0
C1380 C 0.02343 0.49565 0.78589 0.0
H1381 H 0.95412 0.57015 0.76647 0.0
H1382 H 0.98454 0.55057 0.7673 0.0
H1383 H 0.99215 0.52142 0.80458 0.0
H1384 H 0.05187 0.43744 0.8031 0.0
H1385 H 0.02465 0.46069 0.80344 0.0
C1386 C 0.39359 0.93627 0.1326 0.0
C1387 C 0.37905 0.94224 0.12356 0.0
C1388 C 0.42246 0.95313 0.13378 0.0
C1389 C 0.48394 0.00263 0.11582 0.0
H1390 H 0.5201 0.02573 0.14795 0.0
C1391 C 0.60034 0.08124 0.11908 0.0
C1392 C 0.61571 0.07484 0.12746 0.0
C1393 C 0.57134 0.06697 0.1196 0.0
C1394 C 0.51032 0.01928 0.13891 0.0
H1395 H 0.38323 0.97142 0.10914 0.0
H1396 H 0.43326 0.00041 0.11109 0.0
H1397 H 0.4696 0.99587 0.14689 0.0
H1398 H 0.61279 0.04914 0.14321 0.0
H1399 H 0.56221 0.02411 0.14406 0.0
H1400 H 0.52439 0.02556 0.1078 0.0
C1401 C 0.42257 0.98241 0.11708 0.0
C1402 C 0.48142 0.00215 0.13831 0.0
C1403 C 0.39387 0.96569 0.11593 0.0
C1404 C 0.60153 0.0548 0.13673 0.0
C1405 C 0.57252 0.04041 0.1372 0.0
C1406 C 0.51272 0.01963 0.11641 0.0
C1407 C 0.43725 0.97623 0.12593 0.0
C1408 C 0.46793 0.99377 0.12674 0.0
C1409 C 0.55706 0.04583 0.12843 0.0
C1410 C 0.52628 0.02829 0.12796 0.0
H1411 H 0.38275 0.91836 0.13862 0.0
H1412 H 0.43325 0.94777 0.14064 0.0
H1413 H 0.47422 0.99612 0.10676 0.0
H1414 H 0.61072 0.09683 0.11194 0.0
H1415 H 0.56008 0.0721 0.11288 0.0
C1416 C 0.2551 0.04563 0.14599 0.0
C1417 C 0.23048 0.01967 0.14628 0.0
C1418 C 0.25607 0.06895 0.15137 0.0
C1419 C 0.21223 0.09798 0.15982 0.0
H1420 H 0.27304 0.14603 0.18165 0.0
C1421 C 0.21286 0.18764 0.18713 0.0
C1422 C 0.23846 0.21213 0.18874 0.0
C1423 C 0.21179 0.16409 0.18193 0.0
C1424 C 0.25613 0.1331 0.17542 0.0
H1425 H 0.18772 0.99793 0.15273 0.0
H1426 H 0.18931 0.03889 0.16182 0.0
H1427 H 0.27155 0.10509 0.17262 0.0
H1428 H 0.28288 0.23159 0.18589 0.0
H1429 H 0.28103 0.19081 0.17648 0.0
H1430 H 0.19706 0.12618 0.16234 0.0
C1431 C 0.20778 0.04107 0.15736 0.0
C1432 C 0.25524 0.10959 0.17031 0.0
C1433 C 0.20688 0.01765 0.15211 0.0
C1434 C 0.26291 0.21282 0.18488 0.0
C1435 C 0.26183 0.1894 0.17955 0.0
C1436 C 0.21327 0.12167 0.16482 0.0
C1437 C 0.23237 0.06692 0.15703 0.0
C1438 C 0.23326 0.09179 0.16248 0.0
C1439 C 0.23627 0.16466 0.1781 0.0
C1440 C 0.23521 0.13951 0.17271 0.0
H1441 H 0.27354 0.0481 0.14139 0.0
H1442 H 0.27521 0.08874 0.15086 0.0
H1443 H 0.19523 0.08476 0.15368 0.0
H1444 H 0.19374 0.1865 0.19016 0.0
H1445 H 0.19179 0.14529 0.18115 0.0
C1446 C 0.04618 0.26136 0.51787 0.0
C1447 C 0.02254 0.23568 0.52066 0.0
C1448 C 0.06963 0.2624 0.51257 0.0
C1449 C 0.10473 0.22171 0.50924 0.0
H1450 H 0.1425 0.27111 0.48155 0.0
C1451 C 0.19035 0.21625 0.4813 0.0
C1452 C 0.21323 0.24139 0.47737 0.0
C1453 C 0.16733 0.21588 0.48671 0.0
C1454 C 0.13243 0.25747 0.48938 0.0
H1455 H 0.00482 0.19095 0.51977 0.0
H1456 H 0.04586 0.19285 0.51066 0.0
H1457 H 0.10187 0.27004 0.49074 0.0
H1458 H 0.23027 0.28594 0.47624 0.0
H1459 H 0.19025 0.28539 0.48584 0.0
H1460 H 0.13535 0.20928 0.50799 0.0
C1461 C 0.04633 0.21215 0.51272 0.0
C1462 C 0.10913 0.25684 0.49463 0.0
C1463 C 0.02285 0.21109 0.51796 0.0
C1464 C 0.21274 0.2662 0.47904 0.0
C1465 C 0.1898 0.26587 0.48451 0.0
C1466 C 0.12812 0.22245 0.50405 0.0
C1467 C 0.06999 0.23781 0.51001 0.0
C1468 C 0.09498 0.23885 0.50456 0.0
C1469 C 0.16677 0.24069 0.48837 0.0
C1470 C 0.14218 0.24025 0.49402 0.0
H1471 H 0.0468 0.28069 0.52001 0.0
H1472 H 0.0877 0.28249 0.5107 0.0
H1473 H 0.09447 0.20794 0.51702 0.0
H1474 H 0.19001 0.19676 0.47997 0.0
H1475 H 0.14976 0.19607 0.48938 0.0
C1476 C 0.94914 0.22061 0.81461 0.0
C1477 C 0.97408 0.22041 0.81287 0.0
C1478 C 0.92644 0.19824 0.82035 0.0
C1479 C 0.90717 0.13675 0.84023 0.0
H1480 H 0.83356 0.11106 0.82673 0.0
C1481 C 0.81289 0.03148 0.85366 0.0
C1482 C 0.78797 0.03111 0.85639 0.0
C1483 C 0.83538 0.05506 0.84853 0.0
C1484 C 0.85395 0.11818 0.83068 0.0
H1485 H 0.99482 0.19665 0.81573 0.0
H1486 H 0.95511 0.1574 0.82562 0.0
H1487 H 0.87347 0.15151 0.8176 0.0
H1488 H 0.76716 0.05529 0.85578 0.0
H1489 H 0.80641 0.0964 0.84661 0.0
H1490 H 0.88763 0.10308 0.85317 0.0
C1491 C 0.95322 0.17507 0.82278 0.0
C1492 C 0.87682 0.14139 0.82547 0.0
C1493 C 0.97597 0.19752 0.8171 0.0
C1494 C 0.78593 0.05475 0.85365 0.0
C1495 C 0.80841 0.07832 0.84843 0.0
C1496 C 0.88433 0.11346 0.84538 0.0
C1497 C 0.92814 0.1751 0.82442 0.0
C1498 C 0.90372 0.15088 0.83016 0.0
C1499 C 0.83342 0.07876 0.84591 0.0
C1500 C 0.85751 0.10387 0.84061 0.0
H1501 H 0.94723 0.23816 0.81158 0.0
H1502 H 0.90761 0.19916 0.82167 0.0
H1503 H 0.92751 0.14379 0.84422 0.0
H1504 H 0.81499 0.01343 0.85541 0.0
H1505 H 0.85424 0.05464 0.84648 0.0
C1506 C 0.77952 0.96949 0.14643 0.0
C1507 C 0.75399 0.96859 0.14504 0.0
C1508 C 0.78052 0.94679 0.15136 0.0
C1509 C 0.73634 0.87133 0.15782 0.0
H1510 H 0.7979 0.8844 0.17921 0.0
C1511 C 0.73994 0.7857 0.18709 0.0
C1512 C 0.76488 0.78501 0.18658 0.0
C1513 C 0.73815 0.80759 0.18167 0.0
C1514 C 0.78071 0.88047 0.17317 0.0
H1515 H 0.70955 0.94356 0.14782 0.0
H1516 H 0.71127 0.90412 0.15678 0.0
H1517 H 0.79546 0.92378 0.17077 0.0
H1518 H 0.80723 0.8065 0.1796 0.0
H1519 H 0.80422 0.84504 0.17048 0.0
H1520 H 0.72134 0.82791 0.16055 0.0
C1521 C 0.73049 0.92203 0.15378 0.0
C1522 C 0.77933 0.90301 0.16829 0.0
C1523 C 0.72947 0.94464 0.1487 0.0
C1524 C 0.78788 0.80661 0.18041 0.0
C1525 C 0.78616 0.82864 0.17514 0.0
C1526 C 0.73757 0.84879 0.16283 0.0
C1527 C 0.75604 0.9228 0.15514 0.0
C1528 C 0.75721 0.89874 0.16049 0.0
C1529 C 0.76134 0.82939 0.17577 0.0
C1530 C 0.75984 0.85318 0.1705 0.0
H1531 H 0.79868 0.98759 0.1435 0.0
H1532 H 0.8005 0.94793 0.15202 0.0
H1533 H 0.71925 0.86724 0.15169 0.0
H1534 H 0.72195 0.76968 0.19192 0.0
H1535 H 0.71884 0.80784 0.18239 0.0
C1536 C 0.8077 0.79064 0.48603 0.0
C1537 C 0.78701 0.76767 0.47947 0.0
C1538 C 0.83056 0.78998 0.491 0.0
C1539 C 0.8539 0.74319 0.50209 0.0
H1540 H 0.92795 0.804 0.49494 0.0
C1541 C 0.95133 0.73858 0.51629 0.0
C1542 C 0.97448 0.76322 0.52045 0.0
C1543 C 0.92869 0.7391 0.51097 0.0
C1544 C 0.90744 0.78704 0.49719 0.0
H1545 H 0.77433 0.72594 0.47304 0.0
H1546 H 0.81382 0.72457 0.4821 0.0
H1547 H 0.88761 0.80501 0.48669 0.0
H1548 H 0.99223 0.80767 0.52242 0.0
H1549 H 0.95239 0.80862 0.5135 0.0
H1550 H 0.87343 0.72549 0.51287 0.0
C1551 C 0.81223 0.74306 0.48334 0.0
C1552 C 0.88437 0.78761 0.49242 0.0
C1553 C 0.78955 0.74384 0.47821 0.0
C1554 C 0.97471 0.78844 0.51915 0.0
C1555 C 0.95191 0.78894 0.51399 0.0
C1556 C 0.87694 0.74278 0.50701 0.0
C1557 C 0.83303 0.76621 0.48968 0.0
C1558 C 0.85742 0.76566 0.49481 0.0
C1559 C 0.92855 0.76425 0.50987 0.0
C1560 C 0.90403 0.76467 0.5046 0.0
H1561 H 0.8062 0.80913 0.48742 0.0
H1562 H 0.84618 0.80796 0.496 0.0
H1563 H 0.83329 0.72615 0.50417 0.0
H1564 H 0.95083 0.71891 0.51707 0.0
H1565 H 0.91138 0.71978 0.50767 0.0
C1566 C 0.19266 0.94495 0.86102 0.0
C1567 C 0.21273 0.96611 0.85345 0.0
C1568 C 0.17026 0.92152 0.85572 0.0
C1569 C 0.14679 0.88164 0.82632 0.0
H1570 H 0.07383 0.85105 0.84132 0.0
C1571 C 0.04627 0.79929 0.80217 0.0
C1572 C 0.02694 0.7771 0.80954 0.0
C1573 C 0.06935 0.82184 0.8076 0.0
C1574 C 0.09414 0.8592 0.83711 0.0
H1575 H 0.22506 0.97907 0.83435 0.0
H1576 H 0.18552 0.93863 0.82511 0.0
H1577 H 0.11322 0.89166 0.8506 0.0
H1578 H 0.01707 0.761 0.82838 0.0
H1579 H 0.0572 0.80063 0.83786 0.0
H1580 H 0.12749 0.84936 0.8127 0.0
C1581 C 0.18734 0.93993 0.83515 0.0
C1582 C 0.11672 0.88243 0.84243 0.0
C1583 C 0.20982 0.96331 0.84046 0.0
C1584 C 0.0313 0.77795 0.82246 0.0
C1585 C 0.0543 0.8006 0.82789 0.0
C1586 C 0.12416 0.85851 0.82095 0.0
C1587 C 0.1673 0.91875 0.84273 0.0
C1588 C 0.14332 0.89394 0.8371 0.0
C1589 C 0.07351 0.82279 0.82052 0.0
C1590 C 0.09761 0.84708 0.82629 0.0
H1591 H 0.19407 0.9466 0.87107 0.0
H1592 H 0.15539 0.90546 0.86183 0.0
H1593 H 0.16707 0.88968 0.8221 0.0
H1594 H 0.04329 0.79954 0.79222 0.0
H1595 H 0.08363 0.83884 0.80171 0.0
C1596 C 0.32125 0.28156 0.37671 0.0
C1597 C 0.31514 0.25423 0.37917 0.0
C1598 C 0.31366 0.28827 0.36541 0.0
C1599 C 0.26463 0.25706 0.33932 0.0
H1600 H 0.31461 0.32632 0.32268 0.0
C1601 C 0.24399 0.28364 0.28987 0.0
C1602 C 0.25099 0.31124 0.28745 0.0
C1603 C 0.25098 0.27644 0.30121 0.0
C1604 C 0.30025 0.30708 0.32729 0.0
H1605 H 0.29662 0.2126 0.37156 0.0
H1606 H 0.28336 0.22434 0.35177 0.0
H1607 H 0.32924 0.31406 0.34187 0.0
H1608 H 0.27 0.35275 0.29523 0.0
H1609 H 0.28209 0.34016 0.31506 0.0
H1610 H 0.23563 0.2501 0.32473 0.0
C1611 C 0.29378 0.24051 0.35868 0.0
C1612 C 0.30868 0.30001 0.33827 0.0
C1613 C 0.30142 0.23379 0.37 0.0
C1614 C 0.26461 0.33137 0.29674 0.0
C1615 C 0.2716 0.32416 0.30809 0.0
C1616 C 0.25619 0.26414 0.32832 0.0
C1617 C 0.29969 0.26781 0.35629 0.0
C1618 C 0.29095 0.27495 0.34443 0.0
C1619 C 0.26516 0.29667 0.3104 0.0
C1620 C 0.27389 0.28926 0.32219 0.0
H1621 H 0.33121 0.2977 0.38366 0.0
H1622 H 0.31811 0.30938 0.36396 0.0
H1623 H 0.25032 0.2378 0.34393 0.0
H1624 H 0.23396 0.26771 0.28283 0.0
H1625 H 0.24605 0.25516 0.3026 0.0
C1626 C 0.93711 0.26763 0.62796 0.0
C1627 C 0.93407 0.24566 0.62043 0.0
C1628 C 0.95072 0.27289 0.6394 0.0
C1629 C 0.978 0.24284 0.6628 0.0
H1630 H 0.02417 0.3202 0.67204 0.0
C1631 C 0.03193 0.27568 0.71066 0.0
C1632 C 0.05768 0.30032 0.71147 0.0
C1633 C 0.01702 0.26818 0.69952 0.0
C1634 C 0.01173 0.29849 0.66954 0.0
H1635 H 0.94245 0.21172 0.61896 0.0
H1636 H 0.96703 0.22133 0.63875 0.0
H1637 H 0.99749 0.3084 0.65293 0.0
H1638 H 0.0885 0.33602 0.70123 0.0
H1639 H 0.06307 0.32246 0.68158 0.0
H1640 H 0.99335 0.23303 0.67911 0.0
C1641 C 0.95829 0.23411 0.63604 0.0
C1642 C 0.99593 0.29166 0.65866 0.0
C1643 C 0.94425 0.22858 0.62469 0.0
C1644 C 0.0686 0.31699 0.70085 0.0
C1645 C 0.05389 0.30928 0.68963 0.0
C1646 C 0.99413 0.24969 0.6736 0.0
C1647 C 0.96209 0.25662 0.64348 0.0
C1648 C 0.97871 0.26374 0.65516 0.0
C1649 C 0.02768 0.28498 0.68886 0.0
C1650 C 0.01113 0.27762 0.67715 0.0
H1651 H 0.92922 0.28095 0.6249 0.0
H1652 H 0.95257 0.28994 0.64499 0.0
H1653 H 0.96481 0.22111 0.66051 0.0
H1654 H 0.02283 0.26269 0.71879 0.0
H1655 H 0.99673 0.24962 0.6994 0.0
C1656 C 0.77011 0.06419 0.03983 0.0
C1657 C 0.74901 0.06174 0.04787 0.0
C1658 C 0.76352 0.04923 0.02868 0.0
C1659 C 0.70504 0.98801 0.01312 0.0
H1660 H 0.75021 0.01896 0.98356 0.0
C1661 C 0.67055 0.94312 0.9636 0.0
C1662 C 0.69013 0.94072 0.95626 0.0
C1663 C 0.67809 0.95623 0.97519 0.0
C1664 C 0.7376 0.00997 0.9918 0.0
H1665 H 0.70427 0.0417 0.05024 0.0
H1666 H 0.6929 0.01711 0.03059 0.0
H1667 H 0.76261 0.04637 0.00264 0.0
H1668 H 0.73276 0.94971 0.95526 0.0
H1669 H 0.74609 0.97304 0.97552 0.0
H1670 H 0.67951 0.952 0.00205 0.0
C1671 C 0.71459 0.02993 0.03305 0.0
C1672 C 0.74471 0.02563 0.00275 0.0
C1673 C 0.72117 0.04457 0.04426 0.0
C1674 C 0.71723 0.9511 0.96081 0.0
C1675 C 0.7249 0.96463 0.97232 0.0
C1676 C 0.69774 0.97255 0.00212 0.0
C1677 C 0.73564 0.03167 0.0252 0.0
C1678 C 0.72844 0.01491 0.01355 0.0
C1679 C 0.70546 0.96757 0.97955 0.0
C1680 C 0.7139 0.98341 0.99136 0.0
H1681 H 0.79179 0.07745 0.0422 0.0
H1682 H 0.78032 0.05098 0.02294 0.0
H1683 H 0.69237 0.97874 0.02131 0.0
H1684 H 0.64952 0.93524 0.96029 0.0
H1685 H 0.66275 0.95836 0.98055 0.0
C1686 C 0.74792 0.67845 0.29809 0.0
C1687 C 0.76312 0.69821 0.28888 0.0
C1688 C 0.742 0.6867 0.30942 0.0
C1689 C 0.73083 0.74026 0.32291 0.0
H1690 H 0.74123 0.71332 0.35457 0.0
C1691 C 0.707 0.77535 0.36981 0.0
C1692 C 0.6956 0.75548 0.37938 0.0
C1693 C 0.7166 0.76952 0.35881 0.0
C1694 C 0.7378 0.72074 0.34581 0.0
H1695 H 0.78418 0.74203 0.28427 0.0
H1696 H 0.77353 0.75643 0.30407 0.0
H1697 H 0.75581 0.70077 0.33543 0.0
H1698 H 0.68565 0.71385 0.3848 0.0
H1699 H 0.7008 0.70324 0.3655 0.0
H1700 H 0.71193 0.75942 0.33315 0.0
C1701 C 0.76638 0.73462 0.30253 0.0
C1702 C 0.74633 0.71365 0.33486 0.0
C1703 C 0.77266 0.72642 0.29127 0.0
C1704 C 0.69376 0.72954 0.37758 0.0
C1705 C 0.70301 0.72361 0.36656 0.0
C1706 C 0.72194 0.74705 0.33384 0.0
C1707 C 0.75079 0.71481 0.31166 0.0
C1708 C 0.74281 0.72324 0.32331 0.0
C1709 C 0.71481 0.74359 0.35707 0.0
C1710 C 0.72514 0.73723 0.34544 0.0
H1711 H 0.74037 0.65659 0.29647 0.0
H1712 H 0.72981 0.67101 0.31629 0.0
H1713 H 0.72762 0.74768 0.3141 0.0
H1714 H 0.70855 0.79546 0.37079 0.0
H1715 H 0.7258 0.78554 0.35177 0.0
C1716 C 0.04078 0.76701 0.62147 0.0
C1717 C 0.06184 0.76036 0.61968 0.0
C1718 C 0.02636 0.76101 0.63274 0.0
C1719 C 0.00827 0.71471 0.65996 0.0
H1720 H 0.98476 0.76377 0.67414 0.0
C1721 C 0.9312 0.67982 0.70082 0.0
C1722 C 0.93726 0.69907 0.71047 0.0
C1723 C 0.94563 0.68814 0.68955 0.0
C1724 C 0.9913 0.74991 0.67034 0.0
H1725 H 0.08494 0.74313 0.62849 0.0
H1726 H 0.05996 0.7329 0.64823 0.0
H1727 H 0.01333 0.77777 0.65538 0.0
H1728 H 0.96289 0.74229 0.71578 0.0
H1729 H 0.98814 0.75681 0.69614 0.0
H1730 H 0.98682 0.68713 0.67504 0.0
C1731 C 0.05423 0.74227 0.64082 0.0
C1732 C 0.00746 0.75781 0.65952 0.0
C1733 C 0.06861 0.74821 0.62953 0.0
C1734 C 0.95744 0.72702 0.70846 0.0
C1735 C 0.97196 0.73534 0.6972 0.0
C1736 C 0.99216 0.70683 0.67077 0.0
C1737 C 0.03266 0.74824 0.6425 0.0
C1738 C 0.01611 0.74029 0.65419 0.0
C1739 C 0.96656 0.7159 0.68769 0.0
C1740 C 0.98341 0.72428 0.67608 0.0
H1741 H 0.0347 0.77592 0.614 0.0
H1742 H 0.00962 0.76552 0.63363 0.0
H1743 H 0.01424 0.70053 0.65602 0.0
H1744 H 0.91549 0.65821 0.70203 0.0
H1745 H 0.94053 0.67275 0.68232 0.0
C1746 C 0.22952 0.93125 0.03516 0.0
C1747 C 0.24825 0.94231 0.04516 0.0
C1748 C 0.2352 0.94556 0.02385 0.0
C1749 C 0.27857 0.01578 0.01018 0.0
H1750 H 0.26115 0.97534 0.97902 0.0
C1751 C 0.31983 0.06866 0.96239 0.0
C1752 C 0.30104 0.05888 0.95238 0.0
C1753 C 0.3124 0.05513 0.9739 0.0
C1754 C 0.26586 0.98689 0.98765 0.0
H1755 H 0.28752 0.97737 0.0511 0.0
H1756 H 0.29786 0.00164 0.03134 0.0
H1757 H 0.2502 0.94997 0.99862 0.0
H1758 H 0.25969 0.02735 0.94663 0.0
H1759 H 0.24671 0.00392 0.96673 0.0
H1760 H 0.29471 0.05274 0.99914 0.0
C1761 C 0.27856 0.98214 0.03226 0.0
C1762 C 0.25954 0.97236 0.99889 0.0
C1763 C 0.27282 0.96794 0.04355 0.0
C1764 C 0.27452 0.0356 0.95419 0.0
C1765 C 0.26719 0.02198 0.96566 0.0
C1766 C 0.28505 0.03032 0.99894 0.0
C1767 C 0.25977 0.97123 0.02228 0.0
C1768 C 0.2659 0.98662 0.0103 0.0
C1769 C 0.28614 0.03141 0.97559 0.0
C1770 C 0.27881 0.01603 0.98755 0.0
H1771 H 0.21049 0.91147 0.03604 0.0
H1772 H 0.22013 0.93666 0.0164 0.0
H1773 H 0.28329 0.02741 0.01879 0.0
H1774 H 0.34035 0.08663 0.96128 0.0
H1775 H 0.3275 0.06277 0.98137 0.0
loop_
_geom_bond_atom_site_label_1
_geom_bond_atom_site_label_2
_geom_bond_distance
_geom_bond_site_symmetry_2
_ccdc_geom_bond_type
Li0 N17 1.990 . S
Li0 O60 1.956 . S
Li0 O61 1.970 . S
Li0 O62 1.961 . S
Li1 N25 1.990 . S
Li1 O60 1.970 . S
Li1 O61 1.956 . S
Li1 O63 1.961 . S
Li2 N47 1.990 . S
Li2 O60 1.961 . S
Li2 O62 1.956 . S
Li2 O63 1.970 . S
Li3 N53 1.990 . S
Li3 O61 1.961 . S
Li3 O62 1.970 . S
Li3 O63 1.956 . S
C4 C6 1.348 . S
C4 C7 1.356 . S
C4 O60 1.325 . S
N5 C8 1.314 . S
N5 C9 1.279 . S
C6 C4 1.348 . S
C6 C8 1.353 . S
C6 H64 0.929 . S
C7 C4 1.356 . S
C7 C9 1.358 . S
C7 H65 0.930 . S
C8 N5 1.314 . S
C8 C6 1.353 . S
C8 H66 0.930 . S
C9 N5 1.279 . S
C9 C7 1.358 . S
C9 H67 0.930 . S
C10 C13 1.348 . S
C10 C14 1.356 . S
C10 O61 1.325 . S
C11 N12 1.279 . S
C11 C14 1.358 . S
C11 H68 0.930 . S
N12 C11 1.279 . S
N12 C15 1.314 . S
C13 C10 1.348 . S
C13 C15 1.353 . S
C13 H69 0.929 . S
C14 C10 1.356 . S
C14 C11 1.358 . S
C14 H70 0.930 . S
C15 N12 1.314 . S
C15 C13 1.353 . S
C15 H71 0.930 . S
C16 N17 1.314 . S
C16 C21 1.353 . S
C16 H22 0.930 . S
N17 Li0 1.990 . S
N17 C16 1.314 . S
N17 C19 1.279 . S
C18 C19 1.358 . S
C18 C20 1.356 . S
C18 H72 0.930 . S
C19 N17 1.279 . S
C19 C18 1.358 . S
C19 H23 0.930 . S
C20 C18 1.356 . S
C20 C21 1.348 . S
C21 C16 1.353 . S
C21 C20 1.348 . S
C21 H73 0.929 . S
H22 C16 0.930 . S
H23 C19 0.930 . S
C24 N25 1.314 . S
C24 C26 1.353 . S
C24 H30 0.930 . S
N25 Li1 1.990 . S
N25 C24 1.314 . S
N25 C28 1.279 . S
C26 C24 1.353 . S
C26 C29 1.348 . S
C26 H74 0.929 . S
C27 C28 1.358 . S
C27 C29 1.356 . S
C27 H75 0.930 . S
C28 N25 1.279 . S
C28 C27 1.358 . S
C28 H31 0.930 . S
C29 C26 1.348 . S
C29 C27 1.356 . S
H30 C24 0.930 . S
H31 C28 0.930 . S
C32 C34 1.348 . S
C32 C35 1.356 . S
C32 O62 1.325 . S
N33 C36 1.314 . S
N33 C37 1.279 . S
C34 C32 1.348 . S
C34 C36 1.353 . S
C34 H76 0.929 . S
C35 C32 1.356 . S
C35 C37 1.358 . S
C35 H77 0.930 . S
C36 N33 1.314 . S
C36 C34 1.353 . S
C36 H78 0.930 . S
C37 N33 1.279 . S
C37 C35 1.358 . S
C37 H79 0.930 . S
C38 C39 1.348 . S
C38 C40 1.356 . S
C38 O63 1.325 . S
C39 C38 1.348 . S
C39 C41 1.353 . S
C39 H80 0.929 . S
C40 C38 1.356 . S
C40 C42 1.358 . S
C40 H81 0.930 . S
C41 C39 1.353 . S
C41 N43 1.314 . S
C41 H82 0.930 . S
C42 C40 1.358 . S
C42 N43 1.279 . S
C42 H83 0.930 . S
N43 C41 1.314 . S
N43 C42 1.279 . S
C44 C46 1.353 . S
C44 N47 1.314 . S
C44 H50 0.930 . S
C45 N47 1.279 . S
C45 C48 1.358 . S
C45 H51 0.930 . S
C46 C44 1.353 . S
C46 C49 1.348 . S
C46 H84 0.929 . S
N47 Li2 1.990 . S
N47 C44 1.314 . S
N47 C45 1.279 . S
C48 C45 1.358 . S
C48 C49 1.356 . S
C48 H85 0.930 . S
C49 C46 1.348 . S
C49 C48 1.356 . S
H50 C44 0.930 . S
H51 C45 0.930 . S
C52 N53 1.314 . S
C52 C54 1.353 . S
C52 H58 0.930 . S
N53 Li3 1.990 . S
N53 C52 1.314 . S
N53 C56 1.279 . S
C54 C52 1.353 . S
C54 C57 1.348 . S
C54 H86 0.929 . S
C55 C56 1.358 . S
C55 C57 1.356 . S
C55 H87 0.930 . S
C56 N53 1.279 . S
C56 C55 1.358 . S
C56 H59 0.930 . S
C57 C54 1.348 . S
C57 C55 1.356 . S
H58 C52 0.930 . S
H59 C56 0.930 . S
O60 Li0 1.956 . S
O60 Li1 1.970 . S
O60 Li2 1.961 . S
O60 C4 1.325 . S
O61 Li0 1.970 . S
O61 Li1 1.956 . S
O61 Li3 1.961 . S
O61 C10 1.325 . S
O62 Li0 1.961 . S
O62 Li2 1.956 . S
O62 Li3 1.970 . S
O62 C32 1.325 . S
O63 Li1 1.961 . S
O63 Li2 1.970 . S
O63 Li3 1.956 . S
O63 C38 1.325 . S
H64 C6 0.929 . S
H65 C7 0.930 . S
H66 C8 0.930 . S
H67 C9 0.930 . S
H68 C11 0.930 . S
H69 C13 0.929 . S
H70 C14 0.930 . S
H71 C15 0.930 . S
H72 C18 0.930 . S
H73 C21 0.929 . S
H74 C26 0.929 . S
H75 C27 0.930 . S
H76 C34 0.929 . S
H77 C35 0.930 . S
H78 C36 0.930 . S
H79 C37 0.930 . S
H80 C39 0.929 . S
H81 C40 0.930 . S
H82 C41 0.930 . S
H83 C42 0.930 . S
H84 C46 0.929 . S
H85 C48 0.930 . S
H86 C54 0.929 . S
H87 C55 0.930 . S
Li88 N105 1.990 . S
Li88 O148 1.956 . S
Li88 O149 1.970 . S
Li88 O150 1.961 . S
Li89 N113 1.990 . S
Li89 O148 1.970 . S
Li89 O149 1.956 . S
Li89 O151 1.961 . S
Li90 N135 1.990 . S
Li90 O148 1.961 . S
Li90 O150 1.956 . S
Li90 O151 1.970 . S
Li91 N141 1.990 1_655 S
Li91 O149 1.961 . S
Li91 O150 1.970 . S
Li91 O151 1.956 . S
C92 C94 1.348 . S
C92 C95 1.356 . S
C92 O148 1.325 . S
N93 C96 1.314 . S
N93 C97 1.279 . S
C94 C92 1.348 . S
C94 C96 1.353 . S
C94 H152 0.929 . S
C95 C92 1.356 . S
C95 C97 1.358 . S
C95 H153 0.930 . S
C96 N93 1.314 . S
C96 C94 1.353 . S
C96 H154 0.930 . S
C97 N93 1.279 . S
C97 C95 1.358 . S
C97 H155 0.930 . S
C98 C101 1.348 . S
C98 C102 1.356 . S
C98 O149 1.325 . S
C99 N100 1.279 . S
C99 C102 1.358 . S
C99 H156 0.930 . S
N100 C99 1.279 . S
N100 C103 1.314 . S
C101 C98 1.348 . S
C101 C103 1.353 . S
C101 H157 0.929 . S
C102 C98 1.356 . S
C102 C99 1.358 . S
C102 H158 0.930 . S
C103 N100 1.314 . S
C103 C101 1.353 . S
C103 H159 0.930 . S
C104 N105 1.314 . S
C104 C109 1.353 . S
C104 H110 0.930 . S
N105 Li88 1.990 . S
N105 C104 1.314 . S
N105 C107 1.279 . S
C106 C107 1.358 . S
C106 C108 1.356 . S
C106 H160 0.930 . S
C107 N105 1.279 . S
C107 C106 1.358 . S
C107 H111 0.930 . S
C108 C106 1.356 . S
C108 C109 1.348 . S
C109 C104 1.353 . S
C109 C108 1.348 . S
C109 H161 0.929 . S
H110 C104 0.930 . S
H111 C107 0.930 . S
C112 N113 1.314 . S
C112 C114 1.353 . S
C112 H118 0.930 . S
N113 Li89 1.990 . S
N113 C112 1.314 . S
N113 C116 1.279 . S
C114 C112 1.353 . S
C114 C117 1.348 . S
C114 H162 0.929 . S
C115 C116 1.358 . S
C115 C117 1.356 . S
C115 H163 0.930 . S
C116 N113 1.279 . S
C116 C115 1.358 . S
C116 H119 0.930 . S
C117 C114 1.348 . S
C117 C115 1.356 . S
H118 C112 0.930 . S
H119 C116 0.930 . S
C120 C122 1.348 . S
C120 C123 1.356 . S
C120 O150 1.325 . S
N121 C124 1.314 . S
N121 C125 1.279 . S
C122 C120 1.348 . S
C122 C124 1.353 . S
C122 H164 0.929 . S
C123 C120 1.356 . S
C123 C125 1.358 . S
C123 H165 0.930 . S
C124 N121 1.314 . S
C124 C122 1.353 . S
C124 H166 0.930 . S
C125 N121 1.279 . S
C125 C123 1.358 . S
C125 H167 0.930 . S
C126 C127 1.348 . S
C126 C128 1.356 1_655 S
C126 O151 1.325 . S
C127 C126 1.348 . S
C127 C129 1.353 1_655 S
C127 H168 0.929 . S
C128 C126 1.356 1_455 S
C128 C130 1.358 . S
C128 H169 0.930 . S
C129 C127 1.353 1_455 S
C129 N131 1.314 . S
C129 H170 0.930 . S
C130 C128 1.358 . S
C130 N131 1.279 . S
C130 H171 0.930 . S
N131 C129 1.314 . S
N131 C130 1.279 . S
C132 C134 1.353 . S
C132 N135 1.314 . S
C132 H138 0.930 . S
C133 N135 1.279 . S
C133 C136 1.358 . S
C133 H139 0.930 . S
C134 C132 1.353 . S
C134 C137 1.348 . S
C134 H172 0.929 . S
N135 Li90 1.990 . S
N135 C132 1.314 . S
N135 C133 1.279 . S
C136 C133 1.358 . S
C136 C137 1.356 . S
C136 H173 0.930 . S
C137 C134 1.348 . S
C137 C136 1.356 . S
H138 C132 0.930 . S
H139 C133 0.930 . S
C140 N141 1.314 . S
C140 C142 1.353 . S
C140 H146 0.930 1_455 S
N141 Li91 1.990 1_455 S
N141 C140 1.314 . S
N141 C144 1.279 . S
C142 C140 1.353 . S
C142 C145 1.348 . S
C142 H174 0.929 . S
C143 C144 1.358 . S
C143 C145 1.356 . S
C143 H175 0.930 . S
C144 N141 1.279 . S
C144 C143 1.358 . S
C144 H147 0.930 . S
C145 C142 1.348 . S
C145 C143 1.356 . S
H146 C140 0.930 1_655 S
H147 C144 0.930 . S
O148 Li88 1.956 . S
O148 Li89 1.970 . S
O148 Li90 1.961 . S
O148 C92 1.325 . S
O149 Li88 1.970 . S
O149 Li89 1.956 . S
O149 Li91 1.961 . S
O149 C98 1.325 . S
O150 Li88 1.961 . S
O150 Li90 1.956 . S
O150 Li91 1.970 . S
O150 C120 1.325 . S
O151 Li89 1.961 . S
O151 Li90 1.970 . S
O151 Li91 1.956 . S
O151 C126 1.325 . S
H152 C94 0.929 . S
H153 C95 0.930 . S
H154 C96 0.930 . S
H155 C97 0.930 . S
H156 C99 0.930 . S
H157 C101 0.929 . S
H158 C102 0.930 . S
H159 C103 0.930 . S
H160 C106 0.930 . S
H161 C109 0.929 . S
H162 C114 0.929 . S
H163 C115 0.930 . S
H164 C122 0.929 . S
H165 C123 0.930 . S
H166 C124 0.930 . S
H167 C125 0.930 . S
H168 C127 0.929 . S
H169 C128 0.930 . S
H170 C129 0.930 . S
H171 C130 0.930 . S
H172 C134 0.929 . S
H173 C136 0.930 . S
H174 C142 0.929 . S
H175 C143 0.930 . S
Li176 N193 1.990 . S
Li176 O236 1.956 . S
Li176 O237 1.970 . S
Li176 O238 1.961 . S
Li177 N201 1.990 . S
Li177 O236 1.970 . S
Li177 O237 1.956 . S
Li177 O239 1.961 . S
Li178 N223 1.990 1_565 S
Li178 O236 1.961 . S
Li178 O238 1.956 . S
Li178 O239 1.970 . S
Li179 N229 1.990 . S
Li179 O237 1.961 . S
Li179 O238 1.970 . S
Li179 O239 1.956 . S
C180 C182 1.348 . S
C180 C183 1.356 . S
C180 O236 1.325 . S
N181 C184 1.314 . S
N181 C185 1.279 . S
C182 C180 1.348 . S
C182 C184 1.353 . S
C182 H240 0.929 . S
C183 C180 1.356 . S
C183 C185 1.358 . S
C183 H241 0.930 . S
C184 N181 1.314 . S
C184 C182 1.353 . S
C184 H242 0.930 . S
C185 N181 1.279 . S
C185 C183 1.358 . S
C185 H243 0.930 . S
C186 C189 1.348 . S
C186 C190 1.356 . S
C186 O237 1.325 . S
C187 N188 1.279 . S
C187 C190 1.358 . S
C187 H244 0.930 . S
N188 C187 1.279 . S
N188 C191 1.314 . S
C189 C186 1.348 . S
C189 C191 1.353 . S
C189 H245 0.929 . S
C190 C186 1.356 . S
C190 C187 1.358 . S
C190 H246 0.930 . S
C191 N188 1.314 . S
C191 C189 1.353 . S
C191 H247 0.930 . S
C192 N193 1.314 . S
C192 C197 1.353 . S
C192 H198 0.930 . S
N193 Li176 1.990 . S
N193 C192 1.314 . S
N193 C195 1.279 . S
C194 C195 1.358 . S
C194 C196 1.356 . S
C194 H248 0.930 . S
C195 N193 1.279 . S
C195 C194 1.358 . S
C195 H199 0.930 . S
C196 C194 1.356 . S
C196 C197 1.348 . S
C197 C192 1.353 . S
C197 C196 1.348 . S
C197 H249 0.929 . S
H198 C192 0.930 . S
H199 C195 0.930 . S
C200 N201 1.314 . S
C200 C202 1.353 . S
C200 H206 0.930 . S
N201 Li177 1.990 . S
N201 C200 1.314 . S
N201 C204 1.279 . S
C202 C200 1.353 . S
C202 C205 1.348 . S
C202 H250 0.929 . S
C203 C204 1.358 . S
C203 C205 1.356 . S
C203 H251 0.930 . S
C204 N201 1.279 . S
C204 C203 1.358 . S
C204 H207 0.930 . S
C205 C202 1.348 . S
C205 C203 1.356 . S
H206 C200 0.930 . S
H207 C204 0.930 . S
C208 C210 1.348 . S
C208 C211 1.356 1_565 S
C208 O238 1.325 . S
N209 C212 1.314 . S
N209 C213 1.279 . S
C210 C208 1.348 . S
C210 C212 1.353 1_565 S
C210 H252 0.929 . S
C211 C208 1.356 1_545 S
C211 C213 1.358 . S
C211 H253 0.930 . S
C212 N209 1.314 . S
C212 C210 1.353 1_545 S
C212 H254 0.930 . S
C213 N209 1.279 . S
C213 C211 1.358 . S
C213 H255 0.930 . S
C214 C215 1.348 . S
C214 C216 1.356 . S
C214 O239 1.325 . S
C215 C214 1.348 . S
C215 C217 1.353 . S
C215 H256 0.929 . S
C216 C214 1.356 . S
C216 C218 1.358 . S
C216 H257 0.930 . S
C217 C215 1.353 . S
C217 N219 1.314 . S
C217 H258 0.930 . S
C218 C216 1.358 . S
C218 N219 1.279 . S
C218 H259 0.930 . S
N219 C217 1.314 . S
N219 C218 1.279 . S
C220 C222 1.353 . S
C220 N223 1.314 . S
C220 H226 0.930 1_545 S
C221 N223 1.279 . S
C221 C224 1.358 . S
C221 H227 0.930 . S
C222 C220 1.353 . S
C222 C225 1.348 . S
C222 H260 0.929 . S
N223 Li178 1.990 1_545 S
N223 C220 1.314 . S
N223 C221 1.279 . S
C224 C221 1.358 . S
C224 C225 1.356 . S
C224 H261 0.930 . S
C225 C222 1.348 . S
C225 C224 1.356 . S
H226 C220 0.930 1_565 S
H227 C221 0.930 . S
C228 N229 1.314 . S
C228 C230 1.353 . S
C228 H234 0.930 . S
N229 Li179 1.990 . S
N229 C228 1.314 . S
N229 C232 1.279 . S
C230 C228 1.353 . S
C230 C233 1.348 . S
C230 H262 0.929 . S
C231 C232 1.358 . S
C231 C233 1.356 . S
C231 H263 0.930 . S
C232 N229 1.279 . S
C232 C231 1.358 . S
C232 H235 0.930 . S
C233 C230 1.348 . S
C233 C231 1.356 . S
H234 C228 0.930 . S
H235 C232 0.930 . S
O236 Li176 1.956 . S
O236 Li177 1.970 . S
O236 Li178 1.961 . S
O236 C180 1.325 . S
O237 Li176 1.970 . S
O237 Li177 1.956 . S
O237 Li179 1.961 . S
O237 C186 1.325 . S
O238 Li176 1.961 . S
O238 Li178 1.956 . S
O238 Li179 1.970 . S
O238 C208 1.325 . S
O239 Li177 1.961 . S
O239 Li178 1.970 . S
O239 Li179 1.956 . S
O239 C214 1.325 . S
H240 C182 0.929 . S
H241 C183 0.930 . S
H242 C184 0.930 . S
H243 C185 0.930 . S
H244 C187 0.930 . S
H245 C189 0.929 . S
H246 C190 0.930 . S
H247 C191 0.930 . S
H248 C194 0.930 . S
H249 C197 0.929 . S
H250 C202 0.929 . S
H251 C203 0.930 . S
H252 C210 0.929 . S
H253 C211 0.930 . S
H254 C212 0.930 . S
H255 C213 0.930 . S
H256 C215 0.929 . S
H257 C216 0.930 . S
H258 C217 0.930 . S
H259 C218 0.930 . S
H260 C222 0.929 . S
H261 C224 0.930 . S
H262 C230 0.929 . S
H263 C231 0.930 . S
Li264 N281 1.990 . S
Li264 O324 1.956 . S
Li264 O325 1.970 . S
Li264 O326 1.961 . S
Li265 N289 1.990 . S
Li265 O324 1.970 . S
Li265 O325 1.956 . S
Li265 O327 1.961 . S
Li266 N311 1.990 . S
Li266 O324 1.961 . S
Li266 O326 1.956 . S
Li266 O327 1.970 . S
Li267 N317 1.990 . S
Li267 O325 1.961 . S
Li267 O326 1.970 . S
Li267 O327 1.956 . S
C268 C270 1.348 . S
C268 C271 1.356 . S
C268 O324 1.325 . S
N269 C272 1.314 . S
N269 C273 1.279 . S
C270 C268 1.348 . S
C270 C272 1.353 . S
C270 H328 0.929 . S
C271 C268 1.356 . S
C271 C273 1.358 . S
C271 H329 0.930 . S
C272 N269 1.314 . S
C272 C270 1.353 . S
C272 H330 0.930 . S
C273 N269 1.279 . S
C273 C271 1.358 . S
C273 H331 0.930 . S
C274 C277 1.348 . S
C274 C278 1.356 . S
C274 O325 1.325 . S
C275 N276 1.279 . S
C275 C278 1.358 . S
C275 H332 0.930 . S
N276 C275 1.279 . S
N276 C279 1.314 . S
C277 C274 1.348 . S
C277 C279 1.353 . S
C277 H333 0.929 . S
C278 C274 1.356 . S
C278 C275 1.358 . S
C278 H334 0.930 . S
C279 N276 1.314 . S
C279 C277 1.353 . S
C279 H335 0.930 . S
C280 N281 1.314 . S
C280 C285 1.353 . S
C280 H286 0.930 . S
N281 Li264 1.990 . S
N281 C280 1.314 . S
N281 C283 1.279 . S
C282 C283 1.358 . S
C282 C284 1.356 . S
C282 H336 0.930 . S
C283 N281 1.279 . S
C283 C282 1.358 . S
C283 H287 0.930 . S
C284 C282 1.356 . S
C284 C285 1.348 . S
C285 C280 1.353 . S
C285 C284 1.348 . S
C285 H337 0.929 . S
H286 C280 0.930 . S
H287 C283 0.930 . S
C288 N289 1.314 . S
C288 C290 1.353 . S
C288 H294 0.930 . S
N289 Li265 1.990 . S
N289 C288 1.314 . S
N289 C292 1.279 . S
C290 C288 1.353 . S
C290 C293 1.348 . S
C290 H338 0.929 . S
C291 C292 1.358 . S
C291 C293 1.356 . S
C291 H339 0.930 . S
C292 N289 1.279 . S
C292 C291 1.358 . S
C292 H295 0.930 . S
C293 C290 1.348 . S
C293 C291 1.356 . S
H294 C288 0.930 . S
H295 C292 0.930 . S
C296 C298 1.348 . S
C296 C299 1.356 . S
C296 O326 1.325 . S
N297 C300 1.314 . S
N297 C301 1.279 . S
C298 C296 1.348 . S
C298 C300 1.353 . S
C298 H340 0.929 . S
C299 C296 1.356 . S
C299 C301 1.358 . S
C299 H341 0.930 . S
C300 N297 1.314 . S
C300 C298 1.353 . S
C300 H342 0.930 . S
C301 N297 1.279 . S
C301 C299 1.358 . S
C301 H343 0.930 . S
C302 C303 1.348 . S
C302 C304 1.356 . S
C302 O327 1.325 . S
C303 C302 1.348 . S
C303 C305 1.353 . S
C303 H344 0.929 . S
C304 C302 1.356 . S
C304 C306 1.358 . S
C304 H345 0.930 . S
C305 C303 1.353 . S
C305 N307 1.314 . S
C305 H346 0.930 . S
C306 C304 1.358 . S
C306 N307 1.279 . S
C306 H347 0.930 . S
N307 C305 1.314 . S
N307 C306 1.279 . S
C308 C310 1.353 . S
C308 N311 1.314 . S
C308 H314 0.930 . S
C309 N311 1.279 . S
C309 C312 1.358 . S
C309 H315 0.930 . S
C310 C308 1.353 . S
C310 C313 1.348 . S
C310 H348 0.929 . S
N311 Li266 1.990 . S
N311 C308 1.314 . S
N311 C309 1.279 . S
C312 C309 1.358 . S
C312 C313 1.356 . S
C312 H349 0.930 . S
C313 C310 1.348 . S
C313 C312 1.356 . S
H314 C308 0.930 . S
H315 C309 0.930 . S
C316 N317 1.314 . S
C316 C318 1.353 . S
C316 H322 0.930 . S
N317 Li267 1.990 . S
N317 C316 1.314 . S
N317 C320 1.279 . S
C318 C316 1.353 . S
C318 C321 1.348 . S
C318 H350 0.929 . S
C319 C320 1.358 . S
C319 C321 1.356 . S
C319 H351 0.930 . S
C320 N317 1.279 . S
C320 C319 1.358 . S
C320 H323 0.930 . S
C321 C318 1.348 . S
C321 C319 1.356 . S
H322 C316 0.930 . S
H323 C320 0.930 . S
O324 Li264 1.956 . S
O324 Li265 1.970 . S
O324 Li266 1.961 . S
O324 C268 1.325 . S
O325 Li264 1.970 . S
O325 Li265 1.956 . S
O325 Li267 1.961 . S
O325 C274 1.325 . S
O326 Li264 1.961 . S
O326 Li266 1.956 . S
O326 Li267 1.970 . S
O326 C296 1.325 . S
O327 Li265 1.961 . S
O327 Li266 1.970 . S
O327 Li267 1.956 . S
O327 C302 1.325 . S
H328 C270 0.929 . S
H329 C271 0.930 . S
H330 C272 0.930 . S
H331 C273 0.930 . S
H332 C275 0.930 . S
H333 C277 0.929 . S
H334 C278 0.930 . S
H335 C279 0.930 . S
H336 C282 0.930 . S
H337 C285 0.929 . S
H338 C290 0.929 . S
H339 C291 0.930 . S
H340 C298 0.929 . S
H341 C299 0.930 . S
H342 C300 0.930 . S
H343 C301 0.930 . S
H344 C303 0.929 . S
H345 C304 0.930 . S
H346 C305 0.930 . S
H347 C306 0.930 . S
H348 C310 0.929 . S
H349 C312 0.930 . S
H350 C318 0.929 . S
H351 C319 0.930 . S
Li352 N369 1.990 . S
Li352 O412 1.956 . S
Li352 O413 1.970 . S
Li352 O414 1.961 . S
Li353 N377 1.990 . S
Li353 O412 1.970 . S
Li353 O413 1.956 . S
Li353 O415 1.961 . S
Li354 N399 1.990 . S
Li354 O412 1.961 . S
Li354 O414 1.956 . S
Li354 O415 1.970 . S
Li355 N405 1.990 1_455 S
Li355 O413 1.961 . S
Li355 O414 1.970 . S
Li355 O415 1.956 . S
C356 C358 1.348 . S
C356 C359 1.356 . S
C356 O412 1.325 . S
N357 C360 1.314 . S
N357 C361 1.279 . S
C358 C356 1.348 . S
C358 C360 1.353 . S
C358 H416 0.929 . S
C359 C356 1.356 . S
C359 C361 1.358 . S
C359 H417 0.930 . S
C360 N357 1.314 . S
C360 C358 1.353 . S
C360 H418 0.930 . S
C361 N357 1.279 . S
C361 C359 1.358 . S
C361 H419 0.930 . S
C362 C365 1.348 . S
C362 C366 1.356 . S
C362 O413 1.325 . S
C363 N364 1.279 . S
C363 C366 1.358 . S
C363 H420 0.930 . S
N364 C363 1.279 . S
N364 C367 1.314 . S
C365 C362 1.348 . S
C365 C367 1.353 . S
C365 H421 0.929 . S
C366 C362 1.356 . S
C366 C363 1.358 . S
C366 H422 0.930 . S
C367 N364 1.314 . S
C367 C365 1.353 . S
C367 H423 0.930 . S
C368 N369 1.314 . S
C368 C373 1.353 . S
C368 H374 0.930 . S
N369 Li352 1.990 . S
N369 C368 1.314 . S
N369 C371 1.279 . S
C370 C371 1.358 . S
C370 C372 1.356 . S
C370 H424 0.930 . S
C371 N369 1.279 . S
C371 C370 1.358 . S
C371 H375 0.930 . S
C372 C370 1.356 . S
C372 C373 1.348 . S
C373 C368 1.353 . S
C373 C372 1.348 . S
C373 H425 0.929 . S
H374 C368 0.930 . S
H375 C371 0.930 . S
C376 N377 1.314 . S
C376 C378 1.353 . S
C376 H382 0.930 . S
N377 Li353 1.990 . S
N377 C376 1.314 . S
N377 C380 1.279 . S
C378 C376 1.353 . S
C378 C381 1.348 . S
C378 H426 0.929 . S
C379 C380 1.358 . S
C379 C381 1.356 . S
C379 H427 0.930 . S
C380 N377 1.279 . S
C380 C379 1.358 . S
C380 H383 0.930 . S
C381 C378 1.348 . S
C381 C379 1.356 . S
H382 C376 0.930 . S
H383 C380 0.930 . S
C384 C386 1.348 . S
C384 C387 1.356 . S
C384 O414 1.325 . S
N385 C388 1.314 . S
N385 C389 1.279 . S
C386 C384 1.348 . S
C386 C388 1.353 . S
C386 H428 0.929 . S
C387 C384 1.356 . S
C387 C389 1.358 . S
C387 H429 0.930 . S
C388 N385 1.314 . S
C388 C386 1.353 . S
C388 H430 0.930 . S
C389 N385 1.279 . S
C389 C387 1.358 . S
C389 H431 0.930 . S
C390 C391 1.348 . S
C390 C392 1.356 1_455 S
C390 O415 1.325 . S
C391 C390 1.348 . S
C391 C393 1.353 1_455 S
C391 H432 0.929 . S
C392 C390 1.356 1_655 S
C392 C394 1.358 . S
C392 H433 0.930 . S
C393 C391 1.353 1_655 S
C393 N395 1.314 . S
C393 H434 0.930 . S
C394 C392 1.358 . S
C394 N395 1.279 . S
C394 H435 0.930 . S
N395 C393 1.314 . S
N395 C394 1.279 . S
C396 C398 1.353 . S
C396 N399 1.314 . S
C396 H402 0.930 . S
C397 N399 1.279 . S
C397 C400 1.358 . S
C397 H403 0.930 . S
C398 C396 1.353 . S
C398 C401 1.348 . S
C398 H436 0.929 . S
N399 Li354 1.990 . S
N399 C396 1.314 . S
N399 C397 1.279 . S
C400 C397 1.358 . S
C400 C401 1.356 . S
C400 H437 0.930 . S
C401 C398 1.348 . S
C401 C400 1.356 . S
H402 C396 0.930 . S
H403 C397 0.930 . S
C404 N405 1.314 . S
C404 C406 1.353 . S
C404 H410 0.930 1_655 S
N405 Li355 1.990 1_655 S
N405 C404 1.314 . S
N405 C408 1.279 . S
C406 C404 1.353 . S
C406 C409 1.348 . S
C406 H438 0.929 . S
C407 C408 1.358 . S
C407 C409 1.356 . S
C407 H439 0.930 . S
C408 N405 1.279 . S
C408 C407 1.358 . S
C408 H411 0.930 . S
C409 C406 1.348 . S
C409 C407 1.356 . S
H410 C404 0.930 1_455 S
H411 C408 0.930 . S
O412 Li352 1.956 . S
O412 Li353 1.970 . S
O412 Li354 1.961 . S
O412 C356 1.325 . S
O413 Li352 1.970 . S
O413 Li353 1.956 . S
O413 Li355 1.961 . S
O413 C362 1.325 . S
O414 Li352 1.961 . S
O414 Li354 1.956 . S
O414 Li355 1.970 . S
O414 C384 1.325 . S
O415 Li353 1.961 . S
O415 Li354 1.970 . S
O415 Li355 1.956 . S
O415 C390 1.325 . S
H416 C358 0.929 . S
H417 C359 0.930 . S
H418 C360 0.930 . S
H419 C361 0.930 . S
H420 C363 0.930 . S
H421 C365 0.929 . S
H422 C366 0.930 . S
H423 C367 0.930 . S
H424 C370 0.930 . S
H425 C373 0.929 . S
H426 C378 0.929 . S
H427 C379 0.930 . S
H428 C386 0.929 . S
H429 C387 0.930 . S
H430 C388 0.930 . S
H431 C389 0.930 . S
H432 C391 0.929 . S
H433 C392 0.930 . S
H434 C393 0.930 . S
H435 C394 0.930 . S
H436 C398 0.929 . S
H437 C400 0.930 . S
H438 C406 0.929 . S
H439 C407 0.930 . S
Li440 N457 1.990 . S
Li440 O500 1.956 . S
Li440 O501 1.970 . S
Li440 O502 1.961 . S
Li441 N465 1.990 . S
Li441 O500 1.970 . S
Li441 O501 1.956 . S
Li441 O503 1.961 . S
Li442 N487 1.990 1_545 S
Li442 O500 1.961 . S
Li442 O502 1.956 . S
Li442 O503 1.970 . S
Li443 N493 1.990 . S
Li443 O501 1.961 . S
Li443 O502 1.970 . S
Li443 O503 1.956 . S
C444 C446 1.348 . S
C444 C447 1.356 . S
C444 O500 1.325 . S
N445 C448 1.314 . S
N445 C449 1.279 . S
C446 C444 1.348 . S
C446 C448 1.353 . S
C446 H504 0.929 . S
C447 C444 1.356 . S
C447 C449 1.358 . S
C447 H505 0.930 . S
C448 N445 1.314 . S
C448 C446 1.353 . S
C448 H506 0.930 . S
C449 N445 1.279 . S
C449 C447 1.358 . S
C449 H507 0.930 . S
C450 C453 1.348 . S
C450 C454 1.356 . S
C450 O501 1.325 . S
C451 N452 1.279 . S
C451 C454 1.358 . S
C451 H508 0.930 . S
N452 C451 1.279 . S
N452 C455 1.314 . S
C453 C450 1.348 . S
C453 C455 1.353 . S
C453 H509 0.929 . S
C454 C450 1.356 . S
C454 C451 1.358 . S
C454 H510 0.930 . S
C455 N452 1.314 . S
C455 C453 1.353 . S
C455 H511 0.930 . S
C456 N457 1.314 . S
C456 C461 1.353 . S
C456 H462 0.930 . S
N457 Li440 1.990 . S
N457 C456 1.314 . S
N457 C459 1.279 . S
C458 C459 1.358 . S
C458 C460 1.356 . S
C458 H512 0.930 . S
C459 N457 1.279 . S
C459 C458 1.358 . S
C459 H463 0.930 . S
C460 C458 1.356 . S
C460 C461 1.348 . S
C461 C456 1.353 . S
C461 C460 1.348 . S
C461 H513 0.929 . S
H462 C456 0.930 . S
H463 C459 0.930 . S
C464 N465 1.314 . S
C464 C466 1.353 . S
C464 H470 0.930 . S
N465 Li441 1.990 . S
N465 C464 1.314 . S
N465 C468 1.279 . S
C466 C464 1.353 . S
C466 C469 1.348 . S
C466 H514 0.929 . S
C467 C468 1.358 . S
C467 C469 1.356 . S
C467 H515 0.930 . S
C468 N465 1.279 . S
C468 C467 1.358 . S
C468 H471 0.930 . S
C469 C466 1.348 . S
C469 C467 1.356 . S
H470 C464 0.930 . S
H471 C468 0.930 . S
C472 C474 1.348 . S
C472 C475 1.356 1_545 S
C472 O502 1.325 . S
N473 C476 1.314 . S
N473 C477 1.279 . S
C474 C472 1.348 . S
C474 C476 1.353 1_545 S
C474 H516 0.929 . S
C475 C472 1.356 1_565 S
C475 C477 1.358 . S
C475 H517 0.930 . S
C476 N473 1.314 . S
C476 C474 1.353 1_565 S
C476 H518 0.930 . S
C477 N473 1.279 . S
C477 C475 1.358 . S
C477 H519 0.930 . S
C478 C479 1.348 . S
C478 C480 1.356 . S
C478 O503 1.325 . S
C479 C478 1.348 . S
C479 C481 1.353 . S
C479 H520 0.929 . S
C480 C478 1.356 . S
C480 C482 1.358 . S
C480 H521 0.930 . S
C481 C479 1.353 . S
C481 N483 1.314 . S
C481 H522 0.930 . S
C482 C480 1.358 . S
C482 N483 1.279 . S
C482 H523 0.930 . S
N483 C481 1.314 . S
N483 C482 1.279 . S
C484 C486 1.353 . S
C484 N487 1.314 . S
C484 H490 0.930 1_565 S
C485 N487 1.279 . S
C485 C488 1.358 . S
C485 H491 0.930 . S
C486 C484 1.353 . S
C486 C489 1.348 . S
C486 H524 0.929 . S
N487 Li442 1.990 1_565 S
N487 C484 1.314 . S
N487 C485 1.279 . S
C488 C485 1.358 . S
C488 C489 1.356 . S
C488 H525 0.930 . S
C489 C486 1.348 . S
C489 C488 1.356 . S
H490 C484 0.930 1_545 S
H491 C485 0.930 . S
C492 N493 1.314 . S
C492 C494 1.353 . S
C492 H498 0.930 . S
N493 Li443 1.990 . S
N493 C492 1.314 . S
N493 C496 1.279 . S
C494 C492 1.353 . S
C494 C497 1.348 . S
C494 H526 0.929 . S
C495 C496 1.358 . S
C495 C497 1.356 . S
C495 H527 0.930 . S
C496 N493 1.279 . S
C496 C495 1.358 . S
C496 H499 0.930 . S
C497 C494 1.348 . S
C497 C495 1.356 . S
H498 C492 0.930 . S
H499 C496 0.930 . S
O500 Li440 1.956 . S
O500 Li441 1.970 . S
O500 Li442 1.961 . S
O500 C444 1.325 . S
O501 Li440 1.970 . S
O501 Li441 1.956 . S
O501 Li443 1.961 . S
O501 C450 1.325 . S
O502 Li440 1.961 . S
O502 Li442 1.956 . S
O502 Li443 1.970 . S
O502 C472 1.325 . S
O503 Li441 1.961 . S
O503 Li442 1.970 . S
O503 Li443 1.956 . S
O503 C478 1.325 . S
H504 C446 0.929 . S
H505 C447 0.930 . S
H506 C448 0.930 . S
H507 C449 0.930 . S
H508 C451 0.930 . S
H509 C453 0.929 . S
H510 C454 0.930 . S
H511 C455 0.930 . S
H512 C458 0.930 . S
H513 C461 0.929 . S
H514 C466 0.929 . S
H515 C467 0.930 . S
H516 C474 0.929 . S
H517 C475 0.930 . S
H518 C476 0.930 . S
H519 C477 0.930 . S
H520 C479 0.929 . S
H521 C480 0.930 . S
H522 C481 0.930 . S
H523 C482 0.930 . S
H524 C486 0.929 . S
H525 C488 0.930 . S
H526 C494 0.929 . S
H527 C495 0.930 . S
Li528 N545 1.990 . S
Li528 O588 1.956 . S
Li528 O589 1.970 . S
Li528 O590 1.961 . S
Li529 N553 1.990 . S
Li529 O588 1.970 . S
Li529 O589 1.956 . S
Li529 O591 1.961 . S
Li530 N575 1.990 . S
Li530 O588 1.961 . S
Li530 O590 1.956 . S
Li530 O591 1.970 . S
Li531 N581 1.990 . S
Li531 O589 1.961 . S
Li531 O590 1.970 . S
Li531 O591 1.956 . S
C532 C534 1.348 . S
C532 C535 1.356 . S
C532 O588 1.325 . S
N533 C536 1.314 . S
N533 C537 1.279 . S
C534 C532 1.348 . S
C534 C536 1.353 . S
C534 H592 0.929 . S
C535 C532 1.356 . S
C535 C537 1.358 . S
C535 H593 0.930 . S
C536 N533 1.314 . S
C536 C534 1.353 . S
C536 H594 0.930 . S
C537 N533 1.279 . S
C537 C535 1.358 . S
C537 H595 0.930 . S
C538 C541 1.348 . S
C538 C542 1.356 . S
C538 O589 1.325 . S
C539 N540 1.279 . S
C539 C542 1.358 . S
C539 H596 0.930 . S
N540 C539 1.279 . S
N540 C543 1.314 . S
C541 C538 1.348 . S
C541 C543 1.353 . S
C541 H597 0.929 . S
C542 C538 1.356 . S
C542 C539 1.358 . S
C542 H598 0.930 . S
C543 N540 1.314 . S
C543 C541 1.353 . S
C543 H599 0.930 . S
C544 N545 1.314 . S
C544 C549 1.353 . S
C544 H550 0.930 . S
N545 Li528 1.990 . S
N545 C544 1.314 . S
N545 C547 1.279 . S
C546 C547 1.358 . S
C546 C548 1.356 . S
C546 H600 0.930 . S
C547 N545 1.279 . S
C547 C546 1.358 . S
C547 H551 0.930 . S
C548 C546 1.356 . S
C548 C549 1.348 . S
C549 C544 1.353 . S
C549 C548 1.348 . S
C549 H601 0.929 . S
H550 C544 0.930 . S
H551 C547 0.930 . S
C552 N553 1.314 . S
C552 C554 1.353 . S
C552 H558 0.930 . S
N553 Li529 1.990 . S
N553 C552 1.314 . S
N553 C556 1.279 . S
C554 C552 1.353 . S
C554 C557 1.348 . S
C554 H602 0.929 . S
C555 C556 1.358 . S
C555 C557 1.356 . S
C555 H603 0.930 . S
C556 N553 1.279 . S
C556 C555 1.358 . S
C556 H559 0.930 . S
C557 C554 1.348 . S
C557 C555 1.356 . S
H558 C552 0.930 . S
H559 C556 0.930 . S
C560 C562 1.348 . S
C560 C563 1.356 . S
C560 O590 1.325 . S
N561 C564 1.314 . S
N561 C565 1.279 . S
C562 C560 1.348 . S
C562 C564 1.353 . S
C562 H604 0.929 . S
C563 C560 1.356 . S
C563 C565 1.358 . S
C563 H605 0.930 . S
C564 N561 1.314 . S
C564 C562 1.353 . S
C564 H606 0.930 . S
C565 N561 1.279 . S
C565 C563 1.358 . S
C565 H607 0.930 . S
C566 C567 1.348 . S
C566 C568 1.356 . S
C566 O591 1.325 . S
C567 C566 1.348 . S
C567 C569 1.353 . S
C567 H608 0.929 . S
C568 C566 1.356 . S
C568 C570 1.358 . S
C568 H609 0.930 . S
C569 C567 1.353 . S
C569 N571 1.314 . S
C569 H610 0.930 . S
C570 C568 1.358 . S
C570 N571 1.279 . S
C570 H611 0.930 . S
N571 C569 1.314 . S
N571 C570 1.279 . S
C572 C574 1.353 . S
C572 N575 1.314 . S
C572 H578 0.930 . S
C573 N575 1.279 . S
C573 C576 1.358 . S
C573 H579 0.930 . S
C574 C572 1.353 . S
C574 C577 1.348 . S
C574 H612 0.929 . S
N575 Li530 1.990 . S
N575 C572 1.314 . S
N575 C573 1.279 . S
C576 C573 1.358 . S
C576 C577 1.356 . S
C576 H613 0.930 . S
C577 C574 1.348 . S
C577 C576 1.356 . S
H578 C572 0.930 . S
H579 C573 0.930 . S
C580 N581 1.314 . S
C580 C582 1.353 . S
C580 H586 0.930 . S
N581 Li531 1.990 . S
N581 C580 1.314 . S
N581 C584 1.279 . S
C582 C580 1.353 . S
C582 C585 1.348 . S
C582 H614 0.929 . S
C583 C584 1.358 . S
C583 C585 1.356 . S
C583 H615 0.930 . S
C584 N581 1.279 . S
C584 C583 1.358 . S
C584 H587 0.930 . S
C585 C582 1.348 . S
C585 C583 1.356 . S
H586 C580 0.930 . S
H587 C584 0.930 . S
O588 Li528 1.956 . S
O588 Li529 1.970 . S
O588 Li530 1.961 . S
O588 C532 1.325 . S
O589 Li528 1.970 . S
O589 Li529 1.956 . S
O589 Li531 1.961 . S
O589 C538 1.325 . S
O590 Li528 1.961 . S
O590 Li530 1.956 . S
O590 Li531 1.970 . S
O590 C560 1.325 . S
O591 Li529 1.961 . S
O591 Li530 1.970 . S
O591 Li531 1.956 . S
O591 C566 1.325 . S
H592 C534 0.929 . S
H593 C535 0.930 . S
H594 C536 0.930 . S
H595 C537 0.930 . S
H596 C539 0.930 . S
H597 C541 0.929 . S
H598 C542 0.930 . S
H599 C543 0.930 . S
H600 C546 0.930 . S
H601 C549 0.929 . S
H602 C554 0.929 . S
H603 C555 0.930 . S
H604 C562 0.929 . S
H605 C563 0.930 . S
H606 C564 0.930 . S
H607 C565 0.930 . S
H608 C567 0.929 . S
H609 C568 0.930 . S
H610 C569 0.930 . S
H611 C570 0.930 . S
H612 C574 0.929 . S
H613 C576 0.930 . S
H614 C582 0.929 . S
H615 C583 0.930 . S
Li616 N633 1.990 1_655 S
Li616 O676 1.956 . S
Li616 O677 1.970 . S
Li616 O678 1.961 . S
Li617 N641 1.990 . S
Li617 O676 1.970 . S
Li617 O677 1.956 . S
Li617 O679 1.961 . S
Li618 N663 1.990 . S
Li618 O676 1.961 . S
Li618 O678 1.956 . S
Li618 O679 1.970 . S
Li619 N669 1.990 . S
Li619 O677 1.961 . S
Li619 O678 1.970 . S
Li619 O679 1.956 . S
C620 C622 1.348 . S
C620 C623 1.356 1_655 S
C620 O676 1.325 . S
N621 C624 1.314 . S
N621 C625 1.279 . S
C622 C620 1.348 . S
C622 C624 1.353 1_655 S
C622 H680 0.929 . S
C623 C620 1.356 1_455 S
C623 C625 1.358 . S
C623 H681 0.930 . S
C624 N621 1.314 . S
C624 C622 1.353 1_455 S
C624 H682 0.930 . S
C625 N621 1.279 . S
C625 C623 1.358 . S
C625 H683 0.930 . S
C626 C629 1.348 . S
C626 C630 1.356 . S
C626 O677 1.325 . S
C627 N628 1.279 . S
C627 C630 1.358 . S
C627 H684 0.930 . S
N628 C627 1.279 . S
N628 C631 1.314 . S
C629 C626 1.348 . S
C629 C631 1.353 . S
C629 H685 0.929 . S
C630 C626 1.356 . S
C630 C627 1.358 . S
C630 H686 0.930 . S
C631 N628 1.314 . S
C631 C629 1.353 . S
C631 H687 0.930 . S
C632 N633 1.314 . S
C632 C637 1.353 . S
C632 H638 0.930 1_455 S
N633 Li616 1.990 1_455 S
N633 C632 1.314 . S
N633 C635 1.279 . S
C634 C635 1.358 . S
C634 C636 1.356 . S
C634 H688 0.930 . S
C635 N633 1.279 . S
C635 C634 1.358 . S
C635 H639 0.930 . S
C636 C634 1.356 . S
C636 C637 1.348 . S
C637 C632 1.353 . S
C637 C636 1.348 . S
C637 H689 0.929 . S
H638 C632 0.930 1_655 S
H639 C635 0.930 . S
C640 N641 1.314 . S
C640 C642 1.353 . S
C640 H646 0.930 . S
N641 Li617 1.990 . S
N641 C640 1.314 . S
N641 C644 1.279 . S
C642 C640 1.353 . S
C642 C645 1.348 . S
C642 H690 0.929 . S
C643 C644 1.358 . S
C643 C645 1.356 . S
C643 H691 0.930 . S
C644 N641 1.279 . S
C644 C643 1.358 . S
C644 H647 0.930 . S
C645 C642 1.348 . S
C645 C643 1.356 . S
H646 C640 0.930 . S
H647 C644 0.930 . S
C648 C650 1.348 . S
C648 C651 1.356 . S
C648 O678 1.325 . S
N649 C652 1.314 . S
N649 C653 1.279 . S
C650 C648 1.348 . S
C650 C652 1.353 . S
C650 H692 0.929 . S
C651 C648 1.356 . S
C651 C653 1.358 . S
C651 H693 0.930 . S
C652 N649 1.314 . S
C652 C650 1.353 . S
C652 H694 0.930 . S
C653 N649 1.279 . S
C653 C651 1.358 . S
C653 H695 0.930 . S
C654 C655 1.348 . S
C654 C656 1.356 . S
C654 O679 1.325 . S
C655 C654 1.348 . S
C655 C657 1.353 . S
C655 H696 0.929 . S
C656 C654 1.356 . S
C656 C658 1.358 . S
C656 H697 0.930 . S
C657 C655 1.353 . S
C657 N659 1.314 . S
C657 H698 0.930 . S
C658 C656 1.358 . S
C658 N659 1.279 . S
C658 H699 0.930 . S
N659 C657 1.314 . S
N659 C658 1.279 . S
C660 C662 1.353 . S
C660 N663 1.314 . S
C660 H666 0.930 . S
C661 N663 1.279 . S
C661 C664 1.358 . S
C661 H667 0.930 . S
C662 C660 1.353 . S
C662 C665 1.348 . S
C662 H700 0.929 . S
N663 Li618 1.990 . S
N663 C660 1.314 . S
N663 C661 1.279 . S
C664 C661 1.358 . S
C664 C665 1.356 . S
C664 H701 0.930 . S
C665 C662 1.348 . S
C665 C664 1.356 . S
H666 C660 0.930 . S
H667 C661 0.930 . S
C668 N669 1.314 . S
C668 C670 1.353 . S
C668 H674 0.930 . S
N669 Li619 1.990 . S
N669 C668 1.314 . S
N669 C672 1.279 . S
C670 C668 1.353 . S
C670 C673 1.348 . S
C670 H702 0.929 . S
C671 C672 1.358 . S
C671 C673 1.356 . S
C671 H703 0.930 . S
C672 N669 1.279 . S
C672 C671 1.358 . S
C672 H675 0.930 . S
C673 C670 1.348 . S
C673 C671 1.356 . S
H674 C668 0.930 . S
H675 C672 0.930 . S
O676 Li616 1.956 . S
O676 Li617 1.970 . S
O676 Li618 1.961 . S
O676 C620 1.325 . S
O677 Li616 1.970 . S
O677 Li617 1.956 . S
O677 Li619 1.961 . S
O677 C626 1.325 . S
O678 Li616 1.961 . S
O678 Li618 1.956 . S
O678 Li619 1.970 . S
O678 C648 1.325 . S
O679 Li617 1.961 . S
O679 Li618 1.970 . S
O679 Li619 1.956 . S
O679 C654 1.325 . S
H680 C622 0.929 . S
H681 C623 0.930 . S
H682 C624 0.930 . S
H683 C625 0.930 . S
H684 C627 0.930 . S
H685 C629 0.929 . S
H686 C630 0.930 . S
H687 C631 0.930 . S
H688 C634 0.930 . S
H689 C637 0.929 . S
H690 C642 0.929 . S
H691 C643 0.930 . S
H692 C650 0.929 . S
H693 C651 0.930 . S
H694 C652 0.930 . S
H695 C653 0.930 . S
H696 C655 0.929 . S
H697 C656 0.930 . S
H698 C657 0.930 . S
H699 C658 0.930 . S
H700 C662 0.929 . S
H701 C664 0.930 . S
H702 C670 0.929 . S
H703 C671 0.930 . S
Li704 N721 1.990 1_565 S
Li704 O764 1.956 . S
Li704 O765 1.970 . S
Li704 O766 1.961 . S
Li705 N729 1.990 . S
Li705 O764 1.970 . S
Li705 O765 1.956 . S
Li705 O767 1.961 . S
Li706 N751 1.990 . S
Li706 O764 1.961 . S
Li706 O766 1.956 . S
Li706 O767 1.970 . S
Li707 N757 1.990 . S
Li707 O765 1.961 . S
Li707 O766 1.970 . S
Li707 O767 1.956 . S
C708 C710 1.348 . S
C708 C711 1.356 1_565 S
C708 O764 1.325 . S
N709 C712 1.314 . S
N709 C713 1.279 . S
C710 C708 1.348 . S
C710 C712 1.353 1_565 S
C710 H768 0.929 . S
C711 C708 1.356 1_545 S
C711 C713 1.358 . S
C711 H769 0.930 . S
C712 N709 1.314 . S
C712 C710 1.353 1_545 S
C712 H770 0.930 . S
C713 N709 1.279 . S
C713 C711 1.358 . S
C713 H771 0.930 . S
C714 C717 1.348 . S
C714 C718 1.356 . S
C714 O765 1.325 . S
C715 N716 1.279 . S
C715 C718 1.358 . S
C715 H772 0.930 . S
N716 C715 1.279 . S
N716 C719 1.314 . S
C717 C714 1.348 . S
C717 C719 1.353 . S
C717 H773 0.929 . S
C718 C714 1.356 . S
C718 C715 1.358 . S
C718 H774 0.930 . S
C719 N716 1.314 . S
C719 C717 1.353 . S
C719 H775 0.930 . S
C720 N721 1.314 . S
C720 C725 1.353 . S
C720 H726 0.930 1_545 S
N721 Li704 1.990 1_545 S
N721 C720 1.314 . S
N721 C723 1.279 . S
C722 C723 1.358 . S
C722 C724 1.356 . S
C722 H776 0.930 . S
C723 N721 1.279 . S
C723 C722 1.358 . S
C723 H727 0.930 . S
C724 C722 1.356 . S
C724 C725 1.348 . S
C725 C720 1.353 . S
C725 C724 1.348 . S
C725 H777 0.929 . S
H726 C720 0.930 1_565 S
H727 C723 0.930 . S
C728 N729 1.314 . S
C728 C730 1.353 . S
C728 H734 0.930 . S
N729 Li705 1.990 . S
N729 C728 1.314 . S
N729 C732 1.279 . S
C730 C728 1.353 . S
C730 C733 1.348 . S
C730 H778 0.929 . S
C731 C732 1.358 . S
C731 C733 1.356 . S
C731 H779 0.930 . S
C732 N729 1.279 . S
C732 C731 1.358 . S
C732 H735 0.930 . S
C733 C730 1.348 . S
C733 C731 1.356 . S
H734 C728 0.930 . S
H735 C732 0.930 . S
C736 C738 1.348 . S
C736 C739 1.356 . S
C736 O766 1.325 . S
N737 C740 1.314 . S
N737 C741 1.279 . S
C738 C736 1.348 . S
C738 C740 1.353 . S
C738 H780 0.929 . S
C739 C736 1.356 . S
C739 C741 1.358 . S
C739 H781 0.930 . S
C740 N737 1.314 . S
C740 C738 1.353 . S
C740 H782 0.930 . S
C741 N737 1.279 . S
C741 C739 1.358 . S
C741 H783 0.930 . S
C742 C743 1.348 . S
C742 C744 1.356 . S
C742 O767 1.325 . S
C743 C742 1.348 . S
C743 C745 1.353 . S
C743 H784 0.929 . S
C744 C742 1.356 . S
C744 C746 1.358 . S
C744 H785 0.930 . S
C745 C743 1.353 . S
C745 N747 1.314 . S
C745 H786 0.930 . S
C746 C744 1.358 . S
C746 N747 1.279 . S
C746 H787 0.930 . S
N747 C745 1.314 . S
N747 C746 1.279 . S
C748 C750 1.353 . S
C748 N751 1.314 . S
C748 H754 0.930 . S
C749 N751 1.279 . S
C749 C752 1.358 . S
C749 H755 0.930 . S
C750 C748 1.353 . S
C750 C753 1.348 . S
C750 H788 0.929 . S
N751 Li706 1.990 . S
N751 C748 1.314 . S
N751 C749 1.279 . S
C752 C749 1.358 . S
C752 C753 1.356 . S
C752 H789 0.930 . S
C753 C750 1.348 . S
C753 C752 1.356 . S
H754 C748 0.930 . S
H755 C749 0.930 . S
C756 N757 1.314 . S
C756 C758 1.353 . S
C756 H762 0.930 . S
N757 Li707 1.990 . S
N757 C756 1.314 . S
N757 C760 1.279 . S
C758 C756 1.353 . S
C758 C761 1.348 . S
C758 H790 0.929 . S
C759 C760 1.358 . S
C759 C761 1.356 . S
C759 H791 0.930 . S
C760 N757 1.279 . S
C760 C759 1.358 . S
C760 H763 0.930 . S
C761 C758 1.348 . S
C761 C759 1.356 . S
H762 C756 0.930 . S
H763 C760 0.930 . S
O764 Li704 1.956 . S
O764 Li705 1.970 . S
O764 Li706 1.961 . S
O764 C708 1.325 . S
O765 Li704 1.970 . S
O765 Li705 1.956 . S
O765 Li707 1.961 . S
O765 C714 1.325 . S
O766 Li704 1.961 . S
O766 Li706 1.956 . S
O766 Li707 1.970 . S
O766 C736 1.325 . S
O767 Li705 1.961 . S
O767 Li706 1.970 . S
O767 Li707 1.956 . S
O767 C742 1.325 . S
H768 C710 0.929 . S
H769 C711 0.930 . S
H770 C712 0.930 . S
H771 C713 0.930 . S
H772 C715 0.930 . S
H773 C717 0.929 . S
H774 C718 0.930 . S
H775 C719 0.930 . S
H776 C722 0.930 . S
H777 C725 0.929 . S
H778 C730 0.929 . S
H779 C731 0.930 . S
H780 C738 0.929 . S
H781 C739 0.930 . S
H782 C740 0.930 . S
H783 C741 0.930 . S
H784 C743 0.929 . S
H785 C744 0.930 . S
H786 C745 0.930 . S
H787 C746 0.930 . S
H788 C750 0.929 . S
H789 C752 0.930 . S
H790 C758 0.929 . S
H791 C759 0.930 . S
Li792 N809 1.990 . S
Li792 O852 1.956 . S
Li792 O853 1.970 . S
Li792 O854 1.961 . S
Li793 N817 1.990 . S
Li793 O852 1.970 . S
Li793 O853 1.956 . S
Li793 O855 1.961 . S
Li794 N839 1.990 . S
Li794 O852 1.961 . S
Li794 O854 1.956 . S
Li794 O855 1.970 . S
Li795 N845 1.990 . S
Li795 O853 1.961 . S
Li795 O854 1.970 . S
Li795 O855 1.956 . S
C796 C798 1.348 . S
C796 C799 1.356 . S
C796 O852 1.325 . S
N797 C800 1.314 . S
N797 C801 1.279 . S
C798 C796 1.348 . S
C798 C800 1.353 . S
C798 H856 0.929 . S
C799 C796 1.356 . S
C799 C801 1.358 . S
C799 H857 0.930 . S
C800 N797 1.314 . S
C800 C798 1.353 . S
C800 H858 0.930 . S
C801 N797 1.279 . S
C801 C799 1.358 . S
C801 H859 0.930 . S
C802 C805 1.348 . S
C802 C806 1.356 . S
C802 O853 1.325 . S
C803 N804 1.279 . S
C803 C806 1.358 . S
C803 H860 0.930 . S
N804 C803 1.279 . S
N804 C807 1.314 . S
C805 C802 1.348 . S
C805 C807 1.353 . S
C805 H861 0.929 . S
C806 C802 1.356 . S
C806 C803 1.358 . S
C806 H862 0.930 . S
C807 N804 1.314 . S
C807 C805 1.353 . S
C807 H863 0.930 . S
C808 N809 1.314 . S
C808 C813 1.353 . S
C808 H814 0.930 . S
N809 Li792 1.990 . S
N809 C808 1.314 . S
N809 C811 1.279 . S
C810 C811 1.358 . S
C810 C812 1.356 . S
C810 H864 0.930 . S
C811 N809 1.279 . S
C811 C810 1.358 . S
C811 H815 0.930 . S
C812 C810 1.356 . S
C812 C813 1.348 . S
C813 C808 1.353 . S
C813 C812 1.348 . S
C813 H865 0.929 . S
H814 C808 0.930 . S
H815 C811 0.930 . S
C816 N817 1.314 . S
C816 C818 1.353 . S
C816 H822 0.930 . S
N817 Li793 1.990 . S
N817 C816 1.314 . S
N817 C820 1.279 . S
C818 C816 1.353 . S
C818 C821 1.348 . S
C818 H866 0.929 . S
C819 C820 1.358 . S
C819 C821 1.356 . S
C819 H867 0.930 . S
C820 N817 1.279 . S
C820 C819 1.358 . S
C820 H823 0.930 . S
C821 C818 1.348 . S
C821 C819 1.356 . S
H822 C816 0.930 . S
H823 C820 0.930 . S
C824 C826 1.348 . S
C824 C827 1.356 . S
C824 O854 1.325 . S
N825 C828 1.314 . S
N825 C829 1.279 . S
C826 C824 1.348 . S
C826 C828 1.353 . S
C826 H868 0.929 . S
C827 C824 1.356 . S
C827 C829 1.358 . S
C827 H869 0.930 . S
C828 N825 1.314 . S
C828 C826 1.353 . S
C828 H870 0.930 . S
C829 N825 1.279 . S
C829 C827 1.358 . S
C829 H871 0.930 . S
C830 C831 1.348 . S
C830 C832 1.356 . S
C830 O855 1.325 . S
C831 C830 1.348 . S
C831 C833 1.353 . S
C831 H872 0.929 . S
C832 C830 1.356 . S
C832 C834 1.358 . S
C832 H873 0.930 . S
C833 C831 1.353 . S
C833 N835 1.314 . S
C833 H874 0.930 . S
C834 C832 1.358 . S
C834 N835 1.279 . S
C834 H875 0.930 . S
N835 C833 1.314 . S
N835 C834 1.279 . S
C836 C838 1.353 . S
C836 N839 1.314 . S
C836 H842 0.930 . S
C837 N839 1.279 . S
C837 C840 1.358 . S
C837 H843 0.930 . S
C838 C836 1.353 . S
C838 C841 1.348 . S
C838 H876 0.929 . S
N839 Li794 1.990 . S
N839 C836 1.314 . S
N839 C837 1.279 . S
C840 C837 1.358 . S
C840 C841 1.356 . S
C840 H877 0.930 . S
C841 C838 1.348 . S
C841 C840 1.356 . S
H842 C836 0.930 . S
H843 C837 0.930 . S
C844 N845 1.314 . S
C844 C846 1.353 . S
C844 H850 0.930 . S
N845 Li795 1.990 . S
N845 C844 1.314 . S
N845 C848 1.279 . S
C846 C844 1.353 . S
C846 C849 1.348 . S
C846 H878 0.929 . S
C847 C848 1.358 . S
C847 C849 1.356 . S
C847 H879 0.930 . S
C848 N845 1.279 . S
C848 C847 1.358 . S
C848 H851 0.930 . S
C849 C846 1.348 . S
C849 C847 1.356 . S
H850 C844 0.930 . S
H851 C848 0.930 . S
O852 Li792 1.956 . S
O852 Li793 1.970 . S
O852 Li794 1.961 . S
O852 C796 1.325 . S
O853 Li792 1.970 . S
O853 Li793 1.956 . S
O853 Li795 1.961 . S
O853 C802 1.325 . S
O854 Li792 1.961 . S
O854 Li794 1.956 . S
O854 Li795 1.970 . S
O854 C824 1.325 . S
O855 Li793 1.961 . S
O855 Li794 1.970 . S
O855 Li795 1.956 . S
O855 C830 1.325 . S
H856 C798 0.929 . S
H857 C799 0.930 . S
H858 C800 0.930 . S
H859 C801 0.930 . S
H860 C803 0.930 . S
H861 C805 0.929 . S
H862 C806 0.930 . S
H863 C807 0.930 . S
H864 C810 0.930 . S
H865 C813 0.929 . S
H866 C818 0.929 . S
H867 C819 0.930 . S
H868 C826 0.929 . S
H869 C827 0.930 . S
H870 C828 0.930 . S
H871 C829 0.930 . S
H872 C831 0.929 . S
H873 C832 0.930 . S
H874 C833 0.930 . S
H875 C834 0.930 . S
H876 C838 0.929 . S
H877 C840 0.930 . S
H878 C846 0.929 . S
H879 C847 0.930 . S
Li880 N897 1.990 1_455 S
Li880 O940 1.956 . S
Li880 O941 1.970 . S
Li880 O942 1.961 . S
Li881 N905 1.990 . S
Li881 O940 1.970 . S
Li881 O941 1.956 . S
Li881 O943 1.961 . S
Li882 N927 1.990 . S
Li882 O940 1.961 . S
Li882 O942 1.956 . S
Li882 O943 1.970 . S
Li883 N933 1.990 . S
Li883 O941 1.961 . S
Li883 O942 1.970 . S
Li883 O943 1.956 . S
C884 C886 1.348 . S
C884 C887 1.356 1_455 S
C884 O940 1.325 . S
N885 C888 1.314 . S
N885 C889 1.279 . S
C886 C884 1.348 . S
C886 C888 1.353 1_455 S
C886 H944 0.929 . S
C887 C884 1.356 1_655 S
C887 C889 1.358 . S
C887 H945 0.930 . S
C888 N885 1.314 . S
C888 C886 1.353 1_655 S
C888 H946 0.930 . S
C889 N885 1.279 . S
C889 C887 1.358 . S
C889 H947 0.930 . S
C890 C893 1.348 . S
C890 C894 1.356 . S
C890 O941 1.325 . S
C891 N892 1.279 . S
C891 C894 1.358 . S
C891 H948 0.930 . S
N892 C891 1.279 . S
N892 C895 1.314 . S
C893 C890 1.348 . S
C893 C895 1.353 . S
C893 H949 0.929 . S
C894 C890 1.356 . S
C894 C891 1.358 . S
C894 H950 0.930 . S
C895 N892 1.314 . S
C895 C893 1.353 . S
C895 H951 0.930 . S
C896 N897 1.314 . S
C896 C901 1.353 . S
C896 H902 0.930 1_655 S
N897 Li880 1.990 1_655 S
N897 C896 1.314 . S
N897 C899 1.279 . S
C898 C899 1.358 . S
C898 C900 1.356 . S
C898 H952 0.930 . S
C899 N897 1.279 . S
C899 C898 1.358 . S
C899 H903 0.930 . S
C900 C898 1.356 . S
C900 C901 1.348 . S
C901 C896 1.353 . S
C901 C900 1.348 . S
C901 H953 0.929 . S
H902 C896 0.930 1_455 S
H903 C899 0.930 . S
C904 N905 1.314 . S
C904 C906 1.353 . S
C904 H910 0.930 . S
N905 Li881 1.990 . S
N905 C904 1.314 . S
N905 C908 1.279 . S
C906 C904 1.353 . S
C906 C909 1.348 . S
C906 H954 0.929 . S
C907 C908 1.358 . S
C907 C909 1.356 . S
C907 H955 0.930 . S
C908 N905 1.279 . S
C908 C907 1.358 . S
C908 H911 0.930 . S
C909 C906 1.348 . S
C909 C907 1.356 . S
H910 C904 0.930 . S
H911 C908 0.930 . S
C912 C914 1.348 . S
C912 C915 1.356 . S
C912 O942 1.325 . S
N913 C916 1.314 . S
N913 C917 1.279 . S
C914 C912 1.348 . S
C914 C916 1.353 . S
C914 H956 0.929 . S
C915 C912 1.356 . S
C915 C917 1.358 . S
C915 H957 0.930 . S
C916 N913 1.314 . S
C916 C914 1.353 . S
C916 H958 0.930 . S
C917 N913 1.279 . S
C917 C915 1.358 . S
C917 H959 0.930 . S
C918 C919 1.348 . S
C918 C920 1.356 . S
C918 O943 1.325 . S
C919 C918 1.348 . S
C919 C921 1.353 . S
C919 H960 0.929 . S
C920 C918 1.356 . S
C920 C922 1.358 . S
C920 H961 0.930 . S
C921 C919 1.353 . S
C921 N923 1.314 . S
C921 H962 0.930 . S
C922 C920 1.358 . S
C922 N923 1.279 . S
C922 H963 0.930 . S
N923 C921 1.314 . S
N923 C922 1.279 . S
C924 C926 1.353 . S
C924 N927 1.314 . S
C924 H930 0.930 . S
C925 N927 1.279 . S
C925 C928 1.358 . S
C925 H931 0.930 . S
C926 C924 1.353 . S
C926 C929 1.348 . S
C926 H964 0.929 . S
N927 Li882 1.990 . S
N927 C924 1.314 . S
N927 C925 1.279 . S
C928 C925 1.358 . S
C928 C929 1.356 . S
C928 H965 0.930 . S
C929 C926 1.348 . S
C929 C928 1.356 . S
H930 C924 0.930 . S
H931 C925 0.930 . S
C932 N933 1.314 . S
C932 C934 1.353 . S
C932 H938 0.930 . S
N933 Li883 1.990 . S
N933 C932 1.314 . S
N933 C936 1.279 . S
C934 C932 1.353 . S
C934 C937 1.348 . S
C934 H966 0.929 . S
C935 C936 1.358 . S
C935 C937 1.356 . S
C935 H967 0.930 . S
C936 N933 1.279 . S
C936 C935 1.358 . S
C936 H939 0.930 . S
C937 C934 1.348 . S
C937 C935 1.356 . S
H938 C932 0.930 . S
H939 C936 0.930 . S
O940 Li880 1.956 . S
O940 Li881 1.970 . S
O940 Li882 1.961 . S
O940 C884 1.325 . S
O941 Li880 1.970 . S
O941 Li881 1.956 . S
O941 Li883 1.961 . S
O941 C890 1.325 . S
O942 Li880 1.961 . S
O942 Li882 1.956 . S
O942 Li883 1.970 . S
O942 C912 1.325 . S
O943 Li881 1.961 . S
O943 Li882 1.970 . S
O943 Li883 1.956 . S
O943 C918 1.325 . S
H944 C886 0.929 . S
H945 C887 0.930 . S
H946 C888 0.930 . S
H947 C889 0.930 . S
H948 C891 0.930 . S
H949 C893 0.929 . S
H950 C894 0.930 . S
H951 C895 0.930 . S
H952 C898 0.930 . S
H953 C901 0.929 . S
H954 C906 0.929 . S
H955 C907 0.930 . S
H956 C914 0.929 . S
H957 C915 0.930 . S
H958 C916 0.930 . S
H959 C917 0.930 . S
H960 C919 0.929 . S
H961 C920 0.930 . S
H962 C921 0.930 . S
H963 C922 0.930 . S
H964 C926 0.929 . S
H965 C928 0.930 . S
H966 C934 0.929 . S
H967 C935 0.930 . S
Li968 N985 1.990 . S
Li968 O1028 1.956 . S
Li968 O1029 1.970 . S
Li968 O1030 1.961 . S
Li969 N993 1.990 1_545 S
Li969 O1028 1.970 . S
Li969 O1029 1.956 . S
Li969 O1031 1.961 . S
Li970 N1015 1.990 . S
Li970 O1028 1.961 . S
Li970 O1030 1.956 . S
Li970 O1031 1.970 . S
Li971 N1021 1.990 . S
Li971 O1029 1.961 . S
Li971 O1030 1.970 . S
Li971 O1031 1.956 . S
C972 C974 1.348 . S
C972 C975 1.356 . S
C972 O1028 1.325 . S
N973 C976 1.314 . S
N973 C977 1.279 . S
C974 C972 1.348 . S
C974 C976 1.353 . S
C974 H1032 0.929 . S
C975 C972 1.356 . S
C975 C977 1.358 . S
C975 H1033 0.930 . S
C976 N973 1.314 . S
C976 C974 1.353 . S
C976 H1034 0.930 . S
C977 N973 1.279 . S
C977 C975 1.358 . S
C977 H1035 0.930 . S
C978 C981 1.348 . S
C978 C982 1.356 1_545 S
C978 O1029 1.325 . S
C979 N980 1.279 . S
C979 C982 1.358 . S
C979 H1036 0.930 . S
N980 C979 1.279 . S
N980 C983 1.314 . S
C981 C978 1.348 . S
C981 C983 1.353 1_545 S
C981 H1037 0.929 . S
C982 C978 1.356 1_565 S
C982 C979 1.358 . S
C982 H1038 0.930 . S
C983 N980 1.314 . S
C983 C981 1.353 1_565 S
C983 H1039 0.930 . S
C984 N985 1.314 . S
C984 C989 1.353 . S
C984 H990 0.930 . S
N985 Li968 1.990 . S
N985 C984 1.314 . S
N985 C987 1.279 . S
C986 C987 1.358 . S
C986 C988 1.356 . S
C986 H1040 0.930 . S
C987 N985 1.279 . S
C987 C986 1.358 . S
C987 H991 0.930 . S
C988 C986 1.356 . S
C988 C989 1.348 . S
C989 C984 1.353 . S
C989 C988 1.348 . S
C989 H1041 0.929 . S
H990 C984 0.930 . S
H991 C987 0.930 . S
C992 N993 1.314 . S
C992 C994 1.353 . S
C992 H998 0.930 1_565 S
N993 Li969 1.990 1_565 S
N993 C992 1.314 . S
N993 C996 1.279 . S
C994 C992 1.353 . S
C994 C997 1.348 . S
C994 H1042 0.929 . S
C995 C996 1.358 . S
C995 C997 1.356 . S
C995 H1043 0.930 . S
C996 N993 1.279 . S
C996 C995 1.358 . S
C996 H999 0.930 . S
C997 C994 1.348 . S
C997 C995 1.356 . S
H998 C992 0.930 1_545 S
H999 C996 0.930 . S
C1000 C1002 1.348 . S
C1000 C1003 1.356 . S
C1000 O1030 1.325 . S
N1001 C1004 1.314 . S
N1001 C1005 1.279 . S
C1002 C1000 1.348 . S
C1002 C1004 1.353 . S
C1002 H1044 0.929 . S
C1003 C1000 1.356 . S
C1003 C1005 1.358 . S
C1003 H1045 0.930 . S
C1004 N1001 1.314 . S
C1004 C1002 1.353 . S
C1004 H1046 0.930 . S
C1005 N1001 1.279 . S
C1005 C1003 1.358 . S
C1005 H1047 0.930 . S
C1006 C1007 1.348 . S
C1006 C1008 1.356 . S
C1006 O1031 1.325 . S
C1007 C1006 1.348 . S
C1007 C1009 1.353 . S
C1007 H1048 0.929 . S
C1008 C1006 1.356 . S
C1008 C1010 1.358 . S
C1008 H1049 0.930 . S
C1009 C1007 1.353 . S
C1009 N1011 1.314 . S
C1009 H1050 0.930 . S
C1010 C1008 1.358 . S
C1010 N1011 1.279 . S
C1010 H1051 0.930 . S
N1011 C1009 1.314 . S
N1011 C1010 1.279 . S
C1012 C1014 1.353 . S
C1012 N1015 1.314 . S
C1012 H1018 0.930 . S
C1013 N1015 1.279 . S
C1013 C1016 1.358 . S
C1013 H1019 0.930 . S
C1014 C1012 1.353 . S
C1014 C1017 1.348 . S
C1014 H1052 0.929 . S
N1015 Li970 1.990 . S
N1015 C1012 1.314 . S
N1015 C1013 1.279 . S
C1016 C1013 1.358 . S
C1016 C1017 1.356 . S
C1016 H1053 0.930 . S
C1017 C1014 1.348 . S
C1017 C1016 1.356 . S
H1018 C1012 0.930 . S
H1019 C1013 0.930 . S
C1020 N1021 1.314 . S
C1020 C1022 1.353 . S
C1020 H1026 0.930 . S
N1021 Li971 1.990 . S
N1021 C1020 1.314 . S
N1021 C1024 1.279 . S
C1022 C1020 1.353 . S
C1022 C1025 1.348 . S
C1022 H1054 0.929 . S
C1023 C1024 1.358 . S
C1023 C1025 1.356 . S
C1023 H1055 0.930 . S
C1024 N1021 1.279 . S
C1024 C1023 1.358 . S
C1024 H1027 0.930 . S
C1025 C1022 1.348 . S
C1025 C1023 1.356 . S
H1026 C1020 0.930 . S
H1027 C1024 0.930 . S
O1028 Li968 1.956 . S
O1028 Li969 1.970 . S
O1028 Li970 1.961 . S
O1028 C972 1.325 . S
O1029 Li968 1.970 . S
O1029 Li969 1.956 . S
O1029 Li971 1.961 . S
O1029 C978 1.325 . S
O1030 Li968 1.961 . S
O1030 Li970 1.956 . S
O1030 Li971 1.970 . S
O1030 C1000 1.325 . S
O1031 Li969 1.961 . S
O1031 Li970 1.970 . S
O1031 Li971 1.956 . S
O1031 C1006 1.325 . S
H1032 C974 0.929 . S
H1033 C975 0.930 . S
H1034 C976 0.930 . S
H1035 C977 0.930 . S
H1036 C979 0.930 . S
H1037 C981 0.929 . S
H1038 C982 0.930 . S
H1039 C983 0.930 . S
H1040 C986 0.930 . S
H1041 C989 0.929 . S
H1042 C994 0.929 . S
H1043 C995 0.930 . S
H1044 C1002 0.929 . S
H1045 C1003 0.930 . S
H1046 C1004 0.930 . S
H1047 C1005 0.930 . S
H1048 C1007 0.929 . S
H1049 C1008 0.930 . S
H1050 C1009 0.930 . S
H1051 C1010 0.930 . S
H1052 C1014 0.929 . S
H1053 C1016 0.930 . S
H1054 C1022 0.929 . S
H1055 C1023 0.930 . S
C1056 C1057 1.349 . S
C1056 C1058 1.327 . S
C1056 H1081 0.950 . S
C1057 C1056 1.349 . S
C1057 C1073 1.349 . S
C1058 C1056 1.327 . S
C1058 C1077 1.429 . S
C1058 H1082 0.950 . S
C1059 C1076 1.574 1_655 S
C1059 C1078 1.368 . S
C1059 H1083 0.949 . S
H1060 C1064 0.949 . S
C1061 C1062 1.349 . S
C1061 C1063 1.327 . S
C1061 H1084 0.950 . S
C1062 C1061 1.349 . S
C1062 C1074 1.349 . S
C1063 C1061 1.327 . S
C1063 C1079 1.429 . S
C1063 H1085 0.950 . S
C1064 H1060 0.949 . S
C1064 C1072 1.574 1_455 S
C1064 C1080 1.368 . S
H1065 C1073 0.950 . S
H1066 C1071 0.950 . S
H1067 C1072 0.949 . S
H1068 C1074 0.950 . S
H1069 C1075 0.950 . S
H1070 C1076 0.949 . S
C1071 H1066 0.950 . S
C1071 C1073 1.327 . S
C1071 C1077 1.429 . S
C1072 C1064 1.574 1_655 S
C1072 H1067 0.949 . S
C1072 C1078 1.368 . S
C1073 C1057 1.349 . S
C1073 H1065 0.950 . S
C1073 C1071 1.327 . S
C1074 C1062 1.349 . S
C1074 H1068 0.950 . S
C1074 C1075 1.327 . S
C1075 H1069 0.950 . S
C1075 C1074 1.327 . S
C1075 C1079 1.429 . S
C1076 C1059 1.574 1_455 S
C1076 H1070 0.949 . S
C1076 C1080 1.368 . S
C1077 C1058 1.429 . S
C1077 C1071 1.429 . S
C1077 C1078 1.523 . S
C1078 C1059 1.368 . S
C1078 C1072 1.368 . S
C1078 C1077 1.523 . S
C1079 C1063 1.429 . S
C1079 C1075 1.429 . S
C1079 C1080 1.523 . S
C1080 C1064 1.368 . S
C1080 C1076 1.368 . S
C1080 C1079 1.523 . S
H1081 C1056 0.950 . S
H1082 C1058 0.950 . S
H1083 C1059 0.949 . S
H1084 C1061 0.950 . S
H1085 C1063 0.950 . S
C1086 C1087 1.349 . S
C1086 C1088 1.327 . S
C1086 H1111 0.950 . S
C1087 C1086 1.349 . S
C1087 C1103 1.349 . S
C1088 C1086 1.327 . S
C1088 C1107 1.429 . S
C1088 H1112 0.950 . S
C1089 C1106 1.574 1_545 S
C1089 C1108 1.368 . S
C1089 H1113 0.949 . S
H1090 C1094 0.949 . S
C1091 C1092 1.349 . S
C1091 C1093 1.327 . S
C1091 H1114 0.950 . S
C1092 C1091 1.349 . S
C1092 C1104 1.349 . S
C1093 C1091 1.327 . S
C1093 C1109 1.429 . S
C1093 H1115 0.950 . S
C1094 H1090 0.949 . S
C1094 C1102 1.574 1_565 S
C1094 C1110 1.368 . S
H1095 C1103 0.950 . S
H1096 C1101 0.950 . S
H1097 C1102 0.949 . S
H1098 C1104 0.950 . S
H1099 C1105 0.950 . S
H1100 C1106 0.949 . S
C1101 H1096 0.950 . S
C1101 C1103 1.327 . S
C1101 C1107 1.429 . S
C1102 C1094 1.574 1_545 S
C1102 H1097 0.949 . S
C1102 C1108 1.368 . S
C1103 C1087 1.349 . S
C1103 H1095 0.950 . S
C1103 C1101 1.327 . S
C1104 C1092 1.349 . S
C1104 H1098 0.950 . S
C1104 C1105 1.327 . S
C1105 H1099 0.950 . S
C1105 C1104 1.327 . S
C1105 C1109 1.429 . S
C1106 C1089 1.574 1_565 S
C1106 H1100 0.949 . S
C1106 C1110 1.368 . S
C1107 C1088 1.429 . S
C1107 C1101 1.429 . S
C1107 C1108 1.523 . S
C1108 C1089 1.368 . S
C1108 C1102 1.368 . S
C1108 C1107 1.523 . S
C1109 C1093 1.429 . S
C1109 C1105 1.429 . S
C1109 C1110 1.523 . S
C1110 C1094 1.368 . S
C1110 C1106 1.368 . S
C1110 C1109 1.523 . S
H1111 C1086 0.950 . S
H1112 C1088 0.950 . S
H1113 C1089 0.949 . S
H1114 C1091 0.950 . S
H1115 C1093 0.950 . S
C1116 C1117 1.349 . S
C1116 C1118 1.327 . S
C1116 H1141 0.950 . S
C1117 C1116 1.349 . S
C1117 C1133 1.349 . S
C1118 C1116 1.327 . S
C1118 C1137 1.429 . S
C1118 H1142 0.950 . S
C1119 C1136 1.574 . S
C1119 C1138 1.368 . S
C1119 H1143 0.949 . S
H1120 C1124 0.949 . S
C1121 C1122 1.349 . S
C1121 C1123 1.327 . S
C1121 H1144 0.950 . S
C1122 C1121 1.349 . S
C1122 C1134 1.349 . S
C1123 C1121 1.327 . S
C1123 C1139 1.429 . S
C1123 H1145 0.950 . S
C1124 H1120 0.949 . S
C1124 C1132 1.574 . S
C1124 C1140 1.368 . S
H1125 C1133 0.950 . S
H1126 C1131 0.950 . S
H1127 C1132 0.949 . S
H1128 C1134 0.950 . S
H1129 C1135 0.950 . S
H1130 C1136 0.949 . S
C1131 H1126 0.950 . S
C1131 C1133 1.327 . S
C1131 C1137 1.429 . S
C1132 C1124 1.574 . S
C1132 H1127 0.949 . S
C1132 C1138 1.368 . S
C1133 C1117 1.349 . S
C1133 H1125 0.950 . S
C1133 C1131 1.327 . S
C1134 C1122 1.349 . S
C1134 H1128 0.950 . S
C1134 C1135 1.327 . S
C1135 H1129 0.950 . S
C1135 C1134 1.327 . S
C1135 C1139 1.429 . S
C1136 C1119 1.574 . S
C1136 H1130 0.949 . S
C1136 C1140 1.368 . S
C1137 C1118 1.429 . S
C1137 C1131 1.429 . S
C1137 C1138 1.523 . S
C1138 C1119 1.368 . S
C1138 C1132 1.368 . S
C1138 C1137 1.523 . S
C1139 C1123 1.429 . S
C1139 C1135 1.429 . S
C1139 C1140 1.523 . S
C1140 C1124 1.368 . S
C1140 C1136 1.368 . S
C1140 C1139 1.523 . S
H1141 C1116 0.950 . S
H1142 C1118 0.950 . S
H1143 C1119 0.949 . S
H1144 C1121 0.950 . S
H1145 C1123 0.950 . S
C1146 C1147 1.349 . S
C1146 C1148 1.327 . S
C1146 H1171 0.950 . S
C1147 C1146 1.349 . S
C1147 C1163 1.349 . S
C1148 C1146 1.327 . S
C1148 C1167 1.429 . S
C1148 H1172 0.950 . S
C1149 C1166 1.574 1_655 S
C1149 C1168 1.368 . S
C1149 H1173 0.949 . S
H1150 C1154 0.949 . S
C1151 C1152 1.349 . S
C1151 C1153 1.327 . S
C1151 H1174 0.950 . S
C1152 C1151 1.349 . S
C1152 C1164 1.349 . S
C1153 C1151 1.327 . S
C1153 C1169 1.429 . S
C1153 H1175 0.950 . S
C1154 H1150 0.949 . S
C1154 C1162 1.574 1_455 S
C1154 C1170 1.368 . S
H1155 C1163 0.950 . S
H1156 C1161 0.950 . S
H1157 C1162 0.949 . S
H1158 C1164 0.950 . S
H1159 C1165 0.950 . S
H1160 C1166 0.949 . S
C1161 H1156 0.950 . S
C1161 C1163 1.327 . S
C1161 C1167 1.429 . S
C1162 C1154 1.574 1_655 S
C1162 H1157 0.949 . S
C1162 C1168 1.368 . S
C1163 C1147 1.349 . S
C1163 H1155 0.950 . S
C1163 C1161 1.327 . S
C1164 C1152 1.349 . S
C1164 H1158 0.950 . S
C1164 C1165 1.327 . S
C1165 H1159 0.950 . S
C1165 C1164 1.327 . S
C1165 C1169 1.429 . S
C1166 C1149 1.574 1_455 S
C1166 H1160 0.949 . S
C1166 C1170 1.368 . S
C1167 C1148 1.429 . S
C1167 C1161 1.429 . S
C1167 C1168 1.523 . S
C1168 C1149 1.368 . S
C1168 C1162 1.368 . S
C1168 C1167 1.523 . S
C1169 C1153 1.429 . S
C1169 C1165 1.429 . S
C1169 C1170 1.523 . S
C1170 C1154 1.368 . S
C1170 C1166 1.368 . S
C1170 C1169 1.523 . S
H1171 C1146 0.950 . S
H1172 C1148 0.950 . S
H1173 C1149 0.949 . S
H1174 C1151 0.950 . S
H1175 C1153 0.950 . S
C1176 C1177 1.349 . S
C1176 C1178 1.327 . S
C1176 H1201 0.950 . S
C1177 C1176 1.349 . S
C1177 C1193 1.349 . S
C1178 C1176 1.327 . S
C1178 C1197 1.429 . S
C1178 H1202 0.950 . S
C1179 C1196 1.574 1_545 S
C1179 C1198 1.368 . S
C1179 H1203 0.949 . S
H1180 C1184 0.949 . S
C1181 C1182 1.349 . S
C1181 C1183 1.327 . S
C1181 H1204 0.950 . S
C1182 C1181 1.349 . S
C1182 C1194 1.349 . S
C1183 C1181 1.327 . S
C1183 C1199 1.429 . S
C1183 H1205 0.950 . S
C1184 H1180 0.949 . S
C1184 C1192 1.574 1_565 S
C1184 C1200 1.368 . S
H1185 C1193 0.950 . S
H1186 C1191 0.950 . S
H1187 C1192 0.949 . S
H1188 C1194 0.950 . S
H1189 C1195 0.950 . S
H1190 C1196 0.949 . S
C1191 H1186 0.950 . S
C1191 C1193 1.327 . S
C1191 C1197 1.429 . S
C1192 C1184 1.574 1_545 S
C1192 H1187 0.949 . S
C1192 C1198 1.368 . S
C1193 C1177 1.349 . S
C1193 H1185 0.950 . S
C1193 C1191 1.327 . S
C1194 C1182 1.349 . S
C1194 H1188 0.950 . S
C1194 C1195 1.327 . S
C1195 H1189 0.950 . S
C1195 C1194 1.327 . S
C1195 C1199 1.429 . S
C1196 C1179 1.574 1_565 S
C1196 H1190 0.949 . S
C1196 C1200 1.368 . S
C1197 C1178 1.429 . S
C1197 C1191 1.429 . S
C1197 C1198 1.523 . S
C1198 C1179 1.368 . S
C1198 C1192 1.368 . S
C1198 C1197 1.523 . S
C1199 C1183 1.429 . S
C1199 C1195 1.429 . S
C1199 C1200 1.523 . S
C1200 C1184 1.368 . S
C1200 C1196 1.368 . S
C1200 C1199 1.523 . S
H1201 C1176 0.950 . S
H1202 C1178 0.950 . S
H1203 C1179 0.949 . S
H1204 C1181 0.950 . S
H1205 C1183 0.950 . S
C1206 C1207 1.349 . S
C1206 C1208 1.327 . S
C1206 H1231 0.950 . S
C1207 C1206 1.349 . S
C1207 C1223 1.349 . S
C1208 C1206 1.327 . S
C1208 C1227 1.429 . S
C1208 H1232 0.950 . S
C1209 C1226 1.574 . S
C1209 C1228 1.368 . S
C1209 H1233 0.949 . S
H1210 C1214 0.949 . S
C1211 C1212 1.349 . S
C1211 C1213 1.327 . S
C1211 H1234 0.950 . S
C1212 C1211 1.349 . S
C1212 C1224 1.349 . S
C1213 C1211 1.327 . S
C1213 C1229 1.429 . S
C1213 H1235 0.950 . S
C1214 H1210 0.949 . S
C1214 C1222 1.574 . S
C1214 C1230 1.368 . S
H1215 C1223 0.950 . S
H1216 C1221 0.950 . S
H1217 C1222 0.949 . S
H1218 C1224 0.950 . S
H1219 C1225 0.950 . S
H1220 C1226 0.949 . S
C1221 H1216 0.950 . S
C1221 C1223 1.327 . S
C1221 C1227 1.429 . S
C1222 C1214 1.574 . S
C1222 H1217 0.949 . S
C1222 C1228 1.368 . S
C1223 C1207 1.349 . S
C1223 H1215 0.950 . S
C1223 C1221 1.327 . S
C1224 C1212 1.349 . S
C1224 H1218 0.950 . S
C1224 C1225 1.327 . S
C1225 H1219 0.950 . S
C1225 C1224 1.327 . S
C1225 C1229 1.429 . S
C1226 C1209 1.574 . S
C1226 H1220 0.949 . S
C1226 C1230 1.368 . S
C1227 C1208 1.429 . S
C1227 C1221 1.429 . S
C1227 C1228 1.523 . S
C1228 C1209 1.368 . S
C1228 C1222 1.368 . S
C1228 C1227 1.523 . S
C1229 C1213 1.429 . S
C1229 C1225 1.429 . S
C1229 C1230 1.523 . S
C1230 C1214 1.368 . S
C1230 C1226 1.368 . S
C1230 C1229 1.523 . S
H1231 C1206 0.950 . S
H1232 C1208 0.950 . S
H1233 C1209 0.949 . S
H1234 C1211 0.950 . S
H1235 C1213 0.950 . S
C1236 C1237 1.349 . S
C1236 C1238 1.327 . S
C1236 H1261 0.950 . S
C1237 C1236 1.349 . S
C1237 C1253 1.349 . S
C1238 C1236 1.327 . S
C1238 C1257 1.429 . S
C1238 H1262 0.950 . S
C1239 C1256 1.574 . S
C1239 C1258 1.368 . S
C1239 H1263 0.949 . S
H1240 C1244 0.949 . S
C1241 C1242 1.349 . S
C1241 C1243 1.327 . S
C1241 H1264 0.950 . S
C1242 C1241 1.349 . S
C1242 C1254 1.349 . S
C1243 C1241 1.327 . S
C1243 C1259 1.429 . S
C1243 H1265 0.950 . S
C1244 H1240 0.949 . S
C1244 C1252 1.574 . S
C1244 C1260 1.368 . S
H1245 C1253 0.950 . S
H1246 C1251 0.950 . S
H1247 C1252 0.949 . S
H1248 C1254 0.950 . S
H1249 C1255 0.950 . S
H1250 C1256 0.949 . S
C1251 H1246 0.950 . S
C1251 C1253 1.327 . S
C1251 C1257 1.429 . S
C1252 C1244 1.574 . S
C1252 H1247 0.949 . S
C1252 C1258 1.368 . S
C1253 C1237 1.349 . S
C1253 H1245 0.950 . S
C1253 C1251 1.327 . S
C1254 C1242 1.349 . S
C1254 H1248 0.950 . S
C1254 C1255 1.327 . S
C1255 H1249 0.950 . S
C1255 C1254 1.327 . S
C1255 C1259 1.429 . S
C1256 C1239 1.574 . S
C1256 H1250 0.949 . S
C1256 C1260 1.368 . S
C1257 C1238 1.429 . S
C1257 C1251 1.429 . S
C1257 C1258 1.523 . S
C1258 C1239 1.368 . S
C1258 C1252 1.368 . S
C1258 C1257 1.523 . S
C1259 C1243 1.429 . S
C1259 C1255 1.429 . S
C1259 C1260 1.523 . S
C1260 C1244 1.368 . S
C1260 C1256 1.368 . S
C1260 C1259 1.523 . S
H1261 C1236 0.950 . S
H1262 C1238 0.950 . S
H1263 C1239 0.949 . S
H1264 C1241 0.950 . S
H1265 C1243 0.950 . S
C1266 C1267 1.349 . S
C1266 C1268 1.327 . S
C1266 H1291 0.950 . S
C1267 C1266 1.349 . S
C1267 C1283 1.349 . S
C1268 C1266 1.327 . S
C1268 C1287 1.429 . S
C1268 H1292 0.950 . S
C1269 C1286 1.574 . S
C1269 C1288 1.368 . S
C1269 H1293 0.949 . S
H1270 C1274 0.949 . S
C1271 C1272 1.349 . S
C1271 C1273 1.327 . S
C1271 H1294 0.950 . S
C1272 C1271 1.349 . S
C1272 C1284 1.349 . S
C1273 C1271 1.327 . S
C1273 C1289 1.429 . S
C1273 H1295 0.950 . S
C1274 H1270 0.949 . S
C1274 C1282 1.574 . S
C1274 C1290 1.368 . S
H1275 C1283 0.950 . S
H1276 C1281 0.950 . S
H1277 C1282 0.949 . S
H1278 C1284 0.950 . S
H1279 C1285 0.950 . S
H1280 C1286 0.949 . S
C1281 H1276 0.950 . S
C1281 C1283 1.327 . S
C1281 C1287 1.429 . S
C1282 C1274 1.574 . S
C1282 H1277 0.949 . S
C1282 C1288 1.368 1_655 S
C1283 C1267 1.349 . S
C1283 H1275 0.950 . S
C1283 C1281 1.327 . S
C1284 C1272 1.349 . S
C1284 H1278 0.950 . S
C1284 C1285 1.327 . S
C1285 H1279 0.950 . S
C1285 C1284 1.327 . S
C1285 C1289 1.429 . S
C1286 C1269 1.574 . S
C1286 H1280 0.949 . S
C1286 C1290 1.368 1_455 S
C1287 C1268 1.429 . S
C1287 C1281 1.429 . S
C1287 C1288 1.523 . S
C1288 C1269 1.368 . S
C1288 C1282 1.368 1_455 S
C1288 C1287 1.523 . S
C1289 C1273 1.429 . S
C1289 C1285 1.429 . S
C1289 C1290 1.523 . S
C1290 C1274 1.368 . S
C1290 C1286 1.368 1_655 S
C1290 C1289 1.523 . S
H1291 C1266 0.950 . S
H1292 C1268 0.950 . S
H1293 C1269 0.949 . S
H1294 C1271 0.950 . S
H1295 C1273 0.950 . S
C1296 C1297 1.349 . S
C1296 C1298 1.327 . S
C1296 H1321 0.950 . S
C1297 C1296 1.349 . S
C1297 C1313 1.349 . S
C1298 C1296 1.327 . S
C1298 C1317 1.429 . S
C1298 H1322 0.950 . S
C1299 C1316 1.574 . S
C1299 C1318 1.368 1_565 S
C1299 H1323 0.949 . S
H1300 C1304 0.949 . S
C1301 C1302 1.349 . S
C1301 C1303 1.327 . S
C1301 H1324 0.950 . S
C1302 C1301 1.349 . S
C1302 C1314 1.349 . S
C1303 C1301 1.327 . S
C1303 C1319 1.429 . S
C1303 H1325 0.950 . S
C1304 H1300 0.949 . S
C1304 C1312 1.574 . S
C1304 C1320 1.368 1_545 S
H1305 C1313 0.950 . S
H1306 C1311 0.950 . S
H1307 C1312 0.949 . S
H1308 C1314 0.950 . S
H1309 C1315 0.950 . S
H1310 C1316 0.949 . S
C1311 H1306 0.950 . S
C1311 C1313 1.327 . S
C1311 C1317 1.429 . S
C1312 C1304 1.574 . S
C1312 H1307 0.949 . S
C1312 C1318 1.368 . S
C1313 C1297 1.349 . S
C1313 H1305 0.950 . S
C1313 C1311 1.327 . S
C1314 C1302 1.349 . S
C1314 H1308 0.950 . S
C1314 C1315 1.327 . S
C1315 H1309 0.950 . S
C1315 C1314 1.327 . S
C1315 C1319 1.429 . S
C1316 C1299 1.574 . S
C1316 H1310 0.949 . S
C1316 C1320 1.368 . S
C1317 C1298 1.429 . S
C1317 C1311 1.429 . S
C1317 C1318 1.523 . S
C1318 C1299 1.368 1_545 S
C1318 C1312 1.368 . S
C1318 C1317 1.523 . S
C1319 C1303 1.429 . S
C1319 C1315 1.429 . S
C1319 C1320 1.523 . S
C1320 C1304 1.368 1_565 S
C1320 C1316 1.368 . S
C1320 C1319 1.523 . S
H1321 C1296 0.950 . S
H1322 C1298 0.950 . S
H1323 C1299 0.949 . S
H1324 C1301 0.950 . S
H1325 C1303 0.950 . S
C1326 C1327 1.349 . S
C1326 C1328 1.327 . S
C1326 H1351 0.950 . S
C1327 C1326 1.349 . S
C1327 C1343 1.349 . S
C1328 C1326 1.327 . S
C1328 C1347 1.429 . S
C1328 H1352 0.950 . S
C1329 C1346 1.574 . S
C1329 C1348 1.368 . S
C1329 H1353 0.949 . S
H1330 C1334 0.949 . S
C1331 C1332 1.349 . S
C1331 C1333 1.327 . S
C1331 H1354 0.950 . S
C1332 C1331 1.349 . S
C1332 C1344 1.349 . S
C1333 C1331 1.327 . S
C1333 C1349 1.429 . S
C1333 H1355 0.950 . S
C1334 H1330 0.949 . S
C1334 C1342 1.574 . S
C1334 C1350 1.368 . S
H1335 C1343 0.950 . S
H1336 C1341 0.950 . S
H1337 C1342 0.949 . S
H1338 C1344 0.950 . S
H1339 C1345 0.950 . S
H1340 C1346 0.949 . S
C1341 H1336 0.950 . S
C1341 C1343 1.327 . S
C1341 C1347 1.429 . S
C1342 C1334 1.574 . S
C1342 H1337 0.949 . S
C1342 C1348 1.368 . S
C1343 C1327 1.349 . S
C1343 H1335 0.950 . S
C1343 C1341 1.327 . S
C1344 C1332 1.349 . S
C1344 H1338 0.950 . S
C1344 C1345 1.327 . S
C1345 H1339 0.950 . S
C1345 C1344 1.327 . S
C1345 C1349 1.429 . S
C1346 C1329 1.574 . S
C1346 H1340 0.949 . S
C1346 C1350 1.368 . S
C1347 C1328 1.429 . S
C1347 C1341 1.429 . S
C1347 C1348 1.523 . S
C1348 C1329 1.368 . S
C1348 C1342 1.368 . S
C1348 C1347 1.523 . S
C1349 C1333 1.429 . S
C1349 C1345 1.429 . S
C1349 C1350 1.523 . S
C1350 C1334 1.368 . S
C1350 C1346 1.368 . S
C1350 C1349 1.523 . S
H1351 C1326 0.950 . S
H1352 C1328 0.950 . S
H1353 C1329 0.949 . S
H1354 C1331 0.950 . S
H1355 C1333 0.950 . S
C1356 C1357 1.349 . S
C1356 C1358 1.327 . S
C1356 H1381 0.950 . S
C1357 C1356 1.349 . S
C1357 C1373 1.349 . S
C1358 C1356 1.327 . S
C1358 C1377 1.429 . S
C1358 H1382 0.950 . S
C1359 C1376 1.574 . S
C1359 C1378 1.368 . S
C1359 H1383 0.949 . S
H1360 C1364 0.949 . S
C1361 C1362 1.349 . S
C1361 C1363 1.327 . S
C1361 H1384 0.950 . S
C1362 C1361 1.349 . S
C1362 C1374 1.349 . S
C1363 C1361 1.327 . S
C1363 C1379 1.429 . S
C1363 H1385 0.950 . S
C1364 H1360 0.949 . S
C1364 C1372 1.574 . S
C1364 C1380 1.368 . S
H1365 C1373 0.950 . S
H1366 C1371 0.950 . S
H1367 C1372 0.949 . S
H1368 C1374 0.950 . S
H1369 C1375 0.950 . S
H1370 C1376 0.949 . S
C1371 H1366 0.950 . S
C1371 C1373 1.327 . S
C1371 C1377 1.429 . S
C1372 C1364 1.574 . S
C1372 H1367 0.949 . S
C1372 C1378 1.368 1_455 S
C1373 C1357 1.349 . S
C1373 H1365 0.950 . S
C1373 C1371 1.327 . S
C1374 C1362 1.349 . S
C1374 H1368 0.950 . S
C1374 C1375 1.327 . S
C1375 H1369 0.950 . S
C1375 C1374 1.327 . S
C1375 C1379 1.429 . S
C1376 C1359 1.574 . S
C1376 H1370 0.949 . S
C1376 C1380 1.368 1_655 S
C1377 C1358 1.429 . S
C1377 C1371 1.429 . S
C1377 C1378 1.523 . S
C1378 C1359 1.368 . S
C1378 C1372 1.368 1_655 S
C1378 C1377 1.523 . S
C1379 C1363 1.429 . S
C1379 C1375 1.429 . S
C1379 C1380 1.523 . S
C1380 C1364 1.368 . S
C1380 C1376 1.368 1_455 S
C1380 C1379 1.523 . S
H1381 C1356 0.950 . S
H1382 C1358 0.950 . S
H1383 C1359 0.949 . S
H1384 C1361 0.950 . S
H1385 C1363 0.950 . S
C1386 C1387 1.349 . S
C1386 C1388 1.327 . S
C1386 H1411 0.950 . S
C1387 C1386 1.349 . S
C1387 C1403 1.349 . S
C1388 C1386 1.327 . S
C1388 C1407 1.429 . S
C1388 H1412 0.950 . S
C1389 C1406 1.574 . S
C1389 C1408 1.368 1_545 S
C1389 H1413 0.949 . S
H1390 C1394 0.949 . S
C1391 C1392 1.349 . S
C1391 C1393 1.327 . S
C1391 H1414 0.950 . S
C1392 C1391 1.349 . S
C1392 C1404 1.349 . S
C1393 C1391 1.327 . S
C1393 C1409 1.429 . S
C1393 H1415 0.950 . S
C1394 H1390 0.949 . S
C1394 C1402 1.574 . S
C1394 C1410 1.368 1_565 S
H1395 C1403 0.950 . S
H1396 C1401 0.950 . S
H1397 C1402 0.949 . S
H1398 C1404 0.950 . S
H1399 C1405 0.950 . S
H1400 C1406 0.949 . S
C1401 H1396 0.950 . S
C1401 C1403 1.327 . S
C1401 C1407 1.429 . S
C1402 C1394 1.574 . S
C1402 H1397 0.949 . S
C1402 C1408 1.368 . S
C1403 C1387 1.349 . S
C1403 H1395 0.950 . S
C1403 C1401 1.327 . S
C1404 C1392 1.349 . S
C1404 H1398 0.950 . S
C1404 C1405 1.327 . S
C1405 H1399 0.950 . S
C1405 C1404 1.327 . S
C1405 C1409 1.429 . S
C1406 C1389 1.574 . S
C1406 H1400 0.949 . S
C1406 C1410 1.368 . S
C1407 C1388 1.429 . S
C1407 C1401 1.429 . S
C1407 C1408 1.523 . S
C1408 C1389 1.368 1_565 S
C1408 C1402 1.368 . S
C1408 C1407 1.523 . S
C1409 C1393 1.429 . S
C1409 C1405 1.429 . S
C1409 C1410 1.523 . S
C1410 C1394 1.368 1_545 S
C1410 C1406 1.368 . S
C1410 C1409 1.523 . S
H1411 C1386 0.950 . S
H1412 C1388 0.950 . S
H1413 C1389 0.949 . S
H1414 C1391 0.950 . S
H1415 C1393 0.950 . S
C1416 C1417 1.349 . S
C1416 C1418 1.327 . S
C1416 H1441 0.950 . S
C1417 C1416 1.349 . S
C1417 C1433 1.349 . S
C1418 C1416 1.327 . S
C1418 C1437 1.429 . S
C1418 H1442 0.950 . S
C1419 C1436 1.574 . S
C1419 C1438 1.368 . S
C1419 H1443 0.949 . S
H1420 C1424 0.949 . S
C1421 C1422 1.349 . S
C1421 C1423 1.327 . S
C1421 H1444 0.950 . S
C1422 C1421 1.349 . S
C1422 C1434 1.349 . S
C1423 C1421 1.327 . S
C1423 C1439 1.429 . S
C1423 H1445 0.950 . S
C1424 H1420 0.949 . S
C1424 C1432 1.574 . S
C1424 C1440 1.368 . S
H1425 C1433 0.950 . S
H1426 C1431 0.950 . S
H1427 C1432 0.949 . S
H1428 C1434 0.950 . S
H1429 C1435 0.950 . S
H1430 C1436 0.949 . S
C1431 H1426 0.950 . S
C1431 C1433 1.327 . S
C1431 C1437 1.429 . S
C1432 C1424 1.574 . S
C1432 H1427 0.949 . S
C1432 C1438 1.368 . S
C1433 C1417 1.349 . S
C1433 H1425 0.950 . S
C1433 C1431 1.327 . S
C1434 C1422 1.349 . S
C1434 H1428 0.950 . S
C1434 C1435 1.327 . S
C1435 H1429 0.950 . S
C1435 C1434 1.327 . S
C1435 C1439 1.429 . S
C1436 C1419 1.574 . S
C1436 H1430 0.949 . S
C1436 C1440 1.368 . S
C1437 C1418 1.429 . S
C1437 C1431 1.429 . S
C1437 C1438 1.523 . S
C1438 C1419 1.368 . S
C1438 C1432 1.368 . S
C1438 C1437 1.523 . S
C1439 C1423 1.429 . S
C1439 C1435 1.429 . S
C1439 C1440 1.523 . S
C1440 C1424 1.368 . S
C1440 C1436 1.368 . S
C1440 C1439 1.523 . S
H1441 C1416 0.950 . S
H1442 C1418 0.950 . S
H1443 C1419 0.949 . S
H1444 C1421 0.950 . S
H1445 C1423 0.950 . S
C1446 C1447 1.349 . S
C1446 C1448 1.327 . S
C1446 H1471 0.950 . S
C1447 C1446 1.349 . S
C1447 C1463 1.349 . S
C1448 C1446 1.327 . S
C1448 C1467 1.429 . S
C1448 H1472 0.950 . S
C1449 C1466 1.574 . S
C1449 C1468 1.368 . S
C1449 H1473 0.949 . S
H1450 C1454 0.949 . S
C1451 C1452 1.349 . S
C1451 C1453 1.327 . S
C1451 H1474 0.950 . S
C1452 C1451 1.349 . S
C1452 C1464 1.349 . S
C1453 C1451 1.327 . S
C1453 C1469 1.429 . S
C1453 H1475 0.950 . S
C1454 H1450 0.949 . S
C1454 C1462 1.574 . S
C1454 C1470 1.368 . S
H1455 C1463 0.950 . S
H1456 C1461 0.950 . S
H1457 C1462 0.949 . S
H1458 C1464 0.950 . S
H1459 C1465 0.950 . S
H1460 C1466 0.949 . S
C1461 H1456 0.950 . S
C1461 C1463 1.327 . S
C1461 C1467 1.429 . S
C1462 C1454 1.574 . S
C1462 H1457 0.949 . S
C1462 C1468 1.368 . S
C1463 C1447 1.349 . S
C1463 H1455 0.950 . S
C1463 C1461 1.327 . S
C1464 C1452 1.349 . S
C1464 H1458 0.950 . S
C1464 C1465 1.327 . S
C1465 H1459 0.950 . S
C1465 C1464 1.327 . S
C1465 C1469 1.429 . S
C1466 C1449 1.574 . S
C1466 H1460 0.949 . S
C1466 C1470 1.368 . S
C1467 C1448 1.429 . S
C1467 C1461 1.429 . S
C1467 C1468 1.523 . S
C1468 C1449 1.368 . S
C1468 C1462 1.368 . S
C1468 C1467 1.523 . S
C1469 C1453 1.429 . S
C1469 C1465 1.429 . S
C1469 C1470 1.523 . S
C1470 C1454 1.368 . S
C1470 C1466 1.368 . S
C1470 C1469 1.523 . S
H1471 C1446 0.950 . S
H1472 C1448 0.950 . S
H1473 C1449 0.949 . S
H1474 C1451 0.950 . S
H1475 C1453 0.950 . S
C1476 C1477 1.349 . S
C1476 C1478 1.327 . S
C1476 H1501 0.950 . S
C1477 C1476 1.349 . S
C1477 C1493 1.349 . S
C1478 C1476 1.327 . S
C1478 C1497 1.429 . S
C1478 H1502 0.950 . S
C1479 C1496 1.574 . S
C1479 C1498 1.368 . S
C1479 H1503 0.949 . S
H1480 C1484 0.949 . S
C1481 C1482 1.349 . S
C1481 C1483 1.327 . S
C1481 H1504 0.950 . S
C1482 C1481 1.349 . S
C1482 C1494 1.349 . S
C1483 C1481 1.327 . S
C1483 C1499 1.429 . S
C1483 H1505 0.950 . S
C1484 H1480 0.949 . S
C1484 C1492 1.574 . S
C1484 C1500 1.368 . S
H1485 C1493 0.950 . S
H1486 C1491 0.950 . S
H1487 C1492 0.949 . S
H1488 C1494 0.950 . S
H1489 C1495 0.950 . S
H1490 C1496 0.949 . S
C1491 H1486 0.950 . S
C1491 C1493 1.327 . S
C1491 C1497 1.429 . S
C1492 C1484 1.574 . S
C1492 H1487 0.949 . S
C1492 C1498 1.368 . S
C1493 C1477 1.349 . S
C1493 H1485 0.950 . S
C1493 C1491 1.327 . S
C1494 C1482 1.349 . S
C1494 H1488 0.950 . S
C1494 C1495 1.327 . S
C1495 H1489 0.950 . S
C1495 C1494 1.327 . S
C1495 C1499 1.429 . S
C1496 C1479 1.574 . S
C1496 H1490 0.949 . S
C1496 C1500 1.368 . S
C1497 C1478 1.429 . S
C1497 C1491 1.429 . S
C1497 C1498 1.523 . S
C1498 C1479 1.368 . S
C1498 C1492 1.368 . S
C1498 C1497 1.523 . S
C1499 C1483 1.429 . S
C1499 C1495 1.429 . S
C1499 C1500 1.523 . S
C1500 C1484 1.368 . S
C1500 C1496 1.368 . S
C1500 C1499 1.523 . S
H1501 C1476 0.950 . S
H1502 C1478 0.950 . S
H1503 C1479 0.949 . S
H1504 C1481 0.950 . S
H1505 C1483 0.950 . S
C1506 C1507 1.349 . S
C1506 C1508 1.327 . S
C1506 H1531 0.950 . S
C1507 C1506 1.349 . S
C1507 C1523 1.349 . S
C1508 C1506 1.327 . S
C1508 C1527 1.429 . S
C1508 H1532 0.950 . S
C1509 C1526 1.574 . S
C1509 C1528 1.368 . S
C1509 H1533 0.949 . S
H1510 C1514 0.949 . S
C1511 C1512 1.349 . S
C1511 C1513 1.327 . S
C1511 H1534 0.950 . S
C1512 C1511 1.349 . S
C1512 C1524 1.349 . S
C1513 C1511 1.327 . S
C1513 C1529 1.429 . S
C1513 H1535 0.950 . S
C1514 H1510 0.949 . S
C1514 C1522 1.574 . S
C1514 C1530 1.368 . S
H1515 C1523 0.950 . S
H1516 C1521 0.950 . S
H1517 C1522 0.949 . S
H1518 C1524 0.950 . S
H1519 C1525 0.950 . S
H1520 C1526 0.949 . S
C1521 H1516 0.950 . S
C1521 C1523 1.327 . S
C1521 C1527 1.429 . S
C1522 C1514 1.574 . S
C1522 H1517 0.949 . S
C1522 C1528 1.368 . S
C1523 C1507 1.349 . S
C1523 H1515 0.950 . S
C1523 C1521 1.327 . S
C1524 C1512 1.349 . S
C1524 H1518 0.950 . S
C1524 C1525 1.327 . S
C1525 H1519 0.950 . S
C1525 C1524 1.327 . S
C1525 C1529 1.429 . S
C1526 C1509 1.574 . S
C1526 H1520 0.949 . S
C1526 C1530 1.368 . S
C1527 C1508 1.429 . S
C1527 C1521 1.429 . S
C1527 C1528 1.523 . S
C1528 C1509 1.368 . S
C1528 C1522 1.368 . S
C1528 C1527 1.523 . S
C1529 C1513 1.429 . S
C1529 C1525 1.429 . S
C1529 C1530 1.523 . S
C1530 C1514 1.368 . S
C1530 C1526 1.368 . S
C1530 C1529 1.523 . S
H1531 C1506 0.950 . S
H1532 C1508 0.950 . S
H1533 C1509 0.949 . S
H1534 C1511 0.950 . S
H1535 C1513 0.950 . S
C1536 C1537 1.349 . S
C1536 C1538 1.327 . S
C1536 H1561 0.950 . S
C1537 C1536 1.349 . S
C1537 C1553 1.349 . S
C1538 C1536 1.327 . S
C1538 C1557 1.429 . S
C1538 H1562 0.950 . S
C1539 C1556 1.574 . S
C1539 C1558 1.368 . S
C1539 H1563 0.949 . S
H1540 C1544 0.949 . S
C1541 C1542 1.349 . S
C1541 C1543 1.327 . S
C1541 H1564 0.950 . S
C1542 C1541 1.349 . S
C1542 C1554 1.349 . S
C1543 C1541 1.327 . S
C1543 C1559 1.429 . S
C1543 H1565 0.950 . S
C1544 H1540 0.949 . S
C1544 C1552 1.574 . S
C1544 C1560 1.368 . S
H1545 C1553 0.950 . S
H1546 C1551 0.950 . S
H1547 C1552 0.949 . S
H1548 C1554 0.950 . S
H1549 C1555 0.950 . S
H1550 C1556 0.949 . S
C1551 H1546 0.950 . S
C1551 C1553 1.327 . S
C1551 C1557 1.429 . S
C1552 C1544 1.574 . S
C1552 H1547 0.949 . S
C1552 C1558 1.368 . S
C1553 C1537 1.349 . S
C1553 H1545 0.950 . S
C1553 C1551 1.327 . S
C1554 C1542 1.349 . S
C1554 H1548 0.950 . S
C1554 C1555 1.327 . S
C1555 H1549 0.950 . S
C1555 C1554 1.327 . S
C1555 C1559 1.429 . S
C1556 C1539 1.574 . S
C1556 H1550 0.949 . S
C1556 C1560 1.368 . S
C1557 C1538 1.429 . S
C1557 C1551 1.429 . S
C1557 C1558 1.523 . S
C1558 C1539 1.368 . S
C1558 C1552 1.368 . S
C1558 C1557 1.523 . S
C1559 C1543 1.429 . S
C1559 C1555 1.429 . S
C1559 C1560 1.523 . S
C1560 C1544 1.368 . S
C1560 C1556 1.368 . S
C1560 C1559 1.523 . S
H1561 C1536 0.950 . S
H1562 C1538 0.950 . S
H1563 C1539 0.949 . S
H1564 C1541 0.950 . S
H1565 C1543 0.950 . S
C1566 C1567 1.349 . S
C1566 C1568 1.327 . S
C1566 H1591 0.950 . S
C1567 C1566 1.349 . S
C1567 C1583 1.349 . S
C1568 C1566 1.327 . S
C1568 C1587 1.429 . S
C1568 H1592 0.950 . S
C1569 C1586 1.574 . S
C1569 C1588 1.368 . S
C1569 H1593 0.949 . S
H1570 C1574 0.949 . S
C1571 C1572 1.349 . S
C1571 C1573 1.327 . S
C1571 H1594 0.950 . S
C1572 C1571 1.349 . S
C1572 C1584 1.349 . S
C1573 C1571 1.327 . S
C1573 C1589 1.429 . S
C1573 H1595 0.950 . S
C1574 H1570 0.949 . S
C1574 C1582 1.574 . S
C1574 C1590 1.368 . S
H1575 C1583 0.950 . S
H1576 C1581 0.950 . S
H1577 C1582 0.949 . S
H1578 C1584 0.950 . S
H1579 C1585 0.950 . S
H1580 C1586 0.949 . S
C1581 H1576 0.950 . S
C1581 C1583 1.327 . S
C1581 C1587 1.429 . S
C1582 C1574 1.574 . S
C1582 H1577 0.949 . S
C1582 C1588 1.368 . S
C1583 C1567 1.349 . S
C1583 H1575 0.950 . S
C1583 C1581 1.327 . S
C1584 C1572 1.349 . S
C1584 H1578 0.950 . S
C1584 C1585 1.327 . S
C1585 H1579 0.950 . S
C1585 C1584 1.327 . S
C1585 C1589 1.429 . S
C1586 C1569 1.574 . S
C1586 H1580 0.949 . S
C1586 C1590 1.368 . S
C1587 C1568 1.429 . S
C1587 C1581 1.429 . S
C1587 C1588 1.523 . S
C1588 C1569 1.368 . S
C1588 C1582 1.368 . S
C1588 C1587 1.523 . S
C1589 C1573 1.429 . S
C1589 C1585 1.429 . S
C1589 C1590 1.523 . S
C1590 C1574 1.368 . S
C1590 C1586 1.368 . S
C1590 C1589 1.523 . S
H1591 C1566 0.950 . S
H1592 C1568 0.950 . S
H1593 C1569 0.949 . S
H1594 C1571 0.950 . S
H1595 C1573 0.950 . S
C1596 C1597 1.349 . S
C1596 C1598 1.327 . S
C1596 H1621 0.950 . S
C1597 C1596 1.349 . S
C1597 C1613 1.349 . S
C1598 C1596 1.327 . S
C1598 C1617 1.429 . S
C1598 H1622 0.950 . S
C1599 C1616 1.574 . S
C1599 C1618 1.368 . S
C1599 H1623 0.949 . S
H1600 C1604 0.949 . S
C1601 C1602 1.349 . S
C1601 C1603 1.327 . S
C1601 H1624 0.950 . S
C1602 C1601 1.349 . S
C1602 C1614 1.349 . S
C1603 C1601 1.327 . S
C1603 C1619 1.429 . S
C1603 H1625 0.950 . S
C1604 H1600 0.949 . S
C1604 C1612 1.574 . S
C1604 C1620 1.368 . S
H1605 C1613 0.950 . S
H1606 C1611 0.950 . S
H1607 C1612 0.949 . S
H1608 C1614 0.950 . S
H1609 C1615 0.950 . S
H1610 C1616 0.949 . S
C1611 H1606 0.950 . S
C1611 C1613 1.327 . S
C1611 C1617 1.429 . S
C1612 C1604 1.574 . S
C1612 H1607 0.949 . S
C1612 C1618 1.368 . S
C1613 C1597 1.349 . S
C1613 H1605 0.950 . S
C1613 C1611 1.327 . S
C1614 C1602 1.349 . S
C1614 H1608 0.950 . S
C1614 C1615 1.327 . S
C1615 H1609 0.950 . S
C1615 C1614 1.327 . S
C1615 C1619 1.429 . S
C1616 C1599 1.574 . S
C1616 H1610 0.949 . S
C1616 C1620 1.368 . S
C1617 C1598 1.429 . S
C1617 C1611 1.429 . S
C1617 C1618 1.523 . S
C1618 C1599 1.368 . S
C1618 C1612 1.368 . S
C1618 C1617 1.523 . S
C1619 C1603 1.429 . S
C1619 C1615 1.429 . S
C1619 C1620 1.523 . S
C1620 C1604 1.368 . S
C1620 C1616 1.368 . S
C1620 C1619 1.523 . S
H1621 C1596 0.950 . S
H1622 C1598 0.950 . S
H1623 C1599 0.949 . S
H1624 C1601 0.950 . S
H1625 C1603 0.950 . S
C1626 C1627 1.349 . S
C1626 C1628 1.327 . S
C1626 H1651 0.950 . S
C1627 C1626 1.349 . S
C1627 C1643 1.349 . S
C1628 C1626 1.327 . S
C1628 C1647 1.429 . S
C1628 H1652 0.950 . S
C1629 C1646 1.574 1_655 S
C1629 C1648 1.368 . S
C1629 H1653 0.949 . S
H1630 C1634 0.949 . S
C1631 C1632 1.349 . S
C1631 C1633 1.327 . S
C1631 H1654 0.950 . S
C1632 C1631 1.349 . S
C1632 C1644 1.349 . S
C1633 C1631 1.327 . S
C1633 C1649 1.429 . S
C1633 H1655 0.950 . S
C1634 H1630 0.949 . S
C1634 C1642 1.574 1_455 S
C1634 C1650 1.368 . S
H1635 C1643 0.950 . S
H1636 C1641 0.950 . S
H1637 C1642 0.949 . S
H1638 C1644 0.950 . S
H1639 C1645 0.950 . S
H1640 C1646 0.949 . S
C1641 H1636 0.950 . S
C1641 C1643 1.327 . S
C1641 C1647 1.429 . S
C1642 C1634 1.574 1_655 S
C1642 H1637 0.949 . S
C1642 C1648 1.368 . S
C1643 C1627 1.349 . S
C1643 H1635 0.950 . S
C1643 C1641 1.327 . S
C1644 C1632 1.349 . S
C1644 H1638 0.950 . S
C1644 C1645 1.327 . S
C1645 H1639 0.950 . S
C1645 C1644 1.327 . S
C1645 C1649 1.429 . S
C1646 C1629 1.574 1_455 S
C1646 H1640 0.949 . S
C1646 C1650 1.368 . S
C1647 C1628 1.429 . S
C1647 C1641 1.429 . S
C1647 C1648 1.523 . S
C1648 C1629 1.368 . S
C1648 C1642 1.368 . S
C1648 C1647 1.523 . S
C1649 C1633 1.429 . S
C1649 C1645 1.429 . S
C1649 C1650 1.523 . S
C1650 C1634 1.368 . S
C1650 C1646 1.368 . S
C1650 C1649 1.523 . S
H1651 C1626 0.950 . S
H1652 C1628 0.950 . S
H1653 C1629 0.949 . S
H1654 C1631 0.950 . S
H1655 C1633 0.950 . S
C1656 C1657 1.349 . S
C1656 C1658 1.327 . S
C1656 H1681 0.950 . S
C1657 C1656 1.349 . S
C1657 C1673 1.349 . S
C1658 C1656 1.327 . S
C1658 C1677 1.429 . S
C1658 H1682 0.950 . S
C1659 C1676 1.574 1_554 S
C1659 C1678 1.368 1_565 S
C1659 H1683 0.949 . S
H1660 C1664 0.949 . S
C1661 C1662 1.349 . S
C1661 C1663 1.327 . S
C1661 H1684 0.950 . S
C1662 C1661 1.349 . S
C1662 C1674 1.349 . S
C1663 C1661 1.327 . S
C1663 C1679 1.429 . S
C1663 H1685 0.950 . S
C1664 H1660 0.949 . S
C1664 C1672 1.574 1_556 S
C1664 C1680 1.368 1_545 S
H1665 C1673 0.950 . S
H1666 C1671 0.950 1_565 S
H1667 C1672 0.949 . S
H1668 C1674 0.950 . S
H1669 C1675 0.950 1_545 S
H1670 C1676 0.949 . S
C1671 H1666 0.950 1_545 S
C1671 C1673 1.327 . S
C1671 C1677 1.429 . S
C1672 C1664 1.574 1_554 S
C1672 H1667 0.949 . S
C1672 C1678 1.368 . S
C1673 C1657 1.349 . S
C1673 H1665 0.950 . S
C1673 C1671 1.327 . S
C1674 C1662 1.349 . S
C1674 H1668 0.950 . S
C1674 C1675 1.327 . S
C1675 H1669 0.950 1_565 S
C1675 C1674 1.327 . S
C1675 C1679 1.429 . S
C1676 C1659 1.574 1_556 S
C1676 H1670 0.949 . S
C1676 C1680 1.368 . S
C1677 C1658 1.429 . S
C1677 C1671 1.429 . S
C1677 C1678 1.523 . S
C1678 C1659 1.368 1_545 S
C1678 C1672 1.368 . S
C1678 C1677 1.523 . S
C1679 C1663 1.429 . S
C1679 C1675 1.429 . S
C1679 C1680 1.523 . S
C1680 C1664 1.368 1_565 S
C1680 C1676 1.368 . S
C1680 C1679 1.523 . S
H1681 C1656 0.950 . S
H1682 C1658 0.950 . S
H1683 C1659 0.949 . S
H1684 C1661 0.950 . S
H1685 C1663 0.950 . S
C1686 C1687 1.349 . S
C1686 C1688 1.327 . S
C1686 H1711 0.950 . S
C1687 C1686 1.349 . S
C1687 C1703 1.349 . S
C1688 C1686 1.327 . S
C1688 C1707 1.429 . S
C1688 H1712 0.950 . S
C1689 C1706 1.574 . S
C1689 C1708 1.368 . S
C1689 H1713 0.949 . S
H1690 C1694 0.949 . S
C1691 C1692 1.349 . S
C1691 C1693 1.327 . S
C1691 H1714 0.950 . S
C1692 C1691 1.349 . S
C1692 C1704 1.349 . S
C1693 C1691 1.327 . S
C1693 C1709 1.429 . S
C1693 H1715 0.950 . S
C1694 H1690 0.949 . S
C1694 C1702 1.574 . S
C1694 C1710 1.368 . S
H1695 C1703 0.950 . S
H1696 C1701 0.950 . S
H1697 C1702 0.949 . S
H1698 C1704 0.950 . S
H1699 C1705 0.950 . S
H1700 C1706 0.949 . S
C1701 H1696 0.950 . S
C1701 C1703 1.327 . S
C1701 C1707 1.429 . S
C1702 C1694 1.574 . S
C1702 H1697 0.949 . S
C1702 C1708 1.368 . S
C1703 C1687 1.349 . S
C1703 H1695 0.950 . S
C1703 C1701 1.327 . S
C1704 C1692 1.349 . S
C1704 H1698 0.950 . S
C1704 C1705 1.327 . S
C1705 H1699 0.950 . S
C1705 C1704 1.327 . S
C1705 C1709 1.429 . S
C1706 C1689 1.574 . S
C1706 H1700 0.949 . S
C1706 C1710 1.368 . S
C1707 C1688 1.429 . S
C1707 C1701 1.429 . S
C1707 C1708 1.523 . S
C1708 C1689 1.368 . S
C1708 C1702 1.368 . S
C1708 C1707 1.523 . S
C1709 C1693 1.429 . S
C1709 C1705 1.429 . S
C1709 C1710 1.523 . S
C1710 C1694 1.368 . S
C1710 C1706 1.368 . S
C1710 C1709 1.523 . S
H1711 C1686 0.950 . S
H1712 C1688 0.950 . S
H1713 C1689 0.949 . S
H1714 C1691 0.950 . S
H1715 C1693 0.950 . S
C1716 C1717 1.349 . S
C1716 C1718 1.327 . S
C1716 H1741 0.950 . S
C1717 C1716 1.349 . S
C1717 C1733 1.349 . S
C1718 C1716 1.327 . S
C1718 C1737 1.429 . S
C1718 H1742 0.950 . S
C1719 C1736 1.574 1_455 S
C1719 C1738 1.368 . S
C1719 H1743 0.949 . S
H1720 C1724 0.949 . S
C1721 C1722 1.349 . S
C1721 C1723 1.327 . S
C1721 H1744 0.950 . S
C1722 C1721 1.349 . S
C1722 C1734 1.349 . S
C1723 C1721 1.327 . S
C1723 C1739 1.429 . S
C1723 H1745 0.950 . S
C1724 H1720 0.949 . S
C1724 C1732 1.574 1_655 S
C1724 C1740 1.368 . S
H1725 C1733 0.950 . S
H1726 C1731 0.950 . S
H1727 C1732 0.949 . S
H1728 C1734 0.950 . S
H1729 C1735 0.950 . S
H1730 C1736 0.949 . S
C1731 H1726 0.950 . S
C1731 C1733 1.327 . S
C1731 C1737 1.429 . S
C1732 C1724 1.574 1_455 S
C1732 H1727 0.949 . S
C1732 C1738 1.368 . S
C1733 C1717 1.349 . S
C1733 H1725 0.950 . S
C1733 C1731 1.327 . S
C1734 C1722 1.349 . S
C1734 H1728 0.950 . S
C1734 C1735 1.327 . S
C1735 H1729 0.950 . S
C1735 C1734 1.327 . S
C1735 C1739 1.429 . S
C1736 C1719 1.574 1_655 S
C1736 H1730 0.949 . S
C1736 C1740 1.368 . S
C1737 C1718 1.429 . S
C1737 C1731 1.429 . S
C1737 C1738 1.523 . S
C1738 C1719 1.368 . S
C1738 C1732 1.368 . S
C1738 C1737 1.523 . S
C1739 C1723 1.429 . S
C1739 C1735 1.429 . S
C1739 C1740 1.523 . S
C1740 C1724 1.368 . S
C1740 C1736 1.368 . S
C1740 C1739 1.523 . S
H1741 C1716 0.950 . S
H1742 C1718 0.950 . S
H1743 C1719 0.949 . S
H1744 C1721 0.950 . S
H1745 C1723 0.950 . S
C1746 C1747 1.349 . S
C1746 C1748 1.327 . S
C1746 H1771 0.950 . S
C1747 C1746 1.349 . S
C1747 C1763 1.349 . S
C1748 C1746 1.327 . S
C1748 C1767 1.429 . S
C1748 H1772 0.950 . S
C1749 C1766 1.574 1_554 S
C1749 C1768 1.368 1_545 S
C1749 H1773 0.949 . S
H1750 C1754 0.949 . S
C1751 C1752 1.349 . S
C1751 C1753 1.327 . S
C1751 H1774 0.950 . S
C1752 C1751 1.349 . S
C1752 C1764 1.349 . S
C1753 C1751 1.327 . S
C1753 C1769 1.429 . S
C1753 H1775 0.950 . S
C1754 H1750 0.949 . S
C1754 C1762 1.574 1_556 S
C1754 C1770 1.368 1_565 S
H1755 C1763 0.950 . S
H1756 C1761 0.950 1_545 S
H1757 C1762 0.949 . S
H1758 C1764 0.950 . S
H1759 C1765 0.950 1_565 S
H1760 C1766 0.949 . S
C1761 H1756 0.950 1_565 S
C1761 C1763 1.327 . S
C1761 C1767 1.429 . S
C1762 C1754 1.574 1_554 S
C1762 H1757 0.949 . S
C1762 C1768 1.368 . S
C1763 C1747 1.349 . S
C1763 H1755 0.950 . S
C1763 C1761 1.327 . S
C1764 C1752 1.349 . S
C1764 H1758 0.950 . S
C1764 C1765 1.327 . S
C1765 H1759 0.950 1_545 S
C1765 C1764 1.327 . S
C1765 C1769 1.429 . S
C1766 C1749 1.574 1_556 S
C1766 H1760 0.949 . S
C1766 C1770 1.368 . S
C1767 C1748 1.429 . S
C1767 C1761 1.429 . S
C1767 C1768 1.523 . S
C1768 C1749 1.368 1_565 S
C1768 C1762 1.368 . S
C1768 C1767 1.523 . S
C1769 C1753 1.429 . S
C1769 C1765 1.429 . S
C1769 C1770 1.523 . S
C1770 C1754 1.368 1_545 S
C1770 C1766 1.368 . S
C1770 C1769 1.523 . S
H1771 C1746 0.950 . S
H1772 C1748 0.950 . S
H1773 C1749 0.949 . S
H1774 C1751 0.950 . S
H1775 C1753 0.950 . S
C1057 C1017 1.648 . S
C1062 C20 1.648 . S
C1087 C108 1.648 . S
C1092 C585 1.648 . S
C1117 C205 1.648 . S
C1122 C673 1.648 . S
C1147 C284 1.648 . S
C1152 C761 1.648 . S
C1177 C841 1.648 . S
C1182 C372 1.648 . S
C1207 C469 1.648 . S
C1212 C937 1.648 . S
C1237 C313 1.287 . S
C1242 C49 1.287 . S
C1267 C401 1.287 . S
C1272 C137 1.287 . S
C1297 C497 1.287 . S
C1302 C233 1.287 . S
C1327 C557 1.287 . S
C1332 C812 1.287 . S
C1357 C645 1.287 . S
C1362 C909 1.287 . S
C1387 C733 1.287 . S
C1392 C988 1.287 . S
C1417 C724 0.638 . S
C1422 C57 0.638 . S
C1447 C145 0.638 . S
C1452 C821 0.638 . S
C1477 C900 0.638 . S
C1482 C225 0.638 . S
C1507 C997 0.638 . S
C1512 C321 0.638 . S
C1537 C548 0.638 . S
C1542 C409 0.638 . S
C1567 C489 0.638 . S
C1572 C636 0.638 . S
C1597 C849 1.717 . S
C1602 C29 1.717 . S
C1627 C117 1.717 . S
C1632 C929 1.717 . S
C1657 C1025 1.717 . S
C1662 C196 1.717 . S
C1687 C293 1.717 . S
C1692 C577 1.717 . S
C1717 C381 1.717 . S
C1722 C665 1.717 . S
C1747 C753 1.717 . S
C1752 C460 1.717 . S
