# Generated by pormake.
# Topology wjf, (4)-cn, num edge types: 1
# Building blocks:
#     Node 0, Type 0, BuildingBlock: CEKHIL_clean_sbu_0, # of connection points: 4
#     Node 1, Type 0, BuildingBlock: CEKHIL_clean_sbu_0, # of connection points: 4
#     Node 2, Type 0, BuildingBlock: CEKHIL_clean_sbu_0, # of connection points: 4
#     Node 3, Type 0, BuildingBlock: CEKHIL_clean_sbu_0, # of connection points: 4
#     Node 4, Type 0, BuildingBlock: CEKHIL_clean_sbu_0, # of connection points: 4
#     Node 5, Type 0, BuildingBlock: CEKHIL_clean_sbu_0, # of connection points: 4
#     Node 6, Type 0, BuildingBlock: CEKHIL_clean_sbu_0, # of connection points: 4
#     Node 7, Type 0, BuildingBlock: CEKHIL_clean_sbu_0, # of connection points: 4
#     Node 8, Type 0, BuildingBlock: CEKHIL_clean_sbu_0, # of connection points: 4
#     Node 9, Type 0, BuildingBlock: CEKHIL_clean_sbu_0, # of connection points: 4
#     Node 10, Type 0, BuildingBlock: CEKHIL_clean_sbu_0, # of connection points: 4
#     Node 11, Type 0, BuildingBlock: CEKHIL_clean_sbu_0, # of connection points: 4
#     Edge 12, Type (0, 0), BuildingBlock: MIFKUJ_clean_linker_0, # of connection points: 2
#     Edge 13, Type (0, 0), BuildingBlock: MIFKUJ_clean_linker_0, # of connection points: 2
#     Edge 14, Type (0, 0), BuildingBlock: MIFKUJ_clean_linker_0, # of connection points: 2
#     Edge 15, Type (0, 0), BuildingBlock: MIFKUJ_clean_linker_0, # of connection points: 2
#     Edge 16, Type (0, 0), BuildingBlock: MIFKUJ_clean_linker_0, # of connection points: 2
#     Edge 17, Type (0, 0), BuildingBlock: MIFKUJ_clean_linker_0, # of connection points: 2
#     Edge 18, Type (0, 0), BuildingBlock: MIFKUJ_clean_linker_0, # of connection points: 2
#     Edge 19, Type (0, 0), BuildingBlock: MIFKUJ_clean_linker_0, # of connection points: 2
#     Edge 20, Type (0, 0), BuildingBlock: MIFKUJ_clean_linker_0, # of connection points: 2
#     Edge 21, Type (0, 0), BuildingBlock: MIFKUJ_clean_linker_0, # of connection points: 2
#     Edge 22, Type (0, 0), BuildingBlock: MIFKUJ_clean_linker_0, # of connection points: 2
#     Edge 23, Type (0, 0), BuildingBlock: MIFKUJ_clean_linker_0, # of connection points: 2
#     Edge 24, Type (0, 0), BuildingBlock: MIFKUJ_clean_linker_0, # of connection points: 2
#     Edge 25, Type (0, 0), BuildingBlock: MIFKUJ_clean_linker_0, # of connection points: 2
#     Edge 26, Type (0, 0), BuildingBlock: MIFKUJ_clean_linker_0, # of connection points: 2
#     Edge 27, Type (0, 0), BuildingBlock: MIFKUJ_clean_linker_0, # of connection points: 2
#     Edge 28, Type (0, 0), BuildingBlock: MIFKUJ_clean_linker_0, # of connection points: 2
#     Edge 29, Type (0, 0), BuildingBlock: MIFKUJ_clean_linker_0, # of connection points: 2
#     Edge 30, Type (0, 0), BuildingBlock: MIFKUJ_clean_linker_0, # of connection points: 2
#     Edge 31, Type (0, 0), BuildingBlock: MIFKUJ_clean_linker_0, # of connection points: 2
#     Edge 32, Type (0, 0), BuildingBlock: MIFKUJ_clean_linker_0, # of connection points: 2
#     Edge 33, Type (0, 0), BuildingBlock: MIFKUJ_clean_linker_0, # of connection points: 2
#     Edge 34, Type (0, 0), BuildingBlock: MIFKUJ_clean_linker_0, # of connection points: 2
#     Edge 35, Type (0, 0), BuildingBlock: MIFKUJ_clean_linker_0, # of connection points: 2
# Relax obj value: 0.113
# Max RMSD: 0.134
# Mean RMSD: 0.134
data_MOF--net-wjf--node1-CEKHIL_clean_sbu_0--edge1-MIFKUJ_clean_linker_0
_symmetry_space_group_name_H-M    P1
_symmetry_Int_Tables_number       1
_symmetry_cell_setting            triclinic
loop_
_symmetry_equiv_pos_as_xyz
'x, y, z'
_cell_length_a     65.480416
_cell_length_b     65.490466
_cell_length_c     35.561825
_cell_angle_alpha  90.081039
_cell_angle_beta   89.889906
_cell_angle_gamma 119.94448
loop_
_atom_site_label
_atom_site_type_symbol
_atom_site_fract_x
_atom_site_fract_y
_atom_site_fract_z
_atom_type_partial_charge
Co0 Co 0.32958 0.38499 0.0741 0.0
O1 O 0.29596 0.37207 0.07457 0.0
O2 O 0.3216 0.40603 0.04835 0.0
C3 C 0.33351 0.3784 0.13478 0.0
O4 O 0.36544 0.40454 0.06952 0.0
Co5 Co 0.35112 0.3528 0.08948 0.0
O6 O 0.3817 0.38242 0.08502 0.0
C7 C 0.32897 0.35002 0.01652 0.0
C8 C 0.29977 0.39077 0.05616 0.0
C9 C 0.38343 0.40191 0.07512 0.0
O10 O 0.32707 0.36805 0.02543 0.0
O11 O 0.33645 0.34008 0.03924 0.0
O12 O 0.33173 0.3966 0.1253 0.0
O13 O 0.33034 0.36365 0.10821 0.0
Co14 Co 0.94515 0.32788 0.41156 0.0
O15 O 0.9238 0.29459 0.40876 0.0
O16 O 0.91698 0.32175 0.38452 0.0
C17 C 0.95412 0.32947 0.47275 0.0
O18 O 0.96279 0.36379 0.41076 0.0
Co19 Co 0.99794 0.34635 0.42941 0.0
O20 O 0.99847 0.3767 0.43681 0.0
C21 C 0.97991 0.32772 0.35418 0.0
C22 C 0.90974 0.29954 0.39034 0.0
C23 C 0.98238 0.38039 0.42414 0.0
O24 O 0.96038 0.32671 0.36301 0.0
O25 O 0.99665 0.33323 0.37772 0.0
O26 O 0.93475 0.32881 0.46253 0.0
O27 O 0.96574 0.32626 0.44618 0.0
Co28 Co 0.61579 0.94286 0.74663 0.0
O29 O 0.6291 0.92264 0.74174 0.0
O30 O 0.59343 0.91376 0.72236 0.0
C31 C 0.62588 0.9535 0.80664 0.0
O32 O 0.59593 0.95893 0.74803 0.0
Co33 Co 0.64884 0.99656 0.76074 0.0
O34 O 0.61895 0.99735 0.76271 0.0
C35 C 0.64907 0.97622 0.68753 0.0
C36 C 0.60946 0.90768 0.72561 0.0
C37 C 0.59891 0.97954 0.75525 0.0
O38 O 0.62981 0.95746 0.69652 0.0
O39 O 0.66094 0.99295 0.71077 0.0
O40 O 0.60734 0.93337 0.79892 0.0
O41 O 0.63893 0.96499 0.77834 0.0
Co42 Co 0.67448 0.61682 0.08024 0.0
O43 O 0.70821 0.63146 0.07669 0.0
O44 O 0.6829 0.59663 0.05262 0.0
C45 C 0.67295 0.62378 0.1417 0.0
O46 O 0.63861 0.59571 0.07942 0.0
Co47 Co 0.65067 0.64628 0.10129 0.0
O48 O 0.62199 0.61499 0.10636 0.0
C49 C 0.66936 0.64949 0.02486 0.0
C50 C 0.7047 0.6129 0.05811 0.0
C51 C 0.62054 0.59638 0.09237 0.0
O52 O 0.674 0.63303 0.03241 0.0
O53 O 0.66116 0.65811 0.0489 0.0
O54 O 0.67521 0.60601 0.13112 0.0
O55 O 0.67403 0.63782 0.11534 0.0
Co56 Co 0.05795 0.67114 0.40549 0.0
O57 O 0.07681 0.7047 0.39971 0.0
O58 O 0.0865 0.67902 0.37776 0.0
C59 C 0.0494 0.6707 0.46666 0.0
O60 O 0.04319 0.63544 0.40761 0.0
Co61 Co 0.00471 0.64928 0.42527 0.0
O62 O 0.00566 0.61949 0.42806 0.0
C63 C 0.02056 0.66539 0.34845 0.0
C64 C 0.09177 0.7009 0.38147 0.0
C65 C 0.02337 0.6177 0.41779 0.0
O66 O 0.04111 0.66882 0.35705 0.0
O67 O 0.00407 0.65978 0.37255 0.0
O68 O 0.06948 0.67284 0.45657 0.0
O69 O 0.03671 0.67184 0.4399 0.0
Co70 Co 0.38893 0.06174 0.74629 0.0
O71 O 0.37644 0.08265 0.74242 0.0
O72 O 0.41191 0.09097 0.72283 0.0
C73 C 0.37799 0.05066 0.80595 0.0
O74 O 0.40807 0.04486 0.74734 0.0
Co75 Co 0.35535 0.00812 0.75978 0.0
O76 O 0.38519 0.00836 0.77056 0.0
C77 C 0.35735 0.02839 0.68517 0.0
C78 C 0.39632 0.09761 0.72692 0.0
C79 C 0.40521 0.02516 0.76009 0.0
O80 O 0.37526 0.0479 0.69574 0.0
O81 O 0.34571 0.01097 0.70741 0.0
O82 O 0.39705 0.0705 0.79884 0.0
O83 O 0.36516 0.03968 0.77721 0.0
Co84 Co 0.61737 0.6735 0.57532 0.0
O85 O 0.62997 0.70695 0.57802 0.0
O86 O 0.59446 0.68023 0.59797 0.0
C87 C 0.62832 0.67246 0.5159 0.0
O88 O 0.59807 0.63755 0.57545 0.0
Co89 Co 0.65098 0.65325 0.56404 0.0
O90 O 0.62131 0.62253 0.55999 0.0
C91 C 0.65016 0.67452 0.63625 0.0
C92 C 0.61013 0.70235 0.59337 0.0
C93 C 0.60117 0.62005 0.56771 0.0
O94 O 0.63111 0.67411 0.62616 0.0
O95 O 0.66223 0.66922 0.61405 0.0
O96 O 0.60926 0.67336 0.5226 0.0
O97 O 0.64113 0.67465 0.54483 0.0
Co98 Co 0.94655 0.61992 0.90041 0.0
O99 O 0.92504 0.6318 0.9015 0.0
O100 O 0.91898 0.59909 0.92978 0.0
C101 C 0.95438 0.62496 0.83862 0.0
O102 O 0.9642 0.60158 0.90368 0.0
Co103 Co 0.99902 0.65255 0.87846 0.0
O104 O 0.9993 0.62248 0.87491 0.0
C105 C 0.98317 0.65579 0.95449 0.0
C106 C 0.91146 0.61363 0.92204 0.0
C107 C 0.98343 0.60359 0.89027 0.0
O108 O 0.96255 0.63846 0.947 0.0
O109 O 1.00004 0.66479 0.9306 0.0
O110 O 0.93539 0.60649 0.85067 0.0
O111 O 0.96651 0.6407 0.86367 0.0
Co112 Co 0.32998 0.94361 0.2376 0.0
O113 O 0.29646 0.92424 0.2429 0.0
O114 O 0.32259 0.91497 0.26431 0.0
C115 C 0.33033 0.95238 0.1765 0.0
O116 O 0.36586 0.95899 0.23625 0.0
Co117 Co 0.35192 0.99685 0.21782 0.0
O118 O 0.38113 0.99524 0.21113 0.0
C119 C 0.33388 0.98038 0.29412 0.0
C120 C 0.30063 0.90934 0.26046 0.0
C121 C 0.38338 0.9782 0.22345 0.0
O122 O 0.33116 0.95997 0.28626 0.0
O123 O 0.34019 0.99687 0.26984 0.0
O124 O 0.32853 0.93241 0.18613 0.0
O125 O 0.32925 0.96489 0.20366 0.0
Co126 Co 0.38736 0.33021 0.571 0.0
O127 O 0.37595 0.29689 0.57244 0.0
O128 O 0.40943 0.32414 0.59788 0.0
C129 C 0.38019 0.33225 0.50978 0.0
O130 O 0.40546 0.3661 0.57362 0.0
Co131 Co 0.35382 0.34956 0.55243 0.0
O132 O 0.38355 0.38025 0.54843 0.0
C133 C 0.35136 0.32885 0.6269 0.0
C134 C 0.39494 0.30196 0.59107 0.0
C135 C 0.40294 0.3833 0.56175 0.0
O136 O 0.3701 0.32791 0.61919 0.0
O137 O 0.34103 0.33517 0.60296 0.0
O138 O 0.39915 0.33204 0.51995 0.0
O139 O 0.36535 0.32887 0.53632 0.0
Co140 Co 0.05893 0.38848 0.90641 0.0
O141 O 0.07941 0.37536 0.9071 0.0
O142 O 0.08761 0.40929 0.93337 0.0
C143 C 0.04963 0.38202 0.8452 0.0
O144 O 0.04272 0.40819 0.90978 0.0
Co145 Co 0.00579 0.35718 0.88795 0.0
O146 O 0.00583 0.38742 0.88697 0.0
C147 C 0.02293 0.35451 0.96316 0.0
C148 C 0.09406 0.39383 0.92615 0.0
C149 C 0.023 0.40644 0.8997 0.0
O150 O 0.04365 0.37133 0.95455 0.0
O151 O 0.00566 0.34555 0.94009 0.0
O152 O 0.06911 0.40051 0.85563 0.0
O153 O 0.03765 0.36712 0.87134 0.0
Co154 Co 0.67459 0.05765 0.24109 0.0
O155 O 0.70797 0.07828 0.24635 0.0
O156 O 0.68057 0.08616 0.2668 0.0
C157 C 0.67477 0.04851 0.18027 0.0
O158 O 0.63863 0.04102 0.23979 0.0
Co159 Co 0.65441 0.00443 0.22245 0.0
O160 O 0.62384 0.00359 0.2197 0.0
C161 C 0.67125 0.02183 0.2989 0.0
C162 C 0.70277 0.0927 0.26317 0.0
C163 C 0.62126 0.02078 0.23018 0.0
O164 O 0.6742 0.04219 0.29024 0.0
O165 O 0.66488 0.0049 0.27543 0.0
O166 O 0.67552 0.06809 0.18949 0.0
O167 O 0.67644 0.03655 0.20773 0.0
H168 H 0.31201 0.37949 0.19919 0.0
H169 H 0.32074 0.37229 0.26305 0.0
H170 H 0.3786 0.36497 0.22021 0.0
H171 H 0.36819 0.36979 0.15618 0.0
H172 H 0.35907 0.33429 0.26798 0.0
H173 H 0.38359 0.41687 0.27199 0.0
H174 H 0.37921 0.45196 0.2649 0.0
H175 H 0.32263 0.42366 0.34522 0.0
H176 H 0.32649 0.38829 0.35248 0.0
H177 H 0.40943 0.34214 0.44918 0.0
H178 H 0.40306 0.35147 0.38509 0.0
H179 H 0.33632 0.34389 0.41902 0.0
H180 H 0.34264 0.33481 0.48304 0.0
H181 H 0.36217 0.38329 0.37664 0.0
H182 H 0.33861 0.30036 0.37057 0.0
H183 H 0.34487 0.26642 0.37789 0.0
H184 H 0.40323 0.29806 0.30102 0.0
H185 H 0.39749 0.33232 0.29361 0.0
C186 C 0.32657 0.37634 0.20368 0.0
C187 C 0.33951 0.3752 0.17314 0.0
C188 C 0.33176 0.37249 0.24016 0.0
C189 C 0.35077 0.36866 0.24683 0.0
C190 C 0.36385 0.36786 0.21602 0.0
C191 C 0.35801 0.37071 0.17944 0.0
C192 C 0.35644 0.36447 0.28557 0.0
C193 C 0.36018 0.34537 0.2915 0.0
C194 C 0.35744 0.3785 0.31671 0.0
C195 C 0.35522 0.39986 0.31255 0.0
C196 C 0.37014 0.41808 0.28799 0.0
C197 C 0.36775 0.43803 0.28396 0.0
C198 C 0.35062 0.44002 0.30453 0.0
C199 C 0.33588 0.42209 0.32928 0.0
C200 C 0.33818 0.40211 0.3334 0.0
C201 C 0.3934 0.34244 0.44293 0.0
C202 C 0.37649 0.33768 0.47103 0.0
C203 C 0.38977 0.34772 0.40634 0.0
C204 C 0.36913 0.34818 0.39732 0.0
C205 C 0.35236 0.34363 0.42545 0.0
C206 C 0.35597 0.33837 0.46196 0.0
C207 C 0.36487 0.35335 0.35857 0.0
C208 C 0.36131 0.37252 0.35281 0.0
C209 C 0.36444 0.33967 0.32751 0.0
C210 C 0.36776 0.31899 0.33182 0.0
C211 C 0.35288 0.30015 0.35544 0.0
C212 C 0.35632 0.28084 0.35956 0.0
C213 C 0.37448 0.28012 0.34001 0.0
C214 C 0.38919 0.29866 0.31619 0.0
C215 C 0.38584 0.31801 0.31199 0.0
H216 H 0.37711 0.26516 0.34325 0.0
H217 H 0.34879 0.45546 0.30135 0.0
H218 H 0.93383 0.33886 0.53231 0.0
H219 H 0.94985 0.3509 0.5957 0.0
H220 H 0.01118 0.34658 0.56366 0.0
H221 H 0.99541 0.33483 0.50012 0.0
H222 H 0.96019 0.32938 0.64849 0.0
H223 H 0.05918 0.38944 0.60699 0.0
H224 H 0.08198 0.41632 0.55523 0.0
H225 H 0.02402 0.42723 0.53001 0.0
H226 H 1.001 0.40066 0.5818 0.0
H227 H 0.02702 0.34091 0.80711 0.0
H228 H 0.01149 0.33462 0.74318 0.0
H229 H 0.03571 0.40901 0.73309 0.0
H230 H 0.05291 0.41549 0.79625 0.0
H231 H 0.04151 0.39529 0.67003 0.0
H232 H 0.97566 0.36541 0.75253 0.0
H233 H 0.95024 0.34221 0.80537 0.0
H234 H 0.93691 0.27813 0.75098 0.0
H235 H 0.96252 0.30097 0.69804 0.0
C236 C 0.95072 0.34047 0.5388 0.0
C237 C 0.9634 0.33595 0.51129 0.0
C238 C 0.95983 0.34731 0.57501 0.0
C239 C 0.98181 0.34988 0.58425 0.0
C240 C 0.99436 0.34508 0.55693 0.0
C241 C 0.98527 0.33824 0.52072 0.0
C242 C 0.99151 0.35716 0.62264 0.0
C243 C 0.97793 0.34383 0.65327 0.0
C244 C 0.01432 0.37655 0.62893 0.0
C245 C 0.02829 0.39287 0.59809 0.0
C246 C 0.05134 0.39766 0.5905 0.0
C247 C 0.06429 0.41281 0.5611 0.0
C248 C 0.05442 0.42339 0.53923 0.0
C249 C 0.03161 0.41893 0.54681 0.0
C250 C 0.0186 0.40379 0.57615 0.0
C251 C 0.02913 0.35589 0.79104 0.0
C252 C 0.04098 0.37862 0.80638 0.0
C253 C 0.0201 0.35229 0.75465 0.0
C254 C 0.02178 0.37122 0.73358 0.0
C255 C 0.03409 0.39409 0.74875 0.0
C256 C 0.04385 0.39779 0.78478 0.0
C257 C 0.01047 0.36698 0.69599 0.0
C258 C 0.02371 0.38092 0.66543 0.0
C259 C 0.98691 0.34877 0.68996 0.0
C260 C 0.97112 0.33492 0.72142 0.0
C261 C 0.96738 0.34637 0.7519 0.0
C262 C 0.95294 0.33329 0.78188 0.0
C263 C 0.94199 0.30871 0.78156 0.0
C264 C 0.9454 0.29717 0.75119 0.0
C265 C 0.95985 0.31017 0.72117 0.0
H266 H 0.93084 0.29861 0.80481 0.0
H267 H 0.06446 0.4351 0.51647 0.0
H268 H 0.61687 0.92965 0.87257 0.0
H269 H 0.62556 0.94624 0.93604 0.0
H270 H 0.65278 0.01606 0.88965 0.0
H271 H 0.6459 0.99961 0.82631 0.0
H272 H 0.6794 0.01962 0.94172 0.0
H273 H 0.59526 0.98155 0.93451 0.0
H274 H 0.55481 0.94894 0.92358 0.0
H275 H 0.56318 0.90868 0.01122 0.0
H276 H 0.6038 0.94092 0.02234 0.0
H277 H 0.67355 0.07123 0.11674 0.0
H278 H 0.66522 0.0556 0.05247 0.0
H279 H 0.65706 0.98974 0.09228 0.0
H280 H 0.66554 0.00523 0.15636 0.0
H281 H 0.62036 0.98521 0.0443 0.0
H282 H 0.70589 0.02607 0.04949 0.0
H283 H 0.7451 0.06083 0.06011 0.0
H284 H 0.73153 0.09888 0.97482 0.0
H285 H 0.69209 0.06443 0.96406 0.0
C286 C 0.62475 0.94853 0.87611 0.0
C287 C 0.6307 0.96339 0.84477 0.0
C288 C 0.62951 0.958 0.91235 0.0
C289 C 0.63934 0.98241 0.91783 0.0
C290 C 0.64521 0.9972 0.88629 0.0
C291 C 0.64121 0.9878 0.85008 0.0
C292 C 0.64404 0.99264 0.95627 0.0
C293 C 0.66627 0.01226 0.96388 0.0
C294 C 0.62712 0.98296 0.98556 0.0
C295 C 0.60265 0.96358 0.97902 0.0
C296 C 0.58853 0.96568 0.95129 0.0
C297 C 0.56556 0.94727 0.94508 0.0
C298 C 0.55645 0.92673 0.96663 0.0
C299 C 0.57027 0.92458 -0.00549 0.0
C300 C 0.59326 0.94293 0.00081 0.0
C301 C 0.67004 0.05345 0.11173 0.0
C302 C 0.6702 0.03944 0.14148 0.0
C303 C 0.66533 0.04459 0.07509 0.0
C304 C 0.66062 0.02158 0.06781 0.0
C305 C 0.66064 0.00753 0.09748 0.0
C306 C 0.66556 0.01644 0.134 0.0
C307 C 0.65551 0.01198 0.02926 0.0
C308 C 0.63327 0.99252 0.02182 0.0
C309 C 0.67217 0.02213 -6e-05 0.0
C310 C 0.69596 0.04276 0.00624 0.0
C311 C 0.71119 0.04191 0.03322 0.0
C312 C 0.73347 0.06154 0.03922 0.0
C313 C 0.74077 0.08207 0.01822 0.0
C314 C 0.72584 0.08298 -0.0089 0.0
C315 C 0.70353 0.0634 0.98502 0.0
H316 H 0.75803 0.09725 0.02291 0.0
H317 H 0.53867 0.9125 0.96177 0.0
H318 H 0.64798 0.64393 0.16668 0.0
H319 H 0.64139 0.65112 0.23148 0.0
H320 H 0.68245 0.62027 0.27029 0.0
H321 H 0.68756 0.61141 0.20502 0.0
H322 H 0.64886 0.60857 0.31628 0.0
H323 H 0.70519 0.68237 0.26488 0.0
H324 H 0.72238 0.71496 0.21909 0.0
H325 H 0.66494 0.72785 0.23736 0.0
H326 H 0.64722 0.69511 0.28291 0.0
H327 H 0.66327 0.66328 0.49675 0.0
H328 H 0.67286 0.65526 0.43388 0.0
H329 H 0.6171 0.66411 0.38685 0.0
H330 H 0.60724 0.67198 0.44967 0.0
H331 H 0.66199 0.68812 0.34771 0.0
H332 H 0.60724 0.61169 0.40233 0.0
H333 H 0.59626 0.58287 0.45373 0.0
H334 H 0.65829 0.57797 0.43288 0.0
H335 H 0.6701 0.60745 0.38221 0.0
C336 C 0.65547 0.63853 0.18901 0.0
C337 C 0.66844 0.62731 0.18097 0.0
C338 C 0.65186 0.64282 0.22609 0.0
C339 C 0.66206 0.63694 0.25582 0.0
C340 C 0.67455 0.62513 0.24785 0.0
C341 C 0.67751 0.62014 0.21064 0.0
C342 C 0.65979 0.64341 0.295 0.0
C343 C 0.65208 0.62608 0.32316 0.0
C344 C 0.6641 0.6663 0.30426 0.0
C345 C 0.67479 0.68616 0.27711 0.0
C346 C 0.69615 0.69206 0.25898 0.0
C347 C 0.70599 0.71057 0.23308 0.0
C348 C 0.69473 0.72344 0.22527 0.0
C349 C 0.67363 0.71786 0.24343 0.0
C350 C 0.6637 0.69934 0.26933 0.0
C351 C 0.65308 0.66357 0.47301 0.0
C352 C 0.63443 0.66813 0.47803 0.0
C353 C 0.65859 0.659 0.43721 0.0
C354 C 0.64559 0.65902 0.40596 0.0
C355 C 0.6273 0.66405 0.41076 0.0
C356 C 0.62164 0.66842 0.4466 0.0
C357 C 0.65061 0.6532 0.36826 0.0
C358 C 0.65892 0.6707 0.34056 0.0
C359 C 0.64756 0.63075 0.3598 0.0
C360 C 0.63968 0.61197 0.38872 0.0
C361 C 0.61861 0.60456 0.40881 0.0
C362 C 0.61225 0.58814 0.43787 0.0
C363 C 0.62659 0.57861 0.4466 0.0
C364 C 0.64723 0.5854 0.42613 0.0
C365 C 0.65378 0.60201 0.39728 0.0
H366 H 0.62172 0.566 0.46925 0.0
H367 H 0.70237 0.73775 0.20519 0.0
H368 H 0.93741 0.59101 0.78405 0.0
H369 H 0.95301 0.59412 0.72032 0.0
H370 H 0.00538 0.66665 0.74155 0.0
H371 H 0.99038 0.66343 0.80536 0.0
H372 H 0.95689 0.61933 0.66135 0.0
H373 H 0.05632 0.68081 0.70056 0.0
H374 H 0.08241 0.68653 0.75433 0.0
H375 H 0.03592 0.61548 0.79055 0.0
H376 H 0.00981 0.60917 0.73664 0.0
H377 H 0.01778 0.67977 0.50091 0.0
H378 H 1.00134 0.66813 0.56407 0.0
H379 H 0.04279 0.6343 0.58131 0.0
H380 H 0.06035 0.64729 0.51884 0.0
H381 H 0.04299 0.65382 0.64198 0.0
H382 H 0.98138 0.60226 0.56177 0.0
H383 H 0.95408 0.59025 0.50798 0.0
H384 H 0.92301 0.62935 0.553 0.0
H385 H 0.95033 0.64186 0.60686 0.0
C386 C 0.95224 0.6076 0.77503 0.0
C387 C 0.96281 0.62694 0.79966 0.0
C388 C 0.96109 0.60936 0.73865 0.0
C389 C 0.9806 0.63049 0.72641 0.0
C390 C 0.99067 0.65 0.75068 0.0
C391 C 0.98201 0.64819 0.78708 0.0
C392 C 0.99058 0.6324 0.6883 0.0
C393 C 0.97568 0.62675 0.65705 0.0
C394 C 0.01496 0.64109 0.68273 0.0
C395 C 0.03101 0.64459 0.71465 0.0
C396 C 0.05176 0.66634 0.71981 0.0
C397 C 0.06654 0.6697 0.75036 0.0
C398 C 0.0608 0.6514 0.77588 0.0
C399 C 0.04033 0.62966 0.77082 0.0
C400 C 0.02553 0.62619 0.74027 0.0
C401 C 0.02345 0.66998 0.51834 0.0
C402 C 0.04028 0.66441 0.5052 0.0
C403 C 0.0139 0.66312 0.55428 0.0
C404 C 0.02035 0.64979 0.5772 0.0
C405 C 0.03746 0.6445 0.56418 0.0
C406 C 0.0475 0.65192 0.52855 0.0
C407 C 0.00944 0.64176 0.61488 0.0
C408 C 0.02415 0.64616 0.64613 0.0
C409 C 0.98473 0.63082 0.62034 0.0
C410 C 0.96801 0.62311 0.58827 0.0
C411 C 0.9688 0.60839 0.56012 0.0
C412 C 0.95332 0.60149 0.52961 0.0
C413 C 0.93685 0.60907 0.52704 0.0
C414 C 0.93578 0.6235 0.55504 0.0
C415 C 0.95123 0.63047 0.5856 0.0
H416 H 0.92489 0.60373 0.50338 0.0
H417 H 0.07223 0.65406 0.79955 0.0
H418 H 0.35127 0.99799 0.15394 0.0
H419 H 0.35945 0.0131 0.09008 0.0
H420 H 0.32794 0.94209 0.047 0.0
H421 H 0.32108 0.92689 0.11161 0.0
H422 H 0.36412 0.96889 0.00621 0.0
H423 H 0.29794 0.97433 0.04795 0.0
H424 H 0.2746 0.98451 0.09056 0.0
H425 H 0.32576 0.05799 0.07961 0.0
H426 H 0.34957 0.04823 0.03732 0.0
H427 H 0.34603 0.00539 0.82455 0.0
H428 H 0.33786 0.98753 0.88706 0.0
H429 H 0.38885 0.05422 0.93518 0.0
H430 H 0.39762 0.07219 0.87246 0.0
H431 H 0.34065 0.02761 0.97079 0.0
H432 H 0.40651 0.01918 0.92726 0.0
H433 H 0.42577 0.00666 0.8802 0.0
H434 H 0.36961 0.93504 0.89042 0.0
H435 H 0.34976 0.94722 0.93698 0.0
C436 C 0.34615 0.98556 0.13096 0.0
C437 C 0.33535 0.96126 0.13767 0.0
C438 C 0.35071 0.99422 0.09437 0.0
C439 C 0.34371 0.97871 0.06366 0.0
C440 C 0.33336 0.95439 0.07027 0.0
C441 C 0.32936 0.94572 0.10709 0.0
C442 C 0.34707 0.98808 0.02483 0.0
C443 C 0.35868 0.98147 -0.00161 0.0
C444 C 0.34 0.00455 0.01449 0.0
C445 C 0.32563 0.01053 0.03968 0.0
C446 C 0.30428 0.99265 0.0548 0.0
C447 C 0.29096 0.99835 0.07888 0.0
C448 C 0.29872 0.02188 0.08785 0.0
C449 C 0.31978 0.03977 0.07266 0.0
C450 C 0.33318 0.03417 0.04859 0.0
C451 C 0.35553 0.01628 0.84839 0.0
C452 C 0.37254 0.04016 0.84372 0.0
C453 C 0.35085 0.00603 0.88398 0.0
C454 C 0.36286 0.0196 0.9154 0.0
C455 C 0.37949 0.04355 0.91103 0.0
C456 C 0.38449 0.05373 0.87532 0.0
C457 C 0.35802 0.00874 0.95293 0.0
C458 C 0.34601 0.015 0.97888 0.0
C459 C 0.36419 0.99158 0.96242 0.0
C460 C 0.37653 0.98415 0.93536 0.0
C461 C 0.39818 1.00079 0.91928 0.0
C462 C 0.40921 0.99375 0.89271 0.0
C463 C 0.3989 0.97008 0.88227 0.0
C464 C 0.37757 0.95338 0.8985 0.0
C465 C 0.36643 0.96033 0.925 0.0
H466 H 0.40745 0.96468 0.86165 0.0
H467 H 0.28838 0.02625 0.10651 0.0
H468 H 0.11127 0.36434 0.91295 0.0
H469 H 0.14789 0.36774 0.93578 0.0
H470 H 0.16509 0.43291 -0.00838 0.0
H471 H 0.12808 0.42946 0.96909 0.0
H472 H 0.19291 0.39949 0.92456 0.0
H473 H 0.19525 0.43554 0.07352 0.0
H474 H 0.16788 0.43548 0.12141 0.0
H475 H 0.11234 0.37007 0.07774 0.0
H476 H 0.13945 0.36958 0.02997 0.0
H477 H 0.30154 0.42556 0.01118 0.0
H478 H 0.26836 0.43007 0.9902 0.0
H479 H 0.22043 0.3683 0.05349 0.0
H480 H 0.25338 0.36373 0.07463 0.0
H481 H 0.20965 0.40318 0.06119 0.0
H482 H 0.22669 0.36409 0.96151 0.0
H483 H 0.25186 0.35958 0.91443 0.0
H484 H 0.26445 0.42335 0.86004 0.0
H485 H 0.23964 0.42843 0.90722 0.0
C486 C 0.12283 0.37946 0.93002 0.0
C487 C 0.11673 0.3966 0.93932 0.0
C488 C 0.14383 0.38142 0.94292 0.0
C489 C 0.15919 0.40051 0.96554 0.0
C490 C 0.15337 0.4179 0.97448 0.0
C491 C 0.13227 0.41595 0.96152 0.0
C492 C 0.18098 0.40167 0.98016 0.0
C493 C 0.19668 0.40054 0.95443 0.0
C494 C 0.18575 0.4027 0.01915 0.0
C495 C 0.16931 0.40271 0.04789 0.0
C496 C 0.1772 0.42113 0.0742 0.0
C497 C 0.16174 0.42119 0.10133 0.0
C498 C 0.13836 0.40283 0.10252 0.0
C499 C 0.13042 0.38433 0.07668 0.0
C500 C 0.14582 0.38417 0.04955 0.0
C501 C 0.28394 0.41303 0.02078 0.0
C502 C 0.28005 0.39421 0.04438 0.0
C503 C 0.26502 0.41562 0.00875 0.0
C504 C 0.24192 0.39944 0.02015 0.0
C505 C 0.23811 0.38101 0.04446 0.0
C506 C 0.25696 0.37836 0.05633 0.0
C507 C 0.22151 0.40097 0.00558 0.0
C508 C 0.20609 0.4026 0.0313 0.0
C509 C 0.2167 0.39986 0.96662 0.0
C510 C 0.23155 0.39679 0.93816 0.0
C511 C 0.23499 0.37726 0.93971 0.0
C512 C 0.24917 0.37458 0.91298 0.0
C513 C 0.25981 0.39121 0.88432 0.0
C514 C 0.25624 0.41051 0.8823 0.0
C515 C 0.24213 0.4133 0.90903 0.0
H516 H 0.27076 0.3891 0.86363 0.0
H517 H 0.12642 0.4029 0.12353 0.0
H518 H 0.87789 0.30306 0.34429 0.0
H519 H 0.84088 0.27051 0.31941 0.0
H520 H 0.85311 0.22073 0.38045 0.0
H521 H 0.88991 0.2528 0.40475 0.0
H522 H 0.84208 0.20805 0.30789 0.0
H523 H 0.8125 0.23684 0.40969 0.0
H524 H 0.80721 0.26751 0.44108 0.0
H525 H 0.77381 0.27468 0.34215 0.0
H526 H 0.77915 0.24423 0.31004 0.0
H527 H 0.73992 0.09981 0.30535 0.0
H528 H 0.77297 0.1374 0.32588 0.0
H529 H 0.74182 0.17426 0.27158 0.0
H530 H 0.70766 0.13625 0.25365 0.0
H531 H 0.76251 0.19721 0.33081 0.0
H532 H 0.78817 0.16749 0.22997 0.0
H533 H 0.79366 0.13806 0.1949 0.0
H534 H 0.83547 0.1349 0.28514 0.0
H535 H 0.82998 0.16408 0.32097 0.0
C536 C 0.87256 0.28517 0.3525 0.0
C537 C 0.88685 0.28048 0.37635 0.0
C538 C 0.85141 0.26662 0.33838 0.0
C539 C 0.84423 0.2432 0.34816 0.0
C540 C 0.85835 0.23865 0.37239 0.0
C541 C 0.8794 0.25704 0.38631 0.0
C542 C 0.82249 0.22305 0.33257 0.0
C543 C 0.82466 0.20559 0.31311 0.0
C544 C 0.79986 0.22039 0.33781 0.0
C545 C 0.79644 0.23845 0.35736 0.0
C546 C 0.80417 0.24507 0.39457 0.0
C547 C 0.80114 0.26239 0.4125 0.0
C548 C 0.79024 0.27309 0.39359 0.0
C549 C 0.78228 0.26642 0.35675 0.0
C550 C 0.78528 0.24912 0.33869 0.0
C551 C 0.74007 0.11597 0.29824 0.0
C552 C 0.72152 0.11532 0.27774 0.0
C553 C 0.75903 0.13746 0.30964 0.0
C554 C 0.7604 0.1588 0.29909 0.0
C555 C 0.74133 0.15809 0.27976 0.0
C556 C 0.72188 0.13645 0.26949 0.0
C557 C 0.78203 0.18163 0.30753 0.0
C558 C 0.7799 0.19969 0.32523 0.0
C559 C 0.80483 0.18513 0.30002 0.0
C560 C 0.80855 0.1679 0.27822 0.0
C561 C 0.79847 0.16046 0.24238 0.0
C562 C 0.80157 0.14381 0.22238 0.0
C563 C 0.81488 0.13459 0.23781 0.0
C564 C 0.82517 0.14206 0.27323 0.0
C565 C 0.8221 0.15868 0.29336 0.0
H566 H 0.81724 0.12169 0.22229 0.0
H567 H 0.78793 0.2865 0.40751 0.0
H568 H 0.56784 0.86681 0.71357 0.0
H569 H 0.56272 0.82922 0.68979 0.0
H570 H 0.63807 0.8606 0.67923 0.0
H571 H 0.64337 0.89781 0.70407 0.0
H572 H 0.60443 0.83243 0.6117 0.0
H573 H 0.62339 0.83095 0.74453 0.0
H574 H 0.61669 0.83295 0.81237 0.0
H575 H 0.54603 0.77497 0.80133 0.0
H576 H 0.55224 0.7729 0.73323 0.0
H577 H 0.64023 0.74943 0.58646 0.0
H578 H 0.63424 0.78157 0.60666 0.0
H579 H 0.56478 0.7315 0.64716 0.0
H580 H 0.57083 0.69895 0.62737 0.0
H581 H 0.58797 0.76618 0.69744 0.0
H582 H 0.57088 0.76247 0.56749 0.0
H583 H 0.57638 0.76002 0.49937 0.0
H584 H 0.64061 0.82669 0.50289 0.0
H585 H 0.6357 0.82939 0.57116 0.0
C586 C 0.58327 0.86562 0.70618 0.0
C587 C 0.606 0.88513 0.71078 0.0
C588 C 0.58032 0.84421 0.69269 0.0
C589 C 0.60004 0.84228 0.68286 0.0
C590 C 0.62268 0.86185 0.68673 0.0
C591 C 0.62566 0.88301 0.70104 0.0
C592 C 0.5973 0.81984 0.66869 0.0
C593 C 0.6009 0.81792 0.63032 0.0
C594 C 0.5919 0.80075 0.69295 0.0
C595 C 0.58815 0.80202 0.73376 0.0
C596 C 0.60633 0.81883 0.7565 0.0
C597 C 0.60265 0.81993 0.795 0.0
C598 C 0.58091 0.80416 0.81113 0.0
C599 C 0.56284 0.78722 0.78879 0.0
C600 C 0.56643 0.78607 0.75024 0.0
C601 C 0.62361 0.74517 0.59952 0.0
C602 C 0.60596 0.72163 0.60522 0.0
C603 C 0.62016 0.7636 0.61086 0.0
C604 C 0.59891 0.75896 0.62787 0.0
C605 C 0.58126 0.73547 0.63389 0.0
C606 C 0.58472 0.71692 0.62252 0.0
C607 C 0.59577 0.77887 0.64034 0.0
C608 C 0.59106 0.7804 0.67846 0.0
C609 C 0.59992 0.79754 0.61568 0.0
C610 C 0.60299 0.79605 0.57455 0.0
C611 C 0.58628 0.77653 0.55381 0.0
C612 C 0.58927 0.77511 0.51515 0.0
C613 C 0.60885 0.79317 0.49683 0.0
C614 C 0.62545 0.81271 0.51713 0.0
C615 C 0.62256 0.81421 0.55581 0.0
H616 H 0.61114 0.79203 0.46689 0.0
H617 H 0.5781 0.80502 0.84095 0.0
H618 H 0.75077 0.64719 0.05463 0.0
H619 H 0.78412 0.64384 0.03187 0.0
H620 H 0.73767 0.57 0.00864 0.0
H621 H 0.70398 0.57349 0.03029 0.0
H622 H 0.8039 0.62063 0.05501 0.0
H623 H 0.7596 0.55308 0.93532 0.0
H624 H 0.72645 0.53973 0.89086 0.0
H625 H 0.73149 0.60761 0.89649 0.0
H626 H 0.76484 0.62142 0.94061 0.0
H627 H 0.88544 0.58702 0.98203 0.0
H628 H 0.84859 0.58338 0.0064 0.0
H629 H 0.84943 0.62852 0.91748 0.0
H630 H 0.8862 0.6325 0.89348 0.0
H631 H 0.80515 0.58931 0.92847 0.0
H632 H 0.86832 0.65096 -0.00159 0.0
H633 H 0.90319 0.66919 0.03961 0.0
H634 H 0.86321 0.6215 0.12849 0.0
H635 H 0.82829 0.60244 0.08737 0.0
C636 C 0.74761 0.63023 0.04457 0.0
C637 C 0.72474 0.61061 0.04411 0.0
C638 C 0.76673 0.62832 0.0317 0.0
C639 C 0.76345 0.60671 0.01831 0.0
C640 C 0.74062 0.58696 0.01825 0.0
C641 C 0.72139 0.58895 0.03071 0.0
C642 C 0.78405 0.60513 0.00439 0.0
C643 C 0.80407 0.61359 0.02745 0.0
C644 C 0.78445 0.5962 0.96826 0.0
C645 C 0.76451 0.58816 0.9416 0.0
C646 C 0.75365 0.56515 0.927 0.0
C647 C 0.73483 0.55751 0.90187 0.0
C648 C 0.72681 0.57279 0.89097 0.0
C649 C 0.73765 0.59577 0.90507 0.0
C650 C 0.75649 0.6035 0.93018 0.0
C651 C 0.87761 0.59597 0.96758 0.0
C652 C 0.88866 0.61008 0.93594 0.0
C653 C 0.85664 0.59393 0.98154 0.0
C654 C 0.84634 0.6057 0.9637 0.0
C655 C 0.85705 0.61923 0.93154 0.0
C656 C 0.87812 0.62158 0.918 0.0
C657 C 0.82488 0.60485 0.97908 0.0
C658 C 0.80475 0.59592 0.9563 0.0
C659 C 0.8246 0.61391 0.01508 0.0
C660 C 0.84577 0.62498 0.03955 0.0
C661 C 0.86706 0.64407 0.0265 0.0
C662 C 0.88684 0.65459 0.04988 0.0
C663 C 0.88545 0.64645 0.08659 0.0
C664 C 0.86429 0.62772 0.09998 0.0
C665 C 0.84452 0.617 0.07661 0.0
H666 H 0.90076 0.65469 0.1047 0.0
H667 H 0.71224 0.56684 0.87152 0.0
H668 H 0.10737 0.74766 0.39008 0.0
H669 H 0.14367 0.78085 0.3662 0.0
H670 H 0.16203 0.73302 0.31305 0.0
H671 H 0.12569 0.69933 0.33773 0.0
H672 H 0.19763 0.77405 0.36689 0.0
H673 H 0.16786 0.7769 0.2246 0.0
H674 H 0.13586 0.77379 0.18399 0.0
H675 H 0.11128 0.80001 0.27371 0.0
H676 H 0.14365 0.80406 0.31422 0.0
H677 H 0.29966 0.86758 0.27329 0.0
H678 H 0.26541 0.82995 0.29208 0.0
H679 H 0.22364 0.86404 0.30089 0.0
H680 H 0.25729 0.90105 0.28041 0.0
H681 H 0.20029 0.82631 0.26395 0.0
H682 H 0.24508 0.84542 0.37949 0.0
H683 H 0.27975 0.85487 0.41867 0.0
H684 H 0.27521 0.78943 0.38699 0.0
H685 H 0.24067 0.77973 0.34725 0.0
C686 C 0.11897 0.74408 0.37307 0.0
C687 C 0.11361 0.72082 0.36578 0.0
C688 C 0.13962 0.76313 0.35911 0.0
C689 C 0.15519 0.75938 0.33706 0.0
C690 C 0.15 0.73622 0.32959 0.0
C691 C 0.12931 0.71704 0.34379 0.0
C692 C 0.17764 0.77981 0.32447 0.0
C693 C 0.19837 0.78539 0.34409 0.0
C694 C 0.17849 0.79474 0.29521 0.0
C695 C 0.15761 0.78998 0.27278 0.0
C696 C 0.1554 0.78166 0.23575 0.0
C697 C 0.13745 0.7801 0.21258 0.0
C698 C 0.12152 0.78667 0.22629 0.0
C699 C 0.12354 0.7948 0.2632 0.0
C700 C 0.14167 0.79672 0.28629 0.0
C701 C 0.28317 0.86696 0.27958 0.0
C702 C 0.28101 0.88712 0.27515 0.0
C703 C 0.26364 0.8455 0.29047 0.0
C704 C 0.24187 0.84409 0.29804 0.0
C705 C 0.24012 0.86454 0.29488 0.0
C706 C 0.25938 0.88573 0.28324 0.0
C707 C 0.22041 0.82131 0.30726 0.0
C708 C 0.19983 0.81503 0.28666 0.0
C709 C 0.21971 0.80614 0.33624 0.0
C710 C 0.24047 0.81198 0.36007 0.0
C711 C 0.25159 0.83314 0.38065 0.0
C712 C 0.27119 0.83852 0.403 0.0
C713 C 0.27972 0.8228 0.40523 0.0
C714 C 0.26861 0.80162 0.38518 0.0
C715 C 0.24902 0.79616 0.36277 0.0
H716 H 0.29489 0.827 0.42255 0.0
H717 H 0.10759 0.78537 0.20836 0.0
H718 H 0.36773 0.11615 0.73736 0.0
H719 H 0.37347 0.1538 0.71502 0.0
H720 H 0.44017 0.16981 0.66605 0.0
H721 H 0.43443 0.1318 0.68823 0.0
H722 H 0.40658 0.19897 0.72844 0.0
H723 H 0.44565 0.20004 0.5835 0.0
H724 H 0.44653 0.17227 0.53738 0.0
H725 H 0.37892 0.11787 0.57621 0.0
H726 H 0.37754 0.1454 0.6222 0.0
H727 H 0.43046 0.30617 0.63701 0.0
H728 H 0.43667 0.27435 0.65996 0.0
H729 H 0.37594 0.22372 0.59739 0.0
H730 H 0.36971 0.25524 0.57433 0.0
H731 H 0.41216 0.21482 0.5913 0.0
H732 H 0.37131 0.23178 0.68928 0.0
H733 H 0.36632 0.25725 0.73513 0.0
H734 H 0.43058 0.27182 0.78997 0.0
H735 H 0.43612 0.24668 0.74405 0.0
C736 C 0.38369 0.12767 0.72197 0.0
C737 C 0.40058 0.12094 0.71437 0.0
C738 C 0.387 0.14928 0.70941 0.0
C739 C 0.40719 0.16458 0.68879 0.0
C740 C 0.42437 0.15817 0.68172 0.0
C741 C 0.42109 0.13649 0.69442 0.0
C742 C 0.40944 0.18668 0.67351 0.0
C743 C 0.40811 0.2026 0.69849 0.0
C744 C 0.41119 0.19129 0.63443 0.0
C745 C 0.41165 0.17469 0.60654 0.0
C746 C 0.43096 0.18216 0.58209 0.0
C747 C 0.43155 0.16647 0.55599 0.0
C748 C 0.41283 0.1433 0.55396 0.0
C749 C 0.39344 0.13579 0.5779 0.0
C750 C 0.39277 0.15143 0.60401 0.0
C751 C 0.41854 0.28826 0.62799 0.0
C752 C 0.39951 0.28318 0.60405 0.0
C753 C 0.4221 0.27013 0.64113 0.0
C754 C 0.40671 0.24667 0.63047 0.0
C755 C 0.38809 0.2417 0.60583 0.0
C756 C 0.38447 0.25974 0.59287 0.0
C757 C 0.40906 0.22698 0.64621 0.0
C758 C 0.41124 0.21151 0.62132 0.0
C759 C 0.40763 0.22254 0.68533 0.0
C760 C 0.40428 0.2376 0.71297 0.0
C761 C 0.38448 0.24058 0.71092 0.0
C762 C 0.38153 0.25492 0.73695 0.0
C763 C 0.39816 0.26621 0.76537 0.0
C764 C 0.41774 0.26311 0.76788 0.0
C765 C 0.4208 0.24882 0.74187 0.0
H766 H 0.39584 0.27729 0.78551 0.0
H767 H 0.41333 0.13117 0.53376 0.0
H768 H 0.31302 0.32999 0.65525 0.0
H769 H 0.30069 0.32626 0.72085 0.0
H770 H 0.35638 0.31276 0.75272 0.0
H771 H 0.36877 0.31619 0.68711 0.0
H772 H 0.3148 0.28558 0.79317 0.0
H773 H 0.36551 0.36767 0.75683 0.0
H774 H 0.37618 0.4027 0.71776 0.0
H775 H 0.3111 0.39961 0.74747 0.0
H776 H 0.29992 0.36436 0.78633 0.0
H777 H 0.34631 0.32583 0.97851 0.0
H778 H 0.34144 0.31537 0.91219 0.0
H779 H 0.29431 0.34318 0.89985 0.0
H780 H 0.30013 0.35482 0.96611 0.0
H781 H 0.32426 0.35959 0.84769 0.0
H782 H 0.27588 0.28156 0.89232 0.0
H783 H 0.26431 0.24631 0.93124 0.0
H784 H 0.32209 0.24034 0.88662 0.0
H785 H 0.33423 0.27575 0.84781 0.0
C786 C 0.32248 0.32591 0.67603 0.0
C787 C 0.34215 0.3238 0.66591 0.0
C788 C 0.31539 0.32376 0.71355 0.0
C789 C 0.32786 0.31959 0.74162 0.0
C790 C 0.34657 0.31605 0.73143 0.0
C791 C 0.35368 0.31817 0.6939 0.0
C792 C 0.32294 0.32111 0.78183 0.0
C793 C 0.3169 0.30172 0.8053 0.0
C794 C 0.32494 0.34196 0.79722 0.0
C795 C 0.33177 0.36325 0.7741 0.0
C796 C 0.35341 0.37437 0.75479 0.0
C797 C 0.35956 0.39427 0.73273 0.0
C798 C 0.34429 0.40333 0.73004 0.0
C799 C 0.32288 0.39255 0.74951 0.0
C800 C 0.31664 0.37262 0.77157 0.0
C801 C 0.3346 0.32938 0.96184 0.0
C802 C 0.32369 0.34125 0.97746 0.0
C803 C 0.33165 0.32319 0.92389 0.0
C804 C 0.3172 0.32812 0.90096 0.0
C805 C 0.30554 0.33916 0.91692 0.0
C806 C 0.30888 0.34582 0.95476 0.0
C807 C 0.31643 0.32411 0.85972 0.0
C808 C 0.32154 0.34314 0.83585 0.0
C809 C 0.31332 0.30282 0.84405 0.0
C810 C 0.30604 0.28143 0.86729 0.0
C811 C 0.28622 0.27284 0.89098 0.0
C812 C 0.27955 0.2528 0.913 0.0
C813 C 0.29247 0.24112 0.91145 0.0
C814 C 0.31208 0.24941 0.8878 0.0
C815 C 0.31885 0.26944 0.86573 0.0
H816 H 0.28728 0.22561 0.92853 0.0
H817 H 0.34908 0.41874 0.71294 0.0
H818 H 0.0129 0.31781 0.32496 0.0
H819 H 0.02032 0.31403 0.25848 0.0
H820 H 0.96341 0.32588 0.22722 0.0
H821 H 0.9553 0.32867 0.29319 0.0
H822 H 0.96318 0.29371 0.18344 0.0
H823 H 0.02517 0.37107 0.23021 0.0
H824 H 0.05881 0.39621 0.2714 0.0
H825 H 0.09616 0.3622 0.23077 0.0
H826 H 0.06263 0.33671 0.18965 0.0
H827 H 0.98489 0.34496 0.0056 0.0
H828 H 0.97821 0.33358 0.07158 0.0
H829 H 0.04347 0.33216 0.07424 0.0
H830 H 0.05106 0.34557 0.00869 0.0
H831 H 0.04182 0.35139 0.13285 0.0
H832 H 0.98395 0.27956 0.07711 0.0
H833 H 0.95096 0.2538 0.03537 0.0
H834 H 0.90621 0.27462 0.09185 0.0
H835 H 0.93899 0.30073 0.13361 0.0
C836 C 1.00185 0.31939 0.30387 0.0
C837 C 0.98364 0.32375 0.31437 0.0
C838 C 0.00615 0.31729 0.26589 0.0
C839 C 0.99271 0.32011 0.23776 0.0
C840 C 0.97404 0.32363 0.24834 0.0
C841 C 0.96947 0.32531 0.28617 0.0
C842 C 0.9985 0.32067 0.19724 0.0
C843 C 0.98036 0.30634 0.17226 0.0
C844 C 0.02119 0.33636 0.18273 0.0
C845 C 0.04133 0.35185 0.20723 0.0
C846 C 0.04052 0.36889 0.23024 0.0
C847 C 0.05956 0.3832 0.25355 0.0
C848 C 0.07958 0.38075 0.25379 0.0
C849 C 0.08063 0.36404 0.23062 0.0
C850 C 0.06162 0.34968 0.20732 0.0
C851 C 0.99767 0.34198 0.02025 0.0
C852 C 0.0184 0.34598 0.0022 0.0
C853 C 0.99374 0.33521 0.05791 0.0
C854 C 0.00996 0.33125 0.0779 0.0
C855 C 0.03058 0.33493 0.05953 0.0
C856 C 0.03492 0.34254 0.02213 0.0
C857 C 0.00616 0.32513 0.1186 0.0
C858 C 0.02472 0.33833 0.1437 0.0
C859 C 0.98389 0.30816 0.13319 0.0
C860 C 0.964 0.29218 0.10844 0.0
C861 C 0.96711 0.27872 0.08054 0.0
C862 C 0.94843 0.26405 0.05687 0.0
C863 C 0.92651 0.2626 0.06093 0.0
C864 C 0.9232 0.27575 0.08875 0.0
C865 C 0.9418 0.29044 0.11249 0.0
H866 H 0.91209 0.25125 0.04255 0.0
H867 H 0.0943 0.39184 0.27186 0.0
H868 H 0.69262 0.00784 0.65983 0.0
H869 H 0.70482 0.01509 0.59393 0.0
H870 H 0.63616 0.95921 0.56028 0.0
H871 H 0.62406 0.95135 0.62601 0.0
H872 H 0.67045 0.95988 0.51709 0.0
H873 H 0.65064 0.01877 0.56475 0.0
H874 H 0.65687 0.05086 0.60808 0.0
H875 H 0.72915 0.0911 0.5729 0.0
H876 H 0.72336 0.05913 0.52964 0.0
H877 H 0.6428 0.98301 0.33947 0.0
H878 H 0.6467 0.97561 0.40543 0.0
H879 H 0.71166 0.04231 0.41216 0.0
H880 H 0.70659 0.05052 0.34659 0.0
H881 H 0.68917 0.03862 0.46995 0.0
H882 H 0.70805 0.98468 0.41312 0.0
H883 H 0.70392 0.95334 0.36994 0.0
H884 H 0.63804 0.90454 0.42171 0.0
H885 H 0.64159 0.93564 0.46487 0.0
C886 C 0.68019 0.99693 0.63841 0.0
C887 C 0.65723 0.97926 0.6481 0.0
C888 C 0.68721 1.0011 0.60079 0.0
C889 C 0.67125 0.98799 0.57222 0.0
C890 C 0.64875 0.96957 0.58191 0.0
C891 C 0.64182 0.96518 0.61951 0.0
C892 C 0.67701 0.99446 0.53217 0.0
C893 C 0.67454 0.97707 0.50659 0.0
C894 C 0.68338 0.01721 0.5188 0.0
C895 C 0.68663 0.03652 0.54428 0.0
C896 C 0.66786 0.03444 0.56639 0.0
C897 C 0.67132 0.05259 0.59092 0.0
C898 C 0.69341 0.07298 0.59332 0.0
C899 C 0.71206 0.07529 0.57107 0.0
C900 C 0.7087 0.05718 0.54652 0.0
C901 C 0.65796 0.99599 0.35507 0.0
C902 C 0.67444 0.01726 0.33821 0.0
C903 C 0.66037 0.99165 0.39266 0.0
C904 C 0.67988 0.00806 0.41369 0.0
C905 C 0.69653 0.02929 0.39657 0.0
C906 C 0.69366 0.03399 0.35921 0.0
C907 C 0.68173 0.00372 0.45422 0.0
C908 C 0.68568 0.02155 0.48006 0.0
C909 C 0.67716 0.98146 0.46778 0.0
C910 C 0.67507 0.96256 0.44217 0.0
C911 C 0.69263 0.9673 0.4152 0.0
C912 C 0.69039 0.94957 0.39072 0.0
C913 C 0.67072 0.92698 0.39306 0.0
C914 C 0.65328 0.92205 0.41995 0.0
C915 C 0.65542 0.93971 0.44448 0.0
H916 H 0.669 0.91328 0.37405 0.0
H917 H 0.69606 0.087 0.61235 0.0
H918 H 0.69368 0.68787 0.66547 0.0
H919 H 0.70498 0.69318 0.73177 0.0
H920 H 0.63513 0.67834 0.76271 0.0
H921 H 0.62395 0.67382 0.69655 0.0
H922 H 0.6678 0.71186 0.80731 0.0
H923 H 0.65147 0.63448 0.75936 0.0
H924 H 0.65925 0.60948 0.71642 0.0
H925 H 0.73117 0.64313 0.75367 0.0
H926 H 0.72384 0.66847 0.79654 0.0
H927 H 0.64038 0.65959 0.9849 0.0
H928 H 0.64447 0.67187 0.91938 0.0
H929 H 0.71102 0.67316 0.91274 0.0
H930 H 0.70587 0.65897 0.97771 0.0
H931 H 0.68907 0.6538 0.85513 0.0
H932 H 0.70445 0.72565 0.91206 0.0
H933 H 0.69846 0.75186 0.95486 0.0
H934 H 0.63234 0.73216 0.90168 0.0
H935 H 0.63776 0.70559 0.85889 0.0
C936 C 0.68081 0.686 0.68638 0.0
C937 C 0.65779 0.68003 0.67583 0.0
C938 C 0.68731 0.68906 0.72423 0.0
C939 C 0.67075 0.68567 0.75219 0.0
C940 C 0.64818 0.68098 0.74159 0.0
C941 C 0.64177 0.67828 0.70375 0.0
C942 C 0.67598 0.68488 0.79248 0.0
C943 C 0.67244 0.69919 0.81796 0.0
C944 C 0.68298 0.66903 0.80611 0.0
C945 C 0.68717 0.65348 0.78083 0.0
C946 C 0.66895 0.63658 0.75826 0.0
C947 C 0.67328 0.62236 0.73395 0.0
C948 C 0.6957 0.62476 0.73225 0.0
C949 C 0.71382 0.64132 0.75496 0.0
C950 C 0.70959 0.65559 0.77928 0.0
C951 C 0.65596 0.6627 0.96946 0.0
C952 C 0.67283 0.65839 0.98612 0.0
C953 C 0.65846 0.67001 0.93211 0.0
C954 C 0.67839 0.6741 0.91115 0.0
C955 C 0.69553 0.67024 0.92823 0.0
C956 C 0.69261 0.66214 0.96528 0.0
C957 C 0.68015 0.68029 0.87061 0.0
C958 C 0.68501 0.66697 0.8449 0.0
C959 C 0.67473 0.69736 0.85687 0.0
C960 C 0.67149 0.71353 0.88234 0.0
C961 C 0.68858 0.72681 0.9096 0.0
C962 C 0.68528 0.74174 0.93386 0.0
C963 C 0.66502 0.74365 0.93102 0.0
C964 C 0.64804 0.73068 0.90384 0.0
C965 C 0.65123 0.71571 0.87952 0.0
H966 H 0.6625 0.75521 0.94985 0.0
H967 H 0.69903 0.61375 0.71338 0.0
H968 H 0.04279 0.65998 0.28792 0.0
H969 H 0.03424 0.66139 0.22167 0.0
H970 H 0.97849 0.67532 0.25173 0.0
H971 H 0.98634 0.67297 0.31859 0.0
H972 H 0.96704 0.64256 0.19236 0.0
H973 H 0.03175 0.72095 0.22549 0.0
H974 H 0.06921 0.74164 0.26049 0.0
H975 H 0.10023 0.71319 0.18565 0.0
H976 H 0.06288 0.69207 0.15051 0.0
H977 H 0.95445 0.66223 0.00266 0.0
H978 H 0.96057 0.67064 0.07012 0.0
H979 H 0.02813 0.6742 0.06205 0.0
H980 H 0.02277 0.66767 -0.00563 0.0
H981 H 0.03196 0.70204 0.11303 0.0
H982 H 0.97367 0.62257 0.08448 0.0
H983 H 0.93704 0.59042 0.05735 0.0
H984 H 0.89614 0.61082 0.12576 0.0
H985 H 0.93255 0.64375 0.15216 0.0
C986 C 0.02875 0.66342 0.28052 0.0
C987 C 0.01545 0.66671 0.30843 0.0
C988 C 0.02386 0.66417 0.24265 0.0
C989 C 0.00607 0.66896 0.23187 0.0
C990 C 0.99238 0.67175 0.25957 0.0
C991 C 0.99697 0.67053 0.29765 0.0
C992 C 0.00248 0.67181 0.1916 0.0
C993 C 0.98094 0.65589 0.175 0.0
C994 C 0.02103 0.68872 0.16905 0.0
C995 C 0.0445 0.70487 0.18548 0.0
C996 C 0.04669 0.71943 0.21613 0.0
C997 C 0.06782 0.73104 0.2362 0.0
C998 C 0.08692 0.72839 0.22562 0.0
C999 C 0.08532 0.71502 0.19397 0.0
C1000 C 0.06421 0.70331 0.17386 0.0
C1001 C 0.97082 0.6654 0.01531 0.0
C1002 C 0.98808 0.66416 -0.0064 0.0
C1003 C 0.97426 0.67004 0.05383 0.0
C1004 C 0.99451 0.67235 0.0715 0.0
C1005 C 0.01233 0.67244 0.04926 0.0
C1006 C 0.00924 0.66863 0.01057 0.0
C1007 C 0.99636 0.67254 0.11317 0.0
C1008 C 0.01766 0.68907 0.13021 0.0
C1009 C 0.97784 0.65553 0.13595 0.0
C1010 C 0.95587 0.63588 0.11984 0.0
C1011 C 0.95688 0.62042 0.09335 0.0
C1012 C 0.93615 0.6021 0.07802 0.0
C1013 C 0.91427 0.59875 0.08952 0.0
C1014 C 0.91309 0.61366 0.11649 0.0
C1015 C 0.93377 0.6322 0.13156 0.0
H1016 H 0.89823 0.58451 0.07772 0.0
H1017 H 0.10294 0.73662 0.24207 0.0
H1018 H 0.35008 0.02361 0.32607 0.0
H1019 H 0.34895 0.03255 0.39239 0.0
H1020 H 0.30981 0.95833 0.41782 0.0
H1021 H 0.31111 0.94905 0.35131 0.0
H1022 H 0.2955 0.99163 0.45717 0.0
H1023 H 0.36032 0.97714 0.43403 0.0
H1024 H 0.39531 0.98242 0.39943 0.0
H1025 H 0.43056 0.05681 0.42132 0.0
H1026 H 0.39559 0.052 0.45559 0.0
H1027 H 0.32206 0.9893 0.65056 0.0
H1028 H 0.31355 0.98338 0.58347 0.0
H1029 H 0.36838 0.05482 0.56161 0.0
H1030 H 0.37728 0.0609 0.62867 0.0
H1031 H 0.37352 0.02423 0.51911 0.0
H1032 H 0.31094 0.03858 0.54892 0.0
H1033 H 0.27616 0.03405 0.5832 0.0
H1034 H 0.23658 0.96158 0.54905 0.0
H1035 H 0.27124 0.96556 0.515 0.0
C1036 C 0.34089 0.00913 0.34556 0.0
C1037 C 0.3309 0.9856 0.33351 0.0
C1038 C 0.34022 0.0143 0.3834 0.0
C1039 C 0.32932 0.99608 0.40972 0.0
C1040 C 0.31819 0.97257 0.39768 0.0
C1041 C 0.31914 0.96734 0.35981 0.0
C1042 C 0.33199 0.00172 0.45015 0.0
C1043 C 0.31243 0.99851 0.47102 0.0
C1044 C 0.35425 0.01128 0.46756 0.0
C1045 C 0.37527 0.01425 0.44697 0.0
C1046 C 0.37544 0.99466 0.43111 0.0
C1047 C 0.39528 0.99755 0.41164 0.0
C1048 C 0.41512 0.01994 0.40814 0.0
C1049 C 0.41516 0.03949 0.42405 0.0
C1050 C 0.39535 0.03668 0.44351 0.0
C1051 C 0.33215 0.00389 0.63161 0.0
C1052 C 0.35055 0.02551 0.64502 0.0
C1053 C 0.32712 1.0005 0.59325 0.0
C1054 C 0.34026 0.01869 0.56762 0.0
C1055 C 0.35805 0.04055 0.58099 0.0
C1056 C 0.36312 0.04397 0.61934 0.0
C1057 C 0.33699 0.01414 0.52672 0.0
C1058 C 0.35652 0.01751 0.50555 0.0
C1059 C 0.31469 0.00483 0.50919 0.0
C1060 C 0.29378 0.00232 0.52969 0.0
C1061 C 0.29489 0.02161 0.549 0.0
C1062 C 0.27518 0.01915 0.56833 0.0
C1063 C 0.25419 0.99752 0.56838 0.0
C1064 C 0.25286 0.97831 0.54902 0.0
C1065 C 0.27253 0.98067 0.52966 0.0
H1066 H 0.23895 0.99566 0.58336 0.0
H1067 H 0.4305 0.02212 0.39327 0.0
H1068 H 0.42179 0.40161 0.04682 0.0
H1069 H 0.46227 0.43438 0.04386 0.0
H1070 H 0.4399 0.48054 0.09229 0.0
H1071 H 0.39903 0.44795 0.0931 0.0
H1072 H 0.47197 0.50392 0.04333 0.0
H1073 H 0.46635 0.45288 0.14514 0.0
H1074 H 0.45723 0.41508 0.17423 0.0
H1075 H 0.50713 0.41052 0.10124 0.0
H1076 H 0.51632 0.44816 0.0714 0.0
H1077 H 0.57921 0.59072 0.12059 0.0
H1078 H 0.53971 0.55724 0.11287 0.0
H1079 H 0.56776 0.52047 0.04978 0.0
H1080 H 0.60774 0.55406 0.05757 0.0
H1081 H 0.534 0.49199 0.10178 0.0
H1082 H 0.54141 0.54576 0.0039 0.0
H1083 H 0.55066 0.58438 0.97811 0.0
H1084 H 0.49729 0.58466 0.04808 0.0
H1085 H 0.48794 0.54618 0.07468 0.0
C1086 C 0.42552 0.41884 0.05647 0.0
C1087 C 0.40738 0.42227 0.0705 0.0
C1088 C 0.44868 0.43752 0.05502 0.0
C1089 C 0.45435 0.45982 0.06892 0.0
C1090 C 0.43605 0.46348 0.08162 0.0
C1091 C 0.41272 0.44489 0.08211 0.0
C1092 C 0.47934 0.47911 0.07119 0.0
C1093 C 0.48544 0.50133 0.05649 0.0
C1094 C 0.49716 0.47571 0.08759 0.0
C1095 C 0.49186 0.45322 0.10582 0.0
C1096 C 0.47528 0.44375 0.13517 0.0
C1097 C 0.47011 0.42236 0.1518 0.0
C1098 C 0.48155 0.41037 0.13952 0.0
C1099 C 0.49825 0.4198 0.11068 0.0
C1100 C 0.50347 0.44117 0.09393 0.0
C1101 C 0.57714 0.57556 0.10509 0.0
C1102 C 0.59674 0.57522 0.08943 0.0
C1103 C 0.55445 0.55643 0.1006 0.0
C1104 C 0.55075 0.53656 0.08016 0.0
C1105 C 0.57025 0.53574 0.06544 0.0
C1106 C 0.59307 0.55495 0.06993 0.0
C1107 C 0.52643 0.51673 0.07439 0.0
C1108 C 0.5205 0.49445 0.08842 0.0
C1109 C 0.50872 0.52016 0.05783 0.0
C1110 C 0.51409 0.54315 0.04146 0.0
C1111 C 0.53174 0.55412 0.01395 0.0
C1112 C 0.53699 0.57598 -0.00083 0.0
C1113 C 0.5246 0.58699 0.0115 0.0
C1114 C 0.50688 0.57612 0.03856 0.0
C1115 C 0.50158 0.55427 0.05346 0.0
H1116 H 0.5287 0.60392 4e-05 0.0
H1117 H 0.47751 0.39381 0.15241 0.0
H1118 H 0.98566 0.57762 0.39257 0.0
H1119 H 0.97985 0.5378 0.3933 0.0
H1120 H 0.04824 0.56418 0.44455 0.0
H1121 H 0.0547 0.60442 0.44128 0.0
H1122 H 0.04242 0.53236 0.39809 0.0
H1123 H 0.9931 0.53482 0.49533 0.0
H1124 H 0.96281 0.54234 0.52259 0.0
H1125 H 0.91091 0.49127 0.44797 0.0
H1126 H 0.94098 0.48371 0.41985 0.0
H1127 H 0.019 0.41907 0.45719 0.0
H1128 H 0.02648 0.45946 0.45747 0.0
H1129 H 0.96352 0.43796 0.39212 0.0
H1130 H 0.95556 0.39728 0.39237 0.0
H1131 H 0.96737 0.46731 0.44865 0.0
H1132 H 0.01892 0.46627 0.35135 0.0
H1133 H 0.0501 0.45909 0.32708 0.0
H1134 H 0.09888 0.50781 0.40771 0.0
H1135 H 0.0679 0.51507 0.43275 0.0
C1136 C 0.99948 0.57488 0.40379 0.0
C1137 C 0.02055 0.59395 0.4171 0.0
C1138 C 0.99608 0.5521 0.40451 0.0
C1139 C 0.01328 0.54777 0.42007 0.0
C1140 C 0.03462 0.56698 0.43262 0.0
C1141 C 0.03832 0.58994 0.43081 0.0
C1142 C 0.00893 0.52324 0.42317 0.0
C1143 C 0.02614 0.51825 0.40971 0.0
C1144 C 0.98757 0.50463 0.43792 0.0
C1145 C 0.96935 0.50882 0.4553 0.0
C1146 C 0.97525 0.52527 0.48463 0.0
C1147 C 0.95812 0.52954 0.50022 0.0
C1148 C 0.93496 0.51732 0.48698 0.0
C1149 C 0.92887 0.50074 0.45819 0.0
C1150 C 0.94594 0.49643 0.44244 0.0
C1151 C 0.00669 0.42286 0.44285 0.0
C1152 C 0.98672 0.40489 0.42455 0.0
C1153 C 0.01107 0.44602 0.44294 0.0
C1154 C 0.99576 0.45181 0.42431 0.0
C1155 C 0.97561 0.43389 0.40657 0.0
C1156 C 0.97112 0.41065 0.40667 0.0
C1157 C 1.00074 0.47653 0.42327 0.0
C1158 C 0.98366 0.48152 0.4372 0.0
C1159 C 0.02235 0.49518 0.40957 0.0
C1160 C 0.04104 0.49107 0.39411 0.0
C1161 C 0.03626 0.47536 0.36403 0.0
C1162 C 0.0539 0.47128 0.35012 0.0
C1163 C 0.07644 0.48295 0.3659 0.0
C1164 C 0.08141 0.49878 0.39554 0.0
C1165 C 0.06383 0.5029 0.40956 0.0
H1166 H 0.09007 0.47976 0.35511 0.0
H1167 H 0.92174 0.52068 0.49906 0.0
H1168 H 0.55398 0.94928 0.77909 0.0
H1169 H 0.52086 0.95672 0.78162 0.0
H1170 H 0.56437 0.02494 0.73064 0.0
H1171 H 0.59775 0.0181 0.73046 0.0
H1172 H 0.54159 0.03036 0.78244 0.0
H1173 H 0.51794 0.9731 0.68264 0.0
H1174 H 0.50872 0.93521 0.6536 0.0
H1175 H 0.45424 0.89798 0.73544 0.0
H1176 H 0.46332 0.93564 0.76522 0.0
H1177 H 0.4492 0.05224 0.72912 0.0
H1178 H 0.48196 0.04429 0.72935 0.0
H1179 H 0.44039 0.98153 0.79513 0.0
H1180 H 0.40752 0.9891 0.79464 0.0
H1181 H 0.46147 0.97293 0.7371 0.0
H1182 H 0.48507 0.03153 0.83481 0.0
H1183 H 0.49423 0.06999 0.86137 0.0
H1184 H 0.54909 0.10549 0.77944 0.0
H1185 H 0.54005 0.06725 0.75206 0.0
C1186 C 0.55633 0.96577 0.76825 0.0
C1187 C 0.57836 0.98311 0.75457 0.0
C1188 C 0.53738 0.97 0.7695 0.0
C1189 C 0.53989 0.9913 0.75577 0.0
C1190 C 0.56189 0.00842 0.74155 0.0
C1191 C 0.58096 0.00447 0.74132 0.0
C1192 C 0.51998 0.99621 0.75711 0.0
C1193 C 0.52418 0.01789 0.77196 0.0
C1194 C 0.49701 0.9798 0.74437 0.0
C1195 C 0.49146 0.95717 0.72635 0.0
C1196 C 0.50409 0.95682 0.69457 0.0
C1197 C 0.49888 0.93539 0.67796 0.0
C1198 C 0.48095 0.9142 0.69272 0.0
C1199 C 0.46814 0.9144 0.72406 0.0
C1200 C 0.4733 0.93578 0.74079 0.0
C1201 C 0.44707 0.03683 0.74384 0.0
C1202 C 0.42566 0.02127 0.76169 0.0
C1203 C 0.46584 0.03233 0.74402 0.0
C1204 C 0.46366 0.01236 0.7624 0.0
C1205 C 0.44244 0.99698 0.78062 0.0
C1206 C 0.42366 1.00139 0.78033 0.0
C1207 C 0.48326 0.0071 0.76194 0.0
C1208 C 0.47895 0.98536 0.74741 0.0
C1209 C 0.50618 0.02354 0.77453 0.0
C1210 C 0.51175 0.04653 0.7912 0.0
C1211 C 0.49898 0.04755 0.8223 0.0
C1212 C 0.50417 0.0693 0.83753 0.0
C1213 C 0.52219 0.09017 0.82205 0.0
C1214 C 0.53512 0.08932 0.79138 0.0
C1215 C 0.52999 0.06761 0.77602 0.0
H1216 H 0.52618 0.107 0.83387 0.0
H1217 H 0.47694 0.89763 0.67983 0.0
H1218 H 0.6008 0.5793 0.58432 0.0
H1219 H 0.56717 0.53936 0.58486 0.0
H1220 H 0.52163 0.56596 0.55028 0.0
H1221 H 0.55517 0.60623 0.55199 0.0
H1222 H 0.49949 0.53439 0.59856 0.0
H1223 H 0.54057 0.53355 0.48604 0.0
H1224 H 0.57385 0.5383 0.44698 0.0
H1225 H 0.5838 0.49193 0.52019 0.0
H1226 H 0.55019 0.48645 0.55918 0.0
H1227 H 0.40492 0.42403 0.53805 0.0
H1228 H 0.43838 0.46404 0.54075 0.0
H1229 H 0.48049 0.43819 0.59291 0.0
H1230 H 0.44715 0.39794 0.58992 0.0
H1231 H 0.50398 0.46886 0.5365 0.0
H1232 H 0.45836 0.46698 0.64435 0.0
H1233 H 0.42216 0.46017 0.67679 0.0
H1234 H 0.41933 0.5122 0.60713 0.0
H1235 H 0.45534 0.51909 0.57391 0.0
C1236 C 0.58361 0.57662 0.5768 0.0
C1237 C 0.58062 0.59588 0.56799 0.0
C1238 C 0.56438 0.55371 0.57676 0.0
C1239 C 0.54183 0.54941 0.56666 0.0
C1240 C 0.53881 0.56871 0.55808 0.0
C1241 C 0.55798 0.59173 0.55903 0.0
C1242 C 0.52135 0.52491 0.56602 0.0
C1243 C 0.50043 0.52018 0.58447 0.0
C1244 C 0.52251 0.50607 0.54842 0.0
C1245 C 0.54307 0.5098 0.52568 0.0
C1246 C 0.54998 0.52451 0.49393 0.0
C1247 C 0.56884 0.52727 0.47175 0.0
C1248 C 0.58108 0.51562 0.4813 0.0
C1249 C 0.57435 0.501 0.51288 0.0
C1250 C 0.55531 0.49794 0.53489 0.0
C1251 C 0.42123 0.42678 0.55024 0.0
C1252 C 0.42326 0.40768 0.56386 0.0
C1253 C 0.44034 0.44973 0.55191 0.0
C1254 C 0.46185 0.45415 0.56748 0.0
C1255 C 0.46402 0.43518 0.5809 0.0
C1256 C 0.44491 0.41218 0.57921 0.0
C1257 C 0.48226 0.47851 0.56879 0.0
C1258 C 0.50314 0.48315 0.55056 0.0
C1259 C 0.48088 0.49728 0.58605 0.0
C1260 C 0.45945 0.49342 0.60645 0.0
C1261 C 0.44994 0.47687 0.6358 0.0
C1262 C 0.42947 0.47301 0.65435 0.0
C1263 C 0.41843 0.48571 0.64398 0.0
C1264 C 0.42789 0.50236 0.61512 0.0
C1265 C 0.44835 0.50627 0.59646 0.0
H1266 H 0.40257 0.48268 0.65835 0.0
H1267 H 0.59572 0.51784 0.46412 0.0
H1268 H 0.95353 0.55896 0.9169 0.0
H1269 H 0.96098 0.52597 0.92098 0.0
H1270 H 0.03061 0.56965 0.87497 0.0
H1271 H 0.02317 0.60244 0.86991 0.0
H1272 H 0.01125 0.52845 0.8429 0.0
H1273 H 0.02127 0.55566 0.96983 0.0
H1274 H 0.01056 0.5674 0.02928 0.0
H1275 H 0.9508 0.49788 0.04134 0.0
H1276 H 0.96096 0.48581 0.98164 0.0
H1277 H 0.05682 0.45306 0.89555 0.0
H1278 H 0.05074 0.48716 0.89652 0.0
H1279 H 0.97617 0.44079 0.91265 0.0
H1280 H 0.98198 0.40668 0.9108 0.0
H1281 H 0.99906 0.48355 0.96109 0.0
H1282 H 0.98982 0.45767 0.83153 0.0
H1283 H 0.0026 0.44679 0.77332 0.0
H1284 H 0.06389 0.51575 0.76823 0.0
H1285 H 0.05167 0.5269 0.82685 0.0
C1286 C 0.97044 0.56157 0.90769 0.0
C1287 C 0.98774 0.58343 0.89319 0.0
C1288 C 0.97473 0.54271 0.91022 0.0
C1289 C 0.99649 0.54539 0.89872 0.0
C1290 C 0.0137 0.56713 0.88404 0.0
C1291 C 0.0094 0.58591 0.88128 0.0
C1292 C 1.00127 0.52548 0.90134 0.0
C1293 C 0.00888 0.51889 0.86893 0.0
C1294 C 0.99792 0.51273 0.93514 0.0
C1295 C 0.99174 0.51991 0.97105 0.0
C1296 C 0.00573 0.54293 0.985 0.0
C1297 C 0.99978 0.54963 0.01877 0.0
C1298 C 0.97998 0.53342 0.03902 0.0
C1299 C 0.96612 0.51044 0.02558 0.0
C1300 C 0.97197 0.50365 -0.0082 0.0
C1301 C 0.03918 0.45018 0.89963 0.0
C1302 C 0.01986 0.42722 0.90291 0.0
C1303 C 0.03573 0.46963 0.90011 0.0
C1304 C 0.013 0.46641 0.9046 0.0
C1305 C 0.99383 0.44359 0.90923 0.0
C1306 C 0.99718 0.42415 0.90796 0.0
C1307 C 0.00898 0.48671 0.90277 0.0
C1308 C 1.00149 0.49328 0.93523 0.0
C1309 C 0.01271 0.49963 0.8692 0.0
C1310 C 0.01999 0.49302 0.83382 0.0
C1311 C 0.00615 0.47044 0.81822 0.0
C1312 C 0.01327 0.46423 0.7851 0.0
C1313 C 0.03409 0.48054 0.76715 0.0
C1314 C 0.04779 0.50311 0.78221 0.0
C1315 C 0.04078 0.50939 0.81538 0.0
H1316 H 0.03957 0.47571 0.74151 0.0
H1317 H 0.9754 0.53864 0.06516 0.0
H1318 H 0.58177 0.9804 0.25003 0.0
H1319 H 0.54134 0.97283 0.25176 0.0
H1320 H 0.56534 0.04405 0.21475 0.0
H1321 H 0.60616 0.05208 0.21527 0.0
H1322 H 0.53303 0.03325 0.2636 0.0
H1323 H 0.53818 0.99307 0.15402 0.0
H1324 H 0.54681 0.96583 0.11861 0.0
H1325 H 0.49624 0.90783 0.1852 0.0
H1326 H 0.48751 0.93478 0.22131 0.0
H1327 H 0.42403 0.01566 0.19702 0.0
H1328 H 0.46387 0.02194 0.20033 0.0
H1329 H 0.43769 0.9546 0.25474 0.0
H1330 H 0.39742 0.94795 0.25134 0.0
H1331 H 0.4703 0.96253 0.1989 0.0
H1332 H 0.46415 0.00428 0.3058 0.0
H1333 H 0.45539 0.03248 0.33768 0.0
H1334 H 0.50822 0.08902 0.27149 0.0
H1335 H 0.51701 0.06108 0.23865 0.0
C1336 C 0.5784 0.99446 0.24235 0.0
C1337 C 0.59702 0.01676 0.23216 0.0
C1338 C 0.55526 0.99007 0.2431 0.0
C1339 C 0.55011 0.00763 0.23234 0.0
C1340 C 0.5688 0.03014 0.22296 0.0
C1341 C 0.5921 0.03473 0.2232 0.0
C1342 C 0.52527 0.0025 0.23084 0.0
C1343 C 0.51942 0.01795 0.24898 0.0
C1344 C 0.50728 0.98224 0.21249 0.0
C1345 C 0.51235 0.96598 0.19057 0.0
C1346 C 0.529 0.97453 0.16124 0.0
C1347 C 0.5339 0.95914 0.14103 0.0
C1348 C 0.52212 0.93512 0.14971 0.0
C1349 C 0.50537 0.92644 0.17854 0.0
C1350 C 0.50042 0.94175 0.19885 0.0
C1351 C 0.4266 0.00208 0.20969 0.0
C1352 C 0.40744 0.98132 0.22416 0.0
C1353 C 0.44947 0.00579 0.21166 0.0
C1354 C 0.45378 0.98892 0.22832 0.0
C1355 C 0.43472 0.9679 0.24195 0.0
C1356 C 0.41173 0.96415 0.24 0.0
C1357 C 0.47825 0.99337 0.23135 0.0
C1358 C 0.48398 0.97778 0.21353 0.0
C1359 C 0.49618 0.01367 0.24948 0.0
C1360 C 0.49111 0.03054 0.26956 0.0
C1361 C 0.47379 0.0227 0.29785 0.0
C1362 C 0.46883 0.03864 0.31613 0.0
C1363 C 0.48122 0.06252 0.30662 0.0
C1364 C 0.49863 0.07051 0.27883 0.0
C1365 C 0.50362 0.05463 0.26038 0.0
H1366 H 0.47734 0.07482 0.32082 0.0
H1367 H 0.52595 0.92324 0.13404 0.0
loop_
_geom_bond_atom_site_label_1
_geom_bond_atom_site_label_2
_geom_bond_distance
_geom_bond_site_symmetry_2
_ccdc_geom_bond_type
Co0 O1 2.216 . S
Co0 O2 2.091 . S
Co0 O4 2.004 . S
Co0 O10 2.021 . S
Co0 O12 2.137 . S
Co0 O13 2.244 . S
O1 Co0 2.216 . S
O1 C8 1.247 . S
O2 Co0 2.091 . S
O2 C8 1.261 . S
C3 O12 1.247 . S
C3 O13 1.272 . S
O4 Co0 2.004 . S
O4 C9 1.259 . S
Co5 O6 2.061 . S
Co5 O11 2.052 . S
Co5 O13 2.135 . S
O6 Co5 2.061 . S
O6 C9 1.235 . S
C7 O10 1.238 . S
C7 O11 1.241 . S
C8 O1 1.247 . S
C8 O2 1.261 . S
C9 O4 1.259 . S
C9 O6 1.235 . S
O10 Co0 2.021 . S
O10 C7 1.238 . S
O11 Co5 2.052 . S
O11 C7 1.241 . S
O12 Co0 2.137 . S
O12 C3 1.247 . S
O13 Co0 2.244 . S
O13 C3 1.272 . S
O13 Co5 2.135 . S
Co14 O15 2.216 . S
Co14 O16 2.091 . S
Co14 O18 2.004 . S
Co14 O24 2.021 . S
Co14 O26 2.137 . S
Co14 O27 2.244 . S
O15 Co14 2.216 . S
O15 C22 1.247 . S
O16 Co14 2.091 . S
O16 C22 1.261 . S
C17 O26 1.247 . S
C17 O27 1.272 . S
O18 Co14 2.004 . S
O18 C23 1.259 . S
Co19 O20 2.061 1_455 S
Co19 O25 2.052 . S
Co19 O27 2.135 1_455 S
O20 Co19 2.061 1_655 S
O20 C23 1.235 . S
C21 O24 1.238 . S
C21 O25 1.241 1_655 S
C22 O15 1.247 . S
C22 O16 1.261 . S
C23 O18 1.259 . S
C23 O20 1.235 . S
O24 Co14 2.021 . S
O24 C21 1.238 . S
O25 Co19 2.052 . S
O25 C21 1.241 1_455 S
O26 Co14 2.137 . S
O26 C17 1.247 . S
O27 Co14 2.244 . S
O27 C17 1.272 . S
O27 Co19 2.135 1_655 S
Co28 O29 2.216 . S
Co28 O30 2.091 . S
Co28 O32 2.004 . S
Co28 O38 2.021 . S
Co28 O40 2.137 . S
Co28 O41 2.244 . S
O29 Co28 2.216 . S
O29 C36 1.247 . S
O30 Co28 2.091 . S
O30 C36 1.261 . S
C31 O40 1.247 . S
C31 O41 1.272 . S
O32 Co28 2.004 . S
O32 C37 1.259 . S
Co33 O34 2.061 1_545 S
Co33 O39 2.052 . S
Co33 O41 2.135 1_545 S
O34 Co33 2.061 1_565 S
O34 C37 1.235 . S
C35 O38 1.238 . S
C35 O39 1.241 1_565 S
C36 O29 1.247 . S
C36 O30 1.261 . S
C37 O32 1.259 . S
C37 O34 1.235 . S
O38 Co28 2.021 . S
O38 C35 1.238 . S
O39 Co33 2.052 . S
O39 C35 1.241 1_545 S
O40 Co28 2.137 . S
O40 C31 1.247 . S
O41 Co28 2.244 . S
O41 C31 1.272 . S
O41 Co33 2.135 1_565 S
Co42 O43 2.216 . S
Co42 O44 2.091 . S
Co42 O46 2.004 . S
Co42 O52 2.021 . S
Co42 O54 2.137 . S
Co42 O55 2.244 . S
O43 Co42 2.216 . S
O43 C50 1.247 . S
O44 Co42 2.091 . S
O44 C50 1.261 . S
C45 O54 1.247 . S
C45 O55 1.272 . S
O46 Co42 2.004 . S
O46 C51 1.259 . S
Co47 O48 2.061 . S
Co47 O53 2.052 . S
Co47 O55 2.135 . S
O48 Co47 2.061 . S
O48 C51 1.235 . S
C49 O52 1.238 . S
C49 O53 1.241 . S
C50 O43 1.247 . S
C50 O44 1.261 . S
C51 O46 1.259 . S
C51 O48 1.235 . S
O52 Co42 2.021 . S
O52 C49 1.238 . S
O53 Co47 2.052 . S
O53 C49 1.241 . S
O54 Co42 2.137 . S
O54 C45 1.247 . S
O55 Co42 2.244 . S
O55 C45 1.272 . S
O55 Co47 2.135 . S
Co56 O57 2.216 . S
Co56 O58 2.091 . S
Co56 O60 2.004 . S
Co56 O66 2.021 . S
Co56 O68 2.137 . S
Co56 O69 2.244 . S
O57 Co56 2.216 . S
O57 C64 1.247 . S
O58 Co56 2.091 . S
O58 C64 1.261 . S
C59 O68 1.247 . S
C59 O69 1.272 . S
O60 Co56 2.004 . S
O60 C65 1.259 . S
Co61 O62 2.061 1_655 S
Co61 O67 2.052 . S
Co61 O69 2.135 1_655 S
O62 Co61 2.061 1_455 S
O62 C65 1.235 . S
C63 O66 1.238 . S
C63 O67 1.241 1_455 S
C64 O57 1.247 . S
C64 O58 1.261 . S
C65 O60 1.259 . S
C65 O62 1.235 . S
O66 Co56 2.021 . S
O66 C63 1.238 . S
O67 Co61 2.052 . S
O67 C63 1.241 1_655 S
O68 Co56 2.137 . S
O68 C59 1.247 . S
O69 Co56 2.244 . S
O69 C59 1.272 . S
O69 Co61 2.135 1_455 S
Co70 O71 2.216 . S
Co70 O72 2.091 . S
Co70 O74 2.004 . S
Co70 O80 2.021 . S
Co70 O82 2.137 . S
Co70 O83 2.244 . S
O71 Co70 2.216 . S
O71 C78 1.247 . S
O72 Co70 2.091 . S
O72 C78 1.261 . S
C73 O82 1.247 . S
C73 O83 1.272 . S
O74 Co70 2.004 . S
O74 C79 1.259 . S
Co75 O76 2.061 1_565 S
Co75 O81 2.052 . S
Co75 O83 2.135 1_565 S
O76 Co75 2.061 1_545 S
O76 C79 1.235 . S
C77 O80 1.238 . S
C77 O81 1.241 1_545 S
C78 O71 1.247 . S
C78 O72 1.261 . S
C79 O74 1.259 . S
C79 O76 1.235 . S
O80 Co70 2.021 . S
O80 C77 1.238 . S
O81 Co75 2.052 . S
O81 C77 1.241 1_565 S
O82 Co70 2.137 . S
O82 C73 1.247 . S
O83 Co70 2.244 . S
O83 C73 1.272 . S
O83 Co75 2.135 1_545 S
Co84 O85 2.216 . S
Co84 O86 2.091 . S
Co84 O88 2.004 . S
Co84 O94 2.021 . S
Co84 O96 2.137 . S
Co84 O97 2.244 . S
O85 Co84 2.216 . S
O85 C92 1.247 . S
O86 Co84 2.091 . S
O86 C92 1.261 . S
C87 O96 1.247 . S
C87 O97 1.272 . S
O88 Co84 2.004 . S
O88 C93 1.259 . S
Co89 O90 2.061 . S
Co89 O95 2.052 . S
Co89 O97 2.135 . S
O90 Co89 2.061 . S
O90 C93 1.235 . S
C91 O94 1.238 . S
C91 O95 1.241 . S
C92 O85 1.247 . S
C92 O86 1.261 . S
C93 O88 1.259 . S
C93 O90 1.235 . S
O94 Co84 2.021 . S
O94 C91 1.238 . S
O95 Co89 2.052 . S
O95 C91 1.241 . S
O96 Co84 2.137 . S
O96 C87 1.247 . S
O97 Co84 2.244 . S
O97 C87 1.272 . S
O97 Co89 2.135 . S
Co98 O99 2.216 . S
Co98 O100 2.091 . S
Co98 O102 2.004 . S
Co98 O108 2.021 . S
Co98 O110 2.137 . S
Co98 O111 2.244 . S
O99 Co98 2.216 . S
O99 C106 1.247 . S
O100 Co98 2.091 . S
O100 C106 1.261 . S
C101 O110 1.247 . S
C101 O111 1.272 . S
O102 Co98 2.004 . S
O102 C107 1.259 . S
Co103 O104 2.061 1_455 S
Co103 O109 2.052 . S
Co103 O111 2.135 1_455 S
O104 Co103 2.061 1_655 S
O104 C107 1.235 . S
C105 O108 1.238 . S
C105 O109 1.241 1_655 S
C106 O99 1.247 . S
C106 O100 1.261 . S
C107 O102 1.259 . S
C107 O104 1.235 . S
O108 Co98 2.021 . S
O108 C105 1.238 . S
O109 Co103 2.052 . S
O109 C105 1.241 1_455 S
O110 Co98 2.137 . S
O110 C101 1.247 . S
O111 Co98 2.244 . S
O111 C101 1.272 . S
O111 Co103 2.135 1_655 S
Co112 O113 2.216 . S
Co112 O114 2.091 . S
Co112 O116 2.004 . S
Co112 O122 2.021 . S
Co112 O124 2.137 . S
Co112 O125 2.244 . S
O113 Co112 2.216 . S
O113 C120 1.247 . S
O114 Co112 2.091 . S
O114 C120 1.261 . S
C115 O124 1.247 . S
C115 O125 1.272 . S
O116 Co112 2.004 . S
O116 C121 1.259 . S
Co117 O118 2.061 1_545 S
Co117 O123 2.052 . S
Co117 O125 2.135 1_545 S
O118 Co117 2.061 1_565 S
O118 C121 1.235 . S
C119 O122 1.238 . S
C119 O123 1.241 1_565 S
C120 O113 1.247 . S
C120 O114 1.261 . S
C121 O116 1.259 . S
C121 O118 1.235 . S
O122 Co112 2.021 . S
O122 C119 1.238 . S
O123 Co117 2.052 . S
O123 C119 1.241 1_545 S
O124 Co112 2.137 . S
O124 C115 1.247 . S
O125 Co112 2.244 . S
O125 C115 1.272 . S
O125 Co117 2.135 1_565 S
Co126 O127 2.216 . S
Co126 O128 2.091 . S
Co126 O130 2.004 . S
Co126 O136 2.021 . S
Co126 O138 2.137 . S
Co126 O139 2.244 . S
O127 Co126 2.216 . S
O127 C134 1.247 . S
O128 Co126 2.091 . S
O128 C134 1.261 . S
C129 O138 1.247 . S
C129 O139 1.272 . S
O130 Co126 2.004 . S
O130 C135 1.259 . S
Co131 O132 2.061 . S
Co131 O137 2.052 . S
Co131 O139 2.135 . S
O132 Co131 2.061 . S
O132 C135 1.235 . S
C133 O136 1.238 . S
C133 O137 1.241 . S
C134 O127 1.247 . S
C134 O128 1.261 . S
C135 O130 1.259 . S
C135 O132 1.235 . S
O136 Co126 2.021 . S
O136 C133 1.238 . S
O137 Co131 2.052 . S
O137 C133 1.241 . S
O138 Co126 2.137 . S
O138 C129 1.247 . S
O139 Co126 2.244 . S
O139 C129 1.272 . S
O139 Co131 2.135 . S
Co140 O141 2.216 . S
Co140 O142 2.091 . S
Co140 O144 2.004 . S
Co140 O150 2.021 . S
Co140 O152 2.137 . S
Co140 O153 2.244 . S
O141 Co140 2.216 . S
O141 C148 1.247 . S
O142 Co140 2.091 . S
O142 C148 1.261 . S
C143 O152 1.247 . S
C143 O153 1.272 . S
O144 Co140 2.004 . S
O144 C149 1.259 . S
Co145 O146 2.061 1_655 S
Co145 O151 2.052 . S
Co145 O153 2.135 1_655 S
O146 Co145 2.061 1_455 S
O146 C149 1.235 . S
C147 O150 1.238 . S
C147 O151 1.241 1_455 S
C148 O141 1.247 . S
C148 O142 1.261 . S
C149 O144 1.259 . S
C149 O146 1.235 . S
O150 Co140 2.021 . S
O150 C147 1.238 . S
O151 Co145 2.052 . S
O151 C147 1.241 1_655 S
O152 Co140 2.137 . S
O152 C143 1.247 . S
O153 Co140 2.244 . S
O153 C143 1.272 . S
O153 Co145 2.135 1_455 S
Co154 O155 2.216 . S
Co154 O156 2.091 . S
Co154 O158 2.004 . S
Co154 O164 2.021 . S
Co154 O166 2.137 . S
Co154 O167 2.244 . S
O155 Co154 2.216 . S
O155 C162 1.247 . S
O156 Co154 2.091 . S
O156 C162 1.261 . S
C157 O166 1.247 . S
C157 O167 1.272 . S
O158 Co154 2.004 . S
O158 C163 1.259 . S
Co159 O160 2.061 1_565 S
Co159 O165 2.052 . S
Co159 O167 2.135 1_565 S
O160 Co159 2.061 1_545 S
O160 C163 1.235 . S
C161 O164 1.238 . S
C161 O165 1.241 1_545 S
C162 O155 1.247 . S
C162 O156 1.261 . S
C163 O158 1.259 . S
C163 O160 1.235 . S
O164 Co154 2.021 . S
O164 C161 1.238 . S
O165 Co159 2.052 . S
O165 C161 1.241 1_565 S
O166 Co154 2.137 . S
O166 C157 1.247 . S
O167 Co154 2.244 . S
O167 C157 1.272 . S
O167 Co159 2.135 1_545 S
H168 C186 0.951 . S
H169 C188 0.951 . S
H170 C190 0.950 . S
H171 C191 0.950 . S
H172 C193 0.950 . S
H173 C196 0.950 . S
H174 C197 0.950 . S
H175 C199 0.950 . S
H176 C200 0.950 . S
H177 C201 0.951 . S
H178 C203 0.951 . S
H179 C205 0.950 . S
H180 C206 0.950 . S
H181 C208 0.950 . S
H182 C211 0.950 . S
H183 C212 0.950 . S
H184 C214 0.950 . S
H185 C215 0.950 . S
C186 H168 0.951 . S
C186 C187 1.366 . S
C186 C188 1.388 . S
C187 C186 1.366 . S
C187 C191 1.385 . S
C188 H169 0.951 . S
C188 C186 1.388 . S
C188 C189 1.366 . S
C189 C188 1.366 . S
C189 C190 1.414 . S
C189 C192 1.499 . S
C190 H170 0.950 . S
C190 C189 1.414 . S
C190 C191 1.374 . S
C191 H171 0.950 . S
C191 C187 1.385 . S
C191 C190 1.374 . S
C192 C189 1.499 . S
C192 C193 1.373 . S
C192 C194 1.389 . S
C193 H172 0.950 . S
C193 C192 1.373 . S
C193 C209 1.377 . S
C194 C192 1.389 . S
C194 C195 1.524 . S
C194 C208 1.377 . S
C195 C194 1.524 . S
C195 C196 1.397 . S
C195 C200 1.363 . S
C196 H173 0.950 . S
C196 C195 1.397 . S
C196 C197 1.334 . S
C197 H174 0.950 . S
C197 C196 1.334 . S
C197 C198 1.287 . S
C198 C197 1.287 . S
C198 C199 1.524 . S
C198 H217 0.913 . S
C199 H175 0.950 . S
C199 C198 1.524 . S
C199 C200 1.415 . S
C200 H176 0.950 . S
C200 C195 1.363 . S
C200 C199 1.415 . S
C201 H177 0.951 . S
C201 C202 1.366 . S
C201 C203 1.388 . S
C202 C201 1.366 . S
C202 C206 1.385 . S
C203 H178 0.951 . S
C203 C201 1.388 . S
C203 C204 1.366 . S
C204 C203 1.366 . S
C204 C205 1.414 . S
C204 C207 1.499 . S
C205 H179 0.950 . S
C205 C204 1.414 . S
C205 C206 1.374 . S
C206 H180 0.950 . S
C206 C202 1.385 . S
C206 C205 1.374 . S
C207 C204 1.499 . S
C207 C208 1.373 . S
C207 C209 1.389 . S
C208 H181 0.950 . S
C208 C194 1.377 . S
C208 C207 1.373 . S
C209 C193 1.377 . S
C209 C207 1.389 . S
C209 C210 1.524 . S
C210 C209 1.524 . S
C210 C211 1.397 . S
C210 C215 1.363 . S
C211 H182 0.950 . S
C211 C210 1.397 . S
C211 C212 1.334 . S
C212 H183 0.950 . S
C212 C211 1.334 . S
C212 C213 1.287 . S
C213 C212 1.287 . S
C213 C214 1.524 . S
C213 H216 0.999 . S
C214 H184 0.950 . S
C214 C213 1.524 . S
C214 C215 1.415 . S
C215 H185 0.950 . S
C215 C210 1.363 . S
C215 C214 1.415 . S
H216 C213 0.999 . S
H217 C198 0.913 . S
H218 C236 0.951 . S
H219 C238 0.951 . S
H220 C240 0.950 . S
H221 C241 0.950 . S
H222 C243 0.950 . S
H223 C246 0.950 . S
H224 C247 0.950 . S
H225 C249 0.950 . S
H226 C250 0.950 . S
H227 C251 0.951 . S
H228 C253 0.951 . S
H229 C255 0.950 . S
H230 C256 0.950 . S
H231 C258 0.950 . S
H232 C261 0.950 . S
H233 C262 0.950 . S
H234 C264 0.950 . S
H235 C265 0.950 . S
C236 H218 0.951 . S
C236 C237 1.366 . S
C236 C238 1.388 . S
C237 C236 1.366 . S
C237 C241 1.385 . S
C238 H219 0.951 . S
C238 C236 1.388 . S
C238 C239 1.366 . S
C239 C238 1.366 . S
C239 C240 1.414 . S
C239 C242 1.499 . S
C240 H220 0.950 . S
C240 C239 1.414 . S
C240 C241 1.374 . S
C241 H221 0.950 . S
C241 C237 1.385 . S
C241 C240 1.374 . S
C242 C239 1.499 . S
C242 C243 1.373 . S
C242 C244 1.389 1_655 S
C243 H222 0.950 . S
C243 C242 1.373 . S
C243 C259 1.377 . S
C244 C242 1.389 1_455 S
C244 C245 1.524 . S
C244 C258 1.377 . S
C245 C244 1.524 . S
C245 C246 1.397 . S
C245 C250 1.363 . S
C246 H223 0.950 . S
C246 C245 1.397 . S
C246 C247 1.334 . S
C247 H224 0.950 . S
C247 C246 1.334 . S
C247 C248 1.287 . S
C248 C247 1.287 . S
C248 C249 1.524 . S
C248 H267 0.913 . S
C249 H225 0.950 . S
C249 C248 1.524 . S
C249 C250 1.415 . S
C250 H226 0.950 . S
C250 C245 1.363 . S
C250 C249 1.415 . S
C251 H227 0.951 . S
C251 C252 1.366 . S
C251 C253 1.388 . S
C252 C251 1.366 . S
C252 C256 1.385 . S
C253 H228 0.951 . S
C253 C251 1.388 . S
C253 C254 1.366 . S
C254 C253 1.366 . S
C254 C255 1.414 . S
C254 C257 1.499 . S
C255 H229 0.950 . S
C255 C254 1.414 . S
C255 C256 1.374 . S
C256 H230 0.950 . S
C256 C252 1.385 . S
C256 C255 1.374 . S
C257 C254 1.499 . S
C257 C258 1.373 . S
C257 C259 1.389 1_455 S
C258 H231 0.950 . S
C258 C244 1.377 . S
C258 C257 1.373 . S
C259 C243 1.377 . S
C259 C257 1.389 1_655 S
C259 C260 1.524 . S
C260 C259 1.524 . S
C260 C261 1.397 . S
C260 C265 1.363 . S
C261 H232 0.950 . S
C261 C260 1.397 . S
C261 C262 1.334 . S
C262 H233 0.950 . S
C262 C261 1.334 . S
C262 C263 1.287 . S
C263 C262 1.287 . S
C263 C264 1.524 . S
C263 H266 0.999 . S
C264 H234 0.950 . S
C264 C263 1.524 . S
C264 C265 1.415 . S
C265 H235 0.950 . S
C265 C260 1.363 . S
C265 C264 1.415 . S
H266 C263 0.999 . S
H267 C248 0.913 . S
H268 C286 0.951 . S
H269 C288 0.951 . S
H270 C290 0.950 . S
H271 C291 0.950 . S
H272 C293 0.950 . S
H273 C296 0.950 . S
H274 C297 0.950 . S
H275 C299 0.950 . S
H276 C300 0.950 1_554 S
H277 C301 0.951 . S
H278 C303 0.951 . S
H279 C305 0.950 . S
H280 C306 0.950 . S
H281 C308 0.950 . S
H282 C311 0.950 . S
H283 C312 0.950 . S
H284 C314 0.950 . S
H285 C315 0.950 1_556 S
C286 H268 0.951 . S
C286 C287 1.366 . S
C286 C288 1.388 . S
C287 C286 1.366 . S
C287 C291 1.385 1_565 S
C288 H269 0.951 . S
C288 C286 1.388 . S
C288 C289 1.366 . S
C289 C288 1.366 . S
C289 C290 1.414 1_565 S
C289 C292 1.499 . S
C290 H270 0.950 . S
C290 C289 1.414 1_545 S
C290 C291 1.374 . S
C291 H271 0.950 . S
C291 C287 1.385 1_545 S
C291 C290 1.374 . S
C292 C289 1.499 . S
C292 C293 1.373 1_565 S
C292 C294 1.389 . S
C293 H272 0.950 . S
C293 C292 1.373 1_545 S
C293 C309 1.377 1_556 S
C294 C292 1.389 . S
C294 C295 1.524 . S
C294 C308 1.377 1_556 S
C295 C294 1.524 . S
C295 C296 1.397 . S
C295 C300 1.363 . S
C296 H273 0.950 . S
C296 C295 1.397 . S
C296 C297 1.334 . S
C297 H274 0.950 . S
C297 C296 1.334 . S
C297 C298 1.287 . S
C298 C297 1.287 . S
C298 C299 1.524 . S
C298 H317 0.913 . S
C299 H275 0.950 . S
C299 C298 1.524 . S
C299 C300 1.415 . S
C300 H276 0.950 1_556 S
C300 C295 1.363 . S
C300 C299 1.415 . S
C301 H277 0.951 . S
C301 C302 1.366 . S
C301 C303 1.388 . S
C302 C301 1.366 . S
C302 C306 1.385 1_545 S
C303 H278 0.951 . S
C303 C301 1.388 . S
C303 C304 1.366 . S
C304 C303 1.366 . S
C304 C305 1.414 1_545 S
C304 C307 1.499 . S
C305 H279 0.950 . S
C305 C304 1.414 1_565 S
C305 C306 1.374 . S
C306 H280 0.950 . S
C306 C302 1.385 1_565 S
C306 C305 1.374 . S
C307 C304 1.499 . S
C307 C308 1.373 1_545 S
C307 C309 1.389 . S
C308 H281 0.950 . S
C308 C294 1.377 1_554 S
C308 C307 1.373 1_565 S
C309 C293 1.377 1_554 S
C309 C307 1.389 . S
C309 C310 1.524 . S
C310 C309 1.524 . S
C310 C311 1.397 . S
C310 C315 1.363 . S
C311 H282 0.950 . S
C311 C310 1.397 . S
C311 C312 1.334 . S
C312 H283 0.950 . S
C312 C311 1.334 . S
C312 C313 1.287 . S
C313 C312 1.287 . S
C313 C314 1.524 . S
C313 H316 0.999 . S
C314 H284 0.950 . S
C314 C313 1.524 . S
C314 C315 1.415 . S
C315 H285 0.950 1_554 S
C315 C310 1.363 . S
C315 C314 1.415 . S
H316 C313 0.999 . S
H317 C298 0.913 . S
H318 C336 0.951 . S
H319 C338 0.951 . S
H320 C340 0.950 . S
H321 C341 0.950 . S
H322 C343 0.950 . S
H323 C346 0.950 . S
H324 C347 0.950 . S
H325 C349 0.950 . S
H326 C350 0.950 . S
H327 C351 0.951 . S
H328 C353 0.951 . S
H329 C355 0.950 . S
H330 C356 0.950 . S
H331 C358 0.950 . S
H332 C361 0.950 . S
H333 C362 0.950 . S
H334 C364 0.950 . S
H335 C365 0.950 . S
C336 H318 0.951 . S
C336 C337 1.366 . S
C336 C338 1.388 . S
C337 C336 1.366 . S
C337 C341 1.385 . S
C338 H319 0.951 . S
C338 C336 1.388 . S
C338 C339 1.366 . S
C339 C338 1.366 . S
C339 C340 1.414 . S
C339 C342 1.499 . S
C340 H320 0.950 . S
C340 C339 1.414 . S
C340 C341 1.374 . S
C341 H321 0.950 . S
C341 C337 1.385 . S
C341 C340 1.374 . S
C342 C339 1.499 . S
C342 C343 1.373 . S
C342 C344 1.389 . S
C343 H322 0.950 . S
C343 C342 1.373 . S
C343 C359 1.377 . S
C344 C342 1.389 . S
C344 C345 1.524 . S
C344 C358 1.377 . S
C345 C344 1.524 . S
C345 C346 1.397 . S
C345 C350 1.363 . S
C346 H323 0.950 . S
C346 C345 1.397 . S
C346 C347 1.334 . S
C347 H324 0.950 . S
C347 C346 1.334 . S
C347 C348 1.287 . S
C348 C347 1.287 . S
C348 C349 1.524 . S
C348 H367 0.913 . S
C349 H325 0.950 . S
C349 C348 1.524 . S
C349 C350 1.415 . S
C350 H326 0.950 . S
C350 C345 1.363 . S
C350 C349 1.415 . S
C351 H327 0.951 . S
C351 C352 1.366 . S
C351 C353 1.388 . S
C352 C351 1.366 . S
C352 C356 1.385 . S
C353 H328 0.951 . S
C353 C351 1.388 . S
C353 C354 1.366 . S
C354 C353 1.366 . S
C354 C355 1.414 . S
C354 C357 1.499 . S
C355 H329 0.950 . S
C355 C354 1.414 . S
C355 C356 1.374 . S
C356 H330 0.950 . S
C356 C352 1.385 . S
C356 C355 1.374 . S
C357 C354 1.499 . S
C357 C358 1.373 . S
C357 C359 1.389 . S
C358 H331 0.950 . S
C358 C344 1.377 . S
C358 C357 1.373 . S
C359 C343 1.377 . S
C359 C357 1.389 . S
C359 C360 1.524 . S
C360 C359 1.524 . S
C360 C361 1.397 . S
C360 C365 1.363 . S
C361 H332 0.950 . S
C361 C360 1.397 . S
C361 C362 1.334 . S
C362 H333 0.950 . S
C362 C361 1.334 . S
C362 C363 1.287 . S
C363 C362 1.287 . S
C363 C364 1.524 . S
C363 H366 0.999 . S
C364 H334 0.950 . S
C364 C363 1.524 . S
C364 C365 1.415 . S
C365 H335 0.950 . S
C365 C360 1.363 . S
C365 C364 1.415 . S
H366 C363 0.999 . S
H367 C348 0.913 . S
H368 C386 0.951 . S
H369 C388 0.937 1_455 S
H370 C390 0.950 . S
H371 C391 0.950 . S
H372 C393 0.950 . S
H373 C396 0.950 . S
H374 C397 0.950 . S
H375 C399 0.950 . S
H376 C400 0.950 . S
H377 C401 0.951 . S
H378 C403 0.938 1_655 S
H379 C405 0.950 . S
H380 C406 0.950 . S
H381 C408 0.950 . S
H382 C411 0.950 . S
H383 C412 0.950 . S
H384 C414 0.950 . S
H385 C415 0.950 . S
C386 H368 0.951 . S
C386 C387 1.366 . S
C386 C388 1.388 . S
C387 C386 1.366 . S
C387 C391 1.385 . S
C388 H369 0.937 1_655 S
C388 C386 1.388 . S
C388 C389 1.366 . S
C389 C388 1.366 . S
C389 C390 1.414 . S
C389 C392 1.499 . S
C390 H370 0.950 . S
C390 C389 1.414 . S
C390 C391 1.374 . S
C391 H371 0.950 . S
C391 C387 1.385 . S
C391 C390 1.374 . S
C392 C389 1.499 . S
C392 C393 1.373 . S
C392 C394 1.389 1_655 S
C393 H372 0.950 . S
C393 C392 1.373 . S
C393 C409 1.377 . S
C394 C392 1.389 1_455 S
C394 C395 1.524 . S
C394 C408 1.377 . S
C395 C394 1.524 . S
C395 C396 1.397 . S
C395 C400 1.363 . S
C396 H373 0.950 . S
C396 C395 1.397 . S
C396 C397 1.334 . S
C397 H374 0.950 . S
C397 C396 1.334 . S
C397 C398 1.287 . S
C398 C397 1.287 . S
C398 C399 1.524 . S
C398 H417 0.913 . S
C399 H375 0.950 . S
C399 C398 1.524 . S
C399 C400 1.415 . S
C400 H376 0.950 . S
C400 C395 1.363 . S
C400 C399 1.415 . S
C401 H377 0.951 . S
C401 C402 1.366 . S
C401 C403 1.388 . S
C402 C401 1.366 . S
C402 C406 1.385 . S
C403 H378 0.938 1_455 S
C403 C401 1.388 . S
C403 C404 1.366 . S
C404 C403 1.366 . S
C404 C405 1.414 . S
C404 C407 1.499 . S
C405 H379 0.950 . S
C405 C404 1.414 . S
C405 C406 1.374 . S
C406 H380 0.950 . S
C406 C402 1.385 . S
C406 C405 1.374 . S
C407 C404 1.499 . S
C407 C408 1.373 . S
C407 C409 1.389 1_455 S
C408 H381 0.950 . S
C408 C394 1.377 . S
C408 C407 1.373 . S
C409 C393 1.377 . S
C409 C407 1.389 1_655 S
C409 C410 1.524 . S
C410 C409 1.524 . S
C410 C411 1.397 . S
C410 C415 1.363 . S
C411 H382 0.950 . S
C411 C410 1.397 . S
C411 C412 1.334 . S
C412 H383 0.950 . S
C412 C411 1.334 . S
C412 C413 1.287 . S
C413 C412 1.287 . S
C413 C414 1.524 . S
C413 H416 0.999 . S
C414 H384 0.950 . S
C414 C413 1.524 . S
C414 C415 1.415 . S
C415 H385 0.950 . S
C415 C410 1.363 . S
C415 C414 1.415 . S
H416 C413 0.999 . S
H417 C398 0.913 . S
H418 C436 0.951 . S
H419 C438 0.951 . S
H420 C440 0.950 . S
H421 C441 0.950 . S
H422 C443 0.950 . S
H423 C446 0.988 . S
H424 C447 0.950 . S
H425 C449 0.950 . S
H426 C450 0.950 . S
H427 C451 0.951 . S
H428 C453 0.951 . S
H429 C455 0.950 . S
H430 C456 0.950 . S
H431 C458 0.950 . S
H432 C461 0.989 . S
H433 C462 0.950 . S
H434 C464 0.950 . S
H435 C465 0.950 . S
C436 H418 0.951 . S
C436 C437 1.366 1_545 S
C436 C438 1.388 . S
C437 C436 1.366 1_565 S
C437 C441 1.385 . S
C438 H419 0.951 . S
C438 C436 1.388 . S
C438 C439 1.366 1_545 S
C439 C438 1.366 1_565 S
C439 C440 1.414 . S
C439 C442 1.499 . S
C440 H420 0.950 . S
C440 C439 1.414 . S
C440 C441 1.374 . S
C441 H421 0.950 . S
C441 C437 1.385 . S
C441 C440 1.374 . S
C442 C439 1.499 . S
C442 C443 1.373 . S
C442 C444 1.389 1_565 S
C443 H422 0.950 . S
C443 C442 1.373 . S
C443 C459 1.377 1_554 S
C444 C442 1.389 1_545 S
C444 C445 1.524 . S
C444 C458 1.377 1_554 S
C445 C444 1.524 . S
C445 C446 1.397 . S
C445 C450 1.363 . S
C446 H423 0.988 . S
C446 C445 1.397 . S
C446 C447 1.334 . S
C447 H424 0.950 . S
C447 C446 1.334 . S
C447 C448 1.287 . S
C448 C447 1.287 . S
C448 C449 1.524 . S
C448 H467 0.913 . S
C449 H425 0.950 . S
C449 C448 1.524 . S
C449 C450 1.415 . S
C450 H426 0.950 . S
C450 C445 1.363 . S
C450 C449 1.415 . S
C451 H427 0.951 . S
C451 C452 1.366 1_565 S
C451 C453 1.388 . S
C452 C451 1.366 1_545 S
C452 C456 1.385 . S
C453 H428 0.951 . S
C453 C451 1.388 . S
C453 C454 1.366 1_565 S
C454 C453 1.366 1_545 S
C454 C455 1.414 . S
C454 C457 1.499 . S
C455 H429 0.950 . S
C455 C454 1.414 . S
C455 C456 1.374 . S
C456 H430 0.950 . S
C456 C452 1.385 . S
C456 C455 1.374 . S
C457 C454 1.499 . S
C457 C458 1.373 . S
C457 C459 1.389 1_545 S
C458 H431 0.950 . S
C458 C444 1.377 1_556 S
C458 C457 1.373 . S
C459 C443 1.377 1_556 S
C459 C457 1.389 1_565 S
C459 C460 1.524 . S
C460 C459 1.524 . S
C460 C461 1.397 . S
C460 C465 1.363 . S
C461 H432 0.989 . S
C461 C460 1.397 . S
C461 C462 1.334 . S
C462 H433 0.950 . S
C462 C461 1.334 . S
C462 C463 1.287 . S
C463 C462 1.287 . S
C463 C464 1.524 . S
C463 H466 0.999 . S
C464 H434 0.950 . S
C464 C463 1.524 . S
C464 C465 1.415 . S
C465 H435 0.950 . S
C465 C460 1.363 . S
C465 C464 1.415 . S
H466 C463 0.999 . S
H467 C448 0.913 . S
H468 C486 0.951 . S
H469 C488 0.951 1_554 S
H470 C490 0.950 . S
H471 C491 0.950 . S
H472 C493 0.950 . S
H473 C496 0.950 . S
H474 C497 0.950 . S
H475 C499 0.950 . S
H476 C500 0.950 . S
H477 C501 0.951 . S
H478 C503 0.951 1_556 S
H479 C505 0.950 . S
H480 C506 0.950 . S
H481 C508 0.950 . S
H482 C511 0.950 . S
H483 C512 0.950 . S
H484 C514 0.950 . S
H485 C515 0.950 . S
C486 H468 0.951 . S
C486 C487 1.366 . S
C486 C488 1.388 . S
C487 C486 1.366 . S
C487 C491 1.385 . S
C488 H469 0.951 1_556 S
C488 C486 1.388 . S
C488 C489 1.366 . S
C489 C488 1.366 . S
C489 C490 1.414 . S
C489 C492 1.499 . S
C490 H470 0.950 . S
C490 C489 1.414 . S
C490 C491 1.374 . S
C491 H471 0.950 . S
C491 C487 1.385 . S
C491 C490 1.374 . S
C492 C489 1.499 . S
C492 C493 1.373 . S
C492 C494 1.389 1_556 S
C493 H472 0.950 . S
C493 C492 1.373 . S
C493 C509 1.377 . S
C494 C492 1.389 1_554 S
C494 C495 1.524 . S
C494 C508 1.377 . S
C495 C494 1.524 . S
C495 C496 1.397 . S
C495 C500 1.363 . S
C496 H473 0.950 . S
C496 C495 1.397 . S
C496 C497 1.334 . S
C497 H474 0.950 . S
C497 C496 1.334 . S
C497 C498 1.287 . S
C498 C497 1.287 . S
C498 C499 1.524 . S
C498 H517 0.913 . S
C499 H475 0.950 . S
C499 C498 1.524 . S
C499 C500 1.415 . S
C500 H476 0.950 . S
C500 C495 1.363 . S
C500 C499 1.415 . S
C501 H477 0.951 . S
C501 C502 1.366 . S
C501 C503 1.388 . S
C502 C501 1.366 . S
C502 C506 1.385 . S
C503 H478 0.951 1_554 S
C503 C501 1.388 . S
C503 C504 1.366 . S
C504 C503 1.366 . S
C504 C505 1.414 . S
C504 C507 1.499 . S
C505 H479 0.950 . S
C505 C504 1.414 . S
C505 C506 1.374 . S
C506 H480 0.950 . S
C506 C502 1.385 . S
C506 C505 1.374 . S
C507 C504 1.499 . S
C507 C508 1.373 . S
C507 C509 1.389 1_554 S
C508 H481 0.950 . S
C508 C494 1.377 . S
C508 C507 1.373 . S
C509 C493 1.377 . S
C509 C507 1.389 1_556 S
C509 C510 1.524 . S
C510 C509 1.524 . S
C510 C511 1.397 . S
C510 C515 1.363 . S
C511 H482 0.950 . S
C511 C510 1.397 . S
C511 C512 1.334 . S
C512 H483 0.950 . S
C512 C511 1.334 . S
C512 C513 1.287 . S
C513 C512 1.287 . S
C513 C514 1.524 . S
C513 H516 0.999 . S
C514 H484 0.950 . S
C514 C513 1.524 . S
C514 C515 1.415 . S
C515 H485 0.950 . S
C515 C510 1.363 . S
C515 C514 1.415 . S
H516 C513 0.999 . S
H517 C498 0.913 . S
H518 C536 0.951 . S
H519 C538 0.951 . S
H520 C540 0.950 . S
H521 C541 0.950 . S
H522 C543 0.950 . S
H523 C546 0.950 . S
H524 C547 0.950 . S
H525 C549 0.950 . S
H526 C550 0.950 . S
H527 C551 0.951 . S
H528 C553 0.951 . S
H529 C555 0.950 . S
H530 C556 0.950 . S
H531 C558 0.950 . S
H532 C561 0.950 . S
H533 C562 0.950 . S
H534 C564 0.950 . S
H535 C565 0.950 . S
C536 H518 0.951 . S
C536 C537 1.366 . S
C536 C538 1.388 . S
C537 C536 1.366 . S
C537 C541 1.385 . S
C538 H519 0.951 . S
C538 C536 1.388 . S
C538 C539 1.366 . S
C539 C538 1.366 . S
C539 C540 1.414 . S
C539 C542 1.499 . S
C540 H520 0.950 . S
C540 C539 1.414 . S
C540 C541 1.374 . S
C541 H521 0.950 . S
C541 C537 1.385 . S
C541 C540 1.374 . S
C542 C539 1.499 . S
C542 C543 1.373 . S
C542 C544 1.389 . S
C543 H522 0.950 . S
C543 C542 1.373 . S
C543 C559 1.377 . S
C544 C542 1.389 . S
C544 C545 1.524 . S
C544 C558 1.377 . S
C545 C544 1.524 . S
C545 C546 1.397 . S
C545 C550 1.363 . S
C546 H523 0.950 . S
C546 C545 1.397 . S
C546 C547 1.334 . S
C547 H524 0.950 . S
C547 C546 1.334 . S
C547 C548 1.287 . S
C548 C547 1.287 . S
C548 C549 1.524 . S
C548 H567 0.913 . S
C549 H525 0.950 . S
C549 C548 1.524 . S
C549 C550 1.415 . S
C550 H526 0.950 . S
C550 C545 1.363 . S
C550 C549 1.415 . S
C551 H527 0.951 . S
C551 C552 1.366 . S
C551 C553 1.388 . S
C552 C551 1.366 . S
C552 C556 1.385 . S
C553 H528 0.951 . S
C553 C551 1.388 . S
C553 C554 1.366 . S
C554 C553 1.366 . S
C554 C555 1.414 . S
C554 C557 1.499 . S
C555 H529 0.950 . S
C555 C554 1.414 . S
C555 C556 1.374 . S
C556 H530 0.950 . S
C556 C552 1.385 . S
C556 C555 1.374 . S
C557 C554 1.499 . S
C557 C558 1.373 . S
C557 C559 1.389 . S
C558 H531 0.950 . S
C558 C544 1.377 . S
C558 C557 1.373 . S
C559 C543 1.377 . S
C559 C557 1.389 . S
C559 C560 1.524 . S
C560 C559 1.524 . S
C560 C561 1.397 . S
C560 C565 1.363 . S
C561 H532 0.950 . S
C561 C560 1.397 . S
C561 C562 1.334 . S
C562 H533 0.950 . S
C562 C561 1.334 . S
C562 C563 1.287 . S
C563 C562 1.287 . S
C563 C564 1.524 . S
C563 H566 0.999 . S
C564 H534 0.950 . S
C564 C563 1.524 . S
C564 C565 1.415 . S
C565 H535 0.950 . S
C565 C560 1.363 . S
C565 C564 1.415 . S
H566 C563 0.999 . S
H567 C548 0.913 . S
H568 C586 0.951 . S
H569 C588 0.951 . S
H570 C590 0.950 . S
H571 C591 0.950 . S
H572 C593 0.950 . S
H573 C596 0.950 . S
H574 C597 0.950 . S
H575 C599 0.950 . S
H576 C600 0.950 . S
H577 C601 0.951 . S
H578 C603 0.951 . S
H579 C605 0.950 . S
H580 C606 0.950 . S
H581 C608 0.950 . S
H582 C611 0.950 . S
H583 C612 0.950 . S
H584 C614 0.950 . S
H585 C615 0.950 . S
C586 H568 0.951 . S
C586 C587 1.366 . S
C586 C588 1.388 . S
C587 C586 1.366 . S
C587 C591 1.385 . S
C588 H569 0.951 . S
C588 C586 1.388 . S
C588 C589 1.366 . S
C589 C588 1.366 . S
C589 C590 1.414 . S
C589 C592 1.499 . S
C590 H570 0.950 . S
C590 C589 1.414 . S
C590 C591 1.374 . S
C591 H571 0.950 . S
C591 C587 1.385 . S
C591 C590 1.374 . S
C592 C589 1.499 . S
C592 C593 1.373 . S
C592 C594 1.389 . S
C593 H572 0.950 . S
C593 C592 1.373 . S
C593 C609 1.377 . S
C594 C592 1.389 . S
C594 C595 1.524 . S
C594 C608 1.377 . S
C595 C594 1.524 . S
C595 C596 1.397 . S
C595 C600 1.363 . S
C596 H573 0.950 . S
C596 C595 1.397 . S
C596 C597 1.334 . S
C597 H574 0.950 . S
C597 C596 1.334 . S
C597 C598 1.287 . S
C598 C597 1.287 . S
C598 C599 1.524 . S
C598 H617 0.913 . S
C599 H575 0.950 . S
C599 C598 1.524 . S
C599 C600 1.415 . S
C600 H576 0.950 . S
C600 C595 1.363 . S
C600 C599 1.415 . S
C601 H577 0.951 . S
C601 C602 1.366 . S
C601 C603 1.388 . S
C602 C601 1.366 . S
C602 C606 1.385 . S
C603 H578 0.951 . S
C603 C601 1.388 . S
C603 C604 1.366 . S
C604 C603 1.366 . S
C604 C605 1.414 . S
C604 C607 1.499 . S
C605 H579 0.950 . S
C605 C604 1.414 . S
C605 C606 1.374 . S
C606 H580 0.950 . S
C606 C602 1.385 . S
C606 C605 1.374 . S
C607 C604 1.499 . S
C607 C608 1.373 . S
C607 C609 1.389 . S
C608 H581 0.950 . S
C608 C594 1.377 . S
C608 C607 1.373 . S
C609 C593 1.377 . S
C609 C607 1.389 . S
C609 C610 1.524 . S
C610 C609 1.524 . S
C610 C611 1.397 . S
C610 C615 1.363 . S
C611 H582 0.950 . S
C611 C610 1.397 . S
C611 C612 1.334 . S
C612 H583 0.950 . S
C612 C611 1.334 . S
C612 C613 1.287 . S
C613 C612 1.287 . S
C613 C614 1.524 . S
C613 H616 0.999 . S
C614 H584 0.950 . S
C614 C613 1.524 . S
C614 C615 1.415 . S
C615 H585 0.950 . S
C615 C610 1.363 . S
C615 C614 1.415 . S
H616 C613 0.999 . S
H617 C598 0.913 . S
H618 C636 0.951 1_556 S
H619 C638 0.951 1_556 S
H620 C640 0.950 . S
H621 C641 0.950 . S
H622 C643 0.950 . S
H623 C646 0.950 . S
H624 C647 0.950 . S
H625 C649 0.950 . S
H626 C650 0.950 . S
H627 C651 0.951 1_554 S
H628 C653 0.951 1_554 S
H629 C655 0.950 . S
H630 C656 0.950 . S
H631 C658 0.950 . S
H632 C661 0.950 . S
H633 C662 0.950 . S
H634 C664 0.950 . S
H635 C665 0.950 . S
C636 H618 0.951 1_554 S
C636 C637 1.366 . S
C636 C638 1.388 . S
C637 C636 1.366 . S
C637 C641 1.385 . S
C638 H619 0.951 1_554 S
C638 C636 1.388 . S
C638 C639 1.366 . S
C639 C638 1.366 . S
C639 C640 1.414 . S
C639 C642 1.499 . S
C640 H620 0.950 . S
C640 C639 1.414 . S
C640 C641 1.374 . S
C641 H621 0.950 . S
C641 C637 1.385 . S
C641 C640 1.374 . S
C642 C639 1.499 . S
C642 C643 1.373 . S
C642 C644 1.389 1_554 S
C643 H622 0.950 . S
C643 C642 1.373 . S
C643 C659 1.377 . S
C644 C642 1.389 1_556 S
C644 C645 1.524 . S
C644 C658 1.377 . S
C645 C644 1.524 . S
C645 C646 1.397 . S
C645 C650 1.363 . S
C646 H623 0.950 . S
C646 C645 1.397 . S
C646 C647 1.334 . S
C647 H624 0.950 . S
C647 C646 1.334 . S
C647 C648 1.287 . S
C648 C647 1.287 . S
C648 C649 1.524 . S
C648 H667 0.913 . S
C649 H625 0.950 . S
C649 C648 1.524 . S
C649 C650 1.415 . S
C650 H626 0.950 . S
C650 C645 1.363 . S
C650 C649 1.415 . S
C651 H627 0.951 1_556 S
C651 C652 1.366 . S
C651 C653 1.388 . S
C652 C651 1.366 . S
C652 C656 1.385 . S
C653 H628 0.951 1_556 S
C653 C651 1.388 . S
C653 C654 1.366 . S
C654 C653 1.366 . S
C654 C655 1.414 . S
C654 C657 1.499 . S
C655 H629 0.950 . S
C655 C654 1.414 . S
C655 C656 1.374 . S
C656 H630 0.950 . S
C656 C652 1.385 . S
C656 C655 1.374 . S
C657 C654 1.499 . S
C657 C658 1.373 . S
C657 C659 1.389 1_556 S
C658 H631 0.950 . S
C658 C644 1.377 . S
C658 C657 1.373 . S
C659 C643 1.377 . S
C659 C657 1.389 1_554 S
C659 C660 1.524 . S
C660 C659 1.524 . S
C660 C661 1.397 . S
C660 C665 1.363 . S
C661 H632 0.950 . S
C661 C660 1.397 . S
C661 C662 1.334 . S
C662 H633 0.950 . S
C662 C661 1.334 . S
C662 C663 1.287 . S
C663 C662 1.287 . S
C663 C664 1.524 . S
C663 H666 0.999 . S
C664 H634 0.950 . S
C664 C663 1.524 . S
C664 C665 1.415 . S
C665 H635 0.950 . S
C665 C660 1.363 . S
C665 C664 1.415 . S
H666 C663 0.999 . S
H667 C648 0.913 . S
H668 C686 0.951 . S
H669 C688 0.951 . S
H670 C690 0.950 . S
H671 C691 0.950 . S
H672 C693 0.950 . S
H673 C696 0.950 . S
H674 C697 0.950 . S
H675 C699 0.950 . S
H676 C700 0.950 . S
H677 C701 0.951 . S
H678 C703 0.951 . S
H679 C705 0.950 . S
H680 C706 0.950 . S
H681 C708 0.950 . S
H682 C711 0.950 . S
H683 C712 0.950 . S
H684 C714 0.950 . S
H685 C715 0.950 . S
C686 H668 0.951 . S
C686 C687 1.366 . S
C686 C688 1.388 . S
C687 C686 1.366 . S
C687 C691 1.385 . S
C688 H669 0.951 . S
C688 C686 1.388 . S
C688 C689 1.366 . S
C689 C688 1.366 . S
C689 C690 1.414 . S
C689 C692 1.499 . S
C690 H670 0.950 . S
C690 C689 1.414 . S
C690 C691 1.374 . S
C691 H671 0.950 . S
C691 C687 1.385 . S
C691 C690 1.374 . S
C692 C689 1.499 . S
C692 C693 1.373 . S
C692 C694 1.389 . S
C693 H672 0.950 . S
C693 C692 1.373 . S
C693 C709 1.377 . S
C694 C692 1.389 . S
C694 C695 1.524 . S
C694 C708 1.377 . S
C695 C694 1.524 . S
C695 C696 1.397 . S
C695 C700 1.363 . S
C696 H673 0.950 . S
C696 C695 1.397 . S
C696 C697 1.334 . S
C697 H674 0.950 . S
C697 C696 1.334 . S
C697 C698 1.287 . S
C698 C697 1.287 . S
C698 C699 1.524 . S
C698 H717 0.913 . S
C699 H675 0.950 . S
C699 C698 1.524 . S
C699 C700 1.415 . S
C700 H676 0.950 . S
C700 C695 1.363 . S
C700 C699 1.415 . S
C701 H677 0.951 . S
C701 C702 1.366 . S
C701 C703 1.388 . S
C702 C701 1.366 . S
C702 C706 1.385 . S
C703 H678 0.951 . S
C703 C701 1.388 . S
C703 C704 1.366 . S
C704 C703 1.366 . S
C704 C705 1.414 . S
C704 C707 1.499 . S
C705 H679 0.950 . S
C705 C704 1.414 . S
C705 C706 1.374 . S
C706 H680 0.950 . S
C706 C702 1.385 . S
C706 C705 1.374 . S
C707 C704 1.499 . S
C707 C708 1.373 . S
C707 C709 1.389 . S
C708 H681 0.950 . S
C708 C694 1.377 . S
C708 C707 1.373 . S
C709 C693 1.377 . S
C709 C707 1.389 . S
C709 C710 1.524 . S
C710 C709 1.524 . S
C710 C711 1.397 . S
C710 C715 1.363 . S
C711 H682 0.950 . S
C711 C710 1.397 . S
C711 C712 1.334 . S
C712 H683 0.950 . S
C712 C711 1.334 . S
C712 C713 1.287 . S
C713 C712 1.287 . S
C713 C714 1.524 . S
C713 H716 0.999 . S
C714 H684 0.950 . S
C714 C713 1.524 . S
C714 C715 1.415 . S
C715 H685 0.950 . S
C715 C710 1.363 . S
C715 C714 1.415 . S
H716 C713 0.999 . S
H717 C698 0.913 . S
H718 C736 0.951 . S
H719 C738 0.951 . S
H720 C740 0.950 . S
H721 C741 0.950 . S
H722 C743 0.950 . S
H723 C746 0.950 . S
H724 C747 0.950 . S
H725 C749 0.950 . S
H726 C750 0.950 . S
H727 C751 0.951 . S
H728 C753 0.951 . S
H729 C755 0.950 . S
H730 C756 0.950 . S
H731 C758 0.950 . S
H732 C761 0.950 . S
H733 C762 0.950 . S
H734 C764 0.950 . S
H735 C765 0.950 . S
C736 H718 0.951 . S
C736 C737 1.366 . S
C736 C738 1.388 . S
C737 C736 1.366 . S
C737 C741 1.385 . S
C738 H719 0.951 . S
C738 C736 1.388 . S
C738 C739 1.366 . S
C739 C738 1.366 . S
C739 C740 1.414 . S
C739 C742 1.499 . S
C740 H720 0.950 . S
C740 C739 1.414 . S
C740 C741 1.374 . S
C741 H721 0.950 . S
C741 C737 1.385 . S
C741 C740 1.374 . S
C742 C739 1.499 . S
C742 C743 1.373 . S
C742 C744 1.389 . S
C743 H722 0.950 . S
C743 C742 1.373 . S
C743 C759 1.377 . S
C744 C742 1.389 . S
C744 C745 1.524 . S
C744 C758 1.377 . S
C745 C744 1.524 . S
C745 C746 1.397 . S
C745 C750 1.363 . S
C746 H723 0.950 . S
C746 C745 1.397 . S
C746 C747 1.334 . S
C747 H724 0.950 . S
C747 C746 1.334 . S
C747 C748 1.287 . S
C748 C747 1.287 . S
C748 C749 1.524 . S
C748 H767 0.913 . S
C749 H725 0.950 . S
C749 C748 1.524 . S
C749 C750 1.415 . S
C750 H726 0.950 . S
C750 C745 1.363 . S
C750 C749 1.415 . S
C751 H727 0.951 . S
C751 C752 1.366 . S
C751 C753 1.388 . S
C752 C751 1.366 . S
C752 C756 1.385 . S
C753 H728 0.951 . S
C753 C751 1.388 . S
C753 C754 1.366 . S
C754 C753 1.366 . S
C754 C755 1.414 . S
C754 C757 1.499 . S
C755 H729 0.950 . S
C755 C754 1.414 . S
C755 C756 1.374 . S
C756 H730 0.950 . S
C756 C752 1.385 . S
C756 C755 1.374 . S
C757 C754 1.499 . S
C757 C758 1.373 . S
C757 C759 1.389 . S
C758 H731 0.950 . S
C758 C744 1.377 . S
C758 C757 1.373 . S
C759 C743 1.377 . S
C759 C757 1.389 . S
C759 C760 1.524 . S
C760 C759 1.524 . S
C760 C761 1.397 . S
C760 C765 1.363 . S
C761 H732 0.950 . S
C761 C760 1.397 . S
C761 C762 1.334 . S
C762 H733 0.950 . S
C762 C761 1.334 . S
C762 C763 1.287 . S
C763 C762 1.287 . S
C763 C764 1.524 . S
C763 H766 0.999 . S
C764 H734 0.950 . S
C764 C763 1.524 . S
C764 C765 1.415 . S
C765 H735 0.950 . S
C765 C760 1.363 . S
C765 C764 1.415 . S
H766 C763 0.999 . S
H767 C748 0.913 . S
H768 C786 0.951 . S
H769 C788 0.951 . S
H770 C790 0.950 . S
H771 C791 0.950 . S
H772 C793 0.950 . S
H773 C796 0.950 . S
H774 C797 0.950 . S
H775 C799 0.950 . S
H776 C800 0.950 . S
H777 C801 0.951 . S
H778 C803 0.951 . S
H779 C805 0.950 . S
H780 C806 0.950 . S
H781 C808 0.950 . S
H782 C811 0.950 . S
H783 C812 0.950 . S
H784 C814 0.950 . S
H785 C815 0.950 . S
C786 H768 0.951 . S
C786 C787 1.366 . S
C786 C788 1.388 . S
C787 C786 1.366 . S
C787 C791 1.385 . S
C788 H769 0.951 . S
C788 C786 1.388 . S
C788 C789 1.366 . S
C789 C788 1.366 . S
C789 C790 1.414 . S
C789 C792 1.499 . S
C790 H770 0.950 . S
C790 C789 1.414 . S
C790 C791 1.374 . S
C791 H771 0.950 . S
C791 C787 1.385 . S
C791 C790 1.374 . S
C792 C789 1.499 . S
C792 C793 1.373 . S
C792 C794 1.389 . S
C793 H772 0.950 . S
C793 C792 1.373 . S
C793 C809 1.377 . S
C794 C792 1.389 . S
C794 C795 1.524 . S
C794 C808 1.377 . S
C795 C794 1.524 . S
C795 C796 1.397 . S
C795 C800 1.363 . S
C796 H773 0.950 . S
C796 C795 1.397 . S
C796 C797 1.334 . S
C797 H774 0.950 . S
C797 C796 1.334 . S
C797 C798 1.287 . S
C798 C797 1.287 . S
C798 C799 1.524 . S
C798 H817 0.913 . S
C799 H775 0.950 . S
C799 C798 1.524 . S
C799 C800 1.415 . S
C800 H776 0.950 . S
C800 C795 1.363 . S
C800 C799 1.415 . S
C801 H777 0.951 . S
C801 C802 1.366 . S
C801 C803 1.388 . S
C802 C801 1.366 . S
C802 C806 1.385 . S
C803 H778 0.951 . S
C803 C801 1.388 . S
C803 C804 1.366 . S
C804 C803 1.366 . S
C804 C805 1.414 . S
C804 C807 1.499 . S
C805 H779 0.950 . S
C805 C804 1.414 . S
C805 C806 1.374 . S
C806 H780 0.950 . S
C806 C802 1.385 . S
C806 C805 1.374 . S
C807 C804 1.499 . S
C807 C808 1.373 . S
C807 C809 1.389 . S
C808 H781 0.950 . S
C808 C794 1.377 . S
C808 C807 1.373 . S
C809 C793 1.377 . S
C809 C807 1.389 . S
C809 C810 1.524 . S
C810 C809 1.524 . S
C810 C811 1.397 . S
C810 C815 1.363 . S
C811 H782 0.950 . S
C811 C810 1.397 . S
C811 C812 1.334 . S
C812 H783 0.950 . S
C812 C811 1.334 . S
C812 C813 1.287 . S
C813 C812 1.287 . S
C813 C814 1.524 . S
C813 H816 0.999 . S
C814 H784 0.950 . S
C814 C813 1.524 . S
C814 C815 1.415 . S
C815 H785 0.950 . S
C815 C810 1.363 . S
C815 C814 1.415 . S
H816 C813 0.999 . S
H817 C798 0.913 . S
H818 C836 0.951 . S
H819 C838 0.914 1_455 S
H820 C840 0.950 . S
H821 C841 0.950 . S
H822 C843 0.950 . S
H823 C846 0.950 . S
H824 C847 0.950 . S
H825 C849 0.950 . S
H826 C850 0.950 . S
H827 C851 0.951 . S
H828 C853 0.914 1_655 S
H829 C855 0.950 . S
H830 C856 0.950 . S
H831 C858 0.950 . S
H832 C861 0.950 . S
H833 C862 0.950 . S
H834 C864 0.950 . S
H835 C865 0.950 . S
C836 H818 0.951 . S
C836 C837 1.366 . S
C836 C838 1.395 . S
C837 C836 1.366 . S
C837 C841 1.385 . S
C838 H819 0.914 1_655 S
C838 C836 1.395 . S
C838 C839 1.397 . S
C839 C838 1.397 . S
C839 C840 1.414 . S
C839 C842 1.499 . S
C840 H820 0.950 . S
C840 C839 1.414 . S
C840 C841 1.374 . S
C841 H821 0.950 . S
C841 C837 1.385 . S
C841 C840 1.374 . S
C842 C839 1.499 . S
C842 C843 1.373 . S
C842 C844 1.389 1_655 S
C843 H822 0.950 . S
C843 C842 1.373 . S
C843 C859 1.377 . S
C844 C842 1.389 1_455 S
C844 C845 1.524 . S
C844 C858 1.377 . S
C845 C844 1.524 . S
C845 C846 1.397 . S
C845 C850 1.363 . S
C846 H823 0.950 . S
C846 C845 1.397 . S
C846 C847 1.334 . S
C847 H824 0.950 . S
C847 C846 1.334 . S
C847 C848 1.287 . S
C848 C847 1.287 . S
C848 C849 1.524 . S
C848 H867 0.913 . S
C849 H825 0.950 . S
C849 C848 1.524 . S
C849 C850 1.415 . S
C850 H826 0.950 . S
C850 C845 1.363 . S
C850 C849 1.415 . S
C851 H827 0.951 . S
C851 C852 1.366 . S
C851 C853 1.395 . S
C852 C851 1.366 . S
C852 C856 1.385 . S
C853 H828 0.914 1_455 S
C853 C851 1.395 . S
C853 C854 1.397 . S
C854 C853 1.397 . S
C854 C855 1.414 . S
C854 C857 1.499 . S
C855 H829 0.950 . S
C855 C854 1.414 . S
C855 C856 1.374 . S
C856 H830 0.950 . S
C856 C852 1.385 . S
C856 C855 1.374 . S
C857 C854 1.499 . S
C857 C858 1.373 . S
C857 C859 1.389 1_455 S
C858 H831 0.950 . S
C858 C844 1.377 . S
C858 C857 1.373 . S
C859 C843 1.377 . S
C859 C857 1.389 1_655 S
C859 C860 1.524 . S
C860 C859 1.524 . S
C860 C861 1.397 . S
C860 C865 1.363 . S
C861 H832 0.950 . S
C861 C860 1.397 . S
C861 C862 1.334 . S
C862 H833 0.950 . S
C862 C861 1.334 . S
C862 C863 1.287 . S
C863 C862 1.287 . S
C863 C864 1.524 . S
C863 H866 0.999 . S
C864 H834 0.950 . S
C864 C863 1.524 . S
C864 C865 1.415 . S
C865 H835 0.950 . S
C865 C860 1.363 . S
C865 C864 1.415 . S
H866 C863 0.999 . S
H867 C848 0.913 . S
H868 C886 0.962 1_545 S
H869 C888 0.950 . S
H870 C890 0.950 . S
H871 C891 0.950 . S
H872 C893 0.950 . S
H873 C896 0.950 . S
H874 C897 0.950 . S
H875 C899 0.950 . S
H876 C900 0.950 . S
H877 C901 0.962 1_565 S
H878 C903 0.950 . S
H879 C905 0.950 . S
H880 C906 0.950 . S
H881 C908 0.950 . S
H882 C911 0.950 . S
H883 C912 0.950 . S
H884 C914 0.950 . S
H885 C915 0.950 . S
C886 H868 0.962 1_565 S
C886 C887 1.366 . S
C886 C888 1.386 1_565 S
C887 C886 1.366 . S
C887 C891 1.385 . S
C888 H869 0.950 . S
C888 C886 1.386 1_545 S
C888 C889 1.369 1_545 S
C889 C888 1.369 1_565 S
C889 C890 1.414 . S
C889 C892 1.499 . S
C890 H870 0.950 . S
C890 C889 1.414 . S
C890 C891 1.374 . S
C891 H871 0.950 . S
C891 C887 1.385 . S
C891 C890 1.374 . S
C892 C889 1.499 . S
C892 C893 1.373 . S
C892 C894 1.389 1_565 S
C893 H872 0.950 . S
C893 C892 1.373 . S
C893 C909 1.377 . S
C894 C892 1.389 1_545 S
C894 C895 1.524 . S
C894 C908 1.377 . S
C895 C894 1.524 . S
C895 C896 1.397 . S
C895 C900 1.363 . S
C896 H873 0.950 . S
C896 C895 1.397 . S
C896 C897 1.334 . S
C897 H874 0.950 . S
C897 C896 1.334 . S
C897 C898 1.287 . S
C898 C897 1.287 . S
C898 C899 1.524 . S
C898 H917 0.913 . S
C899 H875 0.950 . S
C899 C898 1.524 . S
C899 C900 1.415 . S
C900 H876 0.950 . S
C900 C895 1.363 . S
C900 C899 1.415 . S
C901 H877 0.962 1_545 S
C901 C902 1.366 . S
C901 C903 1.386 1_545 S
C902 C901 1.366 . S
C902 C906 1.385 . S
C903 H878 0.950 . S
C903 C901 1.386 1_565 S
C903 C904 1.369 1_565 S
C904 C903 1.369 1_545 S
C904 C905 1.414 . S
C904 C907 1.499 . S
C905 H879 0.950 . S
C905 C904 1.414 . S
C905 C906 1.374 . S
C906 H880 0.950 . S
C906 C902 1.385 . S
C906 C905 1.374 . S
C907 C904 1.499 . S
C907 C908 1.373 . S
C907 C909 1.389 1_545 S
C908 H881 0.950 . S
C908 C894 1.377 . S
C908 C907 1.373 . S
C909 C893 1.377 . S
C909 C907 1.389 1_565 S
C909 C910 1.524 . S
C910 C909 1.524 . S
C910 C911 1.397 . S
C910 C915 1.363 . S
C911 H882 0.950 . S
C911 C910 1.397 . S
C911 C912 1.334 . S
C912 H883 0.950 . S
C912 C911 1.334 . S
C912 C913 1.287 . S
C913 C912 1.287 . S
C913 C914 1.524 . S
C913 H916 0.999 . S
C914 H884 0.950 . S
C914 C913 1.524 . S
C914 C915 1.415 . S
C915 H885 0.950 . S
C915 C910 1.363 . S
C915 C914 1.415 . S
H916 C913 0.999 . S
H917 C898 0.913 . S
H918 C936 0.951 . S
H919 C938 0.951 . S
H920 C940 0.950 . S
H921 C941 0.950 . S
H922 C943 0.950 . S
H923 C946 0.950 . S
H924 C947 0.950 . S
H925 C949 0.950 . S
H926 C950 0.950 . S
H927 C951 0.951 . S
H928 C953 0.951 . S
H929 C955 0.950 . S
H930 C956 0.950 . S
H931 C958 0.950 . S
H932 C961 0.950 . S
H933 C962 0.950 . S
H934 C964 0.950 . S
H935 C965 0.950 . S
C936 H918 0.951 . S
C936 C937 1.366 . S
C936 C938 1.388 . S
C937 C936 1.366 . S
C937 C941 1.385 . S
C938 H919 0.951 . S
C938 C936 1.388 . S
C938 C939 1.366 . S
C939 C938 1.366 . S
C939 C940 1.414 . S
C939 C942 1.499 . S
C940 H920 0.950 . S
C940 C939 1.414 . S
C940 C941 1.374 . S
C941 H921 0.950 . S
C941 C937 1.385 . S
C941 C940 1.374 . S
C942 C939 1.499 . S
C942 C943 1.373 . S
C942 C944 1.389 . S
C943 H922 0.950 . S
C943 C942 1.373 . S
C943 C959 1.377 . S
C944 C942 1.389 . S
C944 C945 1.524 . S
C944 C958 1.377 . S
C945 C944 1.524 . S
C945 C946 1.397 . S
C945 C950 1.363 . S
C946 H923 0.950 . S
C946 C945 1.397 . S
C946 C947 1.334 . S
C947 H924 0.950 . S
C947 C946 1.334 . S
C947 C948 1.287 . S
C948 C947 1.287 . S
C948 C949 1.524 . S
C948 H967 0.913 . S
C949 H925 0.950 . S
C949 C948 1.524 . S
C949 C950 1.415 . S
C950 H926 0.950 . S
C950 C945 1.363 . S
C950 C949 1.415 . S
C951 H927 0.951 . S
C951 C952 1.366 . S
C951 C953 1.388 . S
C952 C951 1.366 . S
C952 C956 1.385 . S
C953 H928 0.951 . S
C953 C951 1.388 . S
C953 C954 1.366 . S
C954 C953 1.366 . S
C954 C955 1.414 . S
C954 C957 1.499 . S
C955 H929 0.950 . S
C955 C954 1.414 . S
C955 C956 1.374 . S
C956 H930 0.950 . S
C956 C952 1.385 . S
C956 C955 1.374 . S
C957 C954 1.499 . S
C957 C958 1.373 . S
C957 C959 1.389 . S
C958 H931 0.950 . S
C958 C944 1.377 . S
C958 C957 1.373 . S
C959 C943 1.377 . S
C959 C957 1.389 . S
C959 C960 1.524 . S
C960 C959 1.524 . S
C960 C961 1.397 . S
C960 C965 1.363 . S
C961 H932 0.950 . S
C961 C960 1.397 . S
C961 C962 1.334 . S
C962 H933 0.950 . S
C962 C961 1.334 . S
C962 C963 1.287 . S
C963 C962 1.287 . S
C963 C964 1.524 . S
C963 H966 0.999 . S
C964 H934 0.950 . S
C964 C963 1.524 . S
C964 C965 1.415 . S
C965 H935 0.950 . S
C965 C960 1.363 . S
C965 C964 1.415 . S
H966 C963 0.999 . S
H967 C948 0.913 . S
H968 C986 0.951 . S
H969 C988 0.951 . S
H970 C990 0.950 . S
H971 C991 0.950 1_655 S
H972 C993 0.950 . S
H973 C996 0.950 . S
H974 C997 0.950 . S
H975 C999 0.950 . S
H976 C1000 0.950 . S
H977 C1001 0.951 . S
H978 C1003 0.951 . S
H979 C1005 0.950 . S
H980 C1006 0.950 1_455 S
H981 C1008 0.950 . S
H982 C1011 0.950 . S
H983 C1012 0.950 . S
H984 C1014 0.950 . S
H985 C1015 0.950 . S
C986 H968 0.951 . S
C986 C987 1.366 . S
C986 C988 1.388 . S
C987 C986 1.366 . S
C987 C991 1.385 . S
C988 H969 0.951 . S
C988 C986 1.388 . S
C988 C989 1.366 . S
C989 C988 1.366 . S
C989 C990 1.414 1_455 S
C989 C992 1.499 . S
C990 H970 0.950 . S
C990 C989 1.414 1_655 S
C990 C991 1.374 1_655 S
C991 H971 0.950 1_455 S
C991 C987 1.385 . S
C991 C990 1.374 1_455 S
C992 C989 1.499 . S
C992 C993 1.373 1_455 S
C992 C994 1.389 . S
C993 H972 0.950 . S
C993 C992 1.373 1_655 S
C993 C1009 1.377 . S
C994 C992 1.389 . S
C994 C995 1.524 . S
C994 C1008 1.377 . S
C995 C994 1.524 . S
C995 C996 1.397 . S
C995 C1000 1.363 . S
C996 H973 0.950 . S
C996 C995 1.397 . S
C996 C997 1.334 . S
C997 H974 0.950 . S
C997 C996 1.334 . S
C997 C998 1.287 . S
C998 C997 1.287 . S
C998 C999 1.524 . S
C998 H1017 0.913 . S
C999 H975 0.950 . S
C999 C998 1.524 . S
C999 C1000 1.415 . S
C1000 H976 0.950 . S
C1000 C995 1.363 . S
C1000 C999 1.415 . S
C1001 H977 0.951 . S
C1001 C1002 1.366 . S
C1001 C1003 1.388 . S
C1002 C1001 1.366 . S
C1002 C1006 1.385 . S
C1003 H978 0.951 . S
C1003 C1001 1.388 . S
C1003 C1004 1.366 . S
C1004 C1003 1.366 . S
C1004 C1005 1.414 1_655 S
C1004 C1007 1.499 . S
C1005 H979 0.950 . S
C1005 C1004 1.414 1_455 S
C1005 C1006 1.374 1_455 S
C1006 H980 0.950 1_655 S
C1006 C1002 1.385 . S
C1006 C1005 1.374 1_655 S
C1007 C1004 1.499 . S
C1007 C1008 1.373 1_655 S
C1007 C1009 1.389 . S
C1008 H981 0.950 . S
C1008 C994 1.377 . S
C1008 C1007 1.373 1_455 S
C1009 C993 1.377 . S
C1009 C1007 1.389 . S
C1009 C1010 1.524 . S
C1010 C1009 1.524 . S
C1010 C1011 1.397 . S
C1010 C1015 1.363 . S
C1011 H982 0.950 . S
C1011 C1010 1.397 . S
C1011 C1012 1.334 . S
C1012 H983 0.950 . S
C1012 C1011 1.334 . S
C1012 C1013 1.287 . S
C1013 C1012 1.287 . S
C1013 C1014 1.524 . S
C1013 H1016 0.999 . S
C1014 H984 0.950 . S
C1014 C1013 1.524 . S
C1014 C1015 1.415 . S
C1015 H985 0.950 . S
C1015 C1010 1.363 . S
C1015 C1014 1.415 . S
H1016 C1013 0.999 . S
H1017 C998 0.913 . S
H1018 C1036 0.951 . S
H1019 C1038 0.951 . S
H1020 C1040 0.950 . S
H1021 C1041 0.950 . S
H1022 C1043 0.950 . S
H1023 C1046 0.950 . S
H1024 C1047 0.950 . S
H1025 C1049 0.950 . S
H1026 C1050 0.950 . S
H1027 C1051 0.951 . S
H1028 C1053 0.951 . S
H1029 C1055 0.950 . S
H1030 C1056 0.950 . S
H1031 C1058 0.950 . S
H1032 C1061 0.950 . S
H1033 C1062 0.950 . S
H1034 C1064 0.950 . S
H1035 C1065 0.950 . S
C1036 H1018 0.951 . S
C1036 C1037 1.366 1_545 S
C1036 C1038 1.388 . S
C1037 C1036 1.366 1_565 S
C1037 C1041 1.385 . S
C1038 H1019 0.951 . S
C1038 C1036 1.388 . S
C1038 C1039 1.366 1_545 S
C1039 C1038 1.366 1_565 S
C1039 C1040 1.414 . S
C1039 C1042 1.499 . S
C1040 H1020 0.950 . S
C1040 C1039 1.414 . S
C1040 C1041 1.374 . S
C1041 H1021 0.950 . S
C1041 C1037 1.385 . S
C1041 C1040 1.374 . S
C1042 C1039 1.499 . S
C1042 C1043 1.373 . S
C1042 C1044 1.387 . S
C1043 H1022 0.950 . S
C1043 C1042 1.373 . S
C1043 C1059 1.375 1_565 S
C1044 C1042 1.387 . S
C1044 C1045 1.530 . S
C1044 C1058 1.375 1_565 S
C1045 C1044 1.530 . S
C1045 C1046 1.397 . S
C1045 C1050 1.363 1_565 S
C1046 H1023 0.950 . S
C1046 C1045 1.397 . S
C1046 C1047 1.334 . S
C1047 H1024 0.950 . S
C1047 C1046 1.334 . S
C1047 C1048 1.287 . S
C1048 C1047 1.287 . S
C1048 C1049 1.524 1_565 S
C1048 H1067 0.913 . S
C1049 H1025 0.950 . S
C1049 C1048 1.524 1_545 S
C1049 C1050 1.415 . S
C1050 H1026 0.950 . S
C1050 C1045 1.363 1_545 S
C1050 C1049 1.415 . S
C1051 H1027 0.951 . S
C1051 C1052 1.366 1_565 S
C1051 C1053 1.388 . S
C1052 C1051 1.366 1_545 S
C1052 C1056 1.385 . S
C1053 H1028 0.951 . S
C1053 C1051 1.388 . S
C1053 C1054 1.366 1_565 S
C1054 C1053 1.366 1_545 S
C1054 C1055 1.414 . S
C1054 C1057 1.499 . S
C1055 H1029 0.950 . S
C1055 C1054 1.414 . S
C1055 C1056 1.374 . S
C1056 H1030 0.950 . S
C1056 C1052 1.385 . S
C1056 C1055 1.374 . S
C1057 C1054 1.499 . S
C1057 C1058 1.373 . S
C1057 C1059 1.387 . S
C1058 H1031 0.950 . S
C1058 C1044 1.375 1_545 S
C1058 C1057 1.373 . S
C1059 C1043 1.375 1_545 S
C1059 C1057 1.387 . S
C1059 C1060 1.530 . S
C1060 C1059 1.530 . S
C1060 C1061 1.397 . S
C1060 C1065 1.363 1_545 S
C1061 H1032 0.950 . S
C1061 C1060 1.397 . S
C1061 C1062 1.334 . S
C1062 H1033 0.950 . S
C1062 C1061 1.334 . S
C1062 C1063 1.287 . S
C1063 C1062 1.287 . S
C1063 C1064 1.524 1_545 S
C1063 H1066 0.999 . S
C1064 H1034 0.950 . S
C1064 C1063 1.524 1_565 S
C1064 C1065 1.415 . S
C1065 H1035 0.950 . S
C1065 C1060 1.363 1_565 S
C1065 C1064 1.415 . S
H1066 C1063 0.999 . S
H1067 C1048 0.913 . S
H1068 C1086 0.951 . S
H1069 C1088 0.951 . S
H1070 C1090 0.950 . S
H1071 C1091 0.950 . S
H1072 C1093 0.950 . S
H1073 C1096 0.950 . S
H1074 C1097 0.950 . S
H1075 C1099 0.950 . S
H1076 C1100 0.950 . S
H1077 C1101 0.951 . S
H1078 C1103 0.951 . S
H1079 C1105 0.950 . S
H1080 C1106 0.950 . S
H1081 C1108 0.950 . S
H1082 C1111 0.950 . S
H1083 C1112 0.950 . S
H1084 C1114 0.950 . S
H1085 C1115 0.950 . S
C1086 H1068 0.951 . S
C1086 C1087 1.366 . S
C1086 C1088 1.388 . S
C1087 C1086 1.366 . S
C1087 C1091 1.385 . S
C1088 H1069 0.951 . S
C1088 C1086 1.388 . S
C1088 C1089 1.366 . S
C1089 C1088 1.366 . S
C1089 C1090 1.414 . S
C1089 C1092 1.499 . S
C1090 H1070 0.950 . S
C1090 C1089 1.414 . S
C1090 C1091 1.374 . S
C1091 H1071 0.950 . S
C1091 C1087 1.385 . S
C1091 C1090 1.374 . S
C1092 C1089 1.499 . S
C1092 C1093 1.373 . S
C1092 C1094 1.389 . S
C1093 H1072 0.950 . S
C1093 C1092 1.373 . S
C1093 C1109 1.377 . S
C1094 C1092 1.389 . S
C1094 C1095 1.524 . S
C1094 C1108 1.377 . S
C1095 C1094 1.524 . S
C1095 C1096 1.397 . S
C1095 C1100 1.363 . S
C1096 H1073 0.950 . S
C1096 C1095 1.397 . S
C1096 C1097 1.334 . S
C1097 H1074 0.950 . S
C1097 C1096 1.334 . S
C1097 C1098 1.287 . S
C1098 C1097 1.287 . S
C1098 C1099 1.524 . S
C1098 H1117 0.913 . S
C1099 H1075 0.950 . S
C1099 C1098 1.524 . S
C1099 C1100 1.415 . S
C1100 H1076 0.950 . S
C1100 C1095 1.363 . S
C1100 C1099 1.415 . S
C1101 H1077 0.951 . S
C1101 C1102 1.366 . S
C1101 C1103 1.388 . S
C1102 C1101 1.366 . S
C1102 C1106 1.385 . S
C1103 H1078 0.951 . S
C1103 C1101 1.388 . S
C1103 C1104 1.366 . S
C1104 C1103 1.366 . S
C1104 C1105 1.414 . S
C1104 C1107 1.499 . S
C1105 H1079 0.950 . S
C1105 C1104 1.414 . S
C1105 C1106 1.374 . S
C1106 H1080 0.950 . S
C1106 C1102 1.385 . S
C1106 C1105 1.374 . S
C1107 C1104 1.499 . S
C1107 C1108 1.373 . S
C1107 C1109 1.389 . S
C1108 H1081 0.950 . S
C1108 C1094 1.377 . S
C1108 C1107 1.373 . S
C1109 C1093 1.377 . S
C1109 C1107 1.389 . S
C1109 C1110 1.524 . S
C1110 C1109 1.524 . S
C1110 C1111 1.397 . S
C1110 C1115 1.363 . S
C1111 H1082 0.950 . S
C1111 C1110 1.397 . S
C1111 C1112 1.334 . S
C1112 H1083 0.950 . S
C1112 C1111 1.334 . S
C1112 C1113 1.287 . S
C1113 C1112 1.287 . S
C1113 C1114 1.524 . S
C1113 H1116 0.999 . S
C1114 H1084 0.950 . S
C1114 C1113 1.524 . S
C1114 C1115 1.415 . S
C1115 H1085 0.950 . S
C1115 C1110 1.363 . S
C1115 C1114 1.415 . S
H1116 C1113 0.999 . S
H1117 C1098 0.913 . S
H1118 C1136 0.951 . S
H1119 C1138 0.951 1_655 S
H1120 C1140 0.950 . S
H1121 C1141 0.950 . S
H1122 C1143 0.950 . S
H1123 C1146 0.950 . S
H1124 C1147 0.950 . S
H1125 C1149 0.950 . S
H1126 C1150 0.950 . S
H1127 C1151 0.951 . S
H1128 C1153 0.951 1_455 S
H1129 C1155 0.950 . S
H1130 C1156 0.950 . S
H1131 C1158 0.950 . S
H1132 C1161 0.950 . S
H1133 C1162 0.950 . S
H1134 C1164 0.950 . S
H1135 C1165 0.950 . S
C1136 H1118 0.951 . S
C1136 C1137 1.366 . S
C1136 C1138 1.388 . S
C1137 C1136 1.366 . S
C1137 C1141 1.385 . S
C1138 H1119 0.951 1_455 S
C1138 C1136 1.388 . S
C1138 C1139 1.366 . S
C1139 C1138 1.366 . S
C1139 C1140 1.414 . S
C1139 C1142 1.499 . S
C1140 H1120 0.950 . S
C1140 C1139 1.414 . S
C1140 C1141 1.374 . S
C1141 H1121 0.950 . S
C1141 C1137 1.385 . S
C1141 C1140 1.374 . S
C1142 C1139 1.499 . S
C1142 C1143 1.373 . S
C1142 C1144 1.389 1_455 S
C1143 H1122 0.950 . S
C1143 C1142 1.373 . S
C1143 C1159 1.377 . S
C1144 C1142 1.389 1_655 S
C1144 C1145 1.524 . S
C1144 C1158 1.377 . S
C1145 C1144 1.524 . S
C1145 C1146 1.397 . S
C1145 C1150 1.363 . S
C1146 H1123 0.950 . S
C1146 C1145 1.397 . S
C1146 C1147 1.334 . S
C1147 H1124 0.950 . S
C1147 C1146 1.334 . S
C1147 C1148 1.287 . S
C1148 C1147 1.287 . S
C1148 C1149 1.524 . S
C1148 H1167 0.913 . S
C1149 H1125 0.950 . S
C1149 C1148 1.524 . S
C1149 C1150 1.415 . S
C1150 H1126 0.950 . S
C1150 C1145 1.363 . S
C1150 C1149 1.415 . S
C1151 H1127 0.951 . S
C1151 C1152 1.366 . S
C1151 C1153 1.388 . S
C1152 C1151 1.366 . S
C1152 C1156 1.385 . S
C1153 H1128 0.951 1_655 S
C1153 C1151 1.388 . S
C1153 C1154 1.366 . S
C1154 C1153 1.366 . S
C1154 C1155 1.414 . S
C1154 C1157 1.499 . S
C1155 H1129 0.950 . S
C1155 C1154 1.414 . S
C1155 C1156 1.374 . S
C1156 H1130 0.950 . S
C1156 C1152 1.385 . S
C1156 C1155 1.374 . S
C1157 C1154 1.499 . S
C1157 C1158 1.373 . S
C1157 C1159 1.389 1_655 S
C1158 H1131 0.950 . S
C1158 C1144 1.377 . S
C1158 C1157 1.373 . S
C1159 C1143 1.377 . S
C1159 C1157 1.389 1_455 S
C1159 C1160 1.524 . S
C1160 C1159 1.524 . S
C1160 C1161 1.397 . S
C1160 C1165 1.363 . S
C1161 H1132 0.950 . S
C1161 C1160 1.397 . S
C1161 C1162 1.334 . S
C1162 H1133 0.950 . S
C1162 C1161 1.334 . S
C1162 C1163 1.287 . S
C1163 C1162 1.287 . S
C1163 C1164 1.524 . S
C1163 H1166 0.999 . S
C1164 H1134 0.950 . S
C1164 C1163 1.524 . S
C1164 C1165 1.415 . S
C1165 H1135 0.950 . S
C1165 C1160 1.363 . S
C1165 C1164 1.415 . S
H1166 C1163 0.999 . S
H1167 C1148 0.913 . S
H1168 C1186 0.951 . S
H1169 C1188 0.951 . S
H1170 C1190 0.950 1_545 S
H1171 C1191 0.948 1_545 S
H1172 C1193 0.950 . S
H1173 C1196 0.950 . S
H1174 C1197 0.950 . S
H1175 C1199 0.950 . S
H1176 C1200 0.950 . S
H1177 C1201 0.951 . S
H1178 C1203 0.951 . S
H1179 C1205 0.950 1_565 S
H1180 C1206 0.948 1_565 S
H1181 C1208 0.950 . S
H1182 C1211 0.950 . S
H1183 C1212 0.950 . S
H1184 C1214 0.950 . S
H1185 C1215 0.950 . S
C1186 H1168 0.951 . S
C1186 C1187 1.366 . S
C1186 C1188 1.388 . S
C1187 C1186 1.366 . S
C1187 C1191 1.385 . S
C1188 H1169 0.951 . S
C1188 C1186 1.388 . S
C1188 C1189 1.366 . S
C1189 C1188 1.366 . S
C1189 C1190 1.414 . S
C1189 C1192 1.499 . S
C1190 H1170 0.950 1_565 S
C1190 C1189 1.414 . S
C1190 C1191 1.374 . S
C1191 H1171 0.948 1_565 S
C1191 C1187 1.385 . S
C1191 C1190 1.374 . S
C1192 C1189 1.499 . S
C1192 C1193 1.373 1_565 S
C1192 C1194 1.389 . S
C1193 H1172 0.950 . S
C1193 C1192 1.373 1_545 S
C1193 C1209 1.377 . S
C1194 C1192 1.389 . S
C1194 C1195 1.524 . S
C1194 C1208 1.377 . S
C1195 C1194 1.524 . S
C1195 C1196 1.397 . S
C1195 C1200 1.363 . S
C1196 H1173 0.950 . S
C1196 C1195 1.397 . S
C1196 C1197 1.334 . S
C1197 H1174 0.950 . S
C1197 C1196 1.334 . S
C1197 C1198 1.287 . S
C1198 C1197 1.287 . S
C1198 C1199 1.524 . S
C1198 H1217 0.913 . S
C1199 H1175 0.950 . S
C1199 C1198 1.524 . S
C1199 C1200 1.415 . S
C1200 H1176 0.950 . S
C1200 C1195 1.363 . S
C1200 C1199 1.415 . S
C1201 H1177 0.951 . S
C1201 C1202 1.366 . S
C1201 C1203 1.388 . S
C1202 C1201 1.366 . S
C1202 C1206 1.385 . S
C1203 H1178 0.951 . S
C1203 C1201 1.388 . S
C1203 C1204 1.366 . S
C1204 C1203 1.366 . S
C1204 C1205 1.414 . S
C1204 C1207 1.499 . S
C1205 H1179 0.950 1_545 S
C1205 C1204 1.414 . S
C1205 C1206 1.374 . S
C1206 H1180 0.948 1_545 S
C1206 C1202 1.385 . S
C1206 C1205 1.374 . S
C1207 C1204 1.499 . S
C1207 C1208 1.373 1_545 S
C1207 C1209 1.389 . S
C1208 H1181 0.950 . S
C1208 C1194 1.377 . S
C1208 C1207 1.373 1_565 S
C1209 C1193 1.377 . S
C1209 C1207 1.389 . S
C1209 C1210 1.524 . S
C1210 C1209 1.524 . S
C1210 C1211 1.397 . S
C1210 C1215 1.363 . S
C1211 H1182 0.950 . S
C1211 C1210 1.397 . S
C1211 C1212 1.334 . S
C1212 H1183 0.950 . S
C1212 C1211 1.334 . S
C1212 C1213 1.287 . S
C1213 C1212 1.287 . S
C1213 C1214 1.524 . S
C1213 H1216 0.999 . S
C1214 H1184 0.950 . S
C1214 C1213 1.524 . S
C1214 C1215 1.415 . S
C1215 H1185 0.950 . S
C1215 C1210 1.363 . S
C1215 C1214 1.415 . S
H1216 C1213 0.999 . S
H1217 C1198 0.913 . S
H1218 C1236 0.951 . S
H1219 C1238 0.951 . S
H1220 C1240 0.950 . S
H1221 C1241 0.950 . S
H1222 C1243 0.950 . S
H1223 C1246 0.950 . S
H1224 C1247 0.950 . S
H1225 C1249 0.950 . S
H1226 C1250 0.950 . S
H1227 C1251 0.951 . S
H1228 C1253 0.951 . S
H1229 C1255 0.950 . S
H1230 C1256 0.950 . S
H1231 C1258 0.950 . S
H1232 C1261 0.950 . S
H1233 C1262 0.950 . S
H1234 C1264 0.950 . S
H1235 C1265 0.950 . S
C1236 H1218 0.951 . S
C1236 C1237 1.366 . S
C1236 C1238 1.388 . S
C1237 C1236 1.366 . S
C1237 C1241 1.385 . S
C1238 H1219 0.951 . S
C1238 C1236 1.388 . S
C1238 C1239 1.366 . S
C1239 C1238 1.366 . S
C1239 C1240 1.414 . S
C1239 C1242 1.499 . S
C1240 H1220 0.950 . S
C1240 C1239 1.414 . S
C1240 C1241 1.374 . S
C1241 H1221 0.950 . S
C1241 C1237 1.385 . S
C1241 C1240 1.374 . S
C1242 C1239 1.499 . S
C1242 C1243 1.373 . S
C1242 C1244 1.389 . S
C1243 H1222 0.950 . S
C1243 C1242 1.373 . S
C1243 C1259 1.377 . S
C1244 C1242 1.389 . S
C1244 C1245 1.524 . S
C1244 C1258 1.377 . S
C1245 C1244 1.524 . S
C1245 C1246 1.397 . S
C1245 C1250 1.363 . S
C1246 H1223 0.950 . S
C1246 C1245 1.397 . S
C1246 C1247 1.334 . S
C1247 H1224 0.950 . S
C1247 C1246 1.334 . S
C1247 C1248 1.287 . S
C1248 C1247 1.287 . S
C1248 C1249 1.524 . S
C1248 H1267 0.913 . S
C1249 H1225 0.950 . S
C1249 C1248 1.524 . S
C1249 C1250 1.415 . S
C1250 H1226 0.950 . S
C1250 C1245 1.363 . S
C1250 C1249 1.415 . S
C1251 H1227 0.951 . S
C1251 C1252 1.366 . S
C1251 C1253 1.388 . S
C1252 C1251 1.366 . S
C1252 C1256 1.385 . S
C1253 H1228 0.951 . S
C1253 C1251 1.388 . S
C1253 C1254 1.366 . S
C1254 C1253 1.366 . S
C1254 C1255 1.414 . S
C1254 C1257 1.499 . S
C1255 H1229 0.950 . S
C1255 C1254 1.414 . S
C1255 C1256 1.374 . S
C1256 H1230 0.950 . S
C1256 C1252 1.385 . S
C1256 C1255 1.374 . S
C1257 C1254 1.499 . S
C1257 C1258 1.373 . S
C1257 C1259 1.389 . S
C1258 H1231 0.950 . S
C1258 C1244 1.377 . S
C1258 C1257 1.373 . S
C1259 C1243 1.377 . S
C1259 C1257 1.389 . S
C1259 C1260 1.524 . S
C1260 C1259 1.524 . S
C1260 C1261 1.397 . S
C1260 C1265 1.363 . S
C1261 H1232 0.950 . S
C1261 C1260 1.397 . S
C1261 C1262 1.334 . S
C1262 H1233 0.950 . S
C1262 C1261 1.334 . S
C1262 C1263 1.287 . S
C1263 C1262 1.287 . S
C1263 C1264 1.524 . S
C1263 H1266 0.999 . S
C1264 H1234 0.950 . S
C1264 C1263 1.524 . S
C1264 C1265 1.415 . S
C1265 H1235 0.950 . S
C1265 C1260 1.363 . S
C1265 C1264 1.415 . S
H1266 C1263 0.999 . S
H1267 C1248 0.913 . S
H1268 C1286 0.951 . S
H1269 C1288 0.951 . S
H1270 C1290 0.950 . S
H1271 C1291 0.950 1_455 S
H1272 C1293 0.941 . S
H1273 C1296 0.950 1_556 S
H1274 C1297 0.950 . S
H1275 C1299 0.950 . S
H1276 C1300 0.950 . S
H1277 C1301 0.951 . S
H1278 C1303 0.951 . S
H1279 C1305 0.950 . S
H1280 C1306 0.950 1_655 S
H1281 C1308 0.941 . S
H1282 C1311 0.950 . S
H1283 C1312 0.950 . S
H1284 C1314 0.950 . S
H1285 C1315 0.950 . S
C1286 H1268 0.951 . S
C1286 C1287 1.366 . S
C1286 C1288 1.388 . S
C1287 C1286 1.366 . S
C1287 C1291 1.385 . S
C1288 H1269 0.951 . S
C1288 C1286 1.388 . S
C1288 C1289 1.366 . S
C1289 C1288 1.366 . S
C1289 C1290 1.414 1_655 S
C1289 C1292 1.499 . S
C1290 H1270 0.950 . S
C1290 C1289 1.414 1_455 S
C1290 C1291 1.374 1_455 S
C1291 H1271 0.950 1_655 S
C1291 C1287 1.385 . S
C1291 C1290 1.374 1_655 S
C1292 C1289 1.499 . S
C1292 C1293 1.356 1_655 S
C1292 C1294 1.389 . S
C1293 H1272 0.941 . S
C1293 C1292 1.356 1_455 S
C1293 C1309 1.405 . S
C1294 C1292 1.389 . S
C1294 C1295 1.524 1_556 S
C1294 C1308 1.405 . S
C1295 C1294 1.524 1_554 S
C1295 C1296 1.397 1_655 S
C1295 C1300 1.363 . S
C1296 H1273 0.950 1_554 S
C1296 C1295 1.397 1_455 S
C1296 C1297 1.334 . S
C1297 H1274 0.950 . S
C1297 C1296 1.334 . S
C1297 C1298 1.287 1_455 S
C1298 C1297 1.287 1_655 S
C1298 C1299 1.524 . S
C1298 H1317 0.913 . S
C1299 H1275 0.950 . S
C1299 C1298 1.524 . S
C1299 C1300 1.415 . S
C1300 H1276 0.950 . S
C1300 C1295 1.363 . S
C1300 C1299 1.415 . S
C1301 H1277 0.951 . S
C1301 C1302 1.366 . S
C1301 C1303 1.388 . S
C1302 C1301 1.366 . S
C1302 C1306 1.385 . S
C1303 H1278 0.951 . S
C1303 C1301 1.388 . S
C1303 C1304 1.366 . S
C1304 C1303 1.366 . S
C1304 C1305 1.414 1_455 S
C1304 C1307 1.499 . S
C1305 H1279 0.950 . S
C1305 C1304 1.414 1_655 S
C1305 C1306 1.374 1_655 S
C1306 H1280 0.950 1_455 S
C1306 C1302 1.385 . S
C1306 C1305 1.374 1_455 S
C1307 C1304 1.499 . S
C1307 C1308 1.356 1_455 S
C1307 C1309 1.389 . S
C1308 H1281 0.941 . S
C1308 C1294 1.405 . S
C1308 C1307 1.356 1_655 S
C1309 C1293 1.405 . S
C1309 C1307 1.389 . S
C1309 C1310 1.524 . S
C1310 C1309 1.524 . S
C1310 C1311 1.397 1_455 S
C1310 C1315 1.363 . S
C1311 H1282 0.950 . S
C1311 C1310 1.397 1_655 S
C1311 C1312 1.334 . S
C1312 H1283 0.950 . S
C1312 C1311 1.334 . S
C1312 C1313 1.287 1_655 S
C1313 C1312 1.287 1_455 S
C1313 C1314 1.524 . S
C1313 H1316 0.999 . S
C1314 H1284 0.950 . S
C1314 C1313 1.524 . S
C1314 C1315 1.415 . S
C1315 H1285 0.950 . S
C1315 C1310 1.363 . S
C1315 C1314 1.415 . S
H1316 C1313 0.999 . S
H1317 C1298 0.913 . S
H1318 C1336 0.951 1_565 S
H1319 C1338 0.978 . S
H1320 C1340 0.950 . S
H1321 C1341 0.950 . S
H1322 C1343 0.950 . S
H1323 C1346 0.950 . S
H1324 C1347 0.950 . S
H1325 C1349 0.950 . S
H1326 C1350 0.950 . S
H1327 C1351 0.951 1_545 S
H1328 C1353 0.978 . S
H1329 C1355 0.950 . S
H1330 C1356 0.950 . S
H1331 C1358 0.950 . S
H1332 C1361 0.950 . S
H1333 C1362 0.950 . S
H1334 C1364 0.950 . S
H1335 C1365 0.950 . S
C1336 H1318 0.951 1_545 S
C1336 C1337 1.366 . S
C1336 C1338 1.404 1_545 S
C1337 C1336 1.366 . S
C1337 C1341 1.385 . S
C1338 H1319 0.978 . S
C1338 C1336 1.404 1_565 S
C1338 C1339 1.325 1_565 S
C1339 C1338 1.325 1_545 S
C1339 C1340 1.414 . S
C1339 C1342 1.499 . S
C1340 H1320 0.950 . S
C1340 C1339 1.414 . S
C1340 C1341 1.374 . S
C1341 H1321 0.950 . S
C1341 C1337 1.385 . S
C1341 C1340 1.374 . S
C1342 C1339 1.499 . S
C1342 C1343 1.373 . S
C1342 C1344 1.389 1_545 S
C1343 H1322 0.950 . S
C1343 C1342 1.373 . S
C1343 C1359 1.377 . S
C1344 C1342 1.389 1_565 S
C1344 C1345 1.524 . S
C1344 C1358 1.377 . S
C1345 C1344 1.524 . S
C1345 C1346 1.397 . S
C1345 C1350 1.363 . S
C1346 H1323 0.950 . S
C1346 C1345 1.397 . S
C1346 C1347 1.334 . S
C1347 H1324 0.950 . S
C1347 C1346 1.334 . S
C1347 C1348 1.287 . S
C1348 C1347 1.287 . S
C1348 C1349 1.524 . S
C1348 H1367 0.913 . S
C1349 H1325 0.950 . S
C1349 C1348 1.524 . S
C1349 C1350 1.415 . S
C1350 H1326 0.950 . S
C1350 C1345 1.363 . S
C1350 C1349 1.415 . S
C1351 H1327 0.951 1_565 S
C1351 C1352 1.366 . S
C1351 C1353 1.404 1_565 S
C1352 C1351 1.366 . S
C1352 C1356 1.385 . S
C1353 H1328 0.978 . S
C1353 C1351 1.404 1_545 S
C1353 C1354 1.325 1_545 S
C1354 C1353 1.325 1_565 S
C1354 C1355 1.414 . S
C1354 C1357 1.499 . S
C1355 H1329 0.950 . S
C1355 C1354 1.414 . S
C1355 C1356 1.374 . S
C1356 H1330 0.950 . S
C1356 C1352 1.385 . S
C1356 C1355 1.374 . S
C1357 C1354 1.499 . S
C1357 C1358 1.373 . S
C1357 C1359 1.389 1_565 S
C1358 H1331 0.950 . S
C1358 C1344 1.377 . S
C1358 C1357 1.373 . S
C1359 C1343 1.377 . S
C1359 C1357 1.389 1_545 S
C1359 C1360 1.524 . S
C1360 C1359 1.524 . S
C1360 C1361 1.397 . S
C1360 C1365 1.363 . S
C1361 H1332 0.950 . S
C1361 C1360 1.397 . S
C1361 C1362 1.334 . S
C1362 H1333 0.950 . S
C1362 C1361 1.334 . S
C1362 C1363 1.287 . S
C1363 C1362 1.287 . S
C1363 C1364 1.524 . S
C1363 H1366 0.999 . S
C1364 H1334 0.950 . S
C1364 C1363 1.524 . S
C1364 C1365 1.415 . S
C1365 H1335 0.950 . S
C1365 C1360 1.363 . S
C1365 C1364 1.415 . S
H1366 C1363 0.999 . S
H1367 C1348 0.913 . S
C187 C3 1.466 . S
C202 C129 1.466 . S
C237 C17 1.466 . S
C252 C143 1.466 . S
C287 C31 1.466 . S
C302 C157 1.466 . S
C337 C45 1.465 . S
C352 C87 1.466 . S
C387 C101 1.466 . S
C402 C59 1.466 . S
C437 C115 1.466 . S
C452 C73 1.466 . S
C487 C148 1.588 . S
C502 C8 1.587 . S
C537 C22 1.587 . S
C552 C162 1.587 . S
C587 C36 1.587 . S
C602 C92 1.588 . S
C637 C50 1.588 . S
C652 C106 1.587 . S
C687 C64 1.587 . S
C702 C120 1.588 . S
C737 C78 1.588 . S
C752 C134 1.588 . S
C787 C133 0.462 . S
C802 C7 0.460 1_556 S
C837 C21 0.461 . S
C852 C147 0.461 1_554 S
C887 C35 0.461 . S
C902 C161 0.461 . S
C937 C91 0.461 . S
C952 C49 0.461 1_556 S
C987 C63 0.460 . S
C1002 C105 0.461 1_554 S
C1037 C119 0.462 . S
C1052 C77 0.460 . S
C1087 C9 1.522 . S
C1102 C51 1.522 . S
C1137 C65 1.522 . S
C1152 C23 1.522 . S
C1187 C37 1.522 . S
C1202 C79 1.522 . S
C1237 C93 1.522 . S
C1252 C135 1.522 . S
C1287 C107 1.522 . S
C1302 C149 1.522 . S
C1337 C163 1.522 . S
C1352 C121 1.522 . S
