# Generated by pormake.
# Topology qtz-e, (6)-cn, num edge types: 1
# Building blocks:
#     Node 0, Type 0, BuildingBlock: KUMJIN_clean_sbu_0, # of connection points: 6
#     Node 1, Type 0, BuildingBlock: KUMJIN_clean_sbu_0, # of connection points: 6
#     Node 2, Type 0, BuildingBlock: KUMJIN_clean_sbu_0, # of connection points: 6
#     Node 3, Type 0, BuildingBlock: KUMJIN_clean_sbu_0, # of connection points: 6
#     Node 4, Type 0, BuildingBlock: KUMJIN_clean_sbu_0, # of connection points: 6
#     Node 5, Type 0, BuildingBlock: KUMJIN_clean_sbu_0, # of connection points: 6
#     Edge 6, Type (0, 0), BuildingBlock: ZUJKAS_clean_linker_0, # of connection points: 2
#     Edge 7, Type (0, 0), BuildingBlock: ZUJKAS_clean_linker_0, # of connection points: 2
#     Edge 8, Type (0, 0), BuildingBlock: ZUJKAS_clean_linker_0, # of connection points: 2
#     Edge 9, Type (0, 0), BuildingBlock: ZUJKAS_clean_linker_0, # of connection points: 2
#     Edge 10, Type (0, 0), BuildingBlock: ZUJKAS_clean_linker_0, # of connection points: 2
#     Edge 11, Type (0, 0), BuildingBlock: ZUJKAS_clean_linker_0, # of connection points: 2
#     Edge 12, Type (0, 0), BuildingBlock: ZUJKAS_clean_linker_0, # of connection points: 2
#     Edge 13, Type (0, 0), BuildingBlock: ZUJKAS_clean_linker_0, # of connection points: 2
#     Edge 14, Type (0, 0), BuildingBlock: ZUJKAS_clean_linker_0, # of connection points: 2
#     Edge 15, Type (0, 0), BuildingBlock: ZUJKAS_clean_linker_0, # of connection points: 2
#     Edge 16, Type (0, 0), BuildingBlock: ZUJKAS_clean_linker_0, # of connection points: 2
#     Edge 17, Type (0, 0), BuildingBlock: ZUJKAS_clean_linker_0, # of connection points: 2
#     Edge 18, Type (0, 0), BuildingBlock: ZUJKAS_clean_linker_0, # of connection points: 2
#     Edge 19, Type (0, 0), BuildingBlock: ZUJKAS_clean_linker_0, # of connection points: 2
#     Edge 20, Type (0, 0), BuildingBlock: ZUJKAS_clean_linker_0, # of connection points: 2
#     Edge 21, Type (0, 0), BuildingBlock: ZUJKAS_clean_linker_0, # of connection points: 2
#     Edge 22, Type (0, 0), BuildingBlock: ZUJKAS_clean_linker_0, # of connection points: 2
#     Edge 23, Type (0, 0), BuildingBlock: ZUJKAS_clean_linker_0, # of connection points: 2
# Relax obj value: 0.056
# Max RMSD: 0.138
# Mean RMSD: 0.138
data_MOF--net-qtz-e--node1-KUMJIN_clean_sbu_0--edge1-ZUJKAS_clean_linker_0
_symmetry_space_group_name_H-M    P1
_symmetry_Int_Tables_number       1
_symmetry_cell_setting            triclinic
loop_
_symmetry_equiv_pos_as_xyz
'x, y, z'
_cell_length_a     37.847247
_cell_length_b     37.783827
_cell_length_c     56.768691
_cell_angle_alpha  90.170976
_cell_angle_beta   89.848067
_cell_angle_gamma 119.97605
loop_
_atom_site_label
_atom_site_type_symbol
_atom_site_fract_x
_atom_site_fract_y
_atom_site_fract_z
_atom_type_partial_charge
Eu0 Eu 0.2331 0.4741 0.03605 0.0
C1 C 0.11298 0.28982 0.01937 0.0
C2 C 0.1301 0.2611 0.05249 0.0
C3 C 0.06096 0.22648 0.03713 0.0
C4 C 0.1413 0.29195 0.0354 0.0
C5 C 0.07273 0.2565 0.01962 0.0
C6 C 0.08959 0.22884 0.05358 0.0
C7 C 0.05979 0.28318 0.98407 0.0
N8 N 0.12537 0.31924 1.00271 0.0
C9 C 0.10005 0.31553 0.98457 0.0
C10 C 0.04587 0.2538 1.00187 0.0
Eu11 Eu 0.19326 0.37439 1.0051 0.0
N12 N 0.18017 0.32344 0.03375 0.0
C13 C 0.20998 0.32449 0.04778 0.0
C14 C 0.16013 0.26318 0.06767 0.0
C15 C 0.20035 0.29473 0.06508 0.0
H16 H 0.11076 0.33835 0.97081 0.0
H17 H 0.22396 0.2963 0.0765 0.0
H18 H 0.08033 0.20507 0.06673 0.0
H19 H 0.03957 0.28092 0.96997 0.0
H20 H 0.24114 0.34881 0.04629 0.0
H21 H 0.22959 0.57905 0.97119 0.0
H22 H 0.15276 0.24018 0.08109 0.0
H23 H 0.30719 0.48917 0.07388 0.0
H24 H 0.20092 0.51711 0.99566 0.0
H25 H 0.37947 0.54026 0.08155 0.0
H26 H 0.03007 0.20087 0.03777 0.0
H27 H 0.3029 0.63054 0.97388 0.0
H28 H 0.37053 0.65451 0.99346 0.0
H29 H 0.01472 0.22866 1.00142 0.0
H30 H 0.41113 0.64426 0.02361 0.0
N31 N 0.25772 0.53233 0.01154 0.0
C32 C 0.23299 0.53915 0.99702 0.0
C33 C 0.29051 0.60331 0.98468 0.0
C34 C 0.31517 0.59737 1.00065 0.0
C35 C 0.24911 0.57435 0.98313 0.0
C36 C 0.29758 0.5613 0.01421 0.0
H37 H 0.41464 0.60201 0.05665 0.0
N38 N 0.30215 0.52134 0.04462 0.0
C39 C 0.36325 0.54491 0.06733 0.0
C40 C 0.32039 0.55576 0.03133 0.0
C41 C 0.32239 0.51612 0.06299 0.0
C42 C 0.383 0.57972 0.05321 0.0
C43 C 0.36147 0.58577 0.03514 0.0
O44 O 0.23224 0.49377 0.07224 0.0
O45 O 0.19393 0.4062 0.03869 0.0
O46 O 0.13957 0.38628 1.0088 0.0
O47 O 0.17209 0.4556 0.01962 0.0
O48 O 0.23178 0.43512 0.06675 0.0
O49 O 0.19819 0.50383 0.0449 0.0
O50 O 0.18983 0.35537 0.96826 0.0
O51 O 0.22839 0.44169 1.00252 0.0
O52 O 0.28706 0.47039 0.02354 0.0
O53 O 0.26046 0.40052 0.01723 0.0
O54 O 0.1911 0.41124 0.97421 0.0
O55 O 0.23011 0.34843 0.99208 0.0
C56 C 0.20298 0.40047 0.05915 0.0
C57 C 0.23027 0.5552 0.07395 0.0
C58 C 0.25077 0.60555 0.10551 0.0
C59 C 0.23289 0.56464 0.09802 0.0
C60 C 0.26689 0.63693 0.08862 0.0
C61 C 0.24564 0.58706 0.05737 0.0
C62 C 0.26421 0.62763 0.06471 0.0
C63 C 0.13975 0.42106 0.01296 0.0
C64 C 0.21216 0.51223 0.06642 0.0
C65 C 0.37952 0.62099 0.02106 0.0
C66 C 0.35642 0.62679 1.00386 0.0
C67 C 0.21756 0.44654 0.98241 0.0
C68 C 0.20515 0.30323 0.95926 0.0
C69 C 0.22524 0.30217 0.93839 0.0
C70 C 0.2155 0.26445 0.92768 0.0
C71 C 0.18486 0.22818 0.93806 0.0
C72 C 0.17488 0.26653 0.9691 0.0
C73 C 0.16479 0.2293 0.9585 0.0
C74 C 0.29166 0.43843 0.02003 0.0
C75 C 0.21581 0.3426 0.97066 0.0
H76 H 0.22024 0.54011 0.11082 0.0
H77 H 0.28147 0.66872 0.0939 0.0
H78 H 0.2433 0.58088 0.03873 0.0
H79 H 0.27632 0.65194 0.0518 0.0
H80 H 0.24881 0.33052 0.93081 0.0
H81 H 0.17605 0.19875 0.93022 0.0
H82 H 0.15908 0.26668 0.985 0.0
H83 H 0.14126 0.20108 0.96619 0.0
Eu84 Eu 0.75219 0.22774 0.36711 0.0
C85 C 0.81776 0.11034 0.3522 0.0
C86 C 0.86231 0.12764 0.38603 0.0
C87 C 0.82789 0.05819 0.37083 0.0
C88 C 0.84355 0.13888 0.36841 0.0
C89 C 0.81063 0.06997 0.35277 0.0
C90 C 0.85358 0.08695 0.38748 0.0
C91 C 0.7733 0.05701 0.31631 0.0
N92 N 0.80161 0.12267 0.33499 0.0
C93 C 0.78133 0.09736 0.3165 0.0
C94 C 0.78746 0.04303 0.33474 0.0
Eu95 Eu 0.81497 0.19088 0.33694 0.0
N96 N 0.85142 0.17796 0.36648 0.0
C97 C 0.87965 0.20783 0.38079 0.0
C98 C 0.8899 0.15778 0.40136 0.0
C99 C 0.89902 0.19815 0.39851 0.0
H100 H 0.77033 0.10817 0.30222 0.0
H101 H 0.92073 0.22181 0.41008 0.0
H102 H 0.86735 0.07766 0.40104 0.0
H103 H 0.75627 0.03676 0.30196 0.0
H104 H 0.88674 0.23908 0.37914 0.0
H105 H 0.6541 0.23829 0.30012 0.0
H106 H 0.90484 0.15036 0.41516 0.0
H107 H 0.80694 0.29468 0.40961 0.0
H108 H 0.68364 0.20465 0.32325 0.0
H109 H 0.82673 0.36492 0.4219 0.0
H110 H 0.82235 0.02718 0.37174 0.0
H111 H 0.67465 0.31044 0.30798 0.0
H112 H 0.71486 0.3735 0.33241 0.0
H113 H 0.78135 0.01179 0.33453 0.0
H114 H 0.76131 0.40774 0.36563 0.0
N115 N 0.72232 0.2576 0.34355 0.0
C116 C 0.69335 0.23622 0.32686 0.0
C117 C 0.688 0.29587 0.31816 0.0
C118 C 0.71594 0.31697 0.33616 0.0
C119 C 0.6763 0.25516 0.31369 0.0
C120 C 0.73249 0.29663 0.34889 0.0
H121 H 0.80284 0.4047 0.39916 0.0
N122 N 0.77296 0.29505 0.37991 0.0
C123 C 0.8076 0.35153 0.40658 0.0
C124 C 0.75836 0.31583 0.36769 0.0
C125 C 0.79629 0.31175 0.39959 0.0
C126 C 0.79406 0.37388 0.39369 0.0
C127 C 0.7688 0.35598 0.37413 0.0
O128 O 0.72551 0.22051 0.40222 0.0
O129 O 0.78033 0.18794 0.36966 0.0
O130 O 0.74913 0.13738 0.33864 0.0
O131 O 0.71249 0.17138 0.34538 0.0
O132 O 0.78562 0.22253 0.39884 0.0
O133 O 0.68666 0.18969 0.37224 0.0
O134 O 0.83126 0.1883 0.30022 0.0
O135 O 0.78449 0.22766 0.3344 0.0
O136 O 0.81145 0.28353 0.35829 0.0
O137 O 0.85513 0.25813 0.34962 0.0
O138 O 0.78062 0.19361 0.30489 0.0
O139 O 0.87884 0.22367 0.32532 0.0
C140 C 0.79299 0.19511 0.39063 0.0
C141 C 0.66185 0.21786 0.40074 0.0
C142 C 0.6357 0.24506 0.43085 0.0
C143 C 0.65869 0.2266 0.42446 0.0
C144 C 0.61585 0.25468 0.41322 0.0
C145 C 0.64112 0.22712 0.38346 0.0
C146 C 0.61852 0.24563 0.3897 0.0
C147 C 0.71477 0.13883 0.33924 0.0
C148 C 0.68823 0.20093 0.39416 0.0
C149 C 0.75343 0.37679 0.36104 0.0
C150 C 0.72704 0.35732 0.34211 0.0
C151 C 0.7717 0.21981 0.31351 0.0
C152 C 0.89644 0.19735 0.29185 0.0
C153 C 0.91716 0.21591 0.27068 0.0
C154 C 0.94021 0.20135 0.25866 0.0
C155 C 0.94248 0.16836 0.26846 0.0
C156 C 0.89944 0.16465 0.30115 0.0
C157 C 0.9224 0.15036 0.28952 0.0
C158 C 0.84816 0.28876 0.35437 0.0
C159 C 0.87038 0.21108 0.30352 0.0
H160 H 0.6746 0.21959 0.43788 0.0
H161 H 0.59749 0.26839 0.41767 0.0
H162 H 0.64237 0.22029 0.36509 0.0
H163 H 0.60286 0.25281 0.37626 0.0
H164 H 0.91459 0.24098 0.26333 0.0
H165 H 0.96025 0.1567 0.25994 0.0
H166 H 0.88385 0.15003 0.31734 0.0
H167 H 0.92456 0.12508 0.29682 0.0
Eu168 Eu 0.53513 0.77506 0.70702 0.0
C169 C 0.71118 0.82135 0.69055 0.0
C170 C 0.74128 0.873 0.72097 0.0
C171 C 0.77175 0.83146 0.71128 0.0
C172 C 0.71089 0.85187 0.7038 0.0
C173 C 0.74224 0.81149 0.69371 0.0
C174 C 0.77121 0.86211 0.72493 0.0
C175 C 0.71464 0.76526 0.66068 0.0
N176 N 0.68206 0.80243 0.67388 0.0
C177 C 0.68452 0.77611 0.65826 0.0
C178 C 0.74327 0.78255 0.67874 0.0
Eu179 Eu 0.63036 0.82048 0.67154 0.0
N180 N 0.68128 0.86134 0.69969 0.0
C181 C 0.6819 0.89347 0.7112 0.0
C182 C 0.74093 0.90475 0.73348 0.0
C183 C 0.71138 0.91532 0.72836 0.0
H184 H 0.66279 0.76294 0.64402 0.0
H185 H 0.71119 0.94026 0.73767 0.0
H186 H 0.79451 0.87771 0.73821 0.0
H187 H 0.71581 0.74369 0.64858 0.0
H188 H 0.65956 0.90229 0.7076 0.0
H189 H 0.43551 0.65465 0.645 0.0
H190 H 0.76365 0.92165 0.74683 0.0
H191 H 0.5092 0.83576 0.73771 0.0
H192 H 0.49118 0.68899 0.67325 0.0
H193 H 0.46392 0.86483 0.73368 0.0
H194 H 0.79555 0.82397 0.71415 0.0
H195 H 0.39178 0.68395 0.63531 0.0
H196 H 0.37296 0.73786 0.64273 0.0
H197 H 0.76666 0.77418 0.68057 0.0
H198 H 0.38178 0.79638 0.66635 0.0
N199 N 0.48077 0.73879 0.67963 0.0
C200 C 0.47292 0.70273 0.66939 0.0
C201 C 0.41637 0.69937 0.64788 0.0
C202 C 0.42302 0.735 0.65928 0.0
C203 C 0.44096 0.68275 0.65331 0.0
C204 C 0.45548 0.75392 0.67554 0.0
H205 H 0.41532 0.84372 0.70048 0.0
N206 N 0.48931 0.80135 0.70584 0.0
C207 C 0.46288 0.84324 0.72074 0.0
C208 C 0.46035 0.78667 0.68883 0.0
C209 C 0.48863 0.82684 0.72286 0.0
C210 C 0.43561 0.83134 0.70196 0.0
C211 C 0.43301 0.8016 0.68622 0.0
O212 O 0.51137 0.76612 0.74298 0.0
O213 O 0.60128 0.79306 0.70645 0.0
O214 O 0.60702 0.75162 0.67177 0.0
O215 O 0.54978 0.72598 0.69648 0.0
O216 O 0.58009 0.80784 0.73641 0.0
O217 O 0.50055 0.7139 0.72203 0.0
O218 O 0.65362 0.82792 0.6354 0.0
O219 O 0.56404 0.79925 0.67191 0.0
O220 O 0.56083 0.84284 0.70794 0.0
O221 O 0.60826 0.86683 0.67731 0.0
O222 O 0.58607 0.78048 0.64367 0.0
O223 O 0.65867 0.88001 0.654 0.0
C224 C 0.61124 0.80806 0.72695 0.0
C225 C 0.44848 0.70597 0.74803 0.0
C226 C 0.39584 0.67472 0.77811 0.0
C227 C 0.43714 0.69407 0.77143 0.0
C228 C 0.36615 0.66824 0.76116 0.0
C229 C 0.41832 0.69861 0.7313 0.0
C230 C 0.37744 0.68015 0.73788 0.0
C231 C 0.5757 0.72129 0.68296 0.0
C232 C 0.49176 0.72649 0.74137 0.0
C233 C 0.40261 0.78488 0.66885 0.0
C234 C 0.39752 0.7515 0.65545 0.0
C235 C 0.5546 0.78062 0.65241 0.0
C236 C 0.70551 0.89348 0.62278 0.0
C237 C 0.70713 0.91439 0.60181 0.0
C238 C 0.74492 0.94093 0.59086 0.0
C239 C 0.78077 0.9455 0.60119 0.0
C240 C 0.74173 0.89877 0.63263 0.0
C241 C 0.77909 0.92456 0.62182 0.0
C242 C 0.58436 0.87123 0.69284 0.0
C243 C 0.66596 0.86681 0.63438 0.0
H244 H 0.46036 0.69902 0.78426 0.0
H245 H 0.33419 0.65386 0.76591 0.0
H246 H 0.42617 0.70682 0.71316 0.0
H247 H 0.35444 0.67481 0.72486 0.0
H248 H 0.67912 0.91057 0.59432 0.0
H249 H 0.81025 0.96501 0.59317 0.0
H250 H 0.74107 0.88303 0.64869 0.0
H251 H 0.80696 0.92843 0.62948 0.0
Eu252 Eu 0.77784 0.52168 0.03349 0.0
C253 C 0.89644 0.70344 0.01725 0.0
C254 C 0.87976 0.73231 0.05072 0.0
C255 C 0.94911 0.76587 0.03558 0.0
C256 C 0.86813 0.7017 0.03333 0.0
C257 C 0.93696 0.73625 0.01773 0.0
C258 C 0.92058 0.76384 0.05209 0.0
C259 C 0.94935 0.71044 0.98151 0.0
N260 N 0.88376 0.67445 1.00021 0.0
C261 C 0.90886 0.67859 0.98177 0.0
C262 C 0.96369 0.73905 0.99979 0.0
Eu263 Eu 0.8153 0.62046 1.00231 0.0
N264 N 0.82889 0.67096 0.03144 0.0
C265 C 0.7993 0.67035 0.04558 0.0
C266 C 0.84987 0.7308 0.06589 0.0
C267 C 0.80938 0.69999 0.06309 0.0
H268 H 0.89776 0.65644 0.9676 0.0
H269 H 0.78592 0.69886 0.07454 0.0
H270 H 0.93015 0.78738 0.06546 0.0
H271 H 0.96944 0.71295 0.9672 0.0
H272 H 0.76794 0.64656 0.04395 0.0
H273 H 0.76468 0.40766 0.96913 0.0
H274 H 0.85759 0.75365 0.07952 0.0
H275 H 0.71206 0.51332 0.07596 0.0
H276 H 0.79914 0.47256 0.99079 0.0
H277 H 0.64201 0.46451 0.08894 0.0
H278 H 0.98022 0.79102 0.03642 0.0
H279 H 0.69265 0.3572 0.97785 0.0
H280 H 0.63022 0.33697 1.00232 0.0
H281 H 0.99503 0.76383 0.99951 0.0
H282 H 0.59703 0.35218 0.035 0.0
N283 N 0.74687 0.46036 0.01115 0.0
C284 C 0.76765 0.45126 0.99474 0.0
C285 C 0.7076 0.38591 0.98737 0.0
C286 C 0.68706 0.39444 1.00502 0.0
C287 C 0.74823 0.41427 0.98242 0.0
C288 C 0.70794 0.43222 0.01696 0.0
H289 H 0.60127 0.39941 0.06746 0.0
N290 N 0.71076 0.47666 0.04707 0.0
C291 C 0.65492 0.45743 0.07386 0.0
C292 C 0.6894 0.44052 0.03552 0.0
C293 C 0.69464 0.48498 0.06647 0.0
C294 C 0.63202 0.42073 0.06167 0.0
C295 C 0.6493 0.41166 0.04241 0.0
O296 O 0.7867 0.50503 0.06895 0.0
O297 O 0.81813 0.58967 0.03534 0.0
O298 O 0.86815 0.6071 1.00428 0.0
O299 O 0.83326 0.53656 0.01132 0.0
O300 O 0.78346 0.56181 0.06466 0.0
O301 O 0.81537 0.49369 0.03895 0.0
O302 O 0.81761 0.6378 0.96539 0.0
O303 O 0.77813 0.55318 1.00049 0.0
O304 O 0.72241 0.52537 0.02422 0.0
O305 O 0.74827 0.59438 0.01511 0.0
O306 O 0.81132 0.58194 0.97052 0.0
O307 O 0.78393 0.65277 0.99033 0.0
C308 C 0.81115 0.59612 0.0562 0.0
C309 C 0.79034 0.44447 0.06947 0.0
C310 C 0.77276 0.39653 0.102 0.0
C311 C 0.78815 0.43662 0.09372 0.0
C312 C 0.75908 0.36422 0.08572 0.0
C313 C 0.77688 0.41174 0.05348 0.0
C314 C 0.76115 0.37188 0.06161 0.0
C315 C 0.86609 0.57094 1.00505 0.0
C316 C 0.80596 0.48669 0.06125 0.0
C317 C 0.62793 0.37462 0.03006 0.0
C318 C 0.6468 0.366 0.01142 0.0
C319 C 0.78528 0.54729 0.9796 0.0
C320 C 0.81063 0.69491 0.95627 0.0
C321 C 0.79197 0.69683 0.93511 0.0
C322 C 0.80778 0.73385 0.92241 0.0
C323 C 0.84207 0.76881 0.93146 0.0
C324 C 0.84457 0.73035 0.96489 0.0
C325 C 0.86009 0.76705 0.95256 0.0
C326 C 0.71749 0.55702 0.02009 0.0
C327 C 0.79594 0.65547 0.96847 0.0
H328 H 0.79901 0.46181 0.10611 0.0
H329 H 0.74664 0.33299 0.09165 0.0
H330 H 0.77847 0.41674 0.0347 0.0
H331 H 0.75062 0.34686 0.04918 0.0
H332 H 0.76591 0.66943 0.92828 0.0
H333 H 0.85475 0.79776 0.92232 0.0
H334 H 0.85928 0.72957 0.98105 0.0
H335 H 0.88637 0.79427 0.95932 0.0
Eu336 Eu 0.2477 0.7741 0.37006 0.0
C337 C 0.18579 0.89346 0.35189 0.0
C338 C 0.13724 0.87375 0.3839 0.0
C339 C 0.17351 0.94428 0.37069 0.0
C340 C 0.15807 0.86379 0.36683 0.0
C341 C 0.19297 0.93383 0.35317 0.0
C342 C 0.14578 0.91431 0.38609 0.0
C343 C 0.23531 0.94963 0.31849 0.0
N344 N 0.20415 0.88239 0.33526 0.0
C345 C 0.22719 0.90925 0.31797 0.0
C346 C 0.21862 0.96217 0.3364 0.0
Eu347 Eu 0.19128 0.81416 0.33619 0.0
N348 N 0.1506 0.82494 0.36424 0.0
C349 C 0.12067 0.79407 0.37727 0.0
C350 C 0.10795 0.84254 0.398 0.0
C351 C 0.09926 0.80244 0.39444 0.0
H352 H 0.24026 0.89967 0.30411 0.0
H353 H 0.07626 0.77796 0.40504 0.0
H354 H 0.13043 0.9226 0.39927 0.0
H355 H 0.25441 0.97103 0.3051 0.0
H356 H 0.1138 0.76296 0.37516 0.0
H357 H 0.35707 0.77067 0.30827 0.0
H358 H 0.09142 0.84895 0.41137 0.0
H359 H 0.18623 0.70301 0.40892 0.0
H360 H 0.32412 0.80213 0.33071 0.0
H361 H 0.16307 0.63084 0.41852 0.0
H362 H 0.17903 0.97524 0.37215 0.0
H363 H 0.33398 0.69728 0.31325 0.0
H364 H 0.28873 0.63127 0.33415 0.0
H365 H 0.22487 0.99346 0.33675 0.0
H366 H 0.23635 0.59338 0.36422 0.0
N367 N 0.28153 0.74683 0.34774 0.0
C368 C 0.31357 0.77007 0.3331 0.0
C369 C 0.31928 0.71091 0.32317 0.0
C370 C 0.28808 0.68782 0.33924 0.0
C371 C 0.33244 0.75235 0.32033 0.0
C372 C 0.26982 0.70699 0.35162 0.0
H373 H 0.18953 0.59301 0.39582 0.0
N374 N 0.22445 0.7054 0.38072 0.0
C375 C 0.18479 0.64588 0.40443 0.0
C376 C 0.2406 0.68572 0.36869 0.0
C377 C 0.19799 0.6867 0.399 0.0
C378 C 0.19979 0.62462 0.39155 0.0
C379 C 0.22843 0.64463 0.37364 0.0
O380 O 0.26591 0.77887 0.40693 0.0
O381 O 0.22052 0.81476 0.3706 0.0
O382 O 0.25745 0.86684 0.33942 0.0
O383 O 0.29211 0.83377 0.35287 0.0
O384 O 0.20871 0.77749 0.39938 0.0
O385 O 0.3119 0.80768 0.37958 0.0
O386 O 0.17908 0.82195 0.29942 0.0
O387 O 0.22231 0.77774 0.33553 0.0
O388 O 0.19011 0.71961 0.35809 0.0
O389 O 0.14868 0.74624 0.34681 0.0
O390 O 0.23142 0.81404 0.30644 0.0
O391 O 0.13028 0.77738 0.32101 0.0
C392 C 0.20455 0.80675 0.39083 0.0
C393 C 0.32767 0.77897 0.41201 0.0
C394 C 0.35356 0.76232 0.44699 0.0
C395 C 0.33211 0.7796 0.4365 0.0
C396 C 0.37009 0.74383 0.43256 0.0
C397 C 0.34458 0.76058 0.39787 0.0
C398 C 0.36548 0.74293 0.40816 0.0
C399 C 0.29128 0.86613 0.34484 0.0
C400 C 0.30467 0.79696 0.40169 0.0
C401 C 0.2455 0.62502 0.36078 0.0
C402 C 0.27528 0.64658 0.34364 0.0
C403 C 0.23908 0.78737 0.31558 0.0
C404 C 0.11196 0.80557 0.28919 0.0
C405 C 0.09174 0.78638 0.26801 0.0
C406 C 0.06392 0.79624 0.25743 0.0
C407 C 0.0574 0.82605 0.26832 0.0
C408 C 0.10466 0.83498 0.2996 0.0
C409 C 0.07761 0.84518 0.28915 0.0
C410 C 0.1545 0.71512 0.35208 0.0
C411 C 0.14047 0.7947 0.30036 0.0
H412 H 0.31864 0.79342 0.44738 0.0
H413 H 0.38739 0.73088 0.44005 0.0
H414 H 0.3419 0.75991 0.37892 0.0
H415 H 0.3785 0.72889 0.39717 0.0
H416 H 0.09715 0.76341 0.26006 0.0
H417 H 0.03693 0.83501 0.26059 0.0
H418 H 0.11986 0.85002 0.31579 0.0
H419 H 0.07226 0.86806 0.29725 0.0
Eu420 Eu 0.47955 0.2449 0.69827 0.0
C421 C 0.29931 0.20006 0.68209 0.0
C422 C 0.2663 0.15501 0.71509 0.0
C423 C 0.23877 0.19616 0.69961 0.0
C424 C 0.2978 0.17211 0.69817 0.0
C425 C 0.26919 0.21162 0.68215 0.0
C426 C 0.23738 0.16793 0.71609 0.0
C427 C 0.29931 0.24978 0.64648 0.0
N428 N 0.32889 0.21409 0.66545 0.0
C429 C 0.32839 0.23727 0.64717 0.0
C430 C 0.26989 0.23737 0.66425 0.0
Eu431 Eu 0.37903 0.19435 0.66841 0.0
N432 N 0.32602 0.16013 0.69651 0.0
C433 C 0.32268 0.12882 0.7101 0.0
C434 C 0.26422 0.12466 0.73005 0.0
C435 C 0.29216 0.11106 0.72727 0.0
H436 H 0.35128 0.24706 0.63348 0.0
H437 H 0.29035 0.08702 0.73843 0.0
H438 H 0.2132 0.15548 0.72912 0.0
H439 H 0.29962 0.26898 0.63228 0.0
H440 H 0.34422 0.11821 0.70831 0.0
H441 H 0.59193 0.36016 0.63925 0.0
H442 H 0.24061 0.11086 0.74335 0.0
H443 H 0.48557 0.17321 0.72996 0.0
H444 H 0.52837 0.32592 0.6624 0.0
H445 H 0.53011 0.14283 0.73293 0.0
H446 H 0.21562 0.20502 0.70014 0.0
H447 H 0.63881 0.33239 0.63885 0.0
H448 H 0.65482 0.27876 0.65238 0.0
H449 H 0.24728 0.24694 0.66365 0.0
H450 H 0.63792 0.21957 0.67768 0.0
N451 N 0.53813 0.27806 0.67416 0.0
C452 C 0.54821 0.31308 0.6621 0.0
C453 C 0.61056 0.31676 0.64871 0.0
C454 C 0.60067 0.28154 0.66167 0.0
C455 C 0.5843 0.33267 0.649 0.0
C456 C 0.56407 0.26301 0.67475 0.0
H457 H 0.5916 0.1688 0.70782 0.0
N458 N 0.52094 0.21486 0.70295 0.0
C459 C 0.5375 0.16744 0.72067 0.0
C460 C 0.55521 0.23043 0.68952 0.0
C461 C 0.51243 0.18473 0.719 0.0
C462 C 0.57215 0.18214 0.70641 0.0
C463 C 0.58174 0.21443 0.69086 0.0
O464 O 0.50073 0.2593 0.73468 0.0
O465 O 0.4126 0.22042 0.70221 0.0
O466 O 0.39493 0.26072 0.67503 0.0
O467 O 0.46439 0.29233 0.68524 0.0
O468 O 0.43984 0.20536 0.72843 0.0
O469 O 0.51399 0.3082 0.70986 0.0
O470 O 0.36405 0.17981 0.63111 0.0
O471 O 0.44597 0.22371 0.66457 0.0
O472 O 0.47098 0.18858 0.68022 0.0
O473 O 0.40038 0.14914 0.68051 0.0
O474 O 0.41596 0.23548 0.63807 0.0
O475 O 0.34582 0.13084 0.65597 0.0
C476 C 0.40624 0.2034 0.72206 0.0
C477 C 0.56337 0.32075 0.73909 0.0
C478 C 0.61135 0.34982 0.77162 0.0
C479 C 0.57108 0.32798 0.76326 0.0
C480 C 0.64391 0.36361 0.75556 0.0
C481 C 0.59631 0.33516 0.72328 0.0
C482 C 0.63632 0.35616 0.73153 0.0
C483 C 0.431 0.2935 0.67967 0.0
C484 C 0.5209 0.29863 0.73078 0.0
C485 C 0.61723 0.23155 0.67698 0.0
C486 C 0.6268 0.26519 0.66253 0.0
C487 C 0.45107 0.24232 0.64537 0.0
C488 C 0.30597 0.11691 0.62121 0.0
C489 C 0.30406 0.09549 0.60033 0.0
C490 C 0.26737 0.07466 0.58732 0.0
C491 C 0.23271 0.07527 0.59585 0.0
C492 C 0.27091 0.11688 0.62922 0.0
C493 C 0.23452 0.09607 0.61662 0.0
C494 C 0.43726 0.15291 0.6792 0.0
C495 C 0.34492 0.14043 0.63402 0.0
H496 H 0.54574 0.31755 0.77547 0.0
H497 H 0.67522 0.3802 0.76162 0.0
H498 H 0.59138 0.33068 0.70458 0.0
H499 H 0.66151 0.36703 0.71923 0.0
H500 H 0.33126 0.09581 0.59399 0.0
H501 H 0.20393 0.05922 0.58656 0.0
H502 H 0.27176 0.13311 0.64516 0.0
H503 H 0.20755 0.09615 0.62293 0.0
H504 H 0.28933 0.81093 0.27795 0.0
H505 H 0.29508 0.76672 0.24842 0.0
H506 H 0.21433 0.66061 0.28946 0.0
H507 H 0.2068 0.70448 0.31816 0.0
H508 H 0.31686 0.70603 0.24735 0.0
H509 H 0.15161 0.64356 0.22863 0.0
H510 H 0.17999 0.68718 0.24751 0.0
H511 H 0.16428 0.63664 0.25807 0.0
C512 C 0.27337 0.7782 0.28079 0.0
C513 C 0.2479 0.76112 0.30043 0.0
C514 C 0.27686 0.75302 0.26405 0.0
C515 C 0.25471 0.7104 0.26665 0.0
C516 C 0.23122 0.6934 0.28699 0.0
H517 H 0.26883 0.57257 0.14355 0.0
H518 H 0.26909 0.59012 0.18529 0.0
C519 C 0.22724 0.71856 0.30353 0.0
C520 C 0.25236 0.68428 0.24662 0.0
H521 H 0.188 0.62532 0.2029 0.0
C522 C 0.28862 0.68768 0.23782 0.0
C523 C 0.21535 0.66055 0.23427 0.0
C524 C 0.17559 0.65684 0.24242 0.0
C525 C 0.28926 0.66991 0.21619 0.0
C526 C 0.25259 0.64789 0.20336 0.0
C527 C 0.21596 0.64224 0.21292 0.0
C528 C 0.25234 0.63615 0.17853 0.0
C529 C 0.32943 0.67708 0.20643 0.0
C530 C 0.24215 0.65575 0.16113 0.0
C531 C 0.2416 0.64562 0.13751 0.0
C532 C 0.25129 0.61568 0.13077 0.0
C533 C 0.26111 0.59568 0.14826 0.0
C534 C 0.26162 0.60588 0.17203 0.0
H535 H 0.35568 0.69844 0.21753 0.0
H536 H 0.32907 0.64757 0.20541 0.0
H537 H 0.3341 0.68968 0.18832 0.0
H538 H 0.23472 0.67908 0.16586 0.0
H539 H 0.23315 0.661 0.12451 0.0
H540 H 0.4935 0.20295 0.63721 0.0
H541 H 0.53954 0.21396 0.60444 0.0
H542 H 0.52911 0.31755 0.58226 0.0
H543 H 0.4817 0.30536 0.61481 0.0
H544 H 0.50954 0.26469 0.54827 0.0
H545 H 0.65497 0.2885 0.58561 0.0
H546 H 0.61135 0.24381 0.59711 0.0
H547 H 0.61768 0.29347 0.60293 0.0
C548 C 0.50234 0.22895 0.62592 0.0
C549 C 0.48484 0.2538 0.62875 0.0
C550 C 0.52882 0.23539 0.60717 0.0
C551 C 0.53847 0.26706 0.59105 0.0
C552 C 0.52236 0.2931 0.59457 0.0
H553 H 0.64101 0.31405 0.44979 0.0
H554 H 0.62317 0.32319 0.48995 0.0
C555 C 0.49534 0.28618 0.61309 0.0
C556 C 0.5595 0.26886 0.56862 0.0
H557 H 0.64294 0.26966 0.54477 0.0
C558 C 0.53906 0.26653 0.54757 0.0
C559 C 0.59768 0.27047 0.56766 0.0
C560 C 0.62189 0.27454 0.58954 0.0
C561 C 0.55527 0.26503 0.52566 0.0
C562 C 0.5932 0.26635 0.52473 0.0
C563 C 0.6139 0.26882 0.54566 0.0
C564 C 0.61073 0.26378 0.50198 0.0
C565 C 0.53105 0.26077 0.50367 0.0
C566 C 0.61121 0.22805 0.49589 0.0
C567 C 0.62128 0.22269 0.47297 0.0
C568 C 0.63094 0.25305 0.45587 0.0
C569 C 0.6329 0.28986 0.4625 0.0
C570 C 0.62296 0.29521 0.48541 0.0
H571 H 0.49901 0.25219 0.50774 0.0
H572 H 0.54548 0.29035 0.49415 0.0
H573 H 0.53081 0.23737 0.49168 0.0
H574 H 0.60177 0.20347 0.50851 0.0
H575 H 0.61938 0.19397 0.46833 0.0
H576 H 0.19046 0.47177 0.94587 0.0
H577 H 0.23174 0.52348 0.91639 0.0
H578 H 0.34139 0.54826 0.95319 0.0
H579 H 0.30044 0.4958 0.98206 0.0
H580 H 0.29374 0.60953 0.92021 0.0
H581 H 0.35197 0.50926 0.88668 0.0
H582 H 0.30879 0.49063 0.90632 0.0
H583 H 0.35949 0.52249 0.91743 0.0
C584 C 0.22335 0.48868 0.94774 0.0
C585 C 0.2423 0.48051 0.96644 0.0
C586 C 0.2468 0.51826 0.93107 0.0
C587 C 0.28948 0.53952 0.93272 0.0
C588 C 0.30846 0.53205 0.95167 0.0
H589 H 0.43122 0.7139 0.81951 0.0
H590 H 0.41136 0.68677 0.85964 0.0
C591 C 0.28501 0.50234 0.96826 0.0
C592 C 0.31381 0.56631 0.91324 0.0
H593 H 0.36916 0.56853 0.86524 0.0
C594 C 0.3109 0.60114 0.90836 0.0
C595 C 0.33596 0.55491 0.89793 0.0
C596 C 0.3392 0.51718 0.90215 0.0
C597 C 0.32811 0.62393 0.88782 0.0
C598 C 0.34867 0.61141 0.87204 0.0
C599 C 0.35337 0.57788 0.87755 0.0
C600 C 0.36063 0.62897 0.8483 0.0
C601 C 0.32227 0.65971 0.88236 0.0
C602 C 0.33873 0.60519 0.8289 0.0
C603 C 0.34999 0.62036 0.80616 0.0
C604 C 0.38348 0.65958 0.80242 0.0
C605 C 0.4054 0.68347 0.82193 0.0
C606 C 0.39399 0.66822 0.84478 0.0
H607 H 0.3031 0.66374 0.89576 0.0
H608 H 0.35243 0.6881 0.88167 0.0
H609 H 0.30778 0.6555 0.86482 0.0
H610 H 0.313 0.5747 0.83139 0.0
H611 H 0.33297 0.60101 0.79147 0.0
H612 H 0.80295 0.30249 0.3169 0.0
H613 H 0.79665 0.34676 0.28803 0.0
H614 H 0.71987 0.24133 0.24523 0.0
H615 H 0.72508 0.19692 0.27452 0.0
H616 H 0.82562 0.35412 0.24448 0.0
H617 H 0.66248 0.30645 0.23827 0.0
H618 H 0.68363 0.29425 0.26338 0.0
H619 H 0.66911 0.26269 0.23734 0.0
C620 C 0.78353 0.28865 0.30181 0.0
C621 C 0.76377 0.24623 0.29813 0.0
C622 C 0.78006 0.314 0.28527 0.0
C623 C 0.75713 0.2973 0.2647 0.0
C624 C 0.73664 0.2548 0.26132 0.0
H625 H 0.7969 0.34812 0.12365 0.0
H626 H 0.79442 0.33326 0.16562 0.0
C627 C 0.74 0.22949 0.27788 0.0
C628 C 0.7599 0.32406 0.24499 0.0
H629 H 0.70222 0.33295 0.20191 0.0
C630 C 0.79866 0.35039 0.23554 0.0
C631 C 0.72486 0.31982 0.23353 0.0
C632 C 0.68273 0.29458 0.24384 0.0
C633 C 0.80304 0.36948 0.21378 0.0
C634 C 0.76775 0.36148 0.20109 0.0
C635 C 0.72921 0.3384 0.21153 0.0
C636 C 0.77005 0.37206 0.17593 0.0
C637 C 0.84532 0.39645 0.20402 0.0
C638 C 0.75634 0.39814 0.16785 0.0
C639 C 0.75752 0.40653 0.14379 0.0
C640 C 0.77187 0.38842 0.12753 0.0
C641 C 0.78537 0.3622 0.13575 0.0
C642 C 0.78439 0.35406 0.15972 0.0
H643 H 0.86823 0.41002 0.21837 0.0
H644 H 0.85386 0.37781 0.19277 0.0
H645 H 0.84669 0.42147 0.19312 0.0
H646 H 0.74477 0.41192 0.18014 0.0
H647 H 0.74659 0.42657 0.13785 0.0
H648 H 0.51748 0.7288 0.61625 0.0
H649 H 0.47056 0.73118 0.58745 0.0
H650 H 0.47924 0.83654 0.62272 0.0
H651 H 0.52621 0.83422 0.65158 0.0
H652 H 0.3915 0.73389 0.59708 0.0
H653 H 0.51798 0.86841 0.5514 0.0
H654 H 0.52792 0.83574 0.57004 0.0
H655 H 0.51292 0.8696 0.58292 0.0
C656 C 0.50893 0.75211 0.61794 0.0
C657 C 0.52443 0.78068 0.63631 0.0
C658 C 0.48214 0.75336 0.60164 0.0
C659 C 0.47137 0.7838 0.60322 0.0
C660 C 0.48713 0.81272 0.62142 0.0
H661 H 0.37156 0.82721 0.47593 0.0
H662 H 0.38972 0.83427 0.51758 0.0
C663 C 0.51381 0.81134 0.63781 0.0
C664 C 0.44612 0.78665 0.58455 0.0
H665 H 0.45516 0.83387 0.53215 0.0
C666 C 0.40499 0.75622 0.58307 0.0
C667 C 0.46393 0.81616 0.56658 0.0
C668 C 0.50813 0.84939 0.56759 0.0
C669 C 0.38165 0.75317 0.56323 0.0
C670 C 0.40047 0.78059 0.5443 0.0
C671 C 0.4408 0.81278 0.54664 0.0
C672 C 0.38141 0.77351 0.52079 0.0
C673 C 0.33748 0.71998 0.56251 0.0
C674 C 0.36997 0.73672 0.50889 0.0
C675 C 0.35912 0.7324 0.48518 0.0
C676 C 0.36016 0.76505 0.4728 0.0
C677 C 0.37002 0.8013 0.485 0.0
C678 C 0.38053 0.80546 0.50879 0.0
H679 H 0.32403 0.71317 0.58048 0.0
H680 H 0.31914 0.72856 0.55112 0.0
H681 H 0.33536 0.69155 0.55547 0.0
H682 H 0.37143 0.71201 0.51759 0.0
H683 H 0.35109 0.7039 0.47636 0.0
H684 H 0.70287 0.49587 0.98307 0.0
H685 H 0.65916 0.44271 0.9551 0.0
H686 H 0.76499 0.4685 0.91353 0.0
H687 H 0.80881 0.52086 0.94188 0.0
H688 H 0.65297 0.46112 0.91006 0.0
H689 H 0.70076 0.34487 0.91031 0.0
H690 H 0.71118 0.37983 0.93452 0.0
H691 H 0.744 0.39554 0.90908 0.0
C692 C 0.71691 0.48915 0.96848 0.0
C693 C 0.75927 0.51171 0.96487 0.0
C694 C 0.69189 0.45887 0.95245 0.0
C695 C 0.7089 0.45103 0.93251 0.0
C696 C 0.75133 0.47307 0.92919 0.0
H697 H 0.66355 0.42364 0.79084 0.0
H698 H 0.67779 0.44075 0.83255 0.0
C699 C 0.77629 0.50326 0.94521 0.0
C700 C 0.68249 0.4251 0.91319 0.0
H701 H 0.67368 0.35361 0.87321 0.0
C702 C 0.65656 0.43676 0.90239 0.0
C703 C 0.68674 0.39301 0.90335 0.0
C704 C 0.71188 0.37729 0.91509 0.0
C705 C 0.63783 0.41978 0.88082 0.0
C706 C 0.64558 0.39079 0.86982 0.0
C707 C 0.66833 0.37633 0.88162 0.0
C708 C 0.63537 0.37976 0.84486 0.0
C709 C 0.61167 0.43457 0.86934 0.0
C710 C 0.60726 0.33963 0.83811 0.0
C711 C 0.59908 0.32975 0.81424 0.0
C712 C 0.61948 0.35979 0.79691 0.0
C713 C 0.64774 0.39985 0.80383 0.0
C714 C 0.65559 0.40973 0.8276 0.0
H715 H 0.59911 0.44712 0.88255 0.0
H716 H 0.63054 0.4593 0.8567 0.0
H717 H 0.58603 0.40951 0.85947 0.0
H718 H 0.59172 0.31612 0.85128 0.0
H719 H 0.57734 0.29859 0.80929 0.0
H720 H 0.35827 0.51219 0.01119 0.0
H721 H 0.42934 0.53072 0.0109 0.0
H722 H 0.39549 0.40515 0.02319 0.0
H723 H 0.32281 0.38596 0.02408 0.0
H724 H 0.47181 0.51662 0.04954 0.0
H725 H 0.47539 0.44519 0.9643 0.0
H726 H 0.43564 0.45667 0.97146 0.0
H727 H 0.43591 0.41401 0.98502 0.0
C728 C 0.36548 0.48822 0.01407 0.0
C729 C 0.33457 0.44753 0.01813 0.0
C730 C 0.4064 0.49904 0.01375 0.0
C731 C 0.41776 0.46946 0.01709 0.0
C732 C 0.38723 0.42846 0.02049 0.0
H733 H 0.64964 0.48197 0.01775 0.0
H734 H 0.57899 0.46417 0.0175 0.0
C735 C 0.3458 0.41751 0.02097 0.0
C736 C 0.46182 0.48255 0.0174 0.0
H737 H 0.53699 0.48003 0.98542 0.0
C738 C 0.48615 0.50853 0.03559 0.0
C739 C 0.48037 0.47237 0.99902 0.0
C740 C 0.45573 0.44574 0.97869 0.0
C741 C 0.5285 0.5239 0.03618 0.0
C742 C 0.54718 0.51383 0.01775 0.0
C743 C 0.52275 0.48802 0.99946 0.0
C744 C 0.59127 0.52652 0.01808 0.0
C745 C 0.55263 0.54977 0.05688 0.0
C746 C 0.62234 0.56787 0.01837 0.0
C747 C 0.66368 0.57847 0.01894 0.0
C748 C 0.67442 0.54782 0.01914 0.0
C749 C 0.64299 0.50664 0.01828 0.0
C750 C 0.60219 0.49621 0.01787 0.0
H751 H 0.53259 0.54707 0.07192 0.0
H752 H 0.57503 0.54097 0.06297 0.0
H753 H 0.5697 0.5823 0.05145 0.0
H754 H 0.61466 0.59188 0.01804 0.0
H755 H 0.68703 0.61042 0.01934 0.0
H756 H 0.07068 0.68376 0.35347 0.0
H757 H 0.01753 0.61075 0.35291 0.0
H758 H 0.11034 0.57726 0.34491 0.0
H759 H 0.16254 0.64853 0.34511 0.0
H760 H 1.00378 0.54622 0.31678 0.0
H761 H 0.04538 0.51552 0.40513 0.0
H762 H 0.05909 0.56631 0.39542 0.0
H763 H 0.08735 0.54271 0.38516 0.0
C764 C 0.07954 0.66075 0.35142 0.0
C765 C 0.12096 0.67211 0.34986 0.0
C766 C 0.04928 0.61915 0.35118 0.0
C767 C 0.0602 0.58866 0.34942 0.0
C768 C 0.10128 0.60017 0.34685 0.0
H769 H 0.93199 0.31989 0.35375 0.0
H770 H 0.98543 0.39252 0.35134 0.0
C771 C 0.13118 0.64121 0.34704 0.0
C772 C 0.02935 0.54453 0.35026 0.0
H773 H 1.00026 0.45772 0.38229 0.0
C774 C 1.00269 0.52689 0.33119 0.0
C775 C 0.02868 0.51929 0.36885 0.0
C776 C 0.05641 0.53683 0.38992 0.0
C777 C 0.97554 0.48455 0.33011 0.0
C778 C 0.97443 0.45931 0.34886 0.0
C779 C 1.00133 0.47698 0.36786 0.0
C780 C 0.94306 0.41526 0.35003 0.0
C781 C 0.94875 0.46712 0.30866 0.0
C782 C 0.90186 0.40411 0.35046 0.0
C783 C 0.87173 0.36322 0.35174 0.0
C784 C 0.88175 0.332 0.35305 0.0
C785 C 0.92318 0.34306 0.35279 0.0
C786 C 0.95366 0.38449 0.35144 0.0
H787 H 0.96216 0.48732 0.2931 0.0
H788 H 0.94379 0.43633 0.30421 0.0
H789 H 0.91864 0.46436 0.31227 0.0
H790 H 0.89285 0.42718 0.34989 0.0
H791 H 0.84038 0.35632 0.35146 0.0
H792 H 0.49824 0.15088 0.65585 0.0
H793 H 0.51904 0.09998 0.65813 0.0
H794 H 0.41382 0.02376 0.70094 0.0
H795 H 0.3922 0.07551 0.69853 0.0
H796 H 0.53683 0.07749 0.70242 0.0
H797 H 0.42069 0.9441 0.65116 0.0
H798 H 0.42886 0.99506 0.64698 0.0
H799 H 0.40288 0.96663 0.67278 0.0
C800 C 0.47866 0.12289 0.66524 0.0
C801 C 0.44337 0.11723 0.67695 0.0
C802 C 0.49085 0.09382 0.66662 0.0
C803 C 0.46815 0.05811 0.67971 0.0
C804 C 0.43162 0.05102 0.69052 0.0
H805 H 0.56984 0.90935 0.72908 0.0
H806 H 0.54227 0.9555 0.72639 0.0
C807 C 0.41916 0.08042 0.68906 0.0
C808 C 0.48544 0.03082 0.68335 0.0
H809 H 0.47474 0.9385 0.66779 0.0
C810 C 0.52309 0.04694 0.69502 0.0
C811 C 0.46774 0.99126 0.67342 0.0
C812 C 0.42791 0.97305 0.66024 0.0
C813 C 0.54377 0.02485 0.69676 0.0
C814 C 0.52617 0.98531 0.68678 0.0
C815 C 0.48828 0.96892 0.67533 0.0
C816 C 0.54635 0.96025 0.68841 0.0
C817 C 0.58484 0.04448 0.70871 0.0
C818 C 0.55858 0.94811 0.66797 0.0
C819 C 0.57474 0.92189 0.66949 0.0
C820 C 0.57822 0.90688 0.69145 0.0
C821 C 0.56769 0.92061 0.71192 0.0
C822 C 0.55183 0.94692 0.71041 0.0
H823 H 0.59843 0.07812 0.7103 0.0
H824 H 0.58121 0.03174 0.72671 0.0
H825 H 0.60639 0.03797 0.6989 0.0
H826 H 0.55463 0.95808 0.6508 0.0
H827 H 0.58198 0.91134 0.6534 0.0
H828 H 0.59308 0.68654 0.64501 0.0
H829 H 0.56587 0.61296 0.63801 0.0
H830 H 0.50941 0.58623 0.70663 0.0
H831 H 0.53604 0.65872 0.71366 0.0
H832 H 0.5731 0.55205 0.66294 0.0
H833 H 0.41292 0.51756 0.6628 0.0
H834 H 0.45552 0.56891 0.66 0.0
H835 H 0.43982 0.54557 0.68857 0.0
C836 C 0.57548 0.66494 0.65872 0.0
C837 C 0.56639 0.67847 0.67978 0.0
C838 C 0.55965 0.62293 0.65463 0.0
C839 C 0.53447 0.594 0.67151 0.0
C840 C 0.52759 0.6078 0.69304 0.0
H841 H 0.47527 0.35615 0.70914 0.0
H842 H 0.49778 0.42817 0.70329 0.0
C843 C 0.54319 0.6494 0.69709 0.0
C844 C 0.51524 0.54925 0.66717 0.0
H845 H 0.42337 0.46049 0.67026 0.0
C846 C 0.54033 0.5321 0.66408 0.0
C847 C 0.47235 0.52308 0.66819 0.0
C848 C 0.44356 0.53974 0.66981 0.0
C849 C 0.52391 0.48949 0.6637 0.0
C850 C 0.48137 0.46336 0.66685 0.0
C851 C 0.45599 0.48046 0.66821 0.0
C852 C 0.46367 0.41882 0.67114 0.0
C853 C 0.55245 0.47279 0.66057 0.0
C854 C 0.43487 0.38915 0.65577 0.0
C855 C 0.42143 0.34743 0.65926 0.0
C856 C 0.43665 0.33511 0.67818 0.0
C857 C 0.46335 0.36476 0.69426 0.0
C858 C 0.47652 0.40602 0.69084 0.0
H859 H 0.58077 0.49486 0.65118 0.0
H860 H 0.56132 0.46703 0.67814 0.0
H861 H 0.5376 0.44354 0.65061 0.0
H862 H 0.42415 0.39837 0.6406 0.0
H863 H 0.40116 0.32527 0.6465 0.0
H864 H 0.10928 0.45152 0.04461 0.0
H865 H 0.06093 0.47518 0.03726 0.0
H866 H 0.03968 0.42403 0.96728 0.0
H867 H 0.08876 0.40022 0.97462 0.0
H868 H 0.0767 0.53047 0.99176 0.0
H869 H 0.92299 0.39284 1.00318 0.0
H870 H 0.9664 0.39829 0.01947 0.0
H871 H 0.96325 0.38897 0.98839 0.0
C872 C 0.09335 0.44418 0.02789 0.0
C873 C 0.10246 0.42381 0.01022 0.0
C874 C 0.06599 0.45797 0.02368 0.0
C875 C 0.04704 0.45165 1.00171 0.0
C876 C 0.05401 0.42908 0.9844 0.0
H877 H 0.86731 0.52425 0.9696 0.0
H878 H 0.91507 0.49893 0.96484 0.0
C879 C 0.0816 0.41511 0.98866 0.0
C880 C 0.02282 0.47182 0.99671 0.0
H881 H 0.92586 0.45592 0.99788 0.0
C882 C 0.04365 0.51417 0.99276 0.0
C883 C 0.97988 0.45047 0.99806 0.0
C884 C 0.95646 0.4051 1.00252 0.0
C885 C 0.02261 0.5359 0.9905 0.0
C886 C 0.97962 0.51485 0.99282 0.0
C887 C 0.9588 0.4722 0.99611 0.0
C888 C 0.95546 0.53623 0.99276 0.0
C889 C 0.04668 0.58114 0.98558 0.0
C890 C 0.96303 0.56699 1.0094 0.0
C891 C 0.93606 0.58215 0.01179 0.0
C892 C 0.90095 0.56639 0.99776 0.0
C893 C 0.89464 0.53739 0.98032 0.0
C894 C 0.92168 0.5226 0.97776 0.0
H895 H 0.07614 0.58972 0.97678 0.0
H896 H 0.02924 0.591 0.97431 0.0
H897 H 0.05365 0.59811 1.0025 0.0
H898 H 0.98828 0.57739 0.02158 0.0
H899 H 0.94084 0.60358 0.02582 0.0
H900 H 0.35224 0.89556 0.37628 0.0
H901 H 0.42433 0.9432 0.36896 0.0
H902 H 0.39569 0.96537 0.29904 0.0
H903 H 0.32261 0.91693 0.30634 0.0
H904 H 0.46483 0.92731 0.32609 0.0
H905 H 0.48053 0.08184 0.33196 0.0
H906 H 0.44098 0.03895 0.34792 0.0
H907 H 0.43777 0.04122 0.31654 0.0
C908 C 0.36112 0.91139 0.35954 0.0
C909 C 0.33191 0.90269 0.34187 0.0
C910 C 0.40234 0.93842 0.35535 0.0
C911 C 0.41537 0.95751 0.33343 0.0
C912 C 0.38612 0.95095 0.31612 0.0
H913 H 0.66916 0.13556 0.30218 0.0
H914 H 0.59637 0.08751 0.29668 0.0
C915 C 0.34446 0.92367 0.32035 0.0
C916 C 0.45981 0.9815 0.32856 0.0
H917 H 0.5407 0.07873 0.3279 0.0
C918 C 0.48148 0.96046 0.32615 0.0
C919 C 0.48131 0.02459 0.32863 0.0
C920 C 0.45925 0.04832 0.33144 0.0
C921 C 0.52426 0.98142 0.32426 0.0
C922 C 0.54607 0.02462 0.3254 0.0
C923 C 0.52414 0.04562 0.32705 0.0
C924 C 0.59153 0.04882 0.32599 0.0
C925 C 0.54555 0.957 0.32103 0.0
C926 C 0.61366 0.04229 0.34371 0.0
C927 C 0.65561 0.06936 0.34652 0.0
C928 C 0.67587 0.10354 0.33182 0.0
C929 C 0.65428 0.10885 0.31339 0.0
C930 C 0.6126 0.08167 0.31042 0.0
H931 H 0.5251 0.92695 0.31265 0.0
H932 H 0.57344 0.9737 0.31008 0.0
H933 H 0.55449 0.95106 0.33854 0.0
H934 H 0.59807 0.01786 0.35634 0.0
H935 H 0.67137 0.06546 0.36132 0.0
H936 H 0.38571 0.16471 0.76436 0.0
H937 H 0.35047 0.17581 0.79735 0.0
H938 H 0.33277 0.26033 0.7551 0.0
H939 H 0.3676 0.24887 0.72201 0.0
H940 H 0.37564 0.24726 0.8203 0.0
H941 H 0.2209 0.19451 0.78443 0.0
H942 H 0.25622 0.18164 0.77087 0.0
H943 H 0.26167 0.23117 0.7663 0.0
C944 C 0.37348 0.18496 0.76194 0.0
C945 C 0.37902 0.20543 0.74043 0.0
C946 C 0.35346 0.19145 0.78086 0.0
C947 C 0.3385 0.21871 0.77884 0.0
C948 C 0.3431 0.23847 0.75712 0.0
H949 H 0.23477 0.31059 0.88699 0.0
H950 H 0.26557 0.30232 0.85061 0.0
C951 C 0.36311 0.23191 0.73814 0.0
C952 C 0.3211 0.22858 0.80001 0.0
H953 H 0.23623 0.22842 0.82146 0.0
C954 C 0.3451 0.24301 0.82048 0.0
C955 C 0.28134 0.22347 0.8004 0.0
C956 C 0.25332 0.20653 0.77943 0.0
C957 C 0.33059 0.25227 0.84115 0.0
C958 C 0.29068 0.24661 0.84168 0.0
C959 C 0.26687 0.23294 0.82111 0.0
C960 C 0.27257 0.25253 0.86383 0.0
C961 C 0.35832 0.26835 0.86229 0.0
C962 C 0.26621 0.22745 0.88344 0.0
C963 C 0.24867 0.23208 0.90415 0.0
C964 C 0.23689 0.26198 0.90593 0.0
C965 C 0.24378 0.28754 0.88637 0.0
C966 C 0.2611 0.28261 0.86548 0.0
H967 H 0.39086 0.28109 0.85731 0.0
H968 H 0.35487 0.29245 0.87147 0.0
H969 H 0.35013 0.24298 0.87488 0.0
H970 H 0.27437 0.20377 0.88263 0.0
H971 H 0.24419 0.21203 0.91884 0.0
H972 H 0.94175 0.16195 0.21843 0.0
H973 H 0.98194 0.19143 0.18269 0.0
H974 H 0.02935 0.31229 0.2118 0.0
H975 H 0.98827 0.28283 0.24752 0.0
H976 H 0.01341 0.31214 0.16579 0.0
H977 H 0.10172 0.23264 0.17702 0.0
H978 H 0.04785 0.19798 0.17519 0.0
H979 H 0.06834 0.23294 0.19964 0.0
C980 C 0.96072 0.19484 0.21725 0.0
C981 C 0.9621 0.21996 0.23604 0.0
C982 C 0.98394 0.2117 0.1968 0.0
C983 C 0.00981 0.25413 0.19466 0.0
C984 C 0.01001 0.27944 0.213 0.0
H985 H 0.21898 0.38201 0.1025 0.0
H986 H 0.17042 0.3443 0.13399 0.0
C987 C 0.98638 0.26258 0.23342 0.0
C988 C 0.03684 0.27198 0.17349 0.0
H989 H 0.11111 0.26785 0.14098 0.0
C990 C 0.03476 0.30242 0.16039 0.0
C991 C 0.06525 0.25985 0.16645 0.0
C992 C 0.07131 0.22938 0.18043 0.0
C993 C 0.05997 0.32083 0.1406 0.0
C994 C 0.08756 0.30787 0.13319 0.0
C995 C 0.08967 0.27749 0.14632 0.0
C996 C 0.11659 0.32748 0.11303 0.0
C997 C 0.05772 0.35504 0.12834 0.0
C998 C 0.10284 0.32951 0.09031 0.0
C999 C 0.13075 0.35141 0.07225 0.0
C1000 C 0.17303 0.37099 0.07638 0.0
C1001 C 0.18663 0.36708 0.09872 0.0
C1002 C 0.15882 0.34552 0.11677 0.0
H1003 H 0.04322 0.36829 0.13964 0.0
H1004 H 0.08857 0.37986 0.12321 0.0
H1005 H 0.03909 0.34298 0.11214 0.0
H1006 H 0.0705 0.31499 0.08665 0.0
H1007 H 0.1192 0.35421 0.05535 0.0
H1008 H 0.69642 0.91408 0.55111 0.0
H1009 H 0.70478 0.95161 0.51432 0.0
H1010 H 0.80751 0.05823 0.54427 0.0
H1011 H 0.79968 0.02095 0.58074 0.0
H1012 H 0.70207 0.01957 0.50348 0.0
H1013 H 0.85752 0.04894 0.4839 0.0
H1014 H 0.82606 0.01367 0.50649 0.0
H1015 H 0.85475 0.06772 0.51247 0.0
C1016 C 0.72067 0.94559 0.54989 0.0
C1017 C 0.74771 0.96421 0.56887 0.0
C1018 C 0.72556 0.96701 0.52877 0.0
C1019 C 0.75758 0.00756 0.5261 0.0
C1020 C 0.78351 0.02661 0.54539 0.0
H1021 H 0.8319 0.2103 0.43253 0.0
H1022 H 0.82353 0.16119 0.4632 0.0
C1023 C 0.77884 0.00522 0.56637 0.0
C1024 C 0.76358 0.03042 0.50348 0.0
H1025 H 0.83587 0.08957 0.46258 0.0
C1026 C 0.73117 0.03433 0.49438 0.0
C1027 C 0.80146 0.04964 0.49132 0.0
C1028 C 0.83677 0.04444 0.4989 0.0
C1029 C 0.73615 0.05832 0.47428 0.0
C1030 C 0.77447 0.07883 0.46277 0.0
C1031 C 0.80653 0.07402 0.47142 0.0
C1032 C 0.7826 0.10779 0.44288 0.0
C1033 C 0.70082 0.06294 0.46602 0.0
C1034 C 0.76348 0.09417 0.42084 0.0
C1035 C 0.76863 0.12232 0.40312 0.0
C1036 C 0.79312 0.1646 0.40711 0.0
C1037 C 0.81322 0.17793 0.42886 0.0
C1038 C 0.80838 0.14988 0.44643 0.0
H1039 H 0.67505 0.04991 0.47875 0.0
H1040 H 0.71076 0.09569 0.46322 0.0
H1041 H 0.6896 0.04692 0.44892 0.0
H1042 H 0.74376 0.06183 0.41757 0.0
H1043 H 0.75219 0.1111 0.3867 0.0
H1044 H 0.64574 0.75902 0.72189 0.0
H1045 H 0.68521 0.74623 0.75156 0.0
H1046 H 0.67948 0.83389 0.79794 0.0
H1047 H 0.64196 0.84798 0.76799 0.0
H1048 H 0.75102 0.8398 0.80196 0.0
H1049 H 0.63372 0.67573 0.80808 0.0
H1050 H 0.65631 0.69095 0.7794 0.0
H1051 H 0.62608 0.71157 0.79108 0.0
C1052 C 0.65392 0.77631 0.73817 0.0
C1053 C 0.64107 0.80483 0.74252 0.0
C1054 C 0.67588 0.76847 0.75534 0.0
C1055 C 0.68448 0.78818 0.77743 0.0
C1056 C 0.67316 0.81796 0.78123 0.0
H1057 H 0.72712 0.70724 0.91272 0.0
H1058 H 0.69855 0.71949 0.87689 0.0
C1059 C 0.65168 0.82607 0.76405 0.0
C1060 C 0.70385 0.77729 0.79704 0.0
H1061 H 0.69205 0.69831 0.83203 0.0
C1062 C 0.73816 0.80879 0.80844 0.0
C1063 C 0.6868 0.73695 0.80594 0.0
C1064 C 0.64849 0.70188 0.79568 0.0
C1065 C 0.75552 0.80135 0.82841 0.0
C1066 C 0.73913 0.76086 0.83697 0.0
C1067 C 0.70499 0.72928 0.82548 0.0
C1068 C 0.75614 0.75095 0.85823 0.0
C1069 C 0.79025 0.83743 0.84067 0.0
C1070 C 0.7978 0.76317 0.85961 0.0
C1071 C 0.81419 0.75666 0.88018 0.0
C1072 C 0.78924 0.73684 0.89977 0.0
C1073 C 0.74716 0.72252 0.89795 0.0
C1074 C 0.73084 0.72963 0.87745 0.0
H1075 H 0.79071 0.86639 0.83651 0.0
H1076 H 0.78823 0.83339 0.86008 0.0
H1077 H 0.8196 0.84067 0.83459 0.0
H1078 H 0.81789 0.77828 0.84485 0.0
H1079 H 0.84661 0.76745 0.88083 0.0
H1080 H 0.98357 0.76857 0.24715 0.0
H1081 H 0.94742 0.73979 0.21024 0.0
H1082 H 0.05655 0.74953 0.18001 0.0
H1083 H 0.09297 0.77819 0.21715 0.0
H1084 H 0.9615 0.77347 0.16683 0.0
H1085 H 0.97396 0.63323 0.16301 0.0
H1086 H 0.98612 0.66428 0.18921 0.0
H1087 H 0.02194 0.67989 0.16524 0.0
C1088 C 1.0 0.76457 0.23269 0.0
C1089 C 0.04135 0.77589 0.23522 0.0
C1090 C 0.97918 0.748 0.21153 0.0
C1091 C 0.99894 0.74204 0.19222 0.0
C1092 C 0.04018 0.75293 0.1947 0.0
H1093 H 0.895 0.63694 0.05246 0.0
H1094 H 0.94446 0.67733 0.08338 0.0
C1095 C 0.06106 0.76938 0.21599 0.0
C1096 C 0.97632 0.72549 0.16952 0.0
H1097 H 0.94311 0.64587 0.13046 0.0
C1098 C 0.95767 0.74562 0.15889 0.0
C1099 C 0.97131 0.68924 0.15889 0.0
C1100 C 0.98905 0.66513 0.16973 0.0
C1101 C 0.93388 0.73033 0.13834 0.0
C1102 C 0.92808 0.69362 0.1281 0.0
C1103 C 0.94767 0.67411 0.13823 0.0
C1104 C 0.89902 0.67316 0.1082 0.0
C1105 C 0.91499 0.75353 0.12772 0.0
C1106 C 0.85709 0.65783 0.11164 0.0
C1107 C 0.82894 0.63475 0.09409 0.0
C1108 C 0.84197 0.62686 0.0725 0.0
C1109 C 0.88407 0.64325 0.0687 0.0
C1110 C 0.91232 0.66606 0.08643 0.0
H1111 H 0.93067 0.78588 0.13367 0.0
H1112 H 0.91598 0.75279 0.10818 0.0
H1113 H 0.88255 0.73902 0.1332 0.0
H1114 H 0.84592 0.66226 0.12833 0.0
H1115 H 0.7967 0.62195 0.09766 0.0
H1116 H 0.29626 0.02203 0.57809 0.0
H1117 H 0.2858 0.98099 0.5425 0.0
H1118 H 0.22158 0.03565 0.5102 0.0
H1119 H 0.23115 0.07588 0.54585 0.0
H1120 H 0.18036 0.95672 0.50336 0.0
H1121 H 0.34089 0.0092 0.47979 0.0
H1122 H 0.3291 0.98915 0.50914 0.0
H1123 H 0.32715 0.03455 0.50193 0.0
C1124 C 0.28049 0.02577 0.56326 0.0
C1125 C 0.26453 0.05227 0.56491 0.0
C1126 C 0.2746 1.00233 0.54281 0.0
C1127 C 0.25329 0.00539 0.52332 0.0
C1128 C 0.23805 0.03248 0.52486 0.0
H1129 H 0.24704 0.89059 0.38667 0.0
H1130 H 0.2564 0.94084 0.41712 0.0
C1131 C 0.24355 0.05553 0.54533 0.0
C1132 C 0.24504 0.97912 0.50183 0.0
H1133 H 0.29033 0.94869 0.46037 0.0
C1134 C 0.20456 0.9553 0.49391 0.0
C1135 C 0.27644 0.97753 0.489 0.0
C1136 C 0.32085 0.00431 0.49523 0.0
C1137 C 0.19457 0.92932 0.47417 0.0
C1138 C 0.22569 0.92603 0.46219 0.0
C1139 C 0.26629 0.95073 0.46961 0.0
C1140 C 0.21665 0.89598 0.44263 0.0
C1141 C 0.15073 0.90597 0.46616 0.0
C1142 C 0.19069 0.85397 0.44651 0.0
C1143 C 0.18501 0.82532 0.42905 0.0
C1144 C 0.20512 0.83785 0.40723 0.0
C1145 C 0.2304 0.87995 0.40308 0.0
C1146 C 0.23607 0.90869 0.42059 0.0
H1147 H 0.13362 0.92133 0.47187 0.0
H1148 H 0.14858 0.90257 0.44669 0.0
H1149 H 0.13564 0.87504 0.47411 0.0
H1150 H 0.17603 0.84311 0.46344 0.0
H1151 H 0.16591 0.7931 0.43291 0.0
loop_
_geom_bond_atom_site_label_1
_geom_bond_atom_site_label_2
_geom_bond_distance
_geom_bond_site_symmetry_2
_ccdc_geom_bond_type
Eu0 N31 2.657 . S
Eu0 N38 2.609 . S
Eu0 O44 2.558 . S
Eu0 O45 2.612 . S
Eu0 O47 2.339 . S
Eu0 O48 2.563 . S
Eu0 O49 2.419 . S
Eu0 O51 2.380 1_554 S
Eu0 O52 2.432 . S
Eu0 C64 2.848 . S
C1 C4 1.429 . S
C1 C5 1.411 . S
C1 N8 1.377 1_554 S
C2 C4 1.420 . S
C2 C6 1.423 . S
C2 C14 1.392 . S
C3 C5 1.420 . S
C3 C6 1.351 . S
C3 H26 0.931 . S
C4 C1 1.429 . S
C4 C2 1.420 . S
C4 N12 1.362 . S
C5 C1 1.411 . S
C5 C3 1.420 . S
C5 C10 1.395 1_554 S
C6 C2 1.423 . S
C6 C3 1.351 . S
C6 H18 0.930 . S
C7 C9 1.400 . S
C7 C10 1.386 . S
C7 H19 0.930 . S
N8 C1 1.377 1_556 S
N8 C9 1.321 . S
N8 Eu11 2.609 . S
C9 C7 1.400 . S
C9 N8 1.321 . S
C9 H16 0.930 . S
C10 C5 1.395 1_556 S
C10 C7 1.386 . S
C10 H29 0.930 . S
Eu11 N8 2.609 . S
Eu11 N12 2.657 1_556 S
Eu11 O45 2.380 1_556 S
Eu11 O46 2.432 . S
Eu11 O50 2.558 . S
Eu11 O51 2.612 . S
Eu11 O53 2.339 1_556 S
Eu11 O54 2.563 . S
Eu11 O55 2.419 . S
Eu11 C75 2.848 . S
N12 C4 1.362 . S
N12 Eu11 2.657 1_554 S
N12 C13 1.334 . S
C13 N12 1.334 . S
C13 C15 1.413 . S
C13 H20 0.929 . S
C14 C2 1.392 . S
C14 C15 1.367 . S
C14 H22 0.930 . S
C15 C13 1.413 . S
C15 C14 1.367 . S
C15 H17 0.930 . S
H16 C9 0.930 . S
H17 C15 0.930 . S
H18 C6 0.930 . S
H19 C7 0.930 . S
H20 C13 0.929 . S
H21 C35 0.930 . S
H22 C14 0.930 . S
H23 C41 0.930 . S
H24 C32 0.929 . S
H25 C39 0.930 . S
H26 C3 0.931 . S
H27 C33 0.930 . S
H28 C66 0.930 . S
H29 C10 0.930 . S
H30 C65 0.931 . S
N31 Eu0 2.657 . S
N31 C32 1.334 1_554 S
N31 C36 1.363 . S
C32 H24 0.929 . S
C32 N31 1.334 1_556 S
C32 C35 1.413 . S
C33 H27 0.930 . S
C33 C34 1.392 . S
C33 C35 1.367 . S
C34 C33 1.392 . S
C34 C36 1.402 1_556 S
C34 C66 1.423 . S
C35 H21 0.930 . S
C35 C32 1.413 . S
C35 C33 1.367 . S
C36 N31 1.363 . S
C36 C34 1.402 1_554 S
C36 C40 1.446 . S
H37 C42 0.930 . S
N38 Eu0 2.609 . S
N38 C40 1.377 . S
N38 C41 1.321 . S
C39 H25 0.930 . S
C39 C41 1.400 . S
C39 C42 1.386 . S
C40 C36 1.446 . S
C40 N38 1.377 . S
C40 C43 1.411 . S
C41 H23 0.930 . S
C41 N38 1.321 . S
C41 C39 1.400 . S
C42 H37 0.930 . S
C42 C39 1.386 . S
C42 C43 1.395 . S
C43 C40 1.411 . S
C43 C42 1.395 . S
C43 C65 1.424 . S
O44 Eu0 2.558 . S
O44 C64 1.257 . S
O45 Eu0 2.612 . S
O45 Eu11 2.380 1_554 S
O45 C56 1.276 . S
O46 Eu11 2.432 . S
O46 C63 1.264 1_556 S
O47 Eu0 2.339 . S
O47 C63 1.254 . S
O48 Eu0 2.563 . S
O48 C56 1.235 . S
O49 Eu0 2.419 . S
O49 C64 1.249 . S
O50 Eu11 2.558 . S
O50 C75 1.257 . S
O51 Eu0 2.380 1_556 S
O51 Eu11 2.612 . S
O51 C67 1.276 . S
O52 Eu0 2.432 . S
O52 C74 1.264 . S
O53 Eu11 2.339 1_554 S
O53 C74 1.254 . S
O54 Eu11 2.563 . S
O54 C67 1.235 . S
O55 Eu11 2.419 . S
O55 C75 1.249 . S
C56 O45 1.276 . S
C56 O48 1.235 . S
C57 C59 1.393 . S
C57 C61 1.395 . S
C57 C64 1.492 . S
C58 C59 1.392 . S
C58 C60 1.386 . S
C59 C57 1.393 . S
C59 C58 1.392 . S
C59 H76 0.930 . S
C60 C58 1.386 . S
C60 C62 1.395 . S
C60 H77 0.930 . S
C61 C57 1.395 . S
C61 C62 1.379 . S
C61 H78 0.930 . S
C62 C60 1.395 . S
C62 C61 1.379 . S
C62 H79 0.930 . S
C63 O46 1.264 1_554 S
C63 O47 1.254 . S
C64 Eu0 2.848 . S
C64 O44 1.257 . S
C64 O49 1.249 . S
C64 C57 1.492 . S
C65 H30 0.931 . S
C65 C43 1.424 . S
C65 C66 1.347 1_554 S
C66 H28 0.930 . S
C66 C34 1.423 . S
C66 C65 1.347 1_556 S
C67 O51 1.276 . S
C67 O54 1.235 . S
C68 C69 1.393 . S
C68 C72 1.395 . S
C68 C75 1.492 . S
C69 C68 1.393 . S
C69 C70 1.392 . S
C69 H80 0.930 . S
C70 C69 1.392 . S
C70 C71 1.386 . S
C71 C70 1.386 . S
C71 C73 1.395 . S
C71 H81 0.930 . S
C72 C68 1.395 . S
C72 C73 1.379 . S
C72 H82 0.930 . S
C73 C71 1.395 . S
C73 C72 1.379 . S
C73 H83 0.930 . S
C74 O52 1.264 . S
C74 O53 1.254 . S
C75 Eu11 2.848 . S
C75 O50 1.257 . S
C75 O55 1.249 . S
C75 C68 1.492 . S
H76 C59 0.930 . S
H77 C60 0.930 . S
H78 C61 0.930 . S
H79 C62 0.930 . S
H80 C69 0.930 . S
H81 C71 0.930 . S
H82 C72 0.930 . S
H83 C73 0.930 . S
Eu84 N115 2.657 . S
Eu84 N122 2.609 . S
Eu84 O128 2.558 . S
Eu84 O129 2.612 . S
Eu84 O131 2.339 . S
Eu84 O132 2.563 . S
Eu84 O133 2.419 . S
Eu84 O135 2.380 . S
Eu84 O136 2.432 . S
Eu84 C148 2.848 . S
C85 C88 1.429 . S
C85 C89 1.411 . S
C85 N92 1.377 . S
C86 C88 1.420 . S
C86 C90 1.423 . S
C86 C98 1.392 . S
C87 C89 1.420 . S
C87 C90 1.351 . S
C87 H110 0.931 . S
C88 C85 1.429 . S
C88 C86 1.420 . S
C88 N96 1.362 . S
C89 C85 1.411 . S
C89 C87 1.420 . S
C89 C94 1.395 . S
C90 C86 1.423 . S
C90 C87 1.351 . S
C90 H102 0.930 . S
C91 C93 1.400 . S
C91 C94 1.386 . S
C91 H103 0.930 . S
N92 C85 1.377 . S
N92 C93 1.321 . S
N92 Eu95 2.609 . S
C93 C91 1.400 . S
C93 N92 1.321 . S
C93 H100 0.930 . S
C94 C89 1.395 . S
C94 C91 1.386 . S
C94 H113 0.930 . S
Eu95 N92 2.609 . S
Eu95 N96 2.657 . S
Eu95 O129 2.380 . S
Eu95 O130 2.432 . S
Eu95 O134 2.558 . S
Eu95 O135 2.612 . S
Eu95 O137 2.339 . S
Eu95 O138 2.563 . S
Eu95 O139 2.419 . S
Eu95 C159 2.848 . S
N96 C88 1.362 . S
N96 Eu95 2.657 . S
N96 C97 1.334 . S
C97 N96 1.334 . S
C97 C99 1.413 . S
C97 H104 0.929 . S
C98 C86 1.392 . S
C98 C99 1.367 . S
C98 H106 0.930 . S
C99 C97 1.413 . S
C99 C98 1.367 . S
C99 H101 0.930 . S
H100 C93 0.930 . S
H101 C99 0.930 . S
H102 C90 0.930 . S
H103 C91 0.930 . S
H104 C97 0.929 . S
H105 C119 0.930 . S
H106 C98 0.930 . S
H107 C125 0.930 . S
H108 C116 0.929 . S
H109 C123 0.930 . S
H110 C87 0.931 . S
H111 C117 0.930 . S
H112 C150 0.930 . S
H113 C94 0.930 . S
H114 C149 0.931 . S
N115 Eu84 2.657 . S
N115 C116 1.334 . S
N115 C120 1.362 . S
C116 H108 0.929 . S
C116 N115 1.334 . S
C116 C119 1.413 . S
C117 H111 0.930 . S
C117 C118 1.392 . S
C117 C119 1.367 . S
C118 C117 1.392 . S
C118 C120 1.420 . S
C118 C150 1.423 . S
C119 H105 0.930 . S
C119 C116 1.413 . S
C119 C117 1.367 . S
C120 N115 1.362 . S
C120 C118 1.420 . S
C120 C124 1.429 . S
H121 C126 0.930 . S
N122 Eu84 2.609 . S
N122 C124 1.377 . S
N122 C125 1.321 . S
C123 H109 0.930 . S
C123 C125 1.400 . S
C123 C126 1.386 . S
C124 C120 1.429 . S
C124 N122 1.377 . S
C124 C127 1.411 . S
C125 H107 0.930 . S
C125 N122 1.321 . S
C125 C123 1.400 . S
C126 H121 0.930 . S
C126 C123 1.386 . S
C126 C127 1.395 . S
C127 C124 1.411 . S
C127 C126 1.395 . S
C127 C149 1.420 . S
O128 Eu84 2.558 . S
O128 C148 1.257 . S
O129 Eu84 2.612 . S
O129 Eu95 2.380 . S
O129 C140 1.276 . S
O130 Eu95 2.432 . S
O130 C147 1.264 . S
O131 Eu84 2.339 . S
O131 C147 1.254 . S
O132 Eu84 2.563 . S
O132 C140 1.235 . S
O133 Eu84 2.419 . S
O133 C148 1.249 . S
O134 Eu95 2.558 . S
O134 C159 1.257 . S
O135 Eu84 2.380 . S
O135 Eu95 2.612 . S
O135 C151 1.276 . S
O136 Eu84 2.432 . S
O136 C158 1.264 . S
O137 Eu95 2.339 . S
O137 C158 1.254 . S
O138 Eu95 2.563 . S
O138 C151 1.235 . S
O139 Eu95 2.419 . S
O139 C159 1.249 . S
C140 O129 1.276 . S
C140 O132 1.235 . S
C141 C143 1.393 . S
C141 C145 1.395 . S
C141 C148 1.492 . S
C142 C143 1.392 . S
C142 C144 1.386 . S
C143 C141 1.393 . S
C143 C142 1.392 . S
C143 H160 0.930 . S
C144 C142 1.386 . S
C144 C146 1.395 . S
C144 H161 0.930 . S
C145 C141 1.395 . S
C145 C146 1.379 . S
C145 H162 0.930 . S
C146 C144 1.395 . S
C146 C145 1.379 . S
C146 H163 0.930 . S
C147 O130 1.264 . S
C147 O131 1.254 . S
C148 Eu84 2.848 . S
C148 O128 1.257 . S
C148 O133 1.249 . S
C148 C141 1.492 . S
C149 H114 0.931 . S
C149 C127 1.420 . S
C149 C150 1.351 . S
C150 H112 0.930 . S
C150 C118 1.423 . S
C150 C149 1.351 . S
C151 O135 1.276 . S
C151 O138 1.235 . S
C152 C153 1.393 . S
C152 C156 1.395 . S
C152 C159 1.492 . S
C153 C152 1.393 . S
C153 C154 1.392 . S
C153 H164 0.930 . S
C154 C153 1.392 . S
C154 C155 1.386 . S
C155 C154 1.386 . S
C155 C157 1.395 . S
C155 H165 0.930 . S
C156 C152 1.395 . S
C156 C157 1.379 . S
C156 H166 0.930 . S
C157 C155 1.395 . S
C157 C156 1.379 . S
C157 H167 0.930 . S
C158 O136 1.264 . S
C158 O137 1.254 . S
C159 Eu95 2.848 . S
C159 O134 1.257 . S
C159 O139 1.249 . S
C159 C152 1.492 . S
H160 C143 0.930 . S
H161 C144 0.930 . S
H162 C145 0.930 . S
H163 C146 0.930 . S
H164 C153 0.930 . S
H165 C155 0.930 . S
H166 C156 0.930 . S
H167 C157 0.930 . S
Eu168 N199 2.657 . S
Eu168 N206 2.609 . S
Eu168 O212 2.558 . S
Eu168 O213 2.612 . S
Eu168 O215 2.339 . S
Eu168 O216 2.563 . S
Eu168 O217 2.419 . S
Eu168 O219 2.380 . S
Eu168 O220 2.432 . S
Eu168 C232 2.848 . S
C169 C172 1.429 . S
C169 C173 1.411 . S
C169 N176 1.377 . S
C170 C172 1.420 . S
C170 C174 1.423 . S
C170 C182 1.392 . S
C171 C173 1.420 . S
C171 C174 1.351 . S
C171 H194 0.931 . S
C172 C169 1.429 . S
C172 C170 1.420 . S
C172 N180 1.362 . S
C173 C169 1.411 . S
C173 C171 1.420 . S
C173 C178 1.395 . S
C174 C170 1.423 . S
C174 C171 1.351 . S
C174 H186 0.930 . S
C175 C177 1.400 . S
C175 C178 1.386 . S
C175 H187 0.930 . S
N176 C169 1.377 . S
N176 C177 1.321 . S
N176 Eu179 2.609 . S
C177 C175 1.400 . S
C177 N176 1.321 . S
C177 H184 0.930 . S
C178 C173 1.395 . S
C178 C175 1.386 . S
C178 H197 0.930 . S
Eu179 N176 2.609 . S
Eu179 N180 2.657 . S
Eu179 O213 2.380 . S
Eu179 O214 2.432 . S
Eu179 O218 2.558 . S
Eu179 O219 2.612 . S
Eu179 O221 2.339 . S
Eu179 O222 2.563 . S
Eu179 O223 2.419 . S
Eu179 C243 2.848 . S
N180 C172 1.362 . S
N180 Eu179 2.657 . S
N180 C181 1.334 . S
C181 N180 1.334 . S
C181 C183 1.413 . S
C181 H188 0.929 . S
C182 C170 1.392 . S
C182 C183 1.367 . S
C182 H190 0.930 . S
C183 C181 1.413 . S
C183 C182 1.367 . S
C183 H185 0.930 . S
H184 C177 0.930 . S
H185 C183 0.930 . S
H186 C174 0.930 . S
H187 C175 0.930 . S
H188 C181 0.929 . S
H189 C203 0.930 . S
H190 C182 0.930 . S
H191 C209 0.930 . S
H192 C200 0.929 . S
H193 C207 0.930 . S
H194 C171 0.931 . S
H195 C201 0.930 . S
H196 C234 0.930 . S
H197 C178 0.930 . S
H198 C233 0.931 . S
N199 Eu168 2.657 . S
N199 C200 1.334 . S
N199 C204 1.362 . S
C200 H192 0.929 . S
C200 N199 1.334 . S
C200 C203 1.413 . S
C201 H195 0.930 . S
C201 C202 1.392 . S
C201 C203 1.367 . S
C202 C201 1.392 . S
C202 C204 1.420 . S
C202 C234 1.423 . S
C203 H189 0.930 . S
C203 C200 1.413 . S
C203 C201 1.367 . S
C204 N199 1.362 . S
C204 C202 1.420 . S
C204 C208 1.429 . S
H205 C210 0.930 . S
N206 Eu168 2.609 . S
N206 C208 1.377 . S
N206 C209 1.321 . S
C207 H193 0.930 . S
C207 C209 1.400 . S
C207 C210 1.386 . S
C208 C204 1.429 . S
C208 N206 1.377 . S
C208 C211 1.411 . S
C209 H191 0.930 . S
C209 N206 1.321 . S
C209 C207 1.400 . S
C210 H205 0.930 . S
C210 C207 1.386 . S
C210 C211 1.395 . S
C211 C208 1.411 . S
C211 C210 1.395 . S
C211 C233 1.420 . S
O212 Eu168 2.558 . S
O212 C232 1.257 . S
O213 Eu168 2.612 . S
O213 Eu179 2.380 . S
O213 C224 1.276 . S
O214 Eu179 2.432 . S
O214 C231 1.264 . S
O215 Eu168 2.339 . S
O215 C231 1.254 . S
O216 Eu168 2.563 . S
O216 C224 1.235 . S
O217 Eu168 2.419 . S
O217 C232 1.249 . S
O218 Eu179 2.558 . S
O218 C243 1.257 . S
O219 Eu168 2.380 . S
O219 Eu179 2.612 . S
O219 C235 1.276 . S
O220 Eu168 2.432 . S
O220 C242 1.264 . S
O221 Eu179 2.339 . S
O221 C242 1.254 . S
O222 Eu179 2.563 . S
O222 C235 1.235 . S
O223 Eu179 2.419 . S
O223 C243 1.249 . S
C224 O213 1.276 . S
C224 O216 1.235 . S
C225 C227 1.393 . S
C225 C229 1.395 . S
C225 C232 1.492 . S
C226 C227 1.392 . S
C226 C228 1.386 . S
C227 C225 1.393 . S
C227 C226 1.392 . S
C227 H244 0.930 . S
C228 C226 1.386 . S
C228 C230 1.395 . S
C228 H245 0.930 . S
C229 C225 1.395 . S
C229 C230 1.379 . S
C229 H246 0.930 . S
C230 C228 1.395 . S
C230 C229 1.379 . S
C230 H247 0.930 . S
C231 O214 1.264 . S
C231 O215 1.254 . S
C232 Eu168 2.848 . S
C232 O212 1.257 . S
C232 O217 1.249 . S
C232 C225 1.492 . S
C233 H198 0.931 . S
C233 C211 1.420 . S
C233 C234 1.351 . S
C234 H196 0.930 . S
C234 C202 1.423 . S
C234 C233 1.351 . S
C235 O219 1.276 . S
C235 O222 1.235 . S
C236 C237 1.393 . S
C236 C240 1.395 . S
C236 C243 1.492 . S
C237 C236 1.393 . S
C237 C238 1.392 . S
C237 H248 0.930 . S
C238 C237 1.392 . S
C238 C239 1.386 . S
C239 C238 1.386 . S
C239 C241 1.395 . S
C239 H249 0.930 . S
C240 C236 1.395 . S
C240 C241 1.379 . S
C240 H250 0.930 . S
C241 C239 1.395 . S
C241 C240 1.379 . S
C241 H251 0.930 . S
C242 O220 1.264 . S
C242 O221 1.254 . S
C243 Eu179 2.848 . S
C243 O218 1.257 . S
C243 O223 1.249 . S
C243 C236 1.492 . S
H244 C227 0.930 . S
H245 C228 0.930 . S
H246 C229 0.930 . S
H247 C230 0.930 . S
H248 C237 0.930 . S
H249 C239 0.930 . S
H250 C240 0.930 . S
H251 C241 0.930 . S
Eu252 N283 2.657 . S
Eu252 N290 2.609 . S
Eu252 O296 2.558 . S
Eu252 O297 2.612 . S
Eu252 O299 2.339 . S
Eu252 O300 2.563 . S
Eu252 O301 2.419 . S
Eu252 O303 2.380 1_554 S
Eu252 O304 2.432 . S
Eu252 C316 2.848 . S
C253 C256 1.429 . S
C253 C257 1.411 . S
C253 N260 1.377 1_554 S
C254 C256 1.420 . S
C254 C258 1.423 . S
C254 C266 1.392 . S
C255 C257 1.420 . S
C255 C258 1.351 . S
C255 H278 0.931 . S
C256 C253 1.429 . S
C256 C254 1.420 . S
C256 N264 1.362 . S
C257 C253 1.411 . S
C257 C255 1.420 . S
C257 C262 1.395 1_554 S
C258 C254 1.423 . S
C258 C255 1.351 . S
C258 H270 0.930 . S
C259 C261 1.400 . S
C259 C262 1.386 . S
C259 H271 0.930 . S
N260 C253 1.377 1_556 S
N260 C261 1.321 . S
N260 Eu263 2.609 . S
C261 C259 1.400 . S
C261 N260 1.321 . S
C261 H268 0.930 . S
C262 C257 1.395 1_556 S
C262 C259 1.386 . S
C262 H281 0.930 . S
Eu263 N260 2.609 . S
Eu263 N264 2.657 1_556 S
Eu263 O297 2.380 1_556 S
Eu263 O298 2.432 . S
Eu263 O302 2.558 . S
Eu263 O303 2.612 . S
Eu263 O305 2.339 1_556 S
Eu263 O306 2.563 . S
Eu263 O307 2.419 . S
Eu263 C327 2.848 . S
N264 C256 1.362 . S
N264 Eu263 2.657 1_554 S
N264 C265 1.334 . S
C265 N264 1.334 . S
C265 C267 1.413 . S
C265 H272 0.929 . S
C266 C254 1.392 . S
C266 C267 1.367 . S
C266 H274 0.930 . S
C267 C265 1.413 . S
C267 C266 1.367 . S
C267 H269 0.930 . S
H268 C261 0.930 . S
H269 C267 0.930 . S
H270 C258 0.930 . S
H271 C259 0.930 . S
H272 C265 0.929 . S
H273 C287 0.930 . S
H274 C266 0.930 . S
H275 C293 0.930 . S
H276 C284 0.929 . S
H277 C291 0.930 . S
H278 C255 0.931 . S
H279 C285 0.930 . S
H280 C318 0.930 . S
H281 C262 0.930 . S
H282 C317 0.931 . S
N283 Eu252 2.657 . S
N283 C284 1.334 1_554 S
N283 C288 1.363 . S
C284 H276 0.929 . S
C284 N283 1.334 1_556 S
C284 C287 1.413 . S
C285 H279 0.930 . S
C285 C286 1.392 . S
C285 C287 1.367 . S
C286 C285 1.392 . S
C286 C288 1.402 1_556 S
C286 C318 1.423 . S
C287 H273 0.930 . S
C287 C284 1.413 . S
C287 C285 1.367 . S
C288 N283 1.363 . S
C288 C286 1.402 1_554 S
C288 C292 1.446 . S
H289 C294 0.930 . S
N290 Eu252 2.609 . S
N290 C292 1.377 . S
N290 C293 1.321 . S
C291 H277 0.930 . S
C291 C293 1.400 . S
C291 C294 1.386 . S
C292 C288 1.446 . S
C292 N290 1.377 . S
C292 C295 1.411 . S
C293 H275 0.930 . S
C293 N290 1.321 . S
C293 C291 1.400 . S
C294 H289 0.930 . S
C294 C291 1.386 . S
C294 C295 1.395 . S
C295 C292 1.411 . S
C295 C294 1.395 . S
C295 C317 1.424 . S
O296 Eu252 2.558 . S
O296 C316 1.257 . S
O297 Eu252 2.612 . S
O297 Eu263 2.380 1_554 S
O297 C308 1.276 . S
O298 Eu263 2.432 . S
O298 C315 1.264 1_556 S
O299 Eu252 2.339 . S
O299 C315 1.254 . S
O300 Eu252 2.563 . S
O300 C308 1.235 . S
O301 Eu252 2.419 . S
O301 C316 1.249 . S
O302 Eu263 2.558 . S
O302 C327 1.257 . S
O303 Eu252 2.380 1_556 S
O303 Eu263 2.612 . S
O303 C319 1.276 . S
O304 Eu252 2.432 . S
O304 C326 1.264 . S
O305 Eu263 2.339 1_554 S
O305 C326 1.254 . S
O306 Eu263 2.563 . S
O306 C319 1.235 . S
O307 Eu263 2.419 . S
O307 C327 1.249 . S
C308 O297 1.276 . S
C308 O300 1.235 . S
C309 C311 1.393 . S
C309 C313 1.395 . S
C309 C316 1.492 . S
C310 C311 1.392 . S
C310 C312 1.386 . S
C311 C309 1.393 . S
C311 C310 1.392 . S
C311 H328 0.930 . S
C312 C310 1.386 . S
C312 C314 1.395 . S
C312 H329 0.930 . S
C313 C309 1.395 . S
C313 C314 1.379 . S
C313 H330 0.930 . S
C314 C312 1.395 . S
C314 C313 1.379 . S
C314 H331 0.930 . S
C315 O298 1.264 1_554 S
C315 O299 1.254 . S
C316 Eu252 2.848 . S
C316 O296 1.257 . S
C316 O301 1.249 . S
C316 C309 1.492 . S
C317 H282 0.931 . S
C317 C295 1.424 . S
C317 C318 1.346 1_554 S
C318 H280 0.930 . S
C318 C286 1.423 . S
C318 C317 1.346 1_556 S
C319 O303 1.276 . S
C319 O306 1.235 . S
C320 C321 1.393 . S
C320 C324 1.395 . S
C320 C327 1.492 . S
C321 C320 1.393 . S
C321 C322 1.392 . S
C321 H332 0.930 . S
C322 C321 1.392 . S
C322 C323 1.386 . S
C323 C322 1.386 . S
C323 C325 1.395 . S
C323 H333 0.930 . S
C324 C320 1.395 . S
C324 C325 1.379 . S
C324 H334 0.930 . S
C325 C323 1.395 . S
C325 C324 1.379 . S
C325 H335 0.930 . S
C326 O304 1.264 . S
C326 O305 1.254 . S
C327 Eu263 2.848 . S
C327 O302 1.257 . S
C327 O307 1.249 . S
C327 C320 1.492 . S
H328 C311 0.930 . S
H329 C312 0.930 . S
H330 C313 0.930 . S
H331 C314 0.930 . S
H332 C321 0.930 . S
H333 C323 0.930 . S
H334 C324 0.930 . S
H335 C325 0.930 . S
Eu336 N367 2.657 . S
Eu336 N374 2.609 . S
Eu336 O380 2.558 . S
Eu336 O381 2.612 . S
Eu336 O383 2.339 . S
Eu336 O384 2.563 . S
Eu336 O385 2.419 . S
Eu336 O387 2.380 . S
Eu336 O388 2.432 . S
Eu336 C400 2.848 . S
C337 C340 1.429 . S
C337 C341 1.411 . S
C337 N344 1.377 . S
C338 C340 1.420 . S
C338 C342 1.423 . S
C338 C350 1.392 . S
C339 C341 1.420 . S
C339 C342 1.351 . S
C339 H362 0.931 . S
C340 C337 1.429 . S
C340 C338 1.420 . S
C340 N348 1.362 . S
C341 C337 1.411 . S
C341 C339 1.420 . S
C341 C346 1.395 . S
C342 C338 1.423 . S
C342 C339 1.351 . S
C342 H354 0.930 . S
C343 C345 1.400 . S
C343 C346 1.386 . S
C343 H355 0.930 . S
N344 C337 1.377 . S
N344 C345 1.321 . S
N344 Eu347 2.609 . S
C345 C343 1.400 . S
C345 N344 1.321 . S
C345 H352 0.930 . S
C346 C341 1.395 . S
C346 C343 1.386 . S
C346 H365 0.930 . S
Eu347 N344 2.609 . S
Eu347 N348 2.657 . S
Eu347 O381 2.380 . S
Eu347 O382 2.432 . S
Eu347 O386 2.558 . S
Eu347 O387 2.612 . S
Eu347 O389 2.339 . S
Eu347 O390 2.563 . S
Eu347 O391 2.419 . S
Eu347 C411 2.848 . S
N348 C340 1.362 . S
N348 Eu347 2.657 . S
N348 C349 1.334 . S
C349 N348 1.334 . S
C349 C351 1.413 . S
C349 H356 0.929 . S
C350 C338 1.392 . S
C350 C351 1.367 . S
C350 H358 0.930 . S
C351 C349 1.413 . S
C351 C350 1.367 . S
C351 H353 0.930 . S
H352 C345 0.930 . S
H353 C351 0.930 . S
H354 C342 0.930 . S
H355 C343 0.930 . S
H356 C349 0.929 . S
H357 C371 0.930 . S
H358 C350 0.930 . S
H359 C377 0.930 . S
H360 C368 0.929 . S
H361 C375 0.930 . S
H362 C339 0.931 . S
H363 C369 0.930 . S
H364 C402 0.930 . S
H365 C346 0.930 . S
H366 C401 0.931 . S
N367 Eu336 2.657 . S
N367 C368 1.334 . S
N367 C372 1.362 . S
C368 H360 0.929 . S
C368 N367 1.334 . S
C368 C371 1.413 . S
C369 H363 0.930 . S
C369 C370 1.392 . S
C369 C371 1.367 . S
C370 C369 1.392 . S
C370 C372 1.420 . S
C370 C402 1.423 . S
C371 H357 0.930 . S
C371 C368 1.413 . S
C371 C369 1.367 . S
C372 N367 1.362 . S
C372 C370 1.420 . S
C372 C376 1.429 . S
H373 C378 0.930 . S
N374 Eu336 2.609 . S
N374 C376 1.377 . S
N374 C377 1.321 . S
C375 H361 0.930 . S
C375 C377 1.400 . S
C375 C378 1.386 . S
C376 C372 1.429 . S
C376 N374 1.377 . S
C376 C379 1.411 . S
C377 H359 0.930 . S
C377 N374 1.321 . S
C377 C375 1.400 . S
C378 H373 0.930 . S
C378 C375 1.386 . S
C378 C379 1.395 . S
C379 C376 1.411 . S
C379 C378 1.395 . S
C379 C401 1.420 . S
O380 Eu336 2.558 . S
O380 C400 1.257 . S
O381 Eu336 2.612 . S
O381 Eu347 2.380 . S
O381 C392 1.276 . S
O382 Eu347 2.432 . S
O382 C399 1.264 . S
O383 Eu336 2.339 . S
O383 C399 1.254 . S
O384 Eu336 2.563 . S
O384 C392 1.235 . S
O385 Eu336 2.419 . S
O385 C400 1.249 . S
O386 Eu347 2.558 . S
O386 C411 1.257 . S
O387 Eu336 2.380 . S
O387 Eu347 2.612 . S
O387 C403 1.276 . S
O388 Eu336 2.432 . S
O388 C410 1.264 . S
O389 Eu347 2.339 . S
O389 C410 1.254 . S
O390 Eu347 2.563 . S
O390 C403 1.235 . S
O391 Eu347 2.419 . S
O391 C411 1.249 . S
C392 O381 1.276 . S
C392 O384 1.235 . S
C393 C395 1.393 . S
C393 C397 1.395 . S
C393 C400 1.492 . S
C394 C395 1.392 . S
C394 C396 1.386 . S
C395 C393 1.393 . S
C395 C394 1.392 . S
C395 H412 0.930 . S
C396 C394 1.386 . S
C396 C398 1.395 . S
C396 H413 0.930 . S
C397 C393 1.395 . S
C397 C398 1.379 . S
C397 H414 0.930 . S
C398 C396 1.395 . S
C398 C397 1.379 . S
C398 H415 0.930 . S
C399 O382 1.264 . S
C399 O383 1.254 . S
C400 Eu336 2.848 . S
C400 O380 1.257 . S
C400 O385 1.249 . S
C400 C393 1.492 . S
C401 H366 0.931 . S
C401 C379 1.420 . S
C401 C402 1.351 . S
C402 H364 0.930 . S
C402 C370 1.423 . S
C402 C401 1.351 . S
C403 O387 1.276 . S
C403 O390 1.235 . S
C404 C405 1.393 . S
C404 C408 1.395 . S
C404 C411 1.492 . S
C405 C404 1.393 . S
C405 C406 1.392 . S
C405 H416 0.930 . S
C406 C405 1.392 . S
C406 C407 1.386 . S
C407 C406 1.386 . S
C407 C409 1.395 . S
C407 H417 0.930 . S
C408 C404 1.395 . S
C408 C409 1.379 . S
C408 H418 0.930 . S
C409 C407 1.395 . S
C409 C408 1.379 . S
C409 H419 0.930 . S
C410 O388 1.264 . S
C410 O389 1.254 . S
C411 Eu347 2.848 . S
C411 O386 1.257 . S
C411 O391 1.249 . S
C411 C404 1.492 . S
H412 C395 0.930 . S
H413 C396 0.930 . S
H414 C397 0.930 . S
H415 C398 0.930 . S
H416 C405 0.930 . S
H417 C407 0.930 . S
H418 C408 0.930 . S
H419 C409 0.930 . S
Eu420 N451 2.657 . S
Eu420 N458 2.609 . S
Eu420 O464 2.558 . S
Eu420 O465 2.612 . S
Eu420 O467 2.339 . S
Eu420 O468 2.563 . S
Eu420 O469 2.419 . S
Eu420 O471 2.380 . S
Eu420 O472 2.432 . S
Eu420 C484 2.848 . S
C421 C424 1.429 . S
C421 C425 1.411 . S
C421 N428 1.377 . S
C422 C424 1.420 . S
C422 C426 1.423 . S
C422 C434 1.392 . S
C423 C425 1.420 . S
C423 C426 1.351 . S
C423 H446 0.931 . S
C424 C421 1.429 . S
C424 C422 1.420 . S
C424 N432 1.362 . S
C425 C421 1.411 . S
C425 C423 1.420 . S
C425 C430 1.395 . S
C426 C422 1.423 . S
C426 C423 1.351 . S
C426 H438 0.930 . S
C427 C429 1.400 . S
C427 C430 1.386 . S
C427 H439 0.930 . S
N428 C421 1.377 . S
N428 C429 1.321 . S
N428 Eu431 2.609 . S
C429 C427 1.400 . S
C429 N428 1.321 . S
C429 H436 0.930 . S
C430 C425 1.395 . S
C430 C427 1.386 . S
C430 H449 0.930 . S
Eu431 N428 2.609 . S
Eu431 N432 2.657 . S
Eu431 O465 2.380 . S
Eu431 O466 2.432 . S
Eu431 O470 2.558 . S
Eu431 O471 2.612 . S
Eu431 O473 2.339 . S
Eu431 O474 2.563 . S
Eu431 O475 2.419 . S
Eu431 C495 2.848 . S
N432 C424 1.362 . S
N432 Eu431 2.657 . S
N432 C433 1.334 . S
C433 N432 1.334 . S
C433 C435 1.413 . S
C433 H440 0.929 . S
C434 C422 1.392 . S
C434 C435 1.367 . S
C434 H442 0.930 . S
C435 C433 1.413 . S
C435 C434 1.367 . S
C435 H437 0.930 . S
H436 C429 0.930 . S
H437 C435 0.930 . S
H438 C426 0.930 . S
H439 C427 0.930 . S
H440 C433 0.929 . S
H441 C455 0.930 . S
H442 C434 0.930 . S
H443 C461 0.930 . S
H444 C452 0.929 . S
H445 C459 0.930 . S
H446 C423 0.931 . S
H447 C453 0.930 . S
H448 C486 0.930 . S
H449 C430 0.930 . S
H450 C485 0.931 . S
N451 Eu420 2.657 . S
N451 C452 1.334 . S
N451 C456 1.362 . S
C452 H444 0.929 . S
C452 N451 1.334 . S
C452 C455 1.413 . S
C453 H447 0.930 . S
C453 C454 1.392 . S
C453 C455 1.367 . S
C454 C453 1.392 . S
C454 C456 1.420 . S
C454 C486 1.423 . S
C455 H441 0.930 . S
C455 C452 1.413 . S
C455 C453 1.367 . S
C456 N451 1.362 . S
C456 C454 1.420 . S
C456 C460 1.429 . S
H457 C462 0.930 . S
N458 Eu420 2.609 . S
N458 C460 1.377 . S
N458 C461 1.321 . S
C459 H445 0.930 . S
C459 C461 1.400 . S
C459 C462 1.386 . S
C460 C456 1.429 . S
C460 N458 1.377 . S
C460 C463 1.411 . S
C461 H443 0.930 . S
C461 N458 1.321 . S
C461 C459 1.400 . S
C462 H457 0.930 . S
C462 C459 1.386 . S
C462 C463 1.395 . S
C463 C460 1.411 . S
C463 C462 1.395 . S
C463 C485 1.420 . S
O464 Eu420 2.558 . S
O464 C484 1.257 . S
O465 Eu420 2.612 . S
O465 Eu431 2.380 . S
O465 C476 1.276 . S
O466 Eu431 2.432 . S
O466 C483 1.264 . S
O467 Eu420 2.339 . S
O467 C483 1.254 . S
O468 Eu420 2.563 . S
O468 C476 1.235 . S
O469 Eu420 2.419 . S
O469 C484 1.249 . S
O470 Eu431 2.558 . S
O470 C495 1.257 . S
O471 Eu420 2.380 . S
O471 Eu431 2.612 . S
O471 C487 1.276 . S
O472 Eu420 2.432 . S
O472 C494 1.264 . S
O473 Eu431 2.339 . S
O473 C494 1.254 . S
O474 Eu431 2.563 . S
O474 C487 1.235 . S
O475 Eu431 2.419 . S
O475 C495 1.249 . S
C476 O465 1.276 . S
C476 O468 1.235 . S
C477 C479 1.393 . S
C477 C481 1.395 . S
C477 C484 1.492 . S
C478 C479 1.392 . S
C478 C480 1.386 . S
C479 C477 1.393 . S
C479 C478 1.392 . S
C479 H496 0.930 . S
C480 C478 1.386 . S
C480 C482 1.395 . S
C480 H497 0.930 . S
C481 C477 1.395 . S
C481 C482 1.379 . S
C481 H498 0.930 . S
C482 C480 1.395 . S
C482 C481 1.379 . S
C482 H499 0.930 . S
C483 O466 1.264 . S
C483 O467 1.254 . S
C484 Eu420 2.848 . S
C484 O464 1.257 . S
C484 O469 1.249 . S
C484 C477 1.492 . S
C485 H450 0.931 . S
C485 C463 1.420 . S
C485 C486 1.351 . S
C486 H448 0.930 . S
C486 C454 1.423 . S
C486 C485 1.351 . S
C487 O471 1.276 . S
C487 O474 1.235 . S
C488 C489 1.393 . S
C488 C492 1.395 . S
C488 C495 1.492 . S
C489 C488 1.393 . S
C489 C490 1.392 . S
C489 H500 0.930 . S
C490 C489 1.392 . S
C490 C491 1.386 . S
C491 C490 1.386 . S
C491 C493 1.395 . S
C491 H501 0.930 . S
C492 C488 1.395 . S
C492 C493 1.379 . S
C492 H502 0.930 . S
C493 C491 1.395 . S
C493 C492 1.379 . S
C493 H503 0.930 . S
C494 O472 1.264 . S
C494 O473 1.254 . S
C495 Eu431 2.848 . S
C495 O470 1.257 . S
C495 O475 1.249 . S
C495 C488 1.492 . S
H496 C479 0.930 . S
H497 C480 0.930 . S
H498 C481 0.930 . S
H499 C482 0.930 . S
H500 C489 0.930 . S
H501 C491 0.930 . S
H502 C492 0.930 . S
H503 C493 0.930 . S
H504 C512 0.929 . S
H505 C514 0.930 . S
H506 C516 0.930 . S
H507 C519 0.929 . S
H508 C522 0.930 . S
H509 C524 0.960 . S
H510 C524 0.960 . S
H511 C524 0.960 . S
C512 H504 0.929 . S
C512 C513 1.377 . S
C512 C514 1.384 . S
C513 C512 1.377 . S
C513 C519 1.390 . S
C514 H505 0.930 . S
C514 C512 1.384 . S
C514 C515 1.372 . S
C515 C514 1.372 . S
C515 C516 1.400 . S
C515 C520 1.490 . S
C516 H506 0.930 . S
C516 C515 1.400 . S
C516 C519 1.386 . S
H517 C533 0.930 . S
H518 C534 0.931 . S
C519 H507 0.929 . S
C519 C513 1.390 . S
C519 C516 1.386 . S
C520 C515 1.490 . S
C520 C522 1.395 . S
C520 C523 1.403 . S
H521 C527 0.930 . S
C522 H508 0.930 . S
C522 C520 1.395 . S
C522 C525 1.403 . S
C523 C520 1.403 . S
C523 C524 1.524 . S
C523 C527 1.400 . S
C524 H509 0.960 . S
C524 H510 0.960 . S
C524 H511 0.960 . S
C524 C523 1.524 . S
C525 C522 1.403 . S
C525 C526 1.392 . S
C525 C529 1.495 . S
C526 C525 1.392 . S
C526 C527 1.385 . S
C526 C528 1.478 . S
C527 H521 0.930 . S
C527 C523 1.400 . S
C527 C526 1.385 . S
C528 C526 1.478 . S
C528 C530 1.381 . S
C528 C534 1.383 . S
C529 C525 1.495 . S
C529 H535 0.959 . S
C529 H536 0.961 . S
C529 H537 0.960 . S
C530 C528 1.381 . S
C530 C531 1.394 . S
C530 H538 0.930 . S
C531 C530 1.394 . S
C531 C532 1.383 . S
C531 H539 0.929 . S
C532 C531 1.383 . S
C532 C533 1.377 . S
C533 H517 0.930 . S
C533 C532 1.377 . S
C533 C534 1.379 . S
C534 H518 0.931 . S
C534 C528 1.383 . S
C534 C533 1.379 . S
H535 C529 0.959 . S
H536 C529 0.961 . S
H537 C529 0.960 . S
H538 C530 0.930 . S
H539 C531 0.929 . S
H540 C548 0.929 . S
H541 C550 0.930 . S
H542 C552 0.930 . S
H543 C555 0.929 . S
H544 C558 0.930 . S
H545 C560 0.960 . S
H546 C560 0.960 . S
H547 C560 0.960 . S
C548 H540 0.929 . S
C548 C549 1.377 . S
C548 C550 1.384 . S
C549 C548 1.377 . S
C549 C555 1.390 . S
C550 H541 0.930 . S
C550 C548 1.384 . S
C550 C551 1.372 . S
C551 C550 1.372 . S
C551 C552 1.400 . S
C551 C556 1.490 . S
C552 H542 0.930 . S
C552 C551 1.400 . S
C552 C555 1.386 . S
H553 C569 0.930 . S
H554 C570 0.931 . S
C555 H543 0.929 . S
C555 C549 1.390 . S
C555 C552 1.386 . S
C556 C551 1.490 . S
C556 C558 1.395 . S
C556 C559 1.403 . S
H557 C563 0.930 . S
C558 H544 0.930 . S
C558 C556 1.395 . S
C558 C561 1.403 . S
C559 C556 1.403 . S
C559 C560 1.524 . S
C559 C563 1.400 . S
C560 H545 0.960 . S
C560 H546 0.960 . S
C560 H547 0.960 . S
C560 C559 1.524 . S
C561 C558 1.403 . S
C561 C562 1.392 . S
C561 C565 1.495 . S
C562 C561 1.392 . S
C562 C563 1.385 . S
C562 C564 1.478 . S
C563 H557 0.930 . S
C563 C559 1.400 . S
C563 C562 1.385 . S
C564 C562 1.478 . S
C564 C566 1.381 . S
C564 C570 1.383 . S
C565 C561 1.495 . S
C565 H571 0.959 . S
C565 H572 0.961 . S
C565 H573 0.960 . S
C566 C564 1.381 . S
C566 C567 1.394 . S
C566 H574 0.930 . S
C567 C566 1.394 . S
C567 C568 1.383 . S
C567 H575 0.929 . S
C568 C567 1.383 . S
C568 C569 1.377 . S
C569 H553 0.930 . S
C569 C568 1.377 . S
C569 C570 1.379 . S
C570 H554 0.931 . S
C570 C564 1.383 . S
C570 C569 1.379 . S
H571 C565 0.959 . S
H572 C565 0.961 . S
H573 C565 0.960 . S
H574 C566 0.930 . S
H575 C567 0.929 . S
H576 C584 0.929 . S
H577 C586 0.930 . S
H578 C588 0.930 . S
H579 C591 0.929 . S
H580 C594 0.930 . S
H581 C596 0.960 . S
H582 C596 0.960 . S
H583 C596 0.960 . S
C584 H576 0.929 . S
C584 C585 1.377 . S
C584 C586 1.384 . S
C585 C584 1.377 . S
C585 C591 1.390 . S
C586 H577 0.930 . S
C586 C584 1.384 . S
C586 C587 1.372 . S
C587 C586 1.372 . S
C587 C588 1.400 . S
C587 C592 1.490 . S
C588 H578 0.930 . S
C588 C587 1.400 . S
C588 C591 1.386 . S
H589 C605 0.930 . S
H590 C606 0.931 . S
C591 H579 0.929 . S
C591 C585 1.390 . S
C591 C588 1.386 . S
C592 C587 1.490 . S
C592 C594 1.395 . S
C592 C595 1.403 . S
H593 C599 0.930 . S
C594 H580 0.930 . S
C594 C592 1.395 . S
C594 C597 1.403 . S
C595 C592 1.403 . S
C595 C596 1.524 . S
C595 C599 1.400 . S
C596 H581 0.960 . S
C596 H582 0.960 . S
C596 H583 0.960 . S
C596 C595 1.524 . S
C597 C594 1.403 . S
C597 C598 1.392 . S
C597 C601 1.495 . S
C598 C597 1.392 . S
C598 C599 1.385 . S
C598 C600 1.478 . S
C599 H593 0.930 . S
C599 C595 1.400 . S
C599 C598 1.385 . S
C600 C598 1.478 . S
C600 C602 1.381 . S
C600 C606 1.383 . S
C601 C597 1.495 . S
C601 H607 0.959 . S
C601 H608 0.961 . S
C601 H609 0.960 . S
C602 C600 1.381 . S
C602 C603 1.394 . S
C602 H610 0.930 . S
C603 C602 1.394 . S
C603 C604 1.383 . S
C603 H611 0.929 . S
C604 C603 1.383 . S
C604 C605 1.377 . S
C605 H589 0.930 . S
C605 C604 1.377 . S
C605 C606 1.379 . S
C606 H590 0.931 . S
C606 C600 1.383 . S
C606 C605 1.379 . S
H607 C601 0.959 . S
H608 C601 0.961 . S
H609 C601 0.960 . S
H610 C602 0.930 . S
H611 C603 0.929 . S
H612 C620 0.929 . S
H613 C622 0.930 . S
H614 C624 0.930 . S
H615 C627 0.929 . S
H616 C630 0.930 . S
H617 C632 0.960 . S
H618 C632 0.960 . S
H619 C632 0.960 . S
C620 H612 0.929 . S
C620 C621 1.377 . S
C620 C622 1.384 . S
C621 C620 1.377 . S
C621 C627 1.390 . S
C622 H613 0.930 . S
C622 C620 1.384 . S
C622 C623 1.372 . S
C623 C622 1.372 . S
C623 C624 1.400 . S
C623 C628 1.490 . S
C624 H614 0.930 . S
C624 C623 1.400 . S
C624 C627 1.386 . S
H625 C641 0.930 . S
H626 C642 0.931 . S
C627 H615 0.929 . S
C627 C621 1.390 . S
C627 C624 1.386 . S
C628 C623 1.490 . S
C628 C630 1.395 . S
C628 C631 1.403 . S
H629 C635 0.930 . S
C630 H616 0.930 . S
C630 C628 1.395 . S
C630 C633 1.403 . S
C631 C628 1.403 . S
C631 C632 1.524 . S
C631 C635 1.400 . S
C632 H617 0.960 . S
C632 H618 0.960 . S
C632 H619 0.960 . S
C632 C631 1.524 . S
C633 C630 1.403 . S
C633 C634 1.392 . S
C633 C637 1.495 . S
C634 C633 1.392 . S
C634 C635 1.385 . S
C634 C636 1.478 . S
C635 H629 0.930 . S
C635 C631 1.400 . S
C635 C634 1.385 . S
C636 C634 1.478 . S
C636 C638 1.381 . S
C636 C642 1.383 . S
C637 C633 1.495 . S
C637 H643 0.959 . S
C637 H644 0.961 . S
C637 H645 0.960 . S
C638 C636 1.381 . S
C638 C639 1.394 . S
C638 H646 0.930 . S
C639 C638 1.394 . S
C639 C640 1.383 . S
C639 H647 0.929 . S
C640 C639 1.383 . S
C640 C641 1.377 . S
C641 H625 0.930 . S
C641 C640 1.377 . S
C641 C642 1.379 . S
C642 H626 0.931 . S
C642 C636 1.383 . S
C642 C641 1.379 . S
H643 C637 0.959 . S
H644 C637 0.961 . S
H645 C637 0.960 . S
H646 C638 0.930 . S
H647 C639 0.929 . S
H648 C656 0.929 . S
H649 C658 0.930 . S
H650 C660 0.930 . S
H651 C663 0.929 . S
H652 C666 0.930 . S
H653 C668 0.960 . S
H654 C668 0.960 . S
H655 C668 0.960 . S
C656 H648 0.929 . S
C656 C657 1.377 . S
C656 C658 1.384 . S
C657 C656 1.377 . S
C657 C663 1.390 . S
C658 H649 0.930 . S
C658 C656 1.384 . S
C658 C659 1.372 . S
C659 C658 1.372 . S
C659 C660 1.400 . S
C659 C664 1.490 . S
C660 H650 0.930 . S
C660 C659 1.400 . S
C660 C663 1.386 . S
H661 C677 0.930 . S
H662 C678 0.931 . S
C663 H651 0.929 . S
C663 C657 1.390 . S
C663 C660 1.386 . S
C664 C659 1.490 . S
C664 C666 1.395 . S
C664 C667 1.403 . S
H665 C671 0.930 . S
C666 H652 0.930 . S
C666 C664 1.395 . S
C666 C669 1.403 . S
C667 C664 1.403 . S
C667 C668 1.524 . S
C667 C671 1.400 . S
C668 H653 0.960 . S
C668 H654 0.960 . S
C668 H655 0.960 . S
C668 C667 1.524 . S
C669 C666 1.403 . S
C669 C670 1.392 . S
C669 C673 1.495 . S
C670 C669 1.392 . S
C670 C671 1.385 . S
C670 C672 1.478 . S
C671 H665 0.930 . S
C671 C667 1.400 . S
C671 C670 1.385 . S
C672 C670 1.478 . S
C672 C674 1.381 . S
C672 C678 1.383 . S
C673 C669 1.495 . S
C673 H679 0.959 . S
C673 H680 0.961 . S
C673 H681 0.960 . S
C674 C672 1.381 . S
C674 C675 1.394 . S
C674 H682 0.930 . S
C675 C674 1.394 . S
C675 C676 1.383 . S
C675 H683 0.929 . S
C676 C675 1.383 . S
C676 C677 1.377 . S
C677 H661 0.930 . S
C677 C676 1.377 . S
C677 C678 1.379 . S
C678 H662 0.931 . S
C678 C672 1.383 . S
C678 C677 1.379 . S
H679 C673 0.959 . S
H680 C673 0.961 . S
H681 C673 0.960 . S
H682 C674 0.930 . S
H683 C675 0.929 . S
H684 C692 0.929 . S
H685 C694 0.930 . S
H686 C696 0.930 . S
H687 C699 0.929 . S
H688 C702 0.930 . S
H689 C704 0.960 . S
H690 C704 0.960 . S
H691 C704 0.960 . S
C692 H684 0.929 . S
C692 C693 1.377 . S
C692 C694 1.384 . S
C693 C692 1.377 . S
C693 C699 1.390 . S
C694 H685 0.930 . S
C694 C692 1.384 . S
C694 C695 1.372 . S
C695 C694 1.372 . S
C695 C696 1.400 . S
C695 C700 1.490 . S
C696 H686 0.930 . S
C696 C695 1.400 . S
C696 C699 1.386 . S
H697 C713 0.930 . S
H698 C714 0.931 . S
C699 H687 0.929 . S
C699 C693 1.390 . S
C699 C696 1.386 . S
C700 C695 1.490 . S
C700 C702 1.395 . S
C700 C703 1.403 . S
H701 C707 0.930 . S
C702 H688 0.930 . S
C702 C700 1.395 . S
C702 C705 1.403 . S
C703 C700 1.403 . S
C703 C704 1.524 . S
C703 C707 1.400 . S
C704 H689 0.960 . S
C704 H690 0.960 . S
C704 H691 0.960 . S
C704 C703 1.524 . S
C705 C702 1.403 . S
C705 C706 1.392 . S
C705 C709 1.495 . S
C706 C705 1.392 . S
C706 C707 1.385 . S
C706 C708 1.478 . S
C707 H701 0.930 . S
C707 C703 1.400 . S
C707 C706 1.385 . S
C708 C706 1.478 . S
C708 C710 1.381 . S
C708 C714 1.383 . S
C709 C705 1.495 . S
C709 H715 0.959 . S
C709 H716 0.961 . S
C709 H717 0.960 . S
C710 C708 1.381 . S
C710 C711 1.394 . S
C710 H718 0.930 . S
C711 C710 1.394 . S
C711 C712 1.383 . S
C711 H719 0.929 . S
C712 C711 1.383 . S
C712 C713 1.377 . S
C713 H697 0.930 . S
C713 C712 1.377 . S
C713 C714 1.379 . S
C714 H698 0.931 . S
C714 C708 1.383 . S
C714 C713 1.379 . S
H715 C709 0.959 . S
H716 C709 0.961 . S
H717 C709 0.960 . S
H718 C710 0.930 . S
H719 C711 0.929 . S
H720 C728 0.929 . S
H721 C730 0.930 . S
H722 C732 0.930 . S
H723 C735 0.929 . S
H724 C738 0.930 . S
H725 C740 0.960 . S
H726 C740 0.960 . S
H727 C740 0.960 . S
C728 H720 0.929 . S
C728 C729 1.377 . S
C728 C730 1.384 . S
C729 C728 1.377 . S
C729 C735 1.390 . S
C730 H721 0.930 . S
C730 C728 1.384 . S
C730 C731 1.372 . S
C731 C730 1.372 . S
C731 C732 1.400 . S
C731 C736 1.490 . S
C732 H722 0.930 . S
C732 C731 1.400 . S
C732 C735 1.386 . S
H733 C749 0.930 . S
H734 C750 0.931 . S
C735 H723 0.929 . S
C735 C729 1.390 . S
C735 C732 1.386 . S
C736 C731 1.490 . S
C736 C738 1.395 . S
C736 C739 1.403 1_554 S
H737 C743 0.930 . S
C738 H724 0.930 . S
C738 C736 1.395 . S
C738 C741 1.403 . S
C739 C736 1.403 1_556 S
C739 C740 1.524 . S
C739 C743 1.400 . S
C740 H725 0.960 . S
C740 H726 0.960 . S
C740 H727 0.960 . S
C740 C739 1.524 . S
C741 C738 1.403 . S
C741 C742 1.392 . S
C741 C745 1.495 . S
C742 C741 1.392 . S
C742 C743 1.385 1_554 S
C742 C744 1.478 . S
C743 H737 0.930 . S
C743 C739 1.400 . S
C743 C742 1.385 1_556 S
C744 C742 1.478 . S
C744 C746 1.381 . S
C744 C750 1.383 . S
C745 C741 1.495 . S
C745 H751 0.959 . S
C745 H752 0.961 . S
C745 H753 0.960 . S
C746 C744 1.381 . S
C746 C747 1.394 . S
C746 H754 0.930 . S
C747 C746 1.394 . S
C747 C748 1.383 . S
C747 H755 0.929 . S
C748 C747 1.383 . S
C748 C749 1.377 . S
C749 H733 0.930 . S
C749 C748 1.377 . S
C749 C750 1.379 . S
C750 H734 0.931 . S
C750 C744 1.383 . S
C750 C749 1.379 . S
H751 C745 0.959 . S
H752 C745 0.961 . S
H753 C745 0.960 . S
H754 C746 0.930 . S
H755 C747 0.929 . S
H756 C764 0.929 . S
H757 C766 0.930 . S
H758 C768 0.930 . S
H759 C771 0.929 . S
H760 C774 0.930 . S
H761 C776 0.960 . S
H762 C776 0.960 . S
H763 C776 0.960 . S
C764 H756 0.929 . S
C764 C765 1.377 . S
C764 C766 1.384 . S
C765 C764 1.377 . S
C765 C771 1.390 . S
C766 H757 0.930 . S
C766 C764 1.384 . S
C766 C767 1.372 . S
C767 C766 1.372 . S
C767 C768 1.400 . S
C767 C772 1.490 . S
C768 H758 0.930 . S
C768 C767 1.400 . S
C768 C771 1.386 . S
H769 C785 0.930 . S
H770 C786 0.931 . S
C771 H759 0.929 . S
C771 C765 1.390 . S
C771 C768 1.386 . S
C772 C767 1.490 . S
C772 C774 1.395 . S
C772 C775 1.403 . S
H773 C779 0.930 . S
C774 H760 0.930 . S
C774 C772 1.395 . S
C774 C777 1.403 1_455 S
C775 C772 1.403 . S
C775 C776 1.524 . S
C775 C779 1.400 1_455 S
C776 H761 0.960 . S
C776 H762 0.960 . S
C776 H763 0.960 . S
C776 C775 1.524 . S
C777 C774 1.403 1_655 S
C777 C778 1.392 . S
C777 C781 1.495 . S
C778 C777 1.392 . S
C778 C779 1.385 . S
C778 C780 1.478 . S
C779 H773 0.930 . S
C779 C775 1.400 1_655 S
C779 C778 1.385 . S
C780 C778 1.478 . S
C780 C782 1.381 . S
C780 C786 1.383 . S
C781 C777 1.495 . S
C781 H787 0.959 . S
C781 H788 0.961 . S
C781 H789 0.960 . S
C782 C780 1.381 . S
C782 C783 1.394 . S
C782 H790 0.930 . S
C783 C782 1.394 . S
C783 C784 1.383 . S
C783 H791 0.929 . S
C784 C783 1.383 . S
C784 C785 1.377 . S
C785 H769 0.930 . S
C785 C784 1.377 . S
C785 C786 1.379 . S
C786 H770 0.931 . S
C786 C780 1.383 . S
C786 C785 1.379 . S
H787 C781 0.959 . S
H788 C781 0.961 . S
H789 C781 0.960 . S
H790 C782 0.930 . S
H791 C783 0.929 . S
H792 C800 0.929 . S
H793 C802 0.930 . S
H794 C804 0.930 . S
H795 C807 0.929 . S
H796 C810 0.930 . S
H797 C812 0.960 . S
H798 C812 0.960 . S
H799 C812 0.960 . S
C800 H792 0.929 . S
C800 C801 1.377 . S
C800 C802 1.384 . S
C801 C800 1.377 . S
C801 C807 1.390 . S
C802 H793 0.930 . S
C802 C800 1.384 . S
C802 C803 1.372 . S
C803 C802 1.372 . S
C803 C804 1.400 . S
C803 C808 1.490 . S
C804 H794 0.930 . S
C804 C803 1.400 . S
C804 C807 1.386 . S
H805 C821 0.930 . S
H806 C822 0.931 . S
C807 H795 0.929 . S
C807 C801 1.390 . S
C807 C804 1.386 . S
C808 C803 1.490 . S
C808 C810 1.395 . S
C808 C811 1.403 1_545 S
H809 C815 0.930 . S
C810 H796 0.930 . S
C810 C808 1.395 . S
C810 C813 1.403 . S
C811 C808 1.403 1_565 S
C811 C812 1.524 . S
C811 C815 1.400 . S
C812 H797 0.960 . S
C812 H798 0.960 . S
C812 H799 0.960 . S
C812 C811 1.524 . S
C813 C810 1.403 . S
C813 C814 1.392 1_545 S
C813 C817 1.495 . S
C814 C813 1.392 1_565 S
C814 C815 1.385 . S
C814 C816 1.478 . S
C815 H809 0.930 . S
C815 C811 1.400 . S
C815 C814 1.385 . S
C816 C814 1.478 . S
C816 C818 1.381 . S
C816 C822 1.383 . S
C817 C813 1.495 . S
C817 H823 0.959 . S
C817 H824 0.961 . S
C817 H825 0.960 . S
C818 C816 1.381 . S
C818 C819 1.394 . S
C818 H826 0.930 . S
C819 C818 1.394 . S
C819 C820 1.383 . S
C819 H827 0.929 . S
C820 C819 1.383 . S
C820 C821 1.377 . S
C821 H805 0.930 . S
C821 C820 1.377 . S
C821 C822 1.379 . S
C822 H806 0.931 . S
C822 C816 1.383 . S
C822 C821 1.379 . S
H823 C817 0.959 . S
H824 C817 0.961 . S
H825 C817 0.960 . S
H826 C818 0.930 . S
H827 C819 0.929 . S
H828 C836 0.929 . S
H829 C838 0.930 . S
H830 C840 0.930 . S
H831 C843 0.929 . S
H832 C846 0.930 . S
H833 C848 0.960 . S
H834 C848 0.960 . S
H835 C848 0.960 . S
C836 H828 0.929 . S
C836 C837 1.377 . S
C836 C838 1.384 . S
C837 C836 1.377 . S
C837 C843 1.390 . S
C838 H829 0.930 . S
C838 C836 1.384 . S
C838 C839 1.372 . S
C839 C838 1.372 . S
C839 C840 1.400 . S
C839 C844 1.490 . S
C840 H830 0.930 . S
C840 C839 1.400 . S
C840 C843 1.386 . S
H841 C857 0.930 . S
H842 C858 0.931 . S
C843 H831 0.929 . S
C843 C837 1.390 . S
C843 C840 1.386 . S
C844 C839 1.490 . S
C844 C846 1.395 . S
C844 C847 1.403 . S
H845 C851 0.930 . S
C846 H832 0.930 . S
C846 C844 1.395 . S
C846 C849 1.403 . S
C847 C844 1.403 . S
C847 C848 1.524 . S
C847 C851 1.400 . S
C848 H833 0.960 . S
C848 H834 0.960 . S
C848 H835 0.960 . S
C848 C847 1.524 . S
C849 C846 1.403 . S
C849 C850 1.392 . S
C849 C853 1.495 . S
C850 C849 1.392 . S
C850 C851 1.385 . S
C850 C852 1.478 . S
C851 H845 0.930 . S
C851 C847 1.400 . S
C851 C850 1.385 . S
C852 C850 1.478 . S
C852 C854 1.381 . S
C852 C858 1.383 . S
C853 C849 1.495 . S
C853 H859 0.959 . S
C853 H860 0.961 . S
C853 H861 0.960 . S
C854 C852 1.381 . S
C854 C855 1.394 . S
C854 H862 0.930 . S
C855 C854 1.394 . S
C855 C856 1.383 . S
C855 H863 0.929 . S
C856 C855 1.383 . S
C856 C857 1.377 . S
C857 H841 0.930 . S
C857 C856 1.377 . S
C857 C858 1.379 . S
C858 H842 0.931 . S
C858 C852 1.383 . S
C858 C857 1.379 . S
H859 C853 0.959 . S
H860 C853 0.961 . S
H861 C853 0.960 . S
H862 C854 0.930 . S
H863 C855 0.929 . S
H864 C872 0.929 . S
H865 C874 0.930 . S
H866 C876 0.930 . S
H867 C879 0.929 . S
H868 C882 0.930 . S
H869 C884 0.960 . S
H870 C884 0.960 . S
H871 C884 0.960 . S
C872 H864 0.929 . S
C872 C873 1.377 . S
C872 C874 1.384 . S
C873 C872 1.377 . S
C873 C879 1.390 1_554 S
C874 H865 0.930 . S
C874 C872 1.384 . S
C874 C875 1.372 . S
C875 C874 1.372 . S
C875 C876 1.400 1_554 S
C875 C880 1.490 . S
C876 H866 0.930 . S
C876 C875 1.400 1_556 S
C876 C879 1.386 . S
H877 C893 0.930 . S
H878 C894 0.931 . S
C879 H867 0.929 . S
C879 C873 1.390 1_556 S
C879 C876 1.386 . S
C880 C875 1.490 . S
C880 C882 1.395 1_554 S
C880 C883 1.403 1_455 S
H881 C887 0.930 . S
C882 H868 0.930 . S
C882 C880 1.395 1_556 S
C882 C885 1.403 . S
C883 C880 1.403 1_655 S
C883 C884 1.524 . S
C883 C887 1.400 . S
C884 H869 0.960 . S
C884 H870 0.960 . S
C884 H871 0.960 . S
C884 C883 1.524 . S
C885 C882 1.403 . S
C885 C886 1.392 1_456 S
C885 C889 1.495 . S
C886 C885 1.392 1_654 S
C886 C887 1.385 . S
C886 C888 1.478 . S
C887 H881 0.930 . S
C887 C883 1.400 . S
C887 C886 1.385 . S
C888 C886 1.478 . S
C888 C890 1.381 . S
C888 C894 1.383 1_554 S
C889 C885 1.495 . S
C889 H895 0.959 . S
C889 H896 0.961 . S
C889 H897 0.960 . S
C890 C888 1.381 . S
C890 C891 1.394 . S
C890 H898 0.930 . S
C891 C890 1.394 . S
C891 C892 1.383 . S
C891 H899 0.929 . S
C892 C891 1.383 . S
C892 C893 1.377 1_554 S
C893 H877 0.930 . S
C893 C892 1.377 1_556 S
C893 C894 1.379 . S
C894 H878 0.931 . S
C894 C888 1.383 1_556 S
C894 C893 1.379 . S
H895 C889 0.959 . S
H896 C889 0.961 . S
H897 C889 0.960 . S
H898 C890 0.930 . S
H899 C891 0.929 . S
H900 C908 0.929 . S
H901 C910 0.930 . S
H902 C912 0.930 . S
H903 C915 0.929 . S
H904 C918 0.930 . S
H905 C920 0.960 . S
H906 C920 0.960 . S
H907 C920 0.960 . S
C908 H900 0.929 . S
C908 C909 1.377 . S
C908 C910 1.384 . S
C909 C908 1.377 . S
C909 C915 1.390 . S
C910 H901 0.930 . S
C910 C908 1.384 . S
C910 C911 1.372 . S
C911 C910 1.372 . S
C911 C912 1.400 . S
C911 C916 1.490 . S
C912 H902 0.930 . S
C912 C911 1.400 . S
C912 C915 1.386 . S
H913 C929 0.930 . S
H914 C930 0.931 . S
C915 H903 0.929 . S
C915 C909 1.390 . S
C915 C912 1.386 . S
C916 C911 1.490 . S
C916 C918 1.395 . S
C916 C919 1.403 1_565 S
H917 C923 0.930 . S
C918 H904 0.930 . S
C918 C916 1.395 . S
C918 C921 1.403 . S
C919 C916 1.403 1_545 S
C919 C920 1.524 . S
C919 C923 1.400 . S
C920 H905 0.960 . S
C920 H906 0.960 . S
C920 H907 0.960 . S
C920 C919 1.524 . S
C921 C918 1.403 . S
C921 C922 1.392 1_565 S
C921 C925 1.495 . S
C922 C921 1.392 1_545 S
C922 C923 1.385 . S
C922 C924 1.478 . S
C923 H917 0.930 . S
C923 C919 1.400 . S
C923 C922 1.385 . S
C924 C922 1.478 . S
C924 C926 1.381 . S
C924 C930 1.383 . S
C925 C921 1.495 . S
C925 H931 0.959 . S
C925 H932 0.961 . S
C925 H933 0.960 . S
C926 C924 1.381 . S
C926 C927 1.394 . S
C926 H934 0.930 . S
C927 C926 1.394 . S
C927 C928 1.383 . S
C927 H935 0.929 . S
C928 C927 1.383 . S
C928 C929 1.377 . S
C929 H913 0.930 . S
C929 C928 1.377 . S
C929 C930 1.379 . S
C930 H914 0.931 . S
C930 C924 1.383 . S
C930 C929 1.379 . S
H931 C925 0.959 . S
H932 C925 0.961 . S
H933 C925 0.960 . S
H934 C926 0.930 . S
H935 C927 0.929 . S
H936 C944 0.929 . S
H937 C946 0.930 . S
H938 C948 0.930 . S
H939 C951 0.929 . S
H940 C954 0.930 . S
H941 C956 0.960 . S
H942 C956 0.960 . S
H943 C956 0.960 . S
C944 H936 0.929 . S
C944 C945 1.377 . S
C944 C946 1.384 . S
C945 C944 1.377 . S
C945 C951 1.390 . S
C946 H937 0.930 . S
C946 C944 1.384 . S
C946 C947 1.372 . S
C947 C946 1.372 . S
C947 C948 1.400 . S
C947 C952 1.490 . S
C948 H938 0.930 . S
C948 C947 1.400 . S
C948 C951 1.386 . S
H949 C965 0.930 . S
H950 C966 0.931 . S
C951 H939 0.929 . S
C951 C945 1.390 . S
C951 C948 1.386 . S
C952 C947 1.490 . S
C952 C954 1.395 . S
C952 C955 1.403 . S
H953 C959 0.930 . S
C954 H940 0.930 . S
C954 C952 1.395 . S
C954 C957 1.403 . S
C955 C952 1.403 . S
C955 C956 1.524 . S
C955 C959 1.400 . S
C956 H941 0.960 . S
C956 H942 0.960 . S
C956 H943 0.960 . S
C956 C955 1.524 . S
C957 C954 1.403 . S
C957 C958 1.392 . S
C957 C961 1.495 . S
C958 C957 1.392 . S
C958 C959 1.385 . S
C958 C960 1.478 . S
C959 H953 0.930 . S
C959 C955 1.400 . S
C959 C958 1.385 . S
C960 C958 1.478 . S
C960 C962 1.381 . S
C960 C966 1.383 . S
C961 C957 1.495 . S
C961 H967 0.959 . S
C961 H968 0.961 . S
C961 H969 0.960 . S
C962 C960 1.381 . S
C962 C963 1.394 . S
C962 H970 0.930 . S
C963 C962 1.394 . S
C963 C964 1.383 . S
C963 H971 0.929 . S
C964 C963 1.383 . S
C964 C965 1.377 . S
C965 H949 0.930 . S
C965 C964 1.377 . S
C965 C966 1.379 . S
C966 H950 0.931 . S
C966 C960 1.383 . S
C966 C965 1.379 . S
H967 C961 0.959 . S
H968 C961 0.961 . S
H969 C961 0.960 . S
H970 C962 0.930 . S
H971 C963 0.929 . S
H972 C980 0.929 . S
H973 C982 0.930 . S
H974 C984 0.930 . S
H975 C987 0.930 1_455 S
H976 C990 0.930 1_655 S
H977 C992 0.960 . S
H978 C992 0.960 . S
H979 C992 0.960 . S
C980 H972 0.929 . S
C980 C981 1.377 . S
C980 C982 1.384 . S
C981 C980 1.377 . S
C981 C987 1.390 . S
C982 H973 0.930 . S
C982 C980 1.384 . S
C982 C983 1.372 1_655 S
C983 C982 1.372 1_455 S
C983 C984 1.400 . S
C983 C988 1.490 . S
C984 H974 0.930 . S
C984 C983 1.400 . S
C984 C987 1.386 1_455 S
H985 C1001 0.930 . S
H986 C1002 0.931 . S
C987 H975 0.930 1_655 S
C987 C981 1.390 . S
C987 C984 1.386 1_655 S
C988 C983 1.490 . S
C988 C990 1.395 . S
C988 C991 1.403 . S
H989 C995 0.930 . S
C990 H976 0.930 1_455 S
C990 C988 1.395 . S
C990 C993 1.403 . S
C991 C988 1.403 . S
C991 C992 1.524 . S
C991 C995 1.400 . S
C992 H977 0.960 . S
C992 H978 0.960 . S
C992 H979 0.960 . S
C992 C991 1.524 . S
C993 C990 1.403 . S
C993 C994 1.392 . S
C993 C997 1.495 . S
C994 C993 1.392 . S
C994 C995 1.385 . S
C994 C996 1.478 . S
C995 H989 0.930 . S
C995 C991 1.400 . S
C995 C994 1.385 . S
C996 C994 1.478 . S
C996 C998 1.381 . S
C996 C1002 1.383 . S
C997 C993 1.495 . S
C997 H1003 0.959 1_455 S
C997 H1004 0.961 . S
C997 H1005 0.960 . S
C998 C996 1.381 . S
C998 C999 1.394 . S
C998 H1006 0.930 . S
C999 C998 1.394 . S
C999 C1000 1.383 . S
C999 H1007 0.929 . S
C1000 C999 1.383 . S
C1000 C1001 1.377 . S
C1001 H985 0.930 . S
C1001 C1000 1.377 . S
C1001 C1002 1.379 . S
C1002 H986 0.931 . S
C1002 C996 1.383 . S
C1002 C1001 1.379 . S
H1003 C997 0.959 1_655 S
H1004 C997 0.961 . S
H1005 C997 0.960 . S
H1006 C998 0.930 . S
H1007 C999 0.929 . S
H1008 C1016 0.929 . S
H1009 C1018 0.930 . S
H1010 C1020 0.930 . S
H1011 C1023 0.929 1_545 S
H1012 C1026 0.930 . S
H1013 C1028 0.960 . S
H1014 C1028 0.960 . S
H1015 C1028 0.960 . S
C1016 H1008 0.929 . S
C1016 C1017 1.377 . S
C1016 C1018 1.384 . S
C1017 C1016 1.377 . S
C1017 C1023 1.390 . S
C1018 H1009 0.930 . S
C1018 C1016 1.384 . S
C1018 C1019 1.372 1_565 S
C1019 C1018 1.372 1_545 S
C1019 C1020 1.400 . S
C1019 C1024 1.490 . S
C1020 H1010 0.930 . S
C1020 C1019 1.400 . S
C1020 C1023 1.385 1_545 S
H1021 C1037 0.930 . S
H1022 C1038 0.931 . S
C1023 H1011 0.929 1_565 S
C1023 C1017 1.390 . S
C1023 C1020 1.385 1_565 S
C1024 C1019 1.490 . S
C1024 C1026 1.395 . S
C1024 C1027 1.403 . S
H1025 C1031 0.930 . S
C1026 H1012 0.930 . S
C1026 C1024 1.395 . S
C1026 C1029 1.403 . S
C1027 C1024 1.403 . S
C1027 C1028 1.524 . S
C1027 C1031 1.400 . S
C1028 H1013 0.960 . S
C1028 H1014 0.960 . S
C1028 H1015 0.960 . S
C1028 C1027 1.524 . S
C1029 C1026 1.403 . S
C1029 C1030 1.392 . S
C1029 C1033 1.495 . S
C1030 C1029 1.392 . S
C1030 C1031 1.385 . S
C1030 C1032 1.478 . S
C1031 H1025 0.930 . S
C1031 C1027 1.400 . S
C1031 C1030 1.385 . S
C1032 C1030 1.478 . S
C1032 C1034 1.381 . S
C1032 C1038 1.383 . S
C1033 C1029 1.495 . S
C1033 H1039 0.959 . S
C1033 H1040 0.961 . S
C1033 H1041 0.960 . S
C1034 C1032 1.381 . S
C1034 C1035 1.394 . S
C1034 H1042 0.930 . S
C1035 C1034 1.394 . S
C1035 C1036 1.383 . S
C1035 H1043 0.929 . S
C1036 C1035 1.383 . S
C1036 C1037 1.377 . S
C1037 H1021 0.930 . S
C1037 C1036 1.377 . S
C1037 C1038 1.379 . S
C1038 H1022 0.931 . S
C1038 C1032 1.383 . S
C1038 C1037 1.379 . S
H1039 C1033 0.959 . S
H1040 C1033 0.961 . S
H1041 C1033 0.960 . S
H1042 C1034 0.930 . S
H1043 C1035 0.929 . S
H1044 C1052 0.929 . S
H1045 C1054 0.930 . S
H1046 C1056 0.930 . S
H1047 C1059 0.929 . S
H1048 C1062 0.930 . S
H1049 C1064 0.960 . S
H1050 C1064 0.960 . S
H1051 C1064 0.960 . S
C1052 H1044 0.929 . S
C1052 C1053 1.377 . S
C1052 C1054 1.384 . S
C1053 C1052 1.377 . S
C1053 C1059 1.390 . S
C1054 H1045 0.930 . S
C1054 C1052 1.384 . S
C1054 C1055 1.372 . S
C1055 C1054 1.372 . S
C1055 C1056 1.400 . S
C1055 C1060 1.490 . S
C1056 H1046 0.930 . S
C1056 C1055 1.400 . S
C1056 C1059 1.386 . S
H1057 C1073 0.930 . S
H1058 C1074 0.931 . S
C1059 H1047 0.929 . S
C1059 C1053 1.390 . S
C1059 C1056 1.386 . S
C1060 C1055 1.490 . S
C1060 C1062 1.395 . S
C1060 C1063 1.403 . S
H1061 C1067 0.930 . S
C1062 H1048 0.930 . S
C1062 C1060 1.395 . S
C1062 C1065 1.403 . S
C1063 C1060 1.403 . S
C1063 C1064 1.524 . S
C1063 C1067 1.400 . S
C1064 H1049 0.960 . S
C1064 H1050 0.960 . S
C1064 H1051 0.960 . S
C1064 C1063 1.524 . S
C1065 C1062 1.403 . S
C1065 C1066 1.392 . S
C1065 C1069 1.495 . S
C1066 C1065 1.392 . S
C1066 C1067 1.385 . S
C1066 C1068 1.478 . S
C1067 H1061 0.930 . S
C1067 C1063 1.400 . S
C1067 C1066 1.385 . S
C1068 C1066 1.478 . S
C1068 C1070 1.381 . S
C1068 C1074 1.383 . S
C1069 C1065 1.495 . S
C1069 H1075 0.959 . S
C1069 H1076 0.961 . S
C1069 H1077 0.960 . S
C1070 C1068 1.381 . S
C1070 C1071 1.394 . S
C1070 H1078 0.930 . S
C1071 C1070 1.394 . S
C1071 C1072 1.383 . S
C1071 H1079 0.929 . S
C1072 C1071 1.383 . S
C1072 C1073 1.377 . S
C1073 H1057 0.930 . S
C1073 C1072 1.377 . S
C1073 C1074 1.379 . S
C1074 H1058 0.931 . S
C1074 C1068 1.383 . S
C1074 C1073 1.379 . S
H1075 C1069 0.959 . S
H1076 C1069 0.961 . S
H1077 C1069 0.960 . S
H1078 C1070 0.930 . S
H1079 C1071 0.929 . S
H1080 C1088 0.926 1_655 S
H1081 C1090 0.930 . S
H1082 C1092 0.930 . S
H1083 C1095 0.929 . S
H1084 C1098 0.930 . S
H1085 C1100 0.960 . S
H1086 C1100 0.960 . S
H1087 C1100 0.960 1_455 S
C1088 H1080 0.926 1_455 S
C1088 C1089 1.383 . S
C1088 C1090 1.381 1_455 S
C1089 C1088 1.383 . S
C1089 C1095 1.390 . S
C1090 H1081 0.930 . S
C1090 C1088 1.381 1_655 S
C1090 C1091 1.372 . S
C1091 C1090 1.372 . S
C1091 C1092 1.400 1_655 S
C1091 C1096 1.490 . S
C1092 H1082 0.930 . S
C1092 C1091 1.400 1_455 S
C1092 C1095 1.386 . S
H1093 C1109 0.930 . S
H1094 C1110 0.931 . S
C1095 H1083 0.929 . S
C1095 C1089 1.390 . S
C1095 C1092 1.386 . S
C1096 C1091 1.490 . S
C1096 C1098 1.395 . S
C1096 C1099 1.403 . S
H1097 C1103 0.930 . S
C1098 H1084 0.930 . S
C1098 C1096 1.395 . S
C1098 C1101 1.403 . S
C1099 C1096 1.403 . S
C1099 C1100 1.524 . S
C1099 C1103 1.400 . S
C1100 H1085 0.960 . S
C1100 H1086 0.960 . S
C1100 H1087 0.960 1_655 S
C1100 C1099 1.524 . S
C1101 C1098 1.403 . S
C1101 C1102 1.392 . S
C1101 C1105 1.495 . S
C1102 C1101 1.392 . S
C1102 C1103 1.385 . S
C1102 C1104 1.478 . S
C1103 H1097 0.930 . S
C1103 C1099 1.400 . S
C1103 C1102 1.385 . S
C1104 C1102 1.478 . S
C1104 C1106 1.381 . S
C1104 C1110 1.383 . S
C1105 C1101 1.495 . S
C1105 H1111 0.959 . S
C1105 H1112 0.961 . S
C1105 H1113 0.960 . S
C1106 C1104 1.381 . S
C1106 C1107 1.394 . S
C1106 H1114 0.930 . S
C1107 C1106 1.394 . S
C1107 C1108 1.383 . S
C1107 H1115 0.929 . S
C1108 C1107 1.383 . S
C1108 C1109 1.377 . S
C1109 H1093 0.930 . S
C1109 C1108 1.377 . S
C1109 C1110 1.379 . S
C1110 H1094 0.931 . S
C1110 C1104 1.383 . S
C1110 C1109 1.379 . S
H1111 C1105 0.959 . S
H1112 C1105 0.961 . S
H1113 C1105 0.960 . S
H1114 C1106 0.930 . S
H1115 C1107 0.929 . S
H1116 C1124 0.929 1_565 S
H1117 C1126 0.930 . S
H1118 C1128 0.930 . S
H1119 C1131 0.929 . S
H1120 C1134 0.930 . S
H1121 C1136 0.960 . S
H1122 C1136 0.960 . S
H1123 C1136 0.960 . S
C1124 H1116 0.929 1_545 S
C1124 C1125 1.377 . S
C1124 C1126 1.384 1_545 S
C1125 C1124 1.377 . S
C1125 C1131 1.390 . S
C1126 H1117 0.930 . S
C1126 C1124 1.384 1_565 S
C1126 C1127 1.372 . S
C1127 C1126 1.372 . S
C1127 C1128 1.400 1_565 S
C1127 C1132 1.490 . S
C1128 H1118 0.930 . S
C1128 C1127 1.400 1_545 S
C1128 C1131 1.386 . S
H1129 C1145 0.930 . S
H1130 C1146 0.931 . S
C1131 H1119 0.929 . S
C1131 C1125 1.390 . S
C1131 C1128 1.386 . S
C1132 C1127 1.490 . S
C1132 C1134 1.395 . S
C1132 C1135 1.403 . S
H1133 C1139 0.930 . S
C1134 H1120 0.930 . S
C1134 C1132 1.395 . S
C1134 C1137 1.403 . S
C1135 C1132 1.403 . S
C1135 C1136 1.524 1_565 S
C1135 C1139 1.400 . S
C1136 H1121 0.960 . S
C1136 H1122 0.960 . S
C1136 H1123 0.960 . S
C1136 C1135 1.524 1_545 S
C1137 C1134 1.403 . S
C1137 C1138 1.392 . S
C1137 C1141 1.495 . S
C1138 C1137 1.392 . S
C1138 C1139 1.385 . S
C1138 C1140 1.478 . S
C1139 H1133 0.930 . S
C1139 C1135 1.400 . S
C1139 C1138 1.385 . S
C1140 C1138 1.478 . S
C1140 C1142 1.381 . S
C1140 C1146 1.383 . S
C1141 C1137 1.495 . S
C1141 H1147 0.959 . S
C1141 H1148 0.961 . S
C1141 H1149 0.960 . S
C1142 C1140 1.381 . S
C1142 C1143 1.394 . S
C1142 H1150 0.930 . S
C1143 C1142 1.394 . S
C1143 C1144 1.383 . S
C1143 H1151 0.929 . S
C1144 C1143 1.383 . S
C1144 C1145 1.377 . S
C1145 H1129 0.930 . S
C1145 C1144 1.377 . S
C1145 C1146 1.379 . S
C1146 H1130 0.931 . S
C1146 C1140 1.383 . S
C1146 C1145 1.379 . S
H1147 C1141 0.959 . S
H1148 C1141 0.961 . S
H1149 C1141 0.960 . S
H1150 C1142 0.930 . S
H1151 C1143 0.929 . S
C513 C403 1.105 . S
C532 C58 0.940 . S
C549 C487 1.110 . S
C568 C142 0.977 . S
C585 C67 1.104 . S
C604 C226 0.949 . S
C621 C151 1.114 . S
C640 C310 1.018 . S
C657 C235 1.107 . S
C676 C394 0.972 . S
C693 C319 1.118 . S
C712 C478 1.054 . S
C729 C74 1.623 . S
C748 C326 1.608 . S
C765 C410 1.624 . S
C784 C158 1.635 . S
C801 C494 1.627 . S
C820 C242 1.631 . S
C837 C231 1.671 . S
C856 C483 1.651 . S
C873 C63 1.679 . S
C892 C315 1.683 . S
C909 C399 1.681 . S
C928 C147 1.691 . S
C945 C476 1.197 . S
C964 C70 1.221 . S
C981 C154 1.175 . S
C1000 C56 1.205 . S
C1017 C238 1.173 . S
C1036 C140 1.168 . S
C1053 C224 1.201 . S
C1072 C322 1.155 . S
C1089 C406 1.190 . S
C1108 C308 1.223 . S
C1125 C490 1.190 . S
C1144 C392 1.196 . S
