# Generated by pormake.
# Topology sma, (6)-cn, num edge types: 1
# Building blocks:
#     Node 0, Type 0, BuildingBlock: BETFAJ_clean_sbu_0, # of connection points: 6
#     Node 1, Type 0, BuildingBlock: BETFAJ_clean_sbu_0, # of connection points: 6
#     Node 2, Type 0, BuildingBlock: BETFAJ_clean_sbu_0, # of connection points: 6
#     Edge 3, Type (0, 0), BuildingBlock: MIFKUJ_clean_linker_0, # of connection points: 2
#     Edge 4, Type (0, 0), BuildingBlock: MIFKUJ_clean_linker_0, # of connection points: 2
#     Edge 5, Type (0, 0), BuildingBlock: MIFKUJ_clean_linker_0, # of connection points: 2
#     Edge 6, Type (0, 0), BuildingBlock: MIFKUJ_clean_linker_0, # of connection points: 2
#     Edge 7, Type (0, 0), BuildingBlock: MIFKUJ_clean_linker_0, # of connection points: 2
#     Edge 8, Type (0, 0), BuildingBlock: MIFKUJ_clean_linker_0, # of connection points: 2
#     Edge 9, Type (0, 0), BuildingBlock: MIFKUJ_clean_linker_0, # of connection points: 2
#     Edge 10, Type (0, 0), BuildingBlock: MIFKUJ_clean_linker_0, # of connection points: 2
#     Edge 11, Type (0, 0), BuildingBlock: MIFKUJ_clean_linker_0, # of connection points: 2
# Relax obj value: 0.123
# Max RMSD: 0.246
# Mean RMSD: 0.203
data_MOF--net-sma--node1-BETFAJ_clean_sbu_0--edge1-MIFKUJ_clean_linker_0
_symmetry_space_group_name_H-M    P1
_symmetry_Int_Tables_number       1
_symmetry_cell_setting            triclinic
loop_
_symmetry_equiv_pos_as_xyz
'x, y, z'
_cell_length_a     49.358784
_cell_length_b     56.687287
_cell_length_c     17.768618
_cell_angle_alpha  93.624651
_cell_angle_beta   89.310104
_cell_angle_gamma 136.68054
loop_
_atom_site_label
_atom_site_type_symbol
_atom_site_fract_x
_atom_site_fract_y
_atom_site_fract_z
_atom_type_partial_charge
Sm0 Sm 0.09912 0.60542 0.18673 0.0
Sm1 Sm 1.04986 0.61965 0.20442 0.0
C2 C 0.14874 0.60342 0.14303 0.0
C3 C 0.17663 0.60242 0.11826 0.0
C4 C 0.2024 0.6226 0.06078 0.0
C5 C 0.2297 0.6226 0.03877 0.0
C6 C 0.2316 0.60207 0.07307 0.0
C7 C 0.20548 0.58169 0.13042 0.0
C8 C 0.17848 0.58202 0.15301 0.0
C9 C 0.08249 0.60786 0.33352 0.0
C10 C 0.14399 0.68643 0.21656 0.0
C11 C 0.99497 0.61758 0.22853 0.0
C12 C 0.97727 0.6283 0.20225 0.0
C13 C 0.94563 0.61814 0.24088 0.0
C14 C 0.92547 0.6249 0.21434 0.0
C15 C 0.93665 0.64232 0.14853 0.0
C16 C 0.96886 0.65285 0.11015 0.0
C17 C 0.98892 0.64579 0.13667 0.0
C18 C 0.07508 0.62399 0.06333 0.0
C19 C 1.00786 0.54089 0.20342 0.0
O20 O 0.14087 0.61677 0.10364 0.0
O21 O 0.12969 0.59061 0.20512 0.0
O22 O 0.09114 0.62726 0.28453 0.0
O23 O 0.08395 0.58703 0.30629 0.0
O24 O 0.14601 0.66521 0.19152 0.0
O25 O 0.11019 0.67498 0.23502 0.0
O26 O 1.03018 0.64093 0.26259 0.0
O27 O 0.98935 0.59499 0.18385 0.0
O28 O 1.06103 0.60091 0.10655 0.0
O29 O 0.07304 0.64427 0.09155 0.0
O30 O 1.01038 0.56399 0.23671 0.0
O31 O 1.03714 0.55056 0.16449 0.0
H32 H 0.20191 0.63885 0.03344 0.0
H33 H 0.24975 0.63921 -0.0044 0.0
H34 H 0.20549 0.56511 0.15748 0.0
H35 H 0.15893 0.56616 0.1975 0.0
H36 H 0.9358 0.60412 0.2909 0.0
H37 H 0.90033 0.61552 0.24459 0.0
H38 H 0.97861 0.66655 0.05969 0.0
H39 H 1.01309 0.65352 0.10557 0.0
Sm40 Sm 0.60984 0.10793 0.35732 0.0
Sm41 Sm 0.56369 0.12464 0.36009 0.0
C42 C 0.64077 0.08577 0.38464 0.0
C43 C 0.63202 0.05723 0.41585 0.0
C44 C 0.63444 0.05631 0.49423 0.0
C45 C 0.63069 1.03172 0.52312 0.0
C46 C 0.62458 1.0075 0.47445 0.0
C47 C 0.62092 1.00772 0.39617 0.0
C48 C 0.62479 1.03242 0.3672 0.0
C49 C 0.60088 0.12193 0.22127 0.0
C50 C 0.51282 1.04525 0.34027 0.0
C51 C 0.53368 0.14849 0.34966 0.0
C52 C 0.54053 0.17667 0.38722 0.0
C53 C 0.57341 0.21126 0.37196 0.0
C54 C 0.57877 0.23735 0.40679 0.0
C55 C 0.55144 0.22946 0.45764 0.0
C56 C 0.51892 0.19492 0.47361 0.0
C57 C 0.51347 0.16885 0.43861 0.0
C58 C 0.58029 0.11795 0.49988 0.0
C59 C 0.66176 0.18852 0.35708 0.0
O60 O 0.64405 0.10647 0.43212 0.0
O61 O 0.62368 0.07955 0.31945 0.0
O62 O 0.57421 0.10382 0.26775 0.0
O63 O 0.63268 0.13114 0.24318 0.0
O64 O 0.54467 0.05526 0.36974 0.0
O65 O 0.51432 0.06787 0.31783 0.0
O66 O 0.5607 0.15696 0.30547 0.0
O67 O 0.51892 0.12329 0.39077 0.0
O68 O 0.60367 0.13329 0.44749 0.0
O69 O 0.54642 0.10509 0.47869 0.0
O70 O 0.6278 0.17841 0.35042 0.0
O71 O 0.66338 0.16667 0.36693 0.0
H72 H 0.64019 0.07511 0.53347 0.0
H73 H 0.63311 1.03197 0.58373 0.0
H74 H 0.61662 0.98966 0.35706 0.0
H75 H 0.62328 1.0327 0.30654 0.0
H76 H 0.59494 0.21824 0.33287 0.0
H77 H 0.60439 0.26374 0.39392 0.0
H78 H 0.49702 0.18784 0.51169 0.0
H79 H 0.48776 0.14243 0.45126 0.0
Sm80 Sm 0.61398 0.66472 0.88041 0.0
Sm81 Sm 0.56423 0.58723 0.86422 0.0
C82 C 0.66102 0.7308 0.86192 0.0
C83 C 0.65623 0.75133 0.83082 0.0
C84 C 0.64354 0.74566 0.75509 0.0
C85 C 0.6388 0.76504 0.72696 0.0
C86 C 0.64652 0.79053 0.77382 0.0
C87 C 0.65911 0.79607 0.84966 0.0
C88 C 0.66399 0.77676 0.87769 0.0
C89 C 0.57201 0.62961 0.00295 0.0
C90 C 0.52076 0.61106 0.85294 0.0
C91 C 0.51666 0.51998 0.85198 0.0
C92 C 0.52092 0.49774 0.82279 0.0
C93 C 0.53883 0.4922 0.86805 0.0
C94 C 0.54433 0.47247 0.83903 0.0
C95 C 0.53204 0.45778 0.76413 0.0
C96 C 0.51371 0.46296 0.71918 0.0
C97 C 0.50807 0.48258 0.74825 0.0
C98 C 0.60883 0.62503 0.74554 0.0
C99 C 0.6546 0.63911 0.9251 0.0
O100 O 0.65784 0.71024 0.81414 0.0
O101 O 0.64408 0.71703 0.92522 0.0
O102 O 0.58997 0.6256 0.96367 0.0
O103 O 0.57923 0.65534 -0.01706 0.0
O104 O 0.55476 0.64116 0.83318 0.0
O105 O 0.51808 0.58772 0.87596 0.0
O106 O 0.53683 0.53938 0.91465 0.0
O107 O 0.51652 0.53591 0.80193 0.0
O108 O 0.58809 0.62651 0.78184 0.0
O109 O 0.60473 0.60138 0.76839 0.0
O110 O 0.61889 0.60713 0.92295 0.0
O111 O 0.66075 0.66496 0.90569 0.0
H112 H 0.63731 0.72631 0.71725 0.0
H113 H 0.62966 0.76037 0.66803 0.0
H114 H 0.6648 0.8151 0.88778 0.0
H115 H 0.67369 0.78161 0.93632 0.0
H116 H 0.54904 0.50341 0.92575 0.0
H117 H 0.55884 0.4692 0.87495 0.0
H118 H 0.50334 0.45154 0.66163 0.0
H119 H 0.49388 0.48608 0.71204 0.0
H120 H 0.27194 0.59615 0.16059 0.0
H121 H 0.31889 0.59565 0.12046 0.0
H122 H 0.30676 0.60996 0.89239 0.0
H123 H 0.25732 0.60754 0.93066 0.0
H124 H 0.30988 0.56755 0.88383 0.0
H125 H 0.38975 0.67741 0.02237 0.0
H126 H 0.41118 0.71808 0.13075 0.0
H127 H 0.43055 0.67136 0.26803 0.0
H128 H 0.40877 0.63011 0.16068 0.0
H129 H 0.50385 0.64151 0.78439 0.0
H130 H 0.45301 0.63854 0.81894 0.0
H131 H 0.41416 0.56944 -0.0111 0.0
H132 H 0.46363 0.57131 0.95355 0.0
H133 H 0.43866 0.64051 0.02497 0.0
H134 H 0.35298 0.52794 0.8805 0.0
H135 H 0.33659 0.49202 0.76562 0.0
H136 H 0.33408 0.55113 0.63255 0.0
H137 H 0.35106 0.58773 0.7467 0.0
C138 C 0.27868 0.59864 0.10159 0.0
C139 C 0.26074 0.60205 0.04909 0.0
C140 C 0.30618 0.59893 0.07889 0.0
C141 C 0.31721 0.60354 0.00355 0.0
C142 C 0.29907 0.6066 0.95095 0.0
C143 C 0.27106 0.60566 -0.02674 0.0
C144 C 0.34716 0.6047 -0.02097 0.0
C145 C 0.33815 0.58388 0.91454 0.0
C146 C 0.38416 0.6257 0.01895 0.0
C147 C 0.39723 0.65044 0.08367 0.0
C148 C 0.3983 0.67564 0.07582 0.0
C149 C 0.41056 0.69882 0.13705 0.0
C150 C 0.42211 0.69724 0.20629 0.0
C151 C 0.42153 0.67252 0.21439 0.0
C152 C 0.40927 0.64925 0.15336 0.0
C153 C 0.48396 0.62522 0.82812 0.0
C154 C 0.48745 0.60636 0.86563 0.0
C155 C 0.45516 0.62368 0.84799 0.0
C156 C 0.4301 0.60387 0.9066 0.0
C157 C 0.43326 0.58482 0.94351 0.0
C158 C 0.46131 0.58569 0.92261 0.0
C159 C 0.40099 0.60348 0.93069 0.0
C160 C 0.41029 0.62438 -0.00519 0.0
C161 C 0.36463 0.5831 0.89 0.0
C162 C 0.3537 0.56076 0.82182 0.0
C163 C 0.34927 0.53345 0.82662 0.0
C164 C 0.3398 0.51293 0.7617 0.0
C165 C 0.33442 0.51936 0.69178 0.0
C166 C 0.33833 0.54622 0.68672 0.0
C167 C 0.34784 0.56683 0.7515 0.0
H168 H 0.32712 0.50347 0.64156 0.0
H169 H 0.4316 0.71522 0.25361 0.0
H170 H 0.67545 0.24467 0.37817 0.0
H171 H 0.73469 0.30378 0.34929 0.0
H172 H 0.78936 0.27286 0.27417 0.0
H173 H 0.73088 0.21406 0.30654 0.0
H174 H 0.8414 0.33124 0.35136 0.0
H175 H 0.75474 0.29504 0.13251 0.0
H176 H 0.69455 0.27154 0.06622 0.0
H177 H 0.6998 0.33886 0.20887 0.0
H178 H 0.76108 0.36399 0.27334 0.0
H179 H 0.99619 0.48602 0.16695 0.0
H180 H 0.93841 0.42556 0.19203 0.0
H181 H 0.88287 0.45223 0.29324 0.0
H182 H 0.93994 0.51227 0.26802 0.0
H183 H 0.83209 0.39543 0.198 0.0
H184 H 0.9247 0.43732 0.40187 0.0
H185 H 0.98787 0.46405 0.45975 0.0
H186 H 0.9713 0.38488 0.34613 0.0
H187 H 0.90825 0.35793 0.28675 0.0
C188 C 0.70027 0.25058 0.35615 0.0
C189 C 0.69868 0.22482 0.34532 0.0
C190 C 0.73395 0.2843 0.33858 0.0
C191 C 0.7663 0.29277 0.30774 0.0
C192 C 0.76486 0.26707 0.29776 0.0
C193 C 0.73149 0.23349 0.31672 0.0
C194 C 0.80209 0.32859 0.28829 0.0
C195 C 0.83937 0.34503 0.31667 0.0
C196 C 0.79968 0.34708 0.24454 0.0
C197 C 0.76206 0.33101 0.20824 0.0
C198 C 0.74282 0.30459 0.15003 0.0
C199 C 0.70865 0.2911 0.11263 0.0
C200 C 0.693 0.30325 0.13421 0.0
C201 C 0.71183 0.32934 0.19246 0.0
C202 C 0.74647 0.34346 0.22892 0.0
C203 C 0.97159 0.47895 0.19423 0.0
C204 C 0.97272 0.50401 0.21547 0.0
C205 C 0.93872 0.44445 0.209 0.0
C206 C 0.90647 0.43444 0.24515 0.0
C207 C 0.9074 0.45934 0.26539 0.0
C208 C 0.94017 0.49372 0.25099 0.0
C209 C 0.87127 0.39798 0.261 0.0
C210 C 0.83413 0.3815 0.23208 0.0
C211 C 0.87394 0.37951 0.30399 0.0
C212 C 0.91199 0.39585 0.33916 0.0
C213 C 0.93472 0.42581 0.38863 0.0
C214 C 0.97046 0.44096 0.42185 0.0
C215 C 0.98365 0.42624 0.40644 0.0
C216 C 0.96109 0.3963 0.3579 0.0
C217 C 0.92534 0.38107 0.32448 0.0
H218 H 1.01131 0.43798 0.43228 0.0
H219 H 0.66646 0.29264 0.10536 0.0
H220 H 0.6733 1.02182 0.58633 0.0
H221 H 0.67413 0.98302 0.63496 0.0
H222 H 0.57689 0.90014 0.47961 0.0
H223 H 0.57524 0.93875 0.43167 0.0
H224 H 0.56756 0.87879 0.62124 0.0
H225 H 0.66895 0.94121 0.44212 0.0
H226 H 0.72837 0.99309 0.38395 0.0
H227 H 0.79686 1.02885 0.59085 0.0
H228 H 0.73769 0.9774 0.65063 0.0
H229 H 0.58934 0.76936 0.6725 0.0
H230 H 0.58359 0.80439 0.61968 0.0
H231 H 0.68653 0.89392 0.75529 0.0
H232 H 0.69364 0.85949 0.80556 0.0
H233 H 0.69124 0.91026 0.6177 0.0
H234 H 0.59011 0.84923 0.79857 0.0
H235 H 0.53072 0.79817 0.85868 0.0
H236 H 0.46188 0.76039 0.65119 0.0
H237 H 0.52102 0.81101 0.58952 0.0
C238 C 0.65172 0.99523 0.56307 0.0
C239 C 0.62416 0.98339 0.50511 0.0
C240 C 0.65249 0.97315 0.59047 0.0
C241 C 0.62589 0.93877 0.56032 0.0
C242 C 0.5978 0.92661 0.50349 0.0
C243 C 0.59708 0.94876 0.47581 0.0
C244 C 0.62781 0.91578 0.58792 0.0
C245 C 0.5944 0.88536 0.61947 0.0
C246 C 0.66308 0.92473 0.58701 0.0
C247 C 0.69879 0.95558 0.55104 0.0
C248 C 0.69661 0.96026 0.47539 0.0
C249 C 0.73026 0.98957 0.4421 0.0
C250 C 0.76635 1.01429 0.48373 0.0
C251 C 0.76888 1.0097 0.55869 0.0
C252 C 0.7353 0.98045 0.59228 0.0
C253 C 0.61099 0.79657 0.6907 0.0
C254 C 0.64199 0.81153 0.74344 0.0
C255 C 0.60736 0.81651 0.66106 0.0
C256 C 0.63434 0.85178 0.6841 0.0
C257 C 0.66525 0.86676 0.73674 0.0
C258 C 0.66904 0.8469 0.76607 0.0
C259 C 0.63111 0.87337 0.65212 0.0
C260 C 0.66431 0.90354 0.61943 0.0
C261 C 0.59566 0.86422 0.65227 0.0
C262 C 0.5601 0.83373 0.68921 0.0
C263 C 0.56239 0.82989 0.76558 0.0
C264 C 0.52875 0.80105 0.79996 0.0
C265 C 0.49258 0.776 0.75872 0.0
C266 C 0.48994 0.77978 0.68303 0.0
C267 C 0.5235 0.80855 0.64835 0.0
H268 H 0.46657 0.7537 0.78545 0.0
H269 H 0.79237 1.03696 0.45786 0.0
H270 H 0.64973 0.5938 -0.01148 0.0
H271 H 0.70269 0.60042 0.02052 0.0
H272 H 0.78847 0.70381 0.94886 0.0
H273 H 0.73495 0.69741 0.9165 0.0
H274 H 0.75241 0.60941 0.93203 0.0
H275 H 0.87509 0.75078 0.05826 0.0
H276 H 0.88144 0.79386 0.12762 0.0
H277 H 0.76726 0.71271 0.2171 0.0
H278 H 0.76045 0.6692 0.14895 0.0
H279 H 0.91844 0.64114 0.00088 0.0
H280 H 0.87757 0.64753 0.95615 0.0
H281 H 0.86003 0.66129 0.18661 0.0
H282 H 0.90321 0.65776 0.23137 0.0
H283 H 0.86534 0.70063 0.11335 0.0
H284 H 0.7905 0.58085 0.06777 0.0
H285 H 0.77487 0.53062 0.01422 0.0
H286 H 0.78039 0.55762 0.78993 0.0
H287 H 0.79654 0.60826 0.84219 0.0
C288 C 0.67979 0.61809 -0.02057 0.0
C289 C 0.68799 0.64503 0.94922 0.0
C290 C 0.71011 0.62176 -0.00228 0.0
C291 C 0.74957 0.65246 -0.01338 0.0
C292 C 0.7582 0.67986 0.95811 0.0
C293 C 0.72763 0.6762 0.93965 0.0
C294 C 0.78106 0.655 0.00428 0.0
C295 C 0.77734 0.62954 -0.02881 0.0
C296 C 0.81316 0.68084 0.0563 0.0
C297 C 0.81706 0.7068 0.09763 0.0
C298 C 0.85137 0.74217 0.09276 0.0
C299 C 0.85504 0.76664 0.13185 0.0
C300 C 0.82466 0.75601 0.17637 0.0
C301 C 0.79063 0.72089 0.18217 0.0
C302 C 0.78683 0.69633 0.14322 0.0
C303 C 0.90663 0.64628 0.04212 0.0
C304 C 0.91389 0.64845 0.12002 0.0
C305 C 0.88269 0.64944 0.01637 0.0
C306 C 0.86479 0.65414 0.06785 0.0
C307 C 0.87316 0.6575 0.14541 0.0
C308 C 0.89756 0.65497 0.17108 0.0
C309 C 0.83647 0.6546 0.04204 0.0
C310 C 0.84084 0.68075 0.07324 0.0
C311 C 0.80402 0.62855 -0.00968 0.0
C312 C 0.79532 0.59862 0.95891 0.0
C313 C 0.78881 0.57628 0.00705 0.0
C314 C 0.77976 0.54769 -0.02307 0.0
C315 C 0.77679 0.54101 0.89873 0.0
C316 C 0.78283 0.56289 0.85048 0.0
C317 C 0.79195 0.59154 0.88032 0.0
H318 H 0.76969 0.51882 0.87553 0.0
H319 H 0.82757 0.77499 0.2066 0.0
H320 H 0.43842 1.01629 0.32986 0.0
H321 H 0.37582 0.95493 0.30966 0.0
H322 H 0.43923 0.92915 0.30341 0.0
H323 H 0.50201 0.99046 0.32628 0.0
H324 H 0.36277 0.904 0.17339 0.0
H325 H 0.40748 0.8957 0.41514 0.0
H326 H 0.43533 0.91823 0.54618 0.0
H327 H 0.34646 0.91353 0.59973 0.0
H328 H 0.31865 0.89162 0.46836 0.0
H329 H 0.21488 0.72113 0.15599 0.0
H330 H 0.27699 0.78234 0.17803 0.0
H331 H 0.21968 0.79729 0.32534 0.0
H332 H 0.15722 0.73591 0.30359 0.0
H333 H 0.29257 0.82872 0.38572 0.0
H334 H 0.2383 0.82395 0.15747 0.0
H335 H 0.20749 0.80075 0.02863 0.0
H336 H 0.31083 0.83085 0.94825 0.0
H337 H 0.342 0.85369 0.07704 0.0
C338 C 0.43903 0.99755 0.32465 0.0
C339 C 0.47508 1.00813 0.33004 0.0
C340 C 0.40329 0.96257 0.31308 0.0
C341 C 0.40301 0.93764 0.30572 0.0
C342 C 0.4389 0.94806 0.31014 0.0
C343 C 0.47467 0.98303 0.32321 0.0
C344 C 0.36504 0.90074 0.29283 0.0
C345 C 0.34761 0.88733 0.21944 0.0
C346 C 0.34483 0.87948 0.35334 0.0
C347 C 0.3615 0.89267 0.4319 0.0
C348 C 0.39427 0.89996 0.45464 0.0
C349 C 0.40996 0.9125 0.52897 0.0
C350 C 0.39279 0.91747 0.58118 0.0
C351 C 0.35984 0.90982 0.55916 0.0
C352 C 0.34414 0.89739 0.48478 0.0
C353 C 0.21543 0.73741 0.19305 0.0
C354 C 0.18112 0.72371 0.22796 0.0
C355 C 0.25093 0.77239 0.20541 0.0
C356 C 0.25286 0.79433 0.25308 0.0
C357 C 0.21876 0.78074 0.28838 0.0
C358 C 0.18308 0.74576 0.27547 0.0
C359 C 0.2906 0.83147 0.26572 0.0
C360 C 0.30777 0.84514 0.33925 0.0
C361 C 0.31044 0.85295 0.20514 0.0
C362 C 0.29236 0.84026 0.1271 0.0
C363 C 0.25438 0.82545 0.11242 0.0
C364 C 0.23684 0.81236 0.03939 0.0
C365 C 0.25714 0.81422 -0.01969 0.0
C366 C 0.29512 0.82937 -0.00589 0.0
C367 C 0.31276 0.84243 0.06712 0.0
H368 H 0.24347 0.80399 0.92384 0.0
H369 H 0.40492 0.92712 0.63875 0.0
H370 H 0.55756 0.45919 0.625 0.0
H371 H 0.56587 0.42383 0.57324 0.0
H372 H 0.52856 0.37397 0.78117 0.0
H373 H 0.52038 0.40934 0.83333 0.0
H374 H 0.59028 0.38849 0.73155 0.0
H375 H 0.46584 0.33559 0.62292 0.0
H376 H 0.42151 0.33357 0.5518 0.0
H377 H 0.48838 0.36253 0.35454 0.0
H378 H 0.53352 0.36528 0.42487 0.0
H379 H 0.53851 0.23767 0.60294 0.0
H380 H 0.54047 0.27989 0.65501 0.0
H381 H 0.57688 0.32576 0.44187 0.0
H382 H 0.57355 0.28286 0.38863 0.0
H383 H 0.51872 0.31563 0.49174 0.0
H384 H 0.64145 0.36591 0.59834 0.0
H385 H 0.68559 0.36765 0.66913 0.0
H386 H 0.62222 0.34343 0.86941 0.0
H387 H 0.57728 0.34102 0.79953 0.0
C388 C 0.55092 0.44055 0.65954 0.0
C389 C 0.53805 0.43691 0.73313 0.0
C390 C 0.55575 0.4204 0.62993 0.0
C391 C 0.54735 0.3959 0.67295 0.0
C392 C 0.53526 0.39271 0.74693 0.0
C393 C 0.53064 0.41298 0.77672 0.0
C394 C 0.55048 0.37315 0.64064 0.0
C395 C 0.57431 0.37227 0.67951 0.0
C396 C 0.53044 0.35263 0.57173 0.0
C397 C 0.50332 0.35102 0.52944 0.0
C398 C 0.47131 0.34183 0.56458 0.0
C399 C 0.446 0.34051 0.52438 0.0
C400 C 0.45219 0.34802 0.44877 0.0
C401 C 0.48367 0.3568 0.41316 0.0
C402 C 0.50911 0.35823 0.45316 0.0
C403 C 0.54692 0.25674 0.56713 0.0
C404 C 0.55577 0.25681 0.49151 0.0
C405 C 0.54844 0.28111 0.59723 0.0
C406 C 0.55915 0.30623 0.55256 0.0
C407 C 0.56864 0.3067 0.47748 0.0
C408 C 0.56706 0.28232 0.44731 0.0
C409 C 0.5584 0.33081 0.58276 0.0
C410 C 0.53493 0.33199 0.54352 0.0
C411 C 0.57877 0.35157 0.65128 0.0
C412 C 0.60574 0.35296 0.69344 0.0
C413 C 0.63669 0.36065 0.6573 0.0
C414 C 0.6619 0.36181 0.6973 0.0
C415 C 0.65665 0.35557 0.77366 0.0
C416 C 0.62622 0.34822 0.81023 0.0
C417 C 0.60088 0.34698 0.77046 0.0
H418 H 0.67622 0.3565 0.80455 0.0
H419 H 0.43255 0.34695 0.41772 0.0
H420 H 0.14561 0.68883 0.03956 0.0
H421 H 0.18337 0.70671 0.92617 0.0
H422 H 0.10281 0.59993 0.84276 0.0
H423 H 1.0665 0.58201 0.95818 0.0
H424 H 0.17652 0.64454 0.77166 0.0
H425 H 1.0674 0.63649 0.83097 0.0
H426 H 1.04802 0.65661 0.92122 0.0
H427 H 0.16 0.76166 0.90174 0.0
H428 H 0.17998 0.74201 0.81171 0.0
H429 H 1.06293 0.56967 0.44899 0.0
H430 H 0.08756 0.59106 0.58037 0.0
H431 H 0.14646 0.69261 0.52971 0.0
H432 H 0.12049 0.67096 0.39872 0.0
H433 H 0.11697 0.6784 0.66519 0.0
H434 H 0.20085 0.67796 0.54296 0.0
H435 H 0.21714 0.65492 0.45436 0.0
H436 H 0.16059 0.57092 0.5922 0.0
H437 H 0.14322 0.59303 0.68097 0.0
C438 C 0.13691 0.66924 -0.00202 0.0
C439 C 0.10227 0.63415 0.00485 0.0
C440 C 0.15883 0.67945 0.93399 0.0
C441 C 0.14491 0.65468 0.87516 0.0
C442 C 0.11376 0.61947 0.88733 0.0
C443 C 0.09257 0.60921 0.95244 0.0
C444 C 0.15248 0.66392 0.79638 0.0
C445 C 0.16459 0.65281 0.74794 0.0
C446 C 0.13814 0.67588 0.76584 0.0
C447 C 0.12498 0.68786 0.81454 0.0
C448 C 0.08757 0.66388 0.84529 0.0
C449 C 0.07661 0.67518 0.89667 0.0
C450 C 0.10273 0.7104 0.91707 0.0
C451 C 0.13977 0.73441 0.88574 0.0
C452 C 0.15089 0.72323 0.83443 0.0
C453 C 0.08044 0.59634 0.4664 0.0
C454 C 0.09031 0.61879 0.41409 0.0
C455 C 0.09488 0.60865 0.54095 0.0
C456 C 0.12015 0.64373 0.56356 0.0
C457 C 0.12762 0.66563 0.51273 0.0
C458 C 0.1126 0.65317 0.43825 0.0
C459 C 0.13883 0.65704 0.64035 0.0
C460 C 0.13144 0.67229 0.68795 0.0
C461 C 0.15856 0.6498 0.66955 0.0
C462 C 0.17081 0.63726 0.61888 0.0
C463 C 0.19192 0.65459 0.55452 0.0
C464 C 0.20125 0.64164 0.50411 0.0
C465 C 0.18994 0.61149 0.51768 0.0
C466 C 0.16943 0.59433 0.58189 0.0
C467 C 0.15991 0.60712 0.63243 0.0
H468 H 0.19706 0.60142 0.47842 0.0
H469 H 0.0943 0.71908 0.95725 0.0
H470 H 0.54403 0.09306 0.11207 0.0
H471 H 0.55277 0.12031 -0.00087 0.0
H472 H 0.66507 0.21792 0.09419 0.0
H473 H 0.65831 0.19014 0.20212 0.0
H474 H 0.57468 0.17671 0.93761 0.0
H475 H 0.72529 0.24931 -0.019 0.0
H476 H 0.77058 0.25899 0.07204 0.0
H477 H 0.68965 0.14953 0.07661 0.0
H478 H 0.6439 0.13935 -0.0142 0.0
H479 H 0.65523 0.17539 0.55681 0.0
H480 H 0.67367 0.20127 0.68708 0.0
H481 H 0.55501 0.11209 0.75102 0.0
H482 H 0.5362 0.08673 0.62108 0.0
H483 H 0.67342 0.1842 0.82643 0.0
H484 H 0.51854 0.13367 0.84361 0.0
H485 H 0.47457 0.12705 0.75633 0.0
H486 H 0.57302 0.20479 0.62412 0.0
H487 H 0.61777 0.21237 0.71121 0.0
C488 C 0.57007 0.1205 0.10918 0.0
C489 C 0.60105 0.1394 0.164 0.0
C490 C 0.57482 0.13622 0.04542 0.0
C491 C 0.61018 0.17106 0.03743 0.0
C492 C 0.63801 0.191 0.09839 0.0
C493 C 0.63417 0.175 0.1601 0.0
C494 C 0.62202 0.18241 0.96029 0.0
C495 C 0.59689 0.17932 0.91302 0.0
C496 C 0.65262 0.18791 0.92863 0.0
C497 C 0.68156 0.19363 -0.02368 0.0
C498 C 0.71761 0.22739 0.00044 0.0
C499 C 0.74317 0.23294 0.05239 0.0
C500 C 0.73306 0.20489 0.07989 0.0
C501 C 0.69752 0.17122 0.055 0.0
C502 C 0.67182 0.16553 0.00319 0.0
C503 C 0.63339 0.16105 0.59923 0.0
C504 C 0.59411 0.12931 0.57931 0.0
C505 C 0.64392 0.17597 0.67323 0.0
C506 C 0.61528 0.15912 0.72754 0.0
C507 C 0.57713 0.12599 0.70896 0.0
C508 C 0.5665 0.11133 0.63518 0.0
C509 C 0.62394 0.1757 0.80377 0.0
C510 C 0.65293 0.184 0.85037 0.0
C511 C 0.59834 0.17693 0.83435 0.0
C512 C 0.57159 0.17363 0.7843 0.0
C513 C 0.53097 0.14974 0.79664 0.0
C514 C 0.50586 0.14571 0.74693 0.0
C515 C 0.521 0.16549 0.68474 0.0
C516 C 0.56133 0.18948 0.67229 0.0
C517 C 0.58657 0.19364 0.72183 0.0
H518 H 0.50148 0.16221 0.64617 0.0
H519 H 0.75269 0.20924 0.12065 0.0
H520 H 0.61509 0.67166 0.6874 0.0
H521 H 0.61846 0.68012 0.55391 0.0
H522 H 0.63997 0.6194 0.50719 0.0
H523 H 0.63837 0.61206 0.64168 0.0
H524 H 0.66373 0.66884 0.38993 0.0
H525 H 0.5504 0.56946 0.53012 0.0
H526 H 0.51363 0.55014 0.64677 0.0
H527 H 0.49243 0.61 0.61194 0.0
H528 H 0.52943 0.62988 0.49529 0.0
H529 H 0.56438 0.58208 0.06114 0.0
H530 H 0.56286 0.57523 0.19555 0.0
H531 H 0.54176 0.63631 0.24116 0.0
H532 H 0.54303 0.64319 0.10647 0.0
H533 H 0.5179 0.58704 0.35903 0.0
H534 H 0.62931 0.68611 0.22096 0.0
H535 H 0.66923 0.70945 0.10824 0.0
H536 H 0.69568 0.65337 0.14062 0.0
H537 H 0.65554 0.62944 0.25326 0.0
C538 C 0.62304 0.66198 0.64943 0.0
C539 C 0.62517 0.64029 0.67374 0.0
C540 C 0.62516 0.66699 0.57324 0.0
C541 C 0.62821 0.64943 0.52145 0.0
C542 C 0.63727 0.63284 0.54696 0.0
C543 C 0.63584 0.62831 0.62355 0.0
C544 C 0.60914 0.63864 0.44625 0.0
C545 C 0.63195 0.65085 0.38296 0.0
C546 C 0.56761 0.61524 0.43802 0.0
C547 C 0.54257 0.60109 0.50423 0.0
C548 C 0.53764 0.57828 0.54717 0.0
C549 C 0.51688 0.56733 0.61335 0.0
C550 C 0.5007 0.57884 0.63677 0.0
C551 C 0.50493 0.60107 0.59365 0.0
C552 C 0.52568 0.61211 0.5274 0.0
C553 C 0.55748 0.59262 0.09941 0.0
C554 C 0.55578 0.61457 0.07491 0.0
C555 C 0.5562 0.58836 0.17594 0.0
C556 C 0.55344 0.60622 0.22742 0.0
C557 C 0.5443 0.6227 0.20162 0.0
C558 C 0.54553 0.62695 0.12495 0.0
C559 C 0.57249 0.6171 0.30264 0.0
C560 C 0.54967 0.60491 0.36595 0.0
C561 C 0.61405 0.6407 0.31092 0.0
C562 C 0.63938 0.65594 0.24513 0.0
C563 C 0.64363 0.67876 0.20392 0.0
C564 C 0.66628 0.69208 0.14013 0.0
C565 C 0.68511 0.68301 0.11751 0.0
C566 C 0.68121 0.66047 0.15845 0.0
C567 C 0.65857 0.64707 0.22233 0.0
H568 H 0.70282 0.69354 0.06841 0.0
H569 H 0.48489 0.57054 0.6883 0.0
loop_
_geom_bond_atom_site_label_1
_geom_bond_atom_site_label_2
_geom_bond_distance
_geom_bond_site_symmetry_2
_ccdc_geom_bond_type
Sm0 C2 2.846 . S
Sm0 O20 2.543 . S
Sm0 O21 2.450 . S
Sm0 O22 2.681 . S
Sm0 O23 2.464 . S
Sm0 O24 2.396 . S
Sm0 O28 2.386 . S
Sm0 O31 2.408 1_455 S
Sm1 C11 2.846 1_455 S
Sm1 O22 2.386 . S
Sm1 O25 2.408 . S
Sm1 O26 2.543 1_455 S
Sm1 O27 2.450 1_455 S
Sm1 O28 2.681 . S
Sm1 O29 2.464 . S
Sm1 O30 2.396 1_455 S
C2 Sm0 2.846 . S
C2 C3 1.506 . S
C2 O20 1.261 . S
C2 O21 1.242 . S
C3 C2 1.506 . S
C3 C4 1.358 . S
C3 C8 1.382 . S
C4 C3 1.358 . S
C4 C5 1.385 . S
C4 H32 0.930 . S
C5 C4 1.385 . S
C5 C6 1.395 . S
C5 H33 0.929 . S
C6 C5 1.395 . S
C6 C7 1.335 . S
C7 C6 1.335 . S
C7 C8 1.398 . S
C7 H34 0.930 . S
C8 C3 1.382 . S
C8 C7 1.398 . S
C8 H35 0.929 . S
C9 O22 1.271 . S
C9 O23 1.251 . S
C10 O24 1.252 . S
C10 O25 1.272 . S
C11 Sm1 2.846 1_655 S
C11 C12 1.506 . S
C11 O26 1.261 . S
C11 O27 1.242 . S
C12 C11 1.506 . S
C12 C13 1.358 . S
C12 C17 1.382 . S
C13 C12 1.358 . S
C13 C14 1.385 . S
C13 H36 0.930 . S
C14 C13 1.385 . S
C14 C15 1.395 . S
C14 H37 0.929 . S
C15 C14 1.395 . S
C15 C16 1.335 . S
C16 C15 1.335 . S
C16 C17 1.398 . S
C16 H38 0.930 . S
C17 C12 1.382 . S
C17 C16 1.398 . S
C17 H39 0.929 . S
C18 O28 1.271 . S
C18 O29 1.251 . S
C19 O30 1.252 . S
C19 O31 1.272 . S
O20 Sm0 2.543 . S
O20 C2 1.261 . S
O21 Sm0 2.450 . S
O21 C2 1.242 . S
O22 Sm0 2.681 . S
O22 Sm1 2.386 . S
O22 C9 1.271 . S
O23 Sm0 2.464 . S
O23 C9 1.251 . S
O24 Sm0 2.396 . S
O24 C10 1.252 . S
O25 Sm1 2.408 . S
O25 C10 1.272 . S
O26 Sm1 2.543 1_655 S
O26 C11 1.261 . S
O27 Sm1 2.450 1_655 S
O27 C11 1.242 . S
O28 Sm0 2.386 . S
O28 Sm1 2.681 . S
O28 C18 1.271 . S
O29 Sm1 2.464 . S
O29 C18 1.251 . S
O30 Sm1 2.396 1_655 S
O30 C19 1.252 . S
O31 Sm0 2.408 1_655 S
O31 C19 1.272 . S
H32 C4 0.930 . S
H33 C5 0.929 . S
H34 C7 0.930 . S
H35 C8 0.929 . S
H36 C13 0.930 . S
H37 C14 0.929 . S
H38 C16 0.930 . S
H39 C17 0.929 . S
Sm40 C42 2.846 . S
Sm40 O60 2.543 . S
Sm40 O61 2.450 . S
Sm40 O62 2.681 . S
Sm40 O63 2.464 . S
Sm40 O64 2.396 . S
Sm40 O68 2.386 . S
Sm40 O71 2.408 . S
Sm41 C51 2.846 . S
Sm41 O62 2.386 . S
Sm41 O65 2.408 . S
Sm41 O66 2.543 . S
Sm41 O67 2.450 . S
Sm41 O68 2.681 . S
Sm41 O69 2.464 . S
Sm41 O70 2.396 . S
C42 Sm40 2.846 . S
C42 C43 1.506 1_545 S
C42 O60 1.261 . S
C42 O61 1.242 . S
C43 C42 1.506 1_565 S
C43 C44 1.358 . S
C43 C48 1.382 . S
C44 C43 1.358 . S
C44 C45 1.385 . S
C44 H72 0.930 . S
C45 C44 1.385 . S
C45 C46 1.395 . S
C45 H73 0.929 . S
C46 C45 1.395 . S
C46 C47 1.335 . S
C47 C46 1.335 . S
C47 C48 1.398 . S
C47 H74 0.930 . S
C48 C43 1.382 . S
C48 C47 1.398 . S
C48 H75 0.929 . S
C49 O62 1.271 . S
C49 O63 1.251 . S
C50 O64 1.252 . S
C50 O65 1.272 . S
C51 Sm41 2.846 . S
C51 C52 1.506 . S
C51 O66 1.261 . S
C51 O67 1.242 . S
C52 C51 1.506 . S
C52 C53 1.358 . S
C52 C57 1.382 . S
C53 C52 1.358 . S
C53 C54 1.385 . S
C53 H76 0.930 . S
C54 C53 1.385 . S
C54 C55 1.395 . S
C54 H77 0.929 . S
C55 C54 1.395 . S
C55 C56 1.335 . S
C56 C55 1.335 . S
C56 C57 1.398 . S
C56 H78 0.930 . S
C57 C52 1.382 . S
C57 C56 1.398 . S
C57 H79 0.929 . S
C58 O68 1.271 . S
C58 O69 1.251 . S
C59 O70 1.252 . S
C59 O71 1.272 . S
O60 Sm40 2.543 . S
O60 C42 1.261 . S
O61 Sm40 2.450 . S
O61 C42 1.242 . S
O62 Sm40 2.681 . S
O62 Sm41 2.386 . S
O62 C49 1.271 . S
O63 Sm40 2.464 . S
O63 C49 1.251 . S
O64 Sm40 2.396 . S
O64 C50 1.252 . S
O65 Sm41 2.408 . S
O65 C50 1.272 . S
O66 Sm41 2.543 . S
O66 C51 1.261 . S
O67 Sm41 2.450 . S
O67 C51 1.242 . S
O68 Sm40 2.386 . S
O68 Sm41 2.681 . S
O68 C58 1.271 . S
O69 Sm41 2.464 . S
O69 C58 1.251 . S
O70 Sm41 2.396 . S
O70 C59 1.252 . S
O71 Sm40 2.408 . S
O71 C59 1.272 . S
H72 C44 0.930 . S
H73 C45 0.929 . S
H74 C47 0.930 . S
H75 C48 0.929 . S
H76 C53 0.930 . S
H77 C54 0.929 . S
H78 C56 0.930 . S
H79 C57 0.929 . S
Sm80 C82 2.846 . S
Sm80 O100 2.543 . S
Sm80 O101 2.450 . S
Sm80 O102 2.681 . S
Sm80 O103 2.464 1_556 S
Sm80 O104 2.396 . S
Sm80 O108 2.386 . S
Sm80 O111 2.408 . S
Sm81 C91 2.846 . S
Sm81 O102 2.386 . S
Sm81 O105 2.408 . S
Sm81 O106 2.543 . S
Sm81 O107 2.450 . S
Sm81 O108 2.681 . S
Sm81 O109 2.464 . S
Sm81 O110 2.396 . S
C82 Sm80 2.846 . S
C82 C83 1.506 . S
C82 O100 1.261 . S
C82 O101 1.242 . S
C83 C82 1.506 . S
C83 C84 1.358 . S
C83 C88 1.382 . S
C84 C83 1.358 . S
C84 C85 1.385 . S
C84 H112 0.930 . S
C85 C84 1.385 . S
C85 C86 1.395 . S
C85 H113 0.929 . S
C86 C85 1.395 . S
C86 C87 1.335 . S
C87 C86 1.335 . S
C87 C88 1.398 . S
C87 H114 0.930 . S
C88 C83 1.382 . S
C88 C87 1.398 . S
C88 H115 0.929 . S
C89 O102 1.271 1_554 S
C89 O103 1.251 . S
C90 O104 1.252 . S
C90 O105 1.272 . S
C91 Sm81 2.846 . S
C91 C92 1.506 . S
C91 O106 1.261 . S
C91 O107 1.242 . S
C92 C91 1.506 . S
C92 C93 1.358 . S
C92 C97 1.382 . S
C93 C92 1.358 . S
C93 C94 1.385 . S
C93 H116 0.930 . S
C94 C93 1.385 . S
C94 C95 1.395 . S
C94 H117 0.929 . S
C95 C94 1.395 . S
C95 C96 1.335 . S
C96 C95 1.335 . S
C96 C97 1.398 . S
C96 H118 0.930 . S
C97 C92 1.382 . S
C97 C96 1.398 . S
C97 H119 0.929 . S
C98 O108 1.271 . S
C98 O109 1.251 . S
C99 O110 1.252 . S
C99 O111 1.272 . S
O100 Sm80 2.543 . S
O100 C82 1.261 . S
O101 Sm80 2.450 . S
O101 C82 1.242 . S
O102 Sm80 2.681 . S
O102 Sm81 2.386 . S
O102 C89 1.271 1_556 S
O103 Sm80 2.464 1_554 S
O103 C89 1.251 . S
O104 Sm80 2.396 . S
O104 C90 1.252 . S
O105 Sm81 2.408 . S
O105 C90 1.272 . S
O106 Sm81 2.543 . S
O106 C91 1.261 . S
O107 Sm81 2.450 . S
O107 C91 1.242 . S
O108 Sm80 2.386 . S
O108 Sm81 2.681 . S
O108 C98 1.271 . S
O109 Sm81 2.464 . S
O109 C98 1.251 . S
O110 Sm81 2.396 . S
O110 C99 1.252 . S
O111 Sm80 2.408 . S
O111 C99 1.272 . S
H112 C84 0.930 . S
H113 C85 0.929 . S
H114 C87 0.930 . S
H115 C88 0.929 . S
H116 C93 0.930 . S
H117 C94 0.929 . S
H118 C96 0.930 . S
H119 C97 0.929 . S
H120 C138 0.951 . S
H121 C140 0.951 . S
H122 C142 0.950 1_556 S
H123 C143 0.950 1_556 S
H124 C145 0.950 . S
H125 C148 0.950 . S
H126 C149 0.950 . S
H127 C151 0.950 . S
H128 C152 0.950 . S
H129 C153 0.951 . S
H130 C155 0.951 . S
H131 C157 0.950 1_554 S
H132 C158 0.950 . S
H133 C160 0.950 . S
H134 C163 0.950 . S
H135 C164 0.950 . S
H136 C166 0.950 . S
H137 C167 0.950 . S
C138 H120 0.951 . S
C138 C139 1.366 . S
C138 C140 1.388 . S
C139 C138 1.366 . S
C139 C143 1.385 . S
C140 H121 0.951 . S
C140 C138 1.388 . S
C140 C141 1.366 . S
C141 C140 1.366 . S
C141 C142 1.414 . S
C141 C144 1.499 . S
C142 H122 0.950 1_554 S
C142 C141 1.414 . S
C142 C143 1.374 . S
C143 H123 0.950 1_554 S
C143 C139 1.385 . S
C143 C142 1.374 . S
C144 C141 1.499 . S
C144 C145 1.373 1_554 S
C144 C146 1.389 . S
C145 H124 0.950 . S
C145 C144 1.373 1_556 S
C145 C161 1.377 . S
C146 C144 1.389 . S
C146 C147 1.524 . S
C146 C160 1.377 . S
C147 C146 1.524 . S
C147 C148 1.397 . S
C147 C152 1.363 . S
C148 H125 0.950 . S
C148 C147 1.397 . S
C148 C149 1.334 . S
C149 H126 0.950 . S
C149 C148 1.334 . S
C149 C150 1.287 . S
C150 C149 1.287 . S
C150 C151 1.524 . S
C150 H169 0.913 . S
C151 H127 0.950 . S
C151 C150 1.524 . S
C151 C152 1.415 . S
C152 H128 0.950 . S
C152 C147 1.363 . S
C152 C151 1.415 . S
C153 H129 0.951 . S
C153 C154 1.366 . S
C153 C155 1.388 . S
C154 C153 1.366 . S
C154 C158 1.385 . S
C155 H130 0.951 . S
C155 C153 1.388 . S
C155 C156 1.366 . S
C156 C155 1.366 . S
C156 C157 1.414 . S
C156 C159 1.499 . S
C157 H131 0.950 1_556 S
C157 C156 1.414 . S
C157 C158 1.374 . S
C158 H132 0.950 . S
C158 C154 1.385 . S
C158 C157 1.374 . S
C159 C156 1.499 . S
C159 C160 1.373 1_556 S
C159 C161 1.389 . S
C160 H133 0.950 . S
C160 C146 1.377 . S
C160 C159 1.373 1_554 S
C161 C145 1.377 . S
C161 C159 1.389 . S
C161 C162 1.524 . S
C162 C161 1.524 . S
C162 C163 1.397 . S
C162 C167 1.363 . S
C163 H134 0.950 . S
C163 C162 1.397 . S
C163 C164 1.334 . S
C164 H135 0.950 . S
C164 C163 1.334 . S
C164 C165 1.287 . S
C165 C164 1.287 . S
C165 C166 1.524 . S
C165 H168 0.999 . S
C166 H136 0.950 . S
C166 C165 1.524 . S
C166 C167 1.415 . S
C167 H137 0.950 . S
C167 C162 1.363 . S
C167 C166 1.415 . S
H168 C165 0.999 . S
H169 C150 0.913 . S
H170 C188 0.951 . S
H171 C190 0.951 . S
H172 C192 0.950 . S
H173 C193 0.950 . S
H174 C195 0.950 . S
H175 C198 0.950 . S
H176 C199 0.950 . S
H177 C201 0.950 . S
H178 C202 0.950 . S
H179 C203 0.951 . S
H180 C205 0.951 . S
H181 C207 0.950 . S
H182 C208 0.950 . S
H183 C210 0.950 . S
H184 C213 0.950 . S
H185 C214 0.950 . S
H186 C216 0.950 . S
H187 C217 0.950 . S
C188 H170 0.951 . S
C188 C189 1.366 . S
C188 C190 1.388 . S
C189 C188 1.366 . S
C189 C193 1.385 . S
C190 H171 0.951 . S
C190 C188 1.388 . S
C190 C191 1.366 . S
C191 C190 1.366 . S
C191 C192 1.414 . S
C191 C194 1.499 . S
C192 H172 0.950 . S
C192 C191 1.414 . S
C192 C193 1.374 . S
C193 H173 0.950 . S
C193 C189 1.385 . S
C193 C192 1.374 . S
C194 C191 1.499 . S
C194 C195 1.373 . S
C194 C196 1.389 . S
C195 H174 0.950 . S
C195 C194 1.373 . S
C195 C211 1.377 . S
C196 C194 1.389 . S
C196 C197 1.524 . S
C196 C210 1.377 . S
C197 C196 1.524 . S
C197 C198 1.397 . S
C197 C202 1.363 . S
C198 H175 0.950 . S
C198 C197 1.397 . S
C198 C199 1.334 . S
C199 H176 0.950 . S
C199 C198 1.334 . S
C199 C200 1.287 . S
C200 C199 1.287 . S
C200 C201 1.524 . S
C200 H219 0.913 . S
C201 H177 0.950 . S
C201 C200 1.524 . S
C201 C202 1.415 . S
C202 H178 0.950 . S
C202 C197 1.363 . S
C202 C201 1.415 . S
C203 H179 0.951 . S
C203 C204 1.366 . S
C203 C205 1.388 . S
C204 C203 1.366 . S
C204 C208 1.385 . S
C205 H180 0.951 . S
C205 C203 1.388 . S
C205 C206 1.366 . S
C206 C205 1.366 . S
C206 C207 1.414 . S
C206 C209 1.499 . S
C207 H181 0.950 . S
C207 C206 1.414 . S
C207 C208 1.374 . S
C208 H182 0.950 . S
C208 C204 1.385 . S
C208 C207 1.374 . S
C209 C206 1.499 . S
C209 C210 1.373 . S
C209 C211 1.389 . S
C210 H183 0.950 . S
C210 C196 1.377 . S
C210 C209 1.373 . S
C211 C195 1.377 . S
C211 C209 1.389 . S
C211 C212 1.524 . S
C212 C211 1.524 . S
C212 C213 1.397 . S
C212 C217 1.363 . S
C213 H184 0.950 . S
C213 C212 1.397 . S
C213 C214 1.334 . S
C214 H185 0.950 . S
C214 C213 1.334 . S
C214 C215 1.287 . S
C215 C214 1.287 . S
C215 C216 1.524 . S
C215 H218 0.999 . S
C216 H186 0.950 . S
C216 C215 1.524 . S
C216 C217 1.415 . S
C217 H187 0.950 . S
C217 C212 1.363 . S
C217 C216 1.415 . S
H218 C215 0.999 . S
H219 C200 0.913 . S
H220 C238 0.951 . S
H221 C240 0.951 . S
H222 C242 0.950 . S
H223 C243 0.950 . S
H224 C245 0.950 . S
H225 C248 0.950 . S
H226 C249 0.950 . S
H227 C251 0.950 . S
H228 C252 0.950 . S
H229 C253 0.951 . S
H230 C255 0.951 . S
H231 C257 0.950 . S
H232 C258 0.950 . S
H233 C260 0.950 . S
H234 C263 0.950 . S
H235 C264 0.950 . S
H236 C266 0.950 . S
H237 C267 0.950 . S
C238 H220 0.951 . S
C238 C239 1.366 . S
C238 C240 1.388 . S
C239 C238 1.366 . S
C239 C243 1.385 . S
C240 H221 0.951 . S
C240 C238 1.388 . S
C240 C241 1.366 . S
C241 C240 1.366 . S
C241 C242 1.414 . S
C241 C244 1.499 . S
C242 H222 0.950 . S
C242 C241 1.414 . S
C242 C243 1.374 . S
C243 H223 0.950 . S
C243 C239 1.385 . S
C243 C242 1.374 . S
C244 C241 1.499 . S
C244 C245 1.373 . S
C244 C246 1.389 . S
C245 H224 0.950 . S
C245 C244 1.373 . S
C245 C261 1.377 . S
C246 C244 1.389 . S
C246 C247 1.524 . S
C246 C260 1.377 . S
C247 C246 1.524 . S
C247 C248 1.397 . S
C247 C252 1.363 . S
C248 H225 0.950 . S
C248 C247 1.397 . S
C248 C249 1.334 . S
C249 H226 0.950 . S
C249 C248 1.334 . S
C249 C250 1.287 . S
C250 C249 1.287 . S
C250 C251 1.524 . S
C250 H269 0.913 . S
C251 H227 0.950 . S
C251 C250 1.524 . S
C251 C252 1.415 . S
C252 H228 0.950 . S
C252 C247 1.363 . S
C252 C251 1.415 . S
C253 H229 0.951 . S
C253 C254 1.366 . S
C253 C255 1.388 . S
C254 C253 1.366 . S
C254 C258 1.385 . S
C255 H230 0.951 . S
C255 C253 1.388 . S
C255 C256 1.366 . S
C256 C255 1.366 . S
C256 C257 1.414 . S
C256 C259 1.499 . S
C257 H231 0.950 . S
C257 C256 1.414 . S
C257 C258 1.374 . S
C258 H232 0.950 . S
C258 C254 1.385 . S
C258 C257 1.374 . S
C259 C256 1.499 . S
C259 C260 1.373 . S
C259 C261 1.389 . S
C260 H233 0.950 . S
C260 C246 1.377 . S
C260 C259 1.373 . S
C261 C245 1.377 . S
C261 C259 1.389 . S
C261 C262 1.524 . S
C262 C261 1.524 . S
C262 C263 1.397 . S
C262 C267 1.363 . S
C263 H234 0.950 . S
C263 C262 1.397 . S
C263 C264 1.334 . S
C264 H235 0.950 . S
C264 C263 1.334 . S
C264 C265 1.287 . S
C265 C264 1.287 . S
C265 C266 1.524 . S
C265 H268 0.999 . S
C266 H236 0.950 . S
C266 C265 1.524 . S
C266 C267 1.415 . S
C267 H237 0.950 . S
C267 C262 1.363 . S
C267 C266 1.415 . S
H268 C265 0.999 . S
H269 C250 0.913 . S
H270 C288 0.951 1_554 S
H271 C290 0.951 . S
H272 C292 0.950 . S
H273 C293 0.950 . S
H274 C295 0.950 . S
H275 C298 0.950 1_556 S
H276 C299 0.950 . S
H277 C301 0.950 . S
H278 C302 0.950 . S
H279 C303 0.951 . S
H280 C305 0.951 1_556 S
H281 C307 0.950 . S
H282 C308 0.950 . S
H283 C310 0.950 . S
H284 C313 0.950 . S
H285 C314 0.950 1_554 S
H286 C316 0.950 . S
H287 C317 0.950 . S
C288 H270 0.951 1_556 S
C288 C289 1.366 . S
C288 C290 1.388 1_556 S
C289 C288 1.366 . S
C289 C293 1.385 . S
C290 H271 0.951 . S
C290 C288 1.388 1_554 S
C290 C291 1.366 1_554 S
C291 C290 1.366 1_556 S
C291 C292 1.414 . S
C291 C294 1.499 . S
C292 H272 0.950 . S
C292 C291 1.414 . S
C292 C293 1.374 . S
C293 H273 0.950 . S
C293 C289 1.385 . S
C293 C292 1.374 . S
C294 C291 1.499 . S
C294 C295 1.373 . S
C294 C296 1.389 1_556 S
C295 H274 0.950 . S
C295 C294 1.373 . S
C295 C311 1.377 . S
C296 C294 1.389 1_554 S
C296 C297 1.524 . S
C296 C310 1.377 . S
C297 C296 1.524 . S
C297 C298 1.397 . S
C297 C302 1.363 . S
C298 H275 0.950 1_554 S
C298 C297 1.397 . S
C298 C299 1.334 . S
C299 H276 0.950 . S
C299 C298 1.334 . S
C299 C300 1.287 . S
C300 C299 1.287 . S
C300 C301 1.524 . S
C300 H319 0.913 . S
C301 H277 0.950 . S
C301 C300 1.524 . S
C301 C302 1.415 . S
C302 H278 0.950 . S
C302 C297 1.363 . S
C302 C301 1.415 . S
C303 H279 0.951 . S
C303 C304 1.366 . S
C303 C305 1.388 . S
C304 C303 1.366 . S
C304 C308 1.385 . S
C305 H280 0.951 1_554 S
C305 C303 1.388 . S
C305 C306 1.366 . S
C306 C305 1.366 . S
C306 C307 1.414 . S
C306 C309 1.499 . S
C307 H281 0.950 . S
C307 C306 1.414 . S
C307 C308 1.374 . S
C308 H282 0.950 . S
C308 C304 1.385 . S
C308 C307 1.374 . S
C309 C306 1.499 . S
C309 C310 1.373 . S
C309 C311 1.389 1_554 S
C310 H283 0.950 . S
C310 C296 1.377 . S
C310 C309 1.373 . S
C311 C295 1.377 . S
C311 C309 1.389 1_556 S
C311 C312 1.524 . S
C312 C311 1.524 . S
C312 C313 1.397 1_556 S
C312 C317 1.363 . S
C313 H284 0.950 . S
C313 C312 1.397 1_554 S
C313 C314 1.334 1_554 S
C314 H285 0.950 1_556 S
C314 C313 1.334 1_556 S
C314 C315 1.287 . S
C315 C314 1.287 . S
C315 C316 1.524 . S
C315 H318 0.999 . S
C316 H286 0.950 . S
C316 C315 1.524 . S
C316 C317 1.415 . S
C317 H287 0.950 . S
C317 C312 1.363 . S
C317 C316 1.415 . S
H318 C315 0.999 . S
H319 C300 0.913 . S
H320 C338 0.951 . S
H321 C340 0.951 . S
H322 C342 0.950 . S
H323 C343 0.950 . S
H324 C345 0.950 . S
H325 C348 0.950 . S
H326 C349 0.950 . S
H327 C351 0.950 . S
H328 C352 0.950 . S
H329 C353 0.951 . S
H330 C355 0.951 . S
H331 C357 0.950 . S
H332 C358 0.950 . S
H333 C360 0.950 . S
H334 C363 0.950 . S
H335 C364 0.950 . S
H336 C366 0.950 1_556 S
H337 C367 0.950 . S
C338 H320 0.951 . S
C338 C339 1.366 . S
C338 C340 1.388 . S
C339 C338 1.366 . S
C339 C343 1.385 . S
C340 H321 0.951 . S
C340 C338 1.388 . S
C340 C341 1.366 . S
C341 C340 1.366 . S
C341 C342 1.414 . S
C341 C344 1.499 . S
C342 H322 0.950 . S
C342 C341 1.414 . S
C342 C343 1.374 . S
C343 H323 0.950 . S
C343 C339 1.385 . S
C343 C342 1.374 . S
C344 C341 1.499 . S
C344 C345 1.373 . S
C344 C346 1.389 . S
C345 H324 0.950 . S
C345 C344 1.373 . S
C345 C361 1.377 . S
C346 C344 1.389 . S
C346 C347 1.524 . S
C346 C360 1.377 . S
C347 C346 1.524 . S
C347 C348 1.397 . S
C347 C352 1.363 . S
C348 H325 0.950 . S
C348 C347 1.397 . S
C348 C349 1.334 . S
C349 H326 0.950 . S
C349 C348 1.334 . S
C349 C350 1.287 . S
C350 C349 1.287 . S
C350 C351 1.524 . S
C350 H369 0.913 . S
C351 H327 0.950 . S
C351 C350 1.524 . S
C351 C352 1.415 . S
C352 H328 0.950 . S
C352 C347 1.363 . S
C352 C351 1.415 . S
C353 H329 0.951 . S
C353 C354 1.366 . S
C353 C355 1.388 . S
C354 C353 1.366 . S
C354 C358 1.385 . S
C355 H330 0.951 . S
C355 C353 1.388 . S
C355 C356 1.366 . S
C356 C355 1.366 . S
C356 C357 1.414 . S
C356 C359 1.499 . S
C357 H331 0.950 . S
C357 C356 1.414 . S
C357 C358 1.374 . S
C358 H332 0.950 . S
C358 C354 1.385 . S
C358 C357 1.374 . S
C359 C356 1.499 . S
C359 C360 1.373 . S
C359 C361 1.389 . S
C360 H333 0.950 . S
C360 C346 1.377 . S
C360 C359 1.373 . S
C361 C345 1.377 . S
C361 C359 1.389 . S
C361 C362 1.524 . S
C362 C361 1.524 . S
C362 C363 1.397 . S
C362 C367 1.363 . S
C363 H334 0.950 . S
C363 C362 1.397 . S
C363 C364 1.334 . S
C364 H335 0.950 . S
C364 C363 1.334 . S
C364 C365 1.287 . S
C365 C364 1.287 . S
C365 C366 1.524 . S
C365 H368 0.999 . S
C366 H336 0.950 1_554 S
C366 C365 1.524 . S
C366 C367 1.415 . S
C367 H337 0.950 . S
C367 C362 1.363 . S
C367 C366 1.415 . S
H368 C365 0.999 . S
H369 C350 0.913 . S
H370 C388 0.951 . S
H371 C390 0.951 . S
H372 C392 0.950 . S
H373 C393 0.950 . S
H374 C395 0.950 . S
H375 C398 0.950 . S
H376 C399 0.950 . S
H377 C401 0.950 . S
H378 C402 0.950 . S
H379 C403 0.951 . S
H380 C405 0.951 . S
H381 C407 0.950 . S
H382 C408 0.950 . S
H383 C410 0.950 . S
H384 C413 0.950 . S
H385 C414 0.950 . S
H386 C416 0.950 . S
H387 C417 0.950 . S
C388 H370 0.951 . S
C388 C389 1.366 . S
C388 C390 1.388 . S
C389 C388 1.366 . S
C389 C393 1.385 . S
C390 H371 0.951 . S
C390 C388 1.388 . S
C390 C391 1.366 . S
C391 C390 1.366 . S
C391 C392 1.414 . S
C391 C394 1.499 . S
C392 H372 0.950 . S
C392 C391 1.414 . S
C392 C393 1.374 . S
C393 H373 0.950 . S
C393 C389 1.385 . S
C393 C392 1.374 . S
C394 C391 1.499 . S
C394 C395 1.373 . S
C394 C396 1.389 . S
C395 H374 0.950 . S
C395 C394 1.373 . S
C395 C411 1.377 . S
C396 C394 1.389 . S
C396 C397 1.524 . S
C396 C410 1.377 . S
C397 C396 1.524 . S
C397 C398 1.397 . S
C397 C402 1.363 . S
C398 H375 0.950 . S
C398 C397 1.397 . S
C398 C399 1.334 . S
C399 H376 0.950 . S
C399 C398 1.334 . S
C399 C400 1.287 . S
C400 C399 1.287 . S
C400 C401 1.524 . S
C400 H419 0.913 . S
C401 H377 0.950 . S
C401 C400 1.524 . S
C401 C402 1.415 . S
C402 H378 0.950 . S
C402 C397 1.363 . S
C402 C401 1.415 . S
C403 H379 0.951 . S
C403 C404 1.366 . S
C403 C405 1.388 . S
C404 C403 1.366 . S
C404 C408 1.385 . S
C405 H380 0.951 . S
C405 C403 1.388 . S
C405 C406 1.366 . S
C406 C405 1.366 . S
C406 C407 1.414 . S
C406 C409 1.499 . S
C407 H381 0.950 . S
C407 C406 1.414 . S
C407 C408 1.374 . S
C408 H382 0.950 . S
C408 C404 1.385 . S
C408 C407 1.374 . S
C409 C406 1.499 . S
C409 C410 1.373 . S
C409 C411 1.389 . S
C410 H383 0.950 . S
C410 C396 1.377 . S
C410 C409 1.373 . S
C411 C395 1.377 . S
C411 C409 1.389 . S
C411 C412 1.524 . S
C412 C411 1.524 . S
C412 C413 1.397 . S
C412 C417 1.363 . S
C413 H384 0.950 . S
C413 C412 1.397 . S
C413 C414 1.334 . S
C414 H385 0.950 . S
C414 C413 1.334 . S
C414 C415 1.287 . S
C415 C414 1.287 . S
C415 C416 1.524 . S
C415 H418 0.999 . S
C416 H386 0.950 . S
C416 C415 1.524 . S
C416 C417 1.415 . S
C417 H387 0.950 . S
C417 C412 1.363 . S
C417 C416 1.415 . S
H418 C415 0.999 . S
H419 C400 0.913 . S
H420 C438 0.951 1_554 S
H421 C440 0.951 . S
H422 C442 0.950 . S
H423 C443 0.950 . S
H424 C445 0.950 . S
H425 C448 0.950 1_655 S
H426 C449 0.950 1_655 S
H427 C451 0.950 . S
H428 C452 0.950 . S
H429 C453 0.951 . S
H430 C455 0.951 . S
H431 C457 0.950 . S
H432 C458 0.950 . S
H433 C460 0.950 . S
H434 C463 0.950 . S
H435 C464 0.950 . S
H436 C466 0.950 . S
H437 C467 0.950 . S
C438 H420 0.951 1_556 S
C438 C439 1.366 1_556 S
C438 C440 1.388 . S
C439 C438 1.366 1_554 S
C439 C443 1.385 1_454 S
C440 H421 0.951 . S
C440 C438 1.388 . S
C440 C441 1.366 . S
C441 C440 1.366 . S
C441 C442 1.414 1_455 S
C441 C444 1.499 . S
C442 H422 0.950 . S
C442 C441 1.414 1_655 S
C442 C443 1.374 . S
C443 H423 0.950 . S
C443 C439 1.385 1_656 S
C443 C442 1.374 . S
C444 C441 1.499 . S
C444 C445 1.373 . S
C444 C446 1.389 . S
C445 H424 0.950 . S
C445 C444 1.373 . S
C445 C461 1.377 . S
C446 C444 1.389 . S
C446 C447 1.524 . S
C446 C460 1.377 . S
C447 C446 1.524 . S
C447 C448 1.397 . S
C447 C452 1.363 . S
C448 H425 0.950 1_455 S
C448 C447 1.397 . S
C448 C449 1.334 . S
C449 H426 0.950 1_455 S
C449 C448 1.334 . S
C449 C450 1.287 . S
C450 C449 1.287 . S
C450 C451 1.524 . S
C450 H469 0.913 . S
C451 H427 0.950 . S
C451 C450 1.524 . S
C451 C452 1.415 . S
C452 H428 0.950 . S
C452 C447 1.363 . S
C452 C451 1.415 . S
C453 H429 0.951 . S
C453 C454 1.366 1_655 S
C453 C455 1.388 . S
C454 C453 1.366 1_455 S
C454 C458 1.385 . S
C455 H430 0.951 . S
C455 C453 1.388 . S
C455 C456 1.366 1_655 S
C456 C455 1.366 1_455 S
C456 C457 1.414 . S
C456 C459 1.499 . S
C457 H431 0.950 . S
C457 C456 1.414 . S
C457 C458 1.374 . S
C458 H432 0.950 . S
C458 C454 1.385 . S
C458 C457 1.374 . S
C459 C456 1.499 . S
C459 C460 1.373 . S
C459 C461 1.389 . S
C460 H433 0.950 . S
C460 C446 1.377 . S
C460 C459 1.373 . S
C461 C445 1.377 . S
C461 C459 1.389 . S
C461 C462 1.524 . S
C462 C461 1.524 . S
C462 C463 1.397 . S
C462 C467 1.363 1_455 S
C463 H434 0.950 . S
C463 C462 1.397 . S
C463 C464 1.334 . S
C464 H435 0.950 . S
C464 C463 1.334 . S
C464 C465 1.287 . S
C465 C464 1.287 . S
C465 C466 1.524 1_455 S
C465 H468 0.999 . S
C466 H436 0.950 . S
C466 C465 1.524 1_655 S
C466 C467 1.415 . S
C467 H437 0.950 . S
C467 C462 1.363 1_655 S
C467 C466 1.415 . S
H468 C465 0.999 . S
H469 C450 0.913 . S
H470 C488 0.951 . S
H471 C490 0.951 . S
H472 C492 0.950 . S
H473 C493 0.950 . S
H474 C495 0.950 . S
H475 C498 0.950 . S
H476 C499 0.950 . S
H477 C501 0.950 . S
H478 C502 0.950 1_556 S
H479 C503 0.951 . S
H480 C505 0.951 . S
H481 C507 0.950 . S
H482 C508 0.950 . S
H483 C510 0.950 . S
H484 C513 0.950 . S
H485 C514 0.950 . S
H486 C516 0.950 . S
H487 C517 0.950 . S
C488 H470 0.951 . S
C488 C489 1.366 . S
C488 C490 1.388 . S
C489 C488 1.366 . S
C489 C493 1.385 . S
C490 H471 0.951 . S
C490 C488 1.388 . S
C490 C491 1.366 . S
C491 C490 1.366 . S
C491 C492 1.414 . S
C491 C494 1.499 . S
C492 H472 0.950 . S
C492 C491 1.414 . S
C492 C493 1.374 . S
C493 H473 0.950 . S
C493 C489 1.385 . S
C493 C492 1.374 . S
C494 C491 1.499 . S
C494 C495 1.373 . S
C494 C496 1.389 . S
C495 H474 0.950 . S
C495 C494 1.373 . S
C495 C511 1.377 1_554 S
C496 C494 1.389 . S
C496 C497 1.524 . S
C496 C510 1.377 1_554 S
C497 C496 1.524 . S
C497 C498 1.397 . S
C497 C502 1.363 . S
C498 H475 0.950 . S
C498 C497 1.397 . S
C498 C499 1.334 . S
C499 H476 0.950 . S
C499 C498 1.334 . S
C499 C500 1.287 . S
C500 C499 1.287 . S
C500 C501 1.524 . S
C500 H519 0.913 . S
C501 H477 0.950 . S
C501 C500 1.524 . S
C501 C502 1.415 . S
C502 H478 0.950 1_554 S
C502 C497 1.363 . S
C502 C501 1.415 . S
C503 H479 0.951 . S
C503 C504 1.366 . S
C503 C505 1.388 . S
C504 C503 1.366 . S
C504 C508 1.385 . S
C505 H480 0.951 . S
C505 C503 1.388 . S
C505 C506 1.366 . S
C506 C505 1.366 . S
C506 C507 1.414 . S
C506 C509 1.499 . S
C507 H481 0.950 . S
C507 C506 1.414 . S
C507 C508 1.374 . S
C508 H482 0.950 . S
C508 C504 1.385 . S
C508 C507 1.374 . S
C509 C506 1.499 . S
C509 C510 1.373 . S
C509 C511 1.389 . S
C510 H483 0.950 . S
C510 C496 1.377 1_556 S
C510 C509 1.373 . S
C511 C495 1.377 1_556 S
C511 C509 1.389 . S
C511 C512 1.524 . S
C512 C511 1.524 . S
C512 C513 1.397 . S
C512 C517 1.363 . S
C513 H484 0.950 . S
C513 C512 1.397 . S
C513 C514 1.334 . S
C514 H485 0.950 . S
C514 C513 1.334 . S
C514 C515 1.287 . S
C515 C514 1.287 . S
C515 C516 1.524 . S
C515 H518 0.999 . S
C516 H486 0.950 . S
C516 C515 1.524 . S
C516 C517 1.415 . S
C517 H487 0.950 . S
C517 C512 1.363 . S
C517 C516 1.415 . S
H518 C515 0.999 . S
H519 C500 0.913 . S
H520 C538 0.951 . S
H521 C540 0.951 . S
H522 C542 0.950 . S
H523 C543 0.950 . S
H524 C545 0.950 . S
H525 C548 0.950 . S
H526 C549 0.950 . S
H527 C551 0.950 . S
H528 C552 0.950 . S
H529 C553 0.951 . S
H530 C555 0.951 . S
H531 C557 0.950 . S
H532 C558 0.950 . S
H533 C560 0.950 . S
H534 C563 0.950 . S
H535 C564 0.950 . S
H536 C566 0.950 . S
H537 C567 0.950 . S
C538 H520 0.951 . S
C538 C539 1.366 . S
C538 C540 1.388 . S
C539 C538 1.366 . S
C539 C543 1.385 . S
C540 H521 0.951 . S
C540 C538 1.388 . S
C540 C541 1.366 . S
C541 C540 1.366 . S
C541 C542 1.414 . S
C541 C544 1.499 . S
C542 H522 0.950 . S
C542 C541 1.414 . S
C542 C543 1.374 . S
C543 H523 0.950 . S
C543 C539 1.385 . S
C543 C542 1.374 . S
C544 C541 1.499 . S
C544 C545 1.373 . S
C544 C546 1.389 . S
C545 H524 0.950 . S
C545 C544 1.373 . S
C545 C561 1.377 . S
C546 C544 1.389 . S
C546 C547 1.524 . S
C546 C560 1.377 . S
C547 C546 1.524 . S
C547 C548 1.397 . S
C547 C552 1.363 . S
C548 H525 0.950 . S
C548 C547 1.397 . S
C548 C549 1.334 . S
C549 H526 0.950 . S
C549 C548 1.334 . S
C549 C550 1.287 . S
C550 C549 1.287 . S
C550 C551 1.524 . S
C550 H569 0.913 . S
C551 H527 0.950 . S
C551 C550 1.524 . S
C551 C552 1.415 . S
C552 H528 0.950 . S
C552 C547 1.363 . S
C552 C551 1.415 . S
C553 H529 0.951 . S
C553 C554 1.366 . S
C553 C555 1.388 . S
C554 C553 1.366 . S
C554 C558 1.385 . S
C555 H530 0.951 . S
C555 C553 1.388 . S
C555 C556 1.366 . S
C556 C555 1.366 . S
C556 C557 1.414 . S
C556 C559 1.499 . S
C557 H531 0.950 . S
C557 C556 1.414 . S
C557 C558 1.374 . S
C558 H532 0.950 . S
C558 C554 1.385 . S
C558 C557 1.374 . S
C559 C556 1.499 . S
C559 C560 1.373 . S
C559 C561 1.389 . S
C560 H533 0.950 . S
C560 C546 1.377 . S
C560 C559 1.373 . S
C561 C545 1.377 . S
C561 C559 1.389 . S
C561 C562 1.524 . S
C562 C561 1.524 . S
C562 C563 1.397 . S
C562 C567 1.363 . S
C563 H534 0.950 . S
C563 C562 1.397 . S
C563 C564 1.334 . S
C564 H535 0.950 . S
C564 C563 1.334 . S
C564 C565 1.287 . S
C565 C564 1.287 . S
C565 C566 1.524 . S
C565 H568 0.999 . S
C566 H536 0.950 . S
C566 C565 1.524 . S
C566 C567 1.415 . S
C567 H537 0.950 . S
C567 C562 1.363 . S
C567 C566 1.415 . S
H568 C565 0.999 . S
H569 C550 0.913 . S
C139 C6 2.213 . S
C154 C90 2.177 . S
C189 C59 3.087 . S
C204 C19 3.055 . S
C239 C46 1.585 . S
C254 C86 1.587 . S
C289 C99 2.523 . S
C304 C15 2.420 . S
C339 C50 2.733 1_565 S
C354 C10 2.710 . S
C389 C95 1.489 . S
C404 C55 1.482 . S
C439 C18 0.415 . S
C454 C9 0.415 . S
C489 C49 0.386 . S
C504 C58 0.386 . S
C539 C98 0.379 . S
C554 C89 0.379 . S
