# Generated by pormake.
# Topology tfs, (6)-cn, num edge types: 1
# Building blocks:
#     Node 0, Type 0, BuildingBlock: HISSIN_clean_sbu_0, # of connection points: 6
#     Node 1, Type 0, BuildingBlock: HISSIN_clean_sbu_0, # of connection points: 6
#     Node 2, Type 0, BuildingBlock: HISSIN_clean_sbu_0, # of connection points: 6
#     Node 3, Type 0, BuildingBlock: HISSIN_clean_sbu_0, # of connection points: 6
#     Node 4, Type 0, BuildingBlock: HISSIN_clean_sbu_0, # of connection points: 6
#     Node 5, Type 0, BuildingBlock: HISSIN_clean_sbu_0, # of connection points: 6
#     Edge 6, Type (0, 0), BuildingBlock: XIVTED_clean_linker_0, # of connection points: 2
#     Edge 7, Type (0, 0), BuildingBlock: XIVTED_clean_linker_0, # of connection points: 2
#     Edge 8, Type (0, 0), BuildingBlock: XIVTED_clean_linker_0, # of connection points: 2
#     Edge 9, Type (0, 0), BuildingBlock: XIVTED_clean_linker_0, # of connection points: 2
#     Edge 10, Type (0, 0), BuildingBlock: XIVTED_clean_linker_0, # of connection points: 2
#     Edge 11, Type (0, 0), BuildingBlock: XIVTED_clean_linker_0, # of connection points: 2
#     Edge 12, Type (0, 0), BuildingBlock: XIVTED_clean_linker_0, # of connection points: 2
#     Edge 13, Type (0, 0), BuildingBlock: XIVTED_clean_linker_0, # of connection points: 2
#     Edge 14, Type (0, 0), BuildingBlock: XIVTED_clean_linker_0, # of connection points: 2
#     Edge 15, Type (0, 0), BuildingBlock: XIVTED_clean_linker_0, # of connection points: 2
#     Edge 16, Type (0, 0), BuildingBlock: XIVTED_clean_linker_0, # of connection points: 2
#     Edge 17, Type (0, 0), BuildingBlock: XIVTED_clean_linker_0, # of connection points: 2
#     Edge 18, Type (0, 0), BuildingBlock: XIVTED_clean_linker_0, # of connection points: 2
#     Edge 19, Type (0, 0), BuildingBlock: XIVTED_clean_linker_0, # of connection points: 2
#     Edge 20, Type (0, 0), BuildingBlock: XIVTED_clean_linker_0, # of connection points: 2
#     Edge 21, Type (0, 0), BuildingBlock: XIVTED_clean_linker_0, # of connection points: 2
#     Edge 22, Type (0, 0), BuildingBlock: XIVTED_clean_linker_0, # of connection points: 2
#     Edge 23, Type (0, 0), BuildingBlock: XIVTED_clean_linker_0, # of connection points: 2
# Relax obj value: 0.545
# Max RMSD: 0.295
# Mean RMSD: 0.295
data_MOF--net-tfs--node1-HISSIN_clean_sbu_0--edge1-XIVTED_clean_linker_0
_symmetry_space_group_name_H-M    P1
_symmetry_Int_Tables_number       1
_symmetry_cell_setting            triclinic
loop_
_symmetry_equiv_pos_as_xyz
'x, y, z'
_cell_length_a     55.688441
_cell_length_b     55.708233
_cell_length_c     15.357248
_cell_angle_alpha  89.908045
_cell_angle_beta   90.218704
_cell_angle_gamma 119.9953
loop_
_atom_site_label
_atom_site_type_symbol
_atom_site_fract_x
_atom_site_fract_y
_atom_site_fract_z
_atom_type_partial_charge
Eu0 Eu 0.21936 0.40003 0.01593 0.0
Eu1 Eu 0.18983 0.43835 0.00951 0.0
C2 C 0.2045 0.42038 0.18539 0.0
C3 C 0.24153 0.34335 0.01184 0.0
C4 C 0.24878 0.33091 0.07837 0.0
C5 C 0.24002 0.30937 0.90963 0.0
C6 C 0.25259 0.30851 0.06031 0.0
C7 C 0.23623 0.33187 0.92782 0.0
C8 C 0.24927 0.29812 0.97503 0.0
C9 C 0.24326 0.3701 0.03004 0.0
O10 O 0.2351 0.46943 0.02978 0.0
O11 O 0.25409 0.44299 0.98637 0.0
C12 C 0.25649 0.46701 0.00652 0.0
O13 O 0.20385 0.39787 0.8786 0.0
O14 O 0.17862 0.46552 0.07838 0.0
O15 O 0.16429 0.45282 0.9459 0.0
O16 O 0.20853 0.44115 0.87742 0.0
C17 C 0.20639 0.41952 0.83611 0.0
O18 O 0.17367 0.36998 0.03456 0.0
O19 O 0.15687 0.3957 0.96895 0.0
O20 O 0.18331 0.41813 0.14141 0.0
O21 O 0.24714 0.38666 0.96464 0.0
O22 O 0.22684 0.37071 0.08932 0.0
O23 O 0.22563 0.42191 0.14386 0.0
C24 C 0.17104 0.49618 -0.00732 0.0
C25 C 0.19485 0.5152 0.94724 0.0
C26 C 0.15723 0.53092 0.00612 0.0
C27 C 0.19977 0.54204 0.93101 0.0
C28 C 0.15234 0.5042 0.02203 0.0
C29 C 0.18094 0.55018 0.96015 0.0
C30 C 0.16541 0.46805 0.01195 0.0
C31 C 0.15349 0.37199 -0.00276 0.0
H32 H 0.25307 0.33953 0.14355 0.0
H33 H 0.23688 0.30157 0.84357 0.0
H34 H 0.26005 0.30069 0.11213 0.0
H35 H 0.23043 0.34102 0.87543 0.0
H36 H 0.20957 0.5093 0.92448 0.0
H37 H 0.1426 0.53661 0.03112 0.0
H38 H 0.21811 0.55628 0.89493 0.0
H39 H 0.13399 0.4898 0.05789 0.0
Eu40 Eu 0.82056 0.219 -0.0 0.0
Eu41 Eu 0.75194 0.18807 -0.00267 0.0
C42 C 0.78595 0.20251 0.17205 0.0
C43 C 0.89982 0.24303 0.98601 0.0
C44 C 0.90858 0.22761 0.03601 0.0
C45 C 0.9439 0.26449 0.91004 0.0
C46 C 0.93509 0.23117 0.02452 0.0
C47 C 0.91748 0.26091 0.92145 0.0
C48 C 0.95338 0.25032 0.96323 0.0
C49 C 0.8746 0.24407 0.00869 0.0
O50 O 0.76581 0.2329 0.02282 0.0
O51 O 0.81066 0.25285 0.97299 0.0
C52 C 0.78898 0.25462 -0.00287 0.0
O53 O 0.80699 0.20367 0.86362 0.0
O54 O 0.71346 0.17364 0.06861 0.0
O55 O 0.71195 0.16521 0.93033 0.0
O56 O 0.76706 0.20605 0.86434 0.0
C57 C 0.78691 0.20482 0.82231 0.0
O58 O 0.8058 0.1734 0.01672 0.0
O59 O 0.76204 0.15536 0.95788 0.0
O60 O 0.76599 0.18194 0.12878 0.0
O61 O 0.86107 0.24799 0.94588 0.0
O62 O 0.85825 0.22729 0.0687 0.0
O63 O 0.8058 0.22358 0.1308 0.0
C64 C 0.67622 0.17175 -0.01212 0.0
C65 C 0.65293 0.15483 0.93664 0.0
C66 C 0.65613 0.20054 0.02284 0.0
C67 C 0.63127 0.16053 0.92906 0.0
C68 C 0.6779 0.19494 0.02983 0.0
C69 C 0.63236 0.18317 0.97329 0.0
C70 C 0.69788 0.16418 -0.0007 0.0
C71 C 0.7832 0.15276 0.98283 0.0
H72 H 0.89549 0.21374 0.08667 0.0
H73 H 0.95749 0.27977 0.86323 0.0
H74 H 0.94163 0.21971 0.06587 0.0
H75 H 0.91148 0.27337 0.88282 0.0
H76 H 0.65132 0.13695 0.90331 0.0
H77 H 0.65761 0.218 0.05839 0.0
H78 H 0.61359 0.14706 0.88882 0.0
H79 H 0.69576 0.20845 0.06941 0.0
Eu80 Eu 0.60324 0.82167 0.03213 0.0
Eu81 Eu 0.56338 0.75331 0.03017 0.0
C82 C 0.58436 0.78715 0.20475 0.0
C83 C 0.66014 0.90019 0.01208 0.0
C84 C 0.68468 0.90927 0.06047 0.0
C85 C 0.68262 0.94316 0.9298 0.0
C86 C 0.70776 0.93542 0.04504 0.0
C87 C 0.65966 0.9171 0.94508 0.0
C88 C 0.70666 0.95304 0.9814 0.0
C89 C 0.6339 0.87559 0.03894 0.0
O90 O 0.53353 0.76862 0.05558 0.0
O91 O 0.55993 0.81353 0.00727 0.0
C92 C 0.53604 0.79238 0.03111 0.0
O93 O 0.60404 0.8077 0.89582 0.0
O94 O 0.53764 0.71504 0.10094 0.0
O95 O 0.54568 0.71328 0.96372 0.0
O96 O 0.56089 0.76889 0.89729 0.0
C97 C 0.58231 0.78818 0.85487 0.0
O98 O 0.63286 0.80532 0.04779 0.0
O99 O 0.60562 0.76169 -0.00978 0.0
O100 O 0.58383 0.76666 0.16152 0.0
O101 O 0.61512 0.86238 0.97913 0.0
O102 O 0.63477 0.85902 0.09749 0.0
O103 O 0.5842 0.80762 0.16357 0.0
C104 C 0.50241 0.67829 0.0181 0.0
C105 C 0.4959 0.65619 0.9613 0.0
C106 C 0.45357 0.6575 0.05477 0.0
C107 C 0.46853 0.63475 0.95193 0.0
C108 C 0.48096 0.67907 0.06363 0.0
C109 C 0.44709 0.63483 -9e-05 0.0
C110 C 0.53172 0.69943 0.03192 0.0
C111 C 0.62985 0.78229 0.0142 0.0
H112 H 0.68567 0.89678 0.11296 0.0
H113 H 0.68071 0.95623 0.88127 0.0
H114 H 0.72606 0.94225 0.08527 0.0
H115 H 0.64094 0.91087 0.90751 0.0
H116 H 0.51211 0.65526 0.92521 0.0
H117 H 0.43766 0.65816 0.09325 0.0
H118 H 0.46423 0.61793 0.90771 0.0
H119 H 0.48537 0.69597 0.10761 0.0
Eu120 Eu 0.78494 0.60387 0.04843 0.0
Eu121 Eu 0.81166 0.56263 0.05241 0.0
C122 C 0.79804 0.58371 0.22425 0.0
C123 C 0.76229 0.66024 0.02426 0.0
C124 C 0.77762 0.68483 0.07223 0.0
C125 C 0.74015 0.68179 0.94513 0.0
C126 C 0.77365 0.70746 0.05826 0.0
C127 C 0.74418 0.6593 0.9589 0.0
C128 C 0.75412 0.70583 -0.0034 0.0
C129 C 0.76129 0.63421 0.05036 0.0
O130 O 0.76601 0.53432 0.07366 0.0
O131 O 0.75033 0.56138 0.01127 0.0
C132 C 0.74605 0.53725 0.03901 0.0
O133 O 0.80403 0.60715 0.91704 0.0
O134 O 0.81955 0.5335 0.12345 0.0
O135 O 0.83478 0.545 -0.00867 0.0
O136 O 0.7967 0.56292 0.91579 0.0
C137 C 0.80097 0.58539 0.87455 0.0
O138 O 0.83073 0.63359 0.06799 0.0
O139 O 0.84856 0.60501 0.0356 0.0
O140 O 0.81824 0.58307 0.18326 0.0
O141 O 0.75696 0.61605 -0.01019 0.0
O142 O 0.778 0.63494 0.11157 0.0
O143 O 0.77787 0.58378 0.1805 0.0
C144 C 0.82261 0.49948 0.03844 0.0
C145 C 0.83195 0.49262 0.96274 0.0
C146 C 0.80074 0.45126 0.08421 0.0
C147 C 0.82593 0.4654 0.94821 0.0
C148 C 0.8067 0.47843 0.09862 0.0
C149 C 0.81061 0.44449 0.00946 0.0
C150 C 0.83125 0.52874 0.05734 0.0
C151 C 0.85167 0.62947 0.05341 0.0
H152 H 0.79168 0.68617 0.12341 0.0
H153 H 0.7246 0.67945 0.89807 0.0
H154 H 0.78504 0.72578 0.09821 0.0
H155 H 0.73178 0.64052 0.92173 0.0
H156 H 0.84441 0.50842 0.91549 0.0
H157 H 0.78927 0.43578 0.13338 0.0
H158 H 0.83356 0.46081 0.88944 0.0
H159 H 0.79941 0.48302 0.15815 0.0
Eu160 Eu 0.18127 0.78097 0.91593 0.0
Eu161 Eu 0.2492 0.80933 0.92388 0.0
C162 C 0.21341 0.79263 0.0955 0.0
C163 C 0.10331 0.76056 0.93403 0.0
C164 C 0.09936 0.76517 0.02136 0.0
C165 C 0.05666 0.75079 0.90022 0.0
C166 C 0.07379 0.76155 0.04845 0.0
C167 C 0.08216 0.75438 0.8733 0.0
C168 C 0.05179 0.75323 -0.0113 0.0
C169 C 0.12744 0.75836 0.90651 0.0
O170 O 0.23471 0.76426 0.90039 0.0
O171 O 0.18869 0.7452 0.93777 0.0
C172 C 0.21038 0.74277 0.91869 0.0
O173 O 0.19615 0.77485 0.78672 0.0
O174 O 0.28862 0.83433 -0.00801 0.0
O175 O 0.28815 0.82031 0.85987 0.0
O176 O 0.2365 0.81597 0.79012 0.0
C177 C 0.21678 0.79539 0.74604 0.0
O178 O 0.19803 0.8267 0.89321 0.0
O179 O 0.24003 0.84286 0.96152 0.0
O180 O 0.23218 0.78945 0.05394 0.0
O181 O 0.14425 0.77614 0.84939 0.0
O182 O 0.14031 0.75222 0.966 0.0
O183 O 0.19506 0.79639 0.05293 0.0
C184 C 0.32523 0.82672 0.95139 0.0
C185 C 0.32243 0.80061 0.93552 0.0
C186 C 0.37218 0.84344 0.00307 0.0
C187 C 0.34466 0.79615 0.9517 0.0
C188 C 0.35004 0.84789 0.98659 0.0
C189 C 0.36998 0.81771 0.98416 0.0
C190 C 0.30322 0.83286 0.9282 0.0
C191 C 0.22031 0.84677 0.93026 0.0
H192 H 0.11549 0.77019 0.0694 0.0
H193 H 0.04015 0.74411 0.85255 0.0
H194 H 0.07082 0.76397 0.11685 0.0
H195 H 0.08478 0.75068 0.80566 0.0
H196 H 0.30334 0.7839 0.90877 0.0
H197 H 0.39115 0.86031 0.02981 0.0
H198 H 0.34231 0.77615 0.93594 0.0
H199 H 0.3525 0.86811 -0.00016 0.0
Eu200 Eu 0.39957 0.1813 0.96353 0.0
Eu201 Eu 0.44037 0.24973 0.96253 0.0
C202 C 0.41924 0.21566 0.13647 0.0
C203 C 0.34133 0.10251 0.95226 0.0
C204 C 0.3196 0.09284 0.01293 0.0
C205 C 0.31612 0.05877 0.87431 0.0
C206 C 0.29688 0.06602 0.00609 0.0
C207 C 0.33885 0.08557 0.88119 0.0
C208 C 0.29551 0.04828 0.93881 0.0
C209 C 0.36835 0.12744 0.97128 0.0
O210 O 0.46954 0.23366 -0.01023 0.0
O211 O 0.4427 0.18887 0.94016 0.0
C212 C 0.46667 0.20975 0.96535 0.0
O213 O 0.39898 0.19551 0.82723 0.0
O214 O 0.46408 0.28795 0.03571 0.0
O215 O 0.46081 0.28981 0.89548 0.0
O216 O 0.44229 0.23415 0.82937 0.0
C217 C 0.42078 0.21494 0.78669 0.0
O218 O 0.37064 0.19843 0.9798 0.0
O219 O 0.39829 0.24192 0.9221 0.0
O220 O 0.41997 0.2363 0.09343 0.0
O221 O 0.38514 0.14039 0.90678 0.0
O222 O 0.36957 0.14422 0.03262 0.0
O223 O 0.41901 0.19508 0.09505 0.0
C224 C 0.50189 0.32501 0.96251 0.0
C225 C 0.51008 0.34792 0.90769 0.0
C226 C 0.54909 0.34583 0.01782 0.0
C227 C 0.53746 0.3698 0.9086 0.0
C228 C 0.52174 0.32385 0.01641 0.0
C229 C 0.55718 0.36931 0.96505 0.0
C230 C 0.47233 0.30362 0.96659 0.0
C231 C 0.37396 0.22167 0.94659 0.0
H232 H 0.3209 0.1053 0.06873 0.0
H233 H 0.31589 0.04559 0.82214 0.0
H234 H 0.28114 0.05864 0.05619 0.0
H235 H 0.35538 0.09228 0.83391 0.0
H236 H 0.49513 0.34918 0.86539 0.0
H237 H 0.56361 0.34481 0.06265 0.0
H238 H 0.54306 0.38726 0.86576 0.0
H239 H 0.516 0.30635 0.05921 0.0
H240 H 0.32487 0.19668 0.03733 0.0
H241 H 0.27847 0.29899 0.83119 0.0
H242 H 0.36845 0.25634 0.83422 0.0
H243 H 0.24403 0.25356 0.06949 0.0
H244 H 0.30322 0.27382 0.81021 0.0
H245 H 0.28799 0.20866 0.03037 0.0
C246 C 0.32647 0.21197 -0.00952 0.0
C247 C 0.34993 0.22589 0.93727 0.0
C248 C 0.28995 0.26904 0.86653 0.0
C249 C 0.30796 0.23945 0.92852 0.0
C250 C 0.2755 0.28322 0.87811 0.0
C251 C 0.2594 0.27872 0.95298 0.0
C252 C 0.28852 0.25032 0.93044 0.0
C253 C 0.25672 0.25816 0.01184 0.0
C254 C 0.30549 0.21882 0.98667 0.0
C255 C 0.35097 0.24546 0.87758 0.0
N256 N 0.27148 0.245 2e-05 0.0
N257 N 0.33041 0.25176 0.87522 0.0
H258 H 0.12633 0.32763 0.1074 0.0
H259 H 0.9876 0.26304 0.82134 0.0
H260 H 0.11836 0.36029 0.861 0.0
H261 H 0.9874 0.25649 0.10162 0.0
H262 H 0.03823 0.28659 0.82373 0.0
H263 H 0.07784 0.28995 0.09373 0.0
C264 C 0.11453 0.32651 0.04979 0.0
C265 C 0.12603 0.34718 0.9858 0.0
C266 C 0.027 0.2795 0.88447 0.0
C267 C 0.07126 0.30432 0.9692 0.0
C268 C 0.99813 0.26613 0.88326 0.0
C269 C 0.98318 0.25835 0.96155 0.0
C270 C 0.04105 0.28496 0.96442 0.0
C271 C 0.99797 0.26217 0.03961 0.0
C272 C 0.08697 0.30515 0.04216 0.0
C273 C 0.11001 0.34495 0.91241 0.0
N274 N 0.02614 0.2756 0.03921 0.0
N275 N 0.0834 0.32397 0.90624 0.0
H276 H 0.75865 0.11664 0.84995 0.0
H277 H 0.7359 0.98845 0.11532 0.0
H278 H 0.80204 0.1268 0.09237 0.0
H279 H 0.72704 0.98575 0.83544 0.0
H280 H 0.76328 0.03887 0.10817 0.0
H281 H 0.749 0.06889 0.84152 0.0
C282 C 0.76641 0.10882 0.90093 0.0
C283 C 0.78087 0.12543 0.97242 0.0
C284 C 0.75587 0.0272 0.04817 0.0
C285 C 0.76955 0.07074 0.96408 0.0
C286 C 0.74033 0.99831 0.05203 0.0
C287 C 0.72856 0.98274 0.97593 0.0
C288 C 0.75928 0.04059 0.96793 0.0
C289 C 0.73492 0.9969 0.89607 0.0
C290 C 0.76107 0.08164 0.89587 0.0
C291 C 0.79076 0.11451 0.03633 0.0
N292 N 0.74931 0.02503 0.89433 0.0
N293 N 0.78438 0.08755 0.0317 0.0
H294 H 0.74846 0.73463 0.13259 0.0
H295 H 0.63901 0.75578 0.88198 0.0
H296 H 0.73917 0.72522 0.85331 0.0
H297 H 0.6758 0.80096 0.11896 0.0
H298 H 0.67659 0.74545 0.86963 0.0
H299 H 0.72445 0.76116 0.12961 0.0
C300 C 0.7421 0.73873 0.07025 0.0
C301 C 0.7454 0.7271 -0.00682 0.0
C302 C 0.67675 0.758 0.92367 0.0
C303 C 0.71714 0.75682 -0.00991 0.0
C304 C 0.65522 0.76373 0.93103 0.0
C305 C 0.65425 0.77897 0.00206 0.0
C306 C 0.69709 0.76693 -0.0109 0.0
C307 C 0.67586 0.78907 0.06334 0.0
C308 C 0.72821 0.75378 0.06881 0.0
C309 C 0.73635 0.733 0.9147 0.0
N310 N 0.69618 0.78237 0.05648 0.0
N311 N 0.72212 0.74692 0.9154 0.0
H312 H 0.02689 0.72132 0.13158 0.0
H313 H 0.87306 0.68316 -0.00402 0.0
H314 H 0.01065 0.76053 0.91439 0.0
H315 H 0.89515 0.62836 0.12695 0.0
H316 H 0.92246 0.71952 -0.00373 0.0
H317 H 0.97756 0.6962 0.16421 0.0
C318 C 0.0131 0.72528 0.09207 0.0
C319 C 0.02296 0.74285 0.01935 0.0
C320 C 0.91629 0.69962 0.02591 0.0
C321 C 0.96622 0.71353 0.05548 0.0
C322 C 0.88825 0.67901 0.02596 0.0
C323 C 0.88028 0.65276 0.06051 0.0
C324 C 0.93609 0.69394 0.06258 0.0
C325 C 0.90058 0.64824 0.09852 0.0
C326 C 0.98485 0.71066 0.11027 0.0
C327 C 0.00386 0.74677 0.97005 0.0
N328 N 0.92752 0.66859 0.09844 0.0
N329 N 0.97629 0.73192 -0.0117 0.0
H330 H 0.20199 0.87265 0.81795 0.0
H331 H 0.28036 0.01512 0.08252 0.0
H332 H 0.24694 0.88445 0.05823 0.0
H333 H 0.26598 0.01232 0.80531 0.0
H334 H 0.25502 0.96467 0.08613 0.0
H335 H 0.21342 0.92142 0.82434 0.0
C336 C 0.21384 0.88537 0.87264 0.0
C337 C 0.22387 0.87475 0.93713 0.0
C338 C 0.25702 0.9751 0.02471 0.0
C339 C 0.23657 0.92995 0.94535 0.0
C340 C 0.27125 0.00394 0.02265 0.0
C341 C 0.27554 0.01803 0.94326 0.0
C342 C 0.24694 0.96011 0.94695 0.0
C343 C 0.26353 0.00227 0.86767 0.0
C344 C 0.22041 0.91312 0.87605 0.0
C345 C 0.23917 0.892 0.00654 0.0
N346 N 0.24999 0.97409 0.87116 0.0
N347 N 0.2451 0.91875 0.00871 0.0
H348 H 0.25107 0.72856 0.91305 0.0
H349 H 0.14287 0.56558 0.91586 0.0
H350 H 0.16218 0.69296 0.9236 0.0
H351 H 0.23024 0.59969 0.96729 0.0
H352 H 0.15052 0.61243 0.90055 0.0
H353 H 0.24467 0.68172 0.91569 0.0
C354 C 0.23022 0.71094 0.91559 0.0
C355 C 0.20712 0.71472 0.91848 0.0
C356 C 0.16805 0.6097 0.91503 0.0
C357 C 0.19971 0.66119 0.92104 0.0
C358 C 0.16368 0.58292 0.92414 0.0
C359 C 0.18588 0.57863 0.94404 0.0
C360 C 0.19485 0.6325 0.92537 0.0
C361 C 0.21253 0.60197 0.95157 0.0
C362 C 0.22661 0.68423 0.91729 0.0
C363 C 0.18062 0.69111 0.92186 0.0
N364 N 0.21626 0.62792 0.94263 0.0
N365 N 0.17766 0.66541 0.92295 0.0
H366 H 0.46782 0.16174 0.9409 0.0
H367 H 0.63287 0.23289 0.96657 0.0
H368 H 0.52142 0.24914 -0.0094 0.0
H369 H 0.57698 0.14441 0.97408 0.0
H370 H 0.59284 0.23987 0.96522 0.0
H371 H 0.50819 0.15569 0.94143 0.0
C372 C 0.48808 0.17971 0.95185 0.0
C373 C 0.49118 0.20601 0.96581 0.0
C374 C 0.58941 0.21895 0.96707 0.0
C375 C 0.53765 0.19915 0.96633 0.0
C376 C 0.61224 0.21492 0.9682 0.0
C377 C 0.60838 0.18799 0.97022 0.0
C378 C 0.5625 0.19589 0.9675 0.0
C379 C 0.58109 0.16554 0.97087 0.0
C380 C 0.51115 0.1762 0.95235 0.0
C381 C 0.51802 0.22846 0.97983 0.0
N382 N 0.55926 0.17 0.96942 0.0
N383 N 0.54025 0.22453 0.97951 0.0
H384 H 0.39749 0.63467 0.00153 0.0
H385 H 0.30586 0.46941 0.97478 0.0
H386 H 0.43124 0.5798 -0.00882 0.0
H387 H 0.27078 0.52162 0.02865 0.0
H388 H 0.3517 0.51037 0.96929 0.0
H389 H 0.35071 0.5942 0.00146 0.0
C390 C 0.39512 0.61417 -0.00069 0.0
C391 C 0.41843 0.61071 -0.00383 0.0
C392 C 0.33402 0.51293 0.98238 0.0
C393 C 0.36496 0.56437 -0.00482 0.0
C394 C 0.30774 0.4895 0.98541 0.0
C395 C 0.28436 0.49201 0.00254 0.0
C396 C 0.33709 0.53922 -0.00376 0.0
C397 C 0.28823 0.51867 0.01566 0.0
C398 C 0.3684 0.59109 -0.00106 0.0
C399 C 0.414 0.58361 -0.0079 0.0
N400 N 0.31412 0.54128 0.01222 0.0
N401 N 0.38786 0.56156 -0.00822 0.0
H402 H 0.84765 0.42974 0.94911 0.0
H403 H 0.74922 0.26777 0.04227 0.0
H404 H 0.76404 0.39456 0.04574 0.0
H405 H 0.833 0.30413 0.94572 0.0
H406 H 0.75333 0.31357 0.03873 0.0
H407 H 0.84148 0.38333 0.94009 0.0
C408 C 0.82785 0.41223 0.9674 0.0
C409 C 0.80634 0.41612 -0.00165 0.0
C410 C 0.77077 0.31147 0.01816 0.0
C411 C 0.79932 0.36279 -0.0102 0.0
C412 C 0.76846 0.28533 0.02026 0.0
C413 C 0.79085 0.28206 -0.00537 0.0
C414 C 0.79563 0.33452 -0.00977 0.0
C415 C 0.81522 0.30559 0.96643 0.0
C416 C 0.82441 0.38571 0.96292 0.0
C417 C 0.78132 0.3926 0.02264 0.0
N418 N 0.81696 0.33078 0.96518 0.0
N419 N 0.77853 0.36695 0.01815 0.0
H420 H 0.42398 0.85472 0.94473 0.0
H421 H 0.48215 0.75372 0.07187 0.0
H422 H 0.37189 0.7721 0.04516 0.0
H423 H 0.53304 0.83812 0.98356 0.0
H424 H 0.44143 0.75954 0.06328 0.0
H425 H 0.46406 0.84856 0.95983 0.0
C426 C 0.42098 0.83534 0.97084 0.0
C427 C 0.39448 0.81397 -0.00572 0.0
C428 C 0.46154 0.77677 0.046 0.0
C429 C 0.44047 0.80656 0.01035 0.0
C430 C 0.48481 0.77348 0.05089 0.0
C431 C 0.51112 0.79545 0.0283 0.0
C432 C 0.46459 0.80219 0.0182 0.0
C433 C 0.51325 0.82055 0.00155 0.0
C434 C 0.44391 0.83176 0.97889 0.0
C435 C 0.39187 0.78906 0.02565 0.0
N436 N 0.49033 0.82318 -0.00285 0.0
N437 N 0.41459 0.78604 0.0328 0.0
H438 H 0.69829 0.53566 0.98614 0.0
H439 H 0.6067 0.37014 -0.01215 0.0
H440 H 0.73027 0.48257 0.06575 0.0
H441 H 0.57259 0.42437 0.95939 0.0
H442 H 0.65279 0.41082 0.00599 0.0
H443 H 0.65273 0.49479 0.96517 0.0
C444 C 0.69576 0.51542 -0.00062 0.0
C445 C 0.71818 0.51259 0.02804 0.0
C446 C 0.63519 0.41376 -0.0044 0.0
C447 C 0.66595 0.4656 0.00365 0.0
C448 C 0.60884 0.39055 0.98552 0.0
C449 C 0.58562 0.39374 0.97204 0.0
C450 C 0.63842 0.44041 -0.00816 0.0
C451 C 0.58984 0.42079 0.96818 0.0
C452 C 0.66969 0.49207 -0.01258 0.0
C453 C 0.71357 0.48577 0.04401 0.0
N454 N 0.61567 0.44302 0.97807 0.0
N455 N 0.68799 0.46331 0.03139 0.0
H456 H 0.17664 0.37539 0.72858 0.0
H457 H 0.24898 0.44912 0.292 0.0
H458 H 0.2351 0.4632 0.72649 0.0
H459 H 0.16065 0.39294 0.29587 0.0
H460 H 0.24932 0.44932 0.45194 0.0
H461 H 0.17539 0.37588 0.56846 0.0
C462 C 0.18934 0.39468 0.69428 0.0
C463 C 0.20602 0.4193 0.74025 0.0
C464 C 0.22991 0.43703 0.41749 0.0
C465 C 0.20499 0.41985 0.55871 0.0
C466 C 0.2297 0.43681 0.32667 0.0
C467 C 0.20473 0.42105 0.28122 0.0
C468 C 0.20514 0.42069 0.46277 0.0
C469 C 0.18027 0.4055 0.32887 0.0
C470 C 0.18845 0.39496 0.60342 0.0
C471 C 0.22191 0.44383 0.69313 0.0
N472 N 0.18111 0.4054 0.41741 0.0
N473 N 0.22128 0.44345 0.60464 0.0
H474 H 0.74259 0.1908 0.71512 0.0
H475 H 0.83023 0.23177 0.27924 0.0
H476 H 0.8299 0.21732 0.7119 0.0
H477 H 0.74247 0.17267 0.28222 0.0
H478 H 0.83043 0.23194 0.43832 0.0
H479 H 0.74205 0.18933 0.55577 0.0
C480 C 0.76165 0.19642 0.68086 0.0
C481 C 0.78635 0.20424 0.72653 0.0
C482 C 0.81117 0.21887 0.40408 0.0
C483 C 0.78585 0.20272 0.54513 0.0
C484 C 0.811 0.21884 0.31346 0.0
C485 C 0.78627 0.20218 0.26779 0.0
C486 C 0.78637 0.2025 0.44919 0.0
C487 C 0.76198 0.18571 0.31518 0.0
C488 C 0.76127 0.1954 0.59017 0.0
C489 C 0.81041 0.21111 0.67911 0.0
N490 N 0.76257 0.18645 0.40361 0.0
N491 N 0.80961 0.21037 0.59078 0.0
H492 H 0.55043 0.74432 0.74803 0.0
H493 H 0.60159 0.83173 0.31156 0.0
H494 H 0.61427 0.83056 0.74414 0.0
H495 H 0.56842 0.74317 0.31523 0.0
H496 H 0.60133 0.83186 0.47055 0.0
H497 H 0.55153 0.74366 0.58866 0.0
C498 C 0.56457 0.76313 0.71362 0.0
C499 C 0.58227 0.78756 0.7591 0.0
C500 C 0.59422 0.81243 0.43651 0.0
C501 C 0.5835 0.78691 0.57775 0.0
C502 C 0.59424 0.8123 0.34592 0.0
C503 C 0.58498 0.78738 0.30047 0.0
C504 C 0.58442 0.7874 0.48183 0.0
C505 C 0.57584 0.76284 0.34805 0.0
C506 C 0.5653 0.76267 0.62294 0.0
C507 C 0.60034 0.81128 0.71152 0.0
N508 N 0.57556 0.76341 0.43648 0.0
N509 N 0.60036 0.81042 0.62324 0.0
H510 H 0.83227 0.62904 0.76723 0.0
H511 H 0.75338 0.55934 0.33244 0.0
H512 H 0.76956 0.54249 0.76489 0.0
H513 H 0.84262 0.60917 0.33288 0.0
H514 H 0.75409 0.55962 0.49264 0.0
H515 H 0.83177 0.62891 0.60699 0.0
C516 C 0.81836 0.61009 0.73287 0.0
C517 C 0.80103 0.5857 0.77874 0.0
C518 C 0.77343 0.57049 0.45727 0.0
C519 C 0.79989 0.58566 0.59728 0.0
C520 C 0.77306 0.57046 0.36638 0.0
C521 C 0.79799 0.58417 0.32001 0.0
C522 C 0.79884 0.58505 0.50145 0.0
C523 C 0.82299 0.5982 0.36665 0.0
C524 C 0.81818 0.61003 0.64197 0.0
C525 C 0.7834 0.56164 0.73157 0.0
N526 N 0.82279 0.59856 0.45512 0.0
N527 N 0.78302 0.56227 0.64312 0.0
H528 H 0.20064 0.82363 0.20253 0.0
H529 H 0.19994 0.75067 0.64048 0.0
H530 H 0.22726 0.76301 0.20567 0.0
H531 H 0.23484 0.83937 0.63475 0.0
H532 H 0.19983 0.75016 0.48058 0.0
H533 H 0.20287 0.82521 0.36256 0.0
C534 C 0.20674 0.81053 0.23703 0.0
C535 C 0.21376 0.79314 0.19136 0.0
C536 C 0.20757 0.76969 0.51459 0.0
C537 C 0.2159 0.79457 0.37284 0.0
C538 C 0.20755 0.77001 0.60538 0.0
C539 C 0.21749 0.79512 0.65029 0.0
C540 C 0.21675 0.79454 0.46878 0.0
C541 C 0.22721 0.81964 0.60215 0.0
C542 C 0.20819 0.81161 0.32784 0.0
C543 C 0.22178 0.77674 0.23877 0.0
N544 N 0.22625 0.81872 0.51361 0.0
N545 N 0.22231 0.77759 0.32724 0.0
H546 H 0.45283 0.25867 0.68012 0.0
H547 H 0.40215 0.17106 0.24339 0.0
H548 H 0.38889 0.17247 0.67569 0.0
H549 H 0.43534 0.25962 0.24688 0.0
H550 H 0.40234 0.17095 0.40247 0.0
H551 H 0.45202 0.25918 0.52073 0.0
C552 C 0.43872 0.23984 0.64559 0.0
C553 C 0.4209 0.21547 0.69092 0.0
C554 C 0.40948 0.19037 0.36833 0.0
C555 C 0.42002 0.21593 0.50951 0.0
C556 C 0.4095 0.19049 0.27771 0.0
C557 C 0.41876 0.21541 0.23219 0.0
C558 C 0.41924 0.21541 0.41358 0.0
C559 C 0.42792 0.23996 0.27971 0.0
C560 C 0.43816 0.24021 0.55488 0.0
C561 C 0.40289 0.19171 0.64316 0.0
N562 N 0.42814 0.23939 0.36814 0.0
N563 N 0.40303 0.19248 0.55485 0.0
loop_
_geom_bond_atom_site_label_1
_geom_bond_atom_site_label_2
_geom_bond_distance
_geom_bond_site_symmetry_2
_ccdc_geom_bond_type
Eu0 C9 2.828 1_556 S
Eu0 O11 2.392 . S
Eu0 O13 2.418 . S
Eu0 O18 2.373 . S
Eu0 O21 2.488 . S
Eu0 O22 2.471 1_556 S
Eu0 O23 2.349 1_556 S
Eu1 O10 2.373 . S
Eu1 O14 2.488 . S
Eu1 O15 2.471 1_554 S
Eu1 O16 2.349 1_554 S
Eu1 O19 2.392 . S
Eu1 O20 2.418 . S
Eu1 C30 2.828 1_554 S
C2 O20 1.244 . S
C2 O23 1.265 . S
C3 C4 1.379 . S
C3 C7 1.373 1_554 S
C3 C9 1.505 . S
C4 C3 1.379 . S
C4 C6 1.369 . S
C4 H32 0.930 . S
C5 C7 1.383 . S
C5 C8 1.382 1_556 S
C5 H33 0.930 . S
C6 C4 1.369 . S
C6 C8 1.392 . S
C6 H34 0.930 . S
C7 C3 1.373 1_556 S
C7 C5 1.383 . S
C7 H35 0.931 . S
C8 C5 1.382 1_554 S
C8 C6 1.392 . S
C9 Eu0 2.828 1_554 S
C9 C3 1.505 . S
C9 O21 1.249 1_554 S
C9 O22 1.244 . S
O10 Eu1 2.373 . S
O10 C12 1.258 . S
O11 Eu0 2.392 . S
O11 C12 1.242 1_556 S
C12 O10 1.258 . S
C12 O11 1.242 1_554 S
O13 Eu0 2.418 . S
O13 C17 1.244 . S
O14 Eu1 2.488 . S
O14 C30 1.249 1_554 S
O15 Eu1 2.471 1_556 S
O15 C30 1.244 . S
O16 Eu1 2.349 1_556 S
O16 C17 1.265 . S
C17 O13 1.244 . S
C17 O16 1.265 . S
O18 Eu0 2.373 . S
O18 C31 1.258 . S
O19 Eu1 2.392 . S
O19 C31 1.242 1_554 S
O20 Eu1 2.418 . S
O20 C2 1.244 . S
O21 Eu0 2.488 . S
O21 C9 1.249 1_556 S
O22 Eu0 2.471 1_554 S
O22 C9 1.244 . S
O23 Eu0 2.349 1_554 S
O23 C2 1.265 . S
C24 C25 1.379 . S
C24 C28 1.373 1_556 S
C24 C30 1.505 . S
C25 C24 1.379 . S
C25 C27 1.369 . S
C25 H36 0.930 . S
C26 C28 1.383 . S
C26 C29 1.382 1_554 S
C26 H37 0.930 . S
C27 C25 1.369 . S
C27 C29 1.392 . S
C27 H38 0.930 . S
C28 C24 1.373 1_554 S
C28 C26 1.383 . S
C28 H39 0.931 . S
C29 C26 1.382 1_556 S
C29 C27 1.392 . S
C30 Eu1 2.828 1_556 S
C30 O14 1.249 1_556 S
C30 O15 1.244 . S
C30 C24 1.505 . S
C31 O18 1.258 . S
C31 O19 1.242 1_556 S
H32 C4 0.930 . S
H33 C5 0.930 . S
H34 C6 0.930 . S
H35 C7 0.931 . S
H36 C25 0.930 . S
H37 C26 0.930 . S
H38 C27 0.930 . S
H39 C28 0.931 . S
Eu40 C49 2.828 1_556 S
Eu40 O51 2.392 . S
Eu40 O53 2.418 . S
Eu40 O58 2.373 . S
Eu40 O61 2.488 . S
Eu40 O62 2.471 1_556 S
Eu40 O63 2.349 1_556 S
Eu41 O50 2.373 . S
Eu41 O54 2.488 . S
Eu41 O55 2.471 1_554 S
Eu41 O56 2.349 1_554 S
Eu41 O59 2.392 . S
Eu41 O60 2.418 . S
Eu41 C70 2.828 1_554 S
C42 O60 1.244 . S
C42 O63 1.265 . S
C43 C44 1.379 . S
C43 C47 1.373 1_554 S
C43 C49 1.505 . S
C44 C43 1.379 . S
C44 C46 1.369 . S
C44 H72 0.930 . S
C45 C47 1.383 . S
C45 C48 1.382 1_556 S
C45 H73 0.930 . S
C46 C44 1.369 . S
C46 C48 1.392 . S
C46 H74 0.930 . S
C47 C43 1.373 1_556 S
C47 C45 1.383 . S
C47 H75 0.931 . S
C48 C45 1.382 1_554 S
C48 C46 1.392 . S
C49 Eu40 2.828 1_554 S
C49 C43 1.505 . S
C49 O61 1.249 1_554 S
C49 O62 1.244 . S
O50 Eu41 2.373 . S
O50 C52 1.258 . S
O51 Eu40 2.392 . S
O51 C52 1.242 1_556 S
C52 O50 1.258 . S
C52 O51 1.242 1_554 S
O53 Eu40 2.418 . S
O53 C57 1.244 . S
O54 Eu41 2.488 . S
O54 C70 1.249 1_554 S
O55 Eu41 2.471 1_556 S
O55 C70 1.244 . S
O56 Eu41 2.349 1_556 S
O56 C57 1.265 . S
C57 O53 1.244 . S
C57 O56 1.265 . S
O58 Eu40 2.373 . S
O58 C71 1.258 . S
O59 Eu41 2.392 . S
O59 C71 1.242 1_554 S
O60 Eu41 2.418 . S
O60 C42 1.244 . S
O61 Eu40 2.488 . S
O61 C49 1.249 1_556 S
O62 Eu40 2.471 1_554 S
O62 C49 1.244 . S
O63 Eu40 2.349 1_554 S
O63 C42 1.265 . S
C64 C65 1.379 . S
C64 C68 1.373 1_556 S
C64 C70 1.505 . S
C65 C64 1.379 . S
C65 C67 1.369 . S
C65 H76 0.930 . S
C66 C68 1.383 . S
C66 C69 1.382 1_554 S
C66 H77 0.930 . S
C67 C65 1.369 . S
C67 C69 1.392 . S
C67 H78 0.930 . S
C68 C64 1.373 1_554 S
C68 C66 1.383 . S
C68 H79 0.931 . S
C69 C66 1.382 1_556 S
C69 C67 1.392 . S
C70 Eu41 2.828 1_556 S
C70 O54 1.249 1_556 S
C70 O55 1.244 . S
C70 C64 1.505 . S
C71 O58 1.258 . S
C71 O59 1.242 1_556 S
H72 C44 0.930 . S
H73 C45 0.930 . S
H74 C46 0.930 . S
H75 C47 0.931 . S
H76 C65 0.930 . S
H77 C66 0.930 . S
H78 C67 0.930 . S
H79 C68 0.931 . S
Eu80 C89 2.828 1_556 S
Eu80 O91 2.392 . S
Eu80 O93 2.418 . S
Eu80 O98 2.373 . S
Eu80 O101 2.488 . S
Eu80 O102 2.471 1_556 S
Eu80 O103 2.349 1_556 S
Eu81 O90 2.373 . S
Eu81 O94 2.488 . S
Eu81 O95 2.471 1_554 S
Eu81 O96 2.349 1_554 S
Eu81 O99 2.392 . S
Eu81 O100 2.418 . S
Eu81 C110 2.828 1_554 S
C82 O100 1.244 . S
C82 O103 1.265 . S
C83 C84 1.379 . S
C83 C87 1.373 1_554 S
C83 C89 1.505 . S
C84 C83 1.379 . S
C84 C86 1.369 . S
C84 H112 0.930 . S
C85 C87 1.383 . S
C85 C88 1.382 1_556 S
C85 H113 0.930 . S
C86 C84 1.369 . S
C86 C88 1.392 . S
C86 H114 0.930 . S
C87 C83 1.373 1_556 S
C87 C85 1.383 . S
C87 H115 0.931 . S
C88 C85 1.382 1_554 S
C88 C86 1.392 . S
C89 Eu80 2.828 1_554 S
C89 C83 1.505 . S
C89 O101 1.249 1_554 S
C89 O102 1.244 . S
O90 Eu81 2.373 . S
O90 C92 1.258 . S
O91 Eu80 2.392 . S
O91 C92 1.242 1_556 S
C92 O90 1.258 . S
C92 O91 1.242 1_554 S
O93 Eu80 2.418 . S
O93 C97 1.244 . S
O94 Eu81 2.488 . S
O94 C110 1.249 1_554 S
O95 Eu81 2.471 1_556 S
O95 C110 1.244 . S
O96 Eu81 2.349 1_556 S
O96 C97 1.265 . S
C97 O93 1.244 . S
C97 O96 1.265 . S
O98 Eu80 2.373 . S
O98 C111 1.258 . S
O99 Eu81 2.392 . S
O99 C111 1.242 1_554 S
O100 Eu81 2.418 . S
O100 C82 1.244 . S
O101 Eu80 2.488 . S
O101 C89 1.249 1_556 S
O102 Eu80 2.471 1_554 S
O102 C89 1.244 . S
O103 Eu80 2.349 1_554 S
O103 C82 1.265 . S
C104 C105 1.379 . S
C104 C108 1.373 1_556 S
C104 C110 1.505 . S
C105 C104 1.379 . S
C105 C107 1.369 . S
C105 H116 0.930 . S
C106 C108 1.383 . S
C106 C109 1.382 1_554 S
C106 H117 0.930 . S
C107 C105 1.369 . S
C107 C109 1.392 . S
C107 H118 0.930 . S
C108 C104 1.373 1_554 S
C108 C106 1.383 . S
C108 H119 0.931 . S
C109 C106 1.382 1_556 S
C109 C107 1.392 . S
C110 Eu81 2.828 1_556 S
C110 O94 1.249 1_556 S
C110 O95 1.244 . S
C110 C104 1.505 . S
C111 O98 1.258 . S
C111 O99 1.242 1_556 S
H112 C84 0.930 . S
H113 C85 0.930 . S
H114 C86 0.930 . S
H115 C87 0.931 . S
H116 C105 0.930 . S
H117 C106 0.930 . S
H118 C107 0.930 . S
H119 C108 0.931 . S
Eu120 C129 2.828 1_556 S
Eu120 O131 2.392 . S
Eu120 O133 2.418 . S
Eu120 O138 2.373 . S
Eu120 O141 2.488 . S
Eu120 O142 2.471 1_556 S
Eu120 O143 2.349 1_556 S
Eu121 O130 2.373 . S
Eu121 O134 2.488 . S
Eu121 O135 2.471 1_554 S
Eu121 O136 2.349 1_554 S
Eu121 O139 2.392 . S
Eu121 O140 2.418 . S
Eu121 C150 2.828 1_554 S
C122 O140 1.244 . S
C122 O143 1.265 . S
C123 C124 1.379 . S
C123 C127 1.373 1_554 S
C123 C129 1.505 . S
C124 C123 1.379 . S
C124 C126 1.369 . S
C124 H152 0.930 . S
C125 C127 1.383 . S
C125 C128 1.382 1_556 S
C125 H153 0.930 . S
C126 C124 1.369 . S
C126 C128 1.392 . S
C126 H154 0.930 . S
C127 C123 1.373 1_556 S
C127 C125 1.383 . S
C127 H155 0.931 . S
C128 C125 1.382 1_554 S
C128 C126 1.392 . S
C129 Eu120 2.828 1_554 S
C129 C123 1.505 . S
C129 O141 1.249 1_554 S
C129 O142 1.244 . S
O130 Eu121 2.373 . S
O130 C132 1.258 . S
O131 Eu120 2.392 . S
O131 C132 1.242 1_556 S
C132 O130 1.258 . S
C132 O131 1.242 1_554 S
O133 Eu120 2.418 . S
O133 C137 1.244 . S
O134 Eu121 2.488 . S
O134 C150 1.249 1_554 S
O135 Eu121 2.471 1_556 S
O135 C150 1.244 . S
O136 Eu121 2.349 1_556 S
O136 C137 1.265 . S
C137 O133 1.244 . S
C137 O136 1.265 . S
O138 Eu120 2.373 . S
O138 C151 1.258 . S
O139 Eu121 2.392 . S
O139 C151 1.242 1_554 S
O140 Eu121 2.418 . S
O140 C122 1.244 . S
O141 Eu120 2.488 . S
O141 C129 1.249 1_556 S
O142 Eu120 2.471 1_554 S
O142 C129 1.244 . S
O143 Eu120 2.349 1_554 S
O143 C122 1.265 . S
C144 C145 1.379 . S
C144 C148 1.373 1_556 S
C144 C150 1.505 . S
C145 C144 1.379 . S
C145 C147 1.369 . S
C145 H156 0.930 . S
C146 C148 1.383 . S
C146 C149 1.382 1_554 S
C146 H157 0.930 . S
C147 C145 1.369 . S
C147 C149 1.392 . S
C147 H158 0.930 . S
C148 C144 1.373 1_554 S
C148 C146 1.383 . S
C148 H159 0.931 . S
C149 C146 1.382 1_556 S
C149 C147 1.392 . S
C150 Eu121 2.828 1_556 S
C150 O134 1.249 1_556 S
C150 O135 1.244 . S
C150 C144 1.505 . S
C151 O138 1.258 . S
C151 O139 1.242 1_556 S
H152 C124 0.930 . S
H153 C125 0.930 . S
H154 C126 0.930 . S
H155 C127 0.931 . S
H156 C145 0.930 . S
H157 C146 0.930 . S
H158 C147 0.930 . S
H159 C148 0.931 . S
Eu160 C169 2.828 1_556 S
Eu160 O171 2.392 . S
Eu160 O173 2.418 . S
Eu160 O178 2.373 . S
Eu160 O181 2.488 . S
Eu160 O182 2.471 1_556 S
Eu160 O183 2.349 1_556 S
Eu161 O170 2.373 . S
Eu161 O174 2.488 . S
Eu161 O175 2.471 1_554 S
Eu161 O176 2.349 1_554 S
Eu161 O179 2.392 . S
Eu161 O180 2.418 . S
Eu161 C190 2.828 1_554 S
C162 O180 1.244 . S
C162 O183 1.265 . S
C163 C164 1.379 . S
C163 C167 1.373 1_554 S
C163 C169 1.505 . S
C164 C163 1.379 . S
C164 C166 1.369 . S
C164 H192 0.930 . S
C165 C167 1.383 . S
C165 C168 1.382 1_556 S
C165 H193 0.930 . S
C166 C164 1.369 . S
C166 C168 1.392 . S
C166 H194 0.930 . S
C167 C163 1.373 1_556 S
C167 C165 1.383 . S
C167 H195 0.931 . S
C168 C165 1.382 1_554 S
C168 C166 1.392 . S
C169 Eu160 2.828 1_554 S
C169 C163 1.505 . S
C169 O181 1.249 1_554 S
C169 O182 1.244 . S
O170 Eu161 2.373 . S
O170 C172 1.258 . S
O171 Eu160 2.392 . S
O171 C172 1.242 1_556 S
C172 O170 1.258 . S
C172 O171 1.242 1_554 S
O173 Eu160 2.418 . S
O173 C177 1.244 . S
O174 Eu161 2.488 . S
O174 C190 1.249 1_554 S
O175 Eu161 2.471 1_556 S
O175 C190 1.244 . S
O176 Eu161 2.349 1_556 S
O176 C177 1.265 . S
C177 O173 1.244 . S
C177 O176 1.265 . S
O178 Eu160 2.373 . S
O178 C191 1.258 . S
O179 Eu161 2.392 . S
O179 C191 1.242 1_554 S
O180 Eu161 2.418 . S
O180 C162 1.244 . S
O181 Eu160 2.488 . S
O181 C169 1.249 1_556 S
O182 Eu160 2.471 1_554 S
O182 C169 1.244 . S
O183 Eu160 2.349 1_554 S
O183 C162 1.265 . S
C184 C185 1.379 . S
C184 C188 1.373 1_556 S
C184 C190 1.505 . S
C185 C184 1.379 . S
C185 C187 1.369 . S
C185 H196 0.930 . S
C186 C188 1.383 . S
C186 C189 1.382 1_554 S
C186 H197 0.930 . S
C187 C185 1.369 . S
C187 C189 1.392 . S
C187 H198 0.930 . S
C188 C184 1.373 1_554 S
C188 C186 1.383 . S
C188 H199 0.931 . S
C189 C186 1.382 1_556 S
C189 C187 1.392 . S
C190 Eu161 2.828 1_556 S
C190 O174 1.249 1_556 S
C190 O175 1.244 . S
C190 C184 1.505 . S
C191 O178 1.258 . S
C191 O179 1.242 1_556 S
H192 C164 0.930 . S
H193 C165 0.930 . S
H194 C166 0.930 . S
H195 C167 0.931 . S
H196 C185 0.930 . S
H197 C186 0.930 . S
H198 C187 0.930 . S
H199 C188 0.931 . S
Eu200 C209 2.828 1_556 S
Eu200 O211 2.392 . S
Eu200 O213 2.418 . S
Eu200 O218 2.373 . S
Eu200 O221 2.488 . S
Eu200 O222 2.471 1_556 S
Eu200 O223 2.349 1_556 S
Eu201 O210 2.373 . S
Eu201 O214 2.488 . S
Eu201 O215 2.471 1_554 S
Eu201 O216 2.349 1_554 S
Eu201 O219 2.392 . S
Eu201 O220 2.418 . S
Eu201 C230 2.828 1_554 S
C202 O220 1.244 . S
C202 O223 1.265 . S
C203 C204 1.379 . S
C203 C207 1.373 1_554 S
C203 C209 1.505 . S
C204 C203 1.379 . S
C204 C206 1.369 . S
C204 H232 0.930 . S
C205 C207 1.383 . S
C205 C208 1.382 1_556 S
C205 H233 0.930 . S
C206 C204 1.369 . S
C206 C208 1.392 . S
C206 H234 0.930 . S
C207 C203 1.373 1_556 S
C207 C205 1.383 . S
C207 H235 0.931 . S
C208 C205 1.382 1_554 S
C208 C206 1.392 . S
C209 Eu200 2.828 1_554 S
C209 C203 1.505 . S
C209 O221 1.249 1_554 S
C209 O222 1.244 . S
O210 Eu201 2.373 . S
O210 C212 1.258 . S
O211 Eu200 2.392 . S
O211 C212 1.242 1_556 S
C212 O210 1.258 . S
C212 O211 1.242 1_554 S
O213 Eu200 2.418 . S
O213 C217 1.244 . S
O214 Eu201 2.488 . S
O214 C230 1.249 1_554 S
O215 Eu201 2.471 1_556 S
O215 C230 1.244 . S
O216 Eu201 2.349 1_556 S
O216 C217 1.265 . S
C217 O213 1.244 . S
C217 O216 1.265 . S
O218 Eu200 2.373 . S
O218 C231 1.258 . S
O219 Eu201 2.392 . S
O219 C231 1.242 1_554 S
O220 Eu201 2.418 . S
O220 C202 1.244 . S
O221 Eu200 2.488 . S
O221 C209 1.249 1_556 S
O222 Eu200 2.471 1_554 S
O222 C209 1.244 . S
O223 Eu200 2.349 1_554 S
O223 C202 1.265 . S
C224 C225 1.379 . S
C224 C228 1.373 1_556 S
C224 C230 1.505 . S
C225 C224 1.379 . S
C225 C227 1.369 . S
C225 H236 0.930 . S
C226 C228 1.383 . S
C226 C229 1.382 1_554 S
C226 H237 0.930 . S
C227 C225 1.369 . S
C227 C229 1.392 . S
C227 H238 0.930 . S
C228 C224 1.373 1_554 S
C228 C226 1.383 . S
C228 H239 0.931 . S
C229 C226 1.382 1_556 S
C229 C227 1.392 . S
C230 Eu201 2.828 1_556 S
C230 O214 1.249 1_556 S
C230 O215 1.244 . S
C230 C224 1.505 . S
C231 O218 1.258 . S
C231 O219 1.242 1_556 S
H232 C204 0.930 . S
H233 C205 0.930 . S
H234 C206 0.930 . S
H235 C207 0.931 . S
H236 C225 0.930 . S
H237 C226 0.930 . S
H238 C227 0.930 . S
H239 C228 0.931 . S
H240 C246 0.930 . S
H241 C250 0.930 . S
H242 C255 0.929 . S
H243 C253 0.929 . S
H244 C248 0.929 . S
H245 C254 0.929 . S
C246 H240 0.930 . S
C246 C247 1.367 . S
C246 C254 1.378 . S
C247 C246 1.367 . S
C247 C255 1.433 1_554 S
C248 H244 0.929 . S
C248 C250 1.378 . S
C248 C252 1.350 1_556 S
C249 C252 1.463 . S
C249 C254 1.350 . S
C249 N257 1.427 1_554 S
C250 H241 0.930 . S
C250 C248 1.378 . S
C250 C251 1.367 1_556 S
C251 C250 1.367 1_554 S
C251 C253 1.433 . S
C252 C248 1.350 1_554 S
C252 C249 1.463 . S
C252 N256 1.427 . S
C253 H243 0.929 . S
C253 C251 1.433 . S
C253 N256 1.384 . S
C254 H245 0.929 . S
C254 C246 1.378 . S
C254 C249 1.350 . S
C255 H242 0.929 . S
C255 C247 1.433 1_556 S
C255 N257 1.384 . S
N256 C252 1.427 . S
N256 C253 1.384 . S
N257 C249 1.427 1_556 S
N257 C255 1.384 . S
H258 C264 0.930 . S
H259 C268 0.931 . S
H260 C273 0.929 . S
H261 C271 0.929 . S
H262 C266 0.929 . S
H263 C272 0.929 . S
C264 H258 0.930 . S
C264 C265 1.367 . S
C264 C272 1.378 . S
C265 C264 1.367 . S
C265 C273 1.433 1_554 S
C266 H262 0.929 . S
C266 C268 1.376 1_455 S
C266 C270 1.350 1_556 S
C267 C270 1.463 . S
C267 C272 1.350 . S
C267 N275 1.427 1_554 S
C268 H259 0.931 . S
C268 C266 1.376 1_655 S
C268 C269 1.369 1_556 S
C269 C268 1.369 1_554 S
C269 C271 1.433 . S
C270 C266 1.350 1_554 S
C270 C267 1.463 . S
C270 N274 1.427 . S
C271 H261 0.929 . S
C271 C269 1.433 . S
C271 N274 1.384 1_655 S
C272 H263 0.929 . S
C272 C264 1.378 . S
C272 C267 1.350 . S
C273 H260 0.929 . S
C273 C265 1.433 1_556 S
C273 N275 1.384 . S
N274 C270 1.427 . S
N274 C271 1.384 1_455 S
N275 C267 1.427 1_556 S
N275 C273 1.384 . S
H276 C282 0.930 . S
H277 C286 0.930 . S
H278 C291 0.929 . S
H279 C289 0.929 . S
H280 C284 0.929 . S
H281 C290 0.929 . S
C282 H276 0.930 . S
C282 C283 1.369 . S
C282 C290 1.378 . S
C283 C282 1.369 . S
C283 C291 1.430 1_556 S
C284 H280 0.929 . S
C284 C286 1.378 1_545 S
C284 C288 1.350 . S
C285 C288 1.463 . S
C285 C290 1.350 1_554 S
C285 N293 1.427 . S
C286 H277 0.930 . S
C286 C284 1.378 1_565 S
C286 C287 1.367 . S
C287 C286 1.367 . S
C287 C289 1.433 1_554 S
C288 C284 1.350 . S
C288 C285 1.463 . S
C288 N292 1.427 1_554 S
C289 H279 0.929 . S
C289 C287 1.433 1_556 S
C289 N292 1.384 1_565 S
C290 H281 0.929 . S
C290 C282 1.378 . S
C290 C285 1.350 1_556 S
C291 H278 0.929 . S
C291 C283 1.430 1_554 S
C291 N293 1.384 . S
N292 C288 1.427 1_556 S
N292 C289 1.384 1_545 S
N293 C285 1.427 . S
N293 C291 1.384 . S
H294 C300 0.930 . S
H295 C304 0.930 . S
H296 C309 0.929 . S
H297 C307 0.929 . S
H298 C302 0.929 . S
H299 C308 0.929 . S
C300 H294 0.930 . S
C300 C301 1.367 . S
C300 C308 1.378 . S
C301 C300 1.367 . S
C301 C309 1.433 1_554 S
C302 H298 0.929 . S
C302 C304 1.378 . S
C302 C306 1.350 1_556 S
C303 C306 1.463 . S
C303 C308 1.350 . S
C303 N311 1.427 1_554 S
C304 H295 0.930 . S
C304 C302 1.378 . S
C304 C305 1.367 . S
C305 C304 1.367 . S
C305 C307 1.433 1_556 S
C306 C302 1.350 1_554 S
C306 C303 1.463 . S
C306 N310 1.427 . S
C307 H297 0.929 . S
C307 C305 1.433 1_554 S
C307 N310 1.384 . S
C308 H299 0.929 . S
C308 C300 1.378 . S
C308 C303 1.350 . S
C309 H296 0.929 . S
C309 C301 1.433 1_556 S
C309 N311 1.384 . S
N310 C306 1.427 . S
N310 C307 1.384 . S
N311 C303 1.427 1_556 S
N311 C309 1.384 . S
H312 C318 0.930 . S
H313 C322 0.930 . S
H314 C327 0.929 1_455 S
H315 C325 0.929 . S
H316 C320 0.929 . S
H317 C326 0.929 . S
C318 H312 0.930 . S
C318 C319 1.367 . S
C318 C326 1.378 1_455 S
C319 C318 1.367 . S
C319 C327 1.433 1_454 S
C320 H316 0.929 . S
C320 C322 1.378 . S
C320 C324 1.350 1_556 S
C321 C324 1.463 . S
C321 C326 1.350 . S
C321 N329 1.427 1_554 S
C322 H313 0.930 . S
C322 C320 1.378 . S
C322 C323 1.366 . S
C323 C322 1.366 . S
C323 C325 1.434 1_556 S
C324 C320 1.350 1_554 S
C324 C321 1.463 . S
C324 N328 1.427 . S
C325 H315 0.929 . S
C325 C323 1.434 1_554 S
C325 N328 1.384 . S
C326 H317 0.929 . S
C326 C318 1.378 1_655 S
C326 C321 1.350 . S
C327 H314 0.929 1_655 S
C327 C319 1.433 1_656 S
C327 N329 1.384 . S
N328 C324 1.427 . S
N328 C325 1.384 . S
N329 C321 1.427 1_556 S
N329 C327 1.384 . S
H330 C336 0.930 . S
H331 C340 0.930 . S
H332 C345 0.929 . S
H333 C343 0.929 . S
H334 C338 0.929 . S
H335 C344 0.929 . S
C336 H330 0.930 . S
C336 C337 1.371 . S
C336 C344 1.378 . S
C337 C336 1.371 . S
C337 C345 1.428 1_556 S
C338 H334 0.929 . S
C338 C340 1.378 1_565 S
C338 C342 1.350 . S
C339 C342 1.463 . S
C339 C344 1.350 1_554 S
C339 N347 1.427 . S
C340 H331 0.930 . S
C340 C338 1.378 1_545 S
C340 C341 1.367 . S
C341 C340 1.367 . S
C341 C343 1.433 1_554 S
C342 C338 1.350 . S
C342 C339 1.463 . S
C342 N346 1.427 1_554 S
C343 H333 0.929 . S
C343 C341 1.433 1_556 S
C343 N346 1.384 1_545 S
C344 H335 0.929 . S
C344 C336 1.378 . S
C344 C339 1.350 1_556 S
C345 H332 0.929 . S
C345 C337 1.428 1_554 S
C345 N347 1.384 . S
N346 C342 1.427 1_556 S
N346 C343 1.384 1_565 S
N347 C339 1.427 . S
N347 C345 1.384 . S
H348 C354 0.930 . S
H349 C358 0.930 . S
H350 C363 0.929 . S
H351 C361 0.929 . S
H352 C356 0.929 . S
H353 C362 0.929 . S
C354 H348 0.930 . S
C354 C355 1.367 . S
C354 C362 1.378 . S
C355 C354 1.367 . S
C355 C363 1.433 1_556 S
C356 H352 0.929 . S
C356 C358 1.378 . S
C356 C360 1.350 1_554 S
C357 C360 1.463 . S
C357 C362 1.350 . S
C357 N365 1.427 1_556 S
C358 H349 0.930 . S
C358 C356 1.378 . S
C358 C359 1.367 1_554 S
C359 C358 1.367 1_556 S
C359 C361 1.433 . S
C360 C356 1.350 1_556 S
C360 C357 1.463 . S
C360 N364 1.427 . S
C361 H351 0.929 . S
C361 C359 1.433 . S
C361 N364 1.384 . S
C362 H353 0.929 . S
C362 C354 1.378 . S
C362 C357 1.350 . S
C363 H350 0.929 . S
C363 C355 1.433 1_554 S
C363 N365 1.384 . S
N364 C360 1.427 . S
N364 C361 1.384 . S
N365 C357 1.427 1_554 S
N365 C363 1.384 . S
H366 C372 0.930 . S
H367 C376 0.930 . S
H368 C381 0.929 . S
H369 C379 0.929 . S
H370 C374 0.929 . S
H371 C380 0.929 . S
C372 H366 0.930 . S
C372 C373 1.367 . S
C372 C380 1.378 . S
C373 C372 1.367 . S
C373 C381 1.433 1_556 S
C374 H370 0.929 . S
C374 C376 1.378 . S
C374 C378 1.350 1_554 S
C375 C378 1.463 . S
C375 C380 1.350 . S
C375 N383 1.427 1_556 S
C376 H367 0.930 . S
C376 C374 1.378 . S
C376 C377 1.367 1_554 S
C377 C376 1.367 1_556 S
C377 C379 1.433 . S
C378 C374 1.350 1_556 S
C378 C375 1.463 . S
C378 N382 1.427 . S
C379 H369 0.929 . S
C379 C377 1.433 . S
C379 N382 1.384 . S
C380 H371 0.929 . S
C380 C372 1.378 . S
C380 C375 1.350 . S
C381 H368 0.929 . S
C381 C373 1.433 1_554 S
C381 N383 1.384 . S
N382 C378 1.427 . S
N382 C379 1.384 . S
N383 C375 1.427 1_554 S
N383 C381 1.384 . S
H384 C390 0.930 . S
H385 C394 0.930 . S
H386 C399 0.929 . S
H387 C397 0.929 . S
H388 C392 0.929 . S
H389 C398 0.929 . S
C390 H384 0.930 . S
C390 C391 1.367 1_554 S
C390 C398 1.378 . S
C391 C390 1.367 1_556 S
C391 C399 1.433 . S
C392 H388 0.929 . S
C392 C394 1.378 . S
C392 C396 1.350 . S
C393 C396 1.463 . S
C393 C398 1.350 1_556 S
C393 N401 1.427 . S
C394 H385 0.930 . S
C394 C392 1.378 . S
C394 C395 1.367 . S
C395 C394 1.367 . S
C395 C397 1.433 1_556 S
C396 C392 1.350 . S
C396 C393 1.463 . S
C396 N400 1.427 1_556 S
C397 H387 0.929 . S
C397 C395 1.433 1_554 S
C397 N400 1.384 . S
C398 H389 0.929 . S
C398 C390 1.378 . S
C398 C393 1.350 1_554 S
C399 H386 0.929 . S
C399 C391 1.433 . S
C399 N401 1.384 . S
N400 C396 1.427 1_554 S
N400 C397 1.384 . S
N401 C393 1.427 . S
N401 C399 1.384 . S
H402 C408 0.930 . S
H403 C412 0.930 . S
H404 C417 0.929 . S
H405 C415 0.929 . S
H406 C410 0.929 . S
H407 C416 0.929 . S
C408 H402 0.930 . S
C408 C409 1.367 . S
C408 C416 1.378 . S
C409 C408 1.367 . S
C409 C417 1.433 1_556 S
C410 H406 0.929 . S
C410 C412 1.378 . S
C410 C414 1.350 1_554 S
C411 C414 1.463 . S
C411 C416 1.350 . S
C411 N419 1.427 1_556 S
C412 H403 0.930 . S
C412 C410 1.378 . S
C412 C413 1.370 . S
C413 C412 1.370 . S
C413 C415 1.430 1_554 S
C414 C410 1.350 1_556 S
C414 C411 1.463 . S
C414 N418 1.427 . S
C415 H405 0.929 . S
C415 C413 1.430 1_556 S
C415 N418 1.384 . S
C416 H407 0.929 . S
C416 C408 1.378 . S
C416 C411 1.350 . S
C417 H404 0.929 . S
C417 C409 1.433 1_554 S
C417 N419 1.384 . S
N418 C414 1.427 . S
N418 C415 1.384 . S
N419 C411 1.427 1_554 S
N419 C417 1.384 . S
H420 C426 0.930 . S
H421 C430 0.930 . S
H422 C435 0.929 . S
H423 C433 0.929 . S
H424 C428 0.928 1_554 S
H425 C434 0.929 . S
C426 H420 0.930 . S
C426 C427 1.367 . S
C426 C434 1.378 . S
C427 C426 1.367 . S
C427 C435 1.433 . S
C428 H424 0.928 1_556 S
C428 C430 1.378 1_556 S
C428 C432 1.350 . S
C429 C432 1.463 . S
C429 C434 1.350 . S
C429 N437 1.427 . S
C430 H421 0.930 . S
C430 C428 1.378 1_554 S
C430 C431 1.367 1_554 S
C431 C430 1.367 1_556 S
C431 C433 1.433 . S
C432 C428 1.350 . S
C432 C429 1.463 . S
C432 N436 1.427 . S
C433 H423 0.929 . S
C433 C431 1.433 . S
C433 N436 1.384 . S
C434 H425 0.929 . S
C434 C426 1.378 . S
C434 C429 1.350 . S
C435 H422 0.929 . S
C435 C427 1.433 . S
C435 N437 1.384 . S
N436 C432 1.427 . S
N436 C433 1.384 . S
N437 C429 1.427 . S
N437 C435 1.384 . S
H438 C444 0.930 . S
H439 C448 0.930 . S
H440 C453 0.929 . S
H441 C451 0.929 . S
H442 C446 0.929 . S
H443 C452 0.929 . S
C444 H438 0.930 . S
C444 C445 1.367 . S
C444 C452 1.378 . S
C445 C444 1.367 . S
C445 C453 1.433 1_556 S
C446 H442 0.929 . S
C446 C448 1.378 . S
C446 C450 1.350 1_554 S
C447 C450 1.463 . S
C447 C452 1.350 . S
C447 N455 1.427 1_556 S
C448 H439 0.930 . S
C448 C446 1.378 . S
C448 C449 1.367 1_554 S
C449 C448 1.367 1_556 S
C449 C451 1.433 . S
C450 C446 1.350 1_556 S
C450 C447 1.463 . S
C450 N454 1.427 . S
C451 H441 0.929 . S
C451 C449 1.433 . S
C451 N454 1.384 . S
C452 H443 0.929 . S
C452 C444 1.378 . S
C452 C447 1.350 . S
C453 H440 0.929 . S
C453 C445 1.433 1_554 S
C453 N455 1.384 . S
N454 C450 1.427 . S
N454 C451 1.384 . S
N455 C447 1.427 1_554 S
N455 C453 1.384 . S
H456 C462 0.930 . S
H457 C466 0.930 . S
H458 C471 0.929 . S
H459 C469 0.929 . S
H460 C464 0.929 . S
H461 C470 0.929 . S
C462 H456 0.930 . S
C462 C463 1.367 . S
C462 C470 1.378 . S
C463 C462 1.367 . S
C463 C471 1.433 . S
C464 H460 0.929 . S
C464 C466 1.378 . S
C464 C468 1.350 . S
C465 C468 1.463 . S
C465 C470 1.350 . S
C465 N473 1.427 . S
C466 H457 0.930 . S
C466 C464 1.378 . S
C466 C467 1.367 . S
C467 C466 1.367 . S
C467 C469 1.433 . S
C468 C464 1.350 . S
C468 C465 1.463 . S
C468 N472 1.427 . S
C469 H459 0.929 . S
C469 C467 1.433 . S
C469 N472 1.384 . S
C470 H461 0.929 . S
C470 C462 1.378 . S
C470 C465 1.350 . S
C471 H458 0.929 . S
C471 C463 1.433 . S
C471 N473 1.384 . S
N472 C468 1.427 . S
N472 C469 1.384 . S
N473 C465 1.427 . S
N473 C471 1.384 . S
H474 C480 0.930 . S
H475 C484 0.930 . S
H476 C489 0.929 . S
H477 C487 0.929 . S
H478 C482 0.929 . S
H479 C488 0.929 . S
C480 H474 0.930 . S
C480 C481 1.367 . S
C480 C488 1.378 . S
C481 C480 1.367 . S
C481 C489 1.433 . S
C482 H478 0.929 . S
C482 C484 1.378 . S
C482 C486 1.350 . S
C483 C486 1.463 . S
C483 C488 1.350 . S
C483 N491 1.427 . S
C484 H475 0.930 . S
C484 C482 1.378 . S
C484 C485 1.367 . S
C485 C484 1.367 . S
C485 C487 1.433 . S
C486 C482 1.350 . S
C486 C483 1.463 . S
C486 N490 1.427 . S
C487 H477 0.929 . S
C487 C485 1.433 . S
C487 N490 1.384 . S
C488 H479 0.929 . S
C488 C480 1.378 . S
C488 C483 1.350 . S
C489 H476 0.929 . S
C489 C481 1.433 . S
C489 N491 1.384 . S
N490 C486 1.427 . S
N490 C487 1.384 . S
N491 C483 1.427 . S
N491 C489 1.384 . S
H492 C498 0.930 . S
H493 C502 0.930 . S
H494 C507 0.929 . S
H495 C505 0.929 . S
H496 C500 0.929 . S
H497 C506 0.929 . S
C498 H492 0.930 . S
C498 C499 1.367 . S
C498 C506 1.378 . S
C499 C498 1.367 . S
C499 C507 1.433 . S
C500 H496 0.929 . S
C500 C502 1.378 . S
C500 C504 1.350 . S
C501 C504 1.463 . S
C501 C506 1.350 . S
C501 N509 1.427 . S
C502 H493 0.930 . S
C502 C500 1.378 . S
C502 C503 1.367 . S
C503 C502 1.367 . S
C503 C505 1.433 . S
C504 C500 1.350 . S
C504 C501 1.463 . S
C504 N508 1.427 . S
C505 H495 0.929 . S
C505 C503 1.433 . S
C505 N508 1.384 . S
C506 H497 0.929 . S
C506 C498 1.378 . S
C506 C501 1.350 . S
C507 H494 0.929 . S
C507 C499 1.433 . S
C507 N509 1.384 . S
N508 C504 1.427 . S
N508 C505 1.384 . S
N509 C501 1.427 . S
N509 C507 1.384 . S
H510 C516 0.930 . S
H511 C520 0.930 . S
H512 C525 0.929 . S
H513 C523 0.929 . S
H514 C518 0.929 . S
H515 C524 0.929 . S
C516 H510 0.930 . S
C516 C517 1.367 . S
C516 C524 1.378 . S
C517 C516 1.367 . S
C517 C525 1.433 . S
C518 H514 0.929 . S
C518 C520 1.378 . S
C518 C522 1.350 . S
C519 C522 1.463 . S
C519 C524 1.350 . S
C519 N527 1.427 . S
C520 H511 0.930 . S
C520 C518 1.378 . S
C520 C521 1.367 . S
C521 C520 1.367 . S
C521 C523 1.433 . S
C522 C518 1.350 . S
C522 C519 1.463 . S
C522 N526 1.427 . S
C523 H513 0.929 . S
C523 C521 1.433 . S
C523 N526 1.384 . S
C524 H515 0.929 . S
C524 C516 1.378 . S
C524 C519 1.350 . S
C525 H512 0.929 . S
C525 C517 1.433 . S
C525 N527 1.384 . S
N526 C522 1.427 . S
N526 C523 1.384 . S
N527 C519 1.427 . S
N527 C525 1.384 . S
H528 C534 0.930 . S
H529 C538 0.930 . S
H530 C543 0.929 . S
H531 C541 0.929 . S
H532 C536 0.929 . S
H533 C542 0.929 . S
C534 H528 0.930 . S
C534 C535 1.367 . S
C534 C542 1.378 . S
C535 C534 1.367 . S
C535 C543 1.433 . S
C536 H532 0.929 . S
C536 C538 1.378 . S
C536 C540 1.350 . S
C537 C540 1.463 . S
C537 C542 1.350 . S
C537 N545 1.427 . S
C538 H529 0.930 . S
C538 C536 1.378 . S
C538 C539 1.367 . S
C539 C538 1.367 . S
C539 C541 1.433 . S
C540 C536 1.350 . S
C540 C537 1.463 . S
C540 N544 1.427 . S
C541 H531 0.929 . S
C541 C539 1.433 . S
C541 N544 1.384 . S
C542 H533 0.929 . S
C542 C534 1.378 . S
C542 C537 1.350 . S
C543 H530 0.929 . S
C543 C535 1.433 . S
C543 N545 1.384 . S
N544 C540 1.427 . S
N544 C541 1.384 . S
N545 C537 1.427 . S
N545 C543 1.384 . S
H546 C552 0.930 . S
H547 C556 0.930 . S
H548 C561 0.929 . S
H549 C559 0.929 . S
H550 C554 0.929 . S
H551 C560 0.929 . S
C552 H546 0.930 . S
C552 C553 1.367 . S
C552 C560 1.378 . S
C553 C552 1.367 . S
C553 C561 1.433 . S
C554 H550 0.929 . S
C554 C556 1.378 . S
C554 C558 1.350 . S
C555 C558 1.463 . S
C555 C560 1.350 . S
C555 N563 1.427 . S
C556 H547 0.930 . S
C556 C554 1.378 . S
C556 C557 1.367 . S
C557 C556 1.367 . S
C557 C559 1.433 . S
C558 C554 1.350 . S
C558 C555 1.463 . S
C558 N562 1.427 . S
C559 H549 0.929 . S
C559 C557 1.433 . S
C559 N562 1.384 . S
C560 H551 0.929 . S
C560 C552 1.378 . S
C560 C555 1.350 . S
C561 H548 0.929 . S
C561 C553 1.433 . S
C561 N563 1.384 . S
N562 C558 1.427 . S
N562 C559 1.384 . S
N563 C555 1.427 . S
N563 C561 1.384 . S
C247 C231 1.907 1_554 S
C251 C8 1.636 . S
C265 C31 1.904 1_554 S
C269 C48 1.649 . S
C283 C71 1.909 . S
C287 C88 1.643 . S
C301 C128 1.640 . S
C305 C111 1.909 . S
C319 C168 1.639 . S
C323 C151 1.909 . S
C337 C191 1.908 . S
C341 C208 1.646 . S
C355 C172 1.932 1_556 S
C359 C29 1.906 . S
C373 C212 1.932 1_556 S
C377 C69 1.911 . S
C391 C109 1.909 . S
C395 C12 1.931 1_556 S
C409 C149 1.910 . S
C413 C52 1.934 . S
C427 C189 1.907 . S
C431 C92 1.933 1_556 S
C445 C132 1.931 1_556 S
C449 C229 1.909 . S
C463 C17 1.458 . S
C467 C2 1.458 . S
C481 C57 1.463 . S
C485 C42 1.463 . S
C499 C97 1.465 . S
C503 C82 1.465 . S
C517 C137 1.456 . S
C521 C122 1.456 . S
C535 C162 1.459 . S
C539 C177 1.459 . S
C553 C217 1.464 . S
C557 C202 1.464 . S
