# Generated by pormake.
# Topology pcb, (4)-cn, num edge types: 1
# Building blocks:
#     Node 0, Type 0, BuildingBlock: UXUYUI_clean_sbu_0, # of connection points: 4
#     Node 1, Type 0, BuildingBlock: UXUYUI_clean_sbu_0, # of connection points: 4
#     Node 2, Type 0, BuildingBlock: UXUYUI_clean_sbu_0, # of connection points: 4
#     Node 3, Type 0, BuildingBlock: UXUYUI_clean_sbu_0, # of connection points: 4
#     Node 4, Type 0, BuildingBlock: UXUYUI_clean_sbu_0, # of connection points: 4
#     Node 5, Type 0, BuildingBlock: UXUYUI_clean_sbu_0, # of connection points: 4
#     Node 6, Type 0, BuildingBlock: UXUYUI_clean_sbu_0, # of connection points: 4
#     Node 7, Type 0, BuildingBlock: UXUYUI_clean_sbu_0, # of connection points: 4
#     Node 8, Type 0, BuildingBlock: UXUYUI_clean_sbu_0, # of connection points: 4
#     Node 9, Type 0, BuildingBlock: UXUYUI_clean_sbu_0, # of connection points: 4
#     Node 10, Type 0, BuildingBlock: UXUYUI_clean_sbu_0, # of connection points: 4
#     Node 11, Type 0, BuildingBlock: UXUYUI_clean_sbu_0, # of connection points: 4
#     Node 12, Type 0, BuildingBlock: UXUYUI_clean_sbu_0, # of connection points: 4
#     Node 13, Type 0, BuildingBlock: UXUYUI_clean_sbu_0, # of connection points: 4
#     Node 14, Type 0, BuildingBlock: UXUYUI_clean_sbu_0, # of connection points: 4
#     Node 15, Type 0, BuildingBlock: UXUYUI_clean_sbu_0, # of connection points: 4
#     Edge 16, Type (0, 0), BuildingBlock: MIFKUJ_clean_linker_0, # of connection points: 2
#     Edge 17, Type (0, 0), BuildingBlock: MIFKUJ_clean_linker_0, # of connection points: 2
#     Edge 18, Type (0, 0), BuildingBlock: MIFKUJ_clean_linker_0, # of connection points: 2
#     Edge 19, Type (0, 0), BuildingBlock: MIFKUJ_clean_linker_0, # of connection points: 2
#     Edge 20, Type (0, 0), BuildingBlock: MIFKUJ_clean_linker_0, # of connection points: 2
#     Edge 21, Type (0, 0), BuildingBlock: MIFKUJ_clean_linker_0, # of connection points: 2
#     Edge 22, Type (0, 0), BuildingBlock: MIFKUJ_clean_linker_0, # of connection points: 2
#     Edge 23, Type (0, 0), BuildingBlock: MIFKUJ_clean_linker_0, # of connection points: 2
#     Edge 24, Type (0, 0), BuildingBlock: MIFKUJ_clean_linker_0, # of connection points: 2
#     Edge 25, Type (0, 0), BuildingBlock: MIFKUJ_clean_linker_0, # of connection points: 2
#     Edge 26, Type (0, 0), BuildingBlock: MIFKUJ_clean_linker_0, # of connection points: 2
#     Edge 27, Type (0, 0), BuildingBlock: MIFKUJ_clean_linker_0, # of connection points: 2
#     Edge 28, Type (0, 0), BuildingBlock: MIFKUJ_clean_linker_0, # of connection points: 2
#     Edge 29, Type (0, 0), BuildingBlock: MIFKUJ_clean_linker_0, # of connection points: 2
#     Edge 30, Type (0, 0), BuildingBlock: MIFKUJ_clean_linker_0, # of connection points: 2
#     Edge 31, Type (0, 0), BuildingBlock: MIFKUJ_clean_linker_0, # of connection points: 2
#     Edge 32, Type (0, 0), BuildingBlock: MIFKUJ_clean_linker_0, # of connection points: 2
#     Edge 33, Type (0, 0), BuildingBlock: MIFKUJ_clean_linker_0, # of connection points: 2
#     Edge 34, Type (0, 0), BuildingBlock: MIFKUJ_clean_linker_0, # of connection points: 2
#     Edge 35, Type (0, 0), BuildingBlock: MIFKUJ_clean_linker_0, # of connection points: 2
#     Edge 36, Type (0, 0), BuildingBlock: MIFKUJ_clean_linker_0, # of connection points: 2
#     Edge 37, Type (0, 0), BuildingBlock: MIFKUJ_clean_linker_0, # of connection points: 2
#     Edge 38, Type (0, 0), BuildingBlock: MIFKUJ_clean_linker_0, # of connection points: 2
#     Edge 39, Type (0, 0), BuildingBlock: MIFKUJ_clean_linker_0, # of connection points: 2
#     Edge 40, Type (0, 0), BuildingBlock: MIFKUJ_clean_linker_0, # of connection points: 2
#     Edge 41, Type (0, 0), BuildingBlock: MIFKUJ_clean_linker_0, # of connection points: 2
#     Edge 42, Type (0, 0), BuildingBlock: MIFKUJ_clean_linker_0, # of connection points: 2
#     Edge 43, Type (0, 0), BuildingBlock: MIFKUJ_clean_linker_0, # of connection points: 2
#     Edge 44, Type (0, 0), BuildingBlock: MIFKUJ_clean_linker_0, # of connection points: 2
#     Edge 45, Type (0, 0), BuildingBlock: MIFKUJ_clean_linker_0, # of connection points: 2
#     Edge 46, Type (0, 0), BuildingBlock: MIFKUJ_clean_linker_0, # of connection points: 2
#     Edge 47, Type (0, 0), BuildingBlock: MIFKUJ_clean_linker_0, # of connection points: 2
# Relax obj value: 0.233
# Max RMSD: 0.082
# Mean RMSD: 0.081
data_MOF--net-pcb--node1-UXUYUI_clean_sbu_0--edge1-MIFKUJ_clean_linker_0
_symmetry_space_group_name_H-M    P1
_symmetry_Int_Tables_number       1
_symmetry_cell_setting            triclinic
loop_
_symmetry_equiv_pos_as_xyz
'x, y, z'
_cell_length_a     82.474051
_cell_length_b     82.138174
_cell_length_c     82.315419
_cell_angle_alpha  90.044148
_cell_angle_beta   89.982621
_cell_angle_gamma 90.109954
loop_
_atom_site_label
_atom_site_type_symbol
_atom_site_fract_x
_atom_site_fract_y
_atom_site_fract_z
_atom_type_partial_charge
Li0 Li 0.15787 0.16024 0.13393 0.0
Li1 Li 0.16244 0.1688 0.16175 0.0
Li2 Li 0.15744 0.14036 0.15524 0.0
Li3 Li 0.13583 0.16069 0.15377 0.0
C4 C 0.18886 0.15574 0.13862 0.0
N5 N 0.21436 0.16019 0.1173 0.0
C6 C 0.1982 0.16994 0.13933 0.0
C7 C 0.19255 0.14375 0.12713 0.0
C8 C 0.21104 0.17196 0.12844 0.0
C9 C 0.20546 0.14625 0.11643 0.0
C10 C 0.13752 0.19095 0.14222 0.0
C11 C 0.11802 0.21072 0.15153 0.0
N12 N 0.11388 0.21385 0.13585 0.0
C13 C 0.13312 0.19441 0.12619 0.0
C14 C 0.12998 0.19921 0.155 0.0
C15 C 0.12113 0.20603 0.12323 0.0
C16 C 0.15952 0.15286 0.10073 0.0
N17 N 0.16361 0.16417 0.11204 0.0
C18 C 0.17647 0.18068 0.09191 0.0
C19 C 0.17181 0.17795 0.10799 0.0
C20 C 0.17261 0.16906 0.07999 0.0
C21 C 0.16395 0.15505 0.08456 0.0
H22 H 0.15277 0.14216 0.10425 0.0
H23 H 0.17479 0.18678 0.11729 0.0
C24 C 0.18678 0.17633 0.18406 0.0
N25 N 0.17474 0.18283 0.1749 0.0
C26 C 0.19648 0.18637 0.19363 0.0
C27 C 0.1814 0.20962 0.18383 0.0
C28 C 0.17192 0.1991 0.17454 0.0
C29 C 0.1939 0.20327 0.19351 0.0
H30 H 0.18889 0.16334 0.18383 0.0
H31 H 0.1625 0.20394 0.16683 0.0
C32 C 0.13557 0.1282 0.13488 0.0
N33 N 0.12473 0.09668 0.13022 0.0
C34 C 0.12011 0.12362 0.14015 0.0
C35 C 0.14547 0.11678 0.12712 0.0
C36 C 0.11486 0.10762 0.1377 0.0
C37 C 0.13979 0.1009 0.12492 0.0
C38 C 0.15153 0.15591 0.18887 0.0
C39 C 0.16174 0.14514 0.19708 0.0
C40 C 0.14559 0.16967 0.19689 0.0
C41 C 0.166 0.14843 0.21318 0.0
C42 C 0.15015 0.17254 0.21298 0.0
N43 N 0.16018 0.16196 0.22072 0.0
C44 C 0.17786 0.11319 0.15918 0.0
C45 C 0.15047 0.10889 0.16682 0.0
C46 C 0.18157 0.09696 0.16247 0.0
N47 N 0.16245 0.11868 0.16106 0.0
C48 C 0.15356 0.09252 0.16996 0.0
C49 C 0.16925 0.08627 0.16759 0.0
H50 H 0.18723 0.12137 0.15498 0.0
H51 H 0.1384 0.11372 0.16851 0.0
C52 C 0.10393 0.16891 0.14442 0.0
N53 N 0.11342 0.16418 0.15704 0.0
C54 C 0.08746 0.17181 0.14683 0.0
C55 C 0.09067 0.16396 0.17495 0.0
C56 C 0.10715 0.16158 0.17207 0.0
C57 C 0.08055 0.16925 0.16226 0.0
H58 H 0.10919 0.17051 0.1325 0.0
H59 H 0.11493 0.15745 0.18179 0.0
O60 O 0.17602 0.15368 0.14893 0.0
O61 O 0.14917 0.17954 0.14538 0.0
O62 O 0.14098 0.14377 0.13731 0.0
O63 O 0.14743 0.15305 0.17302 0.0
H64 H 0.19547 0.17938 0.14808 0.0
H65 H 0.18536 0.13274 0.12635 0.0
H66 H 0.21833 0.18292 0.1288 0.0
H67 H 0.20837 0.13714 0.1074 0.0
H68 H 0.112 0.21712 0.1613 0.0
H69 H 0.13878 0.1881 0.11616 0.0
H70 H 0.13318 0.19663 0.16747 0.0
H71 H 0.11755 0.20878 0.11089 0.0
H72 H 0.18313 0.19163 0.08885 0.0
H73 H 0.16041 0.14598 0.07568 0.0
H74 H 0.20588 0.18095 0.20104 0.0
H75 H 0.17921 0.2226 0.18315 0.0
H76 H 0.11227 0.13227 0.14617 0.0
H77 H 0.15753 0.12007 0.1231 0.0
H78 H 0.10295 0.10388 0.14177 0.0
H79 H 0.14738 0.09191 0.11908 0.0
H80 H 0.16646 0.13445 0.19105 0.0
H81 H 0.13767 0.17811 0.1907 0.0
H82 H 0.17397 0.14026 0.21967 0.0
H83 H 0.14574 0.1832 0.2193 0.0
H84 H 0.19393 0.09285 0.16087 0.0
H85 H 0.14359 0.08478 0.1737 0.0
H86 H 0.08028 0.17607 0.13669 0.0
H87 H 0.0859 0.16138 0.18693 0.0
Li88 Li 0.82652 0.16398 0.16912 0.0
Li89 Li 0.83223 0.13539 0.16603 0.0
Li90 Li 0.85329 0.15587 0.1636 0.0
Li91 Li 0.83096 0.15417 0.14215 0.0
C92 C 0.85018 0.15119 0.19627 0.0
N93 N 0.87082 0.15335 0.22267 0.0
C94 C 0.85381 0.13734 0.20542 0.0
C95 C 0.85673 0.16621 0.20085 0.0
C96 C 0.86434 0.13865 0.21864 0.0
C97 C 0.86723 0.16704 0.21414 0.0
C98 C 0.79866 0.14878 0.16421 0.0
C99 C 0.77057 0.15686 0.16368 0.0
N100 N 0.76917 0.15279 0.17964 0.0
C101 C 0.79691 0.14453 0.18057 0.0
C102 C 0.78536 0.15488 0.15565 0.0
C103 C 0.78192 0.14671 0.18816 0.0
C104 C 0.80271 0.18835 0.17237 0.0
N105 N 0.81354 0.17906 0.18063 0.0
C106 C 0.80413 0.18945 0.20597 0.0
C107 C 0.81444 0.17942 0.1971 0.0
C108 C 0.79279 0.19914 0.19776 0.0
C109 C 0.79222 0.19864 0.18074 0.0
H110 H 0.80185 0.18737 0.15931 0.0
H111 H 0.82285 0.1716 0.20339 0.0
C112 C 0.84076 0.10423 0.17739 0.0
N113 N 0.82824 0.1134 0.17185 0.0
C114 C 0.83866 0.08761 0.1801 0.0
C115 C 0.81074 0.09022 0.17155 0.0
C116 C 0.8134 0.10679 0.16895 0.0
C117 C 0.82353 0.08037 0.17699 0.0
H118 H 0.85257 0.10971 0.17909 0.0
H119 H 0.80376 0.11424 0.16414 0.0
C120 C 0.83864 0.19 0.15312 0.0
N121 N 0.83351 0.22324 0.15444 0.0
C122 C 0.82848 0.19754 0.14182 0.0
C123 C 0.84654 0.19948 0.1648 0.0
C124 C 0.82594 0.21432 0.14276 0.0
C125 C 0.8437 0.21623 0.16536 0.0
C126 C 0.85124 0.12267 0.14298 0.0
C127 C 0.86601 0.11518 0.14657 0.0
C128 C 0.83931 0.11405 0.1345 0.0
C129 C 0.86853 0.09907 0.14173 0.0
C130 C 0.84229 0.09796 0.12989 0.0
N131 N 0.85672 0.09087 0.13358 0.0
C132 C 0.8849 0.14982 0.17563 0.0
C133 C 0.88213 0.17311 0.15883 0.0
C134 C 0.90139 0.15299 0.17771 0.0
N135 N 0.87565 0.15996 0.16647 0.0
C136 C 0.89859 0.17661 0.1604 0.0
C137 C 0.90839 0.1665 0.16997 0.0
H138 H 0.87949 0.13921 0.18121 0.0
H139 H 0.87453 0.18079 0.1514 0.0
C140 C 0.81272 0.16365 0.11472 0.0
N141 N 0.82623 0.15568 0.11978 0.0
C142 C 0.80953 0.16534 0.09816 0.0
C143 C 0.83389 0.15 0.09242 0.0
C144 C 0.83677 0.1489 0.10906 0.0
C145 C 0.82021 0.15842 0.08685 0.0
H146 H 0.80459 0.16897 0.12354 0.0
H147 H 0.84751 0.14279 0.11344 0.0
O148 O 0.84001 0.1501 0.18315 0.0
O149 O 0.81341 0.1472 0.15675 0.0
O150 O 0.8412 0.17352 0.15241 0.0
O151 O 0.84836 0.13826 0.14799 0.0
H152 H 0.84844 0.12572 0.20247 0.0
H153 H 0.85369 0.17711 0.19426 0.0
H154 H 0.86732 0.128 0.22575 0.0
H155 H 0.87248 0.17859 0.2177 0.0
H156 H 0.7602 0.16166 0.15724 0.0
H157 H 0.80709 0.13983 0.18739 0.0
H158 H 0.78646 0.15815 0.14299 0.0
H159 H 0.78043 0.14361 0.20085 0.0
H160 H 0.80494 0.18956 0.2191 0.0
H161 H 0.78342 0.20573 0.17402 0.0
H162 H 0.84895 0.08041 0.18393 0.0
H163 H 0.79887 0.08514 0.16906 0.0
H164 H 0.82251 0.19052 0.13249 0.0
H165 H 0.85494 0.19404 0.17323 0.0
H166 H 0.81797 0.22026 0.13419 0.0
H167 H 0.84967 0.22367 0.17442 0.0
H168 H 0.87535 0.12169 0.15315 0.0
H169 H 0.82777 0.11968 0.13172 0.0
H170 H 0.87987 0.09308 0.14449 0.0
H171 H 0.83312 0.0911 0.12344 0.0
H172 H 0.90866 0.14476 0.18495 0.0
H173 H 0.90362 0.18712 0.15424 0.0
H174 H 0.79886 0.17191 0.09422 0.0
H175 H 0.84247 0.14469 0.08397 0.0
Li176 Li 0.84163 0.85211 0.15883 0.0
Li177 Li 0.86195 0.83066 0.15898 0.0
Li178 Li 0.84188 0.83231 0.1373 0.0
Li179 Li 0.8345 0.824 0.16465 0.0
C180 C 0.86479 0.86337 0.13981 0.0
N181 N 0.87578 0.89485 0.13533 0.0
C182 C 0.87912 0.86857 0.14727 0.0
C183 C 0.85611 0.87415 0.12999 0.0
C184 C 0.88447 0.88453 0.14486 0.0
C185 C 0.86184 0.89003 0.12791 0.0
C186 C 0.84325 0.83651 0.19271 0.0
C187 C 0.83947 0.81965 0.21641 0.0
N188 N 0.83053 0.83166 0.2234 0.0
C189 C 0.83406 0.8487 0.20016 0.0
C190 C 0.84605 0.82188 0.20093 0.0
C191 C 0.82773 0.84601 0.21567 0.0
C192 C 0.82224 0.88014 0.16061 0.0
N193 N 0.83713 0.87407 0.16416 0.0
C194 C 0.84573 0.89974 0.1747 0.0
C195 C 0.84868 0.88335 0.17145 0.0
C196 C 0.8306 0.90653 0.17071 0.0
C197 C 0.81869 0.89641 0.16383 0.0
H198 H 0.81313 0.87236 0.15525 0.0
H199 H 0.86027 0.87806 0.17451 0.0
C200 C 0.89473 0.82685 0.15112 0.0
N201 N 0.88387 0.82556 0.16345 0.0
C202 C 0.91096 0.82292 0.15368 0.0
C203 C 0.90443 0.81612 0.18151 0.0
C204 C 0.88836 0.8204 0.17845 0.0
C205 C 0.91602 0.81741 0.16904 0.0
H206 H 0.89076 0.83099 0.13931 0.0
H207 H 0.87945 0.81946 0.18801 0.0
C208 C 0.81053 0.83896 0.13989 0.0
N209 N 0.78564 0.83692 0.1175 0.0
C210 C 0.7994 0.82613 0.14064 0.0
C211 C 0.80891 0.85083 0.12784 0.0
C212 C 0.78691 0.8253 0.12919 0.0
C213 C 0.79629 0.84955 0.11659 0.0
C214 C 0.86072 0.80166 0.14651 0.0
C215 C 0.86805 0.80086 0.13121 0.0
C216 C 0.86623 0.79158 0.15902 0.0
C217 C 0.88085 0.79002 0.12871 0.0
C218 C 0.87908 0.78093 0.15603 0.0
N219 N 0.88606 0.78038 0.14107 0.0
C220 C 0.84505 0.83734 0.10344 0.0
C221 C 0.82714 0.8161 0.11125 0.0
C222 C 0.84162 0.83454 0.08708 0.0
N223 N 0.83766 0.82828 0.11509 0.0
C224 C 0.82311 0.81311 0.09507 0.0
C225 C 0.83038 0.82242 0.08281 0.0
H226 H 0.85359 0.84673 0.10685 0.0
H227 H 0.82179 0.80882 0.12079 0.0
C228 C 0.80804 0.81802 0.18488 0.0
N229 N 0.82018 0.81072 0.17645 0.0
C230 C 0.79718 0.80866 0.19385 0.0
C231 C 0.81124 0.78444 0.18484 0.0
C232 C 0.8219 0.79429 0.17612 0.0
C233 C 0.79872 0.79163 0.1939 0.0
H234 H 0.80689 0.83113 0.18466 0.0
H235 H 0.83146 0.78885 0.16899 0.0
O236 O 0.85922 0.84785 0.14222 0.0
O237 O 0.84938 0.83884 0.17744 0.0
O238 O 0.82299 0.83986 0.15083 0.0
O239 O 0.84851 0.81253 0.14934 0.0
H240 H 0.88592 0.86045 0.15503 0.0
H241 H 0.84498 0.87035 0.12416 0.0
H242 H 0.89549 0.88875 0.15062 0.0
H243 H 0.85519 0.89853 0.12043 0.0
H244 H 0.84141 0.80833 0.22283 0.0
H245 H 0.83173 0.86008 0.194 0.0
H246 H 0.85288 0.8122 0.19526 0.0
H247 H 0.82055 0.85531 0.22155 0.0
H248 H 0.85533 0.90708 0.1799 0.0
H249 H 0.80674 0.90099 0.16091 0.0
H250 H 0.91946 0.82445 0.14378 0.0
H251 H 0.90769 0.81174 0.19347 0.0
H252 H 0.80047 0.81679 0.14982 0.0
H253 H 0.81742 0.86083 0.12706 0.0
H254 H 0.77827 0.81539 0.12957 0.0
H255 H 0.79497 0.85859 0.10713 0.0
H256 H 0.86404 0.80866 0.12143 0.0
H257 H 0.86086 0.7922 0.17099 0.0
H258 H 0.88668 0.78933 0.11696 0.0
H259 H 0.88356 0.77316 0.16563 0.0
H260 H 0.84745 0.84194 0.07788 0.0
H261 H 0.81455 0.80352 0.09216 0.0
H262 H 0.78782 0.81471 0.20082 0.0
H263 H 0.81266 0.77134 0.18432 0.0
Li264 Li 0.13968 0.8351 0.15467 0.0
Li265 Li 0.16778 0.83062 0.16229 0.0
Li266 Li 0.15854 0.85738 0.15392 0.0
Li267 Li 0.1613 0.83515 0.13448 0.0
C268 C 0.14136 0.84354 0.18572 0.0
N269 N 0.11934 0.84 0.21078 0.0
C270 C 0.14365 0.8315 0.19748 0.0
C271 C 0.12796 0.85389 0.18679 0.0
C272 C 0.13237 0.82989 0.21005 0.0
C273 C 0.11694 0.85186 0.19952 0.0
C274 C 0.15284 0.80474 0.13729 0.0
C275 C 0.16537 0.78482 0.11982 0.0
N276 N 0.1506 0.78119 0.11342 0.0
C277 C 0.13777 0.80077 0.13059 0.0
C278 C 0.16675 0.79666 0.13193 0.0
C279 C 0.13689 0.78883 0.11852 0.0
C280 C 0.10586 0.83567 0.15035 0.0
N281 N 0.11808 0.82864 0.15886 0.0
C282 C 0.09932 0.81215 0.17363 0.0
C283 C 0.11519 0.81685 0.17009 0.0
C284 C 0.08645 0.81932 0.16513 0.0
C285 C 0.08983 0.83111 0.15327 0.0
H286 H 0.10856 0.84479 0.14129 0.0
H287 H 0.12522 0.81117 0.17633 0.0
C288 C 0.18954 0.82812 0.18839 0.0
N289 N 0.1812 0.81953 0.17701 0.0
C290 C 0.19964 0.82008 0.1993 0.0
C291 C 0.19174 0.7945 0.18699 0.0
C292 C 0.18197 0.80306 0.17619 0.0
C293 C 0.20086 0.80303 0.19867 0.0
H294 H 0.18838 0.84122 0.18891 0.0
H295 H 0.17488 0.79656 0.16725 0.0
C296 C 0.13865 0.86503 0.13006 0.0
N297 N 0.13082 0.895 0.11705 0.0
C298 C 0.1455 0.87 0.11534 0.0
C299 C 0.12774 0.87524 0.13811 0.0
C300 C 0.14139 0.88521 0.10897 0.0
C301 C 0.12398 0.89036 0.13136 0.0
C302 C 0.19412 0.84575 0.15223 0.0
C303 C 0.20041 0.85898 0.16089 0.0
C304 C 0.20384 0.8321 0.14942 0.0
C305 C 0.21631 0.85828 0.1667 0.0
C306 C 0.21966 0.83186 0.15547 0.0
N307 N 0.22551 0.84484 0.16391 0.0
C308 C 0.15777 0.88649 0.17197 0.0
C309 C 0.16817 0.88907 0.14525 0.0
C310 C 0.16044 0.903 0.17491 0.0
N311 N 0.16155 0.87994 0.1573 0.0
C312 C 0.17085 0.90566 0.14757 0.0
C313 C 0.16702 0.91285 0.1626 0.0
H314 H 0.15291 0.87885 0.18148 0.0
H315 H 0.17143 0.88341 0.13384 0.0
C316 C 0.15389 0.8274 0.10219 0.0
N317 N 0.16635 0.82998 0.11267 0.0
C318 C 0.15701 0.82418 0.08585 0.0
C319 C 0.18573 0.82617 0.09148 0.0
C320 C 0.18204 0.82939 0.1077 0.0
C321 C 0.17311 0.82367 0.08028 0.0
H322 H 0.14152 0.82815 0.10649 0.0
H323 H 0.19169 0.83163 0.11628 0.0
O324 O 0.15215 0.84517 0.1732 0.0
O325 O 0.15401 0.81666 0.14885 0.0
O326 O 0.14267 0.85028 0.13661 0.0
O327 O 0.17852 0.84613 0.14659 0.0
H328 H 0.15393 0.82337 0.19684 0.0
H329 H 0.12602 0.86327 0.1778 0.0
H330 H 0.13393 0.82057 0.21918 0.0
H331 H 0.10645 0.8597 0.20043 0.0
H332 H 0.17605 0.77855 0.11547 0.0
H333 H 0.12689 0.80695 0.13454 0.0
H334 H 0.17852 0.79967 0.13692 0.0
H335 H 0.12532 0.78569 0.11317 0.0
H336 H 0.09711 0.80289 0.18274 0.0
H337 H 0.08016 0.83692 0.14653 0.0
H338 H 0.20652 0.82716 0.20801 0.0
H339 H 0.19196 0.78134 0.18632 0.0
H340 H 0.15403 0.86231 0.10898 0.0
H341 H 0.12235 0.87158 0.14952 0.0
H342 H 0.14665 0.88926 0.09763 0.0
H343 H 0.11563 0.89843 0.13751 0.0
H344 H 0.19307 0.86962 0.16321 0.0
H345 H 0.19912 0.82169 0.1429 0.0
H346 H 0.22131 0.8684 0.17347 0.0
H347 H 0.22726 0.82132 0.1535 0.0
H348 H 0.15761 0.90792 0.18678 0.0
H349 H 0.17575 0.91278 0.13764 0.0
H350 H 0.1469 0.82263 0.0776 0.0
H351 H 0.19831 0.82576 0.08773 0.0
Li352 Li 0.15945 0.85742 0.83144 0.0
Li353 Li 0.16002 0.83716 0.85322 0.0
Li354 Li 0.16407 0.82996 0.82526 0.0
Li355 Li 0.13738 0.83829 0.83441 0.0
C356 C 0.193 0.83749 0.83694 0.0
N357 N 0.22291 0.82298 0.83247 0.0
C358 C 0.199 0.82654 0.84845 0.0
C359 C 0.20237 0.84123 0.82327 0.0
C360 C 0.21412 0.8193 0.84596 0.0
C361 C 0.2174 0.8337 0.82119 0.0
C362 C 0.13349 0.85594 0.86257 0.0
C363 C 0.11699 0.84273 0.88287 0.0
N364 N 0.11169 0.85753 0.88801 0.0
C365 C 0.12788 0.87102 0.86804 0.0
C366 C 0.128 0.84166 0.87002 0.0
C367 C 0.11686 0.87157 0.88093 0.0
C368 C 0.15121 0.88961 0.82491 0.0
N369 N 0.164 0.87938 0.82662 0.0
C370 C 0.18272 0.90105 0.8219 0.0
C371 C 0.17954 0.88469 0.82519 0.0
C372 C 0.16975 0.91201 0.82024 0.0
C373 C 0.15382 0.90607 0.82171 0.0
H374 H 0.13899 0.88497 0.82621 0.0
H375 H 0.18945 0.87623 0.82666 0.0
C376 C 0.16591 0.81802 0.88101 0.0
N377 N 0.16561 0.83345 0.87511 0.0
C378 C 0.16962 0.81524 0.8973 0.0
C379 C 0.1727 0.8443 0.90104 0.0
C380 C 0.16898 0.84651 0.88467 0.0
C381 C 0.17299 0.82849 0.90757 0.0
H382 H 0.16329 0.8079 0.87304 0.0
H383 H 0.16855 0.85864 0.87958 0.0
C384 C 0.1491 0.85458 0.80088 0.0
N385 N 0.15002 0.87537 0.77448 0.0
C386 C 0.13475 0.85913 0.79308 0.0
C387 C 0.16393 0.8603 0.79495 0.0
C388 C 0.13546 0.86972 0.77982 0.0
C389 C 0.16415 0.8709 0.7817 0.0
C390 C 0.14363 0.80483 0.83482 0.0
C391 C 0.13779 0.8049 0.81887 0.0
C392 C 0.143 0.79044 0.84387 0.0
C393 C 0.13139 0.7906 0.81226 0.0
C394 C 0.1365 0.77639 0.83683 0.0
N395 N 0.13088 0.77676 0.8213 0.0
C396 C 0.18273 0.8024 0.81903 0.0
C397 C 0.17533 0.81712 0.79539 0.0
C398 C 0.1916 0.79138 0.80975 0.0
N399 N 0.17515 0.81513 0.81176 0.0
C400 C 0.1839 0.80628 0.78561 0.0
C401 C 0.19233 0.79337 0.79285 0.0
H402 H 0.18199 0.80092 0.83206 0.0
H403 H 0.16889 0.82713 0.78991 0.0
C404 C 0.10634 0.84887 0.8265 0.0
N405 N 0.11452 0.83611 0.83298 0.0
C406 C 0.08954 0.84818 0.82477 0.0
C407 C 0.08978 0.82164 0.83744 0.0
C408 C 0.1066 0.82277 0.83874 0.0
C409 C 0.08102 0.83438 0.8302 0.0
H410 H 0.1129 0.85962 0.82274 0.0
H411 H 0.11326 0.8131 0.84456 0.0
O412 O 0.17807 0.84447 0.83904 0.0
O413 O 0.14421 0.85527 0.8499 0.0
O414 O 0.14864 0.84433 0.81401 0.0
O415 O 0.15011 0.81863 0.84159 0.0
H416 H 0.19203 0.82349 0.85912 0.0
H417 H 0.19809 0.84977 0.8143 0.0
H418 H 0.21883 0.81072 0.85472 0.0
H419 H 0.22469 0.8364 0.8106 0.0
H420 H 0.11264 0.83178 0.88874 0.0
H421 H 0.13199 0.88217 0.86236 0.0
H422 H 0.13216 0.82987 0.86593 0.0
H423 H 0.11242 0.88316 0.88529 0.0
H424 H 0.19517 0.90506 0.8207 0.0
H425 H 0.14347 0.91411 0.82081 0.0
H426 H 0.1699 0.80285 0.90179 0.0
H427 H 0.17496 0.85488 0.90857 0.0
H428 H 0.12319 0.85437 0.79703 0.0
H429 H 0.17514 0.8567 0.80064 0.0
H430 H 0.12443 0.87338 0.77373 0.0
H431 H 0.17556 0.87555 0.77714 0.0
H432 H 0.13812 0.81583 0.81161 0.0
H433 H 0.14745 0.79012 0.85622 0.0
H434 H 0.12682 0.7905 0.79995 0.0
H435 H 0.13593 0.76519 0.84371 0.0
H436 H 0.19776 0.7814 0.81571 0.0
H437 H 0.18424 0.80818 0.77259 0.0
H438 H 0.08335 0.85831 0.81911 0.0
H439 H 0.08371 0.811 0.8423 0.0
Li440 Li 0.15722 0.16134 0.85363 0.0
Li441 Li 0.15398 0.13965 0.83341 0.0
Li442 Li 0.161 0.16777 0.8247 0.0
Li443 Li 0.13395 0.16077 0.83393 0.0
C444 C 0.18959 0.15442 0.84215 0.0
N445 N 0.22211 0.15826 0.84936 0.0
C446 C 0.19929 0.14081 0.84517 0.0
C447 C 0.19651 0.16996 0.84258 0.0
C448 C 0.21568 0.14301 0.84887 0.0
C449 C 0.21295 0.17166 0.84629 0.0
C450 C 0.13578 0.13032 0.85811 0.0
C451 C 0.1226 0.10414 0.85633 0.0
N452 N 0.1295 0.09976 0.87068 0.0
C453 C 0.14263 0.12562 0.8729 0.0
C454 C 0.12557 0.11956 0.84981 0.0
C455 C 0.13935 0.1101 0.87903 0.0
C456 C 0.15526 0.17678 0.88408 0.0
N457 N 0.16386 0.16587 0.87516 0.0
C458 C 0.18096 0.16 0.89777 0.0
C459 C 0.17651 0.15754 0.88163 0.0
C460 C 0.17213 0.17095 0.90743 0.0
C461 C 0.15924 0.17957 0.90033 0.0
H462 H 0.1451 0.18305 0.87864 0.0
H463 H 0.18286 0.14861 0.87444 0.0
C464 C 0.15471 0.11093 0.81468 0.0
N465 N 0.15837 0.11742 0.82941 0.0
C466 C 0.15805 0.09459 0.81146 0.0
C467 C 0.16894 0.09204 0.83861 0.0
C468 C 0.1655 0.10843 0.84125 0.0
C469 C 0.16522 0.08491 0.82354 0.0
H470 H 0.14931 0.11845 0.80539 0.0
H471 H 0.16846 0.11401 0.85278 0.0
C472 C 0.15027 0.19591 0.84223 0.0
N473 N 0.15564 0.22903 0.84502 0.0
C474 C 0.13949 0.20696 0.83519 0.0
C475 C 0.1636 0.20174 0.85098 0.0
C476 C 0.14247 0.22365 0.83665 0.0
C477 C 0.16616 0.21851 0.85217 0.0
C478 C 0.13455 0.15292 0.80248 0.0
C479 C 0.13554 0.16523 0.79081 0.0
C480 C 0.12199 0.14149 0.80168 0.0
C481 C 0.12378 0.16604 0.77863 0.0
C482 C 0.11045 0.14274 0.78933 0.0
N483 N 0.11157 0.15489 0.77816 0.0
C484 C 0.18637 0.17051 0.80327 0.0
C485 C 0.17133 0.195 0.80544 0.0
C486 C 0.19726 0.17782 0.79262 0.0
N487 N 0.17394 0.17924 0.80968 0.0
C488 C 0.18188 0.20279 0.79471 0.0
C489 C 0.19517 0.19421 0.78836 0.0
H490 H 0.18792 0.15789 0.80664 0.0
H491 H 0.16114 0.20155 0.81037 0.0
C492 C 0.10077 0.15703 0.84057 0.0
N493 N 0.11156 0.16528 0.8312 0.0
C494 C 0.08416 0.15915 0.83828 0.0
C495 C 0.09006 0.17856 0.817 0.0
C496 C 0.10657 0.1761 0.81976 0.0
C497 C 0.07861 0.16987 0.82622 0.0
H498 H 0.10506 0.14868 0.84974 0.0
H499 H 0.1154 0.18256 0.81252 0.0
O500 O 0.17351 0.15243 0.83849 0.0
O501 O 0.13904 0.14537 0.85179 0.0
O502 O 0.14744 0.17952 0.841 0.0
O503 O 0.14587 0.15203 0.81459 0.0
H504 H 0.1942 0.12868 0.84473 0.0
H505 H 0.18936 0.18058 0.8398 0.0
H506 H 0.22329 0.13259 0.85133 0.0
H507 H 0.21844 0.18362 0.84665 0.0
H508 H 0.11483 0.09564 0.84997 0.0
H509 H 0.15048 0.13382 0.87954 0.0
H510 H 0.12012 0.12302 0.83838 0.0
H511 H 0.14464 0.10627 0.89043 0.0
H512 H 0.19105 0.15318 0.9027 0.0
H513 H 0.15192 0.18791 0.90739 0.0
H514 H 0.1552 0.08967 0.79959 0.0
H515 H 0.17426 0.085 0.84836 0.0
H516 H 0.12899 0.20272 0.82858 0.0
H517 H 0.1718 0.19345 0.85696 0.0
H518 H 0.13429 0.23232 0.83115 0.0
H519 H 0.17646 0.22317 0.85886 0.0
H520 H 0.14521 0.17413 0.79122 0.0
H521 H 0.1211 0.13185 0.81057 0.0
H522 H 0.12434 0.17556 0.76957 0.0
H523 H 0.10059 0.13407 0.78863 0.0
H524 H 0.20721 0.17073 0.78775 0.0
H525 H 0.1799 0.21547 0.79171 0.0
H526 H 0.07576 0.15247 0.8459 0.0
H527 H 0.08633 0.18684 0.80749 0.0
Li528 Li 0.83188 0.14106 0.83487 0.0
Li529 Li 0.83432 0.15997 0.85814 0.0
Li530 Li 0.8228 0.1682 0.83285 0.0
Li531 Li 0.85173 0.16298 0.83441 0.0
C532 C 0.79833 0.15482 0.84837 0.0
N533 N 0.76581 0.16294 0.84902 0.0
C534 C 0.79239 0.16534 0.86031 0.0
C535 C 0.78765 0.1482 0.83694 0.0
C536 C 0.77593 0.16935 0.8604 0.0
C537 C 0.77128 0.15252 0.83742 0.0
C538 C 0.86448 0.14397 0.85876 0.0
C539 C 0.88414 0.15744 0.87581 0.0
N540 N 0.89264 0.1433 0.8769 0.0
C541 C 0.87341 0.1296 0.86 0.0
C542 C 0.86988 0.15803 0.86668 0.0
C543 C 0.88761 0.1295 0.86926 0.0
C544 C 0.83952 0.11119 0.81982 0.0
N545 N 0.82862 0.11898 0.82945 0.0
C546 C 0.81336 0.09453 0.83295 0.0
C547 C 0.81571 0.11107 0.83599 0.0
C548 C 0.82442 0.08608 0.82306 0.0
C549 C 0.83754 0.09469 0.81631 0.0
H550 H 0.8498 0.11778 0.81497 0.0
H551 H 0.80744 0.11753 0.84387 0.0
C552 C 0.82813 0.17633 0.88733 0.0
N553 N 0.833 0.16192 0.88089 0.0
C554 C 0.82587 0.17785 0.90404 0.0
C555 C 0.83445 0.14988 0.90719 0.0
C556 C 0.83626 0.14882 0.89038 0.0
C557 C 0.82892 0.16446 0.91424 0.0
H558 H 0.82552 0.18648 0.87939 0.0
H559 H 0.84012 0.13752 0.88486 0.0
C560 C 0.83499 0.1482 0.8027 0.0
N561 N 0.832 0.1308 0.77408 0.0
C562 C 0.84784 0.14767 0.79164 0.0
C563 C 0.82051 0.14015 0.79901 0.0
C564 C 0.84613 0.13875 0.77728 0.0
C565 C 0.81926 0.13134 0.78455 0.0
C566 C 0.84212 0.19523 0.83987 0.0
C567 C 0.84394 0.19724 0.82309 0.0
C568 C 0.84317 0.20877 0.8501 0.0
C569 C 0.84681 0.21279 0.81685 0.0
C570 C 0.84606 0.22412 0.84339 0.0
N571 N 0.84781 0.22579 0.82704 0.0
C572 C 0.80113 0.1943 0.83383 0.0
C573 C 0.80226 0.18069 0.80843 0.0
C574 C 0.78989 0.20538 0.82778 0.0
N575 N 0.80702 0.18229 0.82413 0.0
C576 C 0.79112 0.19155 0.80184 0.0
C577 C 0.78491 0.20415 0.81154 0.0
H578 H 0.80536 0.19537 0.84623 0.0
H579 H 0.80726 0.17115 0.80095 0.0
C580 C 0.88121 0.15585 0.81989 0.0
N581 N 0.87336 0.16778 0.82816 0.0
C582 C 0.89757 0.15756 0.81601 0.0
C583 C 0.8976 0.18368 0.82956 0.0
C584 C 0.88118 0.18151 0.83309 0.0
C585 C 0.90605 0.17154 0.82103 0.0
H586 H 0.87482 0.1448 0.81669 0.0
H587 H 0.87491 0.1905 0.84028 0.0
O588 O 0.81449 0.15101 0.84791 0.0
O589 O 0.85073 0.14431 0.84948 0.0
O590 O 0.83652 0.15681 0.81688 0.0
O591 O 0.83907 0.18018 0.84633 0.0
H592 H 0.8004 0.17053 0.8693 0.0
H593 H 0.79191 0.13978 0.82781 0.0
H594 H 0.77122 0.17761 0.86949 0.0
H595 H 0.76292 0.14755 0.82858 0.0
H596 H 0.88848 0.16823 0.88199 0.0
H597 H 0.86942 0.11865 0.85384 0.0
H598 H 0.86321 0.16932 0.86573 0.0
H599 H 0.89465 0.11846 0.87033 0.0
H600 H 0.80328 0.08836 0.83872 0.0
H601 H 0.84627 0.08873 0.80849 0.0
H602 H 0.82135 0.18925 0.90883 0.0
H603 H 0.8373 0.13934 0.91454 0.0
H604 H 0.85896 0.15424 0.79399 0.0
H605 H 0.81038 0.1406 0.8073 0.0
H606 H 0.85601 0.1382 0.76865 0.0
H607 H 0.80816 0.12493 0.78165 0.0
H608 H 0.84316 0.18696 0.81493 0.0
H609 H 0.84176 0.20743 0.8631 0.0
H610 H 0.84825 0.21452 0.8039 0.0
H611 H 0.84691 0.2347 0.85117 0.0
H612 H 0.7855 0.21506 0.83555 0.0
H613 H 0.78746 0.19016 0.78928 0.0
H614 H 0.90356 0.14791 0.80935 0.0
H615 H 0.90373 0.19446 0.83404 0.0
Li616 Li 0.82878 0.85822 0.8361 0.0
Li617 Li 0.82887 0.83786 0.85762 0.0
Li618 Li 0.85169 0.8405 0.83907 0.0
Li619 Li 0.82578 0.82952 0.83008 0.0
C620 C 0.84427 0.87228 0.86002 0.0
N621 N 0.84377 0.90458 0.86945 0.0
C622 C 0.83457 0.87721 0.87305 0.0
C623 C 0.85377 0.88377 0.85184 0.0
C624 C 0.8345 0.89359 0.87764 0.0
C625 C 0.85331 0.90004 0.85676 0.0
C626 C 0.79611 0.83956 0.83702 0.0
C627 C 0.77443 0.82011 0.83365 0.0
N628 N 0.7665 0.83084 0.82392 0.0
C629 C 0.78773 0.85042 0.82703 0.0
C630 C 0.78939 0.82431 0.84044 0.0
C631 C 0.77278 0.84577 0.82051 0.0
C632 C 0.82908 0.88609 0.81654 0.0
N633 N 0.82246 0.87954 0.83016 0.0
C634 C 0.80961 0.90472 0.83671 0.0
C635 C 0.81246 0.8883 0.83995 0.0
C636 C 0.81711 0.91206 0.82324 0.0
C637 C 0.82659 0.90244 0.81285 0.0
H638 H 0.8367 0.87877 0.8088 0.0
H639 H 0.80724 0.88268 0.85062 0.0
C640 C 0.83589 0.83622 0.89045 0.0
N641 N 0.82386 0.83333 0.87958 0.0
C642 C 0.83371 0.83242 0.90678 0.0
C643 C 0.80671 0.82278 0.90046 0.0
C644 C 0.80939 0.82688 0.88421 0.0
C645 C 0.81902 0.82545 0.91197 0.0
H646 H 0.84727 0.84136 0.88637 0.0
H647 H 0.80006 0.82468 0.87528 0.0
C648 C 0.85142 0.84471 0.80743 0.0
N649 N 0.87624 0.84205 0.78501 0.0
C650 C 0.85214 0.83126 0.79703 0.0
C651 C 0.86328 0.85685 0.80635 0.0
C652 C 0.86479 0.83014 0.78579 0.0
C653 C 0.87575 0.85526 0.79497 0.0
C654 C 0.84327 0.80964 0.85839 0.0
C655 C 0.85777 0.81018 0.86716 0.0
C656 C 0.83114 0.79863 0.86288 0.0
C657 C 0.85984 0.79975 0.88039 0.0
C658 C 0.83366 0.78842 0.87621 0.0
N659 N 0.84784 0.78919 0.88462 0.0
C660 C 0.88441 0.84906 0.84448 0.0
C661 C 0.88028 0.82556 0.82826 0.0
C662 C 0.90116 0.8477 0.84269 0.0
N663 N 0.8744 0.8382 0.83711 0.0
C664 C 0.89693 0.82382 0.82598 0.0
C665 C 0.90763 0.83505 0.83317 0.0
H666 H 0.87939 0.85876 0.85178 0.0
H667 H 0.87198 0.81696 0.82277 0.0
C668 C 0.80729 0.82063 0.80314 0.0
N669 N 0.81633 0.81462 0.81553 0.0
C670 C 0.80051 0.81012 0.79174 0.0
C671 C 0.8131 0.78751 0.80568 0.0
C672 C 0.81943 0.79846 0.81698 0.0
C673 C 0.80345 0.79331 0.79285 0.0
H674 H 0.80543 0.83361 0.8021 0.0
H675 H 0.82706 0.79412 0.82672 0.0
O676 O 0.84422 0.85636 0.85509 0.0
O677 O 0.81082 0.84385 0.84341 0.0
O678 O 0.83927 0.84591 0.81871 0.0
O679 O 0.84081 0.8201 0.84572 0.0
H680 H 0.827 0.86854 0.87941 0.0
H681 H 0.86122 0.88021 0.84162 0.0
H682 H 0.82699 0.89759 0.88765 0.0
H683 H 0.86048 0.90908 0.85044 0.0
H684 H 0.76915 0.80829 0.83608 0.0
H685 H 0.79276 0.86226 0.82423 0.0
H686 H 0.79579 0.81568 0.84798 0.0
H687 H 0.76619 0.85403 0.81271 0.0
H688 H 0.80229 0.91177 0.84506 0.0
H689 H 0.83236 0.9076 0.80221 0.0
H690 H 0.84342 0.83503 0.91525 0.0
H691 H 0.79525 0.81732 0.9039 0.0
H692 H 0.84314 0.82171 0.79769 0.0
H693 H 0.86304 0.86725 0.81441 0.0
H694 H 0.86553 0.81977 0.77771 0.0
H695 H 0.88508 0.8645 0.79411 0.0
H696 H 0.86725 0.81871 0.86393 0.0
H697 H 0.81979 0.79814 0.8563 0.0
H698 H 0.87096 0.8001 0.88735 0.0
H699 H 0.82432 0.77992 0.8799 0.0
H700 H 0.90894 0.85639 0.84879 0.0
H701 H 0.90134 0.81397 0.81846 0.0
H702 H 0.79298 0.81515 0.78222 0.0
H703 H 0.81596 0.77471 0.80684 0.0
Li704 Li 0.66845 0.66135 0.66283 0.0
Li705 Li 0.65766 0.65428 0.63748 0.0
Li706 Li 0.64041 0.65684 0.66153 0.0
Li707 Li 0.65933 0.63339 0.65954 0.0
C708 C 0.65842 0.68935 0.65101 0.0
N709 N 0.67108 0.72044 0.65327 0.0
C710 C 0.6665 0.69627 0.63776 0.0
C711 C 0.65667 0.6983 0.66536 0.0
C712 C 0.67282 0.712 0.63915 0.0
C713 C 0.66321 0.71398 0.66628 0.0
C714 C 0.6933 0.6469 0.64765 0.0
C715 C 0.71918 0.64377 0.66093 0.0
N716 N 0.7264 0.65219 0.64867 0.0
C717 C 0.70098 0.6555 0.63516 0.0
C718 C 0.70248 0.64093 0.6606 0.0
C719 C 0.71772 0.65805 0.6359 0.0
C720 C 0.68588 0.67267 0.68977 0.0
N721 N 0.68492 0.67373 0.67334 0.0
C722 C 0.70759 0.69183 0.6726 0.0
C723 C 0.69547 0.68306 0.6647 0.0
C724 C 0.70874 0.69116 0.68961 0.0
C725 C 0.69766 0.68142 0.69821 0.0
H726 H 0.67746 0.66507 0.69636 0.0
H727 H 0.69452 0.68369 0.65164 0.0
C728 C 0.64749 0.66815 0.60827 0.0
N729 N 0.65813 0.65735 0.61475 0.0
C730 C 0.64741 0.67104 0.59159 0.0
C731 C 0.66926 0.65163 0.58861 0.0
C732 C 0.66875 0.64894 0.60533 0.0
C733 C 0.6585 0.66283 0.5816 0.0
H734 H 0.63913 0.67457 0.61611 0.0
H735 H 0.67683 0.64018 0.61083 0.0
C736 C 0.64585 0.64724 0.69136 0.0
N737 N 0.62485 0.64561 0.71748 0.0
C738 C 0.63895 0.63235 0.69585 0.0
C739 C 0.64216 0.66128 0.70023 0.0
C740 C 0.62835 0.63179 0.70909 0.0
C741 C 0.63148 0.66021 0.71336 0.0
C742 C 0.63206 0.63615 0.63156 0.0
C743 C 0.61821 0.6453 0.62808 0.0
C744 C 0.63776 0.62488 0.62019 0.0
C745 C 0.61027 0.64297 0.61326 0.0
C746 C 0.6295 0.62294 0.6055 0.0
N747 N 0.61604 0.63195 0.60237 0.0
C748 C 0.61447 0.67798 0.67016 0.0
C749 C 0.60939 0.64967 0.67273 0.0
C750 C 0.59876 0.68155 0.67535 0.0
N751 N 0.61941 0.66225 0.66898 0.0
C752 C 0.59365 0.65267 0.67806 0.0
C753 C 0.58813 0.66878 0.67934 0.0
H754 H 0.62265 0.68773 0.66689 0.0
H755 H 0.6136 0.63728 0.67138 0.0
C756 C 0.67262 0.6074 0.67726 0.0
N757 N 0.66227 0.61131 0.66503 0.0
C758 C 0.67468 0.59118 0.68182 0.0
C759 C 0.655 0.58343 0.66144 0.0
C760 C 0.6534 0.59977 0.65721 0.0
C761 C 0.66578 0.57898 0.67386 0.0
H762 H 0.67906 0.61691 0.68366 0.0
H763 H 0.64498 0.60327 0.6478 0.0
O764 O 0.65218 0.67395 0.64989 0.0
O765 O 0.6769 0.64432 0.64717 0.0
O766 O 0.65599 0.64814 0.67822 0.0
O767 O 0.64029 0.63862 0.64578 0.0
H768 H 0.66806 0.6895 0.6266 0.0
H769 H 0.65051 0.69313 0.67574 0.0
H770 H 0.67918 0.71747 0.62903 0.0
H771 H 0.66205 0.72099 0.67734 0.0
H772 H 0.7264 0.63932 0.67094 0.0
H773 H 0.69409 0.66046 0.62517 0.0
H774 H 0.69675 0.6344 0.67043 0.0
H775 H 0.7238 0.66477 0.62638 0.0
H776 H 0.716 0.69898 0.66543 0.0
H777 H 0.69788 0.68074 0.71134 0.0
H778 H 0.63897 0.67979 0.58658 0.0
H779 H 0.67781 0.64493 0.58121 0.0
H780 H 0.64156 0.62138 0.68909 0.0
H781 H 0.64737 0.6729 0.69692 0.0
H782 H 0.62285 0.62036 0.71264 0.0
H783 H 0.62844 0.67099 0.72026 0.0
H784 H 0.61373 0.65422 0.63663 0.0
H785 H 0.64865 0.61793 0.62255 0.0
H786 H 0.59957 0.65 0.61039 0.0
H787 H 0.63384 0.61434 0.59655 0.0
H788 H 0.59494 0.69413 0.67618 0.0
H789 H 0.58574 0.64246 0.68068 0.0
H790 H 0.68291 0.58824 0.69164 0.0
H791 H 0.64799 0.57435 0.65494 0.0
Li792 Li 0.34285 0.63628 0.66226 0.0
Li793 Li 0.33611 0.66448 0.66766 0.0
Li794 Li 0.34386 0.6557 0.64058 0.0
Li795 Li 0.36363 0.65738 0.66251 0.0
C796 C 0.31226 0.63849 0.6552 0.0
N797 N 0.28803 0.61581 0.66039 0.0
C798 C 0.30229 0.63969 0.66888 0.0
C799 C 0.30986 0.62581 0.64411 0.0
C800 C 0.29011 0.6281 0.67129 0.0
C801 C 0.29756 0.61444 0.64698 0.0
C802 C 0.3607 0.64861 0.69294 0.0
C803 C 0.37826 0.66086 0.71296 0.0
N804 N 0.38423 0.64589 0.71668 0.0
C805 C 0.36698 0.63334 0.69698 0.0
C806 C 0.36633 0.66248 0.70103 0.0
C807 C 0.37887 0.63223 0.70902 0.0
C808 C 0.34164 0.60217 0.65812 0.0
N809 N 0.33783 0.61462 0.66827 0.0
C810 C 0.32626 0.59619 0.6875 0.0
C811 C 0.33031 0.61199 0.68273 0.0
C812 C 0.32989 0.58311 0.67716 0.0
C813 C 0.33768 0.58622 0.66231 0.0
H814 H 0.34777 0.60461 0.6468 0.0
H815 H 0.32747 0.62219 0.69055 0.0
C816 C 0.31015 0.68616 0.67115 0.0
N817 N 0.32184 0.67792 0.67934 0.0
C818 C 0.29912 0.69583 0.67957 0.0
C819 C 0.31211 0.68792 0.70471 0.0
C820 C 0.32297 0.67852 0.69578 0.0
C821 C 0.29999 0.69674 0.6966 0.0
H822 H 0.30937 0.68513 0.65808 0.0
H823 H 0.33211 0.67148 0.70197 0.0
C824 C 0.36735 0.63558 0.63207 0.0
N825 N 0.3804 0.62884 0.60188 0.0
C826 C 0.38273 0.64144 0.62795 0.0
C827 C 0.35864 0.62622 0.62085 0.0
C828 C 0.38912 0.6379 0.61262 0.0
C829 C 0.36543 0.62299 0.60564 0.0
C830 C 0.34638 0.69098 0.65307 0.0
C831 C 0.33732 0.69751 0.64031 0.0
C832 C 0.34974 0.70052 0.66674 0.0
C833 C 0.33164 0.71349 0.6415 0.0
C834 C 0.34382 0.71643 0.66747 0.0
N835 N 0.33497 0.72253 0.65495 0.0
C836 C 0.32568 0.65571 0.61158 0.0
C837 C 0.35276 0.66513 0.60896 0.0
C838 C 0.32314 0.65755 0.59493 0.0
N839 N 0.34039 0.65922 0.61815 0.0
C840 C 0.35086 0.66688 0.59223 0.0
C841 C 0.33594 0.66292 0.58505 0.0
H842 H 0.31597 0.65135 0.61925 0.0
H843 H 0.3642 0.66819 0.61462 0.0
C844 C 0.39534 0.64912 0.67146 0.0
N845 N 0.38549 0.66186 0.66788 0.0
C846 C 0.41135 0.65187 0.67611 0.0
C847 C 0.40691 0.68079 0.67286 0.0
C848 C 0.39092 0.67748 0.66838 0.0
C849 C 0.41729 0.66789 0.67688 0.0
H850 H 0.39069 0.63682 0.67072 0.0
H851 H 0.38285 0.68735 0.66534 0.0
O852 O 0.32455 0.64944 0.65285 0.0
O853 O 0.3493 0.65001 0.68095 0.0
O854 O 0.36082 0.63907 0.64695 0.0
O855 O 0.35185 0.67529 0.65224 0.0
H856 H 0.30405 0.64934 0.67765 0.0
H857 H 0.31757 0.6246 0.63355 0.0
H858 H 0.28235 0.62883 0.68186 0.0
H859 H 0.29564 0.6045 0.63857 0.0
H860 H 0.38281 0.6715 0.71923 0.0
H861 H 0.3629 0.62249 0.69074 0.0
H862 H 0.36172 0.67441 0.69796 0.0
H863 H 0.38389 0.6205 0.7122 0.0
H864 H 0.32023 0.59424 0.69902 0.0
H865 H 0.34091 0.5764 0.65415 0.0
H866 H 0.29005 0.70252 0.67283 0.0
H867 H 0.313 0.68797 0.71783 0.0
H868 H 0.38962 0.64876 0.63641 0.0
H869 H 0.34662 0.6218 0.62372 0.0
H870 H 0.40098 0.6424 0.60925 0.0
H871 H 0.35876 0.6159 0.5968 0.0
H872 H 0.33457 0.69031 0.62966 0.0
H873 H 0.35663 0.69562 0.67678 0.0
H874 H 0.32456 0.71869 0.63175 0.0
H875 H 0.34622 0.72391 0.67803 0.0
H876 H 0.31148 0.65437 0.58977 0.0
H877 H 0.36092 0.67125 0.58497 0.0
H878 H 0.41907 0.64157 0.6788 0.0
H879 H 0.41106 0.6933 0.67333 0.0
Li880 Li 0.33804 0.35964 0.66122 0.0
Li881 Li 0.35904 0.33967 0.65718 0.0
Li882 Li 0.33526 0.34149 0.63933 0.0
Li883 Li 0.33243 0.33116 0.6666 0.0
C884 C 0.3584 0.37317 0.64088 0.0
N885 N 0.36916 0.40501 0.63903 0.0
C886 C 0.3732 0.37763 0.64787 0.0
C887 C 0.34919 0.38488 0.63274 0.0
C888 C 0.37841 0.39379 0.64684 0.0
C889 C 0.3548 0.40092 0.63201 0.0
C890 C 0.34356 0.34983 0.69314 0.0
C891 C 0.34933 0.35513 0.72138 0.0
N892 N 0.33347 0.3589 0.72385 0.0
C893 C 0.32731 0.35379 0.69596 0.0
C894 C 0.35467 0.35053 0.70593 0.0
C895 C 0.32246 0.35834 0.71157 0.0
C896 C 0.3193 0.38792 0.666 0.0
N897 N 0.33404 0.38111 0.66874 0.0
C898 C 0.34332 0.40521 0.68208 0.0
C899 C 0.34588 0.38925 0.67688 0.0
C900 C 0.32835 0.41275 0.67898 0.0
C901 C 0.31618 0.40381 0.67103 0.0
H902 H 0.30997 0.38105 0.65989 0.0
H903 H 0.3574 0.38339 0.67914 0.0
C904 C 0.38722 0.3247 0.64591 0.0
N905 N 0.38132 0.33454 0.65777 0.0
C906 C 0.40356 0.32045 0.64575 0.0
C907 C 0.40752 0.33684 0.66985 0.0
C908 C 0.39099 0.3405 0.66973 0.0
C909 C 0.41405 0.32671 0.65771 0.0
H910 H 0.37919 0.32012 0.63657 0.0
H911 H 0.38592 0.34835 0.67896 0.0
C912 C 0.3047 0.34832 0.64619 0.0
N913 N 0.27739 0.35034 0.62682 0.0
C914 C 0.29153 0.33794 0.64889 0.0
C915 C 0.30378 0.36 0.63388 0.0
C916 C 0.27787 0.33908 0.63891 0.0
C917 C 0.28994 0.36075 0.62414 0.0
C918 C 0.35084 0.3068 0.65316 0.0
C919 C 0.34929 0.2936 0.64257 0.0
C920 C 0.35807 0.30458 0.66836 0.0
C921 C 0.3551 0.27836 0.64733 0.0
C922 C 0.36372 0.28916 0.67267 0.0
N923 N 0.36213 0.27648 0.66215 0.0
C924 C 0.33491 0.34756 0.60582 0.0
C925 C 0.31809 0.32569 0.61429 0.0
C926 C 0.33078 0.34482 0.58964 0.0
N927 N 0.32857 0.33802 0.61769 0.0
C928 C 0.31356 0.32256 0.59825 0.0
C929 C 0.32003 0.33213 0.58566 0.0
H930 H 0.34341 0.3571 0.60891 0.0
H931 H 0.31336 0.31825 0.62404 0.0
C932 C 0.32387 0.31255 0.69493 0.0
N933 N 0.32166 0.31489 0.67873 0.0
C934 C 0.31529 0.30035 0.70299 0.0
C935 C 0.30304 0.29267 0.6774 0.0
C936 C 0.31188 0.30498 0.66985 0.0
C937 C 0.30452 0.29042 0.69423 0.0
H938 H 0.33225 0.32008 0.70164 0.0
H939 H 0.31091 0.30674 0.65687 0.0
O940 O 0.35296 0.35745 0.64205 0.0
O941 O 0.34875 0.3456 0.67792 0.0
O942 O 0.31826 0.34728 0.65576 0.0
O943 O 0.34502 0.32173 0.64872 0.0
H944 H 0.38053 0.36877 0.65416 0.0
H945 H 0.33781 0.38167 0.62711 0.0
H946 H 0.38979 0.39742 0.6523 0.0
H947 H 0.34772 0.41012 0.62586 0.0
H948 H 0.3578 0.3557 0.73139 0.0
H949 H 0.31851 0.35335 0.68625 0.0
H950 H 0.3673 0.34756 0.70395 0.0
H951 H 0.30993 0.36143 0.71392 0.0
H952 H 0.35307 0.4117 0.68806 0.0
H953 H 0.30437 0.40904 0.66869 0.0
H954 H 0.40789 0.31233 0.63634 0.0
H955 H 0.4151 0.34222 0.67915 0.0
H956 H 0.29173 0.32921 0.65869 0.0
H957 H 0.31374 0.36827 0.63175 0.0
H958 H 0.26764 0.33106 0.64083 0.0
H959 H 0.28919 0.36961 0.61445 0.0
H960 H 0.34364 0.29512 0.6308 0.0
H961 H 0.35927 0.31464 0.67678 0.0
H962 H 0.35399 0.26803 0.63924 0.0
H963 H 0.36934 0.28726 0.68439 0.0
H964 H 0.33633 0.35228 0.58033 0.0
H965 H 0.30515 0.31274 0.59574 0.0
H966 H 0.31679 0.29895 0.71599 0.0
H967 H 0.29514 0.28501 0.67017 0.0
Li968 Li 0.64196 0.33096 0.64958 0.0
Li969 Li 0.66777 0.32624 0.6626 0.0
Li970 Li 0.66078 0.35356 0.65317 0.0
Li971 Li 0.66754 0.33228 0.63406 0.0
C972 C 0.63809 0.34926 0.67768 0.0
N973 N 0.61438 0.36748 0.69284 0.0
C974 C 0.63693 0.34937 0.69461 0.0
C975 C 0.62718 0.35841 0.66845 0.0
C976 C 0.62486 0.35866 0.70205 0.0
C977 C 0.61529 0.36754 0.67634 0.0
C978 C 0.6613 0.29743 0.64752 0.0
C979 C 0.67922 0.27455 0.64384 0.0
N980 N 0.66906 0.26517 0.6529 0.0
C981 C 0.6509 0.28749 0.65654 0.0
C982 C 0.67546 0.29086 0.6409 0.0
C983 C 0.65509 0.27125 0.65923 0.0
C984 C 0.61044 0.32869 0.63683 0.0
N985 N 0.61997 0.32474 0.64967 0.0
C986 C 0.59741 0.31332 0.66383 0.0
C987 C 0.61388 0.31713 0.66298 0.0
C988 C 0.58712 0.31758 0.6509 0.0
C989 C 0.59389 0.32526 0.63721 0.0
H990 H 0.61566 0.33481 0.62646 0.0
H991 H 0.6218 0.31426 0.67305 0.0
C992 C 0.6932 0.31836 0.6838 0.0
N993 N 0.67753 0.31505 0.67998 0.0
C994 C 0.70043 0.31091 0.69712 0.0
C995 C 0.67508 0.29717 0.70271 0.0
C996 C 0.66832 0.30495 0.68927 0.0
C997 C 0.69138 0.30008 0.70671 0.0
H998 H 0.70001 0.32708 0.67677 0.0
H999 H 0.65566 0.30313 0.68637 0.0
C1000 C 0.65115 0.35863 0.62082 0.0
N1001 N 0.65647 0.38055 0.59589 0.0
C1002 C 0.66587 0.36701 0.61974 0.0
C1003 C 0.63912 0.36142 0.6092 0.0
C1004 C 0.66834 0.37803 0.60706 0.0
C1005 C 0.64204 0.37254 0.59669 0.0
C1006 C 0.69748 0.34257 0.64644 0.0
C1007 C 0.70526 0.35754 0.64416 0.0
C1008 C 0.70611 0.32814 0.64401 0.0
C1009 C 0.72146 0.35781 0.63919 0.0
C1010 C 0.72229 0.32892 0.63905 0.0
N1011 N 0.72956 0.34361 0.63674 0.0
C1012 C 0.67397 0.37949 0.67029 0.0
C1013 C 0.65261 0.3872 0.65262 0.0
C1014 C 0.67583 0.39553 0.67555 0.0
N1015 N 0.66259 0.37571 0.65897 0.0
C1016 C 0.65407 0.40339 0.6575 0.0
C1017 C 0.6658 0.40773 0.66912 0.0
H1018 H 0.68155 0.36999 0.67526 0.0
H1019 H 0.6435 0.3838 0.6438 0.0
C1020 C 0.66838 0.31569 0.60488 0.0
N1021 N 0.6764 0.32741 0.61332 0.0
C1022 C 0.67296 0.31187 0.58903 0.0
C1023 C 0.69425 0.33205 0.59092 0.0
C1024 C 0.68912 0.3356 0.60668 0.0
C1025 C 0.68599 0.32019 0.58177 0.0
H1026 H 0.6581 0.3096 0.61035 0.0
H1027 H 0.69507 0.34518 0.61339 0.0
O1028 O 0.64987 0.34019 0.67027 0.0
O1029 O 0.6574 0.31338 0.64478 0.0
O1030 O 0.64853 0.34765 0.63306 0.0
O1031 O 0.68158 0.3421 0.65119 0.0
H1032 H 0.64529 0.34233 0.70191 0.0
H1033 H 0.62787 0.35846 0.65533 0.0
H1034 H 0.62382 0.35886 0.71515 0.0
H1035 H 0.60677 0.37468 0.66935 0.0
H1036 H 0.69018 0.26932 0.63886 0.0
H1037 H 0.63976 0.2923 0.66152 0.0
H1038 H 0.68338 0.2982 0.63342 0.0
H1039 H 0.64722 0.26347 0.66634 0.0
H1040 H 0.59279 0.30722 0.67453 0.0
H1041 H 0.58642 0.32906 0.62709 0.0
H1042 H 0.7129 0.31386 0.70006 0.0
H1043 H 0.66767 0.28894 0.70983 0.0
H1044 H 0.67528 0.36505 0.62859 0.0
H1045 H 0.62765 0.35506 0.60979 0.0
H1046 H 0.67969 0.38457 0.60611 0.0
H1047 H 0.63283 0.37481 0.58762 0.0
H1048 H 0.69885 0.36885 0.64615 0.0
H1049 H 0.70041 0.31649 0.64606 0.0
H1050 H 0.72759 0.36931 0.6373 0.0
H1051 H 0.72908 0.31784 0.63708 0.0
H1052 H 0.68487 0.39829 0.68469 0.0
H1053 H 0.64622 0.41244 0.65207 0.0
H1054 H 0.66595 0.30294 0.58237 0.0
H1055 H 0.7044 0.33872 0.58588 0.0
Li1056 Li 0.65743 0.36158 0.33862 0.0
Li1057 Li 0.65869 0.33995 0.35928 0.0
Li1058 Li 0.66309 0.33481 0.33035 0.0
Li1059 Li 0.63597 0.34178 0.3398 0.0
C1060 C 0.6916 0.3434 0.34144 0.0
N1061 N 0.72205 0.33205 0.33322 0.0
C1062 C 0.70029 0.33371 0.35231 0.0
C1063 C 0.69849 0.34748 0.32645 0.0
C1064 C 0.71565 0.32806 0.34792 0.0
C1065 C 0.71386 0.34156 0.32249 0.0
C1066 C 0.63181 0.35786 0.36996 0.0
C1067 C 0.6162 0.34362 0.39026 0.0
N1068 N 0.61124 0.35814 0.39645 0.0
C1069 C 0.62661 0.37264 0.37655 0.0
C1070 C 0.6266 0.34323 0.37688 0.0
C1071 C 0.61618 0.37252 0.38993 0.0
C1072 C 0.64897 0.39438 0.33622 0.0
N1073 N 0.66164 0.38391 0.33512 0.0
C1074 C 0.67974 0.40563 0.32852 0.0
C1075 C 0.67684 0.38916 0.33148 0.0
C1076 C 0.66684 0.41673 0.32939 0.0
C1077 C 0.65129 0.41094 0.33334 0.0
H1078 H 0.63704 0.38982 0.33926 0.0
H1079 H 0.6867 0.38056 0.33081 0.0
C1080 C 0.66937 0.31863 0.38374 0.0
N1081 N 0.66498 0.33423 0.38052 0.0
C1082 C 0.67439 0.31427 0.39933 0.0
C1083 C 0.67004 0.34209 0.40794 0.0
C1084 C 0.6653 0.34594 0.39216 0.0
C1085 C 0.67476 0.32608 0.4117 0.0
H1086 H 0.66918 0.30965 0.37413 0.0
H1087 H 0.66181 0.35826 0.38918 0.0
C1088 C 0.6444 0.36224 0.31003 0.0
N1089 N 0.63863 0.38874 0.29021 0.0
C1090 C 0.62901 0.36934 0.30958 0.0
C1091 C 0.65682 0.36855 0.30032 0.0
C1092 C 0.62634 0.38274 0.29948 0.0
C1093 C 0.65367 0.38199 0.29042 0.0
C1094 C 0.64211 0.30781 0.34388 0.0
C1095 C 0.64071 0.30096 0.32839 0.0
C1096 C 0.63621 0.29926 0.35734 0.0
C1097 C 0.63313 0.28585 0.32657 0.0
C1098 C 0.62872 0.28417 0.35502 0.0
N1099 N 0.62733 0.27784 0.33981 0.0
C1100 C 0.68289 0.30853 0.32207 0.0
C1101 C 0.6734 0.32398 0.29966 0.0
C1102 C 0.69131 0.29815 0.31171 0.0
N1103 N 0.67434 0.32121 0.31589 0.0
C1104 C 0.68156 0.31385 0.28884 0.0
C1105 C 0.6907 0.30077 0.29485 0.0
H1106 H 0.68319 0.30656 0.33505 0.0
H1107 H 0.6662 0.33396 0.29514 0.0
C1108 C 0.60134 0.34445 0.34422 0.0
N1109 N 0.61362 0.33756 0.33559 0.0
C1110 C 0.58525 0.34112 0.34019 0.0
C1111 C 0.59465 0.3241 0.31818 0.0
C1112 C 0.61055 0.32789 0.32254 0.0
C1113 C 0.58179 0.33074 0.32709 0.0
H1114 H 0.6039 0.35273 0.35404 0.0
H1115 H 0.62046 0.32336 0.31528 0.0
O1116 O 0.67643 0.34882 0.34542 0.0
O1117 O 0.64219 0.35782 0.35701 0.0
O1118 O 0.64736 0.34937 0.32014 0.0
O1119 O 0.64964 0.32254 0.34598 0.0
H1120 H 0.69523 0.33053 0.364 0.0
H1121 H 0.6919 0.35486 0.31782 0.0
H1122 H 0.72248 0.32048 0.3562 0.0
H1123 H 0.71925 0.34447 0.31087 0.0
H1124 H 0.61205 0.33237 0.39572 0.0
H1125 H 0.63061 0.38408 0.37137 0.0
H1126 H 0.63051 0.33173 0.37192 0.0
H1127 H 0.61204 0.38387 0.39515 0.0
H1128 H 0.69188 0.40959 0.32543 0.0
H1129 H 0.64108 0.41913 0.33441 0.0
H1130 H 0.67814 0.30185 0.40159 0.0
H1131 H 0.66981 0.35154 0.41711 0.0
H1132 H 0.61928 0.3647 0.31707 0.0
H1133 H 0.66883 0.3633 0.30061 0.0
H1134 H 0.61452 0.3884 0.29908 0.0
H1135 H 0.6632 0.38708 0.28295 0.0
H1136 H 0.64524 0.30732 0.31783 0.0
H1137 H 0.63747 0.30415 0.36947 0.0
H1138 H 0.63186 0.2805 0.31463 0.0
H1139 H 0.62405 0.27746 0.36532 0.0
H1140 H 0.69837 0.28832 0.31685 0.0
H1141 H 0.68056 0.31611 0.27592 0.0
H1142 H 0.57561 0.34654 0.3473 0.0
H1143 H 0.59244 0.31635 0.30775 0.0
Li1144 Li 0.64494 0.66589 0.35352 0.0
Li1145 Li 0.64563 0.64374 0.33377 0.0
Li1146 Li 0.6538 0.67109 0.32643 0.0
Li1147 Li 0.62553 0.66454 0.3312 0.0
C1148 C 0.67991 0.65818 0.33921 0.0
N1149 N 0.71212 0.6623 0.33089 0.0
C1150 C 0.68789 0.64634 0.32999 0.0
C1151 C 0.68835 0.67204 0.34431 0.0
C1152 C 0.70417 0.64866 0.3259 0.0
C1153 C 0.70461 0.67393 0.33994 0.0
C1154 C 0.62484 0.63428 0.35573 0.0
C1155 C 0.61334 0.60737 0.35324 0.0
N1156 N 0.61963 0.60341 0.36799 0.0
C1157 C 0.63113 0.62997 0.37089 0.0
C1158 C 0.6158 0.62293 0.34685 0.0
C1159 C 0.62837 0.61429 0.37687 0.0
C1160 C 0.63464 0.67593 0.38456 0.0
N1161 N 0.64765 0.67092 0.37577 0.0
C1162 C 0.66438 0.67109 0.39941 0.0
C1163 C 0.66234 0.6685 0.38279 0.0
C1164 C 0.65117 0.67629 0.40887 0.0
C1165 C 0.63619 0.67893 0.40116 0.0
H1166 H 0.623 0.67738 0.37871 0.0
H1167 H 0.67237 0.66412 0.37557 0.0
C1168 C 0.64721 0.61408 0.31653 0.0
N1169 N 0.65068 0.62151 0.33086 0.0
C1170 C 0.65118 0.59775 0.31419 0.0
C1171 C 0.66242 0.59716 0.34132 0.0
C1172 C 0.65828 0.61351 0.34311 0.0
C1173 C 0.65884 0.58907 0.32671 0.0
H1174 H 0.6415 0.62086 0.30687 0.0
H1175 H 0.66111 0.61986 0.35427 0.0
C1176 C 0.6349 0.69619 0.34928 0.0
N1177 N 0.62882 0.72078 0.37138 0.0
C1178 C 0.61894 0.70045 0.3531 0.0
C1179 C 0.64776 0.70452 0.35661 0.0
C1180 C 0.61612 0.7129 0.36431 0.0
C1181 C 0.64444 0.71688 0.36778 0.0
C1182 C 0.63058 0.65677 0.30056 0.0
C1183 C 0.63313 0.66919 0.28923 0.0
C1184 C 0.61791 0.64568 0.29822 0.0
C1185 C 0.62287 0.67036 0.27578 0.0
C1186 C 0.6079 0.64729 0.28463 0.0
N1187 N 0.61056 0.65949 0.27379 0.0
C1188 C 0.67687 0.67479 0.30198 0.0
C1189 C 0.6692 0.69943 0.31493 0.0
C1190 C 0.68767 0.68311 0.29197 0.0
N1191 N 0.66808 0.68303 0.31325 0.0
C1192 C 0.67974 0.70828 0.30506 0.0
C1193 C 0.68915 0.70006 0.29347 0.0
H1194 H 0.67543 0.66176 0.30077 0.0
H1195 H 0.66187 0.70564 0.32386 0.0
C1196 C 0.59172 0.66072 0.33171 0.0
N1197 N 0.60403 0.66933 0.32493 0.0
C1198 C 0.57573 0.66394 0.32731 0.0
C1199 C 0.58542 0.68488 0.30907 0.0
C1200 C 0.60122 0.68139 0.31399 0.0
C1201 C 0.5724 0.67608 0.31574 0.0
H1202 H 0.5943 0.65145 0.34063 0.0
H1203 H 0.61129 0.68822 0.30904 0.0
O1204 O 0.66389 0.65629 0.34307 0.0
O1205 O 0.6277 0.64945 0.3495 0.0
O1206 O 0.63791 0.68394 0.33844 0.0
O1207 O 0.64036 0.65554 0.31392 0.0
H1208 H 0.68153 0.63557 0.32587 0.0
H1209 H 0.68235 0.68133 0.35141 0.0
H1210 H 0.71047 0.63965 0.3187 0.0
H1211 H 0.71126 0.68465 0.3437 0.0
H1212 H 0.60648 0.59843 0.34645 0.0
H1213 H 0.63819 0.63857 0.37791 0.0
H1214 H 0.61092 0.62605 0.33507 0.0
H1215 H 0.63322 0.61076 0.38855 0.0
H1216 H 0.67606 0.66851 0.40483 0.0
H1217 H 0.6257 0.68311 0.40787 0.0
H1218 H 0.64844 0.59205 0.30264 0.0
H1219 H 0.66816 0.59088 0.35135 0.0
H1220 H 0.60883 0.69413 0.34757 0.0
H1221 H 0.66018 0.70135 0.35384 0.0
H1222 H 0.60384 0.71628 0.36743 0.0
H1223 H 0.65427 0.72335 0.37363 0.0
H1224 H 0.64281 0.67793 0.29087 0.0
H1225 H 0.61569 0.63607 0.30692 0.0
H1226 H 0.62465 0.67995 0.26696 0.0
H1227 H 0.59798 0.63887 0.28274 0.0
H1228 H 0.69458 0.67642 0.28299 0.0
H1229 H 0.68063 0.72135 0.30658 0.0
H1230 H 0.56609 0.65714 0.33313 0.0
H1231 H 0.58347 0.69426 0.30005 0.0
Li1232 Li 0.33309 0.65269 0.35617 0.0
Li1233 Li 0.33454 0.63385 0.33336 0.0
Li1234 Li 0.35291 0.65702 0.33517 0.0
Li1235 Li 0.32429 0.66053 0.32917 0.0
C1236 C 0.35612 0.63205 0.36445 0.0
N1237 N 0.36448 0.61985 0.39458 0.0
C1238 C 0.35148 0.61629 0.36888 0.0
C1239 C 0.3651 0.64157 0.37531 0.0
C1240 C 0.35583 0.61034 0.38417 0.0
C1241 C 0.36916 0.6352 0.3905 0.0
C1242 C 0.29888 0.64622 0.34236 0.0
C1243 C 0.27399 0.64645 0.32699 0.0
N1244 N 0.26622 0.65322 0.33991 0.0
C1245 C 0.29064 0.65311 0.35551 0.0
C1246 C 0.29049 0.64278 0.328 0.0
C1247 C 0.27413 0.65657 0.35402 0.0
C1248 C 0.33065 0.66943 0.38592 0.0
N1249 N 0.32874 0.65471 0.37862 0.0
C1250 C 0.32197 0.64226 0.40391 0.0
C1251 C 0.32403 0.64133 0.38713 0.0
C1252 C 0.32434 0.6572 0.41183 0.0
C1253 C 0.32842 0.67098 0.40264 0.0
H1254 H 0.3341 0.67991 0.3788 0.0
H1255 H 0.3222 0.62989 0.3809 0.0
C1256 C 0.34723 0.603 0.32678 0.0
N1257 N 0.33321 0.61162 0.32755 0.0
C1258 C 0.3468 0.58622 0.32426 0.0
C1259 C 0.31754 0.58767 0.32263 0.0
C1260 C 0.31854 0.60441 0.32534 0.0
C1261 C 0.33179 0.57835 0.32244 0.0
H1262 H 0.35871 0.6091 0.32868 0.0
H1263 H 0.3076 0.61155 0.3262 0.0
C1264 C 0.34632 0.68717 0.34406 0.0
N1265 N 0.36475 0.71523 0.34206 0.0
C1266 C 0.34317 0.69864 0.33194 0.0
C1267 C 0.35875 0.69003 0.35525 0.0
C1268 C 0.35264 0.71274 0.33112 0.0
C1269 C 0.36797 0.70426 0.354 0.0
C1270 C 0.34404 0.63876 0.30377 0.0
C1271 C 0.36002 0.63389 0.30096 0.0
C1272 C 0.33149 0.63211 0.29447 0.0
C1273 C 0.36318 0.62233 0.28892 0.0
C1274 C 0.33515 0.62056 0.28256 0.0
N1275 N 0.35078 0.61595 0.28005 0.0
C1276 C 0.3869 0.65823 0.33802 0.0
C1277 C 0.3758 0.676 0.31828 0.0
C1278 C 0.40253 0.66355 0.33434 0.0
N1279 N 0.37396 0.66461 0.3301 0.0
C1280 C 0.39121 0.68183 0.31433 0.0
C1281 C 0.40485 0.67559 0.32242 0.0
H1282 H 0.38511 0.64886 0.34704 0.0
H1283 H 0.36528 0.68058 0.31194 0.0
C1284 C 0.29947 0.68359 0.32616 0.0
N1285 N 0.30979 0.67388 0.31773 0.0
C1286 C 0.28954 0.69455 0.31797 0.0
C1287 C 0.30142 0.68556 0.29263 0.0
C1288 C 0.31093 0.67459 0.3013 0.0
C1289 C 0.29059 0.69579 0.30098 0.0
H1290 H 0.29919 0.68302 0.33928 0.0
H1291 H 0.31959 0.66702 0.29499 0.0
O1292 O 0.35176 0.6382 0.34964 0.0
O1293 O 0.31507 0.64286 0.34354 0.0
O1294 O 0.33735 0.67316 0.34493 0.0
O1295 O 0.34065 0.64976 0.31577 0.0
H1296 H 0.3444 0.6088 0.36073 0.0
H1297 H 0.36873 0.65381 0.37212 0.0
H1298 H 0.35224 0.5982 0.38779 0.0
H1299 H 0.376 0.64247 0.39906 0.0
H1300 H 0.26737 0.64397 0.31591 0.0
H1301 H 0.29694 0.65587 0.3667 0.0
H1302 H 0.29671 0.63758 0.31766 0.0
H1303 H 0.26761 0.66197 0.36407 0.0
H1304 H 0.31865 0.63143 0.41065 0.0
H1305 H 0.33039 0.68268 0.4084 0.0
H1306 H 0.35804 0.57942 0.32409 0.0
H1307 H 0.30574 0.58198 0.32148 0.0
H1308 H 0.33364 0.69664 0.32314 0.0
H1309 H 0.36137 0.68128 0.3647 0.0
H1310 H 0.35039 0.72169 0.32175 0.0
H1311 H 0.3777 0.70658 0.36251 0.0
H1312 H 0.36987 0.63885 0.30811 0.0
H1313 H 0.31904 0.63568 0.29657 0.0
H1314 H 0.37549 0.61839 0.28665 0.0
H1315 H 0.32555 0.61523 0.27533 0.0
H1316 H 0.41269 0.65803 0.34057 0.0
H1317 H 0.39239 0.69116 0.30512 0.0
H1318 H 0.28127 0.70206 0.3249 0.0
H1319 H 0.30295 0.68634 0.27959 0.0
Li1320 Li 0.33803 0.34956 0.34341 0.0
Li1321 Li 0.33634 0.32623 0.36168 0.0
Li1322 Li 0.3585 0.32881 0.34238 0.0
Li1323 Li 0.33118 0.32258 0.33355 0.0
C1324 C 0.35635 0.35772 0.36828 0.0
N1325 N 0.36113 0.38769 0.38284 0.0
C1326 C 0.34915 0.36119 0.38326 0.0
C1327 C 0.36601 0.36951 0.36072 0.0
C1328 C 0.35173 0.3764 0.39043 0.0
C1329 C 0.36825 0.38459 0.36826 0.0
C1330 C 0.30353 0.3352 0.34299 0.0
C1331 C 0.27934 0.31956 0.33753 0.0
N1332 N 0.27305 0.33243 0.3293 0.0
C1333 C 0.29679 0.3483 0.33454 0.0
C1334 C 0.2947 0.32074 0.34459 0.0
C1335 C 0.28137 0.34666 0.3277 0.0
C1336 C 0.33741 0.37903 0.32622 0.0
N1337 N 0.33365 0.37201 0.34068 0.0
C1338 C 0.32409 0.39735 0.35115 0.0
C1339 C 0.32675 0.38067 0.35293 0.0
C1340 C 0.32821 0.40498 0.33646 0.0
C1341 C 0.33475 0.3956 0.32381 0.0
H1342 H 0.34255 0.37177 0.31656 0.0
H1343 H 0.32346 0.37465 0.36413 0.0
C1344 C 0.34314 0.31831 0.39403 0.0
N1345 N 0.33095 0.31959 0.38303 0.0
C1346 C 0.33971 0.31442 0.41014 0.0
C1347 C 0.31128 0.31264 0.40315 0.0
C1348 C 0.31527 0.31673 0.38719 0.0
C1349 C 0.32356 0.31172 0.41494 0.0
H1350 H 0.3555 0.32078 0.39035 0.0
H1351 H 0.30582 0.31789 0.3782 0.0
C1352 C 0.35748 0.33805 0.3119 0.0
N1353 N 0.38106 0.33623 0.28812 0.0
C1354 C 0.3571 0.32548 0.30044 0.0
C1355 C 0.36979 0.34975 0.31119 0.0
C1356 C 0.36913 0.32477 0.28852 0.0
C1357 C 0.38163 0.34859 0.29911 0.0
C1358 C 0.34729 0.29686 0.35798 0.0
C1359 C 0.36238 0.2942 0.36522 0.0
C1360 C 0.33401 0.28728 0.36251 0.0
C1361 C 0.36391 0.28201 0.37695 0.0
C1362 C 0.33603 0.27524 0.3743 0.0
N1363 N 0.35082 0.27288 0.38122 0.0
C1364 C 0.39216 0.33434 0.34458 0.0
C1365 C 0.38445 0.31192 0.32812 0.0
C1366 C 0.40838 0.33216 0.34041 0.0
N1367 N 0.3806 0.32448 0.33816 0.0
C1368 C 0.40054 0.3093 0.32358 0.0
C1369 C 0.4127 0.31967 0.32956 0.0
H1370 H 0.38878 0.34401 0.35278 0.0
H1371 H 0.37494 0.30421 0.32332 0.0
C1372 C 0.31172 0.32087 0.30608 0.0
N1373 N 0.31897 0.31167 0.31769 0.0
C1374 C 0.30189 0.31355 0.29443 0.0
C1375 C 0.30783 0.28736 0.3065 0.0
C1376 C 0.31743 0.29522 0.31803 0.0
C1377 C 0.2998 0.29661 0.29465 0.0
H1378 H 0.31344 0.33393 0.30604 0.0
H1379 H 0.32353 0.28825 0.32731 0.0
O1380 O 0.35386 0.34295 0.36098 0.0
O1381 O 0.31874 0.33648 0.34952 0.0
O1382 O 0.34602 0.33875 0.32391 0.0
O1383 O 0.34545 0.30898 0.34676 0.0
H1384 H 0.3415 0.35232 0.38923 0.0
H1385 H 0.3715 0.36715 0.34903 0.0
H1386 H 0.34619 0.37925 0.402 0.0
H1387 H 0.37559 0.39385 0.36249 0.0
H1388 H 0.27246 0.30838 0.33852 0.0
H1389 H 0.30343 0.35958 0.33314 0.0
H1390 H 0.29981 0.31039 0.35088 0.0
H1391 H 0.27604 0.35667 0.32106 0.0
H1392 H 0.31884 0.40419 0.36109 0.0
H1393 H 0.33812 0.4011 0.31234 0.0
H1394 H 0.34955 0.31419 0.41884 0.0
H1395 H 0.2987 0.31049 0.40625 0.0
H1396 H 0.34773 0.31626 0.30086 0.0
H1397 H 0.37033 0.3595 0.32001 0.0
H1398 H 0.36904 0.31507 0.27963 0.0
H1399 H 0.3913 0.35748 0.2985 0.0
H1400 H 0.37276 0.30157 0.36196 0.0
H1401 H 0.3222 0.2893 0.35716 0.0
H1402 H 0.3755 0.27986 0.3827 0.0
H1403 H 0.32584 0.26782 0.37801 0.0
H1404 H 0.41744 0.34018 0.3456 0.0
H1405 H 0.40335 0.29957 0.31517 0.0
H1406 H 0.29602 0.32103 0.28534 0.0
H1407 H 0.3064 0.27426 0.30707 0.0
H1408 H 0.26925 0.30574 0.28622 0.0
H1409 H 0.25076 0.29177 0.26753 0.0
H1410 H 0.28736 0.25555 0.25797 0.0
H1411 H 0.30596 0.26953 0.27656 0.0
H1412 H 0.27095 0.26684 0.22986 0.0
H1413 H 0.25924 0.24658 0.28383 0.0
H1414 H 0.25213 0.24957 0.31277 0.0
H1415 H 0.20754 0.27304 0.29965 0.0
H1416 H 0.21451 0.2704 0.27061 0.0
H1417 H 0.22666 0.20114 0.19783 0.0
H1418 H 0.24397 0.21898 0.21397 0.0
H1419 H 0.20254 0.24849 0.22641 0.0
H1420 H 0.18496 0.2302 0.21092 0.0
H1421 H 0.22041 0.24287 0.25233 0.0
H1422 H 0.23061 0.26158 0.19851 0.0
H1423 H 0.23743 0.25929 0.16944 0.0
H1424 H 0.28419 0.23997 0.18167 0.0
H1425 H 0.27756 0.24192 0.21083 0.0
C1426 C 0.27339 0.29491 0.27996 0.0
C1427 C 0.28896 0.28864 0.28282 0.0
C1428 C 0.26283 0.28694 0.26938 0.0
C1429 C 0.26773 0.27263 0.26151 0.0
C1430 C 0.28343 0.2666 0.26398 0.0
C1431 C 0.29395 0.27449 0.27465 0.0
C1432 C 0.25626 0.26352 0.25122 0.0
C1433 C 0.25995 0.26146 0.23473 0.0
C1434 C 0.24174 0.25699 0.25761 0.0
C1435 C 0.23748 0.25846 0.27506 0.0
C1436 C 0.24798 0.2525 0.28712 0.0
C1437 C 0.24397 0.25411 0.30354 0.0
C1438 C 0.22942 0.26153 0.30805 0.0
C1439 C 0.21882 0.26732 0.29614 0.0
C1440 C 0.22279 0.26576 0.2797 0.0
C1441 C 0.22119 0.21132 0.20413 0.0
C1442 C 0.20443 0.21425 0.20312 0.0
C1443 C 0.23114 0.22163 0.21316 0.0
C1444 C 0.22457 0.2352 0.22115 0.0
C1445 C 0.20785 0.23814 0.22023 0.0
C1446 C 0.19786 0.22775 0.21129 0.0
C1447 C 0.23513 0.24597 0.2309 0.0
C1448 C 0.23129 0.24836 0.24733 0.0
C1449 C 0.24945 0.25292 0.2244 0.0
C1450 C 0.25353 0.25178 0.20687 0.0
C1451 C 0.2423 0.25673 0.19501 0.0
C1452 C 0.24614 0.25551 0.17851 0.0
C1453 C 0.26122 0.24946 0.17371 0.0
C1454 C 0.27251 0.24465 0.18541 0.0
C1455 C 0.26872 0.24582 0.20192 0.0
H1456 H 0.26417 0.24852 0.16093 0.0
H1457 H 0.22633 0.26277 0.32077 0.0
H1458 H 0.69363 0.26768 0.29643 0.0
H1459 H 0.70987 0.25012 0.27885 0.0
H1460 H 0.72398 0.29176 0.25021 0.0
H1461 H 0.70805 0.3095 0.26793 0.0
H1462 H 0.71566 0.26412 0.23156 0.0
H1463 H 0.7494 0.2787 0.27715 0.0
H1464 H 0.75583 0.28147 0.30628 0.0
H1465 H 0.75083 0.22981 0.3125 0.0
H1466 H 0.74413 0.22676 0.28344 0.0
H1467 H 0.78457 0.23074 0.19194 0.0
H1468 H 0.76575 0.24765 0.20753 0.0
H1469 H 0.75616 0.20726 0.23968 0.0
H1470 H 0.77507 0.19039 0.22424 0.0
H1471 H 0.76161 0.23419 0.25641 0.0
H1472 H 0.72854 0.21908 0.21103 0.0
H1473 H 0.72157 0.2159 0.18208 0.0
H1474 H 0.72463 0.26766 0.17545 0.0
H1475 H 0.73186 0.27114 0.20433 0.0
C1476 C 0.70025 0.27312 0.28644 0.0
C1477 C 0.6997 0.28999 0.28364 0.0
C1478 C 0.70942 0.26307 0.27637 0.0
C1479 C 0.71818 0.26973 0.26337 0.0
C1480 C 0.71723 0.28645 0.26019 0.0
C1481 C 0.70811 0.29653 0.27029 0.0
C1482 C 0.72893 0.25933 0.25356 0.0
C1483 C 0.72583 0.25769 0.2369 0.0
C1484 C 0.74192 0.25073 0.26071 0.0
C1485 C 0.7461 0.25252 0.27816 0.0
C1486 C 0.74955 0.26795 0.28476 0.0
C1487 C 0.75326 0.26957 0.30125 0.0
C1488 C 0.7537 0.25583 0.31124 0.0
C1489 C 0.75047 0.24044 0.30475 0.0
C1490 C 0.74672 0.23876 0.28826 0.0
C1491 C 0.77833 0.22547 0.20226 0.0
C1492 C 0.78128 0.20932 0.20695 0.0
C1493 C 0.76758 0.2351 0.21112 0.0
C1494 C 0.75946 0.22863 0.22465 0.0
C1495 C 0.76234 0.21247 0.22929 0.0
C1496 C 0.77316 0.20289 0.22051 0.0
C1497 C 0.74836 0.23887 0.23433 0.0
C1498 C 0.75142 0.24053 0.25101 0.0
C1499 C 0.73529 0.2474 0.22718 0.0
C1500 C 0.7309 0.24535 0.20982 0.0
C1501 C 0.72786 0.22978 0.20338 0.0
C1502 C 0.72384 0.22792 0.18698 0.0
C1503 C 0.7227 0.24156 0.17692 0.0
C1504 C 0.72554 0.2571 0.18325 0.0
C1505 C 0.72958 0.25902 0.19964 0.0
H1506 H 0.71958 0.2401 0.16423 0.0
H1507 H 0.75657 0.25711 0.32401 0.0
H1508 H 0.76599 0.79556 0.19715 0.0
H1509 H 0.74742 0.77945 0.2138 0.0
H1510 H 0.78694 0.74843 0.2284 0.0
H1511 H 0.80572 0.7647 0.21209 0.0
H1512 H 0.7586 0.73142 0.21958 0.0
H1513 H 0.77491 0.77609 0.25385 0.0
H1514 H 0.77918 0.80504 0.26059 0.0
H1515 H 0.72825 0.81414 0.25481 0.0
H1516 H 0.72372 0.78528 0.24779 0.0
H1517 H 0.72056 0.69271 0.28643 0.0
H1518 H 0.73913 0.70784 0.26882 0.0
H1519 H 0.70145 0.74285 0.25885 0.0
H1520 H 0.68294 0.72789 0.27666 0.0
H1521 H 0.72905 0.75777 0.26505 0.0
H1522 H 0.71225 0.7136 0.23089 0.0
H1523 H 0.70751 0.68491 0.22344 0.0
H1524 H 0.7584 0.67501 0.22812 0.0
H1525 H 0.76342 0.70361 0.23582 0.0
C1526 C 0.77076 0.78539 0.204 0.0
C1527 C 0.78734 0.78147 0.20341 0.0
C1528 C 0.76013 0.77617 0.21342 0.0
C1529 C 0.7659 0.76289 0.22238 0.0
C1530 C 0.78232 0.75865 0.22151 0.0
C1531 C 0.79299 0.76792 0.21216 0.0
C1532 C 0.75481 0.75363 0.23295 0.0
C1533 C 0.75226 0.73708 0.22966 0.0
C1534 C 0.74632 0.76122 0.24579 0.0
C1535 C 0.74901 0.77856 0.25014 0.0
C1536 C 0.76464 0.78429 0.25389 0.0
C1537 C 0.76711 0.80068 0.25778 0.0
C1538 C 0.754 0.81143 0.25809 0.0
C1539 C 0.7384 0.8058 0.25455 0.0
C1540 C 0.73587 0.78943 0.25062 0.0
C1541 C 0.71625 0.70358 0.28038 0.0
C1542 C 0.70035 0.70916 0.28284 0.0
C1543 C 0.72683 0.71218 0.27032 0.0
C1544 C 0.72158 0.72633 0.26238 0.0
C1545 C 0.70572 0.73195 0.26488 0.0
C1546 C 0.69519 0.72344 0.27506 0.0
C1547 C 0.73273 0.73549 0.2517 0.0
C1548 C 0.73533 0.75205 0.25497 0.0
C1549 C 0.74116 0.72792 0.23876 0.0
C1550 C 0.73819 0.71072 0.23409 0.0
C1551 C 0.72242 0.70528 0.23046 0.0
C1552 C 0.71968 0.68904 0.22617 0.0
C1553 C 0.73264 0.67813 0.22535 0.0
C1554 C 0.74837 0.68346 0.22878 0.0
C1555 C 0.75117 0.69969 0.23309 0.0
H1556 H 0.73049 0.66556 0.22202 0.0
H1557 H 0.75593 0.82411 0.26111 0.0
H1558 H 0.27655 0.69277 0.27098 0.0
H1559 H 0.26258 0.7138 0.25545 0.0
H1560 H 0.26821 0.74747 0.29524 0.0
H1561 H 0.28297 0.72683 0.31064 0.0
H1562 H 0.23529 0.74469 0.27957 0.0
H1563 H 0.29165 0.75456 0.26803 0.0
H1564 H 0.31937 0.74658 0.26019 0.0
H1565 H 0.30183 0.72971 0.21402 0.0
H1566 H 0.27395 0.73735 0.2217 0.0
H1567 H 0.20623 0.80965 0.23091 0.0
H1568 H 0.22293 0.79425 0.24993 0.0
H1569 H 0.23517 0.76033 0.21179 0.0
H1570 H 0.21947 0.77625 0.19248 0.0
H1571 H 0.26065 0.76605 0.22919 0.0
H1572 H 0.20474 0.7528 0.2408 0.0
H1573 H 0.17636 0.7588 0.24808 0.0
H1574 H 0.19204 0.77989 0.29318 0.0
H1575 H 0.22055 0.7742 0.28606 0.0
C1576 C 0.27499 0.70468 0.27641 0.0
C1577 C 0.281 0.70813 0.29203 0.0
C1578 C 0.26691 0.71661 0.26756 0.0
C1579 C 0.26452 0.73211 0.27423 0.0
C1580 C 0.26997 0.73551 0.28998 0.0
C1581 C 0.27829 0.72366 0.29877 0.0
C1582 C 0.2566 0.74481 0.26449 0.0
C1583 C 0.24089 0.74965 0.26871 0.0
C1584 C 0.26391 0.7509 0.25022 0.0
C1585 C 0.28068 0.7464 0.24551 0.0
C1586 C 0.29368 0.74902 0.25626 0.0
C1587 C 0.30942 0.74458 0.25184 0.0
C1588 C 0.31236 0.73761 0.23663 0.0
C1589 C 0.29954 0.7351 0.2258 0.0
C1590 C 0.28376 0.7395 0.23018 0.0
C1591 C 0.21272 0.79909 0.22649 0.0
C1592 C 0.21138 0.79409 0.21019 0.0
C1593 C 0.22211 0.7902 0.23743 0.0
C1594 C 0.23004 0.77598 0.23234 0.0
C1595 C 0.22908 0.77122 0.216 0.0
C1596 C 0.21992 0.78023 0.20502 0.0
C1597 C 0.23907 0.76574 0.244 0.0
C1598 C 0.25505 0.76133 0.24016 0.0
C1599 C 0.2319 0.75986 0.2585 0.0
C1600 C 0.21477 0.76325 0.26281 0.0
C1601 C 0.20214 0.75883 0.25221 0.0
C1602 C 0.18603 0.76215 0.25632 0.0
C1603 C 0.1824 0.76977 0.27106 0.0
C1604 C 0.19487 0.77403 0.28175 0.0
C1605 C 0.211 0.77075 0.27769 0.0
H1606 H 0.16992 0.77233 0.27422 0.0
H1607 H 0.32456 0.73418 0.23322 0.0
H1608 H 0.26744 0.69998 0.69097 0.0
H1609 H 0.24789 0.71581 0.70675 0.0
H1610 H 0.28601 0.73098 0.7393 0.0
H1611 H 0.30574 0.71562 0.72335 0.0
H1612 H 0.25798 0.71907 0.755 0.0
H1613 H 0.27298 0.75698 0.71259 0.0
H1614 H 0.27661 0.76565 0.68415 0.0
H1615 H 0.22583 0.75829 0.67516 0.0
H1616 H 0.22194 0.74935 0.70352 0.0
H1617 H 0.22334 0.78387 0.79846 0.0
H1618 H 0.24014 0.76618 0.7816 0.0
H1619 H 0.20045 0.76013 0.74793 0.0
H1620 H 0.18367 0.77816 0.76466 0.0
H1621 H 0.22746 0.76571 0.73206 0.0
H1622 H 0.21154 0.7294 0.77425 0.0
H1623 H 0.20724 0.7201 0.8024 0.0
H1624 H 0.25841 0.72315 0.81151 0.0
H1625 H 0.26301 0.7327 0.78348 0.0
C1626 C 0.27172 0.70688 0.70134 0.0
C1627 C 0.28815 0.70656 0.70591 0.0
C1628 C 0.26052 0.71582 0.71037 0.0
C1629 C 0.26558 0.72452 0.72412 0.0
C1630 C 0.28192 0.72423 0.72874 0.0
C1631 C 0.29314 0.71541 0.71966 0.0
C1632 C 0.25381 0.73386 0.73384 0.0
C1633 C 0.25139 0.72937 0.75008 0.0
C1634 C 0.24488 0.74689 0.72714 0.0
C1635 C 0.24721 0.75232 0.71012 0.0
C1636 C 0.26261 0.75707 0.70451 0.0
C1637 C 0.26471 0.76207 0.68842 0.0
C1638 C 0.25147 0.76248 0.67784 0.0
C1639 C 0.23609 0.75794 0.68336 0.0
C1640 C 0.23393 0.75292 0.69944 0.0
C1641 C 0.21817 0.77861 0.78755 0.0
C1642 C 0.20223 0.78227 0.78286 0.0
C1643 C 0.22774 0.7685 0.77795 0.0
C1644 C 0.22145 0.76163 0.76365 0.0
C1645 C 0.20551 0.76528 0.75894 0.0
C1646 C 0.19597 0.77556 0.76847 0.0
C1647 C 0.23175 0.7511 0.75339 0.0
C1648 C 0.2339 0.75532 0.73701 0.0
C1649 C 0.2403 0.7377 0.75992 0.0
C1650 C 0.2376 0.73189 0.77679 0.0
C1651 C 0.22187 0.7282 0.78229 0.0
C1652 C 0.21938 0.72287 0.79822 0.0
C1653 C 0.23254 0.72107 0.80875 0.0
C1654 C 0.24823 0.72456 0.80335 0.0
C1655 C 0.25079 0.72992 0.78743 0.0
H1656 H 0.23058 0.71694 0.82108 0.0
H1657 H 0.25312 0.76635 0.66538 0.0
H1658 H 0.22808 0.19264 0.79012 0.0
H1659 H 0.24782 0.20678 0.77299 0.0
H1660 H 0.20885 0.22853 0.74566 0.0
H1661 H 0.189 0.21421 0.76263 0.0
H1662 H 0.23421 0.21669 0.72618 0.0
H1663 H 0.22657 0.25036 0.77363 0.0
H1664 H 0.22573 0.25594 0.80306 0.0
H1665 H 0.27584 0.24252 0.8073 0.0
H1666 H 0.27691 0.23662 0.77791 0.0
H1667 H 0.27237 0.28443 0.68976 0.0
H1668 H 0.25523 0.2654 0.70471 0.0
H1669 H 0.29657 0.24992 0.73283 0.0
H1670 H 0.31384 0.26905 0.71791 0.0
H1671 H 0.27145 0.25664 0.7519 0.0
H1672 H 0.27991 0.22494 0.70412 0.0
H1673 H 0.2809 0.21924 0.67473 0.0
H1674 H 0.22982 0.22853 0.67093 0.0
H1675 H 0.22857 0.23452 0.70027 0.0
C1676 C 0.22374 0.20028 0.78033 0.0
C1677 C 0.20704 0.20239 0.77769 0.0
C1678 C 0.235 0.2084 0.77064 0.0
C1679 C 0.22974 0.21874 0.75818 0.0
C1680 C 0.21309 0.22058 0.75525 0.0
C1681 C 0.2018 0.21253 0.76501 0.0
C1682 C 0.2416 0.22809 0.74855 0.0
C1683 C 0.24228 0.22554 0.73173 0.0
C1684 C 0.25237 0.23925 0.75596 0.0
C1685 C 0.25177 0.24287 0.77361 0.0
C1686 C 0.23737 0.24846 0.78087 0.0
C1687 C 0.23686 0.25171 0.79753 0.0
C1688 C 0.25071 0.24954 0.80705 0.0
C1689 C 0.26511 0.24416 0.79991 0.0
C1690 C 0.26568 0.24087 0.78325 0.0
C1691 C 0.27787 0.27676 0.69893 0.0
C1692 C 0.29443 0.27818 0.70267 0.0
C1693 C 0.26807 0.26589 0.70745 0.0
C1694 C 0.27468 0.25612 0.71974 0.0
C1695 C 0.29126 0.25735 0.72337 0.0
C1696 C 0.30108 0.26829 0.71489 0.0
C1697 C 0.26404 0.24538 0.72942 0.0
C1698 C 0.26354 0.24767 0.7463 0.0
C1699 C 0.25349 0.23395 0.72205 0.0
C1700 C 0.25417 0.2303 0.70439 0.0
C1701 C 0.26891 0.22589 0.697 0.0
C1702 C 0.26951 0.22258 0.68035 0.0
C1703 C 0.25544 0.22355 0.67096 0.0
C1704 C 0.24072 0.22779 0.67822 0.0
C1705 C 0.24005 0.23112 0.69486 0.0
H1706 H 0.25593 0.22099 0.65807 0.0
H1707 H 0.25029 0.25206 0.81995 0.0
H1708 H 0.75674 0.21606 0.8245 0.0
H1709 H 0.73823 0.23589 0.81211 0.0
H1710 H 0.76977 0.23932 0.77041 0.0
H1711 H 0.78831 0.21982 0.78275 0.0
H1712 H 0.75897 0.26929 0.78093 0.0
H1713 H 0.73709 0.21493 0.76966 0.0
H1714 H 0.72595 0.18829 0.77789 0.0
H1715 H 0.68761 0.21218 0.80389 0.0
H1716 H 0.69866 0.23898 0.79595 0.0
H1717 H 0.72156 0.2869 0.7082 0.0
H1718 H 0.73468 0.27431 0.7315 0.0
H1719 H 0.69164 0.28187 0.76031 0.0
H1720 H 0.6784 0.29481 0.73697 0.0
H1721 H 0.7044 0.25076 0.76337 0.0
H1722 H 0.72305 0.30503 0.76849 0.0
H1723 H 0.73408 0.33139 0.75936 0.0
H1724 H 0.77837 0.30809 0.74493 0.0
H1725 H 0.76752 0.28154 0.75373 0.0
C1726 C 0.75974 0.2212 0.81276 0.0
C1727 C 0.77384 0.21633 0.80448 0.0
C1728 C 0.74918 0.23245 0.80571 0.0
C1729 C 0.75266 0.23898 0.79036 0.0
C1730 C 0.76692 0.23442 0.7823 0.0
C1731 C 0.7774 0.22317 0.78926 0.0
C1732 C 0.74126 0.25003 0.78208 0.0
C1733 C 0.747 0.26532 0.77713 0.0
C1734 C 0.72544 0.24502 0.7777 0.0
C1735 C 0.71881 0.22893 0.78241 0.0
C1736 C 0.72636 0.21449 0.77724 0.0
C1737 C 0.72005 0.19937 0.78183 0.0
C1738 C 0.70612 0.19854 0.79146 0.0
C1739 C 0.69843 0.21284 0.79647 0.0
C1740 C 0.7047 0.228 0.79193 0.0
C1741 C 0.71493 0.28608 0.71954 0.0
C1742 C 0.69901 0.29198 0.7208 0.0
C1743 C 0.72243 0.27888 0.73283 0.0
C1744 C 0.71421 0.27746 0.74767 0.0
C1745 C 0.69819 0.28299 0.74896 0.0
C1746 C 0.69064 0.29027 0.73561 0.0
C1747 C 0.72245 0.26967 0.76153 0.0
C1748 C 0.71612 0.25503 0.76759 0.0
C1749 C 0.73775 0.27527 0.76694 0.0
C1750 C 0.74443 0.29126 0.76174 0.0
C1751 C 0.73511 0.3055 0.76328 0.0
C1752 C 0.74133 0.32049 0.75817 0.0
C1753 C 0.75691 0.32142 0.75156 0.0
C1754 C 0.76631 0.30736 0.75007 0.0
C1755 C 0.76014 0.29233 0.75515 0.0
H1756 H 0.76171 0.33303 0.74761 0.0
H1757 H 0.70125 0.18682 0.795 0.0
H1758 H 0.79147 0.76259 0.79804 0.0
H1759 H 0.7787 0.74451 0.77823 0.0
H1760 H 0.78592 0.78039 0.74071 0.0
H1761 H 0.79945 0.79827 0.76018 0.0
H1762 H 0.75286 0.76831 0.74536 0.0
H1763 H 0.80755 0.74952 0.73752 0.0
H1764 H 0.83406 0.73899 0.74644 0.0
H1765 H 0.81094 0.69648 0.76614 0.0
H1766 H 0.78424 0.70688 0.75756 0.0
H1767 H 0.71968 0.72181 0.6823 0.0
H1768 H 0.73885 0.73834 0.69763 0.0
H1769 H 0.74416 0.69968 0.73269 0.0
H1770 H 0.7259 0.68257 0.71678 0.0
H1771 H 0.77218 0.71377 0.72817 0.0
H1772 H 0.71814 0.73215 0.73902 0.0
H1773 H 0.69076 0.74206 0.73226 0.0
H1774 H 0.71132 0.78451 0.70979 0.0
H1775 H 0.73885 0.77473 0.71623 0.0
C1776 C 0.79071 0.76652 0.78551 0.0
C1777 C 0.79641 0.78195 0.78073 0.0
C1778 C 0.78335 0.75619 0.77424 0.0
C1779 C 0.78143 0.76118 0.75809 0.0
C1780 C 0.78729 0.77641 0.75318 0.0
C1781 C 0.79488 0.78664 0.76436 0.0
C1782 C 0.77232 0.75094 0.74659 0.0
C1783 C 0.75717 0.75651 0.74133 0.0
C1784 C 0.77783 0.73537 0.7419 0.0
C1785 C 0.79387 0.72906 0.74703 0.0
C1786 C 0.80809 0.73801 0.74389 0.0
C1787 C 0.82316 0.73204 0.74886 0.0
C1788 C 0.82418 0.7171 0.75689 0.0
C1789 C 0.81014 0.70807 0.75993 0.0
C1790 C 0.79503 0.71398 0.75501 0.0
C1791 C 0.7252 0.71664 0.69305 0.0
C1792 C 0.7211 0.7009 0.6984 0.0
C1793 C 0.73602 0.7262 0.70191 0.0
C1794 C 0.74264 0.72037 0.71648 0.0
C1795 C 0.73909 0.70446 0.72153 0.0
C1796 C 0.72847 0.69478 0.71253 0.0
C1797 C 0.75263 0.73112 0.72688 0.0
C1798 C 0.7679 0.72564 0.73203 0.0
C1799 C 0.7471 0.74668 0.73178 0.0
C1800 C 0.73056 0.75262 0.72795 0.0
C1801 C 0.71683 0.74354 0.73253 0.0
C1802 C 0.70128 0.74914 0.72877 0.0
C1803 C 0.6993 0.76388 0.72056 0.0
C1804 C 0.71287 0.77308 0.71613 0.0
C1805 C 0.72845 0.76752 0.71983 0.0
H1806 H 0.68725 0.7682 0.71766 0.0
H1807 H 0.83586 0.7125 0.76071 0.0
H1808 H 0.17194 0.1986 0.92624 0.0
H1809 H 0.17522 0.20035 0.95575 0.0
H1810 H 0.18371 0.14858 0.95783 0.0
H1811 H 0.1798 0.14662 0.92859 0.0
H1812 H 0.16125 0.15748 0.979 0.0
H1813 H 0.21438 0.17619 0.9638 0.0
H1814 H 0.2342 0.1937 0.9497 0.0
H1815 H 0.2153 0.23569 0.9743 0.0
H1816 H 0.1952 0.21845 0.98839 0.0
H1817 H 0.18526 0.14678 0.05903 0.0
H1818 H 0.18862 0.14961 0.02968 0.0
H1819 H 0.17349 0.19976 0.03261 0.0
H1820 H 0.16993 0.19698 0.06206 0.0
H1821 H 0.19914 0.19344 0.00923 0.0
H1822 H 0.14586 0.17456 0.02404 0.0
H1823 H 0.12653 0.15683 0.03855 0.0
H1824 H 0.14614 0.11492 0.01435 0.0
H1825 H 0.16579 0.13239 -0.0001 0.0
C1826 C 0.17453 0.18761 0.933 0.0
C1827 C 0.17558 0.17247 0.92506 0.0
C1828 C 0.17658 0.18866 0.94982 0.0
C1829 C 0.1798 0.1746 0.95895 0.0
C1830 C 0.18126 0.15958 0.951 0.0
C1831 C 0.17916 0.15851 0.93424 0.0
C1832 C 0.18045 0.17521 0.97691 0.0
C1833 C 0.1697 0.1652 0.98557 0.0
C1834 C 0.19111 0.18567 0.98549 0.0
C1835 C 0.20317 0.19605 0.97701 0.0
C1836 C 0.21435 0.18918 0.96609 0.0
C1837 C 0.22565 0.19905 0.95812 0.0
C1838 C 0.22597 0.2158 0.96106 0.0
C1839 C 0.21501 0.22271 0.97201 0.0
C1840 C 0.20367 0.2129 0.98 0.0
C1841 C 0.18281 0.15846 0.05345 0.0
C1842 C 0.17705 0.17158 0.06276 0.0
C1843 C 0.18484 0.16008 0.03673 0.0
C1844 C 0.18109 0.17482 0.02903 0.0
C1845 C 0.17645 0.1883 0.03839 0.0
C1846 C 0.17441 0.18668 0.05518 0.0
C1847 C 0.18022 0.17546 0.01113 0.0
C1848 C 0.19075 0.18576 0.00256 0.0
C1849 C 0.16937 0.16527 0.00254 0.0
C1850 C 0.15739 0.15476 0.01101 0.0
C1851 C 0.14613 0.16155 0.0219 0.0
C1852 C 0.13511 0.15155 0.03011 0.0
C1853 C 0.13513 0.13475 0.0274 0.0
C1854 C 0.14615 0.12793 0.01645 0.0
C1855 C 0.15722 0.13787 0.00824 0.0
H1856 H 0.12659 0.12703 0.03377 0.0
H1857 H 0.23474 0.22342 0.95489 0.0
H1858 H 0.81735 0.14068 0.93454 0.0
H1859 H 0.81329 0.14219 0.96373 0.0
H1860 H 0.82837 0.19254 0.96344 0.0
H1861 H 0.83375 0.19075 0.93437 0.0
H1862 H 0.84161 0.17867 0.98752 0.0
H1863 H 0.78745 0.18039 0.96853 0.0
H1864 H 0.76337 0.17229 0.95272 0.0
H1865 H 0.76247 0.12604 0.97698 0.0
H1866 H 0.7867 0.13376 0.99278 0.0
H1867 H 0.8158 0.18671 0.0703 0.0
H1868 H 0.81409 0.19017 0.04071 0.0
H1869 H 0.81675 0.1381 0.03442 0.0
H1870 H 0.81879 0.13461 0.06395 0.0
H1871 H 0.79232 0.15641 0.01413 0.0
H1872 H 0.84944 0.15546 0.03043 0.0
H1873 H 0.87258 0.16545 0.0466 0.0
H1874 H 0.86588 0.21352 0.02726 0.0
H1875 H 0.84251 0.20383 0.01117 0.0
C1876 C 0.82005 0.15203 0.94066 0.0
C1877 C 0.82597 0.16557 0.93203 0.0
C1878 C 0.8174 0.15297 0.95736 0.0
C1879 C 0.82018 0.16758 0.96577 0.0
C1880 C 0.82601 0.18116 0.95721 0.0
C1881 C 0.82894 0.18015 0.94053 0.0
C1882 C 0.81782 0.16836 0.98362 0.0
C1883 C 0.83066 0.17411 0.99326 0.0
C1884 C 0.80359 0.16235 0.99122 0.0
C1885 C 0.78898 0.15763 0.98176 0.0
C1886 C 0.7822 0.16845 0.97042 0.0
C1887 C 0.7685 0.16393 0.96147 0.0
C1888 C 0.76141 0.14865 0.96382 0.0
C1889 C 0.76798 0.13787 0.97516 0.0
C1890 C 0.78169 0.14232 0.98414 0.0
C1891 C 0.81576 0.17603 0.06257 0.0
C1892 C 0.81748 0.16041 0.06927 0.0
C1893 C 0.8148 0.17801 0.04575 0.0
C1894 C 0.81531 0.16437 0.0355 0.0
C1895 C 0.81628 0.14873 0.04221 0.0
C1896 C 0.81754 0.14676 0.059 0.0
C1897 C 0.81616 0.16641 0.01774 0.0
C1898 C 0.80308 0.16119 0.00822 0.0
C1899 C 0.82999 0.17321 0.01022 0.0
C1900 C 0.84412 0.17897 0.01977 0.0
C1901 C 0.85281 0.16819 0.02975 0.0
C1902 C 0.86598 0.17379 0.03887 0.0
C1903 C 0.87067 0.19012 0.038 0.0
C1904 C 0.86222 0.20088 0.02796 0.0
C1905 C 0.84901 0.19534 0.01883 0.0
H1906 H 0.88087 0.19444 0.04507 0.0
H1907 H 0.75081 0.14517 0.95688 0.0
H1908 H 0.79156 0.82904 0.93049 0.0
H1909 H 0.78868 0.8242 0.95965 0.0
H1910 H 0.83845 0.80825 0.96195 0.0
H1911 H 0.84112 0.81209 0.93275 0.0
H1912 H 0.82094 0.79064 0.98171 0.0
H1913 H 0.82673 0.84827 0.97053 0.0
H1914 H 0.81908 0.87442 0.95801 0.0
H1915 H 0.77255 0.87216 0.98135 0.0
H1916 H 0.77987 0.84586 0.99385 0.0
H1917 H 0.8512 0.81698 0.05781 0.0
H1918 H 0.84444 0.81332 0.02905 0.0
H1919 H 0.79359 0.81817 0.0403 0.0
H1920 H 0.8003 0.82157 0.0692 0.0
H1921 H 0.80612 0.83904 0.01459 0.0
H1922 H 0.80393 0.78309 0.02995 0.0
H1923 H 0.81365 0.75792 0.04298 0.0
H1924 H 0.85569 0.75801 0.0122 0.0
H1925 H 0.84636 0.78334 -0.00085 0.0
C1926 C 0.80178 0.82415 0.93714 0.0
C1927 C 0.81667 0.82122 0.92934 0.0
C1928 C 0.80015 0.82153 0.95384 0.0
C1929 C 0.81345 0.81619 0.96304 0.0
C1930 C 0.82804 0.81247 0.95513 0.0
C1931 C 0.82962 0.81489 0.93845 0.0
C1932 C 0.81271 0.81552 0.98102 0.0
C1933 C 0.81771 0.80122 0.98889 0.0
C1934 C 0.80815 0.82922 0.99042 0.0
C1935 C 0.80376 0.84502 0.98295 0.0
C1936 C 0.81482 0.8533 0.97289 0.0
C1937 C 0.81056 0.86815 0.96581 0.0
C1938 C 0.79532 0.87492 0.96883 0.0
C1939 C 0.78433 0.86687 0.97898 0.0
C1940 C 0.78853 0.852 0.98607 0.0
C1941 C 0.83859 0.81715 0.05413 0.0
C1942 C 0.82625 0.81956 0.06561 0.0
C1943 C 0.83474 0.81497 0.03777 0.0
C1944 C 0.81853 0.81537 0.03265 0.0
C1945 C 0.80616 0.81773 0.0441 0.0
C1946 C 0.80999 0.81963 0.06053 0.0
C1947 C 0.81476 0.81434 0.01516 0.0
C1948 C 0.80896 0.82834 0.0074 0.0
C1949 C 0.81884 0.80047 0.00588 0.0
C1950 C 0.82448 0.78519 0.01364 0.0
C1951 C 0.81532 0.77783 0.02605 0.0
C1952 C 0.82074 0.76351 0.03342 0.0
C1953 C 0.83529 0.75639 0.02844 0.0
C1954 C 0.84442 0.76355 0.01605 0.0
C1955 C 0.83906 0.77787 0.00864 0.0
H1956 H 0.83947 0.7453 0.03416 0.0
H1957 H 0.79204 0.88642 0.96335 0.0
H1958 H 0.19578 0.83968 0.06204 0.0
H1959 H 0.19973 0.83815 0.0327 0.0
H1960 H 0.16189 0.80197 0.02933 0.0
H1961 H 0.15828 0.80296 0.05881 0.0
H1962 H 0.18689 0.79542 0.00852 0.0
H1963 H 0.15329 0.84125 0.02271 0.0
H1964 H 0.14667 0.86665 0.03726 0.0
H1965 H 0.18808 0.89014 0.01595 0.0
H1966 H 0.19507 0.86479 0.00146 0.0
H1967 H 0.15774 0.8074 0.92824 0.0
H1968 H 0.16193 0.80445 0.95744 0.0
H1969 H 0.19948 0.84105 0.95588 0.0
H1970 H 0.19551 0.84394 0.92657 0.0
H1971 H 0.17734 0.84727 0.97915 0.0
H1972 H 0.20918 0.80172 0.96255 0.0
H1973 H 0.21514 0.77624 0.9479 0.0
H1974 H 0.1765 0.75208 0.97328 0.0
H1975 H 0.17015 0.77749 0.98793 0.0
C1976 C 0.18856 0.8311 0.05514 0.0
C1977 C 0.17661 0.82154 0.06274 0.0
C1978 C 0.19075 0.83034 0.03835 0.0
C1979 C 0.18091 0.82014 0.02884 0.0
C1980 C 0.16955 0.80997 0.03646 0.0
C1981 C 0.16739 0.81068 0.05327 0.0
C1982 C 0.18161 0.82097 0.01091 0.0
C1983 C 0.18471 0.80671 0.00206 0.0
C1984 C 0.17906 0.8358 0.00255 0.0
C1985 C 0.1748 0.85108 0.01115 0.0
C1986 C 0.16105 0.8518 0.02123 0.0
C1987 C 0.15722 0.86619 0.02945 0.0
C1988 C 0.16697 0.87999 0.02757 0.0
C1989 C 0.18055 0.87944 0.01742 0.0
C1990 C 0.18445 0.86507 0.0092 0.0
C1991 C 0.16713 0.81458 0.93403 0.0
C1992 C 0.17627 0.82593 0.92509 0.0
C1993 C 0.1695 0.81289 0.95073 0.0
C1994 C 0.1811 0.82245 0.95879 0.0
C1995 C 0.19046 0.83357 0.94987 0.0
C1996 C 0.18812 0.83526 0.93316 0.0
C1997 C 0.18256 0.82169 0.97668 0.0
C1998 C 0.17977 0.83599 0.98556 0.0
C1999 C 0.18531 0.80689 0.98501 0.0
C2000 C 0.18911 0.79156 0.97625 0.0
C2001 C 0.20187 0.79101 0.96492 0.0
C2002 C 0.20533 0.77657 0.95663 0.0
C2003 C 0.19618 0.76256 0.95963 0.0
C2004 C 0.18357 0.76295 0.97096 0.0
C2005 C 0.18005 0.77736 0.97928 0.0
H2006 H 0.19889 0.75139 0.9532 0.0
H2007 H 0.16399 0.89112 0.03394 0.0
H2008 H 0.05563 0.16354 0.14089 0.0
H2009 H 0.02669 0.16724 0.14545 0.0
H2010 H 0.03605 0.18284 0.19455 0.0
H2011 H 0.06522 0.18029 0.18987 0.0
H2012 H 0.01135 0.15455 0.18718 0.0
H2013 H 0.02481 0.21057 0.17661 0.0
H2014 H 0.03778 0.23288 0.16133 0.0
H2015 H 0.01012 0.22021 0.11896 0.0
H2016 H -0.00282 0.19763 0.13392 0.0
H2017 H 0.92681 0.16753 0.1975 0.0
H2018 H 0.9562 0.17161 0.19937 0.0
H2019 H 0.95886 0.17595 0.14716 0.0
H2020 H 0.92951 0.17242 0.14534 0.0
H2021 H 0.97829 0.19709 0.16019 0.0
H2022 H 0.96776 0.13979 0.168 0.0
H2023 H 0.95537 0.11587 0.18122 0.0
H2024 H 0.97789 0.12897 0.22642 0.0
H2025 H 0.99024 0.15311 0.21349 0.0
C2026 C 0.05168 0.16815 0.15256 0.0
C2027 C 0.06288 0.17166 0.16499 0.0
C2028 C 0.0351 0.17011 0.15516 0.0
C2029 C 0.02937 0.17533 0.1703 0.0
C2030 C 0.04035 0.17878 0.18279 0.0
C2031 C 0.057 0.17716 0.1801 0.0
C2032 C 0.01177 0.17655 0.17303 0.0
C2033 C 0.00407 0.16404 0.18164 0.0
C2034 C 0.00244 0.18871 0.16538 0.0
C2035 C 0.01015 0.20231 0.15635 0.0
C2036 C 0.02162 0.21243 0.16399 0.0
C2037 C 0.02893 0.22515 0.15539 0.0
C2038 C 0.02481 0.22793 0.13917 0.0
C2039 C 0.01332 0.21802 0.13152 0.0
C2040 C 0.00598 0.20528 0.14006 0.0
C2041 C 0.93372 0.16943 0.18647 0.0
C2042 C 0.92598 0.1696 0.17128 0.0
C2043 C 0.95047 0.17174 0.18753 0.0
C2044 C 0.95976 0.17385 0.17338 0.0
C2045 C 0.95195 0.17439 0.15824 0.0
C2046 C 0.9352 0.17235 0.1572 0.0
C2047 C 0.97769 0.17487 0.17412 0.0
C2048 C 0.98549 0.18776 0.16608 0.0
C2049 C 0.98712 0.16287 0.18207 0.0
C2050 C 0.97975 0.14835 0.18984 0.0
C2051 C 0.96996 0.13763 0.18078 0.0
C2052 C 0.96297 0.12403 0.18822 0.0
C2053 C 0.9658 0.12093 0.20467 0.0
C2054 C 0.97568 0.13141 0.2137 0.0
C2055 C 0.98268 0.14505 0.20632 0.0
H2056 H 0.96038 0.11039 0.2104 0.0
H2057 H 0.03048 0.23779 0.13254 0.0
H2058 H 0.81368 0.92705 0.15083 0.0
H2059 H 0.80984 0.95627 0.15389 0.0
H2060 H 0.83738 0.95552 0.19843 0.0
H2061 H 0.84051 0.92602 0.19597 0.0
H2062 H 0.81213 0.97604 0.20084 0.0
H2063 H 0.85514 0.96641 0.1627 0.0
H2064 H 0.86777 0.95433 0.13836 0.0
H2065 H 0.83232 0.97755 0.10805 0.0
H2066 H 0.81933 0.98957 0.13225 0.0
H2067 H 0.83524 0.06009 0.20064 0.0
H2068 H 0.83404 0.03033 0.20116 0.0
H2069 H 0.80587 0.03055 0.157 0.0
H2070 H 0.8075 0.06019 0.15608 0.0
H2071 H 0.83103 0.01025 0.1549 0.0
H2072 H 0.78863 0.0208 0.19352 0.0
H2073 H 0.77655 0.03291 0.21811 0.0
H2074 H 0.81161 0.00838 0.24782 0.0
H2075 H 0.82405 0.99629 0.22338 0.0
C2076 C 0.81862 0.93299 0.16149 0.0
C2077 C 0.82751 0.92417 0.1731 0.0
C2078 C 0.81656 0.94975 0.16312 0.0
C2079 C 0.82359 0.9581 0.17622 0.0
C2080 C 0.83194 0.94931 0.18817 0.0
C2081 C 0.83388 0.93248 0.18664 0.0
C2082 C 0.82289 0.97609 0.17699 0.0
C2083 C 0.81641 0.98356 0.19088 0.0
C2084 C 0.82827 0.98584 0.16388 0.0
C2085 C 0.83617 0.97877 0.1493 0.0
C2086 C 0.84997 0.96885 0.15085 0.0
C2087 C 0.8572 0.96203 0.13708 0.0
C2088 C 0.85083 0.96514 0.12167 0.0
C2089 C 0.83724 0.97513 0.12 0.0
C2090 C 0.82994 0.98196 0.13373 0.0
C2091 C 0.82874 0.05378 0.19108 0.0
C2092 C 0.82148 0.06249 0.1783 0.0
C2093 C 0.82793 0.0368 0.19148 0.0
C2094 C 0.81976 0.02826 0.17918 0.0
C2095 C 0.81218 0.03693 0.16664 0.0
C2096 C 0.81301 0.05388 0.16621 0.0
C2097 C 0.82011 0.01026 0.17868 0.0
C2098 C 0.82664 0.00277 0.16484 0.0
C2099 C 0.81487 0.00055 0.19188 0.0
C2100 C 0.80737 0.00776 0.2066 0.0
C2101 C 0.79385 0.01809 0.20528 0.0
C2102 C 0.78692 0.02493 0.2192 0.0
C2103 C 0.79334 0.02145 0.23451 0.0
C2104 C 0.80667 0.01108 0.23595 0.0
C2105 C 0.81365 0.00422 0.22207 0.0
H2106 H 0.78795 0.02676 0.24527 0.0
H2107 H 0.85644 0.95984 0.11103 0.0
H2108 H 0.93374 0.82294 0.19676 0.0
H2109 H 0.96264 0.81839 0.20088 0.0
H2110 H 0.9667 0.79954 0.1521 0.0
H2111 H 0.93761 0.8029 0.14829 0.0
H2112 H 0.98611 0.78333 0.17108 0.0
H2113 H 0.97474 0.84038 0.16201 0.0
H2114 H 0.96169 0.86678 0.16771 0.0
H2115 H 0.98279 0.86733 0.21539 0.0
H2116 H 0.99581 0.84082 0.21003 0.0
H2117 H 0.0633 0.80979 0.14364 0.0
H2118 H 0.03457 0.80462 0.14923 0.0
H2119 H 0.04269 0.8139 0.20018 0.0
H2120 H 0.07155 0.81889 0.19465 0.0
H2121 H 0.01773 0.83277 0.18537 0.0
H2122 H 0.03348 0.77729 0.19094 0.0
H2123 H 0.0471 0.75174 0.1832 0.0
H2124 H 0.01843 0.74913 0.13974 0.0
H2125 H 0.0048 0.7748 0.14709 0.0
C2126 C 0.94066 0.81744 0.18703 0.0
C2127 C 0.93334 0.81352 0.17208 0.0
C2128 C 0.95725 0.81501 0.18936 0.0
C2129 C 0.9669 0.80898 0.17667 0.0
C2130 C 0.95951 0.80432 0.16204 0.0
C2131 C 0.9429 0.80649 0.15979 0.0
C2132 C 0.98481 0.80859 0.17809 0.0
C2133 C 0.99303 0.79415 0.17417 0.0
C2134 C 0.99385 0.8226 0.18248 0.0
C2135 C 0.98607 0.83854 0.1857 0.0
C2136 C 0.9765 0.84609 0.17375 0.0
C2137 C 0.96912 0.86107 0.17691 0.0
C2138 C 0.97137 0.8687 0.19192 0.0
C2139 C 0.98103 0.86139 0.20379 0.0
C2140 C 0.98841 0.84639 0.20069 0.0
C2141 C 0.05896 0.81051 0.15605 0.0
C2142 C 0.06952 0.81477 0.16873 0.0
C2143 C 0.04263 0.80745 0.15924 0.0
C2144 C 0.0366 0.80879 0.17512 0.0
C2145 C 0.04719 0.81271 0.18787 0.0
C2146 C 0.06361 0.81551 0.18472 0.0
C2147 C 0.01897 0.80766 0.17797 0.0
C2148 C 0.0108 0.82185 0.18265 0.0
C2149 C 0.01003 0.79352 0.174 0.0
C2150 C 0.01818 0.77805 0.16952 0.0
C2151 C 0.03017 0.77135 0.17966 0.0
C2152 C 0.03787 0.75682 0.17536 0.0
C2153 C 0.03365 0.74883 0.16098 0.0
C2154 C 0.02169 0.75533 0.15088 0.0
C2155 C 0.01395 0.76986 0.15512 0.0
H2156 H 0.03963 0.73759 0.15767 0.0
H2157 H 0.96565 0.8803 0.19435 0.0
H2158 H 0.15599 0.06519 0.18989 0.0
H2159 H 0.15886 0.03572 0.19084 0.0
H2160 H 0.19352 0.03778 0.15159 0.0
H2161 H 0.18972 0.06707 0.14966 0.0
H2162 H 0.17304 0.01572 0.1452 0.0
H2163 H 0.20412 0.02807 0.19232 0.0
H2164 H 0.21043 0.04063 0.2188 0.0
H2165 H 0.17043 0.01525 0.24063 0.0
H2166 H 0.16373 0.0027 0.21423 0.0
H2167 H 0.19228 0.93163 0.15163 0.0
H2168 H 0.19568 0.96105 0.15451 0.0
H2169 H 0.15199 0.96344 0.18315 0.0
H2170 H 0.14806 0.93415 0.17981 0.0
H2171 H 0.17959 0.9827 0.19522 0.0
H2172 H 0.148 0.9725 0.14636 0.0
H2173 H 0.14322 0.95954 0.11976 0.0
H2174 H 0.18699 0.98098 0.10121 0.0
H2175 H 0.19216 0.99387 0.12781 0.0
C2176 C 0.16418 0.0594 0.1814 0.0
C2177 C 0.1725 0.06858 0.16961 0.0
C2178 C 0.16603 0.04253 0.18215 0.0
C2179 C 0.17656 0.0345 0.1714 0.0
C2180 C 0.18535 0.04369 0.16004 0.0
C2181 C 0.18328 0.06052 0.15908 0.0
C2182 C 0.17734 0.01646 0.17107 0.0
C2183 C 0.17483 0.00856 0.15613 0.0
C2184 C 0.17936 0.00703 0.18533 0.0
C2185 C 0.18334 0.01455 0.20125 0.0
C2186 C 0.19659 0.02526 0.20274 0.0
C2187 C 0.20025 0.03236 0.21774 0.0
C2188 C 0.19082 0.02877 0.23138 0.0
C2189 C 0.17772 0.01803 0.23005 0.0
C2190 C 0.174 0.01091 0.21508 0.0
C2191 C 0.18332 0.93839 0.15846 0.0
C2192 C 0.16979 0.93052 0.16533 0.0
C2193 C 0.18539 0.95516 0.16023 0.0
C2194 C 0.17407 0.96432 0.16901 0.0
C2195 C 0.16091 0.95649 0.17643 0.0
C2196 C 0.15871 0.93974 0.17452 0.0
C2197 C 0.17527 0.98224 0.16945 0.0
C2198 C 0.17806 0.99001 0.18436 0.0
C2199 C 0.17376 0.99159 0.15515 0.0
C2200 C 0.17056 0.98399 0.13912 0.0
C2201 C 0.15668 0.97434 0.13665 0.0
C2202 C 0.15388 0.96702 0.12157 0.0
C2203 C 0.16482 0.96939 0.10881 0.0
C2204 C 0.17855 0.97913 0.11111 0.0
C2205 C 0.18141 0.98645 0.12618 0.0
H2206 H 0.16264 0.96372 0.09714 0.0
H2207 H 0.19368 0.03427 0.24298 0.0
H2208 H 0.92959 0.85969 0.82896 0.0
H2209 H 0.95888 0.85749 0.82613 0.0
H2210 H 0.95525 0.80511 0.8281 0.0
H2211 H 0.92597 0.80724 0.83196 0.0
H2212 H 0.97894 0.81462 0.8464 0.0
H2213 H 0.96356 0.82559 0.79204 0.0
H2214 H 0.94972 0.83961 0.76951 0.0
H2215 H 0.97588 0.88355 0.78027 0.0
H2216 H 0.98972 0.86987 0.80302 0.0
H2217 H 0.06252 0.80748 0.82316 0.0
H2218 H 0.03297 0.80578 0.82148 0.0
H2219 H 0.02943 0.85723 0.83116 0.0
H2220 H 0.05887 0.859 0.83357 0.0
H2221 H 0.00962 0.84531 0.80452 0.0
H2222 H 0.02278 0.83342 0.86091 0.0
H2223 H 0.03681 0.8181 0.88248 0.0
H2224 H 0.01473 0.77374 0.86584 0.0
H2225 H 0.00075 0.78878 0.84401 0.0
C2226 C 0.93501 0.84769 0.82895 0.0
C2227 C 0.92541 0.83364 0.83076 0.0
C2228 C 0.95175 0.84644 0.82707 0.0
C2229 C 0.95925 0.83112 0.82662 0.0
C2230 C 0.94971 0.81706 0.82831 0.0
C2231 C 0.93295 0.8183 0.83037 0.0
C2232 C 0.97712 0.82991 0.82518 0.0
C2233 C 0.9856 0.82107 0.83703 0.0
C2234 C 0.98586 0.83842 0.81304 0.0
C2235 C 0.97759 0.84672 0.79933 0.0
C2236 C 0.96628 0.83828 0.78969 0.0
C2237 C 0.95844 0.84616 0.77686 0.0
C2238 C 0.96189 0.86247 0.77348 0.0
C2239 C 0.97321 0.87092 0.78291 0.0
C2240 C 0.98107 0.8631 0.79576 0.0
C2241 C 0.05548 0.81842 0.82511 0.0
C2242 C 0.06311 0.83338 0.82858 0.0
C2243 C 0.03861 0.81743 0.824 0.0
C2244 C 0.02911 0.83138 0.82621 0.0
C2245 C 0.03663 0.84637 0.82931 0.0
C2246 C 0.05347 0.84735 0.83062 0.0
C2247 C 0.01126 0.83033 0.82588 0.0
C2248 C 0.00284 0.83872 0.81371 0.0
C2249 C 0.00258 0.82119 0.83754 0.0
C2250 C 0.01088 0.81219 0.85073 0.0
C2251 C 0.02103 0.82038 0.86177 0.0
C2252 C 0.02895 0.81175 0.87405 0.0
C2253 C 0.0267 0.79495 0.8755 0.0
C2254 C 0.01648 0.78675 0.86469 0.0
C2255 C 0.00855 0.79532 0.85237 0.0
H2256 H 0.03284 0.78829 0.88502 0.0
H2257 H 0.95582 0.86855 0.76354 0.0
H2258 H 0.15287 0.93305 0.8008 0.0
H2259 H 0.156 0.96253 0.79905 0.0
H2260 H 0.19688 0.96034 0.83167 0.0
H2261 H 0.19331 0.93094 0.83416 0.0
H2262 H 0.17671 0.98262 0.84134 0.0
H2263 H 0.20147 0.96977 0.79079 0.0
H2264 H 0.20427 0.95682 0.76391 0.0
H2265 H 0.1618 0.98184 0.74713 0.0
H2266 H 0.1586 0.99478 0.77399 0.0
H2267 H 0.19168 0.06728 0.83318 0.0
H2268 H 0.19601 0.03799 0.8302 0.0
H2269 H 0.15095 0.03373 0.80396 0.0
H2270 H 0.14629 0.06291 0.80722 0.0
H2271 H 0.1766 0.01507 0.79052 0.0
H2272 H 0.15077 0.02526 0.84245 0.0
H2273 H 0.14854 0.03835 0.86933 0.0
H2274 H 0.19441 0.01808 0.88329 0.0
H2275 H 0.19703 0.00506 0.85638 0.0
C2276 C 0.16254 0.93883 0.8076 0.0
C2277 C 0.17276 0.92964 0.81771 0.0
C2278 C 0.16446 0.95567 0.8064 0.0
C2279 C 0.17678 0.96363 0.81511 0.0
C2280 C 0.18733 0.95444 0.82481 0.0
C2281 C 0.18535 0.93761 0.82611 0.0
C2282 C 0.17773 0.98165 0.81517 0.0
C2283 C 0.17706 0.98969 0.83021 0.0
C2284 C 0.17786 0.99089 0.80066 0.0
C2285 C 0.17973 0.98315 0.78446 0.0
C2286 C 0.19265 0.97242 0.78141 0.0
C2287 C 0.19432 0.96509 0.76617 0.0
C2288 C 0.1832 0.96848 0.75383 0.0
C2289 C 0.1704 0.97922 0.7567 0.0
C2290 C 0.16867 0.98657 0.77193 0.0
C2291 C 0.18266 0.06011 0.82681 0.0
C2292 C 0.16854 0.06741 0.8206 0.0
C2293 C 0.18523 0.04342 0.82501 0.0
C2294 C 0.17374 0.03375 0.81696 0.0
C2295 C 0.15998 0.04105 0.81015 0.0
C2296 C 0.15736 0.05773 0.81201 0.0
C2297 C 0.17544 0.01585 0.81662 0.0
C2298 C 0.17653 0.00791 0.80158 0.0
C2299 C 0.17581 0.00665 0.83112 0.0
C2300 C 0.17418 0.01435 0.84735 0.0
C2301 C 0.16044 0.02371 0.8512 0.0
C2302 C 0.1591 0.03109 0.86645 0.0
C2303 C 0.17135 0.02909 0.87799 0.0
C2304 C 0.18495 0.01965 0.87433 0.0
C2305 C 0.18636 0.01226 0.85908 0.0
H2306 H 0.17029 0.03481 0.88979 0.0
H2307 H 0.18452 0.9628 0.74204 0.0
H2308 H 0.0618 0.19787 0.81947 0.0
H2309 H 0.03265 0.20067 0.81472 0.0
H2310 H 0.02646 0.14896 0.82163 0.0
H2311 H 0.05559 0.14597 0.8257 0.0
H2312 H 0.00878 0.1593 0.79661 0.0
H2313 H 0.01841 0.1766 0.85209 0.0
H2314 H 0.03103 0.19347 0.87344 0.0
H2315 H 0.01145 0.2366 0.85155 0.0
H2316 H -0.00112 0.21999 0.82994 0.0
H2317 H 0.9288 0.14753 0.82334 0.0
H2318 H 0.95804 0.14996 0.82002 0.0
H2319 H 0.953 0.20122 0.8099 0.0
H2320 H 0.92353 0.19884 0.81286 0.0
H2321 H 0.97631 0.19486 0.83287 0.0
H2322 H 0.96317 0.17648 0.77964 0.0
H2323 H 0.95013 0.15908 0.759 0.0
H2324 H 0.97596 0.11752 0.77705 0.0
H2325 H 0.98898 0.13462 0.79797 0.0
C2326 C 0.05425 0.18707 0.81978 0.0
C2327 C 0.06099 0.17171 0.82311 0.0
C2328 C 0.03759 0.18871 0.81718 0.0
C2329 C 0.02737 0.17504 0.81801 0.0
C2330 C 0.03412 0.15967 0.82098 0.0
C2331 C 0.05075 0.15801 0.82349 0.0
C2332 C 0.00958 0.17665 0.81624 0.0
C2333 C 0.00166 0.16702 0.80458 0.0
C2334 C 0.00036 0.1871 0.8263 0.0
C2335 C 0.00788 0.19708 0.8393 0.0
C2336 C 0.01691 0.1897 0.85176 0.0
C2337 C 0.02403 0.19921 0.86392 0.0
C2338 C 0.02209 0.2161 0.86382 0.0
C2339 C 0.01297 0.22352 0.85159 0.0
C2340 C 0.00584 0.21406 0.83939 0.0
C2341 C 0.93382 0.15927 0.82005 0.0
C2342 C 0.92379 0.17298 0.81827 0.0
C2343 C 0.95056 0.16064 0.8182 0.0
C2344 C 0.95765 0.17573 0.81454 0.0
C2345 C 0.94773 0.18946 0.81269 0.0
C2346 C 0.93092 0.18808 0.81446 0.0
C2347 C 0.9755 0.17716 0.81356 0.0
C2348 C 0.98344 0.18737 0.82469 0.0
C2349 C 0.98473 0.16717 0.80307 0.0
C2350 C 0.97698 0.15683 0.79045 0.0
C2351 C 0.96598 0.16361 0.77929 0.0
C2352 C 0.95861 0.1538 0.76753 0.0
C2353 C 0.9622 0.1372 0.76673 0.0
C2354 C 0.97319 0.13038 0.77768 0.0
C2355 C 0.98059 0.14013 0.78948 0.0
H2356 H 0.95647 0.12963 0.75761 0.0
H2357 H 0.0276 0.22345 0.87325 0.0
H2358 H 0.84202 0.93255 0.81628 0.0
H2359 H 0.84129 0.96218 0.81431 0.0
H2360 H 0.78976 0.96161 0.82322 0.0
H2361 H 0.79035 0.93175 0.82507 0.0
H2362 H 0.80088 0.98408 0.79782 0.0
H2363 H 0.8113 0.96967 0.85353 0.0
H2364 H 0.82547 0.95478 0.87528 0.0
H2365 H 0.87053 0.97699 0.8613 0.0
H2366 H 0.85667 0.9918 0.83926 0.0
H2367 H 0.79644 0.06835 0.81903 0.0
H2368 H 0.79372 0.03878 0.8175 0.0
H2369 H 0.84578 0.03391 0.81926 0.0
H2370 H 0.84857 0.06332 0.82178 0.0
H2371 H 0.83253 0.01384 0.83968 0.0
H2372 H 0.82323 0.02762 0.78379 0.0
H2373 H 0.81009 0.04178 0.76092 0.0
H2374 H 0.76425 0.02068 0.77401 0.0
H2375 H 0.77707 0.00656 0.7971 0.0
C2376 C 0.83047 0.93868 0.8175 0.0
C2377 C 0.81623 0.92987 0.82081 0.0
C2378 C 0.8301 0.9556 0.81646 0.0
C2379 C 0.8155 0.964 0.81872 0.0
C2380 C 0.80113 0.95526 0.82143 0.0
C2381 C 0.8015 0.93829 0.8226 0.0
C2382 C 0.8156 0.98196 0.81928 0.0
C2383 C 0.80757 0.99067 0.80708 0.0
C2384 C 0.82465 0.99039 0.8312 0.0
C2385 C 0.83296 0.98174 0.84465 0.0
C2386 C 0.82425 0.97129 0.85501 0.0
C2387 C 0.83223 0.96287 0.8674 0.0
C2388 C 0.8489 0.96491 0.86965 0.0
C2389 C 0.85762 0.97541 0.85953 0.0
C2390 C 0.84971 0.98383 0.8471 0.0
C2391 C 0.80731 0.06098 0.81915 0.0
C2392 C 0.82272 0.06824 0.82058 0.0
C2393 C 0.80574 0.04408 0.81807 0.0
C2394 C 0.81956 0.03413 0.81813 0.0
C2395 C 0.83495 0.04136 0.81918 0.0
C2396 C 0.83653 0.05821 0.82043 0.0
C2397 C 0.81803 0.01615 0.81801 0.0
C2398 C 0.82577 0.00737 0.83039 0.0
C2399 C 0.80882 0.0077 0.80616 0.0
C2400 C 0.80108 0.01617 0.79228 0.0
C2401 C 0.81032 0.02611 0.78188 0.0
C2402 C 0.80293 0.03411 0.76885 0.0
C2403 C 0.78634 0.03217 0.76604 0.0
C2404 C 0.7771 0.02219 0.77622 0.0
C2405 C 0.78442 0.01418 0.78927 0.0
H2406 H 0.78064 0.03837 0.75595 0.0
H2407 H 0.85506 0.95837 0.87924 0.0
H2408 H 0.62867 0.66879 0.43219 0.0
H2409 H 0.63171 0.6704 0.46157 0.0
H2410 H 0.68054 0.68829 0.4558 0.0
H2411 H 0.67741 0.68749 0.42624 0.0
H2412 H 0.6769 0.66089 0.47722 0.0
H2413 H 0.655 0.71401 0.46879 0.0
H2414 H 0.63578 0.73419 0.45789 0.0
H2415 H 0.59679 0.71125 0.48387 0.0
H2416 H 0.61574 0.69077 0.49473 0.0
H2417 H 0.68481 0.66986 0.56283 0.0
H2418 H 0.68529 0.6753 0.53359 0.0
H2419 H 0.63348 0.66796 0.53144 0.0
H2420 H 0.63293 0.66305 0.56074 0.0
H2421 H 0.64132 0.69302 0.51374 0.0
H2422 H 0.66167 0.63825 0.51936 0.0
H2423 H 0.67998 0.61694 0.52969 0.0
H2424 H 0.72078 0.64161 0.50852 0.0
H2425 H 0.70272 0.66319 0.49823 0.0
C2426 C 0.63993 0.67348 0.43707 0.0
C2427 C 0.65278 0.67805 0.42678 0.0
C2428 C 0.64167 0.67428 0.4539 0.0
C2429 C 0.65631 0.67952 0.46078 0.0
C2430 C 0.66915 0.68421 0.45065 0.0
C2431 C 0.66736 0.68363 0.43378 0.0
C2432 C 0.65834 0.67923 0.47859 0.0
C2433 C 0.66938 0.66815 0.48526 0.0
C2434 C 0.64822 0.68844 0.48894 0.0
C2435 C 0.63678 0.70077 0.48248 0.0
C2436 C 0.6423 0.71318 0.47207 0.0
C2437 C 0.63146 0.72469 0.46592 0.0
C2438 C 0.61507 0.72398 0.47016 0.0
C2439 C 0.60949 0.71178 0.48059 0.0
C2440 C 0.62029 0.70022 0.48676 0.0
C2441 C 0.67356 0.66937 0.55606 0.0
C2442 C 0.65884 0.66598 0.56395 0.0
C2443 C 0.67384 0.67246 0.53938 0.0
C2444 C 0.65945 0.67183 0.53028 0.0
C2445 C 0.64472 0.66856 0.53822 0.0
C2446 C 0.64441 0.66573 0.55492 0.0
C2447 C 0.65964 0.67437 0.51246 0.0
C2448 C 0.64902 0.6859 0.50576 0.0
C2449 C 0.67001 0.66541 0.50206 0.0
C2450 C 0.68087 0.65242 0.50819 0.0
C2451 C 0.67456 0.63919 0.51701 0.0
C2452 C 0.68489 0.62706 0.52285 0.0
C2453 C 0.70154 0.62795 0.51981 0.0
C2454 C 0.70789 0.64095 0.51089 0.0
C2455 C 0.69761 0.65313 0.50505 0.0
H2456 H 0.70952 0.61854 0.52433 0.0
H2457 H 0.60669 0.7329 0.46539 0.0
H2458 H 0.31173 0.67782 0.56809 0.0
H2459 H 0.30831 0.67872 0.53852 0.0
H2460 H 0.35188 0.65023 0.53263 0.0
H2461 H 0.3556 0.64987 0.56208 0.0
H2462 H 0.35182 0.67299 0.51129 0.0
H2463 H 0.3123 0.63384 0.52945 0.0
H2464 H 0.28899 0.62393 0.54543 0.0
H2465 H 0.25858 0.66037 0.52387 0.0
H2466 H 0.28177 0.67064 0.50791 0.0
H2467 H 0.33985 0.63805 0.43365 0.0
H2468 H 0.34009 0.64088 0.46328 0.0
H2469 H 0.30718 0.68147 0.45987 0.0
H2470 H 0.30711 0.67886 0.43011 0.0
H2471 H 0.30046 0.65516 0.48531 0.0
H2472 H 0.34114 0.69272 0.46577 0.0
H2473 H 0.36484 0.70041 0.44918 0.0
H2474 H 0.39358 0.66416 0.47321 0.0
H2475 H 0.36996 0.65606 0.48976 0.0
C2476 C 0.32055 0.67179 0.56041 0.0
C2477 C 0.33392 0.66378 0.56727 0.0
C2478 C 0.31856 0.67225 0.54357 0.0
C2479 C 0.32971 0.66434 0.53335 0.0
C2480 C 0.34314 0.65645 0.54025 0.0
C2481 C 0.34527 0.65624 0.55704 0.0
C2482 C 0.3275 0.66421 0.51548 0.0
C2483 C 0.34061 0.66897 0.50566 0.0
C2484 C 0.31277 0.65929 0.50806 0.0
C2485 C 0.29881 0.65312 0.51763 0.0
C2486 C 0.30067 0.63982 0.52821 0.0
C2487 C 0.28747 0.63412 0.53725 0.0
C2488 C 0.27232 0.64155 0.5357 0.0
C2489 C 0.27033 0.65465 0.52508 0.0
C2490 C 0.28349 0.66041 0.51603 0.0
C2491 C 0.33252 0.64744 0.43926 0.0
C2492 C 0.32345 0.65825 0.4297 0.0
C2493 C 0.33271 0.64907 0.45611 0.0
C2494 C 0.32369 0.6614 0.46364 0.0
C2495 C 0.31419 0.67189 0.45419 0.0
C2496 C 0.31422 0.67044 0.43728 0.0
C2497 C 0.32483 0.66366 0.48136 0.0
C2498 C 0.31156 0.65932 0.49106 0.0
C2499 C 0.33947 0.66871 0.4887 0.0
C2500 C 0.35374 0.67368 0.47889 0.0
C2501 C 0.35247 0.68629 0.46741 0.0
C2502 C 0.3659 0.69074 0.45804 0.0
C2503 C 0.3807 0.68275 0.46011 0.0
C2504 C 0.38211 0.67032 0.47161 0.0
C2505 C 0.36871 0.6658 0.481 0.0
H2506 H 0.39108 0.68622 0.45284 0.0
H2507 H 0.26212 0.63712 0.5427 0.0
H2508 H 0.29765 0.32398 0.43175 0.0
H2509 H 0.29346 0.32372 0.46108 0.0
H2510 H 0.33645 0.29459 0.46713 0.0
H2511 H 0.34047 0.29424 0.4377 0.0
H2512 H 0.29183 0.29914 0.48706 0.0
H2513 H 0.35857 0.316 0.49571 0.0
H2514 H 0.38133 0.32754 0.47997 0.0
H2515 H 0.34786 0.3549 0.45088 0.0
H2516 H 0.32496 0.34375 0.46664 0.0
H2517 H 0.31721 0.30223 0.57111 0.0
H2518 H 0.31386 0.29648 0.54214 0.0
H2519 H 0.31163 0.34796 0.53217 0.0
H2520 H 0.31453 0.35385 0.56112 0.0
H2521 H 0.33484 0.33174 0.51406 0.0
H2522 H 0.27851 0.32618 0.52827 0.0
H2523 H 0.25532 0.31515 0.54367 0.0
H2524 H 0.26669 0.26693 0.52708 0.0
H2525 H 0.29009 0.27765 0.51175 0.0
C2526 C 0.30591 0.31701 0.43921 0.0
C2527 C 0.31955 0.30931 0.43237 0.0
C2528 C 0.30348 0.3169 0.45599 0.0
C2529 C 0.31472 0.30926 0.46619 0.0
C2530 C 0.32771 0.30062 0.45938 0.0
C2531 C 0.33007 0.30059 0.4426 0.0
C2532 C 0.31419 0.31232 0.48384 0.0
C2533 C 0.30124 0.30617 0.49304 0.0
C2534 C 0.32637 0.32172 0.49147 0.0
C2535 C 0.34007 0.32889 0.48223 0.0
C2536 C 0.3561 0.32454 0.48601 0.0
C2537 C 0.36902 0.33101 0.47708 0.0
C2538 C 0.36604 0.3419 0.4644 0.0
C2539 C 0.35015 0.34642 0.46067 0.0
C2540 C 0.3372 0.34002 0.46959 0.0
C2541 C 0.3156 0.31233 0.56281 0.0
C2542 C 0.31628 0.32852 0.5684 0.0
C2543 C 0.31375 0.30901 0.54627 0.0
C2544 C 0.31255 0.32181 0.53507 0.0
C2545 C 0.31264 0.33793 0.54066 0.0
C2546 C 0.31438 0.34126 0.55718 0.0
C2547 C 0.31251 0.31849 0.51743 0.0
C2548 C 0.32543 0.32461 0.50819 0.0
C2549 C 0.30024 0.30916 0.50982 0.0
C2550 C 0.28615 0.3027 0.51899 0.0
C2551 C 0.27615 0.31321 0.52802 0.0
C2552 C 0.26295 0.30702 0.53671 0.0
C2553 C 0.25956 0.29035 0.53639 0.0
C2554 C 0.26934 0.27984 0.52733 0.0
C2555 C 0.28257 0.28597 0.51863 0.0
H2556 H 0.24933 0.28557 0.54313 0.0
H2557 H 0.37606 0.34686 0.45748 0.0
H2558 H 0.69247 0.34457 0.43299 0.0
H2559 H 0.6985 0.3387 0.46129 0.0
H2560 H 0.67564 0.29162 0.4566 0.0
H2561 H 0.66854 0.29788 0.42851 0.0
H2562 H 0.66516 0.30531 0.48234 0.0
H2563 H 0.71794 0.29632 0.46176 0.0
H2564 H 0.74278 0.30168 0.44597 0.0
H2565 H 0.75168 0.3449 0.47396 0.0
H2566 H 0.72677 0.33995 0.48978 0.0
H2567 H 0.68567 0.29128 0.56496 0.0
H2568 H 0.68829 0.28756 0.53558 0.0
H2569 H 0.69843 0.33875 0.52995 0.0
H2570 H 0.69523 0.34276 0.5591 0.0
H2571 H 0.71758 0.3174 0.50941 0.0
H2572 H 0.66153 0.32774 0.5259 0.0
H2573 H 0.63693 0.32154 0.54179 0.0
H2574 H 0.63512 0.27363 0.52094 0.0
H2575 H 0.65988 0.27948 0.50511 0.0
C2576 C 0.68865 0.33298 0.43796 0.0
C2577 C 0.67986 0.32178 0.42848 0.0
C2578 C 0.69238 0.32951 0.45411 0.0
C2579 C 0.68775 0.3146 0.46105 0.0
C2580 C 0.67942 0.30317 0.45149 0.0
C2581 C 0.67548 0.30673 0.43537 0.0
C2582 C 0.69029 0.3117 0.47866 0.0
C2583 C 0.67676 0.30753 0.48815 0.0
C2584 C 0.70536 0.31476 0.48636 0.0
C2585 C 0.72041 0.3178 0.47691 0.0
C2586 C 0.72513 0.30703 0.46449 0.0
C2587 C 0.73924 0.30999 0.45553 0.0
C2588 C 0.74879 0.32363 0.45894 0.0
C2589 C 0.74427 0.33434 0.47133 0.0
C2590 C 0.73017 0.33145 0.48032 0.0
C2591 C 0.68854 0.30175 0.55749 0.0
C2592 C 0.69003 0.31737 0.5644 0.0
C2593 C 0.69018 0.29955 0.54075 0.0
C2594 C 0.69347 0.31291 0.53067 0.0
C2595 C 0.696 0.32829 0.53759 0.0
C2596 C 0.69419 0.33054 0.55429 0.0
C2597 C 0.69243 0.31136 0.51283 0.0
C2598 C 0.70617 0.31476 0.5034 0.0
C2599 C 0.67762 0.3074 0.50513 0.0
C2600 C 0.66265 0.30397 0.51449 0.0
C2601 C 0.65596 0.31584 0.52481 0.0
C2602 C 0.64198 0.3124 0.53379 0.0
C2603 C 0.63449 0.29718 0.53242 0.0
C2604 C 0.64095 0.2854 0.52202 0.0
C2605 C 0.65495 0.28877 0.51304 0.0
H2606 H 0.62366 0.29454 0.53937 0.0
H2607 H 0.7597 0.3259 0.45199 0.0
H2608 H 0.56722 0.6901 0.66504 0.0
H2609 H 0.53819 0.69286 0.6701 0.0
H2610 H 0.54136 0.65744 0.70866 0.0
H2611 H 0.57045 0.65458 0.70359 0.0
H2612 H 0.51854 0.64943 0.68764 0.0
H2613 H 0.53253 0.69759 0.71675 0.0
H2614 H 0.54582 0.72408 0.72145 0.0
H2615 H 0.51978 0.74467 0.68127 0.0
H2616 H 0.5065 0.71823 0.67618 0.0
H2617 H 0.43447 0.65429 0.70173 0.0
H2618 H 0.46347 0.65731 0.7073 0.0
H2619 H 0.46769 0.69129 0.66756 0.0
H2620 H 0.4387 0.68841 0.66202 0.0
H2621 H 0.48666 0.7003 0.69319 0.0
H2622 H 0.47607 0.65155 0.66188 0.0
H2623 H 0.46294 0.62508 0.65651 0.0
H2624 H 0.48315 0.60576 0.70052 0.0
H2625 H 0.49621 0.63221 0.70626 0.0
C2626 C 0.56181 0.68321 0.67487 0.0
C2627 C 0.57107 0.67205 0.68386 0.0
C2628 C 0.54522 0.68482 0.67777 0.0
C2629 C 0.53762 0.67543 0.68983 0.0
C2630 C 0.54698 0.66479 0.69929 0.0
C2631 C 0.56356 0.66313 0.69635 0.0
C2632 C 0.51973 0.6754 0.69129 0.0
C2633 C 0.51159 0.66052 0.68926 0.0
C2634 C 0.51066 0.68992 0.69298 0.0
C2635 C 0.5186 0.70587 0.69602 0.0
C2636 C 0.52972 0.70773 0.70884 0.0
C2637 C 0.53724 0.72275 0.71158 0.0
C2638 C 0.53367 0.73604 0.70165 0.0
C2639 C 0.52254 0.73436 0.68896 0.0
C2640 C 0.51499 0.71936 0.68615 0.0
C2641 C 0.44159 0.66248 0.69427 0.0
C2642 C 0.43441 0.67097 0.68132 0.0
C2643 C 0.4581 0.66425 0.6975 0.0
C2644 C 0.46774 0.67435 0.68769 0.0
C2645 C 0.46045 0.68346 0.67528 0.0
C2646 C 0.4439 0.68179 0.67212 0.0
C2647 C 0.4856 0.67438 0.68941 0.0
C2648 C 0.49368 0.68922 0.69192 0.0
C2649 C 0.49468 0.65984 0.6881 0.0
C2650 C 0.48695 0.6439 0.68459 0.0
C2651 C 0.47761 0.64169 0.67046 0.0
C2652 C 0.47019 0.62669 0.66735 0.0
C2653 C 0.47217 0.61376 0.67819 0.0
C2654 C 0.4816 0.6158 0.69215 0.0
C2655 C 0.48902 0.63078 0.69534 0.0
H2656 H 0.46642 0.60216 0.67576 0.0
H2657 H 0.5395 0.74766 0.70379 0.0
H2658 H 0.33566 0.56831 0.7063 0.0
H2659 H 0.33186 0.53944 0.71294 0.0
H2660 H 0.3118 0.53102 0.66526 0.0
H2661 H 0.31542 0.55981 0.65863 0.0
H2662 H 0.29566 0.51371 0.68975 0.0
H2663 H 0.35086 0.52482 0.67131 0.0
H2664 H 0.37735 0.53871 0.673 0.0
H2665 H 0.38406 0.52037 0.72137 0.0
H2666 H 0.35748 0.50655 0.72003 0.0
H2667 H 0.31327 0.43597 0.66086 0.0
H2668 H 0.31005 0.46473 0.66714 0.0
H2669 H 0.33446 0.45776 0.71295 0.0
H2670 H 0.33763 0.42873 0.70678 0.0
H2671 H 0.3469 0.48291 0.69668 0.0
H2672 H 0.29424 0.46667 0.7125 0.0
H2673 H 0.2679 0.45256 0.71059 0.0
H2674 H 0.25608 0.48008 0.66789 0.0
H2675 H 0.28245 0.49419 0.66939 0.0
C2676 C 0.33014 0.56034 0.69738 0.0
C2677 C 0.32599 0.56619 0.68189 0.0
C2678 C 0.32802 0.54389 0.70116 0.0
C2679 C 0.32167 0.53313 0.68953 0.0
C2680 C 0.31671 0.53915 0.67439 0.0
C2681 C 0.31892 0.55553 0.67057 0.0
C2682 C 0.32157 0.51537 0.69235 0.0
C2683 C 0.30682 0.50692 0.69129 0.0
C2684 C 0.33611 0.50664 0.6949 0.0
C2685 C 0.35211 0.51484 0.69565 0.0
C2686 C 0.35793 0.52386 0.68235 0.0
C2687 C 0.37297 0.5317 0.68324 0.0
C2688 C 0.38236 0.53047 0.69731 0.0
C2689 C 0.37676 0.52135 0.7105 0.0
C2690 C 0.36171 0.51351 0.70968 0.0
C2691 C 0.31764 0.44044 0.67244 0.0
C2692 C 0.32566 0.43005 0.68335 0.0
C2693 C 0.31578 0.45691 0.67602 0.0
C2694 C 0.32179 0.46334 0.69063 0.0
C2695 C 0.32965 0.453 0.70165 0.0
C2696 C 0.33154 0.43647 0.69807 0.0
C2697 C 0.32101 0.48111 0.69353 0.0
C2698 C 0.33563 0.48961 0.69563 0.0
C2699 C 0.30632 0.48986 0.69199 0.0
C2700 C 0.29039 0.48145 0.69103 0.0
C2701 C 0.28608 0.46964 0.70264 0.0
C2702 C 0.27113 0.46165 0.70163 0.0
C2703 C 0.26033 0.46541 0.68912 0.0
C2704 C 0.26445 0.47718 0.67759 0.0
C2705 C 0.27939 0.48521 0.67852 0.0
H2706 H 0.24877 0.45921 0.68836 0.0
H2707 H 0.394 0.53654 0.69797 0.0
H2708 H 0.56757 0.32061 0.67768 0.0
H2709 H 0.53808 0.31838 0.67885 0.0
H2710 H 0.53673 0.30698 0.62774 0.0
H2711 H 0.5663 0.30852 0.62652 0.0
H2712 H 0.517 0.3336 0.63747 0.0
H2713 H 0.52771 0.27813 0.65275 0.0
H2714 H 0.54039 0.25642 0.66901 0.0
H2715 H 0.51784 0.27517 0.71215 0.0
H2716 H 0.50521 0.29716 0.69617 0.0
H2717 H 0.4333 0.32277 0.6308 0.0
H2718 H 0.46228 0.31769 0.62986 0.0
H2719 H 0.46434 0.31873 0.68222 0.0
H2720 H 0.43502 0.32246 0.68335 0.0
H2721 H 0.48398 0.29642 0.67161 0.0
H2722 H 0.47489 0.35237 0.6583 0.0
H2723 H 0.46278 0.37546 0.64356 0.0
H2724 H 0.48303 0.35786 0.59882 0.0
H2725 H 0.49509 0.33453 0.61327 0.0
C2726 C 0.56109 0.31719 0.66676 0.0
C2727 C 0.56934 0.31483 0.65197 0.0
C2728 C 0.54422 0.31599 0.66746 0.0
C2729 C 0.5353 0.31251 0.65339 0.0
C2730 C 0.54346 0.30972 0.63871 0.0
C2731 C 0.56033 0.31073 0.63803 0.0
C2732 C 0.51741 0.31309 0.65372 0.0
C2733 C 0.50972 0.3253 0.6447 0.0
C2734 C 0.50809 0.30263 0.66366 0.0
C2735 C 0.51564 0.28939 0.67328 0.0
C2736 C 0.52557 0.27772 0.66572 0.0
C2737 C 0.53272 0.26534 0.67489 0.0
C2738 C 0.52995 0.26444 0.69161 0.0
C2739 C 0.51999 0.2759 0.6992 0.0
C2740 C 0.51282 0.28831 0.69009 0.0
C2741 C 0.43977 0.32155 0.64217 0.0
C2742 C 0.43172 0.32314 0.65717 0.0
C2743 C 0.45644 0.31888 0.64159 0.0
C2744 C 0.46556 0.31822 0.65596 0.0
C2745 C 0.45757 0.31933 0.67097 0.0
C2746 C 0.44081 0.32169 0.67158 0.0
C2747 C 0.48348 0.31692 0.65527 0.0
C2748 C 0.49121 0.30466 0.66429 0.0
C2749 C 0.49293 0.32755 0.64556 0.0
C2750 C 0.48576 0.34162 0.63684 0.0
C2751 C 0.47667 0.35336 0.6453 0.0
C2752 C 0.46982 0.3665 0.637 0.0
C2753 C 0.4721 0.3681 0.62025 0.0
C2754 C 0.48126 0.35659 0.61178 0.0
C2755 C 0.48811 0.34342 0.62003 0.0
H2756 H 0.46679 0.37829 0.61385 0.0
H2757 H 0.5355 0.25485 0.69868 0.0
H2758 H 0.64201 0.55633 0.67841 0.0
H2759 H 0.64534 0.52721 0.6833 0.0
H2760 H 0.6973 0.53337 0.68447 0.0
H2761 H 0.69404 0.56255 0.67927 0.0
H2762 H 0.68807 0.50957 0.66381 0.0
H2763 H 0.67761 0.52333 0.71881 0.0
H2764 H 0.66346 0.53633 0.74177 0.0
H2765 H 0.62036 0.50904 0.73083 0.0
H2766 H 0.63418 0.49604 0.70765 0.0
H2767 H 0.69402 0.42444 0.67471 0.0
H2768 H 0.69707 0.4533 0.68131 0.0
H2769 H 0.64506 0.45886 0.68116 0.0
H2770 H 0.64188 0.4299 0.67526 0.0
H2771 H 0.65877 0.47676 0.70508 0.0
H2772 H 0.6676 0.46743 0.6475 0.0
H2773 H 0.68114 0.45478 0.62395 0.0
H2774 H 0.72687 0.47433 0.63959 0.0
H2775 H 0.71362 0.48693 0.66336 0.0
C2776 C 0.65413 0.55149 0.67981 0.0
C2777 C 0.66777 0.56166 0.67834 0.0
C2778 C 0.65602 0.5349 0.6828 0.0
C2779 C 0.67157 0.52818 0.6844 0.0
C2780 C 0.6852 0.53836 0.68337 0.0
C2781 C 0.68332 0.55501 0.68046 0.0
C2782 C 0.67348 0.51032 0.68552 0.0
C2783 C 0.68201 0.5024 0.67309 0.0
C2784 C 0.66531 0.501 0.69745 0.0
C2785 C 0.65692 0.50877 0.71141 0.0
C2786 C 0.66508 0.52018 0.72121 0.0
C2787 C 0.65712 0.52754 0.73429 0.0
C2788 C 0.64101 0.52353 0.73774 0.0
C2789 C 0.63284 0.51213 0.72814 0.0
C2790 C 0.64074 0.50475 0.71504 0.0
C2791 C 0.68322 0.43173 0.67642 0.0
C2792 C 0.6677 0.42493 0.67427 0.0
C2793 C 0.685 0.44823 0.68009 0.0
C2794 C 0.6713 0.45824 0.68149 0.0
C2795 C 0.65579 0.45135 0.68008 0.0
C2796 C 0.654 0.43484 0.67651 0.0
C2797 C 0.67301 0.4761 0.68316 0.0
C2798 C 0.66514 0.48397 0.69606 0.0
C2799 C 0.68172 0.48543 0.67162 0.0
C2800 C 0.68966 0.47794 0.6573 0.0
C2801 C 0.68056 0.46893 0.64597 0.0
C2802 C 0.68818 0.46178 0.63258 0.0
C2803 C 0.70486 0.46371 0.6303 0.0
C2804 C 0.71396 0.47282 0.64139 0.0
C2805 C 0.7064 0.47997 0.65482 0.0
H2806 H 0.71074 0.45817 0.61992 0.0
H2807 H 0.63487 0.52924 0.74787 0.0
H2808 H 0.43411 0.34358 0.3214 0.0
H2809 H 0.46282 0.34075 0.3152 0.0
H2810 H 0.45869 0.28852 0.31931 0.0
H2811 H 0.42991 0.29135 0.32618 0.0
H2812 H 0.4834 0.29912 0.33637 0.0
H2813 H 0.46633 0.30636 0.28226 0.0
H2814 H 0.45144 0.31832 0.25923 0.0
H2815 H 0.47648 0.36368 0.26612 0.0
H2816 H 0.49135 0.35209 0.28935 0.0
H2817 H 0.56859 0.30097 0.32035 0.0
H2818 H 0.54001 0.29469 0.31489 0.0
H2819 H 0.5283 0.34573 0.31851 0.0
H2820 H 0.55679 0.35208 0.32386 0.0
H2821 H 0.51208 0.32944 0.29284 0.0
H2822 H 0.52387 0.32268 0.35073 0.0
H2823 H 0.53863 0.31034 0.37367 0.0
H2824 H 0.52315 0.26277 0.35843 0.0
H2825 H 0.50847 0.27485 0.33526 0.0
C2826 C 0.43929 0.33148 0.32098 0.0
C2827 C 0.4298 0.3177 0.32445 0.0
C2828 C 0.45566 0.32985 0.31718 0.0
C2829 C 0.46286 0.3144 0.31657 0.0
C2830 C 0.45334 0.30055 0.31961 0.0
C2831 C 0.43691 0.30218 0.32346 0.0
C2832 C 0.48063 0.31304 0.31434 0.0
C2833 C 0.48965 0.30535 0.32657 0.0
C2834 C 0.4888 0.32126 0.30163 0.0
C2835 C 0.47992 0.32835 0.28762 0.0
C2836 C 0.46859 0.31892 0.27894 0.0
C2837 C 0.46016 0.32564 0.26584 0.0
C2838 C 0.463 0.34176 0.26123 0.0
C2839 C 0.47429 0.35119 0.2697 0.0
C2840 C 0.48275 0.34454 0.28282 0.0
C2841 C 0.55993 0.31085 0.31973 0.0
C2842 C 0.56481 0.32699 0.32268 0.0
C2843 C 0.54366 0.30725 0.31664 0.0
C2844 C 0.5321 0.31976 0.31638 0.0
C2845 C 0.53708 0.33593 0.31864 0.0
C2846 C 0.55329 0.33952 0.32185 0.0
C2847 C 0.51462 0.31605 0.31514 0.0
C2848 C 0.50574 0.3228 0.3023 0.0
C2849 C 0.50654 0.30686 0.32719 0.0
C2850 C 0.51526 0.29964 0.34117 0.0
C2851 C 0.52373 0.30958 0.35221 0.0
C2852 C 0.53206 0.30264 0.36526 0.0
C2853 C 0.53188 0.28577 0.36748 0.0
C2854 C 0.52332 0.27582 0.35668 0.0
C2855 C 0.51499 0.28271 0.34359 0.0
H2856 H 0.53833 0.28042 0.37759 0.0
H2857 H 0.45645 0.34693 0.25108 0.0
H2858 H 0.64774 0.43767 0.31223 0.0
H2859 H 0.65104 0.46706 0.3094 0.0
H2860 H 0.69557 0.46493 0.33682 0.0
H2861 H 0.69204 0.43554 0.34019 0.0
H2862 H 0.67627 0.48801 0.34821 0.0
H2863 H 0.69624 0.47327 0.29619 0.0
H2864 H 0.69662 0.45925 0.26971 0.0
H2865 H 0.65277 0.48367 0.25586 0.0
H2866 H 0.65198 0.49767 0.28237 0.0
H2867 H 0.6864 0.5732 0.33629 0.0
H2868 H 0.69209 0.54403 0.33438 0.0
H2869 H 0.64617 0.5364 0.31046 0.0
H2870 H 0.64029 0.56545 0.31249 0.0
H2871 H 0.67097 0.51855 0.29649 0.0
H2872 H 0.64944 0.52983 0.35024 0.0
H2873 H 0.64915 0.54373 0.37681 0.0
H2874 H 0.69678 0.52544 0.38716 0.0
H2875 H 0.69743 0.51162 0.36053 0.0
C2876 C 0.65825 0.44346 0.31764 0.0
C2877 C 0.66958 0.43432 0.32652 0.0
C2878 C 0.66023 0.46022 0.31584 0.0
C2879 C 0.67365 0.46815 0.32275 0.0
C2880 C 0.68518 0.45902 0.33132 0.0
C2881 C 0.68319 0.44223 0.33315 0.0
C2882 C 0.67484 0.48612 0.32212 0.0
C2883 C 0.67551 0.49468 0.33686 0.0
C2884 C 0.67358 0.49481 0.30733 0.0
C2885 C 0.674 0.48644 0.29134 0.0
C2886 C 0.68661 0.47556 0.28756 0.0
C2887 C 0.68691 0.46764 0.27253 0.0
C2888 C 0.67471 0.47055 0.26112 0.0
C2889 C 0.66221 0.48143 0.26471 0.0
C2890 C 0.66184 0.48938 0.27973 0.0
C2891 C 0.67751 0.5653 0.33064 0.0
C2892 C 0.66283 0.5716 0.32466 0.0
C2893 C 0.68082 0.54868 0.32948 0.0
C2894 C 0.66949 0.53809 0.32238 0.0
C2895 C 0.65509 0.54441 0.3159 0.0
C2896 C 0.65177 0.56101 0.31707 0.0
C2897 C 0.67206 0.52029 0.32257 0.0
C2898 C 0.67207 0.51181 0.30777 0.0
C2899 C 0.674 0.51165 0.33729 0.0
C2900 C 0.67356 0.51986 0.35333 0.0
C2901 C 0.6599 0.52889 0.35813 0.0
C2902 C 0.65966 0.53673 0.37321 0.0
C2903 C 0.67296 0.53551 0.38365 0.0
C2904 C 0.6865 0.5264 0.37905 0.0
C2905 C 0.68681 0.51856 0.36397 0.0
H2906 H 0.67276 0.54159 0.39531 0.0
H2907 H 0.67497 0.4644 0.24949 0.0
H2908 H 0.5475 0.65442 0.31166 0.0
H2909 H 0.51911 0.66039 0.3068 0.0
H2910 H 0.53032 0.71161 0.30295 0.0
H2911 H 0.55871 0.70582 0.30908 0.0
H2912 H 0.50579 0.70885 0.32083 0.0
H2913 H 0.51729 0.68845 0.26909 0.0
H2914 H 0.52866 0.67039 0.24807 0.0
H2915 H 0.49889 0.63103 0.26514 0.0
H2916 H 0.4875 0.64876 0.28644 0.0
H2917 H 0.41704 0.68338 0.29233 0.0
H2918 H 0.4449 0.69084 0.28548 0.0
H2919 H 0.45827 0.68678 0.33602 0.0
H2920 H 0.43037 0.68051 0.34306 0.0
H2921 H 0.4702 0.67385 0.28701 0.0
H2922 H 0.48947 0.70851 0.34656 0.0
H2923 H 0.478 0.72925 0.36489 0.0
H2924 H 0.4461 0.74544 0.32702 0.0
H2925 H 0.45753 0.72497 0.30836 0.0
C2926 C 0.54397 0.66698 0.30986 0.0
C2927 C 0.5554 0.67965 0.31097 0.0
C2928 C 0.52773 0.67036 0.30675 0.0
C2929 C 0.52256 0.68644 0.30423 0.0
C2930 C 0.53402 0.69909 0.30477 0.0
C2931 C 0.55028 0.69574 0.30815 0.0
C2932 C 0.50499 0.68997 0.30264 0.0
C2933 C 0.49802 0.70136 0.31327 0.0
C2934 C 0.49483 0.68075 0.29225 0.0
C2935 C 0.50156 0.66996 0.27941 0.0
C2936 C 0.51322 0.67592 0.26843 0.0
C2937 C 0.51967 0.66574 0.25646 0.0
C2938 C 0.5145 0.64957 0.25528 0.0
C2939 C 0.50286 0.64356 0.26606 0.0
C2940 C 0.49638 0.65369 0.27807 0.0
C2941 C 0.42581 0.68454 0.30205 0.0
C2942 C 0.42146 0.68124 0.31825 0.0
C2943 C 0.44178 0.68869 0.29808 0.0
C2944 C 0.4537 0.68955 0.31023 0.0
C2945 C 0.44928 0.68658 0.32644 0.0
C2946 C 0.43332 0.68268 0.33043 0.0
C2947 C 0.47104 0.69191 0.306 0.0
C2948 C 0.47796 0.68167 0.29425 0.0
C2949 C 0.48114 0.70265 0.3149 0.0
C2950 C 0.47434 0.71513 0.32605 0.0
C2951 C 0.4801 0.71657 0.34208 0.0
C2952 C 0.47358 0.72826 0.35255 0.0
C2953 C 0.46132 0.73864 0.34713 0.0
C2954 C 0.45557 0.73736 0.33122 0.0
C2955 C 0.46205 0.7257 0.32069 0.0
H2956 H 0.45628 0.74767 0.35526 0.0
H2957 H 0.51951 0.6417 0.246 0.0
H2958 H 0.31422 0.42112 0.31113 0.0
H2959 H 0.31234 0.45063 0.3073 0.0
H2960 H 0.33646 0.4582 0.35324 0.0
H2961 H 0.33792 0.42876 0.35729 0.0
H2962 H 0.31295 0.47904 0.35027 0.0
H2963 H 0.35652 0.46075 0.31573 0.0
H2964 H 0.36898 0.44427 0.29402 0.0
H2965 H 0.33568 0.46425 0.25929 0.0
H2966 H 0.32288 0.4807 0.28085 0.0
H2967 H 0.34726 0.55691 0.34213 0.0
H2968 H 0.34432 0.52731 0.34269 0.0
H2969 H 0.31115 0.52957 0.30226 0.0
H2970 H 0.31401 0.55937 0.30164 0.0
H2971 H 0.3362 0.50419 0.30062 0.0
H2972 H 0.29458 0.52459 0.33594 0.0
H2973 H 0.2838 0.54157 0.35816 0.0
H2974 H 0.31543 0.51781 0.39207 0.0
H2975 H 0.32659 0.50086 0.37 0.0
C2976 C 0.31905 0.42914 0.32041 0.0
C2977 C 0.32626 0.42274 0.33448 0.0
C2978 C 0.31802 0.44596 0.3182 0.0
C2979 C 0.3245 0.45663 0.32986 0.0
C2980 C 0.33137 0.45021 0.34409 0.0
C2981 C 0.33219 0.43341 0.3464 0.0
C2982 C 0.32447 0.47447 0.3272 0.0
C2983 C 0.31814 0.48451 0.33945 0.0
C2984 C 0.3309 0.48163 0.31292 0.0
C2985 C 0.33863 0.47181 0.29993 0.0
C2986 C 0.35178 0.46154 0.30348 0.0
C2987 C 0.35891 0.45222 0.2912 0.0
C2988 C 0.35309 0.45318 0.27529 0.0
C2989 C 0.34015 0.4635 0.27162 0.0
C2990 C 0.33296 0.47283 0.28387 0.0
C2991 C 0.33953 0.55109 0.3332 0.0
C2992 C 0.33088 0.56038 0.32182 0.0
C2993 C 0.33778 0.53422 0.33361 0.0
C2994 C 0.32743 0.52636 0.3226 0.0
C2995 C 0.31916 0.5355 0.31086 0.0
C2996 C 0.32075 0.55245 0.31057 0.0
C2997 C 0.32499 0.5086 0.32381 0.0
C2998 C 0.33084 0.49863 0.31131 0.0
C2999 C 0.31832 0.50149 0.33794 0.0
C3000 C 0.31151 0.51155 0.35128 0.0
C3001 C 0.29933 0.52307 0.34811 0.0
C3002 C 0.29313 0.53268 0.36068 0.0
C3003 C 0.29895 0.53079 0.37651 0.0
C3004 C 0.31094 0.51927 0.3798 0.0
C3005 C 0.31719 0.50965 0.36727 0.0
H3006 H 0.29414 0.53824 0.38623 0.0
H3007 H 0.35863 0.44595 0.2658 0.0
loop_
_geom_bond_atom_site_label_1
_geom_bond_atom_site_label_2
_geom_bond_distance
_geom_bond_site_symmetry_2
_ccdc_geom_bond_type
Li0 N17 1.990 . S
Li0 O60 1.956 . S
Li0 O61 1.970 . S
Li0 O62 1.961 . S
Li1 N25 1.990 . S
Li1 O60 1.970 . S
Li1 O61 1.956 . S
Li1 O63 1.961 . S
Li2 N47 1.990 . S
Li2 O60 1.961 . S
Li2 O62 1.956 . S
Li2 O63 1.970 . S
Li3 N53 1.990 . S
Li3 O61 1.961 . S
Li3 O62 1.970 . S
Li3 O63 1.956 . S
C4 C6 1.348 . S
C4 C7 1.356 . S
C4 O60 1.325 . S
N5 C8 1.314 . S
N5 C9 1.279 . S
C6 C4 1.348 . S
C6 C8 1.353 . S
C6 H64 0.929 . S
C7 C4 1.356 . S
C7 C9 1.358 . S
C7 H65 0.930 . S
C8 N5 1.314 . S
C8 C6 1.353 . S
C8 H66 0.930 . S
C9 N5 1.279 . S
C9 C7 1.358 . S
C9 H67 0.930 . S
C10 C13 1.348 . S
C10 C14 1.356 . S
C10 O61 1.325 . S
C11 N12 1.279 . S
C11 C14 1.358 . S
C11 H68 0.930 . S
N12 C11 1.279 . S
N12 C15 1.314 . S
C13 C10 1.348 . S
C13 C15 1.353 . S
C13 H69 0.929 . S
C14 C10 1.356 . S
C14 C11 1.358 . S
C14 H70 0.930 . S
C15 N12 1.314 . S
C15 C13 1.353 . S
C15 H71 0.930 . S
C16 N17 1.314 . S
C16 C21 1.353 . S
C16 H22 0.930 . S
N17 Li0 1.990 . S
N17 C16 1.314 . S
N17 C19 1.279 . S
C18 C19 1.358 . S
C18 C20 1.356 . S
C18 H72 0.930 . S
C19 N17 1.279 . S
C19 C18 1.358 . S
C19 H23 0.930 . S
C20 C18 1.356 . S
C20 C21 1.348 . S
C21 C16 1.353 . S
C21 C20 1.348 . S
C21 H73 0.929 . S
H22 C16 0.930 . S
H23 C19 0.930 . S
C24 N25 1.314 . S
C24 C26 1.353 . S
C24 H30 0.930 . S
N25 Li1 1.990 . S
N25 C24 1.314 . S
N25 C28 1.279 . S
C26 C24 1.353 . S
C26 C29 1.348 . S
C26 H74 0.929 . S
C27 C28 1.358 . S
C27 C29 1.356 . S
C27 H75 0.930 . S
C28 N25 1.279 . S
C28 C27 1.358 . S
C28 H31 0.930 . S
C29 C26 1.348 . S
C29 C27 1.356 . S
H30 C24 0.930 . S
H31 C28 0.930 . S
C32 C34 1.348 . S
C32 C35 1.356 . S
C32 O62 1.325 . S
N33 C36 1.314 . S
N33 C37 1.279 . S
C34 C32 1.348 . S
C34 C36 1.353 . S
C34 H76 0.929 . S
C35 C32 1.356 . S
C35 C37 1.358 . S
C35 H77 0.930 . S
C36 N33 1.314 . S
C36 C34 1.353 . S
C36 H78 0.930 . S
C37 N33 1.279 . S
C37 C35 1.358 . S
C37 H79 0.930 . S
C38 C39 1.348 . S
C38 C40 1.356 . S
C38 O63 1.325 . S
C39 C38 1.348 . S
C39 C41 1.353 . S
C39 H80 0.929 . S
C40 C38 1.356 . S
C40 C42 1.358 . S
C40 H81 0.930 . S
C41 C39 1.353 . S
C41 N43 1.314 . S
C41 H82 0.930 . S
C42 C40 1.358 . S
C42 N43 1.279 . S
C42 H83 0.930 . S
N43 C41 1.314 . S
N43 C42 1.279 . S
C44 C46 1.353 . S
C44 N47 1.314 . S
C44 H50 0.930 . S
C45 N47 1.279 . S
C45 C48 1.358 . S
C45 H51 0.930 . S
C46 C44 1.353 . S
C46 C49 1.348 . S
C46 H84 0.929 . S
N47 Li2 1.990 . S
N47 C44 1.314 . S
N47 C45 1.279 . S
C48 C45 1.358 . S
C48 C49 1.356 . S
C48 H85 0.930 . S
C49 C46 1.348 . S
C49 C48 1.356 . S
H50 C44 0.930 . S
H51 C45 0.930 . S
C52 N53 1.314 . S
C52 C54 1.353 . S
C52 H58 0.930 . S
N53 Li3 1.990 . S
N53 C52 1.314 . S
N53 C56 1.279 . S
C54 C52 1.353 . S
C54 C57 1.348 . S
C54 H86 0.929 . S
C55 C56 1.358 . S
C55 C57 1.356 . S
C55 H87 0.930 . S
C56 N53 1.279 . S
C56 C55 1.358 . S
C56 H59 0.930 . S
C57 C54 1.348 . S
C57 C55 1.356 . S
H58 C52 0.930 . S
H59 C56 0.930 . S
O60 Li0 1.956 . S
O60 Li1 1.970 . S
O60 Li2 1.961 . S
O60 C4 1.325 . S
O61 Li0 1.970 . S
O61 Li1 1.956 . S
O61 Li3 1.961 . S
O61 C10 1.325 . S
O62 Li0 1.961 . S
O62 Li2 1.956 . S
O62 Li3 1.970 . S
O62 C32 1.325 . S
O63 Li1 1.961 . S
O63 Li2 1.970 . S
O63 Li3 1.956 . S
O63 C38 1.325 . S
H64 C6 0.929 . S
H65 C7 0.930 . S
H66 C8 0.930 . S
H67 C9 0.930 . S
H68 C11 0.930 . S
H69 C13 0.929 . S
H70 C14 0.930 . S
H71 C15 0.930 . S
H72 C18 0.930 . S
H73 C21 0.929 . S
H74 C26 0.929 . S
H75 C27 0.930 . S
H76 C34 0.929 . S
H77 C35 0.930 . S
H78 C36 0.930 . S
H79 C37 0.930 . S
H80 C39 0.929 . S
H81 C40 0.930 . S
H82 C41 0.930 . S
H83 C42 0.930 . S
H84 C46 0.929 . S
H85 C48 0.930 . S
H86 C54 0.929 . S
H87 C55 0.930 . S
Li88 N105 1.990 . S
Li88 O148 1.956 . S
Li88 O149 1.970 . S
Li88 O150 1.961 . S
Li89 N113 1.990 . S
Li89 O148 1.970 . S
Li89 O149 1.956 . S
Li89 O151 1.961 . S
Li90 N135 1.990 . S
Li90 O148 1.961 . S
Li90 O150 1.956 . S
Li90 O151 1.970 . S
Li91 N141 1.990 . S
Li91 O149 1.961 . S
Li91 O150 1.970 . S
Li91 O151 1.956 . S
C92 C94 1.348 . S
C92 C95 1.356 . S
C92 O148 1.325 . S
N93 C96 1.314 . S
N93 C97 1.279 . S
C94 C92 1.348 . S
C94 C96 1.353 . S
C94 H152 0.929 . S
C95 C92 1.356 . S
C95 C97 1.358 . S
C95 H153 0.930 . S
C96 N93 1.314 . S
C96 C94 1.353 . S
C96 H154 0.930 . S
C97 N93 1.279 . S
C97 C95 1.358 . S
C97 H155 0.930 . S
C98 C101 1.348 . S
C98 C102 1.356 . S
C98 O149 1.325 . S
C99 N100 1.279 . S
C99 C102 1.358 . S
C99 H156 0.930 . S
N100 C99 1.279 . S
N100 C103 1.314 . S
C101 C98 1.348 . S
C101 C103 1.353 . S
C101 H157 0.929 . S
C102 C98 1.356 . S
C102 C99 1.358 . S
C102 H158 0.930 . S
C103 N100 1.314 . S
C103 C101 1.353 . S
C103 H159 0.930 . S
C104 N105 1.314 . S
C104 C109 1.353 . S
C104 H110 0.930 . S
N105 Li88 1.990 . S
N105 C104 1.314 . S
N105 C107 1.279 . S
C106 C107 1.358 . S
C106 C108 1.356 . S
C106 H160 0.930 . S
C107 N105 1.279 . S
C107 C106 1.358 . S
C107 H111 0.930 . S
C108 C106 1.356 . S
C108 C109 1.348 . S
C109 C104 1.353 . S
C109 C108 1.348 . S
C109 H161 0.929 . S
H110 C104 0.930 . S
H111 C107 0.930 . S
C112 N113 1.314 . S
C112 C114 1.353 . S
C112 H118 0.930 . S
N113 Li89 1.990 . S
N113 C112 1.314 . S
N113 C116 1.279 . S
C114 C112 1.353 . S
C114 C117 1.348 . S
C114 H162 0.929 . S
C115 C116 1.358 . S
C115 C117 1.356 . S
C115 H163 0.930 . S
C116 N113 1.279 . S
C116 C115 1.358 . S
C116 H119 0.930 . S
C117 C114 1.348 . S
C117 C115 1.356 . S
H118 C112 0.930 . S
H119 C116 0.930 . S
C120 C122 1.348 . S
C120 C123 1.356 . S
C120 O150 1.325 . S
N121 C124 1.314 . S
N121 C125 1.279 . S
C122 C120 1.348 . S
C122 C124 1.353 . S
C122 H164 0.929 . S
C123 C120 1.356 . S
C123 C125 1.358 . S
C123 H165 0.930 . S
C124 N121 1.314 . S
C124 C122 1.353 . S
C124 H166 0.930 . S
C125 N121 1.279 . S
C125 C123 1.358 . S
C125 H167 0.930 . S
C126 C127 1.348 . S
C126 C128 1.356 . S
C126 O151 1.325 . S
C127 C126 1.348 . S
C127 C129 1.353 . S
C127 H168 0.929 . S
C128 C126 1.356 . S
C128 C130 1.358 . S
C128 H169 0.930 . S
C129 C127 1.353 . S
C129 N131 1.314 . S
C129 H170 0.930 . S
C130 C128 1.358 . S
C130 N131 1.279 . S
C130 H171 0.930 . S
N131 C129 1.314 . S
N131 C130 1.279 . S
C132 C134 1.353 . S
C132 N135 1.314 . S
C132 H138 0.930 . S
C133 N135 1.279 . S
C133 C136 1.358 . S
C133 H139 0.930 . S
C134 C132 1.353 . S
C134 C137 1.348 . S
C134 H172 0.929 . S
N135 Li90 1.990 . S
N135 C132 1.314 . S
N135 C133 1.279 . S
C136 C133 1.358 . S
C136 C137 1.356 . S
C136 H173 0.930 . S
C137 C134 1.348 . S
C137 C136 1.356 . S
H138 C132 0.930 . S
H139 C133 0.930 . S
C140 N141 1.314 . S
C140 C142 1.353 . S
C140 H146 0.930 . S
N141 Li91 1.990 . S
N141 C140 1.314 . S
N141 C144 1.279 . S
C142 C140 1.353 . S
C142 C145 1.348 . S
C142 H174 0.929 . S
C143 C144 1.358 . S
C143 C145 1.356 . S
C143 H175 0.930 . S
C144 N141 1.279 . S
C144 C143 1.358 . S
C144 H147 0.930 . S
C145 C142 1.348 . S
C145 C143 1.356 . S
H146 C140 0.930 . S
H147 C144 0.930 . S
O148 Li88 1.956 . S
O148 Li89 1.970 . S
O148 Li90 1.961 . S
O148 C92 1.325 . S
O149 Li88 1.970 . S
O149 Li89 1.956 . S
O149 Li91 1.961 . S
O149 C98 1.325 . S
O150 Li88 1.961 . S
O150 Li90 1.956 . S
O150 Li91 1.970 . S
O150 C120 1.325 . S
O151 Li89 1.961 . S
O151 Li90 1.970 . S
O151 Li91 1.956 . S
O151 C126 1.325 . S
H152 C94 0.929 . S
H153 C95 0.930 . S
H154 C96 0.930 . S
H155 C97 0.930 . S
H156 C99 0.930 . S
H157 C101 0.929 . S
H158 C102 0.930 . S
H159 C103 0.930 . S
H160 C106 0.930 . S
H161 C109 0.929 . S
H162 C114 0.929 . S
H163 C115 0.930 . S
H164 C122 0.929 . S
H165 C123 0.930 . S
H166 C124 0.930 . S
H167 C125 0.930 . S
H168 C127 0.929 . S
H169 C128 0.930 . S
H170 C129 0.930 . S
H171 C130 0.930 . S
H172 C134 0.929 . S
H173 C136 0.930 . S
H174 C142 0.929 . S
H175 C143 0.930 . S
Li176 N193 1.990 . S
Li176 O236 1.956 . S
Li176 O237 1.970 . S
Li176 O238 1.961 . S
Li177 N201 1.990 . S
Li177 O236 1.970 . S
Li177 O237 1.956 . S
Li177 O239 1.961 . S
Li178 N223 1.990 . S
Li178 O236 1.961 . S
Li178 O238 1.956 . S
Li178 O239 1.970 . S
Li179 N229 1.990 . S
Li179 O237 1.961 . S
Li179 O238 1.970 . S
Li179 O239 1.956 . S
C180 C182 1.348 . S
C180 C183 1.356 . S
C180 O236 1.325 . S
N181 C184 1.314 . S
N181 C185 1.279 . S
C182 C180 1.348 . S
C182 C184 1.353 . S
C182 H240 0.929 . S
C183 C180 1.356 . S
C183 C185 1.358 . S
C183 H241 0.930 . S
C184 N181 1.314 . S
C184 C182 1.353 . S
C184 H242 0.930 . S
C185 N181 1.279 . S
C185 C183 1.358 . S
C185 H243 0.930 . S
C186 C189 1.348 . S
C186 C190 1.356 . S
C186 O237 1.325 . S
C187 N188 1.279 . S
C187 C190 1.358 . S
C187 H244 0.930 . S
N188 C187 1.279 . S
N188 C191 1.314 . S
C189 C186 1.348 . S
C189 C191 1.353 . S
C189 H245 0.929 . S
C190 C186 1.356 . S
C190 C187 1.358 . S
C190 H246 0.930 . S
C191 N188 1.314 . S
C191 C189 1.353 . S
C191 H247 0.930 . S
C192 N193 1.314 . S
C192 C197 1.353 . S
C192 H198 0.930 . S
N193 Li176 1.990 . S
N193 C192 1.314 . S
N193 C195 1.279 . S
C194 C195 1.358 . S
C194 C196 1.356 . S
C194 H248 0.930 . S
C195 N193 1.279 . S
C195 C194 1.358 . S
C195 H199 0.930 . S
C196 C194 1.356 . S
C196 C197 1.348 . S
C197 C192 1.353 . S
C197 C196 1.348 . S
C197 H249 0.929 . S
H198 C192 0.930 . S
H199 C195 0.930 . S
C200 N201 1.314 . S
C200 C202 1.353 . S
C200 H206 0.930 . S
N201 Li177 1.990 . S
N201 C200 1.314 . S
N201 C204 1.279 . S
C202 C200 1.353 . S
C202 C205 1.348 . S
C202 H250 0.929 . S
C203 C204 1.358 . S
C203 C205 1.356 . S
C203 H251 0.930 . S
C204 N201 1.279 . S
C204 C203 1.358 . S
C204 H207 0.930 . S
C205 C202 1.348 . S
C205 C203 1.356 . S
H206 C200 0.930 . S
H207 C204 0.930 . S
C208 C210 1.348 . S
C208 C211 1.356 . S
C208 O238 1.325 . S
N209 C212 1.314 . S
N209 C213 1.279 . S
C210 C208 1.348 . S
C210 C212 1.353 . S
C210 H252 0.929 . S
C211 C208 1.356 . S
C211 C213 1.358 . S
C211 H253 0.930 . S
C212 N209 1.314 . S
C212 C210 1.353 . S
C212 H254 0.930 . S
C213 N209 1.279 . S
C213 C211 1.358 . S
C213 H255 0.930 . S
C214 C215 1.348 . S
C214 C216 1.356 . S
C214 O239 1.325 . S
C215 C214 1.348 . S
C215 C217 1.353 . S
C215 H256 0.929 . S
C216 C214 1.356 . S
C216 C218 1.358 . S
C216 H257 0.930 . S
C217 C215 1.353 . S
C217 N219 1.314 . S
C217 H258 0.930 . S
C218 C216 1.358 . S
C218 N219 1.279 . S
C218 H259 0.930 . S
N219 C217 1.314 . S
N219 C218 1.279 . S
C220 C222 1.353 . S
C220 N223 1.314 . S
C220 H226 0.930 . S
C221 N223 1.279 . S
C221 C224 1.358 . S
C221 H227 0.930 . S
C222 C220 1.353 . S
C222 C225 1.348 . S
C222 H260 0.929 . S
N223 Li178 1.990 . S
N223 C220 1.314 . S
N223 C221 1.279 . S
C224 C221 1.358 . S
C224 C225 1.356 . S
C224 H261 0.930 . S
C225 C222 1.348 . S
C225 C224 1.356 . S
H226 C220 0.930 . S
H227 C221 0.930 . S
C228 N229 1.314 . S
C228 C230 1.353 . S
C228 H234 0.930 . S
N229 Li179 1.990 . S
N229 C228 1.314 . S
N229 C232 1.279 . S
C230 C228 1.353 . S
C230 C233 1.348 . S
C230 H262 0.929 . S
C231 C232 1.358 . S
C231 C233 1.356 . S
C231 H263 0.930 . S
C232 N229 1.279 . S
C232 C231 1.358 . S
C232 H235 0.930 . S
C233 C230 1.348 . S
C233 C231 1.356 . S
H234 C228 0.930 . S
H235 C232 0.930 . S
O236 Li176 1.956 . S
O236 Li177 1.970 . S
O236 Li178 1.961 . S
O236 C180 1.325 . S
O237 Li176 1.970 . S
O237 Li177 1.956 . S
O237 Li179 1.961 . S
O237 C186 1.325 . S
O238 Li176 1.961 . S
O238 Li178 1.956 . S
O238 Li179 1.970 . S
O238 C208 1.325 . S
O239 Li177 1.961 . S
O239 Li178 1.970 . S
O239 Li179 1.956 . S
O239 C214 1.325 . S
H240 C182 0.929 . S
H241 C183 0.930 . S
H242 C184 0.930 . S
H243 C185 0.930 . S
H244 C187 0.930 . S
H245 C189 0.929 . S
H246 C190 0.930 . S
H247 C191 0.930 . S
H248 C194 0.930 . S
H249 C197 0.929 . S
H250 C202 0.929 . S
H251 C203 0.930 . S
H252 C210 0.929 . S
H253 C211 0.930 . S
H254 C212 0.930 . S
H255 C213 0.930 . S
H256 C215 0.929 . S
H257 C216 0.930 . S
H258 C217 0.930 . S
H259 C218 0.930 . S
H260 C222 0.929 . S
H261 C224 0.930 . S
H262 C230 0.929 . S
H263 C231 0.930 . S
Li264 N281 1.990 . S
Li264 O324 1.956 . S
Li264 O325 1.970 . S
Li264 O326 1.961 . S
Li265 N289 1.990 . S
Li265 O324 1.970 . S
Li265 O325 1.956 . S
Li265 O327 1.961 . S
Li266 N311 1.990 . S
Li266 O324 1.961 . S
Li266 O326 1.956 . S
Li266 O327 1.970 . S
Li267 N317 1.990 . S
Li267 O325 1.961 . S
Li267 O326 1.970 . S
Li267 O327 1.956 . S
C268 C270 1.348 . S
C268 C271 1.356 . S
C268 O324 1.325 . S
N269 C272 1.314 . S
N269 C273 1.279 . S
C270 C268 1.348 . S
C270 C272 1.353 . S
C270 H328 0.929 . S
C271 C268 1.356 . S
C271 C273 1.358 . S
C271 H329 0.930 . S
C272 N269 1.314 . S
C272 C270 1.353 . S
C272 H330 0.930 . S
C273 N269 1.279 . S
C273 C271 1.358 . S
C273 H331 0.930 . S
C274 C277 1.348 . S
C274 C278 1.356 . S
C274 O325 1.325 . S
C275 N276 1.279 . S
C275 C278 1.358 . S
C275 H332 0.930 . S
N276 C275 1.279 . S
N276 C279 1.314 . S
C277 C274 1.348 . S
C277 C279 1.353 . S
C277 H333 0.929 . S
C278 C274 1.356 . S
C278 C275 1.358 . S
C278 H334 0.930 . S
C279 N276 1.314 . S
C279 C277 1.353 . S
C279 H335 0.930 . S
C280 N281 1.314 . S
C280 C285 1.353 . S
C280 H286 0.930 . S
N281 Li264 1.990 . S
N281 C280 1.314 . S
N281 C283 1.279 . S
C282 C283 1.358 . S
C282 C284 1.356 . S
C282 H336 0.930 . S
C283 N281 1.279 . S
C283 C282 1.358 . S
C283 H287 0.930 . S
C284 C282 1.356 . S
C284 C285 1.348 . S
C285 C280 1.353 . S
C285 C284 1.348 . S
C285 H337 0.929 . S
H286 C280 0.930 . S
H287 C283 0.930 . S
C288 N289 1.314 . S
C288 C290 1.353 . S
C288 H294 0.930 . S
N289 Li265 1.990 . S
N289 C288 1.314 . S
N289 C292 1.279 . S
C290 C288 1.353 . S
C290 C293 1.348 . S
C290 H338 0.929 . S
C291 C292 1.358 . S
C291 C293 1.356 . S
C291 H339 0.930 . S
C292 N289 1.279 . S
C292 C291 1.358 . S
C292 H295 0.930 . S
C293 C290 1.348 . S
C293 C291 1.356 . S
H294 C288 0.930 . S
H295 C292 0.930 . S
C296 C298 1.348 . S
C296 C299 1.356 . S
C296 O326 1.325 . S
N297 C300 1.314 . S
N297 C301 1.279 . S
C298 C296 1.348 . S
C298 C300 1.353 . S
C298 H340 0.929 . S
C299 C296 1.356 . S
C299 C301 1.358 . S
C299 H341 0.930 . S
C300 N297 1.314 . S
C300 C298 1.353 . S
C300 H342 0.930 . S
C301 N297 1.279 . S
C301 C299 1.358 . S
C301 H343 0.930 . S
C302 C303 1.348 . S
C302 C304 1.356 . S
C302 O327 1.325 . S
C303 C302 1.348 . S
C303 C305 1.353 . S
C303 H344 0.929 . S
C304 C302 1.356 . S
C304 C306 1.358 . S
C304 H345 0.930 . S
C305 C303 1.353 . S
C305 N307 1.314 . S
C305 H346 0.930 . S
C306 C304 1.358 . S
C306 N307 1.279 . S
C306 H347 0.930 . S
N307 C305 1.314 . S
N307 C306 1.279 . S
C308 C310 1.353 . S
C308 N311 1.314 . S
C308 H314 0.930 . S
C309 N311 1.279 . S
C309 C312 1.358 . S
C309 H315 0.930 . S
C310 C308 1.353 . S
C310 C313 1.348 . S
C310 H348 0.929 . S
N311 Li266 1.990 . S
N311 C308 1.314 . S
N311 C309 1.279 . S
C312 C309 1.358 . S
C312 C313 1.356 . S
C312 H349 0.930 . S
C313 C310 1.348 . S
C313 C312 1.356 . S
H314 C308 0.930 . S
H315 C309 0.930 . S
C316 N317 1.314 . S
C316 C318 1.353 . S
C316 H322 0.930 . S
N317 Li267 1.990 . S
N317 C316 1.314 . S
N317 C320 1.279 . S
C318 C316 1.353 . S
C318 C321 1.348 . S
C318 H350 0.929 . S
C319 C320 1.358 . S
C319 C321 1.356 . S
C319 H351 0.930 . S
C320 N317 1.279 . S
C320 C319 1.358 . S
C320 H323 0.930 . S
C321 C318 1.348 . S
C321 C319 1.356 . S
H322 C316 0.930 . S
H323 C320 0.930 . S
O324 Li264 1.956 . S
O324 Li265 1.970 . S
O324 Li266 1.961 . S
O324 C268 1.325 . S
O325 Li264 1.970 . S
O325 Li265 1.956 . S
O325 Li267 1.961 . S
O325 C274 1.325 . S
O326 Li264 1.961 . S
O326 Li266 1.956 . S
O326 Li267 1.970 . S
O326 C296 1.325 . S
O327 Li265 1.961 . S
O327 Li266 1.970 . S
O327 Li267 1.956 . S
O327 C302 1.325 . S
H328 C270 0.929 . S
H329 C271 0.930 . S
H330 C272 0.930 . S
H331 C273 0.930 . S
H332 C275 0.930 . S
H333 C277 0.929 . S
H334 C278 0.930 . S
H335 C279 0.930 . S
H336 C282 0.930 . S
H337 C285 0.929 . S
H338 C290 0.929 . S
H339 C291 0.930 . S
H340 C298 0.929 . S
H341 C299 0.930 . S
H342 C300 0.930 . S
H343 C301 0.930 . S
H344 C303 0.929 . S
H345 C304 0.930 . S
H346 C305 0.930 . S
H347 C306 0.930 . S
H348 C310 0.929 . S
H349 C312 0.930 . S
H350 C318 0.929 . S
H351 C319 0.930 . S
Li352 N369 1.990 . S
Li352 O412 1.956 . S
Li352 O413 1.970 . S
Li352 O414 1.961 . S
Li353 N377 1.990 . S
Li353 O412 1.970 . S
Li353 O413 1.956 . S
Li353 O415 1.961 . S
Li354 N399 1.990 . S
Li354 O412 1.961 . S
Li354 O414 1.956 . S
Li354 O415 1.970 . S
Li355 N405 1.990 . S
Li355 O413 1.961 . S
Li355 O414 1.970 . S
Li355 O415 1.956 . S
C356 C358 1.348 . S
C356 C359 1.356 . S
C356 O412 1.325 . S
N357 C360 1.314 . S
N357 C361 1.279 . S
C358 C356 1.348 . S
C358 C360 1.353 . S
C358 H416 0.929 . S
C359 C356 1.356 . S
C359 C361 1.358 . S
C359 H417 0.930 . S
C360 N357 1.314 . S
C360 C358 1.353 . S
C360 H418 0.930 . S
C361 N357 1.279 . S
C361 C359 1.358 . S
C361 H419 0.930 . S
C362 C365 1.348 . S
C362 C366 1.356 . S
C362 O413 1.325 . S
C363 N364 1.279 . S
C363 C366 1.358 . S
C363 H420 0.930 . S
N364 C363 1.279 . S
N364 C367 1.314 . S
C365 C362 1.348 . S
C365 C367 1.353 . S
C365 H421 0.929 . S
C366 C362 1.356 . S
C366 C363 1.358 . S
C366 H422 0.930 . S
C367 N364 1.314 . S
C367 C365 1.353 . S
C367 H423 0.930 . S
C368 N369 1.314 . S
C368 C373 1.353 . S
C368 H374 0.930 . S
N369 Li352 1.990 . S
N369 C368 1.314 . S
N369 C371 1.279 . S
C370 C371 1.358 . S
C370 C372 1.356 . S
C370 H424 0.930 . S
C371 N369 1.279 . S
C371 C370 1.358 . S
C371 H375 0.930 . S
C372 C370 1.356 . S
C372 C373 1.348 . S
C373 C368 1.353 . S
C373 C372 1.348 . S
C373 H425 0.929 . S
H374 C368 0.930 . S
H375 C371 0.930 . S
C376 N377 1.314 . S
C376 C378 1.353 . S
C376 H382 0.930 . S
N377 Li353 1.990 . S
N377 C376 1.314 . S
N377 C380 1.279 . S
C378 C376 1.353 . S
C378 C381 1.348 . S
C378 H426 0.929 . S
C379 C380 1.358 . S
C379 C381 1.356 . S
C379 H427 0.930 . S
C380 N377 1.279 . S
C380 C379 1.358 . S
C380 H383 0.930 . S
C381 C378 1.348 . S
C381 C379 1.356 . S
H382 C376 0.930 . S
H383 C380 0.930 . S
C384 C386 1.348 . S
C384 C387 1.356 . S
C384 O414 1.325 . S
N385 C388 1.314 . S
N385 C389 1.279 . S
C386 C384 1.348 . S
C386 C388 1.353 . S
C386 H428 0.929 . S
C387 C384 1.356 . S
C387 C389 1.358 . S
C387 H429 0.930 . S
C388 N385 1.314 . S
C388 C386 1.353 . S
C388 H430 0.930 . S
C389 N385 1.279 . S
C389 C387 1.358 . S
C389 H431 0.930 . S
C390 C391 1.348 . S
C390 C392 1.356 . S
C390 O415 1.325 . S
C391 C390 1.348 . S
C391 C393 1.353 . S
C391 H432 0.929 . S
C392 C390 1.356 . S
C392 C394 1.358 . S
C392 H433 0.930 . S
C393 C391 1.353 . S
C393 N395 1.314 . S
C393 H434 0.930 . S
C394 C392 1.358 . S
C394 N395 1.279 . S
C394 H435 0.930 . S
N395 C393 1.314 . S
N395 C394 1.279 . S
C396 C398 1.353 . S
C396 N399 1.314 . S
C396 H402 0.930 . S
C397 N399 1.279 . S
C397 C400 1.358 . S
C397 H403 0.930 . S
C398 C396 1.353 . S
C398 C401 1.348 . S
C398 H436 0.929 . S
N399 Li354 1.990 . S
N399 C396 1.314 . S
N399 C397 1.279 . S
C400 C397 1.358 . S
C400 C401 1.356 . S
C400 H437 0.930 . S
C401 C398 1.348 . S
C401 C400 1.356 . S
H402 C396 0.930 . S
H403 C397 0.930 . S
C404 N405 1.314 . S
C404 C406 1.353 . S
C404 H410 0.930 . S
N405 Li355 1.990 . S
N405 C404 1.314 . S
N405 C408 1.279 . S
C406 C404 1.353 . S
C406 C409 1.348 . S
C406 H438 0.929 . S
C407 C408 1.358 . S
C407 C409 1.356 . S
C407 H439 0.930 . S
C408 N405 1.279 . S
C408 C407 1.358 . S
C408 H411 0.930 . S
C409 C406 1.348 . S
C409 C407 1.356 . S
H410 C404 0.930 . S
H411 C408 0.930 . S
O412 Li352 1.956 . S
O412 Li353 1.970 . S
O412 Li354 1.961 . S
O412 C356 1.325 . S
O413 Li352 1.970 . S
O413 Li353 1.956 . S
O413 Li355 1.961 . S
O413 C362 1.325 . S
O414 Li352 1.961 . S
O414 Li354 1.956 . S
O414 Li355 1.970 . S
O414 C384 1.325 . S
O415 Li353 1.961 . S
O415 Li354 1.970 . S
O415 Li355 1.956 . S
O415 C390 1.325 . S
H416 C358 0.929 . S
H417 C359 0.930 . S
H418 C360 0.930 . S
H419 C361 0.930 . S
H420 C363 0.930 . S
H421 C365 0.929 . S
H422 C366 0.930 . S
H423 C367 0.930 . S
H424 C370 0.930 . S
H425 C373 0.929 . S
H426 C378 0.929 . S
H427 C379 0.930 . S
H428 C386 0.929 . S
H429 C387 0.930 . S
H430 C388 0.930 . S
H431 C389 0.930 . S
H432 C391 0.929 . S
H433 C392 0.930 . S
H434 C393 0.930 . S
H435 C394 0.930 . S
H436 C398 0.929 . S
H437 C400 0.930 . S
H438 C406 0.929 . S
H439 C407 0.930 . S
Li440 N457 1.990 . S
Li440 O500 1.956 . S
Li440 O501 1.970 . S
Li440 O502 1.961 . S
Li441 N465 1.990 . S
Li441 O500 1.970 . S
Li441 O501 1.956 . S
Li441 O503 1.961 . S
Li442 N487 1.990 . S
Li442 O500 1.961 . S
Li442 O502 1.956 . S
Li442 O503 1.970 . S
Li443 N493 1.990 . S
Li443 O501 1.961 . S
Li443 O502 1.970 . S
Li443 O503 1.956 . S
C444 C446 1.348 . S
C444 C447 1.356 . S
C444 O500 1.325 . S
N445 C448 1.314 . S
N445 C449 1.279 . S
C446 C444 1.348 . S
C446 C448 1.353 . S
C446 H504 0.929 . S
C447 C444 1.356 . S
C447 C449 1.358 . S
C447 H505 0.930 . S
C448 N445 1.314 . S
C448 C446 1.353 . S
C448 H506 0.930 . S
C449 N445 1.279 . S
C449 C447 1.358 . S
C449 H507 0.930 . S
C450 C453 1.348 . S
C450 C454 1.356 . S
C450 O501 1.325 . S
C451 N452 1.279 . S
C451 C454 1.358 . S
C451 H508 0.930 . S
N452 C451 1.279 . S
N452 C455 1.314 . S
C453 C450 1.348 . S
C453 C455 1.353 . S
C453 H509 0.929 . S
C454 C450 1.356 . S
C454 C451 1.358 . S
C454 H510 0.930 . S
C455 N452 1.314 . S
C455 C453 1.353 . S
C455 H511 0.930 . S
C456 N457 1.314 . S
C456 C461 1.353 . S
C456 H462 0.930 . S
N457 Li440 1.990 . S
N457 C456 1.314 . S
N457 C459 1.279 . S
C458 C459 1.358 . S
C458 C460 1.356 . S
C458 H512 0.930 . S
C459 N457 1.279 . S
C459 C458 1.358 . S
C459 H463 0.930 . S
C460 C458 1.356 . S
C460 C461 1.348 . S
C461 C456 1.353 . S
C461 C460 1.348 . S
C461 H513 0.929 . S
H462 C456 0.930 . S
H463 C459 0.930 . S
C464 N465 1.314 . S
C464 C466 1.353 . S
C464 H470 0.930 . S
N465 Li441 1.990 . S
N465 C464 1.314 . S
N465 C468 1.279 . S
C466 C464 1.353 . S
C466 C469 1.348 . S
C466 H514 0.929 . S
C467 C468 1.358 . S
C467 C469 1.356 . S
C467 H515 0.930 . S
C468 N465 1.279 . S
C468 C467 1.358 . S
C468 H471 0.930 . S
C469 C466 1.348 . S
C469 C467 1.356 . S
H470 C464 0.930 . S
H471 C468 0.930 . S
C472 C474 1.348 . S
C472 C475 1.356 . S
C472 O502 1.325 . S
N473 C476 1.314 . S
N473 C477 1.279 . S
C474 C472 1.348 . S
C474 C476 1.353 . S
C474 H516 0.929 . S
C475 C472 1.356 . S
C475 C477 1.358 . S
C475 H517 0.930 . S
C476 N473 1.314 . S
C476 C474 1.353 . S
C476 H518 0.930 . S
C477 N473 1.279 . S
C477 C475 1.358 . S
C477 H519 0.930 . S
C478 C479 1.348 . S
C478 C480 1.356 . S
C478 O503 1.325 . S
C479 C478 1.348 . S
C479 C481 1.353 . S
C479 H520 0.929 . S
C480 C478 1.356 . S
C480 C482 1.358 . S
C480 H521 0.930 . S
C481 C479 1.353 . S
C481 N483 1.314 . S
C481 H522 0.930 . S
C482 C480 1.358 . S
C482 N483 1.279 . S
C482 H523 0.930 . S
N483 C481 1.314 . S
N483 C482 1.279 . S
C484 C486 1.353 . S
C484 N487 1.314 . S
C484 H490 0.930 . S
C485 N487 1.279 . S
C485 C488 1.358 . S
C485 H491 0.930 . S
C486 C484 1.353 . S
C486 C489 1.348 . S
C486 H524 0.929 . S
N487 Li442 1.990 . S
N487 C484 1.314 . S
N487 C485 1.279 . S
C488 C485 1.358 . S
C488 C489 1.356 . S
C488 H525 0.930 . S
C489 C486 1.348 . S
C489 C488 1.356 . S
H490 C484 0.930 . S
H491 C485 0.930 . S
C492 N493 1.314 . S
C492 C494 1.353 . S
C492 H498 0.930 . S
N493 Li443 1.990 . S
N493 C492 1.314 . S
N493 C496 1.279 . S
C494 C492 1.353 . S
C494 C497 1.348 . S
C494 H526 0.929 . S
C495 C496 1.358 . S
C495 C497 1.356 . S
C495 H527 0.930 . S
C496 N493 1.279 . S
C496 C495 1.358 . S
C496 H499 0.930 . S
C497 C494 1.348 . S
C497 C495 1.356 . S
H498 C492 0.930 . S
H499 C496 0.930 . S
O500 Li440 1.956 . S
O500 Li441 1.970 . S
O500 Li442 1.961 . S
O500 C444 1.325 . S
O501 Li440 1.970 . S
O501 Li441 1.956 . S
O501 Li443 1.961 . S
O501 C450 1.325 . S
O502 Li440 1.961 . S
O502 Li442 1.956 . S
O502 Li443 1.970 . S
O502 C472 1.325 . S
O503 Li441 1.961 . S
O503 Li442 1.970 . S
O503 Li443 1.956 . S
O503 C478 1.325 . S
H504 C446 0.929 . S
H505 C447 0.930 . S
H506 C448 0.930 . S
H507 C449 0.930 . S
H508 C451 0.930 . S
H509 C453 0.929 . S
H510 C454 0.930 . S
H511 C455 0.930 . S
H512 C458 0.930 . S
H513 C461 0.929 . S
H514 C466 0.929 . S
H515 C467 0.930 . S
H516 C474 0.929 . S
H517 C475 0.930 . S
H518 C476 0.930 . S
H519 C477 0.930 . S
H520 C479 0.929 . S
H521 C480 0.930 . S
H522 C481 0.930 . S
H523 C482 0.930 . S
H524 C486 0.929 . S
H525 C488 0.930 . S
H526 C494 0.929 . S
H527 C495 0.930 . S
Li528 N545 1.990 . S
Li528 O588 1.956 . S
Li528 O589 1.970 . S
Li528 O590 1.961 . S
Li529 N553 1.990 . S
Li529 O588 1.970 . S
Li529 O589 1.956 . S
Li529 O591 1.961 . S
Li530 N575 1.990 . S
Li530 O588 1.961 . S
Li530 O590 1.956 . S
Li530 O591 1.970 . S
Li531 N581 1.990 . S
Li531 O589 1.961 . S
Li531 O590 1.970 . S
Li531 O591 1.956 . S
C532 C534 1.348 . S
C532 C535 1.356 . S
C532 O588 1.325 . S
N533 C536 1.314 . S
N533 C537 1.279 . S
C534 C532 1.348 . S
C534 C536 1.353 . S
C534 H592 0.929 . S
C535 C532 1.356 . S
C535 C537 1.358 . S
C535 H593 0.930 . S
C536 N533 1.314 . S
C536 C534 1.353 . S
C536 H594 0.930 . S
C537 N533 1.279 . S
C537 C535 1.358 . S
C537 H595 0.930 . S
C538 C541 1.348 . S
C538 C542 1.356 . S
C538 O589 1.325 . S
C539 N540 1.279 . S
C539 C542 1.358 . S
C539 H596 0.930 . S
N540 C539 1.279 . S
N540 C543 1.314 . S
C541 C538 1.348 . S
C541 C543 1.353 . S
C541 H597 0.929 . S
C542 C538 1.356 . S
C542 C539 1.358 . S
C542 H598 0.930 . S
C543 N540 1.314 . S
C543 C541 1.353 . S
C543 H599 0.930 . S
C544 N545 1.314 . S
C544 C549 1.353 . S
C544 H550 0.930 . S
N545 Li528 1.990 . S
N545 C544 1.314 . S
N545 C547 1.279 . S
C546 C547 1.358 . S
C546 C548 1.356 . S
C546 H600 0.930 . S
C547 N545 1.279 . S
C547 C546 1.358 . S
C547 H551 0.930 . S
C548 C546 1.356 . S
C548 C549 1.348 . S
C549 C544 1.353 . S
C549 C548 1.348 . S
C549 H601 0.929 . S
H550 C544 0.930 . S
H551 C547 0.930 . S
C552 N553 1.314 . S
C552 C554 1.353 . S
C552 H558 0.930 . S
N553 Li529 1.990 . S
N553 C552 1.314 . S
N553 C556 1.279 . S
C554 C552 1.353 . S
C554 C557 1.348 . S
C554 H602 0.929 . S
C555 C556 1.358 . S
C555 C557 1.356 . S
C555 H603 0.930 . S
C556 N553 1.279 . S
C556 C555 1.358 . S
C556 H559 0.930 . S
C557 C554 1.348 . S
C557 C555 1.356 . S
H558 C552 0.930 . S
H559 C556 0.930 . S
C560 C562 1.348 . S
C560 C563 1.356 . S
C560 O590 1.325 . S
N561 C564 1.314 . S
N561 C565 1.279 . S
C562 C560 1.348 . S
C562 C564 1.353 . S
C562 H604 0.929 . S
C563 C560 1.356 . S
C563 C565 1.358 . S
C563 H605 0.930 . S
C564 N561 1.314 . S
C564 C562 1.353 . S
C564 H606 0.930 . S
C565 N561 1.279 . S
C565 C563 1.358 . S
C565 H607 0.930 . S
C566 C567 1.348 . S
C566 C568 1.356 . S
C566 O591 1.325 . S
C567 C566 1.348 . S
C567 C569 1.353 . S
C567 H608 0.929 . S
C568 C566 1.356 . S
C568 C570 1.358 . S
C568 H609 0.930 . S
C569 C567 1.353 . S
C569 N571 1.314 . S
C569 H610 0.930 . S
C570 C568 1.358 . S
C570 N571 1.279 . S
C570 H611 0.930 . S
N571 C569 1.314 . S
N571 C570 1.279 . S
C572 C574 1.353 . S
C572 N575 1.314 . S
C572 H578 0.930 . S
C573 N575 1.279 . S
C573 C576 1.358 . S
C573 H579 0.930 . S
C574 C572 1.353 . S
C574 C577 1.348 . S
C574 H612 0.929 . S
N575 Li530 1.990 . S
N575 C572 1.314 . S
N575 C573 1.279 . S
C576 C573 1.358 . S
C576 C577 1.356 . S
C576 H613 0.930 . S
C577 C574 1.348 . S
C577 C576 1.356 . S
H578 C572 0.930 . S
H579 C573 0.930 . S
C580 N581 1.314 . S
C580 C582 1.353 . S
C580 H586 0.930 . S
N581 Li531 1.990 . S
N581 C580 1.314 . S
N581 C584 1.279 . S
C582 C580 1.353 . S
C582 C585 1.348 . S
C582 H614 0.929 . S
C583 C584 1.358 . S
C583 C585 1.356 . S
C583 H615 0.930 . S
C584 N581 1.279 . S
C584 C583 1.358 . S
C584 H587 0.930 . S
C585 C582 1.348 . S
C585 C583 1.356 . S
H586 C580 0.930 . S
H587 C584 0.930 . S
O588 Li528 1.956 . S
O588 Li529 1.970 . S
O588 Li530 1.961 . S
O588 C532 1.325 . S
O589 Li528 1.970 . S
O589 Li529 1.956 . S
O589 Li531 1.961 . S
O589 C538 1.325 . S
O590 Li528 1.961 . S
O590 Li530 1.956 . S
O590 Li531 1.970 . S
O590 C560 1.325 . S
O591 Li529 1.961 . S
O591 Li530 1.970 . S
O591 Li531 1.956 . S
O591 C566 1.325 . S
H592 C534 0.929 . S
H593 C535 0.930 . S
H594 C536 0.930 . S
H595 C537 0.930 . S
H596 C539 0.930 . S
H597 C541 0.929 . S
H598 C542 0.930 . S
H599 C543 0.930 . S
H600 C546 0.930 . S
H601 C549 0.929 . S
H602 C554 0.929 . S
H603 C555 0.930 . S
H604 C562 0.929 . S
H605 C563 0.930 . S
H606 C564 0.930 . S
H607 C565 0.930 . S
H608 C567 0.929 . S
H609 C568 0.930 . S
H610 C569 0.930 . S
H611 C570 0.930 . S
H612 C574 0.929 . S
H613 C576 0.930 . S
H614 C582 0.929 . S
H615 C583 0.930 . S
Li616 N633 1.990 . S
Li616 O676 1.956 . S
Li616 O677 1.970 . S
Li616 O678 1.961 . S
Li617 N641 1.990 . S
Li617 O676 1.970 . S
Li617 O677 1.956 . S
Li617 O679 1.961 . S
Li618 N663 1.990 . S
Li618 O676 1.961 . S
Li618 O678 1.956 . S
Li618 O679 1.970 . S
Li619 N669 1.990 . S
Li619 O677 1.961 . S
Li619 O678 1.970 . S
Li619 O679 1.956 . S
C620 C622 1.348 . S
C620 C623 1.356 . S
C620 O676 1.325 . S
N621 C624 1.314 . S
N621 C625 1.279 . S
C622 C620 1.348 . S
C622 C624 1.353 . S
C622 H680 0.929 . S
C623 C620 1.356 . S
C623 C625 1.358 . S
C623 H681 0.930 . S
C624 N621 1.314 . S
C624 C622 1.353 . S
C624 H682 0.930 . S
C625 N621 1.279 . S
C625 C623 1.358 . S
C625 H683 0.930 . S
C626 C629 1.348 . S
C626 C630 1.356 . S
C626 O677 1.325 . S
C627 N628 1.279 . S
C627 C630 1.358 . S
C627 H684 0.930 . S
N628 C627 1.279 . S
N628 C631 1.314 . S
C629 C626 1.348 . S
C629 C631 1.353 . S
C629 H685 0.929 . S
C630 C626 1.356 . S
C630 C627 1.358 . S
C630 H686 0.930 . S
C631 N628 1.314 . S
C631 C629 1.353 . S
C631 H687 0.930 . S
C632 N633 1.314 . S
C632 C637 1.353 . S
C632 H638 0.930 . S
N633 Li616 1.990 . S
N633 C632 1.314 . S
N633 C635 1.279 . S
C634 C635 1.358 . S
C634 C636 1.356 . S
C634 H688 0.930 . S
C635 N633 1.279 . S
C635 C634 1.358 . S
C635 H639 0.930 . S
C636 C634 1.356 . S
C636 C637 1.348 . S
C637 C632 1.353 . S
C637 C636 1.348 . S
C637 H689 0.929 . S
H638 C632 0.930 . S
H639 C635 0.930 . S
C640 N641 1.314 . S
C640 C642 1.353 . S
C640 H646 0.930 . S
N641 Li617 1.990 . S
N641 C640 1.314 . S
N641 C644 1.279 . S
C642 C640 1.353 . S
C642 C645 1.348 . S
C642 H690 0.929 . S
C643 C644 1.358 . S
C643 C645 1.356 . S
C643 H691 0.930 . S
C644 N641 1.279 . S
C644 C643 1.358 . S
C644 H647 0.930 . S
C645 C642 1.348 . S
C645 C643 1.356 . S
H646 C640 0.930 . S
H647 C644 0.930 . S
C648 C650 1.348 . S
C648 C651 1.356 . S
C648 O678 1.325 . S
N649 C652 1.314 . S
N649 C653 1.279 . S
C650 C648 1.348 . S
C650 C652 1.353 . S
C650 H692 0.929 . S
C651 C648 1.356 . S
C651 C653 1.358 . S
C651 H693 0.930 . S
C652 N649 1.314 . S
C652 C650 1.353 . S
C652 H694 0.930 . S
C653 N649 1.279 . S
C653 C651 1.358 . S
C653 H695 0.930 . S
C654 C655 1.348 . S
C654 C656 1.356 . S
C654 O679 1.325 . S
C655 C654 1.348 . S
C655 C657 1.353 . S
C655 H696 0.929 . S
C656 C654 1.356 . S
C656 C658 1.358 . S
C656 H697 0.930 . S
C657 C655 1.353 . S
C657 N659 1.314 . S
C657 H698 0.930 . S
C658 C656 1.358 . S
C658 N659 1.279 . S
C658 H699 0.930 . S
N659 C657 1.314 . S
N659 C658 1.279 . S
C660 C662 1.353 . S
C660 N663 1.314 . S
C660 H666 0.930 . S
C661 N663 1.279 . S
C661 C664 1.358 . S
C661 H667 0.930 . S
C662 C660 1.353 . S
C662 C665 1.348 . S
C662 H700 0.929 . S
N663 Li618 1.990 . S
N663 C660 1.314 . S
N663 C661 1.279 . S
C664 C661 1.358 . S
C664 C665 1.356 . S
C664 H701 0.930 . S
C665 C662 1.348 . S
C665 C664 1.356 . S
H666 C660 0.930 . S
H667 C661 0.930 . S
C668 N669 1.314 . S
C668 C670 1.353 . S
C668 H674 0.930 . S
N669 Li619 1.990 . S
N669 C668 1.314 . S
N669 C672 1.279 . S
C670 C668 1.353 . S
C670 C673 1.348 . S
C670 H702 0.929 . S
C671 C672 1.358 . S
C671 C673 1.356 . S
C671 H703 0.930 . S
C672 N669 1.279 . S
C672 C671 1.358 . S
C672 H675 0.930 . S
C673 C670 1.348 . S
C673 C671 1.356 . S
H674 C668 0.930 . S
H675 C672 0.930 . S
O676 Li616 1.956 . S
O676 Li617 1.970 . S
O676 Li618 1.961 . S
O676 C620 1.325 . S
O677 Li616 1.970 . S
O677 Li617 1.956 . S
O677 Li619 1.961 . S
O677 C626 1.325 . S
O678 Li616 1.961 . S
O678 Li618 1.956 . S
O678 Li619 1.970 . S
O678 C648 1.325 . S
O679 Li617 1.961 . S
O679 Li618 1.970 . S
O679 Li619 1.956 . S
O679 C654 1.325 . S
H680 C622 0.929 . S
H681 C623 0.930 . S
H682 C624 0.930 . S
H683 C625 0.930 . S
H684 C627 0.930 . S
H685 C629 0.929 . S
H686 C630 0.930 . S
H687 C631 0.930 . S
H688 C634 0.930 . S
H689 C637 0.929 . S
H690 C642 0.929 . S
H691 C643 0.930 . S
H692 C650 0.929 . S
H693 C651 0.930 . S
H694 C652 0.930 . S
H695 C653 0.930 . S
H696 C655 0.929 . S
H697 C656 0.930 . S
H698 C657 0.930 . S
H699 C658 0.930 . S
H700 C662 0.929 . S
H701 C664 0.930 . S
H702 C670 0.929 . S
H703 C671 0.930 . S
Li704 N721 1.990 . S
Li704 O764 1.956 . S
Li704 O765 1.970 . S
Li704 O766 1.961 . S
Li705 N729 1.990 . S
Li705 O764 1.970 . S
Li705 O765 1.956 . S
Li705 O767 1.961 . S
Li706 N751 1.990 . S
Li706 O764 1.961 . S
Li706 O766 1.956 . S
Li706 O767 1.970 . S
Li707 N757 1.990 . S
Li707 O765 1.961 . S
Li707 O766 1.970 . S
Li707 O767 1.956 . S
C708 C710 1.348 . S
C708 C711 1.356 . S
C708 O764 1.325 . S
N709 C712 1.314 . S
N709 C713 1.279 . S
C710 C708 1.348 . S
C710 C712 1.353 . S
C710 H768 0.929 . S
C711 C708 1.356 . S
C711 C713 1.358 . S
C711 H769 0.930 . S
C712 N709 1.314 . S
C712 C710 1.353 . S
C712 H770 0.930 . S
C713 N709 1.279 . S
C713 C711 1.358 . S
C713 H771 0.930 . S
C714 C717 1.348 . S
C714 C718 1.356 . S
C714 O765 1.325 . S
C715 N716 1.279 . S
C715 C718 1.358 . S
C715 H772 0.930 . S
N716 C715 1.279 . S
N716 C719 1.314 . S
C717 C714 1.348 . S
C717 C719 1.353 . S
C717 H773 0.929 . S
C718 C714 1.356 . S
C718 C715 1.358 . S
C718 H774 0.930 . S
C719 N716 1.314 . S
C719 C717 1.353 . S
C719 H775 0.930 . S
C720 N721 1.314 . S
C720 C725 1.353 . S
C720 H726 0.930 . S
N721 Li704 1.990 . S
N721 C720 1.314 . S
N721 C723 1.279 . S
C722 C723 1.358 . S
C722 C724 1.356 . S
C722 H776 0.930 . S
C723 N721 1.279 . S
C723 C722 1.358 . S
C723 H727 0.930 . S
C724 C722 1.356 . S
C724 C725 1.348 . S
C725 C720 1.353 . S
C725 C724 1.348 . S
C725 H777 0.929 . S
H726 C720 0.930 . S
H727 C723 0.930 . S
C728 N729 1.314 . S
C728 C730 1.353 . S
C728 H734 0.930 . S
N729 Li705 1.990 . S
N729 C728 1.314 . S
N729 C732 1.279 . S
C730 C728 1.353 . S
C730 C733 1.348 . S
C730 H778 0.929 . S
C731 C732 1.358 . S
C731 C733 1.356 . S
C731 H779 0.930 . S
C732 N729 1.279 . S
C732 C731 1.358 . S
C732 H735 0.930 . S
C733 C730 1.348 . S
C733 C731 1.356 . S
H734 C728 0.930 . S
H735 C732 0.930 . S
C736 C738 1.348 . S
C736 C739 1.356 . S
C736 O766 1.325 . S
N737 C740 1.314 . S
N737 C741 1.279 . S
C738 C736 1.348 . S
C738 C740 1.353 . S
C738 H780 0.929 . S
C739 C736 1.356 . S
C739 C741 1.358 . S
C739 H781 0.930 . S
C740 N737 1.314 . S
C740 C738 1.353 . S
C740 H782 0.930 . S
C741 N737 1.279 . S
C741 C739 1.358 . S
C741 H783 0.930 . S
C742 C743 1.348 . S
C742 C744 1.356 . S
C742 O767 1.325 . S
C743 C742 1.348 . S
C743 C745 1.353 . S
C743 H784 0.929 . S
C744 C742 1.356 . S
C744 C746 1.358 . S
C744 H785 0.930 . S
C745 C743 1.353 . S
C745 N747 1.314 . S
C745 H786 0.930 . S
C746 C744 1.358 . S
C746 N747 1.279 . S
C746 H787 0.930 . S
N747 C745 1.314 . S
N747 C746 1.279 . S
C748 C750 1.353 . S
C748 N751 1.314 . S
C748 H754 0.930 . S
C749 N751 1.279 . S
C749 C752 1.358 . S
C749 H755 0.930 . S
C750 C748 1.353 . S
C750 C753 1.348 . S
C750 H788 0.929 . S
N751 Li706 1.990 . S
N751 C748 1.314 . S
N751 C749 1.279 . S
C752 C749 1.358 . S
C752 C753 1.356 . S
C752 H789 0.930 . S
C753 C750 1.348 . S
C753 C752 1.356 . S
H754 C748 0.930 . S
H755 C749 0.930 . S
C756 N757 1.314 . S
C756 C758 1.353 . S
C756 H762 0.930 . S
N757 Li707 1.990 . S
N757 C756 1.314 . S
N757 C760 1.279 . S
C758 C756 1.353 . S
C758 C761 1.348 . S
C758 H790 0.929 . S
C759 C760 1.358 . S
C759 C761 1.356 . S
C759 H791 0.930 . S
C760 N757 1.279 . S
C760 C759 1.358 . S
C760 H763 0.930 . S
C761 C758 1.348 . S
C761 C759 1.356 . S
H762 C756 0.930 . S
H763 C760 0.930 . S
O764 Li704 1.956 . S
O764 Li705 1.970 . S
O764 Li706 1.961 . S
O764 C708 1.325 . S
O765 Li704 1.970 . S
O765 Li705 1.956 . S
O765 Li707 1.961 . S
O765 C714 1.325 . S
O766 Li704 1.961 . S
O766 Li706 1.956 . S
O766 Li707 1.970 . S
O766 C736 1.325 . S
O767 Li705 1.961 . S
O767 Li706 1.970 . S
O767 Li707 1.956 . S
O767 C742 1.325 . S
H768 C710 0.929 . S
H769 C711 0.930 . S
H770 C712 0.930 . S
H771 C713 0.930 . S
H772 C715 0.930 . S
H773 C717 0.929 . S
H774 C718 0.930 . S
H775 C719 0.930 . S
H776 C722 0.930 . S
H777 C725 0.929 . S
H778 C730 0.929 . S
H779 C731 0.930 . S
H780 C738 0.929 . S
H781 C739 0.930 . S
H782 C740 0.930 . S
H783 C741 0.930 . S
H784 C743 0.929 . S
H785 C744 0.930 . S
H786 C745 0.930 . S
H787 C746 0.930 . S
H788 C750 0.929 . S
H789 C752 0.930 . S
H790 C758 0.929 . S
H791 C759 0.930 . S
Li792 N809 1.990 . S
Li792 O852 1.956 . S
Li792 O853 1.970 . S
Li792 O854 1.961 . S
Li793 N817 1.990 . S
Li793 O852 1.970 . S
Li793 O853 1.956 . S
Li793 O855 1.961 . S
Li794 N839 1.990 . S
Li794 O852 1.961 . S
Li794 O854 1.956 . S
Li794 O855 1.970 . S
Li795 N845 1.990 . S
Li795 O853 1.961 . S
Li795 O854 1.970 . S
Li795 O855 1.956 . S
C796 C798 1.348 . S
C796 C799 1.356 . S
C796 O852 1.325 . S
N797 C800 1.314 . S
N797 C801 1.279 . S
C798 C796 1.348 . S
C798 C800 1.353 . S
C798 H856 0.929 . S
C799 C796 1.356 . S
C799 C801 1.358 . S
C799 H857 0.930 . S
C800 N797 1.314 . S
C800 C798 1.353 . S
C800 H858 0.930 . S
C801 N797 1.279 . S
C801 C799 1.358 . S
C801 H859 0.930 . S
C802 C805 1.348 . S
C802 C806 1.356 . S
C802 O853 1.325 . S
C803 N804 1.279 . S
C803 C806 1.358 . S
C803 H860 0.930 . S
N804 C803 1.279 . S
N804 C807 1.314 . S
C805 C802 1.348 . S
C805 C807 1.353 . S
C805 H861 0.929 . S
C806 C802 1.356 . S
C806 C803 1.358 . S
C806 H862 0.930 . S
C807 N804 1.314 . S
C807 C805 1.353 . S
C807 H863 0.930 . S
C808 N809 1.314 . S
C808 C813 1.353 . S
C808 H814 0.930 . S
N809 Li792 1.990 . S
N809 C808 1.314 . S
N809 C811 1.279 . S
C810 C811 1.358 . S
C810 C812 1.356 . S
C810 H864 0.930 . S
C811 N809 1.279 . S
C811 C810 1.358 . S
C811 H815 0.930 . S
C812 C810 1.356 . S
C812 C813 1.348 . S
C813 C808 1.353 . S
C813 C812 1.348 . S
C813 H865 0.929 . S
H814 C808 0.930 . S
H815 C811 0.930 . S
C816 N817 1.314 . S
C816 C818 1.353 . S
C816 H822 0.930 . S
N817 Li793 1.990 . S
N817 C816 1.314 . S
N817 C820 1.279 . S
C818 C816 1.353 . S
C818 C821 1.348 . S
C818 H866 0.929 . S
C819 C820 1.358 . S
C819 C821 1.356 . S
C819 H867 0.930 . S
C820 N817 1.279 . S
C820 C819 1.358 . S
C820 H823 0.930 . S
C821 C818 1.348 . S
C821 C819 1.356 . S
H822 C816 0.930 . S
H823 C820 0.930 . S
C824 C826 1.348 . S
C824 C827 1.356 . S
C824 O854 1.325 . S
N825 C828 1.314 . S
N825 C829 1.279 . S
C826 C824 1.348 . S
C826 C828 1.353 . S
C826 H868 0.929 . S
C827 C824 1.356 . S
C827 C829 1.358 . S
C827 H869 0.930 . S
C828 N825 1.314 . S
C828 C826 1.353 . S
C828 H870 0.930 . S
C829 N825 1.279 . S
C829 C827 1.358 . S
C829 H871 0.930 . S
C830 C831 1.348 . S
C830 C832 1.356 . S
C830 O855 1.325 . S
C831 C830 1.348 . S
C831 C833 1.353 . S
C831 H872 0.929 . S
C832 C830 1.356 . S
C832 C834 1.358 . S
C832 H873 0.930 . S
C833 C831 1.353 . S
C833 N835 1.314 . S
C833 H874 0.930 . S
C834 C832 1.358 . S
C834 N835 1.279 . S
C834 H875 0.930 . S
N835 C833 1.314 . S
N835 C834 1.279 . S
C836 C838 1.353 . S
C836 N839 1.314 . S
C836 H842 0.930 . S
C837 N839 1.279 . S
C837 C840 1.358 . S
C837 H843 0.930 . S
C838 C836 1.353 . S
C838 C841 1.348 . S
C838 H876 0.929 . S
N839 Li794 1.990 . S
N839 C836 1.314 . S
N839 C837 1.279 . S
C840 C837 1.358 . S
C840 C841 1.356 . S
C840 H877 0.930 . S
C841 C838 1.348 . S
C841 C840 1.356 . S
H842 C836 0.930 . S
H843 C837 0.930 . S
C844 N845 1.314 . S
C844 C846 1.353 . S
C844 H850 0.930 . S
N845 Li795 1.990 . S
N845 C844 1.314 . S
N845 C848 1.279 . S
C846 C844 1.353 . S
C846 C849 1.348 . S
C846 H878 0.929 . S
C847 C848 1.358 . S
C847 C849 1.356 . S
C847 H879 0.930 . S
C848 N845 1.279 . S
C848 C847 1.358 . S
C848 H851 0.930 . S
C849 C846 1.348 . S
C849 C847 1.356 . S
H850 C844 0.930 . S
H851 C848 0.930 . S
O852 Li792 1.956 . S
O852 Li793 1.970 . S
O852 Li794 1.961 . S
O852 C796 1.325 . S
O853 Li792 1.970 . S
O853 Li793 1.956 . S
O853 Li795 1.961 . S
O853 C802 1.325 . S
O854 Li792 1.961 . S
O854 Li794 1.956 . S
O854 Li795 1.970 . S
O854 C824 1.325 . S
O855 Li793 1.961 . S
O855 Li794 1.970 . S
O855 Li795 1.956 . S
O855 C830 1.325 . S
H856 C798 0.929 . S
H857 C799 0.930 . S
H858 C800 0.930 . S
H859 C801 0.930 . S
H860 C803 0.930 . S
H861 C805 0.929 . S
H862 C806 0.930 . S
H863 C807 0.930 . S
H864 C810 0.930 . S
H865 C813 0.929 . S
H866 C818 0.929 . S
H867 C819 0.930 . S
H868 C826 0.929 . S
H869 C827 0.930 . S
H870 C828 0.930 . S
H871 C829 0.930 . S
H872 C831 0.929 . S
H873 C832 0.930 . S
H874 C833 0.930 . S
H875 C834 0.930 . S
H876 C838 0.929 . S
H877 C840 0.930 . S
H878 C846 0.929 . S
H879 C847 0.930 . S
Li880 N897 1.990 . S
Li880 O940 1.956 . S
Li880 O941 1.970 . S
Li880 O942 1.961 . S
Li881 N905 1.990 . S
Li881 O940 1.970 . S
Li881 O941 1.956 . S
Li881 O943 1.961 . S
Li882 N927 1.990 . S
Li882 O940 1.961 . S
Li882 O942 1.956 . S
Li882 O943 1.970 . S
Li883 N933 1.990 . S
Li883 O941 1.961 . S
Li883 O942 1.970 . S
Li883 O943 1.956 . S
C884 C886 1.348 . S
C884 C887 1.356 . S
C884 O940 1.325 . S
N885 C888 1.314 . S
N885 C889 1.279 . S
C886 C884 1.348 . S
C886 C888 1.353 . S
C886 H944 0.929 . S
C887 C884 1.356 . S
C887 C889 1.358 . S
C887 H945 0.930 . S
C888 N885 1.314 . S
C888 C886 1.353 . S
C888 H946 0.930 . S
C889 N885 1.279 . S
C889 C887 1.358 . S
C889 H947 0.930 . S
C890 C893 1.348 . S
C890 C894 1.356 . S
C890 O941 1.325 . S
C891 N892 1.279 . S
C891 C894 1.358 . S
C891 H948 0.930 . S
N892 C891 1.279 . S
N892 C895 1.314 . S
C893 C890 1.348 . S
C893 C895 1.353 . S
C893 H949 0.929 . S
C894 C890 1.356 . S
C894 C891 1.358 . S
C894 H950 0.930 . S
C895 N892 1.314 . S
C895 C893 1.353 . S
C895 H951 0.930 . S
C896 N897 1.314 . S
C896 C901 1.353 . S
C896 H902 0.930 . S
N897 Li880 1.990 . S
N897 C896 1.314 . S
N897 C899 1.279 . S
C898 C899 1.358 . S
C898 C900 1.356 . S
C898 H952 0.930 . S
C899 N897 1.279 . S
C899 C898 1.358 . S
C899 H903 0.930 . S
C900 C898 1.356 . S
C900 C901 1.348 . S
C901 C896 1.353 . S
C901 C900 1.348 . S
C901 H953 0.929 . S
H902 C896 0.930 . S
H903 C899 0.930 . S
C904 N905 1.314 . S
C904 C906 1.353 . S
C904 H910 0.930 . S
N905 Li881 1.990 . S
N905 C904 1.314 . S
N905 C908 1.279 . S
C906 C904 1.353 . S
C906 C909 1.348 . S
C906 H954 0.929 . S
C907 C908 1.358 . S
C907 C909 1.356 . S
C907 H955 0.930 . S
C908 N905 1.279 . S
C908 C907 1.358 . S
C908 H911 0.930 . S
C909 C906 1.348 . S
C909 C907 1.356 . S
H910 C904 0.930 . S
H911 C908 0.930 . S
C912 C914 1.348 . S
C912 C915 1.356 . S
C912 O942 1.325 . S
N913 C916 1.314 . S
N913 C917 1.279 . S
C914 C912 1.348 . S
C914 C916 1.353 . S
C914 H956 0.929 . S
C915 C912 1.356 . S
C915 C917 1.358 . S
C915 H957 0.930 . S
C916 N913 1.314 . S
C916 C914 1.353 . S
C916 H958 0.930 . S
C917 N913 1.279 . S
C917 C915 1.358 . S
C917 H959 0.930 . S
C918 C919 1.348 . S
C918 C920 1.356 . S
C918 O943 1.325 . S
C919 C918 1.348 . S
C919 C921 1.353 . S
C919 H960 0.929 . S
C920 C918 1.356 . S
C920 C922 1.358 . S
C920 H961 0.930 . S
C921 C919 1.353 . S
C921 N923 1.314 . S
C921 H962 0.930 . S
C922 C920 1.358 . S
C922 N923 1.279 . S
C922 H963 0.930 . S
N923 C921 1.314 . S
N923 C922 1.279 . S
C924 C926 1.353 . S
C924 N927 1.314 . S
C924 H930 0.930 . S
C925 N927 1.279 . S
C925 C928 1.358 . S
C925 H931 0.930 . S
C926 C924 1.353 . S
C926 C929 1.348 . S
C926 H964 0.929 . S
N927 Li882 1.990 . S
N927 C924 1.314 . S
N927 C925 1.279 . S
C928 C925 1.358 . S
C928 C929 1.356 . S
C928 H965 0.930 . S
C929 C926 1.348 . S
C929 C928 1.356 . S
H930 C924 0.930 . S
H931 C925 0.930 . S
C932 N933 1.314 . S
C932 C934 1.353 . S
C932 H938 0.930 . S
N933 Li883 1.990 . S
N933 C932 1.314 . S
N933 C936 1.279 . S
C934 C932 1.353 . S
C934 C937 1.348 . S
C934 H966 0.929 . S
C935 C936 1.358 . S
C935 C937 1.356 . S
C935 H967 0.930 . S
C936 N933 1.279 . S
C936 C935 1.358 . S
C936 H939 0.930 . S
C937 C934 1.348 . S
C937 C935 1.356 . S
H938 C932 0.930 . S
H939 C936 0.930 . S
O940 Li880 1.956 . S
O940 Li881 1.970 . S
O940 Li882 1.961 . S
O940 C884 1.325 . S
O941 Li880 1.970 . S
O941 Li881 1.956 . S
O941 Li883 1.961 . S
O941 C890 1.325 . S
O942 Li880 1.961 . S
O942 Li882 1.956 . S
O942 Li883 1.970 . S
O942 C912 1.325 . S
O943 Li881 1.961 . S
O943 Li882 1.970 . S
O943 Li883 1.956 . S
O943 C918 1.325 . S
H944 C886 0.929 . S
H945 C887 0.930 . S
H946 C888 0.930 . S
H947 C889 0.930 . S
H948 C891 0.930 . S
H949 C893 0.929 . S
H950 C894 0.930 . S
H951 C895 0.930 . S
H952 C898 0.930 . S
H953 C901 0.929 . S
H954 C906 0.929 . S
H955 C907 0.930 . S
H956 C914 0.929 . S
H957 C915 0.930 . S
H958 C916 0.930 . S
H959 C917 0.930 . S
H960 C919 0.929 . S
H961 C920 0.930 . S
H962 C921 0.930 . S
H963 C922 0.930 . S
H964 C926 0.929 . S
H965 C928 0.930 . S
H966 C934 0.929 . S
H967 C935 0.930 . S
Li968 N985 1.990 . S
Li968 O1028 1.956 . S
Li968 O1029 1.970 . S
Li968 O1030 1.961 . S
Li969 N993 1.990 . S
Li969 O1028 1.970 . S
Li969 O1029 1.956 . S
Li969 O1031 1.961 . S
Li970 N1015 1.990 . S
Li970 O1028 1.961 . S
Li970 O1030 1.956 . S
Li970 O1031 1.970 . S
Li971 N1021 1.990 . S
Li971 O1029 1.961 . S
Li971 O1030 1.970 . S
Li971 O1031 1.956 . S
C972 C974 1.348 . S
C972 C975 1.356 . S
C972 O1028 1.325 . S
N973 C976 1.314 . S
N973 C977 1.279 . S
C974 C972 1.348 . S
C974 C976 1.353 . S
C974 H1032 0.929 . S
C975 C972 1.356 . S
C975 C977 1.358 . S
C975 H1033 0.930 . S
C976 N973 1.314 . S
C976 C974 1.353 . S
C976 H1034 0.930 . S
C977 N973 1.279 . S
C977 C975 1.358 . S
C977 H1035 0.930 . S
C978 C981 1.348 . S
C978 C982 1.356 . S
C978 O1029 1.325 . S
C979 N980 1.279 . S
C979 C982 1.358 . S
C979 H1036 0.930 . S
N980 C979 1.279 . S
N980 C983 1.314 . S
C981 C978 1.348 . S
C981 C983 1.353 . S
C981 H1037 0.929 . S
C982 C978 1.356 . S
C982 C979 1.358 . S
C982 H1038 0.930 . S
C983 N980 1.314 . S
C983 C981 1.353 . S
C983 H1039 0.930 . S
C984 N985 1.314 . S
C984 C989 1.353 . S
C984 H990 0.930 . S
N985 Li968 1.990 . S
N985 C984 1.314 . S
N985 C987 1.279 . S
C986 C987 1.358 . S
C986 C988 1.356 . S
C986 H1040 0.930 . S
C987 N985 1.279 . S
C987 C986 1.358 . S
C987 H991 0.930 . S
C988 C986 1.356 . S
C988 C989 1.348 . S
C989 C984 1.353 . S
C989 C988 1.348 . S
C989 H1041 0.929 . S
H990 C984 0.930 . S
H991 C987 0.930 . S
C992 N993 1.314 . S
C992 C994 1.353 . S
C992 H998 0.930 . S
N993 Li969 1.990 . S
N993 C992 1.314 . S
N993 C996 1.279 . S
C994 C992 1.353 . S
C994 C997 1.348 . S
C994 H1042 0.929 . S
C995 C996 1.358 . S
C995 C997 1.356 . S
C995 H1043 0.930 . S
C996 N993 1.279 . S
C996 C995 1.358 . S
C996 H999 0.930 . S
C997 C994 1.348 . S
C997 C995 1.356 . S
H998 C992 0.930 . S
H999 C996 0.930 . S
C1000 C1002 1.348 . S
C1000 C1003 1.356 . S
C1000 O1030 1.325 . S
N1001 C1004 1.314 . S
N1001 C1005 1.279 . S
C1002 C1000 1.348 . S
C1002 C1004 1.353 . S
C1002 H1044 0.929 . S
C1003 C1000 1.356 . S
C1003 C1005 1.358 . S
C1003 H1045 0.930 . S
C1004 N1001 1.314 . S
C1004 C1002 1.353 . S
C1004 H1046 0.930 . S
C1005 N1001 1.279 . S
C1005 C1003 1.358 . S
C1005 H1047 0.930 . S
C1006 C1007 1.348 . S
C1006 C1008 1.356 . S
C1006 O1031 1.325 . S
C1007 C1006 1.348 . S
C1007 C1009 1.353 . S
C1007 H1048 0.929 . S
C1008 C1006 1.356 . S
C1008 C1010 1.358 . S
C1008 H1049 0.930 . S
C1009 C1007 1.353 . S
C1009 N1011 1.314 . S
C1009 H1050 0.930 . S
C1010 C1008 1.358 . S
C1010 N1011 1.279 . S
C1010 H1051 0.930 . S
N1011 C1009 1.314 . S
N1011 C1010 1.279 . S
C1012 C1014 1.353 . S
C1012 N1015 1.314 . S
C1012 H1018 0.930 . S
C1013 N1015 1.279 . S
C1013 C1016 1.358 . S
C1013 H1019 0.930 . S
C1014 C1012 1.353 . S
C1014 C1017 1.348 . S
C1014 H1052 0.929 . S
N1015 Li970 1.990 . S
N1015 C1012 1.314 . S
N1015 C1013 1.279 . S
C1016 C1013 1.358 . S
C1016 C1017 1.356 . S
C1016 H1053 0.930 . S
C1017 C1014 1.348 . S
C1017 C1016 1.356 . S
H1018 C1012 0.930 . S
H1019 C1013 0.930 . S
C1020 N1021 1.314 . S
C1020 C1022 1.353 . S
C1020 H1026 0.930 . S
N1021 Li971 1.990 . S
N1021 C1020 1.314 . S
N1021 C1024 1.279 . S
C1022 C1020 1.353 . S
C1022 C1025 1.348 . S
C1022 H1054 0.929 . S
C1023 C1024 1.358 . S
C1023 C1025 1.356 . S
C1023 H1055 0.930 . S
C1024 N1021 1.279 . S
C1024 C1023 1.358 . S
C1024 H1027 0.930 . S
C1025 C1022 1.348 . S
C1025 C1023 1.356 . S
H1026 C1020 0.930 . S
H1027 C1024 0.930 . S
O1028 Li968 1.956 . S
O1028 Li969 1.970 . S
O1028 Li970 1.961 . S
O1028 C972 1.325 . S
O1029 Li968 1.970 . S
O1029 Li969 1.956 . S
O1029 Li971 1.961 . S
O1029 C978 1.325 . S
O1030 Li968 1.961 . S
O1030 Li970 1.956 . S
O1030 Li971 1.970 . S
O1030 C1000 1.325 . S
O1031 Li969 1.961 . S
O1031 Li970 1.970 . S
O1031 Li971 1.956 . S
O1031 C1006 1.325 . S
H1032 C974 0.929 . S
H1033 C975 0.930 . S
H1034 C976 0.930 . S
H1035 C977 0.930 . S
H1036 C979 0.930 . S
H1037 C981 0.929 . S
H1038 C982 0.930 . S
H1039 C983 0.930 . S
H1040 C986 0.930 . S
H1041 C989 0.929 . S
H1042 C994 0.929 . S
H1043 C995 0.930 . S
H1044 C1002 0.929 . S
H1045 C1003 0.930 . S
H1046 C1004 0.930 . S
H1047 C1005 0.930 . S
H1048 C1007 0.929 . S
H1049 C1008 0.930 . S
H1050 C1009 0.930 . S
H1051 C1010 0.930 . S
H1052 C1014 0.929 . S
H1053 C1016 0.930 . S
H1054 C1022 0.929 . S
H1055 C1023 0.930 . S
Li1056 N1073 1.990 . S
Li1056 O1116 1.956 . S
Li1056 O1117 1.970 . S
Li1056 O1118 1.961 . S
Li1057 N1081 1.990 . S
Li1057 O1116 1.970 . S
Li1057 O1117 1.956 . S
Li1057 O1119 1.961 . S
Li1058 N1103 1.990 . S
Li1058 O1116 1.961 . S
Li1058 O1118 1.956 . S
Li1058 O1119 1.970 . S
Li1059 N1109 1.990 . S
Li1059 O1117 1.961 . S
Li1059 O1118 1.970 . S
Li1059 O1119 1.956 . S
C1060 C1062 1.348 . S
C1060 C1063 1.356 . S
C1060 O1116 1.325 . S
N1061 C1064 1.314 . S
N1061 C1065 1.279 . S
C1062 C1060 1.348 . S
C1062 C1064 1.353 . S
C1062 H1120 0.929 . S
C1063 C1060 1.356 . S
C1063 C1065 1.358 . S
C1063 H1121 0.930 . S
C1064 N1061 1.314 . S
C1064 C1062 1.353 . S
C1064 H1122 0.930 . S
C1065 N1061 1.279 . S
C1065 C1063 1.358 . S
C1065 H1123 0.930 . S
C1066 C1069 1.348 . S
C1066 C1070 1.356 . S
C1066 O1117 1.325 . S
C1067 N1068 1.279 . S
C1067 C1070 1.358 . S
C1067 H1124 0.930 . S
N1068 C1067 1.279 . S
N1068 C1071 1.314 . S
C1069 C1066 1.348 . S
C1069 C1071 1.353 . S
C1069 H1125 0.929 . S
C1070 C1066 1.356 . S
C1070 C1067 1.358 . S
C1070 H1126 0.930 . S
C1071 N1068 1.314 . S
C1071 C1069 1.353 . S
C1071 H1127 0.930 . S
C1072 N1073 1.314 . S
C1072 C1077 1.353 . S
C1072 H1078 0.930 . S
N1073 Li1056 1.990 . S
N1073 C1072 1.314 . S
N1073 C1075 1.279 . S
C1074 C1075 1.358 . S
C1074 C1076 1.356 . S
C1074 H1128 0.930 . S
C1075 N1073 1.279 . S
C1075 C1074 1.358 . S
C1075 H1079 0.930 . S
C1076 C1074 1.356 . S
C1076 C1077 1.348 . S
C1077 C1072 1.353 . S
C1077 C1076 1.348 . S
C1077 H1129 0.929 . S
H1078 C1072 0.930 . S
H1079 C1075 0.930 . S
C1080 N1081 1.314 . S
C1080 C1082 1.353 . S
C1080 H1086 0.930 . S
N1081 Li1057 1.990 . S
N1081 C1080 1.314 . S
N1081 C1084 1.279 . S
C1082 C1080 1.353 . S
C1082 C1085 1.348 . S
C1082 H1130 0.929 . S
C1083 C1084 1.358 . S
C1083 C1085 1.356 . S
C1083 H1131 0.930 . S
C1084 N1081 1.279 . S
C1084 C1083 1.358 . S
C1084 H1087 0.930 . S
C1085 C1082 1.348 . S
C1085 C1083 1.356 . S
H1086 C1080 0.930 . S
H1087 C1084 0.930 . S
C1088 C1090 1.348 . S
C1088 C1091 1.356 . S
C1088 O1118 1.325 . S
N1089 C1092 1.314 . S
N1089 C1093 1.279 . S
C1090 C1088 1.348 . S
C1090 C1092 1.353 . S
C1090 H1132 0.929 . S
C1091 C1088 1.356 . S
C1091 C1093 1.358 . S
C1091 H1133 0.930 . S
C1092 N1089 1.314 . S
C1092 C1090 1.353 . S
C1092 H1134 0.930 . S
C1093 N1089 1.279 . S
C1093 C1091 1.358 . S
C1093 H1135 0.930 . S
C1094 C1095 1.348 . S
C1094 C1096 1.356 . S
C1094 O1119 1.325 . S
C1095 C1094 1.348 . S
C1095 C1097 1.353 . S
C1095 H1136 0.929 . S
C1096 C1094 1.356 . S
C1096 C1098 1.358 . S
C1096 H1137 0.930 . S
C1097 C1095 1.353 . S
C1097 N1099 1.314 . S
C1097 H1138 0.930 . S
C1098 C1096 1.358 . S
C1098 N1099 1.279 . S
C1098 H1139 0.930 . S
N1099 C1097 1.314 . S
N1099 C1098 1.279 . S
C1100 C1102 1.353 . S
C1100 N1103 1.314 . S
C1100 H1106 0.930 . S
C1101 N1103 1.279 . S
C1101 C1104 1.358 . S
C1101 H1107 0.930 . S
C1102 C1100 1.353 . S
C1102 C1105 1.348 . S
C1102 H1140 0.929 . S
N1103 Li1058 1.990 . S
N1103 C1100 1.314 . S
N1103 C1101 1.279 . S
C1104 C1101 1.358 . S
C1104 C1105 1.356 . S
C1104 H1141 0.930 . S
C1105 C1102 1.348 . S
C1105 C1104 1.356 . S
H1106 C1100 0.930 . S
H1107 C1101 0.930 . S
C1108 N1109 1.314 . S
C1108 C1110 1.353 . S
C1108 H1114 0.930 . S
N1109 Li1059 1.990 . S
N1109 C1108 1.314 . S
N1109 C1112 1.279 . S
C1110 C1108 1.353 . S
C1110 C1113 1.348 . S
C1110 H1142 0.929 . S
C1111 C1112 1.358 . S
C1111 C1113 1.356 . S
C1111 H1143 0.930 . S
C1112 N1109 1.279 . S
C1112 C1111 1.358 . S
C1112 H1115 0.930 . S
C1113 C1110 1.348 . S
C1113 C1111 1.356 . S
H1114 C1108 0.930 . S
H1115 C1112 0.930 . S
O1116 Li1056 1.956 . S
O1116 Li1057 1.970 . S
O1116 Li1058 1.961 . S
O1116 C1060 1.325 . S
O1117 Li1056 1.970 . S
O1117 Li1057 1.956 . S
O1117 Li1059 1.961 . S
O1117 C1066 1.325 . S
O1118 Li1056 1.961 . S
O1118 Li1058 1.956 . S
O1118 Li1059 1.970 . S
O1118 C1088 1.325 . S
O1119 Li1057 1.961 . S
O1119 Li1058 1.970 . S
O1119 Li1059 1.956 . S
O1119 C1094 1.325 . S
H1120 C1062 0.929 . S
H1121 C1063 0.930 . S
H1122 C1064 0.930 . S
H1123 C1065 0.930 . S
H1124 C1067 0.930 . S
H1125 C1069 0.929 . S
H1126 C1070 0.930 . S
H1127 C1071 0.930 . S
H1128 C1074 0.930 . S
H1129 C1077 0.929 . S
H1130 C1082 0.929 . S
H1131 C1083 0.930 . S
H1132 C1090 0.929 . S
H1133 C1091 0.930 . S
H1134 C1092 0.930 . S
H1135 C1093 0.930 . S
H1136 C1095 0.929 . S
H1137 C1096 0.930 . S
H1138 C1097 0.930 . S
H1139 C1098 0.930 . S
H1140 C1102 0.929 . S
H1141 C1104 0.930 . S
H1142 C1110 0.929 . S
H1143 C1111 0.930 . S
Li1144 N1161 1.990 . S
Li1144 O1204 1.956 . S
Li1144 O1205 1.970 . S
Li1144 O1206 1.961 . S
Li1145 N1169 1.990 . S
Li1145 O1204 1.970 . S
Li1145 O1205 1.956 . S
Li1145 O1207 1.961 . S
Li1146 N1191 1.990 . S
Li1146 O1204 1.961 . S
Li1146 O1206 1.956 . S
Li1146 O1207 1.970 . S
Li1147 N1197 1.990 . S
Li1147 O1205 1.961 . S
Li1147 O1206 1.970 . S
Li1147 O1207 1.956 . S
C1148 C1150 1.348 . S
C1148 C1151 1.356 . S
C1148 O1204 1.325 . S
N1149 C1152 1.314 . S
N1149 C1153 1.279 . S
C1150 C1148 1.348 . S
C1150 C1152 1.353 . S
C1150 H1208 0.929 . S
C1151 C1148 1.356 . S
C1151 C1153 1.358 . S
C1151 H1209 0.930 . S
C1152 N1149 1.314 . S
C1152 C1150 1.353 . S
C1152 H1210 0.930 . S
C1153 N1149 1.279 . S
C1153 C1151 1.358 . S
C1153 H1211 0.930 . S
C1154 C1157 1.348 . S
C1154 C1158 1.356 . S
C1154 O1205 1.325 . S
C1155 N1156 1.279 . S
C1155 C1158 1.358 . S
C1155 H1212 0.930 . S
N1156 C1155 1.279 . S
N1156 C1159 1.314 . S
C1157 C1154 1.348 . S
C1157 C1159 1.353 . S
C1157 H1213 0.929 . S
C1158 C1154 1.356 . S
C1158 C1155 1.358 . S
C1158 H1214 0.930 . S
C1159 N1156 1.314 . S
C1159 C1157 1.353 . S
C1159 H1215 0.930 . S
C1160 N1161 1.314 . S
C1160 C1165 1.353 . S
C1160 H1166 0.930 . S
N1161 Li1144 1.990 . S
N1161 C1160 1.314 . S
N1161 C1163 1.279 . S
C1162 C1163 1.358 . S
C1162 C1164 1.356 . S
C1162 H1216 0.930 . S
C1163 N1161 1.279 . S
C1163 C1162 1.358 . S
C1163 H1167 0.930 . S
C1164 C1162 1.356 . S
C1164 C1165 1.348 . S
C1165 C1160 1.353 . S
C1165 C1164 1.348 . S
C1165 H1217 0.929 . S
H1166 C1160 0.930 . S
H1167 C1163 0.930 . S
C1168 N1169 1.314 . S
C1168 C1170 1.353 . S
C1168 H1174 0.930 . S
N1169 Li1145 1.990 . S
N1169 C1168 1.314 . S
N1169 C1172 1.279 . S
C1170 C1168 1.353 . S
C1170 C1173 1.348 . S
C1170 H1218 0.929 . S
C1171 C1172 1.358 . S
C1171 C1173 1.356 . S
C1171 H1219 0.930 . S
C1172 N1169 1.279 . S
C1172 C1171 1.358 . S
C1172 H1175 0.930 . S
C1173 C1170 1.348 . S
C1173 C1171 1.356 . S
H1174 C1168 0.930 . S
H1175 C1172 0.930 . S
C1176 C1178 1.348 . S
C1176 C1179 1.356 . S
C1176 O1206 1.325 . S
N1177 C1180 1.314 . S
N1177 C1181 1.279 . S
C1178 C1176 1.348 . S
C1178 C1180 1.353 . S
C1178 H1220 0.929 . S
C1179 C1176 1.356 . S
C1179 C1181 1.358 . S
C1179 H1221 0.930 . S
C1180 N1177 1.314 . S
C1180 C1178 1.353 . S
C1180 H1222 0.930 . S
C1181 N1177 1.279 . S
C1181 C1179 1.358 . S
C1181 H1223 0.930 . S
C1182 C1183 1.348 . S
C1182 C1184 1.356 . S
C1182 O1207 1.325 . S
C1183 C1182 1.348 . S
C1183 C1185 1.353 . S
C1183 H1224 0.929 . S
C1184 C1182 1.356 . S
C1184 C1186 1.358 . S
C1184 H1225 0.930 . S
C1185 C1183 1.353 . S
C1185 N1187 1.314 . S
C1185 H1226 0.930 . S
C1186 C1184 1.358 . S
C1186 N1187 1.279 . S
C1186 H1227 0.930 . S
N1187 C1185 1.314 . S
N1187 C1186 1.279 . S
C1188 C1190 1.353 . S
C1188 N1191 1.314 . S
C1188 H1194 0.930 . S
C1189 N1191 1.279 . S
C1189 C1192 1.358 . S
C1189 H1195 0.930 . S
C1190 C1188 1.353 . S
C1190 C1193 1.348 . S
C1190 H1228 0.929 . S
N1191 Li1146 1.990 . S
N1191 C1188 1.314 . S
N1191 C1189 1.279 . S
C1192 C1189 1.358 . S
C1192 C1193 1.356 . S
C1192 H1229 0.930 . S
C1193 C1190 1.348 . S
C1193 C1192 1.356 . S
H1194 C1188 0.930 . S
H1195 C1189 0.930 . S
C1196 N1197 1.314 . S
C1196 C1198 1.353 . S
C1196 H1202 0.930 . S
N1197 Li1147 1.990 . S
N1197 C1196 1.314 . S
N1197 C1200 1.279 . S
C1198 C1196 1.353 . S
C1198 C1201 1.348 . S
C1198 H1230 0.929 . S
C1199 C1200 1.358 . S
C1199 C1201 1.356 . S
C1199 H1231 0.930 . S
C1200 N1197 1.279 . S
C1200 C1199 1.358 . S
C1200 H1203 0.930 . S
C1201 C1198 1.348 . S
C1201 C1199 1.356 . S
H1202 C1196 0.930 . S
H1203 C1200 0.930 . S
O1204 Li1144 1.956 . S
O1204 Li1145 1.970 . S
O1204 Li1146 1.961 . S
O1204 C1148 1.325 . S
O1205 Li1144 1.970 . S
O1205 Li1145 1.956 . S
O1205 Li1147 1.961 . S
O1205 C1154 1.325 . S
O1206 Li1144 1.961 . S
O1206 Li1146 1.956 . S
O1206 Li1147 1.970 . S
O1206 C1176 1.325 . S
O1207 Li1145 1.961 . S
O1207 Li1146 1.970 . S
O1207 Li1147 1.956 . S
O1207 C1182 1.325 . S
H1208 C1150 0.929 . S
H1209 C1151 0.930 . S
H1210 C1152 0.930 . S
H1211 C1153 0.930 . S
H1212 C1155 0.930 . S
H1213 C1157 0.929 . S
H1214 C1158 0.930 . S
H1215 C1159 0.930 . S
H1216 C1162 0.930 . S
H1217 C1165 0.929 . S
H1218 C1170 0.929 . S
H1219 C1171 0.930 . S
H1220 C1178 0.929 . S
H1221 C1179 0.930 . S
H1222 C1180 0.930 . S
H1223 C1181 0.930 . S
H1224 C1183 0.929 . S
H1225 C1184 0.930 . S
H1226 C1185 0.930 . S
H1227 C1186 0.930 . S
H1228 C1190 0.929 . S
H1229 C1192 0.930 . S
H1230 C1198 0.929 . S
H1231 C1199 0.930 . S
Li1232 N1249 1.990 . S
Li1232 O1292 1.956 . S
Li1232 O1293 1.970 . S
Li1232 O1294 1.961 . S
Li1233 N1257 1.990 . S
Li1233 O1292 1.970 . S
Li1233 O1293 1.956 . S
Li1233 O1295 1.961 . S
Li1234 N1279 1.990 . S
Li1234 O1292 1.961 . S
Li1234 O1294 1.956 . S
Li1234 O1295 1.970 . S
Li1235 N1285 1.990 . S
Li1235 O1293 1.961 . S
Li1235 O1294 1.970 . S
Li1235 O1295 1.956 . S
C1236 C1238 1.348 . S
C1236 C1239 1.356 . S
C1236 O1292 1.325 . S
N1237 C1240 1.314 . S
N1237 C1241 1.279 . S
C1238 C1236 1.348 . S
C1238 C1240 1.353 . S
C1238 H1296 0.929 . S
C1239 C1236 1.356 . S
C1239 C1241 1.358 . S
C1239 H1297 0.930 . S
C1240 N1237 1.314 . S
C1240 C1238 1.353 . S
C1240 H1298 0.930 . S
C1241 N1237 1.279 . S
C1241 C1239 1.358 . S
C1241 H1299 0.930 . S
C1242 C1245 1.348 . S
C1242 C1246 1.356 . S
C1242 O1293 1.325 . S
C1243 N1244 1.279 . S
C1243 C1246 1.358 . S
C1243 H1300 0.930 . S
N1244 C1243 1.279 . S
N1244 C1247 1.314 . S
C1245 C1242 1.348 . S
C1245 C1247 1.353 . S
C1245 H1301 0.929 . S
C1246 C1242 1.356 . S
C1246 C1243 1.358 . S
C1246 H1302 0.930 . S
C1247 N1244 1.314 . S
C1247 C1245 1.353 . S
C1247 H1303 0.930 . S
C1248 N1249 1.314 . S
C1248 C1253 1.353 . S
C1248 H1254 0.930 . S
N1249 Li1232 1.990 . S
N1249 C1248 1.314 . S
N1249 C1251 1.279 . S
C1250 C1251 1.358 . S
C1250 C1252 1.356 . S
C1250 H1304 0.930 . S
C1251 N1249 1.279 . S
C1251 C1250 1.358 . S
C1251 H1255 0.930 . S
C1252 C1250 1.356 . S
C1252 C1253 1.348 . S
C1253 C1248 1.353 . S
C1253 C1252 1.348 . S
C1253 H1305 0.929 . S
H1254 C1248 0.930 . S
H1255 C1251 0.930 . S
C1256 N1257 1.314 . S
C1256 C1258 1.353 . S
C1256 H1262 0.930 . S
N1257 Li1233 1.990 . S
N1257 C1256 1.314 . S
N1257 C1260 1.279 . S
C1258 C1256 1.353 . S
C1258 C1261 1.348 . S
C1258 H1306 0.929 . S
C1259 C1260 1.358 . S
C1259 C1261 1.356 . S
C1259 H1307 0.930 . S
C1260 N1257 1.279 . S
C1260 C1259 1.358 . S
C1260 H1263 0.930 . S
C1261 C1258 1.348 . S
C1261 C1259 1.356 . S
H1262 C1256 0.930 . S
H1263 C1260 0.930 . S
C1264 C1266 1.348 . S
C1264 C1267 1.356 . S
C1264 O1294 1.325 . S
N1265 C1268 1.314 . S
N1265 C1269 1.279 . S
C1266 C1264 1.348 . S
C1266 C1268 1.353 . S
C1266 H1308 0.929 . S
C1267 C1264 1.356 . S
C1267 C1269 1.358 . S
C1267 H1309 0.930 . S
C1268 N1265 1.314 . S
C1268 C1266 1.353 . S
C1268 H1310 0.930 . S
C1269 N1265 1.279 . S
C1269 C1267 1.358 . S
C1269 H1311 0.930 . S
C1270 C1271 1.348 . S
C1270 C1272 1.356 . S
C1270 O1295 1.325 . S
C1271 C1270 1.348 . S
C1271 C1273 1.353 . S
C1271 H1312 0.929 . S
C1272 C1270 1.356 . S
C1272 C1274 1.358 . S
C1272 H1313 0.930 . S
C1273 C1271 1.353 . S
C1273 N1275 1.314 . S
C1273 H1314 0.930 . S
C1274 C1272 1.358 . S
C1274 N1275 1.279 . S
C1274 H1315 0.930 . S
N1275 C1273 1.314 . S
N1275 C1274 1.279 . S
C1276 C1278 1.353 . S
C1276 N1279 1.314 . S
C1276 H1282 0.930 . S
C1277 N1279 1.279 . S
C1277 C1280 1.358 . S
C1277 H1283 0.930 . S
C1278 C1276 1.353 . S
C1278 C1281 1.348 . S
C1278 H1316 0.929 . S
N1279 Li1234 1.990 . S
N1279 C1276 1.314 . S
N1279 C1277 1.279 . S
C1280 C1277 1.358 . S
C1280 C1281 1.356 . S
C1280 H1317 0.930 . S
C1281 C1278 1.348 . S
C1281 C1280 1.356 . S
H1282 C1276 0.930 . S
H1283 C1277 0.930 . S
C1284 N1285 1.314 . S
C1284 C1286 1.353 . S
C1284 H1290 0.930 . S
N1285 Li1235 1.990 . S
N1285 C1284 1.314 . S
N1285 C1288 1.279 . S
C1286 C1284 1.353 . S
C1286 C1289 1.348 . S
C1286 H1318 0.929 . S
C1287 C1288 1.358 . S
C1287 C1289 1.356 . S
C1287 H1319 0.930 . S
C1288 N1285 1.279 . S
C1288 C1287 1.358 . S
C1288 H1291 0.930 . S
C1289 C1286 1.348 . S
C1289 C1287 1.356 . S
H1290 C1284 0.930 . S
H1291 C1288 0.930 . S
O1292 Li1232 1.956 . S
O1292 Li1233 1.970 . S
O1292 Li1234 1.961 . S
O1292 C1236 1.325 . S
O1293 Li1232 1.970 . S
O1293 Li1233 1.956 . S
O1293 Li1235 1.961 . S
O1293 C1242 1.325 . S
O1294 Li1232 1.961 . S
O1294 Li1234 1.956 . S
O1294 Li1235 1.970 . S
O1294 C1264 1.325 . S
O1295 Li1233 1.961 . S
O1295 Li1234 1.970 . S
O1295 Li1235 1.956 . S
O1295 C1270 1.325 . S
H1296 C1238 0.929 . S
H1297 C1239 0.930 . S
H1298 C1240 0.930 . S
H1299 C1241 0.930 . S
H1300 C1243 0.930 . S
H1301 C1245 0.929 . S
H1302 C1246 0.930 . S
H1303 C1247 0.930 . S
H1304 C1250 0.930 . S
H1305 C1253 0.929 . S
H1306 C1258 0.929 . S
H1307 C1259 0.930 . S
H1308 C1266 0.929 . S
H1309 C1267 0.930 . S
H1310 C1268 0.930 . S
H1311 C1269 0.930 . S
H1312 C1271 0.929 . S
H1313 C1272 0.930 . S
H1314 C1273 0.930 . S
H1315 C1274 0.930 . S
H1316 C1278 0.929 . S
H1317 C1280 0.930 . S
H1318 C1286 0.929 . S
H1319 C1287 0.930 . S
Li1320 N1337 1.990 . S
Li1320 O1380 1.956 . S
Li1320 O1381 1.970 . S
Li1320 O1382 1.961 . S
Li1321 N1345 1.990 . S
Li1321 O1380 1.970 . S
Li1321 O1381 1.956 . S
Li1321 O1383 1.961 . S
Li1322 N1367 1.990 . S
Li1322 O1380 1.961 . S
Li1322 O1382 1.956 . S
Li1322 O1383 1.970 . S
Li1323 N1373 1.990 . S
Li1323 O1381 1.961 . S
Li1323 O1382 1.970 . S
Li1323 O1383 1.956 . S
C1324 C1326 1.348 . S
C1324 C1327 1.356 . S
C1324 O1380 1.325 . S
N1325 C1328 1.314 . S
N1325 C1329 1.279 . S
C1326 C1324 1.348 . S
C1326 C1328 1.353 . S
C1326 H1384 0.929 . S
C1327 C1324 1.356 . S
C1327 C1329 1.358 . S
C1327 H1385 0.930 . S
C1328 N1325 1.314 . S
C1328 C1326 1.353 . S
C1328 H1386 0.930 . S
C1329 N1325 1.279 . S
C1329 C1327 1.358 . S
C1329 H1387 0.930 . S
C1330 C1333 1.348 . S
C1330 C1334 1.356 . S
C1330 O1381 1.325 . S
C1331 N1332 1.279 . S
C1331 C1334 1.358 . S
C1331 H1388 0.930 . S
N1332 C1331 1.279 . S
N1332 C1335 1.314 . S
C1333 C1330 1.348 . S
C1333 C1335 1.353 . S
C1333 H1389 0.929 . S
C1334 C1330 1.356 . S
C1334 C1331 1.358 . S
C1334 H1390 0.930 . S
C1335 N1332 1.314 . S
C1335 C1333 1.353 . S
C1335 H1391 0.930 . S
C1336 N1337 1.314 . S
C1336 C1341 1.353 . S
C1336 H1342 0.930 . S
N1337 Li1320 1.990 . S
N1337 C1336 1.314 . S
N1337 C1339 1.279 . S
C1338 C1339 1.358 . S
C1338 C1340 1.356 . S
C1338 H1392 0.930 . S
C1339 N1337 1.279 . S
C1339 C1338 1.358 . S
C1339 H1343 0.930 . S
C1340 C1338 1.356 . S
C1340 C1341 1.348 . S
C1341 C1336 1.353 . S
C1341 C1340 1.348 . S
C1341 H1393 0.929 . S
H1342 C1336 0.930 . S
H1343 C1339 0.930 . S
C1344 N1345 1.314 . S
C1344 C1346 1.353 . S
C1344 H1350 0.930 . S
N1345 Li1321 1.990 . S
N1345 C1344 1.314 . S
N1345 C1348 1.279 . S
C1346 C1344 1.353 . S
C1346 C1349 1.348 . S
C1346 H1394 0.929 . S
C1347 C1348 1.358 . S
C1347 C1349 1.356 . S
C1347 H1395 0.930 . S
C1348 N1345 1.279 . S
C1348 C1347 1.358 . S
C1348 H1351 0.930 . S
C1349 C1346 1.348 . S
C1349 C1347 1.356 . S
H1350 C1344 0.930 . S
H1351 C1348 0.930 . S
C1352 C1354 1.348 . S
C1352 C1355 1.356 . S
C1352 O1382 1.325 . S
N1353 C1356 1.314 . S
N1353 C1357 1.279 . S
C1354 C1352 1.348 . S
C1354 C1356 1.353 . S
C1354 H1396 0.929 . S
C1355 C1352 1.356 . S
C1355 C1357 1.358 . S
C1355 H1397 0.930 . S
C1356 N1353 1.314 . S
C1356 C1354 1.353 . S
C1356 H1398 0.930 . S
C1357 N1353 1.279 . S
C1357 C1355 1.358 . S
C1357 H1399 0.930 . S
C1358 C1359 1.348 . S
C1358 C1360 1.356 . S
C1358 O1383 1.325 . S
C1359 C1358 1.348 . S
C1359 C1361 1.353 . S
C1359 H1400 0.929 . S
C1360 C1358 1.356 . S
C1360 C1362 1.358 . S
C1360 H1401 0.930 . S
C1361 C1359 1.353 . S
C1361 N1363 1.314 . S
C1361 H1402 0.930 . S
C1362 C1360 1.358 . S
C1362 N1363 1.279 . S
C1362 H1403 0.930 . S
N1363 C1361 1.314 . S
N1363 C1362 1.279 . S
C1364 C1366 1.353 . S
C1364 N1367 1.314 . S
C1364 H1370 0.930 . S
C1365 N1367 1.279 . S
C1365 C1368 1.358 . S
C1365 H1371 0.930 . S
C1366 C1364 1.353 . S
C1366 C1369 1.348 . S
C1366 H1404 0.929 . S
N1367 Li1322 1.990 . S
N1367 C1364 1.314 . S
N1367 C1365 1.279 . S
C1368 C1365 1.358 . S
C1368 C1369 1.356 . S
C1368 H1405 0.930 . S
C1369 C1366 1.348 . S
C1369 C1368 1.356 . S
H1370 C1364 0.930 . S
H1371 C1365 0.930 . S
C1372 N1373 1.314 . S
C1372 C1374 1.353 . S
C1372 H1378 0.930 . S
N1373 Li1323 1.990 . S
N1373 C1372 1.314 . S
N1373 C1376 1.279 . S
C1374 C1372 1.353 . S
C1374 C1377 1.348 . S
C1374 H1406 0.929 . S
C1375 C1376 1.358 . S
C1375 C1377 1.356 . S
C1375 H1407 0.930 . S
C1376 N1373 1.279 . S
C1376 C1375 1.358 . S
C1376 H1379 0.930 . S
C1377 C1374 1.348 . S
C1377 C1375 1.356 . S
H1378 C1372 0.930 . S
H1379 C1376 0.930 . S
O1380 Li1320 1.956 . S
O1380 Li1321 1.970 . S
O1380 Li1322 1.961 . S
O1380 C1324 1.325 . S
O1381 Li1320 1.970 . S
O1381 Li1321 1.956 . S
O1381 Li1323 1.961 . S
O1381 C1330 1.325 . S
O1382 Li1320 1.961 . S
O1382 Li1322 1.956 . S
O1382 Li1323 1.970 . S
O1382 C1352 1.325 . S
O1383 Li1321 1.961 . S
O1383 Li1322 1.970 . S
O1383 Li1323 1.956 . S
O1383 C1358 1.325 . S
H1384 C1326 0.929 . S
H1385 C1327 0.930 . S
H1386 C1328 0.930 . S
H1387 C1329 0.930 . S
H1388 C1331 0.930 . S
H1389 C1333 0.929 . S
H1390 C1334 0.930 . S
H1391 C1335 0.930 . S
H1392 C1338 0.930 . S
H1393 C1341 0.929 . S
H1394 C1346 0.929 . S
H1395 C1347 0.930 . S
H1396 C1354 0.929 . S
H1397 C1355 0.930 . S
H1398 C1356 0.930 . S
H1399 C1357 0.930 . S
H1400 C1359 0.929 . S
H1401 C1360 0.930 . S
H1402 C1361 0.930 . S
H1403 C1362 0.930 . S
H1404 C1366 0.929 . S
H1405 C1368 0.930 . S
H1406 C1374 0.929 . S
H1407 C1375 0.930 . S
H1408 C1426 0.951 . S
H1409 C1428 0.951 . S
H1410 C1430 0.950 . S
H1411 C1431 0.950 . S
H1412 C1433 0.950 . S
H1413 C1436 0.950 . S
H1414 C1437 0.950 . S
H1415 C1439 0.950 . S
H1416 C1440 0.950 . S
H1417 C1441 0.951 . S
H1418 C1443 0.951 . S
H1419 C1445 0.950 . S
H1420 C1446 0.950 . S
H1421 C1448 0.950 . S
H1422 C1451 0.950 . S
H1423 C1452 0.950 . S
H1424 C1454 0.950 . S
H1425 C1455 0.950 . S
C1426 H1408 0.951 . S
C1426 C1427 1.366 . S
C1426 C1428 1.388 . S
C1427 C1426 1.366 . S
C1427 C1431 1.385 . S
C1428 H1409 0.951 . S
C1428 C1426 1.388 . S
C1428 C1429 1.366 . S
C1429 C1428 1.366 . S
C1429 C1430 1.414 . S
C1429 C1432 1.499 . S
C1430 H1410 0.950 . S
C1430 C1429 1.414 . S
C1430 C1431 1.374 . S
C1431 H1411 0.950 . S
C1431 C1427 1.385 . S
C1431 C1430 1.374 . S
C1432 C1429 1.499 . S
C1432 C1433 1.373 . S
C1432 C1434 1.389 . S
C1433 H1412 0.950 . S
C1433 C1432 1.373 . S
C1433 C1449 1.377 . S
C1434 C1432 1.389 . S
C1434 C1435 1.524 . S
C1434 C1448 1.377 . S
C1435 C1434 1.524 . S
C1435 C1436 1.397 . S
C1435 C1440 1.363 . S
C1436 H1413 0.950 . S
C1436 C1435 1.397 . S
C1436 C1437 1.334 . S
C1437 H1414 0.950 . S
C1437 C1436 1.334 . S
C1437 C1438 1.287 . S
C1438 C1437 1.287 . S
C1438 C1439 1.524 . S
C1438 H1457 0.913 . S
C1439 H1415 0.950 . S
C1439 C1438 1.524 . S
C1439 C1440 1.415 . S
C1440 H1416 0.950 . S
C1440 C1435 1.363 . S
C1440 C1439 1.415 . S
C1441 H1417 0.951 . S
C1441 C1442 1.366 . S
C1441 C1443 1.388 . S
C1442 C1441 1.366 . S
C1442 C1446 1.385 . S
C1443 H1418 0.951 . S
C1443 C1441 1.388 . S
C1443 C1444 1.366 . S
C1444 C1443 1.366 . S
C1444 C1445 1.414 . S
C1444 C1447 1.499 . S
C1445 H1419 0.950 . S
C1445 C1444 1.414 . S
C1445 C1446 1.374 . S
C1446 H1420 0.950 . S
C1446 C1442 1.385 . S
C1446 C1445 1.374 . S
C1447 C1444 1.499 . S
C1447 C1448 1.373 . S
C1447 C1449 1.389 . S
C1448 H1421 0.950 . S
C1448 C1434 1.377 . S
C1448 C1447 1.373 . S
C1449 C1433 1.377 . S
C1449 C1447 1.389 . S
C1449 C1450 1.524 . S
C1450 C1449 1.524 . S
C1450 C1451 1.397 . S
C1450 C1455 1.363 . S
C1451 H1422 0.950 . S
C1451 C1450 1.397 . S
C1451 C1452 1.334 . S
C1452 H1423 0.950 . S
C1452 C1451 1.334 . S
C1452 C1453 1.287 . S
C1453 C1452 1.287 . S
C1453 C1454 1.524 . S
C1453 H1456 0.999 . S
C1454 H1424 0.950 . S
C1454 C1453 1.524 . S
C1454 C1455 1.415 . S
C1455 H1425 0.950 . S
C1455 C1450 1.363 . S
C1455 C1454 1.415 . S
H1456 C1453 0.999 . S
H1457 C1438 0.913 . S
H1458 C1476 0.951 . S
H1459 C1478 0.951 . S
H1460 C1480 0.950 . S
H1461 C1481 0.950 . S
H1462 C1483 0.950 . S
H1463 C1486 0.950 . S
H1464 C1487 0.950 . S
H1465 C1489 0.950 . S
H1466 C1490 0.950 . S
H1467 C1491 0.951 . S
H1468 C1493 0.951 . S
H1469 C1495 0.950 . S
H1470 C1496 0.950 . S
H1471 C1498 0.950 . S
H1472 C1501 0.950 . S
H1473 C1502 0.950 . S
H1474 C1504 0.950 . S
H1475 C1505 0.950 . S
C1476 H1458 0.951 . S
C1476 C1477 1.366 . S
C1476 C1478 1.388 . S
C1477 C1476 1.366 . S
C1477 C1481 1.385 . S
C1478 H1459 0.951 . S
C1478 C1476 1.388 . S
C1478 C1479 1.366 . S
C1479 C1478 1.366 . S
C1479 C1480 1.414 . S
C1479 C1482 1.499 . S
C1480 H1460 0.950 . S
C1480 C1479 1.414 . S
C1480 C1481 1.374 . S
C1481 H1461 0.950 . S
C1481 C1477 1.385 . S
C1481 C1480 1.374 . S
C1482 C1479 1.499 . S
C1482 C1483 1.373 . S
C1482 C1484 1.389 . S
C1483 H1462 0.950 . S
C1483 C1482 1.373 . S
C1483 C1499 1.377 . S
C1484 C1482 1.389 . S
C1484 C1485 1.524 . S
C1484 C1498 1.377 . S
C1485 C1484 1.524 . S
C1485 C1486 1.397 . S
C1485 C1490 1.363 . S
C1486 H1463 0.950 . S
C1486 C1485 1.397 . S
C1486 C1487 1.334 . S
C1487 H1464 0.950 . S
C1487 C1486 1.334 . S
C1487 C1488 1.287 . S
C1488 C1487 1.287 . S
C1488 C1489 1.524 . S
C1488 H1507 0.913 . S
C1489 H1465 0.950 . S
C1489 C1488 1.524 . S
C1489 C1490 1.415 . S
C1490 H1466 0.950 . S
C1490 C1485 1.363 . S
C1490 C1489 1.415 . S
C1491 H1467 0.951 . S
C1491 C1492 1.366 . S
C1491 C1493 1.388 . S
C1492 C1491 1.366 . S
C1492 C1496 1.385 . S
C1493 H1468 0.951 . S
C1493 C1491 1.388 . S
C1493 C1494 1.366 . S
C1494 C1493 1.366 . S
C1494 C1495 1.414 . S
C1494 C1497 1.499 . S
C1495 H1469 0.950 . S
C1495 C1494 1.414 . S
C1495 C1496 1.374 . S
C1496 H1470 0.950 . S
C1496 C1492 1.385 . S
C1496 C1495 1.374 . S
C1497 C1494 1.499 . S
C1497 C1498 1.373 . S
C1497 C1499 1.389 . S
C1498 H1471 0.950 . S
C1498 C1484 1.377 . S
C1498 C1497 1.373 . S
C1499 C1483 1.377 . S
C1499 C1497 1.389 . S
C1499 C1500 1.524 . S
C1500 C1499 1.524 . S
C1500 C1501 1.397 . S
C1500 C1505 1.363 . S
C1501 H1472 0.950 . S
C1501 C1500 1.397 . S
C1501 C1502 1.334 . S
C1502 H1473 0.950 . S
C1502 C1501 1.334 . S
C1502 C1503 1.287 . S
C1503 C1502 1.287 . S
C1503 C1504 1.524 . S
C1503 H1506 0.999 . S
C1504 H1474 0.950 . S
C1504 C1503 1.524 . S
C1504 C1505 1.415 . S
C1505 H1475 0.950 . S
C1505 C1500 1.363 . S
C1505 C1504 1.415 . S
H1506 C1503 0.999 . S
H1507 C1488 0.913 . S
H1508 C1526 0.951 . S
H1509 C1528 0.951 . S
H1510 C1530 0.950 . S
H1511 C1531 0.950 . S
H1512 C1533 0.950 . S
H1513 C1536 0.950 . S
H1514 C1537 0.950 . S
H1515 C1539 0.950 . S
H1516 C1540 0.950 . S
H1517 C1541 0.951 . S
H1518 C1543 0.951 . S
H1519 C1545 0.950 . S
H1520 C1546 0.950 . S
H1521 C1548 0.950 . S
H1522 C1551 0.950 . S
H1523 C1552 0.950 . S
H1524 C1554 0.950 . S
H1525 C1555 0.950 . S
C1526 H1508 0.951 . S
C1526 C1527 1.366 . S
C1526 C1528 1.388 . S
C1527 C1526 1.366 . S
C1527 C1531 1.385 . S
C1528 H1509 0.951 . S
C1528 C1526 1.388 . S
C1528 C1529 1.366 . S
C1529 C1528 1.366 . S
C1529 C1530 1.414 . S
C1529 C1532 1.499 . S
C1530 H1510 0.950 . S
C1530 C1529 1.414 . S
C1530 C1531 1.374 . S
C1531 H1511 0.950 . S
C1531 C1527 1.385 . S
C1531 C1530 1.374 . S
C1532 C1529 1.499 . S
C1532 C1533 1.373 . S
C1532 C1534 1.389 . S
C1533 H1512 0.950 . S
C1533 C1532 1.373 . S
C1533 C1549 1.377 . S
C1534 C1532 1.389 . S
C1534 C1535 1.524 . S
C1534 C1548 1.377 . S
C1535 C1534 1.524 . S
C1535 C1536 1.397 . S
C1535 C1540 1.363 . S
C1536 H1513 0.950 . S
C1536 C1535 1.397 . S
C1536 C1537 1.334 . S
C1537 H1514 0.950 . S
C1537 C1536 1.334 . S
C1537 C1538 1.287 . S
C1538 C1537 1.287 . S
C1538 C1539 1.524 . S
C1538 H1557 0.913 . S
C1539 H1515 0.950 . S
C1539 C1538 1.524 . S
C1539 C1540 1.415 . S
C1540 H1516 0.950 . S
C1540 C1535 1.363 . S
C1540 C1539 1.415 . S
C1541 H1517 0.951 . S
C1541 C1542 1.366 . S
C1541 C1543 1.388 . S
C1542 C1541 1.366 . S
C1542 C1546 1.385 . S
C1543 H1518 0.951 . S
C1543 C1541 1.388 . S
C1543 C1544 1.366 . S
C1544 C1543 1.366 . S
C1544 C1545 1.414 . S
C1544 C1547 1.499 . S
C1545 H1519 0.950 . S
C1545 C1544 1.414 . S
C1545 C1546 1.374 . S
C1546 H1520 0.950 . S
C1546 C1542 1.385 . S
C1546 C1545 1.374 . S
C1547 C1544 1.499 . S
C1547 C1548 1.373 . S
C1547 C1549 1.389 . S
C1548 H1521 0.950 . S
C1548 C1534 1.377 . S
C1548 C1547 1.373 . S
C1549 C1533 1.377 . S
C1549 C1547 1.389 . S
C1549 C1550 1.524 . S
C1550 C1549 1.524 . S
C1550 C1551 1.397 . S
C1550 C1555 1.363 . S
C1551 H1522 0.950 . S
C1551 C1550 1.397 . S
C1551 C1552 1.334 . S
C1552 H1523 0.950 . S
C1552 C1551 1.334 . S
C1552 C1553 1.287 . S
C1553 C1552 1.287 . S
C1553 C1554 1.524 . S
C1553 H1556 0.999 . S
C1554 H1524 0.950 . S
C1554 C1553 1.524 . S
C1554 C1555 1.415 . S
C1555 H1525 0.950 . S
C1555 C1550 1.363 . S
C1555 C1554 1.415 . S
H1556 C1553 0.999 . S
H1557 C1538 0.913 . S
H1558 C1576 0.951 . S
H1559 C1578 0.951 . S
H1560 C1580 0.950 . S
H1561 C1581 0.950 . S
H1562 C1583 0.950 . S
H1563 C1586 0.950 . S
H1564 C1587 0.950 . S
H1565 C1589 0.950 . S
H1566 C1590 0.950 . S
H1567 C1591 0.951 . S
H1568 C1593 0.951 . S
H1569 C1595 0.950 . S
H1570 C1596 0.950 . S
H1571 C1598 0.950 . S
H1572 C1601 0.950 . S
H1573 C1602 0.950 . S
H1574 C1604 0.950 . S
H1575 C1605 0.950 . S
C1576 H1558 0.951 . S
C1576 C1577 1.366 . S
C1576 C1578 1.388 . S
C1577 C1576 1.366 . S
C1577 C1581 1.385 . S
C1578 H1559 0.951 . S
C1578 C1576 1.388 . S
C1578 C1579 1.366 . S
C1579 C1578 1.366 . S
C1579 C1580 1.414 . S
C1579 C1582 1.499 . S
C1580 H1560 0.950 . S
C1580 C1579 1.414 . S
C1580 C1581 1.374 . S
C1581 H1561 0.950 . S
C1581 C1577 1.385 . S
C1581 C1580 1.374 . S
C1582 C1579 1.499 . S
C1582 C1583 1.373 . S
C1582 C1584 1.389 . S
C1583 H1562 0.950 . S
C1583 C1582 1.373 . S
C1583 C1599 1.377 . S
C1584 C1582 1.389 . S
C1584 C1585 1.524 . S
C1584 C1598 1.377 . S
C1585 C1584 1.524 . S
C1585 C1586 1.397 . S
C1585 C1590 1.363 . S
C1586 H1563 0.950 . S
C1586 C1585 1.397 . S
C1586 C1587 1.334 . S
C1587 H1564 0.950 . S
C1587 C1586 1.334 . S
C1587 C1588 1.287 . S
C1588 C1587 1.287 . S
C1588 C1589 1.524 . S
C1588 H1607 0.913 . S
C1589 H1565 0.950 . S
C1589 C1588 1.524 . S
C1589 C1590 1.415 . S
C1590 H1566 0.950 . S
C1590 C1585 1.363 . S
C1590 C1589 1.415 . S
C1591 H1567 0.951 . S
C1591 C1592 1.366 . S
C1591 C1593 1.388 . S
C1592 C1591 1.366 . S
C1592 C1596 1.385 . S
C1593 H1568 0.951 . S
C1593 C1591 1.388 . S
C1593 C1594 1.366 . S
C1594 C1593 1.366 . S
C1594 C1595 1.414 . S
C1594 C1597 1.499 . S
C1595 H1569 0.950 . S
C1595 C1594 1.414 . S
C1595 C1596 1.374 . S
C1596 H1570 0.950 . S
C1596 C1592 1.385 . S
C1596 C1595 1.374 . S
C1597 C1594 1.499 . S
C1597 C1598 1.373 . S
C1597 C1599 1.389 . S
C1598 H1571 0.950 . S
C1598 C1584 1.377 . S
C1598 C1597 1.373 . S
C1599 C1583 1.377 . S
C1599 C1597 1.389 . S
C1599 C1600 1.524 . S
C1600 C1599 1.524 . S
C1600 C1601 1.397 . S
C1600 C1605 1.363 . S
C1601 H1572 0.950 . S
C1601 C1600 1.397 . S
C1601 C1602 1.334 . S
C1602 H1573 0.950 . S
C1602 C1601 1.334 . S
C1602 C1603 1.287 . S
C1603 C1602 1.287 . S
C1603 C1604 1.524 . S
C1603 H1606 0.999 . S
C1604 H1574 0.950 . S
C1604 C1603 1.524 . S
C1604 C1605 1.415 . S
C1605 H1575 0.950 . S
C1605 C1600 1.363 . S
C1605 C1604 1.415 . S
H1606 C1603 0.999 . S
H1607 C1588 0.913 . S
H1608 C1626 0.951 . S
H1609 C1628 0.951 . S
H1610 C1630 0.950 . S
H1611 C1631 0.950 . S
H1612 C1633 0.950 . S
H1613 C1636 0.950 . S
H1614 C1637 0.950 . S
H1615 C1639 0.950 . S
H1616 C1640 0.950 . S
H1617 C1641 0.951 . S
H1618 C1643 0.951 . S
H1619 C1645 0.950 . S
H1620 C1646 0.950 . S
H1621 C1648 0.950 . S
H1622 C1651 0.950 . S
H1623 C1652 0.950 . S
H1624 C1654 0.950 . S
H1625 C1655 0.950 . S
C1626 H1608 0.951 . S
C1626 C1627 1.366 . S
C1626 C1628 1.388 . S
C1627 C1626 1.366 . S
C1627 C1631 1.385 . S
C1628 H1609 0.951 . S
C1628 C1626 1.388 . S
C1628 C1629 1.366 . S
C1629 C1628 1.366 . S
C1629 C1630 1.414 . S
C1629 C1632 1.499 . S
C1630 H1610 0.950 . S
C1630 C1629 1.414 . S
C1630 C1631 1.374 . S
C1631 H1611 0.950 . S
C1631 C1627 1.385 . S
C1631 C1630 1.374 . S
C1632 C1629 1.499 . S
C1632 C1633 1.373 . S
C1632 C1634 1.389 . S
C1633 H1612 0.950 . S
C1633 C1632 1.373 . S
C1633 C1649 1.377 . S
C1634 C1632 1.389 . S
C1634 C1635 1.524 . S
C1634 C1648 1.377 . S
C1635 C1634 1.524 . S
C1635 C1636 1.397 . S
C1635 C1640 1.363 . S
C1636 H1613 0.950 . S
C1636 C1635 1.397 . S
C1636 C1637 1.334 . S
C1637 H1614 0.950 . S
C1637 C1636 1.334 . S
C1637 C1638 1.287 . S
C1638 C1637 1.287 . S
C1638 C1639 1.524 . S
C1638 H1657 0.913 . S
C1639 H1615 0.950 . S
C1639 C1638 1.524 . S
C1639 C1640 1.415 . S
C1640 H1616 0.950 . S
C1640 C1635 1.363 . S
C1640 C1639 1.415 . S
C1641 H1617 0.951 . S
C1641 C1642 1.366 . S
C1641 C1643 1.388 . S
C1642 C1641 1.366 . S
C1642 C1646 1.385 . S
C1643 H1618 0.951 . S
C1643 C1641 1.388 . S
C1643 C1644 1.366 . S
C1644 C1643 1.366 . S
C1644 C1645 1.414 . S
C1644 C1647 1.499 . S
C1645 H1619 0.950 . S
C1645 C1644 1.414 . S
C1645 C1646 1.374 . S
C1646 H1620 0.950 . S
C1646 C1642 1.385 . S
C1646 C1645 1.374 . S
C1647 C1644 1.499 . S
C1647 C1648 1.373 . S
C1647 C1649 1.389 . S
C1648 H1621 0.950 . S
C1648 C1634 1.377 . S
C1648 C1647 1.373 . S
C1649 C1633 1.377 . S
C1649 C1647 1.389 . S
C1649 C1650 1.524 . S
C1650 C1649 1.524 . S
C1650 C1651 1.397 . S
C1650 C1655 1.363 . S
C1651 H1622 0.950 . S
C1651 C1650 1.397 . S
C1651 C1652 1.334 . S
C1652 H1623 0.950 . S
C1652 C1651 1.334 . S
C1652 C1653 1.287 . S
C1653 C1652 1.287 . S
C1653 C1654 1.524 . S
C1653 H1656 0.999 . S
C1654 H1624 0.950 . S
C1654 C1653 1.524 . S
C1654 C1655 1.415 . S
C1655 H1625 0.950 . S
C1655 C1650 1.363 . S
C1655 C1654 1.415 . S
H1656 C1653 0.999 . S
H1657 C1638 0.913 . S
H1658 C1676 0.951 . S
H1659 C1678 0.951 . S
H1660 C1680 0.950 . S
H1661 C1681 0.950 . S
H1662 C1683 0.950 . S
H1663 C1686 0.950 . S
H1664 C1687 0.950 . S
H1665 C1689 0.950 . S
H1666 C1690 0.950 . S
H1667 C1691 0.951 . S
H1668 C1693 0.951 . S
H1669 C1695 0.950 . S
H1670 C1696 0.950 . S
H1671 C1698 0.950 . S
H1672 C1701 0.950 . S
H1673 C1702 0.950 . S
H1674 C1704 0.950 . S
H1675 C1705 0.950 . S
C1676 H1658 0.951 . S
C1676 C1677 1.366 . S
C1676 C1678 1.388 . S
C1677 C1676 1.366 . S
C1677 C1681 1.385 . S
C1678 H1659 0.951 . S
C1678 C1676 1.388 . S
C1678 C1679 1.366 . S
C1679 C1678 1.366 . S
C1679 C1680 1.414 . S
C1679 C1682 1.499 . S
C1680 H1660 0.950 . S
C1680 C1679 1.414 . S
C1680 C1681 1.374 . S
C1681 H1661 0.950 . S
C1681 C1677 1.385 . S
C1681 C1680 1.374 . S
C1682 C1679 1.499 . S
C1682 C1683 1.373 . S
C1682 C1684 1.389 . S
C1683 H1662 0.950 . S
C1683 C1682 1.373 . S
C1683 C1699 1.377 . S
C1684 C1682 1.389 . S
C1684 C1685 1.524 . S
C1684 C1698 1.377 . S
C1685 C1684 1.524 . S
C1685 C1686 1.397 . S
C1685 C1690 1.363 . S
C1686 H1663 0.950 . S
C1686 C1685 1.397 . S
C1686 C1687 1.334 . S
C1687 H1664 0.950 . S
C1687 C1686 1.334 . S
C1687 C1688 1.287 . S
C1688 C1687 1.287 . S
C1688 C1689 1.524 . S
C1688 H1707 0.913 . S
C1689 H1665 0.950 . S
C1689 C1688 1.524 . S
C1689 C1690 1.415 . S
C1690 H1666 0.950 . S
C1690 C1685 1.363 . S
C1690 C1689 1.415 . S
C1691 H1667 0.951 . S
C1691 C1692 1.366 . S
C1691 C1693 1.388 . S
C1692 C1691 1.366 . S
C1692 C1696 1.385 . S
C1693 H1668 0.951 . S
C1693 C1691 1.388 . S
C1693 C1694 1.366 . S
C1694 C1693 1.366 . S
C1694 C1695 1.414 . S
C1694 C1697 1.499 . S
C1695 H1669 0.950 . S
C1695 C1694 1.414 . S
C1695 C1696 1.374 . S
C1696 H1670 0.950 . S
C1696 C1692 1.385 . S
C1696 C1695 1.374 . S
C1697 C1694 1.499 . S
C1697 C1698 1.373 . S
C1697 C1699 1.389 . S
C1698 H1671 0.950 . S
C1698 C1684 1.377 . S
C1698 C1697 1.373 . S
C1699 C1683 1.377 . S
C1699 C1697 1.389 . S
C1699 C1700 1.524 . S
C1700 C1699 1.524 . S
C1700 C1701 1.397 . S
C1700 C1705 1.363 . S
C1701 H1672 0.950 . S
C1701 C1700 1.397 . S
C1701 C1702 1.334 . S
C1702 H1673 0.950 . S
C1702 C1701 1.334 . S
C1702 C1703 1.287 . S
C1703 C1702 1.287 . S
C1703 C1704 1.524 . S
C1703 H1706 0.999 . S
C1704 H1674 0.950 . S
C1704 C1703 1.524 . S
C1704 C1705 1.415 . S
C1705 H1675 0.950 . S
C1705 C1700 1.363 . S
C1705 C1704 1.415 . S
H1706 C1703 0.999 . S
H1707 C1688 0.913 . S
H1708 C1726 0.951 . S
H1709 C1728 0.951 . S
H1710 C1730 0.950 . S
H1711 C1731 0.950 . S
H1712 C1733 0.950 . S
H1713 C1736 0.950 . S
H1714 C1737 0.950 . S
H1715 C1739 0.950 . S
H1716 C1740 0.950 . S
H1717 C1741 0.951 . S
H1718 C1743 0.951 . S
H1719 C1745 0.950 . S
H1720 C1746 0.950 . S
H1721 C1748 0.950 . S
H1722 C1751 0.950 . S
H1723 C1752 0.950 . S
H1724 C1754 0.950 . S
H1725 C1755 0.950 . S
C1726 H1708 0.951 . S
C1726 C1727 1.366 . S
C1726 C1728 1.388 . S
C1727 C1726 1.366 . S
C1727 C1731 1.385 . S
C1728 H1709 0.951 . S
C1728 C1726 1.388 . S
C1728 C1729 1.366 . S
C1729 C1728 1.366 . S
C1729 C1730 1.414 . S
C1729 C1732 1.499 . S
C1730 H1710 0.950 . S
C1730 C1729 1.414 . S
C1730 C1731 1.374 . S
C1731 H1711 0.950 . S
C1731 C1727 1.385 . S
C1731 C1730 1.374 . S
C1732 C1729 1.499 . S
C1732 C1733 1.373 . S
C1732 C1734 1.389 . S
C1733 H1712 0.950 . S
C1733 C1732 1.373 . S
C1733 C1749 1.377 . S
C1734 C1732 1.389 . S
C1734 C1735 1.524 . S
C1734 C1748 1.377 . S
C1735 C1734 1.524 . S
C1735 C1736 1.397 . S
C1735 C1740 1.363 . S
C1736 H1713 0.950 . S
C1736 C1735 1.397 . S
C1736 C1737 1.334 . S
C1737 H1714 0.950 . S
C1737 C1736 1.334 . S
C1737 C1738 1.287 . S
C1738 C1737 1.287 . S
C1738 C1739 1.524 . S
C1738 H1757 0.913 . S
C1739 H1715 0.950 . S
C1739 C1738 1.524 . S
C1739 C1740 1.415 . S
C1740 H1716 0.950 . S
C1740 C1735 1.363 . S
C1740 C1739 1.415 . S
C1741 H1717 0.951 . S
C1741 C1742 1.366 . S
C1741 C1743 1.388 . S
C1742 C1741 1.366 . S
C1742 C1746 1.385 . S
C1743 H1718 0.951 . S
C1743 C1741 1.388 . S
C1743 C1744 1.366 . S
C1744 C1743 1.366 . S
C1744 C1745 1.414 . S
C1744 C1747 1.499 . S
C1745 H1719 0.950 . S
C1745 C1744 1.414 . S
C1745 C1746 1.374 . S
C1746 H1720 0.950 . S
C1746 C1742 1.385 . S
C1746 C1745 1.374 . S
C1747 C1744 1.499 . S
C1747 C1748 1.373 . S
C1747 C1749 1.389 . S
C1748 H1721 0.950 . S
C1748 C1734 1.377 . S
C1748 C1747 1.373 . S
C1749 C1733 1.377 . S
C1749 C1747 1.389 . S
C1749 C1750 1.524 . S
C1750 C1749 1.524 . S
C1750 C1751 1.397 . S
C1750 C1755 1.363 . S
C1751 H1722 0.950 . S
C1751 C1750 1.397 . S
C1751 C1752 1.334 . S
C1752 H1723 0.950 . S
C1752 C1751 1.334 . S
C1752 C1753 1.287 . S
C1753 C1752 1.287 . S
C1753 C1754 1.524 . S
C1753 H1756 0.999 . S
C1754 H1724 0.950 . S
C1754 C1753 1.524 . S
C1754 C1755 1.415 . S
C1755 H1725 0.950 . S
C1755 C1750 1.363 . S
C1755 C1754 1.415 . S
H1756 C1753 0.999 . S
H1757 C1738 0.913 . S
H1758 C1776 0.951 . S
H1759 C1778 0.951 . S
H1760 C1780 0.950 . S
H1761 C1781 0.950 . S
H1762 C1783 0.950 . S
H1763 C1786 0.950 . S
H1764 C1787 0.950 . S
H1765 C1789 0.950 . S
H1766 C1790 0.950 . S
H1767 C1791 0.951 . S
H1768 C1793 0.951 . S
H1769 C1795 0.950 . S
H1770 C1796 0.950 . S
H1771 C1798 0.950 . S
H1772 C1801 0.950 . S
H1773 C1802 0.950 . S
H1774 C1804 0.950 . S
H1775 C1805 0.950 . S
C1776 H1758 0.951 . S
C1776 C1777 1.366 . S
C1776 C1778 1.388 . S
C1777 C1776 1.366 . S
C1777 C1781 1.385 . S
C1778 H1759 0.951 . S
C1778 C1776 1.388 . S
C1778 C1779 1.366 . S
C1779 C1778 1.366 . S
C1779 C1780 1.414 . S
C1779 C1782 1.499 . S
C1780 H1760 0.950 . S
C1780 C1779 1.414 . S
C1780 C1781 1.374 . S
C1781 H1761 0.950 . S
C1781 C1777 1.385 . S
C1781 C1780 1.374 . S
C1782 C1779 1.499 . S
C1782 C1783 1.373 . S
C1782 C1784 1.389 . S
C1783 H1762 0.950 . S
C1783 C1782 1.373 . S
C1783 C1799 1.377 . S
C1784 C1782 1.389 . S
C1784 C1785 1.524 . S
C1784 C1798 1.377 . S
C1785 C1784 1.524 . S
C1785 C1786 1.397 . S
C1785 C1790 1.363 . S
C1786 H1763 0.950 . S
C1786 C1785 1.397 . S
C1786 C1787 1.334 . S
C1787 H1764 0.950 . S
C1787 C1786 1.334 . S
C1787 C1788 1.287 . S
C1788 C1787 1.287 . S
C1788 C1789 1.524 . S
C1788 H1807 0.913 . S
C1789 H1765 0.950 . S
C1789 C1788 1.524 . S
C1789 C1790 1.415 . S
C1790 H1766 0.950 . S
C1790 C1785 1.363 . S
C1790 C1789 1.415 . S
C1791 H1767 0.951 . S
C1791 C1792 1.366 . S
C1791 C1793 1.388 . S
C1792 C1791 1.366 . S
C1792 C1796 1.385 . S
C1793 H1768 0.951 . S
C1793 C1791 1.388 . S
C1793 C1794 1.366 . S
C1794 C1793 1.366 . S
C1794 C1795 1.414 . S
C1794 C1797 1.499 . S
C1795 H1769 0.950 . S
C1795 C1794 1.414 . S
C1795 C1796 1.374 . S
C1796 H1770 0.950 . S
C1796 C1792 1.385 . S
C1796 C1795 1.374 . S
C1797 C1794 1.499 . S
C1797 C1798 1.373 . S
C1797 C1799 1.389 . S
C1798 H1771 0.950 . S
C1798 C1784 1.377 . S
C1798 C1797 1.373 . S
C1799 C1783 1.377 . S
C1799 C1797 1.389 . S
C1799 C1800 1.524 . S
C1800 C1799 1.524 . S
C1800 C1801 1.397 . S
C1800 C1805 1.363 . S
C1801 H1772 0.950 . S
C1801 C1800 1.397 . S
C1801 C1802 1.334 . S
C1802 H1773 0.950 . S
C1802 C1801 1.334 . S
C1802 C1803 1.287 . S
C1803 C1802 1.287 . S
C1803 C1804 1.524 . S
C1803 H1806 0.999 . S
C1804 H1774 0.950 . S
C1804 C1803 1.524 . S
C1804 C1805 1.415 . S
C1805 H1775 0.950 . S
C1805 C1800 1.363 . S
C1805 C1804 1.415 . S
H1806 C1803 0.999 . S
H1807 C1788 0.913 . S
H1808 C1826 0.951 . S
H1809 C1828 0.951 . S
H1810 C1830 0.950 . S
H1811 C1831 0.950 . S
H1812 C1833 0.950 . S
H1813 C1836 0.950 . S
H1814 C1837 0.950 . S
H1815 C1839 0.950 . S
H1816 C1840 0.950 . S
H1817 C1841 0.951 . S
H1818 C1843 0.951 . S
H1819 C1845 0.950 . S
H1820 C1846 0.950 . S
H1821 C1848 0.950 . S
H1822 C1851 0.950 . S
H1823 C1852 0.950 . S
H1824 C1854 0.950 . S
H1825 C1855 0.950 . S
C1826 H1808 0.951 . S
C1826 C1827 1.366 . S
C1826 C1828 1.388 . S
C1827 C1826 1.366 . S
C1827 C1831 1.385 . S
C1828 H1809 0.951 . S
C1828 C1826 1.388 . S
C1828 C1829 1.366 . S
C1829 C1828 1.366 . S
C1829 C1830 1.414 . S
C1829 C1832 1.499 . S
C1830 H1810 0.950 . S
C1830 C1829 1.414 . S
C1830 C1831 1.374 . S
C1831 H1811 0.950 . S
C1831 C1827 1.385 . S
C1831 C1830 1.374 . S
C1832 C1829 1.499 . S
C1832 C1833 1.373 . S
C1832 C1834 1.389 . S
C1833 H1812 0.950 . S
C1833 C1832 1.373 . S
C1833 C1849 1.377 1_556 S
C1834 C1832 1.389 . S
C1834 C1835 1.524 . S
C1834 C1848 1.377 1_556 S
C1835 C1834 1.524 . S
C1835 C1836 1.397 . S
C1835 C1840 1.363 . S
C1836 H1813 0.950 . S
C1836 C1835 1.397 . S
C1836 C1837 1.334 . S
C1837 H1814 0.950 . S
C1837 C1836 1.334 . S
C1837 C1838 1.287 . S
C1838 C1837 1.287 . S
C1838 C1839 1.524 . S
C1838 H1857 0.913 . S
C1839 H1815 0.950 . S
C1839 C1838 1.524 . S
C1839 C1840 1.415 . S
C1840 H1816 0.950 . S
C1840 C1835 1.363 . S
C1840 C1839 1.415 . S
C1841 H1817 0.951 . S
C1841 C1842 1.366 . S
C1841 C1843 1.388 . S
C1842 C1841 1.366 . S
C1842 C1846 1.385 . S
C1843 H1818 0.951 . S
C1843 C1841 1.388 . S
C1843 C1844 1.366 . S
C1844 C1843 1.366 . S
C1844 C1845 1.414 . S
C1844 C1847 1.499 . S
C1845 H1819 0.950 . S
C1845 C1844 1.414 . S
C1845 C1846 1.374 . S
C1846 H1820 0.950 . S
C1846 C1842 1.385 . S
C1846 C1845 1.374 . S
C1847 C1844 1.499 . S
C1847 C1848 1.373 . S
C1847 C1849 1.389 . S
C1848 H1821 0.950 . S
C1848 C1834 1.377 1_554 S
C1848 C1847 1.373 . S
C1849 C1833 1.377 1_554 S
C1849 C1847 1.389 . S
C1849 C1850 1.524 . S
C1850 C1849 1.524 . S
C1850 C1851 1.397 . S
C1850 C1855 1.363 . S
C1851 H1822 0.950 . S
C1851 C1850 1.397 . S
C1851 C1852 1.334 . S
C1852 H1823 0.950 . S
C1852 C1851 1.334 . S
C1852 C1853 1.287 . S
C1853 C1852 1.287 . S
C1853 C1854 1.524 . S
C1853 H1856 0.999 . S
C1854 H1824 0.950 . S
C1854 C1853 1.524 . S
C1854 C1855 1.415 . S
C1855 H1825 0.950 . S
C1855 C1850 1.363 . S
C1855 C1854 1.415 . S
H1856 C1853 0.999 . S
H1857 C1838 0.913 . S
H1858 C1876 0.951 . S
H1859 C1878 0.951 . S
H1860 C1880 0.950 . S
H1861 C1881 0.950 . S
H1862 C1883 0.950 . S
H1863 C1886 0.950 . S
H1864 C1887 0.950 . S
H1865 C1889 0.950 . S
H1866 C1890 0.950 . S
H1867 C1891 0.951 . S
H1868 C1893 0.951 . S
H1869 C1895 0.950 . S
H1870 C1896 0.950 . S
H1871 C1898 0.950 . S
H1872 C1901 0.950 . S
H1873 C1902 0.950 . S
H1874 C1904 0.950 . S
H1875 C1905 0.950 . S
C1876 H1858 0.951 . S
C1876 C1877 1.366 . S
C1876 C1878 1.388 . S
C1877 C1876 1.366 . S
C1877 C1881 1.385 . S
C1878 H1859 0.951 . S
C1878 C1876 1.388 . S
C1878 C1879 1.366 . S
C1879 C1878 1.366 . S
C1879 C1880 1.414 . S
C1879 C1882 1.499 . S
C1880 H1860 0.950 . S
C1880 C1879 1.414 . S
C1880 C1881 1.374 . S
C1881 H1861 0.950 . S
C1881 C1877 1.385 . S
C1881 C1880 1.374 . S
C1882 C1879 1.499 . S
C1882 C1883 1.373 . S
C1882 C1884 1.389 . S
C1883 H1862 0.950 . S
C1883 C1882 1.373 . S
C1883 C1899 1.377 1_556 S
C1884 C1882 1.389 . S
C1884 C1885 1.524 . S
C1884 C1898 1.377 1_556 S
C1885 C1884 1.524 . S
C1885 C1886 1.397 . S
C1885 C1890 1.363 . S
C1886 H1863 0.950 . S
C1886 C1885 1.397 . S
C1886 C1887 1.334 . S
C1887 H1864 0.950 . S
C1887 C1886 1.334 . S
C1887 C1888 1.287 . S
C1888 C1887 1.287 . S
C1888 C1889 1.524 . S
C1888 H1907 0.913 . S
C1889 H1865 0.950 . S
C1889 C1888 1.524 . S
C1889 C1890 1.415 . S
C1890 H1866 0.950 . S
C1890 C1885 1.363 . S
C1890 C1889 1.415 . S
C1891 H1867 0.951 . S
C1891 C1892 1.366 . S
C1891 C1893 1.388 . S
C1892 C1891 1.366 . S
C1892 C1896 1.385 . S
C1893 H1868 0.951 . S
C1893 C1891 1.388 . S
C1893 C1894 1.366 . S
C1894 C1893 1.366 . S
C1894 C1895 1.414 . S
C1894 C1897 1.499 . S
C1895 H1869 0.950 . S
C1895 C1894 1.414 . S
C1895 C1896 1.374 . S
C1896 H1870 0.950 . S
C1896 C1892 1.385 . S
C1896 C1895 1.374 . S
C1897 C1894 1.499 . S
C1897 C1898 1.373 . S
C1897 C1899 1.389 . S
C1898 H1871 0.950 . S
C1898 C1884 1.377 1_554 S
C1898 C1897 1.373 . S
C1899 C1883 1.377 1_554 S
C1899 C1897 1.389 . S
C1899 C1900 1.524 . S
C1900 C1899 1.524 . S
C1900 C1901 1.397 . S
C1900 C1905 1.363 . S
C1901 H1872 0.950 . S
C1901 C1900 1.397 . S
C1901 C1902 1.334 . S
C1902 H1873 0.950 . S
C1902 C1901 1.334 . S
C1902 C1903 1.287 . S
C1903 C1902 1.287 . S
C1903 C1904 1.524 . S
C1903 H1906 0.999 . S
C1904 H1874 0.950 . S
C1904 C1903 1.524 . S
C1904 C1905 1.415 . S
C1905 H1875 0.950 . S
C1905 C1900 1.363 . S
C1905 C1904 1.415 . S
H1906 C1903 0.999 . S
H1907 C1888 0.913 . S
H1908 C1926 0.951 . S
H1909 C1928 0.951 . S
H1910 C1930 0.950 . S
H1911 C1931 0.950 . S
H1912 C1933 0.950 . S
H1913 C1936 0.950 . S
H1914 C1937 0.950 . S
H1915 C1939 0.950 . S
H1916 C1940 0.950 . S
H1917 C1941 0.951 . S
H1918 C1943 0.951 . S
H1919 C1945 0.950 . S
H1920 C1946 0.950 . S
H1921 C1948 0.950 . S
H1922 C1951 0.950 . S
H1923 C1952 0.950 . S
H1924 C1954 0.950 . S
H1925 C1955 0.950 . S
C1926 H1908 0.951 . S
C1926 C1927 1.366 . S
C1926 C1928 1.388 . S
C1927 C1926 1.366 . S
C1927 C1931 1.385 . S
C1928 H1909 0.951 . S
C1928 C1926 1.388 . S
C1928 C1929 1.366 . S
C1929 C1928 1.366 . S
C1929 C1930 1.414 . S
C1929 C1932 1.499 . S
C1930 H1910 0.950 . S
C1930 C1929 1.414 . S
C1930 C1931 1.374 . S
C1931 H1911 0.950 . S
C1931 C1927 1.385 . S
C1931 C1930 1.374 . S
C1932 C1929 1.499 . S
C1932 C1933 1.373 . S
C1932 C1934 1.389 . S
C1933 H1912 0.950 . S
C1933 C1932 1.373 . S
C1933 C1949 1.377 1_556 S
C1934 C1932 1.389 . S
C1934 C1935 1.524 . S
C1934 C1948 1.377 1_556 S
C1935 C1934 1.524 . S
C1935 C1936 1.397 . S
C1935 C1940 1.363 . S
C1936 H1913 0.950 . S
C1936 C1935 1.397 . S
C1936 C1937 1.334 . S
C1937 H1914 0.950 . S
C1937 C1936 1.334 . S
C1937 C1938 1.287 . S
C1938 C1937 1.287 . S
C1938 C1939 1.524 . S
C1938 H1957 0.913 . S
C1939 H1915 0.950 . S
C1939 C1938 1.524 . S
C1939 C1940 1.415 . S
C1940 H1916 0.950 . S
C1940 C1935 1.363 . S
C1940 C1939 1.415 . S
C1941 H1917 0.951 . S
C1941 C1942 1.366 . S
C1941 C1943 1.388 . S
C1942 C1941 1.366 . S
C1942 C1946 1.385 . S
C1943 H1918 0.951 . S
C1943 C1941 1.388 . S
C1943 C1944 1.366 . S
C1944 C1943 1.366 . S
C1944 C1945 1.414 . S
C1944 C1947 1.499 . S
C1945 H1919 0.950 . S
C1945 C1944 1.414 . S
C1945 C1946 1.374 . S
C1946 H1920 0.950 . S
C1946 C1942 1.385 . S
C1946 C1945 1.374 . S
C1947 C1944 1.499 . S
C1947 C1948 1.373 . S
C1947 C1949 1.389 . S
C1948 H1921 0.950 . S
C1948 C1934 1.377 1_554 S
C1948 C1947 1.373 . S
C1949 C1933 1.377 1_554 S
C1949 C1947 1.389 . S
C1949 C1950 1.524 . S
C1950 C1949 1.524 . S
C1950 C1951 1.397 . S
C1950 C1955 1.363 . S
C1951 H1922 0.950 . S
C1951 C1950 1.397 . S
C1951 C1952 1.334 . S
C1952 H1923 0.950 . S
C1952 C1951 1.334 . S
C1952 C1953 1.287 . S
C1953 C1952 1.287 . S
C1953 C1954 1.524 . S
C1953 H1956 0.999 . S
C1954 H1924 0.950 . S
C1954 C1953 1.524 . S
C1954 C1955 1.415 . S
C1955 H1925 0.950 . S
C1955 C1950 1.363 . S
C1955 C1954 1.415 . S
H1956 C1953 0.999 . S
H1957 C1938 0.913 . S
H1958 C1976 0.951 . S
H1959 C1978 0.951 . S
H1960 C1980 0.950 . S
H1961 C1981 0.950 . S
H1962 C1983 0.950 . S
H1963 C1986 0.950 . S
H1964 C1987 0.950 . S
H1965 C1989 0.950 . S
H1966 C1990 0.950 . S
H1967 C1991 0.951 . S
H1968 C1993 0.951 . S
H1969 C1995 0.950 . S
H1970 C1996 0.950 . S
H1971 C1998 0.950 . S
H1972 C2001 0.950 . S
H1973 C2002 0.950 . S
H1974 C2004 0.950 . S
H1975 C2005 0.950 . S
C1976 H1958 0.951 . S
C1976 C1977 1.366 . S
C1976 C1978 1.388 . S
C1977 C1976 1.366 . S
C1977 C1981 1.385 . S
C1978 H1959 0.951 . S
C1978 C1976 1.388 . S
C1978 C1979 1.366 . S
C1979 C1978 1.366 . S
C1979 C1980 1.414 . S
C1979 C1982 1.499 . S
C1980 H1960 0.950 . S
C1980 C1979 1.414 . S
C1980 C1981 1.374 . S
C1981 H1961 0.950 . S
C1981 C1977 1.385 . S
C1981 C1980 1.374 . S
C1982 C1979 1.499 . S
C1982 C1983 1.373 . S
C1982 C1984 1.389 . S
C1983 H1962 0.950 . S
C1983 C1982 1.373 . S
C1983 C1999 1.377 1_554 S
C1984 C1982 1.389 . S
C1984 C1985 1.524 . S
C1984 C1998 1.377 1_554 S
C1985 C1984 1.524 . S
C1985 C1986 1.397 . S
C1985 C1990 1.363 . S
C1986 H1963 0.950 . S
C1986 C1985 1.397 . S
C1986 C1987 1.334 . S
C1987 H1964 0.950 . S
C1987 C1986 1.334 . S
C1987 C1988 1.287 . S
C1988 C1987 1.287 . S
C1988 C1989 1.524 . S
C1988 H2007 0.913 . S
C1989 H1965 0.950 . S
C1989 C1988 1.524 . S
C1989 C1990 1.415 . S
C1990 H1966 0.950 . S
C1990 C1985 1.363 . S
C1990 C1989 1.415 . S
C1991 H1967 0.951 . S
C1991 C1992 1.366 . S
C1991 C1993 1.388 . S
C1992 C1991 1.366 . S
C1992 C1996 1.385 . S
C1993 H1968 0.951 . S
C1993 C1991 1.388 . S
C1993 C1994 1.366 . S
C1994 C1993 1.366 . S
C1994 C1995 1.414 . S
C1994 C1997 1.499 . S
C1995 H1969 0.950 . S
C1995 C1994 1.414 . S
C1995 C1996 1.374 . S
C1996 H1970 0.950 . S
C1996 C1992 1.385 . S
C1996 C1995 1.374 . S
C1997 C1994 1.499 . S
C1997 C1998 1.373 . S
C1997 C1999 1.389 . S
C1998 H1971 0.950 . S
C1998 C1984 1.377 1_556 S
C1998 C1997 1.373 . S
C1999 C1983 1.377 1_556 S
C1999 C1997 1.389 . S
C1999 C2000 1.524 . S
C2000 C1999 1.524 . S
C2000 C2001 1.397 . S
C2000 C2005 1.363 . S
C2001 H1972 0.950 . S
C2001 C2000 1.397 . S
C2001 C2002 1.334 . S
C2002 H1973 0.950 . S
C2002 C2001 1.334 . S
C2002 C2003 1.287 . S
C2003 C2002 1.287 . S
C2003 C2004 1.524 . S
C2003 H2006 0.999 . S
C2004 H1974 0.950 . S
C2004 C2003 1.524 . S
C2004 C2005 1.415 . S
C2005 H1975 0.950 . S
C2005 C2000 1.363 . S
C2005 C2004 1.415 . S
H2006 C2003 0.999 . S
H2007 C1988 0.913 . S
H2008 C2026 0.951 . S
H2009 C2028 0.951 . S
H2010 C2030 0.950 . S
H2011 C2031 0.950 . S
H2012 C2033 0.950 . S
H2013 C2036 0.950 . S
H2014 C2037 0.950 . S
H2015 C2039 0.950 . S
H2016 C2040 0.950 . S
H2017 C2041 0.951 . S
H2018 C2043 0.951 . S
H2019 C2045 0.950 . S
H2020 C2046 0.950 . S
H2021 C2048 0.950 . S
H2022 C2051 0.950 . S
H2023 C2052 0.950 . S
H2024 C2054 0.950 . S
H2025 C2055 0.950 . S
C2026 H2008 0.951 . S
C2026 C2027 1.366 . S
C2026 C2028 1.388 . S
C2027 C2026 1.366 . S
C2027 C2031 1.385 . S
C2028 H2009 0.951 . S
C2028 C2026 1.388 . S
C2028 C2029 1.366 . S
C2029 C2028 1.366 . S
C2029 C2030 1.414 . S
C2029 C2032 1.499 . S
C2030 H2010 0.950 . S
C2030 C2029 1.414 . S
C2030 C2031 1.374 . S
C2031 H2011 0.950 . S
C2031 C2027 1.385 . S
C2031 C2030 1.374 . S
C2032 C2029 1.499 . S
C2032 C2033 1.373 . S
C2032 C2034 1.389 . S
C2033 H2012 0.950 . S
C2033 C2032 1.373 . S
C2033 C2049 1.377 1_455 S
C2034 C2032 1.389 . S
C2034 C2035 1.524 . S
C2034 C2048 1.377 1_455 S
C2035 C2034 1.524 . S
C2035 C2036 1.397 . S
C2035 C2040 1.363 . S
C2036 H2013 0.950 . S
C2036 C2035 1.397 . S
C2036 C2037 1.334 . S
C2037 H2014 0.950 . S
C2037 C2036 1.334 . S
C2037 C2038 1.287 . S
C2038 C2037 1.287 . S
C2038 C2039 1.524 . S
C2038 H2057 0.913 . S
C2039 H2015 0.950 . S
C2039 C2038 1.524 . S
C2039 C2040 1.415 . S
C2040 H2016 0.950 . S
C2040 C2035 1.363 . S
C2040 C2039 1.415 . S
C2041 H2017 0.951 . S
C2041 C2042 1.366 . S
C2041 C2043 1.388 . S
C2042 C2041 1.366 . S
C2042 C2046 1.385 . S
C2043 H2018 0.951 . S
C2043 C2041 1.388 . S
C2043 C2044 1.366 . S
C2044 C2043 1.366 . S
C2044 C2045 1.414 . S
C2044 C2047 1.499 . S
C2045 H2019 0.950 . S
C2045 C2044 1.414 . S
C2045 C2046 1.374 . S
C2046 H2020 0.950 . S
C2046 C2042 1.385 . S
C2046 C2045 1.374 . S
C2047 C2044 1.499 . S
C2047 C2048 1.373 . S
C2047 C2049 1.389 . S
C2048 H2021 0.950 . S
C2048 C2034 1.377 1_655 S
C2048 C2047 1.373 . S
C2049 C2033 1.377 1_655 S
C2049 C2047 1.389 . S
C2049 C2050 1.524 . S
C2050 C2049 1.524 . S
C2050 C2051 1.397 . S
C2050 C2055 1.363 . S
C2051 H2022 0.950 . S
C2051 C2050 1.397 . S
C2051 C2052 1.334 . S
C2052 H2023 0.950 . S
C2052 C2051 1.334 . S
C2052 C2053 1.287 . S
C2053 C2052 1.287 . S
C2053 C2054 1.524 . S
C2053 H2056 0.999 . S
C2054 H2024 0.950 . S
C2054 C2053 1.524 . S
C2054 C2055 1.415 . S
C2055 H2025 0.950 . S
C2055 C2050 1.363 . S
C2055 C2054 1.415 . S
H2056 C2053 0.999 . S
H2057 C2038 0.913 . S
H2058 C2076 0.951 . S
H2059 C2078 0.951 . S
H2060 C2080 0.950 . S
H2061 C2081 0.950 . S
H2062 C2083 0.950 . S
H2063 C2086 0.950 . S
H2064 C2087 0.950 . S
H2065 C2089 0.950 . S
H2066 C2090 0.950 . S
H2067 C2091 0.951 . S
H2068 C2093 0.951 . S
H2069 C2095 0.950 . S
H2070 C2096 0.950 . S
H2071 C2098 0.950 . S
H2072 C2101 0.950 . S
H2073 C2102 0.950 . S
H2074 C2104 0.950 . S
H2075 C2105 0.950 . S
C2076 H2058 0.951 . S
C2076 C2077 1.366 . S
C2076 C2078 1.388 . S
C2077 C2076 1.366 . S
C2077 C2081 1.385 . S
C2078 H2059 0.951 . S
C2078 C2076 1.388 . S
C2078 C2079 1.366 . S
C2079 C2078 1.366 . S
C2079 C2080 1.414 . S
C2079 C2082 1.499 . S
C2080 H2060 0.950 . S
C2080 C2079 1.414 . S
C2080 C2081 1.374 . S
C2081 H2061 0.950 . S
C2081 C2077 1.385 . S
C2081 C2080 1.374 . S
C2082 C2079 1.499 . S
C2082 C2083 1.373 . S
C2082 C2084 1.389 . S
C2083 H2062 0.950 . S
C2083 C2082 1.373 . S
C2083 C2099 1.377 1_565 S
C2084 C2082 1.389 . S
C2084 C2085 1.524 . S
C2084 C2098 1.377 1_565 S
C2085 C2084 1.524 . S
C2085 C2086 1.397 . S
C2085 C2090 1.363 . S
C2086 H2063 0.950 . S
C2086 C2085 1.397 . S
C2086 C2087 1.334 . S
C2087 H2064 0.950 . S
C2087 C2086 1.334 . S
C2087 C2088 1.287 . S
C2088 C2087 1.287 . S
C2088 C2089 1.524 . S
C2088 H2107 0.913 . S
C2089 H2065 0.950 . S
C2089 C2088 1.524 . S
C2089 C2090 1.415 . S
C2090 H2066 0.950 . S
C2090 C2085 1.363 . S
C2090 C2089 1.415 . S
C2091 H2067 0.951 . S
C2091 C2092 1.366 . S
C2091 C2093 1.388 . S
C2092 C2091 1.366 . S
C2092 C2096 1.385 . S
C2093 H2068 0.951 . S
C2093 C2091 1.388 . S
C2093 C2094 1.366 . S
C2094 C2093 1.366 . S
C2094 C2095 1.414 . S
C2094 C2097 1.499 . S
C2095 H2069 0.950 . S
C2095 C2094 1.414 . S
C2095 C2096 1.374 . S
C2096 H2070 0.950 . S
C2096 C2092 1.385 . S
C2096 C2095 1.374 . S
C2097 C2094 1.499 . S
C2097 C2098 1.373 . S
C2097 C2099 1.389 . S
C2098 H2071 0.950 . S
C2098 C2084 1.377 1_545 S
C2098 C2097 1.373 . S
C2099 C2083 1.377 1_545 S
C2099 C2097 1.389 . S
C2099 C2100 1.524 . S
C2100 C2099 1.524 . S
C2100 C2101 1.397 . S
C2100 C2105 1.363 . S
C2101 H2072 0.950 . S
C2101 C2100 1.397 . S
C2101 C2102 1.334 . S
C2102 H2073 0.950 . S
C2102 C2101 1.334 . S
C2102 C2103 1.287 . S
C2103 C2102 1.287 . S
C2103 C2104 1.524 . S
C2103 H2106 0.999 . S
C2104 H2074 0.950 . S
C2104 C2103 1.524 . S
C2104 C2105 1.415 . S
C2105 H2075 0.950 . S
C2105 C2100 1.363 . S
C2105 C2104 1.415 . S
H2106 C2103 0.999 . S
H2107 C2088 0.913 . S
H2108 C2126 0.951 . S
H2109 C2128 0.951 . S
H2110 C2130 0.950 . S
H2111 C2131 0.950 . S
H2112 C2133 0.950 . S
H2113 C2136 0.950 . S
H2114 C2137 0.950 . S
H2115 C2139 0.950 . S
H2116 C2140 0.950 . S
H2117 C2141 0.951 . S
H2118 C2143 0.951 . S
H2119 C2145 0.950 . S
H2120 C2146 0.950 . S
H2121 C2148 0.950 . S
H2122 C2151 0.950 . S
H2123 C2152 0.950 . S
H2124 C2154 0.950 . S
H2125 C2155 0.950 . S
C2126 H2108 0.951 . S
C2126 C2127 1.366 . S
C2126 C2128 1.388 . S
C2127 C2126 1.366 . S
C2127 C2131 1.385 . S
C2128 H2109 0.951 . S
C2128 C2126 1.388 . S
C2128 C2129 1.366 . S
C2129 C2128 1.366 . S
C2129 C2130 1.414 . S
C2129 C2132 1.499 . S
C2130 H2110 0.950 . S
C2130 C2129 1.414 . S
C2130 C2131 1.374 . S
C2131 H2111 0.950 . S
C2131 C2127 1.385 . S
C2131 C2130 1.374 . S
C2132 C2129 1.499 . S
C2132 C2133 1.373 . S
C2132 C2134 1.389 . S
C2133 H2112 0.950 . S
C2133 C2132 1.373 . S
C2133 C2149 1.377 1_655 S
C2134 C2132 1.389 . S
C2134 C2135 1.524 . S
C2134 C2148 1.377 1_655 S
C2135 C2134 1.524 . S
C2135 C2136 1.397 . S
C2135 C2140 1.363 . S
C2136 H2113 0.950 . S
C2136 C2135 1.397 . S
C2136 C2137 1.334 . S
C2137 H2114 0.950 . S
C2137 C2136 1.334 . S
C2137 C2138 1.287 . S
C2138 C2137 1.287 . S
C2138 C2139 1.524 . S
C2138 H2157 0.913 . S
C2139 H2115 0.950 . S
C2139 C2138 1.524 . S
C2139 C2140 1.415 . S
C2140 H2116 0.950 . S
C2140 C2135 1.363 . S
C2140 C2139 1.415 . S
C2141 H2117 0.951 . S
C2141 C2142 1.366 . S
C2141 C2143 1.388 . S
C2142 C2141 1.366 . S
C2142 C2146 1.385 . S
C2143 H2118 0.951 . S
C2143 C2141 1.388 . S
C2143 C2144 1.366 . S
C2144 C2143 1.366 . S
C2144 C2145 1.414 . S
C2144 C2147 1.499 . S
C2145 H2119 0.950 . S
C2145 C2144 1.414 . S
C2145 C2146 1.374 . S
C2146 H2120 0.950 . S
C2146 C2142 1.385 . S
C2146 C2145 1.374 . S
C2147 C2144 1.499 . S
C2147 C2148 1.373 . S
C2147 C2149 1.389 . S
C2148 H2121 0.950 . S
C2148 C2134 1.377 1_455 S
C2148 C2147 1.373 . S
C2149 C2133 1.377 1_455 S
C2149 C2147 1.389 . S
C2149 C2150 1.524 . S
C2150 C2149 1.524 . S
C2150 C2151 1.397 . S
C2150 C2155 1.363 . S
C2151 H2122 0.950 . S
C2151 C2150 1.397 . S
C2151 C2152 1.334 . S
C2152 H2123 0.950 . S
C2152 C2151 1.334 . S
C2152 C2153 1.287 . S
C2153 C2152 1.287 . S
C2153 C2154 1.524 . S
C2153 H2156 0.999 . S
C2154 H2124 0.950 . S
C2154 C2153 1.524 . S
C2154 C2155 1.415 . S
C2155 H2125 0.950 . S
C2155 C2150 1.363 . S
C2155 C2154 1.415 . S
H2156 C2153 0.999 . S
H2157 C2138 0.913 . S
H2158 C2176 0.951 . S
H2159 C2178 0.951 . S
H2160 C2180 0.950 . S
H2161 C2181 0.950 . S
H2162 C2183 0.950 . S
H2163 C2186 0.950 . S
H2164 C2187 0.950 . S
H2165 C2189 0.950 . S
H2166 C2190 0.950 . S
H2167 C2191 0.951 . S
H2168 C2193 0.951 . S
H2169 C2195 0.950 . S
H2170 C2196 0.950 . S
H2171 C2198 0.950 . S
H2172 C2201 0.950 . S
H2173 C2202 0.950 . S
H2174 C2204 0.950 . S
H2175 C2205 0.950 . S
C2176 H2158 0.951 . S
C2176 C2177 1.366 . S
C2176 C2178 1.388 . S
C2177 C2176 1.366 . S
C2177 C2181 1.385 . S
C2178 H2159 0.951 . S
C2178 C2176 1.388 . S
C2178 C2179 1.366 . S
C2179 C2178 1.366 . S
C2179 C2180 1.414 . S
C2179 C2182 1.499 . S
C2180 H2160 0.950 . S
C2180 C2179 1.414 . S
C2180 C2181 1.374 . S
C2181 H2161 0.950 . S
C2181 C2177 1.385 . S
C2181 C2180 1.374 . S
C2182 C2179 1.499 . S
C2182 C2183 1.373 . S
C2182 C2184 1.389 . S
C2183 H2162 0.950 . S
C2183 C2182 1.373 . S
C2183 C2199 1.377 1_545 S
C2184 C2182 1.389 . S
C2184 C2185 1.524 . S
C2184 C2198 1.377 1_545 S
C2185 C2184 1.524 . S
C2185 C2186 1.397 . S
C2185 C2190 1.363 . S
C2186 H2163 0.950 . S
C2186 C2185 1.397 . S
C2186 C2187 1.334 . S
C2187 H2164 0.950 . S
C2187 C2186 1.334 . S
C2187 C2188 1.287 . S
C2188 C2187 1.287 . S
C2188 C2189 1.524 . S
C2188 H2207 0.913 . S
C2189 H2165 0.950 . S
C2189 C2188 1.524 . S
C2189 C2190 1.415 . S
C2190 H2166 0.950 . S
C2190 C2185 1.363 . S
C2190 C2189 1.415 . S
C2191 H2167 0.951 . S
C2191 C2192 1.366 . S
C2191 C2193 1.388 . S
C2192 C2191 1.366 . S
C2192 C2196 1.385 . S
C2193 H2168 0.951 . S
C2193 C2191 1.388 . S
C2193 C2194 1.366 . S
C2194 C2193 1.366 . S
C2194 C2195 1.414 . S
C2194 C2197 1.499 . S
C2195 H2169 0.950 . S
C2195 C2194 1.414 . S
C2195 C2196 1.374 . S
C2196 H2170 0.950 . S
C2196 C2192 1.385 . S
C2196 C2195 1.374 . S
C2197 C2194 1.499 . S
C2197 C2198 1.373 . S
C2197 C2199 1.389 . S
C2198 H2171 0.950 . S
C2198 C2184 1.377 1_565 S
C2198 C2197 1.373 . S
C2199 C2183 1.377 1_565 S
C2199 C2197 1.389 . S
C2199 C2200 1.524 . S
C2200 C2199 1.524 . S
C2200 C2201 1.397 . S
C2200 C2205 1.363 . S
C2201 H2172 0.950 . S
C2201 C2200 1.397 . S
C2201 C2202 1.334 . S
C2202 H2173 0.950 . S
C2202 C2201 1.334 . S
C2202 C2203 1.287 . S
C2203 C2202 1.287 . S
C2203 C2204 1.524 . S
C2203 H2206 0.999 . S
C2204 H2174 0.950 . S
C2204 C2203 1.524 . S
C2204 C2205 1.415 . S
C2205 H2175 0.950 . S
C2205 C2200 1.363 . S
C2205 C2204 1.415 . S
H2206 C2203 0.999 . S
H2207 C2188 0.913 . S
H2208 C2226 0.951 . S
H2209 C2228 0.951 . S
H2210 C2230 0.950 . S
H2211 C2231 0.950 . S
H2212 C2233 0.950 . S
H2213 C2236 0.950 . S
H2214 C2237 0.950 . S
H2215 C2239 0.950 . S
H2216 C2240 0.950 . S
H2217 C2241 0.951 . S
H2218 C2243 0.951 . S
H2219 C2245 0.950 . S
H2220 C2246 0.950 . S
H2221 C2248 0.950 . S
H2222 C2251 0.950 . S
H2223 C2252 0.950 . S
H2224 C2254 0.950 . S
H2225 C2255 0.950 . S
C2226 H2208 0.951 . S
C2226 C2227 1.366 . S
C2226 C2228 1.388 . S
C2227 C2226 1.366 . S
C2227 C2231 1.385 . S
C2228 H2209 0.951 . S
C2228 C2226 1.388 . S
C2228 C2229 1.366 . S
C2229 C2228 1.366 . S
C2229 C2230 1.414 . S
C2229 C2232 1.499 . S
C2230 H2210 0.950 . S
C2230 C2229 1.414 . S
C2230 C2231 1.374 . S
C2231 H2211 0.950 . S
C2231 C2227 1.385 . S
C2231 C2230 1.374 . S
C2232 C2229 1.499 . S
C2232 C2233 1.373 . S
C2232 C2234 1.389 . S
C2233 H2212 0.950 . S
C2233 C2232 1.373 . S
C2233 C2249 1.377 1_655 S
C2234 C2232 1.389 . S
C2234 C2235 1.524 . S
C2234 C2248 1.377 1_655 S
C2235 C2234 1.524 . S
C2235 C2236 1.397 . S
C2235 C2240 1.363 . S
C2236 H2213 0.950 . S
C2236 C2235 1.397 . S
C2236 C2237 1.334 . S
C2237 H2214 0.950 . S
C2237 C2236 1.334 . S
C2237 C2238 1.287 . S
C2238 C2237 1.287 . S
C2238 C2239 1.524 . S
C2238 H2257 0.913 . S
C2239 H2215 0.950 . S
C2239 C2238 1.524 . S
C2239 C2240 1.415 . S
C2240 H2216 0.950 . S
C2240 C2235 1.363 . S
C2240 C2239 1.415 . S
C2241 H2217 0.951 . S
C2241 C2242 1.366 . S
C2241 C2243 1.388 . S
C2242 C2241 1.366 . S
C2242 C2246 1.385 . S
C2243 H2218 0.951 . S
C2243 C2241 1.388 . S
C2243 C2244 1.366 . S
C2244 C2243 1.366 . S
C2244 C2245 1.414 . S
C2244 C2247 1.499 . S
C2245 H2219 0.950 . S
C2245 C2244 1.414 . S
C2245 C2246 1.374 . S
C2246 H2220 0.950 . S
C2246 C2242 1.385 . S
C2246 C2245 1.374 . S
C2247 C2244 1.499 . S
C2247 C2248 1.373 . S
C2247 C2249 1.389 . S
C2248 H2221 0.950 . S
C2248 C2234 1.377 1_455 S
C2248 C2247 1.373 . S
C2249 C2233 1.377 1_455 S
C2249 C2247 1.389 . S
C2249 C2250 1.524 . S
C2250 C2249 1.524 . S
C2250 C2251 1.397 . S
C2250 C2255 1.363 . S
C2251 H2222 0.950 . S
C2251 C2250 1.397 . S
C2251 C2252 1.334 . S
C2252 H2223 0.950 . S
C2252 C2251 1.334 . S
C2252 C2253 1.287 . S
C2253 C2252 1.287 . S
C2253 C2254 1.524 . S
C2253 H2256 0.999 . S
C2254 H2224 0.950 . S
C2254 C2253 1.524 . S
C2254 C2255 1.415 . S
C2255 H2225 0.950 . S
C2255 C2250 1.363 . S
C2255 C2254 1.415 . S
H2256 C2253 0.999 . S
H2257 C2238 0.913 . S
H2258 C2276 0.951 . S
H2259 C2278 0.951 . S
H2260 C2280 0.950 . S
H2261 C2281 0.950 . S
H2262 C2283 0.950 . S
H2263 C2286 0.950 . S
H2264 C2287 0.950 . S
H2265 C2289 0.950 . S
H2266 C2290 0.950 . S
H2267 C2291 0.951 . S
H2268 C2293 0.951 . S
H2269 C2295 0.950 . S
H2270 C2296 0.950 . S
H2271 C2298 0.950 . S
H2272 C2301 0.950 . S
H2273 C2302 0.950 . S
H2274 C2304 0.950 . S
H2275 C2305 0.950 . S
C2276 H2258 0.951 . S
C2276 C2277 1.366 . S
C2276 C2278 1.388 . S
C2277 C2276 1.366 . S
C2277 C2281 1.385 . S
C2278 H2259 0.951 . S
C2278 C2276 1.388 . S
C2278 C2279 1.366 . S
C2279 C2278 1.366 . S
C2279 C2280 1.414 . S
C2279 C2282 1.499 . S
C2280 H2260 0.950 . S
C2280 C2279 1.414 . S
C2280 C2281 1.374 . S
C2281 H2261 0.950 . S
C2281 C2277 1.385 . S
C2281 C2280 1.374 . S
C2282 C2279 1.499 . S
C2282 C2283 1.373 . S
C2282 C2284 1.389 . S
C2283 H2262 0.950 . S
C2283 C2282 1.373 . S
C2283 C2299 1.377 1_565 S
C2284 C2282 1.389 . S
C2284 C2285 1.524 . S
C2284 C2298 1.377 1_565 S
C2285 C2284 1.524 . S
C2285 C2286 1.397 . S
C2285 C2290 1.363 . S
C2286 H2263 0.950 . S
C2286 C2285 1.397 . S
C2286 C2287 1.334 . S
C2287 H2264 0.950 . S
C2287 C2286 1.334 . S
C2287 C2288 1.287 . S
C2288 C2287 1.287 . S
C2288 C2289 1.524 . S
C2288 H2307 0.913 . S
C2289 H2265 0.950 . S
C2289 C2288 1.524 . S
C2289 C2290 1.415 . S
C2290 H2266 0.950 . S
C2290 C2285 1.363 . S
C2290 C2289 1.415 . S
C2291 H2267 0.951 . S
C2291 C2292 1.366 . S
C2291 C2293 1.388 . S
C2292 C2291 1.366 . S
C2292 C2296 1.385 . S
C2293 H2268 0.951 . S
C2293 C2291 1.388 . S
C2293 C2294 1.366 . S
C2294 C2293 1.366 . S
C2294 C2295 1.414 . S
C2294 C2297 1.499 . S
C2295 H2269 0.950 . S
C2295 C2294 1.414 . S
C2295 C2296 1.374 . S
C2296 H2270 0.950 . S
C2296 C2292 1.385 . S
C2296 C2295 1.374 . S
C2297 C2294 1.499 . S
C2297 C2298 1.373 . S
C2297 C2299 1.389 . S
C2298 H2271 0.950 . S
C2298 C2284 1.377 1_545 S
C2298 C2297 1.373 . S
C2299 C2283 1.377 1_545 S
C2299 C2297 1.389 . S
C2299 C2300 1.524 . S
C2300 C2299 1.524 . S
C2300 C2301 1.397 . S
C2300 C2305 1.363 . S
C2301 H2272 0.950 . S
C2301 C2300 1.397 . S
C2301 C2302 1.334 . S
C2302 H2273 0.950 . S
C2302 C2301 1.334 . S
C2302 C2303 1.287 . S
C2303 C2302 1.287 . S
C2303 C2304 1.524 . S
C2303 H2306 0.999 . S
C2304 H2274 0.950 . S
C2304 C2303 1.524 . S
C2304 C2305 1.415 . S
C2305 H2275 0.950 . S
C2305 C2300 1.363 . S
C2305 C2304 1.415 . S
H2306 C2303 0.999 . S
H2307 C2288 0.913 . S
H2308 C2326 0.951 . S
H2309 C2328 0.951 . S
H2310 C2330 0.950 . S
H2311 C2331 0.950 . S
H2312 C2333 0.950 . S
H2313 C2336 0.950 . S
H2314 C2337 0.950 . S
H2315 C2339 0.950 . S
H2316 C2340 0.950 . S
H2317 C2341 0.951 . S
H2318 C2343 0.951 . S
H2319 C2345 0.950 . S
H2320 C2346 0.950 . S
H2321 C2348 0.950 . S
H2322 C2351 0.950 . S
H2323 C2352 0.950 . S
H2324 C2354 0.950 . S
H2325 C2355 0.950 . S
C2326 H2308 0.951 . S
C2326 C2327 1.366 . S
C2326 C2328 1.388 . S
C2327 C2326 1.366 . S
C2327 C2331 1.385 . S
C2328 H2309 0.951 . S
C2328 C2326 1.388 . S
C2328 C2329 1.366 . S
C2329 C2328 1.366 . S
C2329 C2330 1.414 . S
C2329 C2332 1.499 . S
C2330 H2310 0.950 . S
C2330 C2329 1.414 . S
C2330 C2331 1.374 . S
C2331 H2311 0.950 . S
C2331 C2327 1.385 . S
C2331 C2330 1.374 . S
C2332 C2329 1.499 . S
C2332 C2333 1.373 . S
C2332 C2334 1.389 . S
C2333 H2312 0.950 . S
C2333 C2332 1.373 . S
C2333 C2349 1.377 1_455 S
C2334 C2332 1.389 . S
C2334 C2335 1.524 . S
C2334 C2348 1.377 1_455 S
C2335 C2334 1.524 . S
C2335 C2336 1.397 . S
C2335 C2340 1.363 . S
C2336 H2313 0.950 . S
C2336 C2335 1.397 . S
C2336 C2337 1.334 . S
C2337 H2314 0.950 . S
C2337 C2336 1.334 . S
C2337 C2338 1.287 . S
C2338 C2337 1.287 . S
C2338 C2339 1.524 . S
C2338 H2357 0.913 . S
C2339 H2315 0.950 . S
C2339 C2338 1.524 . S
C2339 C2340 1.415 . S
C2340 H2316 0.950 . S
C2340 C2335 1.363 . S
C2340 C2339 1.415 . S
C2341 H2317 0.951 . S
C2341 C2342 1.366 . S
C2341 C2343 1.388 . S
C2342 C2341 1.366 . S
C2342 C2346 1.385 . S
C2343 H2318 0.951 . S
C2343 C2341 1.388 . S
C2343 C2344 1.366 . S
C2344 C2343 1.366 . S
C2344 C2345 1.414 . S
C2344 C2347 1.499 . S
C2345 H2319 0.950 . S
C2345 C2344 1.414 . S
C2345 C2346 1.374 . S
C2346 H2320 0.950 . S
C2346 C2342 1.385 . S
C2346 C2345 1.374 . S
C2347 C2344 1.499 . S
C2347 C2348 1.373 . S
C2347 C2349 1.389 . S
C2348 H2321 0.950 . S
C2348 C2334 1.377 1_655 S
C2348 C2347 1.373 . S
C2349 C2333 1.377 1_655 S
C2349 C2347 1.389 . S
C2349 C2350 1.524 . S
C2350 C2349 1.524 . S
C2350 C2351 1.397 . S
C2350 C2355 1.363 . S
C2351 H2322 0.950 . S
C2351 C2350 1.397 . S
C2351 C2352 1.334 . S
C2352 H2323 0.950 . S
C2352 C2351 1.334 . S
C2352 C2353 1.287 . S
C2353 C2352 1.287 . S
C2353 C2354 1.524 . S
C2353 H2356 0.999 . S
C2354 H2324 0.950 . S
C2354 C2353 1.524 . S
C2354 C2355 1.415 . S
C2355 H2325 0.950 . S
C2355 C2350 1.363 . S
C2355 C2354 1.415 . S
H2356 C2353 0.999 . S
H2357 C2338 0.913 . S
H2358 C2376 0.951 . S
H2359 C2378 0.951 . S
H2360 C2380 0.950 . S
H2361 C2381 0.950 . S
H2362 C2383 0.950 . S
H2363 C2386 0.950 . S
H2364 C2387 0.950 . S
H2365 C2389 0.950 . S
H2366 C2390 0.950 . S
H2367 C2391 0.951 . S
H2368 C2393 0.951 . S
H2369 C2395 0.950 . S
H2370 C2396 0.950 . S
H2371 C2398 0.950 . S
H2372 C2401 0.950 . S
H2373 C2402 0.950 . S
H2374 C2404 0.950 . S
H2375 C2405 0.950 . S
C2376 H2358 0.951 . S
C2376 C2377 1.366 . S
C2376 C2378 1.388 . S
C2377 C2376 1.366 . S
C2377 C2381 1.385 . S
C2378 H2359 0.951 . S
C2378 C2376 1.388 . S
C2378 C2379 1.366 . S
C2379 C2378 1.366 . S
C2379 C2380 1.414 . S
C2379 C2382 1.499 . S
C2380 H2360 0.950 . S
C2380 C2379 1.414 . S
C2380 C2381 1.374 . S
C2381 H2361 0.950 . S
C2381 C2377 1.385 . S
C2381 C2380 1.374 . S
C2382 C2379 1.499 . S
C2382 C2383 1.373 . S
C2382 C2384 1.389 . S
C2383 H2362 0.950 . S
C2383 C2382 1.373 . S
C2383 C2399 1.377 1_565 S
C2384 C2382 1.389 . S
C2384 C2385 1.524 . S
C2384 C2398 1.377 1_565 S
C2385 C2384 1.524 . S
C2385 C2386 1.397 . S
C2385 C2390 1.363 . S
C2386 H2363 0.950 . S
C2386 C2385 1.397 . S
C2386 C2387 1.334 . S
C2387 H2364 0.950 . S
C2387 C2386 1.334 . S
C2387 C2388 1.287 . S
C2388 C2387 1.287 . S
C2388 C2389 1.524 . S
C2388 H2407 0.913 . S
C2389 H2365 0.950 . S
C2389 C2388 1.524 . S
C2389 C2390 1.415 . S
C2390 H2366 0.950 . S
C2390 C2385 1.363 . S
C2390 C2389 1.415 . S
C2391 H2367 0.951 . S
C2391 C2392 1.366 . S
C2391 C2393 1.388 . S
C2392 C2391 1.366 . S
C2392 C2396 1.385 . S
C2393 H2368 0.951 . S
C2393 C2391 1.388 . S
C2393 C2394 1.366 . S
C2394 C2393 1.366 . S
C2394 C2395 1.414 . S
C2394 C2397 1.499 . S
C2395 H2369 0.950 . S
C2395 C2394 1.414 . S
C2395 C2396 1.374 . S
C2396 H2370 0.950 . S
C2396 C2392 1.385 . S
C2396 C2395 1.374 . S
C2397 C2394 1.499 . S
C2397 C2398 1.373 . S
C2397 C2399 1.389 . S
C2398 H2371 0.950 . S
C2398 C2384 1.377 1_545 S
C2398 C2397 1.373 . S
C2399 C2383 1.377 1_545 S
C2399 C2397 1.389 . S
C2399 C2400 1.524 . S
C2400 C2399 1.524 . S
C2400 C2401 1.397 . S
C2400 C2405 1.363 . S
C2401 H2372 0.950 . S
C2401 C2400 1.397 . S
C2401 C2402 1.334 . S
C2402 H2373 0.950 . S
C2402 C2401 1.334 . S
C2402 C2403 1.287 . S
C2403 C2402 1.287 . S
C2403 C2404 1.524 . S
C2403 H2406 0.999 . S
C2404 H2374 0.950 . S
C2404 C2403 1.524 . S
C2404 C2405 1.415 . S
C2405 H2375 0.950 . S
C2405 C2400 1.363 . S
C2405 C2404 1.415 . S
H2406 C2403 0.999 . S
H2407 C2388 0.913 . S
H2408 C2426 0.951 . S
H2409 C2428 0.951 . S
H2410 C2430 0.950 . S
H2411 C2431 0.950 . S
H2412 C2433 0.950 . S
H2413 C2436 0.950 . S
H2414 C2437 0.950 . S
H2415 C2439 0.950 . S
H2416 C2440 0.950 . S
H2417 C2441 0.951 . S
H2418 C2443 0.951 . S
H2419 C2445 0.950 . S
H2420 C2446 0.950 . S
H2421 C2448 0.950 . S
H2422 C2451 0.950 . S
H2423 C2452 0.950 . S
H2424 C2454 0.950 . S
H2425 C2455 0.950 . S
C2426 H2408 0.951 . S
C2426 C2427 1.366 . S
C2426 C2428 1.388 . S
C2427 C2426 1.366 . S
C2427 C2431 1.385 . S
C2428 H2409 0.951 . S
C2428 C2426 1.388 . S
C2428 C2429 1.366 . S
C2429 C2428 1.366 . S
C2429 C2430 1.414 . S
C2429 C2432 1.499 . S
C2430 H2410 0.950 . S
C2430 C2429 1.414 . S
C2430 C2431 1.374 . S
C2431 H2411 0.950 . S
C2431 C2427 1.385 . S
C2431 C2430 1.374 . S
C2432 C2429 1.499 . S
C2432 C2433 1.373 . S
C2432 C2434 1.389 . S
C2433 H2412 0.950 . S
C2433 C2432 1.373 . S
C2433 C2449 1.377 . S
C2434 C2432 1.389 . S
C2434 C2435 1.524 . S
C2434 C2448 1.377 . S
C2435 C2434 1.524 . S
C2435 C2436 1.397 . S
C2435 C2440 1.363 . S
C2436 H2413 0.950 . S
C2436 C2435 1.397 . S
C2436 C2437 1.334 . S
C2437 H2414 0.950 . S
C2437 C2436 1.334 . S
C2437 C2438 1.287 . S
C2438 C2437 1.287 . S
C2438 C2439 1.524 . S
C2438 H2457 0.913 . S
C2439 H2415 0.950 . S
C2439 C2438 1.524 . S
C2439 C2440 1.415 . S
C2440 H2416 0.950 . S
C2440 C2435 1.363 . S
C2440 C2439 1.415 . S
C2441 H2417 0.951 . S
C2441 C2442 1.366 . S
C2441 C2443 1.388 . S
C2442 C2441 1.366 . S
C2442 C2446 1.385 . S
C2443 H2418 0.951 . S
C2443 C2441 1.388 . S
C2443 C2444 1.366 . S
C2444 C2443 1.366 . S
C2444 C2445 1.414 . S
C2444 C2447 1.499 . S
C2445 H2419 0.950 . S
C2445 C2444 1.414 . S
C2445 C2446 1.374 . S
C2446 H2420 0.950 . S
C2446 C2442 1.385 . S
C2446 C2445 1.374 . S
C2447 C2444 1.499 . S
C2447 C2448 1.373 . S
C2447 C2449 1.389 . S
C2448 H2421 0.950 . S
C2448 C2434 1.377 . S
C2448 C2447 1.373 . S
C2449 C2433 1.377 . S
C2449 C2447 1.389 . S
C2449 C2450 1.524 . S
C2450 C2449 1.524 . S
C2450 C2451 1.397 . S
C2450 C2455 1.363 . S
C2451 H2422 0.950 . S
C2451 C2450 1.397 . S
C2451 C2452 1.334 . S
C2452 H2423 0.950 . S
C2452 C2451 1.334 . S
C2452 C2453 1.287 . S
C2453 C2452 1.287 . S
C2453 C2454 1.524 . S
C2453 H2456 0.999 . S
C2454 H2424 0.950 . S
C2454 C2453 1.524 . S
C2454 C2455 1.415 . S
C2455 H2425 0.950 . S
C2455 C2450 1.363 . S
C2455 C2454 1.415 . S
H2456 C2453 0.999 . S
H2457 C2438 0.913 . S
H2458 C2476 0.951 . S
H2459 C2478 0.951 . S
H2460 C2480 0.950 . S
H2461 C2481 0.950 . S
H2462 C2483 0.950 . S
H2463 C2486 0.950 . S
H2464 C2487 0.950 . S
H2465 C2489 0.950 . S
H2466 C2490 0.950 . S
H2467 C2491 0.951 . S
H2468 C2493 0.951 . S
H2469 C2495 0.950 . S
H2470 C2496 0.950 . S
H2471 C2498 0.950 . S
H2472 C2501 0.950 . S
H2473 C2502 0.950 . S
H2474 C2504 0.950 . S
H2475 C2505 0.950 . S
C2476 H2458 0.951 . S
C2476 C2477 1.366 . S
C2476 C2478 1.388 . S
C2477 C2476 1.366 . S
C2477 C2481 1.385 . S
C2478 H2459 0.951 . S
C2478 C2476 1.388 . S
C2478 C2479 1.366 . S
C2479 C2478 1.366 . S
C2479 C2480 1.414 . S
C2479 C2482 1.499 . S
C2480 H2460 0.950 . S
C2480 C2479 1.414 . S
C2480 C2481 1.374 . S
C2481 H2461 0.950 . S
C2481 C2477 1.385 . S
C2481 C2480 1.374 . S
C2482 C2479 1.499 . S
C2482 C2483 1.373 . S
C2482 C2484 1.389 . S
C2483 H2462 0.950 . S
C2483 C2482 1.373 . S
C2483 C2499 1.377 . S
C2484 C2482 1.389 . S
C2484 C2485 1.524 . S
C2484 C2498 1.377 . S
C2485 C2484 1.524 . S
C2485 C2486 1.397 . S
C2485 C2490 1.363 . S
C2486 H2463 0.950 . S
C2486 C2485 1.397 . S
C2486 C2487 1.334 . S
C2487 H2464 0.950 . S
C2487 C2486 1.334 . S
C2487 C2488 1.287 . S
C2488 C2487 1.287 . S
C2488 C2489 1.524 . S
C2488 H2507 0.913 . S
C2489 H2465 0.950 . S
C2489 C2488 1.524 . S
C2489 C2490 1.415 . S
C2490 H2466 0.950 . S
C2490 C2485 1.363 . S
C2490 C2489 1.415 . S
C2491 H2467 0.951 . S
C2491 C2492 1.366 . S
C2491 C2493 1.388 . S
C2492 C2491 1.366 . S
C2492 C2496 1.385 . S
C2493 H2468 0.951 . S
C2493 C2491 1.388 . S
C2493 C2494 1.366 . S
C2494 C2493 1.366 . S
C2494 C2495 1.414 . S
C2494 C2497 1.499 . S
C2495 H2469 0.950 . S
C2495 C2494 1.414 . S
C2495 C2496 1.374 . S
C2496 H2470 0.950 . S
C2496 C2492 1.385 . S
C2496 C2495 1.374 . S
C2497 C2494 1.499 . S
C2497 C2498 1.373 . S
C2497 C2499 1.389 . S
C2498 H2471 0.950 . S
C2498 C2484 1.377 . S
C2498 C2497 1.373 . S
C2499 C2483 1.377 . S
C2499 C2497 1.389 . S
C2499 C2500 1.524 . S
C2500 C2499 1.524 . S
C2500 C2501 1.397 . S
C2500 C2505 1.363 . S
C2501 H2472 0.950 . S
C2501 C2500 1.397 . S
C2501 C2502 1.334 . S
C2502 H2473 0.950 . S
C2502 C2501 1.334 . S
C2502 C2503 1.287 . S
C2503 C2502 1.287 . S
C2503 C2504 1.524 . S
C2503 H2506 0.999 . S
C2504 H2474 0.950 . S
C2504 C2503 1.524 . S
C2504 C2505 1.415 . S
C2505 H2475 0.950 . S
C2505 C2500 1.363 . S
C2505 C2504 1.415 . S
H2506 C2503 0.999 . S
H2507 C2488 0.913 . S
H2508 C2526 0.951 . S
H2509 C2528 0.951 . S
H2510 C2530 0.950 . S
H2511 C2531 0.950 . S
H2512 C2533 0.950 . S
H2513 C2536 0.950 . S
H2514 C2537 0.950 . S
H2515 C2539 0.950 . S
H2516 C2540 0.950 . S
H2517 C2541 0.951 . S
H2518 C2543 0.951 . S
H2519 C2545 0.950 . S
H2520 C2546 0.950 . S
H2521 C2548 0.950 . S
H2522 C2551 0.950 . S
H2523 C2552 0.950 . S
H2524 C2554 0.950 . S
H2525 C2555 0.950 . S
C2526 H2508 0.951 . S
C2526 C2527 1.366 . S
C2526 C2528 1.388 . S
C2527 C2526 1.366 . S
C2527 C2531 1.385 . S
C2528 H2509 0.951 . S
C2528 C2526 1.388 . S
C2528 C2529 1.366 . S
C2529 C2528 1.366 . S
C2529 C2530 1.414 . S
C2529 C2532 1.499 . S
C2530 H2510 0.950 . S
C2530 C2529 1.414 . S
C2530 C2531 1.374 . S
C2531 H2511 0.950 . S
C2531 C2527 1.385 . S
C2531 C2530 1.374 . S
C2532 C2529 1.499 . S
C2532 C2533 1.373 . S
C2532 C2534 1.389 . S
C2533 H2512 0.950 . S
C2533 C2532 1.373 . S
C2533 C2549 1.377 . S
C2534 C2532 1.389 . S
C2534 C2535 1.524 . S
C2534 C2548 1.377 . S
C2535 C2534 1.524 . S
C2535 C2536 1.397 . S
C2535 C2540 1.363 . S
C2536 H2513 0.950 . S
C2536 C2535 1.397 . S
C2536 C2537 1.334 . S
C2537 H2514 0.950 . S
C2537 C2536 1.334 . S
C2537 C2538 1.287 . S
C2538 C2537 1.287 . S
C2538 C2539 1.524 . S
C2538 H2557 0.913 . S
C2539 H2515 0.950 . S
C2539 C2538 1.524 . S
C2539 C2540 1.415 . S
C2540 H2516 0.950 . S
C2540 C2535 1.363 . S
C2540 C2539 1.415 . S
C2541 H2517 0.951 . S
C2541 C2542 1.366 . S
C2541 C2543 1.388 . S
C2542 C2541 1.366 . S
C2542 C2546 1.385 . S
C2543 H2518 0.951 . S
C2543 C2541 1.388 . S
C2543 C2544 1.366 . S
C2544 C2543 1.366 . S
C2544 C2545 1.414 . S
C2544 C2547 1.499 . S
C2545 H2519 0.950 . S
C2545 C2544 1.414 . S
C2545 C2546 1.374 . S
C2546 H2520 0.950 . S
C2546 C2542 1.385 . S
C2546 C2545 1.374 . S
C2547 C2544 1.499 . S
C2547 C2548 1.373 . S
C2547 C2549 1.389 . S
C2548 H2521 0.950 . S
C2548 C2534 1.377 . S
C2548 C2547 1.373 . S
C2549 C2533 1.377 . S
C2549 C2547 1.389 . S
C2549 C2550 1.524 . S
C2550 C2549 1.524 . S
C2550 C2551 1.397 . S
C2550 C2555 1.363 . S
C2551 H2522 0.950 . S
C2551 C2550 1.397 . S
C2551 C2552 1.334 . S
C2552 H2523 0.950 . S
C2552 C2551 1.334 . S
C2552 C2553 1.287 . S
C2553 C2552 1.287 . S
C2553 C2554 1.524 . S
C2553 H2556 0.999 . S
C2554 H2524 0.950 . S
C2554 C2553 1.524 . S
C2554 C2555 1.415 . S
C2555 H2525 0.950 . S
C2555 C2550 1.363 . S
C2555 C2554 1.415 . S
H2556 C2553 0.999 . S
H2557 C2538 0.913 . S
H2558 C2576 0.951 . S
H2559 C2578 0.951 . S
H2560 C2580 0.950 . S
H2561 C2581 0.950 . S
H2562 C2583 0.950 . S
H2563 C2586 0.950 . S
H2564 C2587 0.950 . S
H2565 C2589 0.950 . S
H2566 C2590 0.950 . S
H2567 C2591 0.951 . S
H2568 C2593 0.951 . S
H2569 C2595 0.950 . S
H2570 C2596 0.950 . S
H2571 C2598 0.950 . S
H2572 C2601 0.950 . S
H2573 C2602 0.950 . S
H2574 C2604 0.950 . S
H2575 C2605 0.950 . S
C2576 H2558 0.951 . S
C2576 C2577 1.366 . S
C2576 C2578 1.388 . S
C2577 C2576 1.366 . S
C2577 C2581 1.385 . S
C2578 H2559 0.951 . S
C2578 C2576 1.388 . S
C2578 C2579 1.366 . S
C2579 C2578 1.366 . S
C2579 C2580 1.414 . S
C2579 C2582 1.499 . S
C2580 H2560 0.950 . S
C2580 C2579 1.414 . S
C2580 C2581 1.374 . S
C2581 H2561 0.950 . S
C2581 C2577 1.385 . S
C2581 C2580 1.374 . S
C2582 C2579 1.499 . S
C2582 C2583 1.373 . S
C2582 C2584 1.389 . S
C2583 H2562 0.950 . S
C2583 C2582 1.373 . S
C2583 C2599 1.377 . S
C2584 C2582 1.389 . S
C2584 C2585 1.524 . S
C2584 C2598 1.377 . S
C2585 C2584 1.524 . S
C2585 C2586 1.397 . S
C2585 C2590 1.363 . S
C2586 H2563 0.950 . S
C2586 C2585 1.397 . S
C2586 C2587 1.334 . S
C2587 H2564 0.950 . S
C2587 C2586 1.334 . S
C2587 C2588 1.287 . S
C2588 C2587 1.287 . S
C2588 C2589 1.524 . S
C2588 H2607 0.913 . S
C2589 H2565 0.950 . S
C2589 C2588 1.524 . S
C2589 C2590 1.415 . S
C2590 H2566 0.950 . S
C2590 C2585 1.363 . S
C2590 C2589 1.415 . S
C2591 H2567 0.951 . S
C2591 C2592 1.366 . S
C2591 C2593 1.388 . S
C2592 C2591 1.366 . S
C2592 C2596 1.385 . S
C2593 H2568 0.951 . S
C2593 C2591 1.388 . S
C2593 C2594 1.366 . S
C2594 C2593 1.366 . S
C2594 C2595 1.414 . S
C2594 C2597 1.499 . S
C2595 H2569 0.950 . S
C2595 C2594 1.414 . S
C2595 C2596 1.374 . S
C2596 H2570 0.950 . S
C2596 C2592 1.385 . S
C2596 C2595 1.374 . S
C2597 C2594 1.499 . S
C2597 C2598 1.373 . S
C2597 C2599 1.389 . S
C2598 H2571 0.950 . S
C2598 C2584 1.377 . S
C2598 C2597 1.373 . S
C2599 C2583 1.377 . S
C2599 C2597 1.389 . S
C2599 C2600 1.524 . S
C2600 C2599 1.524 . S
C2600 C2601 1.397 . S
C2600 C2605 1.363 . S
C2601 H2572 0.950 . S
C2601 C2600 1.397 . S
C2601 C2602 1.334 . S
C2602 H2573 0.950 . S
C2602 C2601 1.334 . S
C2602 C2603 1.287 . S
C2603 C2602 1.287 . S
C2603 C2604 1.524 . S
C2603 H2606 0.999 . S
C2604 H2574 0.950 . S
C2604 C2603 1.524 . S
C2604 C2605 1.415 . S
C2605 H2575 0.950 . S
C2605 C2600 1.363 . S
C2605 C2604 1.415 . S
H2606 C2603 0.999 . S
H2607 C2588 0.913 . S
H2608 C2626 0.951 . S
H2609 C2628 0.951 . S
H2610 C2630 0.950 . S
H2611 C2631 0.950 . S
H2612 C2633 0.950 . S
H2613 C2636 0.950 . S
H2614 C2637 0.950 . S
H2615 C2639 0.950 . S
H2616 C2640 0.950 . S
H2617 C2641 0.951 . S
H2618 C2643 0.951 . S
H2619 C2645 0.950 . S
H2620 C2646 0.950 . S
H2621 C2648 0.950 . S
H2622 C2651 0.950 . S
H2623 C2652 0.950 . S
H2624 C2654 0.950 . S
H2625 C2655 0.950 . S
C2626 H2608 0.951 . S
C2626 C2627 1.366 . S
C2626 C2628 1.388 . S
C2627 C2626 1.366 . S
C2627 C2631 1.385 . S
C2628 H2609 0.951 . S
C2628 C2626 1.388 . S
C2628 C2629 1.366 . S
C2629 C2628 1.366 . S
C2629 C2630 1.414 . S
C2629 C2632 1.499 . S
C2630 H2610 0.950 . S
C2630 C2629 1.414 . S
C2630 C2631 1.374 . S
C2631 H2611 0.950 . S
C2631 C2627 1.385 . S
C2631 C2630 1.374 . S
C2632 C2629 1.499 . S
C2632 C2633 1.373 . S
C2632 C2634 1.389 . S
C2633 H2612 0.950 . S
C2633 C2632 1.373 . S
C2633 C2649 1.377 . S
C2634 C2632 1.389 . S
C2634 C2635 1.524 . S
C2634 C2648 1.377 . S
C2635 C2634 1.524 . S
C2635 C2636 1.397 . S
C2635 C2640 1.363 . S
C2636 H2613 0.950 . S
C2636 C2635 1.397 . S
C2636 C2637 1.334 . S
C2637 H2614 0.950 . S
C2637 C2636 1.334 . S
C2637 C2638 1.287 . S
C2638 C2637 1.287 . S
C2638 C2639 1.524 . S
C2638 H2657 0.913 . S
C2639 H2615 0.950 . S
C2639 C2638 1.524 . S
C2639 C2640 1.415 . S
C2640 H2616 0.950 . S
C2640 C2635 1.363 . S
C2640 C2639 1.415 . S
C2641 H2617 0.951 . S
C2641 C2642 1.366 . S
C2641 C2643 1.388 . S
C2642 C2641 1.366 . S
C2642 C2646 1.385 . S
C2643 H2618 0.951 . S
C2643 C2641 1.388 . S
C2643 C2644 1.366 . S
C2644 C2643 1.366 . S
C2644 C2645 1.414 . S
C2644 C2647 1.499 . S
C2645 H2619 0.950 . S
C2645 C2644 1.414 . S
C2645 C2646 1.374 . S
C2646 H2620 0.950 . S
C2646 C2642 1.385 . S
C2646 C2645 1.374 . S
C2647 C2644 1.499 . S
C2647 C2648 1.373 . S
C2647 C2649 1.389 . S
C2648 H2621 0.950 . S
C2648 C2634 1.377 . S
C2648 C2647 1.373 . S
C2649 C2633 1.377 . S
C2649 C2647 1.389 . S
C2649 C2650 1.524 . S
C2650 C2649 1.524 . S
C2650 C2651 1.397 . S
C2650 C2655 1.363 . S
C2651 H2622 0.950 . S
C2651 C2650 1.397 . S
C2651 C2652 1.334 . S
C2652 H2623 0.950 . S
C2652 C2651 1.334 . S
C2652 C2653 1.287 . S
C2653 C2652 1.287 . S
C2653 C2654 1.524 . S
C2653 H2656 0.999 . S
C2654 H2624 0.950 . S
C2654 C2653 1.524 . S
C2654 C2655 1.415 . S
C2655 H2625 0.950 . S
C2655 C2650 1.363 . S
C2655 C2654 1.415 . S
H2656 C2653 0.999 . S
H2657 C2638 0.913 . S
H2658 C2676 0.951 . S
H2659 C2678 0.951 . S
H2660 C2680 0.950 . S
H2661 C2681 0.950 . S
H2662 C2683 0.950 . S
H2663 C2686 0.950 . S
H2664 C2687 0.950 . S
H2665 C2689 0.950 . S
H2666 C2690 0.950 . S
H2667 C2691 0.951 . S
H2668 C2693 0.951 . S
H2669 C2695 0.950 . S
H2670 C2696 0.950 . S
H2671 C2698 0.950 . S
H2672 C2701 0.950 . S
H2673 C2702 0.950 . S
H2674 C2704 0.950 . S
H2675 C2705 0.950 . S
C2676 H2658 0.951 . S
C2676 C2677 1.366 . S
C2676 C2678 1.388 . S
C2677 C2676 1.366 . S
C2677 C2681 1.385 . S
C2678 H2659 0.951 . S
C2678 C2676 1.388 . S
C2678 C2679 1.366 . S
C2679 C2678 1.366 . S
C2679 C2680 1.414 . S
C2679 C2682 1.499 . S
C2680 H2660 0.950 . S
C2680 C2679 1.414 . S
C2680 C2681 1.374 . S
C2681 H2661 0.950 . S
C2681 C2677 1.385 . S
C2681 C2680 1.374 . S
C2682 C2679 1.499 . S
C2682 C2683 1.373 . S
C2682 C2684 1.389 . S
C2683 H2662 0.950 . S
C2683 C2682 1.373 . S
C2683 C2699 1.377 . S
C2684 C2682 1.389 . S
C2684 C2685 1.524 . S
C2684 C2698 1.377 . S
C2685 C2684 1.524 . S
C2685 C2686 1.397 . S
C2685 C2690 1.363 . S
C2686 H2663 0.950 . S
C2686 C2685 1.397 . S
C2686 C2687 1.334 . S
C2687 H2664 0.950 . S
C2687 C2686 1.334 . S
C2687 C2688 1.287 . S
C2688 C2687 1.287 . S
C2688 C2689 1.524 . S
C2688 H2707 0.913 . S
C2689 H2665 0.950 . S
C2689 C2688 1.524 . S
C2689 C2690 1.415 . S
C2690 H2666 0.950 . S
C2690 C2685 1.363 . S
C2690 C2689 1.415 . S
C2691 H2667 0.951 . S
C2691 C2692 1.366 . S
C2691 C2693 1.388 . S
C2692 C2691 1.366 . S
C2692 C2696 1.385 . S
C2693 H2668 0.951 . S
C2693 C2691 1.388 . S
C2693 C2694 1.366 . S
C2694 C2693 1.366 . S
C2694 C2695 1.414 . S
C2694 C2697 1.499 . S
C2695 H2669 0.950 . S
C2695 C2694 1.414 . S
C2695 C2696 1.374 . S
C2696 H2670 0.950 . S
C2696 C2692 1.385 . S
C2696 C2695 1.374 . S
C2697 C2694 1.499 . S
C2697 C2698 1.373 . S
C2697 C2699 1.389 . S
C2698 H2671 0.950 . S
C2698 C2684 1.377 . S
C2698 C2697 1.373 . S
C2699 C2683 1.377 . S
C2699 C2697 1.389 . S
C2699 C2700 1.524 . S
C2700 C2699 1.524 . S
C2700 C2701 1.397 . S
C2700 C2705 1.363 . S
C2701 H2672 0.950 . S
C2701 C2700 1.397 . S
C2701 C2702 1.334 . S
C2702 H2673 0.950 . S
C2702 C2701 1.334 . S
C2702 C2703 1.287 . S
C2703 C2702 1.287 . S
C2703 C2704 1.524 . S
C2703 H2706 0.999 . S
C2704 H2674 0.950 . S
C2704 C2703 1.524 . S
C2704 C2705 1.415 . S
C2705 H2675 0.950 . S
C2705 C2700 1.363 . S
C2705 C2704 1.415 . S
H2706 C2703 0.999 . S
H2707 C2688 0.913 . S
H2708 C2726 0.951 . S
H2709 C2728 0.951 . S
H2710 C2730 0.950 . S
H2711 C2731 0.950 . S
H2712 C2733 0.950 . S
H2713 C2736 0.950 . S
H2714 C2737 0.950 . S
H2715 C2739 0.950 . S
H2716 C2740 0.950 . S
H2717 C2741 0.951 . S
H2718 C2743 0.951 . S
H2719 C2745 0.950 . S
H2720 C2746 0.950 . S
H2721 C2748 0.950 . S
H2722 C2751 0.950 . S
H2723 C2752 0.950 . S
H2724 C2754 0.950 . S
H2725 C2755 0.950 . S
C2726 H2708 0.951 . S
C2726 C2727 1.366 . S
C2726 C2728 1.388 . S
C2727 C2726 1.366 . S
C2727 C2731 1.385 . S
C2728 H2709 0.951 . S
C2728 C2726 1.388 . S
C2728 C2729 1.366 . S
C2729 C2728 1.366 . S
C2729 C2730 1.414 . S
C2729 C2732 1.499 . S
C2730 H2710 0.950 . S
C2730 C2729 1.414 . S
C2730 C2731 1.374 . S
C2731 H2711 0.950 . S
C2731 C2727 1.385 . S
C2731 C2730 1.374 . S
C2732 C2729 1.499 . S
C2732 C2733 1.373 . S
C2732 C2734 1.389 . S
C2733 H2712 0.950 . S
C2733 C2732 1.373 . S
C2733 C2749 1.377 . S
C2734 C2732 1.389 . S
C2734 C2735 1.524 . S
C2734 C2748 1.377 . S
C2735 C2734 1.524 . S
C2735 C2736 1.397 . S
C2735 C2740 1.363 . S
C2736 H2713 0.950 . S
C2736 C2735 1.397 . S
C2736 C2737 1.334 . S
C2737 H2714 0.950 . S
C2737 C2736 1.334 . S
C2737 C2738 1.287 . S
C2738 C2737 1.287 . S
C2738 C2739 1.524 . S
C2738 H2757 0.913 . S
C2739 H2715 0.950 . S
C2739 C2738 1.524 . S
C2739 C2740 1.415 . S
C2740 H2716 0.950 . S
C2740 C2735 1.363 . S
C2740 C2739 1.415 . S
C2741 H2717 0.951 . S
C2741 C2742 1.366 . S
C2741 C2743 1.388 . S
C2742 C2741 1.366 . S
C2742 C2746 1.385 . S
C2743 H2718 0.951 . S
C2743 C2741 1.388 . S
C2743 C2744 1.366 . S
C2744 C2743 1.366 . S
C2744 C2745 1.414 . S
C2744 C2747 1.499 . S
C2745 H2719 0.950 . S
C2745 C2744 1.414 . S
C2745 C2746 1.374 . S
C2746 H2720 0.950 . S
C2746 C2742 1.385 . S
C2746 C2745 1.374 . S
C2747 C2744 1.499 . S
C2747 C2748 1.373 . S
C2747 C2749 1.389 . S
C2748 H2721 0.950 . S
C2748 C2734 1.377 . S
C2748 C2747 1.373 . S
C2749 C2733 1.377 . S
C2749 C2747 1.389 . S
C2749 C2750 1.524 . S
C2750 C2749 1.524 . S
C2750 C2751 1.397 . S
C2750 C2755 1.363 . S
C2751 H2722 0.950 . S
C2751 C2750 1.397 . S
C2751 C2752 1.334 . S
C2752 H2723 0.950 . S
C2752 C2751 1.334 . S
C2752 C2753 1.287 . S
C2753 C2752 1.287 . S
C2753 C2754 1.524 . S
C2753 H2756 0.999 . S
C2754 H2724 0.950 . S
C2754 C2753 1.524 . S
C2754 C2755 1.415 . S
C2755 H2725 0.950 . S
C2755 C2750 1.363 . S
C2755 C2754 1.415 . S
H2756 C2753 0.999 . S
H2757 C2738 0.913 . S
H2758 C2776 0.951 . S
H2759 C2778 0.951 . S
H2760 C2780 0.950 . S
H2761 C2781 0.950 . S
H2762 C2783 0.950 . S
H2763 C2786 0.950 . S
H2764 C2787 0.950 . S
H2765 C2789 0.950 . S
H2766 C2790 0.950 . S
H2767 C2791 0.951 . S
H2768 C2793 0.951 . S
H2769 C2795 0.950 . S
H2770 C2796 0.950 . S
H2771 C2798 0.950 . S
H2772 C2801 0.950 . S
H2773 C2802 0.950 . S
H2774 C2804 0.950 . S
H2775 C2805 0.950 . S
C2776 H2758 0.951 . S
C2776 C2777 1.366 . S
C2776 C2778 1.388 . S
C2777 C2776 1.366 . S
C2777 C2781 1.385 . S
C2778 H2759 0.951 . S
C2778 C2776 1.388 . S
C2778 C2779 1.366 . S
C2779 C2778 1.366 . S
C2779 C2780 1.414 . S
C2779 C2782 1.499 . S
C2780 H2760 0.950 . S
C2780 C2779 1.414 . S
C2780 C2781 1.374 . S
C2781 H2761 0.950 . S
C2781 C2777 1.385 . S
C2781 C2780 1.374 . S
C2782 C2779 1.499 . S
C2782 C2783 1.373 . S
C2782 C2784 1.389 . S
C2783 H2762 0.950 . S
C2783 C2782 1.373 . S
C2783 C2799 1.377 . S
C2784 C2782 1.389 . S
C2784 C2785 1.524 . S
C2784 C2798 1.377 . S
C2785 C2784 1.524 . S
C2785 C2786 1.397 . S
C2785 C2790 1.363 . S
C2786 H2763 0.950 . S
C2786 C2785 1.397 . S
C2786 C2787 1.334 . S
C2787 H2764 0.950 . S
C2787 C2786 1.334 . S
C2787 C2788 1.287 . S
C2788 C2787 1.287 . S
C2788 C2789 1.524 . S
C2788 H2807 0.913 . S
C2789 H2765 0.950 . S
C2789 C2788 1.524 . S
C2789 C2790 1.415 . S
C2790 H2766 0.950 . S
C2790 C2785 1.363 . S
C2790 C2789 1.415 . S
C2791 H2767 0.951 . S
C2791 C2792 1.366 . S
C2791 C2793 1.388 . S
C2792 C2791 1.366 . S
C2792 C2796 1.385 . S
C2793 H2768 0.951 . S
C2793 C2791 1.388 . S
C2793 C2794 1.366 . S
C2794 C2793 1.366 . S
C2794 C2795 1.414 . S
C2794 C2797 1.499 . S
C2795 H2769 0.950 . S
C2795 C2794 1.414 . S
C2795 C2796 1.374 . S
C2796 H2770 0.950 . S
C2796 C2792 1.385 . S
C2796 C2795 1.374 . S
C2797 C2794 1.499 . S
C2797 C2798 1.373 . S
C2797 C2799 1.389 . S
C2798 H2771 0.950 . S
C2798 C2784 1.377 . S
C2798 C2797 1.373 . S
C2799 C2783 1.377 . S
C2799 C2797 1.389 . S
C2799 C2800 1.524 . S
C2800 C2799 1.524 . S
C2800 C2801 1.397 . S
C2800 C2805 1.363 . S
C2801 H2772 0.950 . S
C2801 C2800 1.397 . S
C2801 C2802 1.334 . S
C2802 H2773 0.950 . S
C2802 C2801 1.334 . S
C2802 C2803 1.287 . S
C2803 C2802 1.287 . S
C2803 C2804 1.524 . S
C2803 H2806 0.999 . S
C2804 H2774 0.950 . S
C2804 C2803 1.524 . S
C2804 C2805 1.415 . S
C2805 H2775 0.950 . S
C2805 C2800 1.363 . S
C2805 C2804 1.415 . S
H2806 C2803 0.999 . S
H2807 C2788 0.913 . S
H2808 C2826 0.951 . S
H2809 C2828 0.951 . S
H2810 C2830 0.950 . S
H2811 C2831 0.950 . S
H2812 C2833 0.950 . S
H2813 C2836 0.950 . S
H2814 C2837 0.950 . S
H2815 C2839 0.950 . S
H2816 C2840 0.950 . S
H2817 C2841 0.951 . S
H2818 C2843 0.951 . S
H2819 C2845 0.950 . S
H2820 C2846 0.950 . S
H2821 C2848 0.950 . S
H2822 C2851 0.950 . S
H2823 C2852 0.950 . S
H2824 C2854 0.950 . S
H2825 C2855 0.950 . S
C2826 H2808 0.951 . S
C2826 C2827 1.366 . S
C2826 C2828 1.388 . S
C2827 C2826 1.366 . S
C2827 C2831 1.385 . S
C2828 H2809 0.951 . S
C2828 C2826 1.388 . S
C2828 C2829 1.366 . S
C2829 C2828 1.366 . S
C2829 C2830 1.414 . S
C2829 C2832 1.499 . S
C2830 H2810 0.950 . S
C2830 C2829 1.414 . S
C2830 C2831 1.374 . S
C2831 H2811 0.950 . S
C2831 C2827 1.385 . S
C2831 C2830 1.374 . S
C2832 C2829 1.499 . S
C2832 C2833 1.373 . S
C2832 C2834 1.389 . S
C2833 H2812 0.950 . S
C2833 C2832 1.373 . S
C2833 C2849 1.377 . S
C2834 C2832 1.389 . S
C2834 C2835 1.524 . S
C2834 C2848 1.377 . S
C2835 C2834 1.524 . S
C2835 C2836 1.397 . S
C2835 C2840 1.363 . S
C2836 H2813 0.950 . S
C2836 C2835 1.397 . S
C2836 C2837 1.334 . S
C2837 H2814 0.950 . S
C2837 C2836 1.334 . S
C2837 C2838 1.287 . S
C2838 C2837 1.287 . S
C2838 C2839 1.524 . S
C2838 H2857 0.913 . S
C2839 H2815 0.950 . S
C2839 C2838 1.524 . S
C2839 C2840 1.415 . S
C2840 H2816 0.950 . S
C2840 C2835 1.363 . S
C2840 C2839 1.415 . S
C2841 H2817 0.951 . S
C2841 C2842 1.366 . S
C2841 C2843 1.388 . S
C2842 C2841 1.366 . S
C2842 C2846 1.385 . S
C2843 H2818 0.951 . S
C2843 C2841 1.388 . S
C2843 C2844 1.366 . S
C2844 C2843 1.366 . S
C2844 C2845 1.414 . S
C2844 C2847 1.499 . S
C2845 H2819 0.950 . S
C2845 C2844 1.414 . S
C2845 C2846 1.374 . S
C2846 H2820 0.950 . S
C2846 C2842 1.385 . S
C2846 C2845 1.374 . S
C2847 C2844 1.499 . S
C2847 C2848 1.373 . S
C2847 C2849 1.389 . S
C2848 H2821 0.950 . S
C2848 C2834 1.377 . S
C2848 C2847 1.373 . S
C2849 C2833 1.377 . S
C2849 C2847 1.389 . S
C2849 C2850 1.524 . S
C2850 C2849 1.524 . S
C2850 C2851 1.397 . S
C2850 C2855 1.363 . S
C2851 H2822 0.950 . S
C2851 C2850 1.397 . S
C2851 C2852 1.334 . S
C2852 H2823 0.950 . S
C2852 C2851 1.334 . S
C2852 C2853 1.287 . S
C2853 C2852 1.287 . S
C2853 C2854 1.524 . S
C2853 H2856 0.999 . S
C2854 H2824 0.950 . S
C2854 C2853 1.524 . S
C2854 C2855 1.415 . S
C2855 H2825 0.950 . S
C2855 C2850 1.363 . S
C2855 C2854 1.415 . S
H2856 C2853 0.999 . S
H2857 C2838 0.913 . S
H2858 C2876 0.951 . S
H2859 C2878 0.951 . S
H2860 C2880 0.950 . S
H2861 C2881 0.950 . S
H2862 C2883 0.950 . S
H2863 C2886 0.950 . S
H2864 C2887 0.950 . S
H2865 C2889 0.950 . S
H2866 C2890 0.950 . S
H2867 C2891 0.951 . S
H2868 C2893 0.951 . S
H2869 C2895 0.950 . S
H2870 C2896 0.950 . S
H2871 C2898 0.950 . S
H2872 C2901 0.950 . S
H2873 C2902 0.950 . S
H2874 C2904 0.950 . S
H2875 C2905 0.950 . S
C2876 H2858 0.951 . S
C2876 C2877 1.366 . S
C2876 C2878 1.388 . S
C2877 C2876 1.366 . S
C2877 C2881 1.385 . S
C2878 H2859 0.951 . S
C2878 C2876 1.388 . S
C2878 C2879 1.366 . S
C2879 C2878 1.366 . S
C2879 C2880 1.414 . S
C2879 C2882 1.499 . S
C2880 H2860 0.950 . S
C2880 C2879 1.414 . S
C2880 C2881 1.374 . S
C2881 H2861 0.950 . S
C2881 C2877 1.385 . S
C2881 C2880 1.374 . S
C2882 C2879 1.499 . S
C2882 C2883 1.373 . S
C2882 C2884 1.389 . S
C2883 H2862 0.950 . S
C2883 C2882 1.373 . S
C2883 C2899 1.377 . S
C2884 C2882 1.389 . S
C2884 C2885 1.524 . S
C2884 C2898 1.377 . S
C2885 C2884 1.524 . S
C2885 C2886 1.397 . S
C2885 C2890 1.363 . S
C2886 H2863 0.950 . S
C2886 C2885 1.397 . S
C2886 C2887 1.334 . S
C2887 H2864 0.950 . S
C2887 C2886 1.334 . S
C2887 C2888 1.287 . S
C2888 C2887 1.287 . S
C2888 C2889 1.524 . S
C2888 H2907 0.913 . S
C2889 H2865 0.950 . S
C2889 C2888 1.524 . S
C2889 C2890 1.415 . S
C2890 H2866 0.950 . S
C2890 C2885 1.363 . S
C2890 C2889 1.415 . S
C2891 H2867 0.951 . S
C2891 C2892 1.366 . S
C2891 C2893 1.388 . S
C2892 C2891 1.366 . S
C2892 C2896 1.385 . S
C2893 H2868 0.951 . S
C2893 C2891 1.388 . S
C2893 C2894 1.366 . S
C2894 C2893 1.366 . S
C2894 C2895 1.414 . S
C2894 C2897 1.499 . S
C2895 H2869 0.950 . S
C2895 C2894 1.414 . S
C2895 C2896 1.374 . S
C2896 H2870 0.950 . S
C2896 C2892 1.385 . S
C2896 C2895 1.374 . S
C2897 C2894 1.499 . S
C2897 C2898 1.373 . S
C2897 C2899 1.389 . S
C2898 H2871 0.950 . S
C2898 C2884 1.377 . S
C2898 C2897 1.373 . S
C2899 C2883 1.377 . S
C2899 C2897 1.389 . S
C2899 C2900 1.524 . S
C2900 C2899 1.524 . S
C2900 C2901 1.397 . S
C2900 C2905 1.363 . S
C2901 H2872 0.950 . S
C2901 C2900 1.397 . S
C2901 C2902 1.334 . S
C2902 H2873 0.950 . S
C2902 C2901 1.334 . S
C2902 C2903 1.287 . S
C2903 C2902 1.287 . S
C2903 C2904 1.524 . S
C2903 H2906 0.999 . S
C2904 H2874 0.950 . S
C2904 C2903 1.524 . S
C2904 C2905 1.415 . S
C2905 H2875 0.950 . S
C2905 C2900 1.363 . S
C2905 C2904 1.415 . S
H2906 C2903 0.999 . S
H2907 C2888 0.913 . S
H2908 C2926 0.951 . S
H2909 C2928 0.951 . S
H2910 C2930 0.950 . S
H2911 C2931 0.950 . S
H2912 C2933 0.950 . S
H2913 C2936 0.950 . S
H2914 C2937 0.950 . S
H2915 C2939 0.950 . S
H2916 C2940 0.950 . S
H2917 C2941 0.951 . S
H2918 C2943 0.951 . S
H2919 C2945 0.950 . S
H2920 C2946 0.950 . S
H2921 C2948 0.950 . S
H2922 C2951 0.950 . S
H2923 C2952 0.950 . S
H2924 C2954 0.950 . S
H2925 C2955 0.950 . S
C2926 H2908 0.951 . S
C2926 C2927 1.366 . S
C2926 C2928 1.388 . S
C2927 C2926 1.366 . S
C2927 C2931 1.385 . S
C2928 H2909 0.951 . S
C2928 C2926 1.388 . S
C2928 C2929 1.366 . S
C2929 C2928 1.366 . S
C2929 C2930 1.414 . S
C2929 C2932 1.499 . S
C2930 H2910 0.950 . S
C2930 C2929 1.414 . S
C2930 C2931 1.374 . S
C2931 H2911 0.950 . S
C2931 C2927 1.385 . S
C2931 C2930 1.374 . S
C2932 C2929 1.499 . S
C2932 C2933 1.373 . S
C2932 C2934 1.389 . S
C2933 H2912 0.950 . S
C2933 C2932 1.373 . S
C2933 C2949 1.377 . S
C2934 C2932 1.389 . S
C2934 C2935 1.524 . S
C2934 C2948 1.377 . S
C2935 C2934 1.524 . S
C2935 C2936 1.397 . S
C2935 C2940 1.363 . S
C2936 H2913 0.950 . S
C2936 C2935 1.397 . S
C2936 C2937 1.334 . S
C2937 H2914 0.950 . S
C2937 C2936 1.334 . S
C2937 C2938 1.287 . S
C2938 C2937 1.287 . S
C2938 C2939 1.524 . S
C2938 H2957 0.913 . S
C2939 H2915 0.950 . S
C2939 C2938 1.524 . S
C2939 C2940 1.415 . S
C2940 H2916 0.950 . S
C2940 C2935 1.363 . S
C2940 C2939 1.415 . S
C2941 H2917 0.951 . S
C2941 C2942 1.366 . S
C2941 C2943 1.388 . S
C2942 C2941 1.366 . S
C2942 C2946 1.385 . S
C2943 H2918 0.951 . S
C2943 C2941 1.388 . S
C2943 C2944 1.366 . S
C2944 C2943 1.366 . S
C2944 C2945 1.414 . S
C2944 C2947 1.499 . S
C2945 H2919 0.950 . S
C2945 C2944 1.414 . S
C2945 C2946 1.374 . S
C2946 H2920 0.950 . S
C2946 C2942 1.385 . S
C2946 C2945 1.374 . S
C2947 C2944 1.499 . S
C2947 C2948 1.373 . S
C2947 C2949 1.389 . S
C2948 H2921 0.950 . S
C2948 C2934 1.377 . S
C2948 C2947 1.373 . S
C2949 C2933 1.377 . S
C2949 C2947 1.389 . S
C2949 C2950 1.524 . S
C2950 C2949 1.524 . S
C2950 C2951 1.397 . S
C2950 C2955 1.363 . S
C2951 H2922 0.950 . S
C2951 C2950 1.397 . S
C2951 C2952 1.334 . S
C2952 H2923 0.950 . S
C2952 C2951 1.334 . S
C2952 C2953 1.287 . S
C2953 C2952 1.287 . S
C2953 C2954 1.524 . S
C2953 H2956 0.999 . S
C2954 H2924 0.950 . S
C2954 C2953 1.524 . S
C2954 C2955 1.415 . S
C2955 H2925 0.950 . S
C2955 C2950 1.363 . S
C2955 C2954 1.415 . S
H2956 C2953 0.999 . S
H2957 C2938 0.913 . S
H2958 C2976 0.951 . S
H2959 C2978 0.951 . S
H2960 C2980 0.950 . S
H2961 C2981 0.950 . S
H2962 C2983 0.950 . S
H2963 C2986 0.950 . S
H2964 C2987 0.950 . S
H2965 C2989 0.950 . S
H2966 C2990 0.950 . S
H2967 C2991 0.951 . S
H2968 C2993 0.951 . S
H2969 C2995 0.950 . S
H2970 C2996 0.950 . S
H2971 C2998 0.950 . S
H2972 C3001 0.950 . S
H2973 C3002 0.950 . S
H2974 C3004 0.950 . S
H2975 C3005 0.950 . S
C2976 H2958 0.951 . S
C2976 C2977 1.366 . S
C2976 C2978 1.388 . S
C2977 C2976 1.366 . S
C2977 C2981 1.385 . S
C2978 H2959 0.951 . S
C2978 C2976 1.388 . S
C2978 C2979 1.366 . S
C2979 C2978 1.366 . S
C2979 C2980 1.414 . S
C2979 C2982 1.499 . S
C2980 H2960 0.950 . S
C2980 C2979 1.414 . S
C2980 C2981 1.374 . S
C2981 H2961 0.950 . S
C2981 C2977 1.385 . S
C2981 C2980 1.374 . S
C2982 C2979 1.499 . S
C2982 C2983 1.373 . S
C2982 C2984 1.389 . S
C2983 H2962 0.950 . S
C2983 C2982 1.373 . S
C2983 C2999 1.377 . S
C2984 C2982 1.389 . S
C2984 C2985 1.524 . S
C2984 C2998 1.377 . S
C2985 C2984 1.524 . S
C2985 C2986 1.397 . S
C2985 C2990 1.363 . S
C2986 H2963 0.950 . S
C2986 C2985 1.397 . S
C2986 C2987 1.334 . S
C2987 H2964 0.950 . S
C2987 C2986 1.334 . S
C2987 C2988 1.287 . S
C2988 C2987 1.287 . S
C2988 C2989 1.524 . S
C2988 H3007 0.913 . S
C2989 H2965 0.950 . S
C2989 C2988 1.524 . S
C2989 C2990 1.415 . S
C2990 H2966 0.950 . S
C2990 C2985 1.363 . S
C2990 C2989 1.415 . S
C2991 H2967 0.951 . S
C2991 C2992 1.366 . S
C2991 C2993 1.388 . S
C2992 C2991 1.366 . S
C2992 C2996 1.385 . S
C2993 H2968 0.951 . S
C2993 C2991 1.388 . S
C2993 C2994 1.366 . S
C2994 C2993 1.366 . S
C2994 C2995 1.414 . S
C2994 C2997 1.499 . S
C2995 H2969 0.950 . S
C2995 C2994 1.414 . S
C2995 C2996 1.374 . S
C2996 H2970 0.950 . S
C2996 C2992 1.385 . S
C2996 C2995 1.374 . S
C2997 C2994 1.499 . S
C2997 C2998 1.373 . S
C2997 C2999 1.389 . S
C2998 H2971 0.950 . S
C2998 C2984 1.377 . S
C2998 C2997 1.373 . S
C2999 C2983 1.377 . S
C2999 C2997 1.389 . S
C2999 C3000 1.524 . S
C3000 C2999 1.524 . S
C3000 C3001 1.397 . S
C3000 C3005 1.363 . S
C3001 H2972 0.950 . S
C3001 C3000 1.397 . S
C3001 C3002 1.334 . S
C3002 H2973 0.950 . S
C3002 C3001 1.334 . S
C3002 C3003 1.287 . S
C3003 C3002 1.287 . S
C3003 C3004 1.524 . S
C3003 H3006 0.999 . S
C3004 H2974 0.950 . S
C3004 C3003 1.524 . S
C3004 C3005 1.415 . S
C3005 H2975 0.950 . S
C3005 C3000 1.363 . S
C3005 C3004 1.415 . S
H3006 C3003 0.999 . S
H3007 C2988 0.913 . S
C1427 C1377 0.309 . S
C1442 C29 0.309 . S
C1477 C1105 0.311 . S
C1492 C108 0.311 . S
C1527 C233 0.310 . S
C1542 C1193 0.310 . S
C1577 C1289 0.314 . S
C1592 C293 0.314 . S
C1627 C821 0.311 . S
C1642 C401 0.311 . S
C1677 C489 0.311 . S
C1692 C937 0.310 . S
C1727 C577 0.314 . S
C1742 C997 0.313 . S
C1777 C673 0.309 . S
C1792 C724 0.309 . S
C1827 C460 1.419 . S
C1842 C20 1.415 . S
C1877 C557 1.416 . S
C1892 C145 1.417 . S
C1927 C645 1.426 . S
C1942 C225 1.421 . S
C1977 C321 1.429 . S
C1992 C381 1.422 . S
C2027 C57 1.433 . S
C2042 C137 1.433 . S
C2077 C196 1.417 . S
C2092 C117 1.418 . S
C2127 C205 1.425 . S
C2142 C284 1.420 . S
C2177 C49 1.405 . S
C2192 C313 1.405 . S
C2227 C665 1.404 . S
C2242 C409 1.405 . S
C2277 C372 1.433 . S
C2292 C469 1.427 . S
C2327 C497 1.416 . S
C2342 C585 1.417 . S
C2377 C636 1.439 . S
C2392 C548 1.445 . S
C2427 C1164 1.420 . S
C2442 C733 1.415 . S
C2477 C841 1.417 . S
C2492 C1252 1.416 . S
C2527 C1349 1.426 . S
C2542 C929 1.421 . S
C2577 C1085 1.422 . S
C2592 C1025 1.429 . S
C2627 C753 1.433 . S
C2642 C849 1.433 . S
C2677 C812 1.418 . S
C2692 C900 1.416 . S
C2727 C988 1.420 . S
C2742 C909 1.425 . S
C2777 C761 1.405 . S
C2792 C1017 1.405 . S
C2827 C1369 1.404 . S
C2842 C1113 1.405 . S
C2877 C1076 1.433 . S
C2892 C1173 1.427 . S
C2927 C1201 1.416 . S
C2942 C1281 1.417 . S
C2977 C1340 1.439 . S
C2992 C1261 1.446 . S
