# Generated by pormake.
# Topology uke, (4)-cn, num edge types: 1
# Building blocks:
#     Node 0, Type 0, BuildingBlock: ICAMEG_clean_sbu_1, # of connection points: 4
#     Node 1, Type 0, BuildingBlock: ICAMEG_clean_sbu_1, # of connection points: 4
#     Node 2, Type 0, BuildingBlock: ICAMEG_clean_sbu_1, # of connection points: 4
#     Node 3, Type 0, BuildingBlock: ICAMEG_clean_sbu_1, # of connection points: 4
#     Node 4, Type 0, BuildingBlock: ICAMEG_clean_sbu_1, # of connection points: 4
#     Node 5, Type 0, BuildingBlock: ICAMEG_clean_sbu_1, # of connection points: 4
#     Node 6, Type 0, BuildingBlock: ICAMEG_clean_sbu_1, # of connection points: 4
#     Node 7, Type 0, BuildingBlock: ICAMEG_clean_sbu_1, # of connection points: 4
#     Node 8, Type 0, BuildingBlock: ICAMEG_clean_sbu_1, # of connection points: 4
#     Node 9, Type 0, BuildingBlock: ICAMEG_clean_sbu_1, # of connection points: 4
#     Node 10, Type 0, BuildingBlock: ICAMEG_clean_sbu_1, # of connection points: 4
#     Node 11, Type 0, BuildingBlock: ICAMEG_clean_sbu_1, # of connection points: 4
#     Node 12, Type 0, BuildingBlock: ICAMEG_clean_sbu_1, # of connection points: 4
#     Node 13, Type 0, BuildingBlock: ICAMEG_clean_sbu_1, # of connection points: 4
#     Node 14, Type 0, BuildingBlock: ICAMEG_clean_sbu_1, # of connection points: 4
#     Node 15, Type 0, BuildingBlock: ICAMEG_clean_sbu_1, # of connection points: 4
#     Node 16, Type 0, BuildingBlock: ICAMEG_clean_sbu_1, # of connection points: 4
#     Node 17, Type 0, BuildingBlock: ICAMEG_clean_sbu_1, # of connection points: 4
#     Node 18, Type 0, BuildingBlock: ICAMEG_clean_sbu_1, # of connection points: 4
#     Node 19, Type 0, BuildingBlock: ICAMEG_clean_sbu_1, # of connection points: 4
#     Node 20, Type 0, BuildingBlock: ICAMEG_clean_sbu_1, # of connection points: 4
#     Node 21, Type 0, BuildingBlock: ICAMEG_clean_sbu_1, # of connection points: 4
#     Node 22, Type 0, BuildingBlock: ICAMEG_clean_sbu_1, # of connection points: 4
#     Node 23, Type 0, BuildingBlock: ICAMEG_clean_sbu_1, # of connection points: 4
#     Node 24, Type 0, BuildingBlock: ICAMEG_clean_sbu_1, # of connection points: 4
#     Node 25, Type 0, BuildingBlock: ICAMEG_clean_sbu_1, # of connection points: 4
#     Node 26, Type 0, BuildingBlock: ICAMEG_clean_sbu_1, # of connection points: 4
#     Node 27, Type 0, BuildingBlock: ICAMEG_clean_sbu_1, # of connection points: 4
#     Node 28, Type 0, BuildingBlock: ICAMEG_clean_sbu_1, # of connection points: 4
#     Node 29, Type 0, BuildingBlock: ICAMEG_clean_sbu_1, # of connection points: 4
#     Node 30, Type 0, BuildingBlock: ICAMEG_clean_sbu_1, # of connection points: 4
#     Node 31, Type 0, BuildingBlock: ICAMEG_clean_sbu_1, # of connection points: 4
#     Edge 32, Type (0, 0), BuildingBlock: KIFKEQ_clean_linker_1, # of connection points: 2
#     Edge 33, Type (0, 0), BuildingBlock: KIFKEQ_clean_linker_1, # of connection points: 2
#     Edge 34, Type (0, 0), BuildingBlock: KIFKEQ_clean_linker_1, # of connection points: 2
#     Edge 35, Type (0, 0), BuildingBlock: KIFKEQ_clean_linker_1, # of connection points: 2
#     Edge 36, Type (0, 0), BuildingBlock: KIFKEQ_clean_linker_1, # of connection points: 2
#     Edge 37, Type (0, 0), BuildingBlock: KIFKEQ_clean_linker_1, # of connection points: 2
#     Edge 38, Type (0, 0), BuildingBlock: KIFKEQ_clean_linker_1, # of connection points: 2
#     Edge 39, Type (0, 0), BuildingBlock: KIFKEQ_clean_linker_1, # of connection points: 2
#     Edge 40, Type (0, 0), BuildingBlock: KIFKEQ_clean_linker_1, # of connection points: 2
#     Edge 41, Type (0, 0), BuildingBlock: KIFKEQ_clean_linker_1, # of connection points: 2
#     Edge 42, Type (0, 0), BuildingBlock: KIFKEQ_clean_linker_1, # of connection points: 2
#     Edge 43, Type (0, 0), BuildingBlock: KIFKEQ_clean_linker_1, # of connection points: 2
#     Edge 44, Type (0, 0), BuildingBlock: KIFKEQ_clean_linker_1, # of connection points: 2
#     Edge 45, Type (0, 0), BuildingBlock: KIFKEQ_clean_linker_1, # of connection points: 2
#     Edge 46, Type (0, 0), BuildingBlock: KIFKEQ_clean_linker_1, # of connection points: 2
#     Edge 47, Type (0, 0), BuildingBlock: KIFKEQ_clean_linker_1, # of connection points: 2
#     Edge 48, Type (0, 0), BuildingBlock: KIFKEQ_clean_linker_1, # of connection points: 2
#     Edge 49, Type (0, 0), BuildingBlock: KIFKEQ_clean_linker_1, # of connection points: 2
#     Edge 50, Type (0, 0), BuildingBlock: KIFKEQ_clean_linker_1, # of connection points: 2
#     Edge 51, Type (0, 0), BuildingBlock: KIFKEQ_clean_linker_1, # of connection points: 2
#     Edge 52, Type (0, 0), BuildingBlock: KIFKEQ_clean_linker_1, # of connection points: 2
#     Edge 53, Type (0, 0), BuildingBlock: KIFKEQ_clean_linker_1, # of connection points: 2
#     Edge 54, Type (0, 0), BuildingBlock: KIFKEQ_clean_linker_1, # of connection points: 2
#     Edge 55, Type (0, 0), BuildingBlock: KIFKEQ_clean_linker_1, # of connection points: 2
#     Edge 56, Type (0, 0), BuildingBlock: KIFKEQ_clean_linker_1, # of connection points: 2
#     Edge 57, Type (0, 0), BuildingBlock: KIFKEQ_clean_linker_1, # of connection points: 2
#     Edge 58, Type (0, 0), BuildingBlock: KIFKEQ_clean_linker_1, # of connection points: 2
#     Edge 59, Type (0, 0), BuildingBlock: KIFKEQ_clean_linker_1, # of connection points: 2
#     Edge 60, Type (0, 0), BuildingBlock: KIFKEQ_clean_linker_1, # of connection points: 2
#     Edge 61, Type (0, 0), BuildingBlock: KIFKEQ_clean_linker_1, # of connection points: 2
#     Edge 62, Type (0, 0), BuildingBlock: KIFKEQ_clean_linker_1, # of connection points: 2
#     Edge 63, Type (0, 0), BuildingBlock: KIFKEQ_clean_linker_1, # of connection points: 2
#     Edge 64, Type (0, 0), BuildingBlock: KIFKEQ_clean_linker_1, # of connection points: 2
#     Edge 65, Type (0, 0), BuildingBlock: KIFKEQ_clean_linker_1, # of connection points: 2
#     Edge 66, Type (0, 0), BuildingBlock: KIFKEQ_clean_linker_1, # of connection points: 2
#     Edge 67, Type (0, 0), BuildingBlock: KIFKEQ_clean_linker_1, # of connection points: 2
#     Edge 68, Type (0, 0), BuildingBlock: KIFKEQ_clean_linker_1, # of connection points: 2
#     Edge 69, Type (0, 0), BuildingBlock: KIFKEQ_clean_linker_1, # of connection points: 2
#     Edge 70, Type (0, 0), BuildingBlock: KIFKEQ_clean_linker_1, # of connection points: 2
#     Edge 71, Type (0, 0), BuildingBlock: KIFKEQ_clean_linker_1, # of connection points: 2
#     Edge 72, Type (0, 0), BuildingBlock: KIFKEQ_clean_linker_1, # of connection points: 2
#     Edge 73, Type (0, 0), BuildingBlock: KIFKEQ_clean_linker_1, # of connection points: 2
#     Edge 74, Type (0, 0), BuildingBlock: KIFKEQ_clean_linker_1, # of connection points: 2
#     Edge 75, Type (0, 0), BuildingBlock: KIFKEQ_clean_linker_1, # of connection points: 2
#     Edge 76, Type (0, 0), BuildingBlock: KIFKEQ_clean_linker_1, # of connection points: 2
#     Edge 77, Type (0, 0), BuildingBlock: KIFKEQ_clean_linker_1, # of connection points: 2
#     Edge 78, Type (0, 0), BuildingBlock: KIFKEQ_clean_linker_1, # of connection points: 2
#     Edge 79, Type (0, 0), BuildingBlock: KIFKEQ_clean_linker_1, # of connection points: 2
#     Edge 80, Type (0, 0), BuildingBlock: KIFKEQ_clean_linker_1, # of connection points: 2
#     Edge 81, Type (0, 0), BuildingBlock: KIFKEQ_clean_linker_1, # of connection points: 2
#     Edge 82, Type (0, 0), BuildingBlock: KIFKEQ_clean_linker_1, # of connection points: 2
#     Edge 83, Type (0, 0), BuildingBlock: KIFKEQ_clean_linker_1, # of connection points: 2
#     Edge 84, Type (0, 0), BuildingBlock: KIFKEQ_clean_linker_1, # of connection points: 2
#     Edge 85, Type (0, 0), BuildingBlock: KIFKEQ_clean_linker_1, # of connection points: 2
#     Edge 86, Type (0, 0), BuildingBlock: KIFKEQ_clean_linker_1, # of connection points: 2
#     Edge 87, Type (0, 0), BuildingBlock: KIFKEQ_clean_linker_1, # of connection points: 2
#     Edge 88, Type (0, 0), BuildingBlock: KIFKEQ_clean_linker_1, # of connection points: 2
#     Edge 89, Type (0, 0), BuildingBlock: KIFKEQ_clean_linker_1, # of connection points: 2
#     Edge 90, Type (0, 0), BuildingBlock: KIFKEQ_clean_linker_1, # of connection points: 2
#     Edge 91, Type (0, 0), BuildingBlock: KIFKEQ_clean_linker_1, # of connection points: 2
#     Edge 92, Type (0, 0), BuildingBlock: KIFKEQ_clean_linker_1, # of connection points: 2
#     Edge 93, Type (0, 0), BuildingBlock: KIFKEQ_clean_linker_1, # of connection points: 2
#     Edge 94, Type (0, 0), BuildingBlock: KIFKEQ_clean_linker_1, # of connection points: 2
#     Edge 95, Type (0, 0), BuildingBlock: KIFKEQ_clean_linker_1, # of connection points: 2
# Relax obj value: 0.041
# Max RMSD: 0.111
# Mean RMSD: 0.111
data_MOF--net-uke--node1-ICAMEG_clean_sbu_1--edge1-KIFKEQ_clean_linker_1
_symmetry_space_group_name_H-M    P1
_symmetry_Int_Tables_number       1
_symmetry_cell_setting            triclinic
loop_
_symmetry_equiv_pos_as_xyz
'x, y, z'
_cell_length_a     20.577977
_cell_length_b     121.73653
_cell_length_c     58.442948
_cell_angle_alpha  89.997502
_cell_angle_beta   89.996507
_cell_angle_gamma 89.999453
loop_
_atom_site_label
_atom_site_type_symbol
_atom_site_fract_x
_atom_site_fract_y
_atom_site_fract_z
_atom_type_partial_charge
Co0 Co 0.16457 0.06008 0.25995 0.0
Co1 Co 0.01526 0.0473 0.25515 0.0
O2 O 0.07317 0.05838 0.2682 0.0
C3 C 0.1086 0.08196 0.25136 0.0
O4 O 0.06077 0.07691 0.24085 0.0
C5 C 0.00632 0.04413 0.3053 0.0
O6 O 0.07001 0.0447 0.30574 0.0
O7 O 0.07991 0.03541 0.26087 0.0
O8 O 0.17693 0.04384 0.25896 0.0
H9 H 0.95751 0.01507 0.20546 0.0
H10 H 0.11311 0.07186 0.30045 0.0
O11 O 0.15433 0.07642 0.26045 0.0
H12 H 0.2863 0.04777 0.33015 0.0
H13 H 0.38544 0.07769 0.26507 0.0
H14 H 0.2531 0.04941 0.22663 0.0
H15 H 0.26112 0.04819 0.28889 0.0
H16 H 0.27035 0.07504 0.27553 0.0
O17 O 0.97619 0.04478 0.28628 0.0
H18 H 0.03016 0.02921 0.2216 0.0
H19 H 0.87553 0.04174 0.26206 0.0
H20 H 0.36812 0.05171 0.21576 0.0
H21 H 0.137 0.07176 0.34182 0.0
H22 H 0.43512 0.06593 0.23504 0.0
H23 H 0.22402 0.05962 0.35691 0.0
O24 O 0.14305 0.05998 0.22682 0.0
H25 H 0.88302 0.08056 0.27579 0.0
H26 H 0.93525 0.05395 0.2149 0.0
H27 H 0.85766 0.06892 0.20703 0.0
H28 H 0.83104 0.08235 0.23761 0.0
H29 H 0.96079 0.06552 0.28286 0.0
H30 H 0.80132 0.02768 0.24649 0.0
H31 H 0.84219 0.01425 0.21791 0.0
O32 O 0.05274 0.04968 0.22379 0.0
C33 C 0.14192 0.03521 0.26018 0.0
C34 C 0.93908 0.0209 0.21784 0.0
C35 C 0.85144 0.02797 0.2409 0.0
N36 N 0.95696 0.03634 0.24261 0.0
C37 C 0.97993 0.02894 0.22699 0.0
C38 C 0.89371 0.03589 0.24969 0.0
C39 C 0.8744 0.02044 0.22486 0.0
C40 C 0.15151 0.06665 0.30687 0.0
N41 N 0.18589 0.06009 0.29227 0.0
C42 C 0.16462 0.06659 0.33032 0.0
C43 C 0.21338 0.05976 0.33878 0.0
C44 C 0.2483 0.0531 0.32377 0.0
C45 C 0.23374 0.05336 0.30044 0.0
C46 C 0.35681 0.07144 0.25659 0.0
C47 C 0.28208 0.05556 0.23522 0.0
C48 C 0.29161 0.06991 0.26242 0.0
N49 N 0.25527 0.062 0.25187 0.0
C50 C 0.34712 0.05685 0.22893 0.0
C51 C 0.38465 0.06484 0.23974 0.0
C52 C 0.10002 0.05502 0.21498 0.0
C53 C 0.89409 0.07474 0.26234 0.0
C54 C 0.92406 0.05978 0.22827 0.0
C55 C 0.87997 0.06822 0.22373 0.0
C56 C 0.86502 0.07575 0.24091 0.0
N57 N 0.95234 0.05884 0.24935 0.0
C58 C 0.93787 0.06618 0.26628 0.0
Co59 Co 0.08385 0.18677 0.26176 0.0
Co60 Co 0.23724 0.19806 0.25548 0.0
O61 O 0.17634 0.1876 0.26899 0.0
C62 C 0.13386 0.16471 0.251 0.0
O63 O 0.18223 0.16964 0.24057 0.0
C64 C 0.24668 0.20158 0.30548 0.0
O65 O 0.18293 0.20134 0.30587 0.0
O66 O 0.17613 0.21055 0.26046 0.0
O67 O 0.07626 0.20309 0.26245 0.0
H68 H 0.3045 0.22909 0.20396 0.0
H69 H 0.13695 0.17387 0.30049 0.0
O70 O 0.08966 0.17036 0.2607 0.0
H71 H 0.97247 0.19836 0.33459 0.0
H72 H 0.85909 0.17072 0.26801 0.0
H73 H 0.99477 0.19903 0.23111 0.0
H74 H 0.99294 0.19859 0.293 0.0
H75 H 0.97585 0.17221 0.27709 0.0
O76 O 0.27684 0.20063 0.28652 0.0
H77 H 0.22785 0.21576 0.22077 0.0
H78 H 0.37824 0.20262 0.26234 0.0
H79 H 0.87812 0.1979 0.22167 0.0
H80 H 0.11774 0.17331 0.34213 0.0
H81 H 0.80946 0.18367 0.24018 0.0
H82 H 0.03514 0.18564 0.35945 0.0
O83 O 0.10175 0.1874 0.22829 0.0
H84 H 0.35957 0.16397 0.27777 0.0
H85 H 0.31525 0.19032 0.21562 0.0
H86 H 0.38834 0.17464 0.20848 0.0
H87 H 0.41095 0.16133 0.23971 0.0
H88 H 0.28637 0.17973 0.2841 0.0
H89 H 0.45644 0.21587 0.24611 0.0
H90 H 0.41972 0.2292 0.21664 0.0
O91 O 0.19896 0.19565 0.22438 0.0
C92 C 0.1144 0.21135 0.26194 0.0
C93 C 0.32113 0.2233 0.21674 0.0
C94 C 0.40638 0.21589 0.24043 0.0
N95 N 0.29865 0.20839 0.24241 0.0
C96 C 0.27799 0.21572 0.22627 0.0
C97 C 0.36186 0.20843 0.24959 0.0
C98 C 0.38575 0.22337 0.22388 0.0
C99 C 0.10048 0.17918 0.30787 0.0
N100 N 0.06595 0.18623 0.29433 0.0
C101 C 0.09 0.17886 0.33147 0.0
C102 C 0.04372 0.1858 0.34118 0.0
C103 C 0.00859 0.19294 0.32724 0.0
C104 C 0.02048 0.19306 0.30372 0.0
C105 C 0.88848 0.17698 0.25986 0.0
C106 C 0.9651 0.19286 0.23934 0.0
C107 C 0.95463 0.17784 0.2649 0.0
N108 N 0.99194 0.18575 0.25476 0.0
C109 C 0.89913 0.19224 0.23388 0.0
C110 C 0.86066 0.18424 0.24425 0.0
C111 C 0.1474 0.19138 0.21604 0.0
C112 C 0.35025 0.16973 0.26405 0.0
C113 C 0.32476 0.18456 0.22927 0.0
C114 C 0.36629 0.1757 0.22515 0.0
C115 C 0.37898 0.16825 0.24268 0.0
N116 N 0.29681 0.18597 0.25029 0.0
C117 C 0.30906 0.17869 0.26756 0.0
Co118 Co 0.16438 0.18642 0.99882 0.0
Co119 Co 0.01435 0.19888 1.00345 0.0
O120 O 0.07321 0.18801 0.99036 0.0
C121 C 0.10913 0.16448 0.00689 0.0
O122 O 0.06123 0.16948 0.01746 0.0
C123 C 0.00585 0.20277 0.95347 0.0
O124 O 0.06956 0.20339 0.95337 0.0
O125 O 0.07819 0.21094 0.99798 0.0
O126 O 0.1757 0.20267 1.00019 0.0
H127 H 0.95286 0.23088 0.05324 0.0
H128 H 0.11388 0.17486 0.95789 0.0
O129 O 0.15491 0.17007 0.99795 0.0
H130 H 0.28696 0.19927 0.92923 0.0
H131 H 0.38624 0.16917 0.99385 0.0
H132 H 0.25168 0.19705 0.03261 0.0
H133 H 0.2611 0.19856 0.97043 0.0
H134 H 0.2712 0.17169 0.98318 0.0
O135 O 0.97561 0.20124 0.97225 0.0
H136 H 0.02706 0.21696 0.03715 0.0
H137 H 0.87431 0.20411 0.99627 0.0
H138 H 0.36661 0.19487 0.04369 0.0
H139 H 0.13842 0.17526 0.91658 0.0
H140 H 0.43472 0.18084 0.02425 0.0
H141 H 0.22542 0.18755 0.90201 0.0
O142 O 0.14222 0.18634 0.03191 0.0
H143 H 0.88493 0.16535 0.98242 0.0
H144 H 0.93454 0.19198 0.04356 0.0
H145 H 0.85806 0.17682 0.05124 0.0
H146 H 0.83276 0.16338 0.02052 0.0
H147 H 0.9616 0.18057 0.97555 0.0
H148 H 0.79856 0.21794 0.01178 0.0
H149 H 0.83771 0.23143 0.04054 0.0
O150 O 0.05164 0.19657 0.03486 0.0
C151 C 0.14017 0.21124 0.99893 0.0
C152 C 0.93518 0.22503 0.04077 0.0
C153 C 0.8486 0.21777 0.01747 0.0
N154 N 0.95489 0.20968 0.01593 0.0
C155 C 0.97691 0.21711 0.03165 0.0
C156 C 0.89173 0.20998 0.00872 0.0
C157 C 0.87059 0.22534 0.03362 0.0
C158 C 0.15221 0.18015 0.9517 0.0
N159 N 0.18628 0.18663 0.96655 0.0
C160 C 0.16572 0.18038 0.92828 0.0
C161 C 0.21447 0.18729 0.92011 0.0
C162 C 0.249 0.19387 0.93538 0.0
C163 C 0.23407 0.19345 0.95868 0.0
C164 C 0.35712 0.17533 1.0024 0.0
C165 C 0.28116 0.19099 0.02394 0.0
C166 C 0.29195 0.17679 0.99645 0.0
N167 N 0.25501 0.1846 0.00708 0.0
C168 C 0.34614 0.18977 0.03035 0.0
C169 C 0.3843 0.18189 0.01945 0.0
C170 C 0.09895 0.19126 0.04371 0.0
C171 C 0.89544 0.17117 0.99592 0.0
C172 C 0.92395 0.18614 0.03013 0.0
C173 C 0.88047 0.1776 0.03456 0.0
C174 C 0.86625 0.17006 0.01732 0.0
N175 N 0.95235 0.18718 0.0091 0.0
C176 C 0.9386 0.17984 0.9921 0.0
Co177 Co 0.08548 0.05962 0.99689 0.0
Co178 Co 0.23964 0.04872 1.00324 0.0
O179 O 0.17786 0.05895 0.9896 0.0
C180 C 0.13423 0.08176 0.00737 0.0
O181 O 0.18253 0.07689 0.01796 0.0
C182 C 0.24983 0.04455 0.95343 0.0
O183 O 0.18626 0.04365 0.95325 0.0
O184 O 0.17969 0.03604 0.99834 0.0
O185 O 0.07922 0.04329 0.99645 0.0
H186 H 0.31025 0.01794 0.05487 0.0
H187 H 0.13801 0.07241 0.95789 0.0
O188 O 0.09026 0.07604 0.99768 0.0
H189 H 0.97433 0.04759 0.92435 0.0
H190 H 0.85963 0.07521 0.99054 0.0
H191 H 0.9973 0.04725 0.0277 0.0
H192 H 0.99497 0.04756 0.96592 0.0
H193 H 0.97648 0.07394 0.98145 0.0
O194 O 0.27955 0.04634 0.97221 0.0
H195 H 0.23212 0.031 0.03798 0.0
H196 H 0.3811 0.04461 0.99643 0.0
H197 H 0.88059 0.04817 0.03714 0.0
H198 H 0.11861 0.07277 0.91624 0.0
H199 H 0.81092 0.06223 0.0185 0.0
H200 H 0.03638 0.06027 0.89921 0.0
O201 O 0.10345 0.05914 0.03038 0.0
H202 H 0.35843 0.08316 0.98091 0.0
H203 H 0.31652 0.05674 0.04313 0.0
H204 H 0.38778 0.07266 0.05027 0.0
H205 H 0.40915 0.08601 0.01901 0.0
H206 H 0.28705 0.06718 0.97457 0.0
H207 H 0.46078 0.03164 0.01274 0.0
H208 H 0.42552 0.01822 0.04224 0.0
O209 O 0.201 0.05102 0.03433 0.0
C210 C 0.11796 0.03512 0.99697 0.0
C211 C 0.32625 0.02378 0.04207 0.0
C212 C 0.41071 0.03145 0.0184 0.0
N213 N 0.30213 0.03859 0.01635 0.0
C214 C 0.28227 0.03121 0.0325 0.0
C215 C 0.36535 0.03875 0.00919 0.0
C216 C 0.3909 0.02393 0.03497 0.0
C217 C 0.10176 0.06701 0.95062 0.0
N218 N 0.0675 0.06 0.96432 0.0
C219 C 0.09115 0.06722 0.92702 0.0
C220 C 0.04508 0.0602 0.91747 0.0
C221 C 0.01027 0.05307 0.93156 0.0
C222 C 0.02227 0.05308 0.95509 0.0
C223 C 0.88945 0.06904 0.99874 0.0
C224 C 0.9672 0.05335 0.01941 0.0
C225 C 0.95566 0.06829 0.9937 0.0
N226 N 0.99352 0.06048 1.00391 0.0
C227 C 0.9012 0.05385 0.02488 0.0
C228 C 0.86215 0.06175 0.01443 0.0
C229 C 0.14922 0.05522 0.04265 0.0
C230 C 0.34963 0.07739 0.99465 0.0
C231 C 0.32549 0.06252 0.02946 0.0
C232 C 0.36599 0.07151 0.03359 0.0
C233 C 0.378 0.07899 0.01604 0.0
N234 N 0.29786 0.061 0.00843 0.0
C235 C 0.30948 0.06829 0.99113 0.0
Co236 Co 0.83375 0.93676 0.74852 0.0
Co237 Co 0.98117 0.95002 0.75272 0.0
O238 O 0.9249 0.9386 0.74009 0.0
C239 C 0.89025 0.91488 0.75672 0.0
O240 O 0.93782 0.9199 0.76743 0.0
C241 C 0.99329 0.95238 0.70248 0.0
O242 O 0.92962 0.95184 0.70166 0.0
O243 O 0.91621 0.9616 0.74536 0.0
O244 O 0.82049 0.95301 0.74987 0.0
H245 H 0.03299 0.98347 0.79968 0.0
H246 H 0.8845 0.92522 0.70762 0.0
O247 O 0.84461 0.92043 0.74763 0.0
H248 H 0.70934 0.94921 0.679 0.0
H249 H 0.61348 0.9189 0.74381 0.0
H250 H 0.74573 0.94717 0.78235 0.0
H251 H 0.73581 0.94866 0.72015 0.0
H252 H 0.72817 0.92173 0.73301 0.0
O253 O 0.02235 0.95199 0.72174 0.0
H254 H 0.96248 0.96885 0.78422 0.0
H255 H 0.12111 0.95567 0.74671 0.0
H256 H 0.6311 0.94469 0.79356 0.0
H257 H 0.85929 0.92545 0.66635 0.0
H258 H 0.56416 0.93047 0.77423 0.0
H259 H 0.77127 0.93754 0.6518 0.0
O260 O 0.85654 0.93669 0.78152 0.0
H261 H 0.11784 0.91674 0.73626 0.0
H262 H 0.05794 0.94432 0.79436 0.0
H263 H 0.13613 0.92972 0.80426 0.0
H264 H 0.16662 0.9158 0.77509 0.0
H265 H 0.03941 0.93142 0.72715 0.0
H266 H 0.19325 0.97019 0.76161 0.0
H267 H 0.14928 0.98419 0.78837 0.0
O268 O 0.94147 0.94827 0.784 0.0
C269 C 0.85443 0.96168 0.7472 0.0
C270 C 0.05278 0.97739 0.7881 0.0
C271 C 0.1427 0.96994 0.76671 0.0
N272 N 0.03781 0.96136 0.76476 0.0
C273 C 0.01314 0.96907 0.77936 0.0
C274 C 0.10161 0.96175 0.7583 0.0
C275 C 0.118 0.9778 0.78173 0.0
C276 C 0.84568 0.93041 0.70144 0.0
N277 N 0.81149 0.93688 0.71628 0.0
C278 C 0.83181 0.93054 0.67805 0.0
C279 C 0.7825 0.93734 0.66989 0.0
C280 C 0.74778 0.9439 0.68514 0.0
C281 C 0.76309 0.94357 0.70841 0.0
C282 C 0.64209 0.92515 0.75232 0.0
C283 C 0.71677 0.94102 0.77375 0.0
C284 C 0.70707 0.92677 0.7463 0.0
N285 N 0.74338 0.93468 0.75688 0.0
C286 C 0.65195 0.93963 0.78022 0.0
C287 C 0.61444 0.93164 0.76938 0.0
C288 C 0.89695 0.94237 0.79308 0.0
C289 C 0.1051 0.92278 0.7491 0.0
C290 C 0.07084 0.93828 0.78159 0.0
C291 C 0.11525 0.93004 0.78728 0.0
C292 C 0.13237 0.92224 0.7709 0.0
N293 N 0.04438 0.93875 0.76016 0.0
C294 C 0.06094 0.93114 0.744 0.0
Co295 Co 0.92044 0.81019 0.74721 0.0
Co296 Co 0.77027 0.79768 0.75204 0.0
O297 O 0.82875 0.80871 0.73912 0.0
C298 C 0.8662 0.83212 0.75643 0.0
O299 O 0.81825 0.82712 0.76696 0.0
C300 C 0.75994 0.79474 0.70181 0.0
O301 O 0.82362 0.79527 0.70113 0.0
O302 O 0.83401 0.78569 0.74596 0.0
O303 O 0.9316 0.79393 0.74778 0.0
H304 H 0.71126 0.76533 0.8012 0.0
H305 H 0.86902 0.82231 0.70713 0.0
O306 O 0.91139 0.82655 0.74713 0.0
H307 H 0.03986 0.79803 0.67641 0.0
H308 H 0.14246 0.82737 0.74193 0.0
H309 H 0.00892 0.79913 0.78002 0.0
H310 H 0.01554 0.79827 0.71774 0.0
H311 H 0.02695 0.82503 0.73173 0.0
O312 O 0.73044 0.79536 0.72096 0.0
H313 H 0.78454 0.77941 0.78519 0.0
H314 H 0.63002 0.79241 0.74535 0.0
H315 H 0.12433 0.80113 0.79062 0.0
H316 H 0.89209 0.82239 0.66571 0.0
H317 H 0.19193 0.81533 0.77151 0.0
H318 H 0.97792 0.81016 0.65009 0.0
O319 O 0.89963 0.80992 0.78043 0.0
H320 H 0.64014 0.83131 0.73232 0.0
H321 H 0.69112 0.80428 0.79255 0.0
H322 H 0.6147 0.81936 0.80086 0.0
H323 H 0.5887 0.83301 0.77061 0.0
H324 H 0.71676 0.81615 0.72481 0.0
H325 H 0.55519 0.77842 0.76079 0.0
H326 H 0.59568 0.76478 0.78899 0.0
O327 O 0.80843 0.79984 0.78335 0.0
C328 C 0.89601 0.78538 0.74649 0.0
C329 C 0.69299 0.77125 0.78898 0.0
C330 C 0.60541 0.77859 0.76627 0.0
N331 N 0.71145 0.78677 0.76449 0.0
C332 C 0.7342 0.77926 0.77991 0.0
C333 C 0.64804 0.78648 0.75755 0.0
C334 C 0.62816 0.77094 0.7821 0.0
C335 C 0.90691 0.81705 0.70049 0.0
N336 N 0.94111 0.81034 0.71484 0.0
C337 C 0.91956 0.8171 0.67701 0.0
C338 C 0.96765 0.81022 0.66826 0.0
C339 C 0.00238 0.8034 0.68301 0.0
C340 C 0.98831 0.80356 0.70639 0.0
C341 C 0.11356 0.82113 0.75033 0.0
C342 C 0.03815 0.80528 0.77151 0.0
C343 C 0.04812 0.81978 0.74465 0.0
N344 N 0.01143 0.81187 0.7551 0.0
C345 C 0.10341 0.80639 0.77764 0.0
C346 C 0.14129 0.81437 0.76692 0.0
C347 C 0.85638 0.80499 0.79222 0.0
C348 C 0.65095 0.8254 0.74563 0.0
C349 C 0.68023 0.8102 0.77932 0.0
C350 C 0.63678 0.81871 0.78411 0.0
C351 C 0.62218 0.82636 0.76712 0.0
N352 N 0.70822 0.80931 0.75819 0.0
C353 C 0.69408 0.81677 0.74145 0.0
Co354 Co 0.83301 0.80968 0.00932 0.0
Co355 Co 0.98336 0.7971 0.00537 0.0
O356 O 0.92428 0.80812 0.01813 0.0
C357 C 0.88947 0.83166 1.00209 0.0
O358 O 0.94112 0.82677 0.99376 0.0
C359 C 0.99145 0.79406 0.05568 0.0
O360 O 0.92779 0.7947 0.05615 0.0
O361 O 0.91906 0.78512 0.01085 0.0
O362 O 0.82178 0.79343 0.00853 0.0
H363 H 0.04419 0.76491 0.95602 0.0
H364 H 0.88197 0.82169 0.0499 0.0
O365 O 0.84169 0.82605 0.00948 0.0
H366 H 0.70889 0.79741 0.07903 0.0
H367 H 0.6107 0.82687 0.01288 0.0
H368 H 0.7468 0.79872 0.97568 0.0
H369 H 0.73587 0.79773 0.03791 0.0
H370 H 0.72545 0.8245 0.02406 0.0
O371 O 0.02155 0.79462 0.03665 0.0
H372 H 0.97041 0.77897 0.97182 0.0
H373 H 0.12315 0.79171 0.01287 0.0
H374 H 0.63217 0.80075 0.9641 0.0
H375 H 0.85625 0.82169 0.09114 0.0
H376 H 0.56328 0.81491 0.98276 0.0
H377 H 0.76927 0.80946 0.10595 0.0
O378 O 0.85604 0.80957 0.97635 0.0
H379 H 0.11484 0.83033 0.02683 0.0
H380 H 0.0644 0.80388 0.96545 0.0
H381 H 0.14226 0.81886 0.95804 0.0
H382 H 0.16802 0.83221 0.98888 0.0
H383 H 0.03673 0.8153 0.03342 0.0
H384 H 0.19846 0.77774 0.99764 0.0
H385 H 0.15912 0.76424 0.96894 0.0
O386 O 0.94702 0.79942 0.97381 0.0
C387 C 0.85709 0.78486 0.00996 0.0
C388 C 0.06196 0.77077 0.96846 0.0
C389 C 0.14852 0.77796 0.99185 0.0
N390 N 0.04259 0.7862 0.99311 0.0
C391 C 0.02047 0.77877 0.97742 0.0
C392 C 0.10563 0.78584 1.00044 0.0
C393 C 0.12642 0.77039 0.97574 0.0
C394 C 0.84359 0.81643 0.0562 0.0
N395 N 0.81024 0.80976 0.04152 0.0
C396 C 0.82944 0.81643 0.07957 0.0
C397 C 0.78071 0.80955 0.08787 0.0
C398 C 0.74685 0.80278 0.07278 0.0
C399 C 0.76243 0.80298 0.04952 0.0
C400 C 0.64016 0.82065 0.00468 0.0
C401 C 0.71699 0.80484 0.984 0.0
C402 C 0.70517 0.81927 0.01091 0.0
N403 N 0.74256 0.81139 1.0007 0.0
C404 C 0.65218 0.80598 0.97732 0.0
C405 C 0.61358 0.81393 0.98778 0.0
C406 C 0.89979 0.80467 0.96474 0.0
C407 C 0.10416 0.82455 0.01328 0.0
C408 C 0.0751 0.80969 0.97892 0.0
C409 C 0.1194 0.81813 0.97465 0.0
C410 C 0.13389 0.82561 0.99196 0.0
N411 N 0.04613 0.8087 0.99987 0.0
C412 C 0.0602 0.81599 0.01694 0.0
Co413 Co 0.91847 0.93629 0.00902 0.0
Co414 Co 0.77081 0.94963 0.00619 0.0
O415 O 0.82783 0.93815 0.01835 0.0
C416 C 0.86003 0.91441 1.00256 0.0
O417 O 0.80845 0.91935 0.99431 0.0
C418 C 0.76115 0.95188 0.05658 0.0
O419 O 0.82478 0.95117 0.05716 0.0
O420 O 0.83634 0.96116 0.01314 0.0
O421 O 0.93156 0.95255 0.00771 0.0
H422 H 0.71698 0.98317 0.9598 0.0
H423 H 0.8709 0.92467 0.05026 0.0
O424 O 0.90832 0.91996 0.0097 0.0
H425 H 0.04805 0.94863 0.07746 0.0
H426 H 0.13935 0.91854 0.01144 0.0
H427 H 0.00365 0.94681 0.97445 0.0
H428 H 0.01854 0.94815 0.03656 0.0
H429 H 0.02549 0.92127 0.02336 0.0
O430 O 0.73146 0.95161 0.03744 0.0
H431 H 0.78805 0.9685 0.97468 0.0
H432 H 0.63129 0.95534 0.0132 0.0
H433 H 0.11743 0.94442 0.96213 0.0
H434 H 0.89916 0.92483 0.09129 0.0
H435 H 0.1861 0.93019 0.98068 0.0
H436 H 0.9882 0.9369 0.10513 0.0
O437 O 0.89306 0.93622 0.97629 0.0
H438 H 0.63262 0.91666 0.02385 0.0
H439 H 0.69192 0.94393 0.96502 0.0
H440 H 0.61217 0.92947 0.95578 0.0
H441 H 0.58193 0.91573 0.98532 0.0
H442 H 0.71272 0.93118 0.03228 0.0
H443 H 0.55861 0.96992 0.99888 0.0
H444 H 0.60135 0.98394 0.97191 0.0
O445 O 0.80853 0.9479 0.97459 0.0
C446 C 0.89795 0.96122 0.01079 0.0
C447 C 0.69772 0.97708 0.97147 0.0
C448 C 0.60886 0.96965 0.99343 0.0
N449 N 0.71368 0.96102 0.99461 0.0
C450 C 0.73767 0.96874 0.9799 0.0
C451 C 0.65026 0.96143 1.00151 0.0
C452 C 0.63287 0.97752 0.9783 0.0
C453 C 0.91015 0.92986 0.05613 0.0
N454 N 0.94321 0.93635 0.04104 0.0
C455 C 0.92575 0.92995 0.07939 0.0
C456 C 0.97563 0.93674 0.08715 0.0
C457 C 0.00919 0.94333 0.07163 0.0
C458 C 0.99216 0.94304 0.04851 0.0
C459 C 0.10998 0.92478 1.00328 0.0
C460 C 0.03338 0.94066 0.98272 0.0
C461 C 0.04546 0.92636 0.00993 0.0
N462 N 0.0082 0.93428 0.99977 0.0
C463 C 0.0977 0.93932 0.97562 0.0
C464 C 0.13618 0.93133 0.98602 0.0
C465 C 0.85212 0.94196 0.96511 0.0
C466 C 0.64524 0.92263 0.01085 0.0
C467 C 0.67926 0.93795 0.97794 0.0
C468 C 0.63391 0.9298 0.97263 0.0
C469 C 0.61692 0.9221 0.98922 0.0
N470 N 0.70681 0.93842 0.9992 0.0
C471 C 0.69033 0.9309 0.01557 0.0
Co472 Co 0.16433 0.56026 0.75942 0.0
Co473 Co 0.01494 0.54738 0.75511 0.0
O474 O 0.07295 0.55854 0.76792 0.0
C475 C 0.10639 0.58208 0.75156 0.0
O476 O 0.0551 0.57706 0.7433 0.0
C477 C 0.00694 0.54435 0.80534 0.0
O478 O 0.07057 0.54507 0.80572 0.0
O479 O 0.08001 0.53555 0.76073 0.0
O480 O 0.17685 0.54403 0.75898 0.0
H481 H 0.95714 0.51502 0.70579 0.0
H482 H 0.11318 0.57234 0.79957 0.0
O483 O 0.1544 0.57661 0.75919 0.0
H484 H 0.2871 0.54857 0.82986 0.0
H485 H 0.3852 0.57795 0.76349 0.0
H486 H 0.25237 0.54935 0.72629 0.0
H487 H 0.26147 0.54865 0.78863 0.0
H488 H 0.2703 0.57537 0.77429 0.0
O489 O 0.97663 0.54486 0.78635 0.0
H490 H 0.02967 0.52925 0.72165 0.0
H491 H 0.87551 0.5417 0.76242 0.0
H492 H 0.36719 0.55158 0.7151 0.0
H493 H 0.1375 0.57258 0.8409 0.0
H494 H 0.43443 0.56597 0.73377 0.0
H495 H 0.2249 0.5606 0.8563 0.0
O496 O 0.14231 0.55996 0.72639 0.0
H497 H 0.88036 0.58032 0.77617 0.0
H498 H 0.93428 0.55397 0.71496 0.0
H499 H 0.85533 0.56876 0.70733 0.0
H500 H 0.82782 0.58206 0.73808 0.0
H501 H 0.95957 0.56547 0.78299 0.0
H502 H 0.80143 0.52756 0.74715 0.0
H503 H 0.84212 0.51411 0.71856 0.0
O504 O 0.05164 0.54974 0.72361 0.0
C505 C 0.14201 0.5354 0.76021 0.0
C506 C 0.93878 0.52085 0.71819 0.0
C507 C 0.85141 0.52788 0.74142 0.0
N508 N 0.9567 0.53634 0.7428 0.0
C509 C 0.97957 0.52895 0.72717 0.0
C510 C 0.89361 0.53586 0.75004 0.0
C511 C 0.87427 0.52034 0.72537 0.0
C512 C 0.15173 0.5672 0.80612 0.0
N513 N 0.18609 0.56054 0.7917 0.0
C514 C 0.16509 0.56733 0.82954 0.0
C515 C 0.21406 0.56059 0.83818 0.0
C516 C 0.24895 0.55383 0.82335 0.0
C517 C 0.23413 0.5539 0.80003 0.0
C518 C 0.35646 0.57163 0.75529 0.0
C519 C 0.28147 0.55557 0.73462 0.0
C520 C 0.29137 0.57014 0.76132 0.0
N521 N 0.2549 0.56213 0.75111 0.0
C522 C 0.34638 0.55682 0.72815 0.0
C523 C 0.38406 0.5649 0.73861 0.0
C524 C 0.099 0.55501 0.71467 0.0
C525 C 0.8918 0.57456 0.76265 0.0
C526 C 0.9228 0.55975 0.7284 0.0
C527 C 0.8779 0.56809 0.724 0.0
C528 C 0.86243 0.57554 0.74127 0.0
N529 N 0.95138 0.55884 0.74942 0.0
C530 C 0.93639 0.5661 0.76645 0.0
Co531 Co 0.085 0.68685 0.76074 0.0
Co532 Co 0.23871 0.69816 0.75497 0.0
O533 O 0.17733 0.68773 0.76841 0.0
C534 C 0.13714 0.6648 0.75115 0.0
O535 O 0.18882 0.66964 0.74273 0.0
C536 C 0.24652 0.70183 0.80503 0.0
O537 O 0.18278 0.70143 0.80532 0.0
O538 O 0.17711 0.71063 0.75935 0.0
O539 O 0.07731 0.70316 0.76159 0.0
H540 H 0.30748 0.72893 0.70303 0.0
H541 H 0.13697 0.67387 0.79953 0.0
O542 O 0.09058 0.67044 0.75936 0.0
H543 H 0.97084 0.69818 0.8332 0.0
H544 H 0.86004 0.67076 0.76574 0.0
H545 H 0.99707 0.69917 0.72981 0.0
H546 H 0.99273 0.69853 0.79171 0.0
H547 H 0.97644 0.67222 0.77539 0.0
O548 O 0.27703 0.70093 0.78613 0.0
H549 H 0.23041 0.71566 0.71978 0.0
H550 H 0.37933 0.70286 0.76245 0.0
H551 H 0.88079 0.69806 0.7198 0.0
H552 H 0.11634 0.67319 0.84109 0.0
H553 H 0.81146 0.68378 0.73783 0.0
H554 H 0.0329 0.68544 0.85819 0.0
O555 O 0.10409 0.68749 0.72739 0.0
H556 H 0.36219 0.66444 0.7789 0.0
H557 H 0.31814 0.6902 0.71564 0.0
H558 H 0.39244 0.67459 0.70936 0.0
H559 H 0.41493 0.66159 0.74114 0.0
H560 H 0.28777 0.6801 0.78439 0.0
H561 H 0.45791 0.71605 0.74629 0.0
H562 H 0.42215 0.72918 0.7163 0.0
O563 O 0.20184 0.69556 0.7237 0.0
C564 C 0.11538 0.71141 0.76089 0.0
C565 C 0.32369 0.72323 0.71604 0.0
C566 C 0.40809 0.71601 0.74035 0.0
N567 N 0.30043 0.70846 0.74198 0.0
C568 C 0.28031 0.71568 0.72555 0.0
C569 C 0.36334 0.70858 0.74948 0.0
C570 C 0.388 0.72338 0.72351 0.0
C571 C 0.10014 0.67915 0.80682 0.0
N572 N 0.06594 0.68621 0.79321 0.0
C573 C 0.08886 0.67876 0.83037 0.0
C574 C 0.04211 0.68565 0.83996 0.0
C575 C 0.00731 0.69281 0.82595 0.0
C576 C 0.02002 0.69299 0.80248 0.0
C577 C 0.88972 0.67704 0.75781 0.0
C578 C 0.9671 0.69298 0.73784 0.0
C579 C 0.95567 0.67789 0.76318 0.0
N580 N 0.99335 0.68583 0.75331 0.0
C581 C 0.90134 0.69237 0.73205 0.0
C582 C 0.86249 0.68435 0.74215 0.0
C583 C 0.15033 0.69133 0.71525 0.0
C584 C 0.35295 0.67007 0.76495 0.0
C585 C 0.32756 0.68456 0.72954 0.0
C586 C 0.3698 0.67575 0.7259 0.0
C587 C 0.38244 0.66847 0.74374 0.0
N588 N 0.29888 0.68609 0.7504 0.0
C589 C 0.3111 0.67899 0.76798 0.0
Co590 Co 0.16469 0.68652 0.49756 0.0
Co591 Co 0.01206 0.69828 0.50301 0.0
O592 O 0.07254 0.68764 0.48974 0.0
C593 C 0.11024 0.66461 0.50721 0.0
O594 O 0.05878 0.6696 0.51543 0.0
C595 C 0.00501 0.70185 0.45288 0.0
O596 O 0.0687 0.70125 0.45263 0.0
O597 O 0.07492 0.71056 0.49858 0.0
O598 O 0.17403 0.70281 0.49658 0.0
H599 H 0.94589 0.72936 0.55455 0.0
H600 H 0.11199 0.67361 0.45879 0.0
O601 O 0.15747 0.67013 0.49907 0.0
H602 H 0.28081 0.6974 0.42517 0.0
H603 H 0.38806 0.66978 0.49303 0.0
H604 H 0.25345 0.69865 0.52852 0.0
H605 H 0.2584 0.6979 0.46663 0.0
H606 H 0.27196 0.67156 0.48318 0.0
O607 O 0.97431 0.70109 0.47177 0.0
H608 H 0.02178 0.71583 0.53803 0.0
H609 H 0.87199 0.70335 0.49532 0.0
H610 H 0.36946 0.69722 0.53873 0.0
H611 H 0.1331 0.67278 0.41728 0.0
H612 H 0.43759 0.6827 0.52093 0.0
H613 H 0.2179 0.68477 0.4002 0.0
O614 O 0.14527 0.68727 0.53085 0.0
H615 H 0.88542 0.66487 0.47925 0.0
H616 H 0.9315 0.69062 0.54232 0.0
H617 H 0.85558 0.67524 0.54867 0.0
H618 H 0.83206 0.66224 0.51697 0.0
H619 H 0.96146 0.6803 0.4737 0.0
H620 H 0.79459 0.7168 0.51125 0.0
H621 H 0.83138 0.72991 0.54115 0.0
O622 O 0.04836 0.69563 0.53436 0.0
C623 C 0.13673 0.71117 0.49713 0.0
C624 C 0.92923 0.72368 0.54158 0.0
C625 C 0.84434 0.71664 0.51725 0.0
N626 N 0.95125 0.70877 0.51583 0.0
C627 C 0.97194 0.71598 0.5322 0.0
C628 C 0.88843 0.70906 0.50825 0.0
C629 C 0.86501 0.72398 0.53403 0.0
C630 C 0.14939 0.67877 0.45151 0.0
N631 N 0.18407 0.68577 0.46512 0.0
C632 C 0.16095 0.6783 0.42799 0.0
C633 C 0.20847 0.68504 0.41841 0.0
C634 C 0.24374 0.69214 0.43241 0.0
C635 C 0.23074 0.6924 0.45586 0.0
C636 C 0.35892 0.67616 0.50087 0.0
C637 C 0.2829 0.69236 0.52059 0.0
C638 C 0.29314 0.67719 0.49539 0.0
N639 N 0.25614 0.68526 0.50513 0.0
C640 C 0.3485 0.69157 0.52649 0.0
C641 C 0.38668 0.68341 0.51651 0.0
C642 C 0.09933 0.69127 0.54291 0.0
C643 C 0.8951 0.6705 0.49316 0.0
C644 C 0.92164 0.68499 0.52846 0.0
C645 C 0.87849 0.67631 0.53214 0.0
C646 C 0.86527 0.66902 0.51435 0.0
N647 N 0.95066 0.68639 0.50763 0.0
C648 C 0.93787 0.67929 0.49009 0.0
Co649 Co 0.08445 0.55994 0.49691 0.0
Co650 Co 0.23749 0.54836 0.50258 0.0
O651 O 0.17682 0.55896 0.48933 0.0
C652 C 0.13791 0.58185 0.50715 0.0
O653 O 0.18926 0.57687 0.51546 0.0
C654 C 0.24546 0.54494 0.45244 0.0
O655 O 0.18176 0.54547 0.45209 0.0
O656 O 0.17522 0.53603 0.49787 0.0
O657 O 0.07582 0.54365 0.49558 0.0
H658 H 0.30405 0.51721 0.55388 0.0
H659 H 0.13756 0.5731 0.45857 0.0
O660 O 0.09102 0.57634 0.49878 0.0
H661 H 0.97063 0.54926 0.42396 0.0
H662 H 0.86056 0.57645 0.49206 0.0
H663 H 0.99537 0.54755 0.52732 0.0
H664 H 0.99201 0.5486 0.46546 0.0
H665 H 0.97698 0.57485 0.48254 0.0
O666 O 0.27587 0.54569 0.47139 0.0
H667 H 0.22791 0.5307 0.53737 0.0
H668 H 0.37788 0.54347 0.49511 0.0
H669 H 0.87904 0.54879 0.53718 0.0
H670 H 0.11747 0.5741 0.41701 0.0
H671 H 0.81082 0.56333 0.5195 0.0
H672 H 0.03362 0.56209 0.39943 0.0
O673 O 0.10304 0.55903 0.53025 0.0
H674 H 0.36307 0.582 0.4795 0.0
H675 H 0.31723 0.55598 0.54213 0.0
H676 H 0.39242 0.57143 0.54882 0.0
H677 H 0.41581 0.58456 0.51735 0.0
H678 H 0.28775 0.5665 0.47362 0.0
H679 H 0.45555 0.53005 0.51102 0.0
H680 H 0.41879 0.51683 0.54069 0.0
O681 O 0.20054 0.55087 0.53387 0.0
C682 C 0.11349 0.53534 0.49618 0.0
C683 C 0.3207 0.52295 0.541 0.0
C684 C 0.4057 0.53015 0.51693 0.0
N685 N 0.29852 0.5379 0.51539 0.0
C686 C 0.27785 0.53063 0.53164 0.0
C687 C 0.36146 0.5377 0.50794 0.0
C688 C 0.38505 0.52273 0.53358 0.0
C689 C 0.10056 0.56793 0.45108 0.0
N690 N 0.06583 0.56083 0.46443 0.0
C691 C 0.08958 0.5685 0.42752 0.0
C692 C 0.0426 0.56174 0.41767 0.0
C693 C 0.00728 0.55454 0.43141 0.0
C694 C 0.01969 0.55418 0.4549 0.0
C695 C 0.88975 0.57007 0.49984 0.0
C696 C 0.96588 0.55385 0.51944 0.0
C697 C 0.95571 0.56914 0.49455 0.0
N698 N 0.99277 0.56106 0.50423 0.0
C699 C 0.9001 0.55454 0.52514 0.0
C700 C 0.86186 0.5627 0.51523 0.0
C701 C 0.14901 0.55508 0.54236 0.0
C702 C 0.35343 0.57631 0.49332 0.0
C703 C 0.32703 0.56168 0.52837 0.0
C704 C 0.36977 0.57039 0.53224 0.0
C705 C 0.38292 0.57775 0.51457 0.0
N706 N 0.29834 0.56031 0.50747 0.0
C707 C 0.31106 0.56748 0.49006 0.0
Co708 Co 0.83455 0.43699 0.24714 0.0
Co709 Co 0.98448 0.44954 0.25216 0.0
O710 O 0.92614 0.43855 0.23902 0.0
C711 C 0.8892 0.41501 0.25564 0.0
O712 O 0.93713 0.41996 0.26629 0.0
C713 C 0.99443 0.45268 0.202 0.0
O714 O 0.93073 0.45221 0.20142 0.0
O715 O 0.92055 0.46154 0.24634 0.0
O716 O 0.82314 0.45324 0.24819 0.0
H717 H 0.04328 0.48167 0.30198 0.0
H718 H 0.88585 0.42516 0.20666 0.0
O719 O 0.84385 0.42063 0.24656 0.0
H720 H 0.71447 0.44958 0.1768 0.0
H721 H 0.61275 0.41975 0.24155 0.0
H722 H 0.74617 0.44777 0.28036 0.0
H723 H 0.73907 0.44907 0.2181 0.0
H724 H 0.72814 0.42221 0.23131 0.0
O725 O 0.02417 0.452 0.22109 0.0
H726 H 0.97011 0.46764 0.2857 0.0
H727 H 0.12461 0.45489 0.24549 0.0
H728 H 0.63087 0.44565 0.29101 0.0
H729 H 0.86251 0.42535 0.16525 0.0
H730 H 0.56333 0.43156 0.27154 0.0
H731 H 0.7764 0.43765 0.15008 0.0
O732 O 0.85564 0.43703 0.28032 0.0
H733 H 0.11504 0.41605 0.23174 0.0
H734 H 0.0638 0.44278 0.29251 0.0
H735 H 0.14045 0.42769 0.30051 0.0
H736 H 0.16658 0.4142 0.26998 0.0
H737 H 0.03819 0.43121 0.22455 0.0
H738 H 0.19934 0.46883 0.26119 0.0
H739 H 0.1588 0.48232 0.28971 0.0
O740 O 0.94642 0.44721 0.28346 0.0
C741 C 0.85855 0.46181 0.24701 0.0
C742 C 0.06157 0.47581 0.28962 0.0
C743 C 0.14914 0.46862 0.2667 0.0
N744 N 0.0432 0.46041 0.2648 0.0
C745 C 0.02042 0.46784 0.28039 0.0
C746 C 0.10657 0.46076 0.25783 0.0
C747 C 0.12636 0.47618 0.28271 0.0
C748 C 0.84784 0.43045 0.2002 0.0
N749 N 0.81365 0.43705 0.21478 0.0
C750 C 0.83503 0.43055 0.17674 0.0
C751 C 0.78679 0.43747 0.16823 0.0
C752 C 0.75206 0.44417 0.18321 0.0
C753 C 0.7663 0.44387 0.20657 0.0
C754 C 0.64162 0.42594 0.25011 0.0
C755 C 0.71696 0.44168 0.27169 0.0
C756 C 0.70699 0.42736 0.24441 0.0
N757 N 0.74364 0.43521 0.25506 0.0
C758 C 0.65176 0.44049 0.27785 0.0
C759 C 0.61392 0.43257 0.26694 0.0
C760 C 0.89873 0.44195 0.29221 0.0
C761 C 0.10418 0.4219 0.24516 0.0
C762 C 0.07474 0.43693 0.27917 0.0
C763 C 0.11832 0.42841 0.28377 0.0
C764 C 0.133 0.42085 0.26663 0.0
N765 N 0.0467 0.4379 0.25806 0.0
C766 C 0.06091 0.43053 0.24116 0.0
Co767 Co 0.91854 0.31025 0.24829 0.0
Co768 Co 0.76989 0.29745 0.25249 0.0
O769 O 0.82756 0.30858 0.23965 0.0
C770 C 0.86357 0.33227 0.25574 0.0
O771 O 0.81567 0.32737 0.26651 0.0
C772 C 0.7582 0.29417 0.20239 0.0
O773 O 0.82187 0.29349 0.20181 0.0
O774 O 0.83375 0.2856 0.24566 0.0
O775 O 0.93018 0.29398 0.25019 0.0
H776 H 0.7129 0.26446 0.30011 0.0
H777 H 0.86905 0.32148 0.20684 0.0
O778 O 0.90905 0.32659 0.24686 0.0
H779 H 0.04338 0.29696 0.17956 0.0
H780 H 0.14042 0.32751 0.24359 0.0
H781 H 0.00497 0.29984 0.28264 0.0
H782 H 0.01632 0.29795 0.22062 0.0
H783 H 0.02568 0.3249 0.23261 0.0
O784 O 0.72912 0.29555 0.22145 0.0
H785 H 0.78557 0.27872 0.28447 0.0
H786 H 0.62944 0.29227 0.24624 0.0
H787 H 0.11961 0.30211 0.29404 0.0
H788 H 0.89481 0.3208 0.16563 0.0
H789 H 0.18816 0.31603 0.27445 0.0
H790 H 0.98244 0.30845 0.15175 0.0
O791 O 0.89512 0.31059 0.28125 0.0
H792 H 0.63724 0.33107 0.23492 0.0
H793 H 0.69326 0.30366 0.29384 0.0
H794 H 0.61663 0.31857 0.30322 0.0
H795 H 0.5881 0.3324 0.27364 0.0
H796 H 0.71413 0.31609 0.22632 0.0
H797 H 0.55514 0.27811 0.26133 0.0
H798 H 0.59676 0.2641 0.28854 0.0
O799 O 0.80928 0.29921 0.28378 0.0
C800 C 0.89549 0.28537 0.24772 0.0
C801 C 0.69413 0.27054 0.28834 0.0
C802 C 0.60561 0.27819 0.26655 0.0
N803 N 0.71161 0.28638 0.26465 0.0
C804 C 0.735 0.27866 0.27948 0.0
C805 C 0.64792 0.28618 0.25803 0.0
C806 C 0.62899 0.27034 0.28182 0.0
C807 C 0.90765 0.31617 0.20094 0.0
N808 N 0.94138 0.30981 0.21612 0.0
C809 C 0.92185 0.31578 0.17758 0.0
C810 C 0.97096 0.30884 0.16981 0.0
C811 C 0.00514 0.30238 0.1854 0.0
C812 C 0.98952 0.30296 0.20862 0.0
C813 C 0.1111 0.3214 0.25221 0.0
C814 C 0.03463 0.30586 0.27393 0.0
C815 C 0.0461 0.3199 0.24609 0.0
N816 N 0.0089 0.31215 0.25682 0.0
C817 C 0.09945 0.30713 0.28051 0.0
C818 C 0.13786 0.31495 0.26952 0.0
C819 C 0.85415 0.30504 0.29283 0.0
C820 C 0.64914 0.32508 0.24793 0.0
C821 C 0.68124 0.30966 0.28088 0.0
C822 C 0.63769 0.31807 0.28629 0.0
C823 C 0.62166 0.32583 0.26967 0.0
N824 N 0.70793 0.30897 0.25951 0.0
C825 C 0.69242 0.31654 0.24313 0.0
Co826 Co 0.83748 0.30989 0.5091 0.0
Co827 Co 0.98571 0.29687 0.50515 0.0
O828 O 0.92846 0.30815 0.51782 0.0
C829 C 0.89287 0.33189 0.50158 0.0
O830 O 0.94102 0.32699 0.49095 0.0
C831 C 0.99652 0.29432 0.55535 0.0
O832 O 0.9328 0.29473 0.55594 0.0
O833 O 0.92127 0.28515 0.51211 0.0
O834 O 0.82526 0.29362 0.5073 0.0
H835 H 0.04076 0.26373 0.45772 0.0
H836 H 0.88624 0.32129 0.55047 0.0
O837 O 0.84732 0.32622 0.51041 0.0
H838 H 0.71185 0.29681 0.57785 0.0
H839 H 0.61595 0.32731 0.51349 0.0
H840 H 0.75119 0.29955 0.47463 0.0
H841 H 0.73948 0.29765 0.53682 0.0
H842 H 0.73049 0.32462 0.52463 0.0
O843 O 0.02615 0.29485 0.53622 0.0
H844 H 0.96897 0.27815 0.47323 0.0
H845 H 0.1258 0.29144 0.51151 0.0
H846 H 0.63673 0.30189 0.46308 0.0
H847 H 0.85983 0.32077 0.59163 0.0
H848 H 0.56828 0.31585 0.48258 0.0
H849 H 0.77221 0.30844 0.60556 0.0
O850 O 0.86128 0.31018 0.4762 0.0
H851 H 0.11997 0.33031 0.52264 0.0
H852 H 0.06315 0.30289 0.46385 0.0
H853 H 0.14067 0.31766 0.45446 0.0
H854 H 0.16961 0.3315 0.48398 0.0
H855 H 0.04222 0.31546 0.53125 0.0
H856 H 0.1992 0.27711 0.49655 0.0
H857 H 0.15679 0.26315 0.46939 0.0
O858 O 0.94668 0.2987 0.47379 0.0
C859 C 0.85959 0.28498 0.50997 0.0
C860 C 0.05987 0.26979 0.46948 0.0
C861 C 0.14878 0.27729 0.4913 0.0
N862 N 0.04333 0.28568 0.49308 0.0
C863 C 0.01951 0.27799 0.47826 0.0
C864 C 0.10697 0.28537 0.49974 0.0
C865 C 0.12495 0.26946 0.47605 0.0
C866 C 0.84758 0.31599 0.55638 0.0
N867 N 0.81426 0.30954 0.54126 0.0
C868 C 0.83304 0.3157 0.57971 0.0
C869 C 0.78395 0.30876 0.58752 0.0
C870 C 0.75011 0.30222 0.57198 0.0
C871 C 0.76608 0.30271 0.54878 0.0
C872 C 0.64521 0.32117 0.50492 0.0
C873 C 0.72156 0.30558 0.48331 0.0
C874 C 0.71011 0.31963 0.51113 0.0
N875 N 0.74724 0.31185 0.50046 0.0
C876 C 0.65685 0.3069 0.47664 0.0
C877 C 0.6185 0.31474 0.48757 0.0
C878 C 0.90223 0.30459 0.46468 0.0
C879 C 0.1079 0.32431 0.50966 0.0
C880 C 0.07537 0.30889 0.47678 0.0
C881 C 0.11941 0.31723 0.47137 0.0
C882 C 0.13566 0.32498 0.48795 0.0
N883 N 0.04842 0.30828 0.49812 0.0
C884 C 0.06413 0.31585 0.51446 0.0
Co885 Co 0.91745 0.43663 0.5096 0.0
Co886 Co 0.76708 0.44906 0.50489 0.0
O887 O 0.82592 0.43811 0.51788 0.0
C888 C 0.86352 0.41459 0.50114 0.0
O889 O 0.81522 0.41948 0.49058 0.0
C890 C 0.75791 0.45218 0.55506 0.0
O891 O 0.82163 0.45173 0.55551 0.0
O892 O 0.83076 0.46111 0.51061 0.0
O893 O 0.92835 0.45288 0.50857 0.0
H894 H 0.70667 0.48118 0.45527 0.0
H895 H 0.86711 0.42473 0.55014 0.0
O896 O 0.90872 0.42027 0.51016 0.0
H897 H 0.03816 0.44928 0.57975 0.0
H898 H 0.13988 0.41959 0.51473 0.0
H899 H 0.00498 0.44751 0.47624 0.0
H900 H 0.01298 0.44877 0.5385 0.0
H901 H 0.02458 0.42195 0.5252 0.0
O902 O 0.72785 0.45148 0.53604 0.0
H903 H 0.78045 0.4672 0.47136 0.0
H904 H 0.62693 0.45431 0.51185 0.0
H905 H 0.12018 0.4455 0.46536 0.0
H906 H 0.89105 0.42492 0.5915 0.0
H907 H 0.18846 0.43145 0.48467 0.0
H908 H 0.97698 0.43729 0.60655 0.0
O909 O 0.89586 0.43668 0.47645 0.0
H910 H 0.63762 0.41549 0.52549 0.0
H911 H 0.68736 0.44227 0.46467 0.0
H912 H 0.61091 0.42714 0.45679 0.0
H913 H 0.58554 0.41362 0.48735 0.0
H914 H 0.71425 0.43069 0.53256 0.0
H915 H 0.5516 0.46821 0.49634 0.0
H916 H 0.59133 0.48174 0.46777 0.0
O917 O 0.80474 0.44679 0.47351 0.0
C918 C 0.89273 0.46143 0.50983 0.0
C919 C 0.68872 0.4753 0.46765 0.0
C920 C 0.60171 0.46803 0.49073 0.0
N921 N 0.70788 0.4599 0.49239 0.0
C922 C 0.73022 0.46735 0.47677 0.0
C923 C 0.64462 0.4602 0.49949 0.0
C924 C 0.62403 0.47562 0.47469 0.0
C925 C 0.90506 0.43005 0.55654 0.0
N926 N 0.93882 0.43669 0.54192 0.0
C927 C 0.91819 0.43015 0.57998 0.0
C928 C 0.96634 0.43711 0.58842 0.0
C929 C 1.00064 0.44385 0.5734 0.0
C930 C 0.98608 0.44354 0.55006 0.0
C931 C 0.11069 0.42576 0.50624 0.0
C932 C 0.03452 0.44144 0.48484 0.0
C933 C 0.04536 0.42712 0.51207 0.0
N934 N 0.0083 0.43494 0.5015 0.0
C935 C 0.09965 0.44031 0.47855 0.0
C936 C 0.13791 0.43242 0.48937 0.0
C937 C 0.85247 0.44157 0.46466 0.0
C938 C 0.64815 0.42134 0.51206 0.0
C939 C 0.67674 0.4364 0.47803 0.0
C940 C 0.63328 0.42786 0.47349 0.0
C941 C 0.61903 0.42029 0.49064 0.0
N942 N 0.70508 0.43739 0.49908 0.0
C943 C 0.6913 0.42999 0.51599 0.0
Co944 Co 0.665 0.06013 0.76084 0.0
Co945 Co 0.51139 0.04902 0.75449 0.0
O946 O 0.57268 0.05933 0.76818 0.0
C947 C 0.61541 0.08229 0.75081 0.0
O948 O 0.56709 0.07744 0.7402 0.0
C949 C 0.50128 0.04478 0.80427 0.0
O950 O 0.56489 0.04393 0.80444 0.0
O951 O 0.57186 0.03642 0.75936 0.0
O952 O 0.67202 0.0438 0.76098 0.0
H953 H 0.44229 0.01818 0.70277 0.0
H954 H 0.61218 0.07268 0.80011 0.0
O955 O 0.65958 0.07656 0.76035 0.0
H956 H 0.77714 0.04792 0.83307 0.0
H957 H 0.89026 0.07595 0.76729 0.0
H958 H 0.75342 0.04802 0.72969 0.0
H959 H 0.75626 0.04806 0.79151 0.0
H960 H 0.77354 0.0745 0.77647 0.0
O961 O 0.47151 0.04658 0.7855 0.0
H962 H 0.51978 0.03134 0.7197 0.0
H963 H 0.37009 0.04472 0.76125 0.0
H964 H 0.87002 0.04912 0.72015 0.0
H965 H 0.6318 0.07288 0.84175 0.0
H966 H 0.93926 0.06317 0.73901 0.0
H967 H 0.71467 0.06041 0.85849 0.0
O968 O 0.64675 0.05978 0.72737 0.0
H969 H 0.39068 0.08327 0.77689 0.0
H970 H 0.43441 0.05698 0.71457 0.0
H971 H 0.36229 0.0728 0.70746 0.0
H972 H 0.33999 0.08607 0.73877 0.0
H973 H 0.46292 0.06739 0.7832 0.0
H974 H 0.29106 0.03166 0.7449 0.0
H975 H 0.32701 0.01829 0.71538 0.0
O976 O 0.55 0.05139 0.72341 0.0
C977 C 0.63365 0.03557 0.76055 0.0
C978 C 0.426 0.02399 0.71558 0.0
C979 C 0.34114 0.03154 0.73924 0.0
N980 N 0.44938 0.03883 0.74133 0.0
C981 C 0.46961 0.03147 0.72517 0.0
C982 C 0.38614 0.0389 0.74848 0.0
C983 C 0.36134 0.02405 0.72268 0.0
C984 C 0.64871 0.0673 0.80725 0.0
N985 N 0.6832 0.06039 0.79339 0.0
C986 C 0.65944 0.06742 0.83085 0.0
C987 C 0.70588 0.06041 0.84023 0.0
C988 C 0.74091 0.0534 0.82598 0.0
C989 C 0.72878 0.05349 0.80247 0.0
C990 C 0.86062 0.06979 0.75899 0.0
C991 C 0.78334 0.05411 0.73808 0.0
C992 C 0.79449 0.06894 0.76408 0.0
N993 N 0.75686 0.06113 0.75375 0.0
C994 C 0.84928 0.05471 0.73255 0.0
C995 C 0.88809 0.06261 0.74313 0.0
C996 C 0.6013 0.05575 0.71509 0.0
C997 C 0.39988 0.07752 0.76313 0.0
C998 C 0.42504 0.06273 0.72826 0.0
C999 C 0.38406 0.07166 0.72415 0.0
C1000 C 0.37153 0.0791 0.74173 0.0
N1001 N 0.45262 0.06123 0.74931 0.0
C1002 C 0.44052 0.06849 0.76663 0.0
Co1003 Co 0.59074 0.18708 0.76091 0.0
Co1004 Co 0.74193 0.19902 0.75463 0.0
O1005 O 0.6828 0.18834 0.76826 0.0
C1006 C 0.64296 0.16503 0.75161 0.0
O1007 O 0.69047 0.16996 0.74069 0.0
C1008 C 0.75367 0.2029 0.80445 0.0
O1009 O 0.69005 0.20369 0.80483 0.0
O1010 O 0.68009 0.21129 0.76052 0.0
O1011 O 0.58118 0.20342 0.7603 0.0
H1012 H 0.80417 0.23084 0.70442 0.0
H1013 H 0.64469 0.17517 0.80081 0.0
O1014 O 0.59847 0.17068 0.76116 0.0
H1015 H 0.47577 0.19958 0.83238 0.0
H1016 H 0.3677 0.17042 0.76775 0.0
H1017 H 0.50112 0.19848 0.72904 0.0
H1018 H 0.49731 0.19911 0.79088 0.0
H1019 H 0.48404 0.17245 0.77705 0.0
O1020 O 0.78302 0.20125 0.78553 0.0
H1021 H 0.72927 0.2172 0.72112 0.0
H1022 H 0.88306 0.20369 0.76057 0.0
H1023 H 0.38484 0.1968 0.71936 0.0
H1024 H 0.62446 0.17531 0.84242 0.0
H1025 H 0.31733 0.18268 0.73878 0.0
H1026 H 0.53958 0.18761 0.85846 0.0
O1027 O 0.60972 0.18711 0.72752 0.0
H1028 H 0.86901 0.16508 0.77452 0.0
H1029 H 0.81712 0.19177 0.71372 0.0
H1030 H 0.89104 0.17634 0.70533 0.0
H1031 H 0.91745 0.16286 0.73586 0.0
H1032 H 0.7949 0.18057 0.78212 0.0
H1033 H 0.95958 0.21724 0.74444 0.0
H1034 H 0.92026 0.23091 0.71609 0.0
O1035 O 0.70188 0.19691 0.72363 0.0
C1036 C 0.61813 0.21183 0.76078 0.0
C1037 C 0.82195 0.2249 0.7167 0.0
C1038 C 0.90914 0.21728 0.73918 0.0
N1039 N 0.8019 0.2096 0.74164 0.0
C1040 C 0.77981 0.21713 0.72615 0.0
C1041 C 0.86557 0.20964 0.74829 0.0
C1042 C 0.88706 0.22494 0.72327 0.0
C1043 C 0.60731 0.18047 0.80765 0.0
N1044 N 0.57208 0.18709 0.79343 0.0
C1045 C 0.59623 0.18054 0.83123 0.0
C1046 C 0.54866 0.18746 0.84022 0.0
C1047 C 0.51288 0.19418 0.8256 0.0
C1048 C 0.52539 0.1939 0.80212 0.0
C1049 C 0.39658 0.17661 0.7592 0.0
C1050 C 0.47193 0.19236 0.73766 0.0
C1051 C 0.46249 0.17778 0.76436 0.0
N1052 N 0.49916 0.18563 0.75372 0.0
C1053 C 0.40618 0.19143 0.73207 0.0
C1054 C 0.36834 0.1835 0.74295 0.0
C1055 C 0.6529 0.19183 0.71532 0.0
C1056 C 0.85803 0.17091 0.76109 0.0
C1057 C 0.8283 0.18593 0.72709 0.0
C1058 C 0.87028 0.17722 0.72225 0.0
C1059 C 0.88512 0.16967 0.73939 0.0
N1060 N 0.80199 0.1871 0.74842 0.0
C1061 C 0.81634 0.17973 0.76532 0.0
Co1062 Co 0.66229 0.18643 0.49913 0.0
Co1063 Co 0.511 0.19867 0.50372 0.0
O1064 O 0.57056 0.18776 0.49087 0.0
C1065 C 0.60733 0.16443 0.50743 0.0
O1066 O 0.55571 0.1693 0.51581 0.0
C1067 C 0.5029 0.2017 0.45354 0.0
O1068 O 0.56663 0.20123 0.45328 0.0
O1069 O 0.5741 0.21076 0.49814 0.0
O1070 O 0.67253 0.20275 0.49914 0.0
H1071 H 0.44816 0.23081 0.55293 0.0
H1072 H 0.61131 0.1741 0.45931 0.0
O1073 O 0.65457 0.17004 0.49963 0.0
H1074 H 0.78281 0.19812 0.42818 0.0
H1075 H 0.88539 0.16956 0.49505 0.0
H1076 H 0.74968 0.19802 0.53143 0.0
H1077 H 0.75814 0.19811 0.46948 0.0
H1078 H 0.76988 0.17158 0.48456 0.0
O1079 O 0.47236 0.20103 0.47248 0.0
H1080 H 0.52291 0.21691 0.5371 0.0
H1081 H 0.37072 0.2037 0.49646 0.0
H1082 H 0.86512 0.19636 0.54228 0.0
H1083 H 0.6347 0.17378 0.41791 0.0
H1084 H 0.93379 0.18205 0.52403 0.0
H1085 H 0.72085 0.18588 0.40209 0.0
O1086 O 0.64071 0.18672 0.53226 0.0
H1087 H 0.38116 0.16518 0.48279 0.0
H1088 H 0.43224 0.19169 0.54401 0.0
H1089 H 0.3557 0.17654 0.55175 0.0
H1090 H 0.32965 0.16317 0.52099 0.0
H1091 H 0.45791 0.18038 0.47585 0.0
H1092 H 0.2944 0.21751 0.51171 0.0
H1093 H 0.33298 0.23117 0.54022 0.0
O1094 O 0.54838 0.19654 0.53514 0.0
C1095 C 0.63603 0.21122 0.49819 0.0
C1096 C 0.4307 0.22488 0.54058 0.0
C1097 C 0.34443 0.21742 0.51742 0.0
N1098 N 0.45106 0.20945 0.51603 0.0
C1099 C 0.47275 0.21697 0.53162 0.0
C1100 C 0.3879 0.20964 0.50881 0.0
C1101 C 0.3661 0.22508 0.53342 0.0
C1102 C 0.6493 0.17931 0.45258 0.0
N1103 N 0.68343 0.1861 0.46679 0.0
C1104 C 0.66214 0.17912 0.42911 0.0
C1105 C 0.71041 0.18593 0.42024 0.0
C1106 C 0.74515 0.19281 0.43487 0.0
C1107 C 0.73085 0.19279 0.45823 0.0
C1108 C 0.85601 0.17585 0.50308 0.0
C1109 C 0.77938 0.19182 0.52331 0.0
C1110 C 0.79055 0.17702 0.49724 0.0
N1111 N 0.75326 0.18497 0.50724 0.0
C1112 C 0.84465 0.1909 0.52957 0.0
C1113 C 0.88314 0.18286 0.51934 0.0
C1114 C 0.59657 0.19145 0.54397 0.0
C1115 C 0.39195 0.17098 0.4963 0.0
C1116 C 0.4213 0.18588 0.53056 0.0
C1117 C 0.3778 0.17734 0.53503 0.0
C1118 C 0.36316 0.16984 0.51775 0.0
N1119 N 0.4493 0.18694 0.50946 0.0
C1120 C 0.43512 0.17963 0.49244 0.0
Co1121 Co 0.58727 0.05968 0.49735 0.0
Co1122 Co 0.74011 0.04802 0.50303 0.0
O1123 O 0.67949 0.05859 0.48958 0.0
C1124 C 0.64083 0.08171 0.50657 0.0
O1125 O 0.69265 0.07684 0.51482 0.0
C1126 C 0.74784 0.04433 0.45294 0.0
O1127 O 0.68414 0.04488 0.45259 0.0
O1128 O 0.67756 0.03568 0.49866 0.0
O1129 O 0.57835 0.04338 0.49669 0.0
H1130 H 0.8064 0.01709 0.55495 0.0
H1131 H 0.63975 0.07244 0.45835 0.0
O1132 O 0.5939 0.07608 0.49855 0.0
H1133 H 0.47147 0.04841 0.42517 0.0
H1134 H 0.36338 0.0762 0.49249 0.0
H1135 H 0.49887 0.04762 0.52858 0.0
H1136 H 0.49382 0.04811 0.46664 0.0
H1137 H 0.47953 0.07447 0.48266 0.0
O1138 O 0.77824 0.04516 0.47188 0.0
H1139 H 0.73041 0.03054 0.53821 0.0
H1140 H 0.88039 0.04302 0.49557 0.0
H1141 H 0.38282 0.049 0.53876 0.0
H1142 H 0.6187 0.07307 0.41682 0.0
H1143 H 0.31426 0.06337 0.52066 0.0
H1144 H 0.53417 0.06096 0.39997 0.0
O1145 O 0.60672 0.0591 0.53067 0.0
H1146 H 0.86627 0.08144 0.47902 0.0
H1147 H 0.82026 0.05581 0.54233 0.0
H1148 H 0.89584 0.07125 0.54857 0.0
H1149 H 0.91934 0.08418 0.51676 0.0
H1150 H 0.79054 0.06596 0.47358 0.0
H1151 H 0.9579 0.02964 0.51173 0.0
H1152 H 0.92106 0.01658 0.5417 0.0
O1153 O 0.70356 0.05073 0.53432 0.0
C1154 C 0.61575 0.03503 0.49727 0.0
C1155 C 0.82308 0.02276 0.54195 0.0
C1156 C 0.90808 0.02979 0.51766 0.0
N1157 N 0.80103 0.03759 0.51603 0.0
C1158 C 0.78032 0.03041 0.53245 0.0
C1159 C 0.86394 0.03733 0.50854 0.0
C1160 C 0.88739 0.02247 0.53449 0.0
C1161 C 0.60247 0.06723 0.45117 0.0
N1162 N 0.56791 0.06027 0.4649 0.0
C1163 C 0.59094 0.06759 0.42763 0.0
C1164 C 0.54358 0.06078 0.41818 0.0
C1165 C 0.50843 0.05372 0.43231 0.0
C1166 C 0.52139 0.05357 0.45577 0.0
C1167 C 0.39272 0.06989 0.50045 0.0
C1168 C 0.46923 0.05385 0.52051 0.0
C1169 C 0.45853 0.06888 0.49499 0.0
N1170 N 0.49578 0.0609 0.5049 0.0
C1171 C 0.40361 0.05461 0.5264 0.0
C1172 C 0.36518 0.06268 0.51625 0.0
C1173 C 0.65266 0.05515 0.54279 0.0
C1174 C 0.85659 0.07584 0.49299 0.0
C1175 C 0.83009 0.06142 0.52842 0.0
C1176 C 0.87305 0.07013 0.53204 0.0
C1177 C 0.88626 0.07738 0.51418 0.0
N1178 N 0.80122 0.05996 0.50758 0.0
C1179 C 0.81399 0.06702 0.48998 0.0
Co1180 Co 0.33398 0.9368 0.24711 0.0
Co1181 Co 0.48717 0.94818 0.25335 0.0
O1182 O 0.4265 0.93766 0.23988 0.0
C1183 C 0.38407 0.91474 0.25799 0.0
O1184 O 0.43242 0.91968 0.26843 0.0
C1185 C 0.49789 0.95154 0.20325 0.0
O1186 O 0.43417 0.95123 0.20255 0.0
O1187 O 0.42592 0.96064 0.24812 0.0
O1188 O 0.32618 0.95312 0.24631 0.0
H1189 H 0.55343 0.97936 0.30464 0.0
H1190 H 0.38742 0.92388 0.20846 0.0
O1191 O 0.33994 0.92039 0.24824 0.0
H1192 H 0.2224 0.94821 0.17419 0.0
H1193 H 0.10942 0.92066 0.24089 0.0
H1194 H 0.24467 0.94907 0.27766 0.0
H1195 H 0.24284 0.94852 0.21578 0.0
H1196 H 0.22618 0.92217 0.23183 0.0
O1197 O 0.52731 0.95068 0.22237 0.0
H1198 H 0.47714 0.96597 0.28785 0.0
H1199 H 0.62826 0.95276 0.24669 0.0
H1200 H 0.12801 0.94791 0.28708 0.0
H1201 H 0.36823 0.92324 0.16682 0.0
H1202 H 0.05957 0.93362 0.26863 0.0
H1203 H 0.28536 0.9355 0.14942 0.0
O1204 O 0.35177 0.93746 0.2806 0.0
H1205 H 0.6099 0.91405 0.23164 0.0
H1206 H 0.5649 0.94057 0.2934 0.0
H1207 H 0.63798 0.92491 0.30082 0.0
H1208 H 0.66093 0.91152 0.26979 0.0
H1209 H 0.5367 0.92977 0.22502 0.0
H1210 H 0.70609 0.96606 0.2629 0.0
H1211 H 0.66883 0.97946 0.29215 0.0
O1212 O 0.4486 0.94583 0.28443 0.0
C1213 C 0.36415 0.96139 0.24667 0.0
C1214 C 0.5703 0.97354 0.29195 0.0
C1215 C 0.65595 0.96609 0.2685 0.0
N1216 N 0.54831 0.95856 0.2664 0.0
C1217 C 0.52736 0.96592 0.28242 0.0
C1218 C 0.61162 0.9586 0.25934 0.0
C1219 C 0.63502 0.9736 0.28492 0.0
C1220 C 0.35085 0.92916 0.20104 0.0
N1221 N 0.31617 0.93621 0.21454 0.0
C1222 C 0.34038 0.9288 0.17744 0.0
C1223 C 0.29395 0.93569 0.16768 0.0
C1224 C 0.25865 0.94283 0.18157 0.0
C1225 C 0.27054 0.94299 0.2051 0.0
C1226 C 0.13871 0.92694 0.24901 0.0
C1227 C 0.2151 0.94288 0.26946 0.0
C1228 C 0.20486 0.92782 0.24398 0.0
N1229 N 0.24205 0.93575 0.25408 0.0
C1230 C 0.14912 0.94224 0.27491 0.0
C1231 C 0.11076 0.93421 0.26457 0.0
C1232 C 0.39724 0.94153 0.29281 0.0
C1233 C 0.60043 0.91984 0.24528 0.0
C1234 C 0.57455 0.93477 0.27983 0.0
C1235 C 0.61607 0.92593 0.28412 0.0
C1236 C 0.62896 0.91842 0.2667 0.0
N1237 N 0.54679 0.93611 0.25877 0.0
C1238 C 0.55924 0.92879 0.2416 0.0
Co1239 Co 0.41381 0.81012 0.24764 0.0
Co1240 Co 0.26453 0.79734 0.2527 0.0
O1241 O 0.32215 0.80847 0.23969 0.0
C1242 C 0.3583 0.83197 0.25696 0.0
O1243 O 0.3107 0.82689 0.26753 0.0
C1244 C 0.25402 0.79437 0.20251 0.0
O1245 O 0.31769 0.79496 0.2018 0.0
O1246 O 0.32901 0.78546 0.24658 0.0
O1247 O 0.42608 0.79388 0.2482 0.0
H1248 H 0.20808 0.7649 0.30199 0.0
H1249 H 0.36111 0.82214 0.20764 0.0
O1250 O 0.40368 0.82647 0.24758 0.0
H1251 H 0.53318 0.79819 0.17665 0.0
H1252 H 0.6346 0.82772 0.24202 0.0
H1253 H 0.50341 0.79924 0.28032 0.0
H1254 H 0.50934 0.79838 0.21802 0.0
H1255 H 0.51914 0.82516 0.23199 0.0
O1256 O 0.22457 0.79494 0.22166 0.0
H1257 H 0.28028 0.77911 0.28588 0.0
H1258 H 0.12459 0.79181 0.24617 0.0
H1259 H 0.61881 0.80146 0.29075 0.0
H1260 H 0.38367 0.82227 0.16618 0.0
H1261 H 0.68523 0.81579 0.27153 0.0
H1262 H 0.47012 0.8102 0.15043 0.0
O1263 O 0.3934 0.80982 0.28087 0.0
H1264 H 0.13206 0.83072 0.2331 0.0
H1265 H 0.18534 0.8038 0.29329 0.0
H1266 H 0.10803 0.81874 0.30168 0.0
H1267 H 0.08088 0.83233 0.27144 0.0
H1268 H 0.20958 0.8157 0.22552 0.0
H1269 H 0.05081 0.77768 0.26171 0.0
H1270 H 0.09244 0.76412 0.2899 0.0
O1271 O 0.30285 0.79958 0.28398 0.0
C1272 C 0.39104 0.78526 0.24702 0.0
C1273 C 0.18931 0.77078 0.28978 0.0
C1274 C 0.10107 0.77794 0.26714 0.0
N1275 N 0.20654 0.78632 0.26524 0.0
C1276 C 0.22991 0.77886 0.28064 0.0
C1277 C 0.1431 0.78591 0.25837 0.0
C1278 C 0.12445 0.77034 0.28296 0.0
C1279 C 0.39927 0.81696 0.20094 0.0
N1280 N 0.43408 0.81031 0.21523 0.0
C1281 C 0.41163 0.81702 0.17744 0.0
C1282 C 0.46007 0.81024 0.16861 0.0
C1283 C 0.49543 0.80349 0.18331 0.0
C1284 C 0.48162 0.80362 0.20671 0.0
C1285 C 0.60622 0.82143 0.25046 0.0
C1286 C 0.53213 0.80544 0.27177 0.0
C1287 C 0.54081 0.81995 0.24488 0.0
N1288 N 0.50479 0.81198 0.25539 0.0
C1289 C 0.59739 0.80668 0.2778 0.0
C1290 C 0.6346 0.81473 0.26702 0.0
C1291 C 0.35059 0.80483 0.29274 0.0
C1292 C 0.14337 0.82483 0.2464 0.0
C1293 C 0.17395 0.8097 0.28008 0.0
C1294 C 0.13 0.81813 0.2849 0.0
C1295 C 0.11475 0.82574 0.26793 0.0
N1296 N 0.20179 0.80885 0.25892 0.0
C1297 C 0.18702 0.81628 0.24217 0.0
Co1298 Co 0.33538 0.80975 0.51015 0.0
Co1299 Co 0.48535 0.79722 0.50511 0.0
O1300 O 0.42706 0.80823 0.51818 0.0
C1301 C 0.38949 0.83174 0.5013 0.0
O1302 O 0.43745 0.8268 0.49064 0.0
C1303 C 0.49597 0.79423 0.55529 0.0
O1304 O 0.43227 0.7947 0.55599 0.0
O1305 O 0.42158 0.78522 0.51118 0.0
O1306 O 0.32413 0.7935 0.50928 0.0
H1307 H 0.54379 0.76494 0.45566 0.0
H1308 H 0.38685 0.8217 0.55045 0.0
O1309 O 0.34444 0.82611 0.51054 0.0
H1310 H 0.21593 0.79731 0.58073 0.0
H1311 H 0.11342 0.82693 0.51574 0.0
H1312 H 0.2469 0.79887 0.47711 0.0
H1313 H 0.24024 0.79772 0.53941 0.0
H1314 H 0.22888 0.82453 0.52593 0.0
O1315 O 0.52542 0.79486 0.53614 0.0
H1316 H 0.47073 0.77901 0.47184 0.0
H1317 H 0.6256 0.79191 0.51165 0.0
H1318 H 0.13153 0.80093 0.46651 0.0
H1319 H 0.36379 0.82161 0.59188 0.0
H1320 H 0.06396 0.81505 0.4859 0.0
H1321 H 0.27791 0.80932 0.60726 0.0
O1322 O 0.35623 0.80963 0.47695 0.0
H1323 H 0.61592 0.83079 0.52489 0.0
H1324 H 0.56421 0.80386 0.46456 0.0
H1325 H 0.64072 0.81893 0.45626 0.0
H1326 H 0.66709 0.83252 0.48657 0.0
H1327 H 0.53921 0.81564 0.53238 0.0
H1328 H 0.70023 0.77793 0.49605 0.0
H1329 H 0.65944 0.76434 0.46778 0.0
O1330 O 0.44694 0.79944 0.47383 0.0
C1331 C 0.35959 0.78493 0.51055 0.0
C1332 C 0.56219 0.77083 0.46791 0.0
C1333 C 0.64997 0.77812 0.4906 0.0
N1334 N 0.54401 0.78631 0.49253 0.0
C1335 C 0.5211 0.77884 0.47708 0.0
C1336 C 0.60746 0.786 0.49941 0.0
C1337 C 0.62706 0.7705 0.47474 0.0
C1338 C 0.34894 0.81642 0.557 0.0
N1339 N 0.31472 0.80976 0.54253 0.0
C1340 C 0.33629 0.81636 0.58048 0.0
C1341 C 0.28818 0.80945 0.5891 0.0
C1342 C 0.25342 0.8027 0.57423 0.0
C1343 C 0.2675 0.80295 0.55085 0.0
C1344 C 0.1423 0.82073 0.50722 0.0
C1345 C 0.21768 0.80497 0.48574 0.0
C1346 C 0.20772 0.81934 0.5129 0.0
N1347 N 0.24439 0.81148 0.50229 0.0
C1348 C 0.15244 0.80613 0.47961 0.0
C1349 C 0.11458 0.81406 0.49048 0.0
C1350 C 0.39919 0.80468 0.46507 0.0
C1351 C 0.60495 0.8249 0.51156 0.0
C1352 C 0.57526 0.80976 0.47781 0.0
C1353 C 0.61876 0.81826 0.47303 0.0
C1354 C 0.63357 0.82588 0.49005 0.0
N1355 N 0.54742 0.80885 0.49896 0.0
C1356 C 0.56176 0.81628 0.51574 0.0
Co1357 Co 0.41612 0.93645 0.51011 0.0
Co1358 Co 0.26627 0.94906 0.5056 0.0
O1359 O 0.32473 0.93803 0.51852 0.0
C1360 C 0.36141 0.91447 0.5016 0.0
O1361 O 0.31316 0.91943 0.49113 0.0
C1362 C 0.25685 0.95209 0.55584 0.0
O1363 O 0.32054 0.95156 0.5564 0.0
O1364 O 0.33043 0.96103 0.51144 0.0
O1365 O 0.42764 0.9527 0.5091 0.0
H1366 H 0.20706 0.98134 0.45625 0.0
H1367 H 0.36586 0.92459 0.55071 0.0
O1368 O 0.40681 0.92009 0.51064 0.0
H1369 H 0.53826 0.94894 0.58009 0.0
H1370 H 0.638 0.91918 0.51486 0.0
H1371 H 0.5036 0.94724 0.47661 0.0
H1372 H 0.51248 0.94848 0.53888 0.0
H1373 H 0.52293 0.92165 0.52553 0.0
O1374 O 0.22706 0.95147 0.53675 0.0
H1375 H 0.28034 0.96726 0.47225 0.0
H1376 H 0.12627 0.95443 0.51256 0.0
H1377 H 0.61857 0.94511 0.46553 0.0
H1378 H 0.39038 0.92472 0.59203 0.0
H1379 H 0.6866 0.93099 0.48472 0.0
H1380 H 0.47701 0.93699 0.60696 0.0
O1381 O 0.39411 0.93651 0.47701 0.0
H1382 H 0.13563 0.91558 0.52593 0.0
H1383 H 0.18637 0.94242 0.46531 0.0
H1384 H 0.10943 0.92737 0.45732 0.0
H1385 H 0.08356 0.91382 0.48777 0.0
H1386 H 0.21275 0.9307 0.53313 0.0
H1387 H 0.05144 0.96843 0.49714 0.0
H1388 H 0.09171 0.98198 0.46871 0.0
O1389 O 0.30373 0.94681 0.4742 0.0
C1390 C 0.3924 0.96129 0.51054 0.0
C1391 C 0.18889 0.97546 0.46858 0.0
C1392 C 0.10157 0.96822 0.49155 0.0
N1393 N 0.20747 0.95999 0.49318 0.0
C1394 C 0.2301 0.96745 0.47764 0.0
C1395 C 0.14419 0.96033 0.50026 0.0
C1396 C 0.12419 0.97582 0.47559 0.0
C1397 C 0.40409 0.92986 0.55705 0.0
N1398 N 0.4379 0.93648 0.54239 0.0
C1399 C 0.41756 0.92994 0.58048 0.0
C1400 C 0.46609 0.93684 0.58885 0.0
C1401 C 0.50044 0.94355 0.57378 0.0
C1402 C 0.48553 0.94328 0.55047 0.0
C1403 C 0.60891 0.92538 0.50642 0.0
C1404 C 0.53303 0.94114 0.48516 0.0
C1405 C 0.54372 0.92681 0.51237 0.0
N1406 N 0.5068 0.93466 0.50187 0.0
C1407 C 0.59804 0.93994 0.47876 0.0
C1408 C 0.63616 0.93201 0.48951 0.0
C1409 C 0.35091 0.94148 0.46527 0.0
C1410 C 0.14638 0.92145 0.51255 0.0
C1411 C 0.17552 0.93654 0.47863 0.0
C1412 C 0.13178 0.92805 0.47402 0.0
C1413 C 0.11725 0.92046 0.49112 0.0
N1414 N 0.20385 0.93746 0.49969 0.0
C1415 C 0.18979 0.93005 0.51655 0.0
Co1416 Co 0.66556 0.56027 0.2609 0.0
Co1417 Co 0.51294 0.54869 0.25469 0.0
O1418 O 0.57316 0.55926 0.26818 0.0
C1419 C 0.61399 0.58224 0.25016 0.0
O1420 O 0.56588 0.57722 0.23977 0.0
C1421 C 0.50349 0.54518 0.30472 0.0
O1422 O 0.56722 0.54554 0.30519 0.0
O1423 O 0.57489 0.53632 0.25968 0.0
O1424 O 0.6743 0.54396 0.26159 0.0
H1425 H 0.44759 0.51755 0.20316 0.0
H1426 H 0.61169 0.57307 0.29966 0.0
O1427 O 0.65859 0.57667 0.25985 0.0
H1428 H 0.77814 0.54893 0.33366 0.0
H1429 H 0.8892 0.57677 0.26703 0.0
H1430 H 0.75537 0.5482 0.2302 0.0
H1431 H 0.75747 0.54865 0.29209 0.0
H1432 H 0.7726 0.57506 0.27618 0.0
O1433 O 0.47345 0.54605 0.28573 0.0
H1434 H 0.52342 0.53101 0.21996 0.0
H1435 H 0.37224 0.54387 0.26156 0.0
H1436 H 0.87189 0.54956 0.22069 0.0
H1437 H 0.63109 0.57368 0.3413 0.0
H1438 H 0.93963 0.56393 0.23917 0.0
H1439 H 0.71468 0.56151 0.35856 0.0
O1440 O 0.64759 0.55963 0.22744 0.0
H1441 H 0.38837 0.58255 0.27693 0.0
H1442 H 0.43461 0.55629 0.21479 0.0
H1443 H 0.36054 0.57184 0.20763 0.0
H1444 H 0.33698 0.5851 0.23885 0.0
H1445 H 0.46254 0.56693 0.28329 0.0
H1446 H 0.29487 0.53049 0.24534 0.0
H1447 H 0.3324 0.51723 0.21586 0.0
O1448 O 0.55106 0.55116 0.22358 0.0
C1449 C 0.63669 0.53564 0.26111 0.0
C1450 C 0.43061 0.5233 0.21595 0.0
C1451 C 0.34492 0.53056 0.23965 0.0
N1452 N 0.45219 0.53825 0.24163 0.0
C1453 C 0.47328 0.53096 0.22548 0.0
C1454 C 0.38899 0.53809 0.24882 0.0
C1455 C 0.366 0.52312 0.2231 0.0
C1456 C 0.64858 0.56783 0.30703 0.0
N1457 N 0.68355 0.56085 0.29346 0.0
C1458 C 0.65917 0.56818 0.33062 0.0
C1459 C 0.706 0.56134 0.3403 0.0
C1460 C 0.74158 0.55427 0.32634 0.0
C1461 C 0.72956 0.55412 0.30282 0.0
C1462 C 0.86023 0.57046 0.2589 0.0
C1463 C 0.78464 0.55443 0.23842 0.0
C1464 C 0.79416 0.56947 0.26398 0.0
N1465 N 0.75737 0.56148 0.25386 0.0
C1466 C 0.85054 0.55518 0.23292 0.0
C1467 C 0.88849 0.56325 0.24327 0.0
C1468 C 0.60224 0.55553 0.21521 0.0
C1469 C 0.3981 0.57681 0.26321 0.0
C1470 C 0.42466 0.56203 0.22845 0.0
C1471 C 0.38259 0.57081 0.2243 0.0
C1472 C 0.36936 0.57825 0.24183 0.0
N1473 N 0.45261 0.56067 0.24947 0.0
C1474 C 0.43984 0.56792 0.26675 0.0
Co1475 Co 0.5864 0.68698 0.26131 0.0
Co1476 Co 0.73886 0.69859 0.25484 0.0
O1477 O 0.67885 0.68802 0.26846 0.0
C1478 C 0.63809 0.66502 0.25055 0.0
O1479 O 0.68607 0.67006 0.24011 0.0
C1480 C 0.74842 0.70216 0.30484 0.0
O1481 O 0.68468 0.70182 0.30528 0.0
O1482 O 0.6768 0.71095 0.25977 0.0
O1483 O 0.5775 0.70328 0.26194 0.0
H1484 H 0.80367 0.72965 0.203 0.0
H1485 H 0.64082 0.67423 0.30004 0.0
O1486 O 0.59353 0.67057 0.2603 0.0
H1487 H 0.47457 0.69836 0.33419 0.0
H1488 H 0.363 0.67042 0.26781 0.0
H1489 H 0.49615 0.699 0.23068 0.0
H1490 H 0.49473 0.6986 0.29259 0.0
H1491 H 0.47969 0.67217 0.27679 0.0
O1492 O 0.77848 0.70128 0.28584 0.0
H1493 H 0.72805 0.7162 0.21996 0.0
H1494 H 0.87952 0.70347 0.26159 0.0
H1495 H 0.37954 0.69759 0.22134 0.0
H1496 H 0.62193 0.67365 0.34171 0.0
H1497 H 0.31215 0.68321 0.23997 0.0
H1498 H 0.53844 0.68581 0.35905 0.0
O1499 O 0.60403 0.6876 0.22783 0.0
H1500 H 0.86394 0.6648 0.27722 0.0
H1501 H 0.81702 0.69095 0.21493 0.0
H1502 H 0.89123 0.67541 0.20782 0.0
H1503 H 0.91514 0.66221 0.23911 0.0
H1504 H 0.78963 0.6804 0.28353 0.0
H1505 H 0.95669 0.71683 0.24521 0.0
H1506 H 0.91891 0.73002 0.21564 0.0
O1507 O 0.70055 0.69605 0.22376 0.0
C1508 C 0.61502 0.71162 0.26131 0.0
C1509 C 0.82076 0.72393 0.21583 0.0
C1510 C 0.90661 0.71675 0.23955 0.0
N1511 N 0.79943 0.70903 0.24166 0.0
C1512 C 0.7782 0.71628 0.22546 0.0
C1513 C 0.86266 0.70922 0.24881 0.0
C1514 C 0.88539 0.72414 0.22295 0.0
C1515 C 0.60396 0.67946 0.30744 0.0
N1516 N 0.56877 0.68642 0.2939 0.0
C1517 C 0.59367 0.67913 0.33105 0.0
C1518 C 0.54689 0.68597 0.34077 0.0
C1519 C 0.51108 0.69302 0.32684 0.0
C1520 C 0.52281 0.69314 0.3033 0.0
C1521 C 0.39183 0.67673 0.25962 0.0
C1522 C 0.46703 0.69277 0.23897 0.0
C1523 C 0.45793 0.67775 0.2646 0.0
N1524 N 0.49453 0.68574 0.2544 0.0
C1525 C 0.40109 0.69199 0.23356 0.0
C1526 C 0.36332 0.68391 0.244 0.0
C1527 C 0.64926 0.69166 0.21551 0.0
C1528 C 0.85406 0.67052 0.26347 0.0
C1529 C 0.82712 0.68523 0.22862 0.0
C1530 C 0.86927 0.67646 0.22451 0.0
C1531 C 0.88269 0.66906 0.24207 0.0
N1532 N 0.79929 0.68662 0.24966 0.0
C1533 C 0.81225 0.6794 0.26697 0.0
Co1534 Co 0.66238 0.68644 0.9979 0.0
Co1535 Co 0.50957 0.69814 1.00332 0.0
O1536 O 0.57019 0.68751 0.99009 0.0
C1537 C 0.60858 0.66448 0.00753 0.0
O1538 O 0.55681 0.66939 0.01569 0.0
C1539 C 0.50237 0.70167 0.9532 0.0
O1540 O 0.56606 0.70111 0.95295 0.0
O1541 O 0.5722 0.71045 0.99881 0.0
O1542 O 0.6714 0.70274 0.99689 0.0
H1543 H 0.44309 0.72926 0.05471 0.0
H1544 H 0.60986 0.6735 0.95916 0.0
O1545 O 0.65561 0.67005 0.99943 0.0
H1546 H 0.77829 0.69736 0.92549 0.0
H1547 H 0.88617 0.66986 0.99338 0.0
H1548 H 0.75086 0.69864 0.02885 0.0
H1549 H 0.75592 0.69785 0.96694 0.0
H1550 H 0.77002 0.67156 0.98353 0.0
O1551 O 0.4717 0.7009 0.97209 0.0
H1552 H 0.51913 0.71574 0.03824 0.0
H1553 H 0.36939 0.70314 0.99567 0.0
H1554 H 0.86691 0.6973 0.03905 0.0
H1555 H 0.63094 0.67267 0.91764 0.0
H1556 H 0.93538 0.68282 0.02126 0.0
H1557 H 0.71554 0.68469 0.90054 0.0
O1558 O 0.64293 0.6872 0.0312 0.0
H1559 H 0.38336 0.66466 0.97974 0.0
H1560 H 0.42919 0.69049 0.04269 0.0
H1561 H 0.35349 0.67509 0.04912 0.0
H1562 H 0.3301 0.66205 0.0175 0.0
H1563 H 0.45918 0.68011 0.97412 0.0
H1564 H 0.29183 0.71658 0.01155 0.0
H1565 H 0.32852 0.72974 0.04136 0.0
O1566 O 0.54596 0.69555 0.03467 0.0
C1567 C 0.634 0.71109 0.99736 0.0
C1568 C 0.42647 0.72355 0.04178 0.0
C1569 C 0.3416 0.71645 0.01753 0.0
N1570 N 0.44862 0.70862 0.01611 0.0
C1571 C 0.46926 0.71586 0.03244 0.0
C1572 C 0.38578 0.70887 0.00856 0.0
C1573 C 0.36222 0.72382 0.03426 0.0
C1574 C 0.64718 0.67868 0.95187 0.0
N1575 N 0.68177 0.68569 0.96546 0.0
C1576 C 0.65872 0.67821 0.92834 0.0
C1577 C 0.70612 0.68496 0.91875 0.0
C1578 C 0.7413 0.69208 0.93274 0.0
C1579 C 0.72833 0.69235 0.95619 0.0
C1580 C 0.85687 0.67622 1.00121 0.0
C1581 C 0.78046 0.69237 0.02092 0.0
C1582 C 0.79106 0.67721 0.99573 0.0
N1583 N 0.75386 0.68525 0.00547 0.0
C1584 C 0.84608 0.69163 0.02682 0.0
C1585 C 0.88446 0.6835 0.01685 0.0
C1586 C 0.59694 0.69119 0.04324 0.0
C1587 C 0.39299 0.67031 0.99363 0.0
C1588 C 0.41939 0.68484 0.02886 0.0
C1589 C 0.37636 0.67615 0.03259 0.0
C1590 C 0.36322 0.66884 0.01483 0.0
N1591 N 0.44836 0.68623 0.00802 0.0
C1592 C 0.43565 0.6791 0.99052 0.0
Co1593 Co 0.58769 0.55978 0.99749 0.0
Co1594 Co 0.74051 0.5481 1.00307 0.0
O1595 O 0.67991 0.5587 0.98973 0.0
C1596 C 0.64135 0.58176 0.00705 0.0
O1597 O 0.69307 0.57685 0.01526 0.0
C1598 C 0.74835 0.54452 0.95295 0.0
O1599 O 0.68466 0.54507 0.95257 0.0
O1600 O 0.67793 0.53577 0.99857 0.0
O1601 O 0.57874 0.54348 0.99659 0.0
H1602 H 0.80674 0.51705 0.0547 0.0
H1603 H 0.64029 0.57266 0.95868 0.0
O1604 O 0.5944 0.57617 0.99892 0.0
H1605 H 0.47194 0.54876 0.92513 0.0
H1606 H 0.36388 0.57634 0.99281 0.0
H1607 H 0.49915 0.54762 0.0285 0.0
H1608 H 0.49425 0.54832 0.96659 0.0
H1609 H 0.48005 0.57463 0.98299 0.0
O1610 O 0.77868 0.5453 0.97191 0.0
H1611 H 0.73075 0.53053 0.03807 0.0
H1612 H 0.8808 0.54312 0.9956 0.0
H1613 H 0.38308 0.54898 0.03867 0.0
H1614 H 0.61928 0.57343 0.91715 0.0
H1615 H 0.31462 0.56342 0.02077 0.0
H1616 H 0.53471 0.56139 0.90012 0.0
O1617 O 0.60703 0.55909 0.0308 0.0
H1618 H 0.86657 0.58159 0.97941 0.0
H1619 H 0.82063 0.55581 0.04246 0.0
H1620 H 0.89613 0.57124 0.04886 0.0
H1621 H 0.91958 0.58425 0.01719 0.0
H1622 H 0.79093 0.5661 0.97381 0.0
H1623 H 0.9583 0.52971 0.01164 0.0
H1624 H 0.92143 0.51658 0.04147 0.0
O1625 O 0.70394 0.55073 0.03438 0.0
C1626 C 0.61613 0.53513 0.99711 0.0
C1627 C 0.82343 0.52275 0.04175 0.0
C1628 C 0.90847 0.52984 0.01756 0.0
N1629 N 0.80141 0.53764 0.01598 0.0
C1630 C 0.78067 0.53042 0.03232 0.0
C1631 C 0.86433 0.5374 0.0085 0.0
C1632 C 0.88776 0.52248 0.03431 0.0
C1633 C 0.603 0.56747 0.95142 0.0
N1634 N 0.5684 0.56047 0.96504 0.0
C1635 C 0.59149 0.56791 0.92788 0.0
C1636 C 0.54411 0.56114 0.91833 0.0
C1637 C 0.50891 0.55404 0.93235 0.0
C1638 C 0.52186 0.55381 0.95581 0.0
C1639 C 0.39317 0.57 1.00068 0.0
C1640 C 0.46956 0.55388 0.02052 0.0
C1641 C 0.45899 0.569 0.99523 0.0
N1642 N 0.49618 0.56098 0.00503 0.0
C1643 C 0.40392 0.55463 0.0264 0.0
C1644 C 0.36556 0.56274 0.01637 0.0
C1645 C 0.65298 0.55512 0.0429 0.0
C1646 C 0.85691 0.57595 0.99332 0.0
C1647 C 0.83045 0.56145 0.02861 0.0
C1648 C 0.87337 0.57016 0.03232 0.0
C1649 C 0.88655 0.57745 0.01453 0.0
N1650 N 0.80161 0.56003 0.00775 0.0
C1651 C 0.81437 0.56714 0.99022 0.0
Co1652 Co 0.33503 0.43715 0.7463 0.0
Co1653 Co 0.48829 0.44851 0.75258 0.0
O1654 O 0.42753 0.43802 0.73906 0.0
C1655 C 0.38504 0.41507 0.75698 0.0
O1656 O 0.43351 0.41997 0.76742 0.0
C1657 C 0.49822 0.45201 0.70252 0.0
O1658 O 0.43448 0.45171 0.70199 0.0
O1659 O 0.427 0.46098 0.7476 0.0
O1660 O 0.32726 0.45346 0.74564 0.0
H1661 H 0.55507 0.47952 0.80422 0.0
H1662 H 0.38837 0.42431 0.70753 0.0
O1663 O 0.34092 0.42075 0.7473 0.0
H1664 H 0.22328 0.44871 0.67352 0.0
H1665 H 0.11039 0.42105 0.74006 0.0
H1666 H 0.24587 0.44937 0.777 0.0
H1667 H 0.24377 0.44892 0.7151 0.0
H1668 H 0.22711 0.42257 0.73095 0.0
O1669 O 0.52804 0.4511 0.72156 0.0
H1670 H 0.47863 0.46617 0.78736 0.0
H1671 H 0.62925 0.45313 0.74576 0.0
H1672 H 0.12926 0.4482 0.78647 0.0
H1673 H 0.36913 0.42376 0.66588 0.0
H1674 H 0.06069 0.43396 0.76794 0.0
H1675 H 0.28623 0.43605 0.64861 0.0
O1676 O 0.35294 0.43776 0.77979 0.0
H1677 H 0.61106 0.41446 0.73028 0.0
H1678 H 0.56636 0.44078 0.79245 0.0
H1679 H 0.63965 0.42512 0.79957 0.0
H1680 H 0.66246 0.41183 0.76834 0.0
H1681 H 0.53765 0.43019 0.72396 0.0
H1682 H 0.70723 0.46639 0.76204 0.0
H1683 H 0.6703 0.47968 0.79154 0.0
O1684 O 0.44998 0.44606 0.78369 0.0
C1685 C 0.36524 0.46174 0.74613 0.0
C1686 C 0.57179 0.47375 0.79141 0.0
C1687 C 0.65717 0.46639 0.76771 0.0
N1688 N 0.54954 0.45885 0.76569 0.0
C1689 C 0.52877 0.46616 0.78185 0.0
C1690 C 0.61276 0.45892 0.75852 0.0
C1691 C 0.63642 0.47384 0.78428 0.0
C1692 C 0.35178 0.4296 0.70016 0.0
N1693 N 0.31712 0.43662 0.71373 0.0
C1694 C 0.34128 0.42929 0.67656 0.0
C1695 C 0.29483 0.4362 0.66688 0.0
C1696 C 0.25954 0.44331 0.68084 0.0
C1697 C 0.27147 0.44342 0.70437 0.0
C1698 C 0.13973 0.4273 0.74821 0.0
C1699 C 0.21625 0.4432 0.76876 0.0
C1700 C 0.20587 0.42819 0.74316 0.0
N1701 N 0.24312 0.4361 0.75331 0.0
C1702 C 0.1503 0.44255 0.77424 0.0
C1703 C 0.11187 0.43455 0.76385 0.0
C1704 C 0.39852 0.44177 0.79204 0.0
C1705 C 0.60165 0.42022 0.744 0.0
C1706 C 0.57594 0.43503 0.77879 0.0
C1707 C 0.61759 0.42619 0.78291 0.0
C1708 C 0.6304 0.41874 0.76537 0.0
N1709 N 0.54799 0.43643 0.75778 0.0
C1710 C 0.56035 0.42916 0.7405 0.0
Co1711 Co 0.4139 0.31043 0.74964 0.0
Co1712 Co 0.2665 0.29712 0.75293 0.0
O1713 O 0.32329 0.30854 0.74056 0.0
C1714 C 0.35691 0.33234 0.75707 0.0
O1715 O 0.30873 0.32736 0.76752 0.0
C1716 C 0.25676 0.29467 0.70265 0.0
O1717 O 0.32045 0.29525 0.70215 0.0
O1718 O 0.3319 0.28556 0.74602 0.0
O1719 O 0.42718 0.29418 0.75137 0.0
H1720 H 0.21276 0.26374 0.7998 0.0
H1721 H 0.36569 0.3218 0.70815 0.0
O1722 O 0.40303 0.32675 0.74837 0.0
H1723 H 0.54261 0.29771 0.68131 0.0
H1724 H 0.63439 0.32828 0.74621 0.0
H1725 H 0.49985 0.30018 0.78432 0.0
H1726 H 0.51359 0.29842 0.72223 0.0
H1727 H 0.52036 0.3254 0.73464 0.0
O1728 O 0.22687 0.29509 0.72175 0.0
H1729 H 0.28386 0.27834 0.78466 0.0
H1730 H 0.12691 0.29144 0.74615 0.0
H1731 H 0.61381 0.30271 0.79631 0.0
H1732 H 0.39348 0.32141 0.66709 0.0
H1733 H 0.6819 0.31684 0.7772 0.0
H1734 H 0.48239 0.30927 0.65343 0.0
O1735 O 0.38904 0.31064 0.78245 0.0
H1736 H 0.13044 0.33035 0.73542 0.0
H1737 H 0.18768 0.30288 0.79407 0.0
H1738 H 0.10898 0.31749 0.80341 0.0
H1739 H 0.07983 0.33135 0.77395 0.0
H1740 H 0.20936 0.31566 0.72688 0.0
H1741 H 0.0542 0.27692 0.76073 0.0
H1742 H 0.09702 0.26296 0.78783 0.0
O1743 O 0.30462 0.29894 0.78443 0.0
C1744 C 0.39352 0.28549 0.74842 0.0
C1745 C 0.19347 0.26979 0.78807 0.0
C1746 C 0.1045 0.27719 0.76612 0.0
N1747 N 0.20939 0.28579 0.76472 0.0
C1748 C 0.23344 0.2781 0.7795 0.0
C1749 C 0.14591 0.28537 0.75789 0.0
C1750 C 0.12855 0.26936 0.78133 0.0
C1751 C 0.40489 0.31659 0.70236 0.0
N1752 N 0.43814 0.31018 0.71757 0.0
C1753 C 0.42022 0.31637 0.67908 0.0
C1754 C 0.47003 0.30954 0.67142 0.0
C1755 C 0.5038 0.30304 0.68705 0.0
C1756 C 0.48704 0.30346 0.7102 0.0
C1757 C 0.60528 0.32207 0.75463 0.0
C1758 C 0.52932 0.30629 0.77582 0.0
C1759 C 0.54067 0.32042 0.74817 0.0
N1760 N 0.50373 0.31255 0.75864 0.0
C1761 C 0.59375 0.30771 0.78273 0.0
C1762 C 0.6319 0.31565 0.77201 0.0
C1763 C 0.3482 0.30494 0.79376 0.0
C1764 C 0.14259 0.32434 0.74838 0.0
C1765 C 0.17537 0.3089 0.78118 0.0
C1766 C 0.13066 0.31713 0.78655 0.0
C1767 C 0.11429 0.3249 0.77001 0.0
N1768 N 0.20285 0.30839 0.75991 0.0
C1769 C 0.18702 0.31598 0.7436 0.0
Co1770 Co 0.33411 0.30984 0.01104 0.0
Co1771 Co 0.48566 0.29799 0.00497 0.0
O1772 O 0.42626 0.30869 0.01842 0.0
C1773 C 0.38546 0.33191 1.0013 0.0
O1774 O 0.4331 0.32699 0.99042 0.0
C1775 C 0.49836 0.29433 0.0549 0.0
O1776 O 0.43477 0.2935 0.05553 0.0
O1777 O 0.42415 0.2857 0.01115 0.0
O1778 O 0.32502 0.29351 0.01075 0.0
H1779 H 0.54857 0.26603 0.95528 0.0
H1780 H 0.3879 0.32196 0.05071 0.0
O1781 O 0.3413 0.32624 0.01099 0.0
H1782 H 0.21946 0.2976 0.08277 0.0
H1783 H 0.11058 0.32634 0.01758 0.0
H1784 H 0.24481 0.29823 0.97939 0.0
H1785 H 0.24091 0.29791 0.04125 0.0
H1786 H 0.22697 0.32445 0.02692 0.0
O1787 O 0.52712 0.29593 0.03586 0.0
H1788 H 0.47338 0.27967 0.97178 0.0
H1789 H 0.62697 0.29345 0.01091 0.0
H1790 H 0.12849 0.29977 0.96969 0.0
H1791 H 0.36775 0.32198 0.09232 0.0
H1792 H 0.06056 0.31391 0.98884 0.0
H1793 H 0.28311 0.30971 0.10861 0.0
O1794 O 0.35304 0.30967 0.97763 0.0
H1795 H 0.61187 0.33213 0.0241 0.0
H1796 H 0.56051 0.30511 0.96388 0.0
H1797 H 0.63401 0.32056 0.95514 0.0
H1798 H 0.66017 0.33419 0.98539 0.0
H1799 H 0.53818 0.31661 0.03204 0.0
H1800 H 0.70377 0.2799 0.99498 0.0
H1801 H 0.6647 0.26608 0.96688 0.0
O1802 O 0.44544 0.29993 0.97397 0.0
C1803 C 0.36218 0.28512 0.01141 0.0
C1804 C 0.56623 0.27203 0.96744 0.0
C1805 C 0.65331 0.2798 0.98975 0.0
N1806 N 0.54587 0.2874 0.99214 0.0
C1807 C 0.52392 0.2798 0.97679 0.0
C1808 C 0.60958 0.28744 0.99875 0.0
C1809 C 0.63137 0.27206 0.97398 0.0
C1810 C 0.35064 0.31666 0.05765 0.0
N1811 N 0.3155 0.30996 0.04357 0.0
C1812 C 0.3396 0.31668 0.08123 0.0
C1813 C 0.29217 0.30978 0.09036 0.0
C1814 C 0.25647 0.30298 0.07588 0.0
C1815 C 0.26894 0.30316 0.05239 0.0
C1816 C 0.13964 0.32014 0.00915 0.0
C1817 C 0.21545 0.30436 0.9879 0.0
C1818 C 0.20558 0.31904 0.01433 0.0
N1819 N 0.24248 0.31118 1.00383 0.0
C1820 C 0.14967 0.30521 0.98229 0.0
C1821 C 0.1116 0.31316 0.99303 0.0
C1822 C 0.39635 0.30492 0.96553 0.0
C1823 C 0.60101 0.32622 0.0108 0.0
C1824 C 0.57157 0.31102 0.97712 0.0
C1825 C 0.61332 0.31974 0.97208 0.0
C1826 C 0.62801 0.32738 0.98906 0.0
N1827 N 0.54535 0.30993 0.99849 0.0
C1828 C 0.55954 0.31739 0.01523 0.0
Co1829 Co 0.41474 0.43659 0.00939 0.0
Co1830 Co 0.26531 0.44933 0.0047 0.0
O1831 O 0.32334 0.43825 0.01769 0.0
C1832 C 0.35922 0.41466 1.00095 0.0
O1833 O 0.31121 0.41965 0.99042 0.0
C1834 C 0.25584 0.45241 0.0549 0.0
O1835 O 0.31953 0.45184 0.05544 0.0
O1836 O 0.32978 0.46124 0.01055 0.0
O1837 O 0.4268 0.45283 0.00836 0.0
H1838 H 0.20741 0.48163 0.95522 0.0
H1839 H 0.3637 0.4248 0.04996 0.0
O1840 O 0.40486 0.42024 0.00996 0.0
H1841 H 0.53664 0.449 0.07948 0.0
H1842 H 0.636 0.41911 0.01443 0.0
H1843 H 0.5029 0.44729 0.97599 0.0
H1844 H 0.51123 0.44854 0.03824 0.0
H1845 H 0.5209 0.42169 0.02495 0.0
O1846 O 0.22599 0.45179 0.03582 0.0
H1847 H 0.28015 0.46749 0.9713 0.0
H1848 H 0.12545 0.45483 0.01154 0.0
H1849 H 0.61792 0.44506 0.96507 0.0
H1850 H 0.38785 0.42493 0.09131 0.0
H1851 H 0.6853 0.43088 0.98436 0.0
H1852 H 0.47475 0.43712 0.10631 0.0
O1853 O 0.39304 0.43666 0.97626 0.0
H1854 H 0.13347 0.41598 0.02501 0.0
H1855 H 0.18553 0.44272 0.96435 0.0
H1856 H 0.1082 0.42774 0.95632 0.0
H1857 H 0.08166 0.41424 0.9868 0.0
H1858 H 0.211 0.43103 0.03223 0.0
H1859 H 0.05115 0.46888 0.99603 0.0
H1860 H 0.09201 0.48238 0.96759 0.0
O1861 O 0.30296 0.44702 0.97333 0.0
C1862 C 0.39177 0.46145 0.00974 0.0
C1863 C 0.18898 0.47577 0.96754 0.0
C1864 C 0.1013 0.46862 0.99047 0.0
N1865 N 0.20693 0.46029 0.9922 0.0
C1866 C 0.22988 0.46773 0.97666 0.0
C1867 C 0.14362 0.4607 0.99923 0.0
C1868 C 0.12425 0.47619 0.97451 0.0
C1869 C 0.40205 0.43004 0.05634 0.0
N1870 N 0.43623 0.43661 0.0417 0.0
C1871 C 0.41531 0.43011 0.07977 0.0
C1872 C 0.464 0.43697 0.08819 0.0
C1873 C 0.4987 0.44364 0.07314 0.0
C1874 C 0.484 0.44337 0.04982 0.0
C1875 C 0.6072 0.42534 0.00595 0.0
C1876 C 0.53205 0.44116 0.98458 0.0
C1877 C 0.54199 0.42683 0.01181 0.0
N1878 N 0.50544 0.43471 1.00126 0.0
C1879 C 0.59708 0.43991 0.97827 0.0
C1880 C 0.63484 0.43195 0.98908 0.0
C1881 C 0.3501 0.44166 0.96446 0.0
C1882 C 0.1445 0.42183 0.01161 0.0
C1883 C 0.17439 0.43686 0.97767 0.0
C1884 C 0.13043 0.42841 0.97305 0.0
C1885 C 0.11553 0.42084 0.99016 0.0
N1886 N 0.20257 0.43778 0.99877 0.0
C1887 C 0.18815 0.4304 0.01563 0.0
H1888 H 0.04126 0.06094 0.06749 0.0
H1889 H 0.23995 0.04996 0.07522 0.0
H1890 H 0.02875 0.06108 0.109 0.0
H1891 H 0.22702 0.05008 0.11665 0.0
H1892 H 0.20051 0.06331 0.18955 0.0
H1893 H 0.21158 0.06356 0.14807 0.0
H1894 H 0.02494 0.04769 0.14133 0.0
H1895 H 0.0134 0.04744 0.18288 0.0
C1896 C 0.08235 0.05858 0.07799 0.0
C1897 C 0.14174 0.05548 0.06793 0.0
C1898 C 0.07496 0.0586 0.10179 0.0
C1899 C 0.12689 0.05561 0.11611 0.0
C1900 C 0.18631 0.05256 0.10609 0.0
C1901 C 0.19359 0.05244 0.0823 0.0
C1902 C 0.16159 0.0599 0.17929 0.0
C1903 C 0.10595 0.05537 0.18965 0.0
C1904 C 0.16821 0.05999 0.15548 0.0
C1905 C 0.11922 0.05563 0.14141 0.0
C1906 C 0.06327 0.05121 0.1517 0.0
C1907 C 0.05682 0.05103 0.17554 0.0
H1908 H 0.19968 0.18312 0.06924 0.0
H1909 H 0.01175 0.19873 0.07571 0.0
H1910 H 0.21062 0.18296 0.11072 0.0
H1911 H 0.02315 0.19857 0.11727 0.0
H1912 H 0.03987 0.18546 0.19118 0.0
H1913 H 0.02755 0.18523 0.14968 0.0
H1914 H 0.22519 0.19655 0.14204 0.0
H1915 H 0.23793 0.19677 0.18348 0.0
C1916 C 0.16054 0.18649 0.07946 0.0
C1917 C 0.10472 0.19092 0.06904 0.0
C1918 C 0.16709 0.18645 0.10326 0.0
C1919 C 0.11783 0.19077 0.11728 0.0
C1920 C 0.06169 0.19509 0.10693 0.0
C1921 C 0.05532 0.19522 0.08309 0.0
C1922 C 0.08087 0.18787 0.1807 0.0
C1923 C 0.14003 0.19109 0.19076 0.0
C1924 C 0.07358 0.1878 0.15689 0.0
C1925 C 0.1254 0.19086 0.14258 0.0
C1926 C 0.18459 0.19403 0.1526 0.0
C1927 C 0.19175 0.19419 0.17639 0.0
H1928 H 0.81029 0.95773 0.93514 0.0
H1929 H 0.90462 0.92604 0.93786 0.0
H1930 H 0.82214 0.95786 0.89344 0.0
H1931 H 0.915 0.92612 0.89618 0.0
H1932 H 0.8424 0.92642 0.81976 0.0
H1933 H 0.83099 0.92629 0.86142 0.0
H1934 H 0.92517 0.9579 0.86519 0.0
H1935 H 0.93804 0.95798 0.82353 0.0
C1936 C 0.83304 0.95076 0.92685 0.0
C1937 C 0.85657 0.94188 0.93981 0.0
C1938 C 0.84014 0.95088 0.90303 0.0
C1939 C 0.86956 0.94201 0.89167 0.0
C1940 C 0.89196 0.93304 0.90454 0.0
C1941 C 0.88616 0.93302 0.92838 0.0
C1942 C 0.86084 0.93334 0.82946 0.0
C1943 C 0.89118 0.94221 0.81834 0.0
C1944 C 0.85445 0.93323 0.85329 0.0
C1945 C 0.87701 0.9421 0.86644 0.0
C1946 C 0.90701 0.951 0.85538 0.0
C1947 C 0.91468 0.951 0.83158 0.0
H1948 H 0.7974 0.81195 0.93894 0.0
H1949 H 0.98965 0.79789 0.93296 0.0
H1950 H 0.78738 0.81208 0.89742 0.0
H1951 H 0.9793 0.79807 0.89133 0.0
H1952 H 0.96019 0.81196 0.81778 0.0
H1953 H 0.97119 0.81193 0.85933 0.0
H1954 H 0.77862 0.79821 0.86571 0.0
H1955 H 0.76734 0.79818 0.82417 0.0
C1956 C 0.83769 0.80892 0.92882 0.0
C1957 C 0.89449 0.80494 0.93939 0.0
C1958 C 0.83167 0.80894 0.905 0.0
C1959 C 0.88249 0.80508 0.89111 0.0
C1960 C 0.93953 0.80119 0.90159 0.0
C1961 C 0.94532 0.80105 0.92546 0.0
C1962 C 0.92001 0.80896 0.82799 0.0
C1963 C 0.86269 0.80512 0.81754 0.0
C1964 C 0.92658 0.80888 0.85181 0.0
C1965 C 0.87578 0.80507 0.86578 0.0
C1966 C 0.81837 0.80129 0.8554 0.0
C1967 C 0.81203 0.80125 0.83156 0.0
H1968 H 0.01231 0.5474 0.68261 0.0
H1969 H 0.20002 0.56307 0.68921 0.0
H1970 H 0.02428 0.54747 0.64105 0.0
H1971 H 0.2115 0.56315 0.64776 0.0
H1972 H 0.23965 0.54963 0.57488 0.0
H1973 H 0.22661 0.54965 0.61634 0.0
H1974 H 0.02871 0.56085 0.60874 0.0
H1975 H 0.0413 0.5608 0.56727 0.0
C1976 C 0.05595 0.5509 0.67526 0.0
C1977 C 0.10508 0.55525 0.68934 0.0
C1978 C 0.06267 0.55098 0.65142 0.0
C1979 C 0.11889 0.5553 0.64112 0.0
C1980 C 0.16793 0.55965 0.65518 0.0
C1981 C 0.16104 0.55966 0.67897 0.0
C1982 C 0.19336 0.55213 0.58199 0.0
C1983 C 0.14165 0.55525 0.56765 0.0
C1984 C 0.186 0.55218 0.60579 0.0
C1985 C 0.12663 0.55526 0.61582 0.0
C1986 C 0.07485 0.55834 0.60152 0.0
C1987 C 0.08232 0.55838 0.57774 0.0
H1988 H 0.04458 0.68468 0.6903 0.0
H1989 H 0.23979 0.69734 0.68272 0.0
H1990 H 0.03228 0.68444 0.64885 0.0
H1991 H 0.22692 0.69719 0.64127 0.0
H1992 H 0.20403 0.68428 0.56798 0.0
H1993 H 0.21612 0.68407 0.60943 0.0
H1994 H 0.02306 0.69751 0.61681 0.0
H1995 H 0.01039 0.69764 0.57534 0.0
C1996 C 0.08497 0.6874 0.67984 0.0
C1997 C 0.14331 0.691 0.68995 0.0
C1998 C 0.07767 0.68733 0.65605 0.0
C1999 C 0.12856 0.6908 0.64175 0.0
C2000 C 0.18702 0.69434 0.6518 0.0
C2001 C 0.19426 0.69447 0.6756 0.0
C2002 C 0.16394 0.68716 0.57839 0.0
C2003 C 0.10612 0.69095 0.56822 0.0
C2004 C 0.17112 0.6871 0.60218 0.0
C2005 C 0.12062 0.69079 0.61643 0.0
C2006 C 0.06263 0.69451 0.60632 0.0
C2007 C 0.05552 0.69462 0.58251 0.0
H2008 H 0.7633 0.44831 0.43264 0.0
H2009 H 0.95594 0.43445 0.43914 0.0
H2010 H 0.77474 0.44824 0.39108 0.0
H2011 H 0.96708 0.43445 0.39761 0.0
H2012 H 0.98747 0.44866 0.32439 0.0
H2013 H 0.97591 0.4484 0.36594 0.0
H2014 H 0.78396 0.43448 0.35907 0.0
H2015 H 0.79524 0.43468 0.31755 0.0
C2016 C 0.80796 0.44521 0.42527 0.0
C2017 C 0.85857 0.44135 0.43932 0.0
C2018 C 0.81438 0.44514 0.40143 0.0
C2019 C 0.87183 0.44135 0.39108 0.0
C2020 C 0.92246 0.43752 0.40509 0.0
C2021 C 0.91581 0.43746 0.42891 0.0
C2022 C 0.94287 0.4455 0.33169 0.0
C2023 C 0.89243 0.44165 0.31754 0.0
C2024 C 0.93638 0.44532 0.35552 0.0
C2025 C 0.87902 0.44142 0.36577 0.0
C2026 C 0.82852 0.43762 0.35167 0.0
C2027 C 0.83524 0.43768 0.32786 0.0
H2028 H 0.81235 0.28945 0.32316 0.0
H2029 H 0.90962 0.32087 0.31961 0.0
H2030 H 0.82584 0.28938 0.36477 0.0
H2031 H 0.92162 0.32086 0.36128 0.0
H2032 H 0.84892 0.32069 0.43809 0.0
H2033 H 0.83762 0.3209 0.39641 0.0
H2034 H 0.93049 0.28918 0.39249 0.0
H2035 H 0.9433 0.28903 0.43415 0.0
C2036 C 0.83614 0.29637 0.33125 0.0
C2037 C 0.85997 0.30517 0.31809 0.0
C2038 C 0.84417 0.29629 0.35503 0.0
C2039 C 0.87486 0.3051 0.36614 0.0
C2040 C 0.89764 0.31398 0.35308 0.0
C2041 C 0.89091 0.31396 0.32926 0.0
C2042 C 0.86716 0.31377 0.42834 0.0
C2043 C 0.89702 0.30484 0.43941 0.0
C2044 C 0.86086 0.31392 0.40452 0.0
C2045 C 0.883 0.30504 0.39133 0.0
C2046 C 0.9127 0.2961 0.40234 0.0
C2047 C 0.92032 0.29605 0.42613 0.0
H2048 H 0.51259 0.04955 0.68253 0.0
H2049 H 0.70716 0.06248 0.69021 0.0
H2050 H 0.5258 0.04961 0.64113 0.0
H2051 H 0.71984 0.0626 0.64873 0.0
H2052 H 0.74193 0.04902 0.57531 0.0
H2053 H 0.72953 0.04939 0.6168 0.0
H2054 H 0.5362 0.06269 0.60921 0.0
H2055 H 0.54803 0.06224 0.56777 0.0
C2056 C 0.55806 0.05246 0.67544 0.0
C2057 C 0.60873 0.05604 0.68981 0.0
C2058 C 0.56548 0.05254 0.65166 0.0
C2059 C 0.62385 0.05612 0.64162 0.0
C2060 C 0.67451 0.05969 0.65594 0.0
C2061 C 0.667 0.05968 0.67973 0.0
C2062 C 0.69681 0.05206 0.58244 0.0
C2063 C 0.64603 0.05561 0.5681 0.0
C2064 C 0.68986 0.05232 0.60625 0.0
C2065 C 0.63186 0.05606 0.61631 0.0
C2066 C 0.58122 0.05964 0.602 0.0
C2067 C 0.58824 0.05944 0.57821 0.0
H2068 H 0.59194 0.17615 0.68969 0.0
H2069 H 0.69626 0.20684 0.68411 0.0
H2070 H 0.57775 0.17583 0.64804 0.0
H2071 H 0.68018 0.20662 0.64259 0.0
H2072 H 0.55132 0.20656 0.57468 0.0
H2073 H 0.56584 0.20654 0.61629 0.0
H2074 H 0.66819 0.1757 0.61196 0.0
H2075 H 0.65558 0.17582 0.57026 0.0
C2076 C 0.61162 0.18283 0.67959 0.0
C2077 C 0.64527 0.19151 0.69015 0.0
C2078 C 0.60363 0.18262 0.65582 0.0
C2079 C 0.62769 0.19122 0.64226 0.0
C2080 C 0.66097 0.19993 0.65276 0.0
C2081 C 0.6704 0.20001 0.67647 0.0
C2082 C 0.57672 0.19976 0.58259 0.0
C2083 C 0.60244 0.1912 0.5692 0.0
C2084 C 0.58524 0.19979 0.60634 0.0
C2085 C 0.61814 0.19113 0.61718 0.0
C2086 C 0.64254 0.18245 0.60392 0.0
C2087 C 0.63546 0.18255 0.58012 0.0
H2088 H 0.26338 0.94899 0.4334 0.0
H2089 H 0.45136 0.93337 0.43956 0.0
H2090 H 0.27412 0.9488 0.39182 0.0
H2091 H 0.46167 0.93319 0.39805 0.0
H2092 H 0.48794 0.94699 0.32524 0.0
H2093 H 0.47571 0.94679 0.36669 0.0
H2094 H 0.27809 0.93541 0.35939 0.0
H2095 H 0.28995 0.93561 0.31785 0.0
C2096 C 0.30683 0.94547 0.42595 0.0
C2097 C 0.35643 0.94118 0.43992 0.0
C2098 C 0.31282 0.94532 0.40209 0.0
C2099 C 0.36878 0.94099 0.39165 0.0
C2100 C 0.41826 0.93668 0.40558 0.0
C2101 C 0.41208 0.93674 0.42941 0.0
C2102 C 0.44188 0.9444 0.3324 0.0
C2103 C 0.39003 0.94127 0.31811 0.0
C2104 C 0.435 0.94425 0.3562 0.0
C2105 C 0.37598 0.94107 0.36632 0.0
C2106 C 0.32401 0.93799 0.35209 0.0
C2107 C 0.33102 0.93804 0.32827 0.0
H2108 H 0.48765 0.79788 0.43287 0.0
H2109 H 0.29545 0.81187 0.43979 0.0
H2110 H 0.47567 0.79804 0.39132 0.0
H2111 H 0.28377 0.81196 0.39829 0.0
H2112 H 0.26227 0.79798 0.32494 0.0
H2113 H 0.27437 0.79807 0.36647 0.0
H2114 H 0.46635 0.81196 0.35953 0.0
H2115 H 0.45453 0.81194 0.31802 0.0
C2116 C 0.44297 0.80103 0.42559 0.0
C2117 C 0.39265 0.80491 0.43976 0.0
C2118 C 0.43624 0.80114 0.40176 0.0
C2119 C 0.37878 0.80501 0.39155 0.0
C2120 C 0.3284 0.80884 0.40567 0.0
C2121 C 0.33536 0.80885 0.42947 0.0
C2122 C 0.30699 0.8011 0.33221 0.0
C2123 C 0.35727 0.805 0.31805 0.0
C2124 C 0.3138 0.80118 0.35603 0.0
C2125 C 0.37131 0.80502 0.36625 0.0
C2126 C 0.42168 0.80887 0.35214 0.0
C2127 C 0.41464 0.80891 0.32834 0.0
H2128 H 0.54818 0.56207 0.06795 0.0
H2129 H 0.74245 0.54898 0.07533 0.0
H2130 H 0.53645 0.56244 0.1094 0.0
H2131 H 0.73016 0.54928 0.11682 0.0
H2132 H 0.70779 0.56233 0.19026 0.0
H2133 H 0.72026 0.56248 0.14878 0.0
H2134 H 0.5266 0.5493 0.14129 0.0
H2135 H 0.51361 0.54923 0.18271 0.0
C2136 C 0.58849 0.55929 0.07836 0.0
C2137 C 0.64636 0.55551 0.0682 0.0
C2138 C 0.58152 0.55944 0.10215 0.0
C2139 C 0.63231 0.55588 0.11642 0.0
C2140 C 0.69037 0.55219 0.10632 0.0
C2141 C 0.69726 0.55197 0.0825 0.0
C2142 C 0.66768 0.5595 0.17981 0.0
C2143 C 0.60957 0.5558 0.18992 0.0
C2144 C 0.67506 0.55952 0.15602 0.0
C2145 C 0.62444 0.55591 0.14173 0.0
C2146 C 0.56625 0.55227 0.1518 0.0
C2147 C 0.55896 0.55218 0.17559 0.0
H2148 H 0.73749 0.69787 0.18277 0.0
H2149 H 0.54348 0.68476 0.19083 0.0
H2150 H 0.72411 0.69758 0.14136 0.0
H2151 H 0.53063 0.6844 0.14938 0.0
H2152 H 0.50759 0.69745 0.07563 0.0
H2153 H 0.52028 0.6974 0.11711 0.0
H2154 H 0.71409 0.68427 0.10979 0.0
H2155 H 0.70196 0.68438 0.06835 0.0
C2156 C 0.6921 0.69488 0.17576 0.0
C2157 C 0.64166 0.69131 0.19023 0.0
C2158 C 0.68458 0.69467 0.15198 0.0
C2159 C 0.62632 0.69096 0.14206 0.0
C2160 C 0.57586 0.68741 0.15649 0.0
C2161 C 0.58347 0.68755 0.18027 0.0
C2162 C 0.55288 0.69451 0.08282 0.0
C2163 C 0.60369 0.69091 0.06855 0.0
C2164 C 0.56 0.69444 0.10663 0.0
C2165 C 0.61822 0.69084 0.11676 0.0
C2166 C 0.6689 0.68721 0.10252 0.0
C2167 C 0.6617 0.68721 0.07874 0.0
H2168 H 0.29095 0.43589 0.81695 0.0
H2169 H 0.48918 0.44711 0.82459 0.0
H2170 H 0.27869 0.43568 0.85847 0.0
H2171 H 0.47652 0.44691 0.86603 0.0
H2172 H 0.45081 0.43352 0.93891 0.0
H2173 H 0.46177 0.43335 0.89742 0.0
H2174 H 0.27456 0.44904 0.89088 0.0
H2175 H 0.26317 0.44921 0.93244 0.0
C2176 C 0.332 0.43829 0.82742 0.0
C2177 C 0.39118 0.44148 0.81733 0.0
C2178 C 0.32475 0.43823 0.85123 0.0
C2179 C 0.37663 0.44127 0.86554 0.0
C2180 C 0.43586 0.4444 0.85549 0.0
C2181 C 0.44298 0.44456 0.83169 0.0
C2182 C 0.41174 0.4369 0.92869 0.0
C2183 C 0.35598 0.44136 0.93912 0.0
C2184 C 0.4183 0.43686 0.90488 0.0
C2185 C 0.3691 0.4412 0.89086 0.0
C2186 C 0.31304 0.44555 0.90121 0.0
C2187 C 0.30668 0.44568 0.92506 0.0
H2188 H 0.31021 0.28899 0.82386 0.0
H2189 H 0.39626 0.32134 0.82077 0.0
H2190 H 0.32185 0.28907 0.86558 0.0
H2191 H 0.40618 0.32147 0.86253 0.0
H2192 H 0.33199 0.3201 0.93952 0.0
H2193 H 0.31915 0.32026 0.89783 0.0
H2194 H 0.42928 0.2902 0.89302 0.0
H2195 H 0.44377 0.29014 0.93457 0.0
C2196 C 0.33102 0.29615 0.83209 0.0
C2197 C 0.35247 0.30515 0.81904 0.0
C2198 C 0.33792 0.29616 0.85591 0.0
C2199 C 0.36492 0.30527 0.86716 0.0
C2200 C 0.38502 0.31437 0.85421 0.0
C2201 C 0.37955 0.31426 0.83036 0.0
C2202 C 0.35357 0.31354 0.92956 0.0
C2203 C 0.38895 0.30511 0.94033 0.0
C2204 C 0.34636 0.31366 0.90575 0.0
C2205 C 0.37305 0.30523 0.89233 0.0
C2206 C 0.40795 0.29676 0.90305 0.0
C2207 C 0.41648 0.29677 0.9268 0.0
H2208 H 0.24039 0.96698 0.23424 0.0
H2209 H 0.41895 0.9808 0.2604 0.0
H2210 H 0.1879 0.98477 0.23764 0.0
H2211 H 0.36561 -0.00151 0.26491 0.0
H2212 H 0.26947 0.03127 0.25015 0.0
H2213 H 0.32323 0.01371 0.24573 0.0
H2214 H 0.14563 0.99707 0.26478 0.0
H2215 H 0.09068 0.01473 0.26807 0.0
C2216 C 0.26853 0.97382 0.2407 0.0
C2217 C 0.33401 0.97245 0.24697 0.0
C2218 C 0.23814 0.98402 0.24292 0.0
C2219 C 0.2721 0.9931 0.25179 0.0
C2220 C 0.33796 0.99176 0.25773 0.0
C2221 C 0.36866 0.98158 0.25519 0.0
C2222 C 0.24173 0.02388 0.2535 0.0
C2223 C 0.17552 0.02444 0.25941 0.0
C2224 C 0.27286 0.01377 0.25107 0.0
C2225 C 0.23897 0.0039 0.25481 0.0
C2226 C 0.17307 0.00446 0.26128 0.0
C2227 C 0.14162 0.01461 0.26339 0.0
H2228 H 0.84484 0.26498 0.23848 0.0
H2229 H 0.02174 0.28129 0.25942 0.0
H2230 H 0.89902 0.24727 0.24202 0.0
H2231 H 0.07469 0.26365 0.26399 0.0
H2232 H 0.17077 0.23076 0.24905 0.0
H2233 H 0.11837 0.24852 0.24446 0.0
H2234 H 0.93823 0.23484 0.26975 0.0
H2235 H 0.98986 0.21698 0.27332 0.0
C2236 C 0.8952 0.2648 0.24386 0.0
C2237 C 0.92881 0.27458 0.24863 0.0
C2238 C 0.92617 0.25463 0.24612 0.0
C2239 C 0.99126 0.25398 0.25346 0.0
C2240 C 0.02493 0.26379 0.25798 0.0
C2241 C 0.99428 0.27395 0.25546 0.0
C2242 C 0.12013 0.23156 0.25382 0.0
C2243 C 0.08459 0.22242 0.26154 0.0
C2244 C 0.09 0.24177 0.25123 0.0
C2245 C 0.02378 0.24315 0.25659 0.0
C2246 C 0.98883 0.23407 0.26494 0.0
C2247 C 0.01872 0.22383 0.26725 0.0
H2248 H 0.08949 0.23158 0.98914 0.0
H2249 H 0.2658 0.2154 0.01105 0.0
H2250 H 0.14394 0.24931 0.99206 0.0
H2251 H 0.31883 0.23302 0.01517 0.0
H2252 H 0.41756 0.26544 0.99992 0.0
H2253 H 0.36398 0.24778 0.99563 0.0
H2254 H 0.18312 0.26219 0.01848 0.0
H2255 H 0.236 0.27996 0.0215 0.0
C2256 C 0.13973 0.2318 0.99465 0.0
C2257 C 0.17319 0.22205 0.99979 0.0
C2258 C 0.17089 0.24198 0.99655 0.0
C2259 C 0.23594 0.24266 1.00397 0.0
C2260 C 0.26923 0.23287 0.00901 0.0
C2261 C 0.2385 0.22272 0.00677 0.0
C2262 C 0.36646 0.26483 0.00417 0.0
C2263 C 0.33117 0.27414 0.01107 0.0
C2264 C 0.33562 0.25467 1.00179 0.0
C2265 C 0.26892 0.2535 0.00662 0.0
C2266 C 0.23411 0.26278 0.01409 0.0
C2267 C 0.2647 0.27298 0.0161 0.0
H2268 H 0.17504 0.01576 0.00999 0.0
H2269 H 0.99406 0.02933 0.98531 0.0
H2270 H 0.12296 0.99793 0.01457 0.0
H2271 H 0.94287 0.01146 0.98894 0.0
H2272 H 0.84891 0.98164 0.02057 0.0
H2273 H 0.90401 -0.00074 0.01722 0.0
H2274 H 0.07878 0.98269 0.995 0.0
H2275 H 0.02476 0.96509 0.9993 0.0
C2276 C 0.12449 0.0149 0.00514 0.0
C2277 C 0.08876 0.024 0.99733 0.0
C2278 C 0.09457 0.00466 0.00774 0.0
C2279 C 0.02841 0.00325 1.00234 0.0
C2280 C 0.9934 0.01228 0.99382 0.0
C2281 C 0.02304 0.02253 0.99149 0.0
C2282 C 0.89927 0.98175 0.01518 0.0
C2283 C 0.93223 0.97193 0.01018 0.0
C2284 C 0.93077 0.99187 0.01304 0.0
C2285 C 0.99579 0.99244 0.00561 0.0
C2286 C 0.02901 0.98259 1.00101 0.0
C2287 C 0.99777 0.97247 1.00339 0.0
H2288 H 0.75803 0.02991 0.7719 0.0
H2289 H 0.57706 0.01616 0.74764 0.0
H2290 H 0.80957 0.01206 0.76837 0.0
H2291 H 0.62947 -0.00163 0.7431 0.0
H2292 H 0.9038 0.98208 0.73741 0.0
H2293 H 0.84875 -0.00028 0.74054 0.0
H2294 H 0.67363 0.9832 0.76262 0.0
H2295 H 0.72756 0.9656 0.75847 0.0
C2296 C 0.72914 0.02307 0.76582 0.0
C2297 C 0.66329 0.02448 0.7601 0.0
C2298 C 0.75899 0.01283 0.76354 0.0
C2299 C 0.72406 0.00375 0.75518 0.0
C2300 C 0.65782 0.00512 0.74983 0.0
C2301 C 0.6277 0.01535 0.7524 0.0
C2302 C 0.85337 0.98221 0.74272 0.0
C2303 C 0.82026 0.9724 0.7477 0.0
C2304 C 0.82189 0.99234 0.74474 0.0
C2305 C 0.75676 0.99293 0.75206 0.0
C2306 C 0.72345 0.9831 0.75666 0.0
C2307 C 0.75465 0.97297 0.75439 0.0
H2308 H 0.99223 0.71719 0.77369 0.0
H2309 H 0.1701 0.73061 0.74606 0.0
H2310 H 0.94017 0.73501 0.76986 0.0
H2311 H 0.11718 0.7483 0.74111 0.0
H2312 H 0.02382 0.78127 0.75565 0.0
H2313 H 0.07668 0.76366 0.76018 0.0
H2314 H 0.89724 0.74721 0.74257 0.0
H2315 H 0.84315 0.76495 0.73921 0.0
C2316 C 0.02028 0.72395 0.7668 0.0
C2317 C 0.08547 0.72247 0.76028 0.0
C2318 C 0.99014 0.73416 0.76434 0.0
C2319 C 0.02409 0.74312 0.75497 0.0
C2320 C 0.08961 0.74166 0.74871 0.0
C2321 C 0.12006 0.73148 0.7515 0.0
C2322 C 0.99546 0.77392 0.75264 0.0
C2323 C 0.92899 0.77456 0.74713 0.0
C2324 C 0.02607 0.76377 0.75512 0.0
C2325 C 0.99142 0.75395 0.75182 0.0
C2326 C 0.92527 0.75458 0.74573 0.0
C2327 C 0.89431 0.76477 0.74356 0.0
H2328 H 0.75822 0.71648 0.98505 0.0
H2329 H 0.58018 0.73054 0.01113 0.0
H2330 H 0.81131 0.73424 0.98827 0.0
H2331 H 0.63408 0.74818 0.01545 0.0
H2332 H 0.72979 0.78082 0.99987 0.0
H2333 H 0.67626 0.76324 0.99575 0.0
H2334 H 0.85398 0.74671 0.0151 0.0
H2335 H 0.90878 0.76441 0.01808 0.0
C2336 C 0.73034 0.72337 0.99147 0.0
C2337 C 0.66479 0.72208 0.99773 0.0
C2338 C 0.76107 0.73355 0.99358 0.0
C2339 C 0.72735 0.74268 1.00231 0.0
C2340 C 0.66151 0.74141 0.00833 0.0
C2341 C 0.63049 0.73126 0.0059 0.0
C2342 C 0.75764 0.77346 1.00333 0.0
C2343 C 0.82382 0.77406 0.00927 0.0
C2344 C 0.72663 0.76333 1.00109 0.0
C2345 C 0.76057 0.75349 0.00505 0.0
C2346 C 0.82649 0.75409 0.01147 0.0
C2347 C 0.85786 0.76425 0.0134 0.0
H2348 H 0.09089 0.51488 0.76781 0.0
H2349 H 0.27 0.53154 0.75077 0.0
H2350 H 0.14617 0.49725 0.76449 0.0
H2351 H 0.32411 0.51402 0.7463 0.0
H2352 H 0.41964 0.48106 0.76051 0.0
H2353 H 0.36607 0.49871 0.76531 0.0
H2354 H 0.18916 0.48513 0.73712 0.0
H2355 H 0.24183 0.46737 0.73342 0.0
C2356 C 0.14197 0.51479 0.76333 0.0
C2357 C 0.17585 0.52465 0.75957 0.0
C2358 C 0.17362 0.50467 0.76119 0.0
C2359 C 0.23968 0.50416 0.75493 0.0
C2360 C 0.27358 0.51404 0.75147 0.0
C2361 C 0.24226 0.52414 0.75392 0.0
C2362 C 0.36948 0.48186 0.75515 0.0
C2363 C 0.33509 0.47278 0.74659 0.0
C2364 C 0.33866 0.49202 0.75787 0.0
C2365 C 0.27294 0.49338 0.75176 0.0
C2366 C 0.23925 0.48435 0.74255 0.0
C2367 C 0.26977 0.47417 0.74016 0.0
H2368 H 0.23214 0.78088 0.50076 0.0
H2369 H 0.41167 0.76447 0.51832 0.0
H2370 H 0.1788 0.7633 0.49644 0.0
H2371 H 0.35703 0.74677 0.51517 0.0
H2372 H 0.26094 0.7166 0.48483 0.0
H2373 H 0.3141 0.73435 0.48831 0.0
H2374 H 0.13701 0.74818 0.51586 0.0
H2375 H 0.08307 0.73057 0.51125 0.0
C2376 C 0.26015 0.77352 0.50406 0.0
C2377 C 0.32642 0.77412 0.50985 0.0
C2378 C 0.22924 0.76339 0.5017 0.0
C2379 C 0.26337 0.75355 0.50542 0.0
C2380 C 0.32939 0.75415 0.51172 0.0
C2381 C 0.36066 0.76431 0.51376 0.0
C2382 C 0.23312 0.72346 0.49138 0.0
C2383 C 0.16759 0.72216 0.49764 0.0
C2384 C 0.26389 0.73364 0.49364 0.0
C2385 C 0.23021 0.74274 0.50255 0.0
C2386 C 0.1644 0.74144 0.5086 0.0
C2387 C 0.13337 0.73131 0.506 0.0
H2388 H 0.02002 0.46554 0.49989 0.0
H2389 H 0.8402 0.48187 0.5174 0.0
H2390 H 0.07295 0.48315 0.49538 0.0
H2391 H 0.89441 0.4996 0.51405 0.0
H2392 H 0.98974 0.52978 0.48355 0.0
H2393 H 0.93711 0.51198 0.487 0.0
H2394 H 0.1143 0.49832 0.51482 0.0
H2395 H 0.16771 0.51598 0.51028 0.0
C2396 C 0.99186 0.47289 0.50313 0.0
C2397 C 0.92564 0.47226 0.50898 0.0
C2398 C 0.02252 0.48304 0.50066 0.0
C2399 C 0.98817 0.49286 0.50431 0.0
C2400 C 0.9222 0.49223 0.51065 0.0
C2401 C 0.89118 0.48205 0.51281 0.0
C2402 C 0.01771 0.52294 0.49015 0.0
C2403 C 0.08309 0.52431 0.49654 0.0
C2404 C 0.98724 0.51274 0.49239 0.0
C2405 C 0.02109 0.50368 0.50138 0.0
C2406 C 0.08679 0.50504 0.5075 0.0
C2407 C 0.11753 0.5152 0.50495 0.0
H2408 H 0.76075 0.53011 0.27339 0.0
H2409 H 0.58243 0.51627 0.24708 0.0
H2410 H 0.81351 0.51233 0.26981 0.0
H2411 H 0.63599 0.49863 0.24236 0.0
H2412 H 0.73115 0.46585 0.25696 0.0
H2413 H 0.67789 0.48343 0.26152 0.0
H2414 H 0.85606 0.49999 0.24279 0.0
H2415 H 0.91059 0.48228 0.2394 0.0
C2416 C 0.73273 0.52327 0.26685 0.0
C2417 C 0.66721 0.52462 0.26062 0.0
C2418 C 0.76328 0.51308 0.26453 0.0
C2419 C 0.72939 0.50401 0.2556 0.0
C2420 C 0.66356 0.50535 0.24963 0.0
C2421 C 0.63273 0.5155 0.25228 0.0
C2422 C 0.75915 0.47322 0.25372 0.0
C2423 C 0.82538 0.47262 0.24786 0.0
C2424 C 0.72829 0.48335 0.25621 0.0
C2425 C 0.76244 0.4932 0.25257 0.0
C2426 C 0.8284 0.4926 0.2462 0.0
C2427 C 0.85961 0.48244 0.24402 0.0
H2428 H 0.73536 0.28083 0.49605 0.0
H2429 H 0.90765 0.26474 0.52187 0.0
H2430 H 0.68203 0.2632 0.49213 0.0
H2431 H 0.8529 0.24705 0.51906 0.0
H2432 H 0.76362 0.21612 0.48971 0.0
H2433 H 0.81675 0.2339 0.49254 0.0
H2434 H 0.634 0.24873 0.51207 0.0
H2435 H 0.58036 0.23107 0.50805 0.0
C2436 C 0.76164 0.27354 0.50123 0.0
C2437 C 0.82595 0.27423 0.50925 0.0
C2438 C 0.73077 0.26339 0.49909 0.0
C2439 C 0.76295 0.25363 0.50524 0.0
C2440 C 0.82692 0.25434 0.5137 0.0
C2441 C 0.8582 0.26451 0.51554 0.0
C2442 C 0.7346 0.2232 0.49436 0.0
C2443 C 0.66759 0.22216 0.49854 0.0
C2444 C 0.76528 0.2334 0.49625 0.0
C2445 C 0.72996 0.2428 0.50271 0.0
C2446 C 0.66277 0.24175 0.5067 0.0
C2447 C 0.63191 0.23158 0.50447 0.0
H2448 H 0.51837 0.28152 0.76202 0.0
H2449 H 0.34629 0.26518 0.73669 0.0
H2450 H 0.57246 0.26393 0.76599 0.0
H2451 H 0.40169 0.24756 0.73961 0.0
H2452 H 0.49104 0.21687 0.76968 0.0
H2453 H 0.43811 0.23464 0.76661 0.0
H2454 H 0.62048 0.24932 0.7462 0.0
H2455 H 0.67404 0.23163 0.75039 0.0
C2456 C 0.49229 0.27419 0.75696 0.0
C2457 C 0.42778 0.27479 0.74909 0.0
C2458 C 0.52358 0.26406 0.75914 0.0
C2459 C 0.49159 0.25426 0.7532 0.0
C2460 C 0.42751 0.25489 0.74482 0.0
C2461 C 0.39585 0.26502 0.74293 0.0
C2462 C 0.52006 0.22391 0.76478 0.0
C2463 C 0.58693 0.22281 0.76037 0.0
C2464 C 0.48947 0.2341 0.76275 0.0
C2465 C 0.5247 0.24345 0.75594 0.0
C2466 C 0.5918 0.24236 0.75179 0.0
C2467 C 0.6226 0.23218 0.75413 0.0
H2468 H 0.66962 0.01561 0.51123 0.0
H2469 H 0.49145 0.0296 0.48513 0.0
H2470 H 0.61571 0.99797 0.51577 0.0
H2471 H 0.43835 0.01186 0.48857 0.0
H2472 H 0.34084 0.98176 0.51857 0.0
H2473 H 0.39573 -0.00056 0.51549 0.0
H2474 H 0.57342 0.98287 0.49628 0.0
H2475 H 0.51979 0.9653 0.50049 0.0
C2476 C 0.61927 0.01488 0.50605 0.0
C2477 C 0.58495 0.02403 0.4978 0.0
C2478 C 0.58825 0.00473 0.5086 0.0
C2479 C 0.52237 0.00344 0.50264 0.0
C2480 C 0.48862 0.01256 0.49384 0.0
C2481 C 0.51936 0.02274 0.49161 0.0
C2482 C 0.39178 0.9819 0.5139 0.0
C2483 C 0.42577 0.97208 0.50982 0.0
C2484 C 0.4232 0.99205 0.51191 0.0
C2485 C 0.48913 0.99264 0.50549 0.0
C2486 C 0.52304 0.98279 0.50161 0.0
C2487 C 0.49197 0.97267 0.50391 0.0
H2488 H 0.66869 0.73096 0.2468 0.0
H2489 H 0.4912 0.71715 0.27387 0.0
H2490 H 0.61473 0.74856 0.24191 0.0
H2491 H 0.43807 0.73488 0.27011 0.0
H2492 H 0.33951 0.76473 0.23966 0.0
H2493 H 0.39464 0.74708 0.24302 0.0
H2494 H 0.57295 0.76383 0.26083 0.0
H2495 H 0.51904 0.78136 0.25629 0.0
C2496 C 0.6185 0.73173 0.25214 0.0
C2497 C 0.58436 0.72263 0.26074 0.0
C2498 C 0.58744 0.74186 0.24938 0.0
C2499 C 0.5217 0.74319 0.25549 0.0
C2500 C 0.48819 0.73414 0.2647 0.0
C2501 C 0.51896 0.72398 0.26712 0.0
C2502 C 0.39065 0.76463 0.24405 0.0
C2503 C 0.4247 0.77449 0.24767 0.0
C2504 C 0.42221 0.7545 0.24622 0.0
C2505 C 0.48836 0.75397 0.25237 0.0
C2506 C 0.52238 0.76386 0.25572 0.0
C2507 C 0.49115 0.77396 0.25323 0.0
H2508 H 0.51931 0.46539 0.99978 0.0
H2509 H 0.34059 0.48193 0.01782 0.0
H2510 H 0.57331 0.48295 0.99569 0.0
H2511 H 0.3958 0.49959 0.01485 0.0
H2512 H 0.49197 0.52974 0.98475 0.0
H2513 H 0.43872 0.512 0.98799 0.0
H2514 H 0.61572 0.49803 0.01529 0.0
H2515 H 0.66979 0.51566 0.01095 0.0
C2516 C 0.49163 0.47278 1.00322 0.0
C2517 C 0.42538 0.47222 0.00908 0.0
C2518 C 0.5229 0.48289 1.00099 0.0
C2519 C 0.48914 0.49275 0.00488 0.0
C2520 C 0.42316 0.49219 0.01125 0.0
C2521 C 0.39156 0.48205 0.01318 0.0
C2522 C 0.51977 0.52286 0.99121 0.0
C2523 C 0.5853 0.52413 0.99749 0.0
C2524 C 0.48895 0.51268 0.99332 0.0
C2525 C 0.52254 0.50354 1.0021 0.0
C2526 C 0.58838 0.50481 0.00814 0.0
C2527 C 0.61949 0.51495 0.0057 0.0
H2528 H 0.03261 0.15198 0.26553 0.0
H2529 H 0.22638 0.15001 0.23723 0.0
H2530 H 0.02595 0.13198 0.26594 0.0
H2531 H 0.21933 0.12999 0.23751 0.0
H2532 H 0.20858 0.09489 0.26606 0.0
H2533 H 0.21423 0.11488 0.26617 0.0
H2534 H 0.02052 0.11652 0.23794 0.0
H2535 H 0.01447 0.09648 0.23796 0.0
C2536 C 0.07379 0.14729 0.2594 0.0
C2537 C 0.13005 0.15258 0.25134 0.0
C2538 C 0.06975 0.13583 0.2595 0.0
C2539 C 0.12207 0.12943 0.25174 0.0
C2540 C 0.17846 0.13472 0.2438 0.0
C2541 C 0.18233 0.14618 0.24352 0.0
C2542 C 0.16704 0.0995 0.25994 0.0
C2543 C 0.11107 0.09409 0.25196 0.0
C2544 C 0.17052 0.11095 0.25987 0.0
C2545 C 0.11795 0.11726 0.25199 0.0
C2546 C 0.06162 0.11187 0.24428 0.0
C2547 C 0.0583 0.1004 0.24418 0.0
H2548 H 0.20911 0.15158 0.99202 0.0
H2549 H 0.01479 0.14994 0.01995 0.0
H2550 H 0.21466 0.13158 0.99171 0.0
H2551 H 0.02075 0.12991 0.01977 0.0
H2552 H 0.0331 0.09443 0.99248 0.0
H2553 H 0.02646 0.11443 0.99181 0.0
H2554 H 0.21957 0.1165 0.02044 0.0
H2555 H 0.2266 0.0965 0.02097 0.0
C2556 C 0.1675 0.14696 0.99804 0.0
C2557 C 0.11153 0.15235 0.00606 0.0
C2558 C 0.17091 0.13551 0.998 0.0
C2559 C 0.11826 0.12919 0.0058 0.0
C2560 C 0.0619 0.13457 0.0135 0.0
C2561 C 0.05864 0.14604 0.0137 0.0
C2562 C 0.07422 0.09915 0.9986 0.0
C2563 C 0.13038 0.09388 0.00681 0.0
C2564 C 0.0702 0.1106 0.99833 0.0
C2565 C 0.12245 0.11703 0.00608 0.0
C2566 C 0.17877 0.11176 0.01415 0.0
C2567 C 0.18262 0.1003 0.01458 0.0
H2568 H 0.79048 0.902 0.74161 0.0
H2569 H 0.98406 0.9003 0.77015 0.0
H2570 H 0.78472 0.88201 0.74123 0.0
H2571 H 0.9779 0.88026 0.76987 0.0
H2572 H 0.9668 0.84495 0.74182 0.0
H2573 H 0.97293 0.86495 0.74152 0.0
H2574 H 0.77918 0.86677 0.76968 0.0
H2575 H 0.77265 0.84674 0.76986 0.0
C2576 C 0.83189 0.89737 0.74776 0.0
C2577 C 0.88776 0.90274 0.75594 0.0
C2578 C 0.82834 0.88592 0.74768 0.0
C2579 C 0.88073 0.87958 0.75559 0.0
C2580 C 0.93694 0.88494 0.76351 0.0
C2581 C 0.94033 0.89641 0.76376 0.0
C2582 C 0.92538 0.84961 0.7479 0.0
C2583 C 0.8692 0.84425 0.75589 0.0
C2584 C 0.92913 0.86106 0.74786 0.0
C2585 C 0.87663 0.86742 0.75562 0.0
C2586 C 0.82022 0.86208 0.76341 0.0
C2587 C 0.81662 0.85061 0.76362 0.0
H2588 H 0.76293 0.89988 0.01169 0.0
H2589 H 0.96577 0.90188 0.99368 0.0
H2590 H 0.77042 0.87993 0.01297 0.0
H2591 H 0.97269 0.88198 0.99274 0.0
H2592 H 0.9866 0.84619 0.01096 0.0
H2593 H 0.97896 0.86613 0.0125 0.0
H2594 H 0.77604 0.86408 0.99312 0.0
H2595 H 0.78318 0.84417 0.99381 0.0
C2596 C 0.80889 0.89598 0.00767 0.0
C2597 C 0.8638 0.90235 1.0027 0.0
C2598 C 0.81329 0.88452 0.00817 0.0
C2599 C 0.87226 0.87916 1.0029 0.0
C2600 C 0.92683 0.88567 0.99753 0.0
C2601 C 0.92287 0.89711 0.99782 0.0
C2602 C 0.94047 0.85008 0.00716 0.0
C2603 C 0.88547 0.84371 1.00234 0.0
C2604 C 0.93598 0.86154 0.00781 0.0
C2605 C 0.8768 0.8669 1.00284 0.0
C2606 C 0.82209 0.86039 0.99765 0.0
C2607 C 0.82617 0.84894 0.99779 0.0
H2608 H 0.2117 0.59456 0.74193 0.0
H2609 H 0.00934 0.59663 0.76055 0.0
H2610 H 0.21858 0.61446 0.74064 0.0
H2611 H 0.01686 0.61659 0.76152 0.0
H2612 H 0.03001 0.65243 0.74298 0.0
H2613 H 0.02226 0.63251 0.74192 0.0
H2614 H 0.22573 0.63023 0.76048 0.0
H2615 H 0.23389 0.65015 0.75927 0.0
C2616 C 0.1689 0.59935 0.74611 0.0
C2617 C 0.11 0.59414 0.7513 0.0
C2618 C 0.17284 0.61079 0.74562 0.0
C2619 C 0.11846 0.61732 0.75114 0.0
C2620 C 0.05958 0.61198 0.75662 0.0
C2621 C 0.05517 0.60051 0.7563 0.0
C2622 C 0.07297 0.6476 0.74667 0.0
C2623 C 0.13258 0.65275 0.75109 0.0
C2624 C 0.06857 0.63615 0.74632 0.0
C2625 C 0.12327 0.62958 0.75118 0.0
C2626 C 0.18274 0.63487 0.75602 0.0
C2627 C 0.18753 0.64632 0.75556 0.0
H2628 H 0.0129 0.65011 0.49871 0.0
H2629 H 0.21597 0.65209 0.51635 0.0
H2630 H 0.01992 0.63017 0.49775 0.0
H2631 H 0.22246 0.63217 0.51768 0.0
H2632 H 0.23542 0.59636 0.49904 0.0
H2633 H 0.22838 0.6163 0.49809 0.0
H2634 H 0.02528 0.61428 0.51731 0.0
H2635 H 0.03186 0.59436 0.51596 0.0
C2636 C 0.05881 0.64621 0.50276 0.0
C2637 C 0.11393 0.65256 0.50751 0.0
C2638 C 0.06293 0.63475 0.50246 0.0
C2639 C 0.12184 0.62937 0.5077 0.0
C2640 C 0.17661 0.63586 0.51291 0.0
C2641 C 0.17293 0.64732 0.51241 0.0
C2642 C 0.18939 0.60026 0.50295 0.0
C2643 C 0.13416 0.5939 0.50749 0.0
C2644 C 0.18524 0.61172 0.50264 0.0
C2645 C 0.12618 0.61709 0.50769 0.0
C2646 C 0.07127 0.61059 0.5127 0.0
C2647 C 0.075 0.59914 0.51219 0.0
H2648 H 0.96406 0.345 0.24059 0.0
H2649 H 0.77001 0.34697 0.26866 0.0
H2650 H 0.97048 0.36499 0.23997 0.0
H2651 H 0.77682 0.36699 0.26816 0.0
H2652 H 0.78893 0.40225 0.24048 0.0
H2653 H 0.78268 0.38226 0.23985 0.0
H2654 H 0.976 0.38029 0.26831 0.0
H2655 H 0.98266 0.40032 0.26883 0.0
C2656 C 0.92269 0.34969 0.24657 0.0
C2657 C 0.86651 0.34439 0.2547 0.0
C2658 C 0.9266 0.36114 0.24635 0.0
C2659 C 0.87426 0.36755 0.25408 0.0
C2660 C 0.81774 0.36227 0.26192 0.0
C2661 C 0.81398 0.3508 0.26231 0.0
C2662 C 0.83026 0.39757 0.24654 0.0
C2663 C 0.8863 0.40288 0.25475 0.0
C2664 C 0.82644 0.38611 0.2463 0.0
C2665 C 0.87874 0.37972 0.25408 0.0
C2666 C 0.93512 0.38501 0.26203 0.0
C2667 C 0.93878 0.39648 0.26243 0.0
H2668 H 0.98586 0.34666 0.48842 0.0
H2669 H 0.79202 0.34455 0.51663 0.0
H2670 H 0.97822 0.36668 0.48869 0.0
H2671 H 0.78479 0.36453 0.51701 0.0
H2672 H 0.77076 0.39977 0.48799 0.0
H2673 H 0.77844 0.37975 0.48854 0.0
H2674 H 0.97183 0.38201 0.51686 0.0
H2675 H 0.96456 0.40198 0.51618 0.0
C2676 C 0.94177 0.35046 0.49475 0.0
C2677 C 0.88954 0.34402 0.50247 0.0
C2678 C 0.93753 0.36192 0.495 0.0
C2679 C 0.88082 0.36716 0.50281 0.0
C2680 C 0.82879 0.36072 0.51064 0.0
C2681 C 0.83318 0.34927 0.51056 0.0
C2682 C 0.81487 0.39599 0.49435 0.0
C2683 C 0.86706 0.40247 0.502 0.0
C2684 C 0.81913 0.38453 0.49478 0.0
C2685 C 0.87582 0.37932 0.5027 0.0
C2686 C 0.92784 0.3858 0.51042 0.0
C2687 C 0.92344 0.39724 0.51016 0.0
H2688 H 0.52264 0.09708 0.73769 0.0
H2689 H 0.71694 0.09493 0.76547 0.0
H2690 H 0.52991 0.11709 0.73828 0.0
H2691 H 0.72384 0.11493 0.76617 0.0
H2692 H 0.73587 0.15037 0.73792 0.0
H2693 H 0.72902 0.13035 0.73805 0.0
H2694 H 0.53619 0.13224 0.76696 0.0
H2695 H 0.54266 0.15224 0.76672 0.0
C2696 C 0.56683 0.10087 0.74394 0.0
C2697 C 0.61925 0.09442 0.75149 0.0
C2698 C 0.57083 0.11233 0.7444 0.0
C2699 C 0.62748 0.11757 0.75225 0.0
C2700 C 0.67984 0.11112 0.75981 0.0
C2701 C 0.67568 0.09966 0.75953 0.0
C2702 C 0.69204 0.14652 0.74433 0.0
C2703 C 0.63977 0.1529 0.75227 0.0
C2704 C 0.68828 0.13505 0.74451 0.0
C2705 C 0.632 0.12973 0.75246 0.0
C2706 C 0.57988 0.13611 0.76049 0.0
C2707 C 0.58381 0.14757 0.76049 0.0
H2708 H 0.51082 0.14977 0.49866 0.0
H2709 H 0.71382 0.15205 0.51625 0.0
H2710 H 0.51921 0.12984 0.49734 0.0
H2711 H 0.72168 0.13215 0.51719 0.0
H2712 H 0.73718 0.09644 0.49827 0.0
H2713 H 0.72861 0.11637 0.49736 0.0
H2714 H 0.52581 0.1139 0.51673 0.0
H2715 H 0.5339 0.094 0.51537 0.0
C2716 C 0.55701 0.14594 0.50262 0.0
C2717 C 0.61171 0.15237 0.50745 0.0
C2718 C 0.56193 0.13448 0.5021 0.0
C2719 C 0.62123 0.1292 0.50721 0.0
C2720 C 0.67557 0.13578 0.51251 0.0
C2721 C 0.67108 0.14722 0.51223 0.0
C2722 C 0.69088 0.10024 0.50221 0.0
C2723 C 0.63617 0.09376 0.50681 0.0
C2724 C 0.68585 0.11169 0.50193 0.0
C2725 C 0.62643 0.11693 0.50706 0.0
C2726 C 0.57204 0.11031 0.51207 0.0
C2727 C 0.57665 0.09887 0.51155 0.0
H2728 H 0.28257 0.90203 0.24362 0.0
H2729 H 0.47663 0.90002 0.27165 0.0
H2730 H 0.27582 0.88203 0.24319 0.0
H2731 H 0.4695 0.88 0.27133 0.0
H2732 H 0.45824 0.84494 0.24235 0.0
H2733 H 0.46403 0.86493 0.24253 0.0
H2734 H 0.2707 0.86652 0.2711 0.0
H2735 H 0.26452 0.84647 0.27081 0.0
C2736 C 0.32379 0.89732 0.2497 0.0
C2737 C 0.38018 0.90261 0.25768 0.0
C2738 C 0.3197 0.88587 0.24958 0.0
C2739 C 0.37208 0.87945 0.25724 0.0
C2740 C 0.42857 0.88473 0.26513 0.0
C2741 C 0.4325 0.8962 0.26542 0.0
C2742 C 0.41682 0.84954 0.24861 0.0
C2743 C 0.3609 0.84411 0.2566 0.0
C2744 C 0.42038 0.86099 0.24885 0.0
C2745 C 0.36795 0.86729 0.25691 0.0
C2746 C 0.3117 0.86188 0.26464 0.0
C2747 C 0.3083 0.8504 0.26457 0.0
H2748 H 0.26817 0.89975 0.48836 0.0
H2749 H 0.46248 0.90174 0.5162 0.0
H2750 H 0.27551 0.87973 0.48851 0.0
H2751 H 0.46941 0.88176 0.51646 0.0
H2752 H 0.48227 0.84648 0.48775 0.0
H2753 H 0.47495 0.86651 0.48806 0.0
H2754 H 0.28195 0.86443 0.51677 0.0
H2755 H 0.28886 0.84445 0.51634 0.0
C2756 C 0.31232 0.89593 0.49456 0.0
C2757 C 0.36474 0.90234 0.50224 0.0
C2758 C 0.31639 0.88446 0.49475 0.0
C2759 C 0.37311 0.87919 0.50245 0.0
C2760 C 0.42539 0.8856 0.51018 0.0
C2761 C 0.42117 0.89705 0.51017 0.0
C2762 C 0.43832 0.8503 0.49414 0.0
C2763 C 0.38615 0.84387 0.50199 0.0
C2764 C 0.43427 0.86176 0.49443 0.0
C2765 C 0.3778 0.86703 0.50239 0.0
C2766 C 0.32576 0.8606 0.51029 0.0
C2767 C 0.32997 0.84915 0.51018 0.0
H2768 H 0.53756 0.6521 0.26493 0.0
H2769 H 0.73138 0.65049 0.23658 0.0
H2770 H 0.53175 0.63209 0.26491 0.0
H2771 H 0.72519 0.63046 0.23644 0.0
H2772 H 0.7147 0.59513 0.2645 0.0
H2773 H 0.7205 0.61514 0.26469 0.0
H2774 H 0.52677 0.61684 0.23649 0.0
H2775 H 0.52058 0.5968 0.23642 0.0
C2776 C 0.57894 0.64748 0.2587 0.0
C2777 C 0.63495 0.65288 0.25074 0.0
C2778 C 0.5754 0.63602 0.25856 0.0
C2779 C 0.62794 0.62972 0.25063 0.0
C2780 C 0.68413 0.63511 0.24282 0.0
C2781 C 0.68752 0.64658 0.24279 0.0
C2782 C 0.67325 0.59976 0.25837 0.0
C2783 C 0.61717 0.59438 0.25043 0.0
C2784 C 0.6768 0.61122 0.25835 0.0
C2785 C 0.62416 0.61755 0.25057 0.0
C2786 C 0.5679 0.61217 0.24277 0.0
C2787 C 0.56451 0.6007 0.24262 0.0
H2788 H 0.71506 0.65212 0.01657 0.0
H2789 H 0.51199 0.64981 0.99909 0.0
H2790 H 0.72279 0.63221 0.01777 0.0
H2791 H 0.52024 0.62988 0.99801 0.0
H2792 H 0.53465 0.59408 0.01603 0.0
H2793 H 0.52682 0.61398 0.01748 0.0
H2794 H 0.72957 0.61639 0.99802 0.0
H2795 H 0.7379 0.59646 0.99884 0.0
C2796 C 0.67227 0.64728 0.01265 0.0
C2797 C 0.61292 0.65242 0.00782 0.0
C2798 C 0.67668 0.63583 0.01307 0.0
C2799 C 0.62229 0.62925 0.00786 0.0
C2800 C 0.563 0.63453 1.00271 0.0
C2801 C 0.55816 0.64598 1.00309 0.0
C2802 C 0.57745 0.59893 0.01222 0.0
C2803 C 0.63688 0.59381 0.00741 0.0
C2804 C 0.57299 0.61038 0.01279 0.0
C2805 C 0.62742 0.61698 0.00776 0.0
C2806 C 0.68678 0.61172 1.0026 0.0
C2807 C 0.69166 0.60027 1.00283 0.0
H2808 H 0.28349 0.40244 0.74236 0.0
H2809 H 0.477 0.40028 0.77081 0.0
H2810 H 0.27609 0.38245 0.74198 0.0
H2811 H 0.4692 0.38026 0.77056 0.0
H2812 H 0.45731 0.34515 0.74223 0.0
H2813 H 0.46368 0.36513 0.74197 0.0
H2814 H 0.2698 0.36703 0.76999 0.0
H2815 H 0.26302 0.34699 0.77013 0.0
C2816 C 0.32446 0.39771 0.74854 0.0
C2817 C 0.38086 0.40295 0.75664 0.0
C2818 C 0.32 0.38626 0.74844 0.0
C2819 C 0.37201 0.3798 0.75626 0.0
C2820 C 0.42856 0.38503 0.76423 0.0
C2821 C 0.43287 0.39649 0.7645 0.0
C2822 C 0.41586 0.34981 0.74826 0.0
C2823 C 0.35964 0.34448 0.75624 0.0
C2824 C 0.41976 0.36126 0.74825 0.0
C2825 C 0.36738 0.36764 0.75605 0.0
C2826 C 0.31077 0.36232 0.76373 0.0
C2827 C 0.30702 0.35085 0.7639 0.0
H2828 H 0.26517 0.40002 0.988 0.0
H2829 H 0.45976 0.40184 0.01563 0.0
H2830 H 0.27163 0.37998 0.98836 0.0
H2831 H 0.46583 0.38185 0.0161 0.0
H2832 H 0.4778 0.34662 0.98741 0.0
H2833 H 0.47062 0.36663 0.98762 0.0
H2834 H 0.27801 0.36463 0.01668 0.0
H2835 H 0.28482 0.34463 0.01637 0.0
C2836 C 0.30919 0.39615 0.9942 0.0
C2837 C 0.36197 0.40252 1.00174 0.0
C2838 C 0.31275 0.38468 0.99451 0.0
C2839 C 0.36932 0.37936 1.00219 0.0
C2840 C 0.42191 0.38573 0.00983 0.0
C2841 C 0.4182 0.39718 0.00969 0.0
C2842 C 0.43394 0.35044 0.99385 0.0
C2843 C 0.38188 0.34404 1.00185 0.0
C2844 C 0.42997 0.3619 0.99408 0.0
C2845 C 0.37371 0.36719 1.00214 0.0
C2846 C 0.3217 0.36078 0.01015 0.0
C2847 C 0.32583 0.34933 0.0101 0.0
H2848 H 0.04889 0.04852 0.34865 0.0
H2849 H 0.87921 0.03815 0.31096 0.0
H2850 H 0.98632 0.04827 0.38398 0.0
H2851 H 0.81716 0.03736 0.3464 0.0
H2852 H 0.70485 0.04851 0.40954 0.0
H2853 H 0.76729 0.04819 0.37418 0.0
H2854 H 0.93676 0.03745 0.41182 0.0
H2855 H 0.87486 0.03833 0.44728 0.0
C2856 C 0.9984 0.04602 0.34797 0.0
C2857 C 0.96905 0.04337 0.32698 0.0
C2858 C 0.96242 0.04581 0.3683 0.0
C2859 C 0.89629 0.04279 0.36825 0.0
C2860 C 0.86744 0.03994 0.34721 0.0
C2861 C 0.9032 0.04031 0.32684 0.0
C2862 C 0.75538 0.04603 0.41023 0.0
C2863 C 0.78487 0.04346 0.43124 0.0
C2864 C 0.79129 0.04578 0.38988 0.0
C2865 C 0.85748 0.0428 0.38994 0.0
C2866 C 0.88644 0.04001 0.411 0.0
C2867 C 0.85076 0.04042 0.43138 0.0
H2868 H 0.37433 0.2072 0.31119 0.0
H2869 H 0.20313 0.19749 0.3488 0.0
H2870 H 0.43591 0.20802 0.34674 0.0
H2871 H 0.26516 0.19774 0.38423 0.0
H2872 H 0.37625 0.20781 0.44749 0.0
H2873 H 0.31501 0.20857 0.41189 0.0
H2874 H 0.48439 0.19728 0.3749 0.0
H2875 H 0.54622 0.19708 0.4104 0.0
C2876 C 0.34993 0.20519 0.32707 0.0
C2877 C 0.28378 0.20232 0.32717 0.0
C2878 C 0.38539 0.20557 0.3475 0.0
C2879 C 0.35592 0.20291 0.36855 0.0
C2880 C 0.28954 0.20006 0.36854 0.0
C2881 C 0.25387 0.19985 0.34816 0.0
C2882 C 0.40044 0.20555 0.43171 0.0
C2883 C 0.46614 0.20241 0.43177 0.0
C2884 C 0.36515 0.2059 0.41125 0.0
C2885 C 0.39431 0.20294 0.39032 0.0
C2886 C 0.46028 0.19982 0.39048 0.0
C2887 C 0.49583 0.19965 0.41091 0.0
H2888 H 0.71032 0.20908 0.8468 0.0
H2889 H 0.88195 0.19791 0.81119 0.0
H2890 H 0.77133 0.2097 0.88247 0.0
H2891 H 0.9424 0.19808 0.84699 0.0
H2892 H 0.05087 0.20858 0.91104 0.0
H2893 H 0.9904 0.20926 0.87521 0.0
H2894 H 0.81755 0.19836 0.91062 0.0
H2895 H 0.87737 0.19814 0.94649 0.0
C2896 C 0.76106 0.20672 0.84659 0.0
C2897 C 0.79122 0.20347 0.8261 0.0
C2898 C 0.79606 0.20699 0.86712 0.0
C2899 C 0.86201 0.2039 0.86778 0.0
C2900 C 0.89213 0.2007 0.8472 0.0
C2901 C 0.85729 0.20053 0.82662 0.0
C2902 C 0.99986 0.20639 0.91118 0.0
C2903 C 0.96898 0.20335 0.93167 0.0
C2904 C 0.96517 0.2067 0.89056 0.0
C2905 C 0.89883 0.20385 0.88986 0.0
C2906 C 0.86812 0.20081 0.91044 0.0
C2907 C 0.90261 0.20062 0.93106 0.0
H2908 H 0.37807 0.04946 0.94647 0.0
H2909 H 0.20563 0.03848 0.91108 0.0
H2910 H 0.43803 0.04928 0.91059 0.0
H2911 H 0.26621 0.03787 0.87529 0.0
H2912 H 0.37288 0.04955 0.81126 0.0
H2913 H 0.31292 0.04927 0.84713 0.0
H2914 H 0.48512 0.03797 0.88237 0.0
H2915 H 0.54569 0.03869 0.84658 0.0
C2916 C 0.35311 0.04687 0.93107 0.0
C2917 C 0.28697 0.04398 0.93168 0.0
C2918 C 0.38768 0.04671 0.91045 0.0
C2919 C 0.35723 0.04355 0.88989 0.0
C2920 C 0.29119 0.04053 0.89062 0.0
C2921 C 0.25645 0.04079 0.91122 0.0
C2922 C 0.39793 0.04697 0.82665 0.0
C2923 C 0.46416 0.04414 0.82601 0.0
C2924 C 0.36337 0.04674 0.84727 0.0
C2925 C 0.39392 0.04358 0.8678 0.0
C2926 C 0.46006 0.04063 0.86705 0.0
C2927 C 0.49479 0.04096 0.84646 0.0
H2928 H 0.12953 0.95798 0.56114 0.0
H2929 H 0.29859 0.94775 0.59935 0.0
H2930 H 0.06664 0.95874 0.59638 0.0
H2931 H 0.23513 0.94798 0.63451 0.0
H2932 H 0.95254 0.94775 0.65902 0.0
H2933 H 0.0164 0.94787 0.62398 0.0
H2934 H 0.18438 0.9588 0.66219 0.0
H2935 H 0.12099 0.95815 0.69736 0.0
C2936 C 0.1532 0.95584 0.57709 0.0
C2937 C 0.21913 0.95283 0.57743 0.0
C2938 C 0.11695 0.95619 0.59735 0.0
C2939 C 0.14534 0.95337 0.61849 0.0
C2940 C 0.21155 0.9504 0.61875 0.0
C2941 C 0.24804 0.95021 0.59851 0.0
C2942 C 0.00306 0.95022 0.65991 0.0
C2943 C 0.03164 0.95294 0.681 0.0
C2944 C 0.03979 0.95035 0.63974 0.0
C2945 C 0.10592 0.95336 0.64004 0.0
C2946 C 0.1341 0.95623 0.66119 0.0
C2947 C 0.09758 0.95594 0.68141 0.0
H2948 H 0.80099 0.7991 0.65824 0.0
H2949 H 0.63268 0.78876 0.69672 0.0
H2950 H 0.73722 0.79876 0.62317 0.0
H2951 H 0.56947 0.78787 0.66156 0.0
H2952 H 0.45466 0.79866 0.5988 0.0
H2953 H 0.51846 0.79858 0.63386 0.0
H2954 H 0.6869 0.78785 0.59565 0.0
H2955 H 0.6236 0.78847 0.56047 0.0
C2956 C 0.75054 0.7966 0.65916 0.0
C2957 C 0.72193 0.79397 0.68029 0.0
C2958 C 0.71387 0.79634 0.63897 0.0
C2959 C 0.64778 0.79329 0.63932 0.0
C2960 C 0.61967 0.79048 0.66052 0.0
C2961 C 0.6561 0.7909 0.68073 0.0
C2962 C 0.50526 0.79624 0.59792 0.0
C2963 C 0.53402 0.79358 0.57683 0.0
C2964 C 0.54196 0.79613 0.6181 0.0
C2965 C 0.60824 0.79321 0.61779 0.0
C2966 C 0.63652 0.79036 0.59665 0.0
C2967 C 0.60004 0.79063 0.57643 0.0
H2968 H 0.29526 0.79866 0.15894 0.0
H2969 H 0.12651 0.7885 0.1974 0.0
H2970 H 0.2316 0.79834 0.12385 0.0
H2971 H 0.06336 0.78765 0.1622 0.0
H2972 H 0.94953 0.79854 0.09912 0.0
H2973 H 0.01285 0.79839 0.13432 0.0
H2974 H 0.18121 0.78736 0.09645 0.0
H2975 H 0.11847 0.78804 0.06117 0.0
C2976 C 0.24473 0.7962 0.15985 0.0
C2977 C 0.216 0.79361 0.18098 0.0
C2978 C 0.20812 0.79595 0.13965 0.0
C2979 C 0.14195 0.79296 0.13999 0.0
C2980 C 0.11366 0.7902 0.16118 0.0
C2981 C 0.15006 0.79061 0.18141 0.0
C2982 C 1.0 0.79603 0.09835 0.0
C2983 C 0.02894 0.79332 0.07732 0.0
C2984 C 0.03642 0.79589 0.11861 0.0
C2985 C 0.10257 0.79287 0.11842 0.0
C2986 C 0.13095 0.78995 0.09735 0.0
C2987 C 0.09478 0.79025 0.07707 0.0
H2988 H 0.80209 0.94694 0.0999 0.0
H2989 H 0.63444 0.95811 0.06206 0.0
H2990 H 0.73853 0.94705 0.13503 0.0
H2991 H 0.5715 0.95875 0.0973 0.0
H2992 H 0.45613 0.94759 0.15961 0.0
H2993 H 0.51982 0.94784 0.12452 0.0
H2994 H 0.68924 0.95782 0.16307 0.0
H2995 H 0.626 0.95702 0.19825 0.0
C2996 C 0.75184 0.94958 0.09914 0.0
C2997 C 0.72334 0.9525 0.07816 0.0
C2998 C 0.7153 0.9497 0.11936 0.0
C2999 C 0.64948 0.95291 0.1192 0.0
C3000 C 0.62149 0.95602 0.09818 0.0
C3001 C 0.65778 0.95573 0.07792 0.0
C3002 C 0.50693 0.94988 0.16056 0.0
C3003 C 0.53596 0.95228 0.18174 0.0
C3004 C 0.54356 0.95009 0.14037 0.0
C3005 C 0.61007 0.95286 0.14076 0.0
C3006 C 0.63866 0.95544 0.162 0.0
C3007 C 0.60223 0.95507 0.18222 0.0
H3008 H 0.04939 0.5489 0.84865 0.0
H3009 H 0.88021 0.53818 0.81109 0.0
H3010 H 0.98681 0.54865 0.884 0.0
H3011 H 0.8182 0.53741 0.84654 0.0
H3012 H 0.70537 0.54862 0.90951 0.0
H3013 H 0.76792 0.54831 0.87417 0.0
H3014 H 0.93763 0.53778 0.91192 0.0
H3015 H 0.8756 0.53864 0.94736 0.0
C3016 C 0.99902 0.54632 0.848 0.0
C3017 C 0.9698 0.54357 0.82705 0.0
C3018 C 0.96305 0.54612 0.86834 0.0
C3019 C 0.89706 0.54301 0.86832 0.0
C3020 C 0.86835 0.54006 0.84731 0.0
C3021 C 0.9041 0.54042 0.82694 0.0
C3022 C 0.75597 0.54619 0.91023 0.0
C3023 C 0.78548 0.54367 0.93126 0.0
C3024 C 0.79194 0.54595 0.8899 0.0
C3025 C 0.85822 0.54302 0.89 0.0
C3026 C 0.88723 0.54029 0.91108 0.0
C3027 C 0.85148 0.54069 0.93144 0.0
H3028 H 0.20279 0.69771 0.84835 0.0
H3029 H 0.3738 0.70764 0.81089 0.0
H3030 H 0.26471 0.69796 0.88381 0.0
H3031 H 0.43523 0.70846 0.84646 0.0
H3032 H 0.54578 0.6973 0.90994 0.0
H3033 H 0.48394 0.69764 0.87446 0.0
H3034 H 0.31445 0.70873 0.91165 0.0
H3035 H 0.37573 0.70784 0.94724 0.0
C3036 C 0.25344 0.70012 0.84775 0.0
C3037 C 0.28336 0.70265 0.82679 0.0
C3038 C 0.28905 0.70033 0.86815 0.0
C3039 C 0.35536 0.70323 0.86821 0.0
C3040 C 0.38478 0.70596 0.84719 0.0
C3041 C 0.34939 0.70559 0.82675 0.0
C3042 C 0.49538 0.69987 0.9105 0.0
C3043 C 0.46568 0.70253 0.93142 0.0
C3044 C 0.45982 0.70012 0.89008 0.0
C3045 C 0.3938 0.70321 0.88998 0.0
C3046 C 0.36464 0.70609 0.91096 0.0
C3047 C 0.39995 0.70566 0.93141 0.0
H3048 H 0.04832 0.69743 0.40963 0.0
H3049 H 0.87855 0.70811 0.4469 0.0
H3050 H 0.98647 0.69778 0.37414 0.0
H3051 H 0.81729 0.70902 0.41131 0.0
H3052 H 0.70508 0.69805 0.34819 0.0
H3053 H 0.76726 0.69826 0.38358 0.0
H3054 H 0.93786 0.70857 0.34605 0.0
H3055 H 0.87611 0.7078 0.31053 0.0
C3056 C 0.99798 0.70003 0.41018 0.0
C3057 C 0.96836 0.70273 0.4311 0.0
C3058 C 0.96242 0.70029 0.38976 0.0
C3059 C 0.89647 0.70342 0.38965 0.0
C3060 C 0.86741 0.70634 0.41062 0.0
C3061 C 0.90272 0.70591 0.43108 0.0
C3062 C 0.75581 0.70041 0.34752 0.0
C3063 C 0.78563 0.7029 0.32653 0.0
C3064 C 0.79158 0.7006 0.3679 0.0
C3065 C 0.85797 0.70344 0.36789 0.0
C3066 C 0.88734 0.70612 0.34683 0.0
C3067 C 0.85177 0.70577 0.32642 0.0
H3068 H 0.37604 0.53938 0.31027 0.0
H3069 H 0.54638 0.54929 0.34813 0.0
H3070 H 0.31407 0.5385 0.34573 0.0
H3071 H 0.48393 0.54897 0.38347 0.0
H3072 H 0.37228 0.53886 0.4466 0.0
H3073 H 0.43402 0.5381 0.41109 0.0
H3074 H 0.26482 0.54921 0.37378 0.0
H3075 H 0.20253 0.54942 0.40918 0.0
C3076 C 0.40017 0.54142 0.32619 0.0
C3077 C 0.4662 0.54437 0.32638 0.0
C3078 C 0.36448 0.541 0.34657 0.0
C3079 C 0.39356 0.5437 0.36766 0.0
C3080 C 0.45984 0.54662 0.36775 0.0
C3081 C 0.49576 0.54688 0.34741 0.0
C3082 C 0.34822 0.54107 0.43077 0.0
C3083 C 0.28245 0.54417 0.43071 0.0
C3084 C 0.3838 0.54072 0.41036 0.0
C3085 C 0.35486 0.54364 0.38937 0.0
C3086 C 0.28879 0.5467 0.38941 0.0
C3087 C 0.25297 0.54688 0.40978 0.0
H3088 H 0.12201 0.45844 0.19662 0.0
H3089 H 0.9524 0.44837 0.15854 0.0
H3090 H 0.18471 0.45915 0.16131 0.0
H3091 H 0.0156 0.44853 0.12334 0.0
H3092 H 0.12873 0.45843 0.06031 0.0
H3093 H 0.06616 0.45927 0.09563 0.0
H3094 H 0.23455 0.44831 0.13357 0.0
H3095 H 0.29767 0.44801 0.09835 0.0
C3096 C 0.09818 0.45633 0.18068 0.0
C3097 C 0.03214 0.45338 0.1804 0.0
C3098 C 0.13431 0.45664 0.16039 0.0
C3099 C 0.10567 0.45385 0.13927 0.0
C3100 C 0.03937 0.45094 0.13908 0.0
C3101 C 0.00302 0.45078 0.15934 0.0
C3102 C 0.15244 0.45627 0.07624 0.0
C3103 C 0.21825 0.45318 0.07651 0.0
C3104 C 0.11637 0.45666 0.09654 0.0
C3105 C 0.14484 0.45382 0.11765 0.0
C3106 C 0.21092 0.45076 0.11784 0.0
C3107 C 0.24722 0.45053 0.09757 0.0
H3108 H 0.62943 0.29895 0.19638 0.0
H3109 H 0.8006 0.28851 0.15956 0.0
H3110 H 0.56751 0.29886 0.16092 0.0
H3111 H 0.73808 0.28796 0.12417 0.0
H3112 H 0.62682 0.29936 0.06097 0.0
H3113 H 0.68887 0.2992 0.09641 0.0
H3114 H 0.51935 0.28766 0.13291 0.0
H3115 H 0.45669 0.28827 0.09758 0.0
C3116 C 0.65371 0.29651 0.18074 0.0
C3117 C 0.72005 0.29374 0.18084 0.0
C3118 C 0.61802 0.29639 0.16035 0.0
C3119 C 0.64748 0.29339 0.13952 0.0
C3120 C 0.71379 0.2905 0.13973 0.0
C3121 C 0.74966 0.29073 0.16009 0.0
C3122 C 0.6028 0.29676 0.07656 0.0
C3123 C 0.5367 0.29383 0.07641 0.0
C3124 C 0.63858 0.2966 0.09693 0.0
C3125 C 0.60943 0.2934 0.11769 0.0
C3126 C 0.54339 0.29035 0.11742 0.0
C3127 C 0.50744 0.29062 0.09708 0.0
H3128 H 0.12434 0.28874 0.56085 0.0
H3129 H 0.95422 0.29878 0.5987 0.0
H3130 H 0.18681 0.28815 0.59622 0.0
H3131 H 0.01716 0.29872 0.63395 0.0
H3132 H 0.12973 0.28867 0.69704 0.0
H3133 H 0.06751 0.2879 0.66165 0.0
H3134 H 0.23603 0.29907 0.62404 0.0
H3135 H 0.29883 0.2993 0.65934 0.0
C3136 C 0.10036 0.29088 0.57674 0.0
C3137 C 0.03424 0.29377 0.57696 0.0
C3138 C 0.13634 0.29062 0.59707 0.0
C3139 C 0.10743 0.29342 0.61813 0.0
C3140 C 0.04111 0.29631 0.61825 0.0
C3141 C 0.00492 0.2964 0.59796 0.0
C3142 C 0.15353 0.2909 0.68118 0.0
C3143 C 0.21929 0.29402 0.68101 0.0
C3144 C 0.11768 0.29055 0.66083 0.0
C3145 C 0.14632 0.29346 0.6398 0.0
C3146 C 0.21232 0.29656 0.63972 0.0
C3147 C 0.24841 0.29676 0.66003 0.0
H3148 H 0.45567 0.44789 0.65907 0.0
H3149 H 0.62586 0.45771 0.69709 0.0
H3150 H 0.51845 0.44817 0.62379 0.0
H3151 H 0.68818 0.45856 0.66171 0.0
H3152 H 0.80032 0.44769 0.59839 0.0
H3153 H 0.73765 0.44788 0.63371 0.0
H3154 H 0.56874 0.45894 0.59616 0.0
H3155 H 0.63086 0.45818 0.56073 0.0
C3156 C 0.50634 0.45028 0.65984 0.0
C3157 C 0.53575 0.45277 0.6809 0.0
C3158 C 0.54246 0.4505 0.63953 0.0
C3159 C 0.6088 0.45339 0.63968 0.0
C3160 C 0.63773 0.45607 0.66081 0.0
C3161 C 0.60184 0.45568 0.68115 0.0
C3162 C 0.74985 0.4502 0.59772 0.0
C3163 C 0.72059 0.4529 0.57674 0.0
C3164 C 0.71381 0.45038 0.61804 0.0
C3165 C 0.64771 0.45342 0.618 0.0
C3166 C 0.61897 0.45633 0.59697 0.0
C3167 C 0.65476 0.45598 0.5766 0.0
loop_
_geom_bond_atom_site_label_1
_geom_bond_atom_site_label_2
_geom_bond_distance
_geom_bond_site_symmetry_2
_ccdc_geom_bond_type
Co0 O2 2.143 . S
Co0 O8 2.074 . S
Co0 O11 2.093 . S
Co0 O24 2.097 . S
Co0 N41 2.151 . S
Co0 N49 2.214 . S
Co1 O2 2.160 . S
Co1 O7 2.058 . S
Co1 O17 2.057 1_455 S
Co1 O32 2.037 . S
Co1 N36 2.145 1_455 S
Co1 N57 2.257 1_455 S
O2 Co0 2.143 . S
O2 Co1 2.160 . S
C3 O4 1.278 . S
C3 O11 1.224 . S
O4 C3 1.278 . S
C5 O6 1.245 1_655 S
C5 O17 1.232 . S
O6 C5 1.245 1_455 S
O7 Co1 2.058 . S
O7 C33 1.269 . S
O8 Co0 2.074 . S
O8 C33 1.257 . S
H9 C34 0.930 . S
H10 C40 0.930 . S
O11 Co0 2.093 . S
O11 C3 1.224 . S
H12 C44 0.929 . S
H13 C46 0.930 . S
H14 C47 0.930 . S
H15 C45 0.929 . S
H16 C48 0.928 . S
O17 Co1 2.057 1_655 S
O17 C5 1.232 . S
H18 C37 0.929 . S
H19 C38 0.929 . S
H20 C50 0.931 . S
H21 C42 0.929 . S
H22 C51 0.930 . S
H23 C43 0.931 . S
O24 Co0 2.097 . S
O24 C52 1.214 . S
H25 C53 0.929 . S
H26 C54 0.929 . S
H27 C55 0.930 . S
H28 C56 0.929 . S
H29 C58 0.930 . S
H30 C35 0.930 . S
H31 C39 0.930 . S
O32 Co1 2.037 . S
O32 C52 1.234 . S
C33 O7 1.269 . S
C33 O8 1.257 . S
C34 H9 0.930 . S
C34 C37 1.388 . S
C34 C39 1.418 . S
C35 H30 0.930 . S
C35 C38 1.404 . S
C35 C39 1.353 . S
N36 Co1 2.145 1_655 S
N36 C37 1.397 . S
N36 C38 1.334 . S
C37 H18 0.929 . S
C37 C34 1.388 . S
C37 N36 1.397 . S
C38 H19 0.929 . S
C38 C35 1.404 . S
C38 N36 1.334 . S
C39 H31 0.930 . S
C39 C34 1.418 . S
C39 C35 1.353 . S
C40 H10 0.930 . S
C40 N41 1.330 . S
C40 C42 1.446 . S
N41 Co0 2.151 . S
N41 C40 1.330 . S
N41 C45 1.418 . S
C42 H21 0.929 . S
C42 C40 1.446 . S
C42 C43 1.332 . S
C43 H23 0.931 . S
C43 C42 1.332 . S
C43 C44 1.267 . S
C44 H12 0.929 . S
C44 C43 1.267 . S
C44 C45 1.251 . S
C45 H15 0.929 . S
C45 N41 1.418 . S
C45 C44 1.251 . S
C46 H13 0.930 . S
C46 C48 1.406 . S
C46 C51 1.261 . S
C47 H14 0.930 . S
C47 N49 1.325 . S
C47 C50 1.357 . S
C48 H16 0.928 . S
C48 C46 1.406 . S
C48 N49 1.261 . S
N49 Co0 2.214 . S
N49 C47 1.325 . S
N49 C48 1.261 . S
C50 H20 0.931 . S
C50 C47 1.357 . S
C50 C51 1.312 . S
C51 H22 0.930 . S
C51 C46 1.261 . S
C51 C50 1.312 . S
C52 O24 1.214 . S
C52 O32 1.234 . S
C53 H25 0.929 . S
C53 C56 1.391 . S
C53 C58 1.391 . S
C54 H26 0.929 . S
C54 C55 1.390 . S
C54 N57 1.391 . S
C55 H27 0.930 . S
C55 C54 1.390 . S
C55 C56 1.392 . S
C56 H28 0.929 . S
C56 C53 1.391 . S
C56 C55 1.392 . S
N57 Co1 2.257 1_655 S
N57 C54 1.391 . S
N57 C58 1.388 . S
C58 H29 0.930 . S
C58 C53 1.391 . S
C58 N57 1.388 . S
Co59 O61 2.143 . S
Co59 O67 2.074 . S
Co59 O70 2.093 . S
Co59 O83 2.097 . S
Co59 N100 2.151 . S
Co59 N108 2.214 . S
Co60 O61 2.160 . S
Co60 O66 2.058 . S
Co60 O76 2.057 . S
Co60 O91 2.037 . S
Co60 N95 2.145 . S
Co60 N116 2.257 . S
O61 Co59 2.143 . S
O61 Co60 2.160 . S
C62 O63 1.278 . S
C62 O70 1.224 . S
O63 C62 1.278 . S
C64 O65 1.245 . S
C64 O76 1.232 . S
O65 C64 1.245 . S
O66 Co60 2.058 . S
O66 C92 1.269 . S
O67 Co59 2.074 . S
O67 C92 1.257 . S
H68 C93 0.930 . S
H69 C99 0.930 . S
O70 Co59 2.093 . S
O70 C62 1.224 . S
H71 C103 0.929 . S
H72 C105 0.930 . S
H73 C106 0.930 1_455 S
H74 C104 0.929 . S
H75 C107 0.928 . S
O76 Co60 2.057 . S
O76 C64 1.232 . S
H77 C96 0.929 . S
H78 C97 0.929 . S
H79 C109 0.931 . S
H80 C101 0.929 . S
H81 C110 0.930 . S
H82 C102 0.931 . S
O83 Co59 2.097 . S
O83 C111 1.214 . S
H84 C112 0.929 . S
H85 C113 0.929 . S
H86 C114 0.930 . S
H87 C115 0.929 . S
H88 C117 0.930 . S
H89 C94 0.930 . S
H90 C98 0.930 . S
O91 Co60 2.037 . S
O91 C111 1.234 . S
C92 O66 1.269 . S
C92 O67 1.257 . S
C93 H68 0.930 . S
C93 C96 1.388 . S
C93 C98 1.418 . S
C94 H89 0.930 . S
C94 C97 1.404 . S
C94 C98 1.353 . S
N95 Co60 2.145 . S
N95 C96 1.397 . S
N95 C97 1.334 . S
C96 H77 0.929 . S
C96 C93 1.388 . S
C96 N95 1.397 . S
C97 H78 0.929 . S
C97 C94 1.404 . S
C97 N95 1.334 . S
C98 H90 0.930 . S
C98 C93 1.418 . S
C98 C94 1.353 . S
C99 H69 0.930 . S
C99 N100 1.330 . S
C99 C101 1.446 . S
N100 Co59 2.151 . S
N100 C99 1.330 . S
N100 C104 1.418 1_455 S
C101 H80 0.929 . S
C101 C99 1.446 . S
C101 C102 1.332 1_455 S
C102 H82 0.931 . S
C102 C101 1.332 1_655 S
C102 C103 1.267 . S
C103 H71 0.929 . S
C103 C102 1.267 . S
C103 C104 1.251 . S
C104 H74 0.929 . S
C104 N100 1.418 1_655 S
C104 C103 1.251 . S
C105 H72 0.930 . S
C105 C107 1.406 . S
C105 C110 1.261 . S
C106 H73 0.930 1_655 S
C106 N108 1.325 1_655 S
C106 C109 1.357 . S
C107 H75 0.928 . S
C107 C105 1.406 . S
C107 N108 1.261 1_655 S
N108 Co59 2.214 . S
N108 C106 1.325 1_455 S
N108 C107 1.261 1_455 S
C109 H79 0.931 . S
C109 C106 1.357 . S
C109 C110 1.312 . S
C110 H81 0.930 . S
C110 C105 1.261 . S
C110 C109 1.312 . S
C111 O83 1.214 . S
C111 O91 1.234 . S
C112 H84 0.929 . S
C112 C115 1.391 . S
C112 C117 1.391 . S
C113 H85 0.929 . S
C113 C114 1.390 . S
C113 N116 1.391 . S
C114 H86 0.930 . S
C114 C113 1.390 . S
C114 C115 1.392 . S
C115 H87 0.929 . S
C115 C112 1.391 . S
C115 C114 1.392 . S
N116 Co60 2.257 . S
N116 C113 1.391 . S
N116 C117 1.388 . S
C117 H88 0.930 . S
C117 C112 1.391 . S
C117 N116 1.388 . S
Co118 O120 2.143 1_554 S
Co118 O126 2.074 . S
Co118 O129 2.093 . S
Co118 O142 2.097 . S
Co118 N159 2.151 1_554 S
Co118 N167 2.214 . S
Co119 O120 2.160 1_554 S
Co119 O125 2.058 1_554 S
Co119 O135 2.057 1_454 S
Co119 O150 2.037 . S
Co119 N154 2.145 1_455 S
Co119 N175 2.257 1_455 S
O120 Co118 2.143 1_556 S
O120 Co119 2.160 1_556 S
C121 O122 1.278 1_554 S
C121 O129 1.224 . S
O122 C121 1.278 1_556 S
C123 O124 1.245 1_655 S
C123 O135 1.232 . S
O124 C123 1.245 1_455 S
O125 Co119 2.058 1_556 S
O125 C151 1.269 . S
O126 Co118 2.074 . S
O126 C151 1.257 1_554 S
H127 C152 0.930 . S
H128 C158 0.930 . S
O129 Co118 2.093 . S
O129 C121 1.224 . S
H130 C162 0.929 . S
H131 C164 0.930 . S
H132 C165 0.930 . S
H133 C163 0.929 . S
H134 C166 0.928 . S
O135 Co119 2.057 1_656 S
O135 C123 1.232 . S
H136 C155 0.929 . S
H137 C156 0.929 . S
H138 C168 0.931 . S
H139 C160 0.929 . S
H140 C169 0.930 . S
H141 C161 0.931 . S
O142 Co118 2.097 . S
O142 C170 1.214 . S
H143 C171 0.929 1_556 S
H144 C172 0.929 . S
H145 C173 0.930 . S
H146 C174 0.929 . S
H147 C176 0.930 . S
H148 C153 0.930 1_556 S
H149 C157 0.930 . S
O150 Co119 2.037 . S
O150 C170 1.234 . S
C151 O125 1.269 . S
C151 O126 1.257 1_556 S
C152 H127 0.930 . S
C152 C155 1.388 . S
C152 C157 1.418 . S
C153 H148 0.930 1_554 S
C153 C156 1.404 1_554 S
C153 C157 1.353 . S
N154 Co119 2.145 1_655 S
N154 C155 1.397 . S
N154 C156 1.334 1_554 S
C155 H136 0.929 . S
C155 C152 1.388 . S
C155 N154 1.397 . S
C156 H137 0.929 . S
C156 C153 1.404 1_556 S
C156 N154 1.334 1_556 S
C157 H149 0.930 . S
C157 C152 1.418 . S
C157 C153 1.353 . S
C158 H128 0.930 . S
C158 N159 1.330 . S
C158 C160 1.446 . S
N159 Co118 2.151 1_556 S
N159 C158 1.330 . S
N159 C163 1.418 . S
C160 H139 0.929 . S
C160 C158 1.446 . S
C160 C161 1.332 . S
C161 H141 0.931 . S
C161 C160 1.332 . S
C161 C162 1.267 . S
C162 H130 0.929 . S
C162 C161 1.267 . S
C162 C163 1.251 . S
C163 H133 0.929 . S
C163 N159 1.418 . S
C163 C162 1.251 . S
C164 H131 0.930 . S
C164 C166 1.406 . S
C164 C169 1.261 . S
C165 H132 0.930 . S
C165 N167 1.325 . S
C165 C168 1.357 . S
C166 H134 0.928 . S
C166 C164 1.406 . S
C166 N167 1.261 . S
N167 Co118 2.214 . S
N167 C165 1.325 . S
N167 C166 1.261 . S
C168 H138 0.931 . S
C168 C165 1.357 . S
C168 C169 1.312 . S
C169 H140 0.930 . S
C169 C164 1.261 . S
C169 C168 1.312 . S
C170 O142 1.214 . S
C170 O150 1.234 . S
C171 H143 0.929 1_554 S
C171 C174 1.391 . S
C171 C176 1.391 1_554 S
C172 H144 0.929 . S
C172 C173 1.390 . S
C172 N175 1.391 . S
C173 H145 0.930 . S
C173 C172 1.390 . S
C173 C174 1.392 . S
C174 H146 0.929 . S
C174 C171 1.391 . S
C174 C173 1.392 . S
N175 Co119 2.257 1_655 S
N175 C172 1.391 . S
N175 C176 1.388 1_554 S
C176 H147 0.930 . S
C176 C171 1.391 1_556 S
C176 N175 1.388 1_556 S
Co177 O179 2.143 1_554 S
Co177 O185 2.074 . S
Co177 O188 2.093 . S
Co177 O201 2.097 . S
Co177 N218 2.151 1_554 S
Co177 N226 2.214 . S
Co178 O179 2.160 1_554 S
Co178 O184 2.058 1_554 S
Co178 O194 2.057 1_554 S
Co178 O209 2.037 . S
Co178 N213 2.145 . S
Co178 N234 2.257 . S
O179 Co177 2.143 1_556 S
O179 Co178 2.160 1_556 S
C180 O181 1.278 1_554 S
C180 O188 1.224 . S
O181 C180 1.278 1_556 S
C182 O183 1.245 . S
C182 O194 1.232 . S
O183 C182 1.245 . S
O184 Co178 2.058 1_556 S
O184 C210 1.269 . S
O185 Co177 2.074 . S
O185 C210 1.257 1_554 S
H186 C211 0.930 . S
H187 C217 0.930 . S
O188 Co177 2.093 . S
O188 C180 1.224 . S
H189 C221 0.929 . S
H190 C223 0.930 . S
H191 C224 0.930 1_455 S
H192 C222 0.929 . S
H193 C225 0.928 . S
O194 Co178 2.057 1_556 S
O194 C182 1.232 . S
H195 C214 0.929 . S
H196 C215 0.929 . S
H197 C227 0.931 . S
H198 C219 0.929 . S
H199 C228 0.930 . S
H200 C220 0.931 . S
O201 Co177 2.097 . S
O201 C229 1.214 . S
H202 C230 0.929 1_556 S
H203 C231 0.929 . S
H204 C232 0.930 . S
H205 C233 0.929 . S
H206 C235 0.930 . S
H207 C212 0.930 1_556 S
H208 C216 0.930 . S
O209 Co178 2.037 . S
O209 C229 1.234 . S
C210 O184 1.269 . S
C210 O185 1.257 1_556 S
C211 H186 0.930 . S
C211 C214 1.388 . S
C211 C216 1.418 . S
C212 H207 0.930 1_554 S
C212 C215 1.404 1_554 S
C212 C216 1.353 . S
N213 Co178 2.145 . S
N213 C214 1.397 . S
N213 C215 1.334 1_554 S
C214 H195 0.929 . S
C214 C211 1.388 . S
C214 N213 1.397 . S
C215 H196 0.929 . S
C215 C212 1.404 1_556 S
C215 N213 1.334 1_556 S
C216 H208 0.930 . S
C216 C211 1.418 . S
C216 C212 1.353 . S
C217 H187 0.930 . S
C217 N218 1.330 . S
C217 C219 1.446 . S
N218 Co177 2.151 1_556 S
N218 C217 1.330 . S
N218 C222 1.418 1_455 S
C219 H198 0.929 . S
C219 C217 1.446 . S
C219 C220 1.332 1_455 S
C220 H200 0.931 . S
C220 C219 1.332 1_655 S
C220 C221 1.267 . S
C221 H189 0.929 . S
C221 C220 1.267 . S
C221 C222 1.251 . S
C222 H192 0.929 . S
C222 N218 1.418 1_655 S
C222 C221 1.251 . S
C223 H190 0.930 . S
C223 C225 1.406 . S
C223 C228 1.261 . S
C224 H191 0.930 1_655 S
C224 N226 1.325 1_655 S
C224 C227 1.357 . S
C225 H193 0.928 . S
C225 C223 1.406 . S
C225 N226 1.261 1_655 S
N226 Co177 2.214 . S
N226 C224 1.325 1_455 S
N226 C225 1.261 1_455 S
C227 H197 0.931 . S
C227 C224 1.357 . S
C227 C228 1.312 . S
C228 H199 0.930 . S
C228 C223 1.261 . S
C228 C227 1.312 . S
C229 O201 1.214 . S
C229 O209 1.234 . S
C230 H202 0.929 1_554 S
C230 C233 1.391 . S
C230 C235 1.391 1_554 S
C231 H203 0.929 . S
C231 C232 1.390 . S
C231 N234 1.391 . S
C232 H204 0.930 . S
C232 C231 1.390 . S
C232 C233 1.392 . S
C233 H205 0.929 . S
C233 C230 1.391 . S
C233 C232 1.392 . S
N234 Co178 2.257 . S
N234 C231 1.391 . S
N234 C235 1.388 1_554 S
C235 H206 0.930 . S
C235 C230 1.391 1_556 S
C235 N234 1.388 1_556 S
Co236 O238 2.143 . S
Co236 O244 2.074 . S
Co236 O247 2.093 . S
Co236 O260 2.097 . S
Co236 N277 2.151 . S
Co236 N285 2.214 . S
Co237 O238 2.160 . S
Co237 O243 2.058 . S
Co237 O253 2.057 1_655 S
Co237 O268 2.037 . S
Co237 N272 2.145 1_655 S
Co237 N293 2.257 1_655 S
O238 Co236 2.143 . S
O238 Co237 2.160 . S
C239 O240 1.278 . S
C239 O247 1.224 . S
O240 C239 1.278 . S
C241 O242 1.245 1_455 S
C241 O253 1.232 . S
O242 C241 1.245 1_655 S
O243 Co237 2.058 . S
O243 C269 1.269 . S
O244 Co236 2.074 . S
O244 C269 1.257 . S
H245 C270 0.930 . S
H246 C276 0.930 . S
O247 Co236 2.093 . S
O247 C239 1.224 . S
H248 C280 0.929 . S
H249 C282 0.930 . S
H250 C283 0.930 . S
H251 C281 0.929 . S
H252 C284 0.928 . S
O253 Co237 2.057 1_455 S
O253 C241 1.232 . S
H254 C273 0.929 . S
H255 C274 0.929 . S
H256 C286 0.931 . S
H257 C278 0.929 . S
H258 C287 0.930 . S
H259 C279 0.931 . S
O260 Co236 2.097 . S
O260 C288 1.214 . S
H261 C289 0.929 . S
H262 C290 0.929 . S
H263 C291 0.930 . S
H264 C292 0.929 . S
H265 C294 0.930 . S
H266 C271 0.930 . S
H267 C275 0.930 . S
O268 Co237 2.037 . S
O268 C288 1.234 . S
C269 O243 1.269 . S
C269 O244 1.257 . S
C270 H245 0.930 . S
C270 C273 1.388 . S
C270 C275 1.418 . S
C271 H266 0.930 . S
C271 C274 1.404 . S
C271 C275 1.353 . S
N272 Co237 2.145 1_455 S
N272 C273 1.397 . S
N272 C274 1.334 . S
C273 H254 0.929 . S
C273 C270 1.388 . S
C273 N272 1.397 . S
C274 H255 0.929 . S
C274 C271 1.404 . S
C274 N272 1.334 . S
C275 H267 0.930 . S
C275 C270 1.418 . S
C275 C271 1.353 . S
C276 H246 0.930 . S
C276 N277 1.330 . S
C276 C278 1.446 . S
N277 Co236 2.151 . S
N277 C276 1.330 . S
N277 C281 1.418 . S
C278 H257 0.929 . S
C278 C276 1.446 . S
C278 C279 1.332 . S
C279 H259 0.931 . S
C279 C278 1.332 . S
C279 C280 1.267 . S
C280 H248 0.929 . S
C280 C279 1.267 . S
C280 C281 1.251 . S
C281 H251 0.929 . S
C281 N277 1.418 . S
C281 C280 1.251 . S
C282 H249 0.930 . S
C282 C284 1.406 . S
C282 C287 1.261 . S
C283 H250 0.930 . S
C283 N285 1.325 . S
C283 C286 1.357 . S
C284 H252 0.928 . S
C284 C282 1.406 . S
C284 N285 1.261 . S
N285 Co236 2.214 . S
N285 C283 1.325 . S
N285 C284 1.261 . S
C286 H256 0.931 . S
C286 C283 1.357 . S
C286 C287 1.312 . S
C287 H258 0.930 . S
C287 C282 1.261 . S
C287 C286 1.312 . S
C288 O260 1.214 . S
C288 O268 1.234 . S
C289 H261 0.929 . S
C289 C292 1.391 . S
C289 C294 1.391 . S
C290 H262 0.929 . S
C290 C291 1.390 . S
C290 N293 1.391 . S
C291 H263 0.930 . S
C291 C290 1.390 . S
C291 C292 1.392 . S
C292 H264 0.929 . S
C292 C289 1.391 . S
C292 C291 1.392 . S
N293 Co237 2.257 1_455 S
N293 C290 1.391 . S
N293 C294 1.388 . S
C294 H265 0.930 . S
C294 C289 1.391 . S
C294 N293 1.388 . S
Co295 O297 2.143 . S
Co295 O303 2.074 . S
Co295 O306 2.093 . S
Co295 O319 2.097 . S
Co295 N336 2.151 . S
Co295 N344 2.214 . S
Co296 O297 2.160 . S
Co296 O302 2.058 . S
Co296 O312 2.057 . S
Co296 O327 2.037 . S
Co296 N331 2.145 . S
Co296 N352 2.257 . S
O297 Co295 2.143 . S
O297 Co296 2.160 . S
C298 O299 1.278 . S
C298 O306 1.224 . S
O299 C298 1.278 . S
C300 O301 1.245 . S
C300 O312 1.232 . S
O301 C300 1.245 . S
O302 Co296 2.058 . S
O302 C328 1.269 . S
O303 Co295 2.074 . S
O303 C328 1.257 . S
H304 C329 0.930 . S
H305 C335 0.930 . S
O306 Co295 2.093 . S
O306 C298 1.224 . S
H307 C339 0.929 . S
H308 C341 0.930 . S
H309 C342 0.930 1_655 S
H310 C340 0.929 . S
H311 C343 0.928 . S
O312 Co296 2.057 . S
O312 C300 1.232 . S
H313 C332 0.929 . S
H314 C333 0.929 . S
H315 C345 0.931 . S
H316 C337 0.929 . S
H317 C346 0.930 . S
H318 C338 0.931 . S
O319 Co295 2.097 . S
O319 C347 1.214 . S
H320 C348 0.929 . S
H321 C349 0.929 . S
H322 C350 0.930 . S
H323 C351 0.929 . S
H324 C353 0.930 . S
H325 C330 0.930 . S
H326 C334 0.930 . S
O327 Co296 2.037 . S
O327 C347 1.234 . S
C328 O302 1.269 . S
C328 O303 1.257 . S
C329 H304 0.930 . S
C329 C332 1.388 . S
C329 C334 1.418 . S
C330 H325 0.930 . S
C330 C333 1.404 . S
C330 C334 1.353 . S
N331 Co296 2.145 . S
N331 C332 1.397 . S
N331 C333 1.334 . S
C332 H313 0.929 . S
C332 C329 1.388 . S
C332 N331 1.397 . S
C333 H314 0.929 . S
C333 C330 1.404 . S
C333 N331 1.334 . S
C334 H326 0.930 . S
C334 C329 1.418 . S
C334 C330 1.353 . S
C335 H305 0.930 . S
C335 N336 1.330 . S
C335 C337 1.446 . S
N336 Co295 2.151 . S
N336 C335 1.330 . S
N336 C340 1.418 1_655 S
C337 H316 0.929 . S
C337 C335 1.446 . S
C337 C338 1.332 1_655 S
C338 H318 0.931 . S
C338 C337 1.332 1_455 S
C338 C339 1.267 . S
C339 H307 0.929 . S
C339 C338 1.267 . S
C339 C340 1.251 . S
C340 H310 0.929 . S
C340 N336 1.418 1_455 S
C340 C339 1.251 . S
C341 H308 0.930 . S
C341 C343 1.406 . S
C341 C346 1.261 . S
C342 H309 0.930 1_455 S
C342 N344 1.325 1_455 S
C342 C345 1.357 . S
C343 H311 0.928 . S
C343 C341 1.406 . S
C343 N344 1.261 1_455 S
N344 Co295 2.214 . S
N344 C342 1.325 1_655 S
N344 C343 1.261 1_655 S
C345 H315 0.931 . S
C345 C342 1.357 . S
C345 C346 1.312 . S
C346 H317 0.930 . S
C346 C341 1.261 . S
C346 C345 1.312 . S
C347 O319 1.214 . S
C347 O327 1.234 . S
C348 H320 0.929 . S
C348 C351 1.391 . S
C348 C353 1.391 . S
C349 H321 0.929 . S
C349 C350 1.390 . S
C349 N352 1.391 . S
C350 H322 0.930 . S
C350 C349 1.390 . S
C350 C351 1.392 . S
C351 H323 0.929 . S
C351 C348 1.391 . S
C351 C350 1.392 . S
N352 Co296 2.257 . S
N352 C349 1.391 . S
N352 C353 1.388 . S
C353 H324 0.930 . S
C353 C348 1.391 . S
C353 N352 1.388 . S
Co354 O356 2.143 1_556 S
Co354 O362 2.074 . S
Co354 O365 2.093 . S
Co354 O378 2.097 . S
Co354 N395 2.151 1_556 S
Co354 N403 2.214 . S
Co355 O356 2.160 1_556 S
Co355 O361 2.058 1_556 S
Co355 O371 2.057 1_656 S
Co355 O386 2.037 . S
Co355 N390 2.145 1_655 S
Co355 N411 2.257 1_655 S
O356 Co354 2.143 1_554 S
O356 Co355 2.160 1_554 S
C357 O358 1.278 1_556 S
C357 O365 1.224 . S
O358 C357 1.278 1_554 S
C359 O360 1.245 1_455 S
C359 O371 1.232 . S
O360 C359 1.245 1_655 S
O361 Co355 2.058 1_554 S
O361 C387 1.269 . S
O362 Co354 2.074 . S
O362 C387 1.257 1_556 S
H363 C388 0.930 . S
H364 C394 0.930 . S
O365 Co354 2.093 . S
O365 C357 1.224 . S
H366 C398 0.929 . S
H367 C400 0.930 . S
H368 C401 0.930 . S
H369 C399 0.929 . S
H370 C402 0.928 . S
O371 Co355 2.057 1_454 S
O371 C359 1.232 . S
H372 C391 0.929 . S
H373 C392 0.929 . S
H374 C404 0.931 . S
H375 C396 0.929 . S
H376 C405 0.930 . S
H377 C397 0.931 . S
O378 Co354 2.097 . S
O378 C406 1.214 . S
H379 C407 0.929 1_554 S
H380 C408 0.929 . S
H381 C409 0.930 . S
H382 C410 0.929 . S
H383 C412 0.930 . S
H384 C389 0.930 1_554 S
H385 C393 0.930 . S
O386 Co355 2.037 . S
O386 C406 1.234 . S
C387 O361 1.269 . S
C387 O362 1.257 1_554 S
C388 H363 0.930 . S
C388 C391 1.388 . S
C388 C393 1.418 . S
C389 H384 0.930 1_556 S
C389 C392 1.404 1_556 S
C389 C393 1.353 . S
N390 Co355 2.145 1_455 S
N390 C391 1.397 . S
N390 C392 1.334 1_556 S
C391 H372 0.929 . S
C391 C388 1.388 . S
C391 N390 1.397 . S
C392 H373 0.929 . S
C392 C389 1.404 1_554 S
C392 N390 1.334 1_554 S
C393 H385 0.930 . S
C393 C388 1.418 . S
C393 C389 1.353 . S
C394 H364 0.930 . S
C394 N395 1.330 . S
C394 C396 1.446 . S
N395 Co354 2.151 1_554 S
N395 C394 1.330 . S
N395 C399 1.418 . S
C396 H375 0.929 . S
C396 C394 1.446 . S
C396 C397 1.332 . S
C397 H377 0.931 . S
C397 C396 1.332 . S
C397 C398 1.267 . S
C398 H366 0.929 . S
C398 C397 1.267 . S
C398 C399 1.251 . S
C399 H369 0.929 . S
C399 N395 1.418 . S
C399 C398 1.251 . S
C400 H367 0.930 . S
C400 C402 1.406 . S
C400 C405 1.261 . S
C401 H368 0.930 . S
C401 N403 1.325 . S
C401 C404 1.357 . S
C402 H370 0.928 . S
C402 C400 1.406 . S
C402 N403 1.261 . S
N403 Co354 2.214 . S
N403 C401 1.325 . S
N403 C402 1.261 . S
C404 H374 0.931 . S
C404 C401 1.357 . S
C404 C405 1.312 . S
C405 H376 0.930 . S
C405 C400 1.261 . S
C405 C404 1.312 . S
C406 O378 1.214 . S
C406 O386 1.234 . S
C407 H379 0.929 1_556 S
C407 C410 1.391 . S
C407 C412 1.391 1_556 S
C408 H380 0.929 . S
C408 C409 1.390 . S
C408 N411 1.391 . S
C409 H381 0.930 . S
C409 C408 1.390 . S
C409 C410 1.392 . S
C410 H382 0.929 . S
C410 C407 1.391 . S
C410 C409 1.392 . S
N411 Co355 2.257 1_455 S
N411 C408 1.391 . S
N411 C412 1.388 1_556 S
C412 H383 0.930 . S
C412 C407 1.391 1_554 S
C412 N411 1.388 1_554 S
Co413 O415 2.143 1_556 S
Co413 O421 2.074 . S
Co413 O424 2.093 . S
Co413 O437 2.097 . S
Co413 N454 2.151 1_556 S
Co413 N462 2.214 . S
Co414 O415 2.160 1_556 S
Co414 O420 2.058 1_556 S
Co414 O430 2.057 1_556 S
Co414 O445 2.037 . S
Co414 N449 2.145 . S
Co414 N470 2.257 . S
O415 Co413 2.143 1_554 S
O415 Co414 2.160 1_554 S
C416 O417 1.278 1_556 S
C416 O424 1.224 . S
O417 C416 1.278 1_554 S
C418 O419 1.245 . S
C418 O430 1.232 . S
O419 C418 1.245 . S
O420 Co414 2.058 1_554 S
O420 C446 1.269 . S
O421 Co413 2.074 . S
O421 C446 1.257 1_556 S
H422 C447 0.930 . S
H423 C453 0.930 . S
O424 Co413 2.093 . S
O424 C416 1.224 . S
H425 C457 0.929 . S
H426 C459 0.930 . S
H427 C460 0.930 1_655 S
H428 C458 0.929 . S
H429 C461 0.928 . S
O430 Co414 2.057 1_554 S
O430 C418 1.232 . S
H431 C450 0.929 . S
H432 C451 0.929 . S
H433 C463 0.931 . S
H434 C455 0.929 . S
H435 C464 0.930 . S
H436 C456 0.931 . S
O437 Co413 2.097 . S
O437 C465 1.214 . S
H438 C466 0.929 1_554 S
H439 C467 0.929 . S
H440 C468 0.930 . S
H441 C469 0.929 . S
H442 C471 0.930 . S
H443 C448 0.930 1_554 S
H444 C452 0.930 . S
O445 Co414 2.037 . S
O445 C465 1.234 . S
C446 O420 1.269 . S
C446 O421 1.257 1_554 S
C447 H422 0.930 . S
C447 C450 1.388 . S
C447 C452 1.418 . S
C448 H443 0.930 1_556 S
C448 C451 1.404 1_556 S
C448 C452 1.353 . S
N449 Co414 2.145 . S
N449 C450 1.397 . S
N449 C451 1.334 1_556 S
C450 H431 0.929 . S
C450 C447 1.388 . S
C450 N449 1.397 . S
C451 H432 0.929 . S
C451 C448 1.404 1_554 S
C451 N449 1.334 1_554 S
C452 H444 0.930 . S
C452 C447 1.418 . S
C452 C448 1.353 . S
C453 H423 0.930 . S
C453 N454 1.330 . S
C453 C455 1.446 . S
N454 Co413 2.151 1_554 S
N454 C453 1.330 . S
N454 C458 1.418 1_655 S
C455 H434 0.929 . S
C455 C453 1.446 . S
C455 C456 1.332 1_655 S
C456 H436 0.931 . S
C456 C455 1.332 1_455 S
C456 C457 1.267 . S
C457 H425 0.929 . S
C457 C456 1.267 . S
C457 C458 1.251 . S
C458 H428 0.929 . S
C458 N454 1.418 1_455 S
C458 C457 1.251 . S
C459 H426 0.930 . S
C459 C461 1.406 . S
C459 C464 1.261 . S
C460 H427 0.930 1_455 S
C460 N462 1.325 1_455 S
C460 C463 1.357 . S
C461 H429 0.928 . S
C461 C459 1.406 . S
C461 N462 1.261 1_455 S
N462 Co413 2.214 . S
N462 C460 1.325 1_655 S
N462 C461 1.261 1_655 S
C463 H433 0.931 . S
C463 C460 1.357 . S
C463 C464 1.312 . S
C464 H435 0.930 . S
C464 C459 1.261 . S
C464 C463 1.312 . S
C465 O437 1.214 . S
C465 O445 1.234 . S
C466 H438 0.929 1_556 S
C466 C469 1.391 . S
C466 C471 1.391 1_556 S
C467 H439 0.929 . S
C467 C468 1.390 . S
C467 N470 1.391 . S
C468 H440 0.930 . S
C468 C467 1.390 . S
C468 C469 1.392 . S
C469 H441 0.929 . S
C469 C466 1.391 . S
C469 C468 1.392 . S
N470 Co414 2.257 . S
N470 C467 1.391 . S
N470 C471 1.388 1_556 S
C471 H442 0.930 . S
C471 C466 1.391 1_554 S
C471 N470 1.388 1_554 S
Co472 O474 2.143 . S
Co472 O480 2.074 . S
Co472 O483 2.093 . S
Co472 O496 2.097 . S
Co472 N513 2.151 . S
Co472 N521 2.214 . S
Co473 O474 2.160 . S
Co473 O479 2.058 . S
Co473 O489 2.057 1_455 S
Co473 O504 2.037 . S
Co473 N508 2.145 1_455 S
Co473 N529 2.257 1_455 S
O474 Co472 2.143 . S
O474 Co473 2.160 . S
C475 O476 1.278 . S
C475 O483 1.224 . S
O476 C475 1.278 . S
C477 O478 1.245 1_655 S
C477 O489 1.232 . S
O478 C477 1.245 1_455 S
O479 Co473 2.058 . S
O479 C505 1.269 . S
O480 Co472 2.074 . S
O480 C505 1.257 . S
H481 C506 0.930 . S
H482 C512 0.930 . S
O483 Co472 2.093 . S
O483 C475 1.224 . S
H484 C516 0.929 . S
H485 C518 0.930 . S
H486 C519 0.930 . S
H487 C517 0.929 . S
H488 C520 0.928 . S
O489 Co473 2.057 1_655 S
O489 C477 1.232 . S
H490 C509 0.929 . S
H491 C510 0.929 . S
H492 C522 0.931 . S
H493 C514 0.929 . S
H494 C523 0.930 . S
H495 C515 0.931 . S
O496 Co472 2.097 . S
O496 C524 1.214 . S
H497 C525 0.929 . S
H498 C526 0.929 . S
H499 C527 0.930 . S
H500 C528 0.929 . S
H501 C530 0.930 . S
H502 C507 0.930 . S
H503 C511 0.930 . S
O504 Co473 2.037 . S
O504 C524 1.234 . S
C505 O479 1.269 . S
C505 O480 1.257 . S
C506 H481 0.930 . S
C506 C509 1.388 . S
C506 C511 1.418 . S
C507 H502 0.930 . S
C507 C510 1.404 . S
C507 C511 1.353 . S
N508 Co473 2.145 1_655 S
N508 C509 1.397 . S
N508 C510 1.334 . S
C509 H490 0.929 . S
C509 C506 1.388 . S
C509 N508 1.397 . S
C510 H491 0.929 . S
C510 C507 1.404 . S
C510 N508 1.334 . S
C511 H503 0.930 . S
C511 C506 1.418 . S
C511 C507 1.353 . S
C512 H482 0.930 . S
C512 N513 1.330 . S
C512 C514 1.446 . S
N513 Co472 2.151 . S
N513 C512 1.330 . S
N513 C517 1.418 . S
C514 H493 0.929 . S
C514 C512 1.446 . S
C514 C515 1.332 . S
C515 H495 0.931 . S
C515 C514 1.332 . S
C515 C516 1.267 . S
C516 H484 0.929 . S
C516 C515 1.267 . S
C516 C517 1.251 . S
C517 H487 0.929 . S
C517 N513 1.418 . S
C517 C516 1.251 . S
C518 H485 0.930 . S
C518 C520 1.406 . S
C518 C523 1.261 . S
C519 H486 0.930 . S
C519 N521 1.325 . S
C519 C522 1.357 . S
C520 H488 0.928 . S
C520 C518 1.406 . S
C520 N521 1.261 . S
N521 Co472 2.214 . S
N521 C519 1.325 . S
N521 C520 1.261 . S
C522 H492 0.931 . S
C522 C519 1.357 . S
C522 C523 1.312 . S
C523 H494 0.930 . S
C523 C518 1.261 . S
C523 C522 1.312 . S
C524 O496 1.214 . S
C524 O504 1.234 . S
C525 H497 0.929 . S
C525 C528 1.391 . S
C525 C530 1.391 . S
C526 H498 0.929 . S
C526 C527 1.390 . S
C526 N529 1.391 . S
C527 H499 0.930 . S
C527 C526 1.390 . S
C527 C528 1.392 . S
C528 H500 0.929 . S
C528 C525 1.391 . S
C528 C527 1.392 . S
N529 Co473 2.257 1_655 S
N529 C526 1.391 . S
N529 C530 1.388 . S
C530 H501 0.930 . S
C530 C525 1.391 . S
C530 N529 1.388 . S
Co531 O533 2.143 . S
Co531 O539 2.074 . S
Co531 O542 2.093 . S
Co531 O555 2.097 . S
Co531 N572 2.151 . S
Co531 N580 2.214 . S
Co532 O533 2.160 . S
Co532 O538 2.058 . S
Co532 O548 2.057 . S
Co532 O563 2.037 . S
Co532 N567 2.145 . S
Co532 N588 2.257 . S
O533 Co531 2.143 . S
O533 Co532 2.160 . S
C534 O535 1.278 . S
C534 O542 1.224 . S
O535 C534 1.278 . S
C536 O537 1.245 . S
C536 O548 1.232 . S
O537 C536 1.245 . S
O538 Co532 2.058 . S
O538 C564 1.269 . S
O539 Co531 2.074 . S
O539 C564 1.257 . S
H540 C565 0.930 . S
H541 C571 0.930 . S
O542 Co531 2.093 . S
O542 C534 1.224 . S
H543 C575 0.929 . S
H544 C577 0.930 . S
H545 C578 0.930 1_455 S
H546 C576 0.929 . S
H547 C579 0.928 . S
O548 Co532 2.057 . S
O548 C536 1.232 . S
H549 C568 0.929 . S
H550 C569 0.929 . S
H551 C581 0.931 . S
H552 C573 0.929 . S
H553 C582 0.930 . S
H554 C574 0.931 . S
O555 Co531 2.097 . S
O555 C583 1.214 . S
H556 C584 0.929 . S
H557 C585 0.929 . S
H558 C586 0.930 . S
H559 C587 0.929 . S
H560 C589 0.930 . S
H561 C566 0.930 . S
H562 C570 0.930 . S
O563 Co532 2.037 . S
O563 C583 1.234 . S
C564 O538 1.269 . S
C564 O539 1.257 . S
C565 H540 0.930 . S
C565 C568 1.388 . S
C565 C570 1.418 . S
C566 H561 0.930 . S
C566 C569 1.404 . S
C566 C570 1.353 . S
N567 Co532 2.145 . S
N567 C568 1.397 . S
N567 C569 1.334 . S
C568 H549 0.929 . S
C568 C565 1.388 . S
C568 N567 1.397 . S
C569 H550 0.929 . S
C569 C566 1.404 . S
C569 N567 1.334 . S
C570 H562 0.930 . S
C570 C565 1.418 . S
C570 C566 1.353 . S
C571 H541 0.930 . S
C571 N572 1.330 . S
C571 C573 1.446 . S
N572 Co531 2.151 . S
N572 C571 1.330 . S
N572 C576 1.418 1_455 S
C573 H552 0.929 . S
C573 C571 1.446 . S
C573 C574 1.332 1_455 S
C574 H554 0.931 . S
C574 C573 1.332 1_655 S
C574 C575 1.267 . S
C575 H543 0.929 . S
C575 C574 1.267 . S
C575 C576 1.251 . S
C576 H546 0.929 . S
C576 N572 1.418 1_655 S
C576 C575 1.251 . S
C577 H544 0.930 . S
C577 C579 1.406 . S
C577 C582 1.261 . S
C578 H545 0.930 1_655 S
C578 N580 1.325 1_655 S
C578 C581 1.357 . S
C579 H547 0.928 . S
C579 C577 1.406 . S
C579 N580 1.261 1_655 S
N580 Co531 2.214 . S
N580 C578 1.325 1_455 S
N580 C579 1.261 1_455 S
C581 H551 0.931 . S
C581 C578 1.357 . S
C581 C582 1.312 . S
C582 H553 0.930 . S
C582 C577 1.261 . S
C582 C581 1.312 . S
C583 O555 1.214 . S
C583 O563 1.234 . S
C584 H556 0.929 . S
C584 C587 1.391 . S
C584 C589 1.391 . S
C585 H557 0.929 . S
C585 C586 1.390 . S
C585 N588 1.391 . S
C586 H558 0.930 . S
C586 C585 1.390 . S
C586 C587 1.392 . S
C587 H559 0.929 . S
C587 C584 1.391 . S
C587 C586 1.392 . S
N588 Co532 2.257 . S
N588 C585 1.391 . S
N588 C589 1.388 . S
C589 H560 0.930 . S
C589 C584 1.391 . S
C589 N588 1.388 . S
Co590 O592 2.143 . S
Co590 O598 2.074 . S
Co590 O601 2.093 . S
Co590 O614 2.097 . S
Co590 N631 2.151 . S
Co590 N639 2.214 . S
Co591 O592 2.160 . S
Co591 O597 2.058 . S
Co591 O607 2.057 1_455 S
Co591 O622 2.037 . S
Co591 N626 2.145 1_455 S
Co591 N647 2.257 1_455 S
O592 Co590 2.143 . S
O592 Co591 2.160 . S
C593 O594 1.278 . S
C593 O601 1.224 . S
O594 C593 1.278 . S
C595 O596 1.245 1_655 S
C595 O607 1.232 . S
O596 C595 1.245 1_455 S
O597 Co591 2.058 . S
O597 C623 1.269 . S
O598 Co590 2.074 . S
O598 C623 1.257 . S
H599 C624 0.930 . S
H600 C630 0.930 . S
O601 Co590 2.093 . S
O601 C593 1.224 . S
H602 C634 0.929 . S
H603 C636 0.930 . S
H604 C637 0.930 . S
H605 C635 0.929 . S
H606 C638 0.928 . S
O607 Co591 2.057 1_655 S
O607 C595 1.232 . S
H608 C627 0.929 . S
H609 C628 0.929 . S
H610 C640 0.931 . S
H611 C632 0.929 . S
H612 C641 0.930 . S
H613 C633 0.931 . S
O614 Co590 2.097 . S
O614 C642 1.214 . S
H615 C643 0.929 . S
H616 C644 0.929 . S
H617 C645 0.930 . S
H618 C646 0.929 . S
H619 C648 0.930 . S
H620 C625 0.930 . S
H621 C629 0.930 . S
O622 Co591 2.037 . S
O622 C642 1.234 . S
C623 O597 1.269 . S
C623 O598 1.257 . S
C624 H599 0.930 . S
C624 C627 1.388 . S
C624 C629 1.418 . S
C625 H620 0.930 . S
C625 C628 1.404 . S
C625 C629 1.353 . S
N626 Co591 2.145 1_655 S
N626 C627 1.397 . S
N626 C628 1.334 . S
C627 H608 0.929 . S
C627 C624 1.388 . S
C627 N626 1.397 . S
C628 H609 0.929 . S
C628 C625 1.404 . S
C628 N626 1.334 . S
C629 H621 0.930 . S
C629 C624 1.418 . S
C629 C625 1.353 . S
C630 H600 0.930 . S
C630 N631 1.330 . S
C630 C632 1.446 . S
N631 Co590 2.151 . S
N631 C630 1.330 . S
N631 C635 1.418 . S
C632 H611 0.929 . S
C632 C630 1.446 . S
C632 C633 1.332 . S
C633 H613 0.931 . S
C633 C632 1.332 . S
C633 C634 1.267 . S
C634 H602 0.929 . S
C634 C633 1.267 . S
C634 C635 1.251 . S
C635 H605 0.929 . S
C635 N631 1.418 . S
C635 C634 1.251 . S
C636 H603 0.930 . S
C636 C638 1.406 . S
C636 C641 1.261 . S
C637 H604 0.930 . S
C637 N639 1.325 . S
C637 C640 1.357 . S
C638 H606 0.928 . S
C638 C636 1.406 . S
C638 N639 1.261 . S
N639 Co590 2.214 . S
N639 C637 1.325 . S
N639 C638 1.261 . S
C640 H610 0.931 . S
C640 C637 1.357 . S
C640 C641 1.312 . S
C641 H612 0.930 . S
C641 C636 1.261 . S
C641 C640 1.312 . S
C642 O614 1.214 . S
C642 O622 1.234 . S
C643 H615 0.929 . S
C643 C646 1.391 . S
C643 C648 1.391 . S
C644 H616 0.929 . S
C644 C645 1.390 . S
C644 N647 1.391 . S
C645 H617 0.930 . S
C645 C644 1.390 . S
C645 C646 1.392 . S
C646 H618 0.929 . S
C646 C643 1.391 . S
C646 C645 1.392 . S
N647 Co591 2.257 1_655 S
N647 C644 1.391 . S
N647 C648 1.388 . S
C648 H619 0.930 . S
C648 C643 1.391 . S
C648 N647 1.388 . S
Co649 O651 2.143 . S
Co649 O657 2.074 . S
Co649 O660 2.093 . S
Co649 O673 2.097 . S
Co649 N690 2.151 . S
Co649 N698 2.214 . S
Co650 O651 2.160 . S
Co650 O656 2.058 . S
Co650 O666 2.057 . S
Co650 O681 2.037 . S
Co650 N685 2.145 . S
Co650 N706 2.257 . S
O651 Co649 2.143 . S
O651 Co650 2.160 . S
C652 O653 1.278 . S
C652 O660 1.224 . S
O653 C652 1.278 . S
C654 O655 1.245 . S
C654 O666 1.232 . S
O655 C654 1.245 . S
O656 Co650 2.058 . S
O656 C682 1.269 . S
O657 Co649 2.074 . S
O657 C682 1.257 . S
H658 C683 0.930 . S
H659 C689 0.930 . S
O660 Co649 2.093 . S
O660 C652 1.224 . S
H661 C693 0.929 . S
H662 C695 0.930 . S
H663 C696 0.930 1_455 S
H664 C694 0.929 . S
H665 C697 0.928 . S
O666 Co650 2.057 . S
O666 C654 1.232 . S
H667 C686 0.929 . S
H668 C687 0.929 . S
H669 C699 0.931 . S
H670 C691 0.929 . S
H671 C700 0.930 . S
H672 C692 0.931 . S
O673 Co649 2.097 . S
O673 C701 1.214 . S
H674 C702 0.929 . S
H675 C703 0.929 . S
H676 C704 0.930 . S
H677 C705 0.929 . S
H678 C707 0.930 . S
H679 C684 0.930 . S
H680 C688 0.930 . S
O681 Co650 2.037 . S
O681 C701 1.234 . S
C682 O656 1.269 . S
C682 O657 1.257 . S
C683 H658 0.930 . S
C683 C686 1.388 . S
C683 C688 1.418 . S
C684 H679 0.930 . S
C684 C687 1.404 . S
C684 C688 1.353 . S
N685 Co650 2.145 . S
N685 C686 1.397 . S
N685 C687 1.334 . S
C686 H667 0.929 . S
C686 C683 1.388 . S
C686 N685 1.397 . S
C687 H668 0.929 . S
C687 C684 1.404 . S
C687 N685 1.334 . S
C688 H680 0.930 . S
C688 C683 1.418 . S
C688 C684 1.353 . S
C689 H659 0.930 . S
C689 N690 1.330 . S
C689 C691 1.446 . S
N690 Co649 2.151 . S
N690 C689 1.330 . S
N690 C694 1.418 1_455 S
C691 H670 0.929 . S
C691 C689 1.446 . S
C691 C692 1.332 1_455 S
C692 H672 0.931 . S
C692 C691 1.332 1_655 S
C692 C693 1.267 . S
C693 H661 0.929 . S
C693 C692 1.267 . S
C693 C694 1.251 . S
C694 H664 0.929 . S
C694 N690 1.418 1_655 S
C694 C693 1.251 . S
C695 H662 0.930 . S
C695 C697 1.406 . S
C695 C700 1.261 . S
C696 H663 0.930 1_655 S
C696 N698 1.325 1_655 S
C696 C699 1.357 . S
C697 H665 0.928 . S
C697 C695 1.406 . S
C697 N698 1.261 1_655 S
N698 Co649 2.214 . S
N698 C696 1.325 1_455 S
N698 C697 1.261 1_455 S
C699 H669 0.931 . S
C699 C696 1.357 . S
C699 C700 1.312 . S
C700 H671 0.930 . S
C700 C695 1.261 . S
C700 C699 1.312 . S
C701 O673 1.214 . S
C701 O681 1.234 . S
C702 H674 0.929 . S
C702 C705 1.391 . S
C702 C707 1.391 . S
C703 H675 0.929 . S
C703 C704 1.390 . S
C703 N706 1.391 . S
C704 H676 0.930 . S
C704 C703 1.390 . S
C704 C705 1.392 . S
C705 H677 0.929 . S
C705 C702 1.391 . S
C705 C704 1.392 . S
N706 Co650 2.257 . S
N706 C703 1.391 . S
N706 C707 1.388 . S
C707 H678 0.930 . S
C707 C702 1.391 . S
C707 N706 1.388 . S
Co708 O710 2.143 . S
Co708 O716 2.074 . S
Co708 O719 2.093 . S
Co708 O732 2.097 . S
Co708 N749 2.151 . S
Co708 N757 2.214 . S
Co709 O710 2.160 . S
Co709 O715 2.058 . S
Co709 O725 2.057 1_655 S
Co709 O740 2.037 . S
Co709 N744 2.145 1_655 S
Co709 N765 2.257 1_655 S
O710 Co708 2.143 . S
O710 Co709 2.160 . S
C711 O712 1.278 . S
C711 O719 1.224 . S
O712 C711 1.278 . S
C713 O714 1.245 1_455 S
C713 O725 1.232 . S
O714 C713 1.245 1_655 S
O715 Co709 2.058 . S
O715 C741 1.269 . S
O716 Co708 2.074 . S
O716 C741 1.257 . S
H717 C742 0.930 . S
H718 C748 0.930 . S
O719 Co708 2.093 . S
O719 C711 1.224 . S
H720 C752 0.929 . S
H721 C754 0.930 . S
H722 C755 0.930 . S
H723 C753 0.929 . S
H724 C756 0.928 . S
O725 Co709 2.057 1_455 S
O725 C713 1.232 . S
H726 C745 0.929 . S
H727 C746 0.929 . S
H728 C758 0.931 . S
H729 C750 0.929 . S
H730 C759 0.930 . S
H731 C751 0.931 . S
O732 Co708 2.097 . S
O732 C760 1.214 . S
H733 C761 0.929 . S
H734 C762 0.929 . S
H735 C763 0.930 . S
H736 C764 0.929 . S
H737 C766 0.930 . S
H738 C743 0.930 . S
H739 C747 0.930 . S
O740 Co709 2.037 . S
O740 C760 1.234 . S
C741 O715 1.269 . S
C741 O716 1.257 . S
C742 H717 0.930 . S
C742 C745 1.388 . S
C742 C747 1.418 . S
C743 H738 0.930 . S
C743 C746 1.404 . S
C743 C747 1.353 . S
N744 Co709 2.145 1_455 S
N744 C745 1.397 . S
N744 C746 1.334 . S
C745 H726 0.929 . S
C745 C742 1.388 . S
C745 N744 1.397 . S
C746 H727 0.929 . S
C746 C743 1.404 . S
C746 N744 1.334 . S
C747 H739 0.930 . S
C747 C742 1.418 . S
C747 C743 1.353 . S
C748 H718 0.930 . S
C748 N749 1.330 . S
C748 C750 1.446 . S
N749 Co708 2.151 . S
N749 C748 1.330 . S
N749 C753 1.418 . S
C750 H729 0.929 . S
C750 C748 1.446 . S
C750 C751 1.332 . S
C751 H731 0.931 . S
C751 C750 1.332 . S
C751 C752 1.267 . S
C752 H720 0.929 . S
C752 C751 1.267 . S
C752 C753 1.251 . S
C753 H723 0.929 . S
C753 N749 1.418 . S
C753 C752 1.251 . S
C754 H721 0.930 . S
C754 C756 1.406 . S
C754 C759 1.261 . S
C755 H722 0.930 . S
C755 N757 1.325 . S
C755 C758 1.357 . S
C756 H724 0.928 . S
C756 C754 1.406 . S
C756 N757 1.261 . S
N757 Co708 2.214 . S
N757 C755 1.325 . S
N757 C756 1.261 . S
C758 H728 0.931 . S
C758 C755 1.357 . S
C758 C759 1.312 . S
C759 H730 0.930 . S
C759 C754 1.261 . S
C759 C758 1.312 . S
C760 O732 1.214 . S
C760 O740 1.234 . S
C761 H733 0.929 . S
C761 C764 1.391 . S
C761 C766 1.391 . S
C762 H734 0.929 . S
C762 C763 1.390 . S
C762 N765 1.391 . S
C763 H735 0.930 . S
C763 C762 1.390 . S
C763 C764 1.392 . S
C764 H736 0.929 . S
C764 C761 1.391 . S
C764 C763 1.392 . S
N765 Co709 2.257 1_455 S
N765 C762 1.391 . S
N765 C766 1.388 . S
C766 H737 0.930 . S
C766 C761 1.391 . S
C766 N765 1.388 . S
Co767 O769 2.143 . S
Co767 O775 2.074 . S
Co767 O778 2.093 . S
Co767 O791 2.097 . S
Co767 N808 2.151 . S
Co767 N816 2.214 . S
Co768 O769 2.160 . S
Co768 O774 2.058 . S
Co768 O784 2.057 . S
Co768 O799 2.037 . S
Co768 N803 2.145 . S
Co768 N824 2.257 . S
O769 Co767 2.143 . S
O769 Co768 2.160 . S
C770 O771 1.278 . S
C770 O778 1.224 . S
O771 C770 1.278 . S
C772 O773 1.245 . S
C772 O784 1.232 . S
O773 C772 1.245 . S
O774 Co768 2.058 . S
O774 C800 1.269 . S
O775 Co767 2.074 . S
O775 C800 1.257 . S
H776 C801 0.930 . S
H777 C807 0.930 . S
O778 Co767 2.093 . S
O778 C770 1.224 . S
H779 C811 0.929 . S
H780 C813 0.930 . S
H781 C814 0.930 1_655 S
H782 C812 0.929 . S
H783 C815 0.928 . S
O784 Co768 2.057 . S
O784 C772 1.232 . S
H785 C804 0.929 . S
H786 C805 0.929 . S
H787 C817 0.931 . S
H788 C809 0.929 . S
H789 C818 0.930 . S
H790 C810 0.931 . S
O791 Co767 2.097 . S
O791 C819 1.214 . S
H792 C820 0.929 . S
H793 C821 0.929 . S
H794 C822 0.930 . S
H795 C823 0.929 . S
H796 C825 0.930 . S
H797 C802 0.930 . S
H798 C806 0.930 . S
O799 Co768 2.037 . S
O799 C819 1.234 . S
C800 O774 1.269 . S
C800 O775 1.257 . S
C801 H776 0.930 . S
C801 C804 1.388 . S
C801 C806 1.418 . S
C802 H797 0.930 . S
C802 C805 1.404 . S
C802 C806 1.353 . S
N803 Co768 2.145 . S
N803 C804 1.397 . S
N803 C805 1.334 . S
C804 H785 0.929 . S
C804 C801 1.388 . S
C804 N803 1.397 . S
C805 H786 0.929 . S
C805 C802 1.404 . S
C805 N803 1.334 . S
C806 H798 0.930 . S
C806 C801 1.418 . S
C806 C802 1.353 . S
C807 H777 0.930 . S
C807 N808 1.330 . S
C807 C809 1.446 . S
N808 Co767 2.151 . S
N808 C807 1.330 . S
N808 C812 1.418 1_655 S
C809 H788 0.929 . S
C809 C807 1.446 . S
C809 C810 1.332 1_655 S
C810 H790 0.931 . S
C810 C809 1.332 1_455 S
C810 C811 1.267 . S
C811 H779 0.929 . S
C811 C810 1.267 . S
C811 C812 1.251 . S
C812 H782 0.929 . S
C812 N808 1.418 1_455 S
C812 C811 1.251 . S
C813 H780 0.930 . S
C813 C815 1.406 . S
C813 C818 1.261 . S
C814 H781 0.930 1_455 S
C814 N816 1.325 1_455 S
C814 C817 1.357 . S
C815 H783 0.928 . S
C815 C813 1.406 . S
C815 N816 1.261 1_455 S
N816 Co767 2.214 . S
N816 C814 1.325 1_655 S
N816 C815 1.261 1_655 S
C817 H787 0.931 . S
C817 C814 1.357 . S
C817 C818 1.312 . S
C818 H789 0.930 . S
C818 C813 1.261 . S
C818 C817 1.312 . S
C819 O791 1.214 . S
C819 O799 1.234 . S
C820 H792 0.929 . S
C820 C823 1.391 . S
C820 C825 1.391 . S
C821 H793 0.929 . S
C821 C822 1.390 . S
C821 N824 1.391 . S
C822 H794 0.930 . S
C822 C821 1.390 . S
C822 C823 1.392 . S
C823 H795 0.929 . S
C823 C820 1.391 . S
C823 C822 1.392 . S
N824 Co768 2.257 . S
N824 C821 1.391 . S
N824 C825 1.388 . S
C825 H796 0.930 . S
C825 C820 1.391 . S
C825 N824 1.388 . S
Co826 O828 2.143 . S
Co826 O834 2.074 . S
Co826 O837 2.093 . S
Co826 O850 2.097 . S
Co826 N867 2.151 . S
Co826 N875 2.214 . S
Co827 O828 2.160 . S
Co827 O833 2.058 . S
Co827 O843 2.057 1_655 S
Co827 O858 2.037 . S
Co827 N862 2.145 1_655 S
Co827 N883 2.257 1_655 S
O828 Co826 2.143 . S
O828 Co827 2.160 . S
C829 O830 1.278 . S
C829 O837 1.224 . S
O830 C829 1.278 . S
C831 O832 1.245 1_455 S
C831 O843 1.232 . S
O832 C831 1.245 1_655 S
O833 Co827 2.058 . S
O833 C859 1.269 . S
O834 Co826 2.074 . S
O834 C859 1.257 . S
H835 C860 0.930 . S
H836 C866 0.930 . S
O837 Co826 2.093 . S
O837 C829 1.224 . S
H838 C870 0.929 . S
H839 C872 0.930 . S
H840 C873 0.930 . S
H841 C871 0.929 . S
H842 C874 0.928 . S
O843 Co827 2.057 1_455 S
O843 C831 1.232 . S
H844 C863 0.929 . S
H845 C864 0.929 . S
H846 C876 0.931 . S
H847 C868 0.929 . S
H848 C877 0.930 . S
H849 C869 0.931 . S
O850 Co826 2.097 . S
O850 C878 1.214 . S
H851 C879 0.929 . S
H852 C880 0.929 . S
H853 C881 0.930 . S
H854 C882 0.929 . S
H855 C884 0.930 . S
H856 C861 0.930 . S
H857 C865 0.930 . S
O858 Co827 2.037 . S
O858 C878 1.234 . S
C859 O833 1.269 . S
C859 O834 1.257 . S
C860 H835 0.930 . S
C860 C863 1.388 . S
C860 C865 1.418 . S
C861 H856 0.930 . S
C861 C864 1.404 . S
C861 C865 1.353 . S
N862 Co827 2.145 1_455 S
N862 C863 1.397 . S
N862 C864 1.334 . S
C863 H844 0.929 . S
C863 C860 1.388 . S
C863 N862 1.397 . S
C864 H845 0.929 . S
C864 C861 1.404 . S
C864 N862 1.334 . S
C865 H857 0.930 . S
C865 C860 1.418 . S
C865 C861 1.353 . S
C866 H836 0.930 . S
C866 N867 1.330 . S
C866 C868 1.446 . S
N867 Co826 2.151 . S
N867 C866 1.330 . S
N867 C871 1.418 . S
C868 H847 0.929 . S
C868 C866 1.446 . S
C868 C869 1.332 . S
C869 H849 0.931 . S
C869 C868 1.332 . S
C869 C870 1.267 . S
C870 H838 0.929 . S
C870 C869 1.267 . S
C870 C871 1.251 . S
C871 H841 0.929 . S
C871 N867 1.418 . S
C871 C870 1.251 . S
C872 H839 0.930 . S
C872 C874 1.406 . S
C872 C877 1.261 . S
C873 H840 0.930 . S
C873 N875 1.325 . S
C873 C876 1.357 . S
C874 H842 0.928 . S
C874 C872 1.406 . S
C874 N875 1.261 . S
N875 Co826 2.214 . S
N875 C873 1.325 . S
N875 C874 1.261 . S
C876 H846 0.931 . S
C876 C873 1.357 . S
C876 C877 1.312 . S
C877 H848 0.930 . S
C877 C872 1.261 . S
C877 C876 1.312 . S
C878 O850 1.214 . S
C878 O858 1.234 . S
C879 H851 0.929 . S
C879 C882 1.391 . S
C879 C884 1.391 . S
C880 H852 0.929 . S
C880 C881 1.390 . S
C880 N883 1.391 . S
C881 H853 0.930 . S
C881 C880 1.390 . S
C881 C882 1.392 . S
C882 H854 0.929 . S
C882 C879 1.391 . S
C882 C881 1.392 . S
N883 Co827 2.257 1_455 S
N883 C880 1.391 . S
N883 C884 1.388 . S
C884 H855 0.930 . S
C884 C879 1.391 . S
C884 N883 1.388 . S
Co885 O887 2.143 . S
Co885 O893 2.074 . S
Co885 O896 2.093 . S
Co885 O909 2.097 . S
Co885 N926 2.151 . S
Co885 N934 2.214 . S
Co886 O887 2.160 . S
Co886 O892 2.058 . S
Co886 O902 2.057 . S
Co886 O917 2.037 . S
Co886 N921 2.145 . S
Co886 N942 2.257 . S
O887 Co885 2.143 . S
O887 Co886 2.160 . S
C888 O889 1.278 . S
C888 O896 1.224 . S
O889 C888 1.278 . S
C890 O891 1.245 . S
C890 O902 1.232 . S
O891 C890 1.245 . S
O892 Co886 2.058 . S
O892 C918 1.269 . S
O893 Co885 2.074 . S
O893 C918 1.257 . S
H894 C919 0.930 . S
H895 C925 0.930 . S
O896 Co885 2.093 . S
O896 C888 1.224 . S
H897 C929 0.929 . S
H898 C931 0.930 . S
H899 C932 0.930 1_655 S
H900 C930 0.929 . S
H901 C933 0.928 . S
O902 Co886 2.057 . S
O902 C890 1.232 . S
H903 C922 0.929 . S
H904 C923 0.929 . S
H905 C935 0.931 . S
H906 C927 0.929 . S
H907 C936 0.930 . S
H908 C928 0.931 . S
O909 Co885 2.097 . S
O909 C937 1.214 . S
H910 C938 0.929 . S
H911 C939 0.929 . S
H912 C940 0.930 . S
H913 C941 0.929 . S
H914 C943 0.930 . S
H915 C920 0.930 . S
H916 C924 0.930 . S
O917 Co886 2.037 . S
O917 C937 1.234 . S
C918 O892 1.269 . S
C918 O893 1.257 . S
C919 H894 0.930 . S
C919 C922 1.388 . S
C919 C924 1.418 . S
C920 H915 0.930 . S
C920 C923 1.404 . S
C920 C924 1.353 . S
N921 Co886 2.145 . S
N921 C922 1.397 . S
N921 C923 1.334 . S
C922 H903 0.929 . S
C922 C919 1.388 . S
C922 N921 1.397 . S
C923 H904 0.929 . S
C923 C920 1.404 . S
C923 N921 1.334 . S
C924 H916 0.930 . S
C924 C919 1.418 . S
C924 C920 1.353 . S
C925 H895 0.930 . S
C925 N926 1.330 . S
C925 C927 1.446 . S
N926 Co885 2.151 . S
N926 C925 1.330 . S
N926 C930 1.418 1_655 S
C927 H906 0.929 . S
C927 C925 1.446 . S
C927 C928 1.332 1_655 S
C928 H908 0.931 . S
C928 C927 1.332 1_455 S
C928 C929 1.267 . S
C929 H897 0.929 . S
C929 C928 1.267 . S
C929 C930 1.251 . S
C930 H900 0.929 . S
C930 N926 1.418 1_455 S
C930 C929 1.251 . S
C931 H898 0.930 . S
C931 C933 1.406 . S
C931 C936 1.261 . S
C932 H899 0.930 1_455 S
C932 N934 1.325 1_455 S
C932 C935 1.357 . S
C933 H901 0.928 . S
C933 C931 1.406 . S
C933 N934 1.261 1_455 S
N934 Co885 2.214 . S
N934 C932 1.325 1_655 S
N934 C933 1.261 1_655 S
C935 H905 0.931 . S
C935 C932 1.357 . S
C935 C936 1.312 . S
C936 H907 0.930 . S
C936 C931 1.261 . S
C936 C935 1.312 . S
C937 O909 1.214 . S
C937 O917 1.234 . S
C938 H910 0.929 . S
C938 C941 1.391 . S
C938 C943 1.391 . S
C939 H911 0.929 . S
C939 C940 1.390 . S
C939 N942 1.391 . S
C940 H912 0.930 . S
C940 C939 1.390 . S
C940 C941 1.392 . S
C941 H913 0.929 . S
C941 C938 1.391 . S
C941 C940 1.392 . S
N942 Co886 2.257 . S
N942 C939 1.391 . S
N942 C943 1.388 . S
C943 H914 0.930 . S
C943 C938 1.391 . S
C943 N942 1.388 . S
Co944 O946 2.143 . S
Co944 O952 2.074 . S
Co944 O955 2.093 . S
Co944 O968 2.097 . S
Co944 N985 2.151 . S
Co944 N993 2.214 . S
Co945 O946 2.160 . S
Co945 O951 2.058 . S
Co945 O961 2.057 . S
Co945 O976 2.037 . S
Co945 N980 2.145 . S
Co945 N1001 2.257 . S
O946 Co944 2.143 . S
O946 Co945 2.160 . S
C947 O948 1.278 . S
C947 O955 1.224 . S
O948 C947 1.278 . S
C949 O950 1.245 . S
C949 O961 1.232 . S
O950 C949 1.245 . S
O951 Co945 2.058 . S
O951 C977 1.269 . S
O952 Co944 2.074 . S
O952 C977 1.257 . S
H953 C978 0.930 . S
H954 C984 0.930 . S
O955 Co944 2.093 . S
O955 C947 1.224 . S
H956 C988 0.929 . S
H957 C990 0.930 . S
H958 C991 0.930 . S
H959 C989 0.929 . S
H960 C992 0.928 . S
O961 Co945 2.057 . S
O961 C949 1.232 . S
H962 C981 0.929 . S
H963 C982 0.929 . S
H964 C994 0.931 . S
H965 C986 0.929 . S
H966 C995 0.930 . S
H967 C987 0.931 . S
O968 Co944 2.097 . S
O968 C996 1.214 . S
H969 C997 0.929 . S
H970 C998 0.929 . S
H971 C999 0.930 . S
H972 C1000 0.929 . S
H973 C1002 0.930 . S
H974 C979 0.930 . S
H975 C983 0.930 . S
O976 Co945 2.037 . S
O976 C996 1.234 . S
C977 O951 1.269 . S
C977 O952 1.257 . S
C978 H953 0.930 . S
C978 C981 1.388 . S
C978 C983 1.418 . S
C979 H974 0.930 . S
C979 C982 1.404 . S
C979 C983 1.353 . S
N980 Co945 2.145 . S
N980 C981 1.397 . S
N980 C982 1.334 . S
C981 H962 0.929 . S
C981 C978 1.388 . S
C981 N980 1.397 . S
C982 H963 0.929 . S
C982 C979 1.404 . S
C982 N980 1.334 . S
C983 H975 0.930 . S
C983 C978 1.418 . S
C983 C979 1.353 . S
C984 H954 0.930 . S
C984 N985 1.330 . S
C984 C986 1.446 . S
N985 Co944 2.151 . S
N985 C984 1.330 . S
N985 C989 1.418 . S
C986 H965 0.929 . S
C986 C984 1.446 . S
C986 C987 1.332 . S
C987 H967 0.931 . S
C987 C986 1.332 . S
C987 C988 1.267 . S
C988 H956 0.929 . S
C988 C987 1.267 . S
C988 C989 1.251 . S
C989 H959 0.929 . S
C989 N985 1.418 . S
C989 C988 1.251 . S
C990 H957 0.930 . S
C990 C992 1.406 . S
C990 C995 1.261 . S
C991 H958 0.930 . S
C991 N993 1.325 . S
C991 C994 1.357 . S
C992 H960 0.928 . S
C992 C990 1.406 . S
C992 N993 1.261 . S
N993 Co944 2.214 . S
N993 C991 1.325 . S
N993 C992 1.261 . S
C994 H964 0.931 . S
C994 C991 1.357 . S
C994 C995 1.312 . S
C995 H966 0.930 . S
C995 C990 1.261 . S
C995 C994 1.312 . S
C996 O968 1.214 . S
C996 O976 1.234 . S
C997 H969 0.929 . S
C997 C1000 1.391 . S
C997 C1002 1.391 . S
C998 H970 0.929 . S
C998 C999 1.390 . S
C998 N1001 1.391 . S
C999 H971 0.930 . S
C999 C998 1.390 . S
C999 C1000 1.392 . S
C1000 H972 0.929 . S
C1000 C997 1.391 . S
C1000 C999 1.392 . S
N1001 Co945 2.257 . S
N1001 C998 1.391 . S
N1001 C1002 1.388 . S
C1002 H973 0.930 . S
C1002 C997 1.391 . S
C1002 N1001 1.388 . S
Co1003 O1005 2.143 . S
Co1003 O1011 2.074 . S
Co1003 O1014 2.093 . S
Co1003 O1027 2.097 . S
Co1003 N1044 2.151 . S
Co1003 N1052 2.214 . S
Co1004 O1005 2.160 . S
Co1004 O1010 2.058 . S
Co1004 O1020 2.057 . S
Co1004 O1035 2.037 . S
Co1004 N1039 2.145 . S
Co1004 N1060 2.257 . S
O1005 Co1003 2.143 . S
O1005 Co1004 2.160 . S
C1006 O1007 1.278 . S
C1006 O1014 1.224 . S
O1007 C1006 1.278 . S
C1008 O1009 1.245 . S
C1008 O1020 1.232 . S
O1009 C1008 1.245 . S
O1010 Co1004 2.058 . S
O1010 C1036 1.269 . S
O1011 Co1003 2.074 . S
O1011 C1036 1.257 . S
H1012 C1037 0.930 . S
H1013 C1043 0.930 . S
O1014 Co1003 2.093 . S
O1014 C1006 1.224 . S
H1015 C1047 0.929 . S
H1016 C1049 0.930 . S
H1017 C1050 0.930 . S
H1018 C1048 0.929 . S
H1019 C1051 0.928 . S
O1020 Co1004 2.057 . S
O1020 C1008 1.232 . S
H1021 C1040 0.929 . S
H1022 C1041 0.929 . S
H1023 C1053 0.931 . S
H1024 C1045 0.929 . S
H1025 C1054 0.930 . S
H1026 C1046 0.931 . S
O1027 Co1003 2.097 . S
O1027 C1055 1.214 . S
H1028 C1056 0.929 . S
H1029 C1057 0.929 . S
H1030 C1058 0.930 . S
H1031 C1059 0.929 . S
H1032 C1061 0.930 . S
H1033 C1038 0.930 . S
H1034 C1042 0.930 . S
O1035 Co1004 2.037 . S
O1035 C1055 1.234 . S
C1036 O1010 1.269 . S
C1036 O1011 1.257 . S
C1037 H1012 0.930 . S
C1037 C1040 1.388 . S
C1037 C1042 1.418 . S
C1038 H1033 0.930 . S
C1038 C1041 1.404 . S
C1038 C1042 1.353 . S
N1039 Co1004 2.145 . S
N1039 C1040 1.397 . S
N1039 C1041 1.334 . S
C1040 H1021 0.929 . S
C1040 C1037 1.388 . S
C1040 N1039 1.397 . S
C1041 H1022 0.929 . S
C1041 C1038 1.404 . S
C1041 N1039 1.334 . S
C1042 H1034 0.930 . S
C1042 C1037 1.418 . S
C1042 C1038 1.353 . S
C1043 H1013 0.930 . S
C1043 N1044 1.330 . S
C1043 C1045 1.446 . S
N1044 Co1003 2.151 . S
N1044 C1043 1.330 . S
N1044 C1048 1.418 . S
C1045 H1024 0.929 . S
C1045 C1043 1.446 . S
C1045 C1046 1.332 . S
C1046 H1026 0.931 . S
C1046 C1045 1.332 . S
C1046 C1047 1.267 . S
C1047 H1015 0.929 . S
C1047 C1046 1.267 . S
C1047 C1048 1.251 . S
C1048 H1018 0.929 . S
C1048 N1044 1.418 . S
C1048 C1047 1.251 . S
C1049 H1016 0.930 . S
C1049 C1051 1.406 . S
C1049 C1054 1.261 . S
C1050 H1017 0.930 . S
C1050 N1052 1.325 . S
C1050 C1053 1.357 . S
C1051 H1019 0.928 . S
C1051 C1049 1.406 . S
C1051 N1052 1.261 . S
N1052 Co1003 2.214 . S
N1052 C1050 1.325 . S
N1052 C1051 1.261 . S
C1053 H1023 0.931 . S
C1053 C1050 1.357 . S
C1053 C1054 1.312 . S
C1054 H1025 0.930 . S
C1054 C1049 1.261 . S
C1054 C1053 1.312 . S
C1055 O1027 1.214 . S
C1055 O1035 1.234 . S
C1056 H1028 0.929 . S
C1056 C1059 1.391 . S
C1056 C1061 1.391 . S
C1057 H1029 0.929 . S
C1057 C1058 1.390 . S
C1057 N1060 1.391 . S
C1058 H1030 0.930 . S
C1058 C1057 1.390 . S
C1058 C1059 1.392 . S
C1059 H1031 0.929 . S
C1059 C1056 1.391 . S
C1059 C1058 1.392 . S
N1060 Co1004 2.257 . S
N1060 C1057 1.391 . S
N1060 C1061 1.388 . S
C1061 H1032 0.930 . S
C1061 C1056 1.391 . S
C1061 N1060 1.388 . S
Co1062 O1064 2.143 . S
Co1062 O1070 2.074 . S
Co1062 O1073 2.093 . S
Co1062 O1086 2.097 . S
Co1062 N1103 2.151 . S
Co1062 N1111 2.214 . S
Co1063 O1064 2.160 . S
Co1063 O1069 2.058 . S
Co1063 O1079 2.057 . S
Co1063 O1094 2.037 . S
Co1063 N1098 2.145 . S
Co1063 N1119 2.257 . S
O1064 Co1062 2.143 . S
O1064 Co1063 2.160 . S
C1065 O1066 1.278 . S
C1065 O1073 1.224 . S
O1066 C1065 1.278 . S
C1067 O1068 1.245 . S
C1067 O1079 1.232 . S
O1068 C1067 1.245 . S
O1069 Co1063 2.058 . S
O1069 C1095 1.269 . S
O1070 Co1062 2.074 . S
O1070 C1095 1.257 . S
H1071 C1096 0.930 . S
H1072 C1102 0.930 . S
O1073 Co1062 2.093 . S
O1073 C1065 1.224 . S
H1074 C1106 0.929 . S
H1075 C1108 0.930 . S
H1076 C1109 0.930 . S
H1077 C1107 0.929 . S
H1078 C1110 0.928 . S
O1079 Co1063 2.057 . S
O1079 C1067 1.232 . S
H1080 C1099 0.929 . S
H1081 C1100 0.929 . S
H1082 C1112 0.931 . S
H1083 C1104 0.929 . S
H1084 C1113 0.930 . S
H1085 C1105 0.931 . S
O1086 Co1062 2.097 . S
O1086 C1114 1.214 . S
H1087 C1115 0.929 . S
H1088 C1116 0.929 . S
H1089 C1117 0.930 . S
H1090 C1118 0.929 . S
H1091 C1120 0.930 . S
H1092 C1097 0.930 . S
H1093 C1101 0.930 . S
O1094 Co1063 2.037 . S
O1094 C1114 1.234 . S
C1095 O1069 1.269 . S
C1095 O1070 1.257 . S
C1096 H1071 0.930 . S
C1096 C1099 1.388 . S
C1096 C1101 1.418 . S
C1097 H1092 0.930 . S
C1097 C1100 1.404 . S
C1097 C1101 1.353 . S
N1098 Co1063 2.145 . S
N1098 C1099 1.397 . S
N1098 C1100 1.334 . S
C1099 H1080 0.929 . S
C1099 C1096 1.388 . S
C1099 N1098 1.397 . S
C1100 H1081 0.929 . S
C1100 C1097 1.404 . S
C1100 N1098 1.334 . S
C1101 H1093 0.930 . S
C1101 C1096 1.418 . S
C1101 C1097 1.353 . S
C1102 H1072 0.930 . S
C1102 N1103 1.330 . S
C1102 C1104 1.446 . S
N1103 Co1062 2.151 . S
N1103 C1102 1.330 . S
N1103 C1107 1.418 . S
C1104 H1083 0.929 . S
C1104 C1102 1.446 . S
C1104 C1105 1.332 . S
C1105 H1085 0.931 . S
C1105 C1104 1.332 . S
C1105 C1106 1.267 . S
C1106 H1074 0.929 . S
C1106 C1105 1.267 . S
C1106 C1107 1.251 . S
C1107 H1077 0.929 . S
C1107 N1103 1.418 . S
C1107 C1106 1.251 . S
C1108 H1075 0.930 . S
C1108 C1110 1.406 . S
C1108 C1113 1.261 . S
C1109 H1076 0.930 . S
C1109 N1111 1.325 . S
C1109 C1112 1.357 . S
C1110 H1078 0.928 . S
C1110 C1108 1.406 . S
C1110 N1111 1.261 . S
N1111 Co1062 2.214 . S
N1111 C1109 1.325 . S
N1111 C1110 1.261 . S
C1112 H1082 0.931 . S
C1112 C1109 1.357 . S
C1112 C1113 1.312 . S
C1113 H1084 0.930 . S
C1113 C1108 1.261 . S
C1113 C1112 1.312 . S
C1114 O1086 1.214 . S
C1114 O1094 1.234 . S
C1115 H1087 0.929 . S
C1115 C1118 1.391 . S
C1115 C1120 1.391 . S
C1116 H1088 0.929 . S
C1116 C1117 1.390 . S
C1116 N1119 1.391 . S
C1117 H1089 0.930 . S
C1117 C1116 1.390 . S
C1117 C1118 1.392 . S
C1118 H1090 0.929 . S
C1118 C1115 1.391 . S
C1118 C1117 1.392 . S
N1119 Co1063 2.257 . S
N1119 C1116 1.391 . S
N1119 C1120 1.388 . S
C1120 H1091 0.930 . S
C1120 C1115 1.391 . S
C1120 N1119 1.388 . S
Co1121 O1123 2.143 . S
Co1121 O1129 2.074 . S
Co1121 O1132 2.093 . S
Co1121 O1145 2.097 . S
Co1121 N1162 2.151 . S
Co1121 N1170 2.214 . S
Co1122 O1123 2.160 . S
Co1122 O1128 2.058 . S
Co1122 O1138 2.057 . S
Co1122 O1153 2.037 . S
Co1122 N1157 2.145 . S
Co1122 N1178 2.257 . S
O1123 Co1121 2.143 . S
O1123 Co1122 2.160 . S
C1124 O1125 1.278 . S
C1124 O1132 1.224 . S
O1125 C1124 1.278 . S
C1126 O1127 1.245 . S
C1126 O1138 1.232 . S
O1127 C1126 1.245 . S
O1128 Co1122 2.058 . S
O1128 C1154 1.269 . S
O1129 Co1121 2.074 . S
O1129 C1154 1.257 . S
H1130 C1155 0.930 . S
H1131 C1161 0.930 . S
O1132 Co1121 2.093 . S
O1132 C1124 1.224 . S
H1133 C1165 0.929 . S
H1134 C1167 0.930 . S
H1135 C1168 0.930 . S
H1136 C1166 0.929 . S
H1137 C1169 0.928 . S
O1138 Co1122 2.057 . S
O1138 C1126 1.232 . S
H1139 C1158 0.929 . S
H1140 C1159 0.929 . S
H1141 C1171 0.931 . S
H1142 C1163 0.929 . S
H1143 C1172 0.930 . S
H1144 C1164 0.931 . S
O1145 Co1121 2.097 . S
O1145 C1173 1.214 . S
H1146 C1174 0.929 . S
H1147 C1175 0.929 . S
H1148 C1176 0.930 . S
H1149 C1177 0.929 . S
H1150 C1179 0.930 . S
H1151 C1156 0.930 . S
H1152 C1160 0.930 . S
O1153 Co1122 2.037 . S
O1153 C1173 1.234 . S
C1154 O1128 1.269 . S
C1154 O1129 1.257 . S
C1155 H1130 0.930 . S
C1155 C1158 1.388 . S
C1155 C1160 1.418 . S
C1156 H1151 0.930 . S
C1156 C1159 1.404 . S
C1156 C1160 1.353 . S
N1157 Co1122 2.145 . S
N1157 C1158 1.397 . S
N1157 C1159 1.334 . S
C1158 H1139 0.929 . S
C1158 C1155 1.388 . S
C1158 N1157 1.397 . S
C1159 H1140 0.929 . S
C1159 C1156 1.404 . S
C1159 N1157 1.334 . S
C1160 H1152 0.930 . S
C1160 C1155 1.418 . S
C1160 C1156 1.353 . S
C1161 H1131 0.930 . S
C1161 N1162 1.330 . S
C1161 C1163 1.446 . S
N1162 Co1121 2.151 . S
N1162 C1161 1.330 . S
N1162 C1166 1.418 . S
C1163 H1142 0.929 . S
C1163 C1161 1.446 . S
C1163 C1164 1.332 . S
C1164 H1144 0.931 . S
C1164 C1163 1.332 . S
C1164 C1165 1.267 . S
C1165 H1133 0.929 . S
C1165 C1164 1.267 . S
C1165 C1166 1.251 . S
C1166 H1136 0.929 . S
C1166 N1162 1.418 . S
C1166 C1165 1.251 . S
C1167 H1134 0.930 . S
C1167 C1169 1.406 . S
C1167 C1172 1.261 . S
C1168 H1135 0.930 . S
C1168 N1170 1.325 . S
C1168 C1171 1.357 . S
C1169 H1137 0.928 . S
C1169 C1167 1.406 . S
C1169 N1170 1.261 . S
N1170 Co1121 2.214 . S
N1170 C1168 1.325 . S
N1170 C1169 1.261 . S
C1171 H1141 0.931 . S
C1171 C1168 1.357 . S
C1171 C1172 1.312 . S
C1172 H1143 0.930 . S
C1172 C1167 1.261 . S
C1172 C1171 1.312 . S
C1173 O1145 1.214 . S
C1173 O1153 1.234 . S
C1174 H1146 0.929 . S
C1174 C1177 1.391 . S
C1174 C1179 1.391 . S
C1175 H1147 0.929 . S
C1175 C1176 1.390 . S
C1175 N1178 1.391 . S
C1176 H1148 0.930 . S
C1176 C1175 1.390 . S
C1176 C1177 1.392 . S
C1177 H1149 0.929 . S
C1177 C1174 1.391 . S
C1177 C1176 1.392 . S
N1178 Co1122 2.257 . S
N1178 C1175 1.391 . S
N1178 C1179 1.388 . S
C1179 H1150 0.930 . S
C1179 C1174 1.391 . S
C1179 N1178 1.388 . S
Co1180 O1182 2.143 . S
Co1180 O1188 2.074 . S
Co1180 O1191 2.093 . S
Co1180 O1204 2.097 . S
Co1180 N1221 2.151 . S
Co1180 N1229 2.214 . S
Co1181 O1182 2.160 . S
Co1181 O1187 2.058 . S
Co1181 O1197 2.057 . S
Co1181 O1212 2.037 . S
Co1181 N1216 2.145 . S
Co1181 N1237 2.257 . S
O1182 Co1180 2.143 . S
O1182 Co1181 2.160 . S
C1183 O1184 1.278 . S
C1183 O1191 1.224 . S
O1184 C1183 1.278 . S
C1185 O1186 1.245 . S
C1185 O1197 1.232 . S
O1186 C1185 1.245 . S
O1187 Co1181 2.058 . S
O1187 C1213 1.269 . S
O1188 Co1180 2.074 . S
O1188 C1213 1.257 . S
H1189 C1214 0.930 . S
H1190 C1220 0.930 . S
O1191 Co1180 2.093 . S
O1191 C1183 1.224 . S
H1192 C1224 0.929 . S
H1193 C1226 0.930 . S
H1194 C1227 0.930 . S
H1195 C1225 0.929 . S
H1196 C1228 0.928 . S
O1197 Co1181 2.057 . S
O1197 C1185 1.232 . S
H1198 C1217 0.929 . S
H1199 C1218 0.929 . S
H1200 C1230 0.931 . S
H1201 C1222 0.929 . S
H1202 C1231 0.930 . S
H1203 C1223 0.931 . S
O1204 Co1180 2.097 . S
O1204 C1232 1.214 . S
H1205 C1233 0.929 . S
H1206 C1234 0.929 . S
H1207 C1235 0.930 . S
H1208 C1236 0.929 . S
H1209 C1238 0.930 . S
H1210 C1215 0.930 . S
H1211 C1219 0.930 . S
O1212 Co1181 2.037 . S
O1212 C1232 1.234 . S
C1213 O1187 1.269 . S
C1213 O1188 1.257 . S
C1214 H1189 0.930 . S
C1214 C1217 1.388 . S
C1214 C1219 1.418 . S
C1215 H1210 0.930 . S
C1215 C1218 1.404 . S
C1215 C1219 1.353 . S
N1216 Co1181 2.145 . S
N1216 C1217 1.397 . S
N1216 C1218 1.334 . S
C1217 H1198 0.929 . S
C1217 C1214 1.388 . S
C1217 N1216 1.397 . S
C1218 H1199 0.929 . S
C1218 C1215 1.404 . S
C1218 N1216 1.334 . S
C1219 H1211 0.930 . S
C1219 C1214 1.418 . S
C1219 C1215 1.353 . S
C1220 H1190 0.930 . S
C1220 N1221 1.330 . S
C1220 C1222 1.446 . S
N1221 Co1180 2.151 . S
N1221 C1220 1.330 . S
N1221 C1225 1.418 . S
C1222 H1201 0.929 . S
C1222 C1220 1.446 . S
C1222 C1223 1.332 . S
C1223 H1203 0.931 . S
C1223 C1222 1.332 . S
C1223 C1224 1.267 . S
C1224 H1192 0.929 . S
C1224 C1223 1.267 . S
C1224 C1225 1.251 . S
C1225 H1195 0.929 . S
C1225 N1221 1.418 . S
C1225 C1224 1.251 . S
C1226 H1193 0.930 . S
C1226 C1228 1.406 . S
C1226 C1231 1.261 . S
C1227 H1194 0.930 . S
C1227 N1229 1.325 . S
C1227 C1230 1.357 . S
C1228 H1196 0.928 . S
C1228 C1226 1.406 . S
C1228 N1229 1.261 . S
N1229 Co1180 2.214 . S
N1229 C1227 1.325 . S
N1229 C1228 1.261 . S
C1230 H1200 0.931 . S
C1230 C1227 1.357 . S
C1230 C1231 1.312 . S
C1231 H1202 0.930 . S
C1231 C1226 1.261 . S
C1231 C1230 1.312 . S
C1232 O1204 1.214 . S
C1232 O1212 1.234 . S
C1233 H1205 0.929 . S
C1233 C1236 1.391 . S
C1233 C1238 1.391 . S
C1234 H1206 0.929 . S
C1234 C1235 1.390 . S
C1234 N1237 1.391 . S
C1235 H1207 0.930 . S
C1235 C1234 1.390 . S
C1235 C1236 1.392 . S
C1236 H1208 0.929 . S
C1236 C1233 1.391 . S
C1236 C1235 1.392 . S
N1237 Co1181 2.257 . S
N1237 C1234 1.391 . S
N1237 C1238 1.388 . S
C1238 H1209 0.930 . S
C1238 C1233 1.391 . S
C1238 N1237 1.388 . S
Co1239 O1241 2.143 . S
Co1239 O1247 2.074 . S
Co1239 O1250 2.093 . S
Co1239 O1263 2.097 . S
Co1239 N1280 2.151 . S
Co1239 N1288 2.214 . S
Co1240 O1241 2.160 . S
Co1240 O1246 2.058 . S
Co1240 O1256 2.057 . S
Co1240 O1271 2.037 . S
Co1240 N1275 2.145 . S
Co1240 N1296 2.257 . S
O1241 Co1239 2.143 . S
O1241 Co1240 2.160 . S
C1242 O1243 1.278 . S
C1242 O1250 1.224 . S
O1243 C1242 1.278 . S
C1244 O1245 1.245 . S
C1244 O1256 1.232 . S
O1245 C1244 1.245 . S
O1246 Co1240 2.058 . S
O1246 C1272 1.269 . S
O1247 Co1239 2.074 . S
O1247 C1272 1.257 . S
H1248 C1273 0.930 . S
H1249 C1279 0.930 . S
O1250 Co1239 2.093 . S
O1250 C1242 1.224 . S
H1251 C1283 0.929 . S
H1252 C1285 0.930 . S
H1253 C1286 0.930 . S
H1254 C1284 0.929 . S
H1255 C1287 0.928 . S
O1256 Co1240 2.057 . S
O1256 C1244 1.232 . S
H1257 C1276 0.929 . S
H1258 C1277 0.929 . S
H1259 C1289 0.931 . S
H1260 C1281 0.929 . S
H1261 C1290 0.930 . S
H1262 C1282 0.931 . S
O1263 Co1239 2.097 . S
O1263 C1291 1.214 . S
H1264 C1292 0.929 . S
H1265 C1293 0.929 . S
H1266 C1294 0.930 . S
H1267 C1295 0.929 . S
H1268 C1297 0.930 . S
H1269 C1274 0.930 . S
H1270 C1278 0.930 . S
O1271 Co1240 2.037 . S
O1271 C1291 1.234 . S
C1272 O1246 1.269 . S
C1272 O1247 1.257 . S
C1273 H1248 0.930 . S
C1273 C1276 1.388 . S
C1273 C1278 1.418 . S
C1274 H1269 0.930 . S
C1274 C1277 1.404 . S
C1274 C1278 1.353 . S
N1275 Co1240 2.145 . S
N1275 C1276 1.397 . S
N1275 C1277 1.334 . S
C1276 H1257 0.929 . S
C1276 C1273 1.388 . S
C1276 N1275 1.397 . S
C1277 H1258 0.929 . S
C1277 C1274 1.404 . S
C1277 N1275 1.334 . S
C1278 H1270 0.930 . S
C1278 C1273 1.418 . S
C1278 C1274 1.353 . S
C1279 H1249 0.930 . S
C1279 N1280 1.330 . S
C1279 C1281 1.446 . S
N1280 Co1239 2.151 . S
N1280 C1279 1.330 . S
N1280 C1284 1.418 . S
C1281 H1260 0.929 . S
C1281 C1279 1.446 . S
C1281 C1282 1.332 . S
C1282 H1262 0.931 . S
C1282 C1281 1.332 . S
C1282 C1283 1.267 . S
C1283 H1251 0.929 . S
C1283 C1282 1.267 . S
C1283 C1284 1.251 . S
C1284 H1254 0.929 . S
C1284 N1280 1.418 . S
C1284 C1283 1.251 . S
C1285 H1252 0.930 . S
C1285 C1287 1.406 . S
C1285 C1290 1.261 . S
C1286 H1253 0.930 . S
C1286 N1288 1.325 . S
C1286 C1289 1.357 . S
C1287 H1255 0.928 . S
C1287 C1285 1.406 . S
C1287 N1288 1.261 . S
N1288 Co1239 2.214 . S
N1288 C1286 1.325 . S
N1288 C1287 1.261 . S
C1289 H1259 0.931 . S
C1289 C1286 1.357 . S
C1289 C1290 1.312 . S
C1290 H1261 0.930 . S
C1290 C1285 1.261 . S
C1290 C1289 1.312 . S
C1291 O1263 1.214 . S
C1291 O1271 1.234 . S
C1292 H1264 0.929 . S
C1292 C1295 1.391 . S
C1292 C1297 1.391 . S
C1293 H1265 0.929 . S
C1293 C1294 1.390 . S
C1293 N1296 1.391 . S
C1294 H1266 0.930 . S
C1294 C1293 1.390 . S
C1294 C1295 1.392 . S
C1295 H1267 0.929 . S
C1295 C1292 1.391 . S
C1295 C1294 1.392 . S
N1296 Co1240 2.257 . S
N1296 C1293 1.391 . S
N1296 C1297 1.388 . S
C1297 H1268 0.930 . S
C1297 C1292 1.391 . S
C1297 N1296 1.388 . S
Co1298 O1300 2.143 . S
Co1298 O1306 2.074 . S
Co1298 O1309 2.093 . S
Co1298 O1322 2.097 . S
Co1298 N1339 2.151 . S
Co1298 N1347 2.214 . S
Co1299 O1300 2.160 . S
Co1299 O1305 2.058 . S
Co1299 O1315 2.057 . S
Co1299 O1330 2.037 . S
Co1299 N1334 2.145 . S
Co1299 N1355 2.257 . S
O1300 Co1298 2.143 . S
O1300 Co1299 2.160 . S
C1301 O1302 1.278 . S
C1301 O1309 1.224 . S
O1302 C1301 1.278 . S
C1303 O1304 1.245 . S
C1303 O1315 1.232 . S
O1304 C1303 1.245 . S
O1305 Co1299 2.058 . S
O1305 C1331 1.269 . S
O1306 Co1298 2.074 . S
O1306 C1331 1.257 . S
H1307 C1332 0.930 . S
H1308 C1338 0.930 . S
O1309 Co1298 2.093 . S
O1309 C1301 1.224 . S
H1310 C1342 0.929 . S
H1311 C1344 0.930 . S
H1312 C1345 0.930 . S
H1313 C1343 0.929 . S
H1314 C1346 0.928 . S
O1315 Co1299 2.057 . S
O1315 C1303 1.232 . S
H1316 C1335 0.929 . S
H1317 C1336 0.929 . S
H1318 C1348 0.931 . S
H1319 C1340 0.929 . S
H1320 C1349 0.930 . S
H1321 C1341 0.931 . S
O1322 Co1298 2.097 . S
O1322 C1350 1.214 . S
H1323 C1351 0.929 . S
H1324 C1352 0.929 . S
H1325 C1353 0.930 . S
H1326 C1354 0.929 . S
H1327 C1356 0.930 . S
H1328 C1333 0.930 . S
H1329 C1337 0.930 . S
O1330 Co1299 2.037 . S
O1330 C1350 1.234 . S
C1331 O1305 1.269 . S
C1331 O1306 1.257 . S
C1332 H1307 0.930 . S
C1332 C1335 1.388 . S
C1332 C1337 1.418 . S
C1333 H1328 0.930 . S
C1333 C1336 1.404 . S
C1333 C1337 1.353 . S
N1334 Co1299 2.145 . S
N1334 C1335 1.397 . S
N1334 C1336 1.334 . S
C1335 H1316 0.929 . S
C1335 C1332 1.388 . S
C1335 N1334 1.397 . S
C1336 H1317 0.929 . S
C1336 C1333 1.404 . S
C1336 N1334 1.334 . S
C1337 H1329 0.930 . S
C1337 C1332 1.418 . S
C1337 C1333 1.353 . S
C1338 H1308 0.930 . S
C1338 N1339 1.330 . S
C1338 C1340 1.446 . S
N1339 Co1298 2.151 . S
N1339 C1338 1.330 . S
N1339 C1343 1.418 . S
C1340 H1319 0.929 . S
C1340 C1338 1.446 . S
C1340 C1341 1.332 . S
C1341 H1321 0.931 . S
C1341 C1340 1.332 . S
C1341 C1342 1.267 . S
C1342 H1310 0.929 . S
C1342 C1341 1.267 . S
C1342 C1343 1.251 . S
C1343 H1313 0.929 . S
C1343 N1339 1.418 . S
C1343 C1342 1.251 . S
C1344 H1311 0.930 . S
C1344 C1346 1.406 . S
C1344 C1349 1.261 . S
C1345 H1312 0.930 . S
C1345 N1347 1.325 . S
C1345 C1348 1.357 . S
C1346 H1314 0.928 . S
C1346 C1344 1.406 . S
C1346 N1347 1.261 . S
N1347 Co1298 2.214 . S
N1347 C1345 1.325 . S
N1347 C1346 1.261 . S
C1348 H1318 0.931 . S
C1348 C1345 1.357 . S
C1348 C1349 1.312 . S
C1349 H1320 0.930 . S
C1349 C1344 1.261 . S
C1349 C1348 1.312 . S
C1350 O1322 1.214 . S
C1350 O1330 1.234 . S
C1351 H1323 0.929 . S
C1351 C1354 1.391 . S
C1351 C1356 1.391 . S
C1352 H1324 0.929 . S
C1352 C1353 1.390 . S
C1352 N1355 1.391 . S
C1353 H1325 0.930 . S
C1353 C1352 1.390 . S
C1353 C1354 1.392 . S
C1354 H1326 0.929 . S
C1354 C1351 1.391 . S
C1354 C1353 1.392 . S
N1355 Co1299 2.257 . S
N1355 C1352 1.391 . S
N1355 C1356 1.388 . S
C1356 H1327 0.930 . S
C1356 C1351 1.391 . S
C1356 N1355 1.388 . S
Co1357 O1359 2.143 . S
Co1357 O1365 2.074 . S
Co1357 O1368 2.093 . S
Co1357 O1381 2.097 . S
Co1357 N1398 2.151 . S
Co1357 N1406 2.214 . S
Co1358 O1359 2.160 . S
Co1358 O1364 2.058 . S
Co1358 O1374 2.057 . S
Co1358 O1389 2.037 . S
Co1358 N1393 2.145 . S
Co1358 N1414 2.257 . S
O1359 Co1357 2.143 . S
O1359 Co1358 2.160 . S
C1360 O1361 1.278 . S
C1360 O1368 1.224 . S
O1361 C1360 1.278 . S
C1362 O1363 1.245 . S
C1362 O1374 1.232 . S
O1363 C1362 1.245 . S
O1364 Co1358 2.058 . S
O1364 C1390 1.269 . S
O1365 Co1357 2.074 . S
O1365 C1390 1.257 . S
H1366 C1391 0.930 . S
H1367 C1397 0.930 . S
O1368 Co1357 2.093 . S
O1368 C1360 1.224 . S
H1369 C1401 0.929 . S
H1370 C1403 0.930 . S
H1371 C1404 0.930 . S
H1372 C1402 0.929 . S
H1373 C1405 0.928 . S
O1374 Co1358 2.057 . S
O1374 C1362 1.232 . S
H1375 C1394 0.929 . S
H1376 C1395 0.929 . S
H1377 C1407 0.931 . S
H1378 C1399 0.929 . S
H1379 C1408 0.930 . S
H1380 C1400 0.931 . S
O1381 Co1357 2.097 . S
O1381 C1409 1.214 . S
H1382 C1410 0.929 . S
H1383 C1411 0.929 . S
H1384 C1412 0.930 . S
H1385 C1413 0.929 . S
H1386 C1415 0.930 . S
H1387 C1392 0.930 . S
H1388 C1396 0.930 . S
O1389 Co1358 2.037 . S
O1389 C1409 1.234 . S
C1390 O1364 1.269 . S
C1390 O1365 1.257 . S
C1391 H1366 0.930 . S
C1391 C1394 1.388 . S
C1391 C1396 1.418 . S
C1392 H1387 0.930 . S
C1392 C1395 1.404 . S
C1392 C1396 1.353 . S
N1393 Co1358 2.145 . S
N1393 C1394 1.397 . S
N1393 C1395 1.334 . S
C1394 H1375 0.929 . S
C1394 C1391 1.388 . S
C1394 N1393 1.397 . S
C1395 H1376 0.929 . S
C1395 C1392 1.404 . S
C1395 N1393 1.334 . S
C1396 H1388 0.930 . S
C1396 C1391 1.418 . S
C1396 C1392 1.353 . S
C1397 H1367 0.930 . S
C1397 N1398 1.330 . S
C1397 C1399 1.446 . S
N1398 Co1357 2.151 . S
N1398 C1397 1.330 . S
N1398 C1402 1.418 . S
C1399 H1378 0.929 . S
C1399 C1397 1.446 . S
C1399 C1400 1.332 . S
C1400 H1380 0.931 . S
C1400 C1399 1.332 . S
C1400 C1401 1.267 . S
C1401 H1369 0.929 . S
C1401 C1400 1.267 . S
C1401 C1402 1.251 . S
C1402 H1372 0.929 . S
C1402 N1398 1.418 . S
C1402 C1401 1.251 . S
C1403 H1370 0.930 . S
C1403 C1405 1.406 . S
C1403 C1408 1.261 . S
C1404 H1371 0.930 . S
C1404 N1406 1.325 . S
C1404 C1407 1.357 . S
C1405 H1373 0.928 . S
C1405 C1403 1.406 . S
C1405 N1406 1.261 . S
N1406 Co1357 2.214 . S
N1406 C1404 1.325 . S
N1406 C1405 1.261 . S
C1407 H1377 0.931 . S
C1407 C1404 1.357 . S
C1407 C1408 1.312 . S
C1408 H1379 0.930 . S
C1408 C1403 1.261 . S
C1408 C1407 1.312 . S
C1409 O1381 1.214 . S
C1409 O1389 1.234 . S
C1410 H1382 0.929 . S
C1410 C1413 1.391 . S
C1410 C1415 1.391 . S
C1411 H1383 0.929 . S
C1411 C1412 1.390 . S
C1411 N1414 1.391 . S
C1412 H1384 0.930 . S
C1412 C1411 1.390 . S
C1412 C1413 1.392 . S
C1413 H1385 0.929 . S
C1413 C1410 1.391 . S
C1413 C1412 1.392 . S
N1414 Co1358 2.257 . S
N1414 C1411 1.391 . S
N1414 C1415 1.388 . S
C1415 H1386 0.930 . S
C1415 C1410 1.391 . S
C1415 N1414 1.388 . S
Co1416 O1418 2.143 . S
Co1416 O1424 2.074 . S
Co1416 O1427 2.093 . S
Co1416 O1440 2.097 . S
Co1416 N1457 2.151 . S
Co1416 N1465 2.214 . S
Co1417 O1418 2.160 . S
Co1417 O1423 2.058 . S
Co1417 O1433 2.057 . S
Co1417 O1448 2.037 . S
Co1417 N1452 2.145 . S
Co1417 N1473 2.257 . S
O1418 Co1416 2.143 . S
O1418 Co1417 2.160 . S
C1419 O1420 1.278 . S
C1419 O1427 1.224 . S
O1420 C1419 1.278 . S
C1421 O1422 1.245 . S
C1421 O1433 1.232 . S
O1422 C1421 1.245 . S
O1423 Co1417 2.058 . S
O1423 C1449 1.269 . S
O1424 Co1416 2.074 . S
O1424 C1449 1.257 . S
H1425 C1450 0.930 . S
H1426 C1456 0.930 . S
O1427 Co1416 2.093 . S
O1427 C1419 1.224 . S
H1428 C1460 0.929 . S
H1429 C1462 0.930 . S
H1430 C1463 0.930 . S
H1431 C1461 0.929 . S
H1432 C1464 0.928 . S
O1433 Co1417 2.057 . S
O1433 C1421 1.232 . S
H1434 C1453 0.929 . S
H1435 C1454 0.929 . S
H1436 C1466 0.931 . S
H1437 C1458 0.929 . S
H1438 C1467 0.930 . S
H1439 C1459 0.931 . S
O1440 Co1416 2.097 . S
O1440 C1468 1.214 . S
H1441 C1469 0.929 . S
H1442 C1470 0.929 . S
H1443 C1471 0.930 . S
H1444 C1472 0.929 . S
H1445 C1474 0.930 . S
H1446 C1451 0.930 . S
H1447 C1455 0.930 . S
O1448 Co1417 2.037 . S
O1448 C1468 1.234 . S
C1449 O1423 1.269 . S
C1449 O1424 1.257 . S
C1450 H1425 0.930 . S
C1450 C1453 1.388 . S
C1450 C1455 1.418 . S
C1451 H1446 0.930 . S
C1451 C1454 1.404 . S
C1451 C1455 1.353 . S
N1452 Co1417 2.145 . S
N1452 C1453 1.397 . S
N1452 C1454 1.334 . S
C1453 H1434 0.929 . S
C1453 C1450 1.388 . S
C1453 N1452 1.397 . S
C1454 H1435 0.929 . S
C1454 C1451 1.404 . S
C1454 N1452 1.334 . S
C1455 H1447 0.930 . S
C1455 C1450 1.418 . S
C1455 C1451 1.353 . S
C1456 H1426 0.930 . S
C1456 N1457 1.330 . S
C1456 C1458 1.446 . S
N1457 Co1416 2.151 . S
N1457 C1456 1.330 . S
N1457 C1461 1.418 . S
C1458 H1437 0.929 . S
C1458 C1456 1.446 . S
C1458 C1459 1.332 . S
C1459 H1439 0.931 . S
C1459 C1458 1.332 . S
C1459 C1460 1.267 . S
C1460 H1428 0.929 . S
C1460 C1459 1.267 . S
C1460 C1461 1.251 . S
C1461 H1431 0.929 . S
C1461 N1457 1.418 . S
C1461 C1460 1.251 . S
C1462 H1429 0.930 . S
C1462 C1464 1.406 . S
C1462 C1467 1.261 . S
C1463 H1430 0.930 . S
C1463 N1465 1.325 . S
C1463 C1466 1.357 . S
C1464 H1432 0.928 . S
C1464 C1462 1.406 . S
C1464 N1465 1.261 . S
N1465 Co1416 2.214 . S
N1465 C1463 1.325 . S
N1465 C1464 1.261 . S
C1466 H1436 0.931 . S
C1466 C1463 1.357 . S
C1466 C1467 1.312 . S
C1467 H1438 0.930 . S
C1467 C1462 1.261 . S
C1467 C1466 1.312 . S
C1468 O1440 1.214 . S
C1468 O1448 1.234 . S
C1469 H1441 0.929 . S
C1469 C1472 1.391 . S
C1469 C1474 1.391 . S
C1470 H1442 0.929 . S
C1470 C1471 1.390 . S
C1470 N1473 1.391 . S
C1471 H1443 0.930 . S
C1471 C1470 1.390 . S
C1471 C1472 1.392 . S
C1472 H1444 0.929 . S
C1472 C1469 1.391 . S
C1472 C1471 1.392 . S
N1473 Co1417 2.257 . S
N1473 C1470 1.391 . S
N1473 C1474 1.388 . S
C1474 H1445 0.930 . S
C1474 C1469 1.391 . S
C1474 N1473 1.388 . S
Co1475 O1477 2.143 . S
Co1475 O1483 2.074 . S
Co1475 O1486 2.093 . S
Co1475 O1499 2.097 . S
Co1475 N1516 2.151 . S
Co1475 N1524 2.214 . S
Co1476 O1477 2.160 . S
Co1476 O1482 2.058 . S
Co1476 O1492 2.057 . S
Co1476 O1507 2.037 . S
Co1476 N1511 2.145 . S
Co1476 N1532 2.257 . S
O1477 Co1475 2.143 . S
O1477 Co1476 2.160 . S
C1478 O1479 1.278 . S
C1478 O1486 1.224 . S
O1479 C1478 1.278 . S
C1480 O1481 1.245 . S
C1480 O1492 1.232 . S
O1481 C1480 1.245 . S
O1482 Co1476 2.058 . S
O1482 C1508 1.269 . S
O1483 Co1475 2.074 . S
O1483 C1508 1.257 . S
H1484 C1509 0.930 . S
H1485 C1515 0.930 . S
O1486 Co1475 2.093 . S
O1486 C1478 1.224 . S
H1487 C1519 0.929 . S
H1488 C1521 0.930 . S
H1489 C1522 0.930 . S
H1490 C1520 0.929 . S
H1491 C1523 0.928 . S
O1492 Co1476 2.057 . S
O1492 C1480 1.232 . S
H1493 C1512 0.929 . S
H1494 C1513 0.929 . S
H1495 C1525 0.931 . S
H1496 C1517 0.929 . S
H1497 C1526 0.930 . S
H1498 C1518 0.931 . S
O1499 Co1475 2.097 . S
O1499 C1527 1.214 . S
H1500 C1528 0.929 . S
H1501 C1529 0.929 . S
H1502 C1530 0.930 . S
H1503 C1531 0.929 . S
H1504 C1533 0.930 . S
H1505 C1510 0.930 . S
H1506 C1514 0.930 . S
O1507 Co1476 2.037 . S
O1507 C1527 1.234 . S
C1508 O1482 1.269 . S
C1508 O1483 1.257 . S
C1509 H1484 0.930 . S
C1509 C1512 1.388 . S
C1509 C1514 1.418 . S
C1510 H1505 0.930 . S
C1510 C1513 1.404 . S
C1510 C1514 1.353 . S
N1511 Co1476 2.145 . S
N1511 C1512 1.397 . S
N1511 C1513 1.334 . S
C1512 H1493 0.929 . S
C1512 C1509 1.388 . S
C1512 N1511 1.397 . S
C1513 H1494 0.929 . S
C1513 C1510 1.404 . S
C1513 N1511 1.334 . S
C1514 H1506 0.930 . S
C1514 C1509 1.418 . S
C1514 C1510 1.353 . S
C1515 H1485 0.930 . S
C1515 N1516 1.330 . S
C1515 C1517 1.446 . S
N1516 Co1475 2.151 . S
N1516 C1515 1.330 . S
N1516 C1520 1.418 . S
C1517 H1496 0.929 . S
C1517 C1515 1.446 . S
C1517 C1518 1.332 . S
C1518 H1498 0.931 . S
C1518 C1517 1.332 . S
C1518 C1519 1.267 . S
C1519 H1487 0.929 . S
C1519 C1518 1.267 . S
C1519 C1520 1.251 . S
C1520 H1490 0.929 . S
C1520 N1516 1.418 . S
C1520 C1519 1.251 . S
C1521 H1488 0.930 . S
C1521 C1523 1.406 . S
C1521 C1526 1.261 . S
C1522 H1489 0.930 . S
C1522 N1524 1.325 . S
C1522 C1525 1.357 . S
C1523 H1491 0.928 . S
C1523 C1521 1.406 . S
C1523 N1524 1.261 . S
N1524 Co1475 2.214 . S
N1524 C1522 1.325 . S
N1524 C1523 1.261 . S
C1525 H1495 0.931 . S
C1525 C1522 1.357 . S
C1525 C1526 1.312 . S
C1526 H1497 0.930 . S
C1526 C1521 1.261 . S
C1526 C1525 1.312 . S
C1527 O1499 1.214 . S
C1527 O1507 1.234 . S
C1528 H1500 0.929 . S
C1528 C1531 1.391 . S
C1528 C1533 1.391 . S
C1529 H1501 0.929 . S
C1529 C1530 1.390 . S
C1529 N1532 1.391 . S
C1530 H1502 0.930 . S
C1530 C1529 1.390 . S
C1530 C1531 1.392 . S
C1531 H1503 0.929 . S
C1531 C1528 1.391 . S
C1531 C1530 1.392 . S
N1532 Co1476 2.257 . S
N1532 C1529 1.391 . S
N1532 C1533 1.388 . S
C1533 H1504 0.930 . S
C1533 C1528 1.391 . S
C1533 N1532 1.388 . S
Co1534 O1536 2.143 1_554 S
Co1534 O1542 2.074 . S
Co1534 O1545 2.093 . S
Co1534 O1558 2.097 . S
Co1534 N1575 2.151 1_554 S
Co1534 N1583 2.214 . S
Co1535 O1536 2.160 1_554 S
Co1535 O1541 2.058 1_554 S
Co1535 O1551 2.057 1_554 S
Co1535 O1566 2.037 . S
Co1535 N1570 2.145 . S
Co1535 N1591 2.257 . S
O1536 Co1534 2.143 1_556 S
O1536 Co1535 2.160 1_556 S
C1537 O1538 1.278 1_554 S
C1537 O1545 1.224 . S
O1538 C1537 1.278 1_556 S
C1539 O1540 1.245 . S
C1539 O1551 1.232 . S
O1540 C1539 1.245 . S
O1541 Co1535 2.058 1_556 S
O1541 C1567 1.269 . S
O1542 Co1534 2.074 . S
O1542 C1567 1.257 1_554 S
H1543 C1568 0.930 . S
H1544 C1574 0.930 . S
O1545 Co1534 2.093 . S
O1545 C1537 1.224 . S
H1546 C1578 0.929 . S
H1547 C1580 0.930 . S
H1548 C1581 0.930 . S
H1549 C1579 0.929 . S
H1550 C1582 0.928 . S
O1551 Co1535 2.057 1_556 S
O1551 C1539 1.232 . S
H1552 C1571 0.929 . S
H1553 C1572 0.929 . S
H1554 C1584 0.931 . S
H1555 C1576 0.929 . S
H1556 C1585 0.930 . S
H1557 C1577 0.931 . S
O1558 Co1534 2.097 . S
O1558 C1586 1.214 . S
H1559 C1587 0.929 1_556 S
H1560 C1588 0.929 . S
H1561 C1589 0.930 . S
H1562 C1590 0.929 . S
H1563 C1592 0.930 . S
H1564 C1569 0.930 1_556 S
H1565 C1573 0.930 . S
O1566 Co1535 2.037 . S
O1566 C1586 1.234 . S
C1567 O1541 1.269 . S
C1567 O1542 1.257 1_556 S
C1568 H1543 0.930 . S
C1568 C1571 1.388 . S
C1568 C1573 1.418 . S
C1569 H1564 0.930 1_554 S
C1569 C1572 1.404 1_554 S
C1569 C1573 1.353 . S
N1570 Co1535 2.145 . S
N1570 C1571 1.397 . S
N1570 C1572 1.334 1_554 S
C1571 H1552 0.929 . S
C1571 C1568 1.388 . S
C1571 N1570 1.397 . S
C1572 H1553 0.929 . S
C1572 C1569 1.404 1_556 S
C1572 N1570 1.334 1_556 S
C1573 H1565 0.930 . S
C1573 C1568 1.418 . S
C1573 C1569 1.353 . S
C1574 H1544 0.930 . S
C1574 N1575 1.330 . S
C1574 C1576 1.446 . S
N1575 Co1534 2.151 1_556 S
N1575 C1574 1.330 . S
N1575 C1579 1.418 . S
C1576 H1555 0.929 . S
C1576 C1574 1.446 . S
C1576 C1577 1.332 . S
C1577 H1557 0.931 . S
C1577 C1576 1.332 . S
C1577 C1578 1.267 . S
C1578 H1546 0.929 . S
C1578 C1577 1.267 . S
C1578 C1579 1.251 . S
C1579 H1549 0.929 . S
C1579 N1575 1.418 . S
C1579 C1578 1.251 . S
C1580 H1547 0.930 . S
C1580 C1582 1.406 . S
C1580 C1585 1.261 . S
C1581 H1548 0.930 . S
C1581 N1583 1.325 . S
C1581 C1584 1.357 . S
C1582 H1550 0.928 . S
C1582 C1580 1.406 . S
C1582 N1583 1.261 . S
N1583 Co1534 2.214 . S
N1583 C1581 1.325 . S
N1583 C1582 1.261 . S
C1584 H1554 0.931 . S
C1584 C1581 1.357 . S
C1584 C1585 1.312 . S
C1585 H1556 0.930 . S
C1585 C1580 1.261 . S
C1585 C1584 1.312 . S
C1586 O1558 1.214 . S
C1586 O1566 1.234 . S
C1587 H1559 0.929 1_554 S
C1587 C1590 1.391 . S
C1587 C1592 1.391 1_554 S
C1588 H1560 0.929 . S
C1588 C1589 1.390 . S
C1588 N1591 1.391 . S
C1589 H1561 0.930 . S
C1589 C1588 1.390 . S
C1589 C1590 1.392 . S
C1590 H1562 0.929 . S
C1590 C1587 1.391 . S
C1590 C1589 1.392 . S
N1591 Co1535 2.257 . S
N1591 C1588 1.391 . S
N1591 C1592 1.388 1_554 S
C1592 H1563 0.930 . S
C1592 C1587 1.391 1_556 S
C1592 N1591 1.388 1_556 S
Co1593 O1595 2.143 1_554 S
Co1593 O1601 2.074 . S
Co1593 O1604 2.093 . S
Co1593 O1617 2.097 . S
Co1593 N1634 2.151 1_554 S
Co1593 N1642 2.214 . S
Co1594 O1595 2.160 1_554 S
Co1594 O1600 2.058 1_554 S
Co1594 O1610 2.057 1_554 S
Co1594 O1625 2.037 . S
Co1594 N1629 2.145 . S
Co1594 N1650 2.257 . S
O1595 Co1593 2.143 1_556 S
O1595 Co1594 2.160 1_556 S
C1596 O1597 1.278 1_554 S
C1596 O1604 1.224 . S
O1597 C1596 1.278 1_556 S
C1598 O1599 1.245 . S
C1598 O1610 1.232 . S
O1599 C1598 1.245 . S
O1600 Co1594 2.058 1_556 S
O1600 C1626 1.269 . S
O1601 Co1593 2.074 . S
O1601 C1626 1.257 1_554 S
H1602 C1627 0.930 . S
H1603 C1633 0.930 . S
O1604 Co1593 2.093 . S
O1604 C1596 1.224 . S
H1605 C1637 0.929 . S
H1606 C1639 0.930 . S
H1607 C1640 0.930 . S
H1608 C1638 0.929 . S
H1609 C1641 0.928 . S
O1610 Co1594 2.057 1_556 S
O1610 C1598 1.232 . S
H1611 C1630 0.929 . S
H1612 C1631 0.929 . S
H1613 C1643 0.931 . S
H1614 C1635 0.929 . S
H1615 C1644 0.930 . S
H1616 C1636 0.931 . S
O1617 Co1593 2.097 . S
O1617 C1645 1.214 . S
H1618 C1646 0.929 1_556 S
H1619 C1647 0.929 . S
H1620 C1648 0.930 . S
H1621 C1649 0.929 . S
H1622 C1651 0.930 . S
H1623 C1628 0.930 1_556 S
H1624 C1632 0.930 . S
O1625 Co1594 2.037 . S
O1625 C1645 1.234 . S
C1626 O1600 1.269 . S
C1626 O1601 1.257 1_556 S
C1627 H1602 0.930 . S
C1627 C1630 1.388 . S
C1627 C1632 1.418 . S
C1628 H1623 0.930 1_554 S
C1628 C1631 1.404 1_554 S
C1628 C1632 1.353 . S
N1629 Co1594 2.145 . S
N1629 C1630 1.397 . S
N1629 C1631 1.334 1_554 S
C1630 H1611 0.929 . S
C1630 C1627 1.388 . S
C1630 N1629 1.397 . S
C1631 H1612 0.929 . S
C1631 C1628 1.404 1_556 S
C1631 N1629 1.334 1_556 S
C1632 H1624 0.930 . S
C1632 C1627 1.418 . S
C1632 C1628 1.353 . S
C1633 H1603 0.930 . S
C1633 N1634 1.330 . S
C1633 C1635 1.446 . S
N1634 Co1593 2.151 1_556 S
N1634 C1633 1.330 . S
N1634 C1638 1.418 . S
C1635 H1614 0.929 . S
C1635 C1633 1.446 . S
C1635 C1636 1.332 . S
C1636 H1616 0.931 . S
C1636 C1635 1.332 . S
C1636 C1637 1.267 . S
C1637 H1605 0.929 . S
C1637 C1636 1.267 . S
C1637 C1638 1.251 . S
C1638 H1608 0.929 . S
C1638 N1634 1.418 . S
C1638 C1637 1.251 . S
C1639 H1606 0.930 . S
C1639 C1641 1.406 . S
C1639 C1644 1.261 . S
C1640 H1607 0.930 . S
C1640 N1642 1.325 . S
C1640 C1643 1.357 . S
C1641 H1609 0.928 . S
C1641 C1639 1.406 . S
C1641 N1642 1.261 . S
N1642 Co1593 2.214 . S
N1642 C1640 1.325 . S
N1642 C1641 1.261 . S
C1643 H1613 0.931 . S
C1643 C1640 1.357 . S
C1643 C1644 1.312 . S
C1644 H1615 0.930 . S
C1644 C1639 1.261 . S
C1644 C1643 1.312 . S
C1645 O1617 1.214 . S
C1645 O1625 1.234 . S
C1646 H1618 0.929 1_554 S
C1646 C1649 1.391 . S
C1646 C1651 1.391 1_554 S
C1647 H1619 0.929 . S
C1647 C1648 1.390 . S
C1647 N1650 1.391 . S
C1648 H1620 0.930 . S
C1648 C1647 1.390 . S
C1648 C1649 1.392 . S
C1649 H1621 0.929 . S
C1649 C1646 1.391 . S
C1649 C1648 1.392 . S
N1650 Co1594 2.257 . S
N1650 C1647 1.391 . S
N1650 C1651 1.388 1_554 S
C1651 H1622 0.930 . S
C1651 C1646 1.391 1_556 S
C1651 N1650 1.388 1_556 S
Co1652 O1654 2.143 . S
Co1652 O1660 2.074 . S
Co1652 O1663 2.093 . S
Co1652 O1676 2.097 . S
Co1652 N1693 2.151 . S
Co1652 N1701 2.214 . S
Co1653 O1654 2.160 . S
Co1653 O1659 2.058 . S
Co1653 O1669 2.057 . S
Co1653 O1684 2.037 . S
Co1653 N1688 2.145 . S
Co1653 N1709 2.257 . S
O1654 Co1652 2.143 . S
O1654 Co1653 2.160 . S
C1655 O1656 1.278 . S
C1655 O1663 1.224 . S
O1656 C1655 1.278 . S
C1657 O1658 1.245 . S
C1657 O1669 1.232 . S
O1658 C1657 1.245 . S
O1659 Co1653 2.058 . S
O1659 C1685 1.269 . S
O1660 Co1652 2.074 . S
O1660 C1685 1.257 . S
H1661 C1686 0.930 . S
H1662 C1692 0.930 . S
O1663 Co1652 2.093 . S
O1663 C1655 1.224 . S
H1664 C1696 0.929 . S
H1665 C1698 0.930 . S
H1666 C1699 0.930 . S
H1667 C1697 0.929 . S
H1668 C1700 0.928 . S
O1669 Co1653 2.057 . S
O1669 C1657 1.232 . S
H1670 C1689 0.929 . S
H1671 C1690 0.929 . S
H1672 C1702 0.931 . S
H1673 C1694 0.929 . S
H1674 C1703 0.930 . S
H1675 C1695 0.931 . S
O1676 Co1652 2.097 . S
O1676 C1704 1.214 . S
H1677 C1705 0.929 . S
H1678 C1706 0.929 . S
H1679 C1707 0.930 . S
H1680 C1708 0.929 . S
H1681 C1710 0.930 . S
H1682 C1687 0.930 . S
H1683 C1691 0.930 . S
O1684 Co1653 2.037 . S
O1684 C1704 1.234 . S
C1685 O1659 1.269 . S
C1685 O1660 1.257 . S
C1686 H1661 0.930 . S
C1686 C1689 1.388 . S
C1686 C1691 1.418 . S
C1687 H1682 0.930 . S
C1687 C1690 1.404 . S
C1687 C1691 1.353 . S
N1688 Co1653 2.145 . S
N1688 C1689 1.397 . S
N1688 C1690 1.334 . S
C1689 H1670 0.929 . S
C1689 C1686 1.388 . S
C1689 N1688 1.397 . S
C1690 H1671 0.929 . S
C1690 C1687 1.404 . S
C1690 N1688 1.334 . S
C1691 H1683 0.930 . S
C1691 C1686 1.418 . S
C1691 C1687 1.353 . S
C1692 H1662 0.930 . S
C1692 N1693 1.330 . S
C1692 C1694 1.446 . S
N1693 Co1652 2.151 . S
N1693 C1692 1.330 . S
N1693 C1697 1.418 . S
C1694 H1673 0.929 . S
C1694 C1692 1.446 . S
C1694 C1695 1.332 . S
C1695 H1675 0.931 . S
C1695 C1694 1.332 . S
C1695 C1696 1.267 . S
C1696 H1664 0.929 . S
C1696 C1695 1.267 . S
C1696 C1697 1.251 . S
C1697 H1667 0.929 . S
C1697 N1693 1.418 . S
C1697 C1696 1.251 . S
C1698 H1665 0.930 . S
C1698 C1700 1.406 . S
C1698 C1703 1.261 . S
C1699 H1666 0.930 . S
C1699 N1701 1.325 . S
C1699 C1702 1.357 . S
C1700 H1668 0.928 . S
C1700 C1698 1.406 . S
C1700 N1701 1.261 . S
N1701 Co1652 2.214 . S
N1701 C1699 1.325 . S
N1701 C1700 1.261 . S
C1702 H1672 0.931 . S
C1702 C1699 1.357 . S
C1702 C1703 1.312 . S
C1703 H1674 0.930 . S
C1703 C1698 1.261 . S
C1703 C1702 1.312 . S
C1704 O1676 1.214 . S
C1704 O1684 1.234 . S
C1705 H1677 0.929 . S
C1705 C1708 1.391 . S
C1705 C1710 1.391 . S
C1706 H1678 0.929 . S
C1706 C1707 1.390 . S
C1706 N1709 1.391 . S
C1707 H1679 0.930 . S
C1707 C1706 1.390 . S
C1707 C1708 1.392 . S
C1708 H1680 0.929 . S
C1708 C1705 1.391 . S
C1708 C1707 1.392 . S
N1709 Co1653 2.257 . S
N1709 C1706 1.391 . S
N1709 C1710 1.388 . S
C1710 H1681 0.930 . S
C1710 C1705 1.391 . S
C1710 N1709 1.388 . S
Co1711 O1713 2.143 . S
Co1711 O1719 2.074 . S
Co1711 O1722 2.093 . S
Co1711 O1735 2.097 . S
Co1711 N1752 2.151 . S
Co1711 N1760 2.214 . S
Co1712 O1713 2.160 . S
Co1712 O1718 2.058 . S
Co1712 O1728 2.057 . S
Co1712 O1743 2.037 . S
Co1712 N1747 2.145 . S
Co1712 N1768 2.257 . S
O1713 Co1711 2.143 . S
O1713 Co1712 2.160 . S
C1714 O1715 1.278 . S
C1714 O1722 1.224 . S
O1715 C1714 1.278 . S
C1716 O1717 1.245 . S
C1716 O1728 1.232 . S
O1717 C1716 1.245 . S
O1718 Co1712 2.058 . S
O1718 C1744 1.269 . S
O1719 Co1711 2.074 . S
O1719 C1744 1.257 . S
H1720 C1745 0.930 . S
H1721 C1751 0.930 . S
O1722 Co1711 2.093 . S
O1722 C1714 1.224 . S
H1723 C1755 0.929 . S
H1724 C1757 0.930 . S
H1725 C1758 0.930 . S
H1726 C1756 0.929 . S
H1727 C1759 0.928 . S
O1728 Co1712 2.057 . S
O1728 C1716 1.232 . S
H1729 C1748 0.929 . S
H1730 C1749 0.929 . S
H1731 C1761 0.931 . S
H1732 C1753 0.929 . S
H1733 C1762 0.930 . S
H1734 C1754 0.931 . S
O1735 Co1711 2.097 . S
O1735 C1763 1.214 . S
H1736 C1764 0.929 . S
H1737 C1765 0.929 . S
H1738 C1766 0.930 . S
H1739 C1767 0.929 . S
H1740 C1769 0.930 . S
H1741 C1746 0.930 . S
H1742 C1750 0.930 . S
O1743 Co1712 2.037 . S
O1743 C1763 1.234 . S
C1744 O1718 1.269 . S
C1744 O1719 1.257 . S
C1745 H1720 0.930 . S
C1745 C1748 1.388 . S
C1745 C1750 1.418 . S
C1746 H1741 0.930 . S
C1746 C1749 1.404 . S
C1746 C1750 1.353 . S
N1747 Co1712 2.145 . S
N1747 C1748 1.397 . S
N1747 C1749 1.334 . S
C1748 H1729 0.929 . S
C1748 C1745 1.388 . S
C1748 N1747 1.397 . S
C1749 H1730 0.929 . S
C1749 C1746 1.404 . S
C1749 N1747 1.334 . S
C1750 H1742 0.930 . S
C1750 C1745 1.418 . S
C1750 C1746 1.353 . S
C1751 H1721 0.930 . S
C1751 N1752 1.330 . S
C1751 C1753 1.446 . S
N1752 Co1711 2.151 . S
N1752 C1751 1.330 . S
N1752 C1756 1.418 . S
C1753 H1732 0.929 . S
C1753 C1751 1.446 . S
C1753 C1754 1.332 . S
C1754 H1734 0.931 . S
C1754 C1753 1.332 . S
C1754 C1755 1.267 . S
C1755 H1723 0.929 . S
C1755 C1754 1.267 . S
C1755 C1756 1.251 . S
C1756 H1726 0.929 . S
C1756 N1752 1.418 . S
C1756 C1755 1.251 . S
C1757 H1724 0.930 . S
C1757 C1759 1.406 . S
C1757 C1762 1.261 . S
C1758 H1725 0.930 . S
C1758 N1760 1.325 . S
C1758 C1761 1.357 . S
C1759 H1727 0.928 . S
C1759 C1757 1.406 . S
C1759 N1760 1.261 . S
N1760 Co1711 2.214 . S
N1760 C1758 1.325 . S
N1760 C1759 1.261 . S
C1761 H1731 0.931 . S
C1761 C1758 1.357 . S
C1761 C1762 1.312 . S
C1762 H1733 0.930 . S
C1762 C1757 1.261 . S
C1762 C1761 1.312 . S
C1763 O1735 1.214 . S
C1763 O1743 1.234 . S
C1764 H1736 0.929 . S
C1764 C1767 1.391 . S
C1764 C1769 1.391 . S
C1765 H1737 0.929 . S
C1765 C1766 1.390 . S
C1765 N1768 1.391 . S
C1766 H1738 0.930 . S
C1766 C1765 1.390 . S
C1766 C1767 1.392 . S
C1767 H1739 0.929 . S
C1767 C1764 1.391 . S
C1767 C1766 1.392 . S
N1768 Co1712 2.257 . S
N1768 C1765 1.391 . S
N1768 C1769 1.388 . S
C1769 H1740 0.930 . S
C1769 C1764 1.391 . S
C1769 N1768 1.388 . S
Co1770 O1772 2.143 1_556 S
Co1770 O1778 2.074 . S
Co1770 O1781 2.093 . S
Co1770 O1794 2.097 . S
Co1770 N1811 2.151 1_556 S
Co1770 N1819 2.214 . S
Co1771 O1772 2.160 1_556 S
Co1771 O1777 2.058 1_556 S
Co1771 O1787 2.057 1_556 S
Co1771 O1802 2.037 . S
Co1771 N1806 2.145 . S
Co1771 N1827 2.257 . S
O1772 Co1770 2.143 1_554 S
O1772 Co1771 2.160 1_554 S
C1773 O1774 1.278 1_556 S
C1773 O1781 1.224 . S
O1774 C1773 1.278 1_554 S
C1775 O1776 1.245 . S
C1775 O1787 1.232 . S
O1776 C1775 1.245 . S
O1777 Co1771 2.058 1_554 S
O1777 C1803 1.269 . S
O1778 Co1770 2.074 . S
O1778 C1803 1.257 1_556 S
H1779 C1804 0.930 . S
H1780 C1810 0.930 . S
O1781 Co1770 2.093 . S
O1781 C1773 1.224 . S
H1782 C1814 0.929 . S
H1783 C1816 0.930 . S
H1784 C1817 0.930 . S
H1785 C1815 0.929 . S
H1786 C1818 0.928 . S
O1787 Co1771 2.057 1_554 S
O1787 C1775 1.232 . S
H1788 C1807 0.929 . S
H1789 C1808 0.929 . S
H1790 C1820 0.931 . S
H1791 C1812 0.929 . S
H1792 C1821 0.930 . S
H1793 C1813 0.931 . S
O1794 Co1770 2.097 . S
O1794 C1822 1.214 . S
H1795 C1823 0.929 1_554 S
H1796 C1824 0.929 . S
H1797 C1825 0.930 . S
H1798 C1826 0.929 . S
H1799 C1828 0.930 . S
H1800 C1805 0.930 1_554 S
H1801 C1809 0.930 . S
O1802 Co1771 2.037 . S
O1802 C1822 1.234 . S
C1803 O1777 1.269 . S
C1803 O1778 1.257 1_554 S
C1804 H1779 0.930 . S
C1804 C1807 1.388 . S
C1804 C1809 1.418 . S
C1805 H1800 0.930 1_556 S
C1805 C1808 1.404 1_556 S
C1805 C1809 1.353 . S
N1806 Co1771 2.145 . S
N1806 C1807 1.397 . S
N1806 C1808 1.334 1_556 S
C1807 H1788 0.929 . S
C1807 C1804 1.388 . S
C1807 N1806 1.397 . S
C1808 H1789 0.929 . S
C1808 C1805 1.404 1_554 S
C1808 N1806 1.334 1_554 S
C1809 H1801 0.930 . S
C1809 C1804 1.418 . S
C1809 C1805 1.353 . S
C1810 H1780 0.930 . S
C1810 N1811 1.330 . S
C1810 C1812 1.446 . S
N1811 Co1770 2.151 1_554 S
N1811 C1810 1.330 . S
N1811 C1815 1.418 . S
C1812 H1791 0.929 . S
C1812 C1810 1.446 . S
C1812 C1813 1.332 . S
C1813 H1793 0.931 . S
C1813 C1812 1.332 . S
C1813 C1814 1.267 . S
C1814 H1782 0.929 . S
C1814 C1813 1.267 . S
C1814 C1815 1.251 . S
C1815 H1785 0.929 . S
C1815 N1811 1.418 . S
C1815 C1814 1.251 . S
C1816 H1783 0.930 . S
C1816 C1818 1.406 . S
C1816 C1821 1.261 . S
C1817 H1784 0.930 . S
C1817 N1819 1.325 . S
C1817 C1820 1.357 . S
C1818 H1786 0.928 . S
C1818 C1816 1.406 . S
C1818 N1819 1.261 . S
N1819 Co1770 2.214 . S
N1819 C1817 1.325 . S
N1819 C1818 1.261 . S
C1820 H1790 0.931 . S
C1820 C1817 1.357 . S
C1820 C1821 1.312 . S
C1821 H1792 0.930 . S
C1821 C1816 1.261 . S
C1821 C1820 1.312 . S
C1822 O1794 1.214 . S
C1822 O1802 1.234 . S
C1823 H1795 0.929 1_556 S
C1823 C1826 1.391 . S
C1823 C1828 1.391 1_556 S
C1824 H1796 0.929 . S
C1824 C1825 1.390 . S
C1824 N1827 1.391 . S
C1825 H1797 0.930 . S
C1825 C1824 1.390 . S
C1825 C1826 1.392 . S
C1826 H1798 0.929 . S
C1826 C1823 1.391 . S
C1826 C1825 1.392 . S
N1827 Co1771 2.257 . S
N1827 C1824 1.391 . S
N1827 C1828 1.388 1_556 S
C1828 H1799 0.930 . S
C1828 C1823 1.391 1_554 S
C1828 N1827 1.388 1_554 S
Co1829 O1831 2.143 1_556 S
Co1829 O1837 2.074 . S
Co1829 O1840 2.093 . S
Co1829 O1853 2.097 . S
Co1829 N1870 2.151 1_556 S
Co1829 N1878 2.214 . S
Co1830 O1831 2.160 1_556 S
Co1830 O1836 2.058 1_556 S
Co1830 O1846 2.057 1_556 S
Co1830 O1861 2.037 . S
Co1830 N1865 2.145 . S
Co1830 N1886 2.257 . S
O1831 Co1829 2.143 1_554 S
O1831 Co1830 2.160 1_554 S
C1832 O1833 1.278 1_556 S
C1832 O1840 1.224 . S
O1833 C1832 1.278 1_554 S
C1834 O1835 1.245 . S
C1834 O1846 1.232 . S
O1835 C1834 1.245 . S
O1836 Co1830 2.058 1_554 S
O1836 C1862 1.269 . S
O1837 Co1829 2.074 . S
O1837 C1862 1.257 1_556 S
H1838 C1863 0.930 . S
H1839 C1869 0.930 . S
O1840 Co1829 2.093 . S
O1840 C1832 1.224 . S
H1841 C1873 0.929 . S
H1842 C1875 0.930 . S
H1843 C1876 0.930 . S
H1844 C1874 0.929 . S
H1845 C1877 0.928 . S
O1846 Co1830 2.057 1_554 S
O1846 C1834 1.232 . S
H1847 C1866 0.929 . S
H1848 C1867 0.929 . S
H1849 C1879 0.931 . S
H1850 C1871 0.929 . S
H1851 C1880 0.930 . S
H1852 C1872 0.931 . S
O1853 Co1829 2.097 . S
O1853 C1881 1.214 . S
H1854 C1882 0.929 1_554 S
H1855 C1883 0.929 . S
H1856 C1884 0.930 . S
H1857 C1885 0.929 . S
H1858 C1887 0.930 . S
H1859 C1864 0.930 1_554 S
H1860 C1868 0.930 . S
O1861 Co1830 2.037 . S
O1861 C1881 1.234 . S
C1862 O1836 1.269 . S
C1862 O1837 1.257 1_554 S
C1863 H1838 0.930 . S
C1863 C1866 1.388 . S
C1863 C1868 1.418 . S
C1864 H1859 0.930 1_556 S
C1864 C1867 1.404 1_556 S
C1864 C1868 1.353 . S
N1865 Co1830 2.145 . S
N1865 C1866 1.397 . S
N1865 C1867 1.334 1_556 S
C1866 H1847 0.929 . S
C1866 C1863 1.388 . S
C1866 N1865 1.397 . S
C1867 H1848 0.929 . S
C1867 C1864 1.404 1_554 S
C1867 N1865 1.334 1_554 S
C1868 H1860 0.930 . S
C1868 C1863 1.418 . S
C1868 C1864 1.353 . S
C1869 H1839 0.930 . S
C1869 N1870 1.330 . S
C1869 C1871 1.446 . S
N1870 Co1829 2.151 1_554 S
N1870 C1869 1.330 . S
N1870 C1874 1.418 . S
C1871 H1850 0.929 . S
C1871 C1869 1.446 . S
C1871 C1872 1.332 . S
C1872 H1852 0.931 . S
C1872 C1871 1.332 . S
C1872 C1873 1.267 . S
C1873 H1841 0.929 . S
C1873 C1872 1.267 . S
C1873 C1874 1.251 . S
C1874 H1844 0.929 . S
C1874 N1870 1.418 . S
C1874 C1873 1.251 . S
C1875 H1842 0.930 . S
C1875 C1877 1.406 . S
C1875 C1880 1.261 . S
C1876 H1843 0.930 . S
C1876 N1878 1.325 . S
C1876 C1879 1.357 . S
C1877 H1845 0.928 . S
C1877 C1875 1.406 . S
C1877 N1878 1.261 . S
N1878 Co1829 2.214 . S
N1878 C1876 1.325 . S
N1878 C1877 1.261 . S
C1879 H1849 0.931 . S
C1879 C1876 1.357 . S
C1879 C1880 1.312 . S
C1880 H1851 0.930 . S
C1880 C1875 1.261 . S
C1880 C1879 1.312 . S
C1881 O1853 1.214 . S
C1881 O1861 1.234 . S
C1882 H1854 0.929 1_556 S
C1882 C1885 1.391 . S
C1882 C1887 1.391 1_556 S
C1883 H1855 0.929 . S
C1883 C1884 1.390 . S
C1883 N1886 1.391 . S
C1884 H1856 0.930 . S
C1884 C1883 1.390 . S
C1884 C1885 1.392 . S
C1885 H1857 0.929 . S
C1885 C1882 1.391 . S
C1885 C1884 1.392 . S
N1886 Co1830 2.257 . S
N1886 C1883 1.391 . S
N1886 C1887 1.388 1_556 S
C1887 H1858 0.930 . S
C1887 C1882 1.391 1_554 S
C1887 N1886 1.388 1_554 S
H1888 C1896 0.950 . S
H1889 C1901 0.950 . S
H1890 C1898 0.950 . S
H1891 C1900 0.950 . S
H1892 C1902 0.950 . S
H1893 C1904 0.950 . S
H1894 C1906 0.950 . S
H1895 C1907 0.950 . S
C1896 H1888 0.950 . S
C1896 C1897 1.386 . S
C1896 C1898 1.391 . S
C1897 C1896 1.386 . S
C1897 C1901 1.393 . S
C1898 H1890 0.950 . S
C1898 C1896 1.391 . S
C1898 C1899 1.400 . S
C1899 C1898 1.400 . S
C1899 C1900 1.398 . S
C1899 C1905 1.491 . S
C1900 H1891 0.950 . S
C1900 C1899 1.398 . S
C1900 C1901 1.391 . S
C1901 H1889 0.950 . S
C1901 C1897 1.393 . S
C1901 C1900 1.391 . S
C1902 H1892 0.950 . S
C1902 C1903 1.386 . S
C1902 C1904 1.391 . S
C1903 C1902 1.386 . S
C1903 C1907 1.393 . S
C1904 H1893 0.950 . S
C1904 C1902 1.391 . S
C1904 C1905 1.400 . S
C1905 C1899 1.491 . S
C1905 C1904 1.400 . S
C1905 C1906 1.398 . S
C1906 H1894 0.950 . S
C1906 C1905 1.398 . S
C1906 C1907 1.391 . S
C1907 H1895 0.950 . S
C1907 C1903 1.393 . S
C1907 C1906 1.391 . S
H1908 C1916 0.950 . S
H1909 C1921 0.950 . S
H1910 C1918 0.950 . S
H1911 C1920 0.950 . S
H1912 C1922 0.950 . S
H1913 C1924 0.950 . S
H1914 C1926 0.950 . S
H1915 C1927 0.950 . S
C1916 H1908 0.950 . S
C1916 C1917 1.386 . S
C1916 C1918 1.391 . S
C1917 C1916 1.386 . S
C1917 C1921 1.393 . S
C1918 H1910 0.950 . S
C1918 C1916 1.391 . S
C1918 C1919 1.400 . S
C1919 C1918 1.400 . S
C1919 C1920 1.398 . S
C1919 C1925 1.491 . S
C1920 H1911 0.950 . S
C1920 C1919 1.398 . S
C1920 C1921 1.391 . S
C1921 H1909 0.950 . S
C1921 C1917 1.393 . S
C1921 C1920 1.391 . S
C1922 H1912 0.950 . S
C1922 C1923 1.386 . S
C1922 C1924 1.391 . S
C1923 C1922 1.386 . S
C1923 C1927 1.393 . S
C1924 H1913 0.950 . S
C1924 C1922 1.391 . S
C1924 C1925 1.400 . S
C1925 C1919 1.491 . S
C1925 C1924 1.400 . S
C1925 C1926 1.398 . S
C1926 H1914 0.950 . S
C1926 C1925 1.398 . S
C1926 C1927 1.391 . S
C1927 H1915 0.950 . S
C1927 C1923 1.393 . S
C1927 C1926 1.391 . S
H1928 C1936 0.950 . S
H1929 C1941 0.950 . S
H1930 C1938 0.950 . S
H1931 C1940 0.950 . S
H1932 C1942 0.950 1_455 S
H1933 C1944 0.950 . S
H1934 C1946 0.950 . S
H1935 C1947 0.950 . S
C1936 H1928 0.950 . S
C1936 C1937 1.386 . S
C1936 C1938 1.391 . S
C1937 C1936 1.386 . S
C1937 C1941 1.393 . S
C1938 H1930 0.950 . S
C1938 C1936 1.391 . S
C1938 C1939 1.400 . S
C1939 C1938 1.400 . S
C1939 C1940 1.398 . S
C1939 C1945 1.491 . S
C1940 H1931 0.950 . S
C1940 C1939 1.398 . S
C1940 C1941 1.391 . S
C1941 H1929 0.950 . S
C1941 C1937 1.393 . S
C1941 C1940 1.391 . S
C1942 H1932 0.950 1_655 S
C1942 C1943 1.386 . S
C1942 C1944 1.391 . S
C1943 C1942 1.386 . S
C1943 C1947 1.393 . S
C1944 H1933 0.950 . S
C1944 C1942 1.391 . S
C1944 C1945 1.400 . S
C1945 C1939 1.491 . S
C1945 C1944 1.400 . S
C1945 C1946 1.398 . S
C1946 H1934 0.950 . S
C1946 C1945 1.398 . S
C1946 C1947 1.391 . S
C1947 H1935 0.950 . S
C1947 C1943 1.393 . S
C1947 C1946 1.391 . S
H1948 C1956 0.950 . S
H1949 C1961 0.950 1_455 S
H1950 C1958 0.950 . S
H1951 C1960 0.950 . S
H1952 C1962 0.950 . S
H1953 C1964 0.950 . S
H1954 C1966 0.950 . S
H1955 C1967 0.950 . S
C1956 H1948 0.950 . S
C1956 C1957 1.386 . S
C1956 C1958 1.391 . S
C1957 C1956 1.386 . S
C1957 C1961 1.393 . S
C1958 H1950 0.950 . S
C1958 C1956 1.391 . S
C1958 C1959 1.400 . S
C1959 C1958 1.400 . S
C1959 C1960 1.398 . S
C1959 C1965 1.491 . S
C1960 H1951 0.950 . S
C1960 C1959 1.398 . S
C1960 C1961 1.391 . S
C1961 H1949 0.950 1_655 S
C1961 C1957 1.393 . S
C1961 C1960 1.391 . S
C1962 H1952 0.950 . S
C1962 C1963 1.386 . S
C1962 C1964 1.391 . S
C1963 C1962 1.386 . S
C1963 C1967 1.393 . S
C1964 H1953 0.950 . S
C1964 C1962 1.391 . S
C1964 C1965 1.400 . S
C1965 C1959 1.491 . S
C1965 C1964 1.400 . S
C1965 C1966 1.398 . S
C1966 H1954 0.950 . S
C1966 C1965 1.398 . S
C1966 C1967 1.391 . S
C1967 H1955 0.950 . S
C1967 C1963 1.393 . S
C1967 C1966 1.391 . S
H1968 C1976 0.950 1_655 S
H1969 C1981 0.950 . S
H1970 C1978 0.950 . S
H1971 C1980 0.950 . S
H1972 C1982 0.950 . S
H1973 C1984 0.950 . S
H1974 C1986 0.950 . S
H1975 C1987 0.950 . S
C1976 H1968 0.950 1_455 S
C1976 C1977 1.386 . S
C1976 C1978 1.391 . S
C1977 C1976 1.386 . S
C1977 C1981 1.393 . S
C1978 H1970 0.950 . S
C1978 C1976 1.391 . S
C1978 C1979 1.400 . S
C1979 C1978 1.400 . S
C1979 C1980 1.398 . S
C1979 C1985 1.491 . S
C1980 H1971 0.950 . S
C1980 C1979 1.398 . S
C1980 C1981 1.391 . S
C1981 H1969 0.950 . S
C1981 C1977 1.393 . S
C1981 C1980 1.391 . S
C1982 H1972 0.950 . S
C1982 C1983 1.386 . S
C1982 C1984 1.391 . S
C1983 C1982 1.386 . S
C1983 C1987 1.393 . S
C1984 H1973 0.950 . S
C1984 C1982 1.391 . S
C1984 C1985 1.400 . S
C1985 C1979 1.491 . S
C1985 C1984 1.400 . S
C1985 C1986 1.398 . S
C1986 H1974 0.950 . S
C1986 C1985 1.398 . S
C1986 C1987 1.391 . S
C1987 H1975 0.950 . S
C1987 C1983 1.393 . S
C1987 C1986 1.391 . S
H1988 C1996 0.950 . S
H1989 C2001 0.950 . S
H1990 C1998 0.950 . S
H1991 C2000 0.950 . S
H1992 C2002 0.950 . S
H1993 C2004 0.950 . S
H1994 C2006 0.950 . S
H1995 C2007 0.950 1_655 S
C1996 H1988 0.950 . S
C1996 C1997 1.386 . S
C1996 C1998 1.391 . S
C1997 C1996 1.386 . S
C1997 C2001 1.393 . S
C1998 H1990 0.950 . S
C1998 C1996 1.391 . S
C1998 C1999 1.400 . S
C1999 C1998 1.400 . S
C1999 C2000 1.398 . S
C1999 C2005 1.491 . S
C2000 H1991 0.950 . S
C2000 C1999 1.398 . S
C2000 C2001 1.391 . S
C2001 H1989 0.950 . S
C2001 C1997 1.393 . S
C2001 C2000 1.391 . S
C2002 H1992 0.950 . S
C2002 C2003 1.386 . S
C2002 C2004 1.391 . S
C2003 C2002 1.386 . S
C2003 C2007 1.393 . S
C2004 H1993 0.950 . S
C2004 C2002 1.391 . S
C2004 C2005 1.400 . S
C2005 C1999 1.491 . S
C2005 C2004 1.400 . S
C2005 C2006 1.398 . S
C2006 H1994 0.950 . S
C2006 C2005 1.398 . S
C2006 C2007 1.391 . S
C2007 H1995 0.950 1_455 S
C2007 C2003 1.393 . S
C2007 C2006 1.391 . S
H2008 C2016 0.950 . S
H2009 C2021 0.950 . S
H2010 C2018 0.950 . S
H2011 C2020 0.950 . S
H2012 C2022 0.950 . S
H2013 C2024 0.950 . S
H2014 C2026 0.950 . S
H2015 C2027 0.950 . S
C2016 H2008 0.950 . S
C2016 C2017 1.386 . S
C2016 C2018 1.391 . S
C2017 C2016 1.386 . S
C2017 C2021 1.393 . S
C2018 H2010 0.950 . S
C2018 C2016 1.391 . S
C2018 C2019 1.400 . S
C2019 C2018 1.400 . S
C2019 C2020 1.398 . S
C2019 C2025 1.491 . S
C2020 H2011 0.950 . S
C2020 C2019 1.398 . S
C2020 C2021 1.391 . S
C2021 H2009 0.950 . S
C2021 C2017 1.393 . S
C2021 C2020 1.391 . S
C2022 H2012 0.950 . S
C2022 C2023 1.386 . S
C2022 C2024 1.391 . S
C2023 C2022 1.386 . S
C2023 C2027 1.393 . S
C2024 H2013 0.950 . S
C2024 C2022 1.391 . S
C2024 C2025 1.400 . S
C2025 C2019 1.491 . S
C2025 C2024 1.400 . S
C2025 C2026 1.398 . S
C2026 H2014 0.950 . S
C2026 C2025 1.398 . S
C2026 C2027 1.391 . S
C2027 H2015 0.950 . S
C2027 C2023 1.393 . S
C2027 C2026 1.391 . S
H2028 C2036 0.950 . S
H2029 C2041 0.950 . S
H2030 C2038 0.950 . S
H2031 C2040 0.950 . S
H2032 C2042 0.950 1_455 S
H2033 C2044 0.950 . S
H2034 C2046 0.950 . S
H2035 C2047 0.950 . S
C2036 H2028 0.950 . S
C2036 C2037 1.386 . S
C2036 C2038 1.391 . S
C2037 C2036 1.386 . S
C2037 C2041 1.393 . S
C2038 H2030 0.950 . S
C2038 C2036 1.391 . S
C2038 C2039 1.400 . S
C2039 C2038 1.400 . S
C2039 C2040 1.398 . S
C2039 C2045 1.491 . S
C2040 H2031 0.950 . S
C2040 C2039 1.398 . S
C2040 C2041 1.391 . S
C2041 H2029 0.950 . S
C2041 C2037 1.393 . S
C2041 C2040 1.391 . S
C2042 H2032 0.950 1_655 S
C2042 C2043 1.386 . S
C2042 C2044 1.391 . S
C2043 C2042 1.386 . S
C2043 C2047 1.393 . S
C2044 H2033 0.950 . S
C2044 C2042 1.391 . S
C2044 C2045 1.400 . S
C2045 C2039 1.491 . S
C2045 C2044 1.400 . S
C2045 C2046 1.398 . S
C2046 H2034 0.950 . S
C2046 C2045 1.398 . S
C2046 C2047 1.391 . S
C2047 H2035 0.950 . S
C2047 C2043 1.393 . S
C2047 C2046 1.391 . S
H2048 C2056 0.950 . S
H2049 C2061 0.950 . S
H2050 C2058 0.950 . S
H2051 C2060 0.950 . S
H2052 C2062 0.950 . S
H2053 C2064 0.950 . S
H2054 C2066 0.950 . S
H2055 C2067 0.950 . S
C2056 H2048 0.950 . S
C2056 C2057 1.386 . S
C2056 C2058 1.391 . S
C2057 C2056 1.386 . S
C2057 C2061 1.393 . S
C2058 H2050 0.950 . S
C2058 C2056 1.391 . S
C2058 C2059 1.400 . S
C2059 C2058 1.400 . S
C2059 C2060 1.398 . S
C2059 C2065 1.491 . S
C2060 H2051 0.950 . S
C2060 C2059 1.398 . S
C2060 C2061 1.391 . S
C2061 H2049 0.950 . S
C2061 C2057 1.393 . S
C2061 C2060 1.391 . S
C2062 H2052 0.950 . S
C2062 C2063 1.386 . S
C2062 C2064 1.391 . S
C2063 C2062 1.386 . S
C2063 C2067 1.393 . S
C2064 H2053 0.950 . S
C2064 C2062 1.391 . S
C2064 C2065 1.400 . S
C2065 C2059 1.491 . S
C2065 C2064 1.400 . S
C2065 C2066 1.398 . S
C2066 H2054 0.950 . S
C2066 C2065 1.398 . S
C2066 C2067 1.391 . S
C2067 H2055 0.950 . S
C2067 C2063 1.393 . S
C2067 C2066 1.391 . S
H2068 C2076 0.950 . S
H2069 C2081 0.950 . S
H2070 C2078 0.950 . S
H2071 C2080 0.950 . S
H2072 C2082 0.950 . S
H2073 C2084 0.950 . S
H2074 C2086 0.950 . S
H2075 C2087 0.950 . S
C2076 H2068 0.950 . S
C2076 C2077 1.386 . S
C2076 C2078 1.391 . S
C2077 C2076 1.386 . S
C2077 C2081 1.393 . S
C2078 H2070 0.950 . S
C2078 C2076 1.391 . S
C2078 C2079 1.400 . S
C2079 C2078 1.400 . S
C2079 C2080 1.398 . S
C2079 C2085 1.491 . S
C2080 H2071 0.950 . S
C2080 C2079 1.398 . S
C2080 C2081 1.391 . S
C2081 H2069 0.950 . S
C2081 C2077 1.393 . S
C2081 C2080 1.391 . S
C2082 H2072 0.950 . S
C2082 C2083 1.386 . S
C2082 C2084 1.391 . S
C2083 C2082 1.386 . S
C2083 C2087 1.393 . S
C2084 H2073 0.950 . S
C2084 C2082 1.391 . S
C2084 C2085 1.400 . S
C2085 C2079 1.491 . S
C2085 C2084 1.400 . S
C2085 C2086 1.398 . S
C2086 H2074 0.950 . S
C2086 C2085 1.398 . S
C2086 C2087 1.391 . S
C2087 H2075 0.950 . S
C2087 C2083 1.393 . S
C2087 C2086 1.391 . S
H2088 C2096 0.950 . S
H2089 C2101 0.950 . S
H2090 C2098 0.950 . S
H2091 C2100 0.950 . S
H2092 C2102 0.950 . S
H2093 C2104 0.950 . S
H2094 C2106 0.950 . S
H2095 C2107 0.950 . S
C2096 H2088 0.950 . S
C2096 C2097 1.386 . S
C2096 C2098 1.391 . S
C2097 C2096 1.386 . S
C2097 C2101 1.393 . S
C2098 H2090 0.950 . S
C2098 C2096 1.391 . S
C2098 C2099 1.400 . S
C2099 C2098 1.400 . S
C2099 C2100 1.398 . S
C2099 C2105 1.491 . S
C2100 H2091 0.950 . S
C2100 C2099 1.398 . S
C2100 C2101 1.391 . S
C2101 H2089 0.950 . S
C2101 C2097 1.393 . S
C2101 C2100 1.391 . S
C2102 H2092 0.950 . S
C2102 C2103 1.386 . S
C2102 C2104 1.391 . S
C2103 C2102 1.386 . S
C2103 C2107 1.393 . S
C2104 H2093 0.950 . S
C2104 C2102 1.391 . S
C2104 C2105 1.400 . S
C2105 C2099 1.491 . S
C2105 C2104 1.400 . S
C2105 C2106 1.398 . S
C2106 H2094 0.950 . S
C2106 C2105 1.398 . S
C2106 C2107 1.391 . S
C2107 H2095 0.950 . S
C2107 C2103 1.393 . S
C2107 C2106 1.391 . S
H2108 C2116 0.950 . S
H2109 C2121 0.950 . S
H2110 C2118 0.950 . S
H2111 C2120 0.950 . S
H2112 C2122 0.950 . S
H2113 C2124 0.950 . S
H2114 C2126 0.950 . S
H2115 C2127 0.950 . S
C2116 H2108 0.950 . S
C2116 C2117 1.386 . S
C2116 C2118 1.391 . S
C2117 C2116 1.386 . S
C2117 C2121 1.393 . S
C2118 H2110 0.950 . S
C2118 C2116 1.391 . S
C2118 C2119 1.400 . S
C2119 C2118 1.400 . S
C2119 C2120 1.398 . S
C2119 C2125 1.491 . S
C2120 H2111 0.950 . S
C2120 C2119 1.398 . S
C2120 C2121 1.391 . S
C2121 H2109 0.950 . S
C2121 C2117 1.393 . S
C2121 C2120 1.391 . S
C2122 H2112 0.950 . S
C2122 C2123 1.386 . S
C2122 C2124 1.391 . S
C2123 C2122 1.386 . S
C2123 C2127 1.393 . S
C2124 H2113 0.950 . S
C2124 C2122 1.391 . S
C2124 C2125 1.400 . S
C2125 C2119 1.491 . S
C2125 C2124 1.400 . S
C2125 C2126 1.398 . S
C2126 H2114 0.950 . S
C2126 C2125 1.398 . S
C2126 C2127 1.391 . S
C2127 H2115 0.950 . S
C2127 C2123 1.393 . S
C2127 C2126 1.391 . S
H2128 C2136 0.950 . S
H2129 C2141 0.950 . S
H2130 C2138 0.950 . S
H2131 C2140 0.950 . S
H2132 C2142 0.950 . S
H2133 C2144 0.950 . S
H2134 C2146 0.950 . S
H2135 C2147 0.950 . S
C2136 H2128 0.950 . S
C2136 C2137 1.386 . S
C2136 C2138 1.391 . S
C2137 C2136 1.386 . S
C2137 C2141 1.393 . S
C2138 H2130 0.950 . S
C2138 C2136 1.391 . S
C2138 C2139 1.400 . S
C2139 C2138 1.400 . S
C2139 C2140 1.398 . S
C2139 C2145 1.491 . S
C2140 H2131 0.950 . S
C2140 C2139 1.398 . S
C2140 C2141 1.391 . S
C2141 H2129 0.950 . S
C2141 C2137 1.393 . S
C2141 C2140 1.391 . S
C2142 H2132 0.950 . S
C2142 C2143 1.386 . S
C2142 C2144 1.391 . S
C2143 C2142 1.386 . S
C2143 C2147 1.393 . S
C2144 H2133 0.950 . S
C2144 C2142 1.391 . S
C2144 C2145 1.400 . S
C2145 C2139 1.491 . S
C2145 C2144 1.400 . S
C2145 C2146 1.398 . S
C2146 H2134 0.950 . S
C2146 C2145 1.398 . S
C2146 C2147 1.391 . S
C2147 H2135 0.950 . S
C2147 C2143 1.393 . S
C2147 C2146 1.391 . S
H2148 C2156 0.950 . S
H2149 C2161 0.950 . S
H2150 C2158 0.950 . S
H2151 C2160 0.950 . S
H2152 C2162 0.950 . S
H2153 C2164 0.950 . S
H2154 C2166 0.950 . S
H2155 C2167 0.950 . S
C2156 H2148 0.950 . S
C2156 C2157 1.386 . S
C2156 C2158 1.391 . S
C2157 C2156 1.386 . S
C2157 C2161 1.393 . S
C2158 H2150 0.950 . S
C2158 C2156 1.391 . S
C2158 C2159 1.400 . S
C2159 C2158 1.400 . S
C2159 C2160 1.398 . S
C2159 C2165 1.491 . S
C2160 H2151 0.950 . S
C2160 C2159 1.398 . S
C2160 C2161 1.391 . S
C2161 H2149 0.950 . S
C2161 C2157 1.393 . S
C2161 C2160 1.391 . S
C2162 H2152 0.950 . S
C2162 C2163 1.386 . S
C2162 C2164 1.391 . S
C2163 C2162 1.386 . S
C2163 C2167 1.393 . S
C2164 H2153 0.950 . S
C2164 C2162 1.391 . S
C2164 C2165 1.400 . S
C2165 C2159 1.491 . S
C2165 C2164 1.400 . S
C2165 C2166 1.398 . S
C2166 H2154 0.950 . S
C2166 C2165 1.398 . S
C2166 C2167 1.391 . S
C2167 H2155 0.950 . S
C2167 C2163 1.393 . S
C2167 C2166 1.391 . S
H2168 C2176 0.950 . S
H2169 C2181 0.950 . S
H2170 C2178 0.950 . S
H2171 C2180 0.950 . S
H2172 C2182 0.950 . S
H2173 C2184 0.950 . S
H2174 C2186 0.950 . S
H2175 C2187 0.950 . S
C2176 H2168 0.950 . S
C2176 C2177 1.386 . S
C2176 C2178 1.391 . S
C2177 C2176 1.386 . S
C2177 C2181 1.393 . S
C2178 H2170 0.950 . S
C2178 C2176 1.391 . S
C2178 C2179 1.400 . S
C2179 C2178 1.400 . S
C2179 C2180 1.398 . S
C2179 C2185 1.491 . S
C2180 H2171 0.950 . S
C2180 C2179 1.398 . S
C2180 C2181 1.391 . S
C2181 H2169 0.950 . S
C2181 C2177 1.393 . S
C2181 C2180 1.391 . S
C2182 H2172 0.950 . S
C2182 C2183 1.386 . S
C2182 C2184 1.391 . S
C2183 C2182 1.386 . S
C2183 C2187 1.393 . S
C2184 H2173 0.950 . S
C2184 C2182 1.391 . S
C2184 C2185 1.400 . S
C2185 C2179 1.491 . S
C2185 C2184 1.400 . S
C2185 C2186 1.398 . S
C2186 H2174 0.950 . S
C2186 C2185 1.398 . S
C2186 C2187 1.391 . S
C2187 H2175 0.950 . S
C2187 C2183 1.393 . S
C2187 C2186 1.391 . S
H2188 C2196 0.950 . S
H2189 C2201 0.950 . S
H2190 C2198 0.950 . S
H2191 C2200 0.950 . S
H2192 C2202 0.950 . S
H2193 C2204 0.950 . S
H2194 C2206 0.950 . S
H2195 C2207 0.950 . S
C2196 H2188 0.950 . S
C2196 C2197 1.386 . S
C2196 C2198 1.391 . S
C2197 C2196 1.386 . S
C2197 C2201 1.393 . S
C2198 H2190 0.950 . S
C2198 C2196 1.391 . S
C2198 C2199 1.400 . S
C2199 C2198 1.400 . S
C2199 C2200 1.398 . S
C2199 C2205 1.491 . S
C2200 H2191 0.950 . S
C2200 C2199 1.398 . S
C2200 C2201 1.391 . S
C2201 H2189 0.950 . S
C2201 C2197 1.393 . S
C2201 C2200 1.391 . S
C2202 H2192 0.950 . S
C2202 C2203 1.386 . S
C2202 C2204 1.391 . S
C2203 C2202 1.386 . S
C2203 C2207 1.393 . S
C2204 H2193 0.950 . S
C2204 C2202 1.391 . S
C2204 C2205 1.400 . S
C2205 C2199 1.491 . S
C2205 C2204 1.400 . S
C2205 C2206 1.398 . S
C2206 H2194 0.950 . S
C2206 C2205 1.398 . S
C2206 C2207 1.391 . S
C2207 H2195 0.950 . S
C2207 C2203 1.393 . S
C2207 C2206 1.391 . S
H2208 C2216 0.950 . S
H2209 C2221 0.950 . S
H2210 C2218 0.950 . S
H2211 C2220 0.911 1_545 S
H2212 C2222 0.950 . S
H2213 C2224 0.950 . S
H2214 C2226 0.911 1_565 S
H2215 C2227 0.950 . S
C2216 H2208 0.950 . S
C2216 C2217 1.386 . S
C2216 C2218 1.391 . S
C2217 C2216 1.386 . S
C2217 C2221 1.393 . S
C2218 H2210 0.950 . S
C2218 C2216 1.391 . S
C2218 C2219 1.400 . S
C2219 C2218 1.400 . S
C2219 C2220 1.398 . S
C2219 C2225 1.491 1_565 S
C2220 H2211 0.911 1_565 S
C2220 C2219 1.398 . S
C2220 C2221 1.391 . S
C2221 H2209 0.950 . S
C2221 C2217 1.393 . S
C2221 C2220 1.391 . S
C2222 H2212 0.950 . S
C2222 C2223 1.386 . S
C2222 C2224 1.391 . S
C2223 C2222 1.386 . S
C2223 C2227 1.393 . S
C2224 H2213 0.950 . S
C2224 C2222 1.391 . S
C2224 C2225 1.400 . S
C2225 C2219 1.491 1_545 S
C2225 C2224 1.400 . S
C2225 C2226 1.398 . S
C2226 H2214 0.911 1_545 S
C2226 C2225 1.398 . S
C2226 C2227 1.391 . S
C2227 H2215 0.950 . S
C2227 C2223 1.393 . S
C2227 C2226 1.391 . S
H2228 C2236 0.950 . S
H2229 C2241 0.950 1_455 S
H2230 C2238 0.950 . S
H2231 C2240 0.950 . S
H2232 C2242 0.950 . S
H2233 C2244 0.950 . S
H2234 C2246 0.950 . S
H2235 C2247 0.950 1_655 S
C2236 H2228 0.950 . S
C2236 C2237 1.386 . S
C2236 C2238 1.391 . S
C2237 C2236 1.386 . S
C2237 C2241 1.393 . S
C2238 H2230 0.950 . S
C2238 C2236 1.391 . S
C2238 C2239 1.400 . S
C2239 C2238 1.400 . S
C2239 C2240 1.398 1_655 S
C2239 C2245 1.491 1_655 S
C2240 H2231 0.950 . S
C2240 C2239 1.398 1_455 S
C2240 C2241 1.391 1_455 S
C2241 H2229 0.950 1_655 S
C2241 C2237 1.393 . S
C2241 C2240 1.391 1_655 S
C2242 H2232 0.950 . S
C2242 C2243 1.386 . S
C2242 C2244 1.391 . S
C2243 C2242 1.386 . S
C2243 C2247 1.393 . S
C2244 H2233 0.950 . S
C2244 C2242 1.391 . S
C2244 C2245 1.400 . S
C2245 C2239 1.491 1_455 S
C2245 C2244 1.400 . S
C2245 C2246 1.398 1_455 S
C2246 H2234 0.950 . S
C2246 C2245 1.398 1_655 S
C2246 C2247 1.391 1_655 S
C2247 H2235 0.950 1_455 S
C2247 C2243 1.393 . S
C2247 C2246 1.391 1_455 S
H2248 C2256 0.950 . S
H2249 C2261 0.950 . S
H2250 C2258 0.950 . S
H2251 C2260 0.950 . S
H2252 C2262 0.950 . S
H2253 C2264 0.950 . S
H2254 C2266 0.950 . S
H2255 C2267 0.950 . S
C2256 H2248 0.950 . S
C2256 C2257 1.413 . S
C2256 C2258 1.391 . S
C2257 C2256 1.413 . S
C2257 C2261 1.365 1_556 S
C2258 H2250 0.950 . S
C2258 C2256 1.391 . S
C2258 C2259 1.403 1_556 S
C2259 C2258 1.403 1_554 S
C2259 C2260 1.396 . S
C2259 C2265 1.491 . S
C2260 H2251 0.950 . S
C2260 C2259 1.396 . S
C2260 C2261 1.391 . S
C2261 H2249 0.950 . S
C2261 C2257 1.365 1_554 S
C2261 C2260 1.391 . S
C2262 H2252 0.950 . S
C2262 C2263 1.386 . S
C2262 C2264 1.391 . S
C2263 C2262 1.386 . S
C2263 C2267 1.393 1_554 S
C2264 H2253 0.950 . S
C2264 C2262 1.391 . S
C2264 C2265 1.397 . S
C2265 C2259 1.491 . S
C2265 C2264 1.397 . S
C2265 C2266 1.401 1_554 S
C2266 H2254 0.950 . S
C2266 C2265 1.401 1_556 S
C2266 C2267 1.391 . S
C2267 H2255 0.950 . S
C2267 C2263 1.393 1_556 S
C2267 C2266 1.391 . S
H2268 C2276 0.950 . S
H2269 C2281 0.950 . S
H2270 C2278 0.950 . S
H2271 C2280 0.950 . S
H2272 C2282 0.950 . S
H2273 C2284 0.950 . S
H2274 C2286 0.950 . S
H2275 C2287 0.950 . S
C2276 H2268 0.950 . S
C2276 C2277 1.386 1_554 S
C2276 C2278 1.391 . S
C2277 C2276 1.386 1_556 S
C2277 C2281 1.393 . S
C2278 H2270 0.950 . S
C2278 C2276 1.391 . S
C2278 C2279 1.400 1_554 S
C2279 C2278 1.400 1_556 S
C2279 C2280 1.398 1_455 S
C2279 C2285 1.491 1_446 S
C2280 H2271 0.950 . S
C2280 C2279 1.398 1_655 S
C2280 C2281 1.391 1_655 S
C2281 H2269 0.950 . S
C2281 C2277 1.393 . S
C2281 C2280 1.391 1_455 S
C2282 H2272 0.950 . S
C2282 C2283 1.386 1_556 S
C2282 C2284 1.391 . S
C2283 C2282 1.386 1_554 S
C2283 C2287 1.393 . S
C2284 H2273 0.950 . S
C2284 C2282 1.391 . S
C2284 C2285 1.400 1_556 S
C2285 C2279 1.491 1_664 S
C2285 C2284 1.400 1_554 S
C2285 C2286 1.398 1_655 S
C2286 H2274 0.950 . S
C2286 C2285 1.398 1_455 S
C2286 C2287 1.391 1_455 S
C2287 H2275 0.950 . S
C2287 C2283 1.393 . S
C2287 C2286 1.391 1_655 S
H2288 C2296 0.950 . S
H2289 C2301 0.950 . S
H2290 C2298 0.950 . S
H2291 C2300 0.950 . S
H2292 C2302 0.950 . S
H2293 C2304 0.950 . S
H2294 C2306 0.950 . S
H2295 C2307 0.950 . S
C2296 H2288 0.950 . S
C2296 C2297 1.386 . S
C2296 C2298 1.391 . S
C2297 C2296 1.386 . S
C2297 C2301 1.393 . S
C2298 H2290 0.950 . S
C2298 C2296 1.391 . S
C2298 C2299 1.400 . S
C2299 C2298 1.400 . S
C2299 C2300 1.398 . S
C2299 C2305 1.491 1_545 S
C2300 H2291 0.950 . S
C2300 C2299 1.398 . S
C2300 C2301 1.391 . S
C2301 H2289 0.950 . S
C2301 C2297 1.393 . S
C2301 C2300 1.391 . S
C2302 H2292 0.950 . S
C2302 C2303 1.386 . S
C2302 C2304 1.391 . S
C2303 C2302 1.386 . S
C2303 C2307 1.393 . S
C2304 H2293 0.950 . S
C2304 C2302 1.391 . S
C2304 C2305 1.400 . S
C2305 C2299 1.491 1_565 S
C2305 C2304 1.400 . S
C2305 C2306 1.398 . S
C2306 H2294 0.950 . S
C2306 C2305 1.398 . S
C2306 C2307 1.391 . S
C2307 H2295 0.950 . S
C2307 C2303 1.393 . S
C2307 C2306 1.391 . S
H2308 C2316 0.950 . S
H2309 C2321 0.950 . S
H2310 C2318 0.950 1_655 S
H2311 C2320 0.950 . S
H2312 C2322 0.950 . S
H2313 C2324 0.950 1_455 S
H2314 C2326 0.950 . S
H2315 C2327 0.950 . S
C2316 H2308 0.950 . S
C2316 C2317 1.386 . S
C2316 C2318 1.391 . S
C2317 C2316 1.386 . S
C2317 C2321 1.393 . S
C2318 H2310 0.950 1_455 S
C2318 C2316 1.391 . S
C2318 C2319 1.400 . S
C2319 C2318 1.400 . S
C2319 C2320 1.398 . S
C2319 C2325 1.491 1_455 S
C2320 H2311 0.950 . S
C2320 C2319 1.398 . S
C2320 C2321 1.391 . S
C2321 H2309 0.950 . S
C2321 C2317 1.393 . S
C2321 C2320 1.391 . S
C2322 H2312 0.950 . S
C2322 C2323 1.386 . S
C2322 C2324 1.391 . S
C2323 C2322 1.386 . S
C2323 C2327 1.393 . S
C2324 H2313 0.950 1_655 S
C2324 C2322 1.391 . S
C2324 C2325 1.400 . S
C2325 C2319 1.491 1_655 S
C2325 C2324 1.400 . S
C2325 C2326 1.398 . S
C2326 H2314 0.950 . S
C2326 C2325 1.398 . S
C2326 C2327 1.391 . S
C2327 H2315 0.950 . S
C2327 C2323 1.393 . S
C2327 C2326 1.391 . S
H2328 C2336 0.950 . S
H2329 C2341 0.950 . S
H2330 C2338 0.950 . S
H2331 C2340 0.950 . S
H2332 C2342 0.950 . S
H2333 C2344 0.950 . S
H2334 C2346 0.950 . S
H2335 C2347 0.950 . S
C2336 H2328 0.950 . S
C2336 C2337 1.386 1_554 S
C2336 C2338 1.391 . S
C2337 C2336 1.386 1_556 S
C2337 C2341 1.393 . S
C2338 H2330 0.950 . S
C2338 C2336 1.391 . S
C2338 C2339 1.396 1_554 S
C2339 C2338 1.396 1_556 S
C2339 C2340 1.407 . S
C2339 C2345 1.488 1_556 S
C2340 H2331 0.950 . S
C2340 C2339 1.407 . S
C2340 C2341 1.391 . S
C2341 H2329 0.950 . S
C2341 C2337 1.393 . S
C2341 C2340 1.391 . S
C2342 H2332 0.950 . S
C2342 C2343 1.386 1_556 S
C2342 C2344 1.391 . S
C2343 C2342 1.386 1_554 S
C2343 C2347 1.393 . S
C2344 H2333 0.950 . S
C2344 C2342 1.391 . S
C2344 C2345 1.396 1_556 S
C2345 C2339 1.488 1_554 S
C2345 C2344 1.396 1_554 S
C2345 C2346 1.407 . S
C2346 H2334 0.950 . S
C2346 C2345 1.407 . S
C2346 C2347 1.391 . S
C2347 H2335 0.950 . S
C2347 C2343 1.393 . S
C2347 C2346 1.391 . S
H2348 C2356 0.950 . S
H2349 C2361 0.950 . S
H2350 C2358 0.950 . S
H2351 C2360 0.950 . S
H2352 C2362 0.950 . S
H2353 C2364 0.950 . S
H2354 C2366 0.950 . S
H2355 C2367 0.950 . S
C2356 H2348 0.950 . S
C2356 C2357 1.386 . S
C2356 C2358 1.391 . S
C2357 C2356 1.386 . S
C2357 C2361 1.393 . S
C2358 H2350 0.950 . S
C2358 C2356 1.391 . S
C2358 C2359 1.400 . S
C2359 C2358 1.400 . S
C2359 C2360 1.398 . S
C2359 C2365 1.491 . S
C2360 H2351 0.950 . S
C2360 C2359 1.398 . S
C2360 C2361 1.391 . S
C2361 H2349 0.950 . S
C2361 C2357 1.393 . S
C2361 C2360 1.391 . S
C2362 H2352 0.950 . S
C2362 C2363 1.386 . S
C2362 C2364 1.391 . S
C2363 C2362 1.386 . S
C2363 C2367 1.393 . S
C2364 H2353 0.950 . S
C2364 C2362 1.391 . S
C2364 C2365 1.400 . S
C2365 C2359 1.491 . S
C2365 C2364 1.400 . S
C2365 C2366 1.398 . S
C2366 H2354 0.950 . S
C2366 C2365 1.398 . S
C2366 C2367 1.391 . S
C2367 H2355 0.950 . S
C2367 C2363 1.393 . S
C2367 C2366 1.391 . S
H2368 C2376 0.950 . S
H2369 C2381 0.950 . S
H2370 C2378 0.950 . S
H2371 C2380 0.950 . S
H2372 C2382 0.950 . S
H2373 C2384 0.950 . S
H2374 C2386 0.950 . S
H2375 C2387 0.950 . S
C2376 H2368 0.950 . S
C2376 C2377 1.386 . S
C2376 C2378 1.391 . S
C2377 C2376 1.386 . S
C2377 C2381 1.393 . S
C2378 H2370 0.950 . S
C2378 C2376 1.391 . S
C2378 C2379 1.400 . S
C2379 C2378 1.400 . S
C2379 C2380 1.398 . S
C2379 C2385 1.491 . S
C2380 H2371 0.950 . S
C2380 C2379 1.398 . S
C2380 C2381 1.391 . S
C2381 H2369 0.950 . S
C2381 C2377 1.393 . S
C2381 C2380 1.391 . S
C2382 H2372 0.950 . S
C2382 C2383 1.386 . S
C2382 C2384 1.391 . S
C2383 C2382 1.386 . S
C2383 C2387 1.393 . S
C2384 H2373 0.950 . S
C2384 C2382 1.391 . S
C2384 C2385 1.400 . S
C2385 C2379 1.491 . S
C2385 C2384 1.400 . S
C2385 C2386 1.398 . S
C2386 H2374 0.950 . S
C2386 C2385 1.398 . S
C2386 C2387 1.391 . S
C2387 H2375 0.950 . S
C2387 C2383 1.393 . S
C2387 C2386 1.391 . S
H2388 C2396 0.950 1_455 S
H2389 C2401 0.950 . S
H2390 C2398 0.950 . S
H2391 C2400 0.950 . S
H2392 C2402 0.950 1_655 S
H2393 C2404 0.950 . S
H2394 C2406 0.950 . S
H2395 C2407 0.950 . S
C2396 H2388 0.950 1_655 S
C2396 C2397 1.386 . S
C2396 C2398 1.391 1_655 S
C2397 C2396 1.386 . S
C2397 C2401 1.393 . S
C2398 H2390 0.950 . S
C2398 C2396 1.391 1_455 S
C2398 C2399 1.400 1_455 S
C2399 C2398 1.400 1_655 S
C2399 C2400 1.398 . S
C2399 C2405 1.491 1_655 S
C2400 H2391 0.950 . S
C2400 C2399 1.398 . S
C2400 C2401 1.391 . S
C2401 H2389 0.950 . S
C2401 C2397 1.393 . S
C2401 C2400 1.391 . S
C2402 H2392 0.950 1_455 S
C2402 C2403 1.386 . S
C2402 C2404 1.391 1_455 S
C2403 C2402 1.386 . S
C2403 C2407 1.393 . S
C2404 H2393 0.950 . S
C2404 C2402 1.391 1_655 S
C2404 C2405 1.400 1_655 S
C2405 C2399 1.491 1_455 S
C2405 C2404 1.400 1_455 S
C2405 C2406 1.398 . S
C2406 H2394 0.950 . S
C2406 C2405 1.398 . S
C2406 C2407 1.391 . S
C2407 H2395 0.950 . S
C2407 C2403 1.393 . S
C2407 C2406 1.391 . S
H2408 C2416 0.950 . S
H2409 C2421 0.950 . S
H2410 C2418 0.950 . S
H2411 C2420 0.950 . S
H2412 C2422 0.950 . S
H2413 C2424 0.950 . S
H2414 C2426 0.950 . S
H2415 C2427 0.950 . S
C2416 H2408 0.950 . S
C2416 C2417 1.386 . S
C2416 C2418 1.391 . S
C2417 C2416 1.386 . S
C2417 C2421 1.393 . S
C2418 H2410 0.950 . S
C2418 C2416 1.391 . S
C2418 C2419 1.400 . S
C2419 C2418 1.400 . S
C2419 C2420 1.398 . S
C2419 C2425 1.491 . S
C2420 H2411 0.950 . S
C2420 C2419 1.398 . S
C2420 C2421 1.391 . S
C2421 H2409 0.950 . S
C2421 C2417 1.393 . S
C2421 C2420 1.391 . S
C2422 H2412 0.950 . S
C2422 C2423 1.386 . S
C2422 C2424 1.391 . S
C2423 C2422 1.386 . S
C2423 C2427 1.393 . S
C2424 H2413 0.950 . S
C2424 C2422 1.391 . S
C2424 C2425 1.400 . S
C2425 C2419 1.491 . S
C2425 C2424 1.400 . S
C2425 C2426 1.398 . S
C2426 H2414 0.950 . S
C2426 C2425 1.398 . S
C2426 C2427 1.391 . S
C2427 H2415 0.950 . S
C2427 C2423 1.393 . S
C2427 C2426 1.391 . S
H2428 C2436 0.950 . S
H2429 C2441 0.950 . S
H2430 C2438 0.950 . S
H2431 C2440 0.950 . S
H2432 C2442 0.950 . S
H2433 C2444 0.950 . S
H2434 C2446 0.950 . S
H2435 C2447 0.950 . S
C2436 H2428 0.950 . S
C2436 C2437 1.386 . S
C2436 C2438 1.391 . S
C2437 C2436 1.386 . S
C2437 C2441 1.393 . S
C2438 H2430 0.950 . S
C2438 C2436 1.391 . S
C2438 C2439 1.400 . S
C2439 C2438 1.400 . S
C2439 C2440 1.398 . S
C2439 C2445 1.491 . S
C2440 H2431 0.950 . S
C2440 C2439 1.398 . S
C2440 C2441 1.391 . S
C2441 H2429 0.950 . S
C2441 C2437 1.393 . S
C2441 C2440 1.391 . S
C2442 H2432 0.950 . S
C2442 C2443 1.386 . S
C2442 C2444 1.391 . S
C2443 C2442 1.386 . S
C2443 C2447 1.393 . S
C2444 H2433 0.950 . S
C2444 C2442 1.391 . S
C2444 C2445 1.400 . S
C2445 C2439 1.491 . S
C2445 C2444 1.400 . S
C2445 C2446 1.398 . S
C2446 H2434 0.950 . S
C2446 C2445 1.398 . S
C2446 C2447 1.391 . S
C2447 H2435 0.950 . S
C2447 C2443 1.393 . S
C2447 C2446 1.391 . S
H2448 C2456 0.950 . S
H2449 C2461 0.950 . S
H2450 C2458 0.950 . S
H2451 C2460 0.950 . S
H2452 C2462 0.950 . S
H2453 C2464 0.950 . S
H2454 C2466 0.950 . S
H2455 C2467 0.950 . S
C2456 H2448 0.950 . S
C2456 C2457 1.386 . S
C2456 C2458 1.391 . S
C2457 C2456 1.386 . S
C2457 C2461 1.393 . S
C2458 H2450 0.950 . S
C2458 C2456 1.391 . S
C2458 C2459 1.400 . S
C2459 C2458 1.400 . S
C2459 C2460 1.398 . S
C2459 C2465 1.491 . S
C2460 H2451 0.950 . S
C2460 C2459 1.398 . S
C2460 C2461 1.391 . S
C2461 H2449 0.950 . S
C2461 C2457 1.393 . S
C2461 C2460 1.391 . S
C2462 H2452 0.950 . S
C2462 C2463 1.386 . S
C2462 C2464 1.391 . S
C2463 C2462 1.386 . S
C2463 C2467 1.393 . S
C2464 H2453 0.950 . S
C2464 C2462 1.391 . S
C2464 C2465 1.400 . S
C2465 C2459 1.491 . S
C2465 C2464 1.400 . S
C2465 C2466 1.398 . S
C2466 H2454 0.950 . S
C2466 C2465 1.398 . S
C2466 C2467 1.391 . S
C2467 H2455 0.950 . S
C2467 C2463 1.393 . S
C2467 C2466 1.391 . S
H2468 C2476 0.950 . S
H2469 C2481 0.950 . S
H2470 C2478 0.950 . S
H2471 C2480 0.950 . S
H2472 C2482 0.950 . S
H2473 C2484 0.950 . S
H2474 C2486 0.950 . S
H2475 C2487 0.950 . S
C2476 H2468 0.950 . S
C2476 C2477 1.386 . S
C2476 C2478 1.391 . S
C2477 C2476 1.386 . S
C2477 C2481 1.393 . S
C2478 H2470 0.950 . S
C2478 C2476 1.391 . S
C2478 C2479 1.400 . S
C2479 C2478 1.400 . S
C2479 C2480 1.398 . S
C2479 C2485 1.491 1_545 S
C2480 H2471 0.950 . S
C2480 C2479 1.398 . S
C2480 C2481 1.391 . S
C2481 H2469 0.950 . S
C2481 C2477 1.393 . S
C2481 C2480 1.391 . S
C2482 H2472 0.950 . S
C2482 C2483 1.386 . S
C2482 C2484 1.391 . S
C2483 C2482 1.386 . S
C2483 C2487 1.393 . S
C2484 H2473 0.950 . S
C2484 C2482 1.391 . S
C2484 C2485 1.400 . S
C2485 C2479 1.491 1_565 S
C2485 C2484 1.400 . S
C2485 C2486 1.398 . S
C2486 H2474 0.950 . S
C2486 C2485 1.398 . S
C2486 C2487 1.391 . S
C2487 H2475 0.950 . S
C2487 C2483 1.393 . S
C2487 C2486 1.391 . S
H2488 C2496 0.950 . S
H2489 C2501 0.950 . S
H2490 C2498 0.950 . S
H2491 C2500 0.950 . S
H2492 C2502 0.950 . S
H2493 C2504 0.950 . S
H2494 C2506 0.950 . S
H2495 C2507 0.950 . S
C2496 H2488 0.950 . S
C2496 C2497 1.386 . S
C2496 C2498 1.391 . S
C2497 C2496 1.386 . S
C2497 C2501 1.393 . S
C2498 H2490 0.950 . S
C2498 C2496 1.391 . S
C2498 C2499 1.400 . S
C2499 C2498 1.400 . S
C2499 C2500 1.398 . S
C2499 C2505 1.491 . S
C2500 H2491 0.950 . S
C2500 C2499 1.398 . S
C2500 C2501 1.391 . S
C2501 H2489 0.950 . S
C2501 C2497 1.393 . S
C2501 C2500 1.391 . S
C2502 H2492 0.950 . S
C2502 C2503 1.386 . S
C2502 C2504 1.391 . S
C2503 C2502 1.386 . S
C2503 C2507 1.393 . S
C2504 H2493 0.950 . S
C2504 C2502 1.391 . S
C2504 C2505 1.400 . S
C2505 C2499 1.491 . S
C2505 C2504 1.400 . S
C2505 C2506 1.398 . S
C2506 H2494 0.950 . S
C2506 C2505 1.398 . S
C2506 C2507 1.391 . S
C2507 H2495 0.950 . S
C2507 C2503 1.393 . S
C2507 C2506 1.391 . S
H2508 C2516 0.950 . S
H2509 C2521 0.950 . S
H2510 C2518 0.950 . S
H2511 C2520 0.950 . S
H2512 C2522 0.950 . S
H2513 C2524 0.950 . S
H2514 C2526 0.950 . S
H2515 C2527 0.950 . S
C2516 H2508 0.950 . S
C2516 C2517 1.386 1_556 S
C2516 C2518 1.391 . S
C2517 C2516 1.386 1_554 S
C2517 C2521 1.393 . S
C2518 H2510 0.950 . S
C2518 C2516 1.391 . S
C2518 C2519 1.402 1_556 S
C2519 C2518 1.402 1_554 S
C2519 C2520 1.396 . S
C2519 C2525 1.491 1_554 S
C2520 H2511 0.950 . S
C2520 C2519 1.396 . S
C2520 C2521 1.391 . S
C2521 H2509 0.950 . S
C2521 C2517 1.393 . S
C2521 C2520 1.391 . S
C2522 H2512 0.950 . S
C2522 C2523 1.386 1_554 S
C2522 C2524 1.391 . S
C2523 C2522 1.386 1_556 S
C2523 C2527 1.393 . S
C2524 H2513 0.950 . S
C2524 C2522 1.391 . S
C2524 C2525 1.402 1_554 S
C2525 C2519 1.491 1_556 S
C2525 C2524 1.402 1_556 S
C2525 C2526 1.396 . S
C2526 H2514 0.950 . S
C2526 C2525 1.396 . S
C2526 C2527 1.391 . S
C2527 H2515 0.950 . S
C2527 C2523 1.393 . S
C2527 C2526 1.391 . S
H2528 C2536 0.950 . S
H2529 C2541 0.950 . S
H2530 C2538 0.950 . S
H2531 C2540 0.950 . S
H2532 C2542 0.950 . S
H2533 C2544 0.950 . S
H2534 C2546 0.950 . S
H2535 C2547 0.950 . S
C2536 H2528 0.950 . S
C2536 C2537 1.386 . S
C2536 C2538 1.391 . S
C2537 C2536 1.386 . S
C2537 C2541 1.393 . S
C2538 H2530 0.950 . S
C2538 C2536 1.391 . S
C2538 C2539 1.400 . S
C2539 C2538 1.400 . S
C2539 C2540 1.398 . S
C2539 C2545 1.491 . S
C2540 H2531 0.950 . S
C2540 C2539 1.398 . S
C2540 C2541 1.391 . S
C2541 H2529 0.950 . S
C2541 C2537 1.393 . S
C2541 C2540 1.391 . S
C2542 H2532 0.950 . S
C2542 C2543 1.386 . S
C2542 C2544 1.391 . S
C2543 C2542 1.386 . S
C2543 C2547 1.393 . S
C2544 H2533 0.950 . S
C2544 C2542 1.391 . S
C2544 C2545 1.400 . S
C2545 C2539 1.491 . S
C2545 C2544 1.400 . S
C2545 C2546 1.398 . S
C2546 H2534 0.950 . S
C2546 C2545 1.398 . S
C2546 C2547 1.391 . S
C2547 H2535 0.950 . S
C2547 C2543 1.393 . S
C2547 C2546 1.391 . S
H2548 C2556 0.950 . S
H2549 C2561 0.950 . S
H2550 C2558 0.950 . S
H2551 C2560 0.950 . S
H2552 C2562 0.950 . S
H2553 C2564 0.950 . S
H2554 C2566 0.950 . S
H2555 C2567 0.950 . S
C2556 H2548 0.950 . S
C2556 C2557 1.386 . S
C2556 C2558 1.391 . S
C2557 C2556 1.386 . S
C2557 C2561 1.393 1_556 S
C2558 H2550 0.950 . S
C2558 C2556 1.391 . S
C2558 C2559 1.400 . S
C2559 C2558 1.400 . S
C2559 C2560 1.398 1_556 S
C2559 C2565 1.491 . S
C2560 H2551 0.950 . S
C2560 C2559 1.398 1_554 S
C2560 C2561 1.391 . S
C2561 H2549 0.950 . S
C2561 C2557 1.393 1_554 S
C2561 C2560 1.391 . S
C2562 H2552 0.950 . S
C2562 C2563 1.386 1_554 S
C2562 C2564 1.391 . S
C2563 C2562 1.386 1_556 S
C2563 C2567 1.393 . S
C2564 H2553 0.950 . S
C2564 C2562 1.391 . S
C2564 C2565 1.400 1_554 S
C2565 C2559 1.491 . S
C2565 C2564 1.400 1_556 S
C2565 C2566 1.398 . S
C2566 H2554 0.950 . S
C2566 C2565 1.398 . S
C2566 C2567 1.391 . S
C2567 H2555 0.950 . S
C2567 C2563 1.393 . S
C2567 C2566 1.391 . S
H2568 C2576 0.950 . S
H2569 C2581 0.950 . S
H2570 C2578 0.950 . S
H2571 C2580 0.950 . S
H2572 C2582 0.950 . S
H2573 C2584 0.950 . S
H2574 C2586 0.950 . S
H2575 C2587 0.950 . S
C2576 H2568 0.950 . S
C2576 C2577 1.386 . S
C2576 C2578 1.391 . S
C2577 C2576 1.386 . S
C2577 C2581 1.393 . S
C2578 H2570 0.950 . S
C2578 C2576 1.391 . S
C2578 C2579 1.400 . S
C2579 C2578 1.400 . S
C2579 C2580 1.398 . S
C2579 C2585 1.491 . S
C2580 H2571 0.950 . S
C2580 C2579 1.398 . S
C2580 C2581 1.391 . S
C2581 H2569 0.950 . S
C2581 C2577 1.393 . S
C2581 C2580 1.391 . S
C2582 H2572 0.950 . S
C2582 C2583 1.386 . S
C2582 C2584 1.391 . S
C2583 C2582 1.386 . S
C2583 C2587 1.393 . S
C2584 H2573 0.950 . S
C2584 C2582 1.391 . S
C2584 C2585 1.400 . S
C2585 C2579 1.491 . S
C2585 C2584 1.400 . S
C2585 C2586 1.398 . S
C2586 H2574 0.950 . S
C2586 C2585 1.398 . S
C2586 C2587 1.391 . S
C2587 H2575 0.950 . S
C2587 C2583 1.393 . S
C2587 C2586 1.391 . S
H2588 C2596 0.950 . S
H2589 C2601 0.950 . S
H2590 C2598 0.950 . S
H2591 C2600 0.950 . S
H2592 C2602 0.950 . S
H2593 C2604 0.950 . S
H2594 C2606 0.950 . S
H2595 C2607 0.950 . S
C2596 H2588 0.950 . S
C2596 C2597 1.386 . S
C2596 C2598 1.391 . S
C2597 C2596 1.386 . S
C2597 C2601 1.393 1_554 S
C2598 H2590 0.950 . S
C2598 C2596 1.391 . S
C2598 C2599 1.400 . S
C2599 C2598 1.400 . S
C2599 C2600 1.398 1_554 S
C2599 C2605 1.491 . S
C2600 H2591 0.950 . S
C2600 C2599 1.398 1_556 S
C2600 C2601 1.391 . S
C2601 H2589 0.950 . S
C2601 C2597 1.393 1_556 S
C2601 C2600 1.391 . S
C2602 H2592 0.950 . S
C2602 C2603 1.386 1_556 S
C2602 C2604 1.391 . S
C2603 C2602 1.386 1_554 S
C2603 C2607 1.393 . S
C2604 H2593 0.950 . S
C2604 C2602 1.391 . S
C2604 C2605 1.400 1_556 S
C2605 C2599 1.491 . S
C2605 C2604 1.400 1_554 S
C2605 C2606 1.398 . S
C2606 H2594 0.950 . S
C2606 C2605 1.398 . S
C2606 C2607 1.391 . S
C2607 H2595 0.950 . S
C2607 C2603 1.393 . S
C2607 C2606 1.391 . S
H2608 C2616 0.950 . S
H2609 C2621 0.950 . S
H2610 C2618 0.950 . S
H2611 C2620 0.950 . S
H2612 C2622 0.950 . S
H2613 C2624 0.950 . S
H2614 C2626 0.950 . S
H2615 C2627 0.950 . S
C2616 H2608 0.950 . S
C2616 C2617 1.386 . S
C2616 C2618 1.391 . S
C2617 C2616 1.386 . S
C2617 C2621 1.393 . S
C2618 H2610 0.950 . S
C2618 C2616 1.391 . S
C2618 C2619 1.400 . S
C2619 C2618 1.400 . S
C2619 C2620 1.398 . S
C2619 C2625 1.491 . S
C2620 H2611 0.950 . S
C2620 C2619 1.398 . S
C2620 C2621 1.391 . S
C2621 H2609 0.950 . S
C2621 C2617 1.393 . S
C2621 C2620 1.391 . S
C2622 H2612 0.950 . S
C2622 C2623 1.386 . S
C2622 C2624 1.391 . S
C2623 C2622 1.386 . S
C2623 C2627 1.393 . S
C2624 H2613 0.950 . S
C2624 C2622 1.391 . S
C2624 C2625 1.400 . S
C2625 C2619 1.491 . S
C2625 C2624 1.400 . S
C2625 C2626 1.398 . S
C2626 H2614 0.950 . S
C2626 C2625 1.398 . S
C2626 C2627 1.391 . S
C2627 H2615 0.950 . S
C2627 C2623 1.393 . S
C2627 C2626 1.391 . S
H2628 C2636 0.950 . S
H2629 C2641 0.950 . S
H2630 C2638 0.950 . S
H2631 C2640 0.950 . S
H2632 C2642 0.950 . S
H2633 C2644 0.950 . S
H2634 C2646 0.950 . S
H2635 C2647 0.950 . S
C2636 H2628 0.950 . S
C2636 C2637 1.386 . S
C2636 C2638 1.391 . S
C2637 C2636 1.386 . S
C2637 C2641 1.393 . S
C2638 H2630 0.950 . S
C2638 C2636 1.391 . S
C2638 C2639 1.400 . S
C2639 C2638 1.400 . S
C2639 C2640 1.398 . S
C2639 C2645 1.491 . S
C2640 H2631 0.950 . S
C2640 C2639 1.398 . S
C2640 C2641 1.391 . S
C2641 H2629 0.950 . S
C2641 C2637 1.393 . S
C2641 C2640 1.391 . S
C2642 H2632 0.950 . S
C2642 C2643 1.386 . S
C2642 C2644 1.391 . S
C2643 C2642 1.386 . S
C2643 C2647 1.393 . S
C2644 H2633 0.950 . S
C2644 C2642 1.391 . S
C2644 C2645 1.400 . S
C2645 C2639 1.491 . S
C2645 C2644 1.400 . S
C2645 C2646 1.398 . S
C2646 H2634 0.950 . S
C2646 C2645 1.398 . S
C2646 C2647 1.391 . S
C2647 H2635 0.950 . S
C2647 C2643 1.393 . S
C2647 C2646 1.391 . S
H2648 C2656 0.950 . S
H2649 C2661 0.950 . S
H2650 C2658 0.950 . S
H2651 C2660 0.950 . S
H2652 C2662 0.950 . S
H2653 C2664 0.950 . S
H2654 C2666 0.950 . S
H2655 C2667 0.950 . S
C2656 H2648 0.950 . S
C2656 C2657 1.386 . S
C2656 C2658 1.391 . S
C2657 C2656 1.386 . S
C2657 C2661 1.393 . S
C2658 H2650 0.950 . S
C2658 C2656 1.391 . S
C2658 C2659 1.400 . S
C2659 C2658 1.400 . S
C2659 C2660 1.398 . S
C2659 C2665 1.491 . S
C2660 H2651 0.950 . S
C2660 C2659 1.398 . S
C2660 C2661 1.391 . S
C2661 H2649 0.950 . S
C2661 C2657 1.393 . S
C2661 C2660 1.391 . S
C2662 H2652 0.950 . S
C2662 C2663 1.386 . S
C2662 C2664 1.391 . S
C2663 C2662 1.386 . S
C2663 C2667 1.393 . S
C2664 H2653 0.950 . S
C2664 C2662 1.391 . S
C2664 C2665 1.400 . S
C2665 C2659 1.491 . S
C2665 C2664 1.400 . S
C2665 C2666 1.398 . S
C2666 H2654 0.950 . S
C2666 C2665 1.398 . S
C2666 C2667 1.391 . S
C2667 H2655 0.950 . S
C2667 C2663 1.393 . S
C2667 C2666 1.391 . S
H2668 C2676 0.950 . S
H2669 C2681 0.950 . S
H2670 C2678 0.950 . S
H2671 C2680 0.950 . S
H2672 C2682 0.950 . S
H2673 C2684 0.950 . S
H2674 C2686 0.950 . S
H2675 C2687 0.950 . S
C2676 H2668 0.950 . S
C2676 C2677 1.386 . S
C2676 C2678 1.391 . S
C2677 C2676 1.386 . S
C2677 C2681 1.393 . S
C2678 H2670 0.950 . S
C2678 C2676 1.391 . S
C2678 C2679 1.400 . S
C2679 C2678 1.400 . S
C2679 C2680 1.398 . S
C2679 C2685 1.491 . S
C2680 H2671 0.950 . S
C2680 C2679 1.398 . S
C2680 C2681 1.391 . S
C2681 H2669 0.950 . S
C2681 C2677 1.393 . S
C2681 C2680 1.391 . S
C2682 H2672 0.950 . S
C2682 C2683 1.386 . S
C2682 C2684 1.391 . S
C2683 C2682 1.386 . S
C2683 C2687 1.393 . S
C2684 H2673 0.950 . S
C2684 C2682 1.391 . S
C2684 C2685 1.400 . S
C2685 C2679 1.491 . S
C2685 C2684 1.400 . S
C2685 C2686 1.398 . S
C2686 H2674 0.950 . S
C2686 C2685 1.398 . S
C2686 C2687 1.391 . S
C2687 H2675 0.950 . S
C2687 C2683 1.393 . S
C2687 C2686 1.391 . S
H2688 C2696 0.950 . S
H2689 C2701 0.950 . S
H2690 C2698 0.950 . S
H2691 C2700 0.950 . S
H2692 C2702 0.950 . S
H2693 C2704 0.950 . S
H2694 C2706 0.950 . S
H2695 C2707 0.950 . S
C2696 H2688 0.950 . S
C2696 C2697 1.386 . S
C2696 C2698 1.391 . S
C2697 C2696 1.386 . S
C2697 C2701 1.393 . S
C2698 H2690 0.950 . S
C2698 C2696 1.391 . S
C2698 C2699 1.400 . S
C2699 C2698 1.400 . S
C2699 C2700 1.398 . S
C2699 C2705 1.491 . S
C2700 H2691 0.950 . S
C2700 C2699 1.398 . S
C2700 C2701 1.391 . S
C2701 H2689 0.950 . S
C2701 C2697 1.393 . S
C2701 C2700 1.391 . S
C2702 H2692 0.950 . S
C2702 C2703 1.386 . S
C2702 C2704 1.391 . S
C2703 C2702 1.386 . S
C2703 C2707 1.393 . S
C2704 H2693 0.950 . S
C2704 C2702 1.391 . S
C2704 C2705 1.400 . S
C2705 C2699 1.491 . S
C2705 C2704 1.400 . S
C2705 C2706 1.398 . S
C2706 H2694 0.950 . S
C2706 C2705 1.398 . S
C2706 C2707 1.391 . S
C2707 H2695 0.950 . S
C2707 C2703 1.393 . S
C2707 C2706 1.391 . S
H2708 C2716 0.950 . S
H2709 C2721 0.950 . S
H2710 C2718 0.950 . S
H2711 C2720 0.950 . S
H2712 C2722 0.950 . S
H2713 C2724 0.950 . S
H2714 C2726 0.950 . S
H2715 C2727 0.950 . S
C2716 H2708 0.950 . S
C2716 C2717 1.386 . S
C2716 C2718 1.391 . S
C2717 C2716 1.386 . S
C2717 C2721 1.393 . S
C2718 H2710 0.950 . S
C2718 C2716 1.391 . S
C2718 C2719 1.400 . S
C2719 C2718 1.400 . S
C2719 C2720 1.398 . S
C2719 C2725 1.491 . S
C2720 H2711 0.950 . S
C2720 C2719 1.398 . S
C2720 C2721 1.391 . S
C2721 H2709 0.950 . S
C2721 C2717 1.393 . S
C2721 C2720 1.391 . S
C2722 H2712 0.950 . S
C2722 C2723 1.386 . S
C2722 C2724 1.391 . S
C2723 C2722 1.386 . S
C2723 C2727 1.393 . S
C2724 H2713 0.950 . S
C2724 C2722 1.391 . S
C2724 C2725 1.400 . S
C2725 C2719 1.491 . S
C2725 C2724 1.400 . S
C2725 C2726 1.398 . S
C2726 H2714 0.950 . S
C2726 C2725 1.398 . S
C2726 C2727 1.391 . S
C2727 H2715 0.950 . S
C2727 C2723 1.393 . S
C2727 C2726 1.391 . S
H2728 C2736 0.950 . S
H2729 C2741 0.950 . S
H2730 C2738 0.950 . S
H2731 C2740 0.950 . S
H2732 C2742 0.950 . S
H2733 C2744 0.950 . S
H2734 C2746 0.950 . S
H2735 C2747 0.950 . S
C2736 H2728 0.950 . S
C2736 C2737 1.386 . S
C2736 C2738 1.391 . S
C2737 C2736 1.386 . S
C2737 C2741 1.393 . S
C2738 H2730 0.950 . S
C2738 C2736 1.391 . S
C2738 C2739 1.400 . S
C2739 C2738 1.400 . S
C2739 C2740 1.398 . S
C2739 C2745 1.491 . S
C2740 H2731 0.950 . S
C2740 C2739 1.398 . S
C2740 C2741 1.391 . S
C2741 H2729 0.950 . S
C2741 C2737 1.393 . S
C2741 C2740 1.391 . S
C2742 H2732 0.950 . S
C2742 C2743 1.386 . S
C2742 C2744 1.391 . S
C2743 C2742 1.386 . S
C2743 C2747 1.393 . S
C2744 H2733 0.950 . S
C2744 C2742 1.391 . S
C2744 C2745 1.400 . S
C2745 C2739 1.491 . S
C2745 C2744 1.400 . S
C2745 C2746 1.398 . S
C2746 H2734 0.950 . S
C2746 C2745 1.398 . S
C2746 C2747 1.391 . S
C2747 H2735 0.950 . S
C2747 C2743 1.393 . S
C2747 C2746 1.391 . S
H2748 C2756 0.950 . S
H2749 C2761 0.950 . S
H2750 C2758 0.950 . S
H2751 C2760 0.950 . S
H2752 C2762 0.950 . S
H2753 C2764 0.950 . S
H2754 C2766 0.950 . S
H2755 C2767 0.950 . S
C2756 H2748 0.950 . S
C2756 C2757 1.386 . S
C2756 C2758 1.391 . S
C2757 C2756 1.386 . S
C2757 C2761 1.393 . S
C2758 H2750 0.950 . S
C2758 C2756 1.391 . S
C2758 C2759 1.400 . S
C2759 C2758 1.400 . S
C2759 C2760 1.398 . S
C2759 C2765 1.491 . S
C2760 H2751 0.950 . S
C2760 C2759 1.398 . S
C2760 C2761 1.391 . S
C2761 H2749 0.950 . S
C2761 C2757 1.393 . S
C2761 C2760 1.391 . S
C2762 H2752 0.950 . S
C2762 C2763 1.386 . S
C2762 C2764 1.391 . S
C2763 C2762 1.386 . S
C2763 C2767 1.393 . S
C2764 H2753 0.950 . S
C2764 C2762 1.391 . S
C2764 C2765 1.400 . S
C2765 C2759 1.491 . S
C2765 C2764 1.400 . S
C2765 C2766 1.398 . S
C2766 H2754 0.950 . S
C2766 C2765 1.398 . S
C2766 C2767 1.391 . S
C2767 H2755 0.950 . S
C2767 C2763 1.393 . S
C2767 C2766 1.391 . S
H2768 C2776 0.950 . S
H2769 C2781 0.950 . S
H2770 C2778 0.950 . S
H2771 C2780 0.950 . S
H2772 C2782 0.950 . S
H2773 C2784 0.950 . S
H2774 C2786 0.950 . S
H2775 C2787 0.950 . S
C2776 H2768 0.950 . S
C2776 C2777 1.386 . S
C2776 C2778 1.391 . S
C2777 C2776 1.386 . S
C2777 C2781 1.393 . S
C2778 H2770 0.950 . S
C2778 C2776 1.391 . S
C2778 C2779 1.400 . S
C2779 C2778 1.400 . S
C2779 C2780 1.398 . S
C2779 C2785 1.491 . S
C2780 H2771 0.950 . S
C2780 C2779 1.398 . S
C2780 C2781 1.391 . S
C2781 H2769 0.950 . S
C2781 C2777 1.393 . S
C2781 C2780 1.391 . S
C2782 H2772 0.950 . S
C2782 C2783 1.386 . S
C2782 C2784 1.391 . S
C2783 C2782 1.386 . S
C2783 C2787 1.393 . S
C2784 H2773 0.950 . S
C2784 C2782 1.391 . S
C2784 C2785 1.400 . S
C2785 C2779 1.491 . S
C2785 C2784 1.400 . S
C2785 C2786 1.398 . S
C2786 H2774 0.950 . S
C2786 C2785 1.398 . S
C2786 C2787 1.391 . S
C2787 H2775 0.950 . S
C2787 C2783 1.393 . S
C2787 C2786 1.391 . S
H2788 C2796 0.950 . S
H2789 C2801 0.950 . S
H2790 C2798 0.950 . S
H2791 C2800 0.950 . S
H2792 C2802 0.950 . S
H2793 C2804 0.950 . S
H2794 C2806 0.950 . S
H2795 C2807 0.950 . S
C2796 H2788 0.950 . S
C2796 C2797 1.386 1_554 S
C2796 C2798 1.391 . S
C2797 C2796 1.386 1_556 S
C2797 C2801 1.393 . S
C2798 H2790 0.950 . S
C2798 C2796 1.391 . S
C2798 C2799 1.400 1_554 S
C2799 C2798 1.400 1_556 S
C2799 C2800 1.398 . S
C2799 C2805 1.491 . S
C2800 H2791 0.950 . S
C2800 C2799 1.398 . S
C2800 C2801 1.391 . S
C2801 H2789 0.950 . S
C2801 C2797 1.393 . S
C2801 C2800 1.391 . S
C2802 H2792 0.950 . S
C2802 C2803 1.386 . S
C2802 C2804 1.391 . S
C2803 C2802 1.386 . S
C2803 C2807 1.393 1_556 S
C2804 H2793 0.950 . S
C2804 C2802 1.391 . S
C2804 C2805 1.400 . S
C2805 C2799 1.491 . S
C2805 C2804 1.400 . S
C2805 C2806 1.398 1_556 S
C2806 H2794 0.950 . S
C2806 C2805 1.398 1_554 S
C2806 C2807 1.391 . S
C2807 H2795 0.950 . S
C2807 C2803 1.393 1_554 S
C2807 C2806 1.391 . S
H2808 C2816 0.950 . S
H2809 C2821 0.950 . S
H2810 C2818 0.950 . S
H2811 C2820 0.950 . S
H2812 C2822 0.950 . S
H2813 C2824 0.950 . S
H2814 C2826 0.950 . S
H2815 C2827 0.950 . S
C2816 H2808 0.950 . S
C2816 C2817 1.386 . S
C2816 C2818 1.391 . S
C2817 C2816 1.386 . S
C2817 C2821 1.393 . S
C2818 H2810 0.950 . S
C2818 C2816 1.391 . S
C2818 C2819 1.400 . S
C2819 C2818 1.400 . S
C2819 C2820 1.398 . S
C2819 C2825 1.491 . S
C2820 H2811 0.950 . S
C2820 C2819 1.398 . S
C2820 C2821 1.391 . S
C2821 H2809 0.950 . S
C2821 C2817 1.393 . S
C2821 C2820 1.391 . S
C2822 H2812 0.950 . S
C2822 C2823 1.386 . S
C2822 C2824 1.391 . S
C2823 C2822 1.386 . S
C2823 C2827 1.393 . S
C2824 H2813 0.950 . S
C2824 C2822 1.391 . S
C2824 C2825 1.400 . S
C2825 C2819 1.491 . S
C2825 C2824 1.400 . S
C2825 C2826 1.398 . S
C2826 H2814 0.950 . S
C2826 C2825 1.398 . S
C2826 C2827 1.391 . S
C2827 H2815 0.950 . S
C2827 C2823 1.393 . S
C2827 C2826 1.391 . S
H2828 C2836 0.950 . S
H2829 C2841 0.950 . S
H2830 C2838 0.950 . S
H2831 C2840 0.950 . S
H2832 C2842 0.950 . S
H2833 C2844 0.950 . S
H2834 C2846 0.950 . S
H2835 C2847 0.950 . S
C2836 H2828 0.950 . S
C2836 C2837 1.386 . S
C2836 C2838 1.391 . S
C2837 C2836 1.386 . S
C2837 C2841 1.393 1_554 S
C2838 H2830 0.950 . S
C2838 C2836 1.391 . S
C2838 C2839 1.400 . S
C2839 C2838 1.400 . S
C2839 C2840 1.398 1_554 S
C2839 C2845 1.491 . S
C2840 H2831 0.950 . S
C2840 C2839 1.398 1_556 S
C2840 C2841 1.391 . S
C2841 H2829 0.950 . S
C2841 C2837 1.393 1_556 S
C2841 C2840 1.391 . S
C2842 H2832 0.950 . S
C2842 C2843 1.386 1_556 S
C2842 C2844 1.391 . S
C2843 C2842 1.386 1_554 S
C2843 C2847 1.393 . S
C2844 H2833 0.950 . S
C2844 C2842 1.391 . S
C2844 C2845 1.400 1_556 S
C2845 C2839 1.491 . S
C2845 C2844 1.400 1_554 S
C2845 C2846 1.398 . S
C2846 H2834 0.950 . S
C2846 C2845 1.398 . S
C2846 C2847 1.391 . S
C2847 H2835 0.950 . S
C2847 C2843 1.393 . S
C2847 C2846 1.391 . S
H2848 C2856 0.937 1_455 S
H2849 C2861 0.950 . S
H2850 C2858 0.950 . S
H2851 C2860 0.950 . S
H2852 C2862 0.950 . S
H2853 C2864 0.950 . S
H2854 C2866 0.950 . S
H2855 C2867 0.950 . S
C2856 H2848 0.937 1_655 S
C2856 C2857 1.386 . S
C2856 C2858 1.391 . S
C2857 C2856 1.386 . S
C2857 C2861 1.393 . S
C2858 H2850 0.950 . S
C2858 C2856 1.391 . S
C2858 C2859 1.400 . S
C2859 C2858 1.400 . S
C2859 C2860 1.398 . S
C2859 C2865 1.491 . S
C2860 H2851 0.950 . S
C2860 C2859 1.398 . S
C2860 C2861 1.391 . S
C2861 H2849 0.950 . S
C2861 C2857 1.393 . S
C2861 C2860 1.391 . S
C2862 H2852 0.950 . S
C2862 C2863 1.386 . S
C2862 C2864 1.391 . S
C2863 C2862 1.386 . S
C2863 C2867 1.393 . S
C2864 H2853 0.950 . S
C2864 C2862 1.391 . S
C2864 C2865 1.400 . S
C2865 C2859 1.491 . S
C2865 C2864 1.400 . S
C2865 C2866 1.398 . S
C2866 H2854 0.950 . S
C2866 C2865 1.398 . S
C2866 C2867 1.391 . S
C2867 H2855 0.950 . S
C2867 C2863 1.393 . S
C2867 C2866 1.391 . S
H2868 C2876 0.950 . S
H2869 C2881 0.950 . S
H2870 C2878 0.950 . S
H2871 C2880 0.950 . S
H2872 C2882 0.950 . S
H2873 C2884 0.950 . S
H2874 C2886 0.950 . S
H2875 C2887 0.950 . S
C2876 H2868 0.950 . S
C2876 C2877 1.386 . S
C2876 C2878 1.391 . S
C2877 C2876 1.386 . S
C2877 C2881 1.393 . S
C2878 H2870 0.950 . S
C2878 C2876 1.391 . S
C2878 C2879 1.400 . S
C2879 C2878 1.400 . S
C2879 C2880 1.398 . S
C2879 C2885 1.491 . S
C2880 H2871 0.950 . S
C2880 C2879 1.398 . S
C2880 C2881 1.391 . S
C2881 H2869 0.950 . S
C2881 C2877 1.393 . S
C2881 C2880 1.391 . S
C2882 H2872 0.950 . S
C2882 C2883 1.386 . S
C2882 C2884 1.391 . S
C2883 C2882 1.386 . S
C2883 C2887 1.393 . S
C2884 H2873 0.950 . S
C2884 C2882 1.391 . S
C2884 C2885 1.400 . S
C2885 C2879 1.491 . S
C2885 C2884 1.400 . S
C2885 C2886 1.398 . S
C2886 H2874 0.950 . S
C2886 C2885 1.398 . S
C2886 C2887 1.391 . S
C2887 H2875 0.950 . S
C2887 C2883 1.393 . S
C2887 C2886 1.391 . S
H2888 C2896 0.950 . S
H2889 C2901 0.950 . S
H2890 C2898 0.950 . S
H2891 C2900 0.950 . S
H2892 C2902 0.950 . S
H2893 C2904 0.950 . S
H2894 C2906 0.950 . S
H2895 C2907 0.950 . S
C2896 H2888 0.950 . S
C2896 C2897 1.386 . S
C2896 C2898 1.391 . S
C2897 C2896 1.386 . S
C2897 C2901 1.393 . S
C2898 H2890 0.950 . S
C2898 C2896 1.391 . S
C2898 C2899 1.400 . S
C2899 C2898 1.400 . S
C2899 C2900 1.398 . S
C2899 C2905 1.491 . S
C2900 H2891 0.950 . S
C2900 C2899 1.398 . S
C2900 C2901 1.391 . S
C2901 H2889 0.950 . S
C2901 C2897 1.393 . S
C2901 C2900 1.391 . S
C2902 H2892 0.950 . S
C2902 C2903 1.386 . S
C2902 C2904 1.391 . S
C2903 C2902 1.386 . S
C2903 C2907 1.393 . S
C2904 H2893 0.950 . S
C2904 C2902 1.391 . S
C2904 C2905 1.400 . S
C2905 C2899 1.491 . S
C2905 C2904 1.400 . S
C2905 C2906 1.398 . S
C2906 H2894 0.950 . S
C2906 C2905 1.398 . S
C2906 C2907 1.391 . S
C2907 H2895 0.950 . S
C2907 C2903 1.393 . S
C2907 C2906 1.391 . S
H2908 C2916 0.950 . S
H2909 C2921 0.950 . S
H2910 C2918 0.950 . S
H2911 C2920 0.950 . S
H2912 C2922 0.950 . S
H2913 C2924 0.950 . S
H2914 C2926 0.950 . S
H2915 C2927 0.950 . S
C2916 H2908 0.950 . S
C2916 C2917 1.386 . S
C2916 C2918 1.391 . S
C2917 C2916 1.386 . S
C2917 C2921 1.393 . S
C2918 H2910 0.950 . S
C2918 C2916 1.391 . S
C2918 C2919 1.400 . S
C2919 C2918 1.400 . S
C2919 C2920 1.398 . S
C2919 C2925 1.491 . S
C2920 H2911 0.950 . S
C2920 C2919 1.398 . S
C2920 C2921 1.391 . S
C2921 H2909 0.950 . S
C2921 C2917 1.393 . S
C2921 C2920 1.391 . S
C2922 H2912 0.950 . S
C2922 C2923 1.386 . S
C2922 C2924 1.391 . S
C2923 C2922 1.386 . S
C2923 C2927 1.393 . S
C2924 H2913 0.950 . S
C2924 C2922 1.391 . S
C2924 C2925 1.400 . S
C2925 C2919 1.491 . S
C2925 C2924 1.400 . S
C2925 C2926 1.398 . S
C2926 H2914 0.950 . S
C2926 C2925 1.398 . S
C2926 C2927 1.391 . S
C2927 H2915 0.950 . S
C2927 C2923 1.393 . S
C2927 C2926 1.391 . S
H2928 C2936 0.950 . S
H2929 C2941 0.950 . S
H2930 C2938 0.950 . S
H2931 C2940 0.950 . S
H2932 C2942 0.950 . S
H2933 C2944 0.950 . S
H2934 C2946 0.950 . S
H2935 C2947 0.950 . S
C2936 H2928 0.950 . S
C2936 C2937 1.386 . S
C2936 C2938 1.391 . S
C2937 C2936 1.386 . S
C2937 C2941 1.393 . S
C2938 H2930 0.950 . S
C2938 C2936 1.391 . S
C2938 C2939 1.400 . S
C2939 C2938 1.400 . S
C2939 C2940 1.398 . S
C2939 C2945 1.491 . S
C2940 H2931 0.950 . S
C2940 C2939 1.398 . S
C2940 C2941 1.391 . S
C2941 H2929 0.950 . S
C2941 C2937 1.393 . S
C2941 C2940 1.391 . S
C2942 H2932 0.950 . S
C2942 C2943 1.386 . S
C2942 C2944 1.391 . S
C2943 C2942 1.386 . S
C2943 C2947 1.393 . S
C2944 H2933 0.950 . S
C2944 C2942 1.391 . S
C2944 C2945 1.400 . S
C2945 C2939 1.491 . S
C2945 C2944 1.400 . S
C2945 C2946 1.398 . S
C2946 H2934 0.950 . S
C2946 C2945 1.398 . S
C2946 C2947 1.391 . S
C2947 H2935 0.950 . S
C2947 C2943 1.393 . S
C2947 C2946 1.391 . S
H2948 C2956 0.950 . S
H2949 C2961 0.950 . S
H2950 C2958 0.950 . S
H2951 C2960 0.950 . S
H2952 C2962 0.950 . S
H2953 C2964 0.950 . S
H2954 C2966 0.950 . S
H2955 C2967 0.950 . S
C2956 H2948 0.950 . S
C2956 C2957 1.386 . S
C2956 C2958 1.391 . S
C2957 C2956 1.386 . S
C2957 C2961 1.393 . S
C2958 H2950 0.950 . S
C2958 C2956 1.391 . S
C2958 C2959 1.400 . S
C2959 C2958 1.400 . S
C2959 C2960 1.398 . S
C2959 C2965 1.491 . S
C2960 H2951 0.950 . S
C2960 C2959 1.398 . S
C2960 C2961 1.391 . S
C2961 H2949 0.950 . S
C2961 C2957 1.393 . S
C2961 C2960 1.391 . S
C2962 H2952 0.950 . S
C2962 C2963 1.386 . S
C2962 C2964 1.391 . S
C2963 C2962 1.386 . S
C2963 C2967 1.393 . S
C2964 H2953 0.950 . S
C2964 C2962 1.391 . S
C2964 C2965 1.400 . S
C2965 C2959 1.491 . S
C2965 C2964 1.400 . S
C2965 C2966 1.398 . S
C2966 H2954 0.950 . S
C2966 C2965 1.398 . S
C2966 C2967 1.391 . S
C2967 H2955 0.950 . S
C2967 C2963 1.393 . S
C2967 C2966 1.391 . S
H2968 C2976 0.950 . S
H2969 C2981 0.950 . S
H2970 C2978 0.950 . S
H2971 C2980 0.950 . S
H2972 C2982 0.950 1_655 S
H2973 C2984 0.950 . S
H2974 C2986 0.950 . S
H2975 C2987 0.950 . S
C2976 H2968 0.950 . S
C2976 C2977 1.386 . S
C2976 C2978 1.391 . S
C2977 C2976 1.386 . S
C2977 C2981 1.393 . S
C2978 H2970 0.950 . S
C2978 C2976 1.391 . S
C2978 C2979 1.400 . S
C2979 C2978 1.400 . S
C2979 C2980 1.398 . S
C2979 C2985 1.491 . S
C2980 H2971 0.950 . S
C2980 C2979 1.398 . S
C2980 C2981 1.391 . S
C2981 H2969 0.950 . S
C2981 C2977 1.393 . S
C2981 C2980 1.391 . S
C2982 H2972 0.950 1_455 S
C2982 C2983 1.386 . S
C2982 C2984 1.391 . S
C2983 C2982 1.386 . S
C2983 C2987 1.393 . S
C2984 H2973 0.950 . S
C2984 C2982 1.391 . S
C2984 C2985 1.400 . S
C2985 C2979 1.491 . S
C2985 C2984 1.400 . S
C2985 C2986 1.398 . S
C2986 H2974 0.950 . S
C2986 C2985 1.398 . S
C2986 C2987 1.391 . S
C2987 H2975 0.950 . S
C2987 C2983 1.393 . S
C2987 C2986 1.391 . S
H2988 C2996 0.950 . S
H2989 C3001 0.950 . S
H2990 C2998 0.950 . S
H2991 C3000 0.950 . S
H2992 C3002 0.950 . S
H2993 C3004 0.950 . S
H2994 C3006 0.950 . S
H2995 C3007 0.950 . S
C2996 H2988 0.950 . S
C2996 C2997 1.386 . S
C2996 C2998 1.391 . S
C2997 C2996 1.386 . S
C2997 C3001 1.393 . S
C2998 H2990 0.950 . S
C2998 C2996 1.391 . S
C2998 C2999 1.400 . S
C2999 C2998 1.400 . S
C2999 C3000 1.398 . S
C2999 C3005 1.491 . S
C3000 H2991 0.950 . S
C3000 C2999 1.398 . S
C3000 C3001 1.391 . S
C3001 H2989 0.950 . S
C3001 C2997 1.393 . S
C3001 C3000 1.391 . S
C3002 H2992 0.950 . S
C3002 C3003 1.386 . S
C3002 C3004 1.391 . S
C3003 C3002 1.386 . S
C3003 C3007 1.393 . S
C3004 H2993 0.950 . S
C3004 C3002 1.391 . S
C3004 C3005 1.400 . S
C3005 C2999 1.491 . S
C3005 C3004 1.400 . S
C3005 C3006 1.398 . S
C3006 H2994 0.950 . S
C3006 C3005 1.398 . S
C3006 C3007 1.391 . S
C3007 H2995 0.950 . S
C3007 C3003 1.393 . S
C3007 C3006 1.391 . S
H3008 C3016 0.950 1_455 S
H3009 C3021 0.950 . S
H3010 C3018 0.950 . S
H3011 C3020 0.950 . S
H3012 C3022 0.950 . S
H3013 C3024 0.950 . S
H3014 C3026 0.950 . S
H3015 C3027 0.950 . S
C3016 H3008 0.950 1_655 S
C3016 C3017 1.386 . S
C3016 C3018 1.391 . S
C3017 C3016 1.386 . S
C3017 C3021 1.393 . S
C3018 H3010 0.950 . S
C3018 C3016 1.391 . S
C3018 C3019 1.400 . S
C3019 C3018 1.400 . S
C3019 C3020 1.398 . S
C3019 C3025 1.491 . S
C3020 H3011 0.950 . S
C3020 C3019 1.398 . S
C3020 C3021 1.391 . S
C3021 H3009 0.950 . S
C3021 C3017 1.393 . S
C3021 C3020 1.391 . S
C3022 H3012 0.950 . S
C3022 C3023 1.386 . S
C3022 C3024 1.391 . S
C3023 C3022 1.386 . S
C3023 C3027 1.393 . S
C3024 H3013 0.950 . S
C3024 C3022 1.391 . S
C3024 C3025 1.400 . S
C3025 C3019 1.491 . S
C3025 C3024 1.400 . S
C3025 C3026 1.398 . S
C3026 H3014 0.950 . S
C3026 C3025 1.398 . S
C3026 C3027 1.391 . S
C3027 H3015 0.950 . S
C3027 C3023 1.393 . S
C3027 C3026 1.391 . S
H3028 C3036 0.950 . S
H3029 C3041 0.950 . S
H3030 C3038 0.950 . S
H3031 C3040 0.950 . S
H3032 C3042 0.950 . S
H3033 C3044 0.950 . S
H3034 C3046 0.950 . S
H3035 C3047 0.950 . S
C3036 H3028 0.950 . S
C3036 C3037 1.386 . S
C3036 C3038 1.391 . S
C3037 C3036 1.386 . S
C3037 C3041 1.393 . S
C3038 H3030 0.950 . S
C3038 C3036 1.391 . S
C3038 C3039 1.400 . S
C3039 C3038 1.400 . S
C3039 C3040 1.398 . S
C3039 C3045 1.491 . S
C3040 H3031 0.950 . S
C3040 C3039 1.398 . S
C3040 C3041 1.391 . S
C3041 H3029 0.950 . S
C3041 C3037 1.393 . S
C3041 C3040 1.391 . S
C3042 H3032 0.950 . S
C3042 C3043 1.386 . S
C3042 C3044 1.391 . S
C3043 C3042 1.386 . S
C3043 C3047 1.393 . S
C3044 H3033 0.950 . S
C3044 C3042 1.391 . S
C3044 C3045 1.400 . S
C3045 C3039 1.491 . S
C3045 C3044 1.400 . S
C3045 C3046 1.398 . S
C3046 H3034 0.950 . S
C3046 C3045 1.398 . S
C3046 C3047 1.391 . S
C3047 H3035 0.950 . S
C3047 C3043 1.393 . S
C3047 C3046 1.391 . S
H3048 C3056 0.950 1_455 S
H3049 C3061 0.950 . S
H3050 C3058 0.950 . S
H3051 C3060 0.950 . S
H3052 C3062 0.950 . S
H3053 C3064 0.950 . S
H3054 C3066 0.950 . S
H3055 C3067 0.950 . S
C3056 H3048 0.950 1_655 S
C3056 C3057 1.386 . S
C3056 C3058 1.391 . S
C3057 C3056 1.386 . S
C3057 C3061 1.393 . S
C3058 H3050 0.950 . S
C3058 C3056 1.391 . S
C3058 C3059 1.400 . S
C3059 C3058 1.400 . S
C3059 C3060 1.398 . S
C3059 C3065 1.491 . S
C3060 H3051 0.950 . S
C3060 C3059 1.398 . S
C3060 C3061 1.391 . S
C3061 H3049 0.950 . S
C3061 C3057 1.393 . S
C3061 C3060 1.391 . S
C3062 H3052 0.950 . S
C3062 C3063 1.386 . S
C3062 C3064 1.391 . S
C3063 C3062 1.386 . S
C3063 C3067 1.393 . S
C3064 H3053 0.950 . S
C3064 C3062 1.391 . S
C3064 C3065 1.400 . S
C3065 C3059 1.491 . S
C3065 C3064 1.400 . S
C3065 C3066 1.398 . S
C3066 H3054 0.950 . S
C3066 C3065 1.398 . S
C3066 C3067 1.391 . S
C3067 H3055 0.950 . S
C3067 C3063 1.393 . S
C3067 C3066 1.391 . S
H3068 C3076 0.950 . S
H3069 C3081 0.950 . S
H3070 C3078 0.950 . S
H3071 C3080 0.950 . S
H3072 C3082 0.950 . S
H3073 C3084 0.950 . S
H3074 C3086 0.950 . S
H3075 C3087 0.950 . S
C3076 H3068 0.950 . S
C3076 C3077 1.386 . S
C3076 C3078 1.391 . S
C3077 C3076 1.386 . S
C3077 C3081 1.393 . S
C3078 H3070 0.950 . S
C3078 C3076 1.391 . S
C3078 C3079 1.400 . S
C3079 C3078 1.400 . S
C3079 C3080 1.398 . S
C3079 C3085 1.491 . S
C3080 H3071 0.950 . S
C3080 C3079 1.398 . S
C3080 C3081 1.391 . S
C3081 H3069 0.950 . S
C3081 C3077 1.393 . S
C3081 C3080 1.391 . S
C3082 H3072 0.950 . S
C3082 C3083 1.386 . S
C3082 C3084 1.391 . S
C3083 C3082 1.386 . S
C3083 C3087 1.393 . S
C3084 H3073 0.950 . S
C3084 C3082 1.391 . S
C3084 C3085 1.400 . S
C3085 C3079 1.491 . S
C3085 C3084 1.400 . S
C3085 C3086 1.398 . S
C3086 H3074 0.950 . S
C3086 C3085 1.398 . S
C3086 C3087 1.391 . S
C3087 H3075 0.950 . S
C3087 C3083 1.393 . S
C3087 C3086 1.391 . S
H3088 C3096 0.950 . S
H3089 C3101 0.950 1_655 S
H3090 C3098 0.950 . S
H3091 C3100 0.950 . S
H3092 C3102 0.950 . S
H3093 C3104 0.950 . S
H3094 C3106 0.950 . S
H3095 C3107 0.950 . S
C3096 H3088 0.950 . S
C3096 C3097 1.386 . S
C3096 C3098 1.391 . S
C3097 C3096 1.386 . S
C3097 C3101 1.393 . S
C3098 H3090 0.950 . S
C3098 C3096 1.391 . S
C3098 C3099 1.400 . S
C3099 C3098 1.400 . S
C3099 C3100 1.398 . S
C3099 C3105 1.491 . S
C3100 H3091 0.950 . S
C3100 C3099 1.398 . S
C3100 C3101 1.391 . S
C3101 H3089 0.950 1_455 S
C3101 C3097 1.393 . S
C3101 C3100 1.391 . S
C3102 H3092 0.950 . S
C3102 C3103 1.386 . S
C3102 C3104 1.391 . S
C3103 C3102 1.386 . S
C3103 C3107 1.393 . S
C3104 H3093 0.950 . S
C3104 C3102 1.391 . S
C3104 C3105 1.400 . S
C3105 C3099 1.491 . S
C3105 C3104 1.400 . S
C3105 C3106 1.398 . S
C3106 H3094 0.950 . S
C3106 C3105 1.398 . S
C3106 C3107 1.391 . S
C3107 H3095 0.950 . S
C3107 C3103 1.393 . S
C3107 C3106 1.391 . S
H3108 C3116 0.950 . S
H3109 C3121 0.950 . S
H3110 C3118 0.950 . S
H3111 C3120 0.950 . S
H3112 C3122 0.950 . S
H3113 C3124 0.950 . S
H3114 C3126 0.950 . S
H3115 C3127 0.950 . S
C3116 H3108 0.950 . S
C3116 C3117 1.386 . S
C3116 C3118 1.391 . S
C3117 C3116 1.386 . S
C3117 C3121 1.393 . S
C3118 H3110 0.950 . S
C3118 C3116 1.391 . S
C3118 C3119 1.400 . S
C3119 C3118 1.400 . S
C3119 C3120 1.398 . S
C3119 C3125 1.491 . S
C3120 H3111 0.950 . S
C3120 C3119 1.398 . S
C3120 C3121 1.391 . S
C3121 H3109 0.950 . S
C3121 C3117 1.393 . S
C3121 C3120 1.391 . S
C3122 H3112 0.950 . S
C3122 C3123 1.386 . S
C3122 C3124 1.391 . S
C3123 C3122 1.386 . S
C3123 C3127 1.393 . S
C3124 H3113 0.950 . S
C3124 C3122 1.391 . S
C3124 C3125 1.400 . S
C3125 C3119 1.491 . S
C3125 C3124 1.400 . S
C3125 C3126 1.398 . S
C3126 H3114 0.950 . S
C3126 C3125 1.398 . S
C3126 C3127 1.391 . S
C3127 H3115 0.950 . S
C3127 C3123 1.393 . S
C3127 C3126 1.391 . S
H3128 C3136 0.950 . S
H3129 C3141 0.950 . S
H3130 C3138 0.950 . S
H3131 C3140 0.950 . S
H3132 C3142 0.950 . S
H3133 C3144 0.950 . S
H3134 C3146 0.950 . S
H3135 C3147 0.950 . S
C3136 H3128 0.950 . S
C3136 C3137 1.386 . S
C3136 C3138 1.391 . S
C3137 C3136 1.386 . S
C3137 C3141 1.393 . S
C3138 H3130 0.950 . S
C3138 C3136 1.391 . S
C3138 C3139 1.400 . S
C3139 C3138 1.400 . S
C3139 C3140 1.398 . S
C3139 C3145 1.491 . S
C3140 H3131 0.950 . S
C3140 C3139 1.398 . S
C3140 C3141 1.391 . S
C3141 H3129 0.950 . S
C3141 C3137 1.393 . S
C3141 C3140 1.391 . S
C3142 H3132 0.950 . S
C3142 C3143 1.386 . S
C3142 C3144 1.391 . S
C3143 C3142 1.386 . S
C3143 C3147 1.393 . S
C3144 H3133 0.950 . S
C3144 C3142 1.391 . S
C3144 C3145 1.400 . S
C3145 C3139 1.491 . S
C3145 C3144 1.400 . S
C3145 C3146 1.398 . S
C3146 H3134 0.950 . S
C3146 C3145 1.398 . S
C3146 C3147 1.391 . S
C3147 H3135 0.950 . S
C3147 C3143 1.393 . S
C3147 C3146 1.391 . S
H3148 C3156 0.950 . S
H3149 C3161 0.950 . S
H3150 C3158 0.950 . S
H3151 C3160 0.950 . S
H3152 C3162 0.950 . S
H3153 C3164 0.950 . S
H3154 C3166 0.950 . S
H3155 C3167 0.950 . S
C3156 H3148 0.950 . S
C3156 C3157 1.386 . S
C3156 C3158 1.391 . S
C3157 C3156 1.386 . S
C3157 C3161 1.393 . S
C3158 H3150 0.950 . S
C3158 C3156 1.391 . S
C3158 C3159 1.400 . S
C3159 C3158 1.400 . S
C3159 C3160 1.398 . S
C3159 C3165 1.491 . S
C3160 H3151 0.950 . S
C3160 C3159 1.398 . S
C3160 C3161 1.391 . S
C3161 H3149 0.950 . S
C3161 C3157 1.393 . S
C3161 C3160 1.391 . S
C3162 H3152 0.950 . S
C3162 C3163 1.386 . S
C3162 C3164 1.391 . S
C3163 C3162 1.386 . S
C3163 C3167 1.393 . S
C3164 H3153 0.950 . S
C3164 C3162 1.391 . S
C3164 C3165 1.400 . S
C3165 C3159 1.491 . S
C3165 C3164 1.400 . S
C3165 C3166 1.398 . S
C3166 H3154 0.950 . S
C3166 C3165 1.398 . S
C3166 C3167 1.391 . S
C3167 H3155 0.950 . S
C3167 C3163 1.393 . S
C3167 C3166 1.391 . S
C1897 C229 1.278 . S
C1903 C52 1.271 . S
C1917 C170 1.277 . S
C1923 C111 1.276 . S
C1937 C465 1.268 . S
C1943 C288 1.260 . S
C1957 C406 1.268 . S
C1963 C347 1.277 . S
C1977 C524 1.264 . S
C1983 C701 1.274 . S
C1997 C583 1.277 . S
C2003 C642 1.269 . S
C2017 C937 1.264 . S
C2023 C760 1.259 . S
C2037 C819 1.268 . S
C2043 C878 1.259 . S
C2057 C996 1.267 . S
C2063 C1173 1.276 . S
C2077 C1055 1.260 . S
C2083 C1114 1.270 . S
C2097 C1409 1.276 . S
C2103 C1232 1.266 . S
C2117 C1350 1.260 . S
C2123 C1291 1.260 . S
C2137 C1645 1.276 . S
C2143 C1468 1.266 . S
C2157 C1527 1.269 . S
C2163 C1586 1.277 . S
C2177 C1704 1.275 . S
C2183 C1881 1.277 . S
C2197 C1763 1.270 . S
C2203 C1822 1.260 . S
C2217 C1213 1.426 . S
C2223 C33 1.426 . S
C2237 C800 1.432 . S
C2243 C92 1.432 . S
C2257 C151 1.427 . S
C2263 C1803 1.426 . S
C2277 C210 1.429 . S
C2283 C446 1.429 . S
C2297 C977 1.428 . S
C2303 C269 1.428 . S
C2317 C564 1.429 . S
C2323 C328 1.429 . S
C2337 C1567 1.432 . S
C2343 C387 1.432 . S
C2357 C505 1.430 . S
C2363 C1685 1.430 . S
C2377 C1331 1.426 . S
C2383 C623 1.426 . S
C2397 C918 1.426 . S
C2403 C682 1.426 . S
C2417 C1449 1.431 . S
C2423 C741 1.431 . S
C2437 C859 1.426 . S
C2443 C1095 1.426 . S
C2457 C1744 1.426 . S
C2463 C1036 1.426 . S
C2477 C1154 1.427 . S
C2483 C1390 1.427 . S
C2497 C1508 1.427 . S
C2503 C1272 1.427 . S
C2517 C1862 1.426 . S
C2523 C1626 1.426 . S
C2537 C62 1.453 . S
C2543 C3 1.466 . S
C2557 C121 1.454 1_556 S
C2563 C180 1.465 1_556 S
C2577 C239 1.458 . S
C2583 C298 1.457 . S
C2597 C416 1.452 1_554 S
C2603 C357 1.464 1_554 S
C2617 C475 1.452 . S
C2623 C534 1.464 . S
C2637 C593 1.466 . S
C2643 C652 1.453 . S
C2657 C770 1.464 . S
C2663 C711 1.456 . S
C2677 C829 1.455 . S
C2683 C888 1.461 . S
C2697 C947 1.463 . S
C2703 C1006 1.459 . S
C2717 C1065 1.464 . S
C2723 C1124 1.452 . S
C2737 C1183 1.458 . S
C2743 C1242 1.457 . S
C2757 C1360 1.453 . S
C2763 C1301 1.465 . S
C2777 C1478 1.459 . S
C2783 C1419 1.462 . S
C2797 C1537 1.453 1_556 S
C2803 C1596 1.464 1_556 S
C2817 C1655 1.465 . S
C2823 C1714 1.453 . S
C2837 C1832 1.455 1_554 S
C2843 C1773 1.460 1_554 S
C2857 C5 1.440 . S
C2863 C1126 1.442 . S
C2877 C64 1.438 . S
C2883 C1067 1.435 . S
C2897 C1008 1.427 . S
C2903 C123 1.429 . S
C2917 C182 1.427 . S
C2923 C949 1.427 . S
C2937 C1362 1.442 . S
C2943 C241 1.443 . S
C2957 C300 1.439 . S
C2963 C1303 1.437 . S
C2977 C1244 1.438 . S
C2983 C359 1.435 . S
C2997 C418 1.431 . S
C3003 C1185 1.429 . S
C3017 C477 1.430 . S
C3023 C1598 1.433 . S
C3037 C536 1.431 . S
C3043 C1539 1.434 . S
C3057 C595 1.439 . S
C3063 C1480 1.441 . S
C3077 C1421 1.440 . S
C3083 C654 1.437 . S
C3097 C713 1.429 . S
C3103 C1834 1.432 . S
C3117 C772 1.427 . S
C3123 C1775 1.427 . S
C3137 C831 1.428 . S
C3143 C1716 1.430 . S
C3157 C1657 1.431 . S
C3163 C890 1.428 . S
