# Generated by pormake.
# Topology smc, (6)-cn, num edge types: 1
# Building blocks:
#     Node 0, Type 0, BuildingBlock: BETFEN_clean_sbu_0, # of connection points: 6
#     Node 1, Type 0, BuildingBlock: BETFEN_clean_sbu_0, # of connection points: 6
#     Node 2, Type 0, BuildingBlock: BETFEN_clean_sbu_0, # of connection points: 6
#     Node 3, Type 0, BuildingBlock: BETFEN_clean_sbu_0, # of connection points: 6
#     Node 4, Type 0, BuildingBlock: BETFEN_clean_sbu_0, # of connection points: 6
#     Node 5, Type 0, BuildingBlock: BETFEN_clean_sbu_0, # of connection points: 6
#     Node 6, Type 0, BuildingBlock: BETFEN_clean_sbu_0, # of connection points: 6
#     Node 7, Type 0, BuildingBlock: BETFEN_clean_sbu_0, # of connection points: 6
#     Node 8, Type 0, BuildingBlock: BETFEN_clean_sbu_0, # of connection points: 6
#     Edge 9, Type (0, 0), BuildingBlock: XUDNAN_clean_linker_2, # of connection points: 2
#     Edge 10, Type (0, 0), BuildingBlock: XUDNAN_clean_linker_2, # of connection points: 2
#     Edge 11, Type (0, 0), BuildingBlock: XUDNAN_clean_linker_2, # of connection points: 2
#     Edge 12, Type (0, 0), BuildingBlock: XUDNAN_clean_linker_2, # of connection points: 2
#     Edge 13, Type (0, 0), BuildingBlock: XUDNAN_clean_linker_2, # of connection points: 2
#     Edge 14, Type (0, 0), BuildingBlock: XUDNAN_clean_linker_2, # of connection points: 2
#     Edge 15, Type (0, 0), BuildingBlock: XUDNAN_clean_linker_2, # of connection points: 2
#     Edge 16, Type (0, 0), BuildingBlock: XUDNAN_clean_linker_2, # of connection points: 2
#     Edge 17, Type (0, 0), BuildingBlock: XUDNAN_clean_linker_2, # of connection points: 2
#     Edge 18, Type (0, 0), BuildingBlock: XUDNAN_clean_linker_2, # of connection points: 2
#     Edge 19, Type (0, 0), BuildingBlock: XUDNAN_clean_linker_2, # of connection points: 2
#     Edge 20, Type (0, 0), BuildingBlock: XUDNAN_clean_linker_2, # of connection points: 2
#     Edge 21, Type (0, 0), BuildingBlock: XUDNAN_clean_linker_2, # of connection points: 2
#     Edge 22, Type (0, 0), BuildingBlock: XUDNAN_clean_linker_2, # of connection points: 2
#     Edge 23, Type (0, 0), BuildingBlock: XUDNAN_clean_linker_2, # of connection points: 2
#     Edge 24, Type (0, 0), BuildingBlock: XUDNAN_clean_linker_2, # of connection points: 2
#     Edge 25, Type (0, 0), BuildingBlock: XUDNAN_clean_linker_2, # of connection points: 2
#     Edge 26, Type (0, 0), BuildingBlock: XUDNAN_clean_linker_2, # of connection points: 2
#     Edge 27, Type (0, 0), BuildingBlock: XUDNAN_clean_linker_2, # of connection points: 2
#     Edge 28, Type (0, 0), BuildingBlock: XUDNAN_clean_linker_2, # of connection points: 2
#     Edge 29, Type (0, 0), BuildingBlock: XUDNAN_clean_linker_2, # of connection points: 2
#     Edge 30, Type (0, 0), BuildingBlock: XUDNAN_clean_linker_2, # of connection points: 2
#     Edge 31, Type (0, 0), BuildingBlock: XUDNAN_clean_linker_2, # of connection points: 2
#     Edge 32, Type (0, 0), BuildingBlock: XUDNAN_clean_linker_2, # of connection points: 2
#     Edge 33, Type (0, 0), BuildingBlock: XUDNAN_clean_linker_2, # of connection points: 2
#     Edge 34, Type (0, 0), BuildingBlock: XUDNAN_clean_linker_2, # of connection points: 2
#     Edge 35, Type (0, 0), BuildingBlock: XUDNAN_clean_linker_2, # of connection points: 2
# Relax obj value: 0.182
# Max RMSD: 0.314
# Mean RMSD: 0.314
data_MOF--net-smc--node1-BETFEN_clean_sbu_0--edge1-XUDNAN_clean_linker_2
_symmetry_space_group_name_H-M    P1
_symmetry_Int_Tables_number       1
_symmetry_cell_setting            triclinic
loop_
_symmetry_equiv_pos_as_xyz
'x, y, z'
_cell_length_a     39.782843
_cell_length_b     3.865638
_cell_length_c     40.201642
_cell_angle_alpha  89.988258
_cell_angle_beta   89.870519
_cell_angle_gamma 119.70282
loop_
_atom_site_label
_atom_site_type_symbol
_atom_site_fract_x
_atom_site_fract_y
_atom_site_fract_z
_atom_type_partial_charge
Pr0 Pr 1.0117 4.76548 0.01817 0.0
Pr1 Pr 0.05646 4.41819 1.01155 0.0
C2 C 0.95679 4.9799 0.02388 0.0
C3 C 0.9266 5.09743 0.02699 0.0
C4 C 0.92999 5.37206 0.05138 0.0
C5 C 0.90132 5.47782 0.05514 0.0
C6 C 0.86816 5.31012 0.03479 0.0
C7 C 0.86489 5.03629 1.01013 0.0
C8 C 0.89375 4.93038 1.00635 0.0
C9 C 0.03994 4.62298 0.08021 0.0
C10 C 0.96459 3.8128 0.02109 0.0
C11 C 0.11556 4.26102 0.01357 0.0
C12 C 0.15847 4.48279 1.00988 0.0
C13 C 0.17552 4.48972 0.97903 0.0
C14 C 0.21578 4.68893 0.97529 0.0
C15 C 0.24024 4.88557 1.00235 0.0
C16 C 0.22325 4.87815 0.03329 0.0
C17 C 0.18285 4.67974 0.03701 0.0
C18 C 1.01579 4.26208 0.95267 0.0
C19 C 0.09561 5.40666 1.00376 0.0
O20 O 0.95219 4.6803 1.00573 0.0
O21 O 0.99038 5.17333 0.03853 0.0
O22 O 1.02265 4.38485 0.05728 0.0
O23 O 0.04563 4.97077 0.07143 0.0
O24 O 0.99827 3.85552 0.03078 0.0
O25 O 0.96323 4.11909 1.00911 0.0
O26 O 0.10051 4.32457 0.04021 0.0
O27 O 0.09532 4.22083 0.98688 0.0
O28 O 0.03092 4.60912 0.9666 0.0
O29 O 1.02217 4.01498 0.9694 0.0
O30 O 0.06146 5.32615 0.99352 0.0
O31 O 0.0995 5.1164 0.01698 0.0
H32 H 0.95481 5.50509 0.06776 0.0
H33 H 0.90554 5.69651 0.0739 0.0
H34 H 0.8398 4.89896 0.99408 0.0
H35 H 0.89027 4.71675 0.98733 0.0
H36 H 0.15772 4.33826 0.95767 0.0
H37 H 0.22776 4.68289 0.95122 0.0
H38 H 0.24118 5.02959 0.05458 0.0
H39 H 0.17077 4.6801 0.06118 0.0
Pr40 Pr 0.58589 5.66905 0.02557 0.0
Pr41 Pr 0.61857 6.5676 1.0068 0.0
C42 C 0.56471 4.89563 0.02655 0.0
C43 C 0.55245 4.46907 0.02843 0.0
C44 C 0.53477 4.25423 0.05739 0.0
C45 C 0.52492 3.85515 0.06021 0.0
C46 C 0.53364 3.66284 0.03452 0.0
C47 C 0.55151 3.88204 1.00543 0.0
C48 C 0.56043 4.27999 1.00231 0.0
C49 C 0.59024 6.11423 0.08413 0.0
C50 C 0.67997 6.23182 0.02635 0.0
C51 C 0.64191 7.35169 1.00634 0.0
C52 C 0.62104 7.5827 1.00501 0.0
C53 C 0.6133 7.70391 0.97431 0.0
C54 C 0.5924 7.90766 0.97296 0.0
C55 C 0.57933 8.00078 1.00226 0.0
C56 C 0.58737 7.8855 0.03299 0.0
C57 C 0.60784 7.67698 0.03436 0.0
C58 C 0.61828 6.12241 0.95096 0.0
C59 C 0.52253 5.94015 1.00543 0.0
O60 O 0.55764 5.05806 1.00076 0.0
O61 O 0.58168 5.13277 0.05176 0.0
O62 O 0.59885 6.23306 0.05466 0.0
O63 O 0.57632 5.73159 0.08403 0.0
O64 O 0.67628 6.55495 0.02275 0.0
O65 O 0.65048 5.86942 0.02466 0.0
O66 O 0.63825 7.15162 0.03364 0.0
O67 O 0.64129 7.15621 0.97955 0.0
O68 O 0.62546 6.07239 0.98098 0.0
O69 O 0.60494 6.36899 0.95092 0.0
O70 O 0.5289 5.63842 1.00796 0.0
O71 O 0.55079 6.31513 1.00692 0.0
H72 H 0.52828 4.39453 0.07784 0.0
H73 H 0.50998 3.69797 0.08257 0.0
H74 H 0.55925 3.75021 0.9852 0.0
H75 H 0.57455 4.44336 0.97988 0.0
H76 H 0.62308 7.63831 0.95123 0.0
H77 H 0.58657 7.9945 0.94898 0.0
H78 H 0.57719 7.9505 0.05589 0.0
H79 H 0.61306 7.58739 0.05846 0.0
Pr80 Pr 0.4969 0.41686 0.02146 0.0
Pr81 Pr 0.40905 10.15925 1.00569 0.0
C82 C 0.57376 0.91844 0.02335 0.0
C83 C 0.61093 1.29818 0.02248 0.0
C84 C 0.62884 1.46433 0.05289 0.0
C85 C 0.66603 1.79075 0.05387 0.0
C86 C 0.68658 1.96794 0.02441 0.0
C87 C 0.66834 1.80661 0.99372 0.0
C88 C 0.63091 1.47262 0.99278 0.0
C89 C 0.4557 10.36779 0.08212 0.0
C90 C 0.44178 0.81905 0.0221 0.0
C91 C 0.33295 9.61534 1.00593 0.0
C92 C 0.31198 9.17385 1.00714 0.0
C93 C 0.27566 8.95393 0.99203 0.0
C94 C 0.25551 8.53593 0.99343 0.0
C95 C 0.27138 8.32726 1.00983 0.0
C96 C 0.30857 8.55114 0.02392 0.0
C97 C 0.3285 8.9682 0.02268 0.0
C98 C 0.45108 0.26023 0.94837 0.0
C99 C 0.47002 9.79869 1.00558 0.0
O100 O 0.5566 0.71799 0.99633 0.0
O101 O 0.55024 0.85961 0.04819 0.0
O102 O 0.44331 10.31067 0.05275 0.0
O103 O 0.49225 0.31307 0.08039 0.0
O104 O 0.41061 0.45572 0.02115 0.0
O105 O 0.47718 0.88173 0.01833 0.0
O106 O 0.35196 9.80038 0.03274 0.0
O107 O 0.35231 9.77765 0.97866 0.0
O108 O 0.45643 0.40218 0.97766 0.0
O109 O 0.42648 10.19337 0.94947 0.0
O110 O 0.49886 10.16657 1.00449 0.0
O111 O 0.43375 9.71646 1.00923 0.0
H112 H 0.61467 1.33137 0.07626 0.0
H113 H 0.6791 1.89259 0.07807 0.0
H114 H 0.68304 1.93482 0.97047 0.0
H115 H 0.61799 1.34737 0.96894 0.0
H116 H 0.26263 9.10592 0.97944 0.0
H117 H 0.22704 8.37801 0.98237 0.0
H118 H 0.32252 8.40509 0.03592 0.0
H119 H 0.35687 9.13013 0.03398 0.0
Pr120 Pr 0.67249 8.19223 0.35957 0.0
Pr121 Pr 0.72524 7.90613 0.34114 0.0
C122 C 0.62787 8.53433 0.36665 0.0
C123 C 0.58973 8.50763 0.3617 0.0
C124 C 0.56731 8.49098 0.38934 0.0
C125 C 0.53469 8.53625 0.38547 0.0
C126 C 0.52415 8.60941 0.35386 0.0
C127 C 0.54586 8.60651 0.32611 0.0
C128 C 0.57787 8.55289 0.32995 0.0
C129 C 0.70864 8.06914 0.41559 0.0
C130 C 0.63079 7.24659 0.35749 0.0
C131 C 0.77731 7.64934 0.33971 0.0
C132 C 0.82021 7.83751 0.33844 0.0
C133 C 0.83725 7.73799 0.31232 0.0
C134 C 0.8775 7.92105 0.30928 0.0
C135 C 0.90204 8.21011 0.33232 0.0
C136 C 0.88502 8.30563 0.35894 0.0
C137 C 0.84451 8.12279 0.36189 0.0
C138 C 0.68358 7.88215 0.28375 0.0
C139 C 0.7602 8.88012 0.33715 0.0
O140 O 0.64943 8.5831 0.34048 0.0
O141 O 0.63144 8.31875 0.38994 0.0
O142 O 0.72515 8.23544 0.38849 0.0
O143 O 0.67222 7.96004 0.41401 0.0
O144 O 0.66654 7.29863 0.356 0.0
O145 O 0.62476 7.54766 0.35377 0.0
O146 O 0.76136 7.68055 0.36718 0.0
O147 O 0.76072 7.68826 0.31312 0.0
O148 O 0.66971 7.80125 0.31318 0.0
O149 O 0.72093 8.03348 0.28467 0.0
O150 O 0.72433 8.79569 0.34163 0.0
O151 O 0.76961 8.59774 0.33763 0.0
H152 H 0.57584 8.45777 0.41419 0.0
H153 H 0.51853 8.52396 0.40753 0.0
H154 H 0.53986 8.66795 0.30127 0.0
H155 H 0.59446 8.56792 0.30806 0.0
H156 H 0.81931 7.51985 0.29391 0.0
H157 H 0.88943 7.83481 0.28875 0.0
H158 H 0.90298 8.52899 0.37698 0.0
H159 H 0.83229 8.20883 0.38223 0.0
Pr160 Pr 0.25256 9.104 0.35723 0.0
Pr161 Pr 0.27946 9.93298 0.33832 0.0
C162 C 0.21959 8.30201 0.35948 0.0
C163 C 0.22055 7.925 0.36354 0.0
C164 C 0.20699 7.71173 0.39335 0.0
C165 C 0.20066 7.32428 0.39619 0.0
C166 C 0.20817 7.13661 0.3694 0.0
C167 C 0.22332 7.35723 0.33981 0.0
C168 C 0.22917 7.74581 0.33683 0.0
C169 C 0.26575 9.60119 0.41307 0.0
C170 C 0.34475 9.63295 0.35724 0.0
C171 C 0.30344 0.40725 0.33418 0.0
C172 C 0.28417 0.65376 0.33464 0.0
C173 C 0.27711 0.79253 0.30457 0.0
C174 C 0.25781 1.01211 0.30433 0.0
C175 C 0.24567 1.1047 0.33418 0.0
C176 C 0.25324 0.97407 0.36438 0.0
C177 C 0.27212 0.74866 0.36463 0.0
C178 C 0.28137 9.51807 0.28144 0.0
C179 C 0.18529 9.32658 0.33664 0.0
O180 O 0.23217 8.50736 0.33189 0.0
O181 O 0.22406 8.52155 0.38567 0.0
O182 O 0.2492 9.60734 0.38626 0.0
O183 O 0.27507 9.32325 0.4119 0.0
O184 O 0.33929 9.93895 0.35015 0.0
O185 O 0.31575 9.27007 0.36011 0.0
O186 O 0.30393 0.23225 0.36181 0.0
O187 O 0.29709 0.18048 0.30821 0.0
O188 O 0.29047 9.47215 0.31088 0.0
O189 O 0.26311 9.71828 0.28322 0.0
O190 O 0.19359 9.04159 0.34089 0.0
O191 O 0.21255 9.70307 0.33653 0.0
H192 H 0.19933 7.83702 0.41418 0.0
H193 H 0.18795 7.16696 0.41913 0.0
H194 H 0.23004 7.22867 0.31868 0.0
H195 H 0.23927 7.90033 0.31331 0.0
H196 H 0.28616 0.72756 0.28107 0.0
H197 H 0.25233 1.11031 0.28074 0.0
H198 H 0.24376 1.0385 0.38769 0.0
H199 H 0.27694 0.64622 0.38827 0.0
Pr200 Pr 0.16182 3.86309 0.35451 0.0
Pr201 Pr 0.08333 3.31443 0.34237 0.0
C202 C 0.23877 4.34189 0.36342 0.0
C203 C 0.2765 4.71172 0.35977 0.0
C204 C 0.30145 4.85059 0.38726 0.0
C205 C 0.33985 5.15594 0.38361 0.0
C206 C 0.35423 5.32868 0.35227 0.0
C207 C 0.32839 5.20672 0.32519 0.0
C208 C 0.28992 4.90043 0.32887 0.0
C209 C 0.11751 3.50958 0.41309 0.0
C210 C 0.11236 4.27651 0.35224 0.0
C211 C 1.00668 2.77245 0.34265 0.0
C212 C 0.98233 2.3308 0.3396 0.0
C213 C 0.95282 2.17089 0.31573 0.0
C214 C 0.92954 1.75796 0.31193 0.0
C215 C 0.9351 1.48953 0.33179 0.0
C216 C 0.96461 1.65018 0.35595 0.0
C217 C 0.98801 2.06548 0.35975 0.0
C218 C 0.11757 3.66104 0.28091 0.0
C219 C 0.1419 2.9503 0.33797 0.0
O220 O 0.22389 4.10481 0.33783 0.0
O221 O 0.21296 4.3315 0.38415 0.0
O222 O 0.11839 3.32977 0.38731 0.0
O223 O 0.13895 3.89048 0.40888 0.0
O224 O 0.08513 3.9161 0.36195 0.0
O225 O 0.14396 4.31701 0.33869 0.0
O226 O 0.02701 2.91616 0.36972 0.0
O227 O 0.02536 2.96725 0.31608 0.0
O228 O 0.12419 3.85126 0.30812 0.0
O229 O 0.10101 3.28281 0.28756 0.0
O230 O 0.16942 3.32457 0.33789 0.0
O231 O 0.10559 2.85674 0.34209 0.0
H232 H 0.2918 4.70844 0.41133 0.0
H233 H 0.35885 5.23914 0.40495 0.0
H234 H 0.33829 5.33865 0.30083 0.0
H235 H 0.27119 4.80095 0.30731 0.0
H236 H 0.9477 2.36674 0.29988 0.0
H237 H 0.90682 1.64962 0.29347 0.0
H238 H 0.97019 1.45553 0.3715 0.0
H239 H 1.01069 2.17826 0.3783 0.0
Pr240 Pr 0.34062 1.30941 0.68904 0.0
Pr241 Pr 0.39004 0.97022 0.67799 0.0
C242 C 0.28327 1.48766 0.69111 0.0
C243 C 0.2511 1.57638 0.69078 0.0
C244 C 0.24681 1.80096 0.71622 0.0
C245 C 0.21823 1.91146 0.71398 0.0
C246 C 0.19374 1.80226 0.68613 0.0
C247 C 0.19685 1.56118 0.66159 0.0
C248 C 0.2251 1.44825 0.66395 0.0
C249 C 0.37612 1.22802 0.74757 0.0
C250 C 0.2971 0.33656 0.69034 0.0
C251 C 0.44728 0.80638 0.69074 0.0
C252 C 0.48964 1.00645 0.68473 0.0
C253 C 0.50552 1.1149 0.65256 0.0
C254 C 0.54575 1.31686 0.64788 0.0
C255 C 0.57086 1.41253 0.67518 0.0
C256 C 0.55496 1.30393 0.70726 0.0
C257 C 0.5148 1.10472 0.71197 0.0
C258 C 0.36358 0.95101 0.61385 0.0
C259 C 0.42591 1.96034 0.67111 0.0
O260 O 0.28617 1.26512 0.66819 0.0
O261 O 0.31092 1.62625 0.71325 0.0
O262 O 0.3589 0.9664 0.7256 0.0
O263 O 0.3769 1.55665 0.73906 0.0
O264 O 0.3308 0.36111 0.68331 0.0
O265 O 0.29417 0.65426 0.69568 0.0
O266 O 0.43579 0.98142 0.71202 0.0
O267 O 0.42409 0.6589 0.66522 0.0
O268 O 0.35181 1.07591 0.63844 0.0
O269 O 0.39128 0.88361 0.62167 0.0
O270 O 0.39051 1.87979 0.66513 0.0
O271 O 0.43236 1.67213 0.68082 0.0
H272 H 0.26621 1.90076 0.73734 0.0
H273 H 0.21652 2.0985 0.73321 0.0
H274 H 0.17803 1.46854 0.64008 0.0
H275 H 0.22729 1.2706 0.64413 0.0
H276 H 0.48696 1.04697 0.63105 0.0
H277 H 0.55726 1.39637 0.62286 0.0
H278 H 0.57364 1.37971 0.72878 0.0
H279 H 0.50335 1.02987 0.73705 0.0
Pr280 Pr 0.91876 2.25165 0.6875 0.0
Pr281 Pr 0.94763 3.09927 0.66864 0.0
C282 C 0.88539 1.44905 0.69072 0.0
C283 C 0.88305 1.05788 0.69658 0.0
C284 C 0.859 0.81683 0.72224 0.0
C285 C 0.85047 0.42242 0.72565 0.0
C286 C 0.86634 0.25401 0.70389 0.0
C287 C 0.89173 0.50172 0.6787 0.0
C288 C 0.89973 0.89807 0.67492 0.0
C289 C 0.93056 2.75654 0.74238 0.0
C290 C 1.01138 2.78832 0.68916 0.0
C291 C 0.97066 3.88312 0.66346 0.0
C292 C 0.95084 4.11901 0.66842 0.0
C293 C 0.96399 4.48217 0.65163 0.0
C294 C 0.94468 4.7015 0.65517 0.0
C295 C 0.91165 4.56253 0.67563 0.0
C296 C 0.89806 4.19222 0.69175 0.0
C297 C 0.91728 3.97287 0.68807 0.0
C298 C 0.94727 2.66686 0.61254 0.0
C299 C 0.85323 2.49375 0.66787 0.0
O300 O 0.90143 1.65282 0.66362 0.0
O301 O 0.88715 1.66947 0.71608 0.0
O302 O 0.91499 2.76164 0.71509 0.0
O303 O 0.93879 2.47012 0.74262 0.0
O304 O 1.00662 3.09857 0.68201 0.0
O305 O 0.98217 2.42493 0.69129 0.0
O306 O 0.97725 3.72702 0.68985 0.0
O307 O 0.95848 3.63882 0.63826 0.0
O308 O 0.95695 2.62155 0.64166 0.0
O309 O 0.93246 2.8995 0.61357 0.0
O310 O 0.8613 2.20372 0.66848 0.0
O311 O 0.88075 2.86734 0.67103 0.0
H312 H 0.84509 0.92783 0.73893 0.0
H313 H 0.82979 0.24664 0.7447 0.0
H314 H 0.90507 0.38982 0.66154 0.0
H315 H 0.91817 1.07531 0.65461 0.0
H316 H 0.98929 4.59671 0.63573 0.0
H317 H 0.95618 4.98423 0.64237 0.0
H318 H 0.87221 4.06834 0.70702 0.0
H319 H 0.90562 3.68678 0.70032 0.0
Pr320 Pr 0.82662 7.29261 0.6875 0.0
Pr321 Pr 0.74234 6.73124 0.67304 0.0
C322 C 0.90269 7.81366 0.69268 0.0
C323 C 0.94147 8.16175 0.68788 0.0
C324 C 0.96651 8.30319 0.71524 0.0
C325 C 1.00487 8.60595 0.71131 0.0
C326 C 1.01902 8.77484 0.67982 0.0
C327 C 0.99312 8.64697 0.65274 0.0
C328 C 0.95467 8.34164 0.65671 0.0
C329 C 0.78801 6.95542 0.74991 0.0
C330 C 0.77403 7.70784 0.68219 0.0
C331 C 0.66639 6.17491 0.66992 0.0
C332 C 0.64505 5.7324 0.67153 0.0
C333 C 0.61033 5.51202 0.65397 0.0
C334 C 0.58952 5.09396 0.65595 0.0
C335 C 0.60302 4.88493 0.67548 0.0
C336 C 0.63872 5.10862 0.69205 0.0
C337 C 0.65935 5.52585 0.69017 0.0
C338 C 0.78368 7.06149 0.61388 0.0
C339 C 0.80268 6.37802 0.67627 0.0
O340 O 0.8887 7.5196 0.67118 0.0
O341 O 0.87659 7.84664 0.71006 0.0
O342 O 0.77345 6.88688 0.72144 0.0
O343 O 0.82446 7.205 0.74668 0.0
O344 O 0.74333 7.34567 0.68609 0.0
O345 O 0.80831 7.75517 0.6757 0.0
O346 O 0.68337 6.36468 0.69718 0.0
O347 O 0.68774 6.33485 0.64357 0.0
O348 O 0.7883 7.25658 0.6406 0.0
O349 O 0.76351 6.68269 0.62012 0.0
O350 O 0.8295 6.73923 0.66804 0.0
O351 O 0.76803 6.30933 0.68557 0.0
H352 H 0.95677 8.16853 0.73956 0.0
H353 H 1.02389 8.69264 0.73265 0.0
H354 H 1.00284 8.77605 0.62828 0.0
H355 H 0.93561 8.24004 0.63537 0.0
H356 H 0.59899 5.66394 0.63903 0.0
H357 H 0.56227 4.93643 0.64287 0.0
H358 H 0.65093 4.96207 0.70658 0.0
H359 H 0.68647 5.68721 0.70347 0.0
H360 H 0.46004 5.49738 0.04576 0.0
H361 H 0.49405 6.17229 0.95384 0.0
H362 H 0.42557 5.97956 0.94321 0.0
H363 H 0.36981 4.6906 0.02019 0.0
H364 H 0.34458 4.6579 0.05839 0.0
H365 H 0.39604 4.84842 0.05884 0.0
H366 H 0.40619 5.49588 0.08698 0.0
H367 H 0.35468 5.30616 0.08662 0.0
H368 H 0.38681 5.78031 0.06766 0.0
H369 H 0.35319 5.68505 0.94129 0.0
H370 H 0.28255 5.35264 0.94988 0.0
H371 H 0.29537 4.89588 0.04482 0.0
C372 C 0.45294 5.6064 0.02355 0.0
C373 C 0.48214 5.85016 1.00053 0.0
C374 C 0.47205 5.9889 0.97182 0.0
C375 C 0.43327 5.87936 0.96557 0.0
C376 C 0.40508 5.63829 0.98869 0.0
C377 C 0.41447 5.50888 0.01742 0.0
C378 C 0.37874 5.26365 0.03872 0.0
C379 C 0.3719 4.84001 0.04434 0.0
C380 C 0.3818 5.47405 0.07196 0.0
C381 C 0.34759 5.26184 0.01684 0.0
C382 C 0.36347 5.48063 0.98816 0.0
C383 C 0.34049 5.5155 0.96377 0.0
C384 C 0.3003 5.32304 0.96879 0.0
C385 C 0.28321 5.09729 0.99801 0.0
C386 C 0.30745 5.06976 0.0224 0.0
H387 H 0.53574 9.79991 0.0266 0.0
H388 H 0.4249 9.05766 0.97914 0.0
H389 H 0.44098 8.51866 0.97317 0.0
H390 H 0.59247 9.4918 0.97894 0.0
H391 H 0.62083 9.48813 0.01369 0.0
H392 H 0.60117 9.81931 0.01377 0.0
H393 H 0.56731 9.52434 0.07003 0.0
H394 H 0.58685 9.1919 0.07013 0.0
H395 H 0.53537 8.99467 0.07382 0.0
H396 H 0.47061 8.07594 0.96947 0.0
H397 H 0.50918 7.73365 0.97305 0.0
H398 H 0.59839 8.73712 0.02717 0.0
C399 C 0.51489 9.5238 0.0149 0.0
C400 C 0.47911 9.47094 1.00301 0.0
C401 C 0.45237 9.1038 0.98838 0.0
C402 C 0.46134 8.79696 0.98481 0.0
C403 C 0.49685 8.85869 0.99664 0.0
C404 C 0.523 9.2107 1.01188 0.0
C405 C 0.55851 9.19437 0.02355 0.0
C406 C 0.59541 9.51759 1.00645 0.0
C407 C 0.56221 9.22825 0.06164 0.0
C408 C 0.54854 8.78101 1.0119 0.0
C409 C 0.51299 8.59417 0.99619 0.0
C410 C 0.49825 8.21727 0.98205 0.0
C411 C 0.52032 8.02563 0.98411 0.0
C412 C 0.55644 8.20819 1.00058 0.0
C413 C 0.5706 8.58983 0.01479 0.0
H414 H 0.21842 7.75991 0.96595 0.0
H415 H 0.27197 7.87579 0.06253 0.0
H416 H 0.23577 7.14918 0.06916 0.0
H417 H 0.124 6.98678 0.9904 0.0
H418 H 0.11356 6.72563 0.9513 0.0
H419 H 0.14595 7.25546 0.95255 0.0
H420 H 0.19916 7.1625 0.92371 0.0
H421 H 0.16695 6.63177 0.92241 0.0
H422 H 0.2137 6.83042 0.94181 0.0
H423 H 0.19491 6.41025 0.06554 0.0
H424 H 0.14687 5.70844 0.05445 0.0
H425 H 0.11359 6.0584 0.96323 0.0
C426 C 0.2225 7.6345 0.98862 0.0
C427 C 0.24892 7.88149 0.01343 0.0
C428 C 0.25315 7.69841 0.04254 0.0
C429 C 0.23237 7.28373 0.04674 0.0
C430 C 0.2069 7.0515 0.02184 0.0
C431 C 0.20148 7.21937 0.9935 0.0
C432 C 0.17096 6.90006 0.97126 0.0
C433 C 0.13657 6.97123 0.9661 0.0
C434 C 0.18876 6.88015 0.93781 0.0
C435 C 0.15955 6.52815 0.99195 0.0
C436 C 0.18142 6.62329 0.02064 0.0
C437 C 0.17751 6.33217 0.04322 0.0
C438 C 0.1503 5.93351 0.03658 0.0
C439 C 0.12661 5.82769 1.00793 0.0
C440 C 0.13131 6.13035 0.98534 0.0
H441 H 0.45124 1.39116 0.97762 0.0
H442 H 0.43584 1.08455 0.08226 0.0
H443 H 0.46318 1.79533 0.09663 0.0
H444 H 0.54145 2.2765 0.98641 0.0
H445 H 0.53291 2.5545 0.95483 0.0
H446 H 0.50973 2.01979 0.95209 0.0
H447 H 0.44244 1.96868 0.94936 0.0
H448 H 0.46555 2.50348 0.95109 0.0
H449 H 0.42865 2.20506 0.98107 0.0
H450 H 0.50112 2.53692 0.09968 0.0
H451 H 0.53011 3.2582 0.09214 0.0
H452 H 0.51454 3.08778 0.98512 0.0
C453 C 0.45167 1.47224 1.00344 0.0
C454 C 0.43994 1.18163 0.02889 0.0
C455 C 0.44288 1.30042 0.06247 0.0
C456 C 0.45933 1.70427 0.07083 0.0
C457 C 0.47242 1.98475 0.04523 0.0
C458 C 0.46773 1.87451 0.01216 0.0
C459 C 0.48456 2.23797 0.98959 0.0
C460 C 0.5192 2.27402 0.96956 0.0
C461 C 0.45342 2.22823 0.96643 0.0
C462 C 0.49776 2.56786 0.01525 0.0
C463 C 0.49204 2.41473 0.04709 0.0
C464 C 0.50427 2.65958 0.07493 0.0
C465 C 0.5204 3.07044 0.0703 0.0
C466 C 0.52288 3.23414 0.03815 0.0
C467 C 0.51266 2.97758 1.01017 0.0
H468 H 0.74858 2.15107 0.98177 0.0
H469 H 0.71783 2.55836 0.07164 0.0
H470 H 0.78655 3.01675 0.08254 0.0
H471 H 0.83349 2.1929 1.00736 0.0
H472 H 0.86127 2.41304 0.97009 0.0
H473 H 0.80934 2.11649 0.9679 0.0
H474 H 0.80534 2.70079 0.94038 0.0
H475 H 0.85737 2.99468 0.94153 0.0
H476 H 0.82831 3.18178 0.96022 0.0
H477 H 0.85816 3.36749 0.08781 0.0
H478 H 0.92881 3.74069 0.07901 0.0
H479 H 0.91432 3.18748 0.9825 0.0
C480 C 0.75604 2.3422 1.00335 0.0
C481 C 0.72744 2.30255 0.02661 0.0
C482 C 0.73897 2.5652 0.05426 0.0
C483 C 0.77805 2.82997 0.06063 0.0
C484 C 0.80546 2.84181 0.03847 0.0
C485 C 0.79505 2.61992 1.00958 0.0
C486 C 0.83062 2.71141 0.989 0.0
C487 C 0.83384 2.33584 0.98326 0.0
C488 C 0.83041 2.90905 0.95583 0.0
C489 C 0.86252 3.00262 1.01177 0.0
C490 C 0.84719 3.06895 0.04034 0.0
C491 C 0.87057 3.3189 0.06553 0.0
C492 C 0.91071 3.522 0.06071 0.0
C493 C 0.92703 3.47798 0.03083 0.0
C494 C 0.90265 3.21116 1.00622 0.0
H495 H 0.82338 5.41427 0.98692 0.0
H496 H 0.84293 5.46331 0.09354 0.0
H497 H 0.80119 5.75852 0.1015 0.0
H498 H 0.82123 6.29364 0.97632 0.0
H499 H 0.78074 6.10335 0.94817 0.0
H500 H 0.81056 5.87385 0.95 0.0
H501 H 0.75067 5.18932 0.96271 0.0
H502 H 0.7205 5.41426 0.95988 0.0
H503 H 0.71916 5.14293 0.99678 0.0
H504 H 0.76316 6.11279 0.0979 0.0
H505 H 0.7188 6.3678 0.08406 0.0
H506 H 0.71882 6.03983 0.98109 0.0
C507 C 0.8184 5.48014 1.01202 0.0
C508 C 0.83787 5.42848 0.03948 0.0
C509 C 0.82992 5.51555 0.07189 0.0
C510 C 0.80598 5.68128 0.07675 0.0
C511 C 0.78921 5.75044 0.04909 0.0
C512 C 0.7938 5.63916 0.01747 0.0
C513 C 0.77099 5.73307 0.99229 0.0
C514 C 0.79749 6.01799 0.96509 0.0
C515 C 0.73839 5.34704 0.97703 0.0
C516 C 0.7549 5.93486 0.01455 0.0
C517 C 0.76582 5.94167 0.04719 0.0
C518 C 0.75456 6.11177 0.07237 0.0
C519 C 0.73017 6.26522 0.06421 0.0
C520 C 0.71717 6.24573 0.03125 0.0
C521 C 0.73014 6.08188 1.00611 0.0
H522 H 0.95964 8.40724 0.37965 0.0
H523 H 0.94198 8.48197 0.27394 0.0
H524 H 1.01212 8.78874 0.26434 0.0
H525 H 0.05141 9.35699 0.38454 0.0
H526 H 0.07242 9.17087 0.4143 0.0
H527 H 1.02075 8.97108 0.41341 0.0
H528 H 1.01085 8.26114 0.40634 0.0
H529 H 0.06242 8.45887 0.40704 0.0
H530 H 0.03438 8.15931 0.37241 0.0
H531 H 0.08389 9.08317 0.26543 0.0
H532 H 0.15314 9.3284 0.27746 0.0
H533 H 0.12566 9.05136 0.38183 0.0
C534 C 0.9706 8.49262 0.35456 0.0
C535 C 0.945 8.41654 0.32751 0.0
C536 C 0.96069 8.5301 0.29502 0.0
C537 C 1.00062 8.70756 0.28931 0.0
C538 C 0.02489 8.77313 0.3163 0.0
C539 C 1.01063 8.67006 0.34833 0.0
C540 C 0.0433 8.76654 0.37272 0.0
C541 C 0.04719 9.08526 0.39772 0.0
C542 C 0.03738 8.38888 0.39067 0.0
C543 C 0.07787 8.93123 0.34922 0.0
C544 C 0.06655 8.93791 0.31686 0.0
C545 C 0.09316 9.08166 0.29069 0.0
C546 C 0.13238 9.22216 0.2977 0.0
C547 C 0.14456 9.21393 0.3305 0.0
C548 C 0.11696 9.06472 0.35657 0.0
H549 H 0.20674 2.93759 0.36046 0.0
H550 H 0.09865 2.23556 0.30779 0.0
H551 H 0.11342 1.68878 0.30184 0.0
H552 H 0.26488 2.62262 0.31488 0.0
H553 H 0.2904 2.59438 0.35084 0.0
H554 H 0.2722 2.9381 0.35032 0.0
H555 H 0.23437 2.62765 0.40477 0.0
H556 H 0.25235 2.28184 0.40543 0.0
H557 H 0.20098 2.09954 0.40667 0.0
H558 H 0.14065 1.23163 0.29933 0.0
H559 H 0.17701 0.86791 0.30363 0.0
H560 H 0.26526 1.83294 0.36188 0.0
C561 C 0.18641 2.66943 0.34746 0.0
C562 C 0.15169 2.62946 0.33418 0.0
C563 C 0.12538 2.27188 0.318 0.0
C564 C 0.13356 1.96023 0.3145 0.0
C565 C 0.16782 2.00702 0.32794 0.0
C566 C 0.19368 2.35003 0.34448 0.0
C567 C 0.22766 2.31459 0.35768 0.0
C568 C 0.26605 2.63654 0.34251 0.0
C569 C 0.22889 2.3319 0.39591 0.0
C570 C 0.2172 1.90202 0.34526 0.0
C571 C 0.18263 1.73185 0.32804 0.0
C572 C 0.16753 1.35952 0.31304 0.0
C573 C 0.18834 1.15552 0.31555 0.0
C574 C 0.22361 1.3213 0.33327 0.0
C575 C 0.23805 1.69799 0.34858 0.0
H576 H 0.9062 0.874 0.37872 0.0
H577 H 0.90843 1.09431 0.27254 0.0
H578 H 0.86574 0.37832 0.26294 0.0
H579 H 0.90716 10.24543 0.37059 0.0
H580 H 0.87532 10.01568 0.40558 0.0
H581 H 0.9067 0.23524 0.40451 0.0
H582 H 0.84745 0.33426 0.41254 0.0
H583 H 0.81593 10.1155 0.41353 0.0
H584 H 0.80743 10.41454 0.38399 0.0
H585 H 0.82144 9.95247 0.2642 0.0
H586 H 0.77864 9.23685 0.27681 0.0
H587 H 0.80501 9.474 0.3816 0.0
C588 C 0.89813 0.77197 0.35339 0.0
C589 C 0.91061 1.04703 0.32646 0.0
C590 C 0.89882 0.89605 0.2938 0.0
C591 C 0.87471 0.48731 0.28798 0.0
C592 C 0.86263 0.22688 0.31496 0.0
C593 C 0.87402 0.36173 0.34705 0.0
C594 C 0.85647 10.328 0.37155 0.0
C595 C 0.88832 10.2817 0.3891 0.0
C596 C 0.83025 10.37941 0.39689 0.0
C597 C 0.83311 9.97968 0.34822 0.0
C598 C 0.83735 10.10966 0.31565 0.0
C599 C 0.81829 9.84664 0.28956 0.0
C600 C 0.79424 9.44061 0.29686 0.0
C601 C 0.78946 9.29969 0.32993 0.0
C602 C 0.80904 9.57331 0.35597 0.0
H603 H 0.18474 6.55958 0.31952 0.0
H604 H 0.20864 6.72845 0.42562 0.0
H605 H 0.17964 6.00647 0.43275 0.0
H606 H 0.09782 5.67249 0.31973 0.0
H607 H 0.10871 5.43929 0.28575 0.0
H608 H 0.13182 5.97396 0.28791 0.0
H609 H 0.19935 6.02979 0.28565 0.0
H610 H 0.17639 5.49569 0.28253 0.0
H611 H 0.21107 5.75338 0.31501 0.0
H612 H 0.14176 5.25885 0.42974 0.0
H613 H 0.11324 4.54763 0.41447 0.0
H614 H 0.12114 4.86415 0.31028 0.0
C615 C 0.18474 6.44877 0.34423 0.0
C616 C 0.19759 6.70654 0.37222 0.0
C617 C 0.19719 6.54103 0.40389 0.0
C618 C 0.18102 6.12928 0.40827 0.0
C619 C 0.16654 5.88385 0.38058 0.0
C620 C 0.16985 6.03784 0.34896 0.0
C621 C 0.1544 5.70746 0.32318 0.0
C622 C 0.12121 5.69807 0.30297 0.0
C623 C 0.18725 5.74896 0.30025 0.0
C624 C 0.13987 5.34432 0.34554 0.0
C625 C 0.14698 5.45281 0.37859 0.0
C626 C 0.13602 5.16969 0.40393 0.0
C627 C 0.11898 4.76565 0.39514 0.0
C628 C 0.11356 4.65036 0.36135 0.0
C629 C 0.1235 4.94344 0.33636 0.0
H630 H 0.40628 5.94053 0.3928 0.0
H631 H 0.39863 5.32184 0.30057 0.0
H632 H 0.46956 5.70798 0.29462 0.0
H633 H 0.4857 6.90635 0.36507 0.0
H634 H 0.50784 7.03159 0.40559 0.0
H635 H 0.45629 6.71425 0.40196 0.0
H636 H 0.4606 6.17732 0.43718 0.0
H637 H 0.51231 6.48952 0.44032 0.0
H638 H 0.49209 5.99213 0.42392 0.0
H639 H 0.54211 6.13122 0.30027 0.0
H640 H 0.60976 6.64853 0.3123 0.0
H641 H 0.57042 6.99993 0.39977 0.0
C642 C 0.41951 5.88724 0.37129 0.0
C643 C 0.39668 5.59823 0.34721 0.0
C644 C 0.41525 5.54319 0.3192 0.0
C645 C 0.45566 5.75829 0.31576 0.0
C646 C 0.47735 6.03022 0.34043 0.0
C647 C 0.45991 6.10265 0.36727 0.0
C648 C 0.48993 6.42193 0.38965 0.0
C649 C 0.48464 6.79033 0.3906 0.0
C650 C 0.48863 6.26027 0.42485 0.0
C651 C 0.52689 6.50912 0.37161 0.0
C652 C 0.51907 6.27819 0.34341 0.0
C653 C 0.54864 6.31148 0.32246 0.0
C654 C 0.58708 6.60007 0.3298 0.0
C655 C 0.59542 6.8537 0.35755 0.0
C656 C 0.56495 6.79948 0.37907 0.0
H657 H 0.39609 9.62559 0.40244 0.0
H658 H 0.3704 9.58005 0.29746 0.0
H659 H 0.40934 9.26075 0.28606 0.0
H660 H 0.49849 9.84681 0.39013 0.0
H661 H 0.49602 9.55118 0.42573 0.0
H662 H 0.46786 9.79961 0.42496 0.0
H663 H 0.40607 9.12221 0.43623 0.0
H664 H 0.43392 8.87039 0.4358 0.0
H665 H 0.39342 8.71323 0.40806 0.0
H666 H 0.43939 8.82689 0.28789 0.0
H667 H 0.47898 8.51536 0.29839 0.0
H668 H 0.49652 8.94839 0.40044 0.0
C669 C 0.40084 9.57211 0.37687 0.0
C670 C 0.38154 9.64427 0.35058 0.0
C671 C 0.38657 9.54848 0.31764 0.0
C672 C 0.40774 9.35545 0.31107 0.0
C673 C 0.42473 9.27001 0.33766 0.0
C674 C 0.42315 9.39098 0.36969 0.0
C675 C 0.44516 9.26988 0.39343 0.0
C676 C 0.47891 9.63884 0.4095 0.0
C677 C 0.41801 8.97663 0.41994 0.0
C678 C 0.45942 9.06518 0.36958 0.0
C679 C 0.44582 9.05449 0.33789 0.0
C680 C 0.45193 8.85069 0.31223 0.0
C681 C 0.47496 8.67734 0.31848 0.0
C682 C 0.49326 8.72279 0.34978 0.0
C683 C 0.48395 8.90874 0.37597 0.0
H684 H 0.78893 1.83505 0.69253 0.0
H685 H 0.82531 2.93248 0.6379 0.0
H686 H 0.75698 2.76916 0.63318 0.0
H687 H 0.69967 1.21635 0.64922 0.0
H688 H 0.67305 0.96079 0.68608 0.0
H689 H 0.72454 1.15379 0.68414 0.0
H690 H 0.73323 1.55506 0.73804 0.0
H691 H 0.68178 1.36422 0.7401 0.0
H692 H 0.71448 1.89417 0.74006 0.0
H693 H 0.68475 2.47524 0.63247 0.0
H694 H 0.61369 2.10053 0.64018 0.0
H695 H 0.62422 1.21968 0.69914 0.0
C696 C 0.7824 2.03921 0.67937 0.0
C697 C 0.81231 2.39484 0.66516 0.0
C698 C 0.80281 2.65871 0.64882 0.0
C699 C 0.76411 2.56772 0.64598 0.0
C700 C 0.7353 2.2155 0.66023 0.0
C701 C 0.74396 1.95766 0.67705 0.0
C702 C 0.70761 1.60854 0.69147 0.0
C703 C 0.70084 1.21147 0.67683 0.0
C704 C 0.7094 1.60558 0.72968 0.0
C705 C 0.67716 1.70754 0.67961 0.0
C706 C 0.69375 2.05697 0.66139 0.0
C707 C 0.67145 2.20299 0.64691 0.0
C708 C 0.63115 1.9876 0.65127 0.0
C709 C 0.61354 1.63264 0.67032 0.0
C710 C 0.63699 1.49247 0.68474 0.0
H711 H 0.90033 5.0443 0.63058 0.0
H712 H 0.87934 4.64433 0.7334 0.0
H713 H 0.8473 5.03972 0.74327 0.0
H714 H 0.92347 6.05049 0.64671 0.0
H715 H 0.8997 6.09403 0.61011 0.0
H716 H 0.91909 5.76057 0.61018 0.0
H717 H 0.85204 5.17577 0.59383 0.0
H718 H 0.8324 5.50755 0.59372 0.0
H719 H 0.8104 5.06483 0.6191 0.0
H720 H 0.81618 5.46526 0.74231 0.0
H721 H 0.79297 5.94189 0.73167 0.0
H722 H 0.83875 6.12451 0.63131 0.0
C723 C 0.8892 5.04078 0.65524 0.0
C724 C 0.89214 4.80611 0.68108 0.0
C725 C 0.87677 4.81075 0.71286 0.0
C726 C 0.85865 5.03742 0.71883 0.0
C727 C 0.85611 5.26217 0.69289 0.0
C728 C 0.87117 5.26878 0.66176 0.0
C729 C 0.86526 5.54512 0.63852 0.0
C730 C 0.90421 5.88271 0.62564 0.0
C731 C 0.83844 5.30923 0.60958 0.0
C732 C 0.84553 5.70075 0.6618 0.0
C733 C 0.83973 5.52503 0.6928 0.0
C734 C 0.82065 5.60559 0.71817 0.0
C735 C 0.80734 5.87447 0.71187 0.0
C736 C 0.81386 6.06746 0.68072 0.0
C737 C 0.83339 5.98054 0.65538 0.0
H738 H 0.55427 4.30609 0.62999 0.0
H739 H 0.59691 4.44623 0.73136 0.0
H740 H 0.55905 3.72208 0.73935 0.0
H741 H 0.457 3.54214 0.64856 0.0
H742 H 0.45083 3.26885 0.6106 0.0
H743 H 0.48336 3.79856 0.61161 0.0
H744 H 0.53915 3.69369 0.59052 0.0
H745 H 0.50683 3.16305 0.58949 0.0
H746 H 0.55106 3.36556 0.61303 0.0
H747 H 0.51795 2.98111 0.73663 0.0
H748 H 0.47112 2.27536 0.72506 0.0
H749 H 0.44862 2.60146 0.62784 0.0
C750 C 0.5556 4.18634 0.65397 0.0
C751 C 0.5795 4.43972 0.67982 0.0
C752 C 0.58012 4.26385 0.71067 0.0
C753 C 0.55835 3.85056 0.71562 0.0
C754 C 0.53549 3.61174 0.68969 0.0
C755 C 0.53356 3.77232 0.65956 0.0
C756 C 0.5055 3.44661 0.63624 0.0
C757 C 0.47219 3.51833 0.62618 0.0
C758 C 0.52691 3.41554 0.60549 0.0
C759 C 0.49137 3.07989 0.65831 0.0
C760 C 0.50988 3.18283 0.68875 0.0
C761 C 0.5032 2.89725 0.71294 0.0
C762 C 0.47676 2.49649 0.70605 0.0
C763 C 0.4565 2.38293 0.67552 0.0
C764 C 0.46378 2.67978 0.65137 0.0
H765 H 0.8021 8.34497 0.64069 0.0
H766 H 0.75131 7.93061 0.73818 0.0
H767 H 0.77417 8.62817 0.75524 0.0
H768 H 0.88645 9.21096 0.66891 0.0
H769 H 0.88928 9.52078 0.63432 0.0
H770 H 0.86745 8.98997 0.62895 0.0
H771 H 0.8045 8.95227 0.60755 0.0
H772 H 0.82639 9.48383 0.61208 0.0
H773 H 0.7809 9.15926 0.63231 0.0
H774 H 0.81105 9.36968 0.76395 0.0
H775 H 0.84329 10.09616 0.76045 0.0
H776 H 0.86324 10.03534 0.65466 0.0
C777 C 0.79416 8.4005 0.6651 0.0
C778 C 0.77364 8.08269 0.68782 0.0
C779 C 0.76542 8.16733 0.72003 0.0
C780 C 0.77914 8.56341 0.73011 0.0
C781 C 0.8007 8.87027 0.70755 0.0
C782 C 0.80726 8.7934 0.67539 0.0
C783 C 0.8313 9.17811 0.65609 0.0
C784 C 0.87095 9.2276 0.64651 0.0
C785 C 0.80944 9.1944 0.62519 0.0
C786 C 0.83575 9.48376 0.68206 0.0
C787 C 0.81937 9.29886 0.7119 0.0
C788 C 0.82249 9.51659 0.74036 0.0
C789 C 0.84063 9.93225 0.7379 0.0
C790 C 0.85413 10.13089 0.70685 0.0
C791 C 0.8528 9.90011 0.67879 0.0
H792 H 0.07055 9.38069 0.72101 0.0
H793 H 0.06363 8.78497 0.62759 0.0
H794 H 0.13449 9.17597 0.62192 0.0
H795 H 0.15095 10.35646 0.6956 0.0
H796 H 0.1726 10.46316 0.73633 0.0
H797 H 0.12102 10.15314 0.73208 0.0
H798 H 0.12396 9.59755 0.76561 0.0
H799 H 0.17566 9.90302 0.76945 0.0
H800 H 0.15519 9.412 0.75166 0.0
H801 H 0.20665 9.58793 0.62838 0.0
H802 H 0.27453 10.079 0.6424 0.0
H803 H 0.23478 10.41136 0.73084 0.0
C804 C 0.0839 9.33379 0.69926 0.0
C805 C 0.0613 9.04965 0.67478 0.0
C806 C 0.08003 9.00297 0.6465 0.0
C807 C 0.1204 9.22088 0.6432 0.0
C808 C 0.14184 9.48636 0.66831 0.0
C809 C 0.12426 9.55071 0.69547 0.0
C810 C 0.15412 9.85838 0.71867 0.0
C811 C 0.1494 10.22979 0.72077 0.0
C812 C 0.15209 9.68188 0.7534 0.0
C813 C 0.19114 9.94706 0.70071 0.0
C814 C 0.18346 9.72826 0.6718 0.0
C815 C 0.21309 9.76015 0.65104 0.0
C816 C 0.25159 10.03413 0.65944 0.0
C817 C 0.2599 10.27521 0.68802 0.0
C818 C 0.22926 10.22321 0.70924 0.0
H819 H 0.1417 1.82866 0.73011 0.0
H820 H 0.18789 2.16293 0.63012 0.0
H821 H 0.15011 2.50537 0.62204 0.0
H822 H 0.04436 1.64661 0.7076 0.0
H823 H 0.03732 1.8225 0.74708 0.0
H824 H 0.06733 1.59574 0.74441 0.0
H825 H 0.12368 2.22361 0.77121 0.0
H826 H 0.0942 2.4571 0.77326 0.0
H827 H 0.14027 2.7037 0.75212 0.0
H828 H 0.11067 2.84977 0.62599 0.0
H829 H 0.06273 3.06476 0.63808 0.0
H830 H 0.04064 2.49229 0.73453 0.0
C831 C 0.1437 1.97345 0.70654 0.0
C832 C 0.168 1.97332 0.68085 0.0
C833 C 0.16939 2.15917 0.6501 0.0
C834 C 0.14828 2.35697 0.64536 0.0
C835 C 0.12555 2.36299 0.67149 0.0
C836 C 0.12225 2.16693 0.70115 0.0
C837 C 0.09434 2.20408 0.72461 0.0
C838 C 0.05873 1.79298 0.7313 0.0
C839 C 0.11434 2.40944 0.75723 0.0
C840 C 0.08388 2.46628 0.70405 0.0
C841 C 0.10224 2.55523 0.67351 0.0
C842 C 0.0964 2.78577 0.64996 0.0
C843 C 0.06983 2.91499 0.6573 0.0
C844 C 0.04928 2.80975 0.68775 0.0
C845 C 0.05721 2.59102 0.71164 0.0
H846 H 0.15032 4.38741 0.24364 0.0
H847 H 0.0491 3.20588 0.25039 0.0
H848 H 1.01938 3.36163 0.20425 0.0
H849 H 0.09901 4.92093 0.21883 0.0
H850 H 0.1345 5.23741 0.18858 0.0
H851 H 0.14904 5.05549 0.2239 0.0
H852 H 0.17928 4.75691 0.18431 0.0
H853 H 0.16476 4.93734 0.14889 0.0
H854 H 0.14996 4.41612 0.15217 0.0
H855 H 0.99921 3.60754 0.15765 0.0
H856 H 0.9906 3.93288 0.10884 0.0
H857 H 0.10331 4.97113 0.12562 0.0
C858 C 0.122 4.16211 0.23523 0.0
C859 C 0.1025 3.78005 0.25103 0.0
C860 C 0.06534 3.49707 0.23901 0.0
C861 C 0.04781 3.58357 0.21268 0.0
C862 C 0.06752 3.95543 0.1976 0.0
C863 C 0.10392 4.24153 0.20788 0.0
C864 C 0.11854 4.6094 0.18523 0.0
C865 C 0.1257 4.97765 0.20535 0.0
C866 C 0.15532 4.68442 0.16654 0.0
C867 C 0.08444 4.48169 0.16114 0.0
C868 C 0.05552 4.1025 0.16934 0.0
C869 C 1.02149 3.9058 0.15109 0.0
C870 C 1.0168 4.09514 0.12331 0.0
C871 C 0.04567 4.48149 0.11344 0.0
C872 C 0.08009 4.68065 0.13294 0.0
H873 H 0.70846 7.87643 0.21851 0.0
H874 H 0.60788 7.27844 0.28278 0.0
H875 H 0.57372 6.77803 0.23906 0.0
H876 H 0.65278 7.71102 0.14062 0.0
H877 H 0.68657 7.63898 0.11576 0.0
H878 H 0.70323 7.95612 0.15188 0.0
H879 H 0.73238 7.53929 0.17553 0.0
H880 H 0.71573 7.22155 0.13949 0.0
H881 H 0.70181 7.00894 0.18053 0.0
H882 H 0.55216 6.29937 0.18997 0.0
H883 H 0.54236 5.92657 0.13753 0.0
H884 H 0.65332 6.85496 0.10122 0.0
C885 C 0.67895 7.64505 0.22318 0.0
C886 C 0.66112 7.62103 0.2546 0.0
C887 C 0.62249 7.30838 0.25932 0.0
C888 C 0.60276 7.01999 0.23449 0.0
C889 C 0.62136 7.04805 0.20424 0.0
C890 C 0.65836 7.35723 0.19818 0.0
C891 C 0.67144 7.3182 0.16321 0.0
C892 C 0.67895 7.6775 0.14158 0.0
C893 C 0.70748 7.26912 0.1648 0.0
C894 C 0.63628 6.93724 0.15075 0.0
C895 C 0.60794 6.78437 0.17512 0.0
C896 C 0.57389 6.42166 0.17057 0.0
C897 C 0.56853 6.21084 0.1406 0.0
C898 C 0.59647 6.36325 0.11477 0.0
C899 C 0.63082 6.73452 0.12001 0.0
H900 H 0.3818 9.719 0.09914 0.0
H901 H 0.47794 0.49313 0.13813 0.0
H902 H 0.44469 0.37422 0.19192 0.0
H903 H 0.3044 9.77324 0.14216 0.0
H904 H 0.27685 9.24978 0.15196 0.0
H905 H 0.30774 9.41403 0.11578 0.0
H906 H 0.34307 9.04907 0.13718 0.0
H907 H 0.31255 8.88627 0.17364 0.0
H908 H 0.36442 9.16132 0.17803 0.0
H909 H 0.40224 0.15716 0.24154 0.0
H910 H 0.35153 10.17063 0.28437 0.0
H911 H 0.28049 9.20112 0.21747 0.0
C912 C 0.39565 9.93189 0.11901 0.0
C913 C 0.4328 10.27408 0.11403 0.0
C914 C 0.44986 0.22864 0.14099 0.0
C915 C 0.43111 0.16378 0.17185 0.0
C916 C 0.39507 10.13781 0.17618 0.0
C917 C 0.37734 9.86758 0.1507 0.0
C918 C 0.33863 9.52379 0.16304 0.0
C919 C 0.3049 9.4883 0.14197 0.0
C920 C 0.33972 9.13177 0.16295 0.0
C921 C 0.3368 9.65397 0.19873 0.0
C922 C 0.37023 10.00691 0.20562 0.0
C923 C 0.37606 10.19252 0.23645 0.0
C924 C 0.34702 10.01841 0.2608 0.0
C925 C 0.31215 9.6579 0.25486 0.0
C926 C 0.30699 9.47308 0.22314 0.0
H927 H 0.42068 10.30022 0.8855 0.0
H928 H 0.47783 1.06734 0.94418 0.0
H929 H 0.46567 1.43353 0.89958 0.0
H930 H 0.4573 0.48544 0.80396 0.0
H931 H 0.41316 10.46153 0.78275 0.0
H932 H 0.42829 10.29347 0.81858 0.0
H933 H 0.36232 10.07977 0.847 0.0
H934 H 0.34717 10.24925 0.81136 0.0
H935 H 0.34646 10.44014 0.85211 0.0
H936 H 0.44283 1.67361 0.849 0.0
H937 H 0.41552 1.77143 0.79684 0.0
H938 H 0.37461 0.54051 0.77005 0.0
C939 C 0.4314 0.30299 0.88876 0.0
C940 C 0.45021 0.49661 0.91878 0.0
C941 C 0.46334 0.91007 0.92174 0.0
C942 C 0.45646 1.121 0.89641 0.0
C943 C 0.43686 0.91816 0.86764 0.0
C944 C 0.42509 0.51915 0.8635 0.0
C945 C 0.40439 0.36931 0.83032 0.0
C946 C 0.42714 0.23821 0.80755 0.0
C947 C 0.36261 10.34275 0.83553 0.0
C948 C 0.40527 0.7419 0.81679 0.0
C949 C 0.42432 1.05636 0.83862 0.0
C950 C 0.42816 1.42899 0.83174 0.0
C951 C 0.41242 1.48199 0.80197 0.0
C952 C 0.39281 1.16516 0.7791 0.0
C953 C 0.3894 0.79017 0.78684 0.0
H954 H 0.98431 3.51647 0.92891 0.0
H955 H 1.00832 4.695 0.89866 0.0
H956 H 0.98428 4.42745 0.84166 0.0
H957 H 1.0201 3.29616 0.85834 0.0
H958 H 0.98456 2.77344 0.85868 0.0
H959 H 0.99826 3.04912 0.89698 0.0
H960 H 0.9266 2.83729 0.90901 0.0
H961 H 0.9125 2.55746 0.87081 0.0
H962 H 0.89918 2.93334 0.87843 0.0
H963 H 0.95638 3.99276 0.78656 0.0
H964 H 0.93631 3.49676 0.74108 0.0
H965 H 0.9416 2.65304 0.80836 0.0
C966 C 0.98463 3.72377 0.91062 0.0
C967 C 0.99866 4.13082 0.91859 0.0
C968 C 0.99778 4.3832 0.89347 0.0
C969 C 0.98417 4.23213 0.861 0.0
C970 C 0.97179 3.82955 0.85406 0.0
C971 C 0.97226 3.58203 0.8785 0.0
C972 C 0.96033 3.1694 0.86535 0.0
C973 C 0.99275 3.06636 0.87011 0.0
C974 C 0.92241 2.85593 0.88188 0.0
C975 C 0.95417 3.22112 0.829 0.0
C976 C 0.95951 3.59832 0.82296 0.0
C977 C 0.95304 3.70167 0.79126 0.0
C978 C 0.94184 3.41828 0.76537 0.0
C979 C 0.93867 3.04043 0.77065 0.0
C980 C 0.94457 2.94178 0.80316 0.0
H981 H 0.70815 6.48934 0.76358 0.0
H982 H 0.82055 7.11035 0.81117 0.0
H983 H 0.78917 6.91762 0.86613 0.0
H984 H 0.65706 6.75417 0.82226 0.0
H985 H 0.6131 6.27876 0.82214 0.0
H986 H 0.64401 6.43936 0.786 0.0
H987 H 0.64815 5.79348 0.78799 0.0
H988 H 0.61736 5.63076 0.8243 0.0
H989 H 0.66421 5.66547 0.82553 0.0
H990 H 0.74671 6.67669 0.91629 0.0
H991 H 0.69574 6.45391 0.95865 0.0
H992 H 0.60814 5.99085 0.88175 0.0
C993 C 0.72611 6.58104 0.78558 0.0
C994 C 0.76717 6.8142 0.78273 0.0
C995 C 0.78932 6.93049 0.81235 0.0
C996 C 0.77167 6.82145 0.84386 0.0
C997 C 0.73145 6.59328 0.84589 0.0
C998 C 0.70875 6.47472 0.81765 0.0
C999 C 0.66591 6.24073 0.82747 0.0
C1000 C 0.64372 6.44042 0.81365 0.0
C1001 C 0.64783 5.80688 0.81561 0.0
C1002 C 0.6682 6.2628 0.86551 0.0
C1003 C 0.7065 6.45876 0.87532 0.0
C1004 C 0.71665 6.51911 0.90883 0.0
C1005 C 0.68722 6.38443 0.93296 0.0
C1006 C 0.64753 6.19026 0.92412 0.0
C1007 C 0.63803 6.12927 0.88962 0.0
H1008 H 0.74696 8.38891 0.47564 0.0
H1009 H 0.70189 7.33883 0.41341 0.0
H1010 H 0.72092 7.00447 0.45549 0.0
H1011 H 0.82965 8.30321 0.51027 0.0
H1012 H 0.8254 8.46926 0.55117 0.0
H1013 H 0.81129 8.64314 0.51505 0.0
H1014 H 0.74361 8.39248 0.54082 0.0
H1015 H 0.75743 8.21572 0.57685 0.0
H1016 H 0.71516 7.87854 0.55337 0.0
H1017 H 0.74352 6.77437 0.50362 0.0
H1018 H 0.76323 6.62991 0.5572 0.0
H1019 H 0.79134 7.8021 0.59322 0.0
C1020 C 0.74193 8.09163 0.47071 0.0
C1021 C 0.72401 7.89423 0.4405 0.0
C1022 C 0.71662 7.50061 0.43561 0.0
C1023 C 0.72722 7.30741 0.45957 0.0
C1024 C 0.74498 7.50844 0.48885 0.0
C1025 C 0.75222 7.89122 0.49479 0.0
C1026 C 0.77024 8.02795 0.52935 0.0
C1027 C 0.8116 8.38198 0.52628 0.0
C1028 C 0.74509 8.13472 0.5514 0.0
C1029 C 0.7707 7.65671 0.5422 0.0
C1030 C 0.75673 7.36641 0.51784 0.0
C1031 C 0.75449 6.99932 0.52286 0.0
C1032 C 0.76598 6.92051 0.5536 0.0
C1033 C 0.77905 7.20174 0.57993 0.0
C1034 C 0.78192 7.57983 0.57378 0.0
H1035 H 0.2399 9.5803 0.47811 0.0
H1036 H 0.32935 10.33284 0.4083 0.0
H1037 H 0.35661 0.56284 0.4496 0.0
H1038 H 0.22936 10.37252 0.52121 0.0
H1039 H 0.22422 10.15353 0.56183 0.0
H1040 H 0.20837 9.84082 0.52541 0.0
H1041 H 0.25194 9.54605 0.5415 0.0
H1042 H 0.2675 9.85558 0.578 0.0
H1043 H 0.30281 9.87633 0.54866 0.0
H1044 H 0.37697 1.01467 0.4992 0.0
H1045 H 0.39406 1.31286 0.55524 0.0
H1046 H 0.29495 0.27173 0.59647 0.0
C1047 C 0.26473 9.86315 0.47142 0.0
C1048 C 0.28104 9.92346 0.43893 0.0
C1049 C 0.31464 10.29012 0.43184 0.0
C1050 C 0.3307 0.28564 0.4555 0.0
C1051 C 0.31356 0.22261 0.48691 0.0
C1052 C 0.28166 10.17453 0.49523 0.0
C1053 C 0.27127 10.17547 0.53189 0.0
C1054 C 0.2309 10.13311 0.53528 0.0
C1055 C 0.27354 9.84381 0.55115 0.0
C1056 C 0.30284 0.27649 0.54296 0.0
C1057 C 0.32635 0.48029 0.51627 0.0
C1058 C 0.35843 0.85976 0.52015 0.0
C1059 C 0.36772 1.03017 0.55211 0.0
C1060 C 0.34519 0.82582 0.58025 0.0
C1061 C 0.31183 0.44472 0.57536 0.0
H1062 H 0.99655 3.34891 0.57884 0.0
H1063 H 0.95577 2.08159 0.58057 0.0
H1064 H 0.99571 2.158 0.53041 0.0
H1065 H 0.99921 3.48795 0.49172 0.0
H1066 H 0.04341 3.96105 0.49156 0.0
H1067 H 1.01256 3.80671 0.52772 0.0
H1068 H 0.06969 3.89545 0.56438 0.0
H1069 H 0.10085 4.05376 0.52836 0.0
H1070 H 0.09589 3.64266 0.5532 0.0
H1071 H 0.03668 2.3756 0.47653 0.0
H1072 H 0.0795 2.71491 0.42843 0.0
H1073 H 0.09713 3.84993 0.46433 0.0
C1074 C 0.9959 3.08655 0.56861 0.0
C1075 C 0.97221 2.7062 0.58321 0.0
C1076 C 0.97314 2.37368 0.56959 0.0
C1077 C 0.99581 2.41543 0.54109 0.0
C1078 C 1.01818 2.79377 0.52688 0.0
C1079 C 1.01894 3.12476 0.54068 0.0
C1080 C 0.04601 3.50009 0.52131 0.0
C1081 C 1.02397 3.70064 0.50724 0.0
C1082 C 0.08013 3.79007 0.54312 0.0
C1083 C 0.05958 3.32898 0.49372 0.0
C1084 C 0.04313 2.92065 0.4973 0.0
C1085 C 0.05008 2.69557 0.47395 0.0
C1086 C 0.07448 2.89132 0.44661 0.0
C1087 C 0.09225 3.31025 0.4427 0.0
C1088 C 0.08457 3.53045 0.46678 0.0
loop_
_geom_bond_atom_site_label_1
_geom_bond_atom_site_label_2
_geom_bond_distance
_geom_bond_site_symmetry_2
_ccdc_geom_bond_type
Pr0 C2 2.880 . S
Pr0 O20 2.562 1_554 S
Pr0 O21 2.490 . S
Pr0 O22 2.695 1_655 S
Pr0 O23 2.512 . S
Pr0 O25 2.437 . S
Pr0 O28 2.436 1_554 S
Pr0 O30 2.439 1_655 S
Pr1 C11 2.880 . S
Pr1 O22 2.436 1_556 S
Pr1 O24 2.438 1_456 S
Pr1 O26 2.562 1_556 S
Pr1 O27 2.490 . S
Pr1 O28 2.695 1_455 S
Pr1 O29 2.512 . S
Pr1 O31 2.437 . S
C2 Pr0 2.880 . S
C2 C3 1.491 . S
C2 O20 1.254 1_554 S
C2 O21 1.225 . S
C3 C2 1.491 . S
C3 C4 1.392 . S
C3 C8 1.356 1_554 S
C4 C3 1.392 . S
C4 C5 1.368 . S
C4 H32 0.929 . S
C5 C4 1.368 . S
C5 C6 1.386 . S
C5 H33 0.929 . S
C6 C5 1.386 . S
C6 C7 1.373 1_554 S
C7 C6 1.373 1_556 S
C7 C8 1.409 . S
C7 H34 0.931 . S
C8 C3 1.356 1_556 S
C8 C7 1.409 . S
C8 H35 0.930 . S
C9 O22 1.270 . S
C9 O23 1.248 1_455 S
C10 O24 1.267 . S
C10 O25 1.278 . S
C11 Pr1 2.880 . S
C11 C12 1.491 . S
C11 O26 1.254 1_556 S
C11 O27 1.225 . S
C12 C11 1.491 . S
C12 C13 1.392 . S
C12 C17 1.356 1_556 S
C13 C12 1.392 . S
C13 C14 1.368 . S
C13 H36 0.929 . S
C14 C13 1.368 . S
C14 C15 1.386 . S
C14 H37 0.929 . S
C15 C14 1.386 . S
C15 C16 1.373 1_556 S
C16 C15 1.373 1_554 S
C16 C17 1.409 . S
C16 H38 0.931 . S
C17 C12 1.356 1_554 S
C17 C16 1.409 . S
C17 H39 0.930 . S
C18 O28 1.270 . S
C18 O29 1.248 1_655 S
C19 O30 1.266 1_556 S
C19 O31 1.278 . S
O20 Pr0 2.562 1_556 S
O20 C2 1.254 1_556 S
O21 Pr0 2.490 . S
O21 C2 1.225 . S
O22 Pr0 2.695 1_455 S
O22 Pr1 2.436 1_554 S
O22 C9 1.270 . S
O23 Pr0 2.512 . S
O23 C9 1.248 1_655 S
O24 Pr1 2.438 1_654 S
O24 C10 1.267 . S
O25 Pr0 2.437 . S
O25 C10 1.278 . S
O26 Pr1 2.562 1_554 S
O26 C11 1.254 1_554 S
O27 Pr1 2.490 . S
O27 C11 1.225 . S
O28 Pr0 2.436 1_556 S
O28 Pr1 2.695 1_655 S
O28 C18 1.270 . S
O29 Pr1 2.512 . S
O29 C18 1.248 1_455 S
O30 Pr0 2.439 1_455 S
O30 C19 1.266 1_554 S
O31 Pr1 2.437 . S
O31 C19 1.278 . S
H32 C4 0.929 . S
H33 C5 0.929 . S
H34 C7 0.931 . S
H35 C8 0.930 . S
H36 C13 0.929 . S
H37 C14 0.929 . S
H38 C16 0.931 . S
H39 C17 0.930 . S
Pr40 C42 2.880 . S
Pr40 O60 2.562 1_554 S
Pr40 O61 2.490 . S
Pr40 O62 2.695 . S
Pr40 O63 2.512 . S
Pr40 O65 2.437 . S
Pr40 O68 2.436 1_554 S
Pr40 O70 2.438 . S
Pr41 C51 2.880 . S
Pr41 O62 2.436 1_556 S
Pr41 O64 2.438 1_556 S
Pr41 O66 2.562 1_556 S
Pr41 O67 2.490 . S
Pr41 O68 2.695 . S
Pr41 O69 2.512 . S
Pr41 O71 2.437 . S
C42 Pr40 2.880 . S
C42 C43 1.491 . S
C42 O60 1.254 1_554 S
C42 O61 1.225 . S
C43 C42 1.491 . S
C43 C44 1.392 . S
C43 C48 1.356 1_554 S
C44 C43 1.392 . S
C44 C45 1.368 . S
C44 H72 0.929 . S
C45 C44 1.368 . S
C45 C46 1.386 . S
C45 H73 0.929 . S
C46 C45 1.386 . S
C46 C47 1.373 1_554 S
C47 C46 1.373 1_556 S
C47 C48 1.409 . S
C47 H74 0.931 . S
C48 C43 1.356 1_556 S
C48 C47 1.409 . S
C48 H75 0.930 . S
C49 O62 1.270 . S
C49 O63 1.248 . S
C50 O64 1.267 . S
C50 O65 1.278 . S
C51 Pr41 2.880 . S
C51 C52 1.491 . S
C51 O66 1.254 1_556 S
C51 O67 1.225 . S
C52 C51 1.491 . S
C52 C53 1.392 . S
C52 C57 1.356 1_556 S
C53 C52 1.392 . S
C53 C54 1.368 . S
C53 H76 0.929 . S
C54 C53 1.368 . S
C54 C55 1.386 . S
C54 H77 0.929 . S
C55 C54 1.386 . S
C55 C56 1.373 1_556 S
C56 C55 1.373 1_554 S
C56 C57 1.409 . S
C56 H78 0.931 . S
C57 C52 1.356 1_554 S
C57 C56 1.409 . S
C57 H79 0.930 . S
C58 O68 1.270 . S
C58 O69 1.248 . S
C59 O70 1.266 1_556 S
C59 O71 1.278 . S
O60 Pr40 2.562 1_556 S
O60 C42 1.254 1_556 S
O61 Pr40 2.490 . S
O61 C42 1.225 . S
O62 Pr40 2.695 . S
O62 Pr41 2.436 1_554 S
O62 C49 1.270 . S
O63 Pr40 2.512 . S
O63 C49 1.248 . S
O64 Pr41 2.438 1_554 S
O64 C50 1.267 . S
O65 Pr40 2.437 . S
O65 C50 1.278 . S
O66 Pr41 2.562 1_554 S
O66 C51 1.254 1_554 S
O67 Pr41 2.490 . S
O67 C51 1.225 . S
O68 Pr40 2.436 1_556 S
O68 Pr41 2.695 . S
O68 C58 1.270 . S
O69 Pr41 2.512 . S
O69 C58 1.248 . S
O70 Pr40 2.438 . S
O70 C59 1.266 1_554 S
O71 Pr41 2.437 . S
O71 C59 1.278 . S
H72 C44 0.929 . S
H73 C45 0.929 . S
H74 C47 0.931 . S
H75 C48 0.930 . S
H76 C53 0.929 . S
H77 C54 0.929 . S
H78 C56 0.931 . S
H79 C57 0.930 . S
Pr80 C82 2.880 . S
Pr80 O100 2.562 1_554 S
Pr80 O101 2.490 . S
Pr80 O102 2.695 1_545 S
Pr80 O103 2.512 . S
Pr80 O105 2.437 . S
Pr80 O108 2.436 1_554 S
Pr80 O110 2.438 1_545 S
Pr81 C91 2.880 . S
Pr81 O102 2.436 1_556 S
Pr81 O104 2.438 1_566 S
Pr81 O106 2.562 1_556 S
Pr81 O107 2.490 . S
Pr81 O108 2.695 1_565 S
Pr81 O109 2.512 . S
Pr81 O111 2.437 . S
C82 Pr80 2.880 . S
C82 C83 1.491 . S
C82 O100 1.254 1_554 S
C82 O101 1.225 . S
C83 C82 1.491 . S
C83 C84 1.392 . S
C83 C88 1.356 1_554 S
C84 C83 1.392 . S
C84 C85 1.368 . S
C84 H112 0.929 . S
C85 C84 1.368 . S
C85 C86 1.386 . S
C85 H113 0.929 . S
C86 C85 1.386 . S
C86 C87 1.373 1_554 S
C87 C86 1.373 1_556 S
C87 C88 1.409 . S
C87 H114 0.931 . S
C88 C83 1.356 1_556 S
C88 C87 1.409 . S
C88 H115 0.930 . S
C89 O102 1.270 . S
C89 O103 1.248 1_565 S
C90 O104 1.267 . S
C90 O105 1.278 . S
C91 Pr81 2.880 . S
C91 C92 1.491 . S
C91 O106 1.254 1_556 S
C91 O107 1.225 . S
C92 C91 1.491 . S
C92 C93 1.392 . S
C92 C97 1.356 1_556 S
C93 C92 1.392 . S
C93 C94 1.368 . S
C93 H116 0.929 . S
C94 C93 1.368 . S
C94 C95 1.386 . S
C94 H117 0.929 . S
C95 C94 1.386 . S
C95 C96 1.373 1_556 S
C96 C95 1.373 1_554 S
C96 C97 1.409 . S
C96 H118 0.931 . S
C97 C92 1.356 1_554 S
C97 C96 1.409 . S
C97 H119 0.930 . S
C98 O108 1.270 . S
C98 O109 1.248 1_545 S
C99 O110 1.266 1_556 S
C99 O111 1.278 . S
O100 Pr80 2.562 1_556 S
O100 C82 1.254 1_556 S
O101 Pr80 2.490 . S
O101 C82 1.225 . S
O102 Pr80 2.695 1_565 S
O102 Pr81 2.436 1_554 S
O102 C89 1.270 . S
O103 Pr80 2.512 . S
O103 C89 1.248 1_545 S
O104 Pr81 2.438 1_544 S
O104 C90 1.267 . S
O105 Pr80 2.437 . S
O105 C90 1.278 . S
O106 Pr81 2.562 1_554 S
O106 C91 1.254 1_554 S
O107 Pr81 2.490 . S
O107 C91 1.225 . S
O108 Pr80 2.436 1_556 S
O108 Pr81 2.695 1_545 S
O108 C98 1.270 . S
O109 Pr81 2.512 . S
O109 C98 1.248 1_565 S
O110 Pr80 2.438 1_565 S
O110 C99 1.266 1_554 S
O111 Pr81 2.437 . S
O111 C99 1.278 . S
H112 C84 0.929 . S
H113 C85 0.929 . S
H114 C87 0.931 . S
H115 C88 0.930 . S
H116 C93 0.929 . S
H117 C94 0.929 . S
H118 C96 0.931 . S
H119 C97 0.930 . S
Pr120 C122 2.880 . S
Pr120 O140 2.562 . S
Pr120 O141 2.490 . S
Pr120 O142 2.695 . S
Pr120 O143 2.512 . S
Pr120 O145 2.437 . S
Pr120 O148 2.436 . S
Pr120 O150 2.438 . S
Pr121 C131 2.880 . S
Pr121 O142 2.436 . S
Pr121 O144 2.438 . S
Pr121 O146 2.562 . S
Pr121 O147 2.490 . S
Pr121 O148 2.695 . S
Pr121 O149 2.512 . S
Pr121 O151 2.437 . S
C122 Pr120 2.880 . S
C122 C123 1.491 . S
C122 O140 1.254 . S
C122 O141 1.225 . S
C123 C122 1.491 . S
C123 C124 1.392 . S
C123 C128 1.356 . S
C124 C123 1.392 . S
C124 C125 1.368 . S
C124 H152 0.929 . S
C125 C124 1.368 . S
C125 C126 1.386 . S
C125 H153 0.929 . S
C126 C125 1.386 . S
C126 C127 1.373 . S
C127 C126 1.373 . S
C127 C128 1.409 . S
C127 H154 0.931 . S
C128 C123 1.356 . S
C128 C127 1.409 . S
C128 H155 0.930 . S
C129 O142 1.270 . S
C129 O143 1.248 . S
C130 O144 1.267 . S
C130 O145 1.278 . S
C131 Pr121 2.880 . S
C131 C132 1.491 . S
C131 O146 1.254 . S
C131 O147 1.225 . S
C132 C131 1.491 . S
C132 C133 1.392 . S
C132 C137 1.356 . S
C133 C132 1.392 . S
C133 C134 1.368 . S
C133 H156 0.929 . S
C134 C133 1.368 . S
C134 C135 1.386 . S
C134 H157 0.929 . S
C135 C134 1.386 . S
C135 C136 1.373 . S
C136 C135 1.373 . S
C136 C137 1.409 . S
C136 H158 0.931 . S
C137 C132 1.356 . S
C137 C136 1.409 . S
C137 H159 0.930 . S
C138 O148 1.270 . S
C138 O149 1.248 . S
C139 O150 1.267 . S
C139 O151 1.278 . S
O140 Pr120 2.562 . S
O140 C122 1.254 . S
O141 Pr120 2.490 . S
O141 C122 1.225 . S
O142 Pr120 2.695 . S
O142 Pr121 2.436 . S
O142 C129 1.270 . S
O143 Pr120 2.512 . S
O143 C129 1.248 . S
O144 Pr121 2.438 . S
O144 C130 1.267 . S
O145 Pr120 2.437 . S
O145 C130 1.278 . S
O146 Pr121 2.562 . S
O146 C131 1.254 . S
O147 Pr121 2.490 . S
O147 C131 1.225 . S
O148 Pr120 2.436 . S
O148 Pr121 2.695 . S
O148 C138 1.270 . S
O149 Pr121 2.512 . S
O149 C138 1.248 . S
O150 Pr120 2.438 . S
O150 C139 1.267 . S
O151 Pr121 2.437 . S
O151 C139 1.278 . S
H152 C124 0.929 . S
H153 C125 0.929 . S
H154 C127 0.931 . S
H155 C128 0.930 . S
H156 C133 0.929 . S
H157 C134 0.929 . S
H158 C136 0.931 . S
H159 C137 0.930 . S
Pr160 C162 2.880 . S
Pr160 O180 2.562 . S
Pr160 O181 2.490 . S
Pr160 O182 2.695 . S
Pr160 O183 2.512 . S
Pr160 O185 2.437 . S
Pr160 O188 2.436 . S
Pr160 O190 2.438 . S
Pr161 C171 2.880 1_565 S
Pr161 O182 2.436 . S
Pr161 O184 2.438 . S
Pr161 O186 2.562 . S
Pr161 O187 2.490 . S
Pr161 O188 2.695 . S
Pr161 O189 2.512 . S
Pr161 O191 2.437 . S
C162 Pr160 2.880 . S
C162 C163 1.491 . S
C162 O180 1.254 . S
C162 O181 1.225 . S
C163 C162 1.491 . S
C163 C164 1.392 . S
C163 C168 1.356 . S
C164 C163 1.392 . S
C164 C165 1.368 . S
C164 H192 0.929 . S
C165 C164 1.368 . S
C165 C166 1.386 . S
C165 H193 0.929 . S
C166 C165 1.386 . S
C166 C167 1.373 . S
C167 C166 1.373 . S
C167 C168 1.409 . S
C167 H194 0.931 . S
C168 C163 1.356 . S
C168 C167 1.409 . S
C168 H195 0.930 . S
C169 O182 1.270 . S
C169 O183 1.248 . S
C170 O184 1.267 . S
C170 O185 1.278 . S
C171 Pr161 2.880 1_545 S
C171 C172 1.491 . S
C171 O186 1.254 1_545 S
C171 O187 1.225 1_545 S
C172 C171 1.491 . S
C172 C173 1.392 . S
C172 C177 1.356 . S
C173 C172 1.392 . S
C173 C174 1.368 . S
C173 H196 0.929 . S
C174 C173 1.368 . S
C174 C175 1.386 . S
C174 H197 0.929 . S
C175 C174 1.386 . S
C175 C176 1.373 . S
C176 C175 1.373 . S
C176 C177 1.409 . S
C176 H198 0.931 . S
C177 C172 1.356 . S
C177 C176 1.409 . S
C177 H199 0.930 . S
C178 O188 1.270 . S
C178 O189 1.248 . S
C179 O190 1.267 . S
C179 O191 1.278 . S
O180 Pr160 2.562 . S
O180 C162 1.254 . S
O181 Pr160 2.490 . S
O181 C162 1.225 . S
O182 Pr160 2.695 . S
O182 Pr161 2.436 . S
O182 C169 1.270 . S
O183 Pr160 2.512 . S
O183 C169 1.248 . S
O184 Pr161 2.438 . S
O184 C170 1.267 . S
O185 Pr160 2.437 . S
O185 C170 1.278 . S
O186 Pr161 2.562 . S
O186 C171 1.254 1_565 S
O187 Pr161 2.490 . S
O187 C171 1.225 1_565 S
O188 Pr160 2.436 . S
O188 Pr161 2.695 . S
O188 C178 1.270 . S
O189 Pr161 2.512 . S
O189 C178 1.248 . S
O190 Pr160 2.438 . S
O190 C179 1.267 . S
O191 Pr161 2.437 . S
O191 C179 1.278 . S
H192 C164 0.929 . S
H193 C165 0.929 . S
H194 C167 0.931 . S
H195 C168 0.930 . S
H196 C173 0.929 . S
H197 C174 0.929 . S
H198 C176 0.931 . S
H199 C177 0.930 . S
Pr200 C202 2.880 . S
Pr200 O220 2.562 . S
Pr200 O221 2.490 . S
Pr200 O222 2.695 . S
Pr200 O223 2.512 . S
Pr200 O225 2.437 . S
Pr200 O228 2.436 . S
Pr200 O230 2.438 . S
Pr201 C211 2.880 . S
Pr201 O222 2.436 . S
Pr201 O224 2.438 . S
Pr201 O226 2.562 . S
Pr201 O227 2.490 . S
Pr201 O228 2.695 . S
Pr201 O229 2.512 . S
Pr201 O231 2.437 . S
C202 Pr200 2.880 . S
C202 C203 1.491 . S
C202 O220 1.254 . S
C202 O221 1.225 . S
C203 C202 1.491 . S
C203 C204 1.392 . S
C203 C208 1.356 . S
C204 C203 1.392 . S
C204 C205 1.368 . S
C204 H232 0.929 . S
C205 C204 1.368 . S
C205 C206 1.386 . S
C205 H233 0.929 . S
C206 C205 1.386 . S
C206 C207 1.373 . S
C207 C206 1.373 . S
C207 C208 1.409 . S
C207 H234 0.931 . S
C208 C203 1.356 . S
C208 C207 1.409 . S
C208 H235 0.930 . S
C209 O222 1.270 . S
C209 O223 1.248 . S
C210 O224 1.267 . S
C210 O225 1.278 . S
C211 Pr201 2.880 . S
C211 C212 1.491 1_455 S
C211 O226 1.254 . S
C211 O227 1.225 . S
C212 C211 1.491 1_655 S
C212 C213 1.392 . S
C212 C217 1.356 . S
C213 C212 1.392 . S
C213 C214 1.368 . S
C213 H236 0.929 . S
C214 C213 1.368 . S
C214 C215 1.386 . S
C214 H237 0.929 . S
C215 C214 1.386 . S
C215 C216 1.373 . S
C216 C215 1.373 . S
C216 C217 1.409 . S
C216 H238 0.931 . S
C217 C212 1.356 . S
C217 C216 1.409 . S
C217 H239 0.930 . S
C218 O228 1.270 . S
C218 O229 1.248 . S
C219 O230 1.267 . S
C219 O231 1.278 . S
O220 Pr200 2.562 . S
O220 C202 1.254 . S
O221 Pr200 2.490 . S
O221 C202 1.225 . S
O222 Pr200 2.695 . S
O222 Pr201 2.436 . S
O222 C209 1.270 . S
O223 Pr200 2.512 . S
O223 C209 1.248 . S
O224 Pr201 2.438 . S
O224 C210 1.267 . S
O225 Pr200 2.437 . S
O225 C210 1.278 . S
O226 Pr201 2.562 . S
O226 C211 1.254 . S
O227 Pr201 2.490 . S
O227 C211 1.225 . S
O228 Pr200 2.436 . S
O228 Pr201 2.695 . S
O228 C218 1.270 . S
O229 Pr201 2.512 . S
O229 C218 1.248 . S
O230 Pr200 2.438 . S
O230 C219 1.267 . S
O231 Pr201 2.437 . S
O231 C219 1.278 . S
H232 C204 0.929 . S
H233 C205 0.929 . S
H234 C207 0.931 . S
H235 C208 0.930 . S
H236 C213 0.929 . S
H237 C214 0.929 . S
H238 C216 0.931 . S
H239 C217 0.930 . S
Pr240 C242 2.880 . S
Pr240 O260 2.562 . S
Pr240 O261 2.490 . S
Pr240 O262 2.695 . S
Pr240 O263 2.512 . S
Pr240 O265 2.437 . S
Pr240 O268 2.436 . S
Pr240 O270 2.438 . S
Pr241 C251 2.880 . S
Pr241 O262 2.436 . S
Pr241 O264 2.438 . S
Pr241 O266 2.562 . S
Pr241 O267 2.490 . S
Pr241 O268 2.695 . S
Pr241 O269 2.512 . S
Pr241 O271 2.437 . S
C242 Pr240 2.880 . S
C242 C243 1.491 . S
C242 O260 1.254 . S
C242 O261 1.225 . S
C243 C242 1.491 . S
C243 C244 1.392 . S
C243 C248 1.356 . S
C244 C243 1.392 . S
C244 C245 1.368 . S
C244 H272 0.929 . S
C245 C244 1.368 . S
C245 C246 1.386 . S
C245 H273 0.929 . S
C246 C245 1.386 . S
C246 C247 1.373 . S
C247 C246 1.373 . S
C247 C248 1.409 . S
C247 H274 0.931 . S
C248 C243 1.356 . S
C248 C247 1.409 . S
C248 H275 0.930 . S
C249 O262 1.270 . S
C249 O263 1.248 . S
C250 O264 1.267 . S
C250 O265 1.278 . S
C251 Pr241 2.880 . S
C251 C252 1.491 . S
C251 O266 1.254 . S
C251 O267 1.225 . S
C252 C251 1.491 . S
C252 C253 1.392 . S
C252 C257 1.356 . S
C253 C252 1.392 . S
C253 C254 1.368 . S
C253 H276 0.929 . S
C254 C253 1.368 . S
C254 C255 1.386 . S
C254 H277 0.929 . S
C255 C254 1.386 . S
C255 C256 1.373 . S
C256 C255 1.373 . S
C256 C257 1.409 . S
C256 H278 0.931 . S
C257 C252 1.356 . S
C257 C256 1.409 . S
C257 H279 0.930 . S
C258 O268 1.270 . S
C258 O269 1.248 . S
C259 O270 1.267 . S
C259 O271 1.278 . S
O260 Pr240 2.562 . S
O260 C242 1.254 . S
O261 Pr240 2.490 . S
O261 C242 1.225 . S
O262 Pr240 2.695 . S
O262 Pr241 2.436 . S
O262 C249 1.270 . S
O263 Pr240 2.512 . S
O263 C249 1.248 . S
O264 Pr241 2.438 . S
O264 C250 1.267 . S
O265 Pr240 2.437 . S
O265 C250 1.278 . S
O266 Pr241 2.562 . S
O266 C251 1.254 . S
O267 Pr241 2.490 . S
O267 C251 1.225 . S
O268 Pr240 2.436 . S
O268 Pr241 2.695 . S
O268 C258 1.270 . S
O269 Pr241 2.512 . S
O269 C258 1.248 . S
O270 Pr240 2.438 . S
O270 C259 1.267 . S
O271 Pr241 2.437 . S
O271 C259 1.278 . S
H272 C244 0.929 . S
H273 C245 0.929 . S
H274 C247 0.931 . S
H275 C248 0.930 . S
H276 C253 0.929 . S
H277 C254 0.929 . S
H278 C256 0.931 . S
H279 C257 0.930 . S
Pr280 C282 2.880 . S
Pr280 O300 2.562 . S
Pr280 O301 2.490 . S
Pr280 O302 2.695 . S
Pr280 O303 2.512 . S
Pr280 O305 2.437 . S
Pr280 O308 2.436 . S
Pr280 O310 2.438 . S
Pr281 C291 2.880 . S
Pr281 O302 2.436 . S
Pr281 O304 2.438 . S
Pr281 O306 2.562 . S
Pr281 O307 2.490 . S
Pr281 O308 2.695 . S
Pr281 O309 2.512 . S
Pr281 O311 2.437 . S
C282 Pr280 2.880 . S
C282 C283 1.491 . S
C282 O300 1.254 . S
C282 O301 1.225 . S
C283 C282 1.491 . S
C283 C284 1.392 . S
C283 C288 1.356 . S
C284 C283 1.392 . S
C284 C285 1.368 . S
C284 H312 0.929 . S
C285 C284 1.368 . S
C285 C286 1.386 . S
C285 H313 0.929 . S
C286 C285 1.386 . S
C286 C287 1.373 . S
C287 C286 1.373 . S
C287 C288 1.409 . S
C287 H314 0.931 . S
C288 C283 1.356 . S
C288 C287 1.409 . S
C288 H315 0.930 . S
C289 O302 1.270 . S
C289 O303 1.248 . S
C290 O304 1.267 . S
C290 O305 1.278 . S
C291 Pr281 2.880 . S
C291 C292 1.491 . S
C291 O306 1.254 . S
C291 O307 1.225 . S
C292 C291 1.491 . S
C292 C293 1.392 . S
C292 C297 1.356 . S
C293 C292 1.392 . S
C293 C294 1.368 . S
C293 H316 0.929 . S
C294 C293 1.368 . S
C294 C295 1.386 . S
C294 H317 0.929 . S
C295 C294 1.386 . S
C295 C296 1.373 . S
C296 C295 1.373 . S
C296 C297 1.409 . S
C296 H318 0.931 . S
C297 C292 1.356 . S
C297 C296 1.409 . S
C297 H319 0.930 . S
C298 O308 1.270 . S
C298 O309 1.248 . S
C299 O310 1.267 . S
C299 O311 1.278 . S
O300 Pr280 2.562 . S
O300 C282 1.254 . S
O301 Pr280 2.490 . S
O301 C282 1.225 . S
O302 Pr280 2.695 . S
O302 Pr281 2.436 . S
O302 C289 1.270 . S
O303 Pr280 2.512 . S
O303 C289 1.248 . S
O304 Pr281 2.438 . S
O304 C290 1.267 . S
O305 Pr280 2.437 . S
O305 C290 1.278 . S
O306 Pr281 2.562 . S
O306 C291 1.254 . S
O307 Pr281 2.490 . S
O307 C291 1.225 . S
O308 Pr280 2.436 . S
O308 Pr281 2.695 . S
O308 C298 1.270 . S
O309 Pr281 2.512 . S
O309 C298 1.248 . S
O310 Pr280 2.438 . S
O310 C299 1.267 . S
O311 Pr281 2.437 . S
O311 C299 1.278 . S
H312 C284 0.929 . S
H313 C285 0.929 . S
H314 C287 0.931 . S
H315 C288 0.930 . S
H316 C293 0.929 . S
H317 C294 0.929 . S
H318 C296 0.931 . S
H319 C297 0.930 . S
Pr320 C322 2.880 . S
Pr320 O340 2.562 . S
Pr320 O341 2.490 . S
Pr320 O342 2.695 . S
Pr320 O343 2.512 . S
Pr320 O345 2.437 . S
Pr320 O348 2.436 . S
Pr320 O350 2.438 . S
Pr321 C331 2.880 . S
Pr321 O342 2.436 . S
Pr321 O344 2.438 . S
Pr321 O346 2.562 . S
Pr321 O347 2.490 . S
Pr321 O348 2.695 . S
Pr321 O349 2.512 . S
Pr321 O351 2.437 . S
C322 Pr320 2.880 . S
C322 C323 1.491 . S
C322 O340 1.254 . S
C322 O341 1.225 . S
C323 C322 1.491 . S
C323 C324 1.392 . S
C323 C328 1.356 . S
C324 C323 1.392 . S
C324 C325 1.368 . S
C324 H352 0.929 . S
C325 C324 1.368 . S
C325 C326 1.386 . S
C325 H353 0.929 1_655 S
C326 C325 1.386 . S
C326 C327 1.373 . S
C327 C326 1.373 . S
C327 C328 1.409 . S
C327 H354 0.931 . S
C328 C323 1.356 . S
C328 C327 1.409 . S
C328 H355 0.930 . S
C329 O342 1.270 . S
C329 O343 1.248 . S
C330 O344 1.267 . S
C330 O345 1.278 . S
C331 Pr321 2.880 . S
C331 C332 1.491 . S
C331 O346 1.254 . S
C331 O347 1.225 . S
C332 C331 1.491 . S
C332 C333 1.392 . S
C332 C337 1.356 . S
C333 C332 1.392 . S
C333 C334 1.368 . S
C333 H356 0.929 . S
C334 C333 1.368 . S
C334 C335 1.386 . S
C334 H357 0.929 . S
C335 C334 1.386 . S
C335 C336 1.373 . S
C336 C335 1.373 . S
C336 C337 1.409 . S
C336 H358 0.931 . S
C337 C332 1.356 . S
C337 C336 1.409 . S
C337 H359 0.930 . S
C338 O348 1.270 . S
C338 O349 1.248 . S
C339 O350 1.267 . S
C339 O351 1.278 . S
O340 Pr320 2.562 . S
O340 C322 1.254 . S
O341 Pr320 2.490 . S
O341 C322 1.225 . S
O342 Pr320 2.695 . S
O342 Pr321 2.436 . S
O342 C329 1.270 . S
O343 Pr320 2.512 . S
O343 C329 1.248 . S
O344 Pr321 2.438 . S
O344 C330 1.267 . S
O345 Pr320 2.437 . S
O345 C330 1.278 . S
O346 Pr321 2.562 . S
O346 C331 1.254 . S
O347 Pr321 2.490 . S
O347 C331 1.225 . S
O348 Pr320 2.436 . S
O348 Pr321 2.695 . S
O348 C338 1.270 . S
O349 Pr321 2.512 . S
O349 C338 1.248 . S
O350 Pr320 2.438 . S
O350 C339 1.267 . S
O351 Pr321 2.437 . S
O351 C339 1.278 . S
H352 C324 0.929 . S
H353 C325 0.929 1_455 S
H354 C327 0.931 . S
H355 C328 0.930 . S
H356 C333 0.929 . S
H357 C334 0.929 . S
H358 C336 0.931 . S
H359 C337 0.930 . S
H360 C372 0.930 . S
H361 C374 0.930 . S
H362 C375 0.930 . S
H363 C379 0.959 . S
H364 C379 0.959 . S
H365 C379 0.961 . S
H366 C380 0.960 . S
H367 C380 0.961 . S
H368 C380 0.959 . S
H369 C383 0.929 . S
H370 C384 0.931 . S
H371 C386 0.930 . S
C372 H360 0.930 . S
C372 C373 1.399 1_554 S
C372 C377 1.399 . S
C373 C372 1.399 1_556 S
C373 C374 1.376 . S
C374 H361 0.930 . S
C374 C373 1.376 . S
C374 C375 1.388 . S
C375 H362 0.930 . S
C375 C374 1.388 . S
C375 C376 1.390 . S
C376 C375 1.390 . S
C376 C377 1.394 1_556 S
C376 C382 1.465 . S
C377 C372 1.399 . S
C377 C376 1.394 1_554 S
C377 C378 1.516 . S
C378 C377 1.516 . S
C378 C379 1.502 . S
C378 C380 1.561 . S
C378 C381 1.526 . S
C379 H363 0.959 . S
C379 H364 0.959 . S
C379 H365 0.961 . S
C379 C378 1.502 . S
C380 H366 0.960 . S
C380 H367 0.961 . S
C380 H368 0.959 . S
C380 C378 1.561 . S
C381 C378 1.526 . S
C381 C382 1.396 1_554 S
C381 C386 1.390 . S
C382 C376 1.465 . S
C382 C381 1.396 1_556 S
C382 C383 1.399 . S
C383 H369 0.929 . S
C383 C382 1.399 . S
C383 C384 1.385 . S
C384 H370 0.931 . S
C384 C383 1.385 . S
C384 C385 1.389 . S
C385 C384 1.389 . S
C385 C386 1.387 1_556 S
C386 H371 0.930 . S
C386 C381 1.390 . S
C386 C385 1.387 1_554 S
H387 C399 0.930 . S
H388 C401 0.930 . S
H389 C402 0.930 . S
H390 C406 0.959 1_556 S
H391 C406 0.959 . S
H392 C406 0.961 . S
H393 C407 0.960 . S
H394 C407 0.961 . S
H395 C407 0.959 . S
H396 C410 0.929 . S
H397 C411 0.931 . S
H398 C413 0.930 . S
C399 H387 0.930 . S
C399 C400 1.399 1_554 S
C399 C404 1.399 . S
C400 C399 1.399 1_556 S
C400 C401 1.376 . S
C401 H388 0.930 . S
C401 C400 1.376 . S
C401 C402 1.388 . S
C402 H389 0.930 . S
C402 C401 1.388 . S
C402 C403 1.390 . S
C403 C402 1.390 . S
C403 C404 1.394 1_556 S
C403 C409 1.465 . S
C404 C399 1.399 . S
C404 C403 1.394 1_554 S
C404 C405 1.516 . S
C405 C404 1.516 . S
C405 C406 1.502 . S
C405 C407 1.561 . S
C405 C408 1.535 . S
C406 H390 0.959 1_554 S
C406 H391 0.959 . S
C406 H392 0.961 . S
C406 C405 1.502 . S
C407 H393 0.960 . S
C407 H394 0.961 . S
C407 H395 0.959 . S
C407 C405 1.561 . S
C408 C405 1.535 . S
C408 C409 1.385 1_554 S
C408 C413 1.390 . S
C409 C403 1.465 . S
C409 C408 1.385 1_556 S
C409 C410 1.399 . S
C410 H396 0.929 . S
C410 C409 1.399 . S
C410 C411 1.385 . S
C411 H397 0.931 . S
C411 C410 1.385 . S
C411 C412 1.389 . S
C412 C411 1.389 . S
C412 C413 1.387 1_556 S
C413 H398 0.930 . S
C413 C408 1.390 . S
C413 C412 1.387 1_554 S
H414 C426 0.930 . S
H415 C428 0.930 . S
H416 C429 0.930 . S
H417 C433 0.959 . S
H418 C433 0.959 . S
H419 C433 0.961 . S
H420 C434 0.960 . S
H421 C434 0.961 . S
H422 C434 0.959 . S
H423 C437 0.929 . S
H424 C438 0.931 . S
H425 C440 0.930 . S
C426 H414 0.930 . S
C426 C427 1.399 . S
C426 C431 1.399 . S
C427 C426 1.399 . S
C427 C428 1.376 1_556 S
C428 H415 0.930 . S
C428 C427 1.376 1_554 S
C428 C429 1.388 . S
C429 H416 0.930 . S
C429 C428 1.388 . S
C429 C430 1.390 . S
C430 C429 1.390 . S
C430 C431 1.394 1_554 S
C430 C436 1.465 . S
C431 C426 1.399 . S
C431 C430 1.394 1_556 S
C431 C432 1.516 . S
C432 C431 1.516 . S
C432 C433 1.502 . S
C432 C434 1.561 . S
C432 C435 1.526 . S
C433 H417 0.959 . S
C433 H418 0.959 . S
C433 H419 0.961 . S
C433 C432 1.502 . S
C434 H420 0.960 . S
C434 H421 0.961 . S
C434 H422 0.959 . S
C434 C432 1.561 . S
C435 C432 1.526 . S
C435 C436 1.396 1_556 S
C435 C440 1.390 . S
C436 C430 1.465 . S
C436 C435 1.396 1_554 S
C436 C437 1.399 . S
C437 H423 0.929 . S
C437 C436 1.399 . S
C437 C438 1.385 . S
C438 H424 0.931 . S
C438 C437 1.385 . S
C438 C439 1.389 1_554 S
C439 C438 1.389 1_556 S
C439 C440 1.387 . S
C440 H425 0.930 . S
C440 C435 1.390 . S
C440 C439 1.387 . S
H441 C453 0.930 . S
H442 C455 0.930 . S
H443 C456 0.930 . S
H444 C460 0.959 . S
H445 C460 0.959 . S
H446 C460 0.961 . S
H447 C461 0.960 . S
H448 C461 0.961 . S
H449 C461 0.959 . S
H450 C464 0.929 . S
H451 C465 0.931 . S
H452 C467 0.930 . S
C453 H441 0.930 . S
C453 C454 1.399 1_556 S
C453 C458 1.399 . S
C454 C453 1.399 1_554 S
C454 C455 1.376 . S
C455 H442 0.930 . S
C455 C454 1.376 . S
C455 C456 1.388 . S
C456 H443 0.930 . S
C456 C455 1.388 . S
C456 C457 1.390 . S
C457 C456 1.390 . S
C457 C458 1.394 1_554 S
C457 C463 1.465 . S
C458 C453 1.399 . S
C458 C457 1.394 1_556 S
C458 C459 1.516 . S
C459 C458 1.516 . S
C459 C460 1.502 . S
C459 C461 1.561 . S
C459 C462 1.526 . S
C460 H444 0.959 . S
C460 H445 0.959 . S
C460 H446 0.961 . S
C460 C459 1.502 . S
C461 H447 0.960 . S
C461 H448 0.961 . S
C461 H449 0.959 . S
C461 C459 1.561 . S
C462 C459 1.526 . S
C462 C463 1.396 1_556 S
C462 C467 1.390 . S
C463 C457 1.465 . S
C463 C462 1.396 1_554 S
C463 C464 1.399 . S
C464 H450 0.929 . S
C464 C463 1.399 . S
C464 C465 1.385 . S
C465 H451 0.931 . S
C465 C464 1.385 . S
C465 C466 1.389 . S
C466 C465 1.389 . S
C466 C467 1.387 1_554 S
C467 H452 0.930 . S
C467 C462 1.390 . S
C467 C466 1.387 1_556 S
H468 C480 0.930 . S
H469 C482 0.930 . S
H470 C483 0.930 . S
H471 C487 0.959 1_554 S
H472 C487 0.959 . S
H473 C487 0.961 . S
H474 C488 0.960 . S
H475 C488 0.961 . S
H476 C488 0.959 . S
H477 C491 0.929 . S
H478 C492 0.931 . S
H479 C494 0.930 . S
C480 H468 0.930 . S
C480 C481 1.399 1_556 S
C480 C485 1.398 1_556 S
C481 C480 1.399 1_554 S
C481 C482 1.376 . S
C482 H469 0.930 . S
C482 C481 1.376 . S
C482 C483 1.388 . S
C483 H470 0.930 . S
C483 C482 1.388 . S
C483 C484 1.390 . S
C484 C483 1.390 . S
C484 C485 1.399 . S
C484 C490 1.465 . S
C485 C480 1.398 1_554 S
C485 C484 1.399 . S
C485 C486 1.512 1_554 S
C486 C485 1.512 1_556 S
C486 C487 1.502 . S
C486 C488 1.561 . S
C486 C489 1.526 . S
C487 H471 0.959 1_556 S
C487 H472 0.959 . S
C487 H473 0.961 . S
C487 C486 1.502 . S
C488 H474 0.960 . S
C488 H475 0.961 . S
C488 H476 0.959 . S
C488 C486 1.561 . S
C489 C486 1.526 . S
C489 C490 1.396 1_556 S
C489 C494 1.390 . S
C490 C484 1.465 . S
C490 C489 1.396 1_554 S
C490 C491 1.399 . S
C491 H477 0.929 . S
C491 C490 1.399 . S
C491 C492 1.385 . S
C492 H478 0.931 . S
C492 C491 1.385 . S
C492 C493 1.389 . S
C493 C492 1.389 . S
C493 C494 1.387 1_554 S
C494 H479 0.930 . S
C494 C489 1.390 . S
C494 C493 1.387 1_556 S
H495 C507 0.930 . S
H496 C509 0.930 . S
H497 C510 0.930 . S
H498 C514 0.959 . S
H499 C514 0.959 . S
H500 C514 0.961 . S
H501 C515 0.960 . S
H502 C515 0.961 . S
H503 C515 0.959 . S
H504 C518 0.929 . S
H505 C519 0.931 . S
H506 C521 0.930 . S
C507 H495 0.930 . S
C507 C508 1.399 1_556 S
C507 C512 1.399 . S
C508 C507 1.399 1_554 S
C508 C509 1.376 . S
C509 H496 0.930 . S
C509 C508 1.376 . S
C509 C510 1.388 . S
C510 H497 0.930 . S
C510 C509 1.388 . S
C510 C511 1.390 . S
C511 C510 1.390 . S
C511 C512 1.394 1_554 S
C511 C517 1.465 . S
C512 C507 1.399 . S
C512 C511 1.394 1_556 S
C512 C513 1.516 . S
C513 C512 1.516 . S
C513 C514 1.502 . S
C513 C515 1.561 . S
C513 C516 1.526 . S
C514 H498 0.959 . S
C514 H499 0.959 . S
C514 H500 0.961 . S
C514 C513 1.502 . S
C515 H501 0.960 . S
C515 H502 0.961 . S
C515 H503 0.959 . S
C515 C513 1.561 . S
C516 C513 1.526 . S
C516 C517 1.396 1_556 S
C516 C521 1.390 . S
C517 C511 1.465 . S
C517 C516 1.396 1_554 S
C517 C518 1.399 . S
C518 H504 0.929 . S
C518 C517 1.399 . S
C518 C519 1.385 . S
C519 H505 0.931 . S
C519 C518 1.385 . S
C519 C520 1.389 . S
C520 C519 1.389 . S
C520 C521 1.387 1_554 S
C521 H506 0.930 . S
C521 C516 1.390 . S
C521 C520 1.387 1_556 S
H522 C534 0.930 . S
H523 C536 0.930 . S
H524 C537 0.930 . S
H525 C541 0.959 . S
H526 C541 0.959 . S
H527 C541 0.961 . S
H528 C542 0.960 1_655 S
H529 C542 0.961 . S
H530 C542 0.959 . S
H531 C545 0.929 . S
H532 C546 0.931 . S
H533 C548 0.930 . S
C534 H522 0.930 . S
C534 C535 1.399 . S
C534 C539 1.399 . S
C535 C534 1.399 . S
C535 C536 1.376 . S
C536 H523 0.930 . S
C536 C535 1.376 . S
C536 C537 1.388 . S
C537 H524 0.930 . S
C537 C536 1.388 . S
C537 C538 1.390 1_655 S
C538 C537 1.390 1_455 S
C538 C539 1.394 1_455 S
C538 C544 1.465 . S
C539 C534 1.399 . S
C539 C538 1.394 1_655 S
C539 C540 1.516 1_655 S
C540 C539 1.516 1_455 S
C540 C541 1.502 . S
C540 C542 1.561 . S
C540 C543 1.526 . S
C541 H525 0.959 . S
C541 H526 0.959 . S
C541 H527 0.961 . S
C541 C540 1.502 . S
C542 H528 0.960 1_455 S
C542 H529 0.961 . S
C542 H530 0.959 . S
C542 C540 1.561 . S
C543 C540 1.526 . S
C543 C544 1.396 . S
C543 C548 1.390 . S
C544 C538 1.465 . S
C544 C543 1.396 . S
C544 C545 1.399 . S
C545 H531 0.929 . S
C545 C544 1.399 . S
C545 C546 1.385 . S
C546 H532 0.931 . S
C546 C545 1.385 . S
C546 C547 1.389 . S
C547 C546 1.389 . S
C547 C548 1.387 . S
C548 H533 0.930 . S
C548 C543 1.390 . S
C548 C547 1.387 . S
H549 C561 0.930 . S
H550 C563 0.930 . S
H551 C564 0.930 . S
H552 C568 0.959 . S
H553 C568 0.959 . S
H554 C568 0.961 . S
H555 C569 0.960 . S
H556 C569 0.961 . S
H557 C569 0.959 . S
H558 C572 0.929 . S
H559 C573 0.931 . S
H560 C575 0.930 . S
C561 H549 0.930 . S
C561 C562 1.399 . S
C561 C566 1.399 . S
C562 C561 1.399 . S
C562 C563 1.376 . S
C563 H550 0.930 . S
C563 C562 1.376 . S
C563 C564 1.388 . S
C564 H551 0.930 . S
C564 C563 1.388 . S
C564 C565 1.390 . S
C565 C564 1.390 . S
C565 C566 1.394 . S
C565 C571 1.465 . S
C566 C561 1.399 . S
C566 C565 1.394 . S
C566 C567 1.516 . S
C567 C566 1.516 . S
C567 C568 1.502 . S
C567 C569 1.561 . S
C567 C570 1.526 . S
C568 H552 0.959 . S
C568 H553 0.959 . S
C568 H554 0.961 . S
C568 C567 1.502 . S
C569 H555 0.960 . S
C569 H556 0.961 . S
C569 H557 0.959 . S
C569 C567 1.561 . S
C570 C567 1.526 . S
C570 C571 1.396 . S
C570 C575 1.390 . S
C571 C565 1.465 . S
C571 C570 1.396 . S
C571 C572 1.399 . S
C572 H558 0.929 . S
C572 C571 1.399 . S
C572 C573 1.385 . S
C573 H559 0.931 . S
C573 C572 1.385 . S
C573 C574 1.389 . S
C574 C573 1.389 . S
C574 C575 1.387 . S
C575 H560 0.930 . S
C575 C570 1.390 . S
C575 C574 1.387 . S
H576 C588 0.930 . S
H577 C590 0.930 . S
H578 C591 0.930 . S
H579 C595 0.959 . S
H580 C595 0.959 . S
H581 C595 0.961 1_545 S
H582 C596 0.960 1_545 S
H583 C596 0.961 . S
H584 C596 0.959 . S
H585 C599 0.929 . S
H586 C600 0.931 . S
H587 C602 0.930 . S
C588 H576 0.930 . S
C588 C589 1.399 . S
C588 C593 1.399 . S
C589 C588 1.399 . S
C589 C590 1.376 . S
C590 H577 0.930 . S
C590 C589 1.376 . S
C590 C591 1.388 . S
C591 H578 0.930 . S
C591 C590 1.388 . S
C591 C592 1.390 . S
C592 C591 1.390 . S
C592 C593 1.394 . S
C592 C598 1.465 1_545 S
C593 C588 1.399 . S
C593 C592 1.394 . S
C593 C594 1.516 1_545 S
C594 C593 1.516 1_565 S
C594 C595 1.502 . S
C594 C596 1.561 . S
C594 C597 1.526 . S
C595 H579 0.959 . S
C595 H580 0.959 . S
C595 H581 0.961 1_565 S
C595 C594 1.502 . S
C596 H582 0.960 1_565 S
C596 H583 0.961 . S
C596 H584 0.959 . S
C596 C594 1.561 . S
C597 C594 1.526 . S
C597 C598 1.396 . S
C597 C602 1.390 . S
C598 C592 1.465 1_565 S
C598 C597 1.396 . S
C598 C599 1.399 . S
C599 H585 0.929 . S
C599 C598 1.399 . S
C599 C600 1.385 . S
C600 H586 0.931 . S
C600 C599 1.385 . S
C600 C601 1.389 . S
C601 C600 1.389 . S
C601 C602 1.387 . S
C602 H587 0.930 . S
C602 C597 1.390 . S
C602 C601 1.387 . S
H603 C615 0.930 . S
H604 C617 0.930 . S
H605 C618 0.930 . S
H606 C622 0.959 . S
H607 C622 0.959 . S
H608 C622 0.961 . S
H609 C623 0.960 . S
H610 C623 0.961 . S
H611 C623 0.959 . S
H612 C626 0.929 . S
H613 C627 0.931 . S
H614 C629 0.930 . S
C615 H603 0.930 . S
C615 C616 1.399 . S
C615 C620 1.399 . S
C616 C615 1.399 . S
C616 C617 1.376 . S
C617 H604 0.930 . S
C617 C616 1.376 . S
C617 C618 1.388 . S
C618 H605 0.930 . S
C618 C617 1.388 . S
C618 C619 1.390 . S
C619 C618 1.390 . S
C619 C620 1.394 . S
C619 C625 1.465 . S
C620 C615 1.399 . S
C620 C619 1.394 . S
C620 C621 1.516 . S
C621 C620 1.516 . S
C621 C622 1.502 . S
C621 C623 1.561 . S
C621 C624 1.526 . S
C622 H606 0.959 . S
C622 H607 0.959 . S
C622 H608 0.961 . S
C622 C621 1.502 . S
C623 H609 0.960 . S
C623 H610 0.961 . S
C623 H611 0.959 . S
C623 C621 1.561 . S
C624 C621 1.526 . S
C624 C625 1.396 . S
C624 C629 1.390 . S
C625 C619 1.465 . S
C625 C624 1.396 . S
C625 C626 1.399 . S
C626 H612 0.929 . S
C626 C625 1.399 . S
C626 C627 1.385 . S
C627 H613 0.931 . S
C627 C626 1.385 . S
C627 C628 1.389 . S
C628 C627 1.389 . S
C628 C629 1.387 . S
C629 H614 0.930 . S
C629 C624 1.390 . S
C629 C628 1.387 . S
H630 C642 0.930 . S
H631 C644 0.930 . S
H632 C645 0.930 . S
H633 C649 0.959 . S
H634 C649 0.959 . S
H635 C649 0.961 . S
H636 C650 0.960 . S
H637 C650 0.961 . S
H638 C650 0.959 . S
H639 C653 0.929 . S
H640 C654 0.931 . S
H641 C656 0.930 . S
C642 H630 0.930 . S
C642 C643 1.399 . S
C642 C647 1.399 . S
C643 C642 1.399 . S
C643 C644 1.376 . S
C644 H631 0.930 . S
C644 C643 1.376 . S
C644 C645 1.388 . S
C645 H632 0.930 . S
C645 C644 1.388 . S
C645 C646 1.390 . S
C646 C645 1.390 . S
C646 C647 1.394 . S
C646 C652 1.465 . S
C647 C642 1.399 . S
C647 C646 1.394 . S
C647 C648 1.516 . S
C648 C647 1.516 . S
C648 C649 1.502 . S
C648 C650 1.561 . S
C648 C651 1.526 . S
C649 H633 0.959 . S
C649 H634 0.959 . S
C649 H635 0.961 . S
C649 C648 1.502 . S
C650 H636 0.960 . S
C650 H637 0.961 . S
C650 H638 0.959 . S
C650 C648 1.561 . S
C651 C648 1.526 . S
C651 C652 1.396 . S
C651 C656 1.390 . S
C652 C646 1.465 . S
C652 C651 1.396 . S
C652 C653 1.399 . S
C653 H639 0.929 . S
C653 C652 1.399 . S
C653 C654 1.385 . S
C654 H640 0.931 . S
C654 C653 1.385 . S
C654 C655 1.389 . S
C655 C654 1.389 . S
C655 C656 1.387 . S
C656 H641 0.930 . S
C656 C651 1.390 . S
C656 C655 1.387 . S
H657 C669 0.930 . S
H658 C671 0.930 . S
H659 C672 0.930 . S
H660 C676 0.959 . S
H661 C676 0.959 . S
H662 C676 0.961 . S
H663 C677 0.960 . S
H664 C677 0.961 . S
H665 C677 0.959 . S
H666 C680 0.929 . S
H667 C681 0.931 . S
H668 C683 0.930 . S
C669 H657 0.930 . S
C669 C670 1.399 . S
C669 C674 1.399 . S
C670 C669 1.399 . S
C670 C671 1.376 . S
C671 H658 0.930 . S
C671 C670 1.376 . S
C671 C672 1.388 . S
C672 H659 0.930 . S
C672 C671 1.388 . S
C672 C673 1.390 . S
C673 C672 1.390 . S
C673 C674 1.394 . S
C673 C679 1.465 . S
C674 C669 1.399 . S
C674 C673 1.394 . S
C674 C675 1.516 . S
C675 C674 1.516 . S
C675 C676 1.502 . S
C675 C677 1.561 . S
C675 C678 1.526 . S
C676 H660 0.959 . S
C676 H661 0.959 . S
C676 H662 0.961 . S
C676 C675 1.502 . S
C677 H663 0.960 . S
C677 H664 0.961 . S
C677 H665 0.959 . S
C677 C675 1.561 . S
C678 C675 1.526 . S
C678 C679 1.396 . S
C678 C683 1.390 . S
C679 C673 1.465 . S
C679 C678 1.396 . S
C679 C680 1.399 . S
C680 H666 0.929 . S
C680 C679 1.399 . S
C680 C681 1.385 . S
C681 H667 0.931 . S
C681 C680 1.385 . S
C681 C682 1.389 . S
C682 C681 1.389 . S
C682 C683 1.387 . S
C683 H668 0.930 . S
C683 C678 1.390 . S
C683 C682 1.387 . S
H684 C696 0.930 . S
H685 C698 0.930 . S
H686 C699 0.930 . S
H687 C703 0.959 . S
H688 C703 0.959 . S
H689 C703 0.961 . S
H690 C704 0.960 . S
H691 C704 0.961 . S
H692 C704 0.959 . S
H693 C707 0.929 . S
H694 C708 0.931 . S
H695 C710 0.930 . S
C696 H684 0.930 . S
C696 C697 1.399 . S
C696 C701 1.399 . S
C697 C696 1.399 . S
C697 C698 1.376 . S
C698 H685 0.930 . S
C698 C697 1.376 . S
C698 C699 1.388 . S
C699 H686 0.930 . S
C699 C698 1.388 . S
C699 C700 1.390 . S
C700 C699 1.390 . S
C700 C701 1.394 . S
C700 C706 1.465 . S
C701 C696 1.399 . S
C701 C700 1.394 . S
C701 C702 1.516 . S
C702 C701 1.516 . S
C702 C703 1.502 . S
C702 C704 1.561 . S
C702 C705 1.526 . S
C703 H687 0.959 . S
C703 H688 0.959 . S
C703 H689 0.961 . S
C703 C702 1.502 . S
C704 H690 0.960 . S
C704 H691 0.961 . S
C704 H692 0.959 . S
C704 C702 1.561 . S
C705 C702 1.526 . S
C705 C706 1.396 . S
C705 C710 1.390 . S
C706 C700 1.465 . S
C706 C705 1.396 . S
C706 C707 1.399 . S
C707 H693 0.929 . S
C707 C706 1.399 . S
C707 C708 1.385 . S
C708 H694 0.931 . S
C708 C707 1.385 . S
C708 C709 1.389 . S
C709 C708 1.389 . S
C709 C710 1.387 . S
C710 H695 0.930 . S
C710 C705 1.390 . S
C710 C709 1.387 . S
H711 C723 0.930 . S
H712 C725 0.930 . S
H713 C726 0.930 . S
H714 C730 0.959 . S
H715 C730 0.959 . S
H716 C730 0.961 . S
H717 C731 0.960 . S
H718 C731 0.961 . S
H719 C731 0.959 . S
H720 C734 0.929 . S
H721 C735 0.931 . S
H722 C737 0.930 . S
C723 H711 0.930 . S
C723 C724 1.399 . S
C723 C728 1.399 . S
C724 C723 1.399 . S
C724 C725 1.376 . S
C725 H712 0.930 . S
C725 C724 1.376 . S
C725 C726 1.388 . S
C726 H713 0.930 . S
C726 C725 1.388 . S
C726 C727 1.390 . S
C727 C726 1.390 . S
C727 C728 1.394 . S
C727 C733 1.465 . S
C728 C723 1.399 . S
C728 C727 1.394 . S
C728 C729 1.516 . S
C729 C728 1.516 . S
C729 C730 1.502 . S
C729 C731 1.561 . S
C729 C732 1.526 . S
C730 H714 0.959 . S
C730 H715 0.959 . S
C730 H716 0.961 . S
C730 C729 1.502 . S
C731 H717 0.960 . S
C731 H718 0.961 . S
C731 H719 0.959 . S
C731 C729 1.561 . S
C732 C729 1.526 . S
C732 C733 1.396 . S
C732 C737 1.390 . S
C733 C727 1.465 . S
C733 C732 1.396 . S
C733 C734 1.399 . S
C734 H720 0.929 . S
C734 C733 1.399 . S
C734 C735 1.385 . S
C735 H721 0.931 . S
C735 C734 1.385 . S
C735 C736 1.389 . S
C736 C735 1.389 . S
C736 C737 1.387 . S
C737 H722 0.930 . S
C737 C732 1.390 . S
C737 C736 1.387 . S
H738 C750 0.930 . S
H739 C752 0.930 . S
H740 C753 0.930 . S
H741 C757 0.959 . S
H742 C757 0.959 . S
H743 C757 0.961 . S
H744 C758 0.960 . S
H745 C758 0.961 . S
H746 C758 0.959 . S
H747 C761 0.929 . S
H748 C762 0.931 . S
H749 C764 0.930 . S
C750 H738 0.930 . S
C750 C751 1.399 . S
C750 C755 1.399 . S
C751 C750 1.399 . S
C751 C752 1.376 . S
C752 H739 0.930 . S
C752 C751 1.376 . S
C752 C753 1.388 . S
C753 H740 0.930 . S
C753 C752 1.388 . S
C753 C754 1.390 . S
C754 C753 1.390 . S
C754 C755 1.394 . S
C754 C760 1.465 . S
C755 C750 1.399 . S
C755 C754 1.394 . S
C755 C756 1.516 . S
C756 C755 1.516 . S
C756 C757 1.502 . S
C756 C758 1.561 . S
C756 C759 1.526 . S
C757 H741 0.959 . S
C757 H742 0.959 . S
C757 H743 0.961 . S
C757 C756 1.502 . S
C758 H744 0.960 . S
C758 H745 0.961 . S
C758 H746 0.959 . S
C758 C756 1.561 . S
C759 C756 1.526 . S
C759 C760 1.396 . S
C759 C764 1.390 . S
C760 C754 1.465 . S
C760 C759 1.396 . S
C760 C761 1.399 . S
C761 H747 0.929 . S
C761 C760 1.399 . S
C761 C762 1.385 . S
C762 H748 0.931 . S
C762 C761 1.385 . S
C762 C763 1.389 . S
C763 C762 1.389 . S
C763 C764 1.387 . S
C764 H749 0.930 . S
C764 C759 1.390 . S
C764 C763 1.387 . S
H765 C777 0.930 . S
H766 C779 0.930 . S
H767 C780 0.930 . S
H768 C784 0.959 . S
H769 C784 0.959 . S
H770 C784 0.961 . S
H771 C785 0.960 . S
H772 C785 0.961 . S
H773 C785 0.959 . S
H774 C788 0.929 . S
H775 C789 0.931 . S
H776 C791 0.930 . S
C777 H765 0.930 . S
C777 C778 1.399 . S
C777 C782 1.399 . S
C778 C777 1.399 . S
C778 C779 1.376 . S
C779 H766 0.930 . S
C779 C778 1.376 . S
C779 C780 1.388 . S
C780 H767 0.930 . S
C780 C779 1.388 . S
C780 C781 1.390 . S
C781 C780 1.390 . S
C781 C782 1.394 . S
C781 C787 1.465 . S
C782 C777 1.399 . S
C782 C781 1.394 . S
C782 C783 1.516 . S
C783 C782 1.516 . S
C783 C784 1.502 . S
C783 C785 1.561 . S
C783 C786 1.526 . S
C784 H768 0.959 . S
C784 H769 0.959 . S
C784 H770 0.961 . S
C784 C783 1.502 . S
C785 H771 0.960 . S
C785 H772 0.961 . S
C785 H773 0.959 . S
C785 C783 1.561 . S
C786 C783 1.526 . S
C786 C787 1.396 . S
C786 C791 1.390 . S
C787 C781 1.465 . S
C787 C786 1.396 . S
C787 C788 1.399 . S
C788 H774 0.929 . S
C788 C787 1.399 . S
C788 C789 1.385 . S
C789 H775 0.931 . S
C789 C788 1.385 . S
C789 C790 1.389 . S
C790 C789 1.389 . S
C790 C791 1.387 . S
C791 H776 0.930 . S
C791 C786 1.390 . S
C791 C790 1.387 . S
H792 C804 0.930 . S
H793 C806 0.930 . S
H794 C807 0.930 . S
H795 C811 0.959 . S
H796 C811 0.959 . S
H797 C811 0.961 . S
H798 C812 0.960 . S
H799 C812 0.961 . S
H800 C812 0.959 . S
H801 C815 0.929 . S
H802 C816 0.931 . S
H803 C818 0.930 . S
C804 H792 0.930 . S
C804 C805 1.399 . S
C804 C809 1.399 . S
C805 C804 1.399 . S
C805 C806 1.376 . S
C806 H793 0.930 . S
C806 C805 1.376 . S
C806 C807 1.388 . S
C807 H794 0.930 . S
C807 C806 1.388 . S
C807 C808 1.390 . S
C808 C807 1.390 . S
C808 C809 1.394 . S
C808 C814 1.465 . S
C809 C804 1.399 . S
C809 C808 1.394 . S
C809 C810 1.516 . S
C810 C809 1.516 . S
C810 C811 1.502 1_565 S
C810 C812 1.561 . S
C810 C813 1.526 . S
C811 H795 0.959 . S
C811 H796 0.959 . S
C811 H797 0.961 . S
C811 C810 1.502 1_545 S
C812 H798 0.960 . S
C812 H799 0.961 . S
C812 H800 0.959 . S
C812 C810 1.561 . S
C813 C810 1.526 . S
C813 C814 1.396 . S
C813 C818 1.390 1_565 S
C814 C808 1.465 . S
C814 C813 1.396 . S
C814 C815 1.399 . S
C815 H801 0.929 . S
C815 C814 1.399 . S
C815 C816 1.385 1_565 S
C816 H802 0.931 . S
C816 C815 1.385 1_545 S
C816 C817 1.389 . S
C817 C816 1.389 . S
C817 C818 1.387 . S
C818 H803 0.930 . S
C818 C813 1.390 1_545 S
C818 C817 1.387 . S
H819 C831 0.930 . S
H820 C833 0.930 . S
H821 C834 0.930 . S
H822 C838 0.959 . S
H823 C838 0.959 . S
H824 C838 0.961 1_455 S
H825 C839 0.960 . S
H826 C839 0.961 . S
H827 C839 0.959 . S
H828 C842 0.929 . S
H829 C843 0.931 1_655 S
H830 C845 0.930 . S
C831 H819 0.930 . S
C831 C832 1.399 . S
C831 C836 1.399 . S
C832 C831 1.399 . S
C832 C833 1.376 . S
C833 H820 0.930 . S
C833 C832 1.376 . S
C833 C834 1.388 . S
C834 H821 0.930 . S
C834 C833 1.388 . S
C834 C835 1.390 . S
C835 C834 1.390 . S
C835 C836 1.394 . S
C835 C841 1.465 . S
C836 C831 1.399 . S
C836 C835 1.394 . S
C836 C837 1.516 . S
C837 C836 1.516 . S
C837 C838 1.502 1_455 S
C837 C839 1.561 . S
C837 C840 1.526 . S
C838 H822 0.959 . S
C838 H823 0.959 . S
C838 H824 0.961 1_655 S
C838 C837 1.502 1_655 S
C839 H825 0.960 . S
C839 H826 0.961 . S
C839 H827 0.959 . S
C839 C837 1.561 . S
C840 C837 1.526 . S
C840 C841 1.396 . S
C840 C845 1.390 1_455 S
C841 C835 1.465 . S
C841 C840 1.396 . S
C841 C842 1.399 . S
C842 H828 0.929 . S
C842 C841 1.399 . S
C842 C843 1.385 . S
C843 H829 0.931 1_455 S
C843 C842 1.385 . S
C843 C844 1.389 1_455 S
C844 C843 1.389 1_655 S
C844 C845 1.387 . S
C845 H830 0.930 . S
C845 C840 1.390 1_655 S
C845 C844 1.387 . S
H846 C858 0.930 . S
H847 C860 0.930 . S
H848 C861 0.930 . S
H849 C865 0.959 . S
H850 C865 0.959 . S
H851 C865 0.961 . S
H852 C866 0.960 . S
H853 C866 0.961 . S
H854 C866 0.959 . S
H855 C869 0.929 1_655 S
H856 C870 0.931 1_655 S
H857 C872 0.930 . S
C858 H846 0.930 . S
C858 C859 1.399 . S
C858 C863 1.399 . S
C859 C858 1.399 . S
C859 C860 1.376 . S
C860 H847 0.930 . S
C860 C859 1.376 . S
C860 C861 1.388 . S
C861 H848 0.930 . S
C861 C860 1.388 . S
C861 C862 1.390 . S
C862 C861 1.390 . S
C862 C863 1.394 . S
C862 C868 1.465 . S
C863 C858 1.399 . S
C863 C862 1.394 . S
C863 C864 1.516 . S
C864 C863 1.516 . S
C864 C865 1.502 . S
C864 C866 1.561 . S
C864 C867 1.526 . S
C865 H849 0.959 . S
C865 H850 0.959 . S
C865 H851 0.961 . S
C865 C864 1.502 . S
C866 H852 0.960 . S
C866 H853 0.961 . S
C866 H854 0.959 . S
C866 C864 1.561 . S
C867 C864 1.526 . S
C867 C868 1.396 . S
C867 C872 1.390 . S
C868 C862 1.465 . S
C868 C867 1.396 . S
C868 C869 1.399 . S
C869 H855 0.929 1_455 S
C869 C868 1.399 . S
C869 C870 1.385 . S
C870 H856 0.931 1_455 S
C870 C869 1.385 . S
C870 C871 1.389 . S
C871 C870 1.389 . S
C871 C872 1.387 . S
C872 H857 0.930 . S
C872 C867 1.390 . S
C872 C871 1.387 . S
H873 C885 0.930 . S
H874 C887 0.930 . S
H875 C888 0.930 . S
H876 C892 0.959 . S
H877 C892 0.959 . S
H878 C892 0.961 . S
H879 C893 0.960 . S
H880 C893 0.961 . S
H881 C893 0.959 . S
H882 C896 0.929 . S
H883 C897 0.931 . S
H884 C899 0.930 . S
C885 H873 0.930 . S
C885 C886 1.399 . S
C885 C890 1.399 . S
C886 C885 1.399 . S
C886 C887 1.376 . S
C887 H874 0.930 . S
C887 C886 1.376 . S
C887 C888 1.388 . S
C888 H875 0.930 . S
C888 C887 1.388 . S
C888 C889 1.390 . S
C889 C888 1.390 . S
C889 C890 1.394 . S
C889 C895 1.465 . S
C890 C885 1.399 . S
C890 C889 1.394 . S
C890 C891 1.516 . S
C891 C890 1.516 . S
C891 C892 1.502 . S
C891 C893 1.561 . S
C891 C894 1.526 . S
C892 H876 0.959 . S
C892 H877 0.959 . S
C892 H878 0.961 . S
C892 C891 1.502 . S
C893 H879 0.960 . S
C893 H880 0.961 . S
C893 H881 0.959 . S
C893 C891 1.561 . S
C894 C891 1.526 . S
C894 C895 1.396 . S
C894 C899 1.390 . S
C895 C889 1.465 . S
C895 C894 1.396 . S
C895 C896 1.399 . S
C896 H882 0.929 . S
C896 C895 1.399 . S
C896 C897 1.385 . S
C897 H883 0.931 . S
C897 C896 1.385 . S
C897 C898 1.389 . S
C898 C897 1.389 . S
C898 C899 1.387 . S
C899 H884 0.930 . S
C899 C894 1.390 . S
C899 C898 1.387 . S
H900 C912 0.930 . S
H901 C914 0.930 1_545 S
H902 C915 0.930 1_545 S
H903 C919 0.959 . S
H904 C919 0.959 . S
H905 C919 0.961 . S
H906 C920 0.960 . S
H907 C920 0.961 . S
H908 C920 0.959 . S
H909 C923 0.929 . S
H910 C924 0.931 . S
H911 C926 0.930 . S
C912 H900 0.930 . S
C912 C913 1.399 . S
C912 C917 1.399 . S
C913 C912 1.399 . S
C913 C914 1.376 . S
C914 H901 0.930 1_565 S
C914 C913 1.376 . S
C914 C915 1.388 . S
C915 H902 0.930 1_565 S
C915 C914 1.388 . S
C915 C916 1.390 . S
C916 C915 1.390 . S
C916 C917 1.394 . S
C916 C922 1.465 . S
C917 C912 1.399 . S
C917 C916 1.394 . S
C917 C918 1.516 . S
C918 C917 1.516 . S
C918 C919 1.502 . S
C918 C920 1.561 . S
C918 C921 1.526 . S
C919 H903 0.959 . S
C919 H904 0.959 . S
C919 H905 0.961 . S
C919 C918 1.502 . S
C920 H906 0.960 . S
C920 H907 0.961 . S
C920 H908 0.959 . S
C920 C918 1.561 . S
C921 C918 1.526 . S
C921 C922 1.396 . S
C921 C926 1.390 . S
C922 C916 1.465 . S
C922 C921 1.396 . S
C922 C923 1.399 . S
C923 H909 0.929 . S
C923 C922 1.399 . S
C923 C924 1.385 . S
C924 H910 0.931 . S
C924 C923 1.385 . S
C924 C925 1.389 . S
C925 C924 1.389 . S
C925 C926 1.387 . S
C926 H911 0.930 . S
C926 C921 1.390 . S
C926 C925 1.387 . S
H927 C939 0.959 . S
H928 C941 0.930 . S
H929 C942 0.930 . S
H930 C946 0.959 . S
H931 C946 0.959 . S
H932 C946 0.961 . S
H933 C947 0.960 . S
H934 C947 0.961 . S
H935 C947 0.959 1_545 S
H936 C950 0.929 . S
H937 C951 0.931 . S
H938 C953 0.930 . S
C939 H927 0.959 . S
C939 C940 1.399 . S
C939 C944 1.399 . S
C940 C939 1.399 . S
C940 C941 1.376 . S
C941 H928 0.930 . S
C941 C940 1.376 . S
C941 C942 1.388 . S
C942 H929 0.930 . S
C942 C941 1.388 . S
C942 C943 1.390 . S
C943 C942 1.390 . S
C943 C944 1.394 . S
C943 C949 1.465 . S
C944 C939 1.399 . S
C944 C943 1.394 . S
C944 C945 1.516 . S
C945 C944 1.516 . S
C945 C946 1.502 . S
C945 C947 1.561 1_545 S
C945 C948 1.526 . S
C946 H930 0.959 . S
C946 H931 0.959 . S
C946 H932 0.961 . S
C946 C945 1.502 . S
C947 H933 0.960 . S
C947 H934 0.961 . S
C947 H935 0.959 1_565 S
C947 C945 1.561 1_565 S
C948 C945 1.526 . S
C948 C949 1.396 . S
C948 C953 1.390 . S
C949 C943 1.465 . S
C949 C948 1.396 . S
C949 C950 1.399 . S
C950 H936 0.929 . S
C950 C949 1.399 . S
C950 C951 1.385 . S
C951 H937 0.931 . S
C951 C950 1.385 . S
C951 C952 1.389 . S
C952 C951 1.389 . S
C952 C953 1.387 . S
C953 H938 0.930 . S
C953 C948 1.390 . S
C953 C952 1.387 . S
H954 C966 0.930 . S
H955 C968 0.930 . S
H956 C969 0.930 . S
H957 C973 0.959 . S
H958 C973 0.959 . S
H959 C973 0.961 . S
H960 C974 0.960 . S
H961 C974 0.961 . S
H962 C974 0.959 . S
H963 C977 0.929 . S
H964 C978 0.931 . S
H965 C980 0.930 . S
C966 H954 0.930 . S
C966 C967 1.399 . S
C966 C971 1.399 . S
C967 C966 1.399 . S
C967 C968 1.376 . S
C968 H955 0.930 . S
C968 C967 1.376 . S
C968 C969 1.388 . S
C969 H956 0.930 . S
C969 C968 1.388 . S
C969 C970 1.390 . S
C970 C969 1.390 . S
C970 C971 1.394 . S
C970 C976 1.465 . S
C971 C966 1.399 . S
C971 C970 1.394 . S
C971 C972 1.516 . S
C972 C971 1.516 . S
C972 C973 1.502 . S
C972 C974 1.561 . S
C972 C975 1.526 . S
C973 H957 0.959 . S
C973 H958 0.959 . S
C973 H959 0.961 . S
C973 C972 1.502 . S
C974 H960 0.960 . S
C974 H961 0.961 . S
C974 H962 0.959 . S
C974 C972 1.561 . S
C975 C972 1.526 . S
C975 C976 1.396 . S
C975 C980 1.390 . S
C976 C970 1.465 . S
C976 C975 1.396 . S
C976 C977 1.399 . S
C977 H963 0.929 . S
C977 C976 1.399 . S
C977 C978 1.385 . S
C978 H964 0.931 . S
C978 C977 1.385 . S
C978 C979 1.389 . S
C979 C978 1.389 . S
C979 C980 1.387 . S
C980 H965 0.930 . S
C980 C975 1.390 . S
C980 C979 1.387 . S
H981 C993 0.930 . S
H982 C995 0.930 . S
H983 C996 0.930 . S
H984 C1000 0.959 . S
H985 C1000 0.959 . S
H986 C1000 0.961 . S
H987 C1001 0.960 . S
H988 C1001 0.961 . S
H989 C1001 0.959 . S
H990 C1004 0.929 . S
H991 C1005 0.931 . S
H992 C1007 0.930 . S
C993 H981 0.930 . S
C993 C994 1.399 . S
C993 C998 1.399 . S
C994 C993 1.399 . S
C994 C995 1.376 . S
C995 H982 0.930 . S
C995 C994 1.376 . S
C995 C996 1.388 . S
C996 H983 0.930 . S
C996 C995 1.388 . S
C996 C997 1.390 . S
C997 C996 1.390 . S
C997 C998 1.394 . S
C997 C1003 1.465 . S
C998 C993 1.399 . S
C998 C997 1.394 . S
C998 C999 1.516 . S
C999 C998 1.516 . S
C999 C1000 1.502 . S
C999 C1001 1.561 . S
C999 C1002 1.526 . S
C1000 H984 0.959 . S
C1000 H985 0.959 . S
C1000 H986 0.961 . S
C1000 C999 1.502 . S
C1001 H987 0.960 . S
C1001 H988 0.961 . S
C1001 H989 0.959 . S
C1001 C999 1.561 . S
C1002 C999 1.526 . S
C1002 C1003 1.396 . S
C1002 C1007 1.390 . S
C1003 C997 1.465 . S
C1003 C1002 1.396 . S
C1003 C1004 1.399 . S
C1004 H990 0.929 . S
C1004 C1003 1.399 . S
C1004 C1005 1.385 . S
C1005 H991 0.931 . S
C1005 C1004 1.385 . S
C1005 C1006 1.389 . S
C1006 C1005 1.389 . S
C1006 C1007 1.387 . S
C1007 H992 0.930 . S
C1007 C1002 1.390 . S
C1007 C1006 1.387 . S
H1008 C1020 0.930 . S
H1009 C1022 0.930 . S
H1010 C1023 0.930 . S
H1011 C1027 0.959 . S
H1012 C1027 0.959 . S
H1013 C1027 0.961 . S
H1014 C1028 0.960 . S
H1015 C1028 0.961 . S
H1016 C1028 0.959 . S
H1017 C1031 0.929 . S
H1018 C1032 0.931 . S
H1019 C1034 0.930 . S
C1020 H1008 0.930 . S
C1020 C1021 1.399 . S
C1020 C1025 1.399 . S
C1021 C1020 1.399 . S
C1021 C1022 1.376 . S
C1022 H1009 0.930 . S
C1022 C1021 1.376 . S
C1022 C1023 1.388 . S
C1023 H1010 0.930 . S
C1023 C1022 1.388 . S
C1023 C1024 1.390 . S
C1024 C1023 1.390 . S
C1024 C1025 1.394 . S
C1024 C1030 1.465 . S
C1025 C1020 1.399 . S
C1025 C1024 1.394 . S
C1025 C1026 1.516 . S
C1026 C1025 1.516 . S
C1026 C1027 1.502 . S
C1026 C1028 1.561 . S
C1026 C1029 1.526 . S
C1027 H1011 0.959 . S
C1027 H1012 0.959 . S
C1027 H1013 0.961 . S
C1027 C1026 1.502 . S
C1028 H1014 0.960 . S
C1028 H1015 0.961 . S
C1028 H1016 0.959 . S
C1028 C1026 1.561 . S
C1029 C1026 1.526 . S
C1029 C1030 1.396 . S
C1029 C1034 1.390 . S
C1030 C1024 1.465 . S
C1030 C1029 1.396 . S
C1030 C1031 1.399 . S
C1031 H1017 0.929 . S
C1031 C1030 1.399 . S
C1031 C1032 1.385 . S
C1032 H1018 0.931 . S
C1032 C1031 1.385 . S
C1032 C1033 1.389 . S
C1033 C1032 1.389 . S
C1033 C1034 1.387 . S
C1034 H1019 0.930 . S
C1034 C1029 1.390 . S
C1034 C1033 1.387 . S
H1035 C1047 0.930 . S
H1036 C1049 0.930 . S
H1037 C1050 0.930 1_545 S
H1038 C1054 0.959 . S
H1039 C1054 0.959 . S
H1040 C1054 0.961 . S
H1041 C1055 0.960 . S
H1042 C1055 0.961 . S
H1043 C1055 0.959 . S
H1044 C1058 0.929 . S
H1045 C1059 0.931 . S
H1046 C1061 0.930 . S
C1047 H1035 0.930 . S
C1047 C1048 1.399 . S
C1047 C1052 1.399 . S
C1048 C1047 1.399 . S
C1048 C1049 1.376 . S
C1049 H1036 0.930 . S
C1049 C1048 1.376 . S
C1049 C1050 1.388 . S
C1050 H1037 0.930 1_565 S
C1050 C1049 1.388 . S
C1050 C1051 1.390 . S
C1051 C1050 1.390 . S
C1051 C1052 1.394 . S
C1051 C1057 1.465 1_565 S
C1052 C1047 1.399 . S
C1052 C1051 1.394 . S
C1052 C1053 1.516 . S
C1053 C1052 1.516 . S
C1053 C1054 1.502 . S
C1053 C1055 1.561 . S
C1053 C1056 1.526 1_565 S
C1054 H1038 0.959 . S
C1054 H1039 0.959 . S
C1054 H1040 0.961 . S
C1054 C1053 1.502 . S
C1055 H1041 0.960 . S
C1055 H1042 0.961 . S
C1055 H1043 0.959 . S
C1055 C1053 1.561 . S
C1056 C1053 1.526 1_545 S
C1056 C1057 1.396 . S
C1056 C1061 1.390 . S
C1057 C1051 1.465 1_545 S
C1057 C1056 1.396 . S
C1057 C1058 1.399 . S
C1058 H1044 0.929 . S
C1058 C1057 1.399 . S
C1058 C1059 1.385 . S
C1059 H1045 0.931 . S
C1059 C1058 1.385 . S
C1059 C1060 1.389 . S
C1060 C1059 1.389 . S
C1060 C1061 1.387 . S
C1061 H1046 0.930 . S
C1061 C1056 1.390 . S
C1061 C1060 1.387 . S
H1062 C1074 0.930 . S
H1063 C1076 0.930 . S
H1064 C1077 0.930 . S
H1065 C1081 0.966 . S
H1066 C1081 0.953 1_455 S
H1067 C1081 0.972 . S
H1068 C1082 0.960 . S
H1069 C1082 0.961 . S
H1070 C1082 0.959 . S
H1071 C1085 0.929 . S
H1072 C1086 0.931 . S
H1073 C1088 0.930 . S
C1074 H1062 0.930 . S
C1074 C1075 1.399 . S
C1074 C1079 1.399 . S
C1075 C1074 1.399 . S
C1075 C1076 1.376 . S
C1076 H1063 0.930 . S
C1076 C1075 1.376 . S
C1076 C1077 1.388 . S
C1077 H1064 0.930 . S
C1077 C1076 1.388 . S
C1077 C1078 1.390 . S
C1078 C1077 1.390 . S
C1078 C1079 1.394 . S
C1078 C1084 1.465 1_655 S
C1079 C1074 1.399 . S
C1079 C1078 1.394 . S
C1079 C1080 1.516 1_655 S
C1080 C1079 1.516 1_455 S
C1080 C1081 1.490 1_455 S
C1080 C1082 1.561 . S
C1080 C1083 1.526 . S
C1081 H1065 0.966 . S
C1081 H1066 0.953 1_655 S
C1081 H1067 0.972 . S
C1081 C1080 1.490 1_655 S
C1082 H1068 0.960 . S
C1082 H1069 0.961 . S
C1082 H1070 0.959 . S
C1082 C1080 1.561 . S
C1083 C1080 1.526 . S
C1083 C1084 1.396 . S
C1083 C1088 1.390 . S
C1084 C1078 1.465 1_455 S
C1084 C1083 1.396 . S
C1084 C1085 1.399 . S
C1085 H1071 0.929 . S
C1085 C1084 1.399 . S
C1085 C1086 1.385 . S
C1086 H1072 0.931 . S
C1086 C1085 1.385 . S
C1086 C1087 1.389 . S
C1087 C1086 1.389 . S
C1087 C1088 1.387 . S
C1088 H1073 0.930 . S
C1088 C1083 1.390 . S
C1088 C1087 1.387 . S
C373 C59 1.436 . S
C385 C15 1.454 . S
C400 C99 1.455 . S
C412 C55 1.441 . S
C427 C95 1.440 . S
C439 C19 1.445 . S
C454 C90 1.608 . S
C466 C46 1.565 . S
C481 C86 1.601 . S
C493 C10 1.587 . S
C508 C6 1.588 . S
C520 C50 1.594 . S
C535 C135 1.477 . S
C547 C179 1.394 . S
C562 C219 1.455 . S
C574 C175 1.442 . S
C589 C215 1.480 . S
C601 C139 1.386 . S
C616 C166 1.595 . S
C628 C210 1.590 . S
C643 C206 1.532 . S
C655 C130 1.628 . S
C670 C170 1.596 . S
C682 C126 1.584 . S
C697 C299 1.455 . S
C709 C255 1.442 . S
C724 C295 1.443 . S
C736 C339 1.438 . S
C751 C335 1.441 . S
C763 C259 1.441 . S
C778 C330 1.617 . S
C790 C286 1.549 1_565 S
C805 C326 1.531 1_455 S
C817 C250 1.627 . S
C832 C246 1.534 . S
C844 C290 1.626 . S
C859 C218 2.250 . S
C871 C9 2.571 . S
C886 C138 2.226 . S
C898 C49 2.585 . S
C913 C89 2.582 . S
C925 C178 2.214 . S
C940 C98 2.228 . S
C952 C249 2.585 . S
C967 C18 2.300 . S
C979 C289 2.570 . S
C994 C329 2.585 . S
C1006 C58 2.219 . S
C1021 C129 2.571 . S
C1033 C338 2.245 . S
C1048 C169 2.568 . S
C1060 C258 2.262 . S
C1075 C298 2.276 . S
C1087 C209 2.579 . S
