# Generated by pormake.
# Topology neb, (4)-cn, num edge types: 1
# Building blocks:
#     Node 0, Type 0, BuildingBlock: CEKHIL_clean_sbu_0, # of connection points: 4
#     Node 1, Type 0, BuildingBlock: CEKHIL_clean_sbu_0, # of connection points: 4
#     Node 2, Type 0, BuildingBlock: CEKHIL_clean_sbu_0, # of connection points: 4
#     Node 3, Type 0, BuildingBlock: CEKHIL_clean_sbu_0, # of connection points: 4
#     Node 4, Type 0, BuildingBlock: CEKHIL_clean_sbu_0, # of connection points: 4
#     Node 5, Type 0, BuildingBlock: CEKHIL_clean_sbu_0, # of connection points: 4
#     Node 6, Type 0, BuildingBlock: CEKHIL_clean_sbu_0, # of connection points: 4
#     Node 7, Type 0, BuildingBlock: CEKHIL_clean_sbu_0, # of connection points: 4
#     Node 8, Type 0, BuildingBlock: CEKHIL_clean_sbu_0, # of connection points: 4
#     Node 9, Type 0, BuildingBlock: CEKHIL_clean_sbu_0, # of connection points: 4
#     Node 10, Type 0, BuildingBlock: CEKHIL_clean_sbu_0, # of connection points: 4
#     Node 11, Type 0, BuildingBlock: CEKHIL_clean_sbu_0, # of connection points: 4
#     Node 12, Type 0, BuildingBlock: CEKHIL_clean_sbu_0, # of connection points: 4
#     Node 13, Type 0, BuildingBlock: CEKHIL_clean_sbu_0, # of connection points: 4
#     Node 14, Type 0, BuildingBlock: CEKHIL_clean_sbu_0, # of connection points: 4
#     Node 15, Type 0, BuildingBlock: CEKHIL_clean_sbu_0, # of connection points: 4
#     Edge 16, Type (0, 0), BuildingBlock: UVAHIK_clean_linker_0, # of connection points: 2
#     Edge 17, Type (0, 0), BuildingBlock: UVAHIK_clean_linker_0, # of connection points: 2
#     Edge 18, Type (0, 0), BuildingBlock: UVAHIK_clean_linker_0, # of connection points: 2
#     Edge 19, Type (0, 0), BuildingBlock: UVAHIK_clean_linker_0, # of connection points: 2
#     Edge 20, Type (0, 0), BuildingBlock: UVAHIK_clean_linker_0, # of connection points: 2
#     Edge 21, Type (0, 0), BuildingBlock: UVAHIK_clean_linker_0, # of connection points: 2
#     Edge 22, Type (0, 0), BuildingBlock: UVAHIK_clean_linker_0, # of connection points: 2
#     Edge 23, Type (0, 0), BuildingBlock: UVAHIK_clean_linker_0, # of connection points: 2
#     Edge 24, Type (0, 0), BuildingBlock: UVAHIK_clean_linker_0, # of connection points: 2
#     Edge 25, Type (0, 0), BuildingBlock: UVAHIK_clean_linker_0, # of connection points: 2
#     Edge 26, Type (0, 0), BuildingBlock: UVAHIK_clean_linker_0, # of connection points: 2
#     Edge 27, Type (0, 0), BuildingBlock: UVAHIK_clean_linker_0, # of connection points: 2
#     Edge 28, Type (0, 0), BuildingBlock: UVAHIK_clean_linker_0, # of connection points: 2
#     Edge 29, Type (0, 0), BuildingBlock: UVAHIK_clean_linker_0, # of connection points: 2
#     Edge 30, Type (0, 0), BuildingBlock: UVAHIK_clean_linker_0, # of connection points: 2
#     Edge 31, Type (0, 0), BuildingBlock: UVAHIK_clean_linker_0, # of connection points: 2
#     Edge 32, Type (0, 0), BuildingBlock: UVAHIK_clean_linker_0, # of connection points: 2
#     Edge 33, Type (0, 0), BuildingBlock: UVAHIK_clean_linker_0, # of connection points: 2
#     Edge 34, Type (0, 0), BuildingBlock: UVAHIK_clean_linker_0, # of connection points: 2
#     Edge 35, Type (0, 0), BuildingBlock: UVAHIK_clean_linker_0, # of connection points: 2
#     Edge 36, Type (0, 0), BuildingBlock: UVAHIK_clean_linker_0, # of connection points: 2
#     Edge 37, Type (0, 0), BuildingBlock: UVAHIK_clean_linker_0, # of connection points: 2
#     Edge 38, Type (0, 0), BuildingBlock: UVAHIK_clean_linker_0, # of connection points: 2
#     Edge 39, Type (0, 0), BuildingBlock: UVAHIK_clean_linker_0, # of connection points: 2
#     Edge 40, Type (0, 0), BuildingBlock: UVAHIK_clean_linker_0, # of connection points: 2
#     Edge 41, Type (0, 0), BuildingBlock: UVAHIK_clean_linker_0, # of connection points: 2
#     Edge 42, Type (0, 0), BuildingBlock: UVAHIK_clean_linker_0, # of connection points: 2
#     Edge 43, Type (0, 0), BuildingBlock: UVAHIK_clean_linker_0, # of connection points: 2
#     Edge 44, Type (0, 0), BuildingBlock: UVAHIK_clean_linker_0, # of connection points: 2
#     Edge 45, Type (0, 0), BuildingBlock: UVAHIK_clean_linker_0, # of connection points: 2
#     Edge 46, Type (0, 0), BuildingBlock: UVAHIK_clean_linker_0, # of connection points: 2
#     Edge 47, Type (0, 0), BuildingBlock: UVAHIK_clean_linker_0, # of connection points: 2
# Relax obj value: 0.002
# Max RMSD: 0.028
# Mean RMSD: 0.028
data_MOF--net-neb--node1-CEKHIL_clean_sbu_0--edge1-UVAHIK_clean_linker_0
_symmetry_space_group_name_H-M    P1
_symmetry_Int_Tables_number       1
_symmetry_cell_setting            triclinic
loop_
_symmetry_equiv_pos_as_xyz
'x, y, z'
_cell_length_a     53.291269
_cell_length_b     29.214118
_cell_length_c     98.495363
_cell_angle_alpha  90.001544
_cell_angle_beta   92.384408
_cell_angle_gamma 90.004162
loop_
_atom_site_label
_atom_site_type_symbol
_atom_site_fract_x
_atom_site_fract_y
_atom_site_fract_z
_atom_type_partial_charge
Co0 Co 0.13031 0.09355 0.44729 0.0
O1 O 0.12023 0.05148 0.46107 0.0
O2 O 0.09393 0.08956 0.44729 0.0
C3 C 0.15849 0.13164 0.4608 0.0
O4 O 0.13381 0.14147 0.43232 0.0
Co5 Co 0.18514 0.0945 0.43795 0.0
O6 O 0.17481 0.15245 0.42887 0.0
C7 C 0.1505 0.02177 0.42799 0.0
C8 C 0.0972 0.06155 0.45749 0.0
C9 C 0.1518 0.16329 0.4268 0.0
O10 O 0.1321 0.04195 0.43363 0.0
O11 O 0.17329 0.03548 0.42944 0.0
O12 O 0.13477 0.14163 0.4609 0.0
O13 O 0.16413 0.09674 0.45347 0.0
Co14 Co 0.12122 0.09306 0.809 0.0
O15 O 0.13129 0.05078 0.79527 0.0
O16 O 0.1576 0.08887 0.80905 0.0
C17 C 0.09316 0.13117 0.79542 0.0
O18 O 0.11774 0.14115 0.82392 0.0
Co19 Co 0.06637 0.09436 0.81828 0.0
O20 O 0.07673 0.15243 0.82728 0.0
C21 C 0.10088 0.02164 0.82837 0.0
C22 C 0.15432 0.06075 0.79887 0.0
C23 C 0.09975 0.16316 0.82939 0.0
O24 O 0.11931 0.04162 0.8227 0.0
O25 O 0.07811 0.03547 0.82692 0.0
O26 O 0.1169 0.14101 0.79535 0.0
O27 O 0.08742 0.09636 0.80277 0.0
Co28 Co 0.86991 0.90955 0.55905 0.0
O29 O 0.87976 0.95163 0.54521 0.0
O30 O 0.90626 0.91369 0.55892 0.0
C31 C 0.84161 0.87129 0.54565 0.0
O32 O 0.86669 0.86165 0.57404 0.0
Co33 Co 0.81528 0.90844 0.56864 0.0
O34 O 0.82577 0.85054 0.5777 0.0
C35 C 0.84997 0.98121 0.57848 0.0
C36 C 0.90284 0.94167 0.54872 0.0
C37 C 0.84882 0.83979 0.57966 0.0
O38 O 0.86827 0.96115 0.57271 0.0
O39 O 0.82718 0.96742 0.57717 0.0
O40 O 0.86534 0.86143 0.54547 0.0
O41 O 0.836 0.9062 0.553 0.0
Co42 Co 0.88142 0.90858 0.19718 0.0
O43 O 0.87149 0.95083 0.21096 0.0
O44 O 0.84506 0.9126 0.19729 0.0
C45 C 0.90973 0.87061 0.21065 0.0
O46 O 0.88474 0.86047 0.18226 0.0
Co47 Co 0.93611 0.90743 0.18765 0.0
O48 O 0.92568 0.84932 0.1787 0.0
C49 C 0.90138 0.98001 0.1777 0.0
C50 C 0.84843 0.94074 0.20745 0.0
C51 C 0.90265 0.83851 0.17671 0.0
O52 O 0.88306 0.95999 0.18346 0.0
O53 O 0.92417 0.96626 0.17905 0.0
O54 O 0.88601 0.86067 0.21083 0.0
O55 O 0.91531 0.90542 0.20326 0.0
Co56 Co 0.13014 0.5931 0.94719 0.0
O57 O 0.12005 0.55087 0.96093 0.0
O58 O 0.09376 0.58899 0.94715 0.0
C59 C 0.15824 0.63117 0.96076 0.0
O60 O 0.13364 0.64118 0.93227 0.0
Co61 Co 0.18498 0.59433 0.93789 0.0
O62 O 0.17464 0.65239 0.92888 0.0
C63 C 0.15044 0.52161 0.92783 0.0
C64 C 0.09702 0.56089 0.95733 0.0
C65 C 0.15163 0.66315 0.92679 0.0
O66 O 0.13201 0.54164 0.93349 0.0
O67 O 0.17321 0.53541 0.92929 0.0
O68 O 0.13451 0.64107 0.96084 0.0
O69 O 0.16395 0.59635 0.95341 0.0
Co70 Co 0.12124 0.59346 0.30911 0.0
O71 O 0.13127 0.55123 0.29535 0.0
O72 O 0.15761 0.5893 0.30912 0.0
C73 C 0.09313 0.63157 0.29555 0.0
O74 O 0.11778 0.64152 0.32404 0.0
Co75 Co 0.0664 0.59476 0.31842 0.0
O76 O 0.07678 0.65286 0.3274 0.0
C77 C 0.10094 0.52201 0.32848 0.0
C78 C 0.15431 0.56123 0.29893 0.0
C79 C 0.0998 0.66356 0.3295 0.0
O80 O 0.11936 0.54198 0.3228 0.0
O81 O 0.07817 0.53586 0.32704 0.0
O82 O 0.11686 0.64145 0.29546 0.0
O83 O 0.08742 0.59675 0.30291 0.0
Co84 Co 0.87019 0.40853 0.05904 0.0
O85 O 0.88015 0.45074 0.04525 0.0
O86 O 0.90656 0.41251 0.05894 0.0
C87 C 0.84188 0.37057 0.04557 0.0
O88 O 0.86686 0.36045 0.07397 0.0
Co89 Co 0.81551 0.40742 0.06856 0.0
O90 O 0.82591 0.3493 0.07752 0.0
C91 C 0.85025 0.48 0.07851 0.0
C92 C 0.9032 0.44063 0.04877 0.0
C93 C 0.84894 0.3385 0.07951 0.0
O94 O 0.86856 0.45997 0.07275 0.0
O95 O 0.82745 0.46625 0.07716 0.0
O96 O 0.86559 0.3606 0.04539 0.0
O97 O 0.8363 0.4054 0.05295 0.0
Co98 Co 0.88177 0.40958 0.69719 0.0
O99 O 0.87196 0.45176 0.71101 0.0
O100 O 0.84542 0.41377 0.69734 0.0
C101 C 0.91007 0.37134 0.71059 0.0
O102 O 0.88493 0.36156 0.68223 0.0
Co103 Co 0.93638 0.40825 0.68757 0.0
O104 O 0.92583 0.35025 0.6786 0.0
C105 C 0.90173 0.48109 0.67773 0.0
C106 C 0.84888 0.4418 0.70753 0.0
C107 C 0.90278 0.33955 0.67664 0.0
O108 O 0.88342 0.46111 0.6835 0.0
O109 O 0.92451 0.46722 0.67903 0.0
O110 O 0.88634 0.36153 0.71079 0.0
O111 O 0.91568 0.4062 0.70322 0.0
Co112 Co 0.63014 0.09317 0.9473 0.0
O113 O 0.61999 0.05096 0.96103 0.0
O114 O 0.59376 0.08915 0.94723 0.0
C115 C 0.65825 0.13116 0.96089 0.0
O116 O 0.63373 0.14124 0.93238 0.0
Co117 Co 0.68503 0.09427 0.93805 0.0
O118 O 0.67476 0.15239 0.92906 0.0
C119 C 0.65045 0.02165 0.92796 0.0
C120 C 0.59698 0.06104 0.95741 0.0
C121 C 0.65176 0.16319 0.92694 0.0
O122 O 0.63202 0.04171 0.9336 0.0
O123 O 0.67323 0.03539 0.92943 0.0
O124 O 0.63452 0.14112 0.96096 0.0
O125 O 0.66394 0.09633 0.95354 0.0
Co126 Co 0.62152 0.09434 0.30891 0.0
O127 O 0.63163 0.05199 0.2952 0.0
O128 O 0.6579 0.09025 0.30896 0.0
C129 C 0.59342 0.13226 0.29529 0.0
O130 O 0.61799 0.14256 0.32379 0.0
Co131 Co 0.56665 0.09562 0.31817 0.0
O132 O 0.57696 0.15379 0.32712 0.0
C133 C 0.6012 0.02301 0.3283 0.0
C134 C 0.65465 0.06205 0.2988 0.0
C135 C 0.59997 0.16458 0.32922 0.0
O136 O 0.61963 0.043 0.32264 0.0
O137 O 0.57842 0.03677 0.32682 0.0
O138 O 0.61715 0.14218 0.29521 0.0
O139 O 0.58772 0.0975 0.30267 0.0
Co140 Co 0.36989 0.90894 0.05901 0.0
O141 O 0.37984 0.95101 0.04519 0.0
O142 O 0.40625 0.91293 0.05891 0.0
C143 C 0.34158 0.87082 0.04558 0.0
O144 O 0.36655 0.86102 0.07398 0.0
Co145 Co 0.3152 0.908 0.06853 0.0
O146 O 0.32561 0.85003 0.07758 0.0
C147 C 0.34995 0.98064 0.07842 0.0
C148 C 0.40289 0.94095 0.04872 0.0
C149 C 0.34863 0.8392 0.07957 0.0
O150 O 0.36825 0.96052 0.07268 0.0
O151 O 0.32715 0.96692 0.07707 0.0
O152 O 0.3653 0.86087 0.04541 0.0
O153 O 0.336 0.90574 0.05292 0.0
Co154 Co 0.38117 0.90735 0.69732 0.0
O155 O 0.3712 0.94973 0.71105 0.0
O156 O 0.34481 0.91137 0.69739 0.0
C157 C 0.40944 0.86951 0.71084 0.0
O158 O 0.38454 0.85909 0.68244 0.0
Co159 Co 0.4359 0.90613 0.68784 0.0
O160 O 0.4255 0.84792 0.67894 0.0
C161 C 0.40121 0.97867 0.67782 0.0
C162 C 0.34815 0.93959 0.70754 0.0
C163 C 0.40248 0.83707 0.67694 0.0
O164 O 0.38286 0.95865 0.68356 0.0
O165 O 0.424 0.96495 0.67922 0.0
O166 O 0.38572 0.85957 0.71101 0.0
O167 O 0.41504 0.90426 0.70343 0.0
Co168 Co 0.63008 0.59431 0.44713 0.0
O169 O 0.62005 0.5519 0.46084 0.0
O170 O 0.5937 0.59008 0.44711 0.0
C171 C 0.65816 0.63232 0.46073 0.0
O172 O 0.63354 0.64255 0.43225 0.0
Co173 Co 0.68492 0.59571 0.43784 0.0
O174 O 0.67455 0.65387 0.4289 0.0
C175 C 0.65041 0.52306 0.4277 0.0
C176 C 0.597 0.56188 0.45726 0.0
C177 C 0.65154 0.66462 0.42681 0.0
O178 O 0.63197 0.54299 0.43339 0.0
O179 O 0.67317 0.53687 0.42917 0.0
O180 O 0.63442 0.64215 0.46082 0.0
O181 O 0.66388 0.59758 0.45335 0.0
Co182 Co 0.62161 0.59318 0.80911 0.0
O183 O 0.63172 0.551 0.79536 0.0
O184 O 0.65799 0.58921 0.80912 0.0
C185 C 0.59345 0.63114 0.79554 0.0
O186 O 0.61807 0.64123 0.82403 0.0
Co187 Co 0.56676 0.5942 0.8184 0.0
O188 O 0.57704 0.65231 0.8274 0.0
C189 C 0.60139 0.5216 0.82845 0.0
C190 C 0.65474 0.56112 0.79894 0.0
C191 C 0.60005 0.66315 0.8295 0.0
O192 O 0.6198 0.5417 0.8228 0.0
O193 O 0.5786 0.53531 0.82699 0.0
O194 O 0.61717 0.64114 0.79545 0.0
O195 O 0.58779 0.5963 0.8029 0.0
Co196 Co 0.37083 0.4074 0.55911 0.0
O197 O 0.38075 0.44982 0.54538 0.0
O198 O 0.4072 0.41147 0.55901 0.0
C199 C 0.34254 0.36957 0.54559 0.0
O200 O 0.36751 0.35912 0.57399 0.0
Co201 Co 0.31613 0.40612 0.56861 0.0
O202 O 0.32654 0.34787 0.57748 0.0
C203 C 0.35084 0.47861 0.57865 0.0
C204 C 0.40381 0.43972 0.54887 0.0
C205 C 0.34957 0.33706 0.57949 0.0
O206 O 0.36917 0.45866 0.57288 0.0
O207 O 0.32805 0.46486 0.57727 0.0
O208 O 0.36626 0.35964 0.54541 0.0
O209 O 0.33695 0.40429 0.55301 0.0
Co210 Co 0.38119 0.40901 0.19717 0.0
O211 O 0.37135 0.45126 0.21097 0.0
O212 O 0.34483 0.41312 0.19732 0.0
C213 C 0.40952 0.37095 0.2106 0.0
O214 O 0.3844 0.36091 0.18223 0.0
Co215 Co 0.43582 0.40775 0.18757 0.0
O216 O 0.42532 0.34965 0.17864 0.0
C217 C 0.40112 0.48047 0.17768 0.0
C218 C 0.34827 0.44121 0.20749 0.0
C219 C 0.40228 0.33889 0.17667 0.0
O220 O 0.38281 0.46047 0.18346 0.0
O221 O 0.4239 0.46666 0.17901 0.0
O222 O 0.38579 0.36107 0.2108 0.0
O223 O 0.4151 0.40577 0.20321 0.0
C224 C 0.33052 0.30715 0.52922 0.0
C225 C 0.32339 0.34375 0.53747 0.0
C226 C 0.31265 0.28405 0.52102 0.0
C227 C 0.24447 0.2625 0.51643 0.0
H228 H 0.26129 0.23124 0.47963 0.0
C229 C 0.17041 0.19428 0.47712 0.0
C230 C 0.1776 0.15761 0.46892 0.0
C231 C 0.18824 0.21753 0.48532 0.0
C232 C 0.25639 0.2393 0.48992 0.0
H233 H 0.29189 0.38442 0.54377 0.0
H234 H 0.26067 0.34427 0.52936 0.0
H235 H 0.2922 0.26998 0.49452 0.0
H236 H 0.20914 0.11695 0.46269 0.0
H237 H 0.2403 0.15734 0.47707 0.0
H238 H 0.20866 0.23182 0.51182 0.0
C239 C 0.28005 0.33315 0.52932 0.0
C240 C 0.27411 0.26147 0.49846 0.0
C241 C 0.29795 0.35629 0.53753 0.0
C242 C 0.20305 0.14513 0.46889 0.0
C243 C 0.22091 0.16842 0.47708 0.0
C244 C 0.22675 0.24033 0.50788 0.0
C245 C 0.28723 0.297 0.52088 0.0
C246 C 0.26837 0.2733 0.51182 0.0
C247 C 0.21367 0.20464 0.48548 0.0
C248 C 0.2325 0.22847 0.49452 0.0
H249 H 0.34998 0.29657 0.529 0.0
H250 H 0.31875 0.25589 0.5148 0.0
H251 H 0.23957 0.27054 0.52672 0.0
H252 H 0.15094 0.20482 0.47732 0.0
H253 H 0.18211 0.24573 0.4915 0.0
C254 C 0.91886 0.98897 0.52978 0.0
C255 C 0.92375 0.95817 0.54053 0.0
C256 C 0.93767 1.00078 0.52095 0.0
C257 C 0.00654 0.99971 0.51693 0.0
H258 H 0.98766 0.00523 0.47849 0.0
C259 C 0.08094 0.01431 0.47638 0.0
C260 C 0.07618 0.0452 0.46563 0.0
C261 C 0.06207 0.0027 0.48518 0.0
C262 C 0.99322 0.00431 0.48919 0.0
H263 H 0.95252 0.91665 0.55069 0.0
H264 H 0.98545 0.93711 0.53522 0.0
H265 H 0.95588 0.98854 0.49489 0.0
H266 H 0.04757 0.08701 0.45545 0.0
H267 H 0.01451 0.06684 0.47088 0.0
H268 H 0.04388 0.01545 0.51122 0.0
C269 C 0.96705 0.95244 0.53367 0.0
C270 C 0.97498 0.99479 0.49861 0.0
C271 C 0.94818 0.94064 0.54254 0.0
C272 C 0.05181 0.06295 0.46359 0.0
C273 C 0.03287 0.05134 0.47244 0.0
C274 C 0.02478 0.00922 0.5075 0.0
C275 C 0.96189 0.98202 0.52261 0.0
C276 C 0.98139 0.99239 0.51261 0.0
C277 C 0.03791 0.02171 0.48351 0.0
C278 C 0.01837 0.01157 0.4935 0.0
H279 H 0.90027 0.00332 0.52797 0.0
H280 H 0.93314 0.0244 0.51273 0.0
H281 H 0.0121 0.99879 0.52762 0.0
H282 H 0.09948 0.99978 0.4782 0.0
H283 H 0.0665 0.97903 0.4934 0.0
C284 C 0.33199 0.9871 0.7264 0.0
C285 C 0.32717 0.95612 0.71567 0.0
C286 C 0.31312 0.99899 0.73518 0.0
C287 C 0.25351 0.95582 0.74805 0.0
H288 H 0.2476 0.07895 0.76228 0.0
C289 C 0.17062 0.01311 0.78008 0.0
C290 C 0.17537 0.04413 0.7908 0.0
C291 C 0.18955 0.00114 0.77135 0.0
C292 C 0.24922 0.04423 0.75856 0.0
H293 H 0.29847 0.91444 0.70552 0.0
H294 H 0.26532 0.93564 0.72079 0.0
H295 H 0.2787 0.06257 0.74547 0.0
H296 H 0.20402 0.0858 0.801 0.0
H297 H 0.23728 0.06447 0.78581 0.0
H298 H 0.22403 0.93749 0.76114 0.0
C299 C 0.28386 0.95025 0.72251 0.0
C300 C 0.26701 0.03486 0.74887 0.0
C301 C 0.30278 0.93843 0.71367 0.0
C302 C 0.19976 0.06178 0.79285 0.0
C303 C 0.21874 0.04988 0.78407 0.0
C304 C 0.23572 0.96519 0.75774 0.0
C305 C 0.28891 0.98016 0.7335 0.0
C306 C 0.2694 0.99053 0.74349 0.0
C307 C 0.21376 0.01993 0.77307 0.0
C308 C 0.23333 0.00953 0.76312 0.0
H309 H 0.35058 0.00131 0.72826 0.0
H310 H 0.31779 0.02173 0.74359 0.0
H311 H 0.25513 0.92111 0.74433 0.0
H312 H 0.15203 0.99891 0.77818 0.0
H313 H 0.18493 0.97836 0.76293 0.0
C314 C 0.04866 0.14488 0.78725 0.0
C315 C 0.07413 0.1572 0.78727 0.0
C316 C 0.03089 0.16824 0.77902 0.0
C317 C 0.02044 0.2762 0.75995 0.0
H318 H 0.96921 0.20588 0.74014 0.0
C319 C 0.95468 0.35758 0.71856 0.0
C320 C 0.92922 0.34523 0.71863 0.0
C321 C 0.97256 0.33416 0.7267 0.0
C322 C 0.98324 0.22607 0.7457 0.0
H323 H 0.10095 0.20403 0.77883 0.0
H324 H 0.07002 0.24454 0.76441 0.0
H325 H 0.9997 0.16671 0.75518 0.0
H326 H 0.90254 0.29826 0.72712 0.0
H327 H 0.93365 0.25764 0.74139 0.0
H328 H 0.00398 0.33556 0.75047 0.0
C329 C 0.06368 0.21716 0.77085 0.0
C330 C 1.00069 0.20363 0.75434 0.0
C331 C 0.08144 0.19379 0.77906 0.0
C332 C 0.92204 0.30853 0.72683 0.0
C333 C 0.9399 0.28509 0.73496 0.0
C334 C 0.00299 0.29865 0.75131 0.0
C335 C 0.03822 0.20445 0.77065 0.0
C336 C 0.0195 0.22843 0.76158 0.0
C337 C 0.96535 0.29785 0.73508 0.0
C338 C 0.98417 0.27385 0.74408 0.0
H339 H 0.04245 0.11692 0.79351 0.0
H340 H 0.01137 0.15804 0.77926 0.0
H341 H 0.03447 0.2964 0.76551 0.0
H342 H 0.96079 0.38564 0.71231 0.0
H343 H 0.99206 0.34441 0.72641 0.0
C344 C 0.79702 0.85774 0.5376 0.0
C345 C 0.82247 0.84527 0.53757 0.0
C346 C 0.77917 0.83443 0.5294 0.0
C347 C 0.77344 0.76247 0.4986 0.0
H348 H 0.70794 0.73266 0.51187 0.0
C349 C 0.70266 0.64589 0.46891 0.0
C350 C 0.67719 0.65827 0.4689 0.0
C351 C 0.72044 0.6692 0.47715 0.0
C352 C 0.72604 0.74122 0.50795 0.0
H353 H 0.84913 0.79802 0.52919 0.0
H354 H 0.81798 0.75707 0.51502 0.0
H355 H 0.73874 0.77161 0.52679 0.0
H356 H 0.65043 0.70532 0.47728 0.0
H357 H 0.68147 0.74629 0.49153 0.0
H358 H 0.76075 0.7321 0.47976 0.0
C359 C 0.81184 0.7853 0.52119 0.0
C360 C 0.7437 0.76351 0.51651 0.0
C361 C 0.82966 0.80856 0.52939 0.0
C362 C 0.66991 0.69486 0.47711 0.0
C363 C 0.68767 0.71814 0.48535 0.0
C364 C 0.75579 0.74019 0.49004 0.0
C365 C 0.78641 0.7982 0.52101 0.0
C366 C 0.76761 0.77437 0.51194 0.0
C367 C 0.71312 0.70537 0.48555 0.0
C368 C 0.73188 0.72929 0.49461 0.0
H369 H 0.79093 0.88594 0.54379 0.0
H370 H 0.75977 0.84549 0.52941 0.0
H371 H 0.79154 0.77103 0.49468 0.0
H372 H 0.70882 0.61778 0.46271 0.0
H373 H 0.73985 0.65821 0.47716 0.0
C374 C 0.67098 0.01435 0.28003 0.0
C375 C 0.6757 0.04544 0.29073 0.0
C376 C 0.68992 0.00238 0.2713 0.0
C377 C 0.74958 0.04551 0.2585 0.0
H378 H 0.7555 0.92234 0.24431 0.0
C379 C 0.83232 0.98825 0.22633 0.0
C380 C 0.82748 0.95728 0.21561 0.0
C381 C 0.81347 1.00017 0.23512 0.0
C382 C 0.75388 0.95707 0.24802 0.0
H383 H 0.70432 0.08723 0.30092 0.0
H384 H 0.7376 0.0659 0.28573 0.0
H385 H 0.72441 0.93876 0.26111 0.0
H386 H 0.79875 0.91564 0.20546 0.0
H387 H 0.76563 0.93688 0.22075 0.0
H388 H 0.77905 0.06381 0.2454 0.0
C389 C 0.71908 0.05126 0.28399 0.0
C390 C 0.7361 0.96646 0.25771 0.0
C391 C 0.70008 0.06316 0.29278 0.0
C392 C 0.80308 0.93962 0.21361 0.0
C393 C 0.78418 0.95146 0.22245 0.0
C394 C 0.76737 0.03612 0.24881 0.0
C395 C 0.71411 0.02124 0.27301 0.0
C396 C 0.73369 0.01081 0.26307 0.0
C397 C 0.78925 0.98137 0.23345 0.0
C398 C 0.76975 0.99177 0.24344 0.0
H399 H 0.6524 1.0001 0.27814 0.0
H400 H 0.68531 0.97956 0.2629 0.0
H401 H 0.74795 0.08024 0.2622 0.0
H402 H 0.85093 0.00245 0.22818 0.0
H403 H 0.81816 0.02292 0.24353 0.0
C404 C 0.95435 0.85711 0.21864 0.0
C405 C 0.9289 0.84466 0.21872 0.0
C406 C 0.97225 0.83383 0.2268 0.0
C407 C 0.98307 0.72593 0.24586 0.0
H408 H 0.03424 0.79656 0.26562 0.0
C409 C 0.04861 0.6452 0.28742 0.0
C410 C 0.07408 0.65756 0.28741 0.0
C411 C 0.03081 0.66849 0.2792 0.0
C412 C 0.02023 0.77629 0.26007 0.0
H413 H 0.90227 0.79766 0.22725 0.0
H414 H 0.93344 0.7573 0.24155 0.0
H415 H 0.00368 0.83553 0.25057 0.0
H416 H 0.10084 0.70441 0.27894 0.0
H417 H 0.06985 0.7448 0.26452 0.0
H418 H 0.99961 0.66669 0.25536 0.0
C419 C 0.93965 0.78472 0.2351 0.0
C420 C 0.00274 0.79862 0.25142 0.0
C421 C 0.92176 0.808 0.22695 0.0
C422 C 0.08134 0.69414 0.27919 0.0
C423 C 0.06355 0.71744 0.27097 0.0
C424 C 1.00056 0.70361 0.25451 0.0
C425 C 0.96508 0.79757 0.2352 0.0
C426 C 0.98394 0.77371 0.24422 0.0
C427 C 0.0381 0.70466 0.2708 0.0
C428 C 0.01934 0.72852 0.26172 0.0
H429 H 0.96042 0.88513 0.21237 0.0
H430 H 0.99174 0.84415 0.2265 0.0
H431 H 0.96905 0.70566 0.24031 0.0
H432 H 0.04244 0.61725 0.29369 0.0
H433 H 0.0113 0.65824 0.27945 0.0
C434 C 0.29697 0.85724 0.03758 0.0
C435 C 0.32242 0.84478 0.03752 0.0
C436 C 0.27907 0.83388 0.02943 0.0
C437 C 0.26828 0.72579 0.01045 0.0
H438 H 0.21715 0.79626 0.99062 0.0
C439 C 0.20276 0.64476 0.96891 0.0
C440 C 0.1773 0.65716 0.96891 0.0
C441 C 0.22056 0.66807 0.97714 0.0
C442 C 0.23114 0.77603 0.99619 0.0
H443 H 0.34905 0.79767 0.02906 0.0
H444 H 0.31791 0.75716 0.01478 0.0
H445 H 0.24769 0.83535 0.00566 0.0
H446 H 0.15054 0.7041 0.97734 0.0
H447 H 0.18152 0.74454 0.99175 0.0
H448 H 0.25174 0.66647 1.00098 0.0
C449 C 0.31169 0.78465 0.0212 0.0
C450 C 0.24863 0.79843 0.00483 0.0
C451 C 0.32956 0.80802 0.02934 0.0
C452 C 0.17004 0.6938 0.97711 0.0
C453 C 0.18782 0.71712 0.98532 0.0
C454 C 0.2508 0.70339 1.00182 0.0
C455 C 0.28626 0.79752 0.02107 0.0
C456 C 0.26741 0.77358 0.01206 0.0
C457 C 0.21327 0.70432 0.98551 0.0
C458 C 0.23203 0.72825 0.99458 0.0
H459 H 0.29089 0.88534 0.04382 0.0
H460 H 0.25958 0.84421 0.02971 0.0
H461 H 0.28228 0.70555 0.01602 0.0
H462 H 0.20893 0.61676 0.96266 0.0
H463 H 0.24006 0.6578 0.9769 0.0
C464 C 0.08071 0.5134 0.97615 0.0
C465 C 0.07598 0.54436 0.96542 0.0
C466 C 0.06178 0.50154 0.9849 0.0
C467 C 0.00213 0.54482 0.99766 0.0
H468 H 0.99617 0.42181 0.01197 0.0
C469 C 0.91935 0.48797 0.02987 0.0
C470 C 0.92417 0.45709 0.04061 0.0
C471 C 0.93822 0.49979 0.02107 0.0
C472 C 0.9978 0.45649 0.00822 0.0
H473 H 0.04735 0.58602 0.95519 0.0
H474 H 0.01408 0.56486 0.9704 0.0
H475 H 0.02728 0.43802 0.99515 0.0
H476 H 0.95287 0.4155 0.0508 0.0
H477 H 0.98602 0.43657 0.03551 0.0
H478 H 0.97266 0.56329 0.01074 0.0
C479 C 0.03261 0.55025 0.97215 0.0
C480 C 0.01559 0.46577 0.99853 0.0
C481 C 0.0516 0.56205 0.96336 0.0
C482 C 0.94856 0.43942 0.04263 0.0
C483 C 0.96748 0.45116 0.03378 0.0
C484 C 0.98434 0.53554 0.00736 0.0
C485 C 0.03758 0.52037 0.98317 0.0
C486 C 0.01801 0.51006 0.99313 0.0
C487 C 0.96243 0.48098 0.02276 0.0
C488 C 0.98194 0.49126 0.01277 0.0
H489 H 0.0993 0.49919 0.97806 0.0
H490 H 0.06639 0.47881 0.99332 0.0
H491 H 0.00377 0.57951 0.99392 0.0
H492 H 0.90075 0.50217 0.02799 0.0
H493 H 0.93354 0.52246 0.01264 0.0
C494 C 0.33228 0.48862 0.22642 0.0
C495 C 0.32738 0.45769 0.21569 0.0
C496 C 0.31351 0.50037 0.23528 0.0
C497 C 0.24467 0.4989 0.23943 0.0
H498 H 0.2638 0.50486 0.27784 0.0
C499 C 0.17051 0.51369 0.2801 0.0
C500 C 0.1753 0.54473 0.2908 0.0
C501 C 0.18935 0.50199 0.27128 0.0
C502 C 0.25817 0.50381 0.26715 0.0
H503 H 0.29862 0.41592 0.20562 0.0
H504 H 0.26576 0.43629 0.22114 0.0
H505 H 0.2955 0.4882 0.26138 0.0
H506 H 0.20394 0.58673 0.3009 0.0
H507 H 0.23693 0.56641 0.28544 0.0
H508 H 0.20735 0.51449 0.2452 0.0
C509 C 0.28414 0.45175 0.22264 0.0
C510 C 0.27636 0.49431 0.25769 0.0
C511 C 0.30297 0.44 0.21374 0.0
C512 C 0.19968 0.56255 0.29279 0.0
C513 C 0.21858 0.55085 0.28393 0.0
C514 C 0.22649 0.5084 0.24889 0.0
C515 C 0.28931 0.48145 0.23367 0.0
C516 C 0.26986 0.49176 0.2437 0.0
C517 C 0.2135 0.52108 0.2729 0.0
C518 C 0.23298 0.51091 0.26288 0.0
H519 H 0.35085 0.50309 0.22818 0.0
H520 H 0.31804 0.52408 0.24347 0.0
H521 H 0.23904 0.49786 0.22875 0.0
H522 H 0.15198 0.4991 0.27832 0.0
H523 H 0.1849 0.4782 0.2631 0.0
C524 C 0.67008 0.19376 0.97724 0.0
C525 C 0.67732 0.15714 0.96903 0.0
C526 C 0.68789 0.21708 0.98543 0.0
C527 C 0.75093 0.20333 1.00186 0.0
H528 H 0.74784 0.33529 0.00572 0.0
C529 C 0.82981 0.3079 0.0293 0.0
C530 C 0.82269 0.34459 0.03751 0.0
C531 C 0.81191 0.28457 0.02117 0.0
C532 C 0.74878 0.29837 0.00488 0.0
H533 H 0.70893 0.11675 0.96275 0.0
H534 H 0.7401 0.15778 0.97696 0.0
H535 H 0.71723 0.29622 0.99072 0.0
H536 H 0.79119 0.3851 0.04387 0.0
H537 H 0.75984 0.34406 0.02977 0.0
H538 H 0.78248 0.20547 0.01602 0.0
C539 C 0.7206 0.16805 0.97722 0.0
C540 C 0.73125 0.27598 0.99627 0.0
C541 C 0.70278 0.14474 0.96901 0.0
C542 C 0.79725 0.35705 0.0376 0.0
C543 C 0.77932 0.33373 0.02946 0.0
C544 C 0.76845 0.22571 0.01047 0.0
C545 C 0.71334 0.20429 0.9856 0.0
C546 C 0.73213 0.2282 0.99465 0.0
C547 C 0.78648 0.29742 0.02107 0.0
C548 C 0.76759 0.2735 0.01208 0.0
H549 H 0.65058 0.20405 0.97749 0.0
H550 H 0.68162 0.24449 0.99187 0.0
H551 H 0.75187 0.16641 1.00102 0.0
H552 H 0.8493 0.29755 0.02899 0.0
H553 H 0.8181 0.25711 0.01472 0.0
C554 C 0.67103 0.51377 0.78009 0.0
C555 C 0.67577 0.54477 0.79081 0.0
C556 C 0.6899 0.5022 0.77127 0.0
C557 C 0.75872 0.50425 0.76717 0.0
H558 H 0.73966 0.49851 0.72876 0.0
C559 C 0.8329 0.48913 0.72648 0.0
C560 C 0.82799 0.45828 0.71574 0.0
C561 C 0.81412 0.50089 0.73533 0.0
C562 C 0.74527 0.49949 0.73945 0.0
H563 H 0.70434 0.58682 0.80094 0.0
H564 H 0.73738 0.56672 0.78549 0.0
H565 H 0.70793 0.51501 0.74521 0.0
H566 H 0.79921 0.41663 0.70563 0.0
H567 H 0.76635 0.437 0.72114 0.0
H568 H 0.79606 0.48869 0.76142 0.0
C569 C 0.71905 0.5511 0.78396 0.0
C570 C 0.72706 0.50892 0.7489 0.0
C571 C 0.70012 0.56267 0.79282 0.0
C572 C 0.80357 0.44067 0.71376 0.0
C573 C 0.78473 0.45241 0.72266 0.0
C574 C 0.77693 0.49481 0.75772 0.0
C575 C 0.71402 0.52138 0.77291 0.0
C576 C 0.73353 0.51133 0.76289 0.0
C577 C 0.78991 0.48204 0.73371 0.0
C578 C 0.77045 0.49233 0.74373 0.0
H579 H 0.65252 0.49911 0.77829 0.0
H580 H 0.68549 0.47845 0.76307 0.0
H581 H 0.76432 0.50524 0.77787 0.0
H582 H 0.85148 0.50355 0.72825 0.0
H583 H 0.81866 0.52455 0.74354 0.0
C584 C 0.58059 0.0136 0.97622 0.0
C585 C 0.5759 0.04454 0.96548 0.0
C586 C 0.56162 0.00175 0.98495 0.0
C587 C 0.5019 0.04503 0.99763 0.0
H588 H 0.49595 0.92206 0.01197 0.0
C589 C 0.41905 0.98818 0.02979 0.0
C590 C 0.42387 0.95737 0.04056 0.0
C591 C 0.43793 0.99998 0.021 0.0
C592 C 0.49758 0.95674 0.00822 0.0
H593 H 0.54731 0.08619 0.95522 0.0
H594 H 0.51398 0.06506 0.97039 0.0
H595 H 0.5271 0.93826 0.99518 0.0
H596 H 0.45258 0.91591 0.05079 0.0
H597 H 0.48574 0.93695 0.0355 0.0
H598 H 0.47237 0.06351 0.01068 0.0
C599 C 0.5325 0.05045 0.97217 0.0
C600 C 0.5154 0.966 0.99854 0.0
C601 C 0.55152 0.06223 0.96339 0.0
C602 C 0.44827 0.93976 0.0426 0.0
C603 C 0.4672 0.95149 0.03376 0.0
C604 C 0.48408 0.03577 0.00731 0.0
C605 C 0.53743 0.02058 0.98319 0.0
C606 C 0.51781 0.01028 0.99312 0.0
C607 C 0.46215 0.98123 0.02272 0.0
C608 C 0.48168 0.99149 0.01274 0.0
H609 H 0.59916 0.99938 0.97815 0.0
H610 H 0.5662 0.97904 0.99338 0.0
H611 H 0.50353 0.07971 0.99389 0.0
H612 H 0.40045 0.00233 0.0279 0.0
H613 H 0.43326 0.0226 0.01256 0.0
C614 C 0.45414 0.35746 0.2186 0.0
C615 C 0.42869 0.34499 0.21867 0.0
C616 C 0.47204 0.33419 0.22677 0.0
C617 C 0.47796 0.26233 0.25759 0.0
H618 H 0.54336 0.23249 0.24419 0.0
C619 C 0.54889 0.14578 0.28716 0.0
C620 C 0.57435 0.15818 0.28713 0.0
C621 C 0.53107 0.16908 0.27894 0.0
C622 C 0.52529 0.24106 0.24814 0.0
H623 H 0.40208 0.2978 0.22712 0.0
H624 H 0.43331 0.25691 0.24126 0.0
H625 H 0.51247 0.2714 0.22932 0.0
H626 H 0.60107 0.20522 0.27871 0.0
H627 H 0.56996 0.24616 0.2645 0.0
H628 H 0.49076 0.232 0.27641 0.0
C629 C 0.43942 0.2851 0.23506 0.0
C630 C 0.50758 0.26333 0.23961 0.0
C631 C 0.42154 0.30833 0.22689 0.0
C632 C 0.58159 0.19476 0.27891 0.0
C633 C 0.56379 0.21801 0.27069 0.0
C634 C 0.49566 0.24007 0.26612 0.0
C635 C 0.46484 0.29799 0.23519 0.0
C636 C 0.4837 0.27419 0.24423 0.0
C637 C 0.53834 0.20524 0.27053 0.0
C638 C 0.51954 0.22916 0.2615 0.0
H639 H 0.4602 0.38562 0.21238 0.0
H640 H 0.49143 0.34525 0.22672 0.0
H641 H 0.45988 0.27089 0.26154 0.0
H642 H 0.54276 0.11767 0.29338 0.0
H643 H 0.51166 0.15808 0.27896 0.0
C644 C 0.42145 0.80699 0.72717 0.0
C645 C 0.4286 0.84363 0.71895 0.0
C646 C 0.43932 0.7838 0.73536 0.0
C647 C 0.50749 0.76211 0.73992 0.0
H648 H 0.49068 0.73069 0.77671 0.0
C649 C 0.58155 0.69371 0.7792 0.0
C650 C 0.57435 0.65706 0.78741 0.0
C651 C 0.56372 0.71695 0.771 0.0
C652 C 0.49558 0.73879 0.76642 0.0
H653 H 0.4601 0.8843 0.71267 0.0
H654 H 0.49132 0.844 0.72704 0.0
H655 H 0.45978 0.76954 0.76184 0.0
H656 H 0.5428 0.61641 0.79364 0.0
H657 H 0.51165 0.6568 0.77925 0.0
H658 H 0.54329 0.73136 0.7445 0.0
C659 C 0.47193 0.83291 0.72707 0.0
C660 C 0.47786 0.76102 0.75789 0.0
C661 C 0.45404 0.85614 0.71889 0.0
C662 C 0.5489 0.64458 0.78743 0.0
C663 C 0.53105 0.66786 0.77923 0.0
C664 C 0.52521 0.73988 0.74845 0.0
C665 C 0.46474 0.79671 0.73549 0.0
C666 C 0.4836 0.77292 0.74453 0.0
C667 C 0.53829 0.70408 0.77083 0.0
C668 C 0.51946 0.72795 0.7618 0.0
H669 H 0.40199 0.79642 0.72739 0.0
H670 H 0.43321 0.7556 0.74155 0.0
H671 H 0.51238 0.77021 0.72963 0.0
H672 H 0.60102 0.70424 0.779 0.0
H673 H 0.56986 0.74515 0.76482 0.0
C674 C 0.41988 0.48753 0.53005 0.0
C675 C 0.42475 0.45637 0.54072 0.0
C676 C 0.43869 0.49954 0.52124 0.0
C677 C 0.49813 0.45643 0.50817 0.0
H678 H 0.50405 0.57976 0.4941 0.0
C679 C 0.58079 0.51395 0.47601 0.0
C680 C 0.576 0.54517 0.46535 0.0
C681 C 0.56192 0.50191 0.48477 0.0
C682 C 0.50242 0.54499 0.49777 0.0
H683 H 0.45349 0.41448 0.55076 0.0
H684 H 0.48654 0.43587 0.53544 0.0
H685 H 0.47309 0.56321 0.51097 0.0
H686 H 0.54733 0.58711 0.45527 0.0
H687 H 0.51417 0.56565 0.47051 0.0
H688 H 0.52747 0.43821 0.49497 0.0
C689 C 0.468 0.45054 0.53379 0.0
C690 C 0.48472 0.53553 0.5075 0.0
C691 C 0.44914 0.43861 0.54265 0.0
C692 C 0.55162 0.56294 0.46337 0.0
C693 C 0.53269 0.55096 0.47219 0.0
C694 C 0.51584 0.4659 0.49844 0.0
C695 C 0.46289 0.48064 0.52285 0.0
C696 C 0.48233 0.49112 0.51282 0.0
C697 C 0.53773 0.52081 0.48313 0.0
C698 C 0.51823 0.51031 0.49312 0.0
H699 H 0.40128 0.50181 0.52825 0.0
H700 H 0.43398 0.52243 0.51287 0.0
H701 H 0.49651 0.42167 0.51184 0.0
H702 H 0.59938 0.49966 0.47784 0.0
H703 H 0.56658 0.47898 0.49314 0.0
C704 C 0.08624 0.72667 0.34482 0.0
C705 C 0.10577 0.70159 0.33914 0.0
C706 C 0.09143 0.76082 0.35445 0.0
C707 C 0.14144 0.83761 0.36808 0.0
H708 H 0.09933 0.84454 0.39921 0.0
C709 C 0.16513 0.95788 0.41323 0.0
C710 C 0.14522 0.9822 0.41882 0.0
C711 C 0.16045 0.92276 0.40384 0.0
C712 C 0.1111 0.84343 0.39052 0.0
H713 H 0.14624 0.69374 0.33901 0.0
H714 H 0.15531 0.75342 0.35591 0.0
H715 H 0.0913 0.78576 0.38202 0.0
H716 H 0.10463 0.9877 0.41902 0.0
H717 H 0.09646 0.92659 0.40253 0.0
H718 H 0.16116 0.89543 0.37654 0.0
C719 C 0.13593 0.74666 0.35281 0.0
C720 C 0.10651 0.80969 0.38065 0.0
C721 C 0.13073 0.71233 0.34315 0.0
C722 C 0.12044 0.96967 0.41498 0.0
C723 C 0.11575 0.9345 0.40554 0.0
C724 C 0.14601 0.87141 0.37794 0.0
C725 C 0.11631 0.77095 0.35868 0.0
C726 C 0.12157 0.80644 0.36928 0.0
C727 C 0.13572 0.91097 0.39974 0.0
C728 C 0.13088 0.87479 0.38928 0.0
H729 H 0.06677 0.71974 0.34193 0.0
H730 H 0.07589 0.77944 0.35855 0.0
H731 H 0.15318 0.83649 0.35937 0.0
H732 H 0.18448 0.96622 0.41599 0.0
H733 H 0.17627 0.9048 0.3998 0.0
C734 C 0.16538 0.22559 0.41119 0.0
C735 C 0.14584 0.20127 0.41714 0.0
C736 C 0.16016 0.25978 0.40158 0.0
C737 C 0.11049 0.33822 0.38851 0.0
H738 H 0.15133 0.34351 0.35685 0.0
C739 C 0.08626 0.45892 0.34353 0.0
C740 C 0.10618 0.4825 0.33769 0.0
C741 C 0.09096 0.42378 0.35291 0.0
C742 C 0.13993 0.34286 0.36569 0.0
H743 H 0.10535 0.19478 0.41773 0.0
H744 H 0.09623 0.25454 0.40086 0.0
H745 H 0.15942 0.2845 0.37397 0.0
H746 H 0.14676 0.48668 0.33704 0.0
H747 H 0.15495 0.42552 0.35351 0.0
H748 H 0.09108 0.39671 0.38027 0.0
C749 C 0.11564 0.24715 0.40375 0.0
C750 C 0.14455 0.30899 0.37552 0.0
C751 C 0.12087 0.21277 0.41338 0.0
C752 C 0.13095 0.46925 0.34128 0.0
C753 C 0.13565 0.43404 0.3507 0.0
C754 C 0.10589 0.37213 0.37869 0.0
C755 C 0.13526 0.27072 0.39763 0.0
C756 C 0.12994 0.30632 0.38707 0.0
C757 C 0.11569 0.41121 0.35675 0.0
C758 C 0.12057 0.37492 0.36716 0.0
H759 H 0.18487 0.21805 0.41387 0.0
H760 H 0.17571 0.27782 0.39728 0.0
H761 H 0.09912 0.33755 0.39737 0.0
H762 H 0.06691 0.46786 0.34097 0.0
H763 H 0.07513 0.40639 0.35715 0.0
C764 C 0.08617 0.22599 0.84481 0.0
C765 C 0.10572 0.2012 0.83903 0.0
C766 C 0.09138 0.26018 0.85442 0.0
C767 C 0.14124 0.33767 0.86782 0.0
H768 H 0.09963 0.34392 0.89917 0.0
C769 C 0.16512 0.45816 0.91292 0.0
C770 C 0.14519 0.48211 0.91862 0.0
C771 C 0.16044 0.42305 0.90352 0.0
C772 C 0.11126 0.34301 0.89041 0.0
H773 H 0.1462 0.1939 0.83872 0.0
H774 H 0.15528 0.25366 0.85559 0.0
H775 H 0.09159 0.28505 0.882 0.0
H776 H 0.1046 0.48699 0.91901 0.0
H777 H 0.09645 0.42591 0.90251 0.0
H778 H 0.16083 0.39578 0.8762 0.0
C779 C 0.13589 0.24663 0.85258 0.0
C780 C 0.10667 0.30921 0.88056 0.0
C781 C 0.13068 0.21226 0.84293 0.0
C782 C 0.12042 0.46926 0.91488 0.0
C783 C 0.11574 0.43409 0.90544 0.0
C784 C 0.14582 0.37152 0.87767 0.0
C785 C 0.11627 0.27065 0.85854 0.0
C786 C 0.12155 0.3062 0.86912 0.0
C787 C 0.13571 0.4109 0.89953 0.0
C788 C 0.13087 0.37466 0.88909 0.0
H789 H 0.0667 0.21882 0.842 0.0
H790 H 0.07583 0.27858 0.85859 0.0
H791 H 0.15284 0.33674 0.85905 0.0
H792 H 0.18447 0.46677 0.9156 0.0
H793 H 0.17627 0.40536 0.89939 0.0
C794 C 0.12069 0.71235 0.91329 0.0
C795 C 0.14566 0.7012 0.91715 0.0
C796 C 0.11547 0.74675 0.90365 0.0
C797 C 0.14461 0.80918 0.87561 0.0
H798 H 0.0906 0.89599 0.88007 0.0
C799 C 0.13088 0.96921 0.8413 0.0
C800 C 0.10611 0.98217 0.8376 0.0
C801 C 0.13556 0.93406 0.85075 0.0
C802 C 0.10556 0.87167 0.87857 0.0
H803 H 0.18467 0.71865 0.91411 0.0
H804 H 0.17553 0.77844 0.89753 0.0
H805 H 0.09861 0.83693 0.8972 0.0
H806 H 0.06684 0.96702 0.84069 0.0
H807 H 0.07503 0.90563 0.8569 0.0
H808 H 0.15158 0.84384 0.85699 0.0
C809 C 0.15998 0.76011 0.90174 0.0
C810 C 0.11015 0.8378 0.88841 0.0
C811 C 0.1652 0.7259 0.91134 0.0
C812 C 0.08618 0.95833 0.84334 0.0
C813 C 0.09086 0.92323 0.85274 0.0
C814 C 0.14 0.84298 0.86577 0.0
C815 C 0.13509 0.77068 0.89765 0.0
C816 C 0.1298 0.80624 0.88708 0.0
C817 C 0.11559 0.91097 0.85669 0.0
C818 C 0.12045 0.87473 0.86713 0.0
H819 H 0.10517 0.69407 0.91753 0.0
H820 H 0.09607 0.75385 0.90067 0.0
H821 H 0.15964 0.78494 0.87414 0.0
H822 H 0.1467 0.98685 0.83714 0.0
H823 H 0.15486 0.9258 0.85364 0.0
C824 C 0.91597 0.27675 0.6611 0.0
C825 C 0.89659 0.3014 0.66707 0.0
C826 C 0.91052 0.24216 0.65165 0.0
C827 C 0.86071 0.20104 0.62748 0.0
H828 H 0.90104 0.09051 0.62759 0.0
C829 C 0.83569 0.04451 0.59358 0.0
C830 C 0.85544 0.0207 0.58766 0.0
C831 C 0.84064 0.07955 0.60297 0.0
C832 C 0.88981 0.12142 0.6273 0.0
H833 H 0.85613 0.30814 0.66786 0.0
H834 H 0.84662 0.24725 0.65142 0.0
H835 H 0.90914 0.1485 0.645 0.0
H836 H 0.89599 0.01615 0.58682 0.0
H837 H 0.9046 0.07762 0.60316 0.0
H838 H 0.84133 0.17379 0.60978 0.0
C839 C 0.86609 0.25528 0.65396 0.0
C840 C 0.89441 0.15466 0.63731 0.0
C841 C 0.87154 0.29 0.66346 0.0
C842 C 0.8803 0.03362 0.59117 0.0
C843 C 0.88525 0.06864 0.60062 0.0
C844 C 0.85608 0.16773 0.61747 0.0
C845 C 0.88554 0.23109 0.64789 0.0
C846 C 0.87999 0.19499 0.63751 0.0
C847 C 0.86546 0.09172 0.60673 0.0
C848 C 0.87062 0.12756 0.61724 0.0
H849 H 0.9355 0.28445 0.66359 0.0
H850 H 0.92599 0.22475 0.64707 0.0
H851 H 0.8495 0.23197 0.62719 0.0
H852 H 0.81629 0.03563 0.59115 0.0
H853 H 0.82496 0.09625 0.60757 0.0
C854 C 0.91612 0.54431 0.66263 0.0
C855 C 0.89632 0.52065 0.66856 0.0
C856 C 0.91124 0.5795 0.65329 0.0
C857 C 0.86198 0.66031 0.64075 0.0
H858 H 0.90224 0.66586 0.60887 0.0
C859 C 0.83559 0.77746 0.59536 0.0
C860 C 0.85498 0.80186 0.58931 0.0
C861 C 0.84102 0.74331 0.60495 0.0
C862 C 0.89102 0.66513 0.61779 0.0
H863 H 0.85577 0.51638 0.66941 0.0
H864 H 0.84727 0.57759 0.653 0.0
H865 H 0.91066 0.60673 0.62594 0.0
H866 H 0.89544 0.80854 0.58852 0.0
H867 H 0.90493 0.74886 0.60536 0.0
H868 H 0.84227 0.71856 0.63257 0.0
C869 C 0.86662 0.56912 0.65571 0.0
C870 C 0.89584 0.63123 0.62759 0.0
C871 C 0.87149 0.53387 0.6651 0.0
C872 C 0.88002 0.79049 0.59294 0.0
C873 C 0.88547 0.75616 0.60257 0.0
C874 C 0.85715 0.69416 0.63095 0.0
C875 C 0.88644 0.59202 0.64957 0.0
C876 C 0.88136 0.62834 0.63919 0.0
C877 C 0.866 0.73249 0.60879 0.0
C878 C 0.87155 0.69692 0.61932 0.0
H879 H 0.93551 0.53541 0.66509 0.0
H880 H 0.92697 0.59695 0.64897 0.0
H881 H 0.85072 0.65958 0.64966 0.0
H882 H 0.81606 0.7849 0.59278 0.0
H883 H 0.82558 0.7252 0.60933 0.0
C884 C 0.83586 0.54329 0.09357 0.0
C885 C 0.85566 0.51944 0.08772 0.0
C886 C 0.84073 0.57836 0.10296 0.0
C887 C 0.89009 0.65855 0.11574 0.0
H888 H 0.8493 0.66454 0.14742 0.0
C889 C 0.91601 0.77578 0.16119 0.0
C890 C 0.89656 0.80043 0.1671 0.0
C891 C 0.91066 0.74154 0.15161 0.0
C892 C 0.86067 0.66368 0.13856 0.0
H893 H 0.89623 0.51472 0.08704 0.0
H894 H 0.9047 0.57573 0.10352 0.0
H895 H 0.84099 0.60547 0.13032 0.0
H896 H 0.85609 0.80743 0.16768 0.0
H897 H 0.84675 0.74759 0.15088 0.0
H898 H 0.90984 0.71662 0.12402 0.0
C899 C 0.88536 0.56749 0.10073 0.0
C900 C 0.85591 0.62982 0.12874 0.0
C901 C 0.8805 0.53236 0.09129 0.0
C902 C 0.87155 0.78919 0.16336 0.0
C903 C 0.86619 0.75476 0.15376 0.0
C904 C 0.89486 0.69236 0.12557 0.0
C905 C 0.86552 0.59058 0.10679 0.0
C906 C 0.87057 0.62679 0.11721 0.0
C907 C 0.88572 0.73088 0.14766 0.0
C908 C 0.88026 0.69528 0.13712 0.0
H909 H 0.81647 0.53462 0.09103 0.0
H910 H 0.82498 0.59596 0.10721 0.0
H911 H 0.90149 0.65772 0.1069 0.0
H912 H 0.93552 0.78311 0.16386 0.0
H913 H 0.92614 0.72325 0.14733 0.0
C914 C 0.91576 0.04329 0.16263 0.0
C915 C 0.89596 0.01944 0.16849 0.0
C916 C 0.91089 0.07835 0.15325 0.0
C917 C 0.86151 0.15851 0.14046 0.0
H918 H 0.90231 0.16454 0.10879 0.0
C919 C 0.83558 0.27574 0.09502 0.0
C920 C 0.85503 0.30041 0.08912 0.0
C921 C 0.84093 0.24149 0.1046 0.0
C922 C 0.89093 0.16367 0.11765 0.0
H923 H 0.8554 0.01468 0.16916 0.0
H924 H 0.84691 0.07568 0.15268 0.0
H925 H 0.91063 0.10548 0.12589 0.0
H926 H 0.8955 0.30744 0.08854 0.0
H927 H 0.90484 0.24759 0.10534 0.0
H928 H 0.84174 0.21656 0.13219 0.0
C929 C 0.86626 0.06745 0.15548 0.0
C930 C 0.8957 0.12981 0.12747 0.0
C931 C 0.87113 0.03234 0.16491 0.0
C932 C 0.88004 0.28918 0.09286 0.0
C933 C 0.8854 0.25475 0.10246 0.0
C934 C 0.85673 0.19231 0.13064 0.0
C935 C 0.88609 0.09056 0.14942 0.0
C936 C 0.88104 0.12677 0.139 0.0
C937 C 0.86588 0.23085 0.10855 0.0
C938 C 0.87133 0.19525 0.11909 0.0
H939 H 0.93515 0.03464 0.16518 0.0
H940 H 0.92663 0.09597 0.14899 0.0
H941 H 0.85011 0.15766 0.14931 0.0
H942 H 0.81607 0.28306 0.09235 0.0
H943 H 0.82545 0.22319 0.10887 0.0
C944 C 0.63092 0.71236 0.84305 0.0
C945 C 0.60597 0.70122 0.83913 0.0
C946 C 0.63609 0.74676 0.85269 0.0
C947 C 0.60677 0.80929 0.88066 0.0
H948 H 0.6609 0.89596 0.8763 0.0
C949 C 0.62045 0.96933 0.91498 0.0
C950 C 0.64522 0.98217 0.91873 0.0
C951 C 0.61578 0.93418 0.90553 0.0
C952 C 0.6459 0.87167 0.87777 0.0
H953 H 0.56693 0.71872 0.84209 0.0
H954 H 0.57599 0.77854 0.85868 0.0
H955 H 0.65295 0.83691 0.85916 0.0
H956 H 0.68449 0.96681 0.91573 0.0
H957 H 0.67632 0.90544 0.89951 0.0
H958 H 0.5997 0.84398 0.89926 0.0
C959 C 0.59156 0.76018 0.85451 0.0
C960 C 0.64135 0.83782 0.86793 0.0
C961 C 0.5864 0.72596 0.8449 0.0
C962 C 0.66515 0.95821 0.91304 0.0
C963 C 0.66048 0.92313 0.90364 0.0
C964 C 0.61134 0.84309 0.89051 0.0
C965 C 0.61643 0.77073 0.85864 0.0
C966 C 0.62167 0.8063 0.86922 0.0
C967 C 0.63576 0.91099 0.89963 0.0
C968 C 0.63093 0.87478 0.88919 0.0
H969 H 0.64646 0.69405 0.83884 0.0
H970 H 0.65547 0.75385 0.85571 0.0
H971 H 0.59172 0.78509 0.88209 0.0
H972 H 0.60462 0.98706 0.91911 0.0
H973 H 0.59649 0.926 0.90259 0.0
C974 C 0.62092 0.21231 0.91334 0.0
C975 C 0.64586 0.20127 0.9173 0.0
C976 C 0.61577 0.2467 0.9037 0.0
C977 C 0.6452 0.30944 0.8758 0.0
H978 H 0.59088 0.39577 0.88005 0.0
C979 C 0.63143 0.46942 0.84145 0.0
C980 C 0.60665 0.48211 0.83767 0.0
C981 C 0.63611 0.43429 0.8509 0.0
C982 C 0.60594 0.37158 0.87861 0.0
H983 H 0.6849 0.21895 0.91442 0.0
H984 H 0.67588 0.27877 0.89783 0.0
H985 H 0.59881 0.33675 0.8972 0.0
H986 H 0.56738 0.46648 0.8406 0.0
H987 H 0.57558 0.40513 0.85682 0.0
H988 H 0.65233 0.3442 0.85722 0.0
C989 C 0.6603 0.26033 0.90196 0.0
C990 C 0.61048 0.33774 0.88846 0.0
C991 C 0.66544 0.22611 0.91157 0.0
C992 C 0.58673 0.45801 0.84332 0.0
C993 C 0.59141 0.42293 0.85272 0.0
C994 C 0.64064 0.34322 0.86595 0.0
C995 C 0.63544 0.27077 0.89779 0.0
C996 C 0.63022 0.30634 0.8872 0.0
C997 C 0.61614 0.41096 0.85677 0.0
C998 C 0.62097 0.37478 0.86723 0.0
H999 H 0.60537 0.19391 0.91751 0.0
H1000 H 0.5964 0.25371 0.90064 0.0
H1001 H 0.66031 0.28533 0.87439 0.0
H1002 H 0.64724 0.48727 0.83736 0.0
H1003 H 0.6554 0.42624 0.85387 0.0
C1004 C 0.63085 0.21384 0.34275 0.0
C1005 C 0.6059 0.20272 0.33884 0.0
C1006 C 0.63603 0.24829 0.35238 0.0
C1007 C 0.60671 0.3109 0.38033 0.0
H1008 H 0.66087 0.39751 0.37599 0.0
C1009 C 0.62041 0.47081 0.4147 0.0
C1010 C 0.64518 0.48365 0.41845 0.0
C1011 C 0.61574 0.43571 0.40523 0.0
C1012 C 0.64586 0.37325 0.37745 0.0
H1013 H 0.56687 0.22033 0.34177 0.0
H1014 H 0.57594 0.28021 0.35833 0.0
H1015 H 0.65292 0.33846 0.35884 0.0
H1016 H 0.68445 0.46836 0.41543 0.0
H1017 H 0.67628 0.40707 0.39918 0.0
H1018 H 0.59964 0.3456 0.39893 0.0
C1019 C 0.5915 0.2618 0.35418 0.0
C1020 C 0.64131 0.33939 0.36761 0.0
C1021 C 0.58634 0.22754 0.34458 0.0
C1022 C 0.66511 0.45976 0.41274 0.0
C1023 C 0.66044 0.42472 0.40332 0.0
C1024 C 0.61128 0.3447 0.39018 0.0
C1025 C 0.61638 0.27231 0.35832 0.0
C1026 C 0.62162 0.30789 0.36889 0.0
C1027 C 0.63572 0.41257 0.39931 0.0
C1028 C 0.63089 0.37637 0.38886 0.0
H1029 H 0.64639 0.19547 0.33857 0.0
H1030 H 0.65541 0.25535 0.35541 0.0
H1031 H 0.59164 0.28672 0.38176 0.0
H1032 H 0.60458 0.4885 0.41884 0.0
H1033 H 0.59645 0.42754 0.4023 0.0
C1034 C 0.66515 0.72768 0.41148 0.0
C1035 C 0.64559 0.70274 0.41719 0.0
C1036 C 0.65998 0.76191 0.40188 0.0
C1037 C 0.61013 0.83921 0.38836 0.0
H1038 H 0.652 0.84566 0.35712 0.0
C1039 C 0.58647 0.95957 0.34321 0.0
C1040 C 0.60642 0.98358 0.33755 0.0
C1041 C 0.59112 0.92452 0.35263 0.0
C1042 C 0.6403 0.84469 0.36585 0.0
H1043 H 0.6051 0.69525 0.4174 0.0
H1044 H 0.59608 0.75509 0.40054 0.0
H1045 H 0.65997 0.7868 0.3743 0.0
H1046 H 0.64701 0.98861 0.33724 0.0
H1047 H 0.65511 0.92762 0.35378 0.0
H1048 H 0.59054 0.89725 0.37995 0.0
C1049 C 0.61546 0.74814 0.4036 0.0
C1050 C 0.64485 0.81091 0.37571 0.0
C1051 C 0.62064 0.71372 0.41324 0.0
C1052 C 0.63118 0.97083 0.34134 0.0
C1053 C 0.63583 0.93572 0.35081 0.0
C1054 C 0.60559 0.87306 0.37851 0.0
C1055 C 0.63511 0.77228 0.3977 0.0
C1056 C 0.62988 0.80782 0.38711 0.0
C1057 C 0.61583 0.91247 0.35668 0.0
C1058 C 0.62064 0.87627 0.36713 0.0
H1059 H 0.68461 0.72058 0.41433 0.0
H1060 H 0.67554 0.78041 0.39775 0.0
H1061 H 0.59846 0.83822 0.3971 0.0
H1062 H 0.56713 0.9681 0.34049 0.0
H1063 H 0.57527 0.90679 0.35673 0.0
C1064 C 0.41555 0.27588 0.16123 0.0
C1065 C 0.39613 0.30067 0.16712 0.0
C1066 C 0.41016 0.24127 0.15178 0.0
C1067 C 0.36055 0.2004 0.12745 0.0
H1068 H 0.4007 0.08965 0.12769 0.0
C1069 C 0.33563 0.04404 0.09347 0.0
C1070 C 0.3554 0.0201 0.08762 0.0
C1071 C 0.34055 0.07904 0.10288 0.0
C1072 C 0.38952 0.12062 0.12737 0.0
H1073 H 0.35567 0.30761 0.16778 0.0
H1074 H 0.34625 0.24669 0.15133 0.0
H1075 H 0.4087 0.1476 0.14513 0.0
H1076 H 0.39596 0.01526 0.08691 0.0
H1077 H 0.40451 0.07668 0.10328 0.0
H1078 H 0.34134 0.17327 0.10968 0.0
C1079 C 0.3657 0.25463 0.15394 0.0
C1080 C 0.39406 0.15384 0.13739 0.0
C1081 C 0.37111 0.28936 0.16344 0.0
C1082 C 0.38026 0.03284 0.09121 0.0
C1083 C 0.38517 0.06783 0.10068 0.0
C1084 C 0.35599 0.16712 0.11742 0.0
C1085 C 0.38519 0.23032 0.14794 0.0
C1086 C 0.3797 0.19424 0.13754 0.0
C1087 C 0.36536 0.09105 0.10672 0.0
C1088 C 0.37046 0.12687 0.11724 0.0
H1089 H 0.43507 0.28351 0.16377 0.0
H1090 H 0.42565 0.22376 0.14725 0.0
H1091 H 0.3494 0.2314 0.12711 0.0
H1092 H 0.31623 0.0353 0.09097 0.0
H1093 H 0.32484 0.09586 0.10742 0.0
C1094 C 0.37088 0.53308 0.16499 0.0
C1095 C 0.39571 0.51998 0.1685 0.0
C1096 C 0.36601 0.56829 0.15559 0.0
C1097 C 0.39534 0.63048 0.12751 0.0
H1098 H 0.34167 0.71768 0.1324 0.0
C1099 C 0.37974 0.78982 0.09289 0.0
C1100 C 0.35472 0.80122 0.08921 0.0
C1101 C 0.38511 0.75544 0.10251 0.0
C1102 C 0.35657 0.69331 0.1308 0.0
H1103 H 0.43489 0.53491 0.1651 0.0
H1104 H 0.42638 0.59638 0.14896 0.0
H1105 H 0.35004 0.65869 0.14949 0.0
H1106 H 0.31576 0.78424 0.09258 0.0
H1107 H 0.32516 0.72445 0.10913 0.0
H1108 H 0.40185 0.66515 0.10882 0.0
C1109 C 0.41064 0.57886 0.15325 0.0
C1110 C 0.36136 0.65945 0.14061 0.0
C1111 C 0.41551 0.54372 0.16261 0.0
C1112 C 0.33528 0.77678 0.0952 0.0
C1113 C 0.34064 0.74258 0.10479 0.0
C1114 C 0.39057 0.66438 0.11771 0.0
C1115 C 0.38584 0.59127 0.14948 0.0
C1116 C 0.38078 0.62754 0.13909 0.0
C1117 C 0.36559 0.73175 0.10868 0.0
C1118 C 0.37106 0.69613 0.11921 0.0
H1119 H 0.35515 0.51553 0.16928 0.0
H1120 H 0.34666 0.57668 0.15284 0.0
H1121 H 0.41019 0.60602 0.12589 0.0
H1122 H 0.3952 0.8079 0.08851 0.0
H1123 H 0.40455 0.74814 0.10534 0.0
C1124 C 0.37144 0.78716 0.66375 0.0
C1125 C 0.39643 0.79875 0.66741 0.0
C1126 C 0.36612 0.75233 0.65427 0.0
C1127 C 0.39475 0.65183 0.6377 0.0
H1128 H 0.34185 0.67073 0.61006 0.0
C1129 C 0.38108 0.53084 0.59149 0.0
C1130 C 0.35625 0.51793 0.58791 0.0
C1131 C 0.38594 0.56578 0.60098 0.0
C1132 C 0.35654 0.66473 0.61778 0.0
H1133 H 0.43542 0.78198 0.66404 0.0
H1134 H 0.42614 0.72208 0.64754 0.0
H1135 H 0.34979 0.72892 0.62748 0.0
H1136 H 0.31706 0.53273 0.59134 0.0
H1137 H 0.32558 0.59318 0.60782 0.0
H1138 H 0.40155 0.58772 0.62798 0.0
C1139 C 0.4106 0.73943 0.65208 0.0
C1140 C 0.36105 0.69804 0.6278 0.0
C1141 C 0.41591 0.77413 0.66151 0.0
C1142 C 0.33644 0.54161 0.59382 0.0
C1143 C 0.3413 0.57656 0.60325 0.0
C1144 C 0.39027 0.61857 0.62768 0.0
C1145 C 0.38566 0.72821 0.64826 0.0
C1146 C 0.38026 0.69208 0.63787 0.0
C1147 C 0.3661 0.58878 0.60706 0.0
C1148 C 0.37114 0.62462 0.61758 0.0
H1149 H 0.35595 0.80526 0.66809 0.0
H1150 H 0.34668 0.74418 0.65169 0.0
H1151 H 0.40943 0.64574 0.64542 0.0
H1152 H 0.39681 0.51346 0.58715 0.0
H1153 H 0.40527 0.57478 0.60356 0.0
C1154 C 0.38061 0.28794 0.59295 0.0
C1155 C 0.35562 0.29889 0.58907 0.0
C1156 C 0.3859 0.2535 0.60256 0.0
C1157 C 0.35682 0.19056 0.63052 0.0
H1158 H 0.41119 0.10446 0.62613 0.0
C1159 C 0.37104 0.03071 0.66486 0.0
C1160 C 0.39585 0.01807 0.66859 0.0
C1161 C 0.36625 0.06579 0.65541 0.0
C1162 C 0.39612 0.12859 0.62761 0.0
H1163 H 0.31665 0.28095 0.59203 0.0
H1164 H 0.32591 0.22107 0.60856 0.0
H1165 H 0.40304 0.16347 0.609 0.0
H1166 H 0.43507 0.03372 0.66553 0.0
H1167 H 0.42669 0.09499 0.64931 0.0
H1168 H 0.34989 0.15577 0.64913 0.0
C1169 C 0.34142 0.23962 0.6044 0.0
C1170 C 0.39146 0.16242 0.61777 0.0
C1171 C 0.33614 0.27388 0.59482 0.0
C1172 C 0.4157 0.04216 0.66286 0.0
C1173 C 0.41092 0.07719 0.65346 0.0
C1174 C 0.36151 0.15679 0.64037 0.0
C1175 C 0.36633 0.22929 0.60851 0.0
C1176 C 0.37169 0.19373 0.61908 0.0
C1177 C 0.38615 0.08913 0.64947 0.0
C1178 C 0.38119 0.12531 0.63903 0.0
H1179 H 0.39609 0.30646 0.58875 0.0
H1180 H 0.40531 0.24658 0.60556 0.0
H1181 H 0.3417 0.21461 0.63197 0.0
H1182 H 0.35527 0.01287 0.66901 0.0
H1183 H 0.34693 0.0738 0.65249 0.0
loop_
_geom_bond_atom_site_label_1
_geom_bond_atom_site_label_2
_geom_bond_distance
_geom_bond_site_symmetry_2
_ccdc_geom_bond_type
Co0 O1 2.216 . S
Co0 O2 2.091 . S
Co0 O4 2.004 . S
Co0 O10 2.021 . S
Co0 O12 2.137 . S
Co0 O13 2.244 . S
O1 Co0 2.216 . S
O1 C8 1.247 . S
O2 Co0 2.091 . S
O2 C8 1.261 . S
C3 O12 1.247 . S
C3 O13 1.272 . S
O4 Co0 2.004 . S
O4 C9 1.259 . S
Co5 O6 2.061 . S
Co5 O11 2.052 . S
Co5 O13 2.135 . S
O6 Co5 2.061 . S
O6 C9 1.235 . S
C7 O10 1.238 . S
C7 O11 1.241 . S
C8 O1 1.247 . S
C8 O2 1.261 . S
C9 O4 1.259 . S
C9 O6 1.235 . S
O10 Co0 2.021 . S
O10 C7 1.238 . S
O11 Co5 2.052 . S
O11 C7 1.241 . S
O12 Co0 2.137 . S
O12 C3 1.247 . S
O13 Co0 2.244 . S
O13 C3 1.272 . S
O13 Co5 2.135 . S
Co14 O15 2.216 . S
Co14 O16 2.091 . S
Co14 O18 2.004 . S
Co14 O24 2.021 . S
Co14 O26 2.137 . S
Co14 O27 2.244 . S
O15 Co14 2.216 . S
O15 C22 1.247 . S
O16 Co14 2.091 . S
O16 C22 1.261 . S
C17 O26 1.247 . S
C17 O27 1.272 . S
O18 Co14 2.004 . S
O18 C23 1.259 . S
Co19 O20 2.061 . S
Co19 O25 2.052 . S
Co19 O27 2.135 . S
O20 Co19 2.061 . S
O20 C23 1.235 . S
C21 O24 1.238 . S
C21 O25 1.241 . S
C22 O15 1.247 . S
C22 O16 1.261 . S
C23 O18 1.259 . S
C23 O20 1.235 . S
O24 Co14 2.021 . S
O24 C21 1.238 . S
O25 Co19 2.052 . S
O25 C21 1.241 . S
O26 Co14 2.137 . S
O26 C17 1.247 . S
O27 Co14 2.244 . S
O27 C17 1.272 . S
O27 Co19 2.135 . S
Co28 O29 2.216 . S
Co28 O30 2.091 . S
Co28 O32 2.004 . S
Co28 O38 2.021 . S
Co28 O40 2.137 . S
Co28 O41 2.244 . S
O29 Co28 2.216 . S
O29 C36 1.247 . S
O30 Co28 2.091 . S
O30 C36 1.261 . S
C31 O40 1.247 . S
C31 O41 1.272 . S
O32 Co28 2.004 . S
O32 C37 1.259 . S
Co33 O34 2.061 . S
Co33 O39 2.052 . S
Co33 O41 2.135 . S
O34 Co33 2.061 . S
O34 C37 1.235 . S
C35 O38 1.238 . S
C35 O39 1.241 . S
C36 O29 1.247 . S
C36 O30 1.261 . S
C37 O32 1.259 . S
C37 O34 1.235 . S
O38 Co28 2.021 . S
O38 C35 1.238 . S
O39 Co33 2.052 . S
O39 C35 1.241 . S
O40 Co28 2.137 . S
O40 C31 1.247 . S
O41 Co28 2.244 . S
O41 C31 1.272 . S
O41 Co33 2.135 . S
Co42 O43 2.216 . S
Co42 O44 2.091 . S
Co42 O46 2.004 . S
Co42 O52 2.021 . S
Co42 O54 2.137 . S
Co42 O55 2.244 . S
O43 Co42 2.216 . S
O43 C50 1.247 . S
O44 Co42 2.091 . S
O44 C50 1.261 . S
C45 O54 1.247 . S
C45 O55 1.272 . S
O46 Co42 2.004 . S
O46 C51 1.259 . S
Co47 O48 2.061 . S
Co47 O53 2.052 . S
Co47 O55 2.135 . S
O48 Co47 2.061 . S
O48 C51 1.235 . S
C49 O52 1.238 . S
C49 O53 1.241 . S
C50 O43 1.247 . S
C50 O44 1.261 . S
C51 O46 1.259 . S
C51 O48 1.235 . S
O52 Co42 2.021 . S
O52 C49 1.238 . S
O53 Co47 2.052 . S
O53 C49 1.241 . S
O54 Co42 2.137 . S
O54 C45 1.247 . S
O55 Co42 2.244 . S
O55 C45 1.272 . S
O55 Co47 2.135 . S
Co56 O57 2.216 . S
Co56 O58 2.091 . S
Co56 O60 2.004 . S
Co56 O66 2.021 . S
Co56 O68 2.137 . S
Co56 O69 2.244 . S
O57 Co56 2.216 . S
O57 C64 1.247 . S
O58 Co56 2.091 . S
O58 C64 1.261 . S
C59 O68 1.247 . S
C59 O69 1.272 . S
O60 Co56 2.004 . S
O60 C65 1.259 . S
Co61 O62 2.061 . S
Co61 O67 2.052 . S
Co61 O69 2.135 . S
O62 Co61 2.061 . S
O62 C65 1.235 . S
C63 O66 1.238 . S
C63 O67 1.241 . S
C64 O57 1.247 . S
C64 O58 1.261 . S
C65 O60 1.259 . S
C65 O62 1.235 . S
O66 Co56 2.021 . S
O66 C63 1.238 . S
O67 Co61 2.052 . S
O67 C63 1.241 . S
O68 Co56 2.137 . S
O68 C59 1.247 . S
O69 Co56 2.244 . S
O69 C59 1.272 . S
O69 Co61 2.135 . S
Co70 O71 2.216 . S
Co70 O72 2.091 . S
Co70 O74 2.004 . S
Co70 O80 2.021 . S
Co70 O82 2.137 . S
Co70 O83 2.244 . S
O71 Co70 2.216 . S
O71 C78 1.247 . S
O72 Co70 2.091 . S
O72 C78 1.261 . S
C73 O82 1.247 . S
C73 O83 1.272 . S
O74 Co70 2.004 . S
O74 C79 1.259 . S
Co75 O76 2.061 . S
Co75 O81 2.052 . S
Co75 O83 2.135 . S
O76 Co75 2.061 . S
O76 C79 1.235 . S
C77 O80 1.238 . S
C77 O81 1.241 . S
C78 O71 1.247 . S
C78 O72 1.261 . S
C79 O74 1.259 . S
C79 O76 1.235 . S
O80 Co70 2.021 . S
O80 C77 1.238 . S
O81 Co75 2.052 . S
O81 C77 1.241 . S
O82 Co70 2.137 . S
O82 C73 1.247 . S
O83 Co70 2.244 . S
O83 C73 1.272 . S
O83 Co75 2.135 . S
Co84 O85 2.216 . S
Co84 O86 2.091 . S
Co84 O88 2.004 . S
Co84 O94 2.021 . S
Co84 O96 2.137 . S
Co84 O97 2.244 . S
O85 Co84 2.216 . S
O85 C92 1.247 . S
O86 Co84 2.091 . S
O86 C92 1.261 . S
C87 O96 1.247 . S
C87 O97 1.272 . S
O88 Co84 2.004 . S
O88 C93 1.259 . S
Co89 O90 2.061 . S
Co89 O95 2.052 . S
Co89 O97 2.135 . S
O90 Co89 2.061 . S
O90 C93 1.235 . S
C91 O94 1.238 . S
C91 O95 1.241 . S
C92 O85 1.247 . S
C92 O86 1.261 . S
C93 O88 1.259 . S
C93 O90 1.235 . S
O94 Co84 2.021 . S
O94 C91 1.238 . S
O95 Co89 2.052 . S
O95 C91 1.241 . S
O96 Co84 2.137 . S
O96 C87 1.247 . S
O97 Co84 2.244 . S
O97 C87 1.272 . S
O97 Co89 2.135 . S
Co98 O99 2.216 . S
Co98 O100 2.091 . S
Co98 O102 2.004 . S
Co98 O108 2.021 . S
Co98 O110 2.137 . S
Co98 O111 2.244 . S
O99 Co98 2.216 . S
O99 C106 1.247 . S
O100 Co98 2.091 . S
O100 C106 1.261 . S
C101 O110 1.247 . S
C101 O111 1.272 . S
O102 Co98 2.004 . S
O102 C107 1.259 . S
Co103 O104 2.061 . S
Co103 O109 2.052 . S
Co103 O111 2.135 . S
O104 Co103 2.061 . S
O104 C107 1.235 . S
C105 O108 1.238 . S
C105 O109 1.241 . S
C106 O99 1.247 . S
C106 O100 1.261 . S
C107 O102 1.259 . S
C107 O104 1.235 . S
O108 Co98 2.021 . S
O108 C105 1.238 . S
O109 Co103 2.052 . S
O109 C105 1.241 . S
O110 Co98 2.137 . S
O110 C101 1.247 . S
O111 Co98 2.244 . S
O111 C101 1.272 . S
O111 Co103 2.135 . S
Co112 O113 2.216 . S
Co112 O114 2.091 . S
Co112 O116 2.004 . S
Co112 O122 2.021 . S
Co112 O124 2.137 . S
Co112 O125 2.244 . S
O113 Co112 2.216 . S
O113 C120 1.247 . S
O114 Co112 2.091 . S
O114 C120 1.261 . S
C115 O124 1.247 . S
C115 O125 1.272 . S
O116 Co112 2.004 . S
O116 C121 1.259 . S
Co117 O118 2.061 . S
Co117 O123 2.052 . S
Co117 O125 2.135 . S
O118 Co117 2.061 . S
O118 C121 1.235 . S
C119 O122 1.238 . S
C119 O123 1.241 . S
C120 O113 1.247 . S
C120 O114 1.261 . S
C121 O116 1.259 . S
C121 O118 1.235 . S
O122 Co112 2.021 . S
O122 C119 1.238 . S
O123 Co117 2.052 . S
O123 C119 1.241 . S
O124 Co112 2.137 . S
O124 C115 1.247 . S
O125 Co112 2.244 . S
O125 C115 1.272 . S
O125 Co117 2.135 . S
Co126 O127 2.216 . S
Co126 O128 2.091 . S
Co126 O130 2.004 . S
Co126 O136 2.021 . S
Co126 O138 2.137 . S
Co126 O139 2.244 . S
O127 Co126 2.216 . S
O127 C134 1.247 . S
O128 Co126 2.091 . S
O128 C134 1.261 . S
C129 O138 1.247 . S
C129 O139 1.272 . S
O130 Co126 2.004 . S
O130 C135 1.259 . S
Co131 O132 2.061 . S
Co131 O137 2.052 . S
Co131 O139 2.135 . S
O132 Co131 2.061 . S
O132 C135 1.235 . S
C133 O136 1.238 . S
C133 O137 1.241 . S
C134 O127 1.247 . S
C134 O128 1.261 . S
C135 O130 1.259 . S
C135 O132 1.235 . S
O136 Co126 2.021 . S
O136 C133 1.238 . S
O137 Co131 2.052 . S
O137 C133 1.241 . S
O138 Co126 2.137 . S
O138 C129 1.247 . S
O139 Co126 2.244 . S
O139 C129 1.272 . S
O139 Co131 2.135 . S
Co140 O141 2.216 . S
Co140 O142 2.091 . S
Co140 O144 2.004 . S
Co140 O150 2.021 . S
Co140 O152 2.137 . S
Co140 O153 2.244 . S
O141 Co140 2.216 . S
O141 C148 1.247 . S
O142 Co140 2.091 . S
O142 C148 1.261 . S
C143 O152 1.247 . S
C143 O153 1.272 . S
O144 Co140 2.004 . S
O144 C149 1.259 . S
Co145 O146 2.061 . S
Co145 O151 2.052 . S
Co145 O153 2.135 . S
O146 Co145 2.061 . S
O146 C149 1.235 . S
C147 O150 1.238 . S
C147 O151 1.241 . S
C148 O141 1.247 . S
C148 O142 1.261 . S
C149 O144 1.259 . S
C149 O146 1.235 . S
O150 Co140 2.021 . S
O150 C147 1.238 . S
O151 Co145 2.052 . S
O151 C147 1.241 . S
O152 Co140 2.137 . S
O152 C143 1.247 . S
O153 Co140 2.244 . S
O153 C143 1.272 . S
O153 Co145 2.135 . S
Co154 O155 2.216 . S
Co154 O156 2.091 . S
Co154 O158 2.004 . S
Co154 O164 2.021 . S
Co154 O166 2.137 . S
Co154 O167 2.244 . S
O155 Co154 2.216 . S
O155 C162 1.247 . S
O156 Co154 2.091 . S
O156 C162 1.261 . S
C157 O166 1.247 . S
C157 O167 1.272 . S
O158 Co154 2.004 . S
O158 C163 1.259 . S
Co159 O160 2.061 . S
Co159 O165 2.052 . S
Co159 O167 2.135 . S
O160 Co159 2.061 . S
O160 C163 1.235 . S
C161 O164 1.238 . S
C161 O165 1.241 . S
C162 O155 1.247 . S
C162 O156 1.261 . S
C163 O158 1.259 . S
C163 O160 1.235 . S
O164 Co154 2.021 . S
O164 C161 1.238 . S
O165 Co159 2.052 . S
O165 C161 1.241 . S
O166 Co154 2.137 . S
O166 C157 1.247 . S
O167 Co154 2.244 . S
O167 C157 1.272 . S
O167 Co159 2.135 . S
Co168 O169 2.216 . S
Co168 O170 2.091 . S
Co168 O172 2.004 . S
Co168 O178 2.021 . S
Co168 O180 2.137 . S
Co168 O181 2.244 . S
O169 Co168 2.216 . S
O169 C176 1.247 . S
O170 Co168 2.091 . S
O170 C176 1.261 . S
C171 O180 1.247 . S
C171 O181 1.272 . S
O172 Co168 2.004 . S
O172 C177 1.259 . S
Co173 O174 2.061 . S
Co173 O179 2.052 . S
Co173 O181 2.135 . S
O174 Co173 2.061 . S
O174 C177 1.235 . S
C175 O178 1.238 . S
C175 O179 1.241 . S
C176 O169 1.247 . S
C176 O170 1.261 . S
C177 O172 1.259 . S
C177 O174 1.235 . S
O178 Co168 2.021 . S
O178 C175 1.238 . S
O179 Co173 2.052 . S
O179 C175 1.241 . S
O180 Co168 2.137 . S
O180 C171 1.247 . S
O181 Co168 2.244 . S
O181 C171 1.272 . S
O181 Co173 2.135 . S
Co182 O183 2.216 . S
Co182 O184 2.091 . S
Co182 O186 2.004 . S
Co182 O192 2.021 . S
Co182 O194 2.137 . S
Co182 O195 2.244 . S
O183 Co182 2.216 . S
O183 C190 1.247 . S
O184 Co182 2.091 . S
O184 C190 1.261 . S
C185 O194 1.247 . S
C185 O195 1.272 . S
O186 Co182 2.004 . S
O186 C191 1.259 . S
Co187 O188 2.061 . S
Co187 O193 2.052 . S
Co187 O195 2.135 . S
O188 Co187 2.061 . S
O188 C191 1.235 . S
C189 O192 1.238 . S
C189 O193 1.241 . S
C190 O183 1.247 . S
C190 O184 1.261 . S
C191 O186 1.259 . S
C191 O188 1.235 . S
O192 Co182 2.021 . S
O192 C189 1.238 . S
O193 Co187 2.052 . S
O193 C189 1.241 . S
O194 Co182 2.137 . S
O194 C185 1.247 . S
O195 Co182 2.244 . S
O195 C185 1.272 . S
O195 Co187 2.135 . S
Co196 O197 2.216 . S
Co196 O198 2.091 . S
Co196 O200 2.004 . S
Co196 O206 2.021 . S
Co196 O208 2.137 . S
Co196 O209 2.244 . S
O197 Co196 2.216 . S
O197 C204 1.247 . S
O198 Co196 2.091 . S
O198 C204 1.261 . S
C199 O208 1.247 . S
C199 O209 1.272 . S
O200 Co196 2.004 . S
O200 C205 1.259 . S
Co201 O202 2.061 . S
Co201 O207 2.052 . S
Co201 O209 2.135 . S
O202 Co201 2.061 . S
O202 C205 1.235 . S
C203 O206 1.238 . S
C203 O207 1.241 . S
C204 O197 1.247 . S
C204 O198 1.261 . S
C205 O200 1.259 . S
C205 O202 1.235 . S
O206 Co196 2.021 . S
O206 C203 1.238 . S
O207 Co201 2.052 . S
O207 C203 1.241 . S
O208 Co196 2.137 . S
O208 C199 1.247 . S
O209 Co196 2.244 . S
O209 C199 1.272 . S
O209 Co201 2.135 . S
Co210 O211 2.216 . S
Co210 O212 2.091 . S
Co210 O214 2.004 . S
Co210 O220 2.021 . S
Co210 O222 2.137 . S
Co210 O223 2.244 . S
O211 Co210 2.216 . S
O211 C218 1.247 . S
O212 Co210 2.091 . S
O212 C218 1.261 . S
C213 O222 1.247 . S
C213 O223 1.272 . S
O214 Co210 2.004 . S
O214 C219 1.259 . S
Co215 O216 2.061 . S
Co215 O221 2.052 . S
Co215 O223 2.135 . S
O216 Co215 2.061 . S
O216 C219 1.235 . S
C217 O220 1.238 . S
C217 O221 1.241 . S
C218 O211 1.247 . S
C218 O212 1.261 . S
C219 O214 1.259 . S
C219 O216 1.235 . S
O220 Co210 2.021 . S
O220 C217 1.238 . S
O221 Co215 2.052 . S
O221 C217 1.241 . S
O222 Co210 2.137 . S
O222 C213 1.247 . S
O223 Co210 2.244 . S
O223 C213 1.272 . S
O223 Co215 2.135 . S
C224 C225 1.349 . S
C224 C226 1.327 . S
C224 H249 0.950 . S
C225 C224 1.349 . S
C225 C241 1.349 . S
C226 C224 1.327 . S
C226 C245 1.429 . S
C226 H250 0.950 . S
C227 C244 1.574 . S
C227 C246 1.368 . S
C227 H251 0.949 . S
H228 C232 0.949 . S
C229 C230 1.349 . S
C229 C231 1.327 . S
C229 H252 0.950 . S
C230 C229 1.349 . S
C230 C242 1.349 . S
C231 C229 1.327 . S
C231 C247 1.429 . S
C231 H253 0.950 . S
C232 H228 0.949 . S
C232 C240 1.574 . S
C232 C248 1.368 . S
H233 C241 0.950 . S
H234 C239 0.950 . S
H235 C240 0.949 . S
H236 C242 0.950 . S
H237 C243 0.950 . S
H238 C244 0.949 . S
C239 H234 0.950 . S
C239 C241 1.327 . S
C239 C245 1.429 . S
C240 C232 1.574 . S
C240 H235 0.949 . S
C240 C246 1.368 . S
C241 C225 1.349 . S
C241 H233 0.950 . S
C241 C239 1.327 . S
C242 C230 1.349 . S
C242 H236 0.950 . S
C242 C243 1.327 . S
C243 H237 0.950 . S
C243 C242 1.327 . S
C243 C247 1.429 . S
C244 C227 1.574 . S
C244 H238 0.949 . S
C244 C248 1.368 . S
C245 C226 1.429 . S
C245 C239 1.429 . S
C245 C246 1.523 . S
C246 C227 1.368 . S
C246 C240 1.368 . S
C246 C245 1.523 . S
C247 C231 1.429 . S
C247 C243 1.429 . S
C247 C248 1.523 . S
C248 C232 1.368 . S
C248 C244 1.368 . S
C248 C247 1.523 . S
H249 C224 0.950 . S
H250 C226 0.950 . S
H251 C227 0.949 . S
H252 C229 0.950 . S
H253 C231 0.950 . S
C254 C255 1.349 . S
C254 C256 1.327 . S
C254 H279 0.950 . S
C255 C254 1.349 . S
C255 C271 1.349 . S
C256 C254 1.327 . S
C256 C275 1.429 . S
C256 H280 0.950 . S
C257 C274 1.587 . S
C257 C276 1.356 1_445 S
C257 H281 0.949 . S
H258 C262 0.949 . S
C259 C260 1.349 . S
C259 C261 1.327 . S
C259 H282 0.950 . S
C260 C259 1.349 . S
C260 C272 1.349 . S
C261 C259 1.327 . S
C261 C277 1.429 . S
C261 H283 0.950 . S
C262 H258 0.949 . S
C262 C270 1.587 . S
C262 C278 1.356 1_665 S
H263 C271 0.950 . S
H264 C269 0.950 . S
H265 C270 0.949 . S
H266 C272 0.950 . S
H267 C273 0.950 . S
H268 C274 0.949 . S
C269 H264 0.950 . S
C269 C271 1.327 . S
C269 C275 1.429 . S
C270 C262 1.587 . S
C270 H265 0.949 . S
C270 C276 1.368 . S
C271 C255 1.349 . S
C271 H263 0.950 . S
C271 C269 1.327 . S
C272 C260 1.349 . S
C272 H266 0.950 . S
C272 C273 1.327 . S
C273 H267 0.950 . S
C273 C272 1.327 . S
C273 C277 1.429 . S
C274 C257 1.587 . S
C274 H268 0.949 . S
C274 C278 1.368 . S
C275 C256 1.429 . S
C275 C269 1.429 . S
C275 C276 1.523 . S
C276 C257 1.356 1_665 S
C276 C270 1.368 . S
C276 C275 1.523 . S
C277 C261 1.429 . S
C277 C273 1.429 . S
C277 C278 1.523 . S
C278 C262 1.356 1_445 S
C278 C274 1.368 . S
C278 C277 1.523 . S
H279 C254 0.950 . S
H280 C256 0.950 . S
H281 C257 0.949 . S
H282 C259 0.950 . S
H283 C261 0.950 . S
C284 C285 1.349 . S
C284 C286 1.327 . S
C284 H309 0.950 . S
C285 C284 1.349 . S
C285 C301 1.349 . S
C286 C284 1.327 . S
C286 C305 1.429 . S
C286 H310 0.950 1_565 S
C287 C304 1.574 . S
C287 C306 1.368 . S
C287 H311 0.949 . S
H288 C292 0.949 . S
C289 C290 1.349 . S
C289 C291 1.327 . S
C289 H312 0.950 . S
C290 C289 1.349 . S
C290 C302 1.349 . S
C291 C289 1.327 . S
C291 C307 1.429 . S
C291 H313 0.950 1_545 S
C292 H288 0.949 . S
C292 C300 1.574 . S
C292 C308 1.368 . S
H293 C301 0.950 . S
H294 C299 0.950 . S
H295 C300 0.949 . S
H296 C302 0.950 . S
H297 C303 0.950 . S
H298 C304 0.949 . S
C299 H294 0.950 . S
C299 C301 1.327 . S
C299 C305 1.429 . S
C300 C292 1.574 . S
C300 H295 0.949 . S
C300 C306 1.368 1_545 S
C301 C285 1.349 . S
C301 H293 0.950 . S
C301 C299 1.327 . S
C302 C290 1.349 . S
C302 H296 0.950 . S
C302 C303 1.327 . S
C303 H297 0.950 . S
C303 C302 1.327 . S
C303 C307 1.429 . S
C304 C287 1.574 . S
C304 H298 0.949 . S
C304 C308 1.368 1_565 S
C305 C286 1.429 . S
C305 C299 1.429 . S
C305 C306 1.523 . S
C306 C287 1.368 . S
C306 C300 1.368 1_565 S
C306 C305 1.523 . S
C307 C291 1.429 . S
C307 C303 1.429 . S
C307 C308 1.523 . S
C308 C292 1.368 . S
C308 C304 1.368 1_545 S
C308 C307 1.523 . S
H309 C284 0.950 . S
H310 C286 0.950 1_545 S
H311 C287 0.949 . S
H312 C289 0.950 . S
H313 C291 0.950 1_565 S
C314 C315 1.349 . S
C314 C316 1.327 . S
C314 H339 0.950 . S
C315 C314 1.349 . S
C315 C331 1.349 . S
C316 C314 1.327 . S
C316 C335 1.429 . S
C316 H340 0.950 . S
C317 C334 1.574 . S
C317 C336 1.368 . S
C317 H341 0.949 . S
H318 C322 0.949 . S
C319 C320 1.349 . S
C319 C321 1.327 . S
C319 H342 0.950 . S
C320 C319 1.349 . S
C320 C332 1.349 . S
C321 C319 1.327 . S
C321 C337 1.429 . S
C321 H343 0.950 . S
C322 H318 0.949 . S
C322 C330 1.574 . S
C322 C338 1.368 . S
H323 C331 0.950 . S
H324 C329 0.950 . S
H325 C330 0.949 . S
H326 C332 0.950 . S
H327 C333 0.950 . S
H328 C334 0.949 . S
C329 H324 0.950 . S
C329 C331 1.327 . S
C329 C335 1.429 . S
C330 C322 1.574 . S
C330 H325 0.949 . S
C330 C336 1.368 1_655 S
C331 C315 1.349 . S
C331 H323 0.950 . S
C331 C329 1.327 . S
C332 C320 1.349 . S
C332 H326 0.950 . S
C332 C333 1.327 . S
C333 H327 0.950 . S
C333 C332 1.327 . S
C333 C337 1.429 . S
C334 C317 1.574 . S
C334 H328 0.949 . S
C334 C338 1.368 1_455 S
C335 C316 1.429 . S
C335 C329 1.429 . S
C335 C336 1.523 . S
C336 C317 1.368 . S
C336 C330 1.368 1_455 S
C336 C335 1.523 . S
C337 C321 1.429 . S
C337 C333 1.429 . S
C337 C338 1.523 . S
C338 C322 1.368 . S
C338 C334 1.368 1_655 S
C338 C337 1.523 . S
H339 C314 0.950 . S
H340 C316 0.950 . S
H341 C317 0.949 . S
H342 C319 0.950 . S
H343 C321 0.950 . S
C344 C345 1.349 . S
C344 C346 1.327 . S
C344 H369 0.950 . S
C345 C344 1.349 . S
C345 C361 1.349 . S
C346 C344 1.327 . S
C346 C365 1.429 . S
C346 H370 0.950 . S
C347 C364 1.574 . S
C347 C366 1.368 . S
C347 H371 0.949 . S
H348 C352 0.949 . S
C349 C350 1.349 . S
C349 C351 1.327 . S
C349 H372 0.950 . S
C350 C349 1.349 . S
C350 C362 1.349 . S
C351 C349 1.327 . S
C351 C367 1.429 . S
C351 H373 0.950 . S
C352 H348 0.949 . S
C352 C360 1.574 . S
C352 C368 1.368 . S
H353 C361 0.950 . S
H354 C359 0.950 . S
H355 C360 0.949 . S
H356 C362 0.950 . S
H357 C363 0.950 . S
H358 C364 0.949 . S
C359 H354 0.950 . S
C359 C361 1.327 . S
C359 C365 1.429 . S
C360 C352 1.574 . S
C360 H355 0.949 . S
C360 C366 1.368 . S
C361 C345 1.349 . S
C361 H353 0.950 . S
C361 C359 1.327 . S
C362 C350 1.349 . S
C362 H356 0.950 . S
C362 C363 1.327 . S
C363 H357 0.950 . S
C363 C362 1.327 . S
C363 C367 1.429 . S
C364 C347 1.574 . S
C364 H358 0.949 . S
C364 C368 1.368 . S
C365 C346 1.429 . S
C365 C359 1.429 . S
C365 C366 1.523 . S
C366 C347 1.368 . S
C366 C360 1.368 . S
C366 C365 1.523 . S
C367 C351 1.429 . S
C367 C363 1.429 . S
C367 C368 1.523 . S
C368 C352 1.368 . S
C368 C364 1.368 . S
C368 C367 1.523 . S
H369 C344 0.950 . S
H370 C346 0.950 . S
H371 C347 0.949 . S
H372 C349 0.950 . S
H373 C351 0.950 . S
C374 C375 1.349 . S
C374 C376 1.327 . S
C374 H399 0.950 . S
C375 C374 1.349 . S
C375 C391 1.349 . S
C376 C374 1.327 . S
C376 C395 1.429 . S
C376 H400 0.950 1_545 S
C377 C394 1.574 . S
C377 C396 1.368 . S
C377 H401 0.949 . S
H378 C382 0.949 . S
C379 C380 1.349 . S
C379 C381 1.327 . S
C379 H402 0.950 . S
C380 C379 1.349 . S
C380 C392 1.349 . S
C381 C379 1.327 . S
C381 C397 1.429 . S
C381 H403 0.950 1_565 S
C382 H378 0.949 . S
C382 C390 1.574 . S
C382 C398 1.368 . S
H383 C391 0.950 . S
H384 C389 0.950 . S
H385 C390 0.949 . S
H386 C392 0.950 . S
H387 C393 0.950 . S
H388 C394 0.949 . S
C389 H384 0.950 . S
C389 C391 1.327 . S
C389 C395 1.429 . S
C390 C382 1.574 . S
C390 H385 0.949 . S
C390 C396 1.368 1_565 S
C391 C375 1.349 . S
C391 H383 0.950 . S
C391 C389 1.327 . S
C392 C380 1.349 . S
C392 H386 0.950 . S
C392 C393 1.327 . S
C393 H387 0.950 . S
C393 C392 1.327 . S
C393 C397 1.429 . S
C394 C377 1.574 . S
C394 H388 0.949 . S
C394 C398 1.368 1_545 S
C395 C376 1.429 . S
C395 C389 1.429 . S
C395 C396 1.523 . S
C396 C377 1.368 . S
C396 C390 1.368 1_545 S
C396 C395 1.523 . S
C397 C381 1.429 . S
C397 C393 1.429 . S
C397 C398 1.523 . S
C398 C382 1.368 . S
C398 C394 1.368 1_565 S
C398 C397 1.523 . S
H399 C374 0.950 . S
H400 C376 0.950 1_565 S
H401 C377 0.949 . S
H402 C379 0.950 . S
H403 C381 0.950 1_545 S
C404 C405 1.349 . S
C404 C406 1.327 . S
C404 H429 0.950 . S
C405 C404 1.349 . S
C405 C421 1.349 . S
C406 C404 1.327 . S
C406 C425 1.429 . S
C406 H430 0.950 . S
C407 C424 1.574 1_655 S
C407 C426 1.368 . S
C407 H431 0.949 . S
H408 C412 0.949 . S
C409 C410 1.349 . S
C409 C411 1.327 . S
C409 H432 0.950 . S
C410 C409 1.349 . S
C410 C422 1.349 . S
C411 C409 1.327 . S
C411 C427 1.429 . S
C411 H433 0.950 . S
C412 H408 0.949 . S
C412 C420 1.574 1_455 S
C412 C428 1.368 . S
H413 C421 0.950 . S
H414 C419 0.950 . S
H415 C420 0.949 . S
H416 C422 0.950 . S
H417 C423 0.950 . S
H418 C424 0.949 . S
C419 H414 0.950 . S
C419 C421 1.327 . S
C419 C425 1.429 . S
C420 C412 1.574 1_655 S
C420 H415 0.949 . S
C420 C426 1.368 . S
C421 C405 1.349 . S
C421 H413 0.950 . S
C421 C419 1.327 . S
C422 C410 1.349 . S
C422 H416 0.950 . S
C422 C423 1.327 . S
C423 H417 0.950 . S
C423 C422 1.327 . S
C423 C427 1.429 . S
C424 C407 1.574 1_455 S
C424 H418 0.949 . S
C424 C428 1.368 . S
C425 C406 1.429 . S
C425 C419 1.429 . S
C425 C426 1.523 . S
C426 C407 1.368 . S
C426 C420 1.368 . S
C426 C425 1.523 . S
C427 C411 1.429 . S
C427 C423 1.429 . S
C427 C428 1.523 . S
C428 C412 1.368 . S
C428 C424 1.368 . S
C428 C427 1.523 . S
H429 C404 0.950 . S
H430 C406 0.950 . S
H431 C407 0.949 . S
H432 C409 0.950 . S
H433 C411 0.950 . S
C434 C435 1.349 . S
C434 C436 1.327 . S
C434 H459 0.950 . S
C435 C434 1.349 . S
C435 C451 1.349 . S
C436 C434 1.327 . S
C436 C455 1.429 . S
C436 H460 0.950 . S
C437 C454 1.574 . S
C437 C456 1.368 . S
C437 H461 0.949 . S
H438 C442 0.949 . S
C439 C440 1.349 . S
C439 C441 1.327 . S
C439 H462 0.950 . S
C440 C439 1.349 . S
C440 C452 1.349 . S
C441 C439 1.327 . S
C441 C457 1.429 . S
C441 H463 0.950 . S
C442 H438 0.949 . S
C442 C450 1.574 . S
C442 C458 1.368 . S
H443 C451 0.950 . S
H444 C449 0.950 . S
H445 C450 0.949 . S
H446 C452 0.950 . S
H447 C453 0.950 . S
H448 C454 0.949 . S
C449 H444 0.950 . S
C449 C451 1.327 . S
C449 C455 1.429 . S
C450 C442 1.574 . S
C450 H445 0.949 . S
C450 C456 1.368 1_556 S
C451 C435 1.349 . S
C451 H443 0.950 . S
C451 C449 1.327 . S
C452 C440 1.349 . S
C452 H446 0.950 . S
C452 C453 1.327 . S
C453 H447 0.950 . S
C453 C452 1.327 . S
C453 C457 1.429 . S
C454 C437 1.574 . S
C454 H448 0.949 . S
C454 C458 1.368 1_554 S
C455 C436 1.429 . S
C455 C449 1.429 . S
C455 C456 1.523 . S
C456 C437 1.368 . S
C456 C450 1.368 1_554 S
C456 C455 1.523 . S
C457 C441 1.429 . S
C457 C453 1.429 . S
C457 C458 1.523 . S
C458 C442 1.368 . S
C458 C454 1.368 1_556 S
C458 C457 1.523 . S
H459 C434 0.950 . S
H460 C436 0.950 . S
H461 C437 0.949 . S
H462 C439 0.950 . S
H463 C441 0.950 . S
C464 C465 1.349 . S
C464 C466 1.327 . S
C464 H489 0.950 . S
C465 C464 1.349 . S
C465 C481 1.349 . S
C466 C464 1.327 . S
C466 C485 1.429 . S
C466 H490 0.950 . S
C467 C484 1.574 1_455 S
C467 C486 1.368 1_554 S
C467 H491 0.949 . S
H468 C472 0.949 . S
C469 C470 1.349 . S
C469 C471 1.327 . S
C469 H492 0.950 . S
C470 C469 1.349 . S
C470 C482 1.349 . S
C471 C469 1.327 . S
C471 C487 1.429 . S
C471 H493 0.950 . S
C472 H468 0.949 . S
C472 C480 1.574 1_655 S
C472 C488 1.368 1_556 S
H473 C481 0.950 . S
H474 C479 0.950 . S
H475 C480 0.949 . S
H476 C482 0.950 . S
H477 C483 0.950 . S
H478 C484 0.949 . S
C479 H474 0.950 . S
C479 C481 1.327 . S
C479 C485 1.429 . S
C480 C472 1.574 1_455 S
C480 H475 0.949 . S
C480 C486 1.368 . S
C481 C465 1.349 . S
C481 H473 0.950 . S
C481 C479 1.327 . S
C482 C470 1.349 . S
C482 H476 0.950 . S
C482 C483 1.327 . S
C483 H477 0.950 . S
C483 C482 1.327 . S
C483 C487 1.429 . S
C484 C467 1.574 1_655 S
C484 H478 0.949 . S
C484 C488 1.368 . S
C485 C466 1.429 . S
C485 C479 1.429 . S
C485 C486 1.523 . S
C486 C467 1.368 1_556 S
C486 C480 1.368 . S
C486 C485 1.523 . S
C487 C471 1.429 . S
C487 C483 1.429 . S
C487 C488 1.523 . S
C488 C472 1.368 1_554 S
C488 C484 1.368 . S
C488 C487 1.523 . S
H489 C464 0.950 . S
H490 C466 0.950 . S
H491 C467 0.949 . S
H492 C469 0.950 . S
H493 C471 0.950 . S
C494 C495 1.349 . S
C494 C496 1.327 . S
C494 H519 0.950 . S
C495 C494 1.349 . S
C495 C511 1.349 . S
C496 C494 1.327 . S
C496 C515 1.429 . S
C496 H520 0.950 . S
C497 C514 1.574 . S
C497 C516 1.368 . S
C497 H521 0.949 . S
H498 C502 0.949 . S
C499 C500 1.349 . S
C499 C501 1.327 . S
C499 H522 0.950 . S
C500 C499 1.349 . S
C500 C512 1.349 . S
C501 C499 1.327 . S
C501 C517 1.429 . S
C501 H523 0.950 . S
C502 H498 0.949 . S
C502 C510 1.574 . S
C502 C518 1.368 . S
H503 C511 0.950 . S
H504 C509 0.950 . S
H505 C510 0.949 . S
H506 C512 0.950 . S
H507 C513 0.950 . S
H508 C514 0.949 . S
C509 H504 0.950 . S
C509 C511 1.327 . S
C509 C515 1.429 . S
C510 C502 1.574 . S
C510 H505 0.949 . S
C510 C516 1.368 . S
C511 C495 1.349 . S
C511 H503 0.950 . S
C511 C509 1.327 . S
C512 C500 1.349 . S
C512 H506 0.950 . S
C512 C513 1.327 . S
C513 H507 0.950 . S
C513 C512 1.327 . S
C513 C517 1.429 . S
C514 C497 1.574 . S
C514 H508 0.949 . S
C514 C518 1.368 . S
C515 C496 1.429 . S
C515 C509 1.429 . S
C515 C516 1.523 . S
C516 C497 1.368 . S
C516 C510 1.368 . S
C516 C515 1.523 . S
C517 C501 1.429 . S
C517 C513 1.429 . S
C517 C518 1.523 . S
C518 C502 1.368 . S
C518 C514 1.368 . S
C518 C517 1.523 . S
H519 C494 0.950 . S
H520 C496 0.950 . S
H521 C497 0.949 . S
H522 C499 0.950 . S
H523 C501 0.950 . S
C524 C525 1.349 . S
C524 C526 1.327 . S
C524 H549 0.950 . S
C525 C524 1.349 . S
C525 C541 1.349 . S
C526 C524 1.327 . S
C526 C545 1.429 . S
C526 H550 0.950 . S
C527 C544 1.574 1_556 S
C527 C546 1.368 . S
C527 H551 0.949 . S
H528 C532 0.949 . S
C529 C530 1.349 . S
C529 C531 1.327 . S
C529 H552 0.950 . S
C530 C529 1.349 . S
C530 C542 1.349 . S
C531 C529 1.327 . S
C531 C547 1.429 . S
C531 H553 0.950 . S
C532 H528 0.949 . S
C532 C540 1.574 1_554 S
C532 C548 1.368 . S
H533 C541 0.950 . S
H534 C539 0.950 . S
H535 C540 0.949 . S
H536 C542 0.950 . S
H537 C543 0.950 . S
H538 C544 0.949 . S
C539 H534 0.950 . S
C539 C541 1.327 . S
C539 C545 1.429 . S
C540 C532 1.574 1_556 S
C540 H535 0.949 . S
C540 C546 1.368 . S
C541 C525 1.349 . S
C541 H533 0.950 . S
C541 C539 1.327 . S
C542 C530 1.349 . S
C542 H536 0.950 . S
C542 C543 1.327 . S
C543 H537 0.950 . S
C543 C542 1.327 . S
C543 C547 1.429 . S
C544 C527 1.574 1_554 S
C544 H538 0.949 . S
C544 C548 1.368 . S
C545 C526 1.429 . S
C545 C539 1.429 . S
C545 C546 1.523 . S
C546 C527 1.368 . S
C546 C540 1.368 . S
C546 C545 1.523 . S
C547 C531 1.429 . S
C547 C543 1.429 . S
C547 C548 1.523 . S
C548 C532 1.368 . S
C548 C544 1.368 . S
C548 C547 1.523 . S
H549 C524 0.950 . S
H550 C526 0.950 . S
H551 C527 0.949 . S
H552 C529 0.950 . S
H553 C531 0.950 . S
C554 C555 1.349 . S
C554 C556 1.327 . S
C554 H579 0.950 . S
C555 C554 1.349 . S
C555 C571 1.349 . S
C556 C554 1.327 . S
C556 C575 1.429 . S
C556 H580 0.950 . S
C557 C574 1.574 . S
C557 C576 1.368 . S
C557 H581 0.949 . S
H558 C562 0.949 . S
C559 C560 1.349 . S
C559 C561 1.327 . S
C559 H582 0.950 . S
C560 C559 1.349 . S
C560 C572 1.349 . S
C561 C559 1.327 . S
C561 C577 1.429 . S
C561 H583 0.950 . S
C562 H558 0.949 . S
C562 C570 1.574 . S
C562 C578 1.368 . S
H563 C571 0.950 . S
H564 C569 0.950 . S
H565 C570 0.949 . S
H566 C572 0.950 . S
H567 C573 0.950 . S
H568 C574 0.949 . S
C569 H564 0.950 . S
C569 C571 1.327 . S
C569 C575 1.429 . S
C570 C562 1.574 . S
C570 H565 0.949 . S
C570 C576 1.368 . S
C571 C555 1.349 . S
C571 H563 0.950 . S
C571 C569 1.327 . S
C572 C560 1.349 . S
C572 H566 0.950 . S
C572 C573 1.327 . S
C573 H567 0.950 . S
C573 C572 1.327 . S
C573 C577 1.429 . S
C574 C557 1.574 . S
C574 H568 0.949 . S
C574 C578 1.368 . S
C575 C556 1.429 . S
C575 C569 1.429 . S
C575 C576 1.523 . S
C576 C557 1.368 . S
C576 C570 1.368 . S
C576 C575 1.523 . S
C577 C561 1.429 . S
C577 C573 1.429 . S
C577 C578 1.523 . S
C578 C562 1.368 . S
C578 C574 1.368 . S
C578 C577 1.523 . S
H579 C554 0.950 . S
H580 C556 0.950 . S
H581 C557 0.949 . S
H582 C559 0.950 . S
H583 C561 0.950 . S
C584 C585 1.349 . S
C584 C586 1.327 . S
C584 H609 0.950 . S
C585 C584 1.349 . S
C585 C601 1.349 . S
C586 C584 1.327 . S
C586 C605 1.429 . S
C586 H610 0.950 1_545 S
C587 C604 1.574 1_556 S
C587 C606 1.368 . S
C587 H611 0.949 . S
H588 C592 0.949 . S
C589 C590 1.349 . S
C589 C591 1.327 . S
C589 H612 0.950 . S
C590 C589 1.349 . S
C590 C602 1.349 . S
C591 C589 1.327 . S
C591 C607 1.429 . S
C591 H613 0.950 1_565 S
C592 H588 0.949 . S
C592 C600 1.574 1_554 S
C592 C608 1.368 . S
H593 C601 0.950 . S
H594 C599 0.950 . S
H595 C600 0.949 . S
H596 C602 0.950 . S
H597 C603 0.950 . S
H598 C604 0.949 . S
C599 H594 0.950 . S
C599 C601 1.327 . S
C599 C605 1.429 . S
C600 C592 1.574 1_556 S
C600 H595 0.949 . S
C600 C606 1.368 1_565 S
C601 C585 1.349 . S
C601 H593 0.950 . S
C601 C599 1.327 . S
C602 C590 1.349 . S
C602 H596 0.950 . S
C602 C603 1.327 . S
C603 H597 0.950 . S
C603 C602 1.327 . S
C603 C607 1.429 . S
C604 C587 1.574 1_554 S
C604 H598 0.949 . S
C604 C608 1.368 1_545 S
C605 C586 1.429 . S
C605 C599 1.429 . S
C605 C606 1.523 . S
C606 C587 1.368 . S
C606 C600 1.368 1_545 S
C606 C605 1.523 . S
C607 C591 1.429 . S
C607 C603 1.429 . S
C607 C608 1.523 . S
C608 C592 1.368 . S
C608 C604 1.368 1_565 S
C608 C607 1.523 . S
H609 C584 0.950 . S
H610 C586 0.950 1_565 S
H611 C587 0.949 . S
H612 C589 0.950 . S
H613 C591 0.950 1_545 S
C614 C615 1.349 . S
C614 C616 1.327 . S
C614 H639 0.950 . S
C615 C614 1.349 . S
C615 C631 1.349 . S
C616 C614 1.327 . S
C616 C635 1.429 . S
C616 H640 0.950 . S
C617 C634 1.574 . S
C617 C636 1.368 . S
C617 H641 0.949 . S
H618 C622 0.949 . S
C619 C620 1.349 . S
C619 C621 1.327 . S
C619 H642 0.950 . S
C620 C619 1.349 . S
C620 C632 1.349 . S
C621 C619 1.327 . S
C621 C637 1.429 . S
C621 H643 0.950 . S
C622 H618 0.949 . S
C622 C630 1.574 . S
C622 C638 1.368 . S
H623 C631 0.950 . S
H624 C629 0.950 . S
H625 C630 0.949 . S
H626 C632 0.950 . S
H627 C633 0.950 . S
H628 C634 0.949 . S
C629 H624 0.950 . S
C629 C631 1.327 . S
C629 C635 1.429 . S
C630 C622 1.574 . S
C630 H625 0.949 . S
C630 C636 1.368 . S
C631 C615 1.349 . S
C631 H623 0.950 . S
C631 C629 1.327 . S
C632 C620 1.349 . S
C632 H626 0.950 . S
C632 C633 1.327 . S
C633 H627 0.950 . S
C633 C632 1.327 . S
C633 C637 1.429 . S
C634 C617 1.574 . S
C634 H628 0.949 . S
C634 C638 1.368 . S
C635 C616 1.429 . S
C635 C629 1.429 . S
C635 C636 1.523 . S
C636 C617 1.368 . S
C636 C630 1.368 . S
C636 C635 1.523 . S
C637 C621 1.429 . S
C637 C633 1.429 . S
C637 C638 1.523 . S
C638 C622 1.368 . S
C638 C634 1.368 . S
C638 C637 1.523 . S
H639 C614 0.950 . S
H640 C616 0.950 . S
H641 C617 0.949 . S
H642 C619 0.950 . S
H643 C621 0.950 . S
C644 C645 1.349 . S
C644 C646 1.327 . S
C644 H669 0.950 . S
C645 C644 1.349 . S
C645 C661 1.349 . S
C646 C644 1.327 . S
C646 C665 1.429 . S
C646 H670 0.950 . S
C647 C664 1.574 . S
C647 C666 1.368 . S
C647 H671 0.949 . S
H648 C652 0.949 . S
C649 C650 1.349 . S
C649 C651 1.327 . S
C649 H672 0.950 . S
C650 C649 1.349 . S
C650 C662 1.349 . S
C651 C649 1.327 . S
C651 C667 1.429 . S
C651 H673 0.950 . S
C652 H648 0.949 . S
C652 C660 1.574 . S
C652 C668 1.368 . S
H653 C661 0.950 . S
H654 C659 0.950 . S
H655 C660 0.949 . S
H656 C662 0.950 . S
H657 C663 0.950 . S
H658 C664 0.949 . S
C659 H654 0.950 . S
C659 C661 1.327 . S
C659 C665 1.429 . S
C660 C652 1.574 . S
C660 H655 0.949 . S
C660 C666 1.368 . S
C661 C645 1.349 . S
C661 H653 0.950 . S
C661 C659 1.327 . S
C662 C650 1.349 . S
C662 H656 0.950 . S
C662 C663 1.327 . S
C663 H657 0.950 . S
C663 C662 1.327 . S
C663 C667 1.429 . S
C664 C647 1.574 . S
C664 H658 0.949 . S
C664 C668 1.368 . S
C665 C646 1.429 . S
C665 C659 1.429 . S
C665 C666 1.523 . S
C666 C647 1.368 . S
C666 C660 1.368 . S
C666 C665 1.523 . S
C667 C651 1.429 . S
C667 C663 1.429 . S
C667 C668 1.523 . S
C668 C652 1.368 . S
C668 C664 1.368 . S
C668 C667 1.523 . S
H669 C644 0.950 . S
H670 C646 0.950 . S
H671 C647 0.949 . S
H672 C649 0.950 . S
H673 C651 0.950 . S
C674 C675 1.349 . S
C674 C676 1.327 . S
C674 H699 0.950 . S
C675 C674 1.349 . S
C675 C691 1.349 . S
C676 C674 1.327 . S
C676 C695 1.429 . S
C676 H700 0.950 . S
C677 C694 1.574 . S
C677 C696 1.368 . S
C677 H701 0.949 . S
H678 C682 0.949 . S
C679 C680 1.349 . S
C679 C681 1.327 . S
C679 H702 0.950 . S
C680 C679 1.349 . S
C680 C692 1.349 . S
C681 C679 1.327 . S
C681 C697 1.429 . S
C681 H703 0.950 . S
C682 H678 0.949 . S
C682 C690 1.574 . S
C682 C698 1.368 . S
H683 C691 0.950 . S
H684 C689 0.950 . S
H685 C690 0.949 . S
H686 C692 0.950 . S
H687 C693 0.950 . S
H688 C694 0.949 . S
C689 H684 0.950 . S
C689 C691 1.327 . S
C689 C695 1.429 . S
C690 C682 1.574 . S
C690 H685 0.949 . S
C690 C696 1.368 . S
C691 C675 1.349 . S
C691 H683 0.950 . S
C691 C689 1.327 . S
C692 C680 1.349 . S
C692 H686 0.950 . S
C692 C693 1.327 . S
C693 H687 0.950 . S
C693 C692 1.327 . S
C693 C697 1.429 . S
C694 C677 1.574 . S
C694 H688 0.949 . S
C694 C698 1.368 . S
C695 C676 1.429 . S
C695 C689 1.429 . S
C695 C696 1.523 . S
C696 C677 1.368 . S
C696 C690 1.368 . S
C696 C695 1.523 . S
C697 C681 1.429 . S
C697 C693 1.429 . S
C697 C698 1.523 . S
C698 C682 1.368 . S
C698 C694 1.368 . S
C698 C697 1.523 . S
H699 C674 0.950 . S
H700 C676 0.950 . S
H701 C677 0.949 . S
H702 C679 0.950 . S
H703 C681 0.950 . S
C704 C705 1.349 . S
C704 C706 1.327 . S
C704 H729 0.950 . S
C705 C704 1.349 . S
C705 C721 1.349 . S
C706 C704 1.327 . S
C706 C725 1.429 . S
C706 H730 0.950 . S
C707 C724 1.574 . S
C707 C726 1.368 . S
C707 H731 0.949 . S
H708 C712 0.949 . S
C709 C710 1.349 1_565 S
C709 C711 1.327 . S
C709 H732 0.950 . S
C710 C709 1.349 1_545 S
C710 C722 1.349 . S
C711 C709 1.327 . S
C711 C727 1.429 . S
C711 H733 0.950 . S
C712 H708 0.949 . S
C712 C720 1.574 . S
C712 C728 1.368 . S
H713 C721 0.950 . S
H714 C719 0.950 . S
H715 C720 0.949 . S
H716 C722 0.950 . S
H717 C723 0.950 . S
H718 C724 0.949 . S
C719 H714 0.950 . S
C719 C721 1.327 . S
C719 C725 1.429 . S
C720 C712 1.574 . S
C720 H715 0.949 . S
C720 C726 1.368 . S
C721 C705 1.349 . S
C721 H713 0.950 . S
C721 C719 1.327 . S
C722 C710 1.349 . S
C722 H716 0.950 . S
C722 C723 1.327 . S
C723 H717 0.950 . S
C723 C722 1.327 . S
C723 C727 1.429 1_545 S
C724 C707 1.574 . S
C724 H718 0.949 . S
C724 C728 1.368 . S
C725 C706 1.429 . S
C725 C719 1.429 . S
C725 C726 1.523 . S
C726 C707 1.368 . S
C726 C720 1.368 . S
C726 C725 1.523 . S
C727 C711 1.429 . S
C727 C723 1.429 1_565 S
C727 C728 1.523 . S
C728 C712 1.368 . S
C728 C724 1.368 . S
C728 C727 1.523 . S
H729 C704 0.950 . S
H730 C706 0.950 . S
H731 C707 0.949 . S
H732 C709 0.950 . S
H733 C711 0.950 . S
C734 C735 1.349 . S
C734 C736 1.327 . S
C734 H759 0.950 . S
C735 C734 1.349 . S
C735 C751 1.349 . S
C736 C734 1.327 . S
C736 C755 1.429 . S
C736 H760 0.950 . S
C737 C754 1.574 . S
C737 C756 1.368 . S
C737 H761 0.949 . S
H738 C742 0.949 . S
C739 C740 1.349 . S
C739 C741 1.327 . S
C739 H762 0.950 . S
C740 C739 1.349 . S
C740 C752 1.349 . S
C741 C739 1.327 . S
C741 C757 1.429 . S
C741 H763 0.950 . S
C742 H738 0.949 . S
C742 C750 1.574 . S
C742 C758 1.368 . S
H743 C751 0.950 . S
H744 C749 0.950 . S
H745 C750 0.949 . S
H746 C752 0.950 . S
H747 C753 0.950 . S
H748 C754 0.949 . S
C749 H744 0.950 . S
C749 C751 1.327 . S
C749 C755 1.429 . S
C750 C742 1.574 . S
C750 H745 0.949 . S
C750 C756 1.368 . S
C751 C735 1.349 . S
C751 H743 0.950 . S
C751 C749 1.327 . S
C752 C740 1.349 . S
C752 H746 0.950 . S
C752 C753 1.327 . S
C753 H747 0.950 . S
C753 C752 1.327 . S
C753 C757 1.429 . S
C754 C737 1.574 . S
C754 H748 0.949 . S
C754 C758 1.368 . S
C755 C736 1.429 . S
C755 C749 1.429 . S
C755 C756 1.523 . S
C756 C737 1.368 . S
C756 C750 1.368 . S
C756 C755 1.523 . S
C757 C741 1.429 . S
C757 C753 1.429 . S
C757 C758 1.523 . S
C758 C742 1.368 . S
C758 C754 1.368 . S
C758 C757 1.523 . S
H759 C734 0.950 . S
H760 C736 0.950 . S
H761 C737 0.949 . S
H762 C739 0.950 . S
H763 C741 0.950 . S
C764 C765 1.349 . S
C764 C766 1.327 . S
C764 H789 0.950 . S
C765 C764 1.349 . S
C765 C781 1.349 . S
C766 C764 1.327 . S
C766 C785 1.429 . S
C766 H790 0.950 . S
C767 C784 1.574 . S
C767 C786 1.368 . S
C767 H791 0.949 . S
H768 C772 0.949 . S
C769 C770 1.349 . S
C769 C771 1.327 . S
C769 H792 0.950 . S
C770 C769 1.349 . S
C770 C782 1.349 . S
C771 C769 1.327 . S
C771 C787 1.429 . S
C771 H793 0.950 . S
C772 H768 0.949 . S
C772 C780 1.574 . S
C772 C788 1.368 . S
H773 C781 0.950 . S
H774 C779 0.950 . S
H775 C780 0.949 . S
H776 C782 0.950 . S
H777 C783 0.950 . S
H778 C784 0.949 . S
C779 H774 0.950 . S
C779 C781 1.327 . S
C779 C785 1.429 . S
C780 C772 1.574 . S
C780 H775 0.949 . S
C780 C786 1.368 . S
C781 C765 1.349 . S
C781 H773 0.950 . S
C781 C779 1.327 . S
C782 C770 1.349 . S
C782 H776 0.950 . S
C782 C783 1.327 . S
C783 H777 0.950 . S
C783 C782 1.327 . S
C783 C787 1.429 . S
C784 C767 1.574 . S
C784 H778 0.949 . S
C784 C788 1.368 . S
C785 C766 1.429 . S
C785 C779 1.429 . S
C785 C786 1.523 . S
C786 C767 1.368 . S
C786 C780 1.368 . S
C786 C785 1.523 . S
C787 C771 1.429 . S
C787 C783 1.429 . S
C787 C788 1.523 . S
C788 C772 1.368 . S
C788 C784 1.368 . S
C788 C787 1.523 . S
H789 C764 0.950 . S
H790 C766 0.950 . S
H791 C767 0.949 . S
H792 C769 0.950 . S
H793 C771 0.950 . S
C794 C795 1.349 . S
C794 C796 1.327 . S
C794 H819 0.950 . S
C795 C794 1.349 . S
C795 C811 1.349 . S
C796 C794 1.327 . S
C796 C815 1.429 . S
C796 H820 0.950 . S
C797 C814 1.574 . S
C797 C816 1.368 . S
C797 H821 0.949 . S
H798 C802 0.949 . S
C799 C800 1.349 . S
C799 C801 1.327 1_545 S
C799 H822 0.950 . S
C800 C799 1.349 . S
C800 C812 1.349 1_545 S
C801 C799 1.327 1_565 S
C801 C817 1.429 . S
C801 H823 0.950 1_565 S
C802 H798 0.949 . S
C802 C810 1.574 . S
C802 C818 1.368 . S
H803 C811 0.950 . S
H804 C809 0.950 . S
H805 C810 0.949 . S
H806 C812 0.950 . S
H807 C813 0.950 . S
H808 C814 0.949 . S
C809 H804 0.950 . S
C809 C811 1.327 . S
C809 C815 1.429 . S
C810 C802 1.574 . S
C810 H805 0.949 . S
C810 C816 1.368 . S
C811 C795 1.349 . S
C811 H803 0.950 . S
C811 C809 1.327 . S
C812 C800 1.349 1_565 S
C812 H806 0.950 . S
C812 C813 1.327 . S
C813 H807 0.950 . S
C813 C812 1.327 . S
C813 C817 1.429 . S
C814 C797 1.574 . S
C814 H808 0.949 . S
C814 C818 1.368 . S
C815 C796 1.429 . S
C815 C809 1.429 . S
C815 C816 1.523 . S
C816 C797 1.368 . S
C816 C810 1.368 . S
C816 C815 1.523 . S
C817 C801 1.429 . S
C817 C813 1.429 . S
C817 C818 1.523 . S
C818 C802 1.368 . S
C818 C814 1.368 . S
C818 C817 1.523 . S
H819 C794 0.950 . S
H820 C796 0.950 . S
H821 C797 0.949 . S
H822 C799 0.950 . S
H823 C801 0.950 1_545 S
C824 C825 1.349 . S
C824 C826 1.327 . S
C824 H849 0.950 . S
C825 C824 1.349 . S
C825 C841 1.349 . S
C826 C824 1.327 . S
C826 C845 1.429 . S
C826 H850 0.950 . S
C827 C844 1.574 . S
C827 C846 1.368 . S
C827 H851 0.949 . S
H828 C832 0.949 . S
C829 C830 1.349 . S
C829 C831 1.323 1_565 S
C829 H852 0.950 . S
C830 C829 1.349 . S
C830 C842 1.349 1_565 S
C831 C829 1.323 1_545 S
C831 C847 1.433 . S
C831 H853 0.949 1_545 S
C832 H828 0.949 . S
C832 C840 1.574 . S
C832 C848 1.368 . S
H833 C841 0.950 . S
H834 C839 0.950 . S
H835 C840 0.949 . S
H836 C842 0.950 . S
H837 C843 0.950 . S
H838 C844 0.949 . S
C839 H834 0.950 . S
C839 C841 1.327 . S
C839 C845 1.429 . S
C840 C832 1.574 . S
C840 H835 0.949 . S
C840 C846 1.368 . S
C841 C825 1.349 . S
C841 H833 0.950 . S
C841 C839 1.327 . S
C842 C830 1.349 1_545 S
C842 H836 0.950 . S
C842 C843 1.327 . S
C843 H837 0.950 . S
C843 C842 1.327 . S
C843 C847 1.429 . S
C844 C827 1.574 . S
C844 H838 0.949 . S
C844 C848 1.368 . S
C845 C826 1.429 . S
C845 C839 1.429 . S
C845 C846 1.523 . S
C846 C827 1.368 . S
C846 C840 1.368 . S
C846 C845 1.523 . S
C847 C831 1.433 . S
C847 C843 1.429 . S
C847 C848 1.523 . S
C848 C832 1.368 . S
C848 C844 1.368 . S
C848 C847 1.523 . S
H849 C824 0.950 . S
H850 C826 0.950 . S
H851 C827 0.949 . S
H852 C829 0.950 . S
H853 C831 0.949 1_565 S
C854 C855 1.349 . S
C854 C856 1.327 . S
C854 H879 0.950 . S
C855 C854 1.349 . S
C855 C871 1.349 . S
C856 C854 1.327 . S
C856 C875 1.429 . S
C856 H880 0.950 . S
C857 C874 1.574 . S
C857 C876 1.368 . S
C857 H881 0.949 . S
H858 C862 0.949 . S
C859 C860 1.349 . S
C859 C861 1.327 . S
C859 H882 0.950 . S
C860 C859 1.349 . S
C860 C872 1.349 . S
C861 C859 1.327 . S
C861 C877 1.429 . S
C861 H883 0.950 . S
C862 H858 0.949 . S
C862 C870 1.574 . S
C862 C878 1.368 . S
H863 C871 0.950 . S
H864 C869 0.950 . S
H865 C870 0.949 . S
H866 C872 0.950 . S
H867 C873 0.950 . S
H868 C874 0.949 . S
C869 H864 0.950 . S
C869 C871 1.327 . S
C869 C875 1.429 . S
C870 C862 1.574 . S
C870 H865 0.949 . S
C870 C876 1.368 . S
C871 C855 1.349 . S
C871 H863 0.950 . S
C871 C869 1.327 . S
C872 C860 1.349 . S
C872 H866 0.950 . S
C872 C873 1.327 . S
C873 H867 0.950 . S
C873 C872 1.327 . S
C873 C877 1.429 . S
C874 C857 1.574 . S
C874 H868 0.949 . S
C874 C878 1.368 . S
C875 C856 1.429 . S
C875 C869 1.429 . S
C875 C876 1.523 . S
C876 C857 1.368 . S
C876 C870 1.368 . S
C876 C875 1.523 . S
C877 C861 1.429 . S
C877 C873 1.429 . S
C877 C878 1.523 . S
C878 C862 1.368 . S
C878 C874 1.368 . S
C878 C877 1.523 . S
H879 C854 0.950 . S
H880 C856 0.950 . S
H881 C857 0.949 . S
H882 C859 0.950 . S
H883 C861 0.950 . S
C884 C885 1.349 . S
C884 C886 1.327 . S
C884 H909 0.950 . S
C885 C884 1.349 . S
C885 C901 1.349 . S
C886 C884 1.327 . S
C886 C905 1.429 . S
C886 H910 0.950 . S
C887 C904 1.574 . S
C887 C906 1.368 . S
C887 H911 0.949 . S
H888 C892 0.949 . S
C889 C890 1.349 . S
C889 C891 1.327 . S
C889 H912 0.950 . S
C890 C889 1.349 . S
C890 C902 1.349 . S
C891 C889 1.327 . S
C891 C907 1.429 . S
C891 H913 0.950 . S
C892 H888 0.949 . S
C892 C900 1.574 . S
C892 C908 1.368 . S
H893 C901 0.950 . S
H894 C899 0.950 . S
H895 C900 0.949 . S
H896 C902 0.950 . S
H897 C903 0.950 . S
H898 C904 0.949 . S
C899 H894 0.950 . S
C899 C901 1.327 . S
C899 C905 1.429 . S
C900 C892 1.574 . S
C900 H895 0.949 . S
C900 C906 1.368 . S
C901 C885 1.349 . S
C901 H893 0.950 . S
C901 C899 1.327 . S
C902 C890 1.349 . S
C902 H896 0.950 . S
C902 C903 1.327 . S
C903 H897 0.950 . S
C903 C902 1.327 . S
C903 C907 1.429 . S
C904 C887 1.574 . S
C904 H898 0.949 . S
C904 C908 1.368 . S
C905 C886 1.429 . S
C905 C899 1.429 . S
C905 C906 1.523 . S
C906 C887 1.368 . S
C906 C900 1.368 . S
C906 C905 1.523 . S
C907 C891 1.429 . S
C907 C903 1.429 . S
C907 C908 1.523 . S
C908 C892 1.368 . S
C908 C904 1.368 . S
C908 C907 1.523 . S
H909 C884 0.950 . S
H910 C886 0.950 . S
H911 C887 0.949 . S
H912 C889 0.950 . S
H913 C891 0.950 . S
C914 C915 1.349 . S
C914 C916 1.327 1_565 S
C914 H939 0.950 . S
C915 C914 1.349 . S
C915 C931 1.349 . S
C916 C914 1.327 1_545 S
C916 C935 1.429 . S
C916 H940 0.950 . S
C917 C934 1.574 . S
C917 C936 1.368 . S
C917 H941 0.949 . S
H918 C922 0.949 . S
C919 C920 1.349 . S
C919 C921 1.327 . S
C919 H942 0.950 . S
C920 C919 1.349 . S
C920 C932 1.349 . S
C921 C919 1.327 . S
C921 C937 1.429 . S
C921 H943 0.950 . S
C922 H918 0.949 . S
C922 C930 1.574 . S
C922 C938 1.368 . S
H923 C931 0.950 . S
H924 C929 0.950 . S
H925 C930 0.949 . S
H926 C932 0.950 . S
H927 C933 0.950 . S
H928 C934 0.949 . S
C929 H924 0.950 . S
C929 C931 1.327 1_545 S
C929 C935 1.429 . S
C930 C922 1.574 . S
C930 H925 0.949 . S
C930 C936 1.368 . S
C931 C915 1.349 . S
C931 H923 0.950 . S
C931 C929 1.327 1_565 S
C932 C920 1.349 . S
C932 H926 0.950 . S
C932 C933 1.327 . S
C933 H927 0.950 . S
C933 C932 1.327 . S
C933 C937 1.429 . S
C934 C917 1.574 . S
C934 H928 0.949 . S
C934 C938 1.368 . S
C935 C916 1.429 . S
C935 C929 1.429 . S
C935 C936 1.523 . S
C936 C917 1.368 . S
C936 C930 1.368 . S
C936 C935 1.523 . S
C937 C921 1.429 . S
C937 C933 1.429 . S
C937 C938 1.523 . S
C938 C922 1.368 . S
C938 C934 1.368 . S
C938 C937 1.523 . S
H939 C914 0.950 . S
H940 C916 0.950 . S
H941 C917 0.949 . S
H942 C919 0.950 . S
H943 C921 0.950 . S
C944 C945 1.349 . S
C944 C946 1.327 . S
C944 H969 0.950 . S
C945 C944 1.349 . S
C945 C961 1.349 . S
C946 C944 1.327 . S
C946 C965 1.429 . S
C946 H970 0.950 . S
C947 C964 1.574 . S
C947 C966 1.368 . S
C947 H971 0.949 . S
H948 C952 0.949 . S
C949 C950 1.349 . S
C949 C951 1.327 1_545 S
C949 H972 0.950 . S
C950 C949 1.349 . S
C950 C962 1.349 . S
C951 C949 1.327 1_565 S
C951 C967 1.429 . S
C951 H973 0.950 . S
C952 H948 0.949 . S
C952 C960 1.574 . S
C952 C968 1.368 . S
H953 C961 0.950 . S
H954 C959 0.950 . S
H955 C960 0.949 . S
H956 C962 0.950 . S
H957 C963 0.950 . S
H958 C964 0.949 . S
C959 H954 0.950 . S
C959 C961 1.327 . S
C959 C965 1.429 . S
C960 C952 1.574 . S
C960 H955 0.949 . S
C960 C966 1.368 . S
C961 C945 1.349 . S
C961 H953 0.950 . S
C961 C959 1.327 . S
C962 C950 1.349 . S
C962 H956 0.950 . S
C962 C963 1.327 1_545 S
C963 H957 0.950 . S
C963 C962 1.327 1_565 S
C963 C967 1.429 . S
C964 C947 1.574 . S
C964 H958 0.949 . S
C964 C968 1.368 . S
C965 C946 1.429 . S
C965 C959 1.429 . S
C965 C966 1.523 . S
C966 C947 1.368 . S
C966 C960 1.368 . S
C966 C965 1.523 . S
C967 C951 1.429 . S
C967 C963 1.429 . S
C967 C968 1.523 . S
C968 C952 1.368 . S
C968 C964 1.368 . S
C968 C967 1.523 . S
H969 C944 0.950 . S
H970 C946 0.950 . S
H971 C947 0.949 . S
H972 C949 0.950 . S
H973 C951 0.950 . S
C974 C975 1.349 . S
C974 C976 1.327 . S
C974 H999 0.950 . S
C975 C974 1.349 . S
C975 C991 1.349 . S
C976 C974 1.327 . S
C976 C995 1.429 . S
C976 H1000 0.950 . S
C977 C994 1.574 . S
C977 C996 1.368 . S
C977 H1001 0.949 . S
H978 C982 0.949 . S
C979 C980 1.349 . S
C979 C981 1.327 . S
C979 H1002 0.950 . S
C980 C979 1.349 . S
C980 C992 1.349 . S
C981 C979 1.327 . S
C981 C997 1.429 . S
C981 H1003 0.950 . S
C982 H978 0.949 . S
C982 C990 1.574 . S
C982 C998 1.368 . S
H983 C991 0.950 . S
H984 C989 0.950 . S
H985 C990 0.949 . S
H986 C992 0.950 . S
H987 C993 0.950 . S
H988 C994 0.949 . S
C989 H984 0.950 . S
C989 C991 1.327 . S
C989 C995 1.429 . S
C990 C982 1.574 . S
C990 H985 0.949 . S
C990 C996 1.368 . S
C991 C975 1.349 . S
C991 H983 0.950 . S
C991 C989 1.327 . S
C992 C980 1.349 . S
C992 H986 0.950 . S
C992 C993 1.327 . S
C993 H987 0.950 . S
C993 C992 1.327 . S
C993 C997 1.429 . S
C994 C977 1.574 . S
C994 H988 0.949 . S
C994 C998 1.368 . S
C995 C976 1.429 . S
C995 C989 1.429 . S
C995 C996 1.523 . S
C996 C977 1.368 . S
C996 C990 1.368 . S
C996 C995 1.523 . S
C997 C981 1.429 . S
C997 C993 1.429 . S
C997 C998 1.523 . S
C998 C982 1.368 . S
C998 C994 1.368 . S
C998 C997 1.523 . S
H999 C974 0.950 . S
H1000 C976 0.950 . S
H1001 C977 0.949 . S
H1002 C979 0.950 . S
H1003 C981 0.950 . S
C1004 C1005 1.349 . S
C1004 C1006 1.327 . S
C1004 H1029 0.950 . S
C1005 C1004 1.349 . S
C1005 C1021 1.349 . S
C1006 C1004 1.327 . S
C1006 C1025 1.429 . S
C1006 H1030 0.950 . S
C1007 C1024 1.574 . S
C1007 C1026 1.368 . S
C1007 H1031 0.949 . S
H1008 C1012 0.949 . S
C1009 C1010 1.349 . S
C1009 C1011 1.327 . S
C1009 H1032 0.950 . S
C1010 C1009 1.349 . S
C1010 C1022 1.349 . S
C1011 C1009 1.327 . S
C1011 C1027 1.429 . S
C1011 H1033 0.950 . S
C1012 H1008 0.949 . S
C1012 C1020 1.574 . S
C1012 C1028 1.368 . S
H1013 C1021 0.950 . S
H1014 C1019 0.950 . S
H1015 C1020 0.949 . S
H1016 C1022 0.950 . S
H1017 C1023 0.950 . S
H1018 C1024 0.949 . S
C1019 H1014 0.950 . S
C1019 C1021 1.327 . S
C1019 C1025 1.429 . S
C1020 C1012 1.574 . S
C1020 H1015 0.949 . S
C1020 C1026 1.368 . S
C1021 C1005 1.349 . S
C1021 H1013 0.950 . S
C1021 C1019 1.327 . S
C1022 C1010 1.349 . S
C1022 H1016 0.950 . S
C1022 C1023 1.327 . S
C1023 H1017 0.950 . S
C1023 C1022 1.327 . S
C1023 C1027 1.429 . S
C1024 C1007 1.574 . S
C1024 H1018 0.949 . S
C1024 C1028 1.368 . S
C1025 C1006 1.429 . S
C1025 C1019 1.429 . S
C1025 C1026 1.523 . S
C1026 C1007 1.368 . S
C1026 C1020 1.368 . S
C1026 C1025 1.523 . S
C1027 C1011 1.429 . S
C1027 C1023 1.429 . S
C1027 C1028 1.523 . S
C1028 C1012 1.368 . S
C1028 C1024 1.368 . S
C1028 C1027 1.523 . S
H1029 C1004 0.950 . S
H1030 C1006 0.950 . S
H1031 C1007 0.949 . S
H1032 C1009 0.950 . S
H1033 C1011 0.950 . S
C1034 C1035 1.349 . S
C1034 C1036 1.327 . S
C1034 H1059 0.950 . S
C1035 C1034 1.349 . S
C1035 C1051 1.349 . S
C1036 C1034 1.327 . S
C1036 C1055 1.429 . S
C1036 H1060 0.950 . S
C1037 C1054 1.574 . S
C1037 C1056 1.368 . S
C1037 H1061 0.949 . S
H1038 C1042 0.949 . S
C1039 C1040 1.349 1_565 S
C1039 C1041 1.327 . S
C1039 H1062 0.950 . S
C1040 C1039 1.349 1_545 S
C1040 C1052 1.349 . S
C1041 C1039 1.327 . S
C1041 C1057 1.429 . S
C1041 H1063 0.950 . S
C1042 H1038 0.949 . S
C1042 C1050 1.574 . S
C1042 C1058 1.368 . S
H1043 C1051 0.950 . S
H1044 C1049 0.950 . S
H1045 C1050 0.949 . S
H1046 C1052 0.950 . S
H1047 C1053 0.950 . S
H1048 C1054 0.949 . S
C1049 H1044 0.950 . S
C1049 C1051 1.327 . S
C1049 C1055 1.429 . S
C1050 C1042 1.574 . S
C1050 H1045 0.949 . S
C1050 C1056 1.368 . S
C1051 C1035 1.349 . S
C1051 H1043 0.950 . S
C1051 C1049 1.327 . S
C1052 C1040 1.349 . S
C1052 H1046 0.950 . S
C1052 C1053 1.327 . S
C1053 H1047 0.950 . S
C1053 C1052 1.327 . S
C1053 C1057 1.429 1_545 S
C1054 C1037 1.574 . S
C1054 H1048 0.949 . S
C1054 C1058 1.368 . S
C1055 C1036 1.429 . S
C1055 C1049 1.429 . S
C1055 C1056 1.523 . S
C1056 C1037 1.368 . S
C1056 C1050 1.368 . S
C1056 C1055 1.523 . S
C1057 C1041 1.429 . S
C1057 C1053 1.429 1_565 S
C1057 C1058 1.523 . S
C1058 C1042 1.368 . S
C1058 C1054 1.368 . S
C1058 C1057 1.523 . S
H1059 C1034 0.950 . S
H1060 C1036 0.950 . S
H1061 C1037 0.949 . S
H1062 C1039 0.950 . S
H1063 C1041 0.950 . S
C1064 C1065 1.349 . S
C1064 C1066 1.327 . S
C1064 H1089 0.950 . S
C1065 C1064 1.349 . S
C1065 C1081 1.349 . S
C1066 C1064 1.327 . S
C1066 C1085 1.429 . S
C1066 H1090 0.950 . S
C1067 C1084 1.574 . S
C1067 C1086 1.368 . S
C1067 H1091 0.949 . S
H1068 C1072 0.949 . S
C1069 C1070 1.349 . S
C1069 C1071 1.327 1_565 S
C1069 H1092 0.950 . S
C1070 C1069 1.349 . S
C1070 C1082 1.333 1_565 S
C1071 C1069 1.327 1_545 S
C1071 C1087 1.429 . S
C1071 H1093 0.950 . S
C1072 H1068 0.949 . S
C1072 C1080 1.574 . S
C1072 C1088 1.368 . S
H1073 C1081 0.950 . S
H1074 C1079 0.950 . S
H1075 C1080 0.949 . S
H1076 C1082 0.947 1_565 S
H1077 C1083 0.950 . S
H1078 C1084 0.949 . S
C1079 H1074 0.950 . S
C1079 C1081 1.327 . S
C1079 C1085 1.429 . S
C1080 C1072 1.574 . S
C1080 H1075 0.949 . S
C1080 C1086 1.368 . S
C1081 C1065 1.349 . S
C1081 H1073 0.950 . S
C1081 C1079 1.327 . S
C1082 C1070 1.333 1_545 S
C1082 H1076 0.947 1_545 S
C1082 C1083 1.346 . S
C1083 H1077 0.950 . S
C1083 C1082 1.346 . S
C1083 C1087 1.429 . S
C1084 C1067 1.574 . S
C1084 H1078 0.949 . S
C1084 C1088 1.368 . S
C1085 C1066 1.429 . S
C1085 C1079 1.429 . S
C1085 C1086 1.523 . S
C1086 C1067 1.368 . S
C1086 C1080 1.368 . S
C1086 C1085 1.523 . S
C1087 C1071 1.429 . S
C1087 C1083 1.429 . S
C1087 C1088 1.523 . S
C1088 C1072 1.368 . S
C1088 C1084 1.368 . S
C1088 C1087 1.523 . S
H1089 C1064 0.950 . S
H1090 C1066 0.950 . S
H1091 C1067 0.949 . S
H1092 C1069 0.950 . S
H1093 C1071 0.950 . S
C1094 C1095 1.349 . S
C1094 C1096 1.327 . S
C1094 H1119 0.950 . S
C1095 C1094 1.349 . S
C1095 C1111 1.349 . S
C1096 C1094 1.327 . S
C1096 C1115 1.429 . S
C1096 H1120 0.950 . S
C1097 C1114 1.574 . S
C1097 C1116 1.368 . S
C1097 H1121 0.949 . S
H1098 C1102 0.949 . S
C1099 C1100 1.349 . S
C1099 C1101 1.327 . S
C1099 H1122 0.950 . S
C1100 C1099 1.349 . S
C1100 C1112 1.349 . S
C1101 C1099 1.327 . S
C1101 C1117 1.429 . S
C1101 H1123 0.950 . S
C1102 H1098 0.949 . S
C1102 C1110 1.574 . S
C1102 C1118 1.368 . S
H1103 C1111 0.950 . S
H1104 C1109 0.950 . S
H1105 C1110 0.949 . S
H1106 C1112 0.950 . S
H1107 C1113 0.950 . S
H1108 C1114 0.949 . S
C1109 H1104 0.950 . S
C1109 C1111 1.327 . S
C1109 C1115 1.429 . S
C1110 C1102 1.574 . S
C1110 H1105 0.949 . S
C1110 C1116 1.368 . S
C1111 C1095 1.349 . S
C1111 H1103 0.950 . S
C1111 C1109 1.327 . S
C1112 C1100 1.349 . S
C1112 H1106 0.950 . S
C1112 C1113 1.327 . S
C1113 H1107 0.950 . S
C1113 C1112 1.327 . S
C1113 C1117 1.429 . S
C1114 C1097 1.574 . S
C1114 H1108 0.949 . S
C1114 C1118 1.368 . S
C1115 C1096 1.429 . S
C1115 C1109 1.429 . S
C1115 C1116 1.523 . S
C1116 C1097 1.368 . S
C1116 C1110 1.368 . S
C1116 C1115 1.523 . S
C1117 C1101 1.429 . S
C1117 C1113 1.429 . S
C1117 C1118 1.523 . S
C1118 C1102 1.368 . S
C1118 C1114 1.368 . S
C1118 C1117 1.523 . S
H1119 C1094 0.950 . S
H1120 C1096 0.950 . S
H1121 C1097 0.949 . S
H1122 C1099 0.950 . S
H1123 C1101 0.950 . S
C1124 C1125 1.349 . S
C1124 C1126 1.327 . S
C1124 H1149 0.950 . S
C1125 C1124 1.349 . S
C1125 C1141 1.349 . S
C1126 C1124 1.327 . S
C1126 C1145 1.429 . S
C1126 H1150 0.950 . S
C1127 C1144 1.574 . S
C1127 C1146 1.368 . S
C1127 H1151 0.949 . S
H1128 C1132 0.949 . S
C1129 C1130 1.349 . S
C1129 C1131 1.327 . S
C1129 H1152 0.950 . S
C1130 C1129 1.349 . S
C1130 C1142 1.349 . S
C1131 C1129 1.327 . S
C1131 C1147 1.429 . S
C1131 H1153 0.950 . S
C1132 H1128 0.949 . S
C1132 C1140 1.574 . S
C1132 C1148 1.368 . S
H1133 C1141 0.950 . S
H1134 C1139 0.950 . S
H1135 C1140 0.949 . S
H1136 C1142 0.950 . S
H1137 C1143 0.950 . S
H1138 C1144 0.949 . S
C1139 H1134 0.950 . S
C1139 C1141 1.327 . S
C1139 C1145 1.429 . S
C1140 C1132 1.574 . S
C1140 H1135 0.949 . S
C1140 C1146 1.368 . S
C1141 C1125 1.349 . S
C1141 H1133 0.950 . S
C1141 C1139 1.327 . S
C1142 C1130 1.349 . S
C1142 H1136 0.950 . S
C1142 C1143 1.327 . S
C1143 H1137 0.950 . S
C1143 C1142 1.327 . S
C1143 C1147 1.429 . S
C1144 C1127 1.574 . S
C1144 H1138 0.949 . S
C1144 C1148 1.368 . S
C1145 C1126 1.429 . S
C1145 C1139 1.429 . S
C1145 C1146 1.523 . S
C1146 C1127 1.368 . S
C1146 C1140 1.368 . S
C1146 C1145 1.523 . S
C1147 C1131 1.429 . S
C1147 C1143 1.429 . S
C1147 C1148 1.523 . S
C1148 C1132 1.368 . S
C1148 C1144 1.368 . S
C1148 C1147 1.523 . S
H1149 C1124 0.950 . S
H1150 C1126 0.950 . S
H1151 C1127 0.949 . S
H1152 C1129 0.950 . S
H1153 C1131 0.950 . S
C1154 C1155 1.349 . S
C1154 C1156 1.327 . S
C1154 H1179 0.950 . S
C1155 C1154 1.349 . S
C1155 C1171 1.349 . S
C1156 C1154 1.327 . S
C1156 C1175 1.429 . S
C1156 H1180 0.950 . S
C1157 C1174 1.574 . S
C1157 C1176 1.368 . S
C1157 H1181 0.949 . S
H1158 C1162 0.949 . S
C1159 C1160 1.349 . S
C1159 C1161 1.327 . S
C1159 H1182 0.950 . S
C1160 C1159 1.349 . S
C1160 C1172 1.349 1_565 S
C1161 C1159 1.327 . S
C1161 C1177 1.429 1_565 S
C1161 H1183 0.950 . S
C1162 H1158 0.949 . S
C1162 C1170 1.574 . S
C1162 C1178 1.368 . S
H1163 C1171 0.950 . S
H1164 C1169 0.950 . S
H1165 C1170 0.949 . S
H1166 C1172 0.950 . S
H1167 C1173 0.950 . S
H1168 C1174 0.949 . S
C1169 H1164 0.950 . S
C1169 C1171 1.327 . S
C1169 C1175 1.429 . S
C1170 C1162 1.574 . S
C1170 H1165 0.949 . S
C1170 C1176 1.368 . S
C1171 C1155 1.349 . S
C1171 H1163 0.950 . S
C1171 C1169 1.327 . S
C1172 C1160 1.349 1_545 S
C1172 H1166 0.950 . S
C1172 C1173 1.327 . S
C1173 H1167 0.950 . S
C1173 C1172 1.327 . S
C1173 C1177 1.429 . S
C1174 C1157 1.574 . S
C1174 H1168 0.949 . S
C1174 C1178 1.368 . S
C1175 C1156 1.429 . S
C1175 C1169 1.429 . S
C1175 C1176 1.523 . S
C1176 C1157 1.368 . S
C1176 C1170 1.368 . S
C1176 C1175 1.523 . S
C1177 C1161 1.429 1_545 S
C1177 C1173 1.429 . S
C1177 C1178 1.523 . S
C1178 C1162 1.368 . S
C1178 C1174 1.368 . S
C1178 C1177 1.523 . S
H1179 C1154 0.950 . S
H1180 C1156 0.950 . S
H1181 C1157 0.949 . S
H1182 C1159 0.950 . S
H1183 C1161 0.950 . S
C225 C199 1.493 . S
C230 C3 1.493 . S
C255 C36 1.496 . S
C260 C8 1.496 . S
C285 C162 1.496 . S
C290 C22 1.496 . S
C315 C17 1.493 . S
C320 C101 1.493 . S
C345 C31 1.493 . S
C350 C171 1.493 . S
C375 C134 1.496 . S
C380 C50 1.496 . S
C405 C45 1.493 . S
C410 C73 1.493 . S
C435 C143 1.493 . S
C440 C59 1.493 . S
C465 C64 1.496 . S
C470 C92 1.496 . S
C495 C218 1.496 . S
C500 C78 1.496 . S
C525 C115 1.493 . S
C530 C87 1.493 . S
C555 C190 1.496 . S
C560 C106 1.496 . S
C585 C120 1.496 . S
C590 C148 1.496 . S
C615 C213 1.493 . S
C620 C129 1.493 . S
C645 C157 1.493 . S
C650 C185 1.493 . S
C675 C204 1.496 . S
C680 C176 1.496 . S
C705 C79 1.410 . S
C710 C7 1.403 . S
C735 C9 1.410 . S
C740 C77 1.403 . S
C765 C23 1.410 . S
C770 C63 1.403 . S
C795 C65 1.410 . S
C800 C21 1.403 . S
C825 C107 1.410 . S
C830 C35 1.403 . S
C855 C105 1.403 . S
C860 C37 1.410 . S
C885 C91 1.403 . S
C890 C51 1.410 . S
C915 C49 1.403 . S
C920 C93 1.410 . S
C945 C191 1.410 . S
C950 C119 1.403 . S
C975 C121 1.410 . S
C980 C189 1.403 . S
C1005 C135 1.410 . S
C1010 C175 1.403 . S
C1035 C177 1.410 . S
C1040 C133 1.403 . S
C1065 C219 1.410 . S
C1070 C147 1.403 . S
C1095 C217 1.403 . S
C1100 C149 1.410 . S
C1125 C163 1.410 . S
C1130 C203 1.403 . S
C1155 C205 1.410 . S
C1160 C161 1.403 . S
