# Generated by pormake.
# Topology afw, (4)-cn, num edge types: 1
# Building blocks:
#     Node 0, Type 0, BuildingBlock: NAHDIM_clean_sbu_0, # of connection points: 4
#     Node 1, Type 0, BuildingBlock: NAHDIM_clean_sbu_0, # of connection points: 4
#     Node 2, Type 0, BuildingBlock: NAHDIM_clean_sbu_0, # of connection points: 4
#     Node 3, Type 0, BuildingBlock: NAHDIM_clean_sbu_0, # of connection points: 4
#     Node 4, Type 0, BuildingBlock: NAHDIM_clean_sbu_0, # of connection points: 4
#     Node 5, Type 0, BuildingBlock: NAHDIM_clean_sbu_0, # of connection points: 4
#     Node 6, Type 0, BuildingBlock: NAHDIM_clean_sbu_0, # of connection points: 4
#     Node 7, Type 0, BuildingBlock: NAHDIM_clean_sbu_0, # of connection points: 4
#     Node 8, Type 0, BuildingBlock: NAHDIM_clean_sbu_0, # of connection points: 4
#     Edge 9, Type (0, 0), BuildingBlock: FUNLAD_clean_linker_1, # of connection points: 2
#     Edge 10, Type (0, 0), BuildingBlock: FUNLAD_clean_linker_1, # of connection points: 2
#     Edge 11, Type (0, 0), BuildingBlock: FUNLAD_clean_linker_1, # of connection points: 2
#     Edge 12, Type (0, 0), BuildingBlock: FUNLAD_clean_linker_1, # of connection points: 2
#     Edge 13, Type (0, 0), BuildingBlock: FUNLAD_clean_linker_1, # of connection points: 2
#     Edge 14, Type (0, 0), BuildingBlock: FUNLAD_clean_linker_1, # of connection points: 2
#     Edge 15, Type (0, 0), BuildingBlock: FUNLAD_clean_linker_1, # of connection points: 2
#     Edge 16, Type (0, 0), BuildingBlock: FUNLAD_clean_linker_1, # of connection points: 2
#     Edge 17, Type (0, 0), BuildingBlock: FUNLAD_clean_linker_1, # of connection points: 2
#     Edge 18, Type (0, 0), BuildingBlock: FUNLAD_clean_linker_1, # of connection points: 2
#     Edge 19, Type (0, 0), BuildingBlock: FUNLAD_clean_linker_1, # of connection points: 2
#     Edge 20, Type (0, 0), BuildingBlock: FUNLAD_clean_linker_1, # of connection points: 2
#     Edge 21, Type (0, 0), BuildingBlock: FUNLAD_clean_linker_1, # of connection points: 2
#     Edge 22, Type (0, 0), BuildingBlock: FUNLAD_clean_linker_1, # of connection points: 2
#     Edge 23, Type (0, 0), BuildingBlock: FUNLAD_clean_linker_1, # of connection points: 2
#     Edge 24, Type (0, 0), BuildingBlock: FUNLAD_clean_linker_1, # of connection points: 2
#     Edge 25, Type (0, 0), BuildingBlock: FUNLAD_clean_linker_1, # of connection points: 2
#     Edge 26, Type (0, 0), BuildingBlock: FUNLAD_clean_linker_1, # of connection points: 2
# Relax obj value: 0.264
# Max RMSD: 0.263
# Mean RMSD: 0.245
data_MOF--net-afw--node1-NAHDIM_clean_sbu_0--edge1-FUNLAD_clean_linker_1
_symmetry_space_group_name_H-M    P1
_symmetry_Int_Tables_number       1
_symmetry_cell_setting            triclinic
loop_
_symmetry_equiv_pos_as_xyz
'x, y, z'
_cell_length_a     41.09833
_cell_length_b     42.82317
_cell_length_c     36.23208
_cell_angle_alpha  92.804821
_cell_angle_beta   90.481799
_cell_angle_gamma 119.14514
loop_
_atom_site_label
_atom_site_type_symbol
_atom_site_fract_x
_atom_site_fract_y
_atom_site_fract_z
_atom_type_partial_charge
C0 C 0.96822 0.24269 0.9282 0.0
O1 O 0.98192 0.26234 0.95926 0.0
O2 O 0.9874 0.17832 0.98612 0.0
Zn3 Zn 0.94482 0.18843 0.97875 0.0
O4 O 0.94449 0.22225 0.01917 0.0
C5 C 0.89013 0.12932 0.01366 0.0
O6 O 0.90885 0.15058 0.04247 0.0
O7 O 0.94915 0.2089 0.92918 0.0
C8 C 0.9688 0.23547 0.04551 0.0
O9 O 0.99604 0.22775 0.04667 0.0
C10 C 0.02007 0.19618 0.97432 0.0
O11 O 0.02929 0.22531 0.95678 0.0
O12 O 0.89882 0.14052 0.98141 0.0
C13 C 0.79923 0.78158 0.09463 0.0
O14 O 0.82927 0.81302 0.09414 0.0
O15 O 0.84639 0.81549 0.0125 0.0
Zn16 Zn 0.79132 0.79424 0.01899 0.0
O17 O 0.76287 0.76016 0.97609 0.0
C18 C 0.80305 0.865 0.03353 0.0
O19 O 0.83354 0.86881 0.04985 0.0
O20 O 0.77798 0.76848 0.06586 0.0
C21 C 0.77199 0.77066 0.94378 0.0
O22 O 0.80066 0.80249 0.93963 0.0
C23 C 0.8636 0.79763 0.01054 0.0
O24 O 0.84496 0.76263 0.01155 0.0
O25 O 0.77918 0.83444 0.01949 0.0
C26 C 0.21239 -0.00032 0.92387 0.0
O27 O 0.17626 0.98729 0.92461 0.0
O28 O 0.16133 0.99106 0.00356 0.0
Zn29 Zn 0.21224 0.03217 -0.00468 0.0
O30 O 0.24635 0.04016 0.03908 0.0
C31 C 0.17875 0.0727 0.97069 0.0
O32 O 0.154 0.04099 0.95631 0.0
O33 O 0.23333 0.01997 0.95068 0.0
C34 C 0.25752 0.06711 0.06195 0.0
O35 O 0.24615 0.09056 0.05772 0.0
C36 C 0.14173 0.99359 0.02923 0.0
O37 O 0.15561 0.02265 0.05142 0.0
O38 O 0.20738 0.07616 0.98805 0.0
C39 C 0.73896 0.58408 0.27775 0.0
O40 O 0.76225 0.59864 0.30648 0.0
O41 O 0.75761 0.51657 0.32241 0.0
Zn42 Zn 0.71415 0.52572 0.32208 0.0
O43 O 0.71516 0.55551 0.36699 0.0
C44 C 0.66359 0.46216 0.35266 0.0
O45 O 0.68714 0.47893 0.38075 0.0
O46 O 0.71459 0.55121 0.27715 0.0
C47 C 0.68951 0.56388 0.3684 0.0
O48 O 0.66455 0.55306 0.34101 0.0
C49 C 0.78421 0.52963 0.34648 0.0
O50 O 0.78558 0.55238 0.37294 0.0
O51 O 0.66831 0.47761 0.32254 0.0
C52 C 0.47639 0.10627 0.41623 0.0
O53 O 0.50889 0.13548 0.41633 0.0
O54 O 0.53171 0.11763 0.33379 0.0
Zn55 Zn 0.4808 0.11312 0.33803 0.0
O56 O 0.44639 0.0836 0.29526 0.0
C57 C 0.5182 0.18977 0.34711 0.0
O58 O 0.54567 0.18482 0.35855 0.0
O59 O 0.45881 0.09164 0.38572 0.0
C60 C 0.44978 0.09877 0.26522 0.0
O61 O 0.47692 0.13174 0.2626 0.0
C62 C 0.54284 0.09855 0.34972 0.0
O63 O 0.51923 0.07118 0.36779 0.0
O64 O 0.4869 0.16283 0.33766 0.0
C65 C 0.96413 0.32821 0.41639 0.0
O66 O 0.97859 0.33534 0.38363 0.0
O67 O 0.89594 0.35825 0.37241 0.0
Zn68 Zn 0.89877 0.31272 0.37409 0.0
O69 O 0.92208 0.30461 0.32864 0.0
C70 C 0.82663 0.26561 0.34522 0.0
O71 O 0.84186 0.28501 0.31691 0.0
O72 O 0.9294 0.31656 0.41944 0.0
C73 C 0.92959 0.32341 0.30072 0.0
O74 O 0.92252 0.3502 0.30065 0.0
C75 C 0.92347 0.3895 0.37905 0.0
O76 O 0.95661 0.39356 0.38671 0.0
O77 O 0.84604 0.27193 0.37497 0.0
C78 C 0.3525 0.9352 0.6245 0.0
O79 O 0.36284 0.95269 0.65704 0.0
O80 O 0.37806 0.86827 0.67426 0.0
Zn81 Zn 0.33343 0.87538 0.66827 0.0
O82 O 0.32723 0.9022 0.71221 0.0
C83 C 0.28368 0.80781 0.69177 0.0
O84 O 0.30438 0.82328 0.72201 0.0
O85 O 0.3382 0.90135 0.6223 0.0
C86 C 0.34718 0.91141 0.7419 0.0
O87 O 0.37408 0.90346 0.74524 0.0
C88 C 0.40996 0.88793 0.66147 0.0
O89 O 0.41647 0.91698 0.64509 0.0
O90 O 0.28953 0.82582 0.66339 0.0
C91 C 0.12796 0.41476 0.73244 0.0
O92 O 0.11817 0.40177 0.69811 0.0
O93 O 0.23568 0.49188 0.70043 0.0
Zn94 Zn 0.18148 0.47767 0.69768 0.0
O95 O 0.15798 0.45229 0.6488 0.0
C96 C 0.18673 0.54145 0.73271 0.0
O97 O 0.19471 0.52929 0.76204 0.0
O98 O 0.15447 0.44649 0.73904 0.0
C99 C 0.17374 0.46084 0.6181 0.0
O100 O 0.20789 0.48762 0.61722 0.0
C101 C 0.2496 0.47242 0.68967 0.0
O102 O 0.22777 0.43951 0.6761 0.0
O103 O 0.17882 0.5232 0.70204 0.0
C104 C 0.61476 0.6805 0.58416 0.0
O105 O 0.62946 0.67637 0.61462 0.0
O106 O 0.52607 0.64434 0.64581 0.0
Zn107 Zn 0.56995 0.69227 0.6364 0.0
O108 O 0.61066 0.70742 0.67556 0.0
C109 C 0.53955 0.73273 0.66932 0.0
O110 O 0.53995 0.71457 0.69731 0.0
O111 O 0.58902 0.68873 0.58632 0.0
C112 C 0.60661 0.69072 0.70463 0.0
O113 O 0.57476 0.66196 0.71 0.0
C114 C 0.52453 0.61424 0.63883 0.0
O115 O 0.55337 0.61299 0.62517 0.0
O116 O 0.5518 0.72823 0.63854 0.0
H117 H 0.19292 0.1292 0.98209 0.0
C118 C 0.17175 0.10332 0.97009 0.0
H119 H 0.11778 0.07358 0.94521 0.0
H120 H 0.09912 0.20167 0.03383 0.0
H121 H 0.1108 0.17986 0.09035 0.0
H122 H 0.12973 0.13328 0.08791 0.0
H123 H 0.13797 0.10893 0.02927 0.0
C124 C 0.13889 0.09918 0.95781 0.0
C125 C 0.12989 0.1289 0.96017 0.0
C126 C 0.12411 0.1419 0.99491 0.0
C127 C 0.11125 0.16731 -0.00364 0.0
C128 C 0.10728 0.18118 0.03129 0.0
C129 C 0.11414 0.16908 0.06388 0.0
C130 C 0.12494 0.14297 0.0625 0.0
C131 C 0.12981 0.12937 0.02854 0.0
H132 H 0.03513 0.15579 0.98962 0.0
C133 C 0.04573 0.18158 0.97753 0.0
H134 H 0.0908 0.22255 0.95101 0.0
H135 H 0.14253 0.11277 0.88964 0.0
H136 H 0.13067 0.13469 0.83335 0.0
H137 H 0.10552 0.17659 0.8358 0.0
H138 H 0.09232 0.197 0.89444 0.0
C139 C 0.08018 0.19735 0.96423 0.0
C140 C 0.10209 0.17801 0.96318 0.0
C141 C 0.11002 0.16673 0.92862 0.0
C142 C 0.12402 0.14218 0.92715 0.0
C143 C 0.13141 0.13103 0.89227 0.0
C144 C 0.12483 0.14348 0.85977 0.0
C145 C 0.1107 0.16709 0.86115 0.0
C146 C 0.10323 0.17859 0.89506 0.0
H147 H 0.77559 0.89289 0.00906 0.0
C148 C 0.79926 0.89661 0.0261 0.0
H149 H 0.85095 0.93374 0.05189 0.0
H150 H 0.89399 0.05674 0.94644 0.0
H151 H 0.93038 0.03038 0.92221 0.0
H152 H 0.91994 0.97199 0.94199 0.0
H153 H 0.87315 0.93982 0.98643 0.0
C154 C 0.82639 0.9298 0.03631 0.0
C155 C 0.82795 0.96183 0.02063 0.0
C156 C 0.85466 0.97981 0.99383 0.0
C157 C 0.86021 0.01313 0.98199 0.0
C158 C 0.88812 0.03113 0.95619 0.0
C159 C 0.90931 0.0163 0.94201 0.0
C160 C 0.90347 0.98346 0.95317 0.0
C161 C 0.87657 0.96533 0.97879 0.0
H162 H 0.86448 0.08246 0.04701 0.0
C163 C 0.86571 0.09106 0.01906 0.0
H164 H 0.85254 0.07457 0.96261 0.0
H165 H 0.77262 0.93289 0.07039 0.0
H166 H 0.73326 0.95732 0.09172 0.0
H167 H 0.7409 0.01378 0.06886 0.0
H168 H 0.78835 0.0464 0.02481 0.0
C169 C 0.85044 0.06633 0.99077 0.0
C170 C 0.83886 0.02828 -0.00303 0.0
C171 C 0.81 0.00879 0.02137 0.0
C172 C 0.80486 0.97571 0.03367 0.0
C173 C 0.77717 0.95773 0.05955 0.0
C174 C 0.75445 0.97151 0.07207 0.0
C175 C 0.75881 0.00334 0.05926 0.0
C176 C 0.78623 0.02189 0.0342 0.0
H177 H 0.91857 0.80035 0.00605 0.0
C178 C 0.90456 0.81626 0.00868 0.0
H179 H 0.91088 0.86834 0.01309 0.0
H180 H 0.08014 0.90342 0.06705 0.0
H181 H 0.05072 0.86845 0.11964 0.0
H182 H 0.98222 0.83548 0.1231 0.0
H183 H 0.94277 0.83672 0.07379 0.0
C184 C 0.92468 0.8522 0.01128 0.0
C185 C 0.96597 0.87149 0.00952 0.0
C186 C 0.98854 0.87116 0.03919 0.0
C187 C 0.02805 0.89141 0.03798 0.0
C188 C 0.05002 0.88956 0.06722 0.0
C189 C 0.03349 0.86943 0.09746 0.0
C190 C 0.99493 0.85077 0.09935 0.0
C191 C 0.97258 0.85156 0.07069 0.0
H192 H 0.08622 0.97031 0.0532 0.0
C193 C 0.10247 0.96597 0.03207 0.0
H194 H 0.10135 0.93328 0.98592 0.0
H195 H 0.93075 0.87668 0.94752 0.0
H196 H 0.96021 0.91293 0.89578 0.0
H197 H 0.02865 0.94974 0.89472 0.0
H198 H 0.06802 0.95043 0.94527 0.0
C199 C 0.08579 0.93721 0.00806 0.0
C200 C 0.04478 0.91302 0.00787 0.0
C201 C 0.02223 0.91284 0.97794 0.0
C202 C 0.98277 0.89202 0.97877 0.0
C203 C 0.96086 0.89235 0.94854 0.0
C204 C 0.9774 0.91298 0.91861 0.0
C205 C 0.01593 0.93366 0.91799 0.0
C206 C 0.03821 0.93375 0.94722 0.0
H207 H 0.94222 0.44753 0.38491 0.0
C208 C 0.91819 0.42117 0.37912 0.0
H209 H 0.85996 0.39163 0.36866 0.0
H210 H 0.81807 0.50235 0.43915 0.0
H211 H 0.80461 0.46349 0.48986 0.0
H212 H 0.82511 0.41807 0.48941 0.0
H213 H 0.85905 0.41115 0.43803 0.0
C214 C 0.88439 0.41794 0.37311 0.0
C215 C 0.87808 0.44926 0.37594 0.0
C216 C 0.8591 0.45356 0.40655 0.0
C217 C 0.84772 0.48003 0.407 0.0
C218 C 0.82771 0.48293 0.43742 0.0
C219 C 0.81977 0.46077 0.46677 0.0
C220 C 0.83128 0.43518 0.4665 0.0
C221 C 0.85066 0.43144 0.4368 0.0
H222 H 0.80512 0.4939 0.32595 0.0
C223 C 0.81001 0.51502 0.34684 0.0
H224 H 0.84084 0.54407 0.39536 0.0
H225 H 0.91621 0.44958 0.31407 0.0
H226 H 0.93338 0.49114 0.26536 0.0
H227 H 0.91642 0.5391 0.26784 0.0
H228 H 0.88163 0.5454 0.31892 0.0
C229 C 0.83646 0.52398 0.3735 0.0
C230 C 0.85537 0.50209 0.37675 0.0
C231 C 0.87724 0.49987 0.34773 0.0
C232 C 0.8881 0.473 0.34697 0.0
C233 C 0.908 0.47002 0.31653 0.0
C234 C 0.91797 0.49367 0.28832 0.0
C235 C 0.90834 0.52062 0.28967 0.0
C236 C 0.8882 0.5238 0.31896 0.0
H237 H 0.50158 0.2294 0.33128 0.0
C238 C 0.52435 0.22619 0.34238 0.0
H239 H 0.58124 0.25189 0.35925 0.0
H240 H 0.63807 0.38706 0.26877 0.0
H241 H 0.65589 0.35104 0.22924 0.0
H242 H 0.63243 0.28715 0.23941 0.0
H243 H 0.59113 0.25899 0.28942 0.0
C244 C 0.55793 0.25501 0.34959 0.0
C245 C 0.56622 0.29136 0.33997 0.0
C246 C 0.58956 0.30717 0.31008 0.0
C247 C 0.60265 0.34383 0.30393 0.0
C248 C 0.62697 0.35924 0.27459 0.0
C249 C 0.63745 0.33885 0.25164 0.0
C250 C 0.62427 0.3029 0.25738 0.0
C251 C 0.60067 0.28711 0.28625 0.0
H252 H 0.63646 0.41157 0.38014 0.0
C253 C 0.63576 0.42423 0.35507 0.0
H254 H 0.61245 0.41624 0.301 0.0
H255 H 0.5194 0.26845 0.39803 0.0
H256 H 0.49775 0.30327 0.43458 0.0
H257 H 0.51792 0.36605 0.4217 0.0
H258 H 0.56041 0.39453 0.37241 0.0
C259 C 0.61264 0.4042 0.32665 0.0
C260 C 0.59229 0.36451 0.32777 0.0
C261 C 0.56613 0.34778 0.35542 0.0
C262 C 0.55353 0.31126 0.36198 0.0
C263 C 0.52915 0.29583 0.39122 0.0
C264 C 0.51658 0.31556 0.41249 0.0
C265 C 0.52801 0.35094 0.4053 0.0
C266 C 0.55254 0.36702 0.37714 0.0
H267 H 0.59213 0.09483 0.36853 0.0
C268 C 0.58308 0.11051 0.35301 0.0
H269 H 0.59968 0.15879 0.32699 0.0
H270 H 0.74829 0.25219 0.41829 0.0
H271 H 0.70781 0.27056 0.44945 0.0
H272 H 0.63982 0.23766 0.43665 0.0
H273 H 0.61193 0.18623 0.39257 0.0
C274 C 0.60853 0.14211 0.34088 0.0
C275 C 0.64873 0.15857 0.3516 0.0
C276 C 0.6645 0.18814 0.37802 0.0
C277 C 0.70362 0.20687 0.38567 0.0
C278 C 0.71872 0.23682 0.41157 0.0
C279 C 0.69579 0.24767 0.42968 0.0
C280 C 0.65753 0.22917 0.42245 0.0
C281 C 0.6419 0.19975 0.39698 0.0
H282 H 0.77203 0.23528 0.31612 0.0
C283 C 0.78688 0.23845 0.34224 0.0
H284 H 0.78197 0.22288 0.39727 0.0
H285 H 0.62723 0.10218 0.3005 0.0
H286 H 0.66742 0.08219 0.27134 0.0
H287 H 0.73502 0.11337 0.28639 0.0
H288 H 0.76292 0.165 0.33044 0.0
C289 C 0.76807 0.21915 0.37047 0.0
C290 C 0.72687 0.19607 0.36675 0.0
C291 C 0.71084 0.16518 0.342 0.0
C292 C 0.67172 0.14661 0.33409 0.0
C293 C 0.65665 0.11683 0.30805 0.0
C294 C 0.67942 0.10513 0.29107 0.0
C295 C 0.7175 0.12273 0.29948 0.0
C296 C 0.73319 0.15242 0.32463 0.0
H297 H 0.46401 0.89199 0.64725 0.0
C298 C 0.43788 0.87573 0.6605 0.0
H299 H 0.40357 0.82659 0.68417 0.0
H300 H 0.46628 0.73757 0.59984 0.0
H301 H 0.40668 0.71576 0.56733 0.0
H302 H 0.36865 0.74527 0.57833 0.0
H303 H 0.38979 0.79651 0.62219 0.0
C304 C 0.43032 0.84374 0.67242 0.0
C305 C 0.45486 0.82797 0.66433 0.0
C306 C 0.44225 0.79826 0.63825 0.0
C307 C 0.46441 0.78159 0.63149 0.0
C308 C 0.45079 0.75153 0.6058 0.0
C309 C 0.41658 0.7387 0.58693 0.0
C310 C 0.39517 0.75529 0.59314 0.0
C311 C 0.40764 0.78466 0.61849 0.0
H312 H 0.5115 0.7577 0.70032 0.0
C313 C 0.52305 0.75639 0.67376 0.0
H314 H 0.53054 0.77294 0.61904 0.0
H315 H 0.48682 0.88383 0.71676 0.0
H316 H 0.5477 0.90729 0.74726 0.0
H317 H 0.58761 0.88033 0.73304 0.0
H318 H 0.56663 0.82942 0.68858 0.0
C319 C 0.52037 0.77491 0.64616 0.0
C320 C 0.49915 0.79468 0.65081 0.0
C321 C 0.51245 0.82527 0.67582 0.0
C322 C 0.49 0.84161 0.68303 0.0
C323 C 0.50317 0.87102 0.70944 0.0
C324 C 0.538 0.88467 0.72727 0.0
C325 C 0.56043 0.86943 0.71934 0.0
C326 C 0.54796 0.84009 0.69394 0.0
H327 H 0.24448 0.75644 0.66215 0.0
C328 C 0.25843 0.76885 0.68872 0.0
H329 H 0.2694 0.76013 0.74331 0.0
H330 H 0.13796 0.59981 0.74063 0.0
H331 H 0.10951 0.62908 0.7763 0.0
H332 H 0.13909 0.69501 0.78238 0.0
H333 H 0.19724 0.73211 0.7527 0.0
C334 C 0.25592 0.7482 0.71646 0.0
C335 C 0.23705 0.70857 0.71098 0.0
C336 C 0.20325 0.68737 0.72862 0.0
C337 C 0.1864 0.64939 0.72544 0.0
C338 C 0.15229 0.62879 0.7428 0.0
C339 C 0.13559 0.64524 0.76317 0.0
C340 C 0.15222 0.68237 0.76657 0.0
C341 C 0.18562 0.70334 0.74948 0.0
H342 H 0.20275 0.5941 0.76051 0.0
C343 C 0.19226 0.57816 0.73452 0.0
H344 H 0.17955 0.57821 0.67791 0.0
H345 H 0.30343 0.74141 0.67553 0.0
H346 H 0.33138 0.71213 0.63972 0.0
H347 H 0.3011 0.64625 0.63257 0.0
H348 H 0.24287 0.60928 0.66174 0.0
C349 C 0.1886 0.59343 0.7044 0.0
C350 C 0.20367 0.63281 0.70494 0.0
C351 C 0.23698 0.65399 0.68644 0.0
C352 C 0.25402 0.69195 0.6899 0.0
C353 C 0.28851 0.71247 0.67297 0.0
C354 C 0.30508 0.696 0.65245 0.0
C355 C 0.28807 0.65892 0.6485 0.0
C356 C 0.25455 0.63802 0.66537 0.0
H357 H 0.30652 0.51665 0.7 0.0
C358 C 0.29042 0.48882 0.68956 0.0
H359 H 0.29277 0.445 0.66285 0.0
H360 H 0.43991 0.56019 0.588 0.0
H361 H 0.39849 0.52902 0.53485 0.0
H362 H 0.33418 0.48081 0.54276 0.0
H363 H 0.31092 0.46361 0.60396 0.0
C364 C 0.30828 0.47228 0.67483 0.0
C365 C 0.34918 0.49339 0.66994 0.0
C366 C 0.36278 0.50197 0.63394 0.0
C367 C 0.4 0.5295 0.62939 0.0
C368 C 0.41218 0.53907 0.59315 0.0
C369 C 0.38862 0.52147 0.56234 0.0
C370 C 0.3524 0.49435 0.56679 0.0
C371 C 0.3394 0.48474 0.6021 0.0
H372 H 0.48872 0.55532 0.63656 0.0
C373 C 0.48985 0.58068 0.6443 0.0
H374 H 0.46058 0.60619 0.66582 0.0
H375 H 0.33422 0.47706 0.74192 0.0
H376 H 0.37653 0.5062 0.79534 0.0
H377 H 0.44088 0.55455 0.78766 0.0
H378 H 0.4634 0.5739 0.72656 0.0
C379 C 0.45948 0.58104 0.65711 0.0
C380 C 0.42357 0.54777 0.66094 0.0
C381 C 0.41102 0.53673 0.69673 0.0
C382 C 0.37386 0.50924 0.70121 0.0
C383 C 0.362 0.49846 0.73721 0.0
C384 C 0.38604 0.51478 0.76799 0.0
C385 C 0.42229 0.54198 0.76367 0.0
C386 C 0.43481 0.55292 0.7285 0.0
H387 H 0.96866 0.24172 0.8672 0.0
C388 C 0.97945 0.25891 0.89241 0.0
H389 H 0.01781 0.31038 0.91564 0.0
H390 H 0.12653 0.34251 0.78369 0.0
H391 H 0.15669 0.32337 0.82815 0.0
H392 H 0.12594 0.29691 0.88557 0.0
H393 H 0.06482 0.28932 0.89877 0.0
C394 C 0.00542 0.29337 0.89057 0.0
C395 C 0.02271 0.30773 0.8552 0.0
C396 C 0.05869 0.3125 0.84829 0.0
C397 C 0.07662 0.32821 0.81553 0.0
C398 C 0.11208 0.33165 0.80868 0.0
C399 C 0.12959 0.32053 0.83384 0.0
C400 C 0.11227 0.3056 0.86614 0.0
C401 C 0.07721 0.3015 0.87341 0.0
H402 H 0.11755 0.40495 0.79138 0.0
C403 C 0.1082 0.39318 0.76342 0.0
H404 H 0.06849 0.34823 0.73047 0.0
H405 H 0.95308 0.30086 0.85966 0.0
H406 H 0.92215 0.31844 0.81436 0.0
H407 H 0.95334 0.34589 0.75747 0.0
H408 H 0.01564 0.35597 0.74552 0.0
C409 C 0.07906 0.36 0.75818 0.0
C410 C 0.0588 0.33978 0.79022 0.0
C411 C 0.02212 0.33349 0.79632 0.0
C412 C 0.00407 0.31755 0.829 0.0
C413 C 0.96788 0.31251 0.83506 0.0
C414 C 0.94986 0.32257 0.80934 0.0
C415 C 0.96743 0.33804 0.77732 0.0
C416 C 0.00319 0.34364 0.77079 0.0
H417 H 0.72235 0.72436 0.91733 0.0
C418 C 0.74736 0.7492 0.91204 0.0
H419 H 0.77691 0.78664 0.87247 0.0
H420 H 0.65319 0.64326 0.76922 0.0
H421 H 0.68936 0.61517 0.78742 0.0
H422 H 0.74169 0.64563 0.83333 0.0
H423 H 0.75814 0.70435 0.86136 0.0
C424 C 0.75289 0.7611 0.87785 0.0
C425 C 0.72302 0.74332 0.84855 0.0
C426 C 0.71398 0.70913 0.83233 0.0
C427 C 0.68405 0.69174 0.80562 0.0
C428 C 0.67563 0.65765 0.7897 0.0
C429 C 0.69619 0.64125 0.79985 0.0
C430 C 0.72563 0.65838 0.82573 0.0
C431 C 0.73465 0.69199 0.84177 0.0
H432 H 0.66243 0.7298 0.72748 0.0
C433 C 0.63696 0.70546 0.73301 0.0
H434 H 0.60856 0.66652 0.77175 0.0
H435 H 0.73341 0.80898 0.87427 0.0
H436 H 0.69646 0.83644 0.85715 0.0
H437 H 0.64318 0.80537 0.81241 0.0
H438 H 0.6268 0.74685 0.78435 0.0
C439 C 0.63341 0.69122 0.76588 0.0
C440 C 0.66359 0.70877 0.79497 0.0
C441 C 0.67228 0.74275 0.81165 0.0
C442 C 0.70244 0.76029 0.83803 0.0
C443 C 0.71076 0.79436 0.85408 0.0
C444 C 0.68971 0.81043 0.84458 0.0
C445 C 0.65977 0.79297 0.81935 0.0
C446 C 0.65089 0.75947 0.80317 0.0
H447 H 0.35412 0.93381 0.79949 0.0
C448 C 0.33877 0.92908 0.77336 0.0
H449 H 0.29698 0.93454 0.74457 0.0
H450 H 0.24173 0.93429 0.9144 0.0
H451 H 0.22493 0.8715 0.91078 0.0
H452 H 0.24208 0.84529 0.85734 0.0
H453 H 0.27659 0.88182 0.80754 0.0
C454 C 0.31185 0.93814 0.77075 0.0
C455 C 0.30164 0.95375 0.80307 0.0
C456 C 0.28065 0.93167 0.83145 0.0
C457 C 0.26958 0.94645 0.86156 0.0
C458 C 0.24981 0.92419 0.89027 0.0
C459 C 0.24016 0.88813 0.88865 0.0
C460 C 0.24991 0.8734 0.85862 0.0
C461 C 0.26988 0.89476 0.83027 0.0
H462 H 0.20864 0.96901 0.87187 0.0
C463 C 0.22785 0.9877 0.89334 0.0
H464 H 0.28411 0.01688 0.91297 0.0
H465 H 0.34277 0.00341 0.75382 0.0
H466 H 0.35909 0.06618 0.75722 0.0
H467 H 0.33868 0.0915 0.80883 0.0
H468 H 0.30189 0.05426 0.8574 0.0
C469 C 0.26426 -0.00235 0.89227 0.0
C470 C 0.27843 0.9829 0.8625 0.0
C471 C 0.30006 0.00511 0.83455 0.0
C472 C 0.31161 0.99046 0.80471 0.0
C473 C 0.33306 0.01315 0.77699 0.0
C474 C 0.34266 0.04921 0.77864 0.0
C475 C 0.33119 0.06348 0.80771 0.0
C476 C 0.3101 0.04181 0.8354 0.0
H477 H 0.3986 0.05387 0.2389 0.0
C478 C 0.42055 0.08119 0.23576 0.0
H479 H 0.44032 0.12646 0.20375 0.0
H480 H 0.3475 0.05014 0.05715 0.0
H481 H 0.40853 0.06028 0.03964 0.0
H482 H 0.45992 0.08056 0.08633 0.0
H483 H 0.4506 0.09106 0.15084 0.0
C484 C 0.4184 0.09927 0.20745 0.0
C485 C 0.38624 0.08336 0.18039 0.0
C486 C 0.39195 0.07672 0.14297 0.0
C487 C 0.36217 0.06453 0.11617 0.0
C488 C 0.36896 0.05902 0.07878 0.0
C489 C 0.4039 0.06477 0.06832 0.0
C490 C 0.43285 0.07622 0.0946 0.0
C491 C 0.42713 0.08222 0.13151 0.0
H492 H 0.29504 0.09788 0.10959 0.0
C493 C 0.28449 0.07326 0.09219 0.0
H494 H 0.28744 0.02588 0.08044 0.0
H495 H 0.36593 0.09536 0.24961 0.0
H496 H 0.30392 0.08115 0.26773 0.0
H497 H 0.25107 0.05471 0.22217 0.0
H498 H 0.2603 0.04319 0.15796 0.0
C499 C 0.29697 0.05012 0.09823 0.0
C500 C 0.32669 0.05881 0.12697 0.0
C501 C 0.32038 0.06335 0.16478 0.0
C502 C 0.35044 0.07668 0.19139 0.0
C503 C 0.34391 0.08368 0.22845 0.0
C504 C 0.30841 0.07588 0.23923 0.0
C505 C 0.2787 0.06115 0.21357 0.0
C506 C 0.28444 0.05492 0.17674 0.0
H507 H 0.94055 0.26165 0.07386 0.0
C508 C 0.96357 0.25604 0.07628 0.0
H509 H 0.00711 0.25991 0.11111 0.0
H510 H 0.00931 0.38043 0.22141 0.0
H511 H 0.06845 0.4139 0.19201 0.0
H512 H 0.0848 0.38706 0.1385 0.0
H513 H 0.04225 0.32646 0.11422 0.0
C514 C 0.9837 0.26486 0.10818 0.0
C515 C 0.97396 0.28088 0.14059 0.0
C516 C -0.00099 0.3164 0.15415 0.0
C517 C 0.98941 0.33202 0.18472 0.0
C518 C 0.01513 0.36737 0.1981 0.0
C519 C 0.04915 0.38688 0.18148 0.0
C520 C 0.05836 0.37175 0.15136 0.0
C521 C 0.0337 0.33694 0.13772 0.0
H522 H 0.94763 0.28976 0.26919 0.0
C523 C 0.94274 0.31245 0.26759 0.0
H524 H 0.94177 0.35036 0.23288 0.0
H525 H 0.92166 0.2102 0.12513 0.0
H526 H 0.86133 0.17803 0.15228 0.0
H527 H 0.84196 0.20742 0.20076 0.0
H528 H 0.88333 0.26885 0.22299 0.0
C529 C 0.94594 0.32734 0.23515 0.0
C530 C 0.95476 0.31211 0.20146 0.0
C531 C 0.9292 0.27694 0.18717 0.0
C532 C 0.93937 0.26082 0.15761 0.0
C533 C 0.91462 0.22456 0.14607 0.0
C534 C 0.87997 0.2056 0.16167 0.0
C535 C 0.86914 0.22208 0.18907 0.0
C536 C 0.89333 0.2573 0.20179 0.0
H537 H 0.72084 0.59241 0.22339 0.0
C538 C 0.74038 0.60559 0.24679 0.0
H539 H 0.78352 0.65456 0.27073 0.0
H540 H 0.78695 0.68652 0.09265 0.0
H541 H 0.80814 0.64299 0.08311 0.0
H542 H 0.81073 0.60848 0.13453 0.0
H543 H 0.79191 0.61713 0.19567 0.0
C544 C 0.76473 0.64075 0.24698 0.0
C545 C 0.76474 0.66238 0.21621 0.0
C546 C 0.77627 0.65717 0.18074 0.0
C547 C 0.77543 0.67752 0.1513 0.0
C548 C 0.78703 0.67182 0.11607 0.0
C549 C 0.79934 0.64695 0.1102 0.0
C550 C 0.80075 0.62749 0.13912 0.0
C551 C 0.78956 0.63254 0.17406 0.0
H552 H 0.81208 0.77238 0.15088 0.0
C553 C 0.79266 0.76039 0.12721 0.0
H554 H 0.74696 0.71325 0.10317 0.0
H555 H 0.74114 0.67903 0.28103 0.0
H556 H 0.72071 0.72316 0.29069 0.0
H557 H 0.71928 0.75846 0.23949 0.0
H558 H 0.73835 0.74985 0.17833 0.0
C559 C 0.76553 0.72616 0.12727 0.0
C560 C 0.764 0.7036 0.15768 0.0
C561 C 0.75258 0.70888 0.19314 0.0
C562 C 0.75314 0.68835 0.22253 0.0
C563 C 0.74143 0.694 0.25771 0.0
C564 C 0.72955 0.7192 0.26363 0.0
C565 C 0.72878 0.73909 0.23481 0.0
C566 C 0.73999 0.73402 0.19989 0.0
H567 H 0.16644 0.45139 0.55735 0.0
C568 C 0.15289 0.44243 0.58336 0.0
H569 H 0.10282 0.40794 0.60893 0.0
H570 H 0.0109 0.40792 0.46624 0.0
H571 H 0.00914 0.4553 0.50396 0.0
H572 H 0.04603 0.47849 0.5627 0.0
H573 H 0.08526 0.45465 0.58375 0.0
C574 C 0.11714 0.41646 0.58322 0.0
C575 C 0.09463 0.40179 0.54823 0.0
C576 C 0.07102 0.41528 0.53693 0.0
C577 C 0.049 0.40123 0.50364 0.0
C578 C 0.02714 0.41655 0.492 0.0
C579 C 0.02611 0.44403 0.51325 0.0
C580 C 0.04693 0.45713 0.54627 0.0
C581 C 0.06928 0.44314 0.55805 0.0
H582 H 0.97551 0.33379 0.47663 0.0
C583 C 0.98841 0.33861 0.44992 0.0
H584 H 0.03917 0.36193 0.42196 0.0
H585 H 0.13717 0.3703 0.56231 0.0
H586 H 0.13911 0.3228 0.52458 0.0
H587 H 0.10014 0.29764 0.46721 0.0
H588 H 0.05899 0.31981 0.44719 0.0
C589 C 0.02571 0.35713 0.44836 0.0
C590 C 0.04974 0.37281 0.48245 0.0
C591 C 0.0738 0.35972 0.4935 0.0
C592 C 0.09628 0.37422 0.52652 0.0
C593 C 0.1197 0.36036 0.5373 0.0
C594 C 0.12102 0.33307 0.51595 0.0
C595 C 0.09907 0.3189 0.48365 0.0
C596 C 0.07562 0.3319 0.47245 0.0
H597 H 0.70833 0.59246 0.42327 0.0
C598 C 0.68718 0.58421 0.40118 0.0
H599 H 0.63691 0.58233 0.38391 0.0
H600 H 0.59792 0.59101 0.55286 0.0
H601 H 0.56007 0.52707 0.53846 0.0
H602 H 0.56524 0.49959 0.4789 0.0
H603 H 0.60827 0.53591 0.43337 0.0
C604 C 0.65904 0.59141 0.40507 0.0
C605 C 0.65517 0.60841 0.44014 0.0
C606 C 0.62973 0.58679 0.46626 0.0
C607 C 0.62686 0.60259 0.50057 0.0
C608 C 0.60135 0.58038 0.52635 0.0
C609 C 0.57942 0.54363 0.51844 0.0
C610 C 0.58232 0.52816 0.48491 0.0
C611 C 0.60713 0.54933 0.45902 0.0
H612 H 0.61097 0.67423 0.52319 0.0
C613 C 0.62435 0.67122 0.54775 0.0
H614 H 0.6583 0.65126 0.56886 0.0
H615 H 0.70495 0.65751 0.39495 0.0
H616 H 0.74273 0.72157 0.40924 0.0
H617 H 0.73833 0.74893 0.46922 0.0
H618 H 0.69599 0.71241 0.51523 0.0
C619 C 0.64612 0.65603 0.5445 0.0
C620 C 0.64917 0.64 0.50842 0.0
C621 C 0.67424 0.66171 0.4821 0.0
C622 C 0.67715 0.64588 0.44777 0.0
C623 C 0.70205 0.66814 0.42168 0.0
C624 C 0.7238 0.70493 0.42949 0.0
C625 C 0.72129 0.72034 0.46325 0.0
C626 C 0.69685 0.69912 0.48937 0.0
H627 H 0.35459 0.93893 0.56409 0.0
C628 C 0.36145 0.95452 0.59038 0.0
H629 H 0.38706 0.00661 0.61674 0.0
H630 H 0.4711 0.03081 0.45712 0.0
H631 H 0.50176 0.00088 0.48426 0.0
H632 H 0.48419 0.97533 0.5452 0.0
H633 H 0.43549 0.97912 0.57904 0.0
C634 C 0.38031 0.99041 0.59088 0.0
C635 C 0.3934 0.00888 0.55608 0.0
C636 C 0.4229 0.00751 0.53735 0.0
C637 C 0.43402 0.02345 0.50296 0.0
C638 C 0.46234 0.02023 0.48394 0.0
C639 C 0.48006 0.00293 0.49911 0.0
C640 C 0.4701 0.98845 0.53336 0.0
C641 C 0.44191 0.99064 0.55239 0.0
H642 H 0.47949 0.10138 0.47623 0.0
C643 C 0.46201 0.08953 0.45124 0.0
H644 H 0.41065 0.04784 0.42847 0.0
H645 H 0.33697 0.01728 0.58574 0.0
H646 H 0.30769 0.04908 0.55961 0.0
H647 H 0.32802 0.07803 0.50058 0.0
H648 H 0.37768 0.07528 0.46724 0.0
C649 C 0.42902 0.05961 0.45287 0.0
C650 C 0.41661 0.04192 0.48817 0.0
C651 C 0.38759 0.0438 0.5072 0.0
C652 C 0.37602 0.02731 0.5413 0.0
C653 C 0.3469 0.02947 0.55978 0.0
C654 C 0.32987 0.04763 0.54509 0.0
C655 C 0.34131 0.06392 0.51184 0.0
C656 C 0.36982 0.06212 0.49299 0.0
loop_
_geom_bond_atom_site_label_1
_geom_bond_atom_site_label_2
_geom_bond_distance
_geom_bond_site_symmetry_2
_ccdc_geom_bond_type
C0 O1 1.160 . S
C0 O7 1.185 . S
O1 C0 1.160 . S
O2 Zn3 1.899 . S
O2 C10 1.284 . S
Zn3 O2 1.899 . S
Zn3 O4 2.032 . S
Zn3 O7 2.086 1_554 S
Zn3 O12 1.977 1_454 S
O4 Zn3 2.032 . S
O4 C8 1.278 . S
C5 O6 1.203 . S
C5 O12 1.267 1_554 S
O6 C5 1.203 . S
O7 C0 1.185 . S
O7 Zn3 2.086 1_556 S
C8 O4 1.278 . S
C8 O9 1.211 1_455 S
O9 C8 1.211 1_655 S
C10 O2 1.284 . S
C10 O11 1.273 . S
O11 C10 1.273 . S
O12 Zn3 1.977 1_656 S
O12 C5 1.267 1_556 S
C13 O14 1.160 . S
C13 O20 1.185 . S
O14 C13 1.160 . S
O15 Zn16 1.899 . S
O15 C23 1.284 1_554 S
Zn16 O15 1.899 . S
Zn16 O17 2.032 1_554 S
Zn16 O20 2.086 . S
Zn16 O25 1.977 . S
O17 Zn16 2.032 1_556 S
O17 C21 1.278 . S
C18 O19 1.203 1_554 S
C18 O25 1.267 . S
O19 C18 1.203 1_556 S
O20 C13 1.185 . S
O20 Zn16 2.086 . S
C21 O17 1.278 . S
C21 O22 1.211 . S
O22 C21 1.211 . S
C23 O15 1.284 1_556 S
C23 O24 1.273 . S
O24 C23 1.273 . S
O25 Zn16 1.977 . S
O25 C18 1.267 . S
C26 O27 1.160 . S
C26 O33 1.185 1_565 S
O27 C26 1.160 . S
O28 Zn29 1.899 1_565 S
O28 C36 1.284 1_556 S
Zn29 O28 1.899 1_545 S
Zn29 O30 2.032 1_556 S
Zn29 O33 2.086 . S
Zn29 O38 1.977 . S
O30 Zn29 2.032 1_554 S
O30 C34 1.278 . S
C31 O32 1.203 . S
C31 O38 1.267 1_554 S
O32 C31 1.203 . S
O33 C26 1.185 1_545 S
O33 Zn29 2.086 . S
C34 O30 1.278 . S
C34 O35 1.211 . S
O35 C34 1.211 . S
C36 O28 1.284 1_554 S
C36 O37 1.273 . S
O37 C36 1.273 . S
O38 Zn29 1.977 . S
O38 C31 1.267 1_556 S
C39 O40 1.160 . S
C39 O46 1.185 . S
O40 C39 1.160 . S
O41 Zn42 1.899 . S
O41 C49 1.284 . S
Zn42 O41 1.899 . S
Zn42 O43 2.032 . S
Zn42 O46 2.086 . S
Zn42 O51 1.977 . S
O43 Zn42 2.032 . S
O43 C47 1.278 . S
C44 O45 1.203 . S
C44 O51 1.267 . S
O45 C44 1.203 . S
O46 C39 1.185 . S
O46 Zn42 2.086 . S
C47 O43 1.278 . S
C47 O48 1.211 . S
O48 C47 1.211 . S
C49 O41 1.284 . S
C49 O50 1.273 . S
O50 C49 1.273 . S
O51 Zn42 1.977 . S
O51 C44 1.267 . S
C52 O53 1.160 . S
C52 O59 1.185 . S
O53 C52 1.160 . S
O54 Zn55 1.899 . S
O54 C62 1.284 . S
Zn55 O54 1.899 . S
Zn55 O56 2.032 . S
Zn55 O59 2.086 . S
Zn55 O64 1.977 . S
O56 Zn55 2.032 . S
O56 C60 1.278 . S
C57 O58 1.203 . S
C57 O64 1.267 . S
O58 C57 1.203 . S
O59 C52 1.185 . S
O59 Zn55 2.086 . S
C60 O56 1.278 . S
C60 O61 1.211 . S
O61 C60 1.211 . S
C62 O54 1.284 . S
C62 O63 1.273 . S
O63 C62 1.273 . S
O64 Zn55 1.977 . S
O64 C57 1.267 . S
C65 O66 1.160 . S
C65 O72 1.185 . S
O66 C65 1.160 . S
O67 Zn68 1.899 . S
O67 C75 1.284 . S
Zn68 O67 1.899 . S
Zn68 O69 2.032 . S
Zn68 O72 2.086 . S
Zn68 O77 1.977 . S
O69 Zn68 2.032 . S
O69 C73 1.278 . S
C70 O71 1.203 . S
C70 O77 1.267 . S
O71 C70 1.203 . S
O72 C65 1.185 . S
O72 Zn68 2.086 . S
C73 O69 1.278 . S
C73 O74 1.211 . S
O74 C73 1.211 . S
C75 O67 1.284 . S
C75 O76 1.273 . S
O76 C75 1.273 . S
O77 Zn68 1.977 . S
O77 C70 1.267 . S
C78 O79 1.160 . S
C78 O85 1.185 . S
O79 C78 1.160 . S
O80 Zn81 1.899 . S
O80 C88 1.284 . S
Zn81 O80 1.899 . S
Zn81 O82 2.032 . S
Zn81 O85 2.086 . S
Zn81 O90 1.977 . S
O82 Zn81 2.032 . S
O82 C86 1.278 . S
C83 O84 1.203 . S
C83 O90 1.267 . S
O84 C83 1.203 . S
O85 C78 1.185 . S
O85 Zn81 2.086 . S
C86 O82 1.278 . S
C86 O87 1.211 . S
O87 C86 1.211 . S
C88 O80 1.284 . S
C88 O89 1.273 . S
O89 C88 1.273 . S
O90 Zn81 1.977 . S
O90 C83 1.267 . S
C91 O92 1.160 . S
C91 O98 1.185 . S
O92 C91 1.160 . S
O93 Zn94 1.899 . S
O93 C101 1.284 . S
Zn94 O93 1.899 . S
Zn94 O95 2.032 . S
Zn94 O98 2.086 . S
Zn94 O103 1.977 . S
O95 Zn94 2.032 . S
O95 C99 1.278 . S
C96 O97 1.203 . S
C96 O103 1.267 . S
O97 C96 1.203 . S
O98 C91 1.185 . S
O98 Zn94 2.086 . S
C99 O95 1.278 . S
C99 O100 1.211 . S
O100 C99 1.211 . S
C101 O93 1.284 . S
C101 O102 1.273 . S
O102 C101 1.273 . S
O103 Zn94 1.977 . S
O103 C96 1.267 . S
C104 O105 1.160 . S
C104 O111 1.185 . S
O105 C104 1.160 . S
O106 Zn107 1.899 . S
O106 C114 1.284 . S
Zn107 O106 1.899 . S
Zn107 O108 2.032 . S
Zn107 O111 2.086 . S
Zn107 O116 1.977 . S
O108 Zn107 2.032 . S
O108 C112 1.278 . S
C109 O110 1.203 . S
C109 O116 1.267 . S
O110 C109 1.203 . S
O111 C104 1.185 . S
O111 Zn107 2.086 . S
C112 O108 1.278 . S
C112 O113 1.211 . S
O113 C112 1.211 . S
C114 O106 1.284 . S
C114 O115 1.273 . S
O115 C114 1.273 . S
O116 Zn107 1.977 . S
O116 C109 1.267 . S
H117 C118 0.951 . S
C118 H117 0.951 . S
C118 C124 1.265 . S
H119 C124 0.950 . S
H120 C128 0.949 . S
H121 C129 0.950 . S
H122 C130 0.951 . S
H123 C131 0.951 . S
C124 C118 1.265 . S
C124 H119 0.950 . S
C124 C125 1.478 . S
C125 C124 1.478 . S
C125 C126 1.397 . S
C125 C142 1.394 1_554 S
C126 C125 1.397 . S
C126 C127 1.438 . S
C126 C131 1.429 . S
C127 C126 1.438 . S
C127 C128 1.428 . S
C127 C140 1.394 . S
C128 H120 0.949 . S
C128 C127 1.428 . S
C128 C129 1.345 . S
C129 H121 0.950 . S
C129 C128 1.345 . S
C129 C130 1.424 . S
C130 H122 0.951 . S
C130 C129 1.424 . S
C130 C131 1.347 . S
C131 H123 0.951 . S
C131 C126 1.429 . S
C131 C130 1.347 . S
H132 C133 0.951 . S
C133 H132 0.951 . S
C133 C139 1.265 . S
H134 C139 0.950 . S
H135 C143 0.949 . S
H136 C144 0.950 . S
H137 C145 0.951 . S
H138 C146 0.951 . S
C139 C133 1.265 . S
C139 H134 0.950 . S
C139 C140 1.478 . S
C140 C127 1.394 . S
C140 C139 1.478 . S
C140 C141 1.397 1_554 S
C141 C140 1.397 1_556 S
C141 C142 1.438 . S
C141 C146 1.429 . S
C142 C125 1.394 1_556 S
C142 C141 1.438 . S
C142 C143 1.428 . S
C143 H135 0.949 . S
C143 C142 1.428 . S
C143 C144 1.345 . S
C144 H136 0.950 . S
C144 C143 1.345 . S
C144 C145 1.424 . S
C145 H137 0.951 . S
C145 C144 1.424 . S
C145 C146 1.347 . S
C146 H138 0.951 . S
C146 C141 1.429 . S
C146 C145 1.347 . S
H147 C148 0.951 . S
C148 H147 0.951 . S
C148 C154 1.265 . S
H149 C154 0.950 . S
H150 C158 0.949 . S
H151 C159 0.950 . S
H152 C160 0.951 . S
H153 C161 0.951 . S
C154 C148 1.265 . S
C154 H149 0.950 . S
C154 C155 1.478 . S
C155 C154 1.478 . S
C155 C156 1.397 1_554 S
C155 C172 1.394 . S
C156 C155 1.397 1_556 S
C156 C157 1.438 1_565 S
C156 C161 1.429 . S
C157 C156 1.438 1_545 S
C157 C158 1.428 . S
C157 C170 1.394 1_556 S
C158 H150 0.949 . S
C158 C157 1.428 . S
C158 C159 1.345 . S
C159 H151 0.950 . S
C159 C158 1.345 . S
C159 C160 1.424 1_545 S
C160 H152 0.951 . S
C160 C159 1.424 1_565 S
C160 C161 1.347 . S
C161 H153 0.951 . S
C161 C156 1.429 . S
C161 C160 1.347 . S
H162 C163 0.951 . S
C163 H162 0.951 . S
C163 C169 1.265 . S
H164 C169 0.950 . S
H165 C173 0.949 . S
H166 C174 0.948 1_565 S
H167 C175 0.951 . S
H168 C176 0.951 . S
C169 C163 1.265 . S
C169 H164 0.950 . S
C169 C170 1.478 . S
C170 C157 1.394 1_554 S
C170 C169 1.478 . S
C170 C171 1.397 . S
C171 C170 1.397 . S
C171 C172 1.438 1_545 S
C171 C176 1.429 . S
C172 C155 1.394 . S
C172 C171 1.438 1_565 S
C172 C173 1.428 . S
C173 H165 0.949 . S
C173 C172 1.428 . S
C173 C174 1.341 1_565 S
C174 H166 0.948 1_545 S
C174 C173 1.341 1_545 S
C174 C175 1.429 . S
C175 H167 0.951 . S
C175 C174 1.429 . S
C175 C176 1.347 . S
C176 H168 0.951 . S
C176 C171 1.429 . S
C176 C175 1.347 . S
H177 C178 0.951 . S
C178 H177 0.951 . S
C178 C184 1.265 1_556 S
H179 C184 0.950 . S
H180 C188 0.949 . S
H181 C189 0.950 . S
H182 C190 0.951 1_655 S
H183 C191 0.951 . S
C184 C178 1.265 1_554 S
C184 H179 0.950 . S
C184 C185 1.478 . S
C185 C184 1.478 . S
C185 C186 1.397 1_655 S
C185 C202 1.394 1_654 S
C186 C185 1.397 1_455 S
C186 C187 1.438 . S
C186 C191 1.429 1_455 S
C187 C186 1.438 . S
C187 C188 1.428 . S
C187 C200 1.394 . S
C188 H180 0.949 . S
C188 C187 1.428 . S
C188 C189 1.345 . S
C189 H181 0.950 . S
C189 C188 1.345 . S
C189 C190 1.424 . S
C190 H182 0.951 1_455 S
C190 C189 1.424 . S
C190 C191 1.347 1_455 S
C191 H183 0.951 . S
C191 C186 1.429 1_655 S
C191 C190 1.347 1_655 S
H192 C193 0.951 . S
C193 H192 0.951 . S
C193 C199 1.265 . S
H194 C199 0.950 . S
H195 C203 0.949 . S
H196 C204 0.950 1_655 S
H197 C205 0.951 . S
H198 C206 0.951 . S
C199 C193 1.265 . S
C199 H194 0.950 . S
C199 C200 1.478 . S
C200 C187 1.394 . S
C200 C199 1.478 . S
C200 C201 1.397 1_554 S
C201 C200 1.397 1_556 S
C201 C202 1.438 . S
C201 C206 1.429 . S
C202 C185 1.394 1_456 S
C202 C201 1.438 . S
C202 C203 1.428 1_455 S
C203 H195 0.949 . S
C203 C202 1.428 1_655 S
C203 C204 1.345 1_655 S
C204 H196 0.950 1_455 S
C204 C203 1.345 1_455 S
C204 C205 1.424 . S
C205 H197 0.951 . S
C205 C204 1.424 . S
C205 C206 1.347 . S
C206 H198 0.951 . S
C206 C201 1.429 . S
C206 C205 1.347 . S
H207 C208 0.951 . S
C208 H207 0.951 . S
C208 C214 1.265 . S
H209 C214 0.950 . S
H210 C218 0.949 . S
H211 C219 0.950 . S
H212 C220 0.951 . S
H213 C221 0.951 . S
C214 C208 1.265 . S
C214 H209 0.950 . S
C214 C215 1.478 . S
C215 C214 1.478 . S
C215 C216 1.397 . S
C215 C232 1.394 . S
C216 C215 1.397 . S
C216 C217 1.438 . S
C216 C221 1.429 . S
C217 C216 1.438 . S
C217 C218 1.428 . S
C217 C230 1.394 . S
C218 H210 0.949 . S
C218 C217 1.428 . S
C218 C219 1.345 . S
C219 H211 0.950 . S
C219 C218 1.345 . S
C219 C220 1.424 . S
C220 H212 0.951 . S
C220 C219 1.424 . S
C220 C221 1.347 . S
C221 H213 0.951 . S
C221 C216 1.429 . S
C221 C220 1.347 . S
H222 C223 0.951 . S
C223 H222 0.951 . S
C223 C229 1.265 . S
H224 C229 0.950 . S
H225 C233 0.949 . S
H226 C234 0.950 . S
H227 C235 0.951 . S
H228 C236 0.951 . S
C229 C223 1.265 . S
C229 H224 0.950 . S
C229 C230 1.478 . S
C230 C217 1.394 . S
C230 C229 1.478 . S
C230 C231 1.397 . S
C231 C230 1.397 . S
C231 C232 1.438 . S
C231 C236 1.429 . S
C232 C215 1.394 . S
C232 C231 1.438 . S
C232 C233 1.428 . S
C233 H225 0.949 . S
C233 C232 1.428 . S
C233 C234 1.345 . S
C234 H226 0.950 . S
C234 C233 1.345 . S
C234 C235 1.424 . S
C235 H227 0.951 . S
C235 C234 1.424 . S
C235 C236 1.347 . S
C236 H228 0.951 . S
C236 C231 1.429 . S
C236 C235 1.347 . S
H237 C238 0.951 . S
C238 H237 0.951 . S
C238 C244 1.265 . S
H239 C244 0.950 . S
H240 C248 0.949 . S
H241 C249 0.950 . S
H242 C250 0.951 . S
H243 C251 0.951 . S
C244 C238 1.265 . S
C244 H239 0.950 . S
C244 C245 1.478 . S
C245 C244 1.478 . S
C245 C246 1.397 . S
C245 C262 1.394 . S
C246 C245 1.397 . S
C246 C247 1.438 . S
C246 C251 1.429 . S
C247 C246 1.438 . S
C247 C248 1.428 . S
C247 C260 1.394 . S
C248 H240 0.949 . S
C248 C247 1.428 . S
C248 C249 1.345 . S
C249 H241 0.950 . S
C249 C248 1.345 . S
C249 C250 1.424 . S
C250 H242 0.951 . S
C250 C249 1.424 . S
C250 C251 1.347 . S
C251 H243 0.951 . S
C251 C246 1.429 . S
C251 C250 1.347 . S
H252 C253 0.951 . S
C253 H252 0.951 . S
C253 C259 1.265 . S
H254 C259 0.950 . S
H255 C263 0.949 . S
H256 C264 0.950 . S
H257 C265 0.951 . S
H258 C266 0.951 . S
C259 C253 1.265 . S
C259 H254 0.950 . S
C259 C260 1.478 . S
C260 C247 1.394 . S
C260 C259 1.478 . S
C260 C261 1.397 . S
C261 C260 1.397 . S
C261 C262 1.438 . S
C261 C266 1.429 . S
C262 C245 1.394 . S
C262 C261 1.438 . S
C262 C263 1.428 . S
C263 H255 0.949 . S
C263 C262 1.428 . S
C263 C264 1.345 . S
C264 H256 0.950 . S
C264 C263 1.345 . S
C264 C265 1.424 . S
C265 H257 0.951 . S
C265 C264 1.424 . S
C265 C266 1.347 . S
C266 H258 0.951 . S
C266 C261 1.429 . S
C266 C265 1.347 . S
H267 C268 0.951 . S
C268 H267 0.951 . S
C268 C274 1.265 . S
H269 C274 0.950 . S
H270 C278 0.949 . S
H271 C279 0.950 . S
H272 C280 0.951 . S
H273 C281 0.951 . S
C274 C268 1.265 . S
C274 H269 0.950 . S
C274 C275 1.478 . S
C275 C274 1.478 . S
C275 C276 1.397 . S
C275 C292 1.394 . S
C276 C275 1.397 . S
C276 C277 1.438 . S
C276 C281 1.429 . S
C277 C276 1.438 . S
C277 C278 1.428 . S
C277 C290 1.394 . S
C278 H270 0.949 . S
C278 C277 1.428 . S
C278 C279 1.345 . S
C279 H271 0.950 . S
C279 C278 1.345 . S
C279 C280 1.424 . S
C280 H272 0.951 . S
C280 C279 1.424 . S
C280 C281 1.347 . S
C281 H273 0.951 . S
C281 C276 1.429 . S
C281 C280 1.347 . S
H282 C283 0.951 . S
C283 H282 0.951 . S
C283 C289 1.265 . S
H284 C289 0.950 . S
H285 C293 0.949 . S
H286 C294 0.950 . S
H287 C295 0.951 . S
H288 C296 0.951 . S
C289 C283 1.265 . S
C289 H284 0.950 . S
C289 C290 1.478 . S
C290 C277 1.394 . S
C290 C289 1.478 . S
C290 C291 1.397 . S
C291 C290 1.397 . S
C291 C292 1.438 . S
C291 C296 1.429 . S
C292 C275 1.394 . S
C292 C291 1.438 . S
C292 C293 1.428 . S
C293 H285 0.949 . S
C293 C292 1.428 . S
C293 C294 1.345 . S
C294 H286 0.950 . S
C294 C293 1.345 . S
C294 C295 1.424 . S
C295 H287 0.951 . S
C295 C294 1.424 . S
C295 C296 1.347 . S
C296 H288 0.951 . S
C296 C291 1.429 . S
C296 C295 1.347 . S
H297 C298 0.951 . S
C298 H297 0.951 . S
C298 C304 1.265 . S
H299 C304 0.950 . S
H300 C308 0.949 . S
H301 C309 0.950 . S
H302 C310 0.951 . S
H303 C311 0.951 . S
C304 C298 1.265 . S
C304 H299 0.950 . S
C304 C305 1.478 . S
C305 C304 1.478 . S
C305 C306 1.397 . S
C305 C322 1.394 . S
C306 C305 1.397 . S
C306 C307 1.438 . S
C306 C311 1.429 . S
C307 C306 1.438 . S
C307 C308 1.428 . S
C307 C320 1.394 . S
C308 H300 0.949 . S
C308 C307 1.428 . S
C308 C309 1.345 . S
C309 H301 0.950 . S
C309 C308 1.345 . S
C309 C310 1.424 . S
C310 H302 0.951 . S
C310 C309 1.424 . S
C310 C311 1.347 . S
C311 H303 0.951 . S
C311 C306 1.429 . S
C311 C310 1.347 . S
H312 C313 0.951 . S
C313 H312 0.951 . S
C313 C319 1.265 . S
H314 C319 0.950 . S
H315 C323 0.949 . S
H316 C324 0.950 . S
H317 C325 0.951 . S
H318 C326 0.951 . S
C319 C313 1.265 . S
C319 H314 0.950 . S
C319 C320 1.478 . S
C320 C307 1.394 . S
C320 C319 1.478 . S
C320 C321 1.397 . S
C321 C320 1.397 . S
C321 C322 1.438 . S
C321 C326 1.429 . S
C322 C305 1.394 . S
C322 C321 1.438 . S
C322 C323 1.428 . S
C323 H315 0.949 . S
C323 C322 1.428 . S
C323 C324 1.345 . S
C324 H316 0.950 . S
C324 C323 1.345 . S
C324 C325 1.424 . S
C325 H317 0.951 . S
C325 C324 1.424 . S
C325 C326 1.347 . S
C326 H318 0.951 . S
C326 C321 1.429 . S
C326 C325 1.347 . S
H327 C328 0.951 . S
C328 H327 0.951 . S
C328 C334 1.265 . S
H329 C334 0.950 . S
H330 C338 0.949 . S
H331 C339 0.950 . S
H332 C340 0.951 . S
H333 C341 0.951 . S
C334 C328 1.265 . S
C334 H329 0.950 . S
C334 C335 1.478 . S
C335 C334 1.478 . S
C335 C336 1.397 . S
C335 C352 1.394 . S
C336 C335 1.397 . S
C336 C337 1.438 . S
C336 C341 1.429 . S
C337 C336 1.438 . S
C337 C338 1.428 . S
C337 C350 1.394 . S
C338 H330 0.949 . S
C338 C337 1.428 . S
C338 C339 1.345 . S
C339 H331 0.950 . S
C339 C338 1.345 . S
C339 C340 1.424 . S
C340 H332 0.951 . S
C340 C339 1.424 . S
C340 C341 1.347 . S
C341 H333 0.951 . S
C341 C336 1.429 . S
C341 C340 1.347 . S
H342 C343 0.951 . S
C343 H342 0.951 . S
C343 C349 1.265 . S
H344 C349 0.950 . S
H345 C353 0.949 . S
H346 C354 0.950 . S
H347 C355 0.951 . S
H348 C356 0.951 . S
C349 C343 1.265 . S
C349 H344 0.950 . S
C349 C350 1.478 . S
C350 C337 1.394 . S
C350 C349 1.478 . S
C350 C351 1.397 . S
C351 C350 1.397 . S
C351 C352 1.438 . S
C351 C356 1.429 . S
C352 C335 1.394 . S
C352 C351 1.438 . S
C352 C353 1.428 . S
C353 H345 0.949 . S
C353 C352 1.428 . S
C353 C354 1.345 . S
C354 H346 0.950 . S
C354 C353 1.345 . S
C354 C355 1.424 . S
C355 H347 0.951 . S
C355 C354 1.424 . S
C355 C356 1.347 . S
C356 H348 0.951 . S
C356 C351 1.429 . S
C356 C355 1.347 . S
H357 C358 0.951 . S
C358 H357 0.951 . S
C358 C364 1.265 . S
H359 C364 0.950 . S
H360 C368 0.949 . S
H361 C369 0.950 . S
H362 C370 0.951 . S
H363 C371 0.951 . S
C364 C358 1.265 . S
C364 H359 0.950 . S
C364 C365 1.478 . S
C365 C364 1.478 . S
C365 C366 1.397 . S
C365 C382 1.394 . S
C366 C365 1.397 . S
C366 C367 1.438 . S
C366 C371 1.429 . S
C367 C366 1.438 . S
C367 C368 1.428 . S
C367 C380 1.394 . S
C368 H360 0.949 . S
C368 C367 1.428 . S
C368 C369 1.345 . S
C369 H361 0.950 . S
C369 C368 1.345 . S
C369 C370 1.424 . S
C370 H362 0.951 . S
C370 C369 1.424 . S
C370 C371 1.347 . S
C371 H363 0.951 . S
C371 C366 1.429 . S
C371 C370 1.347 . S
H372 C373 0.951 . S
C373 H372 0.951 . S
C373 C379 1.265 . S
H374 C379 0.950 . S
H375 C383 0.949 . S
H376 C384 0.950 . S
H377 C385 0.951 . S
H378 C386 0.951 . S
C379 C373 1.265 . S
C379 H374 0.950 . S
C379 C380 1.478 . S
C380 C367 1.394 . S
C380 C379 1.478 . S
C380 C381 1.397 . S
C381 C380 1.397 . S
C381 C382 1.438 . S
C381 C386 1.429 . S
C382 C365 1.394 . S
C382 C381 1.438 . S
C382 C383 1.428 . S
C383 H375 0.949 . S
C383 C382 1.428 . S
C383 C384 1.345 . S
C384 H376 0.950 . S
C384 C383 1.345 . S
C384 C385 1.424 . S
C385 H377 0.951 . S
C385 C384 1.424 . S
C385 C386 1.347 . S
C386 H378 0.951 . S
C386 C381 1.429 . S
C386 C385 1.347 . S
H387 C388 0.951 . S
C388 H387 0.951 . S
C388 C394 1.265 . S
H389 C394 0.950 . S
H390 C398 0.949 . S
H391 C399 0.950 . S
H392 C400 0.951 . S
H393 C401 0.951 . S
C394 C388 1.265 . S
C394 H389 0.950 . S
C394 C395 1.478 . S
C395 C394 1.478 . S
C395 C396 1.397 . S
C395 C412 1.394 . S
C396 C395 1.397 . S
C396 C397 1.438 . S
C396 C401 1.429 . S
C397 C396 1.438 . S
C397 C398 1.428 . S
C397 C410 1.394 . S
C398 H390 0.949 . S
C398 C397 1.428 . S
C398 C399 1.345 . S
C399 H391 0.950 . S
C399 C398 1.345 . S
C399 C400 1.424 . S
C400 H392 0.951 . S
C400 C399 1.424 . S
C400 C401 1.347 . S
C401 H393 0.951 . S
C401 C396 1.429 . S
C401 C400 1.347 . S
H402 C403 0.951 . S
C403 H402 0.951 . S
C403 C409 1.265 . S
H404 C409 0.950 . S
H405 C413 0.948 1_655 S
H406 C414 0.950 . S
H407 C415 0.951 . S
H408 C416 0.951 . S
C409 C403 1.265 . S
C409 H404 0.950 . S
C409 C410 1.478 . S
C410 C397 1.394 . S
C410 C409 1.478 . S
C410 C411 1.397 . S
C411 C410 1.397 . S
C411 C412 1.438 . S
C411 C416 1.429 . S
C412 C395 1.394 . S
C412 C411 1.438 . S
C412 C413 1.428 . S
C413 H405 0.948 1_455 S
C413 C412 1.428 . S
C413 C414 1.345 1_455 S
C414 H406 0.950 . S
C414 C413 1.345 1_655 S
C414 C415 1.424 . S
C415 H407 0.951 . S
C415 C414 1.424 . S
C415 C416 1.347 1_655 S
C416 H408 0.951 . S
C416 C411 1.429 . S
C416 C415 1.347 1_455 S
H417 C418 0.951 . S
C418 H417 0.951 . S
C418 C424 1.265 . S
H419 C424 0.950 . S
H420 C428 0.949 . S
H421 C429 0.950 . S
H422 C430 0.951 . S
H423 C431 0.951 . S
C424 C418 1.265 . S
C424 H419 0.950 . S
C424 C425 1.478 . S
C425 C424 1.478 . S
C425 C426 1.397 . S
C425 C442 1.394 . S
C426 C425 1.397 . S
C426 C427 1.438 . S
C426 C431 1.429 . S
C427 C426 1.438 . S
C427 C428 1.428 . S
C427 C440 1.394 . S
C428 H420 0.949 . S
C428 C427 1.428 . S
C428 C429 1.345 . S
C429 H421 0.950 . S
C429 C428 1.345 . S
C429 C430 1.424 . S
C430 H422 0.951 . S
C430 C429 1.424 . S
C430 C431 1.347 . S
C431 H423 0.951 . S
C431 C426 1.429 . S
C431 C430 1.347 . S
H432 C433 0.951 . S
C433 H432 0.951 . S
C433 C439 1.265 . S
H434 C439 0.950 . S
H435 C443 0.949 . S
H436 C444 0.950 . S
H437 C445 0.951 . S
H438 C446 0.951 . S
C439 C433 1.265 . S
C439 H434 0.950 . S
C439 C440 1.478 . S
C440 C427 1.394 . S
C440 C439 1.478 . S
C440 C441 1.397 . S
C441 C440 1.397 . S
C441 C442 1.438 . S
C441 C446 1.429 . S
C442 C425 1.394 . S
C442 C441 1.438 . S
C442 C443 1.428 . S
C443 H435 0.949 . S
C443 C442 1.428 . S
C443 C444 1.345 . S
C444 H436 0.950 . S
C444 C443 1.345 . S
C444 C445 1.424 . S
C445 H437 0.951 . S
C445 C444 1.424 . S
C445 C446 1.347 . S
C446 H438 0.951 . S
C446 C441 1.429 . S
C446 C445 1.347 . S
H447 C448 0.951 . S
C448 H447 0.951 . S
C448 C454 1.265 . S
H449 C454 0.950 . S
H450 C458 0.949 . S
H451 C459 0.950 . S
H452 C460 0.951 . S
H453 C461 0.951 . S
C454 C448 1.265 . S
C454 H449 0.950 . S
C454 C455 1.478 . S
C455 C454 1.478 . S
C455 C456 1.397 . S
C455 C472 1.394 . S
C456 C455 1.397 . S
C456 C457 1.438 . S
C456 C461 1.429 . S
C457 C456 1.438 . S
C457 C458 1.428 . S
C457 C470 1.394 . S
C458 H450 0.949 . S
C458 C457 1.428 . S
C458 C459 1.345 . S
C459 H451 0.950 . S
C459 C458 1.345 . S
C459 C460 1.424 . S
C460 H452 0.951 . S
C460 C459 1.424 . S
C460 C461 1.347 . S
C461 H453 0.951 . S
C461 C456 1.429 . S
C461 C460 1.347 . S
H462 C463 0.951 . S
C463 H462 0.951 . S
C463 C469 1.265 . S
H464 C469 0.950 1_545 S
H465 C473 0.949 . S
H466 C474 0.950 . S
H467 C475 0.951 . S
H468 C476 0.951 . S
C469 C463 1.265 . S
C469 H464 0.950 1_565 S
C469 C470 1.478 . S
C470 C457 1.394 . S
C470 C469 1.478 . S
C470 C471 1.397 . S
C471 C470 1.397 . S
C471 C472 1.438 . S
C471 C476 1.429 1_565 S
C472 C455 1.394 . S
C472 C471 1.438 . S
C472 C473 1.428 . S
C473 H465 0.949 . S
C473 C472 1.428 . S
C473 C474 1.345 1_565 S
C474 H466 0.950 . S
C474 C473 1.345 1_545 S
C474 C475 1.424 . S
C475 H467 0.951 . S
C475 C474 1.424 . S
C475 C476 1.347 . S
C476 H468 0.951 . S
C476 C471 1.429 1_545 S
C476 C475 1.347 . S
H477 C478 0.951 . S
C478 H477 0.951 . S
C478 C484 1.265 . S
H479 C484 0.950 . S
H480 C488 0.949 . S
H481 C489 0.950 . S
H482 C490 0.951 . S
H483 C491 0.951 . S
C484 C478 1.265 . S
C484 H479 0.950 . S
C484 C485 1.478 . S
C485 C484 1.478 . S
C485 C486 1.397 . S
C485 C502 1.394 . S
C486 C485 1.397 . S
C486 C487 1.438 . S
C486 C491 1.429 . S
C487 C486 1.438 . S
C487 C488 1.428 . S
C487 C500 1.394 . S
C488 H480 0.949 . S
C488 C487 1.428 . S
C488 C489 1.345 . S
C489 H481 0.950 . S
C489 C488 1.345 . S
C489 C490 1.424 . S
C490 H482 0.951 . S
C490 C489 1.424 . S
C490 C491 1.347 . S
C491 H483 0.951 . S
C491 C486 1.429 . S
C491 C490 1.347 . S
H492 C493 0.951 . S
C493 H492 0.951 . S
C493 C499 1.265 . S
H494 C499 0.950 . S
H495 C503 0.949 . S
H496 C504 0.950 . S
H497 C505 0.951 . S
H498 C506 0.951 . S
C499 C493 1.265 . S
C499 H494 0.950 . S
C499 C500 1.478 . S
C500 C487 1.394 . S
C500 C499 1.478 . S
C500 C501 1.397 . S
C501 C500 1.397 . S
C501 C502 1.438 . S
C501 C506 1.429 . S
C502 C485 1.394 . S
C502 C501 1.438 . S
C502 C503 1.428 . S
C503 H495 0.949 . S
C503 C502 1.428 . S
C503 C504 1.345 . S
C504 H496 0.950 . S
C504 C503 1.345 . S
C504 C505 1.424 . S
C505 H497 0.951 . S
C505 C504 1.424 . S
C505 C506 1.347 . S
C506 H498 0.951 . S
C506 C501 1.429 . S
C506 C505 1.347 . S
H507 C508 0.951 . S
C508 H507 0.951 . S
C508 C514 1.265 1_655 S
H509 C514 0.950 . S
H510 C518 0.949 . S
H511 C519 0.950 . S
H512 C520 0.951 . S
H513 C521 0.951 . S
C514 C508 1.265 1_455 S
C514 H509 0.950 . S
C514 C515 1.478 1_455 S
C515 C514 1.478 1_655 S
C515 C516 1.396 . S
C515 C532 1.394 . S
C516 C515 1.396 . S
C516 C517 1.439 . S
C516 C521 1.428 1_655 S
C517 C516 1.439 . S
C517 C518 1.428 . S
C517 C530 1.394 . S
C518 H510 0.949 . S
C518 C517 1.428 . S
C518 C519 1.345 1_655 S
C519 H511 0.950 . S
C519 C518 1.345 1_455 S
C519 C520 1.424 . S
C520 H512 0.951 . S
C520 C519 1.424 . S
C520 C521 1.347 . S
C521 H513 0.951 . S
C521 C516 1.428 1_455 S
C521 C520 1.347 . S
H522 C523 0.951 . S
C523 H522 0.951 . S
C523 C529 1.265 . S
H524 C529 0.950 . S
H525 C533 0.949 . S
H526 C534 0.950 . S
H527 C535 0.951 . S
H528 C536 0.951 . S
C529 C523 1.265 . S
C529 H524 0.950 . S
C529 C530 1.478 . S
C530 C517 1.394 . S
C530 C529 1.478 . S
C530 C531 1.397 . S
C531 C530 1.397 . S
C531 C532 1.438 . S
C531 C536 1.429 . S
C532 C515 1.394 . S
C532 C531 1.438 . S
C532 C533 1.428 . S
C533 H525 0.949 . S
C533 C532 1.428 . S
C533 C534 1.345 . S
C534 H526 0.950 . S
C534 C533 1.345 . S
C534 C535 1.424 . S
C535 H527 0.951 . S
C535 C534 1.424 . S
C535 C536 1.347 . S
C536 H528 0.951 . S
C536 C531 1.429 . S
C536 C535 1.347 . S
H537 C538 0.951 . S
C538 H537 0.951 . S
C538 C544 1.265 . S
H539 C544 0.950 . S
H540 C548 0.949 . S
H541 C549 0.950 . S
H542 C550 0.951 . S
H543 C551 0.951 . S
C544 C538 1.265 . S
C544 H539 0.950 . S
C544 C545 1.478 . S
C545 C544 1.478 . S
C545 C546 1.397 . S
C545 C562 1.394 . S
C546 C545 1.397 . S
C546 C547 1.438 . S
C546 C551 1.429 . S
C547 C546 1.438 . S
C547 C548 1.428 . S
C547 C560 1.394 . S
C548 H540 0.949 . S
C548 C547 1.428 . S
C548 C549 1.345 . S
C549 H541 0.950 . S
C549 C548 1.345 . S
C549 C550 1.424 . S
C550 H542 0.951 . S
C550 C549 1.424 . S
C550 C551 1.347 . S
C551 H543 0.951 . S
C551 C546 1.429 . S
C551 C550 1.347 . S
H552 C553 0.951 . S
C553 H552 0.951 . S
C553 C559 1.265 . S
H554 C559 0.950 . S
H555 C563 0.949 . S
H556 C564 0.950 . S
H557 C565 0.951 . S
H558 C566 0.951 . S
C559 C553 1.265 . S
C559 H554 0.950 . S
C559 C560 1.478 . S
C560 C547 1.394 . S
C560 C559 1.478 . S
C560 C561 1.397 . S
C561 C560 1.397 . S
C561 C562 1.438 . S
C561 C566 1.429 . S
C562 C545 1.394 . S
C562 C561 1.438 . S
C562 C563 1.428 . S
C563 H555 0.949 . S
C563 C562 1.428 . S
C563 C564 1.345 . S
C564 H556 0.950 . S
C564 C563 1.345 . S
C564 C565 1.424 . S
C565 H557 0.951 . S
C565 C564 1.424 . S
C565 C566 1.347 . S
C566 H558 0.951 . S
C566 C561 1.429 . S
C566 C565 1.347 . S
H567 C568 0.951 . S
C568 H567 0.951 . S
C568 C574 1.265 . S
H569 C574 0.950 . S
H570 C578 0.949 . S
H571 C579 0.950 . S
H572 C580 0.951 . S
H573 C581 0.951 . S
C574 C568 1.265 . S
C574 H569 0.950 . S
C574 C575 1.478 . S
C575 C574 1.478 . S
C575 C576 1.397 . S
C575 C592 1.394 . S
C576 C575 1.397 . S
C576 C577 1.438 . S
C576 C581 1.429 . S
C577 C576 1.438 . S
C577 C578 1.428 1_455 S
C577 C590 1.394 . S
C578 H570 0.949 . S
C578 C577 1.428 1_655 S
C578 C579 1.345 . S
C579 H571 0.950 . S
C579 C578 1.345 . S
C579 C580 1.424 1_655 S
C580 H572 0.951 . S
C580 C579 1.424 1_455 S
C580 C581 1.347 . S
C581 H573 0.951 . S
C581 C576 1.429 . S
C581 C580 1.347 . S
H582 C583 0.951 . S
C583 H582 0.951 . S
C583 C589 1.275 . S
H584 C589 0.943 1_455 S
H585 C593 0.949 . S
H586 C594 0.950 . S
H587 C595 0.951 . S
H588 C596 0.951 . S
C589 C583 1.275 . S
C589 H584 0.943 1_655 S
C589 C590 1.474 1_655 S
C590 C577 1.394 . S
C590 C589 1.474 1_455 S
C590 C591 1.397 . S
C591 C590 1.397 . S
C591 C592 1.438 . S
C591 C596 1.429 . S
C592 C575 1.394 . S
C592 C591 1.438 . S
C592 C593 1.428 . S
C593 H585 0.949 . S
C593 C592 1.428 . S
C593 C594 1.345 . S
C594 H586 0.950 . S
C594 C593 1.345 . S
C594 C595 1.424 . S
C595 H587 0.951 . S
C595 C594 1.424 . S
C595 C596 1.347 . S
C596 H588 0.951 . S
C596 C591 1.429 . S
C596 C595 1.347 . S
H597 C598 0.951 . S
C598 H597 0.951 . S
C598 C604 1.265 . S
H599 C604 0.950 . S
H600 C608 0.949 . S
H601 C609 0.950 . S
H602 C610 0.951 . S
H603 C611 0.951 . S
C604 C598 1.265 . S
C604 H599 0.950 . S
C604 C605 1.478 . S
C605 C604 1.478 . S
C605 C606 1.397 . S
C605 C622 1.394 . S
C606 C605 1.397 . S
C606 C607 1.438 . S
C606 C611 1.429 . S
C607 C606 1.438 . S
C607 C608 1.428 . S
C607 C620 1.394 . S
C608 H600 0.949 . S
C608 C607 1.428 . S
C608 C609 1.345 . S
C609 H601 0.950 . S
C609 C608 1.345 . S
C609 C610 1.424 . S
C610 H602 0.951 . S
C610 C609 1.424 . S
C610 C611 1.347 . S
C611 H603 0.951 . S
C611 C606 1.429 . S
C611 C610 1.347 . S
H612 C613 0.951 . S
C613 H612 0.951 . S
C613 C619 1.265 . S
H614 C619 0.950 . S
H615 C623 0.949 . S
H616 C624 0.950 . S
H617 C625 0.951 . S
H618 C626 0.951 . S
C619 C613 1.265 . S
C619 H614 0.950 . S
C619 C620 1.478 . S
C620 C607 1.394 . S
C620 C619 1.478 . S
C620 C621 1.397 . S
C621 C620 1.397 . S
C621 C622 1.438 . S
C621 C626 1.429 . S
C622 C605 1.394 . S
C622 C621 1.438 . S
C622 C623 1.428 . S
C623 H615 0.949 . S
C623 C622 1.428 . S
C623 C624 1.345 . S
C624 H616 0.950 . S
C624 C623 1.345 . S
C624 C625 1.424 . S
C625 H617 0.951 . S
C625 C624 1.424 . S
C625 C626 1.347 . S
C626 H618 0.951 . S
C626 C621 1.429 . S
C626 C625 1.347 . S
H627 C628 0.951 . S
C628 H627 0.951 . S
C628 C634 1.265 . S
H629 C634 0.950 . S
H630 C638 0.949 1_545 S
H631 C639 0.950 . S
H632 C640 0.951 . S
H633 C641 0.951 . S
C634 C628 1.265 . S
C634 H629 0.950 . S
C634 C635 1.478 . S
C635 C634 1.478 . S
C635 C636 1.397 . S
C635 C652 1.394 1_565 S
C636 C635 1.397 . S
C636 C637 1.438 1_565 S
C636 C641 1.429 . S
C637 C636 1.438 1_545 S
C637 C638 1.428 1_545 S
C637 C650 1.394 . S
C638 H630 0.949 1_565 S
C638 C637 1.428 1_565 S
C638 C639 1.345 . S
C639 H631 0.950 . S
C639 C638 1.345 . S
C639 C640 1.424 . S
C640 H632 0.951 . S
C640 C639 1.424 . S
C640 C641 1.347 . S
C641 H633 0.951 . S
C641 C636 1.429 . S
C641 C640 1.347 . S
H642 C643 0.951 . S
C643 H642 0.951 . S
C643 C649 1.265 . S
H644 C649 0.950 . S
H645 C653 0.949 . S
H646 C654 0.950 . S
H647 C655 0.951 . S
H648 C656 0.951 . S
C649 C643 1.265 . S
C649 H644 0.950 . S
C649 C650 1.478 . S
C650 C637 1.394 . S
C650 C649 1.478 . S
C650 C651 1.397 . S
C651 C650 1.397 . S
C651 C652 1.438 . S
C651 C656 1.429 . S
C652 C635 1.394 1_545 S
C652 C651 1.438 . S
C652 C653 1.428 . S
C653 H645 0.949 . S
C653 C652 1.428 . S
C653 C654 1.345 . S
C654 H646 0.950 . S
C654 C653 1.345 . S
C654 C655 1.424 . S
C655 H647 0.951 . S
C655 C654 1.424 . S
C655 C656 1.347 . S
C656 H648 0.951 . S
C656 C651 1.429 . S
C656 C655 1.347 . S
C118 C31 1.006 . S
C133 C10 0.938 . S
C148 C18 1.025 . S
C163 C5 0.854 . S
C178 C23 1.017 . S
C193 C36 0.942 . S
C208 C75 0.998 . S
C223 C49 0.920 . S
C238 C57 0.996 . S
C253 C44 0.829 . S
C268 C62 1.019 . S
C283 C70 0.850 . S
C298 C88 1.005 . S
C313 C109 0.844 . S
C328 C83 0.981 . S
C343 C96 0.852 . S
C358 C101 0.921 . S
C373 C114 0.999 . S
C388 C0 1.272 . S
C403 C91 1.299 . S
C418 C21 1.265 . S
C433 C112 1.322 . S
C448 C86 1.275 . S
C463 C26 1.188 . S
C478 C60 1.272 . S
C493 C34 1.207 . S
C508 C8 1.243 1_655 S
C523 C73 1.308 . S
C538 C39 1.326 . S
C553 C13 1.220 . S
C568 C99 1.247 . S
C583 C65 1.247 . S
C598 C47 1.321 . S
C613 C104 1.247 . S
C628 C78 1.343 . S
C643 C52 1.236 . S
