# Generated by pormake.
# Topology umq, (4)-cn, num edge types: 1
# Building blocks:
#     Node 0, Type 0, BuildingBlock: TATPOV_clean_sbu_0, # of connection points: 4
#     Node 1, Type 0, BuildingBlock: TATPOV_clean_sbu_0, # of connection points: 4
#     Node 2, Type 0, BuildingBlock: TATPOV_clean_sbu_0, # of connection points: 4
#     Node 3, Type 0, BuildingBlock: TATPOV_clean_sbu_0, # of connection points: 4
#     Node 4, Type 0, BuildingBlock: TATPOV_clean_sbu_0, # of connection points: 4
#     Node 5, Type 0, BuildingBlock: TATPOV_clean_sbu_0, # of connection points: 4
#     Node 6, Type 0, BuildingBlock: TATPOV_clean_sbu_0, # of connection points: 4
#     Node 7, Type 0, BuildingBlock: TATPOV_clean_sbu_0, # of connection points: 4
#     Node 8, Type 0, BuildingBlock: TATPOV_clean_sbu_0, # of connection points: 4
#     Node 9, Type 0, BuildingBlock: TATPOV_clean_sbu_0, # of connection points: 4
#     Node 10, Type 0, BuildingBlock: TATPOV_clean_sbu_0, # of connection points: 4
#     Node 11, Type 0, BuildingBlock: TATPOV_clean_sbu_0, # of connection points: 4
#     Node 12, Type 0, BuildingBlock: TATPOV_clean_sbu_0, # of connection points: 4
#     Node 13, Type 0, BuildingBlock: TATPOV_clean_sbu_0, # of connection points: 4
#     Node 14, Type 0, BuildingBlock: TATPOV_clean_sbu_0, # of connection points: 4
#     Node 15, Type 0, BuildingBlock: TATPOV_clean_sbu_0, # of connection points: 4
#     Node 16, Type 0, BuildingBlock: TATPOV_clean_sbu_0, # of connection points: 4
#     Node 17, Type 0, BuildingBlock: TATPOV_clean_sbu_0, # of connection points: 4
#     Node 18, Type 0, BuildingBlock: TATPOV_clean_sbu_0, # of connection points: 4
#     Node 19, Type 0, BuildingBlock: TATPOV_clean_sbu_0, # of connection points: 4
#     Node 20, Type 0, BuildingBlock: TATPOV_clean_sbu_0, # of connection points: 4
#     Node 21, Type 0, BuildingBlock: TATPOV_clean_sbu_0, # of connection points: 4
#     Node 22, Type 0, BuildingBlock: TATPOV_clean_sbu_0, # of connection points: 4
#     Node 23, Type 0, BuildingBlock: TATPOV_clean_sbu_0, # of connection points: 4
#     Node 24, Type 0, BuildingBlock: TATPOV_clean_sbu_0, # of connection points: 4
#     Node 25, Type 0, BuildingBlock: TATPOV_clean_sbu_0, # of connection points: 4
#     Node 26, Type 0, BuildingBlock: TATPOV_clean_sbu_0, # of connection points: 4
#     Node 27, Type 0, BuildingBlock: TATPOV_clean_sbu_0, # of connection points: 4
#     Node 28, Type 0, BuildingBlock: TATPOV_clean_sbu_0, # of connection points: 4
#     Node 29, Type 0, BuildingBlock: TATPOV_clean_sbu_0, # of connection points: 4
#     Node 30, Type 0, BuildingBlock: TATPOV_clean_sbu_0, # of connection points: 4
#     Node 31, Type 0, BuildingBlock: TATPOV_clean_sbu_0, # of connection points: 4
#     Edge 32, Type (0, 0), BuildingBlock: MIFKUJ_clean_linker_0, # of connection points: 2
#     Edge 33, Type (0, 0), BuildingBlock: MIFKUJ_clean_linker_0, # of connection points: 2
#     Edge 34, Type (0, 0), BuildingBlock: MIFKUJ_clean_linker_0, # of connection points: 2
#     Edge 35, Type (0, 0), BuildingBlock: MIFKUJ_clean_linker_0, # of connection points: 2
#     Edge 36, Type (0, 0), BuildingBlock: MIFKUJ_clean_linker_0, # of connection points: 2
#     Edge 37, Type (0, 0), BuildingBlock: MIFKUJ_clean_linker_0, # of connection points: 2
#     Edge 38, Type (0, 0), BuildingBlock: MIFKUJ_clean_linker_0, # of connection points: 2
#     Edge 39, Type (0, 0), BuildingBlock: MIFKUJ_clean_linker_0, # of connection points: 2
#     Edge 40, Type (0, 0), BuildingBlock: MIFKUJ_clean_linker_0, # of connection points: 2
#     Edge 41, Type (0, 0), BuildingBlock: MIFKUJ_clean_linker_0, # of connection points: 2
#     Edge 42, Type (0, 0), BuildingBlock: MIFKUJ_clean_linker_0, # of connection points: 2
#     Edge 43, Type (0, 0), BuildingBlock: MIFKUJ_clean_linker_0, # of connection points: 2
#     Edge 44, Type (0, 0), BuildingBlock: MIFKUJ_clean_linker_0, # of connection points: 2
#     Edge 45, Type (0, 0), BuildingBlock: MIFKUJ_clean_linker_0, # of connection points: 2
#     Edge 46, Type (0, 0), BuildingBlock: MIFKUJ_clean_linker_0, # of connection points: 2
#     Edge 47, Type (0, 0), BuildingBlock: MIFKUJ_clean_linker_0, # of connection points: 2
#     Edge 48, Type (0, 0), BuildingBlock: MIFKUJ_clean_linker_0, # of connection points: 2
#     Edge 49, Type (0, 0), BuildingBlock: MIFKUJ_clean_linker_0, # of connection points: 2
#     Edge 50, Type (0, 0), BuildingBlock: MIFKUJ_clean_linker_0, # of connection points: 2
#     Edge 51, Type (0, 0), BuildingBlock: MIFKUJ_clean_linker_0, # of connection points: 2
#     Edge 52, Type (0, 0), BuildingBlock: MIFKUJ_clean_linker_0, # of connection points: 2
#     Edge 53, Type (0, 0), BuildingBlock: MIFKUJ_clean_linker_0, # of connection points: 2
#     Edge 54, Type (0, 0), BuildingBlock: MIFKUJ_clean_linker_0, # of connection points: 2
#     Edge 55, Type (0, 0), BuildingBlock: MIFKUJ_clean_linker_0, # of connection points: 2
#     Edge 56, Type (0, 0), BuildingBlock: MIFKUJ_clean_linker_0, # of connection points: 2
#     Edge 57, Type (0, 0), BuildingBlock: MIFKUJ_clean_linker_0, # of connection points: 2
#     Edge 58, Type (0, 0), BuildingBlock: MIFKUJ_clean_linker_0, # of connection points: 2
#     Edge 59, Type (0, 0), BuildingBlock: MIFKUJ_clean_linker_0, # of connection points: 2
#     Edge 60, Type (0, 0), BuildingBlock: MIFKUJ_clean_linker_0, # of connection points: 2
#     Edge 61, Type (0, 0), BuildingBlock: MIFKUJ_clean_linker_0, # of connection points: 2
#     Edge 62, Type (0, 0), BuildingBlock: MIFKUJ_clean_linker_0, # of connection points: 2
#     Edge 63, Type (0, 0), BuildingBlock: MIFKUJ_clean_linker_0, # of connection points: 2
#     Edge 64, Type (0, 0), BuildingBlock: MIFKUJ_clean_linker_0, # of connection points: 2
#     Edge 65, Type (0, 0), BuildingBlock: MIFKUJ_clean_linker_0, # of connection points: 2
#     Edge 66, Type (0, 0), BuildingBlock: MIFKUJ_clean_linker_0, # of connection points: 2
#     Edge 67, Type (0, 0), BuildingBlock: MIFKUJ_clean_linker_0, # of connection points: 2
#     Edge 68, Type (0, 0), BuildingBlock: MIFKUJ_clean_linker_0, # of connection points: 2
#     Edge 69, Type (0, 0), BuildingBlock: MIFKUJ_clean_linker_0, # of connection points: 2
#     Edge 70, Type (0, 0), BuildingBlock: MIFKUJ_clean_linker_0, # of connection points: 2
#     Edge 71, Type (0, 0), BuildingBlock: MIFKUJ_clean_linker_0, # of connection points: 2
#     Edge 72, Type (0, 0), BuildingBlock: MIFKUJ_clean_linker_0, # of connection points: 2
#     Edge 73, Type (0, 0), BuildingBlock: MIFKUJ_clean_linker_0, # of connection points: 2
#     Edge 74, Type (0, 0), BuildingBlock: MIFKUJ_clean_linker_0, # of connection points: 2
#     Edge 75, Type (0, 0), BuildingBlock: MIFKUJ_clean_linker_0, # of connection points: 2
#     Edge 76, Type (0, 0), BuildingBlock: MIFKUJ_clean_linker_0, # of connection points: 2
#     Edge 77, Type (0, 0), BuildingBlock: MIFKUJ_clean_linker_0, # of connection points: 2
#     Edge 78, Type (0, 0), BuildingBlock: MIFKUJ_clean_linker_0, # of connection points: 2
#     Edge 79, Type (0, 0), BuildingBlock: MIFKUJ_clean_linker_0, # of connection points: 2
#     Edge 80, Type (0, 0), BuildingBlock: MIFKUJ_clean_linker_0, # of connection points: 2
#     Edge 81, Type (0, 0), BuildingBlock: MIFKUJ_clean_linker_0, # of connection points: 2
#     Edge 82, Type (0, 0), BuildingBlock: MIFKUJ_clean_linker_0, # of connection points: 2
#     Edge 83, Type (0, 0), BuildingBlock: MIFKUJ_clean_linker_0, # of connection points: 2
#     Edge 84, Type (0, 0), BuildingBlock: MIFKUJ_clean_linker_0, # of connection points: 2
#     Edge 85, Type (0, 0), BuildingBlock: MIFKUJ_clean_linker_0, # of connection points: 2
#     Edge 86, Type (0, 0), BuildingBlock: MIFKUJ_clean_linker_0, # of connection points: 2
#     Edge 87, Type (0, 0), BuildingBlock: MIFKUJ_clean_linker_0, # of connection points: 2
#     Edge 88, Type (0, 0), BuildingBlock: MIFKUJ_clean_linker_0, # of connection points: 2
#     Edge 89, Type (0, 0), BuildingBlock: MIFKUJ_clean_linker_0, # of connection points: 2
#     Edge 90, Type (0, 0), BuildingBlock: MIFKUJ_clean_linker_0, # of connection points: 2
#     Edge 91, Type (0, 0), BuildingBlock: MIFKUJ_clean_linker_0, # of connection points: 2
#     Edge 92, Type (0, 0), BuildingBlock: MIFKUJ_clean_linker_0, # of connection points: 2
#     Edge 93, Type (0, 0), BuildingBlock: MIFKUJ_clean_linker_0, # of connection points: 2
#     Edge 94, Type (0, 0), BuildingBlock: MIFKUJ_clean_linker_0, # of connection points: 2
#     Edge 95, Type (0, 0), BuildingBlock: MIFKUJ_clean_linker_0, # of connection points: 2
# Relax obj value: 0.063
# Max RMSD: 0.082
# Mean RMSD: 0.082
data_MOF--net-umq--node1-TATPOV_clean_sbu_0--edge1-MIFKUJ_clean_linker_0
_symmetry_space_group_name_H-M    P1
_symmetry_Int_Tables_number       1
_symmetry_cell_setting            triclinic
loop_
_symmetry_equiv_pos_as_xyz
'x, y, z'
_cell_length_a     85.720185
_cell_length_b     85.736739
_cell_length_c     57.324838
_cell_angle_alpha  90.010771
_cell_angle_beta   89.994089
_cell_angle_gamma 90.009012
loop_
_atom_site_label
_atom_site_type_symbol
_atom_site_fract_x
_atom_site_fract_y
_atom_site_fract_z
_atom_type_partial_charge
Zn0 Zn 0.22846 0.12443 0.12911 0.0
Zn1 Zn 0.23619 0.10127 0.15774 0.0
O2 O 0.23356 0.09022 0.12578 0.0
O3 O 0.22687 0.10947 0.10242 0.0
O4 O 0.24036 0.08329 0.17953 0.0
O5 O 0.20914 0.12924 0.14728 0.0
O6 O 0.21608 0.11089 0.17205 0.0
C7 C 0.22964 0.09514 0.10564 0.0
C8 C 0.2586 0.12864 0.15121 0.0
O9 O 0.25567 0.1154 0.16037 0.0
O10 O 0.24882 0.13487 0.1375 0.0
C11 C 0.24999 0.07249 0.17464 0.0
O12 O 0.25802 0.07334 0.15516 0.0
C13 C 0.20663 0.1216 0.16577 0.0
Zn14 Zn 0.88073 0.22106 0.13798 0.0
Zn15 Zn 0.90212 0.23265 0.16663 0.0
O16 O 0.91364 0.22952 0.1351 0.0
O17 O 0.89619 0.21867 0.11211 0.0
O18 O 0.9197 0.23966 0.18757 0.0
O19 O 0.87667 0.20295 0.15903 0.0
O20 O 0.89359 0.213 0.18372 0.0
C21 C 0.90988 0.2237 0.11543 0.0
C22 C 0.87373 0.25237 0.15496 0.0
O23 O 0.88658 0.25095 0.16598 0.0
O24 O 0.86889 0.24135 0.14211 0.0
C25 C 0.92956 0.24967 0.18047 0.0
O26 O 0.9276 0.2561 0.15987 0.0
C27 C 0.88377 0.2024 0.17835 0.0
Zn28 Zn 0.77692 0.87853 0.1441 0.0
Zn29 Zn 0.7648 0.90195 0.16881 0.0
O30 O 0.76781 0.91088 0.13539 0.0
O31 O 0.77865 0.89178 0.11556 0.0
O32 O 0.75743 0.92048 0.18799 0.0
O33 O 0.79522 0.8766 0.16544 0.0
O34 O 0.78471 0.89511 0.1869 0.0
C35 C 0.77353 0.9056 0.11644 0.0
C36 C 0.74596 0.87209 0.16271 0.0
O37 O 0.74692 0.88588 0.17094 0.0
O38 O 0.75714 0.86649 0.15089 0.0
C39 C 0.75354 0.93357 0.17928 0.0
O40 O 0.75352 0.93531 0.15652 0.0
C41 C 0.79556 0.88519 0.18337 0.0
Zn42 Zn 0.12314 0.7647 0.14654 0.0
Zn43 Zn 0.0968 0.76035 0.16928 0.0
O44 O 0.09004 0.75791 0.1348 0.0
O45 O 0.1126 0.75891 0.11653 0.0
O46 O 0.07645 0.7583 0.18673 0.0
O47 O 0.12459 0.78703 0.15674 0.0
O48 O 0.10443 0.7823 0.17939 0.0
C49 C 0.09797 0.757 0.11604 0.0
C50 C 0.125 0.73946 0.17922 0.0
O51 O 0.11047 0.74221 0.18165 0.0
O52 O 0.13322 0.74799 0.16601 0.0
C53 C 0.07074 0.74531 0.19317 0.0
O54 O 0.07831 0.73236 0.18848 0.0
C55 C 0.1152 0.79147 0.17243 0.0
Zn56 Zn 0.22966 0.87358 0.34027 0.0
Zn57 Zn 0.23893 0.89912 0.3198 0.0
O58 O 0.23773 0.90549 0.3548 0.0
O59 O 0.23206 0.88319 0.37176 0.0
O60 O 0.24497 0.91913 0.3036 0.0
O61 O 0.20875 0.87434 0.32513 0.0
O62 O 0.21777 0.89366 0.30374 0.0
C63 C 0.23511 0.89759 0.37325 0.0
C64 C 0.25797 0.86923 0.3145 0.0
O65 O 0.25701 0.88397 0.31196 0.0
O66 O 0.24728 0.86186 0.32503 0.0
C67 C 0.23735 0.93151 0.30795 0.0
O68 O 0.22592 0.93098 0.32321 0.0
C69 C 0.20695 0.884 0.30871 0.0
Zn70 Zn 0.12242 0.22771 0.35882 0.0
Zn71 Zn 0.09727 0.23664 0.33535 0.0
O72 O 0.08954 0.23451 0.36947 0.0
O73 O 0.11039 0.22687 0.38871 0.0
O74 O 0.07729 0.24172 0.31841 0.0
O75 O 0.12464 0.20838 0.33961 0.0
O76 O 0.1048 0.21653 0.31852 0.0
C77 C 0.09607 0.23047 0.38851 0.0
C78 C 0.12586 0.25774 0.33589 0.0
O79 O 0.11174 0.25551 0.32974 0.0
O80 O 0.13287 0.24761 0.34812 0.0
C81 C 0.07656 0.24913 0.29923 0.0
O82 O 0.08949 0.25414 0.28947 0.0
C83 C 0.11555 0.20657 0.32243 0.0
Zn84 Zn 0.76573 0.12231 0.36964 0.0
Zn85 Zn 0.75833 0.09894 0.34113 0.0
O86 O 0.761 0.08827 0.3734 0.0
O87 O 0.76575 0.10793 0.39707 0.0
O88 O 0.75368 0.08077 0.31963 0.0
O89 O 0.78537 0.12668 0.35164 0.0
O90 O 0.77844 0.10833 0.32687 0.0
C91 C 0.7635 0.09351 0.39386 0.0
C92 C 0.73582 0.12646 0.34766 0.0
O93 O 0.73884 0.11323 0.33846 0.0
O94 O 0.74564 0.13284 0.3611 0.0
C95 C 0.74664 0.06863 0.32685 0.0
O96 O 0.74171 0.06811 0.34853 0.0
C97 C 0.78791 0.11902 0.33314 0.0
Zn98 Zn 0.87345 0.76613 0.36488 0.0
Zn99 Zn 0.89785 0.76097 0.3383 0.0
O100 O 0.90714 0.75994 0.37165 0.0
O101 O 0.8862 0.76224 0.39353 0.0
O102 O 0.9169 0.75846 0.3181 0.0
O103 O 0.87068 0.78788 0.35272 0.0
O104 O 0.88922 0.78242 0.32748 0.0
C105 C 0.90077 0.76017 0.39173 0.0
C106 C 0.86965 0.73927 0.33537 0.0
O107 O 0.88378 0.74215 0.32983 0.0
O108 O 0.86247 0.74822 0.34927 0.0
C109 C 0.92491 0.74599 0.31777 0.0
O110 O 0.92041 0.73408 0.33053 0.0
C111 C 0.87886 0.79174 0.33529 0.0
Zn112 Zn 0.76293 0.87377 0.85432 0.0
Zn113 Zn 0.75732 0.90017 0.83206 0.0
O114 O 0.75673 0.90689 0.86674 0.0
O115 O 0.75948 0.88448 0.88499 0.0
O116 O 0.75372 0.92025 0.81466 0.0
O117 O 0.78443 0.87229 0.84065 0.0
O118 O 0.77874 0.89286 0.81935 0.0
C119 C 0.75735 0.89909 0.88565 0.0
C120 C 0.73594 0.87196 0.82484 0.0
O121 O 0.73875 0.88642 0.82175 0.0
O122 O 0.74493 0.86381 0.83743 0.0
C123 C 0.76103 0.93261 0.82022 0.0
O124 O 0.77096 0.93217 0.83767 0.0
C125 C 0.78813 0.88191 0.82485 0.0
Zn126 Zn 0.12782 0.76456 0.85713 0.0
Zn127 Zn 0.10291 0.75845 0.83209 0.0
O128 O 0.0949 0.75649 0.86608 0.0
O129 O 0.11647 0.75906 0.88654 0.0
O130 O 0.08342 0.75479 0.81311 0.0
O131 O 0.1287 0.78667 0.8458 0.0
O132 O 0.10991 0.7805 0.82135 0.0
C133 C 0.10195 0.75645 0.88564 0.0
C134 C 0.13231 0.73859 0.8263 0.0
O135 O 0.11783 0.7406 0.82213 0.0
O136 O 0.13946 0.74784 0.8398 0.0
C137 C 0.07113 0.76227 0.81849 0.0
O138 O 0.0716 0.77209 0.83609 0.0
C139 C 0.11989 0.79031 0.82895 0.0
Zn140 Zn 0.23474 0.12083 0.86334 0.0
Zn141 Zn 0.23893 0.09774 0.83355 0.0
O142 O 0.23491 0.08663 0.86514 0.0
O143 O 0.2286 0.10594 0.88862 0.0
O144 O 0.2414 0.0795 0.81175 0.0
O145 O 0.21819 0.13018 0.84304 0.0
O146 O 0.22033 0.11007 0.8194 0.0
C147 C 0.23041 0.0915 0.88503 0.0
C148 C 0.26564 0.12037 0.84364 0.0
O149 O 0.26009 0.10921 0.83152 0.0
O150 O 0.25731 0.12689 0.85907 0.0
C151 C 0.25132 0.06897 0.81662 0.0
O152 O 0.26006 0.0706 0.8353 0.0
C153 C 0.21376 0.12289 0.82502 0.0
Zn154 Zn 0.87461 0.22984 0.86357 0.0
Zn155 Zn 0.89925 0.23859 0.83887 0.0
O156 O 0.90808 0.23718 0.87248 0.0
O157 O 0.88729 0.2308 0.89286 0.0
O158 O 0.91818 0.24295 0.81902 0.0
O159 O 0.87223 0.20974 0.846 0.0
O160 O 0.89142 0.21808 0.82385 0.0
C161 C 0.90165 0.2342 0.89204 0.0
C162 C 0.87039 0.25935 0.83979 0.0
O163 O 0.88453 0.25735 0.83349 0.0
O164 O 0.86361 0.24913 0.85211 0.0
C165 C 0.9298 0.25117 0.82521 0.0
O166 O 0.92964 0.25807 0.84567 0.0
C167 C 0.88104 0.20789 0.82852 0.0
Zn168 Zn 0.77447 0.12191 0.63367 0.0
Zn169 Zn 0.76619 0.09987 0.6634 0.0
O170 O 0.76744 0.08811 0.63179 0.0
O171 O 0.7726 0.10703 0.60698 0.0
O172 O 0.76156 0.08257 0.68617 0.0
O173 O 0.79492 0.12548 0.64994 0.0
O174 O 0.78679 0.10888 0.67653 0.0
C175 C 0.7696 0.09284 0.61098 0.0
C176 C 0.74514 0.12827 0.65654 0.0
O177 O 0.74733 0.11493 0.66584 0.0
O178 O 0.75534 0.13395 0.64299 0.0
C179 C 0.75209 0.07162 0.68138 0.0
O180 O 0.7445 0.07197 0.66147 0.0
C181 C 0.79698 0.11855 0.66917 0.0
Zn182 Zn 0.87992 0.77636 0.63603 0.0
Zn183 Zn 0.9019 0.76701 0.66534 0.0
O184 O 0.91358 0.76953 0.63378 0.0
O185 O 0.89543 0.7786 0.61029 0.0
O186 O 0.91938 0.76193 0.68763 0.0
O187 O 0.87479 0.79506 0.65534 0.0
O188 O 0.89259 0.78705 0.68028 0.0
C189 C 0.90941 0.77451 0.61378 0.0
C190 C 0.87449 0.74542 0.65521 0.0
O191 O 0.88717 0.74795 0.66625 0.0
O192 O 0.86914 0.75568 0.64145 0.0
C193 C 0.93068 0.75305 0.68214 0.0
O194 O 0.93063 0.74618 0.66164 0.0
C195 C 0.88217 0.79689 0.67423 0.0
Zn196 Zn 0.21991 0.87551 0.63943 0.0
Zn197 Zn 0.22914 0.90151 0.66064 0.0
O198 O 0.22732 0.90803 0.62593 0.0
O199 O 0.21982 0.88641 0.60853 0.0
O200 O 0.23442 0.92185 0.67647 0.0
O201 O 0.20028 0.87451 0.65827 0.0
O202 O 0.2089 0.89483 0.67787 0.0
C203 C 0.22352 0.90068 0.60744 0.0
C204 C 0.24976 0.8726 0.66291 0.0
O205 O 0.24778 0.88703 0.66736 0.0
O206 O 0.23948 0.86511 0.65163 0.0
C207 C 0.24249 0.92276 0.69504 0.0
O208 O 0.24803 0.90995 0.70447 0.0
C209 C 0.19867 0.88422 0.67471 0.0
Zn210 Zn 0.1265 0.24156 0.64808 0.0
Zn211 Zn 0.1012 0.24617 0.67226 0.0
O212 O 0.09308 0.24623 0.6381 0.0
O213 O 0.11498 0.245 0.61821 0.0
O214 O 0.08164 0.24912 0.69134 0.0
O215 O 0.1294 0.22006 0.66077 0.0
O216 O 0.11003 0.22514 0.68473 0.0
C217 C 0.10029 0.24629 0.61865 0.0
C218 C 0.12882 0.26869 0.67655 0.0
O219 O 0.11453 0.26557 0.68067 0.0
O220 O 0.13686 0.25964 0.66393 0.0
C221 C 0.06933 0.24152 0.68641 0.0
O222 O 0.06957 0.23174 0.66876 0.0
C223 C 0.12092 0.21609 0.67781 0.0
Zn224 Zn 0.72864 0.62273 0.63719 0.0
Zn225 Zn 0.73838 0.60073 0.66644 0.0
O226 O 0.73569 0.58938 0.63475 0.0
O227 O 0.7262 0.60733 0.61126 0.0
O228 O 0.74322 0.58247 0.68738 0.0
O229 O 0.71009 0.62757 0.65708 0.0
O230 O 0.71844 0.60985 0.68191 0.0
C231 C 0.73048 0.59342 0.61482 0.0
C232 C 0.7597 0.62826 0.6564 0.0
O233 O 0.75738 0.61556 0.66748 0.0
O234 O 0.74934 0.63346 0.64267 0.0
C235 C 0.75564 0.57937 0.69859 0.0
O236 O 0.76746 0.58911 0.69775 0.0
C237 C 0.70848 0.62019 0.67602 0.0
Zn238 Zn 0.37116 0.73619 0.63713 0.0
Zn239 Zn 0.39575 0.74315 0.66266 0.0
O240 O 0.40432 0.74444 0.62892 0.0
O241 O 0.38304 0.74124 0.60796 0.0
O242 O 0.41479 0.74728 0.68235 0.0
O243 O 0.37046 0.71428 0.64951 0.0
O244 O 0.38878 0.72135 0.67421 0.0
C245 C 0.39752 0.744 0.60917 0.0
C246 C 0.36611 0.76276 0.66675 0.0
O247 O 0.38056 0.761 0.67132 0.0
O248 O 0.35919 0.75316 0.65352 0.0
C249 C 0.42715 0.73958 0.67822 0.0
O250 O 0.42712 0.72933 0.66117 0.0
C251 C 0.37907 0.71121 0.66683 0.0
Zn252 Zn 0.26612 0.3814 0.63122 0.0
Zn253 Zn 0.26347 0.40545 0.6596 0.0
O254 O 0.26699 0.41558 0.62718 0.0
O255 O 0.27202 0.39538 0.60472 0.0
O256 O 0.26207 0.42427 0.6805 0.0
O257 O 0.28279 0.37206 0.65128 0.0
O258 O 0.28196 0.39294 0.67357 0.0
C259 C 0.27081 0.40998 0.60739 0.0
C260 C 0.23594 0.38315 0.6527 0.0
O261 O 0.24214 0.39456 0.66352 0.0
O262 O 0.2436 0.37596 0.63716 0.0
C263 C 0.25463 0.4245 0.69969 0.0
O264 O 0.24745 0.41182 0.70679 0.0
C265 C 0.28788 0.3797 0.66857 0.0
Zn266 Zn 0.62245 0.272 0.62845 0.0
Zn267 Zn 0.6002 0.26316 0.65802 0.0
O268 O 0.58894 0.26478 0.62604 0.0
O269 O 0.6071 0.2736 0.6023 0.0
O270 O 0.58239 0.2578 0.67957 0.0
O271 O 0.62697 0.29111 0.64728 0.0
O272 O 0.60889 0.28371 0.67223 0.0
C273 C 0.59316 0.26942 0.60588 0.0
C274 C 0.62811 0.24181 0.64995 0.0
O275 O 0.6153 0.24452 0.66052 0.0
O276 O 0.63341 0.25162 0.63543 0.0
C277 C 0.57035 0.26644 0.67855 0.0
O278 O 0.57033 0.27834 0.66412 0.0
C279 C 0.61933 0.29343 0.66584 0.0
Zn280 Zn 0.72662 0.38076 0.85771 0.0
Zn281 Zn 0.73642 0.40403 0.83077 0.0
O282 O 0.73399 0.41416 0.86336 0.0
O283 O 0.72507 0.39505 0.88524 0.0
O284 O 0.74201 0.42262 0.811 0.0
O285 O 0.70774 0.37726 0.83793 0.0
O286 O 0.71628 0.39582 0.8147 0.0
C287 C 0.72917 0.40914 0.88299 0.0
C288 C 0.75706 0.37545 0.83669 0.0
O289 O 0.75508 0.38898 0.82793 0.0
O290 O 0.74671 0.36958 0.84981 0.0
C291 C 0.75362 0.4313 0.81567 0.0
O292 O 0.76277 0.4276 0.8332 0.0
C293 C 0.7062 0.38537 0.81966 0.0
Zn294 Zn 0.623 0.73593 0.85485 0.0
Zn295 Zn 0.59715 0.7402 0.83097 0.0
O296 O 0.5894 0.74105 0.86521 0.0
O297 O 0.61149 0.73993 0.88466 0.0
O298 O 0.57745 0.74203 0.81198 0.0
O299 O 0.62588 0.71419 0.84276 0.0
O300 O 0.60608 0.71907 0.81951 0.0
C301 C 0.5968 0.74138 0.88449 0.0
C302 C 0.6246 0.76241 0.82425 0.0
O303 O 0.61025 0.75929 0.82074 0.0
O304 O 0.63274 0.75377 0.83738 0.0
C305 C 0.56604 0.75067 0.81775 0.0
O306 O 0.56698 0.7591 0.83684 0.0
C307 C 0.61709 0.71009 0.82613 0.0
Zn308 Zn 0.27684 0.626 0.85727 0.0
Zn309 Zn 0.26867 0.60012 0.83473 0.0
O310 O 0.27035 0.59292 0.86912 0.0
O311 O 0.27738 0.61432 0.88755 0.0
O312 O 0.26439 0.58015 0.81746 0.0
O313 O 0.29645 0.62828 0.83862 0.0
O314 O 0.28889 0.60778 0.81849 0.0
C315 C 0.274 0.59995 0.88794 0.0
C316 C 0.24702 0.62819 0.83326 0.0
O317 O 0.24961 0.614 0.82793 0.0
O318 O 0.25685 0.63573 0.84535 0.0
C319 C 0.25491 0.56981 0.82463 0.0
O320 O 0.24702 0.57227 0.84394 0.0
C321 C 0.29862 0.61879 0.82205 0.0
Zn322 Zn 0.37739 0.26267 0.85923 0.0
Zn323 Zn 0.40123 0.25825 0.83104 0.0
O324 O 0.41166 0.2626 0.86298 0.0
O325 O 0.39174 0.26969 0.88477 0.0
O326 O 0.41976 0.25613 0.8097 0.0
O327 O 0.36793 0.27845 0.83768 0.0
O328 O 0.38915 0.27672 0.81622 0.0
C329 C 0.40626 0.26767 0.88225 0.0
C330 C 0.37874 0.23144 0.84096 0.0
O331 O 0.38998 0.23694 0.82892 0.0
O332 O 0.37194 0.23993 0.85592 0.0
C333 C 0.43103 0.24703 0.81445 0.0
O334 O 0.4303 0.23838 0.83334 0.0
C335 C 0.37594 0.28297 0.82042 0.0
Zn336 Zn 0.26749 0.37558 0.35552 0.0
Zn337 Zn 0.2606 0.39979 0.32947 0.0
O338 O 0.26087 0.4088 0.36304 0.0
O339 O 0.26389 0.38786 0.3847 0.0
O340 O 0.25655 0.419 0.31011 0.0
O341 O 0.28896 0.37397 0.34179 0.0
O342 O 0.28178 0.3919 0.31651 0.0
C343 C 0.26168 0.4024 0.38306 0.0
C344 C 0.2399 0.37084 0.32786 0.0
O345 O 0.24197 0.38512 0.32245 0.0
O346 O 0.24964 0.36393 0.34087 0.0
C347 C 0.24632 0.4289 0.31637 0.0
O348 O 0.23789 0.42608 0.33504 0.0
C349 C 0.29181 0.38206 0.32384 0.0
Zn350 Zn 0.61899 0.27326 0.36259 0.0
Zn351 Zn 0.59668 0.2654 0.33285 0.0
O352 O 0.58516 0.26776 0.36452 0.0
O353 O 0.60354 0.27606 0.3883 0.0
O354 O 0.57879 0.26114 0.31096 0.0
O355 O 0.62511 0.29181 0.34365 0.0
O356 O 0.60678 0.28531 0.31858 0.0
C357 C 0.58945 0.27244 0.38462 0.0
C358 C 0.62306 0.24249 0.34222 0.0
O359 O 0.61064 0.24583 0.33107 0.0
O360 O 0.62873 0.25216 0.35664 0.0
C361 C 0.57054 0.24886 0.31249 0.0
O362 O 0.57421 0.23826 0.3281 0.0
C363 C 0.61778 0.29441 0.32491 0.0
Zn364 Zn 0.73209 0.61634 0.36572 0.0
Zn365 Zn 0.7411 0.59206 0.33961 0.0
O366 O 0.73843 0.58283 0.37284 0.0
O367 O 0.73022 0.60269 0.39385 0.0
O368 O 0.74676 0.57352 0.3193 0.0
O369 O 0.71334 0.61985 0.34574 0.0
O370 O 0.72094 0.60026 0.32369 0.0
C371 C 0.73382 0.58843 0.39225 0.0
C372 C 0.76221 0.62071 0.34389 0.0
O373 O 0.75977 0.60707 0.33578 0.0
O374 O 0.75227 0.62702 0.35724 0.0
C375 C 0.74973 0.55994 0.32709 0.0
O376 O 0.74961 0.55749 0.34969 0.0
C377 C 0.7113 0.61121 0.32811 0.0
Zn378 Zn 0.38004 0.72899 0.34839 0.0
Zn379 Zn 0.40503 0.73711 0.32585 0.0
O380 O 0.41197 0.73863 0.36048 0.0
O381 O 0.38976 0.73487 0.37887 0.0
O382 O 0.42478 0.74188 0.30804 0.0
O383 O 0.38058 0.70699 0.33679 0.0
O384 O 0.39889 0.71526 0.313 0.0
C385 C 0.40414 0.73816 0.37937 0.0
C386 C 0.37497 0.75532 0.31855 0.0
O387 O 0.38974 0.75465 0.3161 0.0
O388 O 0.3679 0.74504 0.33035 0.0
C389 C 0.43743 0.73518 0.31389 0.0
O390 O 0.43731 0.72543 0.33157 0.0
C391 C 0.3895 0.70458 0.3196 0.0
Zn392 Zn 0.26345 0.62944 0.15179 0.0
Zn393 Zn 0.25896 0.60318 0.1743 0.0
O394 O 0.2581 0.59658 0.13954 0.0
O395 O 0.25885 0.61909 0.12121 0.0
O396 O 0.25632 0.58251 0.19074 0.0
O397 O 0.28549 0.63089 0.16335 0.0
O398 O 0.28051 0.61089 0.18622 0.0
C399 C 0.25757 0.6044 0.12064 0.0
C400 C 0.23728 0.63107 0.18262 0.0
O401 O 0.24015 0.61657 0.18519 0.0
O402 O 0.24611 0.6394 0.17006 0.0
C403 C 0.24921 0.58072 0.21001 0.0
O404 O 0.24306 0.59292 0.22041 0.0
C405 C 0.2897 0.62167 0.17938 0.0
Zn406 Zn 0.37713 0.27409 0.1347 0.0
Zn407 Zn 0.40143 0.26475 0.16 0.0
O408 O 0.41058 0.26766 0.12684 0.0
O409 O 0.39055 0.27594 0.10625 0.0
O410 O 0.42082 0.26017 0.17876 0.0
O411 O 0.37376 0.29292 0.15461 0.0
O412 O 0.3931 0.28464 0.17659 0.0
C413 C 0.40484 0.27233 0.10756 0.0
C414 C 0.37314 0.24342 0.15563 0.0
O415 O 0.38691 0.24559 0.16343 0.0
O416 O 0.36664 0.25378 0.14323 0.0
C417 C 0.42528 0.24715 0.187 0.0
O418 O 0.41663 0.23468 0.18379 0.0
C419 C 0.38237 0.29457 0.17235 0.0
Zn420 Zn 0.72808 0.37769 0.12778 0.0
Zn421 Zn 0.73914 0.39966 0.15646 0.0
O422 O 0.7358 0.41114 0.12501 0.0
O423 O 0.72534 0.39334 0.10218 0.0
O424 O 0.74583 0.41698 0.17827 0.0
O425 O 0.71014 0.37321 0.14907 0.0
O426 O 0.71927 0.39118 0.17283 0.0
C427 C 0.72999 0.40717 0.10543 0.0
C428 C 0.75927 0.37128 0.14525 0.0
O429 O 0.7575 0.38409 0.15626 0.0
O430 O 0.74854 0.36631 0.13198 0.0
C431 C 0.75279 0.42919 0.17112 0.0
O432 O 0.75655 0.43035 0.14898 0.0
C433 C 0.70907 0.38086 0.16787 0.0
Zn434 Zn 0.6296 0.72324 0.13211 0.0
Zn435 Zn 0.60687 0.73053 0.16146 0.0
O436 O 0.5957 0.72902 0.12943 0.0
O437 O 0.61458 0.72222 0.10549 0.0
O438 O 0.58899 0.73462 0.18357 0.0
O439 O 0.63475 0.70378 0.14953 0.0
O440 O 0.61636 0.70999 0.17464 0.0
C441 C 0.60036 0.72541 0.10902 0.0
C442 C 0.63441 0.75281 0.15534 0.0
O443 O 0.62133 0.74974 0.1649 0.0
O444 O 0.64029 0.74336 0.14079 0.0
C445 C 0.57797 0.74389 0.17824 0.0
O446 O 0.57861 0.75145 0.15833 0.0
C447 C 0.62719 0.7008 0.16794 0.0
H448 H 0.3843 0.21498 0.17087 0.0
H449 H 0.36897 0.19114 0.17813 0.0
H450 H 0.32683 0.2159 0.16032 0.0
H451 H 0.34185 0.23941 0.15292 0.0
H452 H 0.32379 0.19789 0.20052 0.0
H453 H 0.34405 0.19373 0.12074 0.0
H454 H 0.36534 0.19182 0.09193 0.0
H455 H 0.38264 0.15073 0.12606 0.0
H456 H 0.36153 0.15253 0.15526 0.0
H457 H 0.26399 0.15953 0.145 0.0
H458 H 0.28744 0.17425 0.15421 0.0
H459 H 0.30972 0.13243 0.17931 0.0
H460 H 0.28591 0.1174 0.1704 0.0
H461 H 0.32791 0.15322 0.14579 0.0
H462 H 0.30243 0.15428 0.21927 0.0
H463 H 0.28012 0.1565 0.24621 0.0
H464 H 0.27222 0.20356 0.22354 0.0
H465 H 0.29433 0.20155 0.19618 0.0
C466 C 0.37176 0.2153 0.16867 0.0
C467 C 0.3643 0.22904 0.16118 0.0
C468 C 0.36304 0.2017 0.17279 0.0
C469 C 0.34677 0.20178 0.16978 0.0
C470 C 0.33936 0.21559 0.16287 0.0
C471 C 0.348 0.22902 0.15849 0.0
C472 C 0.33715 0.18754 0.17273 0.0
C473 C 0.32479 0.18801 0.18877 0.0
C474 C 0.33874 0.17445 0.15788 0.0
C475 C 0.35137 0.17339 0.14035 0.0
C476 C 0.35248 0.18437 0.12222 0.0
C477 C 0.3645 0.1833 0.1058 0.0
C478 C 0.37538 0.1712 0.10722 0.0
C479 C 0.37423 0.16012 0.12502 0.0
C480 C 0.36225 0.16116 0.14151 0.0
C481 C 0.27384 0.15337 0.15246 0.0
C482 C 0.27308 0.13727 0.15695 0.0
C483 C 0.28722 0.16184 0.15778 0.0
C484 C 0.30025 0.15444 0.16754 0.0
C485 C 0.29973 0.13833 0.17183 0.0
C486 C 0.28615 0.1298 0.16681 0.0
C487 C 0.31421 0.16396 0.17288 0.0
C488 C 0.32731 0.16269 0.15831 0.0
C489 C 0.3133 0.17637 0.18906 0.0
C490 C 0.30003 0.17774 0.20561 0.0
C491 C 0.29588 0.16507 0.21991 0.0
C492 C 0.28327 0.16629 0.23528 0.0
C493 C 0.27475 0.18016 0.23658 0.0
C494 C 0.27884 0.19283 0.22253 0.0
C495 C 0.29143 0.19167 0.20712 0.0
H496 H 0.26499 0.18108 0.24848 0.0
H497 H 0.38466 0.17038 0.09449 0.0
H498 H 0.84643 0.25878 0.13275 0.0
H499 H 0.83117 0.28262 0.13405 0.0
H500 H 0.86421 0.30297 0.18192 0.0
H501 H 0.87974 0.27884 0.18084 0.0
H502 H 0.83253 0.3083 0.19425 0.0
H503 H 0.86546 0.3154 0.12829 0.0
H504 H 0.87879 0.30784 0.0919 0.0
H505 H 0.83455 0.30158 0.05807 0.0
H506 H 0.82093 0.30888 0.09435 0.0
H507 H 0.78469 0.37685 0.17361 0.0
H508 H 0.80806 0.36049 0.17796 0.0
H509 H 0.7895 0.32809 0.12751 0.0
H510 H 0.76647 0.34425 0.12287 0.0
H511 H 0.81963 0.334 0.11913 0.0
H512 H 0.78731 0.32154 0.18683 0.0
H513 H 0.77351 0.32809 0.22331 0.0
H514 H 0.81643 0.3441 0.25363 0.0
H515 H 0.83044 0.33782 0.21719 0.0
C516 C 0.85053 0.26825 0.14361 0.0
C517 C 0.86439 0.2669 0.15657 0.0
C518 C 0.84178 0.28193 0.14428 0.0
C519 C 0.84668 0.29465 0.1578 0.0
C520 C 0.8603 0.2933 0.17127 0.0
C521 C 0.86914 0.27953 0.17057 0.0
C522 C 0.83739 0.30923 0.15741 0.0
C523 C 0.82999 0.31421 0.17794 0.0
C524 C 0.83403 0.31686 0.13611 0.0
C525 C 0.84217 0.31265 0.1141 0.0
C526 C 0.85856 0.31234 0.11313 0.0
C527 C 0.86618 0.3081 0.09251 0.0
C528 C 0.85752 0.30422 0.07269 0.0
C529 C 0.84124 0.3046 0.07343 0.0
C530 C 0.83356 0.30882 0.09401 0.0
C531 C 0.78565 0.36627 0.1634 0.0
C532 C 0.77368 0.36186 0.14792 0.0
C533 C 0.79898 0.35692 0.16595 0.0
C534 C 0.8005 0.34304 0.15311 0.0
C535 C 0.78863 0.33878 0.13752 0.0
C536 C 0.7754 0.34804 0.13497 0.0
C537 C 0.81419 0.33259 0.15574 0.0
C538 C 0.82247 0.32841 0.13557 0.0
C539 C 0.8183 0.3257 0.17734 0.0
C540 C 0.80987 0.32941 0.19922 0.0
C541 C 0.79377 0.32658 0.20122 0.0
C542 C 0.78592 0.33021 0.22189 0.0
C543 C 0.79407 0.33656 0.24075 0.0
C544 C 0.81012 0.33923 0.23899 0.0
C545 C 0.81802 0.33563 0.21834 0.0
H546 H 0.78797 0.33936 0.25674 0.0
H547 H 0.86344 0.30093 0.05675 0.0
H548 H 0.62388 0.77951 0.17718 0.0
H549 H 0.63917 0.8031 0.18624 0.0
H550 H 0.68007 0.7816 0.15651 0.0
H551 H 0.66507 0.75836 0.14727 0.0
H552 H 0.68527 0.79559 0.20038 0.0
H553 H 0.66026 0.80663 0.1252 0.0
H554 H 0.63725 0.81069 0.1001 0.0
H555 H 0.62181 0.8479 0.14462 0.0
H556 H 0.64465 0.8439 0.17017 0.0
H557 H 0.74264 0.84127 0.15282 0.0
H558 H 0.72021 0.82464 0.15981 0.0
H559 H 0.69505 0.86348 0.18927 0.0
H560 H 0.71775 0.88048 0.18231 0.0
H561 H 0.67738 0.84494 0.15671 0.0
H562 H 0.70636 0.83775 0.22615 0.0
H563 H 0.72981 0.83375 0.25031 0.0
H564 H 0.73775 0.78947 0.2174 0.0
H565 H 0.71449 0.79329 0.19278 0.0
C566 C 0.63614 0.77985 0.17266 0.0
C567 C 0.64325 0.76709 0.16143 0.0
C568 C 0.64483 0.79331 0.17781 0.0
C569 C 0.66075 0.79404 0.17208 0.0
C570 C 0.66783 0.78124 0.16119 0.0
C571 C 0.65918 0.76798 0.1558 0.0
C572 C 0.67033 0.80809 0.17672 0.0
C573 C 0.6835 0.80644 0.19102 0.0
C574 C 0.66768 0.82241 0.16514 0.0
C575 C 0.65402 0.82482 0.14976 0.0
C576 C 0.65188 0.81557 0.12975 0.0
C577 C 0.63889 0.81789 0.11542 0.0
C578 C 0.62804 0.82951 0.12081 0.0
C579 C 0.6302 0.83888 0.14051 0.0
C580 C 0.64316 0.83659 0.15491 0.0
C581 C 0.73239 0.84638 0.1608 0.0
C582 C 0.73204 0.86223 0.16707 0.0
C583 C 0.71957 0.8368 0.16487 0.0
C584 C 0.70605 0.84277 0.17532 0.0
C585 C 0.70544 0.85864 0.1813 0.0
C586 C 0.71841 0.8683 0.17737 0.0
C587 C 0.69271 0.83212 0.17949 0.0
C588 C 0.67887 0.83435 0.16684 0.0
C589 C 0.6947 0.81831 0.19266 0.0
C590 C 0.70867 0.81584 0.20756 0.0
C591 C 0.71315 0.8272 0.22396 0.0
C592 C 0.72641 0.82496 0.23775 0.0
C593 C 0.73527 0.81137 0.23538 0.0
C594 C 0.73087 0.79998 0.21924 0.0
C595 C 0.71762 0.80217 0.20539 0.0
H596 H 0.74553 0.80966 0.24607 0.0
H597 H 0.61799 0.83129 0.10969 0.0
H598 H 0.20981 0.61715 0.19632 0.0
H599 H 0.18577 0.63049 0.2087 0.0
H600 H 0.20965 0.67474 0.20523 0.0
H601 H 0.23341 0.66163 0.19293 0.0
H602 H 0.18952 0.67332 0.24263 0.0
H603 H 0.18969 0.66089 0.15847 0.0
H604 H 0.18994 0.6423 0.12561 0.0
H605 H 0.14887 0.62002 0.15266 0.0
H606 H 0.1485 0.63841 0.18583 0.0
H607 H 0.15539 0.73686 0.1913 0.0
H608 H 0.16898 0.71379 0.20523 0.0
H609 H 0.12555 0.68836 0.20689 0.0
H610 H 0.11171 0.71174 0.19295 0.0
H611 H 0.14844 0.67336 0.18168 0.0
H612 H 0.14407 0.69354 0.25761 0.0
H613 H 0.1441 0.71333 0.2888 0.0
H614 H 0.19289 0.7217 0.27742 0.0
H615 H 0.19313 0.70215 0.24591 0.0
C616 C 0.20996 0.62968 0.19869 0.0
C617 C 0.22341 0.63838 0.19338 0.0
C618 C 0.19624 0.63728 0.20572 0.0
C619 C 0.19591 0.65362 0.20775 0.0
C620 C 0.20963 0.66213 0.20387 0.0
C621 C 0.22319 0.65462 0.19665 0.0
C622 C 0.18116 0.66235 0.21127 0.0
C623 C 0.1804 0.67324 0.22952 0.0
C624 C 0.16897 0.66184 0.19465 0.0
C625 C 0.16919 0.65085 0.17474 0.0
C626 C 0.18078 0.65195 0.15747 0.0
C627 C 0.18094 0.64147 0.13879 0.0
C628 C 0.16946 0.62995 0.13709 0.0
C629 C 0.15778 0.62892 0.15404 0.0
C630 C 0.15759 0.63936 0.17278 0.0
C631 C 0.14865 0.72646 0.19505 0.0
C632 C 0.13251 0.72606 0.19091 0.0
C633 C 0.15642 0.7133 0.20321 0.0
C634 C 0.14827 0.69938 0.20734 0.0
C635 C 0.13203 0.69904 0.204 0.0
C636 C 0.12415 0.71238 0.1961 0.0
C637 C 0.15731 0.68499 0.21227 0.0
C638 C 0.15705 0.67303 0.19555 0.0
C639 C 0.16859 0.68458 0.23028 0.0
C640 C 0.16861 0.69633 0.24935 0.0
C641 C 0.1548 0.69965 0.26166 0.0
C642 C 0.15477 0.71083 0.27942 0.0
C643 C 0.16849 0.71876 0.2851 0.0
C644 C 0.18228 0.71552 0.27304 0.0
C645 C 0.18238 0.70436 0.25525 0.0
H646 H 0.16844 0.72741 0.29885 0.0
H647 H 0.16959 0.62184 0.12261 0.0
H648 H 0.25822 0.83991 0.29724 0.0
H649 H 0.28087 0.82331 0.29056 0.0
H650 H 0.31143 0.86164 0.30758 0.0
H651 H 0.28859 0.87859 0.31351 0.0
H652 H 0.32423 0.8411 0.27339 0.0
H653 H 0.30178 0.83827 0.34994 0.0
H654 H 0.28028 0.83576 0.37828 0.0
H655 H 0.26927 0.79037 0.3512 0.0
H656 H 0.29056 0.79272 0.32245 0.0
H657 H 0.38367 0.78599 0.31395 0.0
H658 H 0.36616 0.80813 0.30633 0.0
H659 H 0.32818 0.7761 0.29417 0.0
H660 H 0.3454 0.75417 0.3024 0.0
H661 H 0.32134 0.79614 0.3277 0.0
H662 H 0.34402 0.79928 0.25048 0.0
H663 H 0.36564 0.80213 0.22242 0.0
H664 H 0.37703 0.84684 0.25159 0.0
H665 H 0.3556 0.84416 0.28004 0.0
C666 C 0.26976 0.84492 0.299 0.0
C667 C 0.27169 0.86044 0.30623 0.0
C668 C 0.2827 0.83543 0.29515 0.0
C669 C 0.29781 0.84115 0.2991 0.0
C670 C 0.29985 0.857 0.30452 0.0
C671 C 0.28683 0.86664 0.30796 0.0
C672 C 0.31098 0.82998 0.30063 0.0
C673 C 0.32375 0.83135 0.28542 0.0
C674 C 0.31034 0.81729 0.31637 0.0
C675 C 0.2977 0.81572 0.33395 0.0
C676 C 0.29472 0.82779 0.34995 0.0
C677 C 0.28257 0.82639 0.36609 0.0
C678 C 0.2734 0.81293 0.36651 0.0
C679 C 0.27638 0.8008 0.35084 0.0
C680 C 0.2885 0.80215 0.33464 0.0
C681 C 0.37168 0.78373 0.30903 0.0
C682 C 0.3658 0.76842 0.30905 0.0
C683 C 0.3617 0.79636 0.30465 0.0
C684 C 0.34582 0.79377 0.29986 0.0
C685 C 0.34034 0.77839 0.29806 0.0
C686 C 0.35018 0.76586 0.30275 0.0
C687 C 0.33436 0.80676 0.29972 0.0
C688 C 0.32193 0.80584 0.31558 0.0
C689 C 0.33547 0.81982 0.2847 0.0
C690 C 0.34831 0.82144 0.26755 0.0
C691 C 0.35122 0.80966 0.25105 0.0
C692 C 0.36343 0.81126 0.23504 0.0
C693 C 0.37274 0.82463 0.23527 0.0
C694 C 0.36983 0.83647 0.25146 0.0
C695 C 0.35765 0.83492 0.26751 0.0
H696 H 0.38218 0.82585 0.22286 0.0
H697 H 0.26399 0.81187 0.37901 0.0
H698 H 0.21175 0.38238 0.31227 0.0
H699 H 0.18809 0.36721 0.30333 0.0
H700 H 0.21329 0.32458 0.31667 0.0
H701 H 0.23668 0.33946 0.32546 0.0
H702 H 0.19423 0.32173 0.27895 0.0
H703 H 0.19155 0.34204 0.3591 0.0
H704 H 0.19031 0.36343 0.38786 0.0
H705 H 0.14911 0.3813 0.35469 0.0
H706 H 0.15023 0.36009 0.32557 0.0
H707 H 0.15721 0.26203 0.33645 0.0
H708 H 0.17187 0.28501 0.32478 0.0
H709 H 0.1291 0.30861 0.30687 0.0
H710 H 0.11413 0.28531 0.31839 0.0
H711 H 0.15082 0.32627 0.33582 0.0
H712 H 0.1501 0.29986 0.26334 0.0
H713 H 0.15174 0.27735 0.23671 0.0
H714 H 0.19959 0.27023 0.25611 0.0
H715 H 0.19819 0.29255 0.28314 0.0
C716 C 0.21225 0.36976 0.3129 0.0
C717 C 0.22602 0.36211 0.31979 0.0
C718 C 0.19874 0.36113 0.30786 0.0
C719 C 0.19892 0.34477 0.30947 0.0
C720 C 0.21288 0.33718 0.31524 0.0
C721 C 0.22623 0.34573 0.32043 0.0
C722 C 0.18454 0.33526 0.30707 0.0
C723 C 0.18463 0.32281 0.29118 0.0
C724 C 0.17177 0.33696 0.32252 0.0
C725 C 0.17109 0.34964 0.34001 0.0
C726 C 0.1823 0.35061 0.35786 0.0
C727 C 0.18161 0.36268 0.37423 0.0
C728 C 0.16967 0.37375 0.37305 0.0
C729 C 0.15837 0.37274 0.35554 0.0
C730 C 0.15903 0.36071 0.3391 0.0
C731 C 0.15084 0.27205 0.32999 0.0
C732 C 0.13448 0.27185 0.3284 0.0
C733 C 0.15927 0.28516 0.32319 0.0
C734 C 0.15158 0.29843 0.31474 0.0
C735 C 0.13523 0.29842 0.31322 0.0
C736 C 0.12673 0.28512 0.31977 0.0
C737 C 0.16099 0.31232 0.30853 0.0
C738 C 0.16001 0.32555 0.32284 0.0
C739 C 0.17301 0.31129 0.29171 0.0
C740 C 0.17402 0.2979 0.27531 0.0
C741 C 0.16095 0.29345 0.26203 0.0
C742 C 0.16185 0.28072 0.24685 0.0
C743 C 0.17576 0.27236 0.24472 0.0
C744 C 0.18882 0.27673 0.25775 0.0
C745 C 0.18799 0.28944 0.27298 0.0
H746 H 0.17643 0.2625 0.23296 0.0
H747 H 0.16915 0.38308 0.38574 0.0
H748 H 0.71374 0.12069 0.31355 0.0
H749 H 0.68925 0.13512 0.30701 0.0
H750 H 0.69967 0.16455 0.36602 0.0
H751 H 0.7238 0.15047 0.37255 0.0
H752 H 0.66908 0.1543 0.3659 0.0
H753 H 0.70763 0.17652 0.31155 0.0
H754 H 0.72549 0.1748 0.2779 0.0
H755 H 0.68761 0.16002 0.23414 0.0
H756 H 0.66955 0.1615 0.26765 0.0
H757 H 0.647 0.2308 0.36784 0.0
H758 H 0.66043 0.20609 0.36303 0.0
H759 H 0.631 0.19476 0.30443 0.0
H760 H 0.61725 0.2198 0.30915 0.0
H761 H 0.66388 0.1891 0.29719 0.0
H762 H 0.62429 0.17495 0.35074 0.0
H763 H 0.60702 0.17832 0.38476 0.0
H764 H 0.64673 0.17819 0.43039 0.0
H765 H 0.66428 0.17507 0.39664 0.0
C766 C 0.71071 0.13019 0.32515 0.0
C767 C 0.72076 0.13448 0.34349 0.0
C768 C 0.69676 0.13841 0.32139 0.0
C769 C 0.69265 0.15088 0.33608 0.0
C770 C 0.70255 0.15491 0.35457 0.0
C771 C 0.71643 0.14689 0.35817 0.0
C772 C 0.67844 0.1604 0.33228 0.0
C773 C 0.6678 0.16178 0.35077 0.0
C774 C 0.67646 0.16977 0.31217 0.0
C775 C 0.68731 0.1689 0.29213 0.0
C776 C 0.70315 0.17277 0.29479 0.0
C777 C 0.7133 0.17187 0.27575 0.0
C778 C 0.7077 0.16724 0.25392 0.0
C779 C 0.69193 0.16356 0.25108 0.0
C780 C 0.68174 0.16443 0.27008 0.0
C781 C 0.64329 0.22312 0.3539 0.0
C782 C 0.631 0.22729 0.3389 0.0
C783 C 0.65096 0.20893 0.35125 0.0
C784 C 0.64658 0.19852 0.33357 0.0
C785 C 0.63447 0.20263 0.31827 0.0
C786 C 0.62663 0.21689 0.32103 0.0
C787 C 0.6551 0.18355 0.33141 0.0
C788 C 0.66467 0.18115 0.31187 0.0
C789 C 0.65612 0.17323 0.35059 0.0
C790 C 0.64562 0.17477 0.3711 0.0
C791 C 0.62936 0.17569 0.36802 0.0
C792 C 0.61952 0.17757 0.38726 0.0
C793 C 0.62578 0.17847 0.40972 0.0
C794 C 0.6419 0.17746 0.41299 0.0
C795 C 0.6518 0.1756 0.3938 0.0
H796 H 0.61814 0.17995 0.42459 0.0
H797 H 0.71557 0.16656 0.23919 0.0
H798 H 0.76675 0.65182 0.34925 0.0
H799 H 0.78896 0.66737 0.3369 0.0
H800 H 0.81168 0.62617 0.31036 0.0
H801 H 0.7891 0.61029 0.32246 0.0
H802 H 0.83054 0.64798 0.34087 0.0
H803 H 0.80109 0.64742 0.27082 0.0
H804 H 0.7773 0.64856 0.2467 0.0
H805 H 0.76889 0.69551 0.2695 0.0
H806 H 0.79247 0.69458 0.29408 0.0
H807 H 0.88234 0.71233 0.3172 0.0
H808 H 0.86829 0.68813 0.30752 0.0
H809 H 0.82467 0.71053 0.32452 0.0
H810 H 0.83844 0.73446 0.33395 0.0
H811 H 0.82159 0.69215 0.28658 0.0
H812 H 0.84488 0.68884 0.36491 0.0
H813 H 0.86732 0.68821 0.39186 0.0
H814 H 0.88634 0.64899 0.35493 0.0
H815 H 0.86407 0.64952 0.32761 0.0
C816 C 0.77643 0.64596 0.34085 0.0
C817 C 0.77615 0.62978 0.33686 0.0
C818 C 0.7891 0.65491 0.3337 0.0
C819 C 0.80185 0.64793 0.32254 0.0
C820 C 0.80186 0.63174 0.31885 0.0
C821 C 0.78899 0.62273 0.32574 0.0
C822 C 0.81506 0.65794 0.31534 0.0
C823 C 0.82887 0.65735 0.32839 0.0
C824 C 0.81275 0.6702 0.29923 0.0
C825 C 0.79858 0.67091 0.28433 0.0
C826 C 0.79412 0.65796 0.27081 0.0
C827 C 0.78067 0.65857 0.25704 0.0
C828 C 0.7716 0.6721 0.25655 0.0
C829 C 0.77595 0.68504 0.26986 0.0
C830 C 0.78938 0.68449 0.28368 0.0
C831 C 0.86973 0.71212 0.31843 0.0
C832 C 0.8615 0.72523 0.32658 0.0
C833 C 0.86174 0.6983 0.31297 0.0
C834 C 0.84544 0.6975 0.31546 0.0
C835 C 0.83723 0.71087 0.32239 0.0
C836 C 0.84515 0.72453 0.32795 0.0
C837 C 0.8367 0.68265 0.313 0.0
C838 C 0.82366 0.68238 0.2982 0.0
C839 C 0.83965 0.66968 0.32765 0.0
C840 C 0.85297 0.66935 0.34407 0.0
C841 C 0.85392 0.68016 0.36246 0.0
C842 C 0.86659 0.67981 0.37781 0.0
C843 C 0.87828 0.6686 0.37506 0.0
C844 C 0.8773 0.65769 0.357 0.0
C845 C 0.86467 0.65801 0.34158 0.0
H846 H 0.88808 0.66835 0.38696 0.0
H847 H 0.76122 0.67257 0.24583 0.0
H848 H 0.7086 0.8857 0.81032 0.0
H849 H 0.68474 0.87226 0.79738 0.0
H850 H 0.70843 0.82802 0.80288 0.0
H851 H 0.73202 0.84121 0.81579 0.0
H852 H 0.68915 0.82951 0.76404 0.0
H853 H 0.68762 0.84191 0.84825 0.0
H854 H 0.68719 0.86056 0.88104 0.0
H855 H 0.6467 0.88279 0.85206 0.0
H856 H 0.64702 0.86435 0.81894 0.0
H857 H 0.65518 0.76584 0.81406 0.0
H858 H 0.66856 0.78921 0.80091 0.0
H859 H 0.62468 0.81374 0.7973 0.0
H860 H 0.61103 0.79003 0.81052 0.0
H861 H 0.64697 0.82928 0.82329 0.0
H862 H 0.64407 0.80888 0.74738 0.0
H863 H 0.64476 0.78893 0.71644 0.0
H864 H 0.69342 0.78106 0.72963 0.0
H865 H 0.693 0.80077 0.7609 0.0
C866 C 0.70874 0.87314 0.80835 0.0
C867 C 0.72209 0.86447 0.81433 0.0
C868 C 0.69513 0.8655 0.80097 0.0
C869 C 0.69482 0.84915 0.79925 0.0
C870 C 0.70843 0.84064 0.80397 0.0
C871 C 0.72187 0.8482 0.81156 0.0
C872 C 0.68016 0.84042 0.79505 0.0
C873 C 0.67978 0.82956 0.77675 0.0
C874 C 0.66766 0.84092 0.81114 0.0
C875 C 0.66746 0.85193 0.83102 0.0
C876 C 0.6787 0.85086 0.84881 0.0
C877 C 0.67847 0.86137 0.86745 0.0
C878 C 0.66696 0.87289 0.86859 0.0
C879 C 0.65563 0.87389 0.85111 0.0
C880 C 0.65583 0.86342 0.83241 0.0
C881 C 0.6483 0.77611 0.81013 0.0
C882 C 0.63208 0.77616 0.81347 0.0
C883 C 0.65596 0.78944 0.80238 0.0
C884 C 0.64761 0.80318 0.79785 0.0
C885 C 0.63131 0.8032 0.8005 0.0
C886 C 0.62355 0.78968 0.808 0.0
C887 C 0.65646 0.81769 0.79311 0.0
C888 C 0.65582 0.82966 0.80977 0.0
C889 C 0.66804 0.81816 0.77552 0.0
C890 C 0.66849 0.80636 0.75652 0.0
C891 C 0.65491 0.80286 0.74377 0.0
C892 C 0.65525 0.79158 0.72615 0.0
C893 C 0.66913 0.78374 0.72106 0.0
C894 C 0.68269 0.78717 0.73355 0.0
C895 C 0.68241 0.79843 0.7512 0.0
H896 H 0.66936 0.77501 0.70743 0.0
H897 H 0.6668 0.88101 0.88304 0.0
H898 H 0.12072 0.71048 0.81072 0.0
H899 H 0.13599 0.68717 0.80038 0.0
H900 H 0.17855 0.71324 0.81011 0.0
H901 H 0.16354 0.73631 0.82024 0.0
H902 H 0.18093 0.69349 0.77327 0.0
H903 H 0.16239 0.69198 0.85461 0.0
H904 H 0.14159 0.691 0.88435 0.0
H905 H 0.12341 0.64918 0.85334 0.0
H906 H 0.14402 0.65003 0.82325 0.0
H907 H 0.24226 0.65942 0.83089 0.0
H908 H 0.21889 0.67318 0.81848 0.0
H909 H 0.19593 0.62936 0.80484 0.0
H910 H 0.2196 0.61531 0.81715 0.0
H911 H 0.17825 0.65133 0.83243 0.0
H912 H 0.20367 0.64939 0.75938 0.0
H913 H 0.22591 0.65079 0.7322 0.0
H914 H 0.23204 0.6993 0.74834 0.0
H915 H 0.21001 0.69816 0.77592 0.0
C916 C 0.13332 0.71127 0.81013 0.0
C917 C 0.14095 0.72515 0.81656 0.0
C918 C 0.14202 0.69796 0.8043 0.0
C919 C 0.15842 0.69844 0.80467 0.0
C920 C 0.16593 0.71258 0.80965 0.0
C921 C 0.15732 0.72575 0.81561 0.0
C922 C 0.16808 0.68416 0.80236 0.0
C923 C 0.18025 0.68414 0.78598 0.0
C924 C 0.1669 0.6717 0.81847 0.0
C925 C 0.15458 0.67118 0.83655 0.0
C926 C 0.15388 0.68264 0.85406 0.0
C927 C 0.14214 0.6821 0.87098 0.0
C928 C 0.13115 0.67007 0.87068 0.0
C929 C 0.1319 0.65852 0.8535 0.0
C930 C 0.1436 0.65902 0.83652 0.0
C931 C 0.2323 0.65264 0.82518 0.0
C932 C 0.23277 0.63626 0.82506 0.0
C933 C 0.21897 0.66055 0.81793 0.0
C934 C 0.20576 0.65229 0.8105 0.0
C935 C 0.20608 0.63592 0.81037 0.0
C936 C 0.21958 0.62794 0.81736 0.0
C937 C 0.19155 0.66116 0.80416 0.0
C938 C 0.17855 0.66021 0.81895 0.0
C939 C 0.19203 0.67278 0.78667 0.0
C940 C 0.20516 0.67367 0.76977 0.0
C941 C 0.2098 0.66035 0.75723 0.0
C942 C 0.22238 0.66109 0.74174 0.0
C943 C 0.23039 0.67512 0.73855 0.0
C944 C 0.22581 0.68844 0.7508 0.0
C945 C 0.21325 0.68776 0.76634 0.0
H946 H 0.24014 0.67567 0.72657 0.0
H947 H 0.12207 0.66966 0.8838 0.0
H948 H 0.36316 0.21357 0.87214 0.0
H949 H 0.35073 0.18849 0.86554 0.0
H950 H 0.36842 0.18771 0.79509 0.0
H951 H 0.38111 0.2131 0.8017 0.0
H952 H 0.33669 0.18257 0.7974 0.0
H953 H 0.38128 0.16024 0.83151 0.0
H954 H 0.40307 0.15735 0.85921 0.0
H955 H 0.37062 0.15027 0.91528 0.0
H956 H 0.34861 0.15335 0.88801 0.0
H957 H 0.28392 0.11718 0.80445 0.0
H958 H 0.30927 0.1297 0.79704 0.0
H959 H 0.30857 0.14928 0.86636 0.0
H960 H 0.28347 0.137 0.87378 0.0
H961 H 0.33796 0.13865 0.8537 0.0
H962 H 0.29509 0.17001 0.82089 0.0
H963 H 0.27301 0.17401 0.79393 0.0
H964 H 0.30283 0.16421 0.73553 0.0
H965 H 0.32504 0.15997 0.76223 0.0
C966 C 0.36464 0.20799 0.85533 0.0
C967 C 0.37304 0.21534 0.83739 0.0
C968 C 0.35763 0.19356 0.85163 0.0
C969 C 0.35877 0.18613 0.8299 0.0
C970 C 0.36751 0.1932 0.81205 0.0
C971 C 0.37476 0.20765 0.81586 0.0
C972 C 0.34935 0.17189 0.82567 0.0
C973 C 0.33729 0.17267 0.80916 0.0
C974 C 0.35009 0.15901 0.84106 0.0
C975 C 0.36327 0.15704 0.85765 0.0
C976 C 0.37877 0.15815 0.84976 0.0
C977 C 0.39117 0.15646 0.8654 0.0
C978 C 0.38823 0.15362 0.88899 0.0
C979 C 0.37288 0.15244 0.89699 0.0
C980 C 0.36044 0.15412 0.88143 0.0
C981 C 0.28933 0.12396 0.81819 0.0
C982 C 0.28164 0.12625 0.83961 0.0
C983 C 0.30378 0.1311 0.81393 0.0
C984 C 0.31076 0.14046 0.83114 0.0
C985 C 0.30343 0.14206 0.85287 0.0
C986 C 0.28901 0.13512 0.85702 0.0
C987 C 0.32492 0.14986 0.82638 0.0
C988 C 0.33781 0.14817 0.84125 0.0
C989 C 0.32496 0.1619 0.8095 0.0
C990 C 0.31164 0.16447 0.79353 0.0
C991 C 0.29689 0.16859 0.80231 0.0
C992 C 0.28437 0.17092 0.78709 0.0
C993 C 0.2865 0.16931 0.76304 0.0
C994 C 0.30118 0.16541 0.75416 0.0
C995 C 0.31374 0.16304 0.76933 0.0
H996 H 0.2768 0.17112 0.75127 0.0
H997 H 0.39785 0.15233 0.90107 0.0
H998 H 0.83916 0.26382 0.84325 0.0
H999 H 0.82422 0.28694 0.83354 0.0
H1000 H 0.8662 0.31029 0.81118 0.0
H1001 H 0.88151 0.28686 0.821 0.0
H1002 H 0.84688 0.32852 0.84101 0.0
H1003 H 0.84185 0.30084 0.77015 0.0
H1004 H 0.83798 0.27788 0.74491 0.0
H1005 H 0.79164 0.27205 0.77193 0.0
H1006 H 0.79529 0.29481 0.79762 0.0
H1007 H 0.78501 0.38533 0.81792 0.0
H1008 H 0.80818 0.36924 0.80972 0.0
H1009 H 0.78372 0.32853 0.83455 0.0
H1010 H 0.76087 0.34432 0.84293 0.0
H1011 H 0.79942 0.32381 0.79194 0.0
H1012 H 0.8082 0.34649 0.86954 0.0
H1013 H 0.81209 0.36871 0.89627 0.0
H1014 H 0.85158 0.38375 0.85602 0.0
H1015 H 0.84778 0.3617 0.82887 0.0
C1016 C 0.84531 0.27379 0.83619 0.0
C1017 C 0.86155 0.27347 0.83291 0.0
C1018 C 0.8367 0.28701 0.83051 0.0
C1019 C 0.84407 0.30026 0.82137 0.0
C1020 C 0.8603 0.30011 0.81809 0.0
C1021 C 0.86899 0.28674 0.82363 0.0
C1022 C 0.83448 0.31423 0.81626 0.0
C1023 C 0.83677 0.32773 0.82969 0.0
C1024 C 0.82127 0.31316 0.80154 0.0
C1025 C 0.81887 0.29956 0.78585 0.0
C1026 C 0.83085 0.29462 0.7708 0.0
C1027 C 0.8287 0.28164 0.7564 0.0
C1028 C 0.81458 0.27351 0.75682 0.0
C1029 C 0.80256 0.27837 0.7716 0.0
C1030 C 0.80466 0.29134 0.78605 0.0
C1031 C 0.78461 0.37294 0.82154 0.0
C1032 C 0.77113 0.36612 0.83118 0.0
C1033 C 0.79782 0.36379 0.81686 0.0
C1034 C 0.79761 0.3477 0.82147 0.0
C1035 C 0.78409 0.34091 0.83073 0.0
C1036 C 0.77106 0.35 0.83566 0.0
C1037 C 0.81143 0.33766 0.81758 0.0
C1038 C 0.80989 0.32489 0.80246 0.0
C1039 C 0.8253 0.33942 0.8307 0.0
C1040 C 0.82757 0.35261 0.84702 0.0
C1041 C 0.81762 0.35463 0.86628 0.0
C1042 C 0.81983 0.36716 0.88153 0.0
C1043 C 0.83204 0.37767 0.87779 0.0
C1044 C 0.8421 0.37563 0.85885 0.0
C1045 C 0.83992 0.36312 0.84353 0.0
H1046 H 0.83373 0.38737 0.88962 0.0
H1047 H 0.81294 0.26345 0.74568 0.0
H1048 H 0.65417 0.23195 0.6273 0.0
H1049 H 0.66899 0.20822 0.63366 0.0
H1050 H 0.63736 0.19462 0.68851 0.0
H1051 H 0.62226 0.21867 0.68228 0.0
H1052 H 0.66935 0.19044 0.70002 0.0
H1053 H 0.63466 0.17502 0.64017 0.0
H1054 H 0.61965 0.17753 0.60369 0.0
H1055 H 0.66222 0.18018 0.56442 0.0
H1056 H 0.67751 0.17794 0.60068 0.0
H1057 H 0.72107 0.12208 0.68733 0.0
H1058 H 0.69656 0.13686 0.69166 0.0
H1059 H 0.71173 0.16883 0.63822 0.0
H1060 H 0.73594 0.1545 0.63394 0.0
H1061 H 0.68121 0.15702 0.6316 0.0
H1062 H 0.7146 0.17916 0.69312 0.0
H1063 H 0.72966 0.17721 0.72968 0.0
H1064 H 0.68879 0.16122 0.76583 0.0
H1065 H 0.67355 0.16289 0.72937 0.0
C1066 C 0.65026 0.22397 0.64073 0.0
C1067 C 0.63695 0.22722 0.65421 0.0
C1068 C 0.65875 0.21034 0.64428 0.0
C1069 C 0.65415 0.19955 0.66132 0.0
C1070 C 0.64103 0.20277 0.67517 0.0
C1071 C 0.63241 0.21648 0.67154 0.0
C1072 C 0.66344 0.18511 0.66435 0.0
C1073 C 0.67162 0.18282 0.6853 0.0
C1074 C 0.66636 0.17513 0.64518 0.0
C1075 C 0.65724 0.17633 0.6232 0.0
C1076 C 0.64083 0.17622 0.62377 0.0
C1077 C 0.63227 0.17759 0.60312 0.0
C1078 C 0.63997 0.17902 0.58175 0.0
C1079 C 0.65626 0.17906 0.58098 0.0
C1080 C 0.66489 0.1777 0.60158 0.0
C1081 C 0.71916 0.1323 0.6766 0.0
C1082 C 0.73047 0.13709 0.66029 0.0
C1083 C 0.70518 0.1407 0.6791 0.0
C1084 C 0.70234 0.15386 0.66514 0.0
C1085 C 0.71365 0.15864 0.64903 0.0
C1086 C 0.72755 0.15043 0.6467 0.0
C1087 C 0.6877 0.16297 0.66675 0.0
C1088 C 0.6785 0.16424 0.64661 0.0
C1089 C 0.68383 0.17191 0.68667 0.0
C1090 C 0.69301 0.17094 0.70849 0.0
C1091 C 0.70887 0.17508 0.70882 0.0
C1092 C 0.71743 0.17406 0.72953 0.0
C1093 C 0.7102 0.16903 0.75004 0.0
C1094 C 0.69439 0.16507 0.74991 0.0
C1095 C 0.68578 0.16605 0.72924 0.0
H1096 H 0.71684 0.16826 0.76606 0.0
H1097 H 0.63332 0.18008 0.56578 0.0
H1098 H 0.76897 0.65345 0.63123 0.0
H1099 H 0.79281 0.6685 0.63509 0.0
H1100 H 0.80798 0.63867 0.69124 0.0
H1101 H 0.78381 0.62333 0.68753 0.0
H1102 H 0.81192 0.67097 0.70041 0.0
H1103 H 0.82629 0.63484 0.64166 0.0
H1104 H 0.82304 0.61906 0.60604 0.0
H1105 H 0.81947 0.66077 0.56495 0.0
H1106 H 0.82246 0.67681 0.60035 0.0
H1107 H 0.87955 0.72174 0.68697 0.0
H1108 H 0.8645 0.69746 0.69114 0.0
H1109 H 0.83502 0.71139 0.63385 0.0
H1110 H 0.8498 0.73537 0.62955 0.0
H1111 H 0.84422 0.681 0.63015 0.0
H1112 H 0.82348 0.71609 0.69 0.0
H1113 H 0.82572 0.7322 0.7255 0.0
H1114 H 0.8412 0.69225 0.76429 0.0
H1115 H 0.83922 0.67595 0.7289 0.0
C1116 C 0.77733 0.64998 0.64442 0.0
C1117 C 0.77446 0.63713 0.65905 0.0
C1118 C 0.79102 0.65859 0.64652 0.0
C1119 C 0.80227 0.65458 0.66322 0.0
C1120 C 0.79947 0.64188 0.67813 0.0
C1121 C 0.78569 0.63313 0.67595 0.0
C1122 C 0.81666 0.66412 0.66495 0.0
C1123 C 0.8193 0.67285 0.68529 0.0
C1124 C 0.82623 0.66662 0.64518 0.0
C1125 C 0.82458 0.65704 0.62372 0.0
C1126 C 0.82473 0.64065 0.62505 0.0
C1127 C 0.82294 0.63166 0.60489 0.0
C1128 C 0.82104 0.6389 0.58325 0.0
C1129 C 0.82096 0.65517 0.58172 0.0
C1130 C 0.82274 0.66422 0.60183 0.0
C1131 C 0.86988 0.71957 0.67524 0.0
C1132 C 0.86586 0.73054 0.65798 0.0
C1133 C 0.8613 0.70572 0.67768 0.0
C1134 C 0.84863 0.70263 0.6628 0.0
C1135 C 0.84478 0.71348 0.64544 0.0
C1136 C 0.85323 0.72726 0.6431 0.0
C1137 C 0.83894 0.68837 0.66517 0.0
C1138 C 0.83721 0.67874 0.64555 0.0
C1139 C 0.83024 0.68507 0.68557 0.0
C1140 C 0.83141 0.69487 0.70677 0.0
C1141 C 0.82749 0.71078 0.70606 0.0
C1142 C 0.82869 0.71994 0.72616 0.0
C1143 C 0.83366 0.71326 0.74712 0.0
C1144 C 0.8374 0.69741 0.74803 0.0
C1145 C 0.83624 0.68821 0.72796 0.0
H1146 H 0.83457 0.72037 0.76267 0.0
H1147 H 0.81965 0.63192 0.56766 0.0
H1148 H 0.2777 0.88507 0.67756 0.0
H1149 H 0.30141 0.87069 0.68864 0.0
H1150 H 0.27724 0.82718 0.67761 0.0
H1151 H 0.25378 0.84129 0.66647 0.0
H1152 H 0.29534 0.82727 0.7182 0.0
H1153 H 0.29951 0.84193 0.63545 0.0
H1154 H 0.30108 0.86128 0.60369 0.0
H1155 H 0.34131 0.88199 0.63586 0.0
H1156 H 0.33984 0.86285 0.66798 0.0
H1157 H 0.33483 0.76456 0.67272 0.0
H1158 H 0.31945 0.7873 0.68329 0.0
H1159 H 0.36153 0.81431 0.69182 0.0
H1160 H 0.37719 0.7913 0.68121 0.0
H1161 H 0.33999 0.82862 0.66314 0.0
H1162 H 0.33996 0.80804 0.73917 0.0
H1163 H 0.33842 0.7881 0.77005 0.0
H1164 H 0.29087 0.77847 0.75146 0.0
H1165 H 0.29217 0.79817 0.72022 0.0
C1166 C 0.27745 0.87244 0.6777 0.0
C1167 C 0.26392 0.86431 0.67093 0.0
C1168 C 0.29097 0.86427 0.68403 0.0
C1169 C 0.29106 0.84788 0.68393 0.0
C1170 C 0.27741 0.83982 0.67793 0.0
C1171 C 0.26403 0.84792 0.67137 0.0
C1172 C 0.30544 0.83879 0.68847 0.0
C1173 C 0.3052 0.82762 0.70633 0.0
C1174 C 0.31855 0.83969 0.67355 0.0
C1175 C 0.31944 0.85112 0.65424 0.0
C1176 C 0.30861 0.85069 0.63583 0.0
C1177 C 0.30949 0.8616 0.61776 0.0
C1178 C 0.32125 0.87289 0.6178 0.0
C1179 C 0.33218 0.87326 0.63588 0.0
C1180 C 0.33133 0.86239 0.65402 0.0
C1181 C 0.34087 0.77525 0.67719 0.0
C1182 C 0.35721 0.77617 0.67603 0.0
C1183 C 0.33205 0.78824 0.68341 0.0
C1184 C 0.33934 0.80248 0.68857 0.0
C1185 C 0.3557 0.80339 0.68806 0.0
C1186 C 0.36461 0.79025 0.68207 0.0
C1187 C 0.32949 0.8165 0.6921 0.0
C1188 C 0.33053 0.82862 0.67572 0.0
C1189 C 0.31711 0.81648 0.70844 0.0
C1190 C 0.31618 0.80461 0.72729 0.0
C1191 C 0.32919 0.80161 0.74156 0.0
C1192 C 0.32836 0.79036 0.75915 0.0
C1193 C 0.31455 0.78203 0.76272 0.0
C1194 C 0.30155 0.78495 0.7487 0.0
C1195 C 0.30232 0.79619 0.73107 0.0
H1196 H 0.31393 0.77331 0.77634 0.0
H1197 H 0.32192 0.88133 0.60379 0.0
H1198 H 0.11448 0.29619 0.68898 0.0
H1199 H 0.12735 0.32145 0.69555 0.0
H1200 H 0.1723 0.29921 0.68891 0.0
H1201 H 0.15964 0.27421 0.68263 0.0
H1202 H 0.17366 0.32221 0.72056 0.0
H1203 H 0.1533 0.31434 0.64106 0.0
H1204 H 0.13191 0.31025 0.61289 0.0
H1205 H 0.1095 0.35209 0.63688 0.0
H1206 H 0.13071 0.35631 0.66537 0.0
H1207 H 0.21754 0.36354 0.62767 0.0
H1208 H 0.19385 0.35052 0.64043 0.0
H1209 H 0.19487 0.37642 0.70496 0.0
H1210 H 0.21893 0.38949 0.69229 0.0
H1211 H 0.16481 0.35788 0.65372 0.0
H1212 H 0.18379 0.35008 0.74784 0.0
H1213 H 0.2074 0.35167 0.77242 0.0
H1214 H 0.23573 0.33793 0.71413 0.0
H1215 H 0.21226 0.3361 0.68934 0.0
C1216 C 0.1271 0.29668 0.68957 0.0
C1217 C 0.13607 0.2833 0.68493 0.0
C1218 C 0.13443 0.3111 0.69327 0.0
C1219 C 0.15079 0.31224 0.69245 0.0
C1220 C 0.15968 0.29864 0.68966 0.0
C1221 C 0.15241 0.28435 0.68586 0.0
C1222 C 0.15889 0.32751 0.69121 0.0
C1223 C 0.17147 0.33027 0.70634 0.0
C1224 C 0.15611 0.33802 0.67261 0.0
C1225 C 0.14344 0.33552 0.65549 0.0
C1226 C 0.14375 0.3226 0.64039 0.0
C1227 C 0.13168 0.32027 0.62438 0.0
C1228 C 0.11933 0.33088 0.62315 0.0
C1229 C 0.11905 0.34386 0.6379 0.0
C1230 C 0.13109 0.34623 0.65398 0.0
C1231 C 0.21263 0.36668 0.64444 0.0
C1232 C 0.22025 0.37737 0.65912 0.0
C1233 C 0.19899 0.35931 0.65164 0.0
C1234 C 0.19265 0.36238 0.67373 0.0
C1235 C 0.19963 0.3738 0.6879 0.0
C1236 C 0.21335 0.38127 0.68062 0.0
C1237 C 0.17997 0.35215 0.68245 0.0
C1238 C 0.16653 0.35036 0.66873 0.0
C1239 C 0.18218 0.34229 0.70198 0.0
C1240 C 0.19633 0.34317 0.71673 0.0
C1241 C 0.19506 0.34739 0.74032 0.0
C1242 C 0.20841 0.34832 0.75427 0.0
C1243 C 0.22307 0.34496 0.74481 0.0
C1244 C 0.22439 0.34058 0.72141 0.0
C1245 C 0.21107 0.3396 0.70741 0.0
H1246 H 0.23339 0.34572 0.75563 0.0
H1247 H 0.10999 0.32906 0.61073 0.0
H1248 H 0.24577 0.06793 0.09722 0.0
H1249 H 0.24572 0.0528 0.06065 0.0
H1250 H 0.21023 0.08327 0.03286 0.0
H1251 H 0.21035 0.0983 0.06879 0.0
H1252 H 0.20598 0.05234 0.01905 0.0
H1253 H 0.24876 0.09197 0.02493 0.0
H1254 H 0.27293 0.1016 0.04345 0.0
H1255 H 0.29482 0.05721 0.03185 0.0
H1256 H 0.2707 0.04732 0.01345 0.0
H1257 H 0.20927 0.09425 0.91968 0.0
H1258 H 0.20867 0.08 0.95629 0.0
H1259 H 0.24614 0.05044 0.9323 0.0
H1260 H 0.24664 0.06476 0.89508 0.0
H1261 H 0.25319 0.06507 0.97281 0.0
H1262 H 0.21251 0.03269 0.94893 0.0
H1263 H 0.18821 0.02477 0.92927 0.0
H1264 H 0.16184 0.05518 0.97382 0.0
H1265 H 0.18597 0.0635 0.99352 0.0
C1266 C 0.23774 0.07112 0.08344 0.0
C1267 C 0.22823 0.08441 0.08562 0.0
C1268 C 0.23771 0.06248 0.06263 0.0
C1269 C 0.22799 0.06694 0.04403 0.0
C1270 C 0.21774 0.07954 0.047 0.0
C1271 C 0.21794 0.08823 0.06747 0.0
C1272 C 0.22973 0.0604 0.02025 0.0
C1273 C 0.21636 0.05478 0.00887 0.0
C1274 C 0.2435 0.06292 0.0072 0.0
C1275 C 0.25795 0.06888 0.01811 0.0
C1276 C 0.25873 0.08427 0.02645 0.0
C1277 C 0.2724 0.08977 0.03691 0.0
C1278 C 0.28539 0.08 0.03889 0.0
C1279 C 0.28474 0.06474 0.03036 0.0
C1280 C 0.27108 0.05918 0.01993 0.0
C1281 C 0.21707 0.08441 0.9219 0.0
C1282 C 0.22807 0.08066 0.90468 0.0
C1283 C 0.21663 0.07616 0.94278 0.0
C1284 C 0.22727 0.06403 0.94702 0.0
C1285 C 0.23773 0.05965 0.9293 0.0
C1286 C 0.23799 0.0678 0.90808 0.0
C1287 C 0.22899 0.05827 0.97128 0.0
C1288 C 0.24304 0.06159 0.98285 0.0
C1289 C 0.21581 0.05365 0.98443 0.0
C1290 C 0.20112 0.04867 0.9728 0.0
C1291 C 0.20155 0.03774 0.9545 0.0
C1292 C 0.18779 0.03318 0.94334 0.0
C1293 C 0.17349 0.03945 0.95031 0.0
C1294 C 0.17292 0.0503 0.96848 0.0
C1295 C 0.18665 0.05491 0.97971 0.0
H1296 H 0.16285 0.03591 0.94164 0.0
H1297 H 0.29596 0.08428 0.04698 0.0
H1298 H 0.88981 0.23349 0.93586 0.0
H1299 H 0.90368 0.23528 0.9726 0.0
H1300 H 0.94747 0.23879 0.93595 0.0
H1301 H 0.93348 0.23711 0.89842 0.0
H1302 H 0.94645 0.21652 0.97515 0.0
H1303 H 0.93858 0.26998 0.96095 0.0
H1304 H 0.92448 0.29337 0.94753 0.0
H1305 H 0.88938 0.28598 -0.00019 0.0
H1306 H 0.90311 0.26241 0.01332 0.0
H1307 H 0.93291 0.24503 0.10647 0.0
H1308 H 0.9457 0.24934 0.06867 0.0
H1309 H 0.92347 0.20796 0.04156 0.0
H1310 H 0.91079 0.20371 0.07891 0.0
H1311 H 0.92845 0.2561 0.03227 0.0
H1312 H 0.94095 0.19265 0.99716 0.0
H1313 H 0.9549 0.1692 0.0106 0.0
H1314 H 0.98229 0.1971 0.05739 0.0
H1315 H 0.96871 0.22079 0.044 0.0
C1316 C 0.90238 0.23465 0.93542 0.0
C1317 C 0.91053 0.23516 0.91415 0.0
C1318 C 0.9103 0.23575 0.9565 0.0
C1319 C 0.92656 0.23736 0.95696 0.0
C1320 C 0.93489 0.23766 0.93588 0.0
C1321 C 0.92689 0.23671 0.91453 0.0
C1322 C 0.93436 0.23826 0.97993 0.0
C1323 C 0.94287 0.2253 0.98768 0.0
C1324 C 0.9302 0.25008 0.99596 0.0
C1325 C 0.92194 0.26442 0.9882 0.0
C1326 C 0.92783 0.27331 0.96955 0.0
C1327 C 0.9199 0.2866 0.96191 0.0
C1328 C 0.90606 0.29117 0.97283 0.0
C1329 C 0.90013 0.28245 0.99141 0.0
C1330 C 0.90801 0.26914 -0.00089 0.0
C1331 C 0.93127 0.23656 0.09266 0.0
C1332 C 0.92072 0.22415 0.09544 0.0
C1333 C 0.93857 0.23904 0.07109 0.0
C1334 C 0.93561 0.22896 0.05225 0.0
C1335 C 0.9262 0.21577 0.05585 0.0
C1336 C 0.9188 0.21342 0.07718 0.0
C1337 C 0.93928 0.23361 0.02791 0.0
C1338 C 0.93281 0.24764 0.01982 0.0
C1339 C 0.94545 0.22282 0.01164 0.0
C1340 C 0.95379 0.20856 0.0195 0.0
C1341 C 0.95006 0.19385 0.01013 0.0
C1342 C 0.95787 0.18049 0.01781 0.0
C1343 C 0.96947 0.18166 0.03483 0.0
C1344 C 0.97329 0.1962 0.04422 0.0
C1345 C 0.96551 0.2096 0.03662 0.0
H1346 H 0.9755 0.1713 0.04075 0.0
H1347 H 0.89992 0.30146 0.96687 0.0
H1348 H 0.75916 0.93046 0.89601 0.0
H1349 H 0.75882 0.94239 0.93506 0.0
H1350 H 0.75202 0.89694 0.96576 0.0
H1351 H 0.7522 0.88512 0.92735 0.0
H1352 H 0.73443 0.91844 0.98756 0.0
H1353 H 0.78876 0.91302 0.9595 0.0
H1354 H 0.81016 0.91944 0.93234 0.0
H1355 H 0.80465 0.96814 0.94786 0.0
H1356 H 0.7831 0.96197 0.97495 0.0
H1357 H 0.79151 0.90165 0.07801 0.0
H1358 H 0.78694 0.91226 0.03933 0.0
H1359 H 0.74978 0.94097 0.06644 0.0
H1360 H 0.75423 0.93014 0.10554 0.0
H1361 H 0.78517 0.93924 0.01522 0.0
H1362 H 0.71985 0.93737 0.02738 0.0
H1363 H 0.69989 0.92716 0.05448 0.0
H1364 H 0.72935 0.88811 0.07062 0.0
H1365 H 0.74937 0.89802 0.04344 0.0
C1366 C 0.75737 0.92309 0.91112 0.0
C1367 C 0.75587 0.90682 0.90862 0.0
C1368 C 0.75719 0.92991 0.93337 0.0
C1369 C 0.75542 0.92054 0.95332 0.0
C1370 C 0.75328 0.90443 0.95064 0.0
C1371 C 0.75354 0.89765 0.92861 0.0
C1372 C 0.7571 0.92683 0.97728 0.0
C1373 C 0.74535 0.92345 0.99355 0.0
C1374 C 0.7713 0.93341 0.98514 0.0
C1375 C 0.78424 0.93707 0.96896 0.0
C1376 C 0.79207 0.92509 0.95699 0.0
C1377 C 0.80422 0.92868 0.94164 0.0
C1378 C 0.80873 0.94419 0.93831 0.0
C1379 C 0.80112 0.95614 0.9504 0.0
C1380 C 0.78894 0.95261 0.96574 0.0
C1381 C 0.78261 0.9105 0.07591 0.0
C1382 C 0.77302 0.91483 0.09469 0.0
C1383 C 0.7801 0.91669 0.05378 0.0
C1384 C 0.76788 0.92725 0.04991 0.0
C1385 C 0.7592 0.93274 0.06904 0.0
C1386 C 0.76177 0.92656 0.09135 0.0
C1387 C 0.76281 0.93003 0.02552 0.0
C1388 C 0.77389 0.93515 0.00917 0.0
C1389 C 0.74812 0.92469 0.01755 0.0
C1390 C 0.73613 0.91854 0.03367 0.0
C1391 C 0.72202 0.9266 0.03672 0.0
C1392 C 0.71071 0.92086 0.05207 0.0
C1393 C 0.71338 0.90703 0.06433 0.0
C1394 C 0.72732 0.89885 0.06117 0.0
C1395 C 0.73865 0.90451 0.0458 0.0
H1396 H 0.70462 0.90262 0.07623 0.0
H1397 H 0.81814 0.94695 0.92643 0.0
H1398 H 0.1139 0.74319 0.9244 0.0
H1399 H 0.10132 0.73955 0.962 0.0
H1400 H 0.05857 0.75883 0.93472 0.0
H1401 H 0.0712 0.76231 0.89638 0.0
H1402 H 0.06965 0.77299 0.97689 0.0
H1403 H 0.05579 0.72295 0.95113 0.0
H1404 H 0.05874 0.69774 0.93094 0.0
H1405 H 0.09613 0.68526 0.97713 0.0
H1406 H 0.0936 0.71048 0.99738 0.0
H1407 H 0.06775 0.76307 0.10242 0.0
H1408 H 0.05671 0.75955 0.06305 0.0
H1409 H 0.10028 0.73965 0.03994 0.0
H1410 H 0.11128 0.74325 0.07862 0.0
H1411 H 0.07412 0.72391 0.02222 0.0
H1412 H 0.09384 0.77799 0.03339 0.0
H1413 H 0.09267 0.80375 0.05256 0.0
H1414 H 0.04451 0.80828 0.03309 0.0
H1415 H 0.04539 0.78246 0.01401 0.0
C1416 C 0.10176 0.74648 0.92624 0.0
C1417 C 0.09355 0.75312 0.90754 0.0
C1418 C 0.09453 0.74427 0.9477 0.0
C1419 C 0.07897 0.74876 0.95107 0.0
C1420 C 0.07056 0.75516 0.93235 0.0
C1421 C 0.07776 0.75712 0.91054 0.0
C1422 C 0.0725 0.74806 0.97499 0.0
C1423 C 0.06996 0.76218 0.98673 0.0
C1424 C 0.07289 0.73396 0.98778 0.0
C1425 C 0.07446 0.71864 0.97585 0.0
C1426 C 0.06469 0.71486 0.95694 0.0
C1427 C 0.06629 0.70056 0.94548 0.0
C1428 C 0.0776 0.6899 0.95277 0.0
C1429 C 0.08734 0.69351 0.97155 0.0
C1430 C 0.0858 0.7078 0.98307 0.0
C1431 C 0.07483 0.75773 0.08895 0.0
C1432 C 0.09042 0.75359 0.09346 0.0
C1433 C 0.06852 0.75573 0.06656 0.0
C1434 C 0.07769 0.74932 0.04863 0.0
C1435 C 0.09296 0.7445 0.05354 0.0
C1436 C 0.09929 0.74671 0.07563 0.0
C1437 C 0.07243 0.74891 0.02404 0.0
C1438 C 0.07283 0.73458 0.01224 0.0
C1439 C 0.07011 0.7628 0.01118 0.0
C1440 C 0.06962 0.77827 0.02258 0.0
C1441 C 0.08298 0.78445 0.03336 0.0
C1442 C 0.08238 0.79906 0.04417 0.0
C1443 C 0.06851 0.80762 0.04411 0.0
C1444 C 0.05523 0.80162 0.03318 0.0
C1445 C 0.05577 0.787 0.02237 0.0
H1446 H 0.06806 0.81893 0.05249 0.0
H1447 H 0.07883 0.67883 0.94386 0.0
H1448 H 0.22277 0.88558 0.41282 0.0
H1449 H 0.22181 0.89719 0.45138 0.0
H1450 H 0.24586 0.93795 0.42593 0.0
H1451 H 0.24669 0.92637 0.3865 0.0
H1452 H 0.25727 0.92121 0.47163 0.0
H1453 H 0.21376 0.94728 0.43844 0.0
H1454 H 0.19032 0.94965 0.41377 0.0
H1455 H 0.16701 0.915 0.4551 0.0
H1456 H 0.19038 0.91222 0.4798 0.0
H1457 H 0.23916 0.92737 0.59438 0.0
H1458 H 0.24178 0.93783 0.55459 0.0
H1459 H 0.21132 0.90159 0.529 0.0
H1460 H 0.20866 0.89123 0.56822 0.0
H1461 H 0.20535 0.9294 0.50786 0.0
H1462 H 0.25111 0.89715 0.52887 0.0
H1463 H 0.2746 0.89188 0.55248 0.0
H1464 H 0.29341 0.93655 0.53355 0.0
H1465 H 0.26993 0.94212 0.51002 0.0
C1466 C 0.2279 0.89701 0.41524 0.0
C1467 C 0.23484 0.90504 0.39655 0.0
C1468 C 0.22728 0.90365 0.43733 0.0
C1469 C 0.23367 0.91843 0.4414 0.0
C1470 C 0.24082 0.92653 0.423 0.0
C1471 C 0.24125 0.91993 0.40057 0.0
C1472 C 0.23278 0.92479 0.46533 0.0
C1473 C 0.24604 0.92367 0.47954 0.0
C1474 C 0.21809 0.92781 0.47556 0.0
C1475 C 0.20385 0.92957 0.461 0.0
C1476 C 0.20366 0.94011 0.44221 0.0
C1477 C 0.19038 0.94153 0.42822 0.0
C1478 C 0.17719 0.93249 0.43287 0.0
C1479 C 0.17723 0.92202 0.45155 0.0
C1480 C 0.19049 0.92055 0.46559 0.0
C1481 C 0.23283 0.92185 0.58028 0.0
C1482 C 0.22383 0.90838 0.58436 0.0
C1483 C 0.23436 0.92781 0.55759 0.0
C1484 C 0.22679 0.92045 0.53883 0.0
C1485 C 0.21721 0.90752 0.5432 0.0
C1486 C 0.21579 0.90152 0.56565 0.0
C1487 C 0.22968 0.92493 0.51423 0.0
C1488 C 0.21674 0.92794 0.49993 0.0
C1489 C 0.24464 0.92351 0.50395 0.0
C1490 C 0.25872 0.92013 0.51798 0.0
C1491 C 0.26022 0.90587 0.52989 0.0
C1492 C 0.27353 0.90283 0.54323 0.0
C1493 C 0.28547 0.9139 0.54459 0.0
C1494 C 0.28414 0.92801 0.53254 0.0
C1495 C 0.27084 0.93112 0.51921 0.0
H1496 H 0.29576 0.91152 0.55492 0.0
H1497 H 0.16692 0.93359 0.422 0.0
H1498 H 0.06936 0.23997 0.60924 0.0
H1499 H 0.05688 0.23953 0.57053 0.0
H1500 H 0.09993 0.25524 0.53935 0.0
H1501 H 0.11225 0.25577 0.5774 0.0
H1502 H 0.07522 0.26871 0.51831 0.0
H1503 H 0.09137 0.21591 0.54469 0.0
H1504 H 0.08923 0.19344 0.57141 0.0
H1505 H 0.04018 0.19014 0.55699 0.0
H1506 H 0.04204 0.21271 0.53033 0.0
H1507 H 0.10387 0.21542 0.42841 0.0
H1508 H 0.09263 0.21891 0.46692 0.0
H1509 H 0.05747 0.24939 0.43821 0.0
H1510 H 0.06889 0.24601 0.39919 0.0
H1511 H 0.06531 0.21505 0.48957 0.0
H1512 H 0.05395 0.27933 0.47813 0.0
H1513 H 0.06007 0.30117 0.45155 0.0
H1514 H 0.10457 0.2806 0.4361 0.0
H1515 H 0.09874 0.25875 0.46274 0.0
C1516 C 0.07601 0.2436 0.59411 0.0
C1517 C 0.09184 0.24769 0.59627 0.0
C1518 C 0.06888 0.24334 0.57207 0.0
C1519 C 0.07749 0.24731 0.55205 0.0
C1520 C 0.093 0.25223 0.55452 0.0
C1521 C 0.1001 0.25237 0.57631 0.0
C1522 C 0.07146 0.24475 0.52811 0.0
C1523 C 0.07253 0.25706 0.51206 0.0
C1524 C 0.06789 0.2296 0.51991 0.0
C1525 C 0.0668 0.21606 0.53581 0.0
C1526 C 0.08013 0.21043 0.54734 0.0
C1527 C 0.07897 0.19768 0.56245 0.0
C1528 C 0.06457 0.1904 0.56596 0.0
C1529 C 0.05131 0.19582 0.5543 0.0
C1530 C 0.05241 0.20858 0.53921 0.0
C1531 C 0.09358 0.22267 0.43014 0.0
C1532 C 0.08743 0.23066 0.41083 0.0
C1533 C 0.08705 0.22453 0.45218 0.0
C1534 C 0.07428 0.23451 0.45551 0.0
C1535 C 0.06738 0.24169 0.43603 0.0
C1536 C 0.07391 0.23975 0.41378 0.0
C1537 C 0.07003 0.23884 0.47974 0.0
C1538 C 0.06698 0.22687 0.49583 0.0
C1539 C 0.07213 0.25426 0.48799 0.0
C1540 C 0.07582 0.26736 0.47213 0.0
C1541 C 0.06503 0.2795 0.46904 0.0
C1542 C 0.06845 0.29188 0.45399 0.0
C1543 C 0.08267 0.29224 0.44207 0.0
C1544 C 0.09354 0.28028 0.44527 0.0
C1545 C 0.09018 0.2679 0.46033 0.0
H1546 H 0.08529 0.30182 0.43041 0.0
H1547 H 0.06369 0.18053 0.57765 0.0
H1548 H 0.78002 0.06269 0.60486 0.0
H1549 H 0.77824 0.04719 0.56856 0.0
H1550 H 0.75173 0.08423 0.53653 0.0
H1551 H 0.75386 0.09966 0.57196 0.0
H1552 H 0.7407 0.05303 0.52564 0.0
H1553 H 0.79021 0.08563 0.52901 0.0
H1554 H 0.81556 0.09085 0.54796 0.0
H1555 H 0.82793 0.0425 0.54138 0.0
H1556 H 0.80257 0.03703 0.52253 0.0
H1557 H 0.75223 0.10097 0.43615 0.0
H1558 H 0.75222 0.08523 0.4714 0.0
H1559 H 0.77354 0.04714 0.43397 0.0
H1560 H 0.77312 0.06293 0.39786 0.0
H1561 H 0.78899 0.05957 0.47899 0.0
H1562 H 0.74306 0.03554 0.45351 0.0
H1563 H 0.71763 0.0333 0.43373 0.0
H1564 H 0.69766 0.066 0.48195 0.0
H1565 H 0.723 0.06867 0.5018 0.0
C1566 C 0.7736 0.06729 0.59011 0.0
C1567 C 0.76721 0.08238 0.59095 0.0
C1568 C 0.77256 0.05846 0.56951 0.0
C1569 C 0.76474 0.06454 0.54997 0.0
C1570 C 0.75764 0.07924 0.55148 0.0
C1571 C 0.759 0.08811 0.57164 0.0
C1572 C 0.76543 0.05713 0.52669 0.0
C1573 C 0.75129 0.0539 0.51537 0.0
C1574 C 0.77935 0.05764 0.51351 0.0
C1575 C 0.79456 0.06093 0.52456 0.0
C1576 C 0.79836 0.07614 0.53167 0.0
C1577 C 0.8127 0.07913 0.54239 0.0
C1578 C 0.82334 0.06701 0.54591 0.0
C1579 C 0.81967 0.05187 0.53868 0.0
C1580 C 0.80532 0.04882 0.52799 0.0
C1581 C 0.75676 0.08919 0.43528 0.0
C1582 C 0.76278 0.08319 0.41438 0.0
C1583 C 0.75665 0.08016 0.45539 0.0
C1584 C 0.76276 0.065 0.4552 0.0
C1585 C 0.76865 0.05878 0.43432 0.0
C1586 C 0.76841 0.06777 0.41383 0.0
C1587 C 0.76403 0.05681 0.4778 0.0
C1588 C 0.77853 0.05728 0.48909 0.0
C1589 C 0.75039 0.05378 0.49091 0.0
C1590 C 0.73497 0.05221 0.47927 0.0
C1591 C 0.73327 0.0423 0.45988 0.0
C1592 C 0.71886 0.04095 0.44864 0.0
C1593 C 0.70603 0.04947 0.45662 0.0
C1594 C 0.70759 0.05936 0.47585 0.0
C1595 C 0.72198 0.06075 0.48715 0.0
H1596 H 0.69489 0.04842 0.44788 0.0
H1597 H 0.83444 0.06934 0.5542 0.0
H1598 H 0.90786 0.79266 0.57532 0.0
H1599 H 0.92053 0.78801 0.53816 0.0
H1600 H 0.94812 0.75133 0.56909 0.0
H1601 H 0.93507 0.75582 0.60668 0.0
H1602 H 0.94763 0.78601 0.5159 0.0
H1603 H 0.94753 0.72159 0.53093 0.0
H1604 H 0.93772 0.70167 0.55843 0.0
H1605 H 0.89663 0.72914 0.5707 0.0
H1606 H 0.90617 0.74911 0.54313 0.0
H1607 H 0.93275 0.7617 0.39728 0.0
H1608 H 0.94729 0.76043 0.4343 0.0
H1609 H 0.90409 0.75292 0.47133 0.0
H1610 H 0.88975 0.75401 0.43501 0.0
H1611 H 0.92678 0.73508 0.48927 0.0
H1612 H 0.92 0.79028 0.46374 0.0
H1613 H 0.92535 0.81186 0.43637 0.0
H1614 H 0.97462 0.80494 0.44519 0.0
H1615 H 0.96951 0.78322 0.47248 0.0
C1616 C 0.91693 0.78388 0.57443 0.0
C1617 C 0.92021 0.77435 0.59371 0.0
C1618 C 0.92431 0.78132 0.55317 0.0
C1619 C 0.93509 0.76912 0.55067 0.0
C1620 C 0.9397 0.76069 0.57056 0.0
C1621 C 0.93227 0.76329 0.59202 0.0
C1622 C 0.93866 0.76366 0.52666 0.0
C1623 C 0.9436 0.77466 0.51007 0.0
C1624 C 0.93352 0.74883 0.51894 0.0
C1625 C 0.92763 0.73685 0.53525 0.0
C1626 C 0.9364 0.72333 0.5395 0.0
C1627 C 0.93089 0.71205 0.55508 0.0
C1628 C 0.91659 0.71416 0.56636 0.0
C1629 C 0.90772 0.72753 0.562 0.0
C1630 C 0.91316 0.73882 0.5464 0.0
C1631 C 0.92645 0.75956 0.41334 0.0
C1632 C 0.91008 0.75814 0.41326 0.0
C1633 C 0.93475 0.75882 0.43442 0.0
C1634 C 0.92678 0.75658 0.45559 0.0
C1635 C 0.91055 0.75452 0.45525 0.0
C1636 C 0.90231 0.75531 0.43441 0.0
C1637 C 0.93455 0.75788 0.47862 0.0
C1638 C 0.93187 0.74602 0.49501 0.0
C1639 C 0.94134 0.77205 0.48614 0.0
C1640 C 0.94439 0.78507 0.46986 0.0
C1641 C 0.93196 0.79333 0.45972 0.0
C1642 C 0.93495 0.80558 0.44425 0.0
C1643 C 0.95032 0.80973 0.43898 0.0
C1644 C 0.96273 0.80168 0.44923 0.0
C1645 C 0.9598 0.78941 0.46469 0.0
H1646 H 0.95262 0.81922 0.427 0.0
H1647 H 0.91236 0.70543 0.57844 0.0
H1648 H 0.71015 0.59359 0.57882 0.0
H1649 H 0.71157 0.57847 0.54306 0.0
H1650 H 0.75118 0.55318 0.57005 0.0
H1651 H 0.74969 0.56841 0.60639 0.0
H1652 H 0.75739 0.56686 0.52853 0.0
H1653 H 0.71932 0.53208 0.55454 0.0
H1654 H 0.69553 0.52289 0.57439 0.0
H1655 H 0.66723 0.54913 0.52667 0.0
H1656 H 0.69082 0.55869 0.50674 0.0
H1657 H 0.75162 0.56294 0.40406 0.0
H1658 H 0.7521 0.54972 0.44221 0.0
H1659 H 0.71405 0.57874 0.46554 0.0
H1660 H 0.71366 0.59194 0.42801 0.0
H1661 H 0.71203 0.54816 0.48267 0.0
H1662 H 0.75132 0.59087 0.47343 0.0
H1663 H 0.77483 0.60168 0.45451 0.0
H1664 H 0.80037 0.56013 0.47159 0.0
H1665 H 0.77693 0.54904 0.49043 0.0
C1666 C 0.71894 0.58455 0.57741 0.0
C1667 C 0.7299 0.58225 0.59526 0.0
C1668 C 0.71964 0.57577 0.55703 0.0
C1669 C 0.73138 0.56454 0.55393 0.0
C1670 C 0.74193 0.56166 0.57219 0.0
C1671 C 0.74107 0.57035 0.59289 0.0
C1672 C 0.73385 0.55807 0.53022 0.0
C1673 C 0.74769 0.56211 0.51864 0.0
C1674 C 0.72126 0.55181 0.51728 0.0
C1675 C 0.70691 0.54607 0.52906 0.0
C1676 C 0.70803 0.53595 0.54831 0.0
C1677 C 0.69457 0.53067 0.55959 0.0
C1678 C 0.67988 0.5354 0.55177 0.0
C1679 C 0.67862 0.54543 0.53266 0.0
C1680 C 0.69204 0.55075 0.52132 0.0
C1681 C 0.74315 0.56619 0.41721 0.0
C1682 C 0.73275 0.57859 0.41329 0.0
C1683 C 0.74342 0.55863 0.43892 0.0
C1684 C 0.73313 0.56329 0.4567 0.0
C1685 C 0.72203 0.57489 0.45205 0.0
C1686 C 0.72192 0.58254 0.43066 0.0
C1687 C 0.73503 0.55812 0.48118 0.0
C1688 C 0.72202 0.55193 0.49281 0.0
C1689 C 0.74836 0.5624 0.49422 0.0
C1690 C 0.7624 0.56908 0.48305 0.0
C1691 C 0.76195 0.58403 0.47302 0.0
C1692 C 0.77524 0.5902 0.46234 0.0
C1693 C 0.78907 0.58158 0.46178 0.0
C1694 C 0.78964 0.56678 0.47198 0.0
C1695 C 0.77636 0.56054 0.48265 0.0
H1696 H 0.79936 0.58637 0.45351 0.0
H1697 H 0.66947 0.53131 0.56054 0.0
H1698 H 0.43456 0.73364 0.39341 0.0
H1699 H 0.44521 0.73806 0.43287 0.0
H1700 H 0.40056 0.75587 0.45512 0.0
H1701 H 0.38991 0.75124 0.41644 0.0
H1702 H 0.42666 0.77348 0.47175 0.0
H1703 H 0.40802 0.71868 0.46342 0.0
H1704 H 0.40994 0.69254 0.44561 0.0
H1705 H 0.45811 0.6897 0.46578 0.0
H1706 H 0.45647 0.71592 0.48351 0.0
H1707 H 0.38599 0.75614 0.56932 0.0
H1708 H 0.39905 0.759 0.53195 0.0
H1709 H 0.44162 0.74091 0.56161 0.0
H1710 H 0.42849 0.73824 0.59971 0.0
H1711 H 0.43145 0.72563 0.51989 0.0
H1712 H 0.44421 0.77644 0.54323 0.0
H1713 H 0.44071 0.80209 0.56192 0.0
H1714 H 0.40373 0.81294 0.5141 0.0
H1715 H 0.40681 0.78727 0.49534 0.0
C1716 C 0.42715 0.73868 0.40673 0.0
C1717 C 0.41138 0.74195 0.40201 0.0
C1718 C 0.43323 0.74121 0.42916 0.0
C1719 C 0.42367 0.74735 0.44682 0.0
C1720 C 0.40817 0.75125 0.44169 0.0
C1721 C 0.40206 0.74846 0.41963 0.0
C1722 C 0.42882 0.74849 0.47139 0.0
C1723 C 0.42805 0.76309 0.48236 0.0
C1724 C 0.43124 0.73498 0.48505 0.0
C1725 C 0.43219 0.71928 0.47448 0.0
C1726 C 0.41904 0.7125 0.46389 0.0
C1727 C 0.42007 0.69768 0.45385 0.0
C1728 C 0.43416 0.68948 0.45449 0.0
C1729 C 0.44722 0.69608 0.46524 0.0
C1730 C 0.44625 0.71091 0.47528 0.0
C1731 C 0.39819 0.75295 0.56805 0.0
C1732 C 0.4062 0.74689 0.58736 0.0
C1733 C 0.40569 0.75471 0.54671 0.0
C1734 C 0.42135 0.75033 0.54408 0.0
C1735 C 0.42956 0.7445 0.5634 0.0
C1736 C 0.42208 0.74299 0.58507 0.0
C1737 C 0.42815 0.75055 0.52034 0.0
C1738 C 0.43108 0.73619 0.50946 0.0
C1739 C 0.42771 0.76432 0.50676 0.0
C1740 C 0.4258 0.77989 0.51781 0.0
C1741 C 0.43528 0.78426 0.53674 0.0
C1742 C 0.43337 0.79882 0.54736 0.0
C1743 C 0.42202 0.80915 0.53919 0.0
C1744 C 0.41256 0.80494 0.52037 0.0
C1745 C 0.41441 0.7904 0.50969 0.0
H1746 H 0.42055 0.82041 0.54744 0.0
H1747 H 0.43494 0.678 0.44672 0.0
H1748 H 0.26573 0.43406 0.38915 0.0
H1749 H 0.26535 0.44838 0.42644 0.0
H1750 H 0.25362 0.40577 0.46246 0.0
H1751 H 0.25401 0.3916 0.42585 0.0
H1752 H 0.23734 0.43077 0.47977 0.0
H1753 H 0.29179 0.41704 0.45666 0.0
H1754 H 0.31435 0.41977 0.43019 0.0
H1755 H 0.31346 0.46947 0.43945 0.0
H1756 H 0.2908 0.467 0.46583 0.0
H1757 H 0.28878 0.40438 0.56956 0.0
H1758 H 0.28696 0.41698 0.53172 0.0
H1759 H 0.25492 0.45087 0.56007 0.0
H1760 H 0.25667 0.43809 0.59836 0.0
H1761 H 0.28997 0.44465 0.50913 0.0
H1762 H 0.22574 0.45332 0.52038 0.0
H1763 H 0.20404 0.44654 0.54689 0.0
H1764 H 0.22549 0.40232 0.56138 0.0
H1765 H 0.24721 0.40882 0.53479 0.0
C1766 C 0.26285 0.42786 0.40504 0.0
C1767 C 0.26009 0.41168 0.40466 0.0
C1768 C 0.26262 0.43604 0.42626 0.0
C1769 C 0.25943 0.42813 0.44719 0.0
C1770 C 0.25597 0.41215 0.44652 0.0
C1771 C 0.25636 0.40402 0.42556 0.0
C1772 C 0.26118 0.43558 0.47036 0.0
C1773 C 0.2487 0.4344 0.4861 0.0
C1774 C 0.27595 0.4404 0.47862 0.0
C1775 C 0.28956 0.44186 0.46294 0.0
C1776 C 0.29639 0.42854 0.45293 0.0
C1777 C 0.30918 0.43004 0.43797 0.0
C1778 C 0.31531 0.44479 0.43308 0.0
C1779 C 0.30868 0.45806 0.4432 0.0
C1780 C 0.29587 0.45662 0.45815 0.0
C1781 C 0.28169 0.41479 0.56794 0.0
C1782 C 0.27262 0.42008 0.58673 0.0
C1783 C 0.28077 0.42209 0.54632 0.0
C1784 C 0.27065 0.43475 0.54296 0.0
C1785 C 0.26274 0.44106 0.56227 0.0
C1786 C 0.26375 0.43376 0.58411 0.0
C1787 C 0.26635 0.43884 0.51866 0.0
C1788 C 0.27832 0.4422 0.50269 0.0
C1789 C 0.25116 0.43572 0.51016 0.0
C1790 C 0.23811 0.43163 0.52588 0.0
C1791 C 0.22578 0.44216 0.52923 0.0
C1792 C 0.21349 0.43836 0.54424 0.0
C1793 C 0.21341 0.42403 0.55587 0.0
C1794 C 0.22558 0.41342 0.55241 0.0
C1795 C 0.23787 0.41715 0.53737 0.0
H1796 H 0.20391 0.42112 0.56751 0.0
H1797 H 0.32522 0.44593 0.4215 0.0
H1798 H 0.59241 0.29048 0.57098 0.0
H1799 H 0.57746 0.28912 0.53499 0.0
H1800 H 0.55446 0.24745 0.55946 0.0
H1801 H 0.56939 0.24897 0.59614 0.0
H1802 H 0.56948 0.24373 0.51694 0.0
H1803 H 0.53131 0.27732 0.54657 0.0
H1804 H 0.52033 0.2994 0.56865 0.0
H1805 H 0.54374 0.33167 0.52331 0.0
H1806 H 0.55508 0.30981 0.50117 0.0
H1807 H 0.56516 0.25256 0.39409 0.0
H1808 H 0.55148 0.25012 0.43167 0.0
H1809 H 0.57586 0.29073 0.45717 0.0
H1810 H 0.58948 0.29309 0.42011 0.0
H1811 H 0.54599 0.28869 0.47535 0.0
H1812 H 0.5924 0.25469 0.46237 0.0
H1813 H 0.6057 0.23336 0.44135 0.0
H1814 H 0.56744 0.2026 0.45639 0.0
H1815 H 0.55387 0.22384 0.4773 0.0
C1816 C 0.58389 0.28124 0.56896 0.0
C1817 C 0.58211 0.26977 0.5862 0.0
C1818 C 0.57523 0.28054 0.54847 0.0
C1819 C 0.56471 0.26826 0.54461 0.0
C1820 C 0.56238 0.25711 0.56223 0.0
C1821 C 0.57089 0.25799 0.5831 0.0
C1822 C 0.55838 0.26613 0.52077 0.0
C1823 C 0.5637 0.25325 0.50795 0.0
C1824 C 0.55087 0.27855 0.50903 0.0
C1825 C 0.54402 0.29186 0.52213 0.0
C1826 C 0.53418 0.28912 0.54134 0.0
C1827 C 0.52788 0.30161 0.55388 0.0
C1828 C 0.53132 0.31693 0.54737 0.0
C1829 C 0.54105 0.31979 0.5283 0.0
C1830 C 0.54738 0.30734 0.5157 0.0
C1831 C 0.56716 0.26123 0.40751 0.0
C1832 C 0.5785 0.27289 0.40443 0.0
C1833 C 0.55937 0.25981 0.42893 0.0
C1834 C 0.56276 0.27017 0.44727 0.0
C1835 C 0.57301 0.28264 0.44327 0.0
C1836 C 0.58088 0.28392 0.42214 0.0
C1837 C 0.55813 0.26688 0.47168 0.0
C1838 C 0.55081 0.27874 0.48453 0.0
C1839 C 0.5639 0.25359 0.48351 0.0
C1840 C 0.57207 0.24084 0.47111 0.0
C1841 C 0.58681 0.24338 0.46107 0.0
C1842 C 0.59439 0.23132 0.44919 0.0
C1843 C 0.5874 0.21664 0.44747 0.0
C1844 C 0.57283 0.21399 0.45768 0.0
C1845 C 0.56518 0.22603 0.46954 0.0
H1846 H 0.59329 0.20732 0.43828 0.0
H1847 H 0.52644 0.32658 0.55711 0.0
H1848 H 0.7481 0.43405 0.89336 0.0
H1849 H 0.74969 0.44775 0.93106 0.0
H1850 H 0.7107 0.42081 0.95641 0.0
H1851 H 0.7092 0.40713 0.91931 0.0
H1852 H 0.71052 0.45166 0.97302 0.0
H1853 H 0.74728 0.4069 0.96324 0.0
H1854 H 0.76975 0.39461 0.94353 0.0
H1855 H 0.79788 0.43487 0.95838 0.0
H1856 H 0.77549 0.44743 0.97799 0.0
H1857 H 0.70864 0.40766 0.07079 0.0
H1858 H 0.70984 0.4223 0.03456 0.0
H1859 H 0.75124 0.446 0.05863 0.0
H1860 H 0.74996 0.43128 0.09545 0.0
H1861 H 0.75582 0.4313 0.01739 0.0
H1862 H 0.7202 0.4684 0.04392 0.0
H1863 H 0.69738 0.47914 0.06453 0.0
H1864 H 0.66671 0.45372 0.01913 0.0
H1865 H 0.68931 0.44261 0.99846 0.0
C1866 C 0.73965 0.43139 0.90685 0.0
C1867 C 0.72867 0.4194 0.90363 0.0
C1868 C 0.74057 0.43921 0.9283 0.0
C1869 C 0.73034 0.43524 0.94653 0.0
C1870 C 0.71864 0.42412 0.94256 0.0
C1871 C 0.71789 0.4162 0.92142 0.0
C1872 C 0.73295 0.44052 0.97081 0.0
C1873 C 0.72051 0.44752 0.98282 0.0
C1874 C 0.7463 0.43573 0.98338 0.0
C1875 C 0.75973 0.42815 0.97179 0.0
C1876 C 0.75825 0.41314 0.96218 0.0
C1877 C 0.77096 0.40613 0.95105 0.0
C1878 C 0.78522 0.41398 0.94964 0.0
C1879 C 0.78681 0.42883 0.95943 0.0
C1880 C 0.77413 0.4359 0.97054 0.0
C1881 C 0.71777 0.41628 0.06866 0.0
C1882 C 0.72928 0.41825 0.08579 0.0
C1883 C 0.71837 0.42479 0.04801 0.0
C1884 C 0.73056 0.43538 0.04393 0.0
C1885 C 0.74166 0.438 0.06154 0.0
C1886 C 0.74091 0.42961 0.08251 0.0
C1887 C 0.73281 0.44133 0.01987 0.0
C1888 C 0.74618 0.4364 0.0078 0.0
C1889 C 0.72029 0.44803 0.00731 0.0
C1890 C 0.70652 0.4547 0.01955 0.0
C1891 C 0.7086 0.46504 0.03837 0.0
C1892 C 0.69569 0.4712 0.05007 0.0
C1893 C 0.68061 0.46714 0.04313 0.0
C1894 C 0.6784 0.4569 0.02445 0.0
C1895 C 0.69127 0.4507 0.01268 0.0
H1896 H 0.67063 0.47191 0.05222 0.0
H1897 H 0.79505 0.40854 0.94102 0.0
H1898 H 0.60363 0.70957 0.06854 0.0
H1899 H 0.58955 0.71374 0.03238 0.0
H1900 H 0.55873 0.74606 0.06716 0.0
H1901 H 0.57308 0.74198 0.10381 0.0
H1902 H 0.56087 0.71212 0.01364 0.0
H1903 H 0.55425 0.77625 0.02906 0.0
H1904 H 0.56298 0.79719 0.05565 0.0
H1905 H 0.60732 0.77448 0.06363 0.0
H1906 H 0.59886 0.75351 0.03695 0.0
H1907 H 0.56553 0.73714 0.89416 0.0
H1908 H 0.55315 0.73756 0.93293 0.0
H1909 H 0.59731 0.75011 0.96387 0.0
H1910 H 0.60952 0.74984 0.92578 0.0
H1911 H 0.57392 0.76519 0.9853 0.0
H1912 H 0.58559 0.7111 0.95821 0.0
H1913 H 0.58123 0.68905 0.93126 0.0
H1914 H 0.53215 0.6903 0.94625 0.0
H1915 H 0.53626 0.71245 0.97315 0.0
C1916 C 0.59365 0.71732 0.06868 0.0
C1917 C 0.58965 0.72569 0.08886 0.0
C1918 C 0.58547 0.71958 0.04801 0.0
C1919 C 0.57317 0.73034 0.04696 0.0
C1920 C 0.56825 0.73777 0.06756 0.0
C1921 C 0.57644 0.73543 0.08846 0.0
C1922 C 0.56773 0.73537 0.02357 0.0
C1923 C 0.56317 0.72387 0.0075 0.0
C1924 C 0.57061 0.7507 0.0155 0.0
C1925 C 0.57586 0.76329 0.0313 0.0
C1926 C 0.56586 0.77577 0.0365 0.0
C1927 C 0.57076 0.78763 0.05157 0.0
C1928 C 0.58568 0.78714 0.06139 0.0
C1929 C 0.59576 0.77483 0.05607 0.0
C1930 C 0.59092 0.76296 0.04098 0.0
C1931 C 0.57247 0.74025 0.90925 0.0
C1932 C 0.58855 0.74323 0.90698 0.0
C1933 C 0.56539 0.7405 0.93134 0.0
C1934 C 0.57432 0.74383 0.95131 0.0
C1935 C 0.59014 0.74762 0.94874 0.0
C1936 C 0.59717 0.7473 0.92691 0.0
C1937 C 0.56821 0.74165 0.9753 0.0
C1938 C 0.5705 0.75372 0.99149 0.0
C1939 C 0.56363 0.72676 0.98344 0.0
C1940 C 0.56119 0.71348 0.9674 0.0
C1941 C 0.57387 0.70669 0.95564 0.0
C1942 C 0.57145 0.69419 0.94041 0.0
C1943 C 0.55641 0.68831 0.93699 0.0
C1944 C 0.54378 0.69489 0.94886 0.0
C1945 C 0.54614 0.70741 0.96409 0.0
H1946 H 0.55455 0.67863 0.92519 0.0
H1947 H 0.58944 0.79632 0.07307 0.0
H1948 H 0.26328 0.57367 0.10952 0.0
H1949 H 0.26366 0.56214 0.07022 0.0
H1950 H 0.24879 0.60613 0.04123 0.0
H1951 H 0.24833 0.61757 0.07997 0.0
H1952 H 0.23507 0.58195 0.0187 0.0
H1953 H 0.28765 0.59712 0.04615 0.0
H1954 H 0.31004 0.59464 0.07296 0.0
H1955 H 0.31349 0.54582 0.05696 0.0
H1956 H 0.29099 0.54802 0.03022 0.0
H1957 H 0.28893 0.60848 0.92757 0.0
H1958 H 0.28511 0.59815 0.9666 0.0
H1959 H 0.25428 0.56278 0.9393 0.0
H1960 H 0.25804 0.57324 0.89975 0.0
H1961 H 0.28862 0.57102 0.99024 0.0
H1962 H 0.22401 0.56074 0.97939 0.0
H1963 H 0.20231 0.56685 0.95255 0.0
H1964 H 0.22393 0.61052 0.93516 0.0
H1965 H 0.24565 0.60471 0.96207 0.0
C1966 C 0.25981 0.58074 0.09476 0.0
C1967 C 0.25598 0.59658 0.09777 0.0
C1968 C 0.26004 0.57415 0.07237 0.0
C1969 C 0.25632 0.5833 0.0528 0.0
C1970 C 0.25162 0.59882 0.05605 0.0
C1971 C 0.25151 0.60539 0.07824 0.0
C1972 C 0.25894 0.57774 0.02863 0.0
C1973 C 0.24669 0.57908 0.01251 0.0
C1974 C 0.27407 0.57397 0.02052 0.0
C1975 C 0.28756 0.57268 0.03648 0.0
C1976 C 0.29314 0.58584 0.04849 0.0
C1977 C 0.30584 0.5845 0.06364 0.0
C1978 C 0.31315 0.57007 0.06672 0.0
C1979 C 0.30779 0.55698 0.0546 0.0
C1980 C 0.29506 0.55826 0.03946 0.0
C1981 C 0.28155 0.59833 0.92974 0.0
C1982 C 0.27359 0.59182 0.91066 0.0
C1983 C 0.27948 0.59233 0.95208 0.0
C1984 C 0.26933 0.57976 0.95592 0.0
C1985 C 0.26213 0.57253 0.93671 0.0
C1986 C 0.26429 0.5785 0.91417 0.0
C1987 C 0.26491 0.57603 0.98029 0.0
C1988 C 0.27682 0.57293 0.99645 0.0
C1989 C 0.24952 0.5785 0.98845 0.0
C1990 C 0.2365 0.5822 0.97245 0.0
C1991 C 0.2241 0.57164 0.96983 0.0
C1992 C 0.2118 0.57505 0.95463 0.0
C1993 C 0.21177 0.58903 0.94209 0.0
C1994 C 0.224 0.59967 0.94481 0.0
C1995 C 0.23629 0.59633 0.96003 0.0
H1996 H 0.20226 0.59164 0.93031 0.0
H1997 H 0.32299 0.56905 0.07845 0.0
H1998 H 0.4023 0.28916 0.91619 0.0
H1999 H 0.4158 0.2906 0.9534 0.0
H2000 H 0.44656 0.25339 0.93202 0.0
H2001 H 0.433 0.25203 0.89422 0.0
H2002 H 0.43133 0.24686 0.97247 0.0
H2003 H 0.46317 0.2877 0.94698 0.0
H2004 H 0.47061 0.31179 0.92636 0.0
H2005 H 0.43949 0.3383 0.96963 0.0
H2006 H 0.43166 0.31436 0.99029 0.0
H2007 H 0.43157 0.25608 0.09682 0.0
H2008 H 0.44511 0.2557 0.05894 0.0
H2009 H 0.4133 0.2906 0.03294 0.0
H2010 H 0.39984 0.29097 0.07024 0.0
H2011 H 0.44358 0.29506 0.0167 0.0
H2012 H 0.40499 0.25214 0.02634 0.0
H2013 H 0.39588 0.22814 0.04584 0.0
H2014 H 0.43975 0.20597 0.03134 0.0
H2015 H 0.44915 0.22993 0.01195 0.0
C2016 C 0.41222 0.28157 0.91913 0.0
C2017 C 0.41655 0.27041 0.90245 0.0
C2018 C 0.42004 0.28249 0.94035 0.0
C2019 C 0.4323 0.27219 0.94546 0.0
C2020 C 0.43723 0.26154 0.92833 0.0
C2021 C 0.42951 0.26079 0.90679 0.0
C2022 C 0.4378 0.2711 0.96993 0.0
C2023 C 0.43467 0.25724 0.98208 0.0
C2024 C 0.44217 0.28462 0.9825 0.0
C2025 C 0.44686 0.29918 0.97027 0.0
C2026 C 0.45785 0.29865 0.95206 0.0
C2027 C 0.46214 0.31229 0.94035 0.0
C2028 C 0.45554 0.32657 0.9467 0.0
C2029 C 0.44463 0.32724 0.96478 0.0
C2030 C 0.44029 0.31363 0.97655 0.0
C2031 C 0.42772 0.26388 0.08312 0.0
C2032 C 0.41453 0.2734 0.08632 0.0
C2033 C 0.43546 0.26366 0.06155 0.0
C2034 C 0.43017 0.2731 0.04313 0.0
C2035 C 0.41764 0.28329 0.04693 0.0
C2036 C 0.40985 0.28338 0.06821 0.0
C2037 C 0.43596 0.2712 0.01895 0.0
C2038 C 0.44118 0.28448 0.00696 0.0
C2039 C 0.43349 0.25719 0.00647 0.0
C2040 C 0.42782 0.24283 0.01801 0.0
C2041 C 0.41271 0.24216 0.02746 0.0
C2042 C 0.40749 0.22858 0.03846 0.0
C2043 C 0.41725 0.21555 0.0399 0.0
C2044 C 0.43222 0.21608 0.03027 0.0
C2045 C 0.4375 0.22965 0.01928 0.0
H2046 H 0.4132 0.20504 0.04842 0.0
H2047 H 0.45887 0.33712 0.9376 0.0
H2048 H 0.26835 0.04669 0.1684 0.0
H2049 H 0.26884 0.02296 0.19206 0.0
H2050 H 0.23463 0.04286 0.23855 0.0
H2051 H 0.23424 0.06669 0.21523 0.0
H2052 H 0.25683 0.02751 0.26259 0.0
H2053 H 0.22396 0.01718 0.1962 0.0
H2054 H 0.21763 0.01554 0.1543 0.0
H2055 H 0.25453 0.98233 0.14433 0.0
H2056 H 0.26122 0.98394 0.18614 0.0
H2057 H 0.22413 0.96014 0.31476 0.0
H2058 H 0.22907 0.98414 0.29309 0.0
H2059 H 0.26336 0.96032 0.25109 0.0
H2060 H 0.25839 0.93615 0.27261 0.0
H2061 H 0.24343 0.97726 0.22457 0.0
H2062 H 0.27484 0.98615 0.29214 0.0
H2063 H 0.28062 0.98773 0.3342 0.0
H2064 H 0.24601 0.02353 0.34226 0.0
H2065 H 0.23987 0.02201 0.30028 0.0
C2066 C 0.26102 0.04608 0.18376 0.0
C2067 C 0.25117 0.05855 0.18982 0.0
C2068 C 0.26128 0.03247 0.19722 0.0
C2069 C 0.25161 0.03105 0.21689 0.0
C2070 C 0.24217 0.04369 0.22342 0.0
C2071 C 0.24193 0.05729 0.21001 0.0
C2072 C 0.25087 0.01622 0.23023 0.0
C2073 C 0.25378 0.01654 0.25432 0.0
C2074 C 0.24724 0.00184 0.21935 0.0
C2075 C 0.2432 0.00082 0.19423 0.0
C2076 C 0.23081 0.00962 0.18503 0.0
C2077 C 0.22714 0.00868 0.16131 0.0
C2078 C 0.2357 0.99887 0.14665 0.0
C2079 C 0.24793 0.98995 0.1557 0.0
C2080 C 0.25166 0.99086 0.17941 0.0
C2081 C 0.23279 0.96 0.30101 0.0
C2082 C 0.24086 0.94622 0.29542 0.0
C2083 C 0.23566 0.97376 0.28871 0.0
C2084 C 0.24669 0.97407 0.27062 0.0
C2085 C 0.25482 0.96035 0.26503 0.0
C2086 C 0.25199 0.94657 0.27738 0.0
C2087 C 0.24925 0.98856 0.25698 0.0
C2088 C 0.24666 0.98819 0.23282 0.0
C2089 C 0.25311 0.00289 0.26783 0.0
C2090 C 0.25681 0.00387 0.29308 0.0
C2091 C 0.26838 0.99428 0.30291 0.0
C2092 C 0.27173 0.99517 0.32673 0.0
C2093 C 0.26366 0.0057 0.3409 0.0
C2094 C 0.25224 0.01537 0.33126 0.0
C2095 C 0.24883 0.01451 0.30745 0.0
H2096 H 0.26628 0.00637 0.35935 0.0
H2097 H 0.23285 0.99816 0.12829 0.0
H2098 H 0.9371 0.23877 0.22393 0.0
H2099 H 0.96181 0.24193 0.24463 0.0
H2100 H 0.9793 0.27059 0.18861 0.0
H2101 H 0.95465 0.26743 0.16769 0.0
H2102 H 0.99962 0.24769 0.20017 0.0
H2103 H 0.97052 0.28681 0.24059 0.0
H2104 H 0.94833 0.29763 0.26266 0.0
H2105 H 0.95646 0.26474 0.31781 0.0
H2106 H 0.97857 0.25357 0.29592 0.0
H2107 H 0.07045 0.26521 0.25894 0.0
H2108 H 0.04528 0.26826 0.23934 0.0
H2109 H 0.02304 0.24133 0.29351 0.0
H2110 H 0.04804 0.2385 0.31343 0.0
H2111 H 0.00536 0.26565 0.28199 0.0
H2112 H 0.03267 0.2251 0.24057 0.0
H2113 H 0.05457 0.21359 0.21862 0.0
H2114 H 0.04943 0.24849 0.16546 0.0
H2115 H 0.02761 0.26034 0.18727 0.0
C2116 C 0.94612 0.2459 0.21612 0.0
C2117 C 0.94391 0.25281 0.19411 0.0
C2118 C 0.96023 0.24775 0.22803 0.0
C2119 C 0.97238 0.25656 0.21821 0.0
C2120 C 0.97008 0.26375 0.1965 0.0
C2121 C 0.95595 0.26196 0.18461 0.0
C2122 C 0.98779 0.25744 0.22994 0.0
C2123 C 0.00093 0.2519 0.21791 0.0
C2124 C 0.98942 0.26257 0.25328 0.0
C2125 C 0.97613 0.26926 0.26651 0.0
C2126 C 0.9675 0.28179 0.25734 0.0
C2127 C 0.95494 0.28801 0.26983 0.0
C2128 C 0.95096 0.28185 0.2916 0.0
C2129 C 0.95955 0.26949 0.30094 0.0
C2130 C 0.9721 0.26322 0.2885 0.0
C2131 C 0.06019 0.25999 0.26674 0.0
C2132 C 0.06128 0.25152 0.28768 0.0
C2133 C 0.04582 0.26171 0.25547 0.0
C2134 C 0.0323 0.25486 0.2648 0.0
C2135 C 0.0333 0.24672 0.28598 0.0
C2136 C 0.04764 0.24506 0.2973 0.0
C2137 C 0.01716 0.25577 0.25227 0.0
C2138 C 0.00407 0.2616 0.26416 0.0
C2139 C 0.01554 0.25082 0.22883 0.0
C2140 C 0.02863 0.24371 0.21568 0.0
C2141 C 0.03629 0.23039 0.2243 0.0
C2142 C 0.04867 0.22379 0.21186 0.0
C2143 C 0.05342 0.23033 0.19069 0.0
C2144 C 0.04576 0.24346 0.18188 0.0
C2145 C 0.03338 0.25011 0.19426 0.0
H2146 H 0.063 0.22521 0.18109 0.0
H2147 H 0.94124 0.28668 0.30125 0.0
H2148 H 0.75067 0.06701 0.27952 0.0
H2149 H 0.74934 0.04372 0.25481 0.0
H2150 H 0.73804 0.01571 0.31494 0.0
H2151 H 0.73914 0.03891 0.33972 0.0
H2152 H 0.76291 0.00394 0.28729 0.0
H2153 H 0.71035 0.02257 0.27833 0.0
H2154 H 0.6901 0.04209 0.26936 0.0
H2155 H 0.70785 0.04656 0.19964 0.0
H2156 H 0.72836 0.02722 0.2083 0.0
H2157 H 0.74909 0.93364 0.2266 0.0
H2158 H 0.74553 0.95628 0.252 0.0
H2159 H 0.74776 0.98673 0.19215 0.0
H2160 H 0.75078 0.96415 0.16663 0.0
H2161 H 0.72657 0.9971 0.22071 0.0
H2162 H 0.77968 0.98051 0.22884 0.0
H2163 H 0.80107 0.962 0.23662 0.0
H2164 H 0.78399 0.95498 0.30626 0.0
H2165 H 0.76236 0.9733 0.29877 0.0
C2166 C 0.74778 0.05591 0.28745 0.0
C2167 C 0.74502 0.0548 0.31158 0.0
C2168 C 0.74698 0.04264 0.2733 0.0
C2169 C 0.74355 0.02802 0.28308 0.0
C2170 C 0.74069 0.0269 0.3071 0.0
C2171 C 0.74127 0.04018 0.32119 0.0
C2172 C 0.7436 0.0138 0.26839 0.0
C2173 C 0.75481 0.0023 0.27295 0.0
C2174 C 0.73333 0.01195 0.2493 0.0
C2175 C 0.72099 0.02356 0.24404 0.0
C2176 C 0.71003 0.02782 0.26115 0.0
C2177 C 0.69848 0.03883 0.25611 0.0
C2178 C 0.69772 0.04559 0.23396 0.0
C2179 C 0.70847 0.04133 0.21679 0.0
C2180 C 0.72005 0.03033 0.22175 0.0
C2181 C 0.7487 0.94515 0.21884 0.0
C2182 C 0.75034 0.9471 0.19461 0.0
C2183 C 0.74674 0.9581 0.23339 0.0
C2184 C 0.74668 0.97326 0.22406 0.0
C2185 C 0.7478 0.97517 0.19979 0.0
C2186 C 0.74957 0.96223 0.18521 0.0
C2187 C 0.74593 0.98715 0.23955 0.0
C2188 C 0.73462 0.99865 0.23512 0.0
C2189 C 0.75629 0.98913 0.25858 0.0
C2190 C 0.76931 0.97814 0.26316 0.0
C2191 C 0.78042 0.97493 0.24575 0.0
C2192 C 0.79259 0.96448 0.25012 0.0
C2193 C 0.79386 0.95728 0.2719 0.0
C2194 C 0.78298 0.96054 0.28938 0.0
C2195 C 0.77076 0.97096 0.28509 0.0
H2196 H 0.8033 0.9492 0.27524 0.0
H2197 H 0.68877 0.05411 0.23009 0.0
H2198 H 0.05054 0.7694 0.20103 0.0
H2199 H 0.02579 0.76867 0.22202 0.0
H2200 H 0.03218 0.71956 0.23544 0.0
H2201 H 0.05682 0.72012 0.2139 0.0
H2202 H 0.00297 0.72508 0.22316 0.0
H2203 H 0.03854 0.74727 0.27822 0.0
H2204 H 0.05862 0.76555 0.29244 0.0
H2205 H 0.02746 0.80405 0.28135 0.0
H2206 H 0.00726 0.78602 0.26676 0.0
H2207 H 0.9444 0.72095 0.31204 0.0
H2208 H 0.96904 0.72012 0.29051 0.0
H2209 H 0.96314 0.76833 0.27095 0.0
H2210 H 0.93858 0.76931 0.29249 0.0
H2211 H 0.99238 0.76244 0.28734 0.0
H2212 H 0.95693 0.73972 0.23169 0.0
H2213 H 0.93702 0.72106 0.21809 0.0
H2214 H 0.96827 0.68296 0.23153 0.0
H2215 H 0.9883 0.7014 0.24551 0.0
C2216 C 0.04671 0.75844 0.20846 0.0
C2217 C 0.0557 0.74483 0.20589 0.0
C2218 C 0.03256 0.75805 0.22055 0.0
C2219 C 0.02722 0.74411 0.23064 0.0
C2220 C 0.03608 0.73046 0.22785 0.0
C2221 C 0.05018 0.73081 0.21559 0.0
C2222 C 0.01236 0.7438 0.24397 0.0
C2223 C 0.00075 0.7331 0.23743 0.0
C2224 C 0.00933 0.75443 0.26234 0.0
C2225 C 0.02144 0.7653 0.27119 0.0
C2226 C 0.03601 0.75965 0.27865 0.0
C2227 C 0.04741 0.76996 0.28681 0.0
C2228 C 0.04433 0.78595 0.28775 0.0
C2229 C 0.02984 0.79166 0.28059 0.0
C2230 C 0.0184 0.7814 0.2724 0.0
C2231 C 0.9483 0.73136 0.30306 0.0
C2232 C 0.93951 0.7452 0.30399 0.0
C2233 C 0.96236 0.73085 0.2907 0.0
C2234 C 0.96787 0.74414 0.27902 0.0
C2235 C 0.9591 0.75794 0.27985 0.0
C2236 C 0.94503 0.75846 0.29212 0.0
C2237 C 0.98298 0.74384 0.26639 0.0
C2238 C 0.99463 0.75441 0.27311 0.0
C2239 C 0.98607 0.73303 0.24832 0.0
C2240 C 0.97405 0.72193 0.23987 0.0
C2241 C 0.95951 0.72736 0.23193 0.0
C2242 C 0.94821 0.71682 0.22412 0.0
C2243 C 0.95136 0.70083 0.22401 0.0
C2244 C 0.96583 0.69535 0.23166 0.0
C2245 C 0.97717 0.70584 0.23951 0.0
H2246 H 0.9426 0.69269 0.21795 0.0
H2247 H 0.05317 0.79392 0.29407 0.0
H2248 H 0.74284 0.93698 0.78154 0.0
H2249 H 0.73958 0.96092 0.75891 0.0
H2250 H 0.77059 0.98513 0.80582 0.0
H2251 H 0.77383 0.96128 0.8287 0.0
H2252 H 0.74497 0.00266 0.795 0.0
H2253 H 0.7837 0.97288 0.75396 0.0
H2254 H 0.79443 0.94964 0.73435 0.0
H2255 H 0.7574 0.95123 0.68397 0.0
H2256 H 0.74632 0.97437 0.7035 0.0
H2257 H 0.76583 0.06742 0.724 0.0
H2258 H 0.76516 0.04411 0.74844 0.0
H2259 H 0.73467 0.02161 0.69893 0.0
H2260 H 0.73537 0.04485 0.67424 0.0
H2261 H 0.75879 0.00303 0.71095 0.0
H2262 H 0.72074 0.03375 0.75109 0.0
H2263 H 0.71025 0.05708 0.77075 0.0
H2264 H 0.74614 0.05393 0.82279 0.0
H2265 H 0.75698 0.0307 0.80324 0.0
C2266 C 0.74893 0.9474 0.78711 0.0
C2267 C 0.75867 0.94719 0.80686 0.0
C2268 C 0.74709 0.96106 0.77411 0.0
C2269 C 0.75497 0.97476 0.78055 0.0
C2270 C 0.76441 0.97468 0.80054 0.0
C2271 C 0.7663 0.96102 0.81354 0.0
C2272 C 0.75362 0.98907 0.76618 0.0
C2273 C 0.74814 0.00281 0.77668 0.0
C2274 C 0.75743 0.98914 0.74216 0.0
C2275 C 0.76409 0.97526 0.73035 0.0
C2276 C 0.77777 0.9682 0.73882 0.0
C2277 C 0.78393 0.95506 0.7277 0.0
C2278 C 0.77657 0.94894 0.70796 0.0
C2279 C 0.76307 0.95597 0.69928 0.0
C2280 C 0.75685 0.96911 0.71036 0.0
C2281 C 0.75885 0.05758 0.71839 0.0
C2282 C 0.75067 0.058 0.69713 0.0
C2283 C 0.75843 0.04428 0.73245 0.0
C2284 C 0.74979 0.03115 0.72558 0.0
C2285 C 0.74141 0.03161 0.70456 0.0
C2286 C 0.74178 0.04493 0.69051 0.0
C2287 C 0.75015 0.01667 0.73976 0.0
C2288 C 0.7555 0.00289 0.72923 0.0
C2289 C 0.74625 0.01659 0.76375 0.0
C2290 C 0.73976 0.03056 0.77556 0.0
C2291 C 0.72648 0.03811 0.76661 0.0
C2292 C 0.72045 0.0513 0.77776 0.0
C2293 C 0.72755 0.057 0.79798 0.0
C2294 C 0.74066 0.04951 0.80712 0.0
C2295 C 0.74674 0.03632 0.79602 0.0
H2296 H 0.72286 0.06722 0.80659 0.0
H2297 H 0.78136 0.93877 0.69937 0.0
H2298 H 0.93448 0.76576 0.72553 0.0
H2299 H 0.95801 0.76569 0.74954 0.0
H2300 H 0.98165 0.73773 0.69793 0.0
H2301 H 0.95806 0.73753 0.67391 0.0
H2302 H 0.98879 0.72832 0.74203 0.0
H2303 H 0.98735 0.77669 0.69963 0.0
H2304 H 0.97553 0.80128 0.68602 0.0
H2305 H 0.97159 0.81721 0.75679 0.0
H2306 H 0.9832 0.79261 0.77085 0.0
H2307 H 0.06655 0.74481 0.779 0.0
H2308 H 0.0424 0.74185 0.75669 0.0
H2309 H 0.01844 0.77165 0.80564 0.0
H2310 H 0.04256 0.77492 0.82773 0.0
H2311 H 0.01149 0.77977 0.76255 0.0
H2312 H 0.01318 0.73158 0.80514 0.0
H2313 H 0.02481 0.70695 0.81891 0.0
H2314 H 0.02824 0.69061 0.74829 0.0
H2315 H 0.01682 0.71525 0.73406 0.0
C2316 C 0.94462 0.75946 0.71936 0.0
C2317 C 0.94443 0.75177 0.69768 0.0
C2318 C 0.95809 0.75948 0.73308 0.0
C2319 C 0.97167 0.75193 0.72533 0.0
C2320 C 0.97132 0.74368 0.70419 0.0
C2321 C 0.95782 0.74361 0.69047 0.0
C2322 C 0.9864 0.75322 0.73881 0.0
C2323 C 0.99387 0.73955 0.7463 0.0
C2324 C 0.99286 0.76789 0.74473 0.0
C2325 C 0.98601 0.78275 0.7363 0.0
C2326 C 0.98386 0.78539 0.7123 0.0
C2327 C 0.97722 0.79934 0.7045 0.0
C2328 C 0.97277 0.81079 0.72053 0.0
C2329 C 0.97502 0.80833 0.7444 0.0
C2330 C 0.98164 0.79439 0.75229 0.0
C2331 C 0.05612 0.75069 0.78506 0.0
C2332 C 0.05649 0.7601 0.80515 0.0
C2333 C 0.0423 0.74892 0.77234 0.0
C2334 C 0.02855 0.75639 0.77962 0.0
C2335 C 0.0289 0.76577 0.79969 0.0
C2336 C 0.04271 0.7676 0.81232 0.0
C2337 C 0.01388 0.75485 0.766 0.0
C2338 C 0.00643 0.76851 0.75837 0.0
C2339 C 0.00745 0.74017 0.76001 0.0
C2340 C 0.01428 0.72533 0.76853 0.0
C2341 C 0.01653 0.72279 0.79253 0.0
C2342 C 0.02306 0.70881 0.80042 0.0
C2343 C 0.0273 0.69724 0.78448 0.0
C2344 C 0.02497 0.69959 0.76061 0.0
C2345 C 0.01846 0.71356 0.75263 0.0
H2346 H 0.03236 0.68642 0.79062 0.0
H2347 H 0.96763 0.82157 0.71447 0.0
H2348 H 0.22956 0.95083 0.6833 0.0
H2349 H 0.23298 0.97586 0.70292 0.0
H2350 H 0.26485 0.95455 0.75168 0.0
H2351 H 0.26117 0.92934 0.73248 0.0
H2352 H 0.24487 0.97227 0.77406 0.0
H2353 H 0.27763 0.97916 0.70732 0.0
H2354 H 0.28438 0.97918 0.6655 0.0
H2355 H 0.24913 0.01366 0.65243 0.0
H2356 H 0.24202 0.01369 0.69413 0.0
H2357 H 0.26991 0.04354 0.82403 0.0
H2358 H 0.27022 0.01909 0.80214 0.0
H2359 H 0.23519 0.03718 0.75542 0.0
H2360 H 0.23488 0.06176 0.7771 0.0
H2361 H 0.25815 0.02112 0.7321 0.0
H2362 H 0.22479 0.01313 0.79874 0.0
H2363 H 0.2183 0.01313 0.84065 0.0
H2364 H 0.25532 0.98056 0.85384 0.0
H2365 H 0.26217 0.98054 0.81203 0.0
C2366 C 0.23737 0.95147 0.69811 0.0
C2367 C 0.2451 0.93808 0.70632 0.0
C2368 C 0.23938 0.96582 0.70925 0.0
C2369 C 0.24934 0.96715 0.7286 0.0
C2370 C 0.25713 0.95382 0.73676 0.0
C2371 C 0.25504 0.93942 0.72573 0.0
C2372 C 0.25111 0.98232 0.74088 0.0
C2373 C 0.24805 0.98289 0.76492 0.0
C2374 C 0.25492 0.99626 0.72891 0.0
C2375 C 0.25921 0.99632 0.70383 0.0
C2376 C 0.27124 0.98666 0.6955 0.0
C2377 C 0.27515 0.98668 0.67182 0.0
C2378 C 0.26717 0.99639 0.65631 0.0
C2379 C 0.25529 0.00614 0.66446 0.0
C2380 C 0.25133 0.00615 0.68812 0.0
C2381 C 0.26234 0.04239 0.809 0.0
C2382 C 0.25228 0.05457 0.80242 0.0
C2383 C 0.26251 0.02838 0.79655 0.0
C2384 C 0.25259 0.02625 0.77734 0.0
C2385 C 0.24292 0.03857 0.77022 0.0
C2386 C 0.24272 0.05259 0.78269 0.0
C2387 C 0.25188 0.01101 0.76516 0.0
C2388 C 0.2551 0.01045 0.74118 0.0
C2389 C 0.24827 0.99705 0.77718 0.0
C2390 C 0.2441 0.99696 0.8023 0.0
C2391 C 0.23162 0.00606 0.8106 0.0
C2392 C 0.22787 0.00605 0.83434 0.0
C2393 C 0.23642 0.99689 0.84991 0.0
C2394 C 0.24872 0.98768 0.84177 0.0
C2395 C 0.25254 0.98766 0.81805 0.0
H2396 H 0.2335 0.99689 0.86828 0.0
H2397 H 0.27021 0.99639 0.63798 0.0
H2398 H 0.95729 0.26657 0.83352 0.0
H2399 H 0.98095 0.2662 0.80961 0.0
H2400 H 0.95773 0.2371 0.75899 0.0
H2401 H 0.93413 0.23728 0.78279 0.0
H2402 H 0.98599 0.22567 0.77026 0.0
H2403 H 0.96481 0.27538 0.74778 0.0
H2404 H 0.95443 0.30183 0.75444 0.0
H2405 H 0.99749 0.31537 0.78693 0.0
H2406 H 0.00806 0.28892 0.78074 0.0
H2407 H 0.04068 0.2286 0.67856 0.0
H2408 H 0.0171 0.23147 0.70205 0.0
H2409 H 0.04183 0.26154 0.74974 0.0
H2410 H 0.06544 0.25898 0.72604 0.0
H2411 H 0.01329 0.2728 0.74101 0.0
H2412 H 0.0346 0.22341 0.76353 0.0
H2413 H 0.04514 0.19697 0.75735 0.0
H2414 H 0.00202 0.18278 0.72569 0.0
H2415 H 0.99128 0.20921 0.73139 0.0
C2416 C 0.95718 0.2602 0.8172 0.0
C2417 C 0.94382 0.25193 0.81011 0.0
C2418 C 0.9707 0.26004 0.80352 0.0
C2419 C 0.97108 0.25167 0.78246 0.0
C2420 C 0.9577 0.24361 0.77519 0.0
C2421 C 0.9442 0.24377 0.78882 0.0
C2422 C 0.9856 0.25075 0.7684 0.0
C2423 C 0.99184 0.23597 0.7636 0.0
C2424 C 0.99349 0.26421 0.76032 0.0
C2425 C 0.98717 0.28012 0.76402 0.0
C2426 C 0.97202 0.28396 0.75653 0.0
C2427 C 0.96611 0.29896 0.76018 0.0
C2428 C 0.97528 0.31026 0.77116 0.0
C2429 C 0.99039 0.30659 0.77846 0.0
C2430 C 0.99635 0.29161 0.77486 0.0
C2431 C 0.04113 0.23584 0.69403 0.0
C2432 C 0.05498 0.24349 0.7005 0.0
C2433 C 0.02764 0.23743 0.7075 0.0
C2434 C 0.02775 0.24654 0.72786 0.0
C2435 C 0.04148 0.25443 0.73413 0.0
C2436 C 0.05497 0.25291 0.7206 0.0
C2437 C 0.01358 0.24769 0.74267 0.0
C2438 C 0.00744 0.2625 0.74769 0.0
C2439 C 0.00579 0.23426 0.75106 0.0
C2440 C 0.01219 0.21833 0.7477 0.0
C2441 C 0.0274 0.21468 0.75509 0.0
C2442 C 0.03341 0.19969 0.7517 0.0
C2443 C 0.02427 0.18821 0.74109 0.0
C2444 C 0.00909 0.19169 0.73389 0.0
C2445 C 0.00303 0.20667 0.73721 0.0
H2446 H 0.02894 0.17662 0.73848 0.0
H2447 H 0.97068 0.32187 0.77397 0.0
H2448 H 0.77952 0.56919 0.72673 0.0
H2449 H 0.78105 0.54444 0.74802 0.0
H2450 H 0.73595 0.53124 0.72103 0.0
H2451 H 0.73418 0.55593 0.70026 0.0
H2452 H 0.73748 0.52479 0.76566 0.0
H2453 H 0.77069 0.51631 0.69887 0.0
H2454 H 0.79271 0.52192 0.67248 0.0
H2455 H 0.82488 0.51654 0.72933 0.0
H2456 H 0.80301 0.51109 0.75613 0.0
H2457 H 0.73491 0.44379 0.78191 0.0
H2458 H 0.73732 0.46929 0.76333 0.0
H2459 H 0.77959 0.47813 0.8019 0.0
H2460 H 0.7773 0.45254 0.82066 0.0
H2461 H 0.78124 0.48761 0.75485 0.0
H2462 H 0.74761 0.4942 0.8209 0.0
H2463 H 0.72532 0.48795 0.84644 0.0
H2464 H 0.69361 0.49653 0.7899 0.0
H2465 H 0.71573 0.50261 0.76392 0.0
C2466 C 0.76993 0.56101 0.72538 0.0
C2467 C 0.75674 0.56455 0.71178 0.0
C2468 C 0.77085 0.54684 0.73747 0.0
C2469 C 0.75868 0.5359 0.73596 0.0
C2470 C 0.74548 0.53949 0.72251 0.0
C2471 C 0.74451 0.55363 0.71059 0.0
C2472 C 0.75944 0.52072 0.74842 0.0
C2473 C 0.747 0.51663 0.76311 0.0
C2474 C 0.77206 0.51021 0.74563 0.0
C2475 C 0.7852 0.51347 0.72955 0.0
C2476 C 0.78245 0.51645 0.70578 0.0
C2477 C 0.7949 0.51957 0.69074 0.0
C2478 C 0.81018 0.51963 0.69924 0.0
C2479 C 0.81304 0.51652 0.72278 0.0
C2480 C 0.80062 0.5134 0.7379 0.0
C2481 C 0.74481 0.45107 0.78634 0.0
C2482 C 0.75586 0.44617 0.80293 0.0
C2483 C 0.74613 0.46567 0.77573 0.0
C2484 C 0.75851 0.47566 0.78148 0.0
C2485 C 0.76992 0.47059 0.7973 0.0
C2486 C 0.76857 0.45599 0.80803 0.0
C2487 C 0.75911 0.49162 0.77156 0.0
C2488 C 0.77181 0.49586 0.75748 0.0
C2489 C 0.74669 0.50226 0.77477 0.0
C2490 C 0.73334 0.49874 0.79041 0.0
C2491 C 0.73589 0.49464 0.81386 0.0
C2492 C 0.72329 0.49115 0.82843 0.0
C2493 C 0.70806 0.49181 0.81978 0.0
C2494 C 0.70541 0.49601 0.79657 0.0
C2495 C 0.71798 0.49949 0.78192 0.0
H2496 H 0.69832 0.48909 0.83109 0.0
H2497 H 0.81981 0.52205 0.68757 0.0
H2498 H 0.56093 0.73573 0.77632 0.0
H2499 H 0.53713 0.73562 0.75296 0.0
H2500 H 0.51486 0.76593 0.80293 0.0
H2501 H 0.53864 0.76603 0.82659 0.0
H2502 H 0.49605 0.74179 0.79042 0.0
H2503 H 0.52673 0.78032 0.75133 0.0
H2504 H 0.55013 0.79109 0.73219 0.0
H2505 H 0.54751 0.7556 0.67947 0.0
H2506 H 0.52422 0.74447 0.69849 0.0
H2507 H 0.43043 0.75753 0.71748 0.0
H2508 H 0.45385 0.76081 0.74142 0.0
H2509 H 0.47928 0.73016 0.69544 0.0
H2510 H 0.45599 0.72686 0.67137 0.0
H2511 H 0.49607 0.7562 0.70658 0.0
H2512 H 0.46637 0.71691 0.74675 0.0
H2513 H 0.44311 0.70588 0.76593 0.0
H2514 H 0.444 0.74274 0.81664 0.0
H2515 H 0.46716 0.75412 0.79754 0.0
C2516 C 0.55101 0.74243 0.78234 0.0
C2517 C 0.55171 0.75092 0.80332 0.0
C2518 C 0.53742 0.7424 0.7689 0.0
C2519 C 0.52428 0.7509 0.77608 0.0
C2520 C 0.52489 0.75933 0.79705 0.0
C2521 C 0.53851 0.7594 0.8105 0.0
C2522 C 0.5098 0.75066 0.7619 0.0
C2523 C 0.49599 0.7452 0.7722 0.0
C2524 C 0.50981 0.7548 0.73799 0.0
C2525 C 0.5238 0.76148 0.72646 0.0
C2526 C 0.53122 0.77473 0.73576 0.0
C2527 C 0.54445 0.78092 0.72492 0.0
C2528 C 0.55033 0.77401 0.70466 0.0
C2529 C 0.54296 0.76093 0.69518 0.0
C2530 C 0.52973 0.75469 0.70597 0.0
C2531 C 0.44102 0.75151 0.71243 0.0
C2532 C 0.44133 0.74188 0.69256 0.0
C2533 C 0.45437 0.75336 0.72617 0.0
C2534 C 0.46826 0.74563 0.7203 0.0
C2535 C 0.46867 0.73623 0.70027 0.0
C2536 C 0.45533 0.73431 0.68659 0.0
C2537 C 0.48238 0.74721 0.73506 0.0
C2538 C 0.49612 0.75291 0.72486 0.0
C2539 C 0.48231 0.74329 0.75904 0.0
C2540 C 0.46839 0.73647 0.77055 0.0
C2541 C 0.46152 0.72274 0.76186 0.0
C2542 C 0.44837 0.71641 0.77275 0.0
C2543 C 0.44205 0.72363 0.79245 0.0
C2544 C 0.44889 0.73718 0.80134 0.0
C2545 C 0.46204 0.74357 0.79051 0.0
H2546 H 0.43187 0.71871 0.80086 0.0
H2547 H 0.56057 0.77882 0.69629 0.0
H2548 H 0.26965 0.45199 0.69111 0.0
H2549 H 0.2687 0.47592 0.7141 0.0
H2550 H 0.23739 0.45392 0.76296 0.0
H2551 H 0.23819 0.42985 0.73991 0.0
H2552 H 0.22795 0.48361 0.7512 0.0
H2553 H 0.27449 0.45872 0.77791 0.0
H2554 H 0.29989 0.4455 0.774 0.0
H2555 H 0.31895 0.48598 0.74034 0.0
H2556 H 0.29358 0.49937 0.74374 0.0
H2557 H 0.23695 0.54448 0.83611 0.0
H2558 H 0.23586 0.51927 0.81613 0.0
H2559 H 0.26854 0.53602 0.76467 0.0
H2560 H 0.26985 0.56112 0.78461 0.0
H2561 H 0.27676 0.50776 0.78054 0.0
H2562 H 0.22983 0.53211 0.75209 0.0
H2563 H 0.20434 0.54523 0.75565 0.0
H2564 H 0.18602 0.50573 0.79267 0.0
H2565 H 0.21148 0.49246 0.7896 0.0
C2566 C 0.26256 0.4522 0.70675 0.0
C2567 C 0.25404 0.43898 0.71373 0.0
C2568 C 0.26207 0.46588 0.71991 0.0
C2569 C 0.2531 0.46663 0.74036 0.0
C2570 C 0.24441 0.45355 0.74725 0.0
C2571 C 0.24493 0.4398 0.73411 0.0
C2572 C 0.25286 0.48114 0.75442 0.0
C2573 C 0.23858 0.48878 0.75797 0.0
C2574 C 0.26677 0.48798 0.76289 0.0
C2575 C 0.28208 0.48 0.76091 0.0
C2576 C 0.28406 0.46476 0.76951 0.0
C2577 C 0.29846 0.45725 0.76741 0.0
C2578 C 0.31102 0.46489 0.75688 0.0
C2579 C 0.30921 0.48008 0.74847 0.0
C2580 C 0.29482 0.48764 0.7505 0.0
C2581 C 0.24383 0.54283 0.82046 0.0
C2582 C 0.25351 0.55481 0.81198 0.0
C2583 C 0.24316 0.52843 0.80903 0.0
C2584 C 0.25207 0.52579 0.78885 0.0
C2585 C 0.2616 0.53779 0.78024 0.0
C2586 C 0.26229 0.55216 0.79164 0.0
C2587 C 0.25188 0.51041 0.77698 0.0
C2588 C 0.26611 0.50257 0.7739 0.0
C2589 C 0.23792 0.50341 0.76898 0.0
C2590 C 0.22261 0.51137 0.77084 0.0
C2591 C 0.22041 0.52628 0.76117 0.0
C2592 C 0.20596 0.53373 0.76306 0.0
C2593 C 0.19358 0.52634 0.77444 0.0
C2594 C 0.19562 0.51146 0.7839 0.0
C2595 C 0.21006 0.50396 0.78207 0.0
H2596 H 0.1824 0.53212 0.77588 0.0
H2597 H 0.32216 0.45905 0.75527 0.0
H2598 H 0.45745 0.22946 0.81999 0.0
H2599 H 0.48134 0.23047 0.79671 0.0
H2600 H 0.46072 0.26561 0.75257 0.0
H2601 H 0.43673 0.26449 0.77546 0.0
H2602 H 0.47632 0.24468 0.72707 0.0
H2603 H 0.48641 0.27527 0.79593 0.0
H2604 H 0.48818 0.28013 0.83825 0.0
H2605 H 0.52211 0.24356 0.84486 0.0
H2606 H 0.52039 0.23834 0.80259 0.0
H2607 H 0.542 0.2808 0.67658 0.0
H2608 H 0.51876 0.27505 0.69957 0.0
H2609 H 0.54357 0.23862 0.7358 0.0
H2610 H 0.56702 0.24433 0.71281 0.0
H2611 H 0.52655 0.25759 0.76555 0.0
H2612 H 0.5178 0.22865 0.69546 0.0
H2613 H 0.51615 0.2246 0.65296 0.0
H2614 H 0.47971 0.25883 0.64845 0.0
H2615 H 0.4813 0.26326 0.69091 0.0
C2616 C 0.45796 0.23733 0.80524 0.0
C2617 C 0.4452 0.24696 0.79967 0.0
C2618 C 0.47165 0.23794 0.79201 0.0
C2619 C 0.47289 0.24826 0.77308 0.0
C2620 C 0.46003 0.25756 0.76711 0.0
C2621 C 0.44633 0.25694 0.78027 0.0
C2622 C 0.48767 0.24968 0.75975 0.0
C2623 C 0.48728 0.24763 0.73546 0.0
C2624 C 0.50205 0.25315 0.77076 0.0
C2625 C 0.50314 0.2563 0.79615 0.0
C2626 C 0.49416 0.26818 0.80644 0.0
C2627 C 0.49516 0.27102 0.83041 0.0
C2628 C 0.50521 0.26213 0.84425 0.0
C2629 C 0.51431 0.25042 0.83412 0.0
C2630 C 0.51333 0.24752 0.81016 0.0
C2631 C 0.54257 0.27156 0.68943 0.0
C2632 C 0.55637 0.26299 0.69282 0.0
C2633 C 0.52923 0.26824 0.70248 0.0
C2634 C 0.52939 0.25629 0.71919 0.0
C2635 C 0.5432 0.24785 0.72292 0.0
C2636 C 0.55656 0.25111 0.70974 0.0
C2637 C 0.51513 0.25281 0.73287 0.0
C2638 C 0.51563 0.25448 0.7572 0.0
C2639 C 0.50083 0.24907 0.72189 0.0
C2640 C 0.49977 0.24638 0.69636 0.0
C2641 C 0.50952 0.23541 0.68539 0.0
C2642 C 0.50858 0.23303 0.6613 0.0
C2643 C 0.49785 0.24148 0.648 0.0
C2644 C 0.48802 0.2523 0.65877 0.0
C2645 C 0.48892 0.25473 0.68285 0.0
H2646 H 0.49714 0.23962 0.62936 0.0
H2647 H 0.50598 0.26434 0.8628 0.0
H2648 H 0.2627 0.55362 0.195 0.0
H2649 H 0.26069 0.52777 0.21254 0.0
H2650 H 0.23058 0.54622 0.26617 0.0
H2651 H 0.23281 0.57225 0.249 0.0
H2652 H 0.25171 0.52752 0.2847 0.0
H2653 H 0.2161 0.52405 0.22068 0.0
H2654 H 0.20757 0.52623 0.17974 0.0
H2655 H 0.24215 0.49271 0.15919 0.0
H2656 H 0.25105 0.49049 0.19999 0.0
H2657 H 0.22803 0.45381 0.32813 0.0
H2658 H 0.22707 0.47936 0.30928 0.0
H2659 H 0.26036 0.4638 0.25789 0.0
H2660 H 0.26134 0.43816 0.27655 0.0
H2661 H 0.23644 0.48102 0.23847 0.0
H2662 H 0.27249 0.48539 0.30261 0.0
H2663 H 0.28069 0.48317 0.3437 0.0
H2664 H 0.24458 0.51509 0.3641 0.0
H2665 H 0.23602 0.51733 0.32313 0.0
C2666 C 0.25561 0.5522 0.2105 0.0
C2667 C 0.24788 0.56501 0.22057 0.0
C2668 C 0.25441 0.53737 0.22044 0.0
C2669 C 0.2453 0.53499 0.24048 0.0
C2670 C 0.23765 0.54777 0.25067 0.0
C2671 C 0.23891 0.56264 0.2408 0.0
C2672 C 0.24407 0.51923 0.2511 0.0
C2673 C 0.24812 0.51741 0.27467 0.0
C2674 C 0.23969 0.50595 0.23792 0.0
C2675 C 0.23433 0.50721 0.21337 0.0
C2676 C 0.22197 0.51723 0.20741 0.0
C2677 C 0.21705 0.51846 0.18423 0.0
C2678 C 0.22434 0.50964 0.16687 0.0
C2679 C 0.23653 0.49955 0.17266 0.0
C2680 C 0.2415 0.49829 0.19581 0.0
C2681 C 0.23505 0.45576 0.31271 0.0
C2682 C 0.24484 0.44397 0.30394 0.0
C2683 C 0.23453 0.47039 0.30201 0.0
C2684 C 0.24379 0.47353 0.28237 0.0
C2685 C 0.25315 0.46163 0.27306 0.0
C2686 C 0.25372 0.447 0.2838 0.0
C2687 C 0.24412 0.48936 0.27197 0.0
C2688 C 0.23993 0.49118 0.24848 0.0
C2689 C 0.24831 0.50264 0.28523 0.0
C2690 C 0.25351 0.5014 0.30984 0.0
C2691 C 0.26622 0.49184 0.31588 0.0
C2692 C 0.27095 0.4906 0.33914 0.0
C2693 C 0.26314 0.49895 0.35651 0.0
C2694 C 0.25061 0.50861 0.35063 0.0
C2695 C 0.24582 0.50988 0.32739 0.0
H2696 H 0.26681 0.49797 0.37451 0.0
H2697 H 0.22052 0.51061 0.14893 0.0
H2698 H 0.55786 0.27019 0.28256 0.0
H2699 H 0.53325 0.26823 0.2613 0.0
H2700 H 0.52611 0.22194 0.28872 0.0
H2701 H 0.55079 0.22378 0.31012 0.0
H2702 H 0.51857 0.22455 0.24119 0.0
H2703 H 0.50719 0.25073 0.31318 0.0
H2704 H 0.51083 0.27066 0.34372 0.0
H2705 H 0.5017 0.30688 0.29385 0.0
H2706 H 0.49823 0.28717 0.26291 0.0
H2707 H 0.43773 0.22191 0.20987 0.0
H2708 H 0.46244 0.22071 0.23125 0.0
H2709 H 0.47147 0.26887 0.21413 0.0
H2710 H 0.44675 0.27027 0.19326 0.0
H2711 H 0.47766 0.26385 0.25833 0.0
H2712 H 0.49014 0.23825 0.186 0.0
H2713 H 0.48706 0.21869 0.15479 0.0
H2714 H 0.49445 0.18184 0.20429 0.0
H2715 H 0.49738 0.20119 0.23587 0.0
C2716 C 0.55114 0.25953 0.28396 0.0
C2717 C 0.55624 0.24718 0.29819 0.0
C2718 C 0.53705 0.25845 0.27184 0.0
C2719 C 0.52778 0.24502 0.27368 0.0
C2720 C 0.53309 0.23243 0.28714 0.0
C2721 C 0.54716 0.23352 0.2994 0.0
C2722 C 0.5123 0.24441 0.26216 0.0
C2723 C 0.50951 0.23299 0.24514 0.0
C2724 C 0.50062 0.2556 0.26708 0.0
C2725 C 0.50259 0.26748 0.28569 0.0
C2726 C 0.50608 0.26295 0.30869 0.0
C2727 C 0.50809 0.27421 0.32608 0.0
C2728 C 0.50653 0.29003 0.32072 0.0
C2729 C 0.50292 0.29462 0.29797 0.0
C2730 C 0.50091 0.28341 0.2805 0.0
C2731 C 0.44499 0.23224 0.21065 0.0
C2732 C 0.44025 0.24619 0.19985 0.0
C2733 C 0.45915 0.23151 0.22279 0.0
C2734 C 0.4689 0.24466 0.22412 0.0
C2735 C 0.46415 0.25858 0.21339 0.0
C2736 C 0.45 0.25934 0.2014 0.0
C2737 C 0.48394 0.24414 0.23698 0.0
C2738 C 0.48665 0.25535 0.25437 0.0
C2739 C 0.49555 0.23281 0.23229 0.0
C2740 C 0.4938 0.22116 0.21333 0.0
C2741 C 0.49098 0.22597 0.19026 0.0
C2742 C 0.48929 0.21492 0.1725 0.0
C2743 C 0.49051 0.19903 0.17757 0.0
C2744 C 0.49348 0.19415 0.2004 0.0
C2745 C 0.49517 0.20515 0.21823 0.0
H2746 H 0.4892 0.1905 0.16379 0.0
H2747 H 0.50809 0.29873 0.33421 0.0
H2748 H 0.75402 0.5612 0.27978 0.0
H2749 H 0.75706 0.53932 0.25283 0.0
H2750 H 0.75401 0.50708 0.31045 0.0
H2751 H 0.75145 0.5289 0.33755 0.0
H2752 H 0.77541 0.49747 0.28111 0.0
H2753 H 0.72241 0.51488 0.27434 0.0
H2754 H 0.70129 0.53392 0.26786 0.0
H2755 H 0.71846 0.54283 0.19877 0.0
H2756 H 0.73982 0.52399 0.20495 0.0
H2757 H 0.75029 0.42957 0.21873 0.0
H2758 H 0.75249 0.45217 0.24464 0.0
H2759 H 0.76275 0.48159 0.18559 0.0
H2760 H 0.76071 0.45906 0.15957 0.0
H2761 H 0.73881 0.493 0.2144 0.0
H2762 H 0.79109 0.47358 0.22149 0.0
H2763 H 0.81128 0.4537 0.22887 0.0
H2764 H 0.7941 0.44746 0.29861 0.0
H2765 H 0.77365 0.46715 0.29153 0.0
C2766 C 0.75409 0.54946 0.28673 0.0
C2767 C 0.75237 0.54679 0.3108 0.0
C2768 C 0.75576 0.53695 0.27129 0.0
C2769 C 0.75549 0.52152 0.27956 0.0
C2770 C 0.75423 0.51886 0.30365 0.0
C2771 C 0.75272 0.53137 0.31912 0.0
C2772 C 0.75608 0.50813 0.26311 0.0
C2773 C 0.7673 0.49642 0.26667 0.0
C2774 C 0.74568 0.50686 0.244 0.0
C2775 C 0.73281 0.51815 0.2402 0.0
C2776 C 0.72175 0.52099 0.25783 0.0
C2777 C 0.70973 0.53173 0.2542 0.0
C2778 C 0.70856 0.53962 0.23294 0.0
C2779 C 0.7194 0.53674 0.21524 0.0
C2780 C 0.73146 0.52602 0.21879 0.0
C2781 C 0.75317 0.44082 0.21128 0.0
C2782 C 0.7553 0.44253 0.18709 0.0
C2783 C 0.75447 0.4537 0.22611 0.0
C2784 C 0.75782 0.46853 0.21701 0.0
C2785 C 0.76017 0.47023 0.19293 0.0
C2786 C 0.75905 0.45733 0.17812 0.0
C2787 C 0.75808 0.48237 0.23248 0.0
C2788 C 0.74698 0.49413 0.22876 0.0
C2789 C 0.76845 0.48357 0.25158 0.0
C2790 C 0.78074 0.47173 0.2559 0.0
C2791 C 0.79153 0.46787 0.23833 0.0
C2792 C 0.80304 0.45666 0.24248 0.0
C2793 C 0.80395 0.4493 0.26418 0.0
C2794 C 0.79337 0.45316 0.2818 0.0
C2795 C 0.78182 0.46436 0.27774 0.0
H2796 H 0.81287 0.44062 0.26735 0.0
H2797 H 0.69924 0.54793 0.23017 0.0
H2798 H 0.46662 0.72429 0.32386 0.0
H2799 H 0.49053 0.72811 0.30141 0.0
H2800 H 0.4653 0.75608 0.25155 0.0
H2801 H 0.44124 0.75224 0.27387 0.0
H2802 H 0.48357 0.73448 0.23032 0.0
H2803 H 0.48988 0.77325 0.28944 0.0
H2804 H 0.49072 0.78363 0.32953 0.0
H2805 H 0.52853 0.75271 0.34608 0.0
H2806 H 0.52777 0.74197 0.30616 0.0
H2807 H 0.55097 0.75984 0.1695 0.0
H2808 H 0.52729 0.7604 0.19325 0.0
H2809 H 0.54958 0.73137 0.24484 0.0
H2810 H 0.57336 0.7308 0.22126 0.0
H2811 H 0.53253 0.75507 0.2648 0.0
H2812 H 0.52517 0.71532 0.20664 0.0
H2813 H 0.52432 0.7047 0.16669 0.0
H2814 H 0.48835 0.73738 0.14858 0.0
H2815 H 0.48916 0.74835 0.18837 0.0
C2816 C 0.46614 0.73132 0.30818 0.0
C2817 C 0.45201 0.73796 0.30066 0.0
C2818 C 0.47985 0.73356 0.29543 0.0
C2819 C 0.47973 0.7425 0.27492 0.0
C2820 C 0.46565 0.74917 0.26736 0.0
C2821 C 0.45193 0.74699 0.28017 0.0
C2822 C 0.4942 0.7444 0.26097 0.0
C2823 C 0.4942 0.73924 0.23774 0.0
C2824 C 0.50816 0.75027 0.27083 0.0
C2825 C 0.50867 0.75671 0.29485 0.0
C2826 C 0.49829 0.76857 0.30168 0.0
C2827 C 0.49877 0.77453 0.32436 0.0
C2828 C 0.50965 0.7688 0.34036 0.0
C2829 C 0.5201 0.75712 0.33368 0.0
C2830 C 0.51966 0.7511 0.31101 0.0
C2831 C 0.5509 0.75368 0.18599 0.0
C2832 C 0.56403 0.74519 0.19341 0.0
C2833 C 0.53733 0.75397 0.1995 0.0
C2834 C 0.53662 0.74578 0.22067 0.0
C2835 C 0.54988 0.73775 0.22854 0.0
C2836 C 0.56344 0.7374 0.21499 0.0
C2837 C 0.52189 0.7451 0.23422 0.0
C2838 C 0.52185 0.75043 0.25736 0.0
C2839 C 0.50788 0.73937 0.22431 0.0
C2840 C 0.50735 0.73277 0.2004 0.0
C2841 C 0.51718 0.72033 0.19408 0.0
C2842 C 0.51669 0.71423 0.17148 0.0
C2843 C 0.50632 0.72039 0.15508 0.0
C2844 C 0.4964 0.73264 0.16128 0.0
C2845 C 0.49686 0.7388 0.18386 0.0
H2846 H 0.50595 0.71565 0.13759 0.0
H2847 H 0.51 0.77344 0.35791 0.0
H2848 H 0.18035 0.13678 0.15207 0.0
H2849 H 0.15963 0.14715 0.17677 0.0
H2850 H 0.18173 0.12706 0.23734 0.0
H2851 H 0.20234 0.11619 0.2125 0.0
H2852 H 0.15019 0.12601 0.24127 0.0
H2853 H 0.18886 0.1647 0.22192 0.0
H2854 H 0.20526 0.18041 0.1955 0.0
H2855 H 0.16424 0.19935 0.16317 0.0
H2856 H 0.14759 0.18357 0.18921 0.0
H2857 H 0.13279 0.18045 0.33027 0.0
H2858 H 0.1424 0.16202 0.30134 0.0
H2859 H 0.11548 0.18517 0.24802 0.0
H2860 H 0.10583 0.20385 0.27703 0.0
H2861 H 0.14608 0.18368 0.23732 0.0
H2862 H 0.1075 0.1475 0.26249 0.0
H2863 H 0.09205 0.13227 0.2907 0.0
H2864 H 0.13359 0.10917 0.3143 0.0
H2865 H 0.14935 0.12442 0.28646 0.0
C2866 C 0.18069 0.13436 0.17061 0.0
C2867 C 0.1931 0.12588 0.18042 0.0
C2868 C 0.16883 0.1403 0.1847 0.0
C2869 C 0.16932 0.13818 0.20895 0.0
C2870 C 0.18116 0.12888 0.21866 0.0
C2871 C 0.19295 0.12272 0.20448 0.0
C2872 C 0.15838 0.14685 0.22426 0.0
C2873 C 0.14932 0.13862 0.24053 0.0
C2874 C 0.15701 0.16329 0.22293 0.0
C2875 C 0.16699 0.17282 0.20731 0.0
C2876 C 0.18334 0.17212 0.20905 0.0
C2877 C 0.19268 0.18105 0.19417 0.0
C2878 C 0.18579 0.19083 0.17762 0.0
C2879 C 0.16955 0.19174 0.17596 0.0
C2880 C 0.16016 0.18281 0.19078 0.0
C2881 C 0.12861 0.18143 0.31249 0.0
C2882 C 0.11868 0.19372 0.30587 0.0
C2883 C 0.13403 0.17078 0.29599 0.0
C2884 C 0.12963 0.17218 0.27252 0.0
C2885 C 0.11898 0.18387 0.26608 0.0
C2886 C 0.11344 0.1945 0.28267 0.0
C2887 C 0.13791 0.1629 0.25453 0.0
C2888 C 0.14662 0.17104 0.23779 0.0
C2889 C 0.13906 0.14644 0.2557 0.0
C2890 C 0.12963 0.13719 0.27245 0.0
C2891 C 0.11337 0.13926 0.27381 0.0
C2892 C 0.10455 0.1306 0.28972 0.0
C2893 C 0.11184 0.11977 0.30431 0.0
C2894 C 0.12796 0.11756 0.30298 0.0
C2895 C 0.13684 0.12619 0.28711 0.0
H2896 H 0.10499 0.11308 0.31661 0.0
H2897 H 0.19304 0.19774 0.16611 0.0
H2898 H 0.87231 0.17367 0.16825 0.0
H2899 H 0.86042 0.15518 0.19527 0.0
H2900 H 0.87285 0.18485 0.25315 0.0
H2901 H 0.88525 0.20326 0.2261 0.0
H2902 H 0.87392 0.15381 0.26525 0.0
H2903 H 0.83773 0.18876 0.22781 0.0
H2904 H 0.82526 0.20169 0.19421 0.0
H2905 H 0.81047 0.15723 0.16772 0.0
H2906 H 0.82305 0.14402 0.20102 0.0
H2907 H 0.81123 0.13962 0.3433 0.0
H2908 H 0.83155 0.14919 0.3173 0.0
H2909 H 0.81561 0.11794 0.26334 0.0
H2910 H 0.79502 0.10837 0.28926 0.0
H2911 H 0.81754 0.14733 0.24808 0.0
H2912 H 0.85124 0.11274 0.28937 0.0
H2913 H 0.86333 0.10057 0.32388 0.0
H2914 H 0.88225 0.14485 0.3445 0.0
H2915 H 0.87009 0.15734 0.31028 0.0
C2916 C 0.87283 0.1761 0.18678 0.0
C2917 C 0.87948 0.19002 0.19507 0.0
C2918 C 0.86601 0.16553 0.20219 0.0
C2919 C 0.8654 0.16884 0.22614 0.0
C2920 C 0.87312 0.18212 0.2347 0.0
C2921 C 0.88018 0.19263 0.21925 0.0
C2922 C 0.85522 0.15945 0.24166 0.0
C2923 C 0.86158 0.15244 0.26163 0.0
C2924 C 0.83916 0.15746 0.23668 0.0
C2925 C 0.83147 0.16539 0.21676 0.0
C2926 C 0.83191 0.18174 0.21473 0.0
C2927 C 0.82481 0.18912 0.19576 0.0
C2928 C 0.81711 0.18028 0.17881 0.0
C2929 C 0.81646 0.16405 0.18084 0.0
C2930 C 0.82356 0.15661 0.19976 0.0
C2931 C 0.81215 0.13458 0.32602 0.0
C2932 C 0.80139 0.12331 0.31828 0.0
C2933 C 0.82389 0.14 0.31122 0.0
C2934 C 0.82519 0.13421 0.28842 0.0
C2935 C 0.81484 0.12253 0.28091 0.0
C2936 C 0.80309 0.11707 0.29574 0.0
C2937 C 0.83618 0.14161 0.27177 0.0
C2938 C 0.82994 0.1484 0.25159 0.0
C2939 C 0.85227 0.14347 0.27674 0.0
C2940 C 0.85965 0.136 0.29733 0.0
C2941 C 0.85788 0.11991 0.30136 0.0
C2942 C 0.86477 0.11295 0.32085 0.0
C2943 C 0.87353 0.12194 0.3364 0.0
C2944 C 0.87545 0.1379 0.33245 0.0
C2945 C 0.86858 0.14492 0.31298 0.0
H2946 H 0.87885 0.11653 0.35148 0.0
H2947 H 0.81163 0.18602 0.16413 0.0
H2948 H 0.86349 0.81704 0.35258 0.0
H2949 H 0.85338 0.83926 0.33068 0.0
H2950 H 0.87518 0.82172 0.26813 0.0
H2951 H 0.88575 0.79964 0.29015 0.0
H2952 H 0.8752 0.85338 0.26858 0.0
H2953 H 0.83762 0.81215 0.28145 0.0
H2954 H 0.82211 0.79397 0.30543 0.0
H2955 H 0.80122 0.83262 0.34142 0.0
H2956 H 0.81677 0.85102 0.31783 0.0
H2957 H 0.8231 0.87001 0.1771 0.0
H2958 H 0.84103 0.861 0.2071 0.0
H2959 H 0.81392 0.88473 0.25964 0.0
H2960 H 0.79572 0.89377 0.22951 0.0
H2961 H 0.81732 0.85433 0.26921 0.0
H2962 H 0.85167 0.89561 0.24925 0.0
H2963 H 0.86674 0.91294 0.22339 0.0
H2964 H 0.89329 0.87383 0.19865 0.0
H2965 H 0.87823 0.85621 0.2241 0.0
C2966 C 0.8664 0.81807 0.33426 0.0
C2967 C 0.8752 0.80646 0.32298 0.0
C2968 C 0.86061 0.83078 0.32177 0.0
C2969 C 0.86321 0.83195 0.29767 0.0
C2970 C 0.87297 0.82101 0.28671 0.0
C2971 C 0.87897 0.80837 0.29929 0.0
C2972 C 0.8544 0.84345 0.28348 0.0
C2973 C 0.86255 0.8536 0.26863 0.0
C2974 C 0.83789 0.84398 0.28399 0.0
C2975 C 0.82849 0.83294 0.2981 0.0
C2976 C 0.8298 0.81676 0.2946 0.0
C2977 C 0.821 0.80642 0.3081 0.0
C2978 C 0.81073 0.81214 0.32499 0.0
C2979 C 0.80921 0.82821 0.32837 0.0
C2980 C 0.81801 0.8386 0.31494 0.0
C2981 C 0.82112 0.87363 0.19497 0.0
C2982 C 0.80788 0.88246 0.20098 0.0
C2983 C 0.83148 0.86856 0.2121 0.0
C2984 C 0.82887 0.87224 0.23563 0.0
C2985 C 0.81617 0.88182 0.24156 0.0
C2986 C 0.80581 0.887 0.22434 0.0
C2987 C 0.83807 0.86416 0.25393 0.0
C2988 C 0.82998 0.8545 0.26952 0.0
C2989 C 0.85459 0.86401 0.25386 0.0
C2990 C 0.86374 0.87456 0.23854 0.0
C2991 C 0.86064 0.89067 0.23818 0.0
C2992 C 0.8692 0.90056 0.2236 0.0
C2993 C 0.88095 0.89449 0.20936 0.0
C2994 C 0.88419 0.87852 0.2097 0.0
C2995 C 0.87566 0.86858 0.22423 0.0
H2996 H 0.88757 0.90216 0.19809 0.0
H2997 H 0.80391 0.80411 0.33542 0.0
H2998 H 0.17769 0.87774 0.32375 0.0
H2999 H 0.15583 0.86871 0.3 0.0
H3000 H 0.18266 0.87707 0.23757 0.0
H3001 H 0.20441 0.88675 0.26137 0.0
H3002 H 0.15105 0.88052 0.22951 0.0
H3003 H 0.18548 0.84256 0.26436 0.0
H3004 H 0.19948 0.83001 0.29692 0.0
H3005 H 0.15587 0.81959 0.33034 0.0
H3006 H 0.14163 0.8323 0.29811 0.0
H3007 H 0.13407 0.81518 0.15797 0.0
H3008 H 0.14314 0.83726 0.18103 0.0
H3009 H 0.11226 0.82395 0.23702 0.0
H3010 H 0.10316 0.80167 0.21402 0.0
H3011 H 0.14218 0.82509 0.25062 0.0
H3012 H 0.10784 0.85909 0.20999 0.0
H3013 H 0.09496 0.87094 0.17588 0.0
H3014 H 0.13914 0.88778 0.15115 0.0
H3015 H 0.15233 0.87584 0.18494 0.0
C3016 C 0.1787 0.87817 0.30492 0.0
C3017 C 0.19276 0.88272 0.29434 0.0
C3018 C 0.16623 0.87299 0.29138 0.0
C3019 C 0.16779 0.87181 0.26707 0.0
C3020 C 0.18125 0.87782 0.25631 0.0
C3021 C 0.19367 0.88333 0.2699 0.0
C3022 C 0.15668 0.86209 0.25356 0.0
C3023 C 0.1491 0.86839 0.23402 0.0
C3024 C 0.15398 0.84631 0.2597 0.0
C3025 C 0.16251 0.83854 0.27898 0.0
C3026 C 0.17889 0.83769 0.27873 0.0
C3027 C 0.18687 0.83054 0.29712 0.0
C3028 C 0.17858 0.82405 0.31572 0.0
C3029 C 0.16228 0.82465 0.31594 0.0
C3030 C 0.15425 0.83183 0.29763 0.0
C3031 C 0.1289 0.81715 0.17496 0.0
C3032 C 0.11805 0.80653 0.18431 0.0
C3033 C 0.13401 0.82988 0.18806 0.0
C3034 C 0.12837 0.83228 0.21075 0.0
C3035 C 0.11674 0.82233 0.21951 0.0
C3036 C 0.11154 0.80961 0.20634 0.0
C3037 C 0.13647 0.84343 0.22641 0.0
C3038 C 0.14371 0.83732 0.24633 0.0
C3039 C 0.13897 0.85925 0.22034 0.0
C3040 C 0.13109 0.86647 0.19996 0.0
C3041 C 0.11483 0.86521 0.19719 0.0
C3042 C 0.10747 0.87197 0.17792 0.0
C3043 C 0.11623 0.88008 0.16134 0.0
C3044 C 0.13237 0.88149 0.16401 0.0
C3045 C 0.13979 0.87475 0.18324 0.0
H3046 H 0.11051 0.88531 0.14643 0.0
H3047 H 0.18477 0.81851 0.32993 0.0
H3048 H 0.86922 0.82445 0.66128 0.0
H3049 H 0.85857 0.84469 0.68659 0.0
H3050 H 0.87393 0.81896 0.74711 0.0
H3051 H 0.88518 0.79895 0.72171 0.0
H3052 H 0.83541 0.84057 0.71383 0.0
H3053 H 0.87639 0.84219 0.79475 0.0
H3054 H 0.9045 0.84056 0.80356 0.0
H3055 H 0.91539 0.85678 0.7346 0.0
H3056 H 0.88736 0.85872 0.72547 0.0
H3057 H 0.8119 0.86198 0.83532 0.0
H3058 H 0.83276 0.85339 0.80944 0.0
H3059 H 0.81809 0.88689 0.7578 0.0
H3060 H 0.79698 0.89548 0.78356 0.0
H3061 H 0.85783 0.86527 0.78454 0.0
H3062 H 0.81684 0.86751 0.70585 0.0
H3063 H 0.78867 0.86863 0.69705 0.0
H3064 H 0.77855 0.8442 0.76067 0.0
H3065 H 0.80666 0.84275 0.76965 0.0
C3066 C 0.87062 0.82328 0.67998 0.0
C3067 C 0.87791 0.81006 0.68956 0.0
C3068 C 0.86453 0.83486 0.69443 0.0
C3069 C 0.86541 0.8334 0.71878 0.0
C3070 C 0.87333 0.82054 0.72838 0.0
C3071 C 0.87969 0.80904 0.71387 0.0
C3072 C 0.8564 0.84423 0.73389 0.0
C3073 C 0.84049 0.84628 0.72892 0.0
C3074 C 0.86284 0.85142 0.75395 0.0
C3075 C 0.87974 0.85048 0.75938 0.0
C3076 C 0.88477 0.84548 0.7815 0.0
C3077 C 0.9007 0.84449 0.78655 0.0
C3078 C 0.91172 0.84852 0.76963 0.0
C3079 C 0.90684 0.8536 0.74766 0.0
C3080 C 0.89093 0.85463 0.74253 0.0
C3081 C 0.81328 0.86777 0.81866 0.0
C3082 C 0.80257 0.87919 0.81129 0.0
C3083 C 0.82531 0.86291 0.80395 0.0
C3084 C 0.82681 0.86932 0.78158 0.0
C3085 C 0.81701 0.88168 0.77494 0.0
C3086 C 0.80495 0.88658 0.78968 0.0
C3087 C 0.83702 0.86149 0.76431 0.0
C3088 C 0.85301 0.85987 0.76902 0.0
C3089 C 0.83072 0.85466 0.74392 0.0
C3090 C 0.81381 0.85521 0.73853 0.0
C3091 C 0.80859 0.86235 0.7179 0.0
C3092 C 0.79264 0.86304 0.71289 0.0
C3093 C 0.78182 0.85655 0.72834 0.0
C3094 C 0.78694 0.84927 0.74877 0.0
C3095 C 0.80287 0.84853 0.75383 0.0
H3096 H 0.76948 0.85711 0.72444 0.0
H3097 H 0.92405 0.84772 0.77356 0.0
H3098 H 0.19685 0.89467 0.7198 0.0
H3099 H 0.17871 0.88543 0.74981 0.0
H3100 H 0.15369 0.85892 0.69795 0.0
H3101 H 0.1717 0.86806 0.66796 0.0
H3102 H 0.13406 0.87057 0.73367 0.0
H3103 H 0.18258 0.84187 0.72391 0.0
H3104 H 0.21125 0.8396 0.72232 0.0
H3105 H 0.2146 0.85695 0.79242 0.0
H3106 H 0.18593 0.85954 0.79427 0.0
H3107 H 0.11018 0.79892 0.78524 0.0
H3108 H 0.1191 0.8215 0.76285 0.0
H3109 H 0.14447 0.83821 0.82287 0.0
H3110 H 0.1359 0.81555 0.84514 0.0
H3111 H 0.16311 0.83564 0.78726 0.0
H3112 H 0.11355 0.85898 0.79946 0.0
H3113 H 0.08486 0.8607 0.80053 0.0
H3114 H 0.08291 0.85316 0.72654 0.0
H3115 H 0.11159 0.85116 0.72506 0.0
C3116 C 0.18719 0.88728 0.71468 0.0
C3117 C 0.18586 0.88186 0.69162 0.0
C3118 C 0.17685 0.882 0.73184 0.0
C3119 C 0.165 0.87133 0.72611 0.0
C3120 C 0.16275 0.86714 0.70273 0.0
C3121 C 0.17314 0.87229 0.68564 0.0
C3122 C 0.1567 0.86253 0.74456 0.0
C3123 C 0.14034 0.86294 0.74549 0.0
C3124 C 0.16496 0.85277 0.76014 0.0
C3125 C 0.18216 0.85109 0.75912 0.0
C3126 C 0.18945 0.84532 0.73891 0.0
C3127 C 0.20569 0.84396 0.73797 0.0
C3128 C 0.21474 0.84818 0.75723 0.0
C3129 C 0.20757 0.85372 0.7775 0.0
C3130 C 0.19133 0.85514 0.7785 0.0
C3131 C 0.11733 0.80761 0.79384 0.0
C3132 C 0.12251 0.80533 0.81685 0.0
C3133 C 0.12237 0.82057 0.78105 0.0
C3134 C 0.13249 0.83157 0.79117 0.0
C3135 C 0.13674 0.82985 0.81466 0.0
C3136 C 0.13183 0.81687 0.82736 0.0
C3137 C 0.14032 0.84352 0.7765 0.0
C3138 C 0.1567 0.84357 0.77605 0.0
C3139 C 0.13201 0.85363 0.76142 0.0
C3140 C 0.11475 0.85481 0.76219 0.0
C3141 C 0.10701 0.85756 0.78344 0.0
C3142 C 0.09074 0.85861 0.78411 0.0
C3143 C 0.08207 0.85702 0.76362 0.0
C3144 C 0.08965 0.85439 0.7424 0.0
C3145 C 0.10592 0.85332 0.74163 0.0
H3146 H 0.06947 0.85784 0.76418 0.0
H3147 H 0.22732 0.84711 0.75647 0.0
H3148 H 0.11099 0.20718 0.72144 0.0
H3149 H 0.12291 0.18707 0.74614 0.0
H3150 H 0.15245 0.17308 0.68901 0.0
H3151 H 0.14067 0.19294 0.66427 0.0
H3152 H 0.13124 0.15245 0.7427 0.0
H3153 H 0.18915 0.17762 0.71126 0.0
H3154 H 0.1995 0.20169 0.6934 0.0
H3155 H 0.16403 0.22861 0.72772 0.0
H3156 H 0.15366 0.20474 0.74606 0.0
H3157 H 0.19926 0.11023 0.78648 0.0
H3158 H 0.17966 0.1228 0.76146 0.0
H3159 H 0.18071 0.1636 0.8054 0.0
H3160 H 0.20002 0.15127 0.83039 0.0
H3161 H 0.18544 0.17001 0.75845 0.0
H3162 H 0.15022 0.14124 0.80791 0.0
H3163 H 0.13951 0.11754 0.82626 0.0
H3164 H 0.12914 0.09852 0.75872 0.0
H3165 H 0.14001 0.12203 0.73994 0.0
C3166 C 0.11966 0.19948 0.71392 0.0
C3167 C 0.12511 0.20187 0.69105 0.0
C3168 C 0.1264 0.18796 0.72803 0.0
C3169 C 0.13865 0.17875 0.71941 0.0
C3170 C 0.14304 0.18013 0.69596 0.0
C3171 C 0.13634 0.19158 0.68191 0.0
C3172 C 0.14871 0.16986 0.73559 0.0
C3173 C 0.1431 0.15621 0.74616 0.0
C3174 C 0.16412 0.17489 0.74016 0.0
C3175 C 0.17054 0.18938 0.7298 0.0
C3176 C 0.18362 0.18869 0.71506 0.0
C3177 C 0.18949 0.20229 0.70486 0.0
C3178 C 0.18239 0.21666 0.70936 0.0
C3179 C 0.16948 0.21747 0.72418 0.0
C3180 C 0.1636 0.2039 0.73447 0.0
C3181 C 0.1952 0.12182 0.79089 0.0
C3182 C 0.20129 0.12977 0.81036 0.0
C3183 C 0.18397 0.12894 0.77666 0.0
C3184 C 0.17876 0.14412 0.78164 0.0
C3185 C 0.18459 0.1519 0.80127 0.0
C3186 C 0.19566 0.14479 0.81554 0.0
C3187 C 0.16807 0.15249 0.76568 0.0
C3188 C 0.17361 0.16611 0.755 0.0
C3189 C 0.15263 0.14744 0.76126 0.0
C3190 C 0.14609 0.13332 0.77252 0.0
C3191 C 0.1458 0.13194 0.79696 0.0
C3192 C 0.13966 0.11855 0.80744 0.0
C3193 C 0.13369 0.10651 0.79366 0.0
C3194 C 0.1338 0.10784 0.76937 0.0
C3195 C 0.13993 0.1212 0.7588 0.0
H3196 H 0.12894 0.09615 0.80181 0.0
H3197 H 0.18693 0.22717 0.7014 0.0
H3198 H 0.89311 0.20336 0.78475 0.0
H3199 H 0.88464 0.18404 0.75597 0.0
H3200 H 0.85376 0.16354 0.80684 0.0
H3201 H 0.86219 0.18268 0.83571 0.0
H3202 H 0.8671 0.14127 0.77747 0.0
H3203 H 0.84006 0.19096 0.77208 0.0
H3204 H 0.83871 0.21954 0.76746 0.0
H3205 H 0.86165 0.21605 0.70106 0.0
H3206 H 0.86332 0.18745 0.70546 0.0
H3207 H 0.80107 0.11314 0.71583 0.0
H3208 H 0.82115 0.12431 0.74101 0.0
H3209 H 0.84358 0.14479 0.68097 0.0
H3210 H 0.82329 0.13404 0.65579 0.0
H3211 H 0.83859 0.16605 0.71193 0.0
H3212 H 0.86128 0.11548 0.71434 0.0
H3213 H 0.8621 0.08692 0.71907 0.0
H3214 H 0.84735 0.0915 0.79032 0.0
H3215 H 0.84622 0.12009 0.78594 0.0
C3216 C 0.88479 0.19453 0.78998 0.0
C3217 C 0.87813 0.19471 0.81241 0.0
C3218 C 0.87996 0.18351 0.77351 0.0
C3219 C 0.86842 0.17251 0.77922 0.0
C3220 C 0.86266 0.17194 0.80209 0.0
C3221 C 0.86743 0.18297 0.81852 0.0
C3222 C 0.86092 0.16292 0.76089 0.0
C3223 C 0.86085 0.14662 0.7631 0.0
C3224 C 0.85305 0.16994 0.74193 0.0
C3225 C 0.85199 0.18711 0.73923 0.0
C3226 C 0.84493 0.19631 0.75659 0.0
C3227 C 0.84409 0.2125 0.754 0.0
C3228 C 0.85014 0.21961 0.73402 0.0
C3229 C 0.85701 0.21054 0.71655 0.0
C3230 C 0.8579 0.19434 0.71909 0.0
C3231 C 0.81047 0.11973 0.70793 0.0
C3232 C 0.8105 0.12286 0.68386 0.0
C3233 C 0.82201 0.12605 0.72234 0.0
C3234 C 0.83393 0.13538 0.7129 0.0
C3235 C 0.83448 0.1377 0.68867 0.0
C3236 C 0.82286 0.13154 0.67431 0.0
C3237 C 0.84459 0.14425 0.72844 0.0
C3238 C 0.84514 0.16053 0.72586 0.0
C3239 C 0.85288 0.13715 0.74699 0.0
C3240 C 0.85356 0.11995 0.74975 0.0
C3241 C 0.85809 0.1104 0.73097 0.0
C3242 C 0.85863 0.0942 0.7336 0.0
C3243 C 0.85475 0.0874 0.75497 0.0
C3244 C 0.85035 0.09679 0.77377 0.0
C3245 C 0.84978 0.113 0.77123 0.0
H3246 H 0.85518 0.07485 0.75697 0.0
H3247 H 0.84947 0.23215 0.73203 0.0
H3248 H 0.70647 0.61668 0.72347 0.0
H3249 H 0.68627 0.62734 0.74916 0.0
H3250 H 0.66049 0.64327 0.68903 0.0
H3251 H 0.68086 0.63319 0.66347 0.0
H3252 H 0.6642 0.66606 0.71736 0.0
H3253 H 0.64705 0.61338 0.72634 0.0
H3254 H 0.64959 0.58528 0.73458 0.0
H3255 H 0.66469 0.59552 0.80433 0.0
H3256 H 0.66245 0.6237 0.79642 0.0
H3257 H 0.60541 0.70076 0.78385 0.0
H3258 H 0.61606 0.68041 0.75849 0.0
H3259 H 0.64848 0.66714 0.81246 0.0
H3260 H 0.63786 0.68728 0.83796 0.0
H3261 H 0.63865 0.64164 0.78589 0.0
H3262 H 0.65939 0.69376 0.77455 0.0
H3263 H 0.65721 0.72196 0.76661 0.0
H3264 H 0.63549 0.71222 0.7007 0.0
H3265 H 0.63734 0.68395 0.70842 0.0
C3266 C 0.69634 0.6222 0.71577 0.0
C3267 C 0.69532 0.62428 0.69151 0.0
C3268 C 0.68475 0.62822 0.73045 0.0
C3269 C 0.6718 0.6361 0.72104 0.0
C3270 C 0.67039 0.63734 0.69672 0.0
C3271 C 0.68205 0.63157 0.68213 0.0
C3272 C 0.6607 0.64462 0.73635 0.0
C3273 C 0.65834 0.66056 0.73199 0.0
C3274 C 0.65335 0.63762 0.75587 0.0
C3275 C 0.65469 0.62067 0.76071 0.0
C3276 C 0.65103 0.60965 0.74338 0.0
C3277 C 0.65239 0.5937 0.748 0.0
C3278 C 0.65733 0.58862 0.76995 0.0
C3279 C 0.66088 0.59947 0.78734 0.0
C3280 C 0.65954 0.61544 0.7828 0.0
C3281 C 0.61451 0.69323 0.79056 0.0
C3282 C 0.62099 0.69584 0.81275 0.0
C3283 C 0.62059 0.68162 0.77604 0.0
C3284 C 0.63324 0.67247 0.78349 0.0
C3285 C 0.63876 0.6741 0.80636 0.0
C3286 C 0.63272 0.68571 0.82086 0.0
C3287 C 0.64217 0.6629 0.76662 0.0
C3288 C 0.64427 0.64691 0.77087 0.0
C3289 C 0.64932 0.66979 0.74693 0.0
C3290 C 0.64833 0.68677 0.74218 0.0
C3291 C 0.65404 0.69764 0.75844 0.0
C3292 C 0.65288 0.71363 0.75398 0.0
C3293 C 0.64617 0.71888 0.73319 0.0
C3294 C 0.64065 0.70814 0.71681 0.0
C3295 C 0.64175 0.69213 0.72122 0.0
H3296 H 0.64529 0.73126 0.72976 0.0
H3297 H 0.65838 0.57626 0.77349 0.0
H3298 H 0.32401 0.63736 0.8288 0.0
H3299 H 0.34237 0.64644 0.7993 0.0
H3300 H 0.32098 0.61617 0.74841 0.0
H3301 H 0.30243 0.60703 0.77791 0.0
H3302 H 0.364 0.63454 0.76775 0.0
H3303 H 0.3155 0.6387 0.69943 0.0
H3304 H 0.28674 0.63947 0.69704 0.0
H3305 H 0.28454 0.66052 0.76494 0.0
H3306 H 0.31327 0.66006 0.76756 0.0
H3307 H 0.36511 0.68471 0.65092 0.0
H3308 H 0.3566 0.66234 0.67398 0.0
H3309 H 0.37787 0.6825 0.73522 0.0
H3310 H 0.38687 0.70463 0.71204 0.0
H3311 H 0.33616 0.66443 0.70648 0.0
H3312 H 0.38437 0.65589 0.77699 0.0
H3313 H 0.41308 0.65613 0.77968 0.0
H3314 H 0.4165 0.64488 0.70687 0.0
H3315 H 0.38782 0.64436 0.70379 0.0
C3316 C 0.32341 0.63236 0.81147 0.0
C3317 C 0.31159 0.62168 0.80557 0.0
C3318 C 0.334 0.63749 0.79467 0.0
C3319 C 0.33289 0.63214 0.77162 0.0
C3320 C 0.32193 0.62053 0.7661 0.0
C3321 C 0.31135 0.61531 0.78297 0.0
C3322 C 0.34164 0.64039 0.75307 0.0
C3323 C 0.35799 0.64106 0.75426 0.0
C3324 C 0.33376 0.64864 0.73527 0.0
C3325 C 0.3165 0.64914 0.7338 0.0
C3326 C 0.30886 0.64351 0.71382 0.0
C3327 C 0.29258 0.6439 0.71242 0.0
C3328 C 0.28382 0.64998 0.73087 0.0
C3329 C 0.29133 0.65575 0.75071 0.0
C3330 C 0.30761 0.65542 0.75216 0.0
C3331 C 0.36832 0.68418 0.66918 0.0
C3332 C 0.37653 0.6965 0.67973 0.0
C3333 C 0.36344 0.67138 0.68234 0.0
C3334 C 0.36656 0.67069 0.70636 0.0
C3335 C 0.37554 0.68257 0.71665 0.0
C3336 C 0.38062 0.69529 0.7034 0.0
C3337 C 0.35866 0.65882 0.72111 0.0
C3338 C 0.34236 0.65757 0.7194 0.0
C3339 C 0.36664 0.65011 0.73839 0.0
C3340 C 0.38392 0.65019 0.74014 0.0
C3341 C 0.39124 0.65337 0.76158 0.0
C3342 C 0.40752 0.65358 0.76316 0.0
C3343 C 0.41661 0.65056 0.74345 0.0
C3344 C 0.40945 0.64728 0.72211 0.0
C3345 C 0.39318 0.64705 0.72043 0.0
H3346 H 0.42921 0.65074 0.74471 0.0
H3347 H 0.27122 0.65026 0.72977 0.0
H3348 H 0.34567 0.29182 0.8163 0.0
H3349 H 0.3347 0.31157 0.7907 0.0
H3350 H 0.38078 0.32244 0.76496 0.0
H3351 H 0.3918 0.302 0.78998 0.0
H3352 H 0.3367 0.341 0.78737 0.0
H3353 H 0.3781 0.33558 0.70895 0.0
H3354 H 0.39565 0.31636 0.69051 0.0
H3355 H 0.36787 0.27891 0.71789 0.0
H3356 H 0.35008 0.29792 0.73626 0.0
H3357 H 0.30537 0.39361 0.7031 0.0
H3358 H 0.3247 0.38104 0.72847 0.0
H3359 H 0.31675 0.33723 0.69329 0.0
H3360 H 0.29811 0.34973 0.66753 0.0
H3361 H 0.34586 0.3393 0.702 0.0
H3362 H 0.29853 0.34781 0.74678 0.0
H3363 H 0.27774 0.36386 0.76438 0.0
H3364 H 0.312 0.38962 0.80317 0.0
H3365 H 0.33301 0.3738 0.78558 0.0
C3366 C 0.3535 0.2984 0.80521 0.0
C3367 C 0.36959 0.29529 0.80505 0.0
C3368 C 0.34722 0.30978 0.79064 0.0
C3369 C 0.35687 0.31849 0.77576 0.0
C3370 C 0.37304 0.3157 0.77598 0.0
C3371 C 0.37933 0.30405 0.79029 0.0
C3372 C 0.34967 0.33001 0.75963 0.0
C3373 C 0.33883 0.34071 0.76871 0.0
C3374 C 0.35237 0.32969 0.73526 0.0
C3375 C 0.36292 0.31816 0.72422 0.0
C3376 C 0.37575 0.32324 0.711 0.0
C3377 C 0.38573 0.31239 0.70057 0.0
C3378 C 0.38291 0.29642 0.70312 0.0
C3379 C 0.37007 0.29128 0.71602 0.0
C3380 C 0.36005 0.30208 0.72646 0.0
C3381 C 0.30789 0.38134 0.70069 0.0
C3382 C 0.30014 0.37266 0.68339 0.0
C3383 C 0.3189 0.37416 0.71521 0.0
C3384 C 0.32208 0.35812 0.71298 0.0
C3385 C 0.31462 0.34961 0.69531 0.0
C3386 C 0.30386 0.35679 0.68064 0.0
C3387 C 0.3324 0.34976 0.72965 0.0
C3388 C 0.34397 0.3398 0.7207 0.0
C3389 C 0.32992 0.3503 0.75405 0.0
C3390 C 0.31733 0.35977 0.76467 0.0
C3391 C 0.30162 0.35697 0.75895 0.0
C3392 C 0.28981 0.36601 0.76894 0.0
C3393 C 0.29356 0.37779 0.78482 0.0
C3394 C 0.30912 0.38052 0.79082 0.0
C3395 C 0.32099 0.37152 0.78086 0.0
H3396 H 0.28439 0.38479 0.79253 0.0
H3397 H 0.39066 0.28804 0.69504 0.0
H3398 H 0.63334 0.32026 0.65181 0.0
H3399 H 0.64387 0.34097 0.67636 0.0
H3400 H 0.6257 0.31794 0.73751 0.0
H3401 H 0.61468 0.29731 0.71283 0.0
H3402 H 0.62447 0.34968 0.74206 0.0
H3403 H 0.66277 0.31122 0.71992 0.0
H3404 H 0.67777 0.29511 0.69221 0.0
H3405 H 0.69569 0.33647 0.65953 0.0
H3406 H 0.68061 0.35283 0.68687 0.0
H3407 H 0.68051 0.36763 0.82847 0.0
H3408 H 0.66175 0.35762 0.80036 0.0
H3409 H 0.68388 0.38426 0.74576 0.0
H3410 H 0.70293 0.39428 0.77392 0.0
H3411 H 0.68202 0.35391 0.73502 0.0
H3412 H 0.6464 0.39231 0.76238 0.0
H3413 H 0.6318 0.40768 0.79144 0.0
H3414 H 0.60932 0.36606 0.81604 0.0
H3415 H 0.62395 0.35039 0.78735 0.0
C3416 C 0.63134 0.31973 0.67045 0.0
C3417 C 0.62341 0.30703 0.68046 0.0
C3418 C 0.63737 0.33158 0.68445 0.0
C3419 C 0.63589 0.33081 0.70879 0.0
C3420 C 0.62704 0.31872 0.71875 0.0
C3421 C 0.62078 0.30693 0.70466 0.0
C3422 C 0.64489 0.34165 0.72382 0.0
C3423 C 0.63706 0.35058 0.74066 0.0
C3424 C 0.66129 0.34305 0.72161 0.0
C3425 C 0.67043 0.33324 0.70525 0.0
C3426 C 0.66982 0.31687 0.70671 0.0
C3427 C 0.67835 0.3077 0.69109 0.0
C3428 C 0.68764 0.31476 0.67407 0.0
C3429 C 0.68846 0.33101 0.67269 0.0
C3430 C 0.67994 0.34024 0.68824 0.0
C3431 C 0.68124 0.37163 0.81057 0.0
C3432 C 0.69334 0.38162 0.80337 0.0
C3433 C 0.67039 0.36598 0.79454 0.0
C3434 C 0.67135 0.37023 0.77096 0.0
C3435 C 0.68291 0.38086 0.76391 0.0
C3436 C 0.69376 0.3866 0.78001 0.0
C3437 C 0.66165 0.36195 0.75347 0.0
C3438 C 0.66939 0.35334 0.7362 0.0
C3439 C 0.64523 0.36078 0.7555 0.0
C3440 C 0.63636 0.37016 0.77278 0.0
C3441 C 0.63843 0.38641 0.7741 0.0
C3442 C 0.63014 0.39518 0.79049 0.0
C3443 C 0.61966 0.38785 0.8056 0.0
C3444 C 0.61744 0.37173 0.80432 0.0
C3445 C 0.62571 0.3629 0.78797 0.0
H3446 H 0.61325 0.39466 0.81828 0.0
H3447 H 0.69424 0.30764 0.662 0.0
H3448 H 0.36429 0.32013 0.16452 0.0
H3449 H 0.35544 0.33927 0.19292 0.0
H3450 H 0.38378 0.3175 0.24589 0.0
H3451 H 0.39267 0.29808 0.21741 0.0
H3452 H 0.3538 0.31997 0.25898 0.0
H3453 H 0.39176 0.35463 0.22808 0.0
H3454 H 0.40652 0.36854 0.19759 0.0
H3455 H 0.36456 0.39119 0.1747 0.0
H3456 H 0.34949 0.37726 0.20482 0.0
H3457 H 0.3189 0.36948 0.33994 0.0
H3458 H 0.34049 0.35926 0.31671 0.0
H3459 H 0.31835 0.37612 0.254 0.0
H3460 H 0.29695 0.38687 0.27729 0.0
H3461 H 0.34969 0.37738 0.24984 0.0
H3462 H 0.31151 0.33911 0.27413 0.0
H3463 H 0.29572 0.32461 0.30284 0.0
H3464 H 0.33746 0.30812 0.33608 0.0
H3465 H 0.3535 0.3227 0.30772 0.0
C3466 C 0.36889 0.31955 0.1821 0.0
C3467 C 0.37906 0.30748 0.18878 0.0
C3468 C 0.36391 0.33062 0.19829 0.0
C3469 C 0.36902 0.3299 0.2215 0.0
C3470 C 0.37975 0.3183 0.22801 0.0
C3471 C 0.38483 0.30723 0.21173 0.0
C3472 C 0.3615 0.33994 0.23932 0.0
C3473 C 0.35329 0.33257 0.25736 0.0
C3474 C 0.36044 0.35634 0.23679 0.0
C3475 C 0.36947 0.36482 0.21867 0.0
C3476 C 0.38565 0.36249 0.21644 0.0
C3477 C 0.39408 0.3704 0.19924 0.0
C3478 C 0.38648 0.38073 0.1842 0.0
C3479 C 0.37044 0.38319 0.18636 0.0
C3480 C 0.36194 0.37531 0.20353 0.0
C3481 C 0.31881 0.37133 0.32125 0.0
C3482 C 0.30613 0.37874 0.31036 0.0
C3483 C 0.33115 0.36547 0.308 0.0
C3484 C 0.33083 0.36657 0.28357 0.0
C3485 C 0.3188 0.37507 0.27282 0.0
C3486 C 0.30656 0.38118 0.28614 0.0
C3487 C 0.34187 0.35733 0.26918 0.0
C3488 C 0.3506 0.36483 0.25176 0.0
C3489 C 0.34331 0.34098 0.27205 0.0
C3490 C 0.33369 0.33214 0.289 0.0
C3491 C 0.31731 0.33247 0.28767 0.0
C3492 C 0.30832 0.32423 0.30386 0.0
C3493 C 0.31558 0.31549 0.32132 0.0
C3494 C 0.33185 0.31493 0.32258 0.0
C3495 C 0.3409 0.32317 0.30646 0.0
H3496 H 0.3086 0.30912 0.33384 0.0
H3497 H 0.39303 0.38683 0.17089 0.0
H3498 H 0.63416 0.32002 0.33833 0.0
H3499 H 0.64576 0.33994 0.31343 0.0
H3500 H 0.62507 0.31822 0.25295 0.0
H3501 H 0.61302 0.29846 0.27798 0.0
H3502 H 0.6671 0.33456 0.28274 0.0
H3503 H 0.62197 0.34413 0.20829 0.0
H3504 H 0.59344 0.34572 0.20328 0.0
H3505 H 0.58831 0.35948 0.2749 0.0
H3506 H 0.61681 0.35818 0.28027 0.0
H3507 H 0.6839 0.36215 0.16006 0.0
H3508 H 0.66508 0.35266 0.18856 0.0
H3509 H 0.68651 0.38111 0.24172 0.0
H3510 H 0.70562 0.39059 0.21324 0.0
H3511 H 0.64326 0.3649 0.21828 0.0
H3512 H 0.68861 0.35877 0.29115 0.0
H3513 H 0.71715 0.35684 0.29612 0.0
H3514 H 0.72125 0.33582 0.2284 0.0
H3515 H 0.69273 0.33745 0.22318 0.0
C3516 C 0.63184 0.31964 0.31976 0.0
C3517 C 0.6228 0.30759 0.31006 0.0
C3518 C 0.63848 0.33105 0.30556 0.0
C3519 C 0.63633 0.33061 0.28131 0.0
C3520 C 0.62672 0.31898 0.27165 0.0
C3521 C 0.61988 0.30763 0.28595 0.0
C3522 C 0.64553 0.34119 0.26609 0.0
C3523 C 0.66179 0.34148 0.26901 0.0
C3524 C 0.6387 0.34997 0.24783 0.0
C3525 C 0.62154 0.35092 0.24472 0.0
C3526 C 0.61476 0.34756 0.22295 0.0
C3527 C 0.59859 0.3484 0.22005 0.0
C3528 C 0.58906 0.35265 0.23878 0.0
C3529 C 0.59569 0.35612 0.26043 0.0
C3530 C 0.61186 0.35531 0.26342 0.0
C3531 C 0.68453 0.36658 0.17774 0.0
C3532 C 0.69643 0.37695 0.18448 0.0
C3533 C 0.67366 0.36121 0.19397 0.0
C3534 C 0.67452 0.36603 0.2173 0.0
C3535 C 0.68577 0.37713 0.22382 0.0
C3536 C 0.69666 0.38255 0.20754 0.0
C3537 C 0.6647 0.35812 0.23499 0.0
C3538 C 0.64841 0.35824 0.2324 0.0
C3539 C 0.67145 0.34968 0.25362 0.0
C3540 C 0.68858 0.34842 0.25668 0.0
C3541 C 0.69561 0.35371 0.27736 0.0
C3542 C 0.71178 0.35267 0.28022 0.0
C3543 C 0.72102 0.34627 0.26255 0.0
C3544 C 0.71409 0.34083 0.24203 0.0
C3545 C 0.69793 0.34182 0.23911 0.0
H3546 H 0.73353 0.34549 0.26478 0.0
H3547 H 0.57654 0.35329 0.2365 0.0
H3548 H 0.70505 0.59806 0.28534 0.0
H3549 H 0.68668 0.60785 0.25594 0.0
H3550 H 0.67071 0.64295 0.30413 0.0
H3551 H 0.68868 0.63323 0.33363 0.0
H3552 H 0.64745 0.62251 0.26511 0.0
H3553 H 0.68837 0.67167 0.26908 0.0
H3554 H 0.71601 0.67766 0.27741 0.0
H3555 H 0.73004 0.63561 0.24251 0.0
H3556 H 0.70249 0.62951 0.23379 0.0
H3557 H 0.61711 0.69258 0.21184 0.0
H3558 H 0.62795 0.67207 0.2369 0.0
H3559 H 0.65882 0.65795 0.18137 0.0
H3560 H 0.64817 0.67826 0.15636 0.0
H3561 H 0.67435 0.66471 0.22151 0.0
H3562 H 0.63011 0.63418 0.19798 0.0
H3563 H 0.60216 0.62868 0.192 0.0
H3564 H 0.59393 0.63328 0.26556 0.0
H3565 H 0.6218 0.63904 0.27196 0.0
C3566 C 0.69732 0.60758 0.28989 0.0
C3567 C 0.6985 0.615 0.31172 0.0
C3568 C 0.68681 0.61311 0.27312 0.0
C3569 C 0.67743 0.62611 0.27798 0.0
C3570 C 0.67782 0.63284 0.30019 0.0
C3571 C 0.68821 0.62731 0.31696 0.0
C3572 C 0.6692 0.63438 0.2591 0.0
C3573 C 0.65328 0.63163 0.25531 0.0
C3574 C 0.67686 0.64629 0.24658 0.0
C3575 C 0.69344 0.65011 0.25095 0.0
C3576 C 0.69738 0.66377 0.2631 0.0
C3577 C 0.71301 0.66717 0.2679 0.0
C3578 C 0.72477 0.657 0.26056 0.0
C3579 C 0.72092 0.64346 0.24825 0.0
C3580 C 0.70531 0.64003 0.24338 0.0
C3581 C 0.62599 0.68491 0.20484 0.0
C3582 C 0.63191 0.68719 0.18221 0.0
C3583 C 0.63213 0.67317 0.21914 0.0
C3584 C 0.64421 0.66353 0.21097 0.0
C3585 C 0.64955 0.6653 0.18803 0.0
C3586 C 0.64344 0.67696 0.17377 0.0
C3587 C 0.65248 0.65275 0.22692 0.0
C3588 C 0.66846 0.65531 0.23065 0.0
C3589 C 0.64479 0.64065 0.23919 0.0
C3590 C 0.62803 0.63717 0.23542 0.0
C3591 C 0.62232 0.63416 0.21286 0.0
C3592 C 0.60649 0.63096 0.2094 0.0
C3593 C 0.59627 0.63067 0.22838 0.0
C3594 C 0.60186 0.63353 0.25087 0.0
C3595 C 0.61768 0.63674 0.25443 0.0
H3596 H 0.58402 0.62819 0.22566 0.0
H3597 H 0.73685 0.65961 0.2644 0.0
H3598 H 0.3149 0.63689 0.16179 0.0
H3599 H 0.33805 0.64551 0.18287 0.0
H3600 H 0.32157 0.62214 0.24483 0.0
H3601 H 0.29853 0.61307 0.22351 0.0
H3602 H 0.33669 0.66508 0.21705 0.0
H3603 H 0.35161 0.61562 0.28274 0.0
H3604 H 0.35224 0.58688 0.28401 0.0
H3605 H 0.35825 0.58526 0.20969 0.0
H3606 H 0.35789 0.61399 0.20799 0.0
H3607 H 0.37393 0.67807 0.33187 0.0
H3608 H 0.36335 0.65853 0.30529 0.0
H3609 H 0.38834 0.67961 0.24814 0.0
H3610 H 0.39894 0.69933 0.27462 0.0
H3611 H 0.37216 0.63665 0.2706 0.0
H3612 H 0.36103 0.68647 0.20616 0.0
H3613 H 0.35988 0.71525 0.20567 0.0
H3614 H 0.34534 0.71548 0.27736 0.0
H3615 H 0.34615 0.68672 0.27813 0.0
C3616 C 0.31637 0.63328 0.17976 0.0
C3617 C 0.30482 0.62444 0.19109 0.0
C3618 C 0.32962 0.63822 0.19179 0.0
C3619 C 0.33157 0.63454 0.21546 0.0
C3620 C 0.32047 0.62496 0.22649 0.0
C3621 C 0.30727 0.61982 0.21432 0.0
C3622 C 0.34401 0.64241 0.22918 0.0
C3623 C 0.34469 0.65876 0.22826 0.0
C3624 C 0.35419 0.63427 0.24437 0.0
C3625 C 0.35458 0.61698 0.24523 0.0
C3626 C 0.35314 0.60914 0.26667 0.0
C3627 C 0.35343 0.59285 0.26747 0.0
C3628 C 0.35524 0.58425 0.24693 0.0
C3629 C 0.35679 0.59193 0.22557 0.0
C3630 C 0.35652 0.60822 0.22468 0.0
C3631 C 0.37758 0.67828 0.31378 0.0
C3632 C 0.38699 0.69046 0.30523 0.0
C3633 C 0.37159 0.66702 0.29864 0.0
C3634 C 0.37483 0.66782 0.27471 0.0
C3635 C 0.3856 0.67891 0.26656 0.0
C3636 C 0.39166 0.69016 0.28173 0.0
C3637 C 0.36479 0.65915 0.25815 0.0
C3638 C 0.3644 0.64278 0.25881 0.0
C3639 C 0.35477 0.66721 0.24269 0.0
C3640 C 0.35386 0.68448 0.24226 0.0
C3641 C 0.35753 0.69268 0.22177 0.0
C3642 C 0.35694 0.70898 0.22145 0.0
C3643 C 0.3526 0.71719 0.2415 0.0
C3644 C 0.34875 0.70911 0.26187 0.0
C3645 C 0.34928 0.69282 0.26226 0.0
H3646 H 0.35218 0.72981 0.24123 0.0
H3647 H 0.35546 0.57163 0.24758 0.0
loop_
_geom_bond_atom_site_label_1
_geom_bond_atom_site_label_2
_geom_bond_distance
_geom_bond_site_symmetry_2
_ccdc_geom_bond_type
Zn0 O3 2.031 . S
Zn0 O5 2.049 . S
Zn0 O10 2.067 . S
Zn1 O2 1.962 . S
Zn1 O4 1.986 . S
Zn1 O6 1.996 . S
Zn1 O9 1.943 . S
O2 Zn1 1.962 . S
O2 C7 1.254 . S
O3 Zn0 2.031 . S
O3 C7 1.269 . S
O4 Zn1 1.986 . S
O4 C11 1.262 . S
O5 Zn0 2.049 . S
O5 C13 1.260 . S
O6 Zn1 1.996 . S
O6 C13 1.257 . S
C7 O2 1.254 . S
C7 O3 1.269 . S
C8 O9 1.249 . S
C8 O10 1.270 . S
O9 Zn1 1.943 . S
O9 C8 1.249 . S
O10 Zn0 2.067 . S
O10 C8 1.270 . S
C11 O4 1.262 . S
C11 O12 1.232 . S
O12 C11 1.232 . S
C13 O5 1.260 . S
C13 O6 1.257 . S
Zn14 O17 2.031 . S
Zn14 O19 2.049 . S
Zn14 O24 2.067 . S
Zn15 O16 1.962 . S
Zn15 O18 1.986 . S
Zn15 O20 1.996 . S
Zn15 O23 1.943 . S
O16 Zn15 1.962 . S
O16 C21 1.254 . S
O17 Zn14 2.031 . S
O17 C21 1.269 . S
O18 Zn15 1.986 . S
O18 C25 1.262 . S
O19 Zn14 2.049 . S
O19 C27 1.260 . S
O20 Zn15 1.996 . S
O20 C27 1.257 . S
C21 O16 1.254 . S
C21 O17 1.269 . S
C22 O23 1.249 . S
C22 O24 1.270 . S
O23 Zn15 1.943 . S
O23 C22 1.249 . S
O24 Zn14 2.067 . S
O24 C22 1.270 . S
C25 O18 1.262 . S
C25 O26 1.232 . S
O26 C25 1.232 . S
C27 O19 1.260 . S
C27 O20 1.257 . S
Zn28 O31 2.031 . S
Zn28 O33 2.049 . S
Zn28 O38 2.067 . S
Zn29 O30 1.962 . S
Zn29 O32 1.986 . S
Zn29 O34 1.996 . S
Zn29 O37 1.943 . S
O30 Zn29 1.962 . S
O30 C35 1.254 . S
O31 Zn28 2.031 . S
O31 C35 1.269 . S
O32 Zn29 1.986 . S
O32 C39 1.262 . S
O33 Zn28 2.049 . S
O33 C41 1.260 . S
O34 Zn29 1.996 . S
O34 C41 1.257 . S
C35 O30 1.254 . S
C35 O31 1.269 . S
C36 O37 1.249 . S
C36 O38 1.270 . S
O37 Zn29 1.943 . S
O37 C36 1.249 . S
O38 Zn28 2.067 . S
O38 C36 1.270 . S
C39 O32 1.262 . S
C39 O40 1.232 . S
O40 C39 1.232 . S
C41 O33 1.260 . S
C41 O34 1.257 . S
Zn42 O45 2.031 . S
Zn42 O47 2.049 . S
Zn42 O52 2.067 . S
Zn43 O44 1.962 . S
Zn43 O46 1.986 . S
Zn43 O48 1.996 . S
Zn43 O51 1.943 . S
O44 Zn43 1.962 . S
O44 C49 1.254 . S
O45 Zn42 2.031 . S
O45 C49 1.269 . S
O46 Zn43 1.986 . S
O46 C53 1.262 . S
O47 Zn42 2.049 . S
O47 C55 1.260 . S
O48 Zn43 1.996 . S
O48 C55 1.257 . S
C49 O44 1.254 . S
C49 O45 1.269 . S
C50 O51 1.249 . S
C50 O52 1.270 . S
O51 Zn43 1.943 . S
O51 C50 1.249 . S
O52 Zn42 2.067 . S
O52 C50 1.270 . S
C53 O46 1.262 . S
C53 O54 1.232 . S
O54 C53 1.232 . S
C55 O47 1.260 . S
C55 O48 1.257 . S
Zn56 O59 2.031 . S
Zn56 O61 2.049 . S
Zn56 O66 2.067 . S
Zn57 O58 1.962 . S
Zn57 O60 1.986 . S
Zn57 O62 1.996 . S
Zn57 O65 1.943 . S
O58 Zn57 1.962 . S
O58 C63 1.254 . S
O59 Zn56 2.031 . S
O59 C63 1.269 . S
O60 Zn57 1.986 . S
O60 C67 1.262 . S
O61 Zn56 2.049 . S
O61 C69 1.260 . S
O62 Zn57 1.996 . S
O62 C69 1.257 . S
C63 O58 1.254 . S
C63 O59 1.269 . S
C64 O65 1.249 . S
C64 O66 1.270 . S
O65 Zn57 1.943 . S
O65 C64 1.249 . S
O66 Zn56 2.067 . S
O66 C64 1.270 . S
C67 O60 1.262 . S
C67 O68 1.232 . S
O68 C67 1.232 . S
C69 O61 1.260 . S
C69 O62 1.257 . S
Zn70 O73 2.031 . S
Zn70 O75 2.049 . S
Zn70 O80 2.067 . S
Zn71 O72 1.962 . S
Zn71 O74 1.986 . S
Zn71 O76 1.996 . S
Zn71 O79 1.943 . S
O72 Zn71 1.962 . S
O72 C77 1.254 . S
O73 Zn70 2.031 . S
O73 C77 1.269 . S
O74 Zn71 1.986 . S
O74 C81 1.262 . S
O75 Zn70 2.049 . S
O75 C83 1.260 . S
O76 Zn71 1.996 . S
O76 C83 1.257 . S
C77 O72 1.254 . S
C77 O73 1.269 . S
C78 O79 1.249 . S
C78 O80 1.270 . S
O79 Zn71 1.943 . S
O79 C78 1.249 . S
O80 Zn70 2.067 . S
O80 C78 1.270 . S
C81 O74 1.262 . S
C81 O82 1.232 . S
O82 C81 1.232 . S
C83 O75 1.260 . S
C83 O76 1.257 . S
Zn84 O87 2.031 . S
Zn84 O89 2.049 . S
Zn84 O94 2.067 . S
Zn85 O86 1.962 . S
Zn85 O88 1.986 . S
Zn85 O90 1.996 . S
Zn85 O93 1.943 . S
O86 Zn85 1.962 . S
O86 C91 1.254 . S
O87 Zn84 2.031 . S
O87 C91 1.269 . S
O88 Zn85 1.986 . S
O88 C95 1.262 . S
O89 Zn84 2.049 . S
O89 C97 1.260 . S
O90 Zn85 1.996 . S
O90 C97 1.257 . S
C91 O86 1.254 . S
C91 O87 1.269 . S
C92 O93 1.249 . S
C92 O94 1.270 . S
O93 Zn85 1.943 . S
O93 C92 1.249 . S
O94 Zn84 2.067 . S
O94 C92 1.270 . S
C95 O88 1.262 . S
C95 O96 1.232 . S
O96 C95 1.232 . S
C97 O89 1.260 . S
C97 O90 1.257 . S
Zn98 O101 2.031 . S
Zn98 O103 2.049 . S
Zn98 O108 2.067 . S
Zn99 O100 1.962 . S
Zn99 O102 1.986 . S
Zn99 O104 1.996 . S
Zn99 O107 1.943 . S
O100 Zn99 1.962 . S
O100 C105 1.254 . S
O101 Zn98 2.031 . S
O101 C105 1.269 . S
O102 Zn99 1.986 . S
O102 C109 1.262 . S
O103 Zn98 2.049 . S
O103 C111 1.260 . S
O104 Zn99 1.996 . S
O104 C111 1.257 . S
C105 O100 1.254 . S
C105 O101 1.269 . S
C106 O107 1.249 . S
C106 O108 1.270 . S
O107 Zn99 1.943 . S
O107 C106 1.249 . S
O108 Zn98 2.067 . S
O108 C106 1.270 . S
C109 O102 1.262 . S
C109 O110 1.232 . S
O110 C109 1.232 . S
C111 O103 1.260 . S
C111 O104 1.257 . S
Zn112 O115 2.031 . S
Zn112 O117 2.049 . S
Zn112 O122 2.067 . S
Zn113 O114 1.962 . S
Zn113 O116 1.986 . S
Zn113 O118 1.996 . S
Zn113 O121 1.943 . S
O114 Zn113 1.962 . S
O114 C119 1.254 . S
O115 Zn112 2.031 . S
O115 C119 1.269 . S
O116 Zn113 1.986 . S
O116 C123 1.262 . S
O117 Zn112 2.049 . S
O117 C125 1.260 . S
O118 Zn113 1.996 . S
O118 C125 1.257 . S
C119 O114 1.254 . S
C119 O115 1.269 . S
C120 O121 1.249 . S
C120 O122 1.270 . S
O121 Zn113 1.943 . S
O121 C120 1.249 . S
O122 Zn112 2.067 . S
O122 C120 1.270 . S
C123 O116 1.262 . S
C123 O124 1.232 . S
O124 C123 1.232 . S
C125 O117 1.260 . S
C125 O118 1.257 . S
Zn126 O129 2.031 . S
Zn126 O131 2.049 . S
Zn126 O136 2.067 . S
Zn127 O128 1.962 . S
Zn127 O130 1.986 . S
Zn127 O132 1.996 . S
Zn127 O135 1.943 . S
O128 Zn127 1.962 . S
O128 C133 1.254 . S
O129 Zn126 2.031 . S
O129 C133 1.269 . S
O130 Zn127 1.986 . S
O130 C137 1.262 . S
O131 Zn126 2.049 . S
O131 C139 1.260 . S
O132 Zn127 1.996 . S
O132 C139 1.257 . S
C133 O128 1.254 . S
C133 O129 1.269 . S
C134 O135 1.249 . S
C134 O136 1.270 . S
O135 Zn127 1.943 . S
O135 C134 1.249 . S
O136 Zn126 2.067 . S
O136 C134 1.270 . S
C137 O130 1.262 . S
C137 O138 1.232 . S
O138 C137 1.232 . S
C139 O131 1.260 . S
C139 O132 1.257 . S
Zn140 O143 2.031 . S
Zn140 O145 2.049 . S
Zn140 O150 2.067 . S
Zn141 O142 1.962 . S
Zn141 O144 1.986 . S
Zn141 O146 1.996 . S
Zn141 O149 1.943 . S
O142 Zn141 1.962 . S
O142 C147 1.254 . S
O143 Zn140 2.031 . S
O143 C147 1.269 . S
O144 Zn141 1.986 . S
O144 C151 1.262 . S
O145 Zn140 2.049 . S
O145 C153 1.260 . S
O146 Zn141 1.996 . S
O146 C153 1.257 . S
C147 O142 1.254 . S
C147 O143 1.269 . S
C148 O149 1.249 . S
C148 O150 1.270 . S
O149 Zn141 1.943 . S
O149 C148 1.249 . S
O150 Zn140 2.067 . S
O150 C148 1.270 . S
C151 O144 1.262 . S
C151 O152 1.232 . S
O152 C151 1.232 . S
C153 O145 1.260 . S
C153 O146 1.257 . S
Zn154 O157 2.031 . S
Zn154 O159 2.049 . S
Zn154 O164 2.067 . S
Zn155 O156 1.962 . S
Zn155 O158 1.986 . S
Zn155 O160 1.996 . S
Zn155 O163 1.943 . S
O156 Zn155 1.962 . S
O156 C161 1.254 . S
O157 Zn154 2.031 . S
O157 C161 1.269 . S
O158 Zn155 1.986 . S
O158 C165 1.262 . S
O159 Zn154 2.049 . S
O159 C167 1.260 . S
O160 Zn155 1.996 . S
O160 C167 1.257 . S
C161 O156 1.254 . S
C161 O157 1.269 . S
C162 O163 1.249 . S
C162 O164 1.270 . S
O163 Zn155 1.943 . S
O163 C162 1.249 . S
O164 Zn154 2.067 . S
O164 C162 1.270 . S
C165 O158 1.262 . S
C165 O166 1.232 . S
O166 C165 1.232 . S
C167 O159 1.260 . S
C167 O160 1.257 . S
Zn168 O171 2.031 . S
Zn168 O173 2.049 . S
Zn168 O178 2.067 . S
Zn169 O170 1.962 . S
Zn169 O172 1.986 . S
Zn169 O174 1.996 . S
Zn169 O177 1.943 . S
O170 Zn169 1.962 . S
O170 C175 1.254 . S
O171 Zn168 2.031 . S
O171 C175 1.269 . S
O172 Zn169 1.986 . S
O172 C179 1.262 . S
O173 Zn168 2.049 . S
O173 C181 1.260 . S
O174 Zn169 1.996 . S
O174 C181 1.257 . S
C175 O170 1.254 . S
C175 O171 1.269 . S
C176 O177 1.249 . S
C176 O178 1.270 . S
O177 Zn169 1.943 . S
O177 C176 1.249 . S
O178 Zn168 2.067 . S
O178 C176 1.270 . S
C179 O172 1.262 . S
C179 O180 1.232 . S
O180 C179 1.232 . S
C181 O173 1.260 . S
C181 O174 1.257 . S
Zn182 O185 2.031 . S
Zn182 O187 2.049 . S
Zn182 O192 2.067 . S
Zn183 O184 1.962 . S
Zn183 O186 1.986 . S
Zn183 O188 1.996 . S
Zn183 O191 1.943 . S
O184 Zn183 1.962 . S
O184 C189 1.254 . S
O185 Zn182 2.031 . S
O185 C189 1.269 . S
O186 Zn183 1.986 . S
O186 C193 1.262 . S
O187 Zn182 2.049 . S
O187 C195 1.260 . S
O188 Zn183 1.996 . S
O188 C195 1.257 . S
C189 O184 1.254 . S
C189 O185 1.269 . S
C190 O191 1.249 . S
C190 O192 1.270 . S
O191 Zn183 1.943 . S
O191 C190 1.249 . S
O192 Zn182 2.067 . S
O192 C190 1.270 . S
C193 O186 1.262 . S
C193 O194 1.232 . S
O194 C193 1.232 . S
C195 O187 1.260 . S
C195 O188 1.257 . S
Zn196 O199 2.031 . S
Zn196 O201 2.049 . S
Zn196 O206 2.067 . S
Zn197 O198 1.962 . S
Zn197 O200 1.986 . S
Zn197 O202 1.996 . S
Zn197 O205 1.943 . S
O198 Zn197 1.962 . S
O198 C203 1.254 . S
O199 Zn196 2.031 . S
O199 C203 1.269 . S
O200 Zn197 1.986 . S
O200 C207 1.262 . S
O201 Zn196 2.049 . S
O201 C209 1.260 . S
O202 Zn197 1.996 . S
O202 C209 1.257 . S
C203 O198 1.254 . S
C203 O199 1.269 . S
C204 O205 1.249 . S
C204 O206 1.270 . S
O205 Zn197 1.943 . S
O205 C204 1.249 . S
O206 Zn196 2.067 . S
O206 C204 1.270 . S
C207 O200 1.262 . S
C207 O208 1.232 . S
O208 C207 1.232 . S
C209 O201 1.260 . S
C209 O202 1.257 . S
Zn210 O213 2.031 . S
Zn210 O215 2.049 . S
Zn210 O220 2.067 . S
Zn211 O212 1.962 . S
Zn211 O214 1.986 . S
Zn211 O216 1.996 . S
Zn211 O219 1.943 . S
O212 Zn211 1.962 . S
O212 C217 1.254 . S
O213 Zn210 2.031 . S
O213 C217 1.269 . S
O214 Zn211 1.986 . S
O214 C221 1.262 . S
O215 Zn210 2.049 . S
O215 C223 1.260 . S
O216 Zn211 1.996 . S
O216 C223 1.257 . S
C217 O212 1.254 . S
C217 O213 1.269 . S
C218 O219 1.249 . S
C218 O220 1.270 . S
O219 Zn211 1.943 . S
O219 C218 1.249 . S
O220 Zn210 2.067 . S
O220 C218 1.270 . S
C221 O214 1.262 . S
C221 O222 1.232 . S
O222 C221 1.232 . S
C223 O215 1.260 . S
C223 O216 1.257 . S
Zn224 O227 2.031 . S
Zn224 O229 2.049 . S
Zn224 O234 2.067 . S
Zn225 O226 1.962 . S
Zn225 O228 1.986 . S
Zn225 O230 1.996 . S
Zn225 O233 1.943 . S
O226 Zn225 1.962 . S
O226 C231 1.254 . S
O227 Zn224 2.031 . S
O227 C231 1.269 . S
O228 Zn225 1.986 . S
O228 C235 1.262 . S
O229 Zn224 2.049 . S
O229 C237 1.260 . S
O230 Zn225 1.996 . S
O230 C237 1.257 . S
C231 O226 1.254 . S
C231 O227 1.269 . S
C232 O233 1.249 . S
C232 O234 1.270 . S
O233 Zn225 1.943 . S
O233 C232 1.249 . S
O234 Zn224 2.067 . S
O234 C232 1.270 . S
C235 O228 1.262 . S
C235 O236 1.232 . S
O236 C235 1.232 . S
C237 O229 1.260 . S
C237 O230 1.257 . S
Zn238 O241 2.031 . S
Zn238 O243 2.049 . S
Zn238 O248 2.067 . S
Zn239 O240 1.962 . S
Zn239 O242 1.986 . S
Zn239 O244 1.996 . S
Zn239 O247 1.943 . S
O240 Zn239 1.962 . S
O240 C245 1.254 . S
O241 Zn238 2.031 . S
O241 C245 1.269 . S
O242 Zn239 1.986 . S
O242 C249 1.262 . S
O243 Zn238 2.049 . S
O243 C251 1.260 . S
O244 Zn239 1.996 . S
O244 C251 1.257 . S
C245 O240 1.254 . S
C245 O241 1.269 . S
C246 O247 1.249 . S
C246 O248 1.270 . S
O247 Zn239 1.943 . S
O247 C246 1.249 . S
O248 Zn238 2.067 . S
O248 C246 1.270 . S
C249 O242 1.262 . S
C249 O250 1.232 . S
O250 C249 1.232 . S
C251 O243 1.260 . S
C251 O244 1.257 . S
Zn252 O255 2.031 . S
Zn252 O257 2.049 . S
Zn252 O262 2.067 . S
Zn253 O254 1.962 . S
Zn253 O256 1.986 . S
Zn253 O258 1.996 . S
Zn253 O261 1.943 . S
O254 Zn253 1.962 . S
O254 C259 1.254 . S
O255 Zn252 2.031 . S
O255 C259 1.269 . S
O256 Zn253 1.986 . S
O256 C263 1.262 . S
O257 Zn252 2.049 . S
O257 C265 1.260 . S
O258 Zn253 1.996 . S
O258 C265 1.257 . S
C259 O254 1.254 . S
C259 O255 1.269 . S
C260 O261 1.249 . S
C260 O262 1.270 . S
O261 Zn253 1.943 . S
O261 C260 1.249 . S
O262 Zn252 2.067 . S
O262 C260 1.270 . S
C263 O256 1.262 . S
C263 O264 1.232 . S
O264 C263 1.232 . S
C265 O257 1.260 . S
C265 O258 1.257 . S
Zn266 O269 2.031 . S
Zn266 O271 2.049 . S
Zn266 O276 2.067 . S
Zn267 O268 1.962 . S
Zn267 O270 1.986 . S
Zn267 O272 1.996 . S
Zn267 O275 1.943 . S
O268 Zn267 1.962 . S
O268 C273 1.254 . S
O269 Zn266 2.031 . S
O269 C273 1.269 . S
O270 Zn267 1.986 . S
O270 C277 1.262 . S
O271 Zn266 2.049 . S
O271 C279 1.260 . S
O272 Zn267 1.996 . S
O272 C279 1.257 . S
C273 O268 1.254 . S
C273 O269 1.269 . S
C274 O275 1.249 . S
C274 O276 1.270 . S
O275 Zn267 1.943 . S
O275 C274 1.249 . S
O276 Zn266 2.067 . S
O276 C274 1.270 . S
C277 O270 1.262 . S
C277 O278 1.232 . S
O278 C277 1.232 . S
C279 O271 1.260 . S
C279 O272 1.257 . S
Zn280 O283 2.031 . S
Zn280 O285 2.049 . S
Zn280 O290 2.067 . S
Zn281 O282 1.962 . S
Zn281 O284 1.986 . S
Zn281 O286 1.996 . S
Zn281 O289 1.943 . S
O282 Zn281 1.962 . S
O282 C287 1.254 . S
O283 Zn280 2.031 . S
O283 C287 1.269 . S
O284 Zn281 1.986 . S
O284 C291 1.262 . S
O285 Zn280 2.049 . S
O285 C293 1.260 . S
O286 Zn281 1.996 . S
O286 C293 1.257 . S
C287 O282 1.254 . S
C287 O283 1.269 . S
C288 O289 1.249 . S
C288 O290 1.270 . S
O289 Zn281 1.943 . S
O289 C288 1.249 . S
O290 Zn280 2.067 . S
O290 C288 1.270 . S
C291 O284 1.262 . S
C291 O292 1.232 . S
O292 C291 1.232 . S
C293 O285 1.260 . S
C293 O286 1.257 . S
Zn294 O297 2.031 . S
Zn294 O299 2.049 . S
Zn294 O304 2.067 . S
Zn295 O296 1.962 . S
Zn295 O298 1.986 . S
Zn295 O300 1.996 . S
Zn295 O303 1.943 . S
O296 Zn295 1.962 . S
O296 C301 1.254 . S
O297 Zn294 2.031 . S
O297 C301 1.269 . S
O298 Zn295 1.986 . S
O298 C305 1.262 . S
O299 Zn294 2.049 . S
O299 C307 1.260 . S
O300 Zn295 1.996 . S
O300 C307 1.257 . S
C301 O296 1.254 . S
C301 O297 1.269 . S
C302 O303 1.249 . S
C302 O304 1.270 . S
O303 Zn295 1.943 . S
O303 C302 1.249 . S
O304 Zn294 2.067 . S
O304 C302 1.270 . S
C305 O298 1.262 . S
C305 O306 1.232 . S
O306 C305 1.232 . S
C307 O299 1.260 . S
C307 O300 1.257 . S
Zn308 O311 2.031 . S
Zn308 O313 2.049 . S
Zn308 O318 2.067 . S
Zn309 O310 1.962 . S
Zn309 O312 1.986 . S
Zn309 O314 1.996 . S
Zn309 O317 1.943 . S
O310 Zn309 1.962 . S
O310 C315 1.254 . S
O311 Zn308 2.031 . S
O311 C315 1.269 . S
O312 Zn309 1.986 . S
O312 C319 1.262 . S
O313 Zn308 2.049 . S
O313 C321 1.260 . S
O314 Zn309 1.996 . S
O314 C321 1.257 . S
C315 O310 1.254 . S
C315 O311 1.269 . S
C316 O317 1.249 . S
C316 O318 1.270 . S
O317 Zn309 1.943 . S
O317 C316 1.249 . S
O318 Zn308 2.067 . S
O318 C316 1.270 . S
C319 O312 1.262 . S
C319 O320 1.232 . S
O320 C319 1.232 . S
C321 O313 1.260 . S
C321 O314 1.257 . S
Zn322 O325 2.031 . S
Zn322 O327 2.049 . S
Zn322 O332 2.067 . S
Zn323 O324 1.962 . S
Zn323 O326 1.986 . S
Zn323 O328 1.996 . S
Zn323 O331 1.943 . S
O324 Zn323 1.962 . S
O324 C329 1.254 . S
O325 Zn322 2.031 . S
O325 C329 1.269 . S
O326 Zn323 1.986 . S
O326 C333 1.262 . S
O327 Zn322 2.049 . S
O327 C335 1.260 . S
O328 Zn323 1.996 . S
O328 C335 1.257 . S
C329 O324 1.254 . S
C329 O325 1.269 . S
C330 O331 1.249 . S
C330 O332 1.270 . S
O331 Zn323 1.943 . S
O331 C330 1.249 . S
O332 Zn322 2.067 . S
O332 C330 1.270 . S
C333 O326 1.262 . S
C333 O334 1.232 . S
O334 C333 1.232 . S
C335 O327 1.260 . S
C335 O328 1.257 . S
Zn336 O339 2.031 . S
Zn336 O341 2.049 . S
Zn336 O346 2.067 . S
Zn337 O338 1.962 . S
Zn337 O340 1.986 . S
Zn337 O342 1.996 . S
Zn337 O345 1.943 . S
O338 Zn337 1.962 . S
O338 C343 1.254 . S
O339 Zn336 2.031 . S
O339 C343 1.269 . S
O340 Zn337 1.986 . S
O340 C347 1.262 . S
O341 Zn336 2.049 . S
O341 C349 1.260 . S
O342 Zn337 1.996 . S
O342 C349 1.257 . S
C343 O338 1.254 . S
C343 O339 1.269 . S
C344 O345 1.249 . S
C344 O346 1.270 . S
O345 Zn337 1.943 . S
O345 C344 1.249 . S
O346 Zn336 2.067 . S
O346 C344 1.270 . S
C347 O340 1.262 . S
C347 O348 1.232 . S
O348 C347 1.232 . S
C349 O341 1.260 . S
C349 O342 1.257 . S
Zn350 O353 2.031 . S
Zn350 O355 2.049 . S
Zn350 O360 2.067 . S
Zn351 O352 1.962 . S
Zn351 O354 1.986 . S
Zn351 O356 1.996 . S
Zn351 O359 1.943 . S
O352 Zn351 1.962 . S
O352 C357 1.254 . S
O353 Zn350 2.031 . S
O353 C357 1.269 . S
O354 Zn351 1.986 . S
O354 C361 1.262 . S
O355 Zn350 2.049 . S
O355 C363 1.260 . S
O356 Zn351 1.996 . S
O356 C363 1.257 . S
C357 O352 1.254 . S
C357 O353 1.269 . S
C358 O359 1.249 . S
C358 O360 1.270 . S
O359 Zn351 1.943 . S
O359 C358 1.249 . S
O360 Zn350 2.067 . S
O360 C358 1.270 . S
C361 O354 1.262 . S
C361 O362 1.232 . S
O362 C361 1.232 . S
C363 O355 1.260 . S
C363 O356 1.257 . S
Zn364 O367 2.031 . S
Zn364 O369 2.049 . S
Zn364 O374 2.067 . S
Zn365 O366 1.962 . S
Zn365 O368 1.986 . S
Zn365 O370 1.996 . S
Zn365 O373 1.943 . S
O366 Zn365 1.962 . S
O366 C371 1.254 . S
O367 Zn364 2.031 . S
O367 C371 1.269 . S
O368 Zn365 1.986 . S
O368 C375 1.262 . S
O369 Zn364 2.049 . S
O369 C377 1.260 . S
O370 Zn365 1.996 . S
O370 C377 1.257 . S
C371 O366 1.254 . S
C371 O367 1.269 . S
C372 O373 1.249 . S
C372 O374 1.270 . S
O373 Zn365 1.943 . S
O373 C372 1.249 . S
O374 Zn364 2.067 . S
O374 C372 1.270 . S
C375 O368 1.262 . S
C375 O376 1.232 . S
O376 C375 1.232 . S
C377 O369 1.260 . S
C377 O370 1.257 . S
Zn378 O381 2.031 . S
Zn378 O383 2.049 . S
Zn378 O388 2.067 . S
Zn379 O380 1.962 . S
Zn379 O382 1.986 . S
Zn379 O384 1.996 . S
Zn379 O387 1.943 . S
O380 Zn379 1.962 . S
O380 C385 1.254 . S
O381 Zn378 2.031 . S
O381 C385 1.269 . S
O382 Zn379 1.986 . S
O382 C389 1.262 . S
O383 Zn378 2.049 . S
O383 C391 1.260 . S
O384 Zn379 1.996 . S
O384 C391 1.257 . S
C385 O380 1.254 . S
C385 O381 1.269 . S
C386 O387 1.249 . S
C386 O388 1.270 . S
O387 Zn379 1.943 . S
O387 C386 1.249 . S
O388 Zn378 2.067 . S
O388 C386 1.270 . S
C389 O382 1.262 . S
C389 O390 1.232 . S
O390 C389 1.232 . S
C391 O383 1.260 . S
C391 O384 1.257 . S
Zn392 O395 2.031 . S
Zn392 O397 2.049 . S
Zn392 O402 2.067 . S
Zn393 O394 1.962 . S
Zn393 O396 1.986 . S
Zn393 O398 1.996 . S
Zn393 O401 1.943 . S
O394 Zn393 1.962 . S
O394 C399 1.254 . S
O395 Zn392 2.031 . S
O395 C399 1.269 . S
O396 Zn393 1.986 . S
O396 C403 1.262 . S
O397 Zn392 2.049 . S
O397 C405 1.260 . S
O398 Zn393 1.996 . S
O398 C405 1.257 . S
C399 O394 1.254 . S
C399 O395 1.269 . S
C400 O401 1.249 . S
C400 O402 1.270 . S
O401 Zn393 1.943 . S
O401 C400 1.249 . S
O402 Zn392 2.067 . S
O402 C400 1.270 . S
C403 O396 1.262 . S
C403 O404 1.232 . S
O404 C403 1.232 . S
C405 O397 1.260 . S
C405 O398 1.257 . S
Zn406 O409 2.031 . S
Zn406 O411 2.049 . S
Zn406 O416 2.067 . S
Zn407 O408 1.962 . S
Zn407 O410 1.986 . S
Zn407 O412 1.996 . S
Zn407 O415 1.943 . S
O408 Zn407 1.962 . S
O408 C413 1.254 . S
O409 Zn406 2.031 . S
O409 C413 1.269 . S
O410 Zn407 1.986 . S
O410 C417 1.262 . S
O411 Zn406 2.049 . S
O411 C419 1.260 . S
O412 Zn407 1.996 . S
O412 C419 1.257 . S
C413 O408 1.254 . S
C413 O409 1.269 . S
C414 O415 1.249 . S
C414 O416 1.270 . S
O415 Zn407 1.943 . S
O415 C414 1.249 . S
O416 Zn406 2.067 . S
O416 C414 1.270 . S
C417 O410 1.262 . S
C417 O418 1.232 . S
O418 C417 1.232 . S
C419 O411 1.260 . S
C419 O412 1.257 . S
Zn420 O423 2.031 . S
Zn420 O425 2.049 . S
Zn420 O430 2.067 . S
Zn421 O422 1.962 . S
Zn421 O424 1.986 . S
Zn421 O426 1.996 . S
Zn421 O429 1.943 . S
O422 Zn421 1.962 . S
O422 C427 1.254 . S
O423 Zn420 2.031 . S
O423 C427 1.269 . S
O424 Zn421 1.986 . S
O424 C431 1.262 . S
O425 Zn420 2.049 . S
O425 C433 1.260 . S
O426 Zn421 1.996 . S
O426 C433 1.257 . S
C427 O422 1.254 . S
C427 O423 1.269 . S
C428 O429 1.249 . S
C428 O430 1.270 . S
O429 Zn421 1.943 . S
O429 C428 1.249 . S
O430 Zn420 2.067 . S
O430 C428 1.270 . S
C431 O424 1.262 . S
C431 O432 1.232 . S
O432 C431 1.232 . S
C433 O425 1.260 . S
C433 O426 1.257 . S
Zn434 O437 2.031 . S
Zn434 O439 2.049 . S
Zn434 O444 2.067 . S
Zn435 O436 1.962 . S
Zn435 O438 1.986 . S
Zn435 O440 1.996 . S
Zn435 O443 1.943 . S
O436 Zn435 1.962 . S
O436 C441 1.254 . S
O437 Zn434 2.031 . S
O437 C441 1.269 . S
O438 Zn435 1.986 . S
O438 C445 1.262 . S
O439 Zn434 2.049 . S
O439 C447 1.260 . S
O440 Zn435 1.996 . S
O440 C447 1.257 . S
C441 O436 1.254 . S
C441 O437 1.269 . S
C442 O443 1.249 . S
C442 O444 1.270 . S
O443 Zn435 1.943 . S
O443 C442 1.249 . S
O444 Zn434 2.067 . S
O444 C442 1.270 . S
C445 O438 1.262 . S
C445 O446 1.232 . S
O446 C445 1.232 . S
C447 O439 1.260 . S
C447 O440 1.257 . S
H448 C466 0.951 . S
H449 C468 0.951 . S
H450 C470 0.950 . S
H451 C471 0.950 . S
H452 C473 0.950 . S
H453 C476 0.950 . S
H454 C477 0.950 . S
H455 C479 0.950 . S
H456 C480 0.950 . S
H457 C481 0.951 . S
H458 C483 0.951 . S
H459 C485 0.950 . S
H460 C486 0.950 . S
H461 C488 0.950 . S
H462 C491 0.950 . S
H463 C492 0.950 . S
H464 C494 0.950 . S
H465 C495 0.950 . S
C466 H448 0.951 . S
C466 C467 1.366 . S
C466 C468 1.388 . S
C467 C466 1.366 . S
C467 C471 1.385 . S
C468 H449 0.951 . S
C468 C466 1.388 . S
C468 C469 1.366 . S
C469 C468 1.366 . S
C469 C470 1.414 . S
C469 C472 1.499 . S
C470 H450 0.950 . S
C470 C469 1.414 . S
C470 C471 1.374 . S
C471 H451 0.950 . S
C471 C467 1.385 . S
C471 C470 1.374 . S
C472 C469 1.499 . S
C472 C473 1.373 . S
C472 C474 1.389 . S
C473 H452 0.950 . S
C473 C472 1.373 . S
C473 C489 1.377 . S
C474 C472 1.389 . S
C474 C475 1.524 . S
C474 C488 1.377 . S
C475 C474 1.524 . S
C475 C476 1.397 . S
C475 C480 1.363 . S
C476 H453 0.950 . S
C476 C475 1.397 . S
C476 C477 1.334 . S
C477 H454 0.950 . S
C477 C476 1.334 . S
C477 C478 1.287 . S
C478 C477 1.287 . S
C478 C479 1.524 . S
C478 H497 0.913 . S
C479 H455 0.950 . S
C479 C478 1.524 . S
C479 C480 1.415 . S
C480 H456 0.950 . S
C480 C475 1.363 . S
C480 C479 1.415 . S
C481 H457 0.951 . S
C481 C482 1.366 . S
C481 C483 1.388 . S
C482 C481 1.366 . S
C482 C486 1.385 . S
C483 H458 0.951 . S
C483 C481 1.388 . S
C483 C484 1.366 . S
C484 C483 1.366 . S
C484 C485 1.414 . S
C484 C487 1.499 . S
C485 H459 0.950 . S
C485 C484 1.414 . S
C485 C486 1.374 . S
C486 H460 0.950 . S
C486 C482 1.385 . S
C486 C485 1.374 . S
C487 C484 1.499 . S
C487 C488 1.373 . S
C487 C489 1.389 . S
C488 H461 0.950 . S
C488 C474 1.377 . S
C488 C487 1.373 . S
C489 C473 1.377 . S
C489 C487 1.389 . S
C489 C490 1.524 . S
C490 C489 1.524 . S
C490 C491 1.397 . S
C490 C495 1.363 . S
C491 H462 0.950 . S
C491 C490 1.397 . S
C491 C492 1.334 . S
C492 H463 0.950 . S
C492 C491 1.334 . S
C492 C493 1.287 . S
C493 C492 1.287 . S
C493 C494 1.524 . S
C493 H496 0.999 . S
C494 H464 0.950 . S
C494 C493 1.524 . S
C494 C495 1.415 . S
C495 H465 0.950 . S
C495 C490 1.363 . S
C495 C494 1.415 . S
H496 C493 0.999 . S
H497 C478 0.913 . S
H498 C516 0.951 . S
H499 C518 0.951 . S
H500 C520 0.950 . S
H501 C521 0.950 . S
H502 C523 0.950 . S
H503 C526 0.950 . S
H504 C527 0.950 . S
H505 C529 0.950 . S
H506 C530 0.950 . S
H507 C531 0.951 . S
H508 C533 0.951 . S
H509 C535 0.950 . S
H510 C536 0.950 . S
H511 C538 0.950 . S
H512 C541 0.950 . S
H513 C542 0.950 . S
H514 C544 0.950 . S
H515 C545 0.950 . S
C516 H498 0.951 . S
C516 C517 1.366 . S
C516 C518 1.388 . S
C517 C516 1.366 . S
C517 C521 1.385 . S
C518 H499 0.951 . S
C518 C516 1.388 . S
C518 C519 1.366 . S
C519 C518 1.366 . S
C519 C520 1.414 . S
C519 C522 1.499 . S
C520 H500 0.950 . S
C520 C519 1.414 . S
C520 C521 1.374 . S
C521 H501 0.950 . S
C521 C517 1.385 . S
C521 C520 1.374 . S
C522 C519 1.499 . S
C522 C523 1.373 . S
C522 C524 1.389 . S
C523 H502 0.950 . S
C523 C522 1.373 . S
C523 C539 1.377 . S
C524 C522 1.389 . S
C524 C525 1.524 . S
C524 C538 1.377 . S
C525 C524 1.524 . S
C525 C526 1.397 . S
C525 C530 1.363 . S
C526 H503 0.950 . S
C526 C525 1.397 . S
C526 C527 1.334 . S
C527 H504 0.950 . S
C527 C526 1.334 . S
C527 C528 1.287 . S
C528 C527 1.287 . S
C528 C529 1.524 . S
C528 H547 0.913 . S
C529 H505 0.950 . S
C529 C528 1.524 . S
C529 C530 1.415 . S
C530 H506 0.950 . S
C530 C525 1.363 . S
C530 C529 1.415 . S
C531 H507 0.951 . S
C531 C532 1.366 . S
C531 C533 1.388 . S
C532 C531 1.366 . S
C532 C536 1.385 . S
C533 H508 0.951 . S
C533 C531 1.388 . S
C533 C534 1.366 . S
C534 C533 1.366 . S
C534 C535 1.414 . S
C534 C537 1.499 . S
C535 H509 0.950 . S
C535 C534 1.414 . S
C535 C536 1.374 . S
C536 H510 0.950 . S
C536 C532 1.385 . S
C536 C535 1.374 . S
C537 C534 1.499 . S
C537 C538 1.373 . S
C537 C539 1.389 . S
C538 H511 0.950 . S
C538 C524 1.377 . S
C538 C537 1.373 . S
C539 C523 1.377 . S
C539 C537 1.389 . S
C539 C540 1.524 . S
C540 C539 1.524 . S
C540 C541 1.397 . S
C540 C545 1.363 . S
C541 H512 0.950 . S
C541 C540 1.397 . S
C541 C542 1.334 . S
C542 H513 0.950 . S
C542 C541 1.334 . S
C542 C543 1.287 . S
C543 C542 1.287 . S
C543 C544 1.524 . S
C543 H546 0.999 . S
C544 H514 0.950 . S
C544 C543 1.524 . S
C544 C545 1.415 . S
C545 H515 0.950 . S
C545 C540 1.363 . S
C545 C544 1.415 . S
H546 C543 0.999 . S
H547 C528 0.913 . S
H548 C566 0.951 . S
H549 C568 0.951 . S
H550 C570 0.950 . S
H551 C571 0.950 . S
H552 C573 0.950 . S
H553 C576 0.950 . S
H554 C577 0.950 . S
H555 C579 0.950 . S
H556 C580 0.950 . S
H557 C581 0.951 . S
H558 C583 0.951 . S
H559 C585 0.950 . S
H560 C586 0.950 . S
H561 C588 0.950 . S
H562 C591 0.950 . S
H563 C592 0.950 . S
H564 C594 0.950 . S
H565 C595 0.950 . S
C566 H548 0.951 . S
C566 C567 1.366 . S
C566 C568 1.388 . S
C567 C566 1.366 . S
C567 C571 1.385 . S
C568 H549 0.951 . S
C568 C566 1.388 . S
C568 C569 1.366 . S
C569 C568 1.366 . S
C569 C570 1.414 . S
C569 C572 1.499 . S
C570 H550 0.950 . S
C570 C569 1.414 . S
C570 C571 1.374 . S
C571 H551 0.950 . S
C571 C567 1.385 . S
C571 C570 1.374 . S
C572 C569 1.499 . S
C572 C573 1.373 . S
C572 C574 1.389 . S
C573 H552 0.950 . S
C573 C572 1.373 . S
C573 C589 1.377 . S
C574 C572 1.389 . S
C574 C575 1.524 . S
C574 C588 1.377 . S
C575 C574 1.524 . S
C575 C576 1.397 . S
C575 C580 1.363 . S
C576 H553 0.950 . S
C576 C575 1.397 . S
C576 C577 1.334 . S
C577 H554 0.950 . S
C577 C576 1.334 . S
C577 C578 1.287 . S
C578 C577 1.287 . S
C578 C579 1.524 . S
C578 H597 0.913 . S
C579 H555 0.950 . S
C579 C578 1.524 . S
C579 C580 1.415 . S
C580 H556 0.950 . S
C580 C575 1.363 . S
C580 C579 1.415 . S
C581 H557 0.951 . S
C581 C582 1.366 . S
C581 C583 1.388 . S
C582 C581 1.366 . S
C582 C586 1.385 . S
C583 H558 0.951 . S
C583 C581 1.388 . S
C583 C584 1.366 . S
C584 C583 1.366 . S
C584 C585 1.414 . S
C584 C587 1.499 . S
C585 H559 0.950 . S
C585 C584 1.414 . S
C585 C586 1.374 . S
C586 H560 0.950 . S
C586 C582 1.385 . S
C586 C585 1.374 . S
C587 C584 1.499 . S
C587 C588 1.373 . S
C587 C589 1.389 . S
C588 H561 0.950 . S
C588 C574 1.377 . S
C588 C587 1.373 . S
C589 C573 1.377 . S
C589 C587 1.389 . S
C589 C590 1.524 . S
C590 C589 1.524 . S
C590 C591 1.397 . S
C590 C595 1.363 . S
C591 H562 0.950 . S
C591 C590 1.397 . S
C591 C592 1.334 . S
C592 H563 0.950 . S
C592 C591 1.334 . S
C592 C593 1.287 . S
C593 C592 1.287 . S
C593 C594 1.524 . S
C593 H596 0.999 . S
C594 H564 0.950 . S
C594 C593 1.524 . S
C594 C595 1.415 . S
C595 H565 0.950 . S
C595 C590 1.363 . S
C595 C594 1.415 . S
H596 C593 0.999 . S
H597 C578 0.913 . S
H598 C616 0.951 . S
H599 C618 0.951 . S
H600 C620 0.950 . S
H601 C621 0.950 . S
H602 C623 0.950 . S
H603 C626 0.950 . S
H604 C627 0.950 . S
H605 C629 0.950 . S
H606 C630 0.950 . S
H607 C631 0.951 . S
H608 C633 0.951 . S
H609 C635 0.950 . S
H610 C636 0.950 . S
H611 C638 0.950 . S
H612 C641 0.950 . S
H613 C642 0.950 . S
H614 C644 0.950 . S
H615 C645 0.950 . S
C616 H598 0.951 . S
C616 C617 1.366 . S
C616 C618 1.388 . S
C617 C616 1.366 . S
C617 C621 1.385 . S
C618 H599 0.951 . S
C618 C616 1.388 . S
C618 C619 1.366 . S
C619 C618 1.366 . S
C619 C620 1.414 . S
C619 C622 1.499 . S
C620 H600 0.950 . S
C620 C619 1.414 . S
C620 C621 1.374 . S
C621 H601 0.950 . S
C621 C617 1.385 . S
C621 C620 1.374 . S
C622 C619 1.499 . S
C622 C623 1.373 . S
C622 C624 1.389 . S
C623 H602 0.950 . S
C623 C622 1.373 . S
C623 C639 1.377 . S
C624 C622 1.389 . S
C624 C625 1.524 . S
C624 C638 1.377 . S
C625 C624 1.524 . S
C625 C626 1.397 . S
C625 C630 1.363 . S
C626 H603 0.950 . S
C626 C625 1.397 . S
C626 C627 1.334 . S
C627 H604 0.950 . S
C627 C626 1.334 . S
C627 C628 1.287 . S
C628 C627 1.287 . S
C628 C629 1.524 . S
C628 H647 0.913 . S
C629 H605 0.950 . S
C629 C628 1.524 . S
C629 C630 1.415 . S
C630 H606 0.950 . S
C630 C625 1.363 . S
C630 C629 1.415 . S
C631 H607 0.951 . S
C631 C632 1.366 . S
C631 C633 1.388 . S
C632 C631 1.366 . S
C632 C636 1.385 . S
C633 H608 0.951 . S
C633 C631 1.388 . S
C633 C634 1.366 . S
C634 C633 1.366 . S
C634 C635 1.414 . S
C634 C637 1.499 . S
C635 H609 0.950 . S
C635 C634 1.414 . S
C635 C636 1.374 . S
C636 H610 0.950 . S
C636 C632 1.385 . S
C636 C635 1.374 . S
C637 C634 1.499 . S
C637 C638 1.373 . S
C637 C639 1.389 . S
C638 H611 0.950 . S
C638 C624 1.377 . S
C638 C637 1.373 . S
C639 C623 1.377 . S
C639 C637 1.389 . S
C639 C640 1.524 . S
C640 C639 1.524 . S
C640 C641 1.397 . S
C640 C645 1.363 . S
C641 H612 0.950 . S
C641 C640 1.397 . S
C641 C642 1.334 . S
C642 H613 0.950 . S
C642 C641 1.334 . S
C642 C643 1.287 . S
C643 C642 1.287 . S
C643 C644 1.524 . S
C643 H646 0.999 . S
C644 H614 0.950 . S
C644 C643 1.524 . S
C644 C645 1.415 . S
C645 H615 0.950 . S
C645 C640 1.363 . S
C645 C644 1.415 . S
H646 C643 0.999 . S
H647 C628 0.913 . S
H648 C666 0.951 . S
H649 C668 0.951 . S
H650 C670 0.950 . S
H651 C671 0.950 . S
H652 C673 0.950 . S
H653 C676 0.950 . S
H654 C677 0.950 . S
H655 C679 0.950 . S
H656 C680 0.950 . S
H657 C681 0.951 . S
H658 C683 0.951 . S
H659 C685 0.950 . S
H660 C686 0.950 . S
H661 C688 0.950 . S
H662 C691 0.950 . S
H663 C692 0.950 . S
H664 C694 0.950 . S
H665 C695 0.950 . S
C666 H648 0.951 . S
C666 C667 1.366 . S
C666 C668 1.388 . S
C667 C666 1.366 . S
C667 C671 1.385 . S
C668 H649 0.951 . S
C668 C666 1.388 . S
C668 C669 1.366 . S
C669 C668 1.366 . S
C669 C670 1.414 . S
C669 C672 1.499 . S
C670 H650 0.950 . S
C670 C669 1.414 . S
C670 C671 1.374 . S
C671 H651 0.950 . S
C671 C667 1.385 . S
C671 C670 1.374 . S
C672 C669 1.499 . S
C672 C673 1.373 . S
C672 C674 1.389 . S
C673 H652 0.950 . S
C673 C672 1.373 . S
C673 C689 1.377 . S
C674 C672 1.389 . S
C674 C675 1.524 . S
C674 C688 1.377 . S
C675 C674 1.524 . S
C675 C676 1.397 . S
C675 C680 1.363 . S
C676 H653 0.950 . S
C676 C675 1.397 . S
C676 C677 1.334 . S
C677 H654 0.950 . S
C677 C676 1.334 . S
C677 C678 1.287 . S
C678 C677 1.287 . S
C678 C679 1.524 . S
C678 H697 0.913 . S
C679 H655 0.950 . S
C679 C678 1.524 . S
C679 C680 1.415 . S
C680 H656 0.950 . S
C680 C675 1.363 . S
C680 C679 1.415 . S
C681 H657 0.951 . S
C681 C682 1.366 . S
C681 C683 1.388 . S
C682 C681 1.366 . S
C682 C686 1.385 . S
C683 H658 0.951 . S
C683 C681 1.388 . S
C683 C684 1.366 . S
C684 C683 1.366 . S
C684 C685 1.414 . S
C684 C687 1.499 . S
C685 H659 0.950 . S
C685 C684 1.414 . S
C685 C686 1.374 . S
C686 H660 0.950 . S
C686 C682 1.385 . S
C686 C685 1.374 . S
C687 C684 1.499 . S
C687 C688 1.373 . S
C687 C689 1.389 . S
C688 H661 0.950 . S
C688 C674 1.377 . S
C688 C687 1.373 . S
C689 C673 1.377 . S
C689 C687 1.389 . S
C689 C690 1.524 . S
C690 C689 1.524 . S
C690 C691 1.397 . S
C690 C695 1.363 . S
C691 H662 0.950 . S
C691 C690 1.397 . S
C691 C692 1.334 . S
C692 H663 0.950 . S
C692 C691 1.334 . S
C692 C693 1.287 . S
C693 C692 1.287 . S
C693 C694 1.524 . S
C693 H696 0.999 . S
C694 H664 0.950 . S
C694 C693 1.524 . S
C694 C695 1.415 . S
C695 H665 0.950 . S
C695 C690 1.363 . S
C695 C694 1.415 . S
H696 C693 0.999 . S
H697 C678 0.913 . S
H698 C716 0.951 . S
H699 C718 0.951 . S
H700 C720 0.950 . S
H701 C721 0.950 . S
H702 C723 0.950 . S
H703 C726 0.950 . S
H704 C727 0.950 . S
H705 C729 0.950 . S
H706 C730 0.950 . S
H707 C731 0.951 . S
H708 C733 0.951 . S
H709 C735 0.950 . S
H710 C736 0.950 . S
H711 C738 0.950 . S
H712 C741 0.950 . S
H713 C742 0.950 . S
H714 C744 0.950 . S
H715 C745 0.950 . S
C716 H698 0.951 . S
C716 C717 1.366 . S
C716 C718 1.388 . S
C717 C716 1.366 . S
C717 C721 1.385 . S
C718 H699 0.951 . S
C718 C716 1.388 . S
C718 C719 1.366 . S
C719 C718 1.366 . S
C719 C720 1.414 . S
C719 C722 1.499 . S
C720 H700 0.950 . S
C720 C719 1.414 . S
C720 C721 1.374 . S
C721 H701 0.950 . S
C721 C717 1.385 . S
C721 C720 1.374 . S
C722 C719 1.499 . S
C722 C723 1.373 . S
C722 C724 1.389 . S
C723 H702 0.950 . S
C723 C722 1.373 . S
C723 C739 1.377 . S
C724 C722 1.389 . S
C724 C725 1.524 . S
C724 C738 1.377 . S
C725 C724 1.524 . S
C725 C726 1.397 . S
C725 C730 1.363 . S
C726 H703 0.950 . S
C726 C725 1.397 . S
C726 C727 1.334 . S
C727 H704 0.950 . S
C727 C726 1.334 . S
C727 C728 1.287 . S
C728 C727 1.287 . S
C728 C729 1.524 . S
C728 H747 0.913 . S
C729 H705 0.950 . S
C729 C728 1.524 . S
C729 C730 1.415 . S
C730 H706 0.950 . S
C730 C725 1.363 . S
C730 C729 1.415 . S
C731 H707 0.951 . S
C731 C732 1.366 . S
C731 C733 1.388 . S
C732 C731 1.366 . S
C732 C736 1.385 . S
C733 H708 0.951 . S
C733 C731 1.388 . S
C733 C734 1.366 . S
C734 C733 1.366 . S
C734 C735 1.414 . S
C734 C737 1.499 . S
C735 H709 0.950 . S
C735 C734 1.414 . S
C735 C736 1.374 . S
C736 H710 0.950 . S
C736 C732 1.385 . S
C736 C735 1.374 . S
C737 C734 1.499 . S
C737 C738 1.373 . S
C737 C739 1.389 . S
C738 H711 0.950 . S
C738 C724 1.377 . S
C738 C737 1.373 . S
C739 C723 1.377 . S
C739 C737 1.389 . S
C739 C740 1.524 . S
C740 C739 1.524 . S
C740 C741 1.397 . S
C740 C745 1.363 . S
C741 H712 0.950 . S
C741 C740 1.397 . S
C741 C742 1.334 . S
C742 H713 0.950 . S
C742 C741 1.334 . S
C742 C743 1.287 . S
C743 C742 1.287 . S
C743 C744 1.524 . S
C743 H746 0.999 . S
C744 H714 0.950 . S
C744 C743 1.524 . S
C744 C745 1.415 . S
C745 H715 0.950 . S
C745 C740 1.363 . S
C745 C744 1.415 . S
H746 C743 0.999 . S
H747 C728 0.913 . S
H748 C766 0.951 . S
H749 C768 0.951 . S
H750 C770 0.950 . S
H751 C771 0.950 . S
H752 C773 0.950 . S
H753 C776 0.950 . S
H754 C777 0.950 . S
H755 C779 0.950 . S
H756 C780 0.950 . S
H757 C781 0.951 . S
H758 C783 0.951 . S
H759 C785 0.950 . S
H760 C786 0.950 . S
H761 C788 0.950 . S
H762 C791 0.950 . S
H763 C792 0.950 . S
H764 C794 0.950 . S
H765 C795 0.950 . S
C766 H748 0.951 . S
C766 C767 1.366 . S
C766 C768 1.388 . S
C767 C766 1.366 . S
C767 C771 1.385 . S
C768 H749 0.951 . S
C768 C766 1.388 . S
C768 C769 1.366 . S
C769 C768 1.366 . S
C769 C770 1.414 . S
C769 C772 1.499 . S
C770 H750 0.950 . S
C770 C769 1.414 . S
C770 C771 1.374 . S
C771 H751 0.950 . S
C771 C767 1.385 . S
C771 C770 1.374 . S
C772 C769 1.499 . S
C772 C773 1.373 . S
C772 C774 1.389 . S
C773 H752 0.950 . S
C773 C772 1.373 . S
C773 C789 1.377 . S
C774 C772 1.389 . S
C774 C775 1.524 . S
C774 C788 1.377 . S
C775 C774 1.524 . S
C775 C776 1.397 . S
C775 C780 1.363 . S
C776 H753 0.950 . S
C776 C775 1.397 . S
C776 C777 1.334 . S
C777 H754 0.950 . S
C777 C776 1.334 . S
C777 C778 1.287 . S
C778 C777 1.287 . S
C778 C779 1.524 . S
C778 H797 0.913 . S
C779 H755 0.950 . S
C779 C778 1.524 . S
C779 C780 1.415 . S
C780 H756 0.950 . S
C780 C775 1.363 . S
C780 C779 1.415 . S
C781 H757 0.951 . S
C781 C782 1.366 . S
C781 C783 1.388 . S
C782 C781 1.366 . S
C782 C786 1.385 . S
C783 H758 0.951 . S
C783 C781 1.388 . S
C783 C784 1.366 . S
C784 C783 1.366 . S
C784 C785 1.414 . S
C784 C787 1.499 . S
C785 H759 0.950 . S
C785 C784 1.414 . S
C785 C786 1.374 . S
C786 H760 0.950 . S
C786 C782 1.385 . S
C786 C785 1.374 . S
C787 C784 1.499 . S
C787 C788 1.373 . S
C787 C789 1.389 . S
C788 H761 0.950 . S
C788 C774 1.377 . S
C788 C787 1.373 . S
C789 C773 1.377 . S
C789 C787 1.389 . S
C789 C790 1.524 . S
C790 C789 1.524 . S
C790 C791 1.397 . S
C790 C795 1.363 . S
C791 H762 0.950 . S
C791 C790 1.397 . S
C791 C792 1.334 . S
C792 H763 0.950 . S
C792 C791 1.334 . S
C792 C793 1.287 . S
C793 C792 1.287 . S
C793 C794 1.524 . S
C793 H796 0.999 . S
C794 H764 0.950 . S
C794 C793 1.524 . S
C794 C795 1.415 . S
C795 H765 0.950 . S
C795 C790 1.363 . S
C795 C794 1.415 . S
H796 C793 0.999 . S
H797 C778 0.913 . S
H798 C816 0.951 . S
H799 C818 0.951 . S
H800 C820 0.950 . S
H801 C821 0.950 . S
H802 C823 0.950 . S
H803 C826 0.950 . S
H804 C827 0.950 . S
H805 C829 0.950 . S
H806 C830 0.950 . S
H807 C831 0.951 . S
H808 C833 0.951 . S
H809 C835 0.950 . S
H810 C836 0.950 . S
H811 C838 0.950 . S
H812 C841 0.950 . S
H813 C842 0.950 . S
H814 C844 0.950 . S
H815 C845 0.950 . S
C816 H798 0.951 . S
C816 C817 1.366 . S
C816 C818 1.388 . S
C817 C816 1.366 . S
C817 C821 1.385 . S
C818 H799 0.951 . S
C818 C816 1.388 . S
C818 C819 1.366 . S
C819 C818 1.366 . S
C819 C820 1.414 . S
C819 C822 1.499 . S
C820 H800 0.950 . S
C820 C819 1.414 . S
C820 C821 1.374 . S
C821 H801 0.950 . S
C821 C817 1.385 . S
C821 C820 1.374 . S
C822 C819 1.499 . S
C822 C823 1.373 . S
C822 C824 1.389 . S
C823 H802 0.950 . S
C823 C822 1.373 . S
C823 C839 1.377 . S
C824 C822 1.389 . S
C824 C825 1.524 . S
C824 C838 1.377 . S
C825 C824 1.524 . S
C825 C826 1.397 . S
C825 C830 1.363 . S
C826 H803 0.950 . S
C826 C825 1.397 . S
C826 C827 1.334 . S
C827 H804 0.950 . S
C827 C826 1.334 . S
C827 C828 1.287 . S
C828 C827 1.287 . S
C828 C829 1.524 . S
C828 H847 0.913 . S
C829 H805 0.950 . S
C829 C828 1.524 . S
C829 C830 1.415 . S
C830 H806 0.950 . S
C830 C825 1.363 . S
C830 C829 1.415 . S
C831 H807 0.951 . S
C831 C832 1.366 . S
C831 C833 1.388 . S
C832 C831 1.366 . S
C832 C836 1.385 . S
C833 H808 0.951 . S
C833 C831 1.388 . S
C833 C834 1.366 . S
C834 C833 1.366 . S
C834 C835 1.414 . S
C834 C837 1.499 . S
C835 H809 0.950 . S
C835 C834 1.414 . S
C835 C836 1.374 . S
C836 H810 0.950 . S
C836 C832 1.385 . S
C836 C835 1.374 . S
C837 C834 1.499 . S
C837 C838 1.373 . S
C837 C839 1.389 . S
C838 H811 0.950 . S
C838 C824 1.377 . S
C838 C837 1.373 . S
C839 C823 1.377 . S
C839 C837 1.389 . S
C839 C840 1.524 . S
C840 C839 1.524 . S
C840 C841 1.397 . S
C840 C845 1.363 . S
C841 H812 0.950 . S
C841 C840 1.397 . S
C841 C842 1.334 . S
C842 H813 0.950 . S
C842 C841 1.334 . S
C842 C843 1.287 . S
C843 C842 1.287 . S
C843 C844 1.524 . S
C843 H846 0.999 . S
C844 H814 0.950 . S
C844 C843 1.524 . S
C844 C845 1.415 . S
C845 H815 0.950 . S
C845 C840 1.363 . S
C845 C844 1.415 . S
H846 C843 0.999 . S
H847 C828 0.913 . S
H848 C866 0.951 . S
H849 C868 0.951 . S
H850 C870 0.950 . S
H851 C871 0.950 . S
H852 C873 0.950 . S
H853 C876 0.950 . S
H854 C877 0.950 . S
H855 C879 0.950 . S
H856 C880 0.950 . S
H857 C881 0.951 . S
H858 C883 0.951 . S
H859 C885 0.950 . S
H860 C886 0.950 . S
H861 C888 0.950 . S
H862 C891 0.950 . S
H863 C892 0.950 . S
H864 C894 0.950 . S
H865 C895 0.950 . S
C866 H848 0.951 . S
C866 C867 1.366 . S
C866 C868 1.388 . S
C867 C866 1.366 . S
C867 C871 1.385 . S
C868 H849 0.951 . S
C868 C866 1.388 . S
C868 C869 1.366 . S
C869 C868 1.366 . S
C869 C870 1.414 . S
C869 C872 1.499 . S
C870 H850 0.950 . S
C870 C869 1.414 . S
C870 C871 1.374 . S
C871 H851 0.950 . S
C871 C867 1.385 . S
C871 C870 1.374 . S
C872 C869 1.499 . S
C872 C873 1.373 . S
C872 C874 1.389 . S
C873 H852 0.950 . S
C873 C872 1.373 . S
C873 C889 1.377 . S
C874 C872 1.389 . S
C874 C875 1.524 . S
C874 C888 1.377 . S
C875 C874 1.524 . S
C875 C876 1.397 . S
C875 C880 1.363 . S
C876 H853 0.950 . S
C876 C875 1.397 . S
C876 C877 1.334 . S
C877 H854 0.950 . S
C877 C876 1.334 . S
C877 C878 1.287 . S
C878 C877 1.287 . S
C878 C879 1.524 . S
C878 H897 0.913 . S
C879 H855 0.950 . S
C879 C878 1.524 . S
C879 C880 1.415 . S
C880 H856 0.950 . S
C880 C875 1.363 . S
C880 C879 1.415 . S
C881 H857 0.951 . S
C881 C882 1.366 . S
C881 C883 1.388 . S
C882 C881 1.366 . S
C882 C886 1.385 . S
C883 H858 0.951 . S
C883 C881 1.388 . S
C883 C884 1.366 . S
C884 C883 1.366 . S
C884 C885 1.414 . S
C884 C887 1.499 . S
C885 H859 0.950 . S
C885 C884 1.414 . S
C885 C886 1.374 . S
C886 H860 0.950 . S
C886 C882 1.385 . S
C886 C885 1.374 . S
C887 C884 1.499 . S
C887 C888 1.373 . S
C887 C889 1.389 . S
C888 H861 0.950 . S
C888 C874 1.377 . S
C888 C887 1.373 . S
C889 C873 1.377 . S
C889 C887 1.389 . S
C889 C890 1.524 . S
C890 C889 1.524 . S
C890 C891 1.397 . S
C890 C895 1.363 . S
C891 H862 0.950 . S
C891 C890 1.397 . S
C891 C892 1.334 . S
C892 H863 0.950 . S
C892 C891 1.334 . S
C892 C893 1.287 . S
C893 C892 1.287 . S
C893 C894 1.524 . S
C893 H896 0.999 . S
C894 H864 0.950 . S
C894 C893 1.524 . S
C894 C895 1.415 . S
C895 H865 0.950 . S
C895 C890 1.363 . S
C895 C894 1.415 . S
H896 C893 0.999 . S
H897 C878 0.913 . S
H898 C916 0.951 . S
H899 C918 0.951 . S
H900 C920 0.950 . S
H901 C921 0.950 . S
H902 C923 0.950 . S
H903 C926 0.950 . S
H904 C927 0.950 . S
H905 C929 0.950 . S
H906 C930 0.950 . S
H907 C931 0.951 . S
H908 C933 0.951 . S
H909 C935 0.950 . S
H910 C936 0.950 . S
H911 C938 0.950 . S
H912 C941 0.950 . S
H913 C942 0.950 . S
H914 C944 0.950 . S
H915 C945 0.950 . S
C916 H898 0.951 . S
C916 C917 1.366 . S
C916 C918 1.388 . S
C917 C916 1.366 . S
C917 C921 1.385 . S
C918 H899 0.951 . S
C918 C916 1.388 . S
C918 C919 1.366 . S
C919 C918 1.366 . S
C919 C920 1.414 . S
C919 C922 1.499 . S
C920 H900 0.950 . S
C920 C919 1.414 . S
C920 C921 1.374 . S
C921 H901 0.950 . S
C921 C917 1.385 . S
C921 C920 1.374 . S
C922 C919 1.499 . S
C922 C923 1.373 . S
C922 C924 1.389 . S
C923 H902 0.950 . S
C923 C922 1.373 . S
C923 C939 1.377 . S
C924 C922 1.389 . S
C924 C925 1.524 . S
C924 C938 1.377 . S
C925 C924 1.524 . S
C925 C926 1.397 . S
C925 C930 1.363 . S
C926 H903 0.950 . S
C926 C925 1.397 . S
C926 C927 1.334 . S
C927 H904 0.950 . S
C927 C926 1.334 . S
C927 C928 1.287 . S
C928 C927 1.287 . S
C928 C929 1.524 . S
C928 H947 0.913 . S
C929 H905 0.950 . S
C929 C928 1.524 . S
C929 C930 1.415 . S
C930 H906 0.950 . S
C930 C925 1.363 . S
C930 C929 1.415 . S
C931 H907 0.951 . S
C931 C932 1.366 . S
C931 C933 1.388 . S
C932 C931 1.366 . S
C932 C936 1.385 . S
C933 H908 0.951 . S
C933 C931 1.388 . S
C933 C934 1.366 . S
C934 C933 1.366 . S
C934 C935 1.414 . S
C934 C937 1.499 . S
C935 H909 0.950 . S
C935 C934 1.414 . S
C935 C936 1.374 . S
C936 H910 0.950 . S
C936 C932 1.385 . S
C936 C935 1.374 . S
C937 C934 1.499 . S
C937 C938 1.373 . S
C937 C939 1.389 . S
C938 H911 0.950 . S
C938 C924 1.377 . S
C938 C937 1.373 . S
C939 C923 1.377 . S
C939 C937 1.389 . S
C939 C940 1.524 . S
C940 C939 1.524 . S
C940 C941 1.397 . S
C940 C945 1.363 . S
C941 H912 0.950 . S
C941 C940 1.397 . S
C941 C942 1.334 . S
C942 H913 0.950 . S
C942 C941 1.334 . S
C942 C943 1.287 . S
C943 C942 1.287 . S
C943 C944 1.524 . S
C943 H946 0.999 . S
C944 H914 0.950 . S
C944 C943 1.524 . S
C944 C945 1.415 . S
C945 H915 0.950 . S
C945 C940 1.363 . S
C945 C944 1.415 . S
H946 C943 0.999 . S
H947 C928 0.913 . S
H948 C966 0.951 . S
H949 C968 0.951 . S
H950 C970 0.950 . S
H951 C971 0.950 . S
H952 C973 0.950 . S
H953 C976 0.950 . S
H954 C977 0.950 . S
H955 C979 0.950 . S
H956 C980 0.950 . S
H957 C981 0.951 . S
H958 C983 0.951 . S
H959 C985 0.950 . S
H960 C986 0.950 . S
H961 C988 0.950 . S
H962 C991 0.950 . S
H963 C992 0.950 . S
H964 C994 0.950 . S
H965 C995 0.950 . S
C966 H948 0.951 . S
C966 C967 1.366 . S
C966 C968 1.388 . S
C967 C966 1.366 . S
C967 C971 1.385 . S
C968 H949 0.951 . S
C968 C966 1.388 . S
C968 C969 1.366 . S
C969 C968 1.366 . S
C969 C970 1.414 . S
C969 C972 1.499 . S
C970 H950 0.950 . S
C970 C969 1.414 . S
C970 C971 1.374 . S
C971 H951 0.950 . S
C971 C967 1.385 . S
C971 C970 1.374 . S
C972 C969 1.499 . S
C972 C973 1.373 . S
C972 C974 1.389 . S
C973 H952 0.950 . S
C973 C972 1.373 . S
C973 C989 1.377 . S
C974 C972 1.389 . S
C974 C975 1.524 . S
C974 C988 1.377 . S
C975 C974 1.524 . S
C975 C976 1.397 . S
C975 C980 1.363 . S
C976 H953 0.950 . S
C976 C975 1.397 . S
C976 C977 1.334 . S
C977 H954 0.950 . S
C977 C976 1.334 . S
C977 C978 1.287 . S
C978 C977 1.287 . S
C978 C979 1.524 . S
C978 H997 0.913 . S
C979 H955 0.950 . S
C979 C978 1.524 . S
C979 C980 1.415 . S
C980 H956 0.950 . S
C980 C975 1.363 . S
C980 C979 1.415 . S
C981 H957 0.951 . S
C981 C982 1.366 . S
C981 C983 1.388 . S
C982 C981 1.366 . S
C982 C986 1.385 . S
C983 H958 0.951 . S
C983 C981 1.388 . S
C983 C984 1.366 . S
C984 C983 1.366 . S
C984 C985 1.414 . S
C984 C987 1.499 . S
C985 H959 0.950 . S
C985 C984 1.414 . S
C985 C986 1.374 . S
C986 H960 0.950 . S
C986 C982 1.385 . S
C986 C985 1.374 . S
C987 C984 1.499 . S
C987 C988 1.373 . S
C987 C989 1.389 . S
C988 H961 0.950 . S
C988 C974 1.377 . S
C988 C987 1.373 . S
C989 C973 1.377 . S
C989 C987 1.389 . S
C989 C990 1.524 . S
C990 C989 1.524 . S
C990 C991 1.397 . S
C990 C995 1.363 . S
C991 H962 0.950 . S
C991 C990 1.397 . S
C991 C992 1.334 . S
C992 H963 0.950 . S
C992 C991 1.334 . S
C992 C993 1.287 . S
C993 C992 1.287 . S
C993 C994 1.524 . S
C993 H996 0.999 . S
C994 H964 0.950 . S
C994 C993 1.524 . S
C994 C995 1.415 . S
C995 H965 0.950 . S
C995 C990 1.363 . S
C995 C994 1.415 . S
H996 C993 0.999 . S
H997 C978 0.913 . S
H998 C1016 0.951 . S
H999 C1018 0.951 . S
H1000 C1020 0.950 . S
H1001 C1021 0.950 . S
H1002 C1023 0.950 . S
H1003 C1026 0.950 . S
H1004 C1027 0.950 . S
H1005 C1029 0.950 . S
H1006 C1030 0.950 . S
H1007 C1031 0.951 . S
H1008 C1033 0.951 . S
H1009 C1035 0.950 . S
H1010 C1036 0.950 . S
H1011 C1038 0.950 . S
H1012 C1041 0.950 . S
H1013 C1042 0.950 . S
H1014 C1044 0.950 . S
H1015 C1045 0.950 . S
C1016 H998 0.951 . S
C1016 C1017 1.366 . S
C1016 C1018 1.388 . S
C1017 C1016 1.366 . S
C1017 C1021 1.385 . S
C1018 H999 0.951 . S
C1018 C1016 1.388 . S
C1018 C1019 1.366 . S
C1019 C1018 1.366 . S
C1019 C1020 1.414 . S
C1019 C1022 1.499 . S
C1020 H1000 0.950 . S
C1020 C1019 1.414 . S
C1020 C1021 1.374 . S
C1021 H1001 0.950 . S
C1021 C1017 1.385 . S
C1021 C1020 1.374 . S
C1022 C1019 1.499 . S
C1022 C1023 1.373 . S
C1022 C1024 1.389 . S
C1023 H1002 0.950 . S
C1023 C1022 1.373 . S
C1023 C1039 1.377 . S
C1024 C1022 1.389 . S
C1024 C1025 1.524 . S
C1024 C1038 1.377 . S
C1025 C1024 1.524 . S
C1025 C1026 1.397 . S
C1025 C1030 1.363 . S
C1026 H1003 0.950 . S
C1026 C1025 1.397 . S
C1026 C1027 1.334 . S
C1027 H1004 0.950 . S
C1027 C1026 1.334 . S
C1027 C1028 1.287 . S
C1028 C1027 1.287 . S
C1028 C1029 1.524 . S
C1028 H1047 0.913 . S
C1029 H1005 0.950 . S
C1029 C1028 1.524 . S
C1029 C1030 1.415 . S
C1030 H1006 0.950 . S
C1030 C1025 1.363 . S
C1030 C1029 1.415 . S
C1031 H1007 0.951 . S
C1031 C1032 1.366 . S
C1031 C1033 1.388 . S
C1032 C1031 1.366 . S
C1032 C1036 1.385 . S
C1033 H1008 0.951 . S
C1033 C1031 1.388 . S
C1033 C1034 1.366 . S
C1034 C1033 1.366 . S
C1034 C1035 1.414 . S
C1034 C1037 1.499 . S
C1035 H1009 0.950 . S
C1035 C1034 1.414 . S
C1035 C1036 1.374 . S
C1036 H1010 0.950 . S
C1036 C1032 1.385 . S
C1036 C1035 1.374 . S
C1037 C1034 1.499 . S
C1037 C1038 1.373 . S
C1037 C1039 1.389 . S
C1038 H1011 0.950 . S
C1038 C1024 1.377 . S
C1038 C1037 1.373 . S
C1039 C1023 1.377 . S
C1039 C1037 1.389 . S
C1039 C1040 1.524 . S
C1040 C1039 1.524 . S
C1040 C1041 1.397 . S
C1040 C1045 1.363 . S
C1041 H1012 0.950 . S
C1041 C1040 1.397 . S
C1041 C1042 1.334 . S
C1042 H1013 0.950 . S
C1042 C1041 1.334 . S
C1042 C1043 1.287 . S
C1043 C1042 1.287 . S
C1043 C1044 1.524 . S
C1043 H1046 0.999 . S
C1044 H1014 0.950 . S
C1044 C1043 1.524 . S
C1044 C1045 1.415 . S
C1045 H1015 0.950 . S
C1045 C1040 1.363 . S
C1045 C1044 1.415 . S
H1046 C1043 0.999 . S
H1047 C1028 0.913 . S
H1048 C1066 0.951 . S
H1049 C1068 0.951 . S
H1050 C1070 0.950 . S
H1051 C1071 0.950 . S
H1052 C1073 0.950 . S
H1053 C1076 0.950 . S
H1054 C1077 0.950 . S
H1055 C1079 0.950 . S
H1056 C1080 0.950 . S
H1057 C1081 0.951 . S
H1058 C1083 0.951 . S
H1059 C1085 0.950 . S
H1060 C1086 0.950 . S
H1061 C1088 0.950 . S
H1062 C1091 0.950 . S
H1063 C1092 0.950 . S
H1064 C1094 0.950 . S
H1065 C1095 0.950 . S
C1066 H1048 0.951 . S
C1066 C1067 1.366 . S
C1066 C1068 1.388 . S
C1067 C1066 1.366 . S
C1067 C1071 1.385 . S
C1068 H1049 0.951 . S
C1068 C1066 1.388 . S
C1068 C1069 1.366 . S
C1069 C1068 1.366 . S
C1069 C1070 1.414 . S
C1069 C1072 1.499 . S
C1070 H1050 0.950 . S
C1070 C1069 1.414 . S
C1070 C1071 1.374 . S
C1071 H1051 0.950 . S
C1071 C1067 1.385 . S
C1071 C1070 1.374 . S
C1072 C1069 1.499 . S
C1072 C1073 1.373 . S
C1072 C1074 1.389 . S
C1073 H1052 0.950 . S
C1073 C1072 1.373 . S
C1073 C1089 1.377 . S
C1074 C1072 1.389 . S
C1074 C1075 1.524 . S
C1074 C1088 1.377 . S
C1075 C1074 1.524 . S
C1075 C1076 1.397 . S
C1075 C1080 1.363 . S
C1076 H1053 0.950 . S
C1076 C1075 1.397 . S
C1076 C1077 1.334 . S
C1077 H1054 0.950 . S
C1077 C1076 1.334 . S
C1077 C1078 1.287 . S
C1078 C1077 1.287 . S
C1078 C1079 1.524 . S
C1078 H1097 0.913 . S
C1079 H1055 0.950 . S
C1079 C1078 1.524 . S
C1079 C1080 1.415 . S
C1080 H1056 0.950 . S
C1080 C1075 1.363 . S
C1080 C1079 1.415 . S
C1081 H1057 0.951 . S
C1081 C1082 1.366 . S
C1081 C1083 1.388 . S
C1082 C1081 1.366 . S
C1082 C1086 1.385 . S
C1083 H1058 0.951 . S
C1083 C1081 1.388 . S
C1083 C1084 1.366 . S
C1084 C1083 1.366 . S
C1084 C1085 1.414 . S
C1084 C1087 1.499 . S
C1085 H1059 0.950 . S
C1085 C1084 1.414 . S
C1085 C1086 1.374 . S
C1086 H1060 0.950 . S
C1086 C1082 1.385 . S
C1086 C1085 1.374 . S
C1087 C1084 1.499 . S
C1087 C1088 1.373 . S
C1087 C1089 1.389 . S
C1088 H1061 0.950 . S
C1088 C1074 1.377 . S
C1088 C1087 1.373 . S
C1089 C1073 1.377 . S
C1089 C1087 1.389 . S
C1089 C1090 1.524 . S
C1090 C1089 1.524 . S
C1090 C1091 1.397 . S
C1090 C1095 1.363 . S
C1091 H1062 0.950 . S
C1091 C1090 1.397 . S
C1091 C1092 1.334 . S
C1092 H1063 0.950 . S
C1092 C1091 1.334 . S
C1092 C1093 1.287 . S
C1093 C1092 1.287 . S
C1093 C1094 1.524 . S
C1093 H1096 0.999 . S
C1094 H1064 0.950 . S
C1094 C1093 1.524 . S
C1094 C1095 1.415 . S
C1095 H1065 0.950 . S
C1095 C1090 1.363 . S
C1095 C1094 1.415 . S
H1096 C1093 0.999 . S
H1097 C1078 0.913 . S
H1098 C1116 0.951 . S
H1099 C1118 0.951 . S
H1100 C1120 0.950 . S
H1101 C1121 0.950 . S
H1102 C1123 0.950 . S
H1103 C1126 0.950 . S
H1104 C1127 0.950 . S
H1105 C1129 0.950 . S
H1106 C1130 0.950 . S
H1107 C1131 0.951 . S
H1108 C1133 0.951 . S
H1109 C1135 0.950 . S
H1110 C1136 0.950 . S
H1111 C1138 0.950 . S
H1112 C1141 0.950 . S
H1113 C1142 0.950 . S
H1114 C1144 0.950 . S
H1115 C1145 0.950 . S
C1116 H1098 0.951 . S
C1116 C1117 1.366 . S
C1116 C1118 1.388 . S
C1117 C1116 1.366 . S
C1117 C1121 1.385 . S
C1118 H1099 0.951 . S
C1118 C1116 1.388 . S
C1118 C1119 1.366 . S
C1119 C1118 1.366 . S
C1119 C1120 1.414 . S
C1119 C1122 1.499 . S
C1120 H1100 0.950 . S
C1120 C1119 1.414 . S
C1120 C1121 1.374 . S
C1121 H1101 0.950 . S
C1121 C1117 1.385 . S
C1121 C1120 1.374 . S
C1122 C1119 1.499 . S
C1122 C1123 1.373 . S
C1122 C1124 1.389 . S
C1123 H1102 0.950 . S
C1123 C1122 1.373 . S
C1123 C1139 1.377 . S
C1124 C1122 1.389 . S
C1124 C1125 1.524 . S
C1124 C1138 1.377 . S
C1125 C1124 1.524 . S
C1125 C1126 1.397 . S
C1125 C1130 1.363 . S
C1126 H1103 0.950 . S
C1126 C1125 1.397 . S
C1126 C1127 1.334 . S
C1127 H1104 0.950 . S
C1127 C1126 1.334 . S
C1127 C1128 1.287 . S
C1128 C1127 1.287 . S
C1128 C1129 1.524 . S
C1128 H1147 0.913 . S
C1129 H1105 0.950 . S
C1129 C1128 1.524 . S
C1129 C1130 1.415 . S
C1130 H1106 0.950 . S
C1130 C1125 1.363 . S
C1130 C1129 1.415 . S
C1131 H1107 0.951 . S
C1131 C1132 1.366 . S
C1131 C1133 1.388 . S
C1132 C1131 1.366 . S
C1132 C1136 1.385 . S
C1133 H1108 0.951 . S
C1133 C1131 1.388 . S
C1133 C1134 1.366 . S
C1134 C1133 1.366 . S
C1134 C1135 1.414 . S
C1134 C1137 1.499 . S
C1135 H1109 0.950 . S
C1135 C1134 1.414 . S
C1135 C1136 1.374 . S
C1136 H1110 0.950 . S
C1136 C1132 1.385 . S
C1136 C1135 1.374 . S
C1137 C1134 1.499 . S
C1137 C1138 1.373 . S
C1137 C1139 1.389 . S
C1138 H1111 0.950 . S
C1138 C1124 1.377 . S
C1138 C1137 1.373 . S
C1139 C1123 1.377 . S
C1139 C1137 1.389 . S
C1139 C1140 1.524 . S
C1140 C1139 1.524 . S
C1140 C1141 1.397 . S
C1140 C1145 1.363 . S
C1141 H1112 0.950 . S
C1141 C1140 1.397 . S
C1141 C1142 1.334 . S
C1142 H1113 0.950 . S
C1142 C1141 1.334 . S
C1142 C1143 1.287 . S
C1143 C1142 1.287 . S
C1143 C1144 1.524 . S
C1143 H1146 0.999 . S
C1144 H1114 0.950 . S
C1144 C1143 1.524 . S
C1144 C1145 1.415 . S
C1145 H1115 0.950 . S
C1145 C1140 1.363 . S
C1145 C1144 1.415 . S
H1146 C1143 0.999 . S
H1147 C1128 0.913 . S
H1148 C1166 0.951 . S
H1149 C1168 0.951 . S
H1150 C1170 0.950 . S
H1151 C1171 0.950 . S
H1152 C1173 0.950 . S
H1153 C1176 0.950 . S
H1154 C1177 0.950 . S
H1155 C1179 0.950 . S
H1156 C1180 0.950 . S
H1157 C1181 0.951 . S
H1158 C1183 0.951 . S
H1159 C1185 0.950 . S
H1160 C1186 0.950 . S
H1161 C1188 0.950 . S
H1162 C1191 0.950 . S
H1163 C1192 0.950 . S
H1164 C1194 0.950 . S
H1165 C1195 0.950 . S
C1166 H1148 0.951 . S
C1166 C1167 1.366 . S
C1166 C1168 1.388 . S
C1167 C1166 1.366 . S
C1167 C1171 1.385 . S
C1168 H1149 0.951 . S
C1168 C1166 1.388 . S
C1168 C1169 1.366 . S
C1169 C1168 1.366 . S
C1169 C1170 1.414 . S
C1169 C1172 1.499 . S
C1170 H1150 0.950 . S
C1170 C1169 1.414 . S
C1170 C1171 1.374 . S
C1171 H1151 0.950 . S
C1171 C1167 1.385 . S
C1171 C1170 1.374 . S
C1172 C1169 1.499 . S
C1172 C1173 1.373 . S
C1172 C1174 1.389 . S
C1173 H1152 0.950 . S
C1173 C1172 1.373 . S
C1173 C1189 1.377 . S
C1174 C1172 1.389 . S
C1174 C1175 1.524 . S
C1174 C1188 1.377 . S
C1175 C1174 1.524 . S
C1175 C1176 1.397 . S
C1175 C1180 1.363 . S
C1176 H1153 0.950 . S
C1176 C1175 1.397 . S
C1176 C1177 1.334 . S
C1177 H1154 0.950 . S
C1177 C1176 1.334 . S
C1177 C1178 1.287 . S
C1178 C1177 1.287 . S
C1178 C1179 1.524 . S
C1178 H1197 0.913 . S
C1179 H1155 0.950 . S
C1179 C1178 1.524 . S
C1179 C1180 1.415 . S
C1180 H1156 0.950 . S
C1180 C1175 1.363 . S
C1180 C1179 1.415 . S
C1181 H1157 0.951 . S
C1181 C1182 1.366 . S
C1181 C1183 1.388 . S
C1182 C1181 1.366 . S
C1182 C1186 1.385 . S
C1183 H1158 0.951 . S
C1183 C1181 1.388 . S
C1183 C1184 1.366 . S
C1184 C1183 1.366 . S
C1184 C1185 1.414 . S
C1184 C1187 1.499 . S
C1185 H1159 0.950 . S
C1185 C1184 1.414 . S
C1185 C1186 1.374 . S
C1186 H1160 0.950 . S
C1186 C1182 1.385 . S
C1186 C1185 1.374 . S
C1187 C1184 1.499 . S
C1187 C1188 1.373 . S
C1187 C1189 1.389 . S
C1188 H1161 0.950 . S
C1188 C1174 1.377 . S
C1188 C1187 1.373 . S
C1189 C1173 1.377 . S
C1189 C1187 1.389 . S
C1189 C1190 1.524 . S
C1190 C1189 1.524 . S
C1190 C1191 1.397 . S
C1190 C1195 1.363 . S
C1191 H1162 0.950 . S
C1191 C1190 1.397 . S
C1191 C1192 1.334 . S
C1192 H1163 0.950 . S
C1192 C1191 1.334 . S
C1192 C1193 1.287 . S
C1193 C1192 1.287 . S
C1193 C1194 1.524 . S
C1193 H1196 0.999 . S
C1194 H1164 0.950 . S
C1194 C1193 1.524 . S
C1194 C1195 1.415 . S
C1195 H1165 0.950 . S
C1195 C1190 1.363 . S
C1195 C1194 1.415 . S
H1196 C1193 0.999 . S
H1197 C1178 0.913 . S
H1198 C1216 0.951 . S
H1199 C1218 0.951 . S
H1200 C1220 0.950 . S
H1201 C1221 0.950 . S
H1202 C1223 0.950 . S
H1203 C1226 0.950 . S
H1204 C1227 0.950 . S
H1205 C1229 0.950 . S
H1206 C1230 0.950 . S
H1207 C1231 0.951 . S
H1208 C1233 0.951 . S
H1209 C1235 0.950 . S
H1210 C1236 0.950 . S
H1211 C1238 0.950 . S
H1212 C1241 0.950 . S
H1213 C1242 0.950 . S
H1214 C1244 0.950 . S
H1215 C1245 0.950 . S
C1216 H1198 0.951 . S
C1216 C1217 1.366 . S
C1216 C1218 1.388 . S
C1217 C1216 1.366 . S
C1217 C1221 1.385 . S
C1218 H1199 0.951 . S
C1218 C1216 1.388 . S
C1218 C1219 1.366 . S
C1219 C1218 1.366 . S
C1219 C1220 1.414 . S
C1219 C1222 1.499 . S
C1220 H1200 0.950 . S
C1220 C1219 1.414 . S
C1220 C1221 1.374 . S
C1221 H1201 0.950 . S
C1221 C1217 1.385 . S
C1221 C1220 1.374 . S
C1222 C1219 1.499 . S
C1222 C1223 1.373 . S
C1222 C1224 1.389 . S
C1223 H1202 0.950 . S
C1223 C1222 1.373 . S
C1223 C1239 1.377 . S
C1224 C1222 1.389 . S
C1224 C1225 1.524 . S
C1224 C1238 1.377 . S
C1225 C1224 1.524 . S
C1225 C1226 1.397 . S
C1225 C1230 1.363 . S
C1226 H1203 0.950 . S
C1226 C1225 1.397 . S
C1226 C1227 1.334 . S
C1227 H1204 0.950 . S
C1227 C1226 1.334 . S
C1227 C1228 1.287 . S
C1228 C1227 1.287 . S
C1228 C1229 1.524 . S
C1228 H1247 0.913 . S
C1229 H1205 0.950 . S
C1229 C1228 1.524 . S
C1229 C1230 1.415 . S
C1230 H1206 0.950 . S
C1230 C1225 1.363 . S
C1230 C1229 1.415 . S
C1231 H1207 0.951 . S
C1231 C1232 1.366 . S
C1231 C1233 1.388 . S
C1232 C1231 1.366 . S
C1232 C1236 1.385 . S
C1233 H1208 0.951 . S
C1233 C1231 1.388 . S
C1233 C1234 1.366 . S
C1234 C1233 1.366 . S
C1234 C1235 1.414 . S
C1234 C1237 1.499 . S
C1235 H1209 0.950 . S
C1235 C1234 1.414 . S
C1235 C1236 1.374 . S
C1236 H1210 0.950 . S
C1236 C1232 1.385 . S
C1236 C1235 1.374 . S
C1237 C1234 1.499 . S
C1237 C1238 1.373 . S
C1237 C1239 1.389 . S
C1238 H1211 0.950 . S
C1238 C1224 1.377 . S
C1238 C1237 1.373 . S
C1239 C1223 1.377 . S
C1239 C1237 1.389 . S
C1239 C1240 1.524 . S
C1240 C1239 1.524 . S
C1240 C1241 1.397 . S
C1240 C1245 1.363 . S
C1241 H1212 0.950 . S
C1241 C1240 1.397 . S
C1241 C1242 1.334 . S
C1242 H1213 0.950 . S
C1242 C1241 1.334 . S
C1242 C1243 1.287 . S
C1243 C1242 1.287 . S
C1243 C1244 1.524 . S
C1243 H1246 0.999 . S
C1244 H1214 0.950 . S
C1244 C1243 1.524 . S
C1244 C1245 1.415 . S
C1245 H1215 0.950 . S
C1245 C1240 1.363 . S
C1245 C1244 1.415 . S
H1246 C1243 0.999 . S
H1247 C1228 0.913 . S
H1248 C1266 0.951 . S
H1249 C1268 0.951 . S
H1250 C1270 0.950 . S
H1251 C1271 0.950 . S
H1252 C1273 0.950 . S
H1253 C1276 0.950 . S
H1254 C1277 0.950 . S
H1255 C1279 0.950 . S
H1256 C1280 0.950 . S
H1257 C1281 0.951 . S
H1258 C1283 0.951 . S
H1259 C1285 0.950 . S
H1260 C1286 0.950 . S
H1261 C1288 0.950 . S
H1262 C1291 0.950 . S
H1263 C1292 0.950 . S
H1264 C1294 0.950 . S
H1265 C1295 0.950 . S
C1266 H1248 0.951 . S
C1266 C1267 1.366 . S
C1266 C1268 1.388 . S
C1267 C1266 1.366 . S
C1267 C1271 1.385 . S
C1268 H1249 0.951 . S
C1268 C1266 1.388 . S
C1268 C1269 1.366 . S
C1269 C1268 1.366 . S
C1269 C1270 1.414 . S
C1269 C1272 1.499 . S
C1270 H1250 0.950 . S
C1270 C1269 1.414 . S
C1270 C1271 1.374 . S
C1271 H1251 0.950 . S
C1271 C1267 1.385 . S
C1271 C1270 1.374 . S
C1272 C1269 1.499 . S
C1272 C1273 1.373 . S
C1272 C1274 1.389 . S
C1273 H1252 0.950 . S
C1273 C1272 1.373 . S
C1273 C1289 1.377 1_554 S
C1274 C1272 1.389 . S
C1274 C1275 1.524 . S
C1274 C1288 1.377 1_554 S
C1275 C1274 1.524 . S
C1275 C1276 1.397 . S
C1275 C1280 1.363 . S
C1276 H1253 0.950 . S
C1276 C1275 1.397 . S
C1276 C1277 1.334 . S
C1277 H1254 0.950 . S
C1277 C1276 1.334 . S
C1277 C1278 1.287 . S
C1278 C1277 1.287 . S
C1278 C1279 1.524 . S
C1278 H1297 0.913 . S
C1279 H1255 0.950 . S
C1279 C1278 1.524 . S
C1279 C1280 1.415 . S
C1280 H1256 0.950 . S
C1280 C1275 1.363 . S
C1280 C1279 1.415 . S
C1281 H1257 0.951 . S
C1281 C1282 1.366 . S
C1281 C1283 1.388 . S
C1282 C1281 1.366 . S
C1282 C1286 1.385 . S
C1283 H1258 0.951 . S
C1283 C1281 1.388 . S
C1283 C1284 1.366 . S
C1284 C1283 1.366 . S
C1284 C1285 1.414 . S
C1284 C1287 1.499 . S
C1285 H1259 0.950 . S
C1285 C1284 1.414 . S
C1285 C1286 1.374 . S
C1286 H1260 0.950 . S
C1286 C1282 1.385 . S
C1286 C1285 1.374 . S
C1287 C1284 1.499 . S
C1287 C1288 1.373 . S
C1287 C1289 1.389 . S
C1288 H1261 0.950 . S
C1288 C1274 1.377 1_556 S
C1288 C1287 1.373 . S
C1289 C1273 1.377 1_556 S
C1289 C1287 1.389 . S
C1289 C1290 1.524 . S
C1290 C1289 1.524 . S
C1290 C1291 1.397 . S
C1290 C1295 1.363 . S
C1291 H1262 0.950 . S
C1291 C1290 1.397 . S
C1291 C1292 1.334 . S
C1292 H1263 0.950 . S
C1292 C1291 1.334 . S
C1292 C1293 1.287 . S
C1293 C1292 1.287 . S
C1293 C1294 1.524 . S
C1293 H1296 0.999 . S
C1294 H1264 0.950 . S
C1294 C1293 1.524 . S
C1294 C1295 1.415 . S
C1295 H1265 0.950 . S
C1295 C1290 1.363 . S
C1295 C1294 1.415 . S
H1296 C1293 0.999 . S
H1297 C1278 0.913 . S
H1298 C1316 0.951 . S
H1299 C1318 0.951 . S
H1300 C1320 0.950 . S
H1301 C1321 0.950 . S
H1302 C1323 0.950 . S
H1303 C1326 0.950 . S
H1304 C1327 0.950 . S
H1305 C1329 0.950 . S
H1306 C1330 0.950 . S
H1307 C1331 0.951 . S
H1308 C1333 0.951 . S
H1309 C1335 0.950 . S
H1310 C1336 0.950 . S
H1311 C1338 0.950 . S
H1312 C1341 0.950 . S
H1313 C1342 0.950 . S
H1314 C1344 0.950 . S
H1315 C1345 0.950 . S
C1316 H1298 0.951 . S
C1316 C1317 1.366 . S
C1316 C1318 1.388 . S
C1317 C1316 1.366 . S
C1317 C1321 1.385 . S
C1318 H1299 0.951 . S
C1318 C1316 1.388 . S
C1318 C1319 1.366 . S
C1319 C1318 1.366 . S
C1319 C1320 1.414 . S
C1319 C1322 1.499 . S
C1320 H1300 0.950 . S
C1320 C1319 1.414 . S
C1320 C1321 1.374 . S
C1321 H1301 0.950 . S
C1321 C1317 1.385 . S
C1321 C1320 1.374 . S
C1322 C1319 1.499 . S
C1322 C1323 1.373 . S
C1322 C1324 1.389 . S
C1323 H1302 0.950 . S
C1323 C1322 1.373 . S
C1323 C1339 1.377 1_556 S
C1324 C1322 1.389 . S
C1324 C1325 1.524 . S
C1324 C1338 1.377 1_556 S
C1325 C1324 1.524 . S
C1325 C1326 1.397 . S
C1325 C1330 1.363 . S
C1326 H1303 0.950 . S
C1326 C1325 1.397 . S
C1326 C1327 1.334 . S
C1327 H1304 0.950 . S
C1327 C1326 1.334 . S
C1327 C1328 1.287 . S
C1328 C1327 1.287 . S
C1328 C1329 1.524 . S
C1328 H1347 0.913 . S
C1329 H1305 0.950 . S
C1329 C1328 1.524 . S
C1329 C1330 1.415 . S
C1330 H1306 0.950 . S
C1330 C1325 1.363 . S
C1330 C1329 1.415 . S
C1331 H1307 0.951 . S
C1331 C1332 1.366 . S
C1331 C1333 1.388 . S
C1332 C1331 1.366 . S
C1332 C1336 1.385 . S
C1333 H1308 0.951 . S
C1333 C1331 1.388 . S
C1333 C1334 1.366 . S
C1334 C1333 1.366 . S
C1334 C1335 1.414 . S
C1334 C1337 1.499 . S
C1335 H1309 0.950 . S
C1335 C1334 1.414 . S
C1335 C1336 1.374 . S
C1336 H1310 0.950 . S
C1336 C1332 1.385 . S
C1336 C1335 1.374 . S
C1337 C1334 1.499 . S
C1337 C1338 1.373 . S
C1337 C1339 1.389 . S
C1338 H1311 0.950 . S
C1338 C1324 1.377 1_554 S
C1338 C1337 1.373 . S
C1339 C1323 1.377 1_554 S
C1339 C1337 1.389 . S
C1339 C1340 1.524 . S
C1340 C1339 1.524 . S
C1340 C1341 1.397 . S
C1340 C1345 1.363 . S
C1341 H1312 0.950 . S
C1341 C1340 1.397 . S
C1341 C1342 1.334 . S
C1342 H1313 0.950 . S
C1342 C1341 1.334 . S
C1342 C1343 1.287 . S
C1343 C1342 1.287 . S
C1343 C1344 1.524 . S
C1343 H1346 0.999 . S
C1344 H1314 0.950 . S
C1344 C1343 1.524 . S
C1344 C1345 1.415 . S
C1345 H1315 0.950 . S
C1345 C1340 1.363 . S
C1345 C1344 1.415 . S
H1346 C1343 0.999 . S
H1347 C1328 0.913 . S
H1348 C1366 0.951 . S
H1349 C1368 0.951 . S
H1350 C1370 0.950 . S
H1351 C1371 0.950 . S
H1352 C1373 0.950 . S
H1353 C1376 0.950 . S
H1354 C1377 0.950 . S
H1355 C1379 0.950 . S
H1356 C1380 0.950 . S
H1357 C1381 0.951 . S
H1358 C1383 0.951 . S
H1359 C1385 0.950 . S
H1360 C1386 0.950 . S
H1361 C1388 0.950 . S
H1362 C1391 0.950 . S
H1363 C1392 0.950 . S
H1364 C1394 0.950 . S
H1365 C1395 0.950 . S
C1366 H1348 0.951 . S
C1366 C1367 1.366 . S
C1366 C1368 1.388 . S
C1367 C1366 1.366 . S
C1367 C1371 1.385 . S
C1368 H1349 0.951 . S
C1368 C1366 1.388 . S
C1368 C1369 1.366 . S
C1369 C1368 1.366 . S
C1369 C1370 1.414 . S
C1369 C1372 1.499 . S
C1370 H1350 0.950 . S
C1370 C1369 1.414 . S
C1370 C1371 1.374 . S
C1371 H1351 0.950 . S
C1371 C1367 1.385 . S
C1371 C1370 1.374 . S
C1372 C1369 1.499 . S
C1372 C1373 1.373 . S
C1372 C1374 1.389 . S
C1373 H1352 0.950 . S
C1373 C1372 1.373 . S
C1373 C1389 1.377 1_556 S
C1374 C1372 1.389 . S
C1374 C1375 1.524 . S
C1374 C1388 1.377 1_556 S
C1375 C1374 1.524 . S
C1375 C1376 1.397 . S
C1375 C1380 1.363 . S
C1376 H1353 0.950 . S
C1376 C1375 1.397 . S
C1376 C1377 1.334 . S
C1377 H1354 0.950 . S
C1377 C1376 1.334 . S
C1377 C1378 1.287 . S
C1378 C1377 1.287 . S
C1378 C1379 1.524 . S
C1378 H1397 0.913 . S
C1379 H1355 0.950 . S
C1379 C1378 1.524 . S
C1379 C1380 1.415 . S
C1380 H1356 0.950 . S
C1380 C1375 1.363 . S
C1380 C1379 1.415 . S
C1381 H1357 0.951 . S
C1381 C1382 1.366 . S
C1381 C1383 1.388 . S
C1382 C1381 1.366 . S
C1382 C1386 1.385 . S
C1383 H1358 0.951 . S
C1383 C1381 1.388 . S
C1383 C1384 1.366 . S
C1384 C1383 1.366 . S
C1384 C1385 1.414 . S
C1384 C1387 1.499 . S
C1385 H1359 0.950 . S
C1385 C1384 1.414 . S
C1385 C1386 1.374 . S
C1386 H1360 0.950 . S
C1386 C1382 1.385 . S
C1386 C1385 1.374 . S
C1387 C1384 1.499 . S
C1387 C1388 1.373 . S
C1387 C1389 1.389 . S
C1388 H1361 0.950 . S
C1388 C1374 1.377 1_554 S
C1388 C1387 1.373 . S
C1389 C1373 1.377 1_554 S
C1389 C1387 1.389 . S
C1389 C1390 1.524 . S
C1390 C1389 1.524 . S
C1390 C1391 1.397 . S
C1390 C1395 1.363 . S
C1391 H1362 0.950 . S
C1391 C1390 1.397 . S
C1391 C1392 1.334 . S
C1392 H1363 0.950 . S
C1392 C1391 1.334 . S
C1392 C1393 1.287 . S
C1393 C1392 1.287 . S
C1393 C1394 1.524 . S
C1393 H1396 0.999 . S
C1394 H1364 0.950 . S
C1394 C1393 1.524 . S
C1394 C1395 1.415 . S
C1395 H1365 0.950 . S
C1395 C1390 1.363 . S
C1395 C1394 1.415 . S
H1396 C1393 0.999 . S
H1397 C1378 0.913 . S
H1398 C1416 0.951 . S
H1399 C1418 0.951 . S
H1400 C1420 0.950 . S
H1401 C1421 0.950 . S
H1402 C1423 0.950 . S
H1403 C1426 0.950 . S
H1404 C1427 0.950 . S
H1405 C1429 0.950 . S
H1406 C1430 0.950 . S
H1407 C1431 0.951 . S
H1408 C1433 0.951 . S
H1409 C1435 0.950 . S
H1410 C1436 0.950 . S
H1411 C1438 0.950 . S
H1412 C1441 0.950 . S
H1413 C1442 0.950 . S
H1414 C1444 0.950 . S
H1415 C1445 0.950 . S
C1416 H1398 0.951 . S
C1416 C1417 1.366 . S
C1416 C1418 1.388 . S
C1417 C1416 1.366 . S
C1417 C1421 1.385 . S
C1418 H1399 0.951 . S
C1418 C1416 1.388 . S
C1418 C1419 1.366 . S
C1419 C1418 1.366 . S
C1419 C1420 1.414 . S
C1419 C1422 1.499 . S
C1420 H1400 0.950 . S
C1420 C1419 1.414 . S
C1420 C1421 1.374 . S
C1421 H1401 0.950 . S
C1421 C1417 1.385 . S
C1421 C1420 1.374 . S
C1422 C1419 1.499 . S
C1422 C1423 1.373 . S
C1422 C1424 1.389 . S
C1423 H1402 0.950 . S
C1423 C1422 1.373 . S
C1423 C1439 1.377 1_556 S
C1424 C1422 1.389 . S
C1424 C1425 1.524 . S
C1424 C1438 1.377 1_556 S
C1425 C1424 1.524 . S
C1425 C1426 1.397 . S
C1425 C1430 1.363 . S
C1426 H1403 0.950 . S
C1426 C1425 1.397 . S
C1426 C1427 1.334 . S
C1427 H1404 0.950 . S
C1427 C1426 1.334 . S
C1427 C1428 1.287 . S
C1428 C1427 1.287 . S
C1428 C1429 1.524 . S
C1428 H1447 0.913 . S
C1429 H1405 0.950 . S
C1429 C1428 1.524 . S
C1429 C1430 1.415 . S
C1430 H1406 0.950 . S
C1430 C1425 1.363 . S
C1430 C1429 1.415 . S
C1431 H1407 0.951 . S
C1431 C1432 1.366 . S
C1431 C1433 1.388 . S
C1432 C1431 1.366 . S
C1432 C1436 1.385 . S
C1433 H1408 0.951 . S
C1433 C1431 1.388 . S
C1433 C1434 1.366 . S
C1434 C1433 1.366 . S
C1434 C1435 1.414 . S
C1434 C1437 1.499 . S
C1435 H1409 0.950 . S
C1435 C1434 1.414 . S
C1435 C1436 1.374 . S
C1436 H1410 0.950 . S
C1436 C1432 1.385 . S
C1436 C1435 1.374 . S
C1437 C1434 1.499 . S
C1437 C1438 1.373 . S
C1437 C1439 1.389 . S
C1438 H1411 0.950 . S
C1438 C1424 1.377 1_554 S
C1438 C1437 1.373 . S
C1439 C1423 1.377 1_554 S
C1439 C1437 1.389 . S
C1439 C1440 1.524 . S
C1440 C1439 1.524 . S
C1440 C1441 1.397 . S
C1440 C1445 1.363 . S
C1441 H1412 0.950 . S
C1441 C1440 1.397 . S
C1441 C1442 1.334 . S
C1442 H1413 0.950 . S
C1442 C1441 1.334 . S
C1442 C1443 1.287 . S
C1443 C1442 1.287 . S
C1443 C1444 1.524 . S
C1443 H1446 0.999 . S
C1444 H1414 0.950 . S
C1444 C1443 1.524 . S
C1444 C1445 1.415 . S
C1445 H1415 0.950 . S
C1445 C1440 1.363 . S
C1445 C1444 1.415 . S
H1446 C1443 0.999 . S
H1447 C1428 0.913 . S
H1448 C1466 0.951 . S
H1449 C1468 0.951 . S
H1450 C1470 0.950 . S
H1451 C1471 0.950 . S
H1452 C1473 0.950 . S
H1453 C1476 0.950 . S
H1454 C1477 0.950 . S
H1455 C1479 0.950 . S
H1456 C1480 0.950 . S
H1457 C1481 0.951 . S
H1458 C1483 0.951 . S
H1459 C1485 0.950 . S
H1460 C1486 0.950 . S
H1461 C1488 0.950 . S
H1462 C1491 0.950 . S
H1463 C1492 0.950 . S
H1464 C1494 0.950 . S
H1465 C1495 0.950 . S
C1466 H1448 0.951 . S
C1466 C1467 1.366 . S
C1466 C1468 1.388 . S
C1467 C1466 1.366 . S
C1467 C1471 1.385 . S
C1468 H1449 0.951 . S
C1468 C1466 1.388 . S
C1468 C1469 1.366 . S
C1469 C1468 1.366 . S
C1469 C1470 1.414 . S
C1469 C1472 1.499 . S
C1470 H1450 0.950 . S
C1470 C1469 1.414 . S
C1470 C1471 1.374 . S
C1471 H1451 0.950 . S
C1471 C1467 1.385 . S
C1471 C1470 1.374 . S
C1472 C1469 1.499 . S
C1472 C1473 1.373 . S
C1472 C1474 1.389 . S
C1473 H1452 0.950 . S
C1473 C1472 1.373 . S
C1473 C1489 1.377 . S
C1474 C1472 1.389 . S
C1474 C1475 1.524 . S
C1474 C1488 1.377 . S
C1475 C1474 1.524 . S
C1475 C1476 1.397 . S
C1475 C1480 1.363 . S
C1476 H1453 0.950 . S
C1476 C1475 1.397 . S
C1476 C1477 1.334 . S
C1477 H1454 0.950 . S
C1477 C1476 1.334 . S
C1477 C1478 1.287 . S
C1478 C1477 1.287 . S
C1478 C1479 1.524 . S
C1478 H1497 0.913 . S
C1479 H1455 0.950 . S
C1479 C1478 1.524 . S
C1479 C1480 1.415 . S
C1480 H1456 0.950 . S
C1480 C1475 1.363 . S
C1480 C1479 1.415 . S
C1481 H1457 0.951 . S
C1481 C1482 1.366 . S
C1481 C1483 1.388 . S
C1482 C1481 1.366 . S
C1482 C1486 1.385 . S
C1483 H1458 0.951 . S
C1483 C1481 1.388 . S
C1483 C1484 1.366 . S
C1484 C1483 1.366 . S
C1484 C1485 1.414 . S
C1484 C1487 1.499 . S
C1485 H1459 0.950 . S
C1485 C1484 1.414 . S
C1485 C1486 1.374 . S
C1486 H1460 0.950 . S
C1486 C1482 1.385 . S
C1486 C1485 1.374 . S
C1487 C1484 1.499 . S
C1487 C1488 1.373 . S
C1487 C1489 1.389 . S
C1488 H1461 0.950 . S
C1488 C1474 1.377 . S
C1488 C1487 1.373 . S
C1489 C1473 1.377 . S
C1489 C1487 1.389 . S
C1489 C1490 1.524 . S
C1490 C1489 1.524 . S
C1490 C1491 1.397 . S
C1490 C1495 1.363 . S
C1491 H1462 0.950 . S
C1491 C1490 1.397 . S
C1491 C1492 1.334 . S
C1492 H1463 0.950 . S
C1492 C1491 1.334 . S
C1492 C1493 1.287 . S
C1493 C1492 1.287 . S
C1493 C1494 1.524 . S
C1493 H1496 0.999 . S
C1494 H1464 0.950 . S
C1494 C1493 1.524 . S
C1494 C1495 1.415 . S
C1495 H1465 0.950 . S
C1495 C1490 1.363 . S
C1495 C1494 1.415 . S
H1496 C1493 0.999 . S
H1497 C1478 0.913 . S
H1498 C1516 0.951 . S
H1499 C1518 0.951 . S
H1500 C1520 0.950 . S
H1501 C1521 0.950 . S
H1502 C1523 0.950 . S
H1503 C1526 0.950 . S
H1504 C1527 0.950 . S
H1505 C1529 0.950 . S
H1506 C1530 0.950 . S
H1507 C1531 0.951 . S
H1508 C1533 0.951 . S
H1509 C1535 0.950 . S
H1510 C1536 0.950 . S
H1511 C1538 0.950 . S
H1512 C1541 0.950 . S
H1513 C1542 0.950 . S
H1514 C1544 0.950 . S
H1515 C1545 0.950 . S
C1516 H1498 0.951 . S
C1516 C1517 1.366 . S
C1516 C1518 1.388 . S
C1517 C1516 1.366 . S
C1517 C1521 1.385 . S
C1518 H1499 0.951 . S
C1518 C1516 1.388 . S
C1518 C1519 1.366 . S
C1519 C1518 1.366 . S
C1519 C1520 1.414 . S
C1519 C1522 1.499 . S
C1520 H1500 0.950 . S
C1520 C1519 1.414 . S
C1520 C1521 1.374 . S
C1521 H1501 0.950 . S
C1521 C1517 1.385 . S
C1521 C1520 1.374 . S
C1522 C1519 1.499 . S
C1522 C1523 1.373 . S
C1522 C1524 1.389 . S
C1523 H1502 0.950 . S
C1523 C1522 1.373 . S
C1523 C1539 1.377 . S
C1524 C1522 1.389 . S
C1524 C1525 1.524 . S
C1524 C1538 1.377 . S
C1525 C1524 1.524 . S
C1525 C1526 1.397 . S
C1525 C1530 1.363 . S
C1526 H1503 0.950 . S
C1526 C1525 1.397 . S
C1526 C1527 1.334 . S
C1527 H1504 0.950 . S
C1527 C1526 1.334 . S
C1527 C1528 1.287 . S
C1528 C1527 1.287 . S
C1528 C1529 1.524 . S
C1528 H1547 0.913 . S
C1529 H1505 0.950 . S
C1529 C1528 1.524 . S
C1529 C1530 1.415 . S
C1530 H1506 0.950 . S
C1530 C1525 1.363 . S
C1530 C1529 1.415 . S
C1531 H1507 0.951 . S
C1531 C1532 1.366 . S
C1531 C1533 1.388 . S
C1532 C1531 1.366 . S
C1532 C1536 1.385 . S
C1533 H1508 0.951 . S
C1533 C1531 1.388 . S
C1533 C1534 1.366 . S
C1534 C1533 1.366 . S
C1534 C1535 1.414 . S
C1534 C1537 1.499 . S
C1535 H1509 0.950 . S
C1535 C1534 1.414 . S
C1535 C1536 1.374 . S
C1536 H1510 0.950 . S
C1536 C1532 1.385 . S
C1536 C1535 1.374 . S
C1537 C1534 1.499 . S
C1537 C1538 1.373 . S
C1537 C1539 1.389 . S
C1538 H1511 0.950 . S
C1538 C1524 1.377 . S
C1538 C1537 1.373 . S
C1539 C1523 1.377 . S
C1539 C1537 1.389 . S
C1539 C1540 1.524 . S
C1540 C1539 1.524 . S
C1540 C1541 1.397 . S
C1540 C1545 1.363 . S
C1541 H1512 0.950 . S
C1541 C1540 1.397 . S
C1541 C1542 1.334 . S
C1542 H1513 0.950 . S
C1542 C1541 1.334 . S
C1542 C1543 1.287 . S
C1543 C1542 1.287 . S
C1543 C1544 1.524 . S
C1543 H1546 0.999 . S
C1544 H1514 0.950 . S
C1544 C1543 1.524 . S
C1544 C1545 1.415 . S
C1545 H1515 0.950 . S
C1545 C1540 1.363 . S
C1545 C1544 1.415 . S
H1546 C1543 0.999 . S
H1547 C1528 0.913 . S
H1548 C1566 0.951 . S
H1549 C1568 0.951 . S
H1550 C1570 0.950 . S
H1551 C1571 0.950 . S
H1552 C1573 0.950 . S
H1553 C1576 0.950 . S
H1554 C1577 0.950 . S
H1555 C1579 0.950 . S
H1556 C1580 0.950 . S
H1557 C1581 0.951 . S
H1558 C1583 0.951 . S
H1559 C1585 0.950 . S
H1560 C1586 0.950 . S
H1561 C1588 0.950 . S
H1562 C1591 0.950 . S
H1563 C1592 0.950 . S
H1564 C1594 0.950 . S
H1565 C1595 0.950 . S
C1566 H1548 0.951 . S
C1566 C1567 1.366 . S
C1566 C1568 1.388 . S
C1567 C1566 1.366 . S
C1567 C1571 1.385 . S
C1568 H1549 0.951 . S
C1568 C1566 1.388 . S
C1568 C1569 1.366 . S
C1569 C1568 1.366 . S
C1569 C1570 1.414 . S
C1569 C1572 1.499 . S
C1570 H1550 0.950 . S
C1570 C1569 1.414 . S
C1570 C1571 1.374 . S
C1571 H1551 0.950 . S
C1571 C1567 1.385 . S
C1571 C1570 1.374 . S
C1572 C1569 1.499 . S
C1572 C1573 1.373 . S
C1572 C1574 1.389 . S
C1573 H1552 0.950 . S
C1573 C1572 1.373 . S
C1573 C1589 1.377 . S
C1574 C1572 1.389 . S
C1574 C1575 1.524 . S
C1574 C1588 1.377 . S
C1575 C1574 1.524 . S
C1575 C1576 1.397 . S
C1575 C1580 1.363 . S
C1576 H1553 0.950 . S
C1576 C1575 1.397 . S
C1576 C1577 1.334 . S
C1577 H1554 0.950 . S
C1577 C1576 1.334 . S
C1577 C1578 1.287 . S
C1578 C1577 1.287 . S
C1578 C1579 1.524 . S
C1578 H1597 0.913 . S
C1579 H1555 0.950 . S
C1579 C1578 1.524 . S
C1579 C1580 1.415 . S
C1580 H1556 0.950 . S
C1580 C1575 1.363 . S
C1580 C1579 1.415 . S
C1581 H1557 0.951 . S
C1581 C1582 1.366 . S
C1581 C1583 1.388 . S
C1582 C1581 1.366 . S
C1582 C1586 1.385 . S
C1583 H1558 0.951 . S
C1583 C1581 1.388 . S
C1583 C1584 1.366 . S
C1584 C1583 1.366 . S
C1584 C1585 1.414 . S
C1584 C1587 1.499 . S
C1585 H1559 0.950 . S
C1585 C1584 1.414 . S
C1585 C1586 1.374 . S
C1586 H1560 0.950 . S
C1586 C1582 1.385 . S
C1586 C1585 1.374 . S
C1587 C1584 1.499 . S
C1587 C1588 1.373 . S
C1587 C1589 1.389 . S
C1588 H1561 0.950 . S
C1588 C1574 1.377 . S
C1588 C1587 1.373 . S
C1589 C1573 1.377 . S
C1589 C1587 1.389 . S
C1589 C1590 1.524 . S
C1590 C1589 1.524 . S
C1590 C1591 1.397 . S
C1590 C1595 1.363 . S
C1591 H1562 0.950 . S
C1591 C1590 1.397 . S
C1591 C1592 1.334 . S
C1592 H1563 0.950 . S
C1592 C1591 1.334 . S
C1592 C1593 1.287 . S
C1593 C1592 1.287 . S
C1593 C1594 1.524 . S
C1593 H1596 0.999 . S
C1594 H1564 0.950 . S
C1594 C1593 1.524 . S
C1594 C1595 1.415 . S
C1595 H1565 0.950 . S
C1595 C1590 1.363 . S
C1595 C1594 1.415 . S
H1596 C1593 0.999 . S
H1597 C1578 0.913 . S
H1598 C1616 0.951 . S
H1599 C1618 0.951 . S
H1600 C1620 0.950 . S
H1601 C1621 0.950 . S
H1602 C1623 0.950 . S
H1603 C1626 0.950 . S
H1604 C1627 0.950 . S
H1605 C1629 0.950 . S
H1606 C1630 0.950 . S
H1607 C1631 0.951 . S
H1608 C1633 0.951 . S
H1609 C1635 0.950 . S
H1610 C1636 0.950 . S
H1611 C1638 0.950 . S
H1612 C1641 0.950 . S
H1613 C1642 0.950 . S
H1614 C1644 0.950 . S
H1615 C1645 0.950 . S
C1616 H1598 0.951 . S
C1616 C1617 1.366 . S
C1616 C1618 1.388 . S
C1617 C1616 1.366 . S
C1617 C1621 1.385 . S
C1618 H1599 0.951 . S
C1618 C1616 1.388 . S
C1618 C1619 1.366 . S
C1619 C1618 1.366 . S
C1619 C1620 1.414 . S
C1619 C1622 1.499 . S
C1620 H1600 0.950 . S
C1620 C1619 1.414 . S
C1620 C1621 1.374 . S
C1621 H1601 0.950 . S
C1621 C1617 1.385 . S
C1621 C1620 1.374 . S
C1622 C1619 1.499 . S
C1622 C1623 1.373 . S
C1622 C1624 1.389 . S
C1623 H1602 0.950 . S
C1623 C1622 1.373 . S
C1623 C1639 1.377 . S
C1624 C1622 1.389 . S
C1624 C1625 1.524 . S
C1624 C1638 1.377 . S
C1625 C1624 1.524 . S
C1625 C1626 1.397 . S
C1625 C1630 1.363 . S
C1626 H1603 0.950 . S
C1626 C1625 1.397 . S
C1626 C1627 1.334 . S
C1627 H1604 0.950 . S
C1627 C1626 1.334 . S
C1627 C1628 1.287 . S
C1628 C1627 1.287 . S
C1628 C1629 1.524 . S
C1628 H1647 0.913 . S
C1629 H1605 0.950 . S
C1629 C1628 1.524 . S
C1629 C1630 1.415 . S
C1630 H1606 0.950 . S
C1630 C1625 1.363 . S
C1630 C1629 1.415 . S
C1631 H1607 0.951 . S
C1631 C1632 1.366 . S
C1631 C1633 1.388 . S
C1632 C1631 1.366 . S
C1632 C1636 1.385 . S
C1633 H1608 0.951 . S
C1633 C1631 1.388 . S
C1633 C1634 1.366 . S
C1634 C1633 1.366 . S
C1634 C1635 1.414 . S
C1634 C1637 1.499 . S
C1635 H1609 0.950 . S
C1635 C1634 1.414 . S
C1635 C1636 1.374 . S
C1636 H1610 0.950 . S
C1636 C1632 1.385 . S
C1636 C1635 1.374 . S
C1637 C1634 1.499 . S
C1637 C1638 1.373 . S
C1637 C1639 1.389 . S
C1638 H1611 0.950 . S
C1638 C1624 1.377 . S
C1638 C1637 1.373 . S
C1639 C1623 1.377 . S
C1639 C1637 1.389 . S
C1639 C1640 1.524 . S
C1640 C1639 1.524 . S
C1640 C1641 1.397 . S
C1640 C1645 1.363 . S
C1641 H1612 0.950 . S
C1641 C1640 1.397 . S
C1641 C1642 1.334 . S
C1642 H1613 0.950 . S
C1642 C1641 1.334 . S
C1642 C1643 1.287 . S
C1643 C1642 1.287 . S
C1643 C1644 1.524 . S
C1643 H1646 0.999 . S
C1644 H1614 0.950 . S
C1644 C1643 1.524 . S
C1644 C1645 1.415 . S
C1645 H1615 0.950 . S
C1645 C1640 1.363 . S
C1645 C1644 1.415 . S
H1646 C1643 0.999 . S
H1647 C1628 0.913 . S
H1648 C1666 0.951 . S
H1649 C1668 0.951 . S
H1650 C1670 0.950 . S
H1651 C1671 0.950 . S
H1652 C1673 0.950 . S
H1653 C1676 0.950 . S
H1654 C1677 0.950 . S
H1655 C1679 0.950 . S
H1656 C1680 0.950 . S
H1657 C1681 0.951 . S
H1658 C1683 0.951 . S
H1659 C1685 0.950 . S
H1660 C1686 0.950 . S
H1661 C1688 0.950 . S
H1662 C1691 0.950 . S
H1663 C1692 0.950 . S
H1664 C1694 0.950 . S
H1665 C1695 0.950 . S
C1666 H1648 0.951 . S
C1666 C1667 1.366 . S
C1666 C1668 1.388 . S
C1667 C1666 1.366 . S
C1667 C1671 1.385 . S
C1668 H1649 0.951 . S
C1668 C1666 1.388 . S
C1668 C1669 1.366 . S
C1669 C1668 1.366 . S
C1669 C1670 1.414 . S
C1669 C1672 1.499 . S
C1670 H1650 0.950 . S
C1670 C1669 1.414 . S
C1670 C1671 1.374 . S
C1671 H1651 0.950 . S
C1671 C1667 1.385 . S
C1671 C1670 1.374 . S
C1672 C1669 1.499 . S
C1672 C1673 1.373 . S
C1672 C1674 1.389 . S
C1673 H1652 0.950 . S
C1673 C1672 1.373 . S
C1673 C1689 1.377 . S
C1674 C1672 1.389 . S
C1674 C1675 1.524 . S
C1674 C1688 1.377 . S
C1675 C1674 1.524 . S
C1675 C1676 1.397 . S
C1675 C1680 1.363 . S
C1676 H1653 0.950 . S
C1676 C1675 1.397 . S
C1676 C1677 1.334 . S
C1677 H1654 0.950 . S
C1677 C1676 1.334 . S
C1677 C1678 1.287 . S
C1678 C1677 1.287 . S
C1678 C1679 1.524 . S
C1678 H1697 0.913 . S
C1679 H1655 0.950 . S
C1679 C1678 1.524 . S
C1679 C1680 1.415 . S
C1680 H1656 0.950 . S
C1680 C1675 1.363 . S
C1680 C1679 1.415 . S
C1681 H1657 0.951 . S
C1681 C1682 1.366 . S
C1681 C1683 1.388 . S
C1682 C1681 1.366 . S
C1682 C1686 1.385 . S
C1683 H1658 0.951 . S
C1683 C1681 1.388 . S
C1683 C1684 1.366 . S
C1684 C1683 1.366 . S
C1684 C1685 1.414 . S
C1684 C1687 1.499 . S
C1685 H1659 0.950 . S
C1685 C1684 1.414 . S
C1685 C1686 1.374 . S
C1686 H1660 0.950 . S
C1686 C1682 1.385 . S
C1686 C1685 1.374 . S
C1687 C1684 1.499 . S
C1687 C1688 1.373 . S
C1687 C1689 1.389 . S
C1688 H1661 0.950 . S
C1688 C1674 1.377 . S
C1688 C1687 1.373 . S
C1689 C1673 1.377 . S
C1689 C1687 1.389 . S
C1689 C1690 1.524 . S
C1690 C1689 1.524 . S
C1690 C1691 1.397 . S
C1690 C1695 1.363 . S
C1691 H1662 0.950 . S
C1691 C1690 1.397 . S
C1691 C1692 1.334 . S
C1692 H1663 0.950 . S
C1692 C1691 1.334 . S
C1692 C1693 1.287 . S
C1693 C1692 1.287 . S
C1693 C1694 1.524 . S
C1693 H1696 0.999 . S
C1694 H1664 0.950 . S
C1694 C1693 1.524 . S
C1694 C1695 1.415 . S
C1695 H1665 0.950 . S
C1695 C1690 1.363 . S
C1695 C1694 1.415 . S
H1696 C1693 0.999 . S
H1697 C1678 0.913 . S
H1698 C1716 0.951 . S
H1699 C1718 0.951 . S
H1700 C1720 0.950 . S
H1701 C1721 0.950 . S
H1702 C1723 0.950 . S
H1703 C1726 0.950 . S
H1704 C1727 0.950 . S
H1705 C1729 0.950 . S
H1706 C1730 0.950 . S
H1707 C1731 0.951 . S
H1708 C1733 0.951 . S
H1709 C1735 0.950 . S
H1710 C1736 0.950 . S
H1711 C1738 0.950 . S
H1712 C1741 0.950 . S
H1713 C1742 0.950 . S
H1714 C1744 0.950 . S
H1715 C1745 0.950 . S
C1716 H1698 0.951 . S
C1716 C1717 1.366 . S
C1716 C1718 1.388 . S
C1717 C1716 1.366 . S
C1717 C1721 1.385 . S
C1718 H1699 0.951 . S
C1718 C1716 1.388 . S
C1718 C1719 1.366 . S
C1719 C1718 1.366 . S
C1719 C1720 1.414 . S
C1719 C1722 1.499 . S
C1720 H1700 0.950 . S
C1720 C1719 1.414 . S
C1720 C1721 1.374 . S
C1721 H1701 0.950 . S
C1721 C1717 1.385 . S
C1721 C1720 1.374 . S
C1722 C1719 1.499 . S
C1722 C1723 1.373 . S
C1722 C1724 1.389 . S
C1723 H1702 0.950 . S
C1723 C1722 1.373 . S
C1723 C1739 1.377 . S
C1724 C1722 1.389 . S
C1724 C1725 1.524 . S
C1724 C1738 1.377 . S
C1725 C1724 1.524 . S
C1725 C1726 1.397 . S
C1725 C1730 1.363 . S
C1726 H1703 0.950 . S
C1726 C1725 1.397 . S
C1726 C1727 1.334 . S
C1727 H1704 0.950 . S
C1727 C1726 1.334 . S
C1727 C1728 1.287 . S
C1728 C1727 1.287 . S
C1728 C1729 1.524 . S
C1728 H1747 0.913 . S
C1729 H1705 0.950 . S
C1729 C1728 1.524 . S
C1729 C1730 1.415 . S
C1730 H1706 0.950 . S
C1730 C1725 1.363 . S
C1730 C1729 1.415 . S
C1731 H1707 0.951 . S
C1731 C1732 1.366 . S
C1731 C1733 1.388 . S
C1732 C1731 1.366 . S
C1732 C1736 1.385 . S
C1733 H1708 0.951 . S
C1733 C1731 1.388 . S
C1733 C1734 1.366 . S
C1734 C1733 1.366 . S
C1734 C1735 1.414 . S
C1734 C1737 1.499 . S
C1735 H1709 0.950 . S
C1735 C1734 1.414 . S
C1735 C1736 1.374 . S
C1736 H1710 0.950 . S
C1736 C1732 1.385 . S
C1736 C1735 1.374 . S
C1737 C1734 1.499 . S
C1737 C1738 1.373 . S
C1737 C1739 1.389 . S
C1738 H1711 0.950 . S
C1738 C1724 1.377 . S
C1738 C1737 1.373 . S
C1739 C1723 1.377 . S
C1739 C1737 1.389 . S
C1739 C1740 1.524 . S
C1740 C1739 1.524 . S
C1740 C1741 1.397 . S
C1740 C1745 1.363 . S
C1741 H1712 0.950 . S
C1741 C1740 1.397 . S
C1741 C1742 1.334 . S
C1742 H1713 0.950 . S
C1742 C1741 1.334 . S
C1742 C1743 1.287 . S
C1743 C1742 1.287 . S
C1743 C1744 1.524 . S
C1743 H1746 0.999 . S
C1744 H1714 0.950 . S
C1744 C1743 1.524 . S
C1744 C1745 1.415 . S
C1745 H1715 0.950 . S
C1745 C1740 1.363 . S
C1745 C1744 1.415 . S
H1746 C1743 0.999 . S
H1747 C1728 0.913 . S
H1748 C1766 0.951 . S
H1749 C1768 0.951 . S
H1750 C1770 0.950 . S
H1751 C1771 0.950 . S
H1752 C1773 0.950 . S
H1753 C1776 0.950 . S
H1754 C1777 0.950 . S
H1755 C1779 0.950 . S
H1756 C1780 0.950 . S
H1757 C1781 0.951 . S
H1758 C1783 0.951 . S
H1759 C1785 0.950 . S
H1760 C1786 0.950 . S
H1761 C1788 0.950 . S
H1762 C1791 0.950 . S
H1763 C1792 0.950 . S
H1764 C1794 0.950 . S
H1765 C1795 0.950 . S
C1766 H1748 0.951 . S
C1766 C1767 1.366 . S
C1766 C1768 1.388 . S
C1767 C1766 1.366 . S
C1767 C1771 1.385 . S
C1768 H1749 0.951 . S
C1768 C1766 1.388 . S
C1768 C1769 1.366 . S
C1769 C1768 1.366 . S
C1769 C1770 1.414 . S
C1769 C1772 1.499 . S
C1770 H1750 0.950 . S
C1770 C1769 1.414 . S
C1770 C1771 1.374 . S
C1771 H1751 0.950 . S
C1771 C1767 1.385 . S
C1771 C1770 1.374 . S
C1772 C1769 1.499 . S
C1772 C1773 1.373 . S
C1772 C1774 1.389 . S
C1773 H1752 0.950 . S
C1773 C1772 1.373 . S
C1773 C1789 1.377 . S
C1774 C1772 1.389 . S
C1774 C1775 1.524 . S
C1774 C1788 1.377 . S
C1775 C1774 1.524 . S
C1775 C1776 1.397 . S
C1775 C1780 1.363 . S
C1776 H1753 0.950 . S
C1776 C1775 1.397 . S
C1776 C1777 1.334 . S
C1777 H1754 0.950 . S
C1777 C1776 1.334 . S
C1777 C1778 1.287 . S
C1778 C1777 1.287 . S
C1778 C1779 1.524 . S
C1778 H1797 0.913 . S
C1779 H1755 0.950 . S
C1779 C1778 1.524 . S
C1779 C1780 1.415 . S
C1780 H1756 0.950 . S
C1780 C1775 1.363 . S
C1780 C1779 1.415 . S
C1781 H1757 0.951 . S
C1781 C1782 1.366 . S
C1781 C1783 1.388 . S
C1782 C1781 1.366 . S
C1782 C1786 1.385 . S
C1783 H1758 0.951 . S
C1783 C1781 1.388 . S
C1783 C1784 1.366 . S
C1784 C1783 1.366 . S
C1784 C1785 1.414 . S
C1784 C1787 1.499 . S
C1785 H1759 0.950 . S
C1785 C1784 1.414 . S
C1785 C1786 1.374 . S
C1786 H1760 0.950 . S
C1786 C1782 1.385 . S
C1786 C1785 1.374 . S
C1787 C1784 1.499 . S
C1787 C1788 1.373 . S
C1787 C1789 1.389 . S
C1788 H1761 0.950 . S
C1788 C1774 1.377 . S
C1788 C1787 1.373 . S
C1789 C1773 1.377 . S
C1789 C1787 1.389 . S
C1789 C1790 1.524 . S
C1790 C1789 1.524 . S
C1790 C1791 1.397 . S
C1790 C1795 1.363 . S
C1791 H1762 0.950 . S
C1791 C1790 1.397 . S
C1791 C1792 1.334 . S
C1792 H1763 0.950 . S
C1792 C1791 1.334 . S
C1792 C1793 1.287 . S
C1793 C1792 1.287 . S
C1793 C1794 1.524 . S
C1793 H1796 0.999 . S
C1794 H1764 0.950 . S
C1794 C1793 1.524 . S
C1794 C1795 1.415 . S
C1795 H1765 0.950 . S
C1795 C1790 1.363 . S
C1795 C1794 1.415 . S
H1796 C1793 0.999 . S
H1797 C1778 0.913 . S
H1798 C1816 0.951 . S
H1799 C1818 0.951 . S
H1800 C1820 0.950 . S
H1801 C1821 0.950 . S
H1802 C1823 0.950 . S
H1803 C1826 0.950 . S
H1804 C1827 0.950 . S
H1805 C1829 0.950 . S
H1806 C1830 0.950 . S
H1807 C1831 0.951 . S
H1808 C1833 0.951 . S
H1809 C1835 0.950 . S
H1810 C1836 0.950 . S
H1811 C1838 0.950 . S
H1812 C1841 0.950 . S
H1813 C1842 0.950 . S
H1814 C1844 0.950 . S
H1815 C1845 0.950 . S
C1816 H1798 0.951 . S
C1816 C1817 1.366 . S
C1816 C1818 1.388 . S
C1817 C1816 1.366 . S
C1817 C1821 1.385 . S
C1818 H1799 0.951 . S
C1818 C1816 1.388 . S
C1818 C1819 1.366 . S
C1819 C1818 1.366 . S
C1819 C1820 1.414 . S
C1819 C1822 1.499 . S
C1820 H1800 0.950 . S
C1820 C1819 1.414 . S
C1820 C1821 1.374 . S
C1821 H1801 0.950 . S
C1821 C1817 1.385 . S
C1821 C1820 1.374 . S
C1822 C1819 1.499 . S
C1822 C1823 1.373 . S
C1822 C1824 1.389 . S
C1823 H1802 0.950 . S
C1823 C1822 1.373 . S
C1823 C1839 1.377 . S
C1824 C1822 1.389 . S
C1824 C1825 1.524 . S
C1824 C1838 1.377 . S
C1825 C1824 1.524 . S
C1825 C1826 1.397 . S
C1825 C1830 1.363 . S
C1826 H1803 0.950 . S
C1826 C1825 1.397 . S
C1826 C1827 1.334 . S
C1827 H1804 0.950 . S
C1827 C1826 1.334 . S
C1827 C1828 1.287 . S
C1828 C1827 1.287 . S
C1828 C1829 1.524 . S
C1828 H1847 0.913 . S
C1829 H1805 0.950 . S
C1829 C1828 1.524 . S
C1829 C1830 1.415 . S
C1830 H1806 0.950 . S
C1830 C1825 1.363 . S
C1830 C1829 1.415 . S
C1831 H1807 0.951 . S
C1831 C1832 1.366 . S
C1831 C1833 1.388 . S
C1832 C1831 1.366 . S
C1832 C1836 1.385 . S
C1833 H1808 0.951 . S
C1833 C1831 1.388 . S
C1833 C1834 1.366 . S
C1834 C1833 1.366 . S
C1834 C1835 1.414 . S
C1834 C1837 1.499 . S
C1835 H1809 0.950 . S
C1835 C1834 1.414 . S
C1835 C1836 1.374 . S
C1836 H1810 0.950 . S
C1836 C1832 1.385 . S
C1836 C1835 1.374 . S
C1837 C1834 1.499 . S
C1837 C1838 1.373 . S
C1837 C1839 1.389 . S
C1838 H1811 0.950 . S
C1838 C1824 1.377 . S
C1838 C1837 1.373 . S
C1839 C1823 1.377 . S
C1839 C1837 1.389 . S
C1839 C1840 1.524 . S
C1840 C1839 1.524 . S
C1840 C1841 1.397 . S
C1840 C1845 1.363 . S
C1841 H1812 0.950 . S
C1841 C1840 1.397 . S
C1841 C1842 1.334 . S
C1842 H1813 0.950 . S
C1842 C1841 1.334 . S
C1842 C1843 1.287 . S
C1843 C1842 1.287 . S
C1843 C1844 1.524 . S
C1843 H1846 0.999 . S
C1844 H1814 0.950 . S
C1844 C1843 1.524 . S
C1844 C1845 1.415 . S
C1845 H1815 0.950 . S
C1845 C1840 1.363 . S
C1845 C1844 1.415 . S
H1846 C1843 0.999 . S
H1847 C1828 0.913 . S
H1848 C1866 0.951 . S
H1849 C1868 0.951 . S
H1850 C1870 0.950 . S
H1851 C1871 0.950 . S
H1852 C1873 0.950 . S
H1853 C1876 0.950 . S
H1854 C1877 0.950 . S
H1855 C1879 0.950 . S
H1856 C1880 0.950 . S
H1857 C1881 0.951 . S
H1858 C1883 0.951 . S
H1859 C1885 0.950 . S
H1860 C1886 0.950 . S
H1861 C1888 0.950 . S
H1862 C1891 0.950 . S
H1863 C1892 0.950 . S
H1864 C1894 0.950 . S
H1865 C1895 0.950 . S
C1866 H1848 0.951 . S
C1866 C1867 1.366 . S
C1866 C1868 1.388 . S
C1867 C1866 1.366 . S
C1867 C1871 1.385 . S
C1868 H1849 0.951 . S
C1868 C1866 1.388 . S
C1868 C1869 1.366 . S
C1869 C1868 1.366 . S
C1869 C1870 1.414 . S
C1869 C1872 1.499 . S
C1870 H1850 0.950 . S
C1870 C1869 1.414 . S
C1870 C1871 1.374 . S
C1871 H1851 0.950 . S
C1871 C1867 1.385 . S
C1871 C1870 1.374 . S
C1872 C1869 1.499 . S
C1872 C1873 1.373 . S
C1872 C1874 1.389 . S
C1873 H1852 0.950 . S
C1873 C1872 1.373 . S
C1873 C1889 1.377 1_556 S
C1874 C1872 1.389 . S
C1874 C1875 1.524 . S
C1874 C1888 1.377 1_556 S
C1875 C1874 1.524 . S
C1875 C1876 1.397 . S
C1875 C1880 1.363 . S
C1876 H1853 0.950 . S
C1876 C1875 1.397 . S
C1876 C1877 1.334 . S
C1877 H1854 0.950 . S
C1877 C1876 1.334 . S
C1877 C1878 1.287 . S
C1878 C1877 1.287 . S
C1878 C1879 1.524 . S
C1878 H1897 0.913 . S
C1879 H1855 0.950 . S
C1879 C1878 1.524 . S
C1879 C1880 1.415 . S
C1880 H1856 0.950 . S
C1880 C1875 1.363 . S
C1880 C1879 1.415 . S
C1881 H1857 0.951 . S
C1881 C1882 1.366 . S
C1881 C1883 1.388 . S
C1882 C1881 1.366 . S
C1882 C1886 1.385 . S
C1883 H1858 0.951 . S
C1883 C1881 1.388 . S
C1883 C1884 1.366 . S
C1884 C1883 1.366 . S
C1884 C1885 1.414 . S
C1884 C1887 1.499 . S
C1885 H1859 0.950 . S
C1885 C1884 1.414 . S
C1885 C1886 1.374 . S
C1886 H1860 0.950 . S
C1886 C1882 1.385 . S
C1886 C1885 1.374 . S
C1887 C1884 1.499 . S
C1887 C1888 1.373 . S
C1887 C1889 1.389 . S
C1888 H1861 0.950 . S
C1888 C1874 1.377 1_554 S
C1888 C1887 1.373 . S
C1889 C1873 1.377 1_554 S
C1889 C1887 1.389 . S
C1889 C1890 1.524 . S
C1890 C1889 1.524 . S
C1890 C1891 1.397 . S
C1890 C1895 1.363 . S
C1891 H1862 0.950 . S
C1891 C1890 1.397 . S
C1891 C1892 1.334 . S
C1892 H1863 0.950 . S
C1892 C1891 1.334 . S
C1892 C1893 1.287 . S
C1893 C1892 1.287 . S
C1893 C1894 1.524 . S
C1893 H1896 0.999 . S
C1894 H1864 0.950 . S
C1894 C1893 1.524 . S
C1894 C1895 1.415 . S
C1895 H1865 0.950 . S
C1895 C1890 1.363 . S
C1895 C1894 1.415 . S
H1896 C1893 0.999 . S
H1897 C1878 0.913 . S
H1898 C1916 0.951 . S
H1899 C1918 0.951 . S
H1900 C1920 0.950 . S
H1901 C1921 0.950 . S
H1902 C1923 0.950 . S
H1903 C1926 0.950 . S
H1904 C1927 0.950 . S
H1905 C1929 0.950 . S
H1906 C1930 0.950 . S
H1907 C1931 0.951 . S
H1908 C1933 0.951 . S
H1909 C1935 0.950 . S
H1910 C1936 0.950 . S
H1911 C1938 0.950 . S
H1912 C1941 0.950 . S
H1913 C1942 0.950 . S
H1914 C1944 0.950 . S
H1915 C1945 0.950 . S
C1916 H1898 0.951 . S
C1916 C1917 1.366 . S
C1916 C1918 1.388 . S
C1917 C1916 1.366 . S
C1917 C1921 1.385 . S
C1918 H1899 0.951 . S
C1918 C1916 1.388 . S
C1918 C1919 1.366 . S
C1919 C1918 1.366 . S
C1919 C1920 1.414 . S
C1919 C1922 1.499 . S
C1920 H1900 0.950 . S
C1920 C1919 1.414 . S
C1920 C1921 1.374 . S
C1921 H1901 0.950 . S
C1921 C1917 1.385 . S
C1921 C1920 1.374 . S
C1922 C1919 1.499 . S
C1922 C1923 1.373 . S
C1922 C1924 1.389 . S
C1923 H1902 0.950 . S
C1923 C1922 1.373 . S
C1923 C1939 1.377 1_554 S
C1924 C1922 1.389 . S
C1924 C1925 1.524 . S
C1924 C1938 1.377 1_554 S
C1925 C1924 1.524 . S
C1925 C1926 1.397 . S
C1925 C1930 1.363 . S
C1926 H1903 0.950 . S
C1926 C1925 1.397 . S
C1926 C1927 1.334 . S
C1927 H1904 0.950 . S
C1927 C1926 1.334 . S
C1927 C1928 1.287 . S
C1928 C1927 1.287 . S
C1928 C1929 1.524 . S
C1928 H1947 0.913 . S
C1929 H1905 0.950 . S
C1929 C1928 1.524 . S
C1929 C1930 1.415 . S
C1930 H1906 0.950 . S
C1930 C1925 1.363 . S
C1930 C1929 1.415 . S
C1931 H1907 0.951 . S
C1931 C1932 1.366 . S
C1931 C1933 1.388 . S
C1932 C1931 1.366 . S
C1932 C1936 1.385 . S
C1933 H1908 0.951 . S
C1933 C1931 1.388 . S
C1933 C1934 1.366 . S
C1934 C1933 1.366 . S
C1934 C1935 1.414 . S
C1934 C1937 1.499 . S
C1935 H1909 0.950 . S
C1935 C1934 1.414 . S
C1935 C1936 1.374 . S
C1936 H1910 0.950 . S
C1936 C1932 1.385 . S
C1936 C1935 1.374 . S
C1937 C1934 1.499 . S
C1937 C1938 1.373 . S
C1937 C1939 1.389 . S
C1938 H1911 0.950 . S
C1938 C1924 1.377 1_556 S
C1938 C1937 1.373 . S
C1939 C1923 1.377 1_556 S
C1939 C1937 1.389 . S
C1939 C1940 1.524 . S
C1940 C1939 1.524 . S
C1940 C1941 1.397 . S
C1940 C1945 1.363 . S
C1941 H1912 0.950 . S
C1941 C1940 1.397 . S
C1941 C1942 1.334 . S
C1942 H1913 0.950 . S
C1942 C1941 1.334 . S
C1942 C1943 1.287 . S
C1943 C1942 1.287 . S
C1943 C1944 1.524 . S
C1943 H1946 0.999 . S
C1944 H1914 0.950 . S
C1944 C1943 1.524 . S
C1944 C1945 1.415 . S
C1945 H1915 0.950 . S
C1945 C1940 1.363 . S
C1945 C1944 1.415 . S
H1946 C1943 0.999 . S
H1947 C1928 0.913 . S
H1948 C1966 0.951 . S
H1949 C1968 0.951 . S
H1950 C1970 0.950 . S
H1951 C1971 0.950 . S
H1952 C1973 0.950 . S
H1953 C1976 0.950 . S
H1954 C1977 0.950 . S
H1955 C1979 0.950 . S
H1956 C1980 0.950 . S
H1957 C1981 0.951 . S
H1958 C1983 0.951 . S
H1959 C1985 0.950 . S
H1960 C1986 0.950 . S
H1961 C1988 0.950 . S
H1962 C1991 0.950 . S
H1963 C1992 0.950 . S
H1964 C1994 0.950 . S
H1965 C1995 0.950 . S
C1966 H1948 0.951 . S
C1966 C1967 1.366 . S
C1966 C1968 1.388 . S
C1967 C1966 1.366 . S
C1967 C1971 1.385 . S
C1968 H1949 0.951 . S
C1968 C1966 1.388 . S
C1968 C1969 1.366 . S
C1969 C1968 1.366 . S
C1969 C1970 1.414 . S
C1969 C1972 1.499 . S
C1970 H1950 0.950 . S
C1970 C1969 1.414 . S
C1970 C1971 1.374 . S
C1971 H1951 0.950 . S
C1971 C1967 1.385 . S
C1971 C1970 1.374 . S
C1972 C1969 1.499 . S
C1972 C1973 1.373 . S
C1972 C1974 1.389 . S
C1973 H1952 0.950 . S
C1973 C1972 1.373 . S
C1973 C1989 1.377 1_554 S
C1974 C1972 1.389 . S
C1974 C1975 1.524 . S
C1974 C1988 1.377 1_554 S
C1975 C1974 1.524 . S
C1975 C1976 1.397 . S
C1975 C1980 1.363 . S
C1976 H1953 0.950 . S
C1976 C1975 1.397 . S
C1976 C1977 1.334 . S
C1977 H1954 0.950 . S
C1977 C1976 1.334 . S
C1977 C1978 1.287 . S
C1978 C1977 1.287 . S
C1978 C1979 1.524 . S
C1978 H1997 0.913 . S
C1979 H1955 0.950 . S
C1979 C1978 1.524 . S
C1979 C1980 1.415 . S
C1980 H1956 0.950 . S
C1980 C1975 1.363 . S
C1980 C1979 1.415 . S
C1981 H1957 0.951 . S
C1981 C1982 1.366 . S
C1981 C1983 1.388 . S
C1982 C1981 1.366 . S
C1982 C1986 1.385 . S
C1983 H1958 0.951 . S
C1983 C1981 1.388 . S
C1983 C1984 1.366 . S
C1984 C1983 1.366 . S
C1984 C1985 1.414 . S
C1984 C1987 1.499 . S
C1985 H1959 0.950 . S
C1985 C1984 1.414 . S
C1985 C1986 1.374 . S
C1986 H1960 0.950 . S
C1986 C1982 1.385 . S
C1986 C1985 1.374 . S
C1987 C1984 1.499 . S
C1987 C1988 1.373 . S
C1987 C1989 1.389 . S
C1988 H1961 0.950 . S
C1988 C1974 1.377 1_556 S
C1988 C1987 1.373 . S
C1989 C1973 1.377 1_556 S
C1989 C1987 1.389 . S
C1989 C1990 1.524 . S
C1990 C1989 1.524 . S
C1990 C1991 1.397 . S
C1990 C1995 1.363 . S
C1991 H1962 0.950 . S
C1991 C1990 1.397 . S
C1991 C1992 1.334 . S
C1992 H1963 0.950 . S
C1992 C1991 1.334 . S
C1992 C1993 1.287 . S
C1993 C1992 1.287 . S
C1993 C1994 1.524 . S
C1993 H1996 0.999 . S
C1994 H1964 0.950 . S
C1994 C1993 1.524 . S
C1994 C1995 1.415 . S
C1995 H1965 0.950 . S
C1995 C1990 1.363 . S
C1995 C1994 1.415 . S
H1996 C1993 0.999 . S
H1997 C1978 0.913 . S
H1998 C2016 0.951 . S
H1999 C2018 0.951 . S
H2000 C2020 0.950 . S
H2001 C2021 0.950 . S
H2002 C2023 0.950 . S
H2003 C2026 0.950 . S
H2004 C2027 0.950 . S
H2005 C2029 0.950 . S
H2006 C2030 0.950 . S
H2007 C2031 0.951 . S
H2008 C2033 0.951 . S
H2009 C2035 0.950 . S
H2010 C2036 0.950 . S
H2011 C2038 0.950 . S
H2012 C2041 0.950 . S
H2013 C2042 0.950 . S
H2014 C2044 0.950 . S
H2015 C2045 0.950 . S
C2016 H1998 0.951 . S
C2016 C2017 1.366 . S
C2016 C2018 1.388 . S
C2017 C2016 1.366 . S
C2017 C2021 1.385 . S
C2018 H1999 0.951 . S
C2018 C2016 1.388 . S
C2018 C2019 1.366 . S
C2019 C2018 1.366 . S
C2019 C2020 1.414 . S
C2019 C2022 1.499 . S
C2020 H2000 0.950 . S
C2020 C2019 1.414 . S
C2020 C2021 1.374 . S
C2021 H2001 0.950 . S
C2021 C2017 1.385 . S
C2021 C2020 1.374 . S
C2022 C2019 1.499 . S
C2022 C2023 1.373 . S
C2022 C2024 1.389 . S
C2023 H2002 0.950 . S
C2023 C2022 1.373 . S
C2023 C2039 1.377 1_556 S
C2024 C2022 1.389 . S
C2024 C2025 1.524 . S
C2024 C2038 1.377 1_556 S
C2025 C2024 1.524 . S
C2025 C2026 1.397 . S
C2025 C2030 1.363 . S
C2026 H2003 0.950 . S
C2026 C2025 1.397 . S
C2026 C2027 1.334 . S
C2027 H2004 0.950 . S
C2027 C2026 1.334 . S
C2027 C2028 1.287 . S
C2028 C2027 1.287 . S
C2028 C2029 1.524 . S
C2028 H2047 0.913 . S
C2029 H2005 0.950 . S
C2029 C2028 1.524 . S
C2029 C2030 1.415 . S
C2030 H2006 0.950 . S
C2030 C2025 1.363 . S
C2030 C2029 1.415 . S
C2031 H2007 0.951 . S
C2031 C2032 1.366 . S
C2031 C2033 1.388 . S
C2032 C2031 1.366 . S
C2032 C2036 1.385 . S
C2033 H2008 0.951 . S
C2033 C2031 1.388 . S
C2033 C2034 1.366 . S
C2034 C2033 1.366 . S
C2034 C2035 1.414 . S
C2034 C2037 1.499 . S
C2035 H2009 0.950 . S
C2035 C2034 1.414 . S
C2035 C2036 1.374 . S
C2036 H2010 0.950 . S
C2036 C2032 1.385 . S
C2036 C2035 1.374 . S
C2037 C2034 1.499 . S
C2037 C2038 1.373 . S
C2037 C2039 1.389 . S
C2038 H2011 0.950 . S
C2038 C2024 1.377 1_554 S
C2038 C2037 1.373 . S
C2039 C2023 1.377 1_554 S
C2039 C2037 1.389 . S
C2039 C2040 1.524 . S
C2040 C2039 1.524 . S
C2040 C2041 1.397 . S
C2040 C2045 1.363 . S
C2041 H2012 0.950 . S
C2041 C2040 1.397 . S
C2041 C2042 1.334 . S
C2042 H2013 0.950 . S
C2042 C2041 1.334 . S
C2042 C2043 1.287 . S
C2043 C2042 1.287 . S
C2043 C2044 1.524 . S
C2043 H2046 0.999 . S
C2044 H2014 0.950 . S
C2044 C2043 1.524 . S
C2044 C2045 1.415 . S
C2045 H2015 0.950 . S
C2045 C2040 1.363 . S
C2045 C2044 1.415 . S
H2046 C2043 0.999 . S
H2047 C2028 0.913 . S
H2048 C2066 0.951 . S
H2049 C2068 0.951 . S
H2050 C2070 0.950 . S
H2051 C2071 0.950 . S
H2052 C2073 0.950 . S
H2053 C2076 0.950 . S
H2054 C2077 0.950 . S
H2055 C2079 0.950 . S
H2056 C2080 0.950 . S
H2057 C2081 0.951 . S
H2058 C2083 0.951 . S
H2059 C2085 0.950 . S
H2060 C2086 0.950 . S
H2061 C2088 0.950 . S
H2062 C2091 0.950 . S
H2063 C2092 0.950 . S
H2064 C2094 0.950 . S
H2065 C2095 0.950 . S
C2066 H2048 0.951 . S
C2066 C2067 1.366 . S
C2066 C2068 1.388 . S
C2067 C2066 1.366 . S
C2067 C2071 1.385 . S
C2068 H2049 0.951 . S
C2068 C2066 1.388 . S
C2068 C2069 1.366 . S
C2069 C2068 1.366 . S
C2069 C2070 1.414 . S
C2069 C2072 1.499 . S
C2070 H2050 0.950 . S
C2070 C2069 1.414 . S
C2070 C2071 1.374 . S
C2071 H2051 0.950 . S
C2071 C2067 1.385 . S
C2071 C2070 1.374 . S
C2072 C2069 1.499 . S
C2072 C2073 1.373 . S
C2072 C2074 1.452 . S
C2073 H2052 0.950 . S
C2073 C2072 1.373 . S
C2073 C2089 1.310 1_545 S
C2074 C2072 1.452 . S
C2074 C2075 1.527 . S
C2074 C2088 1.310 1_545 S
C2075 C2074 1.527 . S
C2075 C2076 1.397 . S
C2075 C2080 1.363 1_545 S
C2076 H2053 0.950 . S
C2076 C2075 1.397 . S
C2076 C2077 1.334 . S
C2077 H2054 0.950 . S
C2077 C2076 1.334 . S
C2077 C2078 1.287 . S
C2078 C2077 1.287 . S
C2078 C2079 1.524 1_545 S
C2078 H2097 0.913 . S
C2079 H2055 0.950 . S
C2079 C2078 1.524 1_565 S
C2079 C2080 1.415 . S
C2080 H2056 0.950 . S
C2080 C2075 1.363 1_565 S
C2080 C2079 1.415 . S
C2081 H2057 0.951 . S
C2081 C2082 1.366 . S
C2081 C2083 1.388 . S
C2082 C2081 1.366 . S
C2082 C2086 1.385 . S
C2083 H2058 0.951 . S
C2083 C2081 1.388 . S
C2083 C2084 1.366 . S
C2084 C2083 1.366 . S
C2084 C2085 1.414 . S
C2084 C2087 1.499 . S
C2085 H2059 0.950 . S
C2085 C2084 1.414 . S
C2085 C2086 1.374 . S
C2086 H2060 0.950 . S
C2086 C2082 1.385 . S
C2086 C2085 1.374 . S
C2087 C2084 1.499 . S
C2087 C2088 1.373 . S
C2087 C2089 1.452 . S
C2088 H2061 0.950 . S
C2088 C2074 1.310 1_565 S
C2088 C2087 1.373 . S
C2089 C2073 1.310 1_565 S
C2089 C2087 1.452 . S
C2089 C2090 1.527 . S
C2090 C2089 1.527 . S
C2090 C2091 1.397 . S
C2090 C2095 1.363 1_565 S
C2091 H2062 0.950 . S
C2091 C2090 1.397 . S
C2091 C2092 1.334 . S
C2092 H2063 0.950 . S
C2092 C2091 1.334 . S
C2092 C2093 1.287 . S
C2093 C2092 1.287 . S
C2093 C2094 1.524 1_565 S
C2093 H2096 0.999 . S
C2094 H2064 0.950 . S
C2094 C2093 1.524 1_545 S
C2094 C2095 1.415 . S
C2095 H2065 0.950 . S
C2095 C2090 1.363 1_545 S
C2095 C2094 1.415 . S
H2096 C2093 0.999 . S
H2097 C2078 0.913 . S
H2098 C2116 0.951 . S
H2099 C2118 0.951 . S
H2100 C2120 0.950 . S
H2101 C2121 0.950 . S
H2102 C2123 0.950 . S
H2103 C2126 0.950 . S
H2104 C2127 0.950 . S
H2105 C2129 0.950 . S
H2106 C2130 0.950 . S
H2107 C2131 0.951 . S
H2108 C2133 0.951 . S
H2109 C2135 0.950 . S
H2110 C2136 0.950 . S
H2111 C2138 0.950 . S
H2112 C2141 0.950 . S
H2113 C2142 0.950 . S
H2114 C2144 0.950 . S
H2115 C2145 0.950 . S
C2116 H2098 0.951 . S
C2116 C2117 1.366 . S
C2116 C2118 1.388 . S
C2117 C2116 1.366 . S
C2117 C2121 1.385 . S
C2118 H2099 0.951 . S
C2118 C2116 1.388 . S
C2118 C2119 1.366 . S
C2119 C2118 1.366 . S
C2119 C2120 1.414 . S
C2119 C2122 1.499 . S
C2120 H2100 0.950 . S
C2120 C2119 1.414 . S
C2120 C2121 1.374 . S
C2121 H2101 0.950 . S
C2121 C2117 1.385 . S
C2121 C2120 1.374 . S
C2122 C2119 1.499 . S
C2122 C2123 1.373 . S
C2122 C2124 1.389 . S
C2123 H2102 0.950 . S
C2123 C2122 1.373 . S
C2123 C2139 1.377 1_655 S
C2124 C2122 1.389 . S
C2124 C2125 1.524 . S
C2124 C2138 1.377 1_655 S
C2125 C2124 1.524 . S
C2125 C2126 1.397 . S
C2125 C2130 1.363 . S
C2126 H2103 0.950 . S
C2126 C2125 1.397 . S
C2126 C2127 1.334 . S
C2127 H2104 0.950 . S
C2127 C2126 1.334 . S
C2127 C2128 1.287 . S
C2128 C2127 1.287 . S
C2128 C2129 1.524 . S
C2128 H2147 0.913 . S
C2129 H2105 0.950 . S
C2129 C2128 1.524 . S
C2129 C2130 1.415 . S
C2130 H2106 0.950 . S
C2130 C2125 1.363 . S
C2130 C2129 1.415 . S
C2131 H2107 0.951 . S
C2131 C2132 1.366 . S
C2131 C2133 1.388 . S
C2132 C2131 1.366 . S
C2132 C2136 1.385 . S
C2133 H2108 0.951 . S
C2133 C2131 1.388 . S
C2133 C2134 1.366 . S
C2134 C2133 1.366 . S
C2134 C2135 1.414 . S
C2134 C2137 1.499 . S
C2135 H2109 0.950 . S
C2135 C2134 1.414 . S
C2135 C2136 1.374 . S
C2136 H2110 0.950 . S
C2136 C2132 1.385 . S
C2136 C2135 1.374 . S
C2137 C2134 1.499 . S
C2137 C2138 1.373 . S
C2137 C2139 1.389 . S
C2138 H2111 0.950 . S
C2138 C2124 1.377 1_455 S
C2138 C2137 1.373 . S
C2139 C2123 1.377 1_455 S
C2139 C2137 1.389 . S
C2139 C2140 1.524 . S
C2140 C2139 1.524 . S
C2140 C2141 1.397 . S
C2140 C2145 1.363 . S
C2141 H2112 0.950 . S
C2141 C2140 1.397 . S
C2141 C2142 1.334 . S
C2142 H2113 0.950 . S
C2142 C2141 1.334 . S
C2142 C2143 1.287 . S
C2143 C2142 1.287 . S
C2143 C2144 1.524 . S
C2143 H2146 0.999 . S
C2144 H2114 0.950 . S
C2144 C2143 1.524 . S
C2144 C2145 1.415 . S
C2145 H2115 0.950 . S
C2145 C2140 1.363 . S
C2145 C2144 1.415 . S
H2146 C2143 0.999 . S
H2147 C2128 0.913 . S
H2148 C2166 0.951 . S
H2149 C2168 0.951 . S
H2150 C2170 0.950 . S
H2151 C2171 0.950 . S
H2152 C2173 0.950 . S
H2153 C2176 0.950 . S
H2154 C2177 0.950 . S
H2155 C2179 0.950 . S
H2156 C2180 0.950 . S
H2157 C2181 0.951 . S
H2158 C2183 0.951 . S
H2159 C2185 0.950 . S
H2160 C2186 0.950 . S
H2161 C2188 0.950 . S
H2162 C2191 0.950 . S
H2163 C2192 0.950 . S
H2164 C2194 0.950 . S
H2165 C2195 0.950 . S
C2166 H2148 0.951 . S
C2166 C2167 1.366 . S
C2166 C2168 1.388 . S
C2167 C2166 1.366 . S
C2167 C2171 1.385 . S
C2168 H2149 0.951 . S
C2168 C2166 1.388 . S
C2168 C2169 1.366 . S
C2169 C2168 1.366 . S
C2169 C2170 1.414 . S
C2169 C2172 1.499 . S
C2170 H2150 0.950 . S
C2170 C2169 1.414 . S
C2170 C2171 1.374 . S
C2171 H2151 0.950 . S
C2171 C2167 1.385 . S
C2171 C2170 1.374 . S
C2172 C2169 1.499 . S
C2172 C2173 1.373 . S
C2172 C2174 1.389 . S
C2173 H2152 0.950 . S
C2173 C2172 1.373 . S
C2173 C2189 1.377 1_545 S
C2174 C2172 1.389 . S
C2174 C2175 1.524 . S
C2174 C2188 1.377 1_545 S
C2175 C2174 1.524 . S
C2175 C2176 1.397 . S
C2175 C2180 1.363 . S
C2176 H2153 0.950 . S
C2176 C2175 1.397 . S
C2176 C2177 1.334 . S
C2177 H2154 0.950 . S
C2177 C2176 1.334 . S
C2177 C2178 1.287 . S
C2178 C2177 1.287 . S
C2178 C2179 1.524 . S
C2178 H2197 0.913 . S
C2179 H2155 0.950 . S
C2179 C2178 1.524 . S
C2179 C2180 1.415 . S
C2180 H2156 0.950 . S
C2180 C2175 1.363 . S
C2180 C2179 1.415 . S
C2181 H2157 0.951 . S
C2181 C2182 1.366 . S
C2181 C2183 1.388 . S
C2182 C2181 1.366 . S
C2182 C2186 1.385 . S
C2183 H2158 0.951 . S
C2183 C2181 1.388 . S
C2183 C2184 1.366 . S
C2184 C2183 1.366 . S
C2184 C2185 1.414 . S
C2184 C2187 1.499 . S
C2185 H2159 0.950 . S
C2185 C2184 1.414 . S
C2185 C2186 1.374 . S
C2186 H2160 0.950 . S
C2186 C2182 1.385 . S
C2186 C2185 1.374 . S
C2187 C2184 1.499 . S
C2187 C2188 1.373 . S
C2187 C2189 1.389 . S
C2188 H2161 0.950 . S
C2188 C2174 1.377 1_565 S
C2188 C2187 1.373 . S
C2189 C2173 1.377 1_565 S
C2189 C2187 1.389 . S
C2189 C2190 1.524 . S
C2190 C2189 1.524 . S
C2190 C2191 1.397 . S
C2190 C2195 1.363 . S
C2191 H2162 0.950 . S
C2191 C2190 1.397 . S
C2191 C2192 1.334 . S
C2192 H2163 0.950 . S
C2192 C2191 1.334 . S
C2192 C2193 1.287 . S
C2193 C2192 1.287 . S
C2193 C2194 1.524 . S
C2193 H2196 0.999 . S
C2194 H2164 0.950 . S
C2194 C2193 1.524 . S
C2194 C2195 1.415 . S
C2195 H2165 0.950 . S
C2195 C2190 1.363 . S
C2195 C2194 1.415 . S
H2196 C2193 0.999 . S
H2197 C2178 0.913 . S
H2198 C2216 0.951 . S
H2199 C2218 0.951 . S
H2200 C2220 0.950 . S
H2201 C2221 0.950 . S
H2202 C2223 0.950 . S
H2203 C2226 0.950 . S
H2204 C2227 0.950 . S
H2205 C2229 0.950 . S
H2206 C2230 0.950 . S
H2207 C2231 0.951 . S
H2208 C2233 0.951 . S
H2209 C2235 0.950 . S
H2210 C2236 0.950 . S
H2211 C2238 0.950 . S
H2212 C2241 0.950 . S
H2213 C2242 0.950 . S
H2214 C2244 0.950 . S
H2215 C2245 0.950 . S
C2216 H2198 0.951 . S
C2216 C2217 1.366 . S
C2216 C2218 1.388 . S
C2217 C2216 1.366 . S
C2217 C2221 1.385 . S
C2218 H2199 0.951 . S
C2218 C2216 1.388 . S
C2218 C2219 1.366 . S
C2219 C2218 1.366 . S
C2219 C2220 1.414 . S
C2219 C2222 1.499 . S
C2220 H2200 0.950 . S
C2220 C2219 1.414 . S
C2220 C2221 1.374 . S
C2221 H2201 0.950 . S
C2221 C2217 1.385 . S
C2221 C2220 1.374 . S
C2222 C2219 1.499 . S
C2222 C2223 1.373 . S
C2222 C2224 1.389 . S
C2223 H2202 0.950 . S
C2223 C2222 1.373 . S
C2223 C2239 1.377 1_455 S
C2224 C2222 1.389 . S
C2224 C2225 1.524 . S
C2224 C2238 1.377 1_455 S
C2225 C2224 1.524 . S
C2225 C2226 1.397 . S
C2225 C2230 1.363 . S
C2226 H2203 0.950 . S
C2226 C2225 1.397 . S
C2226 C2227 1.334 . S
C2227 H2204 0.950 . S
C2227 C2226 1.334 . S
C2227 C2228 1.287 . S
C2228 C2227 1.287 . S
C2228 C2229 1.524 . S
C2228 H2247 0.913 . S
C2229 H2205 0.950 . S
C2229 C2228 1.524 . S
C2229 C2230 1.415 . S
C2230 H2206 0.950 . S
C2230 C2225 1.363 . S
C2230 C2229 1.415 . S
C2231 H2207 0.951 . S
C2231 C2232 1.366 . S
C2231 C2233 1.388 . S
C2232 C2231 1.366 . S
C2232 C2236 1.385 . S
C2233 H2208 0.951 . S
C2233 C2231 1.388 . S
C2233 C2234 1.366 . S
C2234 C2233 1.366 . S
C2234 C2235 1.414 . S
C2234 C2237 1.499 . S
C2235 H2209 0.950 . S
C2235 C2234 1.414 . S
C2235 C2236 1.374 . S
C2236 H2210 0.950 . S
C2236 C2232 1.385 . S
C2236 C2235 1.374 . S
C2237 C2234 1.499 . S
C2237 C2238 1.373 . S
C2237 C2239 1.389 . S
C2238 H2211 0.950 . S
C2238 C2224 1.377 1_655 S
C2238 C2237 1.373 . S
C2239 C2223 1.377 1_655 S
C2239 C2237 1.389 . S
C2239 C2240 1.524 . S
C2240 C2239 1.524 . S
C2240 C2241 1.397 . S
C2240 C2245 1.363 . S
C2241 H2212 0.950 . S
C2241 C2240 1.397 . S
C2241 C2242 1.334 . S
C2242 H2213 0.950 . S
C2242 C2241 1.334 . S
C2242 C2243 1.287 . S
C2243 C2242 1.287 . S
C2243 C2244 1.524 . S
C2243 H2246 0.999 . S
C2244 H2214 0.950 . S
C2244 C2243 1.524 . S
C2244 C2245 1.415 . S
C2245 H2215 0.950 . S
C2245 C2240 1.363 . S
C2245 C2244 1.415 . S
H2246 C2243 0.999 . S
H2247 C2228 0.913 . S
H2248 C2266 0.951 . S
H2249 C2268 0.951 . S
H2250 C2270 0.950 . S
H2251 C2271 0.950 . S
H2252 C2273 0.950 . S
H2253 C2276 0.950 . S
H2254 C2277 0.950 . S
H2255 C2279 0.950 . S
H2256 C2280 0.950 . S
H2257 C2281 0.951 . S
H2258 C2283 0.951 . S
H2259 C2285 0.950 . S
H2260 C2286 0.950 . S
H2261 C2288 0.950 . S
H2262 C2291 0.950 . S
H2263 C2292 0.950 . S
H2264 C2294 0.950 . S
H2265 C2295 0.950 . S
C2266 H2248 0.951 . S
C2266 C2267 1.366 . S
C2266 C2268 1.388 . S
C2267 C2266 1.366 . S
C2267 C2271 1.385 . S
C2268 H2249 0.951 . S
C2268 C2266 1.388 . S
C2268 C2269 1.366 . S
C2269 C2268 1.366 . S
C2269 C2270 1.414 . S
C2269 C2272 1.499 . S
C2270 H2250 0.950 . S
C2270 C2269 1.414 . S
C2270 C2271 1.374 . S
C2271 H2251 0.950 . S
C2271 C2267 1.385 . S
C2271 C2270 1.374 . S
C2272 C2269 1.499 . S
C2272 C2273 1.373 . S
C2272 C2274 1.389 . S
C2273 H2252 0.950 . S
C2273 C2272 1.373 . S
C2273 C2289 1.377 1_565 S
C2274 C2272 1.389 . S
C2274 C2275 1.524 . S
C2274 C2288 1.377 1_565 S
C2275 C2274 1.524 . S
C2275 C2276 1.397 . S
C2275 C2280 1.363 . S
C2276 H2253 0.950 . S
C2276 C2275 1.397 . S
C2276 C2277 1.334 . S
C2277 H2254 0.950 . S
C2277 C2276 1.334 . S
C2277 C2278 1.287 . S
C2278 C2277 1.287 . S
C2278 C2279 1.524 . S
C2278 H2297 0.913 . S
C2279 H2255 0.950 . S
C2279 C2278 1.524 . S
C2279 C2280 1.415 . S
C2280 H2256 0.950 . S
C2280 C2275 1.363 . S
C2280 C2279 1.415 . S
C2281 H2257 0.951 . S
C2281 C2282 1.366 . S
C2281 C2283 1.388 . S
C2282 C2281 1.366 . S
C2282 C2286 1.385 . S
C2283 H2258 0.951 . S
C2283 C2281 1.388 . S
C2283 C2284 1.366 . S
C2284 C2283 1.366 . S
C2284 C2285 1.414 . S
C2284 C2287 1.499 . S
C2285 H2259 0.950 . S
C2285 C2284 1.414 . S
C2285 C2286 1.374 . S
C2286 H2260 0.950 . S
C2286 C2282 1.385 . S
C2286 C2285 1.374 . S
C2287 C2284 1.499 . S
C2287 C2288 1.373 . S
C2287 C2289 1.389 . S
C2288 H2261 0.950 . S
C2288 C2274 1.377 1_545 S
C2288 C2287 1.373 . S
C2289 C2273 1.377 1_545 S
C2289 C2287 1.389 . S
C2289 C2290 1.524 . S
C2290 C2289 1.524 . S
C2290 C2291 1.397 . S
C2290 C2295 1.363 . S
C2291 H2262 0.950 . S
C2291 C2290 1.397 . S
C2291 C2292 1.334 . S
C2292 H2263 0.950 . S
C2292 C2291 1.334 . S
C2292 C2293 1.287 . S
C2293 C2292 1.287 . S
C2293 C2294 1.524 . S
C2293 H2296 0.999 . S
C2294 H2264 0.950 . S
C2294 C2293 1.524 . S
C2294 C2295 1.415 . S
C2295 H2265 0.950 . S
C2295 C2290 1.363 . S
C2295 C2294 1.415 . S
H2296 C2293 0.999 . S
H2297 C2278 0.913 . S
H2298 C2316 0.951 . S
H2299 C2318 0.951 . S
H2300 C2320 0.950 . S
H2301 C2321 0.950 . S
H2302 C2323 0.950 . S
H2303 C2326 0.950 . S
H2304 C2327 0.950 . S
H2305 C2329 0.950 . S
H2306 C2330 0.950 . S
H2307 C2331 0.951 . S
H2308 C2333 0.951 . S
H2309 C2335 0.950 . S
H2310 C2336 0.950 . S
H2311 C2338 0.950 . S
H2312 C2341 0.950 . S
H2313 C2342 0.950 . S
H2314 C2344 0.950 . S
H2315 C2345 0.950 . S
C2316 H2298 0.951 . S
C2316 C2317 1.366 . S
C2316 C2318 1.388 . S
C2317 C2316 1.366 . S
C2317 C2321 1.385 . S
C2318 H2299 0.951 . S
C2318 C2316 1.388 . S
C2318 C2319 1.366 . S
C2319 C2318 1.366 . S
C2319 C2320 1.414 . S
C2319 C2322 1.499 . S
C2320 H2300 0.950 . S
C2320 C2319 1.414 . S
C2320 C2321 1.374 . S
C2321 H2301 0.950 . S
C2321 C2317 1.385 . S
C2321 C2320 1.374 . S
C2322 C2319 1.499 . S
C2322 C2323 1.373 . S
C2322 C2324 1.389 . S
C2323 H2302 0.950 . S
C2323 C2322 1.373 . S
C2323 C2339 1.377 1_655 S
C2324 C2322 1.389 . S
C2324 C2325 1.524 . S
C2324 C2338 1.377 1_655 S
C2325 C2324 1.524 . S
C2325 C2326 1.397 . S
C2325 C2330 1.363 . S
C2326 H2303 0.950 . S
C2326 C2325 1.397 . S
C2326 C2327 1.334 . S
C2327 H2304 0.950 . S
C2327 C2326 1.334 . S
C2327 C2328 1.287 . S
C2328 C2327 1.287 . S
C2328 C2329 1.524 . S
C2328 H2347 0.913 . S
C2329 H2305 0.950 . S
C2329 C2328 1.524 . S
C2329 C2330 1.415 . S
C2330 H2306 0.950 . S
C2330 C2325 1.363 . S
C2330 C2329 1.415 . S
C2331 H2307 0.951 . S
C2331 C2332 1.366 . S
C2331 C2333 1.388 . S
C2332 C2331 1.366 . S
C2332 C2336 1.385 . S
C2333 H2308 0.951 . S
C2333 C2331 1.388 . S
C2333 C2334 1.366 . S
C2334 C2333 1.366 . S
C2334 C2335 1.414 . S
C2334 C2337 1.499 . S
C2335 H2309 0.950 . S
C2335 C2334 1.414 . S
C2335 C2336 1.374 . S
C2336 H2310 0.950 . S
C2336 C2332 1.385 . S
C2336 C2335 1.374 . S
C2337 C2334 1.499 . S
C2337 C2338 1.373 . S
C2337 C2339 1.389 . S
C2338 H2311 0.950 . S
C2338 C2324 1.377 1_455 S
C2338 C2337 1.373 . S
C2339 C2323 1.377 1_455 S
C2339 C2337 1.389 . S
C2339 C2340 1.524 . S
C2340 C2339 1.524 . S
C2340 C2341 1.397 . S
C2340 C2345 1.363 . S
C2341 H2312 0.950 . S
C2341 C2340 1.397 . S
C2341 C2342 1.334 . S
C2342 H2313 0.950 . S
C2342 C2341 1.334 . S
C2342 C2343 1.287 . S
C2343 C2342 1.287 . S
C2343 C2344 1.524 . S
C2343 H2346 0.999 . S
C2344 H2314 0.950 . S
C2344 C2343 1.524 . S
C2344 C2345 1.415 . S
C2345 H2315 0.950 . S
C2345 C2340 1.363 . S
C2345 C2344 1.415 . S
H2346 C2343 0.999 . S
H2347 C2328 0.913 . S
H2348 C2366 0.951 . S
H2349 C2368 0.951 . S
H2350 C2370 0.950 . S
H2351 C2371 0.950 . S
H2352 C2373 0.950 . S
H2353 C2376 0.950 . S
H2354 C2377 0.950 . S
H2355 C2379 0.950 . S
H2356 C2380 0.950 . S
H2357 C2381 0.951 . S
H2358 C2383 0.951 . S
H2359 C2385 0.950 . S
H2360 C2386 0.950 . S
H2361 C2388 0.950 . S
H2362 C2391 0.950 . S
H2363 C2392 0.950 . S
H2364 C2394 0.950 . S
H2365 C2395 0.950 . S
C2366 H2348 0.951 . S
C2366 C2367 1.366 . S
C2366 C2368 1.388 . S
C2367 C2366 1.366 . S
C2367 C2371 1.385 . S
C2368 H2349 0.951 . S
C2368 C2366 1.388 . S
C2368 C2369 1.366 . S
C2369 C2368 1.366 . S
C2369 C2370 1.414 . S
C2369 C2372 1.499 . S
C2370 H2350 0.950 . S
C2370 C2369 1.414 . S
C2370 C2371 1.374 . S
C2371 H2351 0.950 . S
C2371 C2367 1.385 . S
C2371 C2370 1.374 . S
C2372 C2369 1.499 . S
C2372 C2373 1.373 . S
C2372 C2374 1.388 . S
C2373 H2352 0.950 . S
C2373 C2372 1.373 . S
C2373 C2389 1.378 1_565 S
C2374 C2372 1.388 . S
C2374 C2375 1.525 1_565 S
C2374 C2388 1.378 1_565 S
C2375 C2374 1.525 1_545 S
C2375 C2376 1.397 1_545 S
C2375 C2380 1.363 . S
C2376 H2353 0.950 . S
C2376 C2375 1.397 1_565 S
C2376 C2377 1.334 . S
C2377 H2354 0.950 . S
C2377 C2376 1.334 . S
C2377 C2378 1.287 1_565 S
C2378 C2377 1.287 1_545 S
C2378 C2379 1.524 . S
C2378 H2397 0.913 . S
C2379 H2355 0.950 . S
C2379 C2378 1.524 . S
C2379 C2380 1.415 . S
C2380 H2356 0.950 . S
C2380 C2375 1.363 . S
C2380 C2379 1.415 . S
C2381 H2357 0.951 . S
C2381 C2382 1.366 . S
C2381 C2383 1.388 . S
C2382 C2381 1.366 . S
C2382 C2386 1.385 . S
C2383 H2358 0.951 . S
C2383 C2381 1.388 . S
C2383 C2384 1.366 . S
C2384 C2383 1.366 . S
C2384 C2385 1.414 . S
C2384 C2387 1.499 . S
C2385 H2359 0.950 . S
C2385 C2384 1.414 . S
C2385 C2386 1.374 . S
C2386 H2360 0.950 . S
C2386 C2382 1.385 . S
C2386 C2385 1.374 . S
C2387 C2384 1.499 . S
C2387 C2388 1.373 . S
C2387 C2389 1.388 . S
C2388 H2361 0.950 . S
C2388 C2374 1.378 1_545 S
C2388 C2387 1.373 . S
C2389 C2373 1.378 1_545 S
C2389 C2387 1.388 . S
C2389 C2390 1.525 1_545 S
C2390 C2389 1.525 1_565 S
C2390 C2391 1.397 1_565 S
C2390 C2395 1.363 . S
C2391 H2362 0.950 . S
C2391 C2390 1.397 1_545 S
C2391 C2392 1.334 . S
C2392 H2363 0.950 . S
C2392 C2391 1.334 . S
C2392 C2393 1.287 1_545 S
C2393 C2392 1.287 1_565 S
C2393 C2394 1.524 . S
C2393 H2396 0.999 . S
C2394 H2364 0.950 . S
C2394 C2393 1.524 . S
C2394 C2395 1.415 . S
C2395 H2365 0.950 . S
C2395 C2390 1.363 . S
C2395 C2394 1.415 . S
H2396 C2393 0.999 . S
H2397 C2378 0.913 . S
H2398 C2416 0.951 . S
H2399 C2418 0.951 . S
H2400 C2420 0.950 . S
H2401 C2421 0.950 . S
H2402 C2423 0.950 . S
H2403 C2426 0.950 . S
H2404 C2427 0.950 . S
H2405 C2429 0.950 1_455 S
H2406 C2430 0.956 1_455 S
H2407 C2431 0.951 . S
H2408 C2433 0.951 . S
H2409 C2435 0.950 . S
H2410 C2436 0.950 . S
H2411 C2438 0.950 . S
H2412 C2441 0.950 . S
H2413 C2442 0.950 . S
H2414 C2444 0.950 1_655 S
H2415 C2445 0.956 1_655 S
C2416 H2398 0.951 . S
C2416 C2417 1.366 . S
C2416 C2418 1.388 . S
C2417 C2416 1.366 . S
C2417 C2421 1.385 . S
C2418 H2399 0.951 . S
C2418 C2416 1.388 . S
C2418 C2419 1.366 . S
C2419 C2418 1.366 . S
C2419 C2420 1.414 . S
C2419 C2422 1.499 . S
C2420 H2400 0.950 . S
C2420 C2419 1.414 . S
C2420 C2421 1.374 . S
C2421 H2401 0.950 . S
C2421 C2417 1.385 . S
C2421 C2420 1.374 . S
C2422 C2419 1.499 . S
C2422 C2423 1.373 . S
C2422 C2424 1.389 . S
C2423 H2402 0.950 . S
C2423 C2422 1.373 . S
C2423 C2439 1.377 1_655 S
C2424 C2422 1.389 . S
C2424 C2425 1.524 . S
C2424 C2438 1.377 1_655 S
C2425 C2424 1.524 . S
C2425 C2426 1.397 . S
C2425 C2430 1.359 . S
C2426 H2403 0.950 . S
C2426 C2425 1.397 . S
C2426 C2427 1.334 . S
C2427 H2404 0.950 . S
C2427 C2426 1.334 . S
C2427 C2428 1.287 . S
C2428 C2427 1.287 . S
C2428 C2429 1.524 . S
C2428 H2447 0.913 . S
C2429 H2405 0.950 1_655 S
C2429 C2428 1.524 . S
C2429 C2430 1.413 . S
C2430 H2406 0.956 1_655 S
C2430 C2425 1.359 . S
C2430 C2429 1.413 . S
C2431 H2407 0.951 . S
C2431 C2432 1.366 . S
C2431 C2433 1.388 . S
C2432 C2431 1.366 . S
C2432 C2436 1.385 . S
C2433 H2408 0.951 . S
C2433 C2431 1.388 . S
C2433 C2434 1.366 . S
C2434 C2433 1.366 . S
C2434 C2435 1.414 . S
C2434 C2437 1.499 . S
C2435 H2409 0.950 . S
C2435 C2434 1.414 . S
C2435 C2436 1.374 . S
C2436 H2410 0.950 . S
C2436 C2432 1.385 . S
C2436 C2435 1.374 . S
C2437 C2434 1.499 . S
C2437 C2438 1.373 . S
C2437 C2439 1.389 . S
C2438 H2411 0.950 . S
C2438 C2424 1.377 1_455 S
C2438 C2437 1.373 . S
C2439 C2423 1.377 1_455 S
C2439 C2437 1.389 . S
C2439 C2440 1.524 . S
C2440 C2439 1.524 . S
C2440 C2441 1.397 . S
C2440 C2445 1.359 . S
C2441 H2412 0.950 . S
C2441 C2440 1.397 . S
C2441 C2442 1.334 . S
C2442 H2413 0.950 . S
C2442 C2441 1.334 . S
C2442 C2443 1.287 . S
C2443 C2442 1.287 . S
C2443 C2444 1.524 . S
C2443 H2446 0.999 . S
C2444 H2414 0.950 1_455 S
C2444 C2443 1.524 . S
C2444 C2445 1.413 . S
C2445 H2415 0.956 1_455 S
C2445 C2440 1.359 . S
C2445 C2444 1.413 . S
H2446 C2443 0.999 . S
H2447 C2428 0.913 . S
H2448 C2466 0.951 . S
H2449 C2468 0.951 . S
H2450 C2470 0.950 . S
H2451 C2471 0.950 . S
H2452 C2473 0.950 . S
H2453 C2476 0.950 . S
H2454 C2477 0.950 . S
H2455 C2479 0.950 . S
H2456 C2480 0.950 . S
H2457 C2481 0.951 . S
H2458 C2483 0.951 . S
H2459 C2485 0.950 . S
H2460 C2486 0.950 . S
H2461 C2488 0.950 . S
H2462 C2491 0.950 . S
H2463 C2492 0.950 . S
H2464 C2494 0.950 . S
H2465 C2495 0.950 . S
C2466 H2448 0.951 . S
C2466 C2467 1.366 . S
C2466 C2468 1.388 . S
C2467 C2466 1.366 . S
C2467 C2471 1.385 . S
C2468 H2449 0.951 . S
C2468 C2466 1.388 . S
C2468 C2469 1.366 . S
C2469 C2468 1.366 . S
C2469 C2470 1.414 . S
C2469 C2472 1.499 . S
C2470 H2450 0.950 . S
C2470 C2469 1.414 . S
C2470 C2471 1.374 . S
C2471 H2451 0.950 . S
C2471 C2467 1.385 . S
C2471 C2470 1.374 . S
C2472 C2469 1.499 . S
C2472 C2473 1.373 . S
C2472 C2474 1.389 . S
C2473 H2452 0.950 . S
C2473 C2472 1.373 . S
C2473 C2489 1.377 . S
C2474 C2472 1.389 . S
C2474 C2475 1.524 . S
C2474 C2488 1.377 . S
C2475 C2474 1.524 . S
C2475 C2476 1.397 . S
C2475 C2480 1.363 . S
C2476 H2453 0.950 . S
C2476 C2475 1.397 . S
C2476 C2477 1.334 . S
C2477 H2454 0.950 . S
C2477 C2476 1.334 . S
C2477 C2478 1.287 . S
C2478 C2477 1.287 . S
C2478 C2479 1.524 . S
C2478 H2497 0.913 . S
C2479 H2455 0.950 . S
C2479 C2478 1.524 . S
C2479 C2480 1.415 . S
C2480 H2456 0.950 . S
C2480 C2475 1.363 . S
C2480 C2479 1.415 . S
C2481 H2457 0.951 . S
C2481 C2482 1.366 . S
C2481 C2483 1.388 . S
C2482 C2481 1.366 . S
C2482 C2486 1.385 . S
C2483 H2458 0.951 . S
C2483 C2481 1.388 . S
C2483 C2484 1.366 . S
C2484 C2483 1.366 . S
C2484 C2485 1.414 . S
C2484 C2487 1.499 . S
C2485 H2459 0.950 . S
C2485 C2484 1.414 . S
C2485 C2486 1.374 . S
C2486 H2460 0.950 . S
C2486 C2482 1.385 . S
C2486 C2485 1.374 . S
C2487 C2484 1.499 . S
C2487 C2488 1.373 . S
C2487 C2489 1.389 . S
C2488 H2461 0.950 . S
C2488 C2474 1.377 . S
C2488 C2487 1.373 . S
C2489 C2473 1.377 . S
C2489 C2487 1.389 . S
C2489 C2490 1.524 . S
C2490 C2489 1.524 . S
C2490 C2491 1.397 . S
C2490 C2495 1.363 . S
C2491 H2462 0.950 . S
C2491 C2490 1.397 . S
C2491 C2492 1.334 . S
C2492 H2463 0.950 . S
C2492 C2491 1.334 . S
C2492 C2493 1.287 . S
C2493 C2492 1.287 . S
C2493 C2494 1.524 . S
C2493 H2496 0.999 . S
C2494 H2464 0.950 . S
C2494 C2493 1.524 . S
C2494 C2495 1.415 . S
C2495 H2465 0.950 . S
C2495 C2490 1.363 . S
C2495 C2494 1.415 . S
H2496 C2493 0.999 . S
H2497 C2478 0.913 . S
H2498 C2516 0.951 . S
H2499 C2518 0.951 . S
H2500 C2520 0.950 . S
H2501 C2521 0.950 . S
H2502 C2523 0.950 . S
H2503 C2526 0.950 . S
H2504 C2527 0.950 . S
H2505 C2529 0.950 . S
H2506 C2530 0.950 . S
H2507 C2531 0.951 . S
H2508 C2533 0.951 . S
H2509 C2535 0.950 . S
H2510 C2536 0.950 . S
H2511 C2538 0.950 . S
H2512 C2541 0.950 . S
H2513 C2542 0.950 . S
H2514 C2544 0.950 . S
H2515 C2545 0.950 . S
C2516 H2498 0.951 . S
C2516 C2517 1.366 . S
C2516 C2518 1.388 . S
C2517 C2516 1.366 . S
C2517 C2521 1.385 . S
C2518 H2499 0.951 . S
C2518 C2516 1.388 . S
C2518 C2519 1.366 . S
C2519 C2518 1.366 . S
C2519 C2520 1.414 . S
C2519 C2522 1.499 . S
C2520 H2500 0.950 . S
C2520 C2519 1.414 . S
C2520 C2521 1.374 . S
C2521 H2501 0.950 . S
C2521 C2517 1.385 . S
C2521 C2520 1.374 . S
C2522 C2519 1.499 . S
C2522 C2523 1.373 . S
C2522 C2524 1.389 . S
C2523 H2502 0.950 . S
C2523 C2522 1.373 . S
C2523 C2539 1.377 . S
C2524 C2522 1.389 . S
C2524 C2525 1.524 . S
C2524 C2538 1.377 . S
C2525 C2524 1.524 . S
C2525 C2526 1.397 . S
C2525 C2530 1.363 . S
C2526 H2503 0.950 . S
C2526 C2525 1.397 . S
C2526 C2527 1.334 . S
C2527 H2504 0.950 . S
C2527 C2526 1.334 . S
C2527 C2528 1.287 . S
C2528 C2527 1.287 . S
C2528 C2529 1.524 . S
C2528 H2547 0.913 . S
C2529 H2505 0.950 . S
C2529 C2528 1.524 . S
C2529 C2530 1.415 . S
C2530 H2506 0.950 . S
C2530 C2525 1.363 . S
C2530 C2529 1.415 . S
C2531 H2507 0.951 . S
C2531 C2532 1.366 . S
C2531 C2533 1.388 . S
C2532 C2531 1.366 . S
C2532 C2536 1.385 . S
C2533 H2508 0.951 . S
C2533 C2531 1.388 . S
C2533 C2534 1.366 . S
C2534 C2533 1.366 . S
C2534 C2535 1.414 . S
C2534 C2537 1.499 . S
C2535 H2509 0.950 . S
C2535 C2534 1.414 . S
C2535 C2536 1.374 . S
C2536 H2510 0.950 . S
C2536 C2532 1.385 . S
C2536 C2535 1.374 . S
C2537 C2534 1.499 . S
C2537 C2538 1.373 . S
C2537 C2539 1.389 . S
C2538 H2511 0.950 . S
C2538 C2524 1.377 . S
C2538 C2537 1.373 . S
C2539 C2523 1.377 . S
C2539 C2537 1.389 . S
C2539 C2540 1.524 . S
C2540 C2539 1.524 . S
C2540 C2541 1.397 . S
C2540 C2545 1.363 . S
C2541 H2512 0.950 . S
C2541 C2540 1.397 . S
C2541 C2542 1.334 . S
C2542 H2513 0.950 . S
C2542 C2541 1.334 . S
C2542 C2543 1.287 . S
C2543 C2542 1.287 . S
C2543 C2544 1.524 . S
C2543 H2546 0.999 . S
C2544 H2514 0.950 . S
C2544 C2543 1.524 . S
C2544 C2545 1.415 . S
C2545 H2515 0.950 . S
C2545 C2540 1.363 . S
C2545 C2544 1.415 . S
H2546 C2543 0.999 . S
H2547 C2528 0.913 . S
H2548 C2566 0.951 . S
H2549 C2568 0.951 . S
H2550 C2570 0.950 . S
H2551 C2571 0.950 . S
H2552 C2573 0.950 . S
H2553 C2576 0.950 . S
H2554 C2577 0.950 . S
H2555 C2579 0.950 . S
H2556 C2580 0.950 . S
H2557 C2581 0.951 . S
H2558 C2583 0.951 . S
H2559 C2585 0.950 . S
H2560 C2586 0.950 . S
H2561 C2588 0.950 . S
H2562 C2591 0.950 . S
H2563 C2592 0.950 . S
H2564 C2594 0.950 . S
H2565 C2595 0.950 . S
C2566 H2548 0.951 . S
C2566 C2567 1.366 . S
C2566 C2568 1.388 . S
C2567 C2566 1.366 . S
C2567 C2571 1.385 . S
C2568 H2549 0.951 . S
C2568 C2566 1.388 . S
C2568 C2569 1.366 . S
C2569 C2568 1.366 . S
C2569 C2570 1.414 . S
C2569 C2572 1.499 . S
C2570 H2550 0.950 . S
C2570 C2569 1.414 . S
C2570 C2571 1.374 . S
C2571 H2551 0.950 . S
C2571 C2567 1.385 . S
C2571 C2570 1.374 . S
C2572 C2569 1.499 . S
C2572 C2573 1.373 . S
C2572 C2574 1.389 . S
C2573 H2552 0.950 . S
C2573 C2572 1.373 . S
C2573 C2589 1.377 . S
C2574 C2572 1.389 . S
C2574 C2575 1.524 . S
C2574 C2588 1.377 . S
C2575 C2574 1.524 . S
C2575 C2576 1.397 . S
C2575 C2580 1.363 . S
C2576 H2553 0.950 . S
C2576 C2575 1.397 . S
C2576 C2577 1.334 . S
C2577 H2554 0.950 . S
C2577 C2576 1.334 . S
C2577 C2578 1.287 . S
C2578 C2577 1.287 . S
C2578 C2579 1.524 . S
C2578 H2597 0.913 . S
C2579 H2555 0.950 . S
C2579 C2578 1.524 . S
C2579 C2580 1.415 . S
C2580 H2556 0.950 . S
C2580 C2575 1.363 . S
C2580 C2579 1.415 . S
C2581 H2557 0.951 . S
C2581 C2582 1.366 . S
C2581 C2583 1.388 . S
C2582 C2581 1.366 . S
C2582 C2586 1.385 . S
C2583 H2558 0.951 . S
C2583 C2581 1.388 . S
C2583 C2584 1.366 . S
C2584 C2583 1.366 . S
C2584 C2585 1.414 . S
C2584 C2587 1.499 . S
C2585 H2559 0.950 . S
C2585 C2584 1.414 . S
C2585 C2586 1.374 . S
C2586 H2560 0.950 . S
C2586 C2582 1.385 . S
C2586 C2585 1.374 . S
C2587 C2584 1.499 . S
C2587 C2588 1.373 . S
C2587 C2589 1.389 . S
C2588 H2561 0.950 . S
C2588 C2574 1.377 . S
C2588 C2587 1.373 . S
C2589 C2573 1.377 . S
C2589 C2587 1.389 . S
C2589 C2590 1.524 . S
C2590 C2589 1.524 . S
C2590 C2591 1.397 . S
C2590 C2595 1.363 . S
C2591 H2562 0.950 . S
C2591 C2590 1.397 . S
C2591 C2592 1.334 . S
C2592 H2563 0.950 . S
C2592 C2591 1.334 . S
C2592 C2593 1.287 . S
C2593 C2592 1.287 . S
C2593 C2594 1.524 . S
C2593 H2596 0.999 . S
C2594 H2564 0.950 . S
C2594 C2593 1.524 . S
C2594 C2595 1.415 . S
C2595 H2565 0.950 . S
C2595 C2590 1.363 . S
C2595 C2594 1.415 . S
H2596 C2593 0.999 . S
H2597 C2578 0.913 . S
H2598 C2616 0.951 . S
H2599 C2618 0.951 . S
H2600 C2620 0.950 . S
H2601 C2621 0.950 . S
H2602 C2623 0.950 . S
H2603 C2626 0.950 . S
H2604 C2627 0.950 . S
H2605 C2629 0.950 . S
H2606 C2630 0.950 . S
H2607 C2631 0.951 . S
H2608 C2633 0.951 . S
H2609 C2635 0.950 . S
H2610 C2636 0.950 . S
H2611 C2638 0.950 . S
H2612 C2641 0.950 . S
H2613 C2642 0.950 . S
H2614 C2644 0.950 . S
H2615 C2645 0.950 . S
C2616 H2598 0.951 . S
C2616 C2617 1.366 . S
C2616 C2618 1.388 . S
C2617 C2616 1.366 . S
C2617 C2621 1.385 . S
C2618 H2599 0.951 . S
C2618 C2616 1.388 . S
C2618 C2619 1.366 . S
C2619 C2618 1.366 . S
C2619 C2620 1.414 . S
C2619 C2622 1.499 . S
C2620 H2600 0.950 . S
C2620 C2619 1.414 . S
C2620 C2621 1.374 . S
C2621 H2601 0.950 . S
C2621 C2617 1.385 . S
C2621 C2620 1.374 . S
C2622 C2619 1.499 . S
C2622 C2623 1.373 . S
C2622 C2624 1.389 . S
C2623 H2602 0.950 . S
C2623 C2622 1.373 . S
C2623 C2639 1.377 . S
C2624 C2622 1.389 . S
C2624 C2625 1.524 . S
C2624 C2638 1.377 . S
C2625 C2624 1.524 . S
C2625 C2626 1.397 . S
C2625 C2630 1.363 . S
C2626 H2603 0.950 . S
C2626 C2625 1.397 . S
C2626 C2627 1.334 . S
C2627 H2604 0.950 . S
C2627 C2626 1.334 . S
C2627 C2628 1.287 . S
C2628 C2627 1.287 . S
C2628 C2629 1.524 . S
C2628 H2647 0.913 . S
C2629 H2605 0.950 . S
C2629 C2628 1.524 . S
C2629 C2630 1.415 . S
C2630 H2606 0.950 . S
C2630 C2625 1.363 . S
C2630 C2629 1.415 . S
C2631 H2607 0.951 . S
C2631 C2632 1.366 . S
C2631 C2633 1.388 . S
C2632 C2631 1.366 . S
C2632 C2636 1.385 . S
C2633 H2608 0.951 . S
C2633 C2631 1.388 . S
C2633 C2634 1.366 . S
C2634 C2633 1.366 . S
C2634 C2635 1.414 . S
C2634 C2637 1.499 . S
C2635 H2609 0.950 . S
C2635 C2634 1.414 . S
C2635 C2636 1.374 . S
C2636 H2610 0.950 . S
C2636 C2632 1.385 . S
C2636 C2635 1.374 . S
C2637 C2634 1.499 . S
C2637 C2638 1.373 . S
C2637 C2639 1.389 . S
C2638 H2611 0.950 . S
C2638 C2624 1.377 . S
C2638 C2637 1.373 . S
C2639 C2623 1.377 . S
C2639 C2637 1.389 . S
C2639 C2640 1.524 . S
C2640 C2639 1.524 . S
C2640 C2641 1.397 . S
C2640 C2645 1.363 . S
C2641 H2612 0.950 . S
C2641 C2640 1.397 . S
C2641 C2642 1.334 . S
C2642 H2613 0.950 . S
C2642 C2641 1.334 . S
C2642 C2643 1.287 . S
C2643 C2642 1.287 . S
C2643 C2644 1.524 . S
C2643 H2646 0.999 . S
C2644 H2614 0.950 . S
C2644 C2643 1.524 . S
C2644 C2645 1.415 . S
C2645 H2615 0.950 . S
C2645 C2640 1.363 . S
C2645 C2644 1.415 . S
H2646 C2643 0.999 . S
H2647 C2628 0.913 . S
H2648 C2666 0.951 . S
H2649 C2668 0.951 . S
H2650 C2670 0.950 . S
H2651 C2671 0.950 . S
H2652 C2673 0.950 . S
H2653 C2676 0.950 . S
H2654 C2677 0.950 . S
H2655 C2679 0.950 . S
H2656 C2680 0.950 . S
H2657 C2681 0.951 . S
H2658 C2683 0.951 . S
H2659 C2685 0.950 . S
H2660 C2686 0.950 . S
H2661 C2688 0.950 . S
H2662 C2691 0.950 . S
H2663 C2692 0.950 . S
H2664 C2694 0.950 . S
H2665 C2695 0.950 . S
C2666 H2648 0.951 . S
C2666 C2667 1.366 . S
C2666 C2668 1.388 . S
C2667 C2666 1.366 . S
C2667 C2671 1.385 . S
C2668 H2649 0.951 . S
C2668 C2666 1.388 . S
C2668 C2669 1.366 . S
C2669 C2668 1.366 . S
C2669 C2670 1.414 . S
C2669 C2672 1.499 . S
C2670 H2650 0.950 . S
C2670 C2669 1.414 . S
C2670 C2671 1.374 . S
C2671 H2651 0.950 . S
C2671 C2667 1.385 . S
C2671 C2670 1.374 . S
C2672 C2669 1.499 . S
C2672 C2673 1.373 . S
C2672 C2674 1.389 . S
C2673 H2652 0.950 . S
C2673 C2672 1.373 . S
C2673 C2689 1.377 . S
C2674 C2672 1.389 . S
C2674 C2675 1.524 . S
C2674 C2688 1.377 . S
C2675 C2674 1.524 . S
C2675 C2676 1.397 . S
C2675 C2680 1.363 . S
C2676 H2653 0.950 . S
C2676 C2675 1.397 . S
C2676 C2677 1.334 . S
C2677 H2654 0.950 . S
C2677 C2676 1.334 . S
C2677 C2678 1.287 . S
C2678 C2677 1.287 . S
C2678 C2679 1.524 . S
C2678 H2697 0.913 . S
C2679 H2655 0.950 . S
C2679 C2678 1.524 . S
C2679 C2680 1.415 . S
C2680 H2656 0.950 . S
C2680 C2675 1.363 . S
C2680 C2679 1.415 . S
C2681 H2657 0.951 . S
C2681 C2682 1.366 . S
C2681 C2683 1.388 . S
C2682 C2681 1.366 . S
C2682 C2686 1.385 . S
C2683 H2658 0.951 . S
C2683 C2681 1.388 . S
C2683 C2684 1.366 . S
C2684 C2683 1.366 . S
C2684 C2685 1.414 . S
C2684 C2687 1.499 . S
C2685 H2659 0.950 . S
C2685 C2684 1.414 . S
C2685 C2686 1.374 . S
C2686 H2660 0.950 . S
C2686 C2682 1.385 . S
C2686 C2685 1.374 . S
C2687 C2684 1.499 . S
C2687 C2688 1.373 . S
C2687 C2689 1.389 . S
C2688 H2661 0.950 . S
C2688 C2674 1.377 . S
C2688 C2687 1.373 . S
C2689 C2673 1.377 . S
C2689 C2687 1.389 . S
C2689 C2690 1.524 . S
C2690 C2689 1.524 . S
C2690 C2691 1.397 . S
C2690 C2695 1.363 . S
C2691 H2662 0.950 . S
C2691 C2690 1.397 . S
C2691 C2692 1.334 . S
C2692 H2663 0.950 . S
C2692 C2691 1.334 . S
C2692 C2693 1.287 . S
C2693 C2692 1.287 . S
C2693 C2694 1.524 . S
C2693 H2696 0.999 . S
C2694 H2664 0.950 . S
C2694 C2693 1.524 . S
C2694 C2695 1.415 . S
C2695 H2665 0.950 . S
C2695 C2690 1.363 . S
C2695 C2694 1.415 . S
H2696 C2693 0.999 . S
H2697 C2678 0.913 . S
H2698 C2716 0.951 . S
H2699 C2718 0.951 . S
H2700 C2720 0.950 . S
H2701 C2721 0.950 . S
H2702 C2723 0.950 . S
H2703 C2726 0.950 . S
H2704 C2727 0.950 . S
H2705 C2729 0.950 . S
H2706 C2730 0.950 . S
H2707 C2731 0.951 . S
H2708 C2733 0.951 . S
H2709 C2735 0.950 . S
H2710 C2736 0.950 . S
H2711 C2738 0.950 . S
H2712 C2741 0.950 . S
H2713 C2742 0.950 . S
H2714 C2744 0.950 . S
H2715 C2745 0.950 . S
C2716 H2698 0.951 . S
C2716 C2717 1.366 . S
C2716 C2718 1.388 . S
C2717 C2716 1.366 . S
C2717 C2721 1.385 . S
C2718 H2699 0.951 . S
C2718 C2716 1.388 . S
C2718 C2719 1.366 . S
C2719 C2718 1.366 . S
C2719 C2720 1.414 . S
C2719 C2722 1.499 . S
C2720 H2700 0.950 . S
C2720 C2719 1.414 . S
C2720 C2721 1.374 . S
C2721 H2701 0.950 . S
C2721 C2717 1.385 . S
C2721 C2720 1.374 . S
C2722 C2719 1.499 . S
C2722 C2723 1.373 . S
C2722 C2724 1.389 . S
C2723 H2702 0.950 . S
C2723 C2722 1.373 . S
C2723 C2739 1.377 . S
C2724 C2722 1.389 . S
C2724 C2725 1.524 . S
C2724 C2738 1.377 . S
C2725 C2724 1.524 . S
C2725 C2726 1.397 . S
C2725 C2730 1.363 . S
C2726 H2703 0.950 . S
C2726 C2725 1.397 . S
C2726 C2727 1.334 . S
C2727 H2704 0.950 . S
C2727 C2726 1.334 . S
C2727 C2728 1.287 . S
C2728 C2727 1.287 . S
C2728 C2729 1.524 . S
C2728 H2747 0.913 . S
C2729 H2705 0.950 . S
C2729 C2728 1.524 . S
C2729 C2730 1.415 . S
C2730 H2706 0.950 . S
C2730 C2725 1.363 . S
C2730 C2729 1.415 . S
C2731 H2707 0.951 . S
C2731 C2732 1.366 . S
C2731 C2733 1.388 . S
C2732 C2731 1.366 . S
C2732 C2736 1.385 . S
C2733 H2708 0.951 . S
C2733 C2731 1.388 . S
C2733 C2734 1.366 . S
C2734 C2733 1.366 . S
C2734 C2735 1.414 . S
C2734 C2737 1.499 . S
C2735 H2709 0.950 . S
C2735 C2734 1.414 . S
C2735 C2736 1.374 . S
C2736 H2710 0.950 . S
C2736 C2732 1.385 . S
C2736 C2735 1.374 . S
C2737 C2734 1.499 . S
C2737 C2738 1.373 . S
C2737 C2739 1.389 . S
C2738 H2711 0.950 . S
C2738 C2724 1.377 . S
C2738 C2737 1.373 . S
C2739 C2723 1.377 . S
C2739 C2737 1.389 . S
C2739 C2740 1.524 . S
C2740 C2739 1.524 . S
C2740 C2741 1.397 . S
C2740 C2745 1.363 . S
C2741 H2712 0.950 . S
C2741 C2740 1.397 . S
C2741 C2742 1.334 . S
C2742 H2713 0.950 . S
C2742 C2741 1.334 . S
C2742 C2743 1.287 . S
C2743 C2742 1.287 . S
C2743 C2744 1.524 . S
C2743 H2746 0.999 . S
C2744 H2714 0.950 . S
C2744 C2743 1.524 . S
C2744 C2745 1.415 . S
C2745 H2715 0.950 . S
C2745 C2740 1.363 . S
C2745 C2744 1.415 . S
H2746 C2743 0.999 . S
H2747 C2728 0.913 . S
H2748 C2766 0.951 . S
H2749 C2768 0.951 . S
H2750 C2770 0.950 . S
H2751 C2771 0.950 . S
H2752 C2773 0.950 . S
H2753 C2776 0.950 . S
H2754 C2777 0.950 . S
H2755 C2779 0.950 . S
H2756 C2780 0.950 . S
H2757 C2781 0.951 . S
H2758 C2783 0.951 . S
H2759 C2785 0.950 . S
H2760 C2786 0.950 . S
H2761 C2788 0.950 . S
H2762 C2791 0.950 . S
H2763 C2792 0.950 . S
H2764 C2794 0.950 . S
H2765 C2795 0.950 . S
C2766 H2748 0.951 . S
C2766 C2767 1.366 . S
C2766 C2768 1.388 . S
C2767 C2766 1.366 . S
C2767 C2771 1.385 . S
C2768 H2749 0.951 . S
C2768 C2766 1.388 . S
C2768 C2769 1.366 . S
C2769 C2768 1.366 . S
C2769 C2770 1.414 . S
C2769 C2772 1.499 . S
C2770 H2750 0.950 . S
C2770 C2769 1.414 . S
C2770 C2771 1.374 . S
C2771 H2751 0.950 . S
C2771 C2767 1.385 . S
C2771 C2770 1.374 . S
C2772 C2769 1.499 . S
C2772 C2773 1.373 . S
C2772 C2774 1.389 . S
C2773 H2752 0.950 . S
C2773 C2772 1.373 . S
C2773 C2789 1.377 . S
C2774 C2772 1.389 . S
C2774 C2775 1.524 . S
C2774 C2788 1.377 . S
C2775 C2774 1.524 . S
C2775 C2776 1.397 . S
C2775 C2780 1.363 . S
C2776 H2753 0.950 . S
C2776 C2775 1.397 . S
C2776 C2777 1.334 . S
C2777 H2754 0.950 . S
C2777 C2776 1.334 . S
C2777 C2778 1.287 . S
C2778 C2777 1.287 . S
C2778 C2779 1.524 . S
C2778 H2797 0.913 . S
C2779 H2755 0.950 . S
C2779 C2778 1.524 . S
C2779 C2780 1.415 . S
C2780 H2756 0.950 . S
C2780 C2775 1.363 . S
C2780 C2779 1.415 . S
C2781 H2757 0.951 . S
C2781 C2782 1.366 . S
C2781 C2783 1.388 . S
C2782 C2781 1.366 . S
C2782 C2786 1.385 . S
C2783 H2758 0.951 . S
C2783 C2781 1.388 . S
C2783 C2784 1.366 . S
C2784 C2783 1.366 . S
C2784 C2785 1.414 . S
C2784 C2787 1.499 . S
C2785 H2759 0.950 . S
C2785 C2784 1.414 . S
C2785 C2786 1.374 . S
C2786 H2760 0.950 . S
C2786 C2782 1.385 . S
C2786 C2785 1.374 . S
C2787 C2784 1.499 . S
C2787 C2788 1.373 . S
C2787 C2789 1.389 . S
C2788 H2761 0.950 . S
C2788 C2774 1.377 . S
C2788 C2787 1.373 . S
C2789 C2773 1.377 . S
C2789 C2787 1.389 . S
C2789 C2790 1.524 . S
C2790 C2789 1.524 . S
C2790 C2791 1.397 . S
C2790 C2795 1.363 . S
C2791 H2762 0.950 . S
C2791 C2790 1.397 . S
C2791 C2792 1.334 . S
C2792 H2763 0.950 . S
C2792 C2791 1.334 . S
C2792 C2793 1.287 . S
C2793 C2792 1.287 . S
C2793 C2794 1.524 . S
C2793 H2796 0.999 . S
C2794 H2764 0.950 . S
C2794 C2793 1.524 . S
C2794 C2795 1.415 . S
C2795 H2765 0.950 . S
C2795 C2790 1.363 . S
C2795 C2794 1.415 . S
H2796 C2793 0.999 . S
H2797 C2778 0.913 . S
H2798 C2816 0.951 . S
H2799 C2818 0.951 . S
H2800 C2820 0.950 . S
H2801 C2821 0.950 . S
H2802 C2823 0.950 . S
H2803 C2826 0.950 . S
H2804 C2827 0.950 . S
H2805 C2829 0.950 . S
H2806 C2830 0.950 . S
H2807 C2831 0.951 . S
H2808 C2833 0.951 . S
H2809 C2835 0.950 . S
H2810 C2836 0.950 . S
H2811 C2838 0.950 . S
H2812 C2841 0.950 . S
H2813 C2842 0.950 . S
H2814 C2844 0.950 . S
H2815 C2845 0.950 . S
C2816 H2798 0.951 . S
C2816 C2817 1.366 . S
C2816 C2818 1.388 . S
C2817 C2816 1.366 . S
C2817 C2821 1.385 . S
C2818 H2799 0.951 . S
C2818 C2816 1.388 . S
C2818 C2819 1.366 . S
C2819 C2818 1.366 . S
C2819 C2820 1.414 . S
C2819 C2822 1.499 . S
C2820 H2800 0.950 . S
C2820 C2819 1.414 . S
C2820 C2821 1.374 . S
C2821 H2801 0.950 . S
C2821 C2817 1.385 . S
C2821 C2820 1.374 . S
C2822 C2819 1.499 . S
C2822 C2823 1.373 . S
C2822 C2824 1.389 . S
C2823 H2802 0.950 . S
C2823 C2822 1.373 . S
C2823 C2839 1.377 . S
C2824 C2822 1.389 . S
C2824 C2825 1.524 . S
C2824 C2838 1.377 . S
C2825 C2824 1.524 . S
C2825 C2826 1.397 . S
C2825 C2830 1.363 . S
C2826 H2803 0.950 . S
C2826 C2825 1.397 . S
C2826 C2827 1.334 . S
C2827 H2804 0.950 . S
C2827 C2826 1.334 . S
C2827 C2828 1.287 . S
C2828 C2827 1.287 . S
C2828 C2829 1.524 . S
C2828 H2847 0.913 . S
C2829 H2805 0.950 . S
C2829 C2828 1.524 . S
C2829 C2830 1.415 . S
C2830 H2806 0.950 . S
C2830 C2825 1.363 . S
C2830 C2829 1.415 . S
C2831 H2807 0.951 . S
C2831 C2832 1.366 . S
C2831 C2833 1.388 . S
C2832 C2831 1.366 . S
C2832 C2836 1.385 . S
C2833 H2808 0.951 . S
C2833 C2831 1.388 . S
C2833 C2834 1.366 . S
C2834 C2833 1.366 . S
C2834 C2835 1.414 . S
C2834 C2837 1.499 . S
C2835 H2809 0.950 . S
C2835 C2834 1.414 . S
C2835 C2836 1.374 . S
C2836 H2810 0.950 . S
C2836 C2832 1.385 . S
C2836 C2835 1.374 . S
C2837 C2834 1.499 . S
C2837 C2838 1.373 . S
C2837 C2839 1.389 . S
C2838 H2811 0.950 . S
C2838 C2824 1.377 . S
C2838 C2837 1.373 . S
C2839 C2823 1.377 . S
C2839 C2837 1.389 . S
C2839 C2840 1.524 . S
C2840 C2839 1.524 . S
C2840 C2841 1.397 . S
C2840 C2845 1.363 . S
C2841 H2812 0.950 . S
C2841 C2840 1.397 . S
C2841 C2842 1.334 . S
C2842 H2813 0.950 . S
C2842 C2841 1.334 . S
C2842 C2843 1.287 . S
C2843 C2842 1.287 . S
C2843 C2844 1.524 . S
C2843 H2846 0.999 . S
C2844 H2814 0.950 . S
C2844 C2843 1.524 . S
C2844 C2845 1.415 . S
C2845 H2815 0.950 . S
C2845 C2840 1.363 . S
C2845 C2844 1.415 . S
H2846 C2843 0.999 . S
H2847 C2828 0.913 . S
H2848 C2866 0.951 . S
H2849 C2868 0.951 . S
H2850 C2870 0.950 . S
H2851 C2871 0.950 . S
H2852 C2873 0.950 . S
H2853 C2876 0.950 . S
H2854 C2877 0.950 . S
H2855 C2879 0.950 . S
H2856 C2880 0.950 . S
H2857 C2881 0.951 . S
H2858 C2883 0.951 . S
H2859 C2885 0.950 . S
H2860 C2886 0.950 . S
H2861 C2888 0.950 . S
H2862 C2891 0.950 . S
H2863 C2892 0.950 . S
H2864 C2894 0.950 . S
H2865 C2895 0.950 . S
C2866 H2848 0.951 . S
C2866 C2867 1.366 . S
C2866 C2868 1.388 . S
C2867 C2866 1.366 . S
C2867 C2871 1.385 . S
C2868 H2849 0.951 . S
C2868 C2866 1.388 . S
C2868 C2869 1.366 . S
C2869 C2868 1.366 . S
C2869 C2870 1.414 . S
C2869 C2872 1.499 . S
C2870 H2850 0.950 . S
C2870 C2869 1.414 . S
C2870 C2871 1.374 . S
C2871 H2851 0.950 . S
C2871 C2867 1.385 . S
C2871 C2870 1.374 . S
C2872 C2869 1.499 . S
C2872 C2873 1.373 . S
C2872 C2874 1.389 . S
C2873 H2852 0.950 . S
C2873 C2872 1.373 . S
C2873 C2889 1.377 . S
C2874 C2872 1.389 . S
C2874 C2875 1.524 . S
C2874 C2888 1.377 . S
C2875 C2874 1.524 . S
C2875 C2876 1.397 . S
C2875 C2880 1.363 . S
C2876 H2853 0.950 . S
C2876 C2875 1.397 . S
C2876 C2877 1.334 . S
C2877 H2854 0.950 . S
C2877 C2876 1.334 . S
C2877 C2878 1.287 . S
C2878 C2877 1.287 . S
C2878 C2879 1.524 . S
C2878 H2897 0.913 . S
C2879 H2855 0.950 . S
C2879 C2878 1.524 . S
C2879 C2880 1.415 . S
C2880 H2856 0.950 . S
C2880 C2875 1.363 . S
C2880 C2879 1.415 . S
C2881 H2857 0.951 . S
C2881 C2882 1.366 . S
C2881 C2883 1.388 . S
C2882 C2881 1.366 . S
C2882 C2886 1.385 . S
C2883 H2858 0.951 . S
C2883 C2881 1.388 . S
C2883 C2884 1.366 . S
C2884 C2883 1.366 . S
C2884 C2885 1.414 . S
C2884 C2887 1.499 . S
C2885 H2859 0.950 . S
C2885 C2884 1.414 . S
C2885 C2886 1.374 . S
C2886 H2860 0.950 . S
C2886 C2882 1.385 . S
C2886 C2885 1.374 . S
C2887 C2884 1.499 . S
C2887 C2888 1.373 . S
C2887 C2889 1.389 . S
C2888 H2861 0.950 . S
C2888 C2874 1.377 . S
C2888 C2887 1.373 . S
C2889 C2873 1.377 . S
C2889 C2887 1.389 . S
C2889 C2890 1.524 . S
C2890 C2889 1.524 . S
C2890 C2891 1.397 . S
C2890 C2895 1.363 . S
C2891 H2862 0.950 . S
C2891 C2890 1.397 . S
C2891 C2892 1.334 . S
C2892 H2863 0.950 . S
C2892 C2891 1.334 . S
C2892 C2893 1.287 . S
C2893 C2892 1.287 . S
C2893 C2894 1.524 . S
C2893 H2896 0.999 . S
C2894 H2864 0.950 . S
C2894 C2893 1.524 . S
C2894 C2895 1.415 . S
C2895 H2865 0.950 . S
C2895 C2890 1.363 . S
C2895 C2894 1.415 . S
H2896 C2893 0.999 . S
H2897 C2878 0.913 . S
H2898 C2916 0.951 . S
H2899 C2918 0.951 . S
H2900 C2920 0.950 . S
H2901 C2921 0.950 . S
H2902 C2923 0.950 . S
H2903 C2926 0.950 . S
H2904 C2927 0.950 . S
H2905 C2929 0.950 . S
H2906 C2930 0.950 . S
H2907 C2931 0.951 . S
H2908 C2933 0.951 . S
H2909 C2935 0.950 . S
H2910 C2936 0.950 . S
H2911 C2938 0.950 . S
H2912 C2941 0.950 . S
H2913 C2942 0.950 . S
H2914 C2944 0.950 . S
H2915 C2945 0.950 . S
C2916 H2898 0.951 . S
C2916 C2917 1.366 . S
C2916 C2918 1.388 . S
C2917 C2916 1.366 . S
C2917 C2921 1.385 . S
C2918 H2899 0.951 . S
C2918 C2916 1.388 . S
C2918 C2919 1.366 . S
C2919 C2918 1.366 . S
C2919 C2920 1.414 . S
C2919 C2922 1.499 . S
C2920 H2900 0.950 . S
C2920 C2919 1.414 . S
C2920 C2921 1.374 . S
C2921 H2901 0.950 . S
C2921 C2917 1.385 . S
C2921 C2920 1.374 . S
C2922 C2919 1.499 . S
C2922 C2923 1.373 . S
C2922 C2924 1.389 . S
C2923 H2902 0.950 . S
C2923 C2922 1.373 . S
C2923 C2939 1.377 . S
C2924 C2922 1.389 . S
C2924 C2925 1.524 . S
C2924 C2938 1.377 . S
C2925 C2924 1.524 . S
C2925 C2926 1.397 . S
C2925 C2930 1.363 . S
C2926 H2903 0.950 . S
C2926 C2925 1.397 . S
C2926 C2927 1.334 . S
C2927 H2904 0.950 . S
C2927 C2926 1.334 . S
C2927 C2928 1.287 . S
C2928 C2927 1.287 . S
C2928 C2929 1.524 . S
C2928 H2947 0.913 . S
C2929 H2905 0.950 . S
C2929 C2928 1.524 . S
C2929 C2930 1.415 . S
C2930 H2906 0.950 . S
C2930 C2925 1.363 . S
C2930 C2929 1.415 . S
C2931 H2907 0.951 . S
C2931 C2932 1.366 . S
C2931 C2933 1.388 . S
C2932 C2931 1.366 . S
C2932 C2936 1.385 . S
C2933 H2908 0.951 . S
C2933 C2931 1.388 . S
C2933 C2934 1.366 . S
C2934 C2933 1.366 . S
C2934 C2935 1.414 . S
C2934 C2937 1.499 . S
C2935 H2909 0.950 . S
C2935 C2934 1.414 . S
C2935 C2936 1.374 . S
C2936 H2910 0.950 . S
C2936 C2932 1.385 . S
C2936 C2935 1.374 . S
C2937 C2934 1.499 . S
C2937 C2938 1.373 . S
C2937 C2939 1.389 . S
C2938 H2911 0.950 . S
C2938 C2924 1.377 . S
C2938 C2937 1.373 . S
C2939 C2923 1.377 . S
C2939 C2937 1.389 . S
C2939 C2940 1.524 . S
C2940 C2939 1.524 . S
C2940 C2941 1.397 . S
C2940 C2945 1.363 . S
C2941 H2912 0.950 . S
C2941 C2940 1.397 . S
C2941 C2942 1.334 . S
C2942 H2913 0.950 . S
C2942 C2941 1.334 . S
C2942 C2943 1.287 . S
C2943 C2942 1.287 . S
C2943 C2944 1.524 . S
C2943 H2946 0.999 . S
C2944 H2914 0.950 . S
C2944 C2943 1.524 . S
C2944 C2945 1.415 . S
C2945 H2915 0.950 . S
C2945 C2940 1.363 . S
C2945 C2944 1.415 . S
H2946 C2943 0.999 . S
H2947 C2928 0.913 . S
H2948 C2966 0.951 . S
H2949 C2968 0.951 . S
H2950 C2970 0.950 . S
H2951 C2971 0.950 . S
H2952 C2973 0.950 . S
H2953 C2976 0.950 . S
H2954 C2977 0.950 . S
H2955 C2979 0.950 . S
H2956 C2980 0.950 . S
H2957 C2981 0.951 . S
H2958 C2983 0.951 . S
H2959 C2985 0.950 . S
H2960 C2986 0.950 . S
H2961 C2988 0.950 . S
H2962 C2991 0.950 . S
H2963 C2992 0.950 . S
H2964 C2994 0.950 . S
H2965 C2995 0.950 . S
C2966 H2948 0.951 . S
C2966 C2967 1.366 . S
C2966 C2968 1.388 . S
C2967 C2966 1.366 . S
C2967 C2971 1.385 . S
C2968 H2949 0.951 . S
C2968 C2966 1.388 . S
C2968 C2969 1.366 . S
C2969 C2968 1.366 . S
C2969 C2970 1.414 . S
C2969 C2972 1.499 . S
C2970 H2950 0.950 . S
C2970 C2969 1.414 . S
C2970 C2971 1.374 . S
C2971 H2951 0.950 . S
C2971 C2967 1.385 . S
C2971 C2970 1.374 . S
C2972 C2969 1.499 . S
C2972 C2973 1.373 . S
C2972 C2974 1.389 . S
C2973 H2952 0.950 . S
C2973 C2972 1.373 . S
C2973 C2989 1.377 . S
C2974 C2972 1.389 . S
C2974 C2975 1.524 . S
C2974 C2988 1.377 . S
C2975 C2974 1.524 . S
C2975 C2976 1.397 . S
C2975 C2980 1.363 . S
C2976 H2953 0.950 . S
C2976 C2975 1.397 . S
C2976 C2977 1.334 . S
C2977 H2954 0.950 . S
C2977 C2976 1.334 . S
C2977 C2978 1.287 . S
C2978 C2977 1.287 . S
C2978 C2979 1.524 . S
C2978 H2997 0.913 . S
C2979 H2955 0.950 . S
C2979 C2978 1.524 . S
C2979 C2980 1.415 . S
C2980 H2956 0.950 . S
C2980 C2975 1.363 . S
C2980 C2979 1.415 . S
C2981 H2957 0.951 . S
C2981 C2982 1.366 . S
C2981 C2983 1.388 . S
C2982 C2981 1.366 . S
C2982 C2986 1.385 . S
C2983 H2958 0.951 . S
C2983 C2981 1.388 . S
C2983 C2984 1.366 . S
C2984 C2983 1.366 . S
C2984 C2985 1.414 . S
C2984 C2987 1.499 . S
C2985 H2959 0.950 . S
C2985 C2984 1.414 . S
C2985 C2986 1.374 . S
C2986 H2960 0.950 . S
C2986 C2982 1.385 . S
C2986 C2985 1.374 . S
C2987 C2984 1.499 . S
C2987 C2988 1.373 . S
C2987 C2989 1.389 . S
C2988 H2961 0.950 . S
C2988 C2974 1.377 . S
C2988 C2987 1.373 . S
C2989 C2973 1.377 . S
C2989 C2987 1.389 . S
C2989 C2990 1.524 . S
C2990 C2989 1.524 . S
C2990 C2991 1.397 . S
C2990 C2995 1.363 . S
C2991 H2962 0.950 . S
C2991 C2990 1.397 . S
C2991 C2992 1.334 . S
C2992 H2963 0.950 . S
C2992 C2991 1.334 . S
C2992 C2993 1.287 . S
C2993 C2992 1.287 . S
C2993 C2994 1.524 . S
C2993 H2996 0.999 . S
C2994 H2964 0.950 . S
C2994 C2993 1.524 . S
C2994 C2995 1.415 . S
C2995 H2965 0.950 . S
C2995 C2990 1.363 . S
C2995 C2994 1.415 . S
H2996 C2993 0.999 . S
H2997 C2978 0.913 . S
H2998 C3016 0.951 . S
H2999 C3018 0.951 . S
H3000 C3020 0.950 . S
H3001 C3021 0.950 . S
H3002 C3023 0.950 . S
H3003 C3026 0.950 . S
H3004 C3027 0.950 . S
H3005 C3029 0.950 . S
H3006 C3030 0.950 . S
H3007 C3031 0.951 . S
H3008 C3033 0.951 . S
H3009 C3035 0.950 . S
H3010 C3036 0.950 . S
H3011 C3038 0.950 . S
H3012 C3041 0.950 . S
H3013 C3042 0.950 . S
H3014 C3044 0.950 . S
H3015 C3045 0.950 . S
C3016 H2998 0.951 . S
C3016 C3017 1.366 . S
C3016 C3018 1.388 . S
C3017 C3016 1.366 . S
C3017 C3021 1.385 . S
C3018 H2999 0.951 . S
C3018 C3016 1.388 . S
C3018 C3019 1.366 . S
C3019 C3018 1.366 . S
C3019 C3020 1.414 . S
C3019 C3022 1.499 . S
C3020 H3000 0.950 . S
C3020 C3019 1.414 . S
C3020 C3021 1.374 . S
C3021 H3001 0.950 . S
C3021 C3017 1.385 . S
C3021 C3020 1.374 . S
C3022 C3019 1.499 . S
C3022 C3023 1.373 . S
C3022 C3024 1.389 . S
C3023 H3002 0.950 . S
C3023 C3022 1.373 . S
C3023 C3039 1.377 . S
C3024 C3022 1.389 . S
C3024 C3025 1.524 . S
C3024 C3038 1.377 . S
C3025 C3024 1.524 . S
C3025 C3026 1.397 . S
C3025 C3030 1.363 . S
C3026 H3003 0.950 . S
C3026 C3025 1.397 . S
C3026 C3027 1.334 . S
C3027 H3004 0.950 . S
C3027 C3026 1.334 . S
C3027 C3028 1.287 . S
C3028 C3027 1.287 . S
C3028 C3029 1.524 . S
C3028 H3047 0.913 . S
C3029 H3005 0.950 . S
C3029 C3028 1.524 . S
C3029 C3030 1.415 . S
C3030 H3006 0.950 . S
C3030 C3025 1.363 . S
C3030 C3029 1.415 . S
C3031 H3007 0.951 . S
C3031 C3032 1.366 . S
C3031 C3033 1.388 . S
C3032 C3031 1.366 . S
C3032 C3036 1.385 . S
C3033 H3008 0.951 . S
C3033 C3031 1.388 . S
C3033 C3034 1.366 . S
C3034 C3033 1.366 . S
C3034 C3035 1.414 . S
C3034 C3037 1.499 . S
C3035 H3009 0.950 . S
C3035 C3034 1.414 . S
C3035 C3036 1.374 . S
C3036 H3010 0.950 . S
C3036 C3032 1.385 . S
C3036 C3035 1.374 . S
C3037 C3034 1.499 . S
C3037 C3038 1.373 . S
C3037 C3039 1.389 . S
C3038 H3011 0.950 . S
C3038 C3024 1.377 . S
C3038 C3037 1.373 . S
C3039 C3023 1.377 . S
C3039 C3037 1.389 . S
C3039 C3040 1.524 . S
C3040 C3039 1.524 . S
C3040 C3041 1.397 . S
C3040 C3045 1.363 . S
C3041 H3012 0.950 . S
C3041 C3040 1.397 . S
C3041 C3042 1.334 . S
C3042 H3013 0.950 . S
C3042 C3041 1.334 . S
C3042 C3043 1.287 . S
C3043 C3042 1.287 . S
C3043 C3044 1.524 . S
C3043 H3046 0.999 . S
C3044 H3014 0.950 . S
C3044 C3043 1.524 . S
C3044 C3045 1.415 . S
C3045 H3015 0.950 . S
C3045 C3040 1.363 . S
C3045 C3044 1.415 . S
H3046 C3043 0.999 . S
H3047 C3028 0.913 . S
H3048 C3066 0.951 . S
H3049 C3068 0.951 . S
H3050 C3070 0.950 . S
H3051 C3071 0.950 . S
H3052 C3073 0.950 . S
H3053 C3076 0.950 . S
H3054 C3077 0.950 . S
H3055 C3079 0.950 . S
H3056 C3080 0.950 . S
H3057 C3081 0.951 . S
H3058 C3083 0.951 . S
H3059 C3085 0.950 . S
H3060 C3086 0.950 . S
H3061 C3088 0.950 . S
H3062 C3091 0.950 . S
H3063 C3092 0.950 . S
H3064 C3094 0.950 . S
H3065 C3095 0.950 . S
C3066 H3048 0.951 . S
C3066 C3067 1.366 . S
C3066 C3068 1.388 . S
C3067 C3066 1.366 . S
C3067 C3071 1.385 . S
C3068 H3049 0.951 . S
C3068 C3066 1.388 . S
C3068 C3069 1.366 . S
C3069 C3068 1.366 . S
C3069 C3070 1.414 . S
C3069 C3072 1.499 . S
C3070 H3050 0.950 . S
C3070 C3069 1.414 . S
C3070 C3071 1.374 . S
C3071 H3051 0.950 . S
C3071 C3067 1.385 . S
C3071 C3070 1.374 . S
C3072 C3069 1.499 . S
C3072 C3073 1.373 . S
C3072 C3074 1.389 . S
C3073 H3052 0.950 . S
C3073 C3072 1.373 . S
C3073 C3089 1.377 . S
C3074 C3072 1.389 . S
C3074 C3075 1.524 . S
C3074 C3088 1.377 . S
C3075 C3074 1.524 . S
C3075 C3076 1.397 . S
C3075 C3080 1.363 . S
C3076 H3053 0.950 . S
C3076 C3075 1.397 . S
C3076 C3077 1.334 . S
C3077 H3054 0.950 . S
C3077 C3076 1.334 . S
C3077 C3078 1.287 . S
C3078 C3077 1.287 . S
C3078 C3079 1.524 . S
C3078 H3097 0.913 . S
C3079 H3055 0.950 . S
C3079 C3078 1.524 . S
C3079 C3080 1.415 . S
C3080 H3056 0.950 . S
C3080 C3075 1.363 . S
C3080 C3079 1.415 . S
C3081 H3057 0.951 . S
C3081 C3082 1.366 . S
C3081 C3083 1.388 . S
C3082 C3081 1.366 . S
C3082 C3086 1.385 . S
C3083 H3058 0.951 . S
C3083 C3081 1.388 . S
C3083 C3084 1.366 . S
C3084 C3083 1.366 . S
C3084 C3085 1.414 . S
C3084 C3087 1.499 . S
C3085 H3059 0.950 . S
C3085 C3084 1.414 . S
C3085 C3086 1.374 . S
C3086 H3060 0.950 . S
C3086 C3082 1.385 . S
C3086 C3085 1.374 . S
C3087 C3084 1.499 . S
C3087 C3088 1.373 . S
C3087 C3089 1.389 . S
C3088 H3061 0.950 . S
C3088 C3074 1.377 . S
C3088 C3087 1.373 . S
C3089 C3073 1.377 . S
C3089 C3087 1.389 . S
C3089 C3090 1.524 . S
C3090 C3089 1.524 . S
C3090 C3091 1.397 . S
C3090 C3095 1.363 . S
C3091 H3062 0.950 . S
C3091 C3090 1.397 . S
C3091 C3092 1.334 . S
C3092 H3063 0.950 . S
C3092 C3091 1.334 . S
C3092 C3093 1.287 . S
C3093 C3092 1.287 . S
C3093 C3094 1.524 . S
C3093 H3096 0.999 . S
C3094 H3064 0.950 . S
C3094 C3093 1.524 . S
C3094 C3095 1.415 . S
C3095 H3065 0.950 . S
C3095 C3090 1.363 . S
C3095 C3094 1.415 . S
H3096 C3093 0.999 . S
H3097 C3078 0.913 . S
H3098 C3116 0.951 . S
H3099 C3118 0.951 . S
H3100 C3120 0.950 . S
H3101 C3121 0.950 . S
H3102 C3123 0.950 . S
H3103 C3126 0.950 . S
H3104 C3127 0.950 . S
H3105 C3129 0.950 . S
H3106 C3130 0.950 . S
H3107 C3131 0.951 . S
H3108 C3133 0.951 . S
H3109 C3135 0.950 . S
H3110 C3136 0.950 . S
H3111 C3138 0.950 . S
H3112 C3141 0.950 . S
H3113 C3142 0.950 . S
H3114 C3144 0.950 . S
H3115 C3145 0.950 . S
C3116 H3098 0.951 . S
C3116 C3117 1.366 . S
C3116 C3118 1.388 . S
C3117 C3116 1.366 . S
C3117 C3121 1.385 . S
C3118 H3099 0.951 . S
C3118 C3116 1.388 . S
C3118 C3119 1.366 . S
C3119 C3118 1.366 . S
C3119 C3120 1.414 . S
C3119 C3122 1.499 . S
C3120 H3100 0.950 . S
C3120 C3119 1.414 . S
C3120 C3121 1.374 . S
C3121 H3101 0.950 . S
C3121 C3117 1.385 . S
C3121 C3120 1.374 . S
C3122 C3119 1.499 . S
C3122 C3123 1.373 . S
C3122 C3124 1.389 . S
C3123 H3102 0.950 . S
C3123 C3122 1.373 . S
C3123 C3139 1.377 . S
C3124 C3122 1.389 . S
C3124 C3125 1.524 . S
C3124 C3138 1.377 . S
C3125 C3124 1.524 . S
C3125 C3126 1.397 . S
C3125 C3130 1.363 . S
C3126 H3103 0.950 . S
C3126 C3125 1.397 . S
C3126 C3127 1.334 . S
C3127 H3104 0.950 . S
C3127 C3126 1.334 . S
C3127 C3128 1.287 . S
C3128 C3127 1.287 . S
C3128 C3129 1.524 . S
C3128 H3147 0.913 . S
C3129 H3105 0.950 . S
C3129 C3128 1.524 . S
C3129 C3130 1.415 . S
C3130 H3106 0.950 . S
C3130 C3125 1.363 . S
C3130 C3129 1.415 . S
C3131 H3107 0.951 . S
C3131 C3132 1.366 . S
C3131 C3133 1.388 . S
C3132 C3131 1.366 . S
C3132 C3136 1.385 . S
C3133 H3108 0.951 . S
C3133 C3131 1.388 . S
C3133 C3134 1.366 . S
C3134 C3133 1.366 . S
C3134 C3135 1.414 . S
C3134 C3137 1.499 . S
C3135 H3109 0.950 . S
C3135 C3134 1.414 . S
C3135 C3136 1.374 . S
C3136 H3110 0.950 . S
C3136 C3132 1.385 . S
C3136 C3135 1.374 . S
C3137 C3134 1.499 . S
C3137 C3138 1.373 . S
C3137 C3139 1.389 . S
C3138 H3111 0.950 . S
C3138 C3124 1.377 . S
C3138 C3137 1.373 . S
C3139 C3123 1.377 . S
C3139 C3137 1.389 . S
C3139 C3140 1.524 . S
C3140 C3139 1.524 . S
C3140 C3141 1.397 . S
C3140 C3145 1.363 . S
C3141 H3112 0.950 . S
C3141 C3140 1.397 . S
C3141 C3142 1.334 . S
C3142 H3113 0.950 . S
C3142 C3141 1.334 . S
C3142 C3143 1.287 . S
C3143 C3142 1.287 . S
C3143 C3144 1.524 . S
C3143 H3146 0.999 . S
C3144 H3114 0.950 . S
C3144 C3143 1.524 . S
C3144 C3145 1.415 . S
C3145 H3115 0.950 . S
C3145 C3140 1.363 . S
C3145 C3144 1.415 . S
H3146 C3143 0.999 . S
H3147 C3128 0.913 . S
H3148 C3166 0.951 . S
H3149 C3168 0.951 . S
H3150 C3170 0.950 . S
H3151 C3171 0.950 . S
H3152 C3173 0.950 . S
H3153 C3176 0.950 . S
H3154 C3177 0.950 . S
H3155 C3179 0.950 . S
H3156 C3180 0.950 . S
H3157 C3181 0.951 . S
H3158 C3183 0.951 . S
H3159 C3185 0.950 . S
H3160 C3186 0.950 . S
H3161 C3188 0.950 . S
H3162 C3191 0.950 . S
H3163 C3192 0.950 . S
H3164 C3194 0.950 . S
H3165 C3195 0.950 . S
C3166 H3148 0.951 . S
C3166 C3167 1.366 . S
C3166 C3168 1.388 . S
C3167 C3166 1.366 . S
C3167 C3171 1.385 . S
C3168 H3149 0.951 . S
C3168 C3166 1.388 . S
C3168 C3169 1.366 . S
C3169 C3168 1.366 . S
C3169 C3170 1.414 . S
C3169 C3172 1.499 . S
C3170 H3150 0.950 . S
C3170 C3169 1.414 . S
C3170 C3171 1.374 . S
C3171 H3151 0.950 . S
C3171 C3167 1.385 . S
C3171 C3170 1.374 . S
C3172 C3169 1.499 . S
C3172 C3173 1.373 . S
C3172 C3174 1.389 . S
C3173 H3152 0.950 . S
C3173 C3172 1.373 . S
C3173 C3189 1.377 . S
C3174 C3172 1.389 . S
C3174 C3175 1.524 . S
C3174 C3188 1.377 . S
C3175 C3174 1.524 . S
C3175 C3176 1.397 . S
C3175 C3180 1.363 . S
C3176 H3153 0.950 . S
C3176 C3175 1.397 . S
C3176 C3177 1.334 . S
C3177 H3154 0.950 . S
C3177 C3176 1.334 . S
C3177 C3178 1.287 . S
C3178 C3177 1.287 . S
C3178 C3179 1.524 . S
C3178 H3197 0.913 . S
C3179 H3155 0.950 . S
C3179 C3178 1.524 . S
C3179 C3180 1.415 . S
C3180 H3156 0.950 . S
C3180 C3175 1.363 . S
C3180 C3179 1.415 . S
C3181 H3157 0.951 . S
C3181 C3182 1.366 . S
C3181 C3183 1.388 . S
C3182 C3181 1.366 . S
C3182 C3186 1.385 . S
C3183 H3158 0.951 . S
C3183 C3181 1.388 . S
C3183 C3184 1.366 . S
C3184 C3183 1.366 . S
C3184 C3185 1.414 . S
C3184 C3187 1.499 . S
C3185 H3159 0.950 . S
C3185 C3184 1.414 . S
C3185 C3186 1.374 . S
C3186 H3160 0.950 . S
C3186 C3182 1.385 . S
C3186 C3185 1.374 . S
C3187 C3184 1.499 . S
C3187 C3188 1.373 . S
C3187 C3189 1.389 . S
C3188 H3161 0.950 . S
C3188 C3174 1.377 . S
C3188 C3187 1.373 . S
C3189 C3173 1.377 . S
C3189 C3187 1.389 . S
C3189 C3190 1.524 . S
C3190 C3189 1.524 . S
C3190 C3191 1.397 . S
C3190 C3195 1.363 . S
C3191 H3162 0.950 . S
C3191 C3190 1.397 . S
C3191 C3192 1.334 . S
C3192 H3163 0.950 . S
C3192 C3191 1.334 . S
C3192 C3193 1.287 . S
C3193 C3192 1.287 . S
C3193 C3194 1.524 . S
C3193 H3196 0.999 . S
C3194 H3164 0.950 . S
C3194 C3193 1.524 . S
C3194 C3195 1.415 . S
C3195 H3165 0.950 . S
C3195 C3190 1.363 . S
C3195 C3194 1.415 . S
H3196 C3193 0.999 . S
H3197 C3178 0.913 . S
H3198 C3216 0.951 . S
H3199 C3218 0.951 . S
H3200 C3220 0.950 . S
H3201 C3221 0.950 . S
H3202 C3223 0.950 . S
H3203 C3226 0.950 . S
H3204 C3227 0.950 . S
H3205 C3229 0.950 . S
H3206 C3230 0.950 . S
H3207 C3231 0.951 . S
H3208 C3233 0.951 . S
H3209 C3235 0.950 . S
H3210 C3236 0.950 . S
H3211 C3238 0.950 . S
H3212 C3241 0.950 . S
H3213 C3242 0.950 . S
H3214 C3244 0.950 . S
H3215 C3245 0.950 . S
C3216 H3198 0.951 . S
C3216 C3217 1.366 . S
C3216 C3218 1.388 . S
C3217 C3216 1.366 . S
C3217 C3221 1.385 . S
C3218 H3199 0.951 . S
C3218 C3216 1.388 . S
C3218 C3219 1.366 . S
C3219 C3218 1.366 . S
C3219 C3220 1.414 . S
C3219 C3222 1.499 . S
C3220 H3200 0.950 . S
C3220 C3219 1.414 . S
C3220 C3221 1.374 . S
C3221 H3201 0.950 . S
C3221 C3217 1.385 . S
C3221 C3220 1.374 . S
C3222 C3219 1.499 . S
C3222 C3223 1.373 . S
C3222 C3224 1.389 . S
C3223 H3202 0.950 . S
C3223 C3222 1.373 . S
C3223 C3239 1.377 . S
C3224 C3222 1.389 . S
C3224 C3225 1.524 . S
C3224 C3238 1.377 . S
C3225 C3224 1.524 . S
C3225 C3226 1.397 . S
C3225 C3230 1.363 . S
C3226 H3203 0.950 . S
C3226 C3225 1.397 . S
C3226 C3227 1.334 . S
C3227 H3204 0.950 . S
C3227 C3226 1.334 . S
C3227 C3228 1.287 . S
C3228 C3227 1.287 . S
C3228 C3229 1.524 . S
C3228 H3247 0.913 . S
C3229 H3205 0.950 . S
C3229 C3228 1.524 . S
C3229 C3230 1.415 . S
C3230 H3206 0.950 . S
C3230 C3225 1.363 . S
C3230 C3229 1.415 . S
C3231 H3207 0.951 . S
C3231 C3232 1.366 . S
C3231 C3233 1.388 . S
C3232 C3231 1.366 . S
C3232 C3236 1.385 . S
C3233 H3208 0.951 . S
C3233 C3231 1.388 . S
C3233 C3234 1.366 . S
C3234 C3233 1.366 . S
C3234 C3235 1.414 . S
C3234 C3237 1.499 . S
C3235 H3209 0.950 . S
C3235 C3234 1.414 . S
C3235 C3236 1.374 . S
C3236 H3210 0.950 . S
C3236 C3232 1.385 . S
C3236 C3235 1.374 . S
C3237 C3234 1.499 . S
C3237 C3238 1.373 . S
C3237 C3239 1.389 . S
C3238 H3211 0.950 . S
C3238 C3224 1.377 . S
C3238 C3237 1.373 . S
C3239 C3223 1.377 . S
C3239 C3237 1.389 . S
C3239 C3240 1.524 . S
C3240 C3239 1.524 . S
C3240 C3241 1.397 . S
C3240 C3245 1.363 . S
C3241 H3212 0.950 . S
C3241 C3240 1.397 . S
C3241 C3242 1.334 . S
C3242 H3213 0.950 . S
C3242 C3241 1.334 . S
C3242 C3243 1.287 . S
C3243 C3242 1.287 . S
C3243 C3244 1.524 . S
C3243 H3246 0.999 . S
C3244 H3214 0.950 . S
C3244 C3243 1.524 . S
C3244 C3245 1.415 . S
C3245 H3215 0.950 . S
C3245 C3240 1.363 . S
C3245 C3244 1.415 . S
H3246 C3243 0.999 . S
H3247 C3228 0.913 . S
H3248 C3266 0.951 . S
H3249 C3268 0.951 . S
H3250 C3270 0.950 . S
H3251 C3271 0.950 . S
H3252 C3273 0.950 . S
H3253 C3276 0.950 . S
H3254 C3277 0.950 . S
H3255 C3279 0.950 . S
H3256 C3280 0.950 . S
H3257 C3281 0.951 . S
H3258 C3283 0.951 . S
H3259 C3285 0.950 . S
H3260 C3286 0.950 . S
H3261 C3288 0.950 . S
H3262 C3291 0.950 . S
H3263 C3292 0.950 . S
H3264 C3294 0.950 . S
H3265 C3295 0.950 . S
C3266 H3248 0.951 . S
C3266 C3267 1.366 . S
C3266 C3268 1.388 . S
C3267 C3266 1.366 . S
C3267 C3271 1.385 . S
C3268 H3249 0.951 . S
C3268 C3266 1.388 . S
C3268 C3269 1.366 . S
C3269 C3268 1.366 . S
C3269 C3270 1.414 . S
C3269 C3272 1.499 . S
C3270 H3250 0.950 . S
C3270 C3269 1.414 . S
C3270 C3271 1.374 . S
C3271 H3251 0.950 . S
C3271 C3267 1.385 . S
C3271 C3270 1.374 . S
C3272 C3269 1.499 . S
C3272 C3273 1.373 . S
C3272 C3274 1.389 . S
C3273 H3252 0.950 . S
C3273 C3272 1.373 . S
C3273 C3289 1.377 . S
C3274 C3272 1.389 . S
C3274 C3275 1.524 . S
C3274 C3288 1.377 . S
C3275 C3274 1.524 . S
C3275 C3276 1.397 . S
C3275 C3280 1.363 . S
C3276 H3253 0.950 . S
C3276 C3275 1.397 . S
C3276 C3277 1.334 . S
C3277 H3254 0.950 . S
C3277 C3276 1.334 . S
C3277 C3278 1.287 . S
C3278 C3277 1.287 . S
C3278 C3279 1.524 . S
C3278 H3297 0.913 . S
C3279 H3255 0.950 . S
C3279 C3278 1.524 . S
C3279 C3280 1.415 . S
C3280 H3256 0.950 . S
C3280 C3275 1.363 . S
C3280 C3279 1.415 . S
C3281 H3257 0.951 . S
C3281 C3282 1.366 . S
C3281 C3283 1.388 . S
C3282 C3281 1.366 . S
C3282 C3286 1.385 . S
C3283 H3258 0.951 . S
C3283 C3281 1.388 . S
C3283 C3284 1.366 . S
C3284 C3283 1.366 . S
C3284 C3285 1.414 . S
C3284 C3287 1.499 . S
C3285 H3259 0.950 . S
C3285 C3284 1.414 . S
C3285 C3286 1.374 . S
C3286 H3260 0.950 . S
C3286 C3282 1.385 . S
C3286 C3285 1.374 . S
C3287 C3284 1.499 . S
C3287 C3288 1.373 . S
C3287 C3289 1.389 . S
C3288 H3261 0.950 . S
C3288 C3274 1.377 . S
C3288 C3287 1.373 . S
C3289 C3273 1.377 . S
C3289 C3287 1.389 . S
C3289 C3290 1.524 . S
C3290 C3289 1.524 . S
C3290 C3291 1.397 . S
C3290 C3295 1.363 . S
C3291 H3262 0.950 . S
C3291 C3290 1.397 . S
C3291 C3292 1.334 . S
C3292 H3263 0.950 . S
C3292 C3291 1.334 . S
C3292 C3293 1.287 . S
C3293 C3292 1.287 . S
C3293 C3294 1.524 . S
C3293 H3296 0.999 . S
C3294 H3264 0.950 . S
C3294 C3293 1.524 . S
C3294 C3295 1.415 . S
C3295 H3265 0.950 . S
C3295 C3290 1.363 . S
C3295 C3294 1.415 . S
H3296 C3293 0.999 . S
H3297 C3278 0.913 . S
H3298 C3316 0.951 . S
H3299 C3318 0.951 . S
H3300 C3320 0.950 . S
H3301 C3321 0.950 . S
H3302 C3323 0.950 . S
H3303 C3326 0.950 . S
H3304 C3327 0.950 . S
H3305 C3329 0.950 . S
H3306 C3330 0.950 . S
H3307 C3331 0.951 . S
H3308 C3333 0.951 . S
H3309 C3335 0.950 . S
H3310 C3336 0.950 . S
H3311 C3338 0.950 . S
H3312 C3341 0.950 . S
H3313 C3342 0.950 . S
H3314 C3344 0.950 . S
H3315 C3345 0.950 . S
C3316 H3298 0.951 . S
C3316 C3317 1.366 . S
C3316 C3318 1.388 . S
C3317 C3316 1.366 . S
C3317 C3321 1.385 . S
C3318 H3299 0.951 . S
C3318 C3316 1.388 . S
C3318 C3319 1.366 . S
C3319 C3318 1.366 . S
C3319 C3320 1.414 . S
C3319 C3322 1.499 . S
C3320 H3300 0.950 . S
C3320 C3319 1.414 . S
C3320 C3321 1.374 . S
C3321 H3301 0.950 . S
C3321 C3317 1.385 . S
C3321 C3320 1.374 . S
C3322 C3319 1.499 . S
C3322 C3323 1.373 . S
C3322 C3324 1.389 . S
C3323 H3302 0.950 . S
C3323 C3322 1.373 . S
C3323 C3339 1.377 . S
C3324 C3322 1.389 . S
C3324 C3325 1.524 . S
C3324 C3338 1.377 . S
C3325 C3324 1.524 . S
C3325 C3326 1.397 . S
C3325 C3330 1.363 . S
C3326 H3303 0.950 . S
C3326 C3325 1.397 . S
C3326 C3327 1.334 . S
C3327 H3304 0.950 . S
C3327 C3326 1.334 . S
C3327 C3328 1.287 . S
C3328 C3327 1.287 . S
C3328 C3329 1.524 . S
C3328 H3347 0.913 . S
C3329 H3305 0.950 . S
C3329 C3328 1.524 . S
C3329 C3330 1.415 . S
C3330 H3306 0.950 . S
C3330 C3325 1.363 . S
C3330 C3329 1.415 . S
C3331 H3307 0.951 . S
C3331 C3332 1.366 . S
C3331 C3333 1.388 . S
C3332 C3331 1.366 . S
C3332 C3336 1.385 . S
C3333 H3308 0.951 . S
C3333 C3331 1.388 . S
C3333 C3334 1.366 . S
C3334 C3333 1.366 . S
C3334 C3335 1.414 . S
C3334 C3337 1.499 . S
C3335 H3309 0.950 . S
C3335 C3334 1.414 . S
C3335 C3336 1.374 . S
C3336 H3310 0.950 . S
C3336 C3332 1.385 . S
C3336 C3335 1.374 . S
C3337 C3334 1.499 . S
C3337 C3338 1.373 . S
C3337 C3339 1.389 . S
C3338 H3311 0.950 . S
C3338 C3324 1.377 . S
C3338 C3337 1.373 . S
C3339 C3323 1.377 . S
C3339 C3337 1.389 . S
C3339 C3340 1.524 . S
C3340 C3339 1.524 . S
C3340 C3341 1.397 . S
C3340 C3345 1.363 . S
C3341 H3312 0.950 . S
C3341 C3340 1.397 . S
C3341 C3342 1.334 . S
C3342 H3313 0.950 . S
C3342 C3341 1.334 . S
C3342 C3343 1.287 . S
C3343 C3342 1.287 . S
C3343 C3344 1.524 . S
C3343 H3346 0.999 . S
C3344 H3314 0.950 . S
C3344 C3343 1.524 . S
C3344 C3345 1.415 . S
C3345 H3315 0.950 . S
C3345 C3340 1.363 . S
C3345 C3344 1.415 . S
H3346 C3343 0.999 . S
H3347 C3328 0.913 . S
H3348 C3366 0.951 . S
H3349 C3368 0.951 . S
H3350 C3370 0.950 . S
H3351 C3371 0.950 . S
H3352 C3373 0.950 . S
H3353 C3376 0.950 . S
H3354 C3377 0.950 . S
H3355 C3379 0.950 . S
H3356 C3380 0.950 . S
H3357 C3381 0.951 . S
H3358 C3383 0.951 . S
H3359 C3385 0.950 . S
H3360 C3386 0.950 . S
H3361 C3388 0.950 . S
H3362 C3391 0.950 . S
H3363 C3392 0.950 . S
H3364 C3394 0.950 . S
H3365 C3395 0.950 . S
C3366 H3348 0.951 . S
C3366 C3367 1.366 . S
C3366 C3368 1.388 . S
C3367 C3366 1.366 . S
C3367 C3371 1.385 . S
C3368 H3349 0.951 . S
C3368 C3366 1.388 . S
C3368 C3369 1.366 . S
C3369 C3368 1.366 . S
C3369 C3370 1.414 . S
C3369 C3372 1.499 . S
C3370 H3350 0.950 . S
C3370 C3369 1.414 . S
C3370 C3371 1.374 . S
C3371 H3351 0.950 . S
C3371 C3367 1.385 . S
C3371 C3370 1.374 . S
C3372 C3369 1.499 . S
C3372 C3373 1.373 . S
C3372 C3374 1.389 . S
C3373 H3352 0.950 . S
C3373 C3372 1.373 . S
C3373 C3389 1.377 . S
C3374 C3372 1.389 . S
C3374 C3375 1.524 . S
C3374 C3388 1.377 . S
C3375 C3374 1.524 . S
C3375 C3376 1.397 . S
C3375 C3380 1.363 . S
C3376 H3353 0.950 . S
C3376 C3375 1.397 . S
C3376 C3377 1.334 . S
C3377 H3354 0.950 . S
C3377 C3376 1.334 . S
C3377 C3378 1.287 . S
C3378 C3377 1.287 . S
C3378 C3379 1.524 . S
C3378 H3397 0.913 . S
C3379 H3355 0.950 . S
C3379 C3378 1.524 . S
C3379 C3380 1.415 . S
C3380 H3356 0.950 . S
C3380 C3375 1.363 . S
C3380 C3379 1.415 . S
C3381 H3357 0.951 . S
C3381 C3382 1.366 . S
C3381 C3383 1.388 . S
C3382 C3381 1.366 . S
C3382 C3386 1.385 . S
C3383 H3358 0.951 . S
C3383 C3381 1.388 . S
C3383 C3384 1.366 . S
C3384 C3383 1.366 . S
C3384 C3385 1.414 . S
C3384 C3387 1.499 . S
C3385 H3359 0.950 . S
C3385 C3384 1.414 . S
C3385 C3386 1.374 . S
C3386 H3360 0.950 . S
C3386 C3382 1.385 . S
C3386 C3385 1.374 . S
C3387 C3384 1.499 . S
C3387 C3388 1.373 . S
C3387 C3389 1.389 . S
C3388 H3361 0.950 . S
C3388 C3374 1.377 . S
C3388 C3387 1.373 . S
C3389 C3373 1.377 . S
C3389 C3387 1.389 . S
C3389 C3390 1.524 . S
C3390 C3389 1.524 . S
C3390 C3391 1.397 . S
C3390 C3395 1.363 . S
C3391 H3362 0.950 . S
C3391 C3390 1.397 . S
C3391 C3392 1.334 . S
C3392 H3363 0.950 . S
C3392 C3391 1.334 . S
C3392 C3393 1.287 . S
C3393 C3392 1.287 . S
C3393 C3394 1.524 . S
C3393 H3396 0.999 . S
C3394 H3364 0.950 . S
C3394 C3393 1.524 . S
C3394 C3395 1.415 . S
C3395 H3365 0.950 . S
C3395 C3390 1.363 . S
C3395 C3394 1.415 . S
H3396 C3393 0.999 . S
H3397 C3378 0.913 . S
H3398 C3416 0.951 . S
H3399 C3418 0.951 . S
H3400 C3420 0.950 . S
H3401 C3421 0.950 . S
H3402 C3423 0.950 . S
H3403 C3426 0.950 . S
H3404 C3427 0.950 . S
H3405 C3429 0.950 . S
H3406 C3430 0.950 . S
H3407 C3431 0.951 . S
H3408 C3433 0.951 . S
H3409 C3435 0.950 . S
H3410 C3436 0.950 . S
H3411 C3438 0.950 . S
H3412 C3441 0.950 . S
H3413 C3442 0.950 . S
H3414 C3444 0.950 . S
H3415 C3445 0.950 . S
C3416 H3398 0.951 . S
C3416 C3417 1.366 . S
C3416 C3418 1.388 . S
C3417 C3416 1.366 . S
C3417 C3421 1.385 . S
C3418 H3399 0.951 . S
C3418 C3416 1.388 . S
C3418 C3419 1.366 . S
C3419 C3418 1.366 . S
C3419 C3420 1.414 . S
C3419 C3422 1.499 . S
C3420 H3400 0.950 . S
C3420 C3419 1.414 . S
C3420 C3421 1.374 . S
C3421 H3401 0.950 . S
C3421 C3417 1.385 . S
C3421 C3420 1.374 . S
C3422 C3419 1.499 . S
C3422 C3423 1.373 . S
C3422 C3424 1.389 . S
C3423 H3402 0.950 . S
C3423 C3422 1.373 . S
C3423 C3439 1.377 . S
C3424 C3422 1.389 . S
C3424 C3425 1.524 . S
C3424 C3438 1.377 . S
C3425 C3424 1.524 . S
C3425 C3426 1.397 . S
C3425 C3430 1.363 . S
C3426 H3403 0.950 . S
C3426 C3425 1.397 . S
C3426 C3427 1.334 . S
C3427 H3404 0.950 . S
C3427 C3426 1.334 . S
C3427 C3428 1.287 . S
C3428 C3427 1.287 . S
C3428 C3429 1.524 . S
C3428 H3447 0.913 . S
C3429 H3405 0.950 . S
C3429 C3428 1.524 . S
C3429 C3430 1.415 . S
C3430 H3406 0.950 . S
C3430 C3425 1.363 . S
C3430 C3429 1.415 . S
C3431 H3407 0.951 . S
C3431 C3432 1.366 . S
C3431 C3433 1.388 . S
C3432 C3431 1.366 . S
C3432 C3436 1.385 . S
C3433 H3408 0.951 . S
C3433 C3431 1.388 . S
C3433 C3434 1.366 . S
C3434 C3433 1.366 . S
C3434 C3435 1.414 . S
C3434 C3437 1.499 . S
C3435 H3409 0.950 . S
C3435 C3434 1.414 . S
C3435 C3436 1.374 . S
C3436 H3410 0.950 . S
C3436 C3432 1.385 . S
C3436 C3435 1.374 . S
C3437 C3434 1.499 . S
C3437 C3438 1.373 . S
C3437 C3439 1.389 . S
C3438 H3411 0.950 . S
C3438 C3424 1.377 . S
C3438 C3437 1.373 . S
C3439 C3423 1.377 . S
C3439 C3437 1.389 . S
C3439 C3440 1.524 . S
C3440 C3439 1.524 . S
C3440 C3441 1.397 . S
C3440 C3445 1.363 . S
C3441 H3412 0.950 . S
C3441 C3440 1.397 . S
C3441 C3442 1.334 . S
C3442 H3413 0.950 . S
C3442 C3441 1.334 . S
C3442 C3443 1.287 . S
C3443 C3442 1.287 . S
C3443 C3444 1.524 . S
C3443 H3446 0.999 . S
C3444 H3414 0.950 . S
C3444 C3443 1.524 . S
C3444 C3445 1.415 . S
C3445 H3415 0.950 . S
C3445 C3440 1.363 . S
C3445 C3444 1.415 . S
H3446 C3443 0.999 . S
H3447 C3428 0.913 . S
H3448 C3466 0.951 . S
H3449 C3468 0.951 . S
H3450 C3470 0.950 . S
H3451 C3471 0.950 . S
H3452 C3473 0.950 . S
H3453 C3476 0.950 . S
H3454 C3477 0.950 . S
H3455 C3479 0.950 . S
H3456 C3480 0.950 . S
H3457 C3481 0.951 . S
H3458 C3483 0.951 . S
H3459 C3485 0.950 . S
H3460 C3486 0.950 . S
H3461 C3488 0.950 . S
H3462 C3491 0.950 . S
H3463 C3492 0.950 . S
H3464 C3494 0.950 . S
H3465 C3495 0.950 . S
C3466 H3448 0.951 . S
C3466 C3467 1.366 . S
C3466 C3468 1.388 . S
C3467 C3466 1.366 . S
C3467 C3471 1.385 . S
C3468 H3449 0.951 . S
C3468 C3466 1.388 . S
C3468 C3469 1.366 . S
C3469 C3468 1.366 . S
C3469 C3470 1.414 . S
C3469 C3472 1.499 . S
C3470 H3450 0.950 . S
C3470 C3469 1.414 . S
C3470 C3471 1.374 . S
C3471 H3451 0.950 . S
C3471 C3467 1.385 . S
C3471 C3470 1.374 . S
C3472 C3469 1.499 . S
C3472 C3473 1.373 . S
C3472 C3474 1.389 . S
C3473 H3452 0.950 . S
C3473 C3472 1.373 . S
C3473 C3489 1.377 . S
C3474 C3472 1.389 . S
C3474 C3475 1.524 . S
C3474 C3488 1.377 . S
C3475 C3474 1.524 . S
C3475 C3476 1.397 . S
C3475 C3480 1.363 . S
C3476 H3453 0.950 . S
C3476 C3475 1.397 . S
C3476 C3477 1.334 . S
C3477 H3454 0.950 . S
C3477 C3476 1.334 . S
C3477 C3478 1.287 . S
C3478 C3477 1.287 . S
C3478 C3479 1.524 . S
C3478 H3497 0.913 . S
C3479 H3455 0.950 . S
C3479 C3478 1.524 . S
C3479 C3480 1.415 . S
C3480 H3456 0.950 . S
C3480 C3475 1.363 . S
C3480 C3479 1.415 . S
C3481 H3457 0.951 . S
C3481 C3482 1.366 . S
C3481 C3483 1.388 . S
C3482 C3481 1.366 . S
C3482 C3486 1.385 . S
C3483 H3458 0.951 . S
C3483 C3481 1.388 . S
C3483 C3484 1.366 . S
C3484 C3483 1.366 . S
C3484 C3485 1.414 . S
C3484 C3487 1.499 . S
C3485 H3459 0.950 . S
C3485 C3484 1.414 . S
C3485 C3486 1.374 . S
C3486 H3460 0.950 . S
C3486 C3482 1.385 . S
C3486 C3485 1.374 . S
C3487 C3484 1.499 . S
C3487 C3488 1.373 . S
C3487 C3489 1.389 . S
C3488 H3461 0.950 . S
C3488 C3474 1.377 . S
C3488 C3487 1.373 . S
C3489 C3473 1.377 . S
C3489 C3487 1.389 . S
C3489 C3490 1.524 . S
C3490 C3489 1.524 . S
C3490 C3491 1.397 . S
C3490 C3495 1.363 . S
C3491 H3462 0.950 . S
C3491 C3490 1.397 . S
C3491 C3492 1.334 . S
C3492 H3463 0.950 . S
C3492 C3491 1.334 . S
C3492 C3493 1.287 . S
C3493 C3492 1.287 . S
C3493 C3494 1.524 . S
C3493 H3496 0.999 . S
C3494 H3464 0.950 . S
C3494 C3493 1.524 . S
C3494 C3495 1.415 . S
C3495 H3465 0.950 . S
C3495 C3490 1.363 . S
C3495 C3494 1.415 . S
H3496 C3493 0.999 . S
H3497 C3478 0.913 . S
H3498 C3516 0.951 . S
H3499 C3518 0.951 . S
H3500 C3520 0.950 . S
H3501 C3521 0.950 . S
H3502 C3523 0.950 . S
H3503 C3526 0.950 . S
H3504 C3527 0.950 . S
H3505 C3529 0.950 . S
H3506 C3530 0.950 . S
H3507 C3531 0.951 . S
H3508 C3533 0.951 . S
H3509 C3535 0.950 . S
H3510 C3536 0.950 . S
H3511 C3538 0.950 . S
H3512 C3541 0.950 . S
H3513 C3542 0.950 . S
H3514 C3544 0.950 . S
H3515 C3545 0.950 . S
C3516 H3498 0.951 . S
C3516 C3517 1.366 . S
C3516 C3518 1.388 . S
C3517 C3516 1.366 . S
C3517 C3521 1.385 . S
C3518 H3499 0.951 . S
C3518 C3516 1.388 . S
C3518 C3519 1.366 . S
C3519 C3518 1.366 . S
C3519 C3520 1.414 . S
C3519 C3522 1.499 . S
C3520 H3500 0.950 . S
C3520 C3519 1.414 . S
C3520 C3521 1.374 . S
C3521 H3501 0.950 . S
C3521 C3517 1.385 . S
C3521 C3520 1.374 . S
C3522 C3519 1.499 . S
C3522 C3523 1.373 . S
C3522 C3524 1.389 . S
C3523 H3502 0.950 . S
C3523 C3522 1.373 . S
C3523 C3539 1.377 . S
C3524 C3522 1.389 . S
C3524 C3525 1.524 . S
C3524 C3538 1.377 . S
C3525 C3524 1.524 . S
C3525 C3526 1.397 . S
C3525 C3530 1.363 . S
C3526 H3503 0.950 . S
C3526 C3525 1.397 . S
C3526 C3527 1.334 . S
C3527 H3504 0.950 . S
C3527 C3526 1.334 . S
C3527 C3528 1.287 . S
C3528 C3527 1.287 . S
C3528 C3529 1.524 . S
C3528 H3547 0.913 . S
C3529 H3505 0.950 . S
C3529 C3528 1.524 . S
C3529 C3530 1.415 . S
C3530 H3506 0.950 . S
C3530 C3525 1.363 . S
C3530 C3529 1.415 . S
C3531 H3507 0.951 . S
C3531 C3532 1.366 . S
C3531 C3533 1.388 . S
C3532 C3531 1.366 . S
C3532 C3536 1.385 . S
C3533 H3508 0.951 . S
C3533 C3531 1.388 . S
C3533 C3534 1.366 . S
C3534 C3533 1.366 . S
C3534 C3535 1.414 . S
C3534 C3537 1.499 . S
C3535 H3509 0.950 . S
C3535 C3534 1.414 . S
C3535 C3536 1.374 . S
C3536 H3510 0.950 . S
C3536 C3532 1.385 . S
C3536 C3535 1.374 . S
C3537 C3534 1.499 . S
C3537 C3538 1.373 . S
C3537 C3539 1.389 . S
C3538 H3511 0.950 . S
C3538 C3524 1.377 . S
C3538 C3537 1.373 . S
C3539 C3523 1.377 . S
C3539 C3537 1.389 . S
C3539 C3540 1.524 . S
C3540 C3539 1.524 . S
C3540 C3541 1.397 . S
C3540 C3545 1.363 . S
C3541 H3512 0.950 . S
C3541 C3540 1.397 . S
C3541 C3542 1.334 . S
C3542 H3513 0.950 . S
C3542 C3541 1.334 . S
C3542 C3543 1.287 . S
C3543 C3542 1.287 . S
C3543 C3544 1.524 . S
C3543 H3546 0.999 . S
C3544 H3514 0.950 . S
C3544 C3543 1.524 . S
C3544 C3545 1.415 . S
C3545 H3515 0.950 . S
C3545 C3540 1.363 . S
C3545 C3544 1.415 . S
H3546 C3543 0.999 . S
H3547 C3528 0.913 . S
H3548 C3566 0.951 . S
H3549 C3568 0.951 . S
H3550 C3570 0.950 . S
H3551 C3571 0.950 . S
H3552 C3573 0.950 . S
H3553 C3576 0.950 . S
H3554 C3577 0.950 . S
H3555 C3579 0.950 . S
H3556 C3580 0.950 . S
H3557 C3581 0.951 . S
H3558 C3583 0.951 . S
H3559 C3585 0.950 . S
H3560 C3586 0.950 . S
H3561 C3588 0.950 . S
H3562 C3591 0.950 . S
H3563 C3592 0.950 . S
H3564 C3594 0.950 . S
H3565 C3595 0.950 . S
C3566 H3548 0.951 . S
C3566 C3567 1.366 . S
C3566 C3568 1.388 . S
C3567 C3566 1.366 . S
C3567 C3571 1.385 . S
C3568 H3549 0.951 . S
C3568 C3566 1.388 . S
C3568 C3569 1.366 . S
C3569 C3568 1.366 . S
C3569 C3570 1.414 . S
C3569 C3572 1.499 . S
C3570 H3550 0.950 . S
C3570 C3569 1.414 . S
C3570 C3571 1.374 . S
C3571 H3551 0.950 . S
C3571 C3567 1.385 . S
C3571 C3570 1.374 . S
C3572 C3569 1.499 . S
C3572 C3573 1.373 . S
C3572 C3574 1.389 . S
C3573 H3552 0.950 . S
C3573 C3572 1.373 . S
C3573 C3589 1.377 . S
C3574 C3572 1.389 . S
C3574 C3575 1.524 . S
C3574 C3588 1.377 . S
C3575 C3574 1.524 . S
C3575 C3576 1.397 . S
C3575 C3580 1.363 . S
C3576 H3553 0.950 . S
C3576 C3575 1.397 . S
C3576 C3577 1.334 . S
C3577 H3554 0.950 . S
C3577 C3576 1.334 . S
C3577 C3578 1.287 . S
C3578 C3577 1.287 . S
C3578 C3579 1.524 . S
C3578 H3597 0.913 . S
C3579 H3555 0.950 . S
C3579 C3578 1.524 . S
C3579 C3580 1.415 . S
C3580 H3556 0.950 . S
C3580 C3575 1.363 . S
C3580 C3579 1.415 . S
C3581 H3557 0.951 . S
C3581 C3582 1.366 . S
C3581 C3583 1.388 . S
C3582 C3581 1.366 . S
C3582 C3586 1.385 . S
C3583 H3558 0.951 . S
C3583 C3581 1.388 . S
C3583 C3584 1.366 . S
C3584 C3583 1.366 . S
C3584 C3585 1.414 . S
C3584 C3587 1.499 . S
C3585 H3559 0.950 . S
C3585 C3584 1.414 . S
C3585 C3586 1.374 . S
C3586 H3560 0.950 . S
C3586 C3582 1.385 . S
C3586 C3585 1.374 . S
C3587 C3584 1.499 . S
C3587 C3588 1.373 . S
C3587 C3589 1.389 . S
C3588 H3561 0.950 . S
C3588 C3574 1.377 . S
C3588 C3587 1.373 . S
C3589 C3573 1.377 . S
C3589 C3587 1.389 . S
C3589 C3590 1.524 . S
C3590 C3589 1.524 . S
C3590 C3591 1.397 . S
C3590 C3595 1.363 . S
C3591 H3562 0.950 . S
C3591 C3590 1.397 . S
C3591 C3592 1.334 . S
C3592 H3563 0.950 . S
C3592 C3591 1.334 . S
C3592 C3593 1.287 . S
C3593 C3592 1.287 . S
C3593 C3594 1.524 . S
C3593 H3596 0.999 . S
C3594 H3564 0.950 . S
C3594 C3593 1.524 . S
C3594 C3595 1.415 . S
C3595 H3565 0.950 . S
C3595 C3590 1.363 . S
C3595 C3594 1.415 . S
H3596 C3593 0.999 . S
H3597 C3578 0.913 . S
H3598 C3616 0.951 . S
H3599 C3618 0.951 . S
H3600 C3620 0.950 . S
H3601 C3621 0.950 . S
H3602 C3623 0.950 . S
H3603 C3626 0.950 . S
H3604 C3627 0.950 . S
H3605 C3629 0.950 . S
H3606 C3630 0.950 . S
H3607 C3631 0.951 . S
H3608 C3633 0.951 . S
H3609 C3635 0.950 . S
H3610 C3636 0.950 . S
H3611 C3638 0.950 . S
H3612 C3641 0.950 . S
H3613 C3642 0.950 . S
H3614 C3644 0.950 . S
H3615 C3645 0.950 . S
C3616 H3598 0.951 . S
C3616 C3617 1.366 . S
C3616 C3618 1.388 . S
C3617 C3616 1.366 . S
C3617 C3621 1.385 . S
C3618 H3599 0.951 . S
C3618 C3616 1.388 . S
C3618 C3619 1.366 . S
C3619 C3618 1.366 . S
C3619 C3620 1.414 . S
C3619 C3622 1.499 . S
C3620 H3600 0.950 . S
C3620 C3619 1.414 . S
C3620 C3621 1.374 . S
C3621 H3601 0.950 . S
C3621 C3617 1.385 . S
C3621 C3620 1.374 . S
C3622 C3619 1.499 . S
C3622 C3623 1.373 . S
C3622 C3624 1.389 . S
C3623 H3602 0.950 . S
C3623 C3622 1.373 . S
C3623 C3639 1.377 . S
C3624 C3622 1.389 . S
C3624 C3625 1.524 . S
C3624 C3638 1.377 . S
C3625 C3624 1.524 . S
C3625 C3626 1.397 . S
C3625 C3630 1.363 . S
C3626 H3603 0.950 . S
C3626 C3625 1.397 . S
C3626 C3627 1.334 . S
C3627 H3604 0.950 . S
C3627 C3626 1.334 . S
C3627 C3628 1.287 . S
C3628 C3627 1.287 . S
C3628 C3629 1.524 . S
C3628 H3647 0.913 . S
C3629 H3605 0.950 . S
C3629 C3628 1.524 . S
C3629 C3630 1.415 . S
C3630 H3606 0.950 . S
C3630 C3625 1.363 . S
C3630 C3629 1.415 . S
C3631 H3607 0.951 . S
C3631 C3632 1.366 . S
C3631 C3633 1.388 . S
C3632 C3631 1.366 . S
C3632 C3636 1.385 . S
C3633 H3608 0.951 . S
C3633 C3631 1.388 . S
C3633 C3634 1.366 . S
C3634 C3633 1.366 . S
C3634 C3635 1.414 . S
C3634 C3637 1.499 . S
C3635 H3609 0.950 . S
C3635 C3634 1.414 . S
C3635 C3636 1.374 . S
C3636 H3610 0.950 . S
C3636 C3632 1.385 . S
C3636 C3635 1.374 . S
C3637 C3634 1.499 . S
C3637 C3638 1.373 . S
C3637 C3639 1.389 . S
C3638 H3611 0.950 . S
C3638 C3624 1.377 . S
C3638 C3637 1.373 . S
C3639 C3623 1.377 . S
C3639 C3637 1.389 . S
C3639 C3640 1.524 . S
C3640 C3639 1.524 . S
C3640 C3641 1.397 . S
C3640 C3645 1.363 . S
C3641 H3612 0.950 . S
C3641 C3640 1.397 . S
C3641 C3642 1.334 . S
C3642 H3613 0.950 . S
C3642 C3641 1.334 . S
C3642 C3643 1.287 . S
C3643 C3642 1.287 . S
C3643 C3644 1.524 . S
C3643 H3646 0.999 . S
C3644 H3614 0.950 . S
C3644 C3643 1.524 . S
C3644 C3645 1.415 . S
C3645 H3615 0.950 . S
C3645 C3640 1.363 . S
C3645 C3644 1.415 . S
H3646 C3643 0.999 . S
H3647 C3628 0.913 . S
C467 C414 1.230 . S
C482 C8 1.228 . S
C517 C22 1.230 . S
C532 C428 1.229 . S
C567 C442 1.229 . S
C582 C36 1.229 . S
C617 C400 1.229 . S
C632 C50 1.229 . S
C667 C64 1.230 . S
C682 C386 1.228 . S
C717 C344 1.229 . S
C732 C78 1.229 . S
C767 C92 1.229 . S
C782 C358 1.229 . S
C817 C372 1.229 . S
C832 C106 1.229 . S
C867 C120 1.229 . S
C882 C302 1.229 . S
C917 C134 1.229 . S
C932 C316 1.230 . S
C967 C330 1.229 . S
C982 C148 1.230 . S
C1017 C162 1.229 . S
C1032 C288 1.229 . S
C1067 C274 1.229 . S
C1082 C176 1.229 . S
C1117 C232 1.229 . S
C1132 C190 1.229 . S
C1167 C204 1.229 . S
C1182 C246 1.229 . S
C1217 C218 1.229 . S
C1232 C260 1.229 . S
C1267 C7 1.407 . S
C1282 C147 1.407 . S
C1317 C161 1.407 . S
C1332 C21 1.406 . S
C1367 C119 1.406 . S
C1382 C35 1.407 . S
C1417 C133 1.407 . S
C1432 C49 1.407 . S
C1467 C63 1.407 . S
C1482 C203 1.407 . S
C1517 C217 1.406 . S
C1532 C77 1.407 . S
C1567 C175 1.407 . S
C1582 C91 1.406 . S
C1617 C189 1.407 . S
C1632 C105 1.406 . S
C1667 C231 1.407 . S
C1682 C371 1.407 . S
C1717 C385 1.407 . S
C1732 C245 1.407 . S
C1767 C343 1.407 . S
C1782 C259 1.407 . S
C1817 C273 1.407 . S
C1832 C357 1.407 . S
C1867 C287 1.407 . S
C1882 C427 1.406 . S
C1917 C441 1.407 . S
C1932 C301 1.406 . S
C1967 C399 1.407 . S
C1982 C315 1.407 . S
C2017 C329 1.407 . S
C2032 C413 1.407 . S
C2067 C11 1.194 . S
C2082 C67 1.194 . S
C2117 C25 1.194 . S
C2132 C81 1.194 . S
C2167 C95 1.194 . S
C2182 C39 1.194 . S
C2217 C53 1.194 . S
C2232 C109 1.194 . S
C2267 C123 1.194 . S
C2282 C179 1.194 . S
C2317 C193 1.194 . S
C2332 C137 1.194 . S
C2367 C207 1.194 . S
C2382 C151 1.194 . S
C2417 C165 1.194 . S
C2432 C221 1.194 . S
C2467 C235 1.194 . S
C2482 C291 1.194 . S
C2517 C305 1.194 . S
C2532 C249 1.194 . S
C2567 C263 1.194 . S
C2582 C319 1.194 . S
C2617 C333 1.194 . S
C2632 C277 1.194 . S
C2667 C403 1.194 . S
C2682 C347 1.194 . S
C2717 C361 1.194 . S
C2732 C417 1.194 . S
C2767 C375 1.194 . S
C2782 C431 1.194 . S
C2817 C389 1.194 . S
C2832 C445 1.194 . S
C2867 C13 1.391 . S
C2882 C83 1.390 . S
C2917 C27 1.391 . S
C2932 C97 1.390 . S
C2967 C111 1.390 . S
C2982 C41 1.389 . S
C3017 C69 1.391 . S
C3032 C55 1.390 . S
C3067 C195 1.389 . S
C3082 C125 1.389 . S
C3117 C209 1.391 . S
C3132 C139 1.390 . S
C3167 C223 1.391 . S
C3182 C153 1.390 . S
C3217 C167 1.390 . S
C3232 C181 1.389 . S
C3267 C237 1.389 . S
C3282 C307 1.389 . S
C3317 C321 1.389 . S
C3332 C251 1.389 . S
C3367 C335 1.389 . S
C3382 C265 1.389 . S
C3417 C279 1.390 . S
C3432 C293 1.389 . S
C3467 C419 1.390 . S
C3482 C349 1.390 . S
C3517 C363 1.389 . S
C3532 C433 1.389 . S
C3567 C377 1.391 . S
C3582 C447 1.390 . S
C3617 C405 1.389 . S
C3632 C391 1.390 . S
