# Generated by pormake.
# Topology wiv, (6)-cn, num edge types: 1
# Building blocks:
#     Node 0, Type 0, BuildingBlock: BETDIP_clean_sbu_0, # of connection points: 6
#     Node 1, Type 0, BuildingBlock: BETDIP_clean_sbu_0, # of connection points: 6
#     Node 2, Type 0, BuildingBlock: BETDIP_clean_sbu_0, # of connection points: 6
#     Node 3, Type 0, BuildingBlock: BETDIP_clean_sbu_0, # of connection points: 6
#     Node 4, Type 0, BuildingBlock: BETDIP_clean_sbu_0, # of connection points: 6
#     Node 5, Type 0, BuildingBlock: BETDIP_clean_sbu_0, # of connection points: 6
#     Node 6, Type 0, BuildingBlock: BETDIP_clean_sbu_0, # of connection points: 6
#     Node 7, Type 0, BuildingBlock: BETDIP_clean_sbu_0, # of connection points: 6
#     Node 8, Type 0, BuildingBlock: BETDIP_clean_sbu_0, # of connection points: 6
#     Node 9, Type 0, BuildingBlock: BETDIP_clean_sbu_0, # of connection points: 6
#     Node 10, Type 0, BuildingBlock: BETDIP_clean_sbu_0, # of connection points: 6
#     Node 11, Type 0, BuildingBlock: BETDIP_clean_sbu_0, # of connection points: 6
#     Node 12, Type 0, BuildingBlock: BETDIP_clean_sbu_0, # of connection points: 6
#     Node 13, Type 0, BuildingBlock: BETDIP_clean_sbu_0, # of connection points: 6
#     Node 14, Type 0, BuildingBlock: BETDIP_clean_sbu_0, # of connection points: 6
#     Node 15, Type 0, BuildingBlock: BETDIP_clean_sbu_0, # of connection points: 6
#     Edge 16, Type (0, 0), BuildingBlock: XIVTED_clean_linker_0, # of connection points: 2
#     Edge 17, Type (0, 0), BuildingBlock: XIVTED_clean_linker_0, # of connection points: 2
#     Edge 18, Type (0, 0), BuildingBlock: XIVTED_clean_linker_0, # of connection points: 2
#     Edge 19, Type (0, 0), BuildingBlock: XIVTED_clean_linker_0, # of connection points: 2
#     Edge 20, Type (0, 0), BuildingBlock: XIVTED_clean_linker_0, # of connection points: 2
#     Edge 21, Type (0, 0), BuildingBlock: XIVTED_clean_linker_0, # of connection points: 2
#     Edge 22, Type (0, 0), BuildingBlock: XIVTED_clean_linker_0, # of connection points: 2
#     Edge 23, Type (0, 0), BuildingBlock: XIVTED_clean_linker_0, # of connection points: 2
#     Edge 24, Type (0, 0), BuildingBlock: XIVTED_clean_linker_0, # of connection points: 2
#     Edge 25, Type (0, 0), BuildingBlock: XIVTED_clean_linker_0, # of connection points: 2
#     Edge 26, Type (0, 0), BuildingBlock: XIVTED_clean_linker_0, # of connection points: 2
#     Edge 27, Type (0, 0), BuildingBlock: XIVTED_clean_linker_0, # of connection points: 2
#     Edge 28, Type (0, 0), BuildingBlock: XIVTED_clean_linker_0, # of connection points: 2
#     Edge 29, Type (0, 0), BuildingBlock: XIVTED_clean_linker_0, # of connection points: 2
#     Edge 30, Type (0, 0), BuildingBlock: XIVTED_clean_linker_0, # of connection points: 2
#     Edge 31, Type (0, 0), BuildingBlock: XIVTED_clean_linker_0, # of connection points: 2
#     Edge 32, Type (0, 0), BuildingBlock: XIVTED_clean_linker_0, # of connection points: 2
#     Edge 33, Type (0, 0), BuildingBlock: XIVTED_clean_linker_0, # of connection points: 2
#     Edge 34, Type (0, 0), BuildingBlock: XIVTED_clean_linker_0, # of connection points: 2
#     Edge 35, Type (0, 0), BuildingBlock: XIVTED_clean_linker_0, # of connection points: 2
#     Edge 36, Type (0, 0), BuildingBlock: XIVTED_clean_linker_0, # of connection points: 2
#     Edge 37, Type (0, 0), BuildingBlock: XIVTED_clean_linker_0, # of connection points: 2
#     Edge 38, Type (0, 0), BuildingBlock: XIVTED_clean_linker_0, # of connection points: 2
#     Edge 39, Type (0, 0), BuildingBlock: XIVTED_clean_linker_0, # of connection points: 2
#     Edge 40, Type (0, 0), BuildingBlock: XIVTED_clean_linker_0, # of connection points: 2
#     Edge 41, Type (0, 0), BuildingBlock: XIVTED_clean_linker_0, # of connection points: 2
#     Edge 42, Type (0, 0), BuildingBlock: XIVTED_clean_linker_0, # of connection points: 2
#     Edge 43, Type (0, 0), BuildingBlock: XIVTED_clean_linker_0, # of connection points: 2
#     Edge 44, Type (0, 0), BuildingBlock: XIVTED_clean_linker_0, # of connection points: 2
#     Edge 45, Type (0, 0), BuildingBlock: XIVTED_clean_linker_0, # of connection points: 2
#     Edge 46, Type (0, 0), BuildingBlock: XIVTED_clean_linker_0, # of connection points: 2
#     Edge 47, Type (0, 0), BuildingBlock: XIVTED_clean_linker_0, # of connection points: 2
#     Edge 48, Type (0, 0), BuildingBlock: XIVTED_clean_linker_0, # of connection points: 2
#     Edge 49, Type (0, 0), BuildingBlock: XIVTED_clean_linker_0, # of connection points: 2
#     Edge 50, Type (0, 0), BuildingBlock: XIVTED_clean_linker_0, # of connection points: 2
#     Edge 51, Type (0, 0), BuildingBlock: XIVTED_clean_linker_0, # of connection points: 2
#     Edge 52, Type (0, 0), BuildingBlock: XIVTED_clean_linker_0, # of connection points: 2
#     Edge 53, Type (0, 0), BuildingBlock: XIVTED_clean_linker_0, # of connection points: 2
#     Edge 54, Type (0, 0), BuildingBlock: XIVTED_clean_linker_0, # of connection points: 2
#     Edge 55, Type (0, 0), BuildingBlock: XIVTED_clean_linker_0, # of connection points: 2
#     Edge 56, Type (0, 0), BuildingBlock: XIVTED_clean_linker_0, # of connection points: 2
#     Edge 57, Type (0, 0), BuildingBlock: XIVTED_clean_linker_0, # of connection points: 2
#     Edge 58, Type (0, 0), BuildingBlock: XIVTED_clean_linker_0, # of connection points: 2
#     Edge 59, Type (0, 0), BuildingBlock: XIVTED_clean_linker_0, # of connection points: 2
#     Edge 60, Type (0, 0), BuildingBlock: XIVTED_clean_linker_0, # of connection points: 2
#     Edge 61, Type (0, 0), BuildingBlock: XIVTED_clean_linker_0, # of connection points: 2
#     Edge 62, Type (0, 0), BuildingBlock: XIVTED_clean_linker_0, # of connection points: 2
#     Edge 63, Type (0, 0), BuildingBlock: XIVTED_clean_linker_0, # of connection points: 2
# Relax obj value: 0.128
# Max RMSD: 0.184
# Mean RMSD: 0.184
data_MOF--net-wiv--node1-BETDIP_clean_sbu_0--edge1-XIVTED_clean_linker_0
_symmetry_space_group_name_H-M    P1
_symmetry_Int_Tables_number       1
_symmetry_cell_setting            triclinic
loop_
_symmetry_equiv_pos_as_xyz
'x, y, z'
_cell_length_a     50.244321
_cell_length_b     50.2207
_cell_length_c     24.604117
_cell_angle_alpha  90.158724
_cell_angle_beta   90.072443
_cell_angle_gamma 89.948773
loop_
_atom_site_label
_atom_site_type_symbol
_atom_site_fract_x
_atom_site_fract_y
_atom_site_fract_z
_atom_type_partial_charge
Tb0 Tb 0.35539 0.10887 0.16685 0.0
Tb1 Tb 0.39346 0.1217 0.07788 0.0
C2 C 0.33537 0.09129 0.2536 0.0
C3 C 0.34257 0.09416 0.31155 0.0
C4 C 0.33238 0.07637 0.35006 0.0
C5 C 0.33871 0.0793 0.40527 0.0
C6 C 0.35535 0.10015 0.42309 0.0
C7 C 0.36576 0.11775 0.38407 0.0
C8 C 0.35947 0.11477 0.32893 0.0
C9 C 0.35504 0.15932 0.1366 0.0
C10 C 0.41624 0.12483 0.19357 0.0
C11 C 0.41441 0.13861 0.99165 0.0
C12 C 0.40853 0.1346 0.93333 0.0
C13 C 0.41688 0.15344 0.89506 0.0
C14 C 0.41115 0.14992 0.83973 0.0
C15 C 0.39685 0.12746 0.82148 0.0
C16 C 0.38851 0.10863 0.86021 0.0
C17 C 0.39434 0.11214 0.91545 0.0
C18 C 0.39416 0.07193 0.11213 0.0
C19 C 0.33275 0.10581 0.04977 0.0
O20 O 0.35202 0.07773 0.2235 0.0
O21 O 0.32737 0.113 0.22939 0.0
O22 O 0.3753 0.14467 0.14113 0.0
O23 O 0.33431 0.14592 0.15142 0.0
O24 O 0.3944 0.11186 0.20808 0.0
O25 O 0.41866 0.13508 0.14438 0.0
O26 O 0.39662 0.15201 1.01939 0.0
O27 O 0.42284 0.11764 1.01801 0.0
O28 O 0.37403 0.08637 0.10496 0.0
O29 O 0.4151 0.08506 0.09744 0.0
O30 O 0.35528 0.11739 0.035 0.0
O31 O 0.32912 0.09725 0.10013 0.0
H32 H 0.31933 0.06033 0.33749 0.0
H33 H 0.33012 0.06552 0.43413 0.0
H34 H 0.37896 0.13376 0.39607 0.0
H35 H 0.36768 0.12869 0.29989 0.0
H36 H 0.4279 0.17089 0.90797 0.0
H37 H 0.41824 0.16466 0.81119 0.0
H38 H 0.3771 0.09133 0.84803 0.0
H39 H 0.38761 0.09735 0.94431 0.0
Tb40 Tb 0.11955 0.62672 0.98796 0.0
Tb41 Tb 0.1141 0.66598 0.89859 0.0
C42 C 0.13269 0.60358 0.07452 0.0
C43 C 0.13239 0.61068 0.1328 0.0
C44 C 0.14005 0.6361 0.15096 0.0
C45 C 0.1382 0.64283 0.20606 0.0
C46 C 0.12876 0.62426 0.24417 0.0
C47 C 0.12145 0.59872 0.22582 0.0
C48 C 0.12323 0.59204 0.17071 0.0
C49 C 0.07182 0.62927 0.94391 0.0
C50 C 0.10761 0.68807 1.01605 0.0
C51 C 0.10273 0.68949 0.81114 0.0
C52 C 0.10418 0.68253 0.7529 0.0
C53 C 0.09817 0.65675 0.73432 0.0
C54 C 0.10061 0.65033 0.67919 0.0
C55 C 0.10912 0.66954 0.64145 0.0
C56 C 0.11493 0.69539 0.66029 0.0
C57 C 0.11248 0.70178 0.71544 0.0
C58 C 0.16238 0.66276 0.94026 0.0
C59 C 0.12484 0.60373 0.87249 0.0
O60 O 0.14953 0.61642 0.04351 0.0
O61 O 0.10933 0.60101 0.05169 0.0
O62 O 0.08702 0.64865 0.95382 0.0
O63 O 0.08256 0.60758 0.96206 0.0
O64 O 0.11653 0.66459 0.03209 0.0
O65 O 0.10205 0.6928 0.96428 0.0
O66 O 0.08544 0.67644 0.84041 0.0
O67 O 0.12556 0.69201 0.83607 0.0
O68 O 0.14694 0.64347 0.93061 0.0
O69 O 0.15065 0.68461 0.926 0.0
O70 O 0.1168 0.62741 0.85506 0.0
O71 O 0.13058 0.5994 0.92404 0.0
H72 H 0.14723 0.65089 0.12258 0.0
H73 H 0.1443 0.66256 0.21882 0.0
H74 H 0.11377 0.58403 0.25386 0.0
H75 H 0.11708 0.57237 0.15755 0.0
H76 H 0.09166 0.6415 0.76233 0.0
H77 H 0.09562 0.63034 0.6661 0.0
H78 H 0.12188 0.71059 0.63259 0.0
H79 H 0.11737 0.72175 0.72897 0.0
Tb80 Tb 0.66688 0.90975 0.1621 0.0
Tb81 Tb 0.62825 0.90186 0.07187 0.0
C82 C 0.68907 0.92407 0.2494 0.0
C83 C 0.68308 0.92039 0.30746 0.0
C84 C 0.69362 0.93811 0.3459 0.0
C85 C 0.6874 0.93536 0.40103 0.0
C86 C 0.67046 0.91482 0.41871 0.0
C87 C 0.65999 0.89704 0.37987 0.0
C88 C 0.66622 0.89982 0.32476 0.0
C89 C 0.6647 0.8605 0.125 0.0
C90 C 0.60504 0.89693 0.18719 0.0
C91 C 0.60608 0.88697 0.98516 0.0
C92 C 0.61248 0.88975 0.927 0.0
C93 C 0.60331 0.87076 0.8896 0.0
C94 C 0.60948 0.8731 0.83433 0.0
C95 C 0.62503 0.89448 0.81545 0.0
C96 C 0.63422 0.91344 0.8533 0.0
C97 C 0.62796 0.91112 0.90846 0.0
C98 C 0.63008 0.95065 0.11174 0.0
C99 C 0.6894 0.91495 0.04489 0.0
O100 O 0.67219 0.93883 0.22258 0.0
O101 O 0.69567 0.90266 0.22225 0.0
O102 O 0.64509 0.87589 0.13185 0.0
O103 O 0.68614 0.87253 0.14075 0.0
O104 O 0.62834 0.90592 0.20489 0.0
O105 O 0.60121 0.89037 0.13581 0.0
O106 O 0.62215 0.87183 1.01345 0.0
O107 O 0.60006 0.909 1.01084 0.0
O108 O 0.64956 0.93534 0.1038 0.0
O109 O 0.60869 0.93939 0.09346 0.0
O110 O 0.66628 0.90509 1.02881 0.0
O111 O 0.6935 0.92184 0.09627 0.0
H112 H 0.70661 0.95415 0.33326 0.0
H113 H 0.69607 0.9492 0.42986 0.0
H114 H 0.6466 0.88124 0.3919 0.0
H115 H 0.65776 0.88602 0.2956 0.0
H116 H 0.5913 0.85415 0.90312 0.0
H117 H 0.60177 0.85832 0.80632 0.0
H118 H 0.64658 0.92991 0.84048 0.0
H119 H 0.63536 0.92597 0.9367 0.0
Tb120 Tb 0.89907 0.39652 0.98613 0.0
Tb121 Tb 0.90771 0.35773 0.89643 0.0
C122 C 0.88466 0.41876 0.07312 0.0
C123 C 0.8876 0.41218 0.13124 0.0
C124 C 0.86877 0.42135 0.16889 0.0
C125 C 0.8714 0.41522 0.22415 0.0
C126 C 0.8929 0.39969 0.24279 0.0
C127 C 0.91167 0.39046 0.20472 0.0
C128 C 0.90908 0.3967 0.14958 0.0
C129 C 0.94767 0.39526 0.946 0.0
C130 C 0.91284 0.33544 1.01358 0.0
C131 C 0.92304 0.33595 0.80953 0.0
C132 C 0.92016 0.34254 0.75146 0.0
C133 C 0.93821 0.33221 0.7135 0.0
C134 C 0.93562 0.33832 0.65824 0.0
C135 C 0.91491 0.35498 0.63989 0.0
C136 C 0.89696 0.36543 0.67835 0.0
C137 C 0.89956 0.35927 0.73354 0.0
C138 C 0.85844 0.3593 0.9332 0.0
C139 C 0.89403 0.41943 0.87092 0.0
O140 O 0.86923 0.40299 0.04465 0.0
O141 O 0.90665 0.42456 0.04736 0.0
O142 O 0.93284 0.37559 0.95495 0.0
O143 O 0.93578 0.41673 0.96213 0.0
O144 O 0.90272 0.35853 1.02936 0.0
O145 O 0.9198 0.33124 0.96235 0.0
O146 O 0.93783 0.35218 0.83821 0.0
O147 O 0.90114 0.32953 0.83493 0.0
O148 O 0.87345 0.37911 0.92598 0.0
O149 O 0.87077 0.33795 0.91767 0.0
O150 O 0.9036 0.39626 0.8536 0.0
O151 O 0.887 0.4232 0.92203 0.0
H152 H 0.85201 0.43324 0.15554 0.0
H153 H 0.8564 0.42239 0.25218 0.0
H154 H 0.92863 0.37873 0.21761 0.0
H155 H 0.92392 0.38945 0.12123 0.0
H156 H 0.95434 0.3194 0.7266 0.0
H157 H 0.95004 0.33023 0.62998 0.0
H158 H 0.88059 0.37804 0.66576 0.0
H159 H 0.88535 0.36742 0.76219 0.0
Tb160 Tb 0.34973 0.40499 0.14005 0.0
Tb161 Tb 0.38973 0.40044 0.2298 0.0
C162 C 0.32609 0.41455 0.05183 0.0
C163 C 0.33492 0.41675 0.99477 0.0
C164 C 0.3209 0.43293 0.95829 0.0
C165 C 0.32804 0.43367 0.90326 0.0
C166 C 0.34938 0.41817 0.8836 0.0
C167 C 0.36377 0.40248 0.92078 0.0
C168 C 0.35666 0.40181 0.97567 0.0
C169 C 0.35322 0.35735 0.18435 0.0
C170 C 0.41148 0.39362 0.11418 0.0
C171 C 0.41277 0.38773 0.31694 0.0
C172 C 0.40727 0.39239 0.37506 0.0
C173 C 0.41796 0.37521 0.41421 0.0
C174 C 0.41229 0.379 0.46941 0.0
C175 C 0.39564 0.39998 0.48646 0.0
C176 C 0.38501 0.41721 0.44695 0.0
C177 C 0.39087 0.41351 0.39183 0.0
C178 C 0.3874 0.4477 0.18391 0.0
C179 C 0.32814 0.41292 0.2574 0.0
O180 O 0.33397 0.43321 0.08536 0.0
O181 O 0.32809 0.39087 0.07328 0.0
O182 O 0.37239 0.37271 0.17383 0.0
O183 O 0.33126 0.36877 0.16966 0.0
O184 O 0.38861 0.40419 0.09815 0.0
O185 O 0.41512 0.38594 0.16494 0.0
O186 O 0.39588 0.37225 0.29149 0.0
O187 O 0.41896 0.40875 0.2883 0.0
O188 O 0.36805 0.43247 0.19357 0.0
O189 O 0.40887 0.43764 0.20454 0.0
O190 O 0.3521 0.40551 0.27408 0.0
O191 O 0.32276 0.41667 0.20525 0.0
H192 H 0.30414 0.4447 0.9722 0.0
H193 H 0.31677 0.44634 0.87611 0.0
H194 H 0.38007 0.38999 0.90728 0.0
H195 H 0.36778 0.38905 1.00289 0.0
H196 H 0.43057 0.35873 0.40205 0.0
H197 H 0.42056 0.36519 0.49865 0.0
H198 H 0.37237 0.43372 0.45867 0.0
H199 H 0.3825 0.4271 0.36225 0.0
Tb200 Tb 0.40016 0.6318 0.82741 0.0
Tb201 Tb 0.40902 0.67009 0.91806 0.0
C202 C 0.38441 0.60987 0.74113 0.0
C203 C 0.38599 0.61637 0.68265 0.0
C204 C 0.37915 0.64173 0.66303 0.0
C205 C 0.38189 0.64774 0.60781 0.0
C206 C 0.3915 0.62852 0.57097 0.0
C207 C 0.39808 0.60308 0.59076 0.0
C208 C 0.39535 0.59709 0.64597 0.0
C209 C 0.44905 0.63264 0.86587 0.0
C210 C 0.41373 0.69292 0.80116 0.0
C211 C 0.4231 0.69259 1.00521 0.0
C212 C 0.42138 0.68612 0.06367 0.0
C213 C 0.4292 0.66111 0.08367 0.0
C214 C 0.42649 0.65513 0.1389 0.0
C215 C 0.41601 0.67406 0.17537 0.0
C216 C 0.40847 0.69916 0.15522 0.0
C217 C 0.41113 0.7051 0.09998 0.0
C218 C 0.35943 0.66787 0.88216 0.0
C219 C 0.39639 0.60835 0.94276 0.0
O220 O 0.36932 0.62515 0.77147 0.0
O221 O 0.40704 0.60419 0.76474 0.0
O222 O 0.43412 0.65253 0.85887 0.0
O223 O 0.4373 0.61146 0.84773 0.0
O224 O 0.40362 0.66993 0.78481 0.0
O225 O 0.42065 0.69692 0.85251 0.0
O226 O 0.4389 0.67785 0.97551 0.0
O227 O 0.40051 0.6973 0.98078 0.0
O228 O 0.375 0.64847 0.88876 0.0
O229 O 0.37164 0.6894 0.8969 0.0
O230 O 0.40683 0.63117 0.95989 0.0
O231 O 0.38834 0.60528 0.89201 0.0
H232 H 0.37185 0.65703 0.69032 0.0
H233 H 0.37629 0.66741 0.59397 0.0
H234 H 0.40588 0.58789 0.56379 0.0
H235 H 0.40086 0.57744 0.66019 0.0
H236 H 0.43732 0.64611 0.05667 0.0
H237 H 0.43283 0.63574 0.15308 0.0
H238 H 0.40003 0.7141 0.18195 0.0
H239 H 0.40492 0.72449 0.08546 0.0
Tb240 Tb 0.67018 0.61215 0.13466 0.0
Tb241 Tb 0.6317 0.62238 0.22412 0.0
C242 C 0.69163 0.5968 0.04728 0.0
C243 C 0.68497 0.60003 0.98928 0.0
C244 C 0.69633 0.583 0.95048 0.0
C245 C 0.68994 0.58572 0.89533 0.0
C246 C 0.67207 0.60557 0.87792 0.0
C247 C 0.66067 0.62255 0.91716 0.0
C248 C 0.66701 0.61977 0.97228 0.0
C249 C 0.66836 0.66221 0.16788 0.0
C250 C 0.6088 0.62584 0.10867 0.0
C251 C 0.61 0.63854 0.31039 0.0
C252 C 0.6157 0.63478 0.36873 0.0
C253 C 0.60676 0.65358 0.40674 0.0
C254 C 0.61261 0.65055 0.46206 0.0
C255 C 0.62766 0.62866 0.4805 0.0
C256 C 0.63651 0.60981 0.44204 0.0
C257 C 0.63053 0.61281 0.3868 0.0
C258 C 0.63298 0.57282 0.18809 0.0
C259 C 0.69274 0.60845 0.25194 0.0
O260 O 0.67514 0.58231 0.07549 0.0
O261 O 0.69845 0.61846 0.07329 0.0
O262 O 0.64875 0.64682 0.16218 0.0
O263 O 0.68968 0.64977 0.15288 0.0
O264 O 0.6311 0.61386 0.09327 0.0
O265 O 0.60605 0.63537 0.15843 0.0
O266 O 0.62757 0.65239 0.28326 0.0
O267 O 0.60232 0.61734 0.28363 0.0
O268 O 0.6526 0.58801 0.19503 0.0
O269 O 0.61168 0.58474 0.20503 0.0
O270 O 0.66984 0.61919 0.26707 0.0
O271 O 0.69672 0.60054 0.20112 0.0
H272 H 0.71018 0.56761 0.96283 0.0
H273 H 0.69931 0.57249 0.86624 0.0
H274 H 0.64656 0.6378 0.90536 0.0
H275 H 0.65787 0.63302 1.00164 0.0
H276 H 0.59525 0.67066 0.39361 0.0
H277 H 0.60511 0.66526 0.49043 0.0
H278 H 0.64848 0.59294 0.45442 0.0
H279 H 0.63773 0.59809 0.35808 0.0
Tb280 Tb 0.62099 0.38738 0.83696 0.0
Tb281 Tb 0.60666 0.34859 0.93286 0.0
C282 C 0.63973 0.40605 0.75034 0.0
C283 C 0.63584 0.39934 0.6923 0.0
C284 C 0.65605 0.40452 0.65456 0.0
C285 C 0.65262 0.39795 0.59956 0.0
C286 C 0.62891 0.38592 0.58122 0.0
C287 C 0.60874 0.3807 0.61939 0.0
C288 C 0.61215 0.3874 0.67425 0.0
C289 C 0.57125 0.38771 0.87172 0.0
C290 C 0.6052 0.32607 0.81226 0.0
C291 C 0.58315 0.33018 1.01455 0.0
C292 C 0.58933 0.33207 0.07309 0.0
C293 C 0.57065 0.324 0.11196 0.0
C294 C 0.57549 0.32822 0.1675 0.0
C295 C 0.59907 0.34076 0.18519 0.0
C296 C 0.61793 0.34833 0.14586 0.0
C297 C 0.61308 0.3441 0.09048 0.0
C298 C 0.65916 0.35279 0.92145 0.0
C299 C 0.6243 0.40944 0.95389 0.0
O300 O 0.65202 0.38807 0.77969 0.0
O301 O 0.61906 0.41612 0.77551 0.0
O302 O 0.58641 0.36783 0.86793 0.0
O303 O 0.58339 0.40844 0.85238 0.0
O304 O 0.61339 0.34969 0.79495 0.0
O305 O 0.59984 0.32112 0.86434 0.0
O306 O 0.57705 0.35295 0.99188 0.0
O307 O 0.59969 0.31612 0.9847 0.0
O308 O 0.64099 0.36421 0.89535 0.0
O309 O 0.6475 0.33735 0.95597 0.0
O310 O 0.60991 0.38857 0.96923 0.0
O311 O 0.63497 0.41127 0.90481 0.0
H312 H 0.67455 0.41359 0.66763 0.0
H313 H 0.66871 0.40198 0.57154 0.0
H314 H 0.5901 0.37178 0.60677 0.0
H315 H 0.59622 0.38326 0.70263 0.0
H316 H 0.55204 0.31502 0.09932 0.0
H317 H 0.56035 0.32242 0.19642 0.0
H318 H 0.63647 0.35766 0.1578 0.0
H319 H 0.62766 0.35072 0.06109 0.0
Tb320 Tb 0.85451 0.61196 0.66141 0.0
Tb321 Tb 0.8942 0.62171 0.57351 0.0
C322 C 0.83244 0.59692 0.74807 0.0
C323 C 0.8395 0.59779 0.80662 0.0
C324 C 0.86418 0.5885 0.82589 0.0
C325 C 0.87076 0.59068 0.88115 0.0
C326 C 0.85279 0.6021 0.91849 0.0
C327 C 0.82799 0.61106 0.899 0.0
C328 C 0.82146 0.60892 0.84381 0.0
C329 C 0.85611 0.66161 0.62635 0.0
C330 C 0.91575 0.6255 0.69002 0.0
C331 C 0.91633 0.63643 0.4869 0.0
C332 C 0.90961 0.63405 0.42829 0.0
C333 C 0.88463 0.64191 0.40798 0.0
C334 C 0.87835 0.63848 0.35288 0.0
C335 C 0.89688 0.62715 0.31662 0.0
C336 C 0.92195 0.61953 0.33709 0.0
C337 C 0.9282 0.62296 0.39219 0.0
C338 C 0.89309 0.57291 0.61255 0.0
C339 C 0.83334 0.60742 0.54336 0.0
O340 O 0.8464 0.58115 0.71661 0.0
O341 O 0.82792 0.61994 0.72527 0.0
O342 O 0.87586 0.64651 0.63365 0.0
O343 O 0.83471 0.64903 0.6403 0.0
O344 O 0.89311 0.61389 0.70433 0.0
O345 O 0.91942 0.63463 0.64023 0.0
O346 O 0.90127 0.65201 0.5167 0.0
O347 O 0.92207 0.61414 0.51171 0.0
O348 O 0.87341 0.58763 0.60281 0.0
O349 O 0.91465 0.5851 0.59802 0.0
O350 O 0.85649 0.61777 0.52889 0.0
O351 O 0.82852 0.6004 0.59427 0.0
H352 H 0.87847 0.57968 0.79829 0.0
H353 H 0.88988 0.58321 0.89463 0.0
H354 H 0.81377 0.62031 0.92619 0.0
H355 H 0.80235 0.6163 0.83 0.0
H356 H 0.8698 0.65053 0.43468 0.0
H357 H 0.85898 0.64491 0.33867 0.0
H358 H 0.93662 0.61041 0.31077 0.0
H359 H 0.94755 0.61663 0.40679 0.0
Tb360 Tb 0.62299 0.12932 0.48084 0.0
Tb361 Tb 0.61297 0.16852 0.3927 0.0
C362 C 0.63874 0.1074 0.56716 0.0
C363 C 0.63485 0.11316 0.62557 0.0
C364 C 0.65331 0.10387 0.66387 0.0
C365 C 0.65008 0.10968 0.71924 0.0
C366 C 0.62838 0.12508 0.73743 0.0
C367 C 0.60989 0.13431 0.69875 0.0
C368 C 0.61303 0.12832 0.64348 0.0
C369 C 0.57362 0.13037 0.44405 0.0
C370 C 0.60857 0.19008 0.51079 0.0
C371 C 0.59851 0.19052 0.30523 0.0
C372 C 0.60143 0.18375 0.24706 0.0
C373 C 0.58475 0.19567 0.20845 0.0
C374 C 0.58727 0.18937 0.15317 0.0
C375 C 0.60657 0.17096 0.13527 0.0
C376 C 0.62317 0.15893 0.1744 0.0
C377 C 0.6206 0.16524 0.22966 0.0
C378 C 0.66284 0.16668 0.4271 0.0
C379 C 0.62654 0.10722 0.36479 0.0
O380 O 0.65284 0.1248 0.54012 0.0
O381 O 0.61758 0.0999 0.54015 0.0
O382 O 0.58856 0.15017 0.45172 0.0
O383 O 0.58568 0.1091 0.46066 0.0
O384 O 0.6195 0.16715 0.52495 0.0
O385 O 0.6008 0.19448 0.46002 0.0
O386 O 0.58338 0.17466 0.33354 0.0
O387 O 0.6204 0.19647 0.33123 0.0
O388 O 0.64761 0.14704 0.41988 0.0
O389 O 0.65024 0.18811 0.41339 0.0
O390 O 0.61458 0.12967 0.35036 0.0
O391 O 0.63609 0.10403 0.41441 0.0
H392 H 0.67033 0.09222 0.65092 0.0
H393 H 0.66487 0.10249 0.74771 0.0
H394 H 0.59279 0.14595 0.71124 0.0
H395 H 0.59848 0.13567 0.61464 0.0
H396 H 0.5697 0.20985 0.22108 0.0
H397 H 0.57383 0.19872 0.12454 0.0
H398 H 0.63847 0.14493 0.16232 0.0
H399 H 0.63371 0.15576 0.25877 0.0
Tb400 Tb 0.16448 0.40893 0.665 0.0
Tb401 Tb 0.12586 0.40009 0.57541 0.0
C402 C 0.18594 0.42475 0.75189 0.0
C403 C 0.17943 0.42136 0.80987 0.0
C404 C 0.18941 0.43933 0.84849 0.0
C405 C 0.18313 0.43638 0.9036 0.0
C406 C 0.16664 0.41542 0.9211 0.0
C407 C 0.15661 0.39751 0.88199 0.0
C408 C 0.16296 0.40045 0.82698 0.0
C409 C 0.16243 0.35914 0.63042 0.0
C410 C 0.1027 0.39571 0.69069 0.0
C411 C 0.10374 0.38564 0.48831 0.0
C412 C 0.11058 0.38857 0.43031 0.0
C413 C 0.10139 0.36992 0.39221 0.0
C414 C 0.10784 0.37254 0.3371 0.0
C415 C 0.12373 0.39386 0.31908 0.0
C416 C 0.13295 0.41247 0.3576 0.0
C417 C 0.12639 0.40988 0.41258 0.0
C418 C 0.12755 0.44902 0.61463 0.0
C419 C 0.18708 0.41294 0.54796 0.0
O420 O 0.16917 0.43908 0.72369 0.0
O421 O 0.19312 0.40317 0.72588 0.0
O422 O 0.14281 0.37463 0.6362 0.0
O423 O 0.18381 0.37141 0.64588 0.0
O424 O 0.12593 0.40512 0.70791 0.0
O425 O 0.09891 0.3886 0.63957 0.0
O426 O 0.11937 0.37016 0.51688 0.0
O427 O 0.09791 0.40767 0.51415 0.0
O428 O 0.14704 0.43388 0.60583 0.0
O429 O 0.10599 0.43723 0.59876 0.0
O430 O 0.16399 0.40282 0.53236 0.0
O431 O 0.19114 0.42039 0.59898 0.0
H432 H 0.20201 0.4557 0.83601 0.0
H433 H 0.1909 0.45076 0.93238 0.0
H434 H 0.14414 0.38095 0.89393 0.0
H435 H 0.15509 0.38631 0.7978 0.0
H436 H 0.08924 0.35328 0.4051 0.0
H437 H 0.10067 0.35767 0.30872 0.0
H438 H 0.14494 0.42929 0.3452 0.0
H439 H 0.13369 0.42457 0.44128 0.0
Tb440 Tb 0.40213 0.89537 0.48475 0.0
Tb441 Tb 0.40994 0.85621 0.39492 0.0
C442 C 0.38804 0.91812 0.57138 0.0
C443 C 0.38912 0.91146 0.62986 0.0
C444 C 0.3826 0.88592 0.64889 0.0
C445 C 0.38531 0.87969 0.70408 0.0
C446 C 0.39452 0.89887 0.74147 0.0
C447 C 0.40059 0.92454 0.72226 0.0
C448 C 0.39794 0.93072 0.6671 0.0
C449 C 0.45028 0.89391 0.44291 0.0
C450 C 0.41526 0.8341 0.51207 0.0
C451 C 0.42449 0.83402 0.30795 0.0
C452 C 0.42269 0.84073 0.24959 0.0
C453 C 0.42728 0.86674 0.23084 0.0
C454 C 0.42438 0.87282 0.17563 0.0
C455 C 0.4168 0.85304 0.13802 0.0
C456 C 0.41244 0.827 0.157 0.0
C457 C 0.41537 0.82093 0.21216 0.0
C458 C 0.36079 0.85866 0.43247 0.0
C459 C 0.39719 0.918 0.36899 0.0
O460 O 0.37184 0.90412 0.54077 0.0
O461 O 0.41107 0.92201 0.54805 0.0
O462 O 0.4355 0.87425 0.45249 0.0
O463 O 0.43861 0.91546 0.45938 0.0
O464 O 0.40567 0.85738 0.52813 0.0
O465 O 0.42161 0.82959 0.46065 0.0
O466 O 0.44017 0.84878 0.33804 0.0
O467 O 0.40189 0.82899 0.33204 0.0
O468 O 0.37623 0.87811 0.42506 0.0
O469 O 0.37281 0.83705 0.41729 0.0
O470 O 0.40613 0.89457 0.35182 0.0
O471 O 0.39073 0.92224 0.4203 0.0
H472 H 0.37581 0.87063 0.62106 0.0
H473 H 0.38074 0.85964 0.71719 0.0
H474 H 0.40732 0.93995 0.7499 0.0
H475 H 0.40303 0.95055 0.65339 0.0
H476 H 0.43286 0.88247 0.2588 0.0
H477 H 0.42758 0.89315 0.16261 0.0
H478 H 0.40693 0.8112 0.12913 0.0
H479 H 0.41173 0.80075 0.2257 0.0
Tb480 Tb 0.85139 0.90944 0.63533 0.0
Tb481 Tb 0.89048 0.90081 0.72456 0.0
C482 C 0.82848 0.92244 0.54798 0.0
C483 C 0.83527 0.92105 0.48958 0.0
C484 C 0.86074 0.92785 0.47054 0.0
C485 C 0.86702 0.92521 0.41535 0.0
C486 C 0.848 0.91568 0.378 0.0
C487 C 0.82244 0.90919 0.39725 0.0
C488 C 0.81618 0.91185 0.4524 0.0
C489 C 0.85369 0.86007 0.67187 0.0
C490 C 0.91297 0.89743 0.60879 0.0
C491 C 0.91268 0.88564 0.81087 0.0
C492 C 0.90621 0.88772 0.86945 0.0
C493 C 0.88086 0.88107 0.88934 0.0
C494 C 0.87487 0.88411 0.94457 0.0
C495 C 0.8941 0.89383 0.98124 0.0
C496 C 0.91953 0.90026 0.9612 0.0
C497 C 0.92549 0.89722 0.90595 0.0
C498 C 0.88908 0.94964 0.68564 0.0
C499 C 0.82942 0.91467 0.75274 0.0
O500 O 0.84218 0.93898 0.57809 0.0
O501 O 0.82499 0.89959 0.57207 0.0
O502 O 0.87322 0.87536 0.66423 0.0
O503 O 0.83211 0.87238 0.65804 0.0
O504 O 0.89027 0.90866 0.59351 0.0
O505 O 0.91631 0.88834 0.65867 0.0
O506 O 0.89736 0.87035 0.78104 0.0
O507 O 0.9184 0.90803 0.78654 0.0
O508 O 0.86941 0.93464 0.69381 0.0
O509 O 0.9105 0.93797 0.70281 0.0
O510 O 0.85257 0.90462 0.76832 0.0
O511 O 0.82496 0.92136 0.70146 0.0
H512 H 0.87587 0.93497 0.49833 0.0
H513 H 0.88698 0.93013 0.40216 0.0
H514 H 0.80717 0.90218 0.36962 0.0
H515 H 0.79642 0.90652 0.46614 0.0
H516 H 0.8655 0.8738 0.86219 0.0
H517 H 0.85499 0.87931 0.95832 0.0
H518 H 0.93494 0.90745 0.98831 0.0
H519 H 0.94519 0.90243 0.89163 0.0
Tb520 Tb 0.9007 0.13128 0.32703 0.0
Tb521 Tb 0.91076 0.17038 0.41612 0.0
C522 C 0.88553 0.10937 0.24023 0.0
C523 C 0.88785 0.11602 0.18173 0.0
C524 C 0.88109 0.14138 0.1619 0.0
C525 C 0.88455 0.14758 0.10687 0.0
C526 C 0.89479 0.12855 0.07027 0.0
C527 C 0.90128 0.1031 0.09026 0.0
C528 C 0.89784 0.09694 0.14529 0.0
C529 C 0.94948 0.13155 0.36634 0.0
C530 C 0.91528 0.19221 0.29877 0.0
C531 C 0.92601 0.19229 0.50306 0.0
C532 C 0.92517 0.18525 0.56147 0.0
C533 C 0.93303 0.16 0.58016 0.0
C534 C 0.93078 0.15346 0.63531 0.0
C535 C 0.92067 0.17203 0.67306 0.0
C536 C 0.91314 0.19738 0.65414 0.0
C537 C 0.91538 0.20388 0.59905 0.0
C538 C 0.86108 0.16918 0.38042 0.0
C539 C 0.89662 0.10917 0.44291 0.0
O540 O 0.87025 0.1247 0.27009 0.0
O541 O 0.90781 0.10338 0.26491 0.0
O542 O 0.93506 0.15157 0.35732 0.0
O543 O 0.93701 0.11026 0.35091 0.0
O544 O 0.90491 0.16915 0.28339 0.0
O545 O 0.92233 0.19668 0.34987 0.0
O546 O 0.94164 0.1782 0.47159 0.0
O547 O 0.90297 0.19691 0.48031 0.0
O548 O 0.87613 0.14941 0.38761 0.0
O549 O 0.87374 0.19048 0.39506 0.0
O550 O 0.90851 0.13158 0.45812 0.0
O551 O 0.88745 0.10596 0.39294 0.0
H552 H 0.87332 0.15657 0.18891 0.0
H553 H 0.879 0.16726 0.09298 0.0
H554 H 0.90954 0.08804 0.0636 0.0
H555 H 0.90331 0.07729 0.15958 0.0
H556 H 0.94077 0.14525 0.55217 0.0
H557 H 0.93712 0.13388 0.64839 0.0
H558 H 0.90493 0.21208 0.6817 0.0
H559 H 0.90908 0.22343 0.58561 0.0
Tb560 Tb 0.16596 0.11168 0.64831 0.0
Tb561 Tb 0.12741 0.12017 0.73792 0.0
C562 C 0.18751 0.09609 0.56145 0.0
C563 C 0.18092 0.09932 0.50346 0.0
C564 C 0.19088 0.08124 0.46507 0.0
C565 C 0.18456 0.08406 0.40994 0.0
C566 C 0.16806 0.10501 0.39218 0.0
C567 C 0.15804 0.12303 0.43106 0.0
C568 C 0.16441 0.12021 0.48611 0.0
C569 C 0.16411 0.16125 0.68418 0.0
C570 C 0.10422 0.12532 0.62274 0.0
C571 C 0.10519 0.13447 0.82487 0.0
C572 C 0.1119 0.13141 0.8829 0.0
C573 C 0.10318 0.15038 0.92079 0.0
C574 C 0.10963 0.14773 0.97591 0.0
C575 C 0.12504 0.12607 0.99413 0.0
C576 C 0.13378 0.10713 0.95584 0.0
C577 C 0.12722 0.10974 0.90085 0.0
C578 C 0.12895 0.0715 0.69742 0.0
C579 C 0.18854 0.10677 0.7655 0.0
O580 O 0.17096 0.08157 0.58966 0.0
O581 O 0.1944 0.11779 0.58736 0.0
O582 O 0.14443 0.14591 0.67784 0.0
O583 O 0.18545 0.14896 0.6686 0.0
O584 O 0.12738 0.11586 0.60526 0.0
O585 O 0.10056 0.13221 0.67398 0.0
O586 O 0.12092 0.14996 0.79671 0.0
O587 O 0.09935 0.11251 0.79875 0.0
O588 O 0.14847 0.08648 0.70679 0.0
O589 O 0.1074 0.08331 0.71326 0.0
O590 O 0.16542 0.11669 0.78142 0.0
O591 O 0.19268 0.09991 0.71418 0.0
H592 H 0.2035 0.06489 0.47776 0.0
H593 H 0.19231 0.06959 0.38132 0.0
H594 H 0.14558 0.13958 0.41891 0.0
H595 H 0.15652 0.13442 0.51512 0.0
H596 H 0.09143 0.1673 0.90771 0.0
H597 H 0.10284 0.16285 1.00415 0.0
H598 H 0.1454 0.09005 0.96843 0.0
H599 H 0.13414 0.09481 0.8723 0.0
Tb600 Tb 0.12268 0.89108 0.33108 0.0
Tb601 Tb 0.11027 0.85223 0.42832 0.0
C602 C 0.14029 0.91034 0.24411 0.0
C603 C 0.13677 0.90303 0.18641 0.0
C604 C 0.15636 0.90952 0.14819 0.0
C605 C 0.15311 0.90252 0.09339 0.0
C606 C 0.13018 0.88883 0.07583 0.0
C607 C 0.11066 0.88228 0.11454 0.0
C608 C 0.1139 0.88937 0.16915 0.0
C609 C 0.07336 0.89026 0.36796 0.0
C610 C 0.10869 0.82919 0.30807 0.0
C611 C 0.08722 0.8332 0.5098 0.0
C612 C 0.09311 0.83485 0.56831 0.0
C613 C 0.07505 0.82475 0.60633 0.0
C614 C 0.07941 0.82856 0.66205 0.0
C615 C 0.10189 0.84265 0.6807 0.0
C616 C 0.12022 0.85226 0.64223 0.0
C617 C 0.11584 0.84843 0.5866 0.0
C618 C 0.16233 0.85673 0.41261 0.0
C619 C 0.12727 0.91362 0.44809 0.0
O620 O 0.1537 0.89338 0.27395 0.0
O621 O 0.11894 0.91916 0.26885 0.0
O622 O 0.08899 0.87077 0.36391 0.0
O623 O 0.08467 0.91116 0.34744 0.0
O624 O 0.11639 0.85287 0.29007 0.0
O625 O 0.10337 0.82455 0.36026 0.0
O626 O 0.08073 0.85598 0.48754 0.0
O627 O 0.10418 0.8196 0.48005 0.0
O628 O 0.14357 0.86854 0.38912 0.0
O629 O 0.15154 0.84074 0.44741 0.0
O630 O 0.1151 0.89184 0.46614 0.0
O631 O 0.13568 0.91626 0.39739 0.0
H632 H 0.17414 0.9201 0.16067 0.0
H633 H 0.16839 0.9082 0.06469 0.0
H634 H 0.09298 0.87135 0.10284 0.0
H635 H 0.09854 0.88404 0.198 0.0
H636 H 0.05732 0.81435 0.5929 0.0
H637 H 0.06507 0.82061 0.69052 0.0
H638 H 0.13752 0.86352 0.65496 0.0
H639 H 0.12986 0.85665 0.55776 0.0
H640 H 0.3852 0.91555 0.2604 0.0
H641 H 0.43127 0.06012 0.18878 0.0
H642 H 0.4052 0.9707 0.38881 0.0
H643 H 0.35834 0.03117 0.1176 0.0
H644 H 0.43093 0.02234 0.25203 0.0
H645 H 0.38361 0.95305 0.19609 0.0
C646 C 0.38918 0.93553 0.275 0.0
C647 C 0.39511 0.94016 0.32997 0.0
C648 C 0.41513 0.02425 0.22227 0.0
C649 C 0.39411 0.98259 0.25684 0.0
C650 C 0.41539 0.04559 0.1861 0.0
C651 C 0.39483 0.04855 0.14805 0.0
C652 C 0.39467 1.00534 0.21904 0.0
C653 C 0.37453 0.02942 0.14648 0.0
C654 C 0.38819 0.9568 0.23846 0.0
C655 C 0.40024 0.96637 0.34687 0.0
N656 N 0.37508 1.00834 0.18117 0.0
N657 N 0.39998 0.98659 0.31027 0.0
H658 H 0.92467 0.59282 0.77632 0.0
H659 H 0.04533 0.67322 0.90503 0.0
H660 H 0.95634 0.66209 0.69587 0.0
H661 H 0.04173 0.58747 0.90928 0.0
H662 H 1.00672 0.67347 0.84335 0.0
H663 H 0.9615 0.5947 0.84141 0.0
C664 C 0.93922 0.6086 0.77268 0.0
C665 C 0.93747 0.62732 0.73056 0.0
C666 C 0.01448 0.65466 0.8579 0.0
C667 C 0.97946 0.62969 0.80528 0.0
C668 C 0.03652 0.65447 0.89276 0.0
C669 C 0.04719 0.63025 0.91094 0.0
C670 C 1.00251 0.63049 0.84287 0.0
C671 C 0.03433 0.60658 0.89569 0.0
C672 C 0.96028 0.60954 0.80964 0.0
C673 C 0.95706 0.64719 0.72754 0.0
N674 N 0.01263 0.60728 0.86266 0.0
N675 N 0.97721 0.64797 0.76466 0.0
H676 H 0.58771 0.98111 0.14169 0.0
H677 H 0.66304 0.0665 0.36199 0.0
H678 H 0.67331 0.9777 0.15271 0.0
H679 H 0.59533 0.09832 0.27575 0.0
H680 H 0.66531 0.02986 0.29559 0.0
H681 H 0.58798 0.02075 0.19992 0.0
C682 C 0.60658 0.98873 0.15631 0.0
C683 C 0.6305 0.97577 0.14335 0.0
C684 C 0.65011 0.04502 0.29117 0.0
C685 C 0.63085 0.02077 0.21069 0.0
C686 C 0.6487 0.06579 0.32911 0.0
C687 C 0.62894 0.08544 0.32439 0.0
C688 C 0.63121 0.04354 0.24918 0.0
C689 C 0.61093 0.08364 0.28083 0.0
C690 C 0.60669 0.01133 0.18948 0.0
C691 C 0.65438 0.98668 0.163 0.0
N692 N 0.61227 0.06287 0.24534 0.0
N693 N 0.65395 1.00831 0.19654 0.0
H694 H 0.96026 0.43179 0.86902 0.0
H695 H 0.10414 0.38277 0.79896 0.0
H696 H 0.98724 0.35797 0.93917 0.0
H697 H 0.05034 0.40485 0.67002 0.0
H698 H 0.06617 0.3814 0.86225 0.0
H699 H 0.99818 0.4306 0.80606 0.0
C700 C 0.97435 0.41549 0.87145 0.0
C701 C 0.97082 0.39497 0.90925 0.0
C702 C 0.06281 0.3864 0.81999 0.0
C703 C 0.01424 0.39384 0.83853 0.0
C704 C 0.08437 0.38729 0.78404 0.0
C705 C 0.08026 0.39377 0.72922 0.0
C706 C 0.03725 0.39296 0.80121 0.0
C707 C 0.05426 0.39949 0.71187 0.0
C708 C 0.99579 0.41476 0.83544 0.0
C709 C 0.98941 0.37412 0.91047 0.0
N710 N 0.03377 0.39934 0.74791 0.0
N711 N 0.01062 0.37423 0.87598 0.0
H712 H 0.37938 0.45074 0.07439 0.0
H713 H 0.40658 0.60712 0.05289 0.0
H714 H 0.39646 0.49911 0.2148 0.0
H715 H 0.37975 0.5578 0.91973 0.0
H716 H 0.40335 0.56858 0.11347 0.0
H717 H 0.37962 0.49018 1.01787 0.0
C718 C 0.38239 0.46977 0.09369 0.0
C719 C 0.38674 0.47176 0.14972 0.0
C720 C 0.3981 0.56628 0.07102 0.0
C721 C 0.38844 0.51733 0.08456 0.0
C722 C 0.39999 0.58826 0.03635 0.0
C723 C 0.39356 0.58573 0.98097 0.0
C724 C 0.38984 0.54156 0.05007 0.0
C725 C 0.38495 0.56079 0.96201 0.0
C726 C 0.38296 0.4924 0.06114 0.0
C727 C 0.39246 0.4969 0.17177 0.0
N728 N 0.38346 0.53975 0.99637 0.0
N729 N 0.3931 0.51879 0.13915 0.0
H730 H 0.56885 0.66302 0.10832 0.0
H731 H 0.47934 0.58968 0.89262 0.0
H732 H 0.59854 0.59505 1.0194 0.0
H733 H 0.47727 0.67529 0.90592 0.0
H734 H 0.51993 0.58913 0.94786 0.0
H735 H 0.53148 0.66604 0.04415 0.0
C736 C 0.56752 0.64878 0.07528 0.0
C737 C 0.58676 0.62871 0.0692 0.0
C738 C 0.51059 0.60802 0.93857 0.0
C739 C 0.54401 0.63185 0.99651 0.0
C740 C 0.48744 0.60838 0.90714 0.0
C741 C 0.4746 0.63254 0.89576 0.0
C742 C 0.5207 0.63196 0.9596 0.0
C743 C 0.48611 0.65618 0.91518 0.0
C744 C 0.54632 0.65062 0.03861 0.0
C745 C 0.58417 0.61086 1.02548 0.0
N746 N 0.5083 0.6553 0.94699 0.0
N747 N 0.56298 0.61262 0.99122 0.0
H748 H 0.67612 0.54485 0.14979 0.0
H749 H 0.59174 0.42207 0.03878 0.0
H750 H 0.59053 0.54186 0.1607 0.0
H751 H 0.66281 0.44836 0.95658 0.0
H752 H 0.59486 0.46062 0.09944 0.0
H753 H 0.67526 0.50416 0.09385 0.0
C754 C 0.65718 0.53565 0.14036 0.0
C755 C 0.63331 0.54707 0.15871 0.0
C756 C 0.60982 0.45786 0.06827 0.0
C757 C 0.63229 0.5002 0.09682 0.0
C758 C 0.60816 0.43581 0.03378 0.0
C759 C 0.627 0.43205 0.99235 0.0
C760 C 0.63078 0.47604 0.06215 0.0
C761 C 0.64776 0.45062 0.9877 0.0
C762 C 0.65673 0.51247 0.10864 0.0
C763 C 0.60938 0.53389 0.14686 0.0
N764 N 0.64918 0.47179 1.02237 0.0
N765 N 0.60947 0.51114 0.11675 0.0
H766 H 0.45266 0.35782 0.11455 0.0
H767 H 0.54121 0.43113 0.89915 0.0
H768 H 0.42056 0.42397 1.02408 0.0
H769 H 0.54241 0.34544 0.90953 0.0
H770 H 0.50044 0.43171 0.95421 0.0
H771 H 0.48993 0.35541 0.05011 0.0
C772 C 0.45345 0.37179 0.08112 0.0
C773 C 0.43352 0.39112 0.07461 0.0
C774 C 0.50963 0.41281 0.94416 0.0
C775 C 0.4762 0.38877 1.00169 0.0
C776 C 0.53284 0.41245 0.91283 0.0
C777 C 0.54547 0.38823 0.90079 0.0
C778 C 0.49933 0.38883 0.96437 0.0
C779 C 0.5336 0.36459 0.919 0.0
C780 C 0.47459 0.37031 0.04432 0.0
C781 C 0.43545 0.40869 1.03044 0.0
N782 N 0.51147 0.36548 0.95082 0.0
N783 N 0.45663 0.40736 0.99608 0.0
H784 H 0.90309 0.47165 0.89302 0.0
H785 H 0.85514 0.53412 0.61816 0.0
H786 H 0.88138 0.41851 0.76231 0.0
H787 H 0.92941 0.55922 0.68957 0.0
H788 H 0.85448 0.49571 0.68057 0.0
H789 H 0.90258 0.50898 0.82878 0.0
C790 C 0.8979 0.46791 0.85093 0.0
C791 C 0.89224 0.44202 0.83281 0.0
C792 C 0.87088 0.50967 0.68223 0.0
C793 C 0.89121 0.48452 0.75985 0.0
C794 C 0.87126 0.53148 0.64694 0.0
C795 C 0.89248 0.54957 0.64866 0.0
C796 C 0.89138 0.50666 0.7205 0.0
C797 C 0.91286 0.5455 0.68674 0.0
C798 C 0.89779 0.48913 0.81443 0.0
C799 C 0.88594 0.43819 0.77774 0.0
N800 N 0.91164 0.52465 0.72175 0.0
N801 N 0.88531 0.45931 0.74312 0.0
H802 H 0.54431 0.08742 0.41261 0.0
H803 H 0.45596 0.16241 0.197 0.0
H804 H 0.5453 0.17319 0.40516 0.0
H805 H 0.4266 0.09304 0.2808 0.0
H806 H 0.49287 0.16505 0.26263 0.0
H807 H 0.5046 0.08712 0.35476 0.0
C808 C 0.53615 0.10621 0.39887 0.0
C809 C 0.54843 0.13036 0.41274 0.0
C810 C 0.47819 0.14939 0.26666 0.0
C811 C 0.50334 0.13007 0.34579 0.0
C812 C 0.45726 0.14778 0.22916 0.0
C813 C 0.43822 0.12746 0.23343 0.0
C814 C 0.48043 0.13015 0.30772 0.0
C815 C 0.44079 0.10908 0.27607 0.0
C816 C 0.51351 0.10599 0.36589 0.0
C817 C 0.53684 0.15411 0.39415 0.0
N818 N 0.46169 0.11065 0.31111 0.0
N819 N 0.51518 0.15338 0.36081 0.0
H820 H 0.11502 0.55157 0.8934 0.0
H821 H 0.1659 0.48755 0.62221 0.0
H822 H 0.13794 0.60454 0.76393 0.0
H823 H 0.09045 0.46352 0.68924 0.0
H824 H 0.16588 0.52651 0.6838 0.0
H825 H 0.11602 0.5142 0.82902 0.0
C826 C 0.12054 0.55528 0.85155 0.0
C827 C 0.12645 0.58114 0.8339 0.0
C828 C 0.14936 0.51267 0.68463 0.0
C829 C 0.12809 0.53848 0.7607 0.0
C830 C 0.14939 0.49053 0.64986 0.0
C831 C 0.12803 0.47258 0.65056 0.0
C832 C 0.12831 0.51616 0.72141 0.0
C833 C 0.10713 0.47712 0.68716 0.0
C834 C 0.12096 0.53401 0.81495 0.0
C835 C 0.1332 0.58488 0.77905 0.0
N836 N 0.10796 0.49828 0.72171 0.0
N837 N 0.13414 0.56368 0.74434 0.0
H838 H 0.60648 0.88371 0.29536 0.0
H839 H 0.46136 0.92968 0.36364 0.0
H840 H 0.55256 0.90523 0.16618 0.0
H841 H 0.49057 0.85737 0.43655 0.0
H842 H 0.49908 0.92891 0.30025 0.0
H843 H 0.56839 0.88136 0.35818 0.0
C844 C 0.58667 0.88791 0.2803 0.0
C845 C 0.58257 0.89456 0.22555 0.0
C846 C 0.49721 0.91328 0.33026 0.0
C847 C 0.5394 0.89257 0.297 0.0
C848 C 0.47587 0.91377 0.36649 0.0
C849 C 0.47306 0.89359 0.40528 0.0
C850 C 0.51629 0.89297 0.33411 0.0
C851 C 0.49219 0.87325 0.40708 0.0
C852 C 0.56503 0.88644 0.31597 0.0
C853 C 0.55651 0.89981 0.20799 0.0
N854 N 0.5133 0.87362 0.37238 0.0
N855 N 0.53593 0.89909 0.24378 0.0
H856 H 0.84582 0.97749 0.6477 0.0
H857 H 0.92906 0.09865 0.52917 0.0
H858 H 0.93153 0.97974 0.65515 0.0
H859 H 0.85904 0.06959 0.4466 0.0
H860 H 0.92629 0.06108 0.59218 0.0
H861 H 0.84651 0.01725 0.58949 0.0
C862 C 0.86475 0.98628 0.63691 0.0
C863 C 0.88869 0.97492 0.65493 0.0
C864 C 0.91147 0.06305 0.56042 0.0
C865 C 0.88953 0.02083 0.59076 0.0
C866 C 0.91292 0.08454 0.52468 0.0
C867 C 0.89426 0.0872 0.48256 0.0
C868 C 0.89088 0.0444 0.55478 0.0
C869 C 0.87392 0.06815 0.47832 0.0
C870 C 0.86511 1.00897 0.60401 0.0
C871 C 0.91263 0.98769 0.64159 0.0
N872 N 0.87266 0.04759 0.51421 0.0
N873 N 0.91245 1.00999 0.6104 0.0
H874 H 0.05203 0.11651 0.64455 0.0
H875 H 0.98895 0.16886 0.37361 0.0
H876 H 0.10495 0.13874 0.5145 0.0
H877 H 0.96288 0.09424 0.44133 0.0
H878 H 0.02779 0.16802 0.43522 0.0
H879 H 0.01447 0.11835 0.58078 0.0
C880 C 0.05568 0.12205 0.60269 0.0
C881 C 0.08158 0.12749 0.58464 0.0
C882 C 0.01352 0.15187 0.43624 0.0
C883 C 0.03878 0.13009 0.51221 0.0
C884 C 0.99146 0.15236 0.40144 0.0
C885 C 0.97297 0.13147 0.40231 0.0
C886 C 0.01641 0.13084 0.47323 0.0
C887 C 0.9769 0.11057 0.43915 0.0
C888 C 0.03432 0.12294 0.56645 0.0
C889 C 0.08528 0.13431 0.52986 0.0
N890 N 0.99802 0.11095 0.47373 0.0
N891 N 0.06402 0.13571 0.49552 0.0
H892 H 0.13808 0.91318 0.55737 0.0
H893 H 0.09331 0.05885 0.61837 0.0
H894 H 0.12202 0.96618 0.42363 0.0
H895 H 0.16591 0.03151 0.69335 0.0
H896 H 0.09474 0.02038 0.55643 0.0
H897 H 0.14026 0.95203 0.61879 0.0
C898 C 0.13513 0.93297 0.541 0.0
C899 C 0.13006 0.93658 0.48539 0.0
C900 C 0.11027 0.02283 0.58661 0.0
C901 C 0.13167 0.98059 0.55522 0.0
C902 C 0.1094 0.04458 0.62203 0.0
C903 C 0.12949 0.04816 0.66094 0.0
C904 C 0.13086 1.00411 0.59145 0.0
C905 C 0.15008 0.02933 0.66376 0.0
C906 C 0.13645 0.95501 0.57589 0.0
C907 C 0.12626 0.9626 0.46615 0.0
N908 N 0.15007 1.0078 0.6299 0.0
N909 N 0.12671 0.9836 0.50117 0.0
H910 H 0.04556 0.84738 0.4062 0.0
H911 H 0.92364 0.93072 0.52411 0.0
H912 H 0.04253 0.93302 0.39573 0.0
H913 H 0.95272 0.86008 0.60397 0.0
H914 H 0.96128 0.92836 0.4609 0.0
H915 H 1.0054 0.84827 0.46307 0.0
C916 C 0.03637 0.86635 0.41574 0.0
C917 C 0.04773 0.89022 0.39752 0.0
C918 C 0.9593 0.91333 0.49211 0.0
C919 C 1.00145 0.89128 0.46068 0.0
C920 C 0.93777 0.91454 0.52793 0.0
C921 C 0.93507 0.89554 0.56928 0.0
C922 C 0.97794 0.89264 0.49693 0.0
C923 C 0.95417 0.8752 0.57283 0.0
C924 C 0.01352 0.86682 0.4481 0.0
C925 C 0.03462 0.91419 0.40965 0.0
N926 N 0.97473 0.87417 0.53689 0.0
N927 N 0.01216 0.91413 0.44052 0.0
H928 H 0.31275 0.19281 0.14063 0.0
H929 H 0.39827 0.32642 0.17461 0.0
H930 H 0.3986 0.19254 0.14069 0.0
H931 H 0.31312 0.32162 0.19433 0.0
H932 H 0.39974 0.27787 0.16172 0.0
H933 H 0.31321 0.2407 0.1563 0.0
C934 C 0.33174 0.20292 0.14351 0.0
C935 C 0.35565 0.18869 0.13957 0.0
C936 C 0.38079 0.28746 0.16934 0.0
C937 C 0.35641 0.2437 0.15817 0.0
C938 C 0.37997 0.3151 0.17708 0.0
C939 C 0.35549 0.32802 0.18528 0.0
C940 C 0.35696 0.27278 0.16965 0.0
C941 C 0.33238 0.31248 0.18784 0.0
C942 C 0.33201 0.23029 0.15281 0.0
C943 C 0.3797 0.20282 0.14347 0.0
N944 N 0.33367 0.28578 0.17965 0.0
N945 N 0.37948 0.2296 0.15277 0.0
H946 H 0.32387 0.70847 0.88315 0.0
H947 H 0.19408 0.61841 0.92489 0.0
H948 H 0.32839 0.62276 0.88921 0.0
H949 H 0.1974 0.70326 0.95171 0.0
H950 H 0.24245 0.61837 0.90845 0.0
H951 H 0.27626 0.70597 0.9007 0.0
C952 C 0.31474 0.68906 0.88767 0.0
C953 C 0.33011 0.66581 0.88504 0.0
C954 C 0.23256 0.63691 0.91844 0.0
C955 C 0.27543 0.66273 0.90591 0.0
C956 C 0.20504 0.63691 0.92821 0.0
C957 C 0.19175 0.66092 0.93938 0.0
C958 C 0.24665 0.66111 0.91958 0.0
C959 C 0.20682 0.68433 0.94289 0.0
C960 C 0.28755 0.68763 0.89811 0.0
C961 C 0.3172 0.64118 0.89098 0.0
N962 N 0.23333 0.68386 0.93258 0.0
N963 N 0.29056 0.64026 0.9014 0.0
H964 H 0.62024 0.82848 0.13293 0.0
H965 H 0.70934 0.69718 0.16929 0.0
H966 H 0.70574 0.82576 0.11844 0.0
H967 H 0.62362 0.69397 0.16218 0.0
H968 H 0.70742 0.74515 0.15605 0.0
H969 H 0.61992 0.77982 0.14546 0.0
C970 C 0.63886 0.8176 0.13163 0.0
C971 C 0.66308 0.83112 0.1249 0.0
C972 C 0.68895 0.73408 0.15748 0.0
C973 C 0.66291 0.77584 0.14005 0.0
C974 C 0.69005 0.70666 0.16538 0.0
C975 C 0.66663 0.69158 0.16659 0.0
C976 C 0.66421 0.74672 0.1507 0.0
C977 C 0.64216 0.70493 0.1615 0.0
C978 C 0.63869 0.78992 0.13914 0.0
C979 C 0.68663 0.81616 0.12381 0.0
N980 N 0.64157 0.73179 0.15352 0.0
N981 N 0.68596 0.78945 0.13166 0.0
H982 H 0.82543 0.3188 0.95717 0.0
H983 H 0.68972 0.39351 0.87709 0.0
H984 H 0.82481 0.40169 0.91208 0.0
H985 H 0.69491 0.31725 0.9565 0.0
H986 H 0.73887 0.39688 0.88115 0.0
H987 H 0.77715 0.31794 0.95067 0.0
C988 C 0.81501 0.33694 0.94641 0.0
C989 C 0.82908 0.36033 0.93537 0.0
C990 C 0.72911 0.37941 0.89737 0.0
C991 C 0.77349 0.35952 0.92683 0.0
C992 C 0.70119 0.37739 0.89456 0.0
C993 C 0.68835 0.35503 0.91636 0.0
C994 C 0.74397 0.35877 0.92161 0.0
C995 C 0.70399 0.33485 0.93924 0.0
C996 C 0.78739 0.33646 0.94248 0.0
C997 C 0.81459 0.38328 0.92136 0.0
N998 N 0.73081 0.3372 0.94121 0.0
N999 N 0.7875 0.38228 0.91708 0.0
H1000 H 0.90049 0.69376 0.63135 0.0
H1001 H 0.81271 0.82523 0.67857 0.0
H1002 H 0.81471 0.69634 0.62626 0.0
H1003 H 0.89812 0.82807 0.66236 0.0
H1004 H 0.8141 0.77716 0.66562 0.0
H1005 H 0.9011 0.7423 0.64533 0.0
C1006 C 0.88183 0.70457 0.63253 0.0
C1007 C 0.85749 0.69103 0.62783 0.0
C1008 C 0.83262 0.78817 0.66503 0.0
C1009 C 0.85803 0.74626 0.64464 0.0
C1010 C 0.83183 0.81565 0.67277 0.0
C1011 C 0.8553 0.83066 0.67126 0.0
C1012 C 0.85709 0.77542 0.65565 0.0
C1013 C 0.87954 0.81718 0.66381 0.0
C1014 C 0.88219 0.73221 0.64082 0.0
C1015 C 0.83392 0.70595 0.62988 0.0
N1016 N 0.87982 0.79028 0.65598 0.0
N1017 N 0.83478 0.73264 0.63842 0.0
H1018 H 0.82639 0.21058 0.37795 0.0
H1019 H 0.69501 0.12229 0.41958 0.0
H1020 H 0.82896 0.12486 0.38662 0.0
H1021 H 0.69747 0.20803 0.42908 0.0
H1022 H 0.7435 0.12185 0.40541 0.0
H1023 H 0.77837 0.20917 0.39122 0.0
C1024 C 0.81676 0.1914 0.38216 0.0
C1025 C 0.83168 0.16783 0.38143 0.0
C1026 C 0.7334 0.14071 0.41092 0.0
C1027 C 0.77651 0.16599 0.39737 0.0
C1028 C 0.70579 0.14096 0.41933 0.0
C1029 C 0.69223 0.16525 0.42533 0.0
C1030 C 0.7474 0.16493 0.40835 0.0
C1031 C 0.7071 0.18886 0.42442 0.0
C1032 C 0.78931 0.19059 0.39007 0.0
C1033 C 0.81814 0.14351 0.38694 0.0
N1034 N 0.73376 0.1881 0.41579 0.0
N1035 N 0.79129 0.14321 0.39496 0.0
H1036 H 0.11771 0.32742 0.63757 0.0
H1037 H 0.20512 0.19611 0.68882 0.0
H1038 H 0.2034 0.32403 0.63013 0.0
H1039 H 0.11963 0.19324 0.67424 0.0
H1040 H 0.20377 0.24397 0.67363 0.0
H1041 H 0.11683 0.27903 0.65357 0.0
C1042 C 0.13628 0.31645 0.6386 0.0
C1043 C 0.16069 0.32974 0.63271 0.0
C1044 C 0.18522 0.23301 0.67389 0.0
C1045 C 0.15986 0.27471 0.65187 0.0
C1046 C 0.18599 0.20566 0.68294 0.0
C1047 C 0.16248 0.19067 0.68256 0.0
C1048 C 0.16073 0.2457 0.66431 0.0
C1049 C 0.13823 0.20411 0.6749 0.0
C1050 C 0.13577 0.28891 0.64807 0.0
C1051 C 0.18415 0.31463 0.63468 0.0
N1052 N 0.13797 0.23091 0.66577 0.0
N1053 N 0.18314 0.28807 0.64439 0.0
H1054 H 0.32913 0.90325 0.41999 0.0
H1055 H 0.19599 0.81555 0.4158 0.0
H1056 H 0.32572 0.8181 0.44099 0.0
H1057 H 0.19412 0.90035 0.39009 0.0
H1058 H 0.24423 0.81694 0.41933 0.0
H1059 H 0.28043 0.90387 0.40748 0.0
C1060 C 0.31811 0.88477 0.42261 0.0
C1061 C 0.33143 0.86055 0.43156 0.0
C1062 C 0.23351 0.83533 0.41234 0.0
C1063 C 0.2761 0.86106 0.41644 0.0
C1064 C 0.20591 0.83448 0.40986 0.0
C1065 C 0.19117 0.85782 0.40237 0.0
C1066 C 0.24673 0.85987 0.40834 0.0
C1067 C 0.20493 0.88186 0.39525 0.0
C1068 C 0.2904 0.88511 0.41499 0.0
C1069 C 0.31629 0.83719 0.43414 0.0
N1070 N 0.23207 0.88236 0.39908 0.0
N1071 N 0.28957 0.83805 0.42649 0.0
H1072 H 0.18307 0.1079 0.87604 0.0
H1073 H 0.33812 0.10953 0.93954 0.0
H1074 H 0.24235 0.09783 0.751 0.0
H1075 H 0.2793 0.09469 0.06334 0.0
H1076 H 0.3035 0.10675 0.87036 0.0
H1077 H 0.21775 0.10458 0.94497 0.0
C1078 C 0.20337 0.10483 0.86293 0.0
C1079 C 0.20969 0.10317 0.80734 0.0
C1080 C 0.29814 0.10388 0.91255 0.0
C1081 C 0.24983 0.09967 0.88674 0.0
C1082 C 0.31794 0.10551 0.9523 0.0
C1083 C 0.31171 0.10236 1.00763 0.0
C1084 C 0.27164 0.0995 0.92796 0.0
C1085 C 0.28509 0.09719 1.0213 0.0
C1086 C 0.22321 0.10288 0.90253 0.0
C1087 C 0.23647 0.09917 0.79322 0.0
N1088 N 0.26601 0.0962 0.98182 0.0
N1089 N 0.25557 0.09783 0.83261 0.0
H1090 H 0.10221 0.74231 1.00227 0.0
H1091 H 0.10048 0.77508 0.32294 0.0
H1092 H 0.10507 0.68187 0.12639 0.0
H1093 H 0.10958 0.83425 0.19749 0.0
H1094 H 0.09756 0.74063 0.25195 0.0
H1095 H 0.09998 0.77642 0.07371 0.0
C1096 C 0.10217 0.73618 0.04444 0.0
C1097 C 0.10413 0.70915 0.05817 0.0
C1098 C 0.10007 0.76122 0.24011 0.0
C1099 C 0.10163 0.74811 0.14041 0.0
C1100 C 0.10167 0.78091 0.28067 0.0
C1101 C 0.10538 0.80773 0.26649 0.0
C1102 C 0.10199 0.7684 0.18492 0.0
C1103 C 0.10684 0.81396 0.21079 0.0
C1104 C 0.10102 0.75566 0.0853 0.0
C1105 C 0.10402 0.70244 0.11372 0.0
N1106 N 0.10517 0.79456 0.17233 0.0
N1107 N 0.10288 0.72172 0.15265 0.0
H1108 H 0.74297 0.92584 0.05903 0.0
H1109 H 0.77535 0.92107 0.73884 0.0
H1110 H 0.68406 0.91158 0.93459 0.0
H1111 H 0.83586 0.91699 0.86309 0.0
H1112 H 0.74137 0.9239 0.8102 0.0
H1113 H 0.77718 0.92861 0.98784 0.0
C1114 C 0.73715 0.92354 1.01688 0.0
C1115 C 0.71052 0.91841 1.00301 0.0
C1116 C 0.76212 0.92247 0.82181 0.0
C1117 C 0.74951 0.92166 0.9213 0.0
C1118 C 0.78153 0.92097 0.78103 0.0
C1119 C 0.80851 0.91847 0.79486 0.0
C1120 C 0.76973 0.92175 0.87691 0.0
C1121 C 0.81529 0.91844 0.8504 0.0
C1122 C 0.75669 0.92503 0.97625 0.0
C1123 C 0.70424 0.9155 0.94753 0.0
N1124 N 0.7961 0.91999 0.88926 0.0
N1125 N 0.7235 0.91716 0.90894 0.0
H1126 H 0.90919 0.34084 0.12385 0.0
H1127 H 0.91737 0.18567 0.18848 0.0
H1128 H 0.92431 0.28192 0.99971 0.0
H1129 H 0.92104 0.24639 0.31259 0.0
H1130 H 0.91926 0.22018 0.11885 0.0
H1131 H 0.91284 0.30649 0.19289 0.0
C1132 C 0.91345 0.32069 0.11094 0.0
C1133 C 0.91646 0.3144 0.05555 0.0
C1134 C 0.91984 0.226 0.16125 0.0
C1135 C 0.92035 0.27454 0.13522 0.0
C1136 C 0.91861 0.20629 0.20118 0.0
C1137 C 0.91877 0.21311 0.25666 0.0
C1138 C 0.92098 0.2529 0.17668 0.0
C1139 C 0.92086 0.24017 0.27044 0.0
C1140 C 0.91556 0.30101 0.15065 0.0
C1141 C 0.9219 0.28778 0.04179 0.0
N1142 N 0.92163 0.25905 0.23076 0.0
N1143 N 0.92344 0.2688 0.08129 0.0
H1144 H 0.27394 0.41819 0.24264 0.0
H1145 H 0.24031 0.42529 0.56192 0.0
H1146 H 0.33396 0.41532 0.36808 0.0
H1147 H 0.18222 0.40737 0.43782 0.0
H1148 H 0.27463 0.42794 0.49102 0.0
H1149 H 0.23964 0.4207 0.31335 0.0
C1150 C 0.27997 0.41835 0.28492 0.0
C1151 C 0.30697 0.41646 0.29921 0.0
C1152 C 0.2543 0.42357 0.47943 0.0
C1153 C 0.26776 0.41935 0.38054 0.0
C1154 C 0.23469 0.42213 0.51989 0.0
C1155 C 0.20825 0.41607 0.50605 0.0
C1156 C 0.24739 0.41921 0.42463 0.0
C1157 C 0.20224 0.41209 0.45071 0.0
C1158 C 0.26036 0.41967 0.32533 0.0
C1159 C 0.31348 0.41665 0.3549 0.0
N1160 N 0.22156 0.41375 0.41224 0.0
N1161 N 0.29409 0.41804 0.39337 0.0
H1162 H 0.42186 0.74675 0.81664 0.0
H1163 H 0.42135 0.78003 0.4969 0.0
H1164 H 0.41429 0.68729 0.69067 0.0
H1165 H 0.41711 0.83996 0.62256 0.0
H1166 H 0.4237 0.74566 0.56743 0.0
H1167 H 0.425 0.78115 0.74619 0.0
C1168 C 0.42104 0.74089 0.77428 0.0
C1169 C 0.41751 0.71409 0.75971 0.0
C1170 C 0.42234 0.76636 0.57954 0.0
C1171 C 0.42112 0.75332 0.67877 0.0
C1172 C 0.42111 0.786 0.53923 0.0
C1173 C 0.41872 0.81294 0.5537 0.0
C1174 C 0.4214 0.77371 0.63478 0.0
C1175 C 0.41847 0.81945 0.60936 0.0
C1176 C 0.42274 0.76054 0.73403 0.0
C1177 C 0.41657 0.70771 0.70401 0.0
N1178 N 0.41972 0.80003 0.64773 0.0
N1179 N 0.4183 0.72711 0.66574 0.0
H1180 H 0.68648 0.61189 0.36182 0.0
H1181 H 0.84093 0.60534 0.43342 0.0
H1182 H 0.74646 0.59724 0.24 0.0
H1183 H 0.77912 0.60108 0.55457 0.0
H1184 H 0.80716 0.60295 0.36212 0.0
H1185 H 0.72024 0.60851 0.43222 0.0
C1186 C 0.70675 0.6078 0.3497 0.0
C1187 C 0.71352 0.60487 0.29455 0.0
C1188 C 0.80095 0.60235 0.40423 0.0
C1189 C 0.7527 0.60127 0.37588 0.0
C1190 C 0.82023 0.60387 0.44512 0.0
C1191 C 0.81287 0.60371 0.50028 0.0
C1192 C 0.77394 0.60089 0.41834 0.0
C1193 C 0.78574 0.60129 0.51273 0.0
C1194 C 0.72609 0.60584 0.39021 0.0
C1195 C 0.74026 0.5996 0.28185 0.0
N1196 N 0.76727 0.60024 0.47212 0.0
N1197 N 0.75892 0.59821 0.32217 0.0
H1198 H 0.59236 0.24274 0.50221 0.0
H1199 H 0.60414 0.27127 0.82386 0.0
H1200 H 0.61639 0.18385 0.6199 0.0
H1201 H 0.5978 0.33316 0.70333 0.0
H1202 H 0.60221 0.23792 0.75057 0.0
H1203 H 0.58834 0.27545 0.57639 0.0
C1204 C 0.59658 0.23658 0.54348 0.0
C1205 C 0.60473 0.2104 0.55451 0.0
C1206 C 0.6011 0.25884 0.74029 0.0
C1207 C 0.60001 0.24765 0.63975 0.0
C1208 C 0.60205 0.27787 0.7822 0.0
C1209 C 0.60141 0.30513 0.76989 0.0
C1210 C 0.5992 0.26712 0.68571 0.0
C1211 C 0.59876 0.31244 0.71491 0.0
C1212 C 0.59432 0.25526 0.58585 0.0
C1213 C 0.60999 0.20368 0.60906 0.0
N1214 N 0.59782 0.29365 0.67505 0.0
N1215 N 0.60754 0.22208 0.64937 0.0
H1216 H 0.36627 0.06169 0.49954 0.0
H1217 H 0.38295 0.16543 0.74594 0.0
H1218 H 0.35859 0.1468 0.48151 0.0
H1219 H 0.39647 0.0809 0.76183 0.0
H1220 H 0.37318 0.15886 0.64956 0.0
H1221 H 0.37608 0.06815 0.59612 0.0
C1222 C 0.36652 0.08174 0.51586 0.0
C1223 C 0.36159 0.10373 0.48207 0.0
C1224 C 0.3783 0.14174 0.6741 0.0
C1225 C 0.37304 0.11129 0.59296 0.0
C1226 C 0.38405 0.14549 0.72923 0.0
C1227 C 0.39064 0.12372 0.76245 0.0
C1228 C 0.37906 0.116 0.65161 0.0
C1229 C 0.39117 0.09829 0.73828 0.0
C1230 C 0.37228 0.08542 0.57104 0.0
C1231 C 0.36259 0.12925 0.50563 0.0
N1232 N 0.38548 0.09516 0.68451 0.0
N1233 N 0.36813 0.13231 0.55946 0.0
H1234 H 0.12865 0.62327 0.59685 0.0
H1235 H 0.11123 0.67142 0.28842 0.0
H1236 H 0.09666 0.69997 0.55214 0.0
H1237 H 0.14042 0.59368 0.33352 0.0
H1238 H 0.10675 0.68267 0.3847 0.0
H1239 H 0.13347 0.61229 0.50063 0.0
C1240 C 0.12246 0.63776 0.56686 0.0
C1241 C 0.11217 0.66259 0.58285 0.0
C1242 C 0.11414 0.66315 0.37355 0.0
C1243 C 0.11801 0.65023 0.47221 0.0
C1244 C 0.11688 0.65676 0.31852 0.0
C1245 C 0.12623 0.63153 0.30268 0.0
C1246 C 0.12085 0.64422 0.41325 0.0
C1247 C 0.13281 0.61323 0.34368 0.0
C1248 C 0.12539 0.63153 0.51183 0.0
C1249 C 0.10499 0.68072 0.54191 0.0
N1250 N 0.13001 0.61994 0.39695 0.0
N1251 N 0.10803 0.67417 0.48859 0.0
H1252 H 0.65906 0.95441 0.49232 0.0
H1253 H 0.63805 0.85485 0.74276 0.0
H1254 H 0.66617 0.86899 0.47894 0.0
H1255 H 0.62712 0.93996 0.75367 0.0
H1256 H 0.64873 0.85959 0.6464 0.0
H1257 H 0.64818 0.94952 0.58851 0.0
C1258 C 0.65849 0.93462 0.50964 0.0
C1259 C 0.66362 0.91208 0.47735 0.0
C1260 C 0.64399 0.87723 0.66987 0.0
C1261 C 0.65086 0.90631 0.58769 0.0
C1262 C 0.63773 0.87453 0.72491 0.0
C1263 C 0.63163 0.89703 0.75662 0.0
C1264 C 0.6442 0.90264 0.64611 0.0
C1265 C 0.63202 0.92207 0.73121 0.0
C1266 C 0.6521 0.93183 0.56457 0.0
C1267 C 0.6621 0.88692 0.502 0.0
N1268 N 0.63818 0.92418 0.67758 0.0
N1269 N 0.65592 0.88472 0.55562 0.0
H1270 H 0.88409 0.43239 0.33071 0.0
H1271 H 0.92214 0.32173 0.55209 0.0
H1272 H 0.90853 0.35245 0.28935 0.0
H1273 H 0.90081 0.40263 0.59293 0.0
H1274 H 0.91701 0.33249 0.45585 0.0
H1275 H 0.88926 0.42158 0.42693 0.0
C1276 C 0.89039 0.4125 0.34181 0.0
C1277 C 0.89585 0.39331 0.30167 0.0
C1278 C 0.91346 0.3479 0.48585 0.0
C1279 C 0.9021 0.38085 0.41215 0.0
C1280 C 0.91655 0.34182 0.54091 0.0
C1281 C 0.91194 0.36129 0.58095 0.0
C1282 C 0.90568 0.37368 0.47041 0.0
C1283 C 0.90425 0.38684 0.56374 0.0
C1284 C 0.8935 0.40639 0.39684 0.0
C1285 C 0.90439 0.368 0.31871 0.0
N1286 N 0.90138 0.39227 0.50989 0.0
N1287 N 0.90721 0.36252 0.37254 0.0
H1288 H 0.42932 0.39613 0.57409 0.0
H1289 H 0.31517 0.41941 0.79611 0.0
H1290 H 0.34743 0.41241 0.53274 0.0
H1291 H 0.39883 0.41512 0.83558 0.0
H1292 H 0.32641 0.41632 0.69978 0.0
H1293 H 0.41829 0.4017 0.67023 0.0
C1294 C 0.40899 0.40079 0.58521 0.0
C1295 C 0.38928 0.40376 0.54514 0.0
C1296 C 0.34232 0.41616 0.72951 0.0
C1297 C 0.37651 0.41033 0.65542 0.0
C1298 C 0.33593 0.41812 0.78467 0.0
C1299 C 0.35604 0.41752 0.82443 0.0
C1300 C 0.36904 0.41342 0.71367 0.0
C1301 C 0.38256 0.41525 0.80671 0.0
C1302 C 0.40274 0.40414 0.64015 0.0
C1303 C 0.36334 0.41019 0.56209 0.0
N1304 N 0.38825 0.41319 0.75281 0.0
N1305 N 0.3577 0.41314 0.61586 0.0
H1306 H 0.42543 0.70623 0.26387 0.0
H1307 H 0.38108 0.59677 0.48225 0.0
H1308 H 0.39903 0.62714 0.22092 0.0
H1309 H 0.40962 0.67508 0.52553 0.0
H1310 H 0.38737 0.6076 0.38642 0.0
H1311 H 0.41922 0.6954 0.35977 0.0
C1312 C 0.41821 0.68662 0.27453 0.0
C1313 C 0.41273 0.66759 0.23406 0.0
C1314 C 0.39225 0.62243 0.41686 0.0
C1315 C 0.40579 0.65495 0.34416 0.0
C1316 C 0.38879 0.61621 0.47171 0.0
C1317 C 0.39484 0.63501 0.51227 0.0
C1318 C 0.40184 0.64767 0.40218 0.0
C1319 C 0.40434 0.66004 0.49583 0.0
C1320 C 0.41481 0.6804 0.32939 0.0
C1321 C 0.40384 0.64235 0.25059 0.0
N1322 N 0.40756 0.66561 0.44216 0.0
N1323 N 0.40061 0.63681 0.30426 0.0
H1324 H 0.6627 0.5663 0.80223 0.0
H1325 H 0.64068 0.66763 0.55482 0.0
H1326 H 0.66624 0.65176 0.81936 0.0
H1327 H 0.62968 0.58262 0.54104 0.0
H1328 H 0.6511 0.66213 0.65112 0.0
H1329 H 0.6521 0.57177 0.70586 0.0
C1330 C 0.66138 0.58622 0.78572 0.0
C1331 C 0.66541 0.6086 0.81915 0.0
C1332 C 0.64639 0.64467 0.62705 0.0
C1333 C 0.65305 0.61502 0.70857 0.0
C1334 C 0.64026 0.6478 0.57199 0.0
C1335 C 0.63419 0.62557 0.53943 0.0
C1336 C 0.64655 0.6191 0.65006 0.0
C1337 C 0.63455 0.60034 0.56411 0.0
C1338 C 0.65517 0.58934 0.73069 0.0
C1339 C 0.66301 0.63393 0.79545 0.0
N1340 N 0.6406 0.59781 0.61779 0.0
N1341 N 0.65707 0.63644 0.74173 0.0
H1342 H 0.64362 0.41497 0.49159 0.0
H1343 H 0.58683 0.30981 0.27422 0.0
H1344 H 0.60544 0.34133 0.53664 0.0
H1345 H 0.62169 0.38536 0.23097 0.0
H1346 H 0.59412 0.32044 0.37025 0.0
H1347 H 0.63691 0.40368 0.39592 0.0
C1348 C 0.63398 0.39632 0.48145 0.0
C1349 C 0.62511 0.3791 0.52253 0.0
C1350 C 0.60021 0.33467 0.33972 0.0
C1351 C 0.61708 0.36611 0.41246 0.0
C1352 C 0.59592 0.32867 0.28479 0.0
C1353 C 0.60368 0.34666 0.24408 0.0
C1354 C 0.61233 0.35887 0.35438 0.0
C1355 C 0.61574 0.37063 0.26058 0.0
C1356 C 0.63 0.38995 0.42668 0.0
C1357 C 0.61234 0.35541 0.50657 0.0
N1358 N 0.61965 0.37601 0.31424 0.0
N1359 N 0.60874 0.34962 0.45294 0.0
H1360 H 0.90122 0.61549 0.96354 0.0
H1361 H 0.84901 0.61169 0.27172 0.0
H1362 H 0.82062 0.59552 1.00809 0.0
H1363 H 0.92918 0.63333 0.22703 0.0
H1364 H 0.83838 0.60536 0.17561 0.0
H1365 H 0.91209 0.62105 0.05978 0.0
C1366 C 0.88582 0.61207 0.99346 0.0
C1367 C 0.8599 0.60503 0.97729 0.0
C1368 C 0.85831 0.61148 0.1868 0.0
C1369 C 0.87223 0.61174 0.08812 0.0
C1370 C 0.86438 0.61529 0.2418 0.0
C1371 C 0.89008 0.62313 0.25791 0.0
C1372 C 0.87802 0.61551 0.14719 0.0
C1373 C 0.9092 0.62695 0.21693 0.0
C1374 C 0.89202 0.61544 0.04853 0.0
C1375 C 0.84076 0.60132 1.01827 0.0
N1376 N 0.90279 0.62314 0.16368 0.0
N1377 N 0.84729 0.60471 0.07157 0.0
H1378 H 0.6365 0.09241 0.82546 0.0
H1379 H 0.6019 0.20454 0.04735 0.0
H1380 H 0.6127 0.17242 0.78414 0.0
H1381 H 0.61795 0.12247 0.08774 0.0
H1382 H 0.6067 0.19343 0.95113 0.0
H1383 H 0.63125 0.10344 0.92174 0.0
C1384 C 0.6303 0.11235 0.83657 0.0
C1385 C 0.62507 0.1315 0.79638 0.0
C1386 C 0.60915 0.17784 0.98102 0.0
C1387 C 0.61882 0.14425 0.90701 0.0
C1388 C 0.60625 0.18413 0.03614 0.0
C1389 C 0.60947 0.16444 0.07616 0.0
C1390 C 0.61541 0.15164 0.9654 0.0
C1391 C 0.61564 0.13845 0.0587 0.0
C1392 C 0.62715 0.11859 0.89164 0.0
C1393 C 0.61667 0.1569 0.81348 0.0
N1394 N 0.6184 0.13285 1.00482 0.0
N1395 N 0.61389 0.16253 0.86736 0.0
H1396 H 0.17142 0.40897 0.274 0.0
H1397 H 0.11881 0.40093 0.96645 0.0
H1398 H 0.09159 0.38552 0.23013 0.0
H1399 H 0.19922 0.42249 1.00993 0.0
H1400 H 0.10849 0.39523 0.06272 0.0
H1401 H 0.18187 0.41442 0.17766 0.0
C1402 C 0.15603 0.40507 0.24417 0.0
C1403 C 0.13054 0.3968 0.26041 0.0
C1404 C 0.1284 0.40121 0.05124 0.0
C1405 C 0.14249 0.40281 0.14964 0.0
C1406 C 0.13437 0.40434 0.99615 0.0
C1407 C 0.15997 0.41218 0.9798 0.0
C1408 C 0.14815 0.40594 0.09058 0.0
C1409 C 0.17913 0.41675 1.02046 0.0
C1410 C 0.16206 0.40806 0.18907 0.0
C1411 C 0.11159 0.39162 0.21966 0.0
N1412 N 0.17284 0.41354 0.07383 0.0
N1413 N 0.11792 0.39476 0.16631 0.0
H1414 H 0.3778 0.83555 0.06815 0.0
H1415 H 0.43477 0.91438 0.81039 0.0
H1416 H 0.44765 0.88543 0.07386 0.0
H1417 H 0.36263 0.8678 0.80649 0.0
H1418 H 0.44012 0.90348 0.90643 0.0
H1419 H 0.37249 0.84626 0.97191 0.0
C1420 C 0.39213 0.84864 0.04914 0.0
C1421 C 0.41325 0.85955 0.07933 0.0
C1422 C 0.4231 0.89565 0.88462 0.0
C1423 C 0.40711 0.87213 0.96888 0.0
C1424 C 0.41992 0.902 0.82974 0.0
C1425 C 0.39812 0.89211 0.80008 0.0
C1426 C 0.40438 0.87922 0.91039 0.0
C1427 C 0.37989 0.87568 0.82736 0.0
C1428 C 0.38898 0.85488 0.99418 0.0
C1429 C 0.4309 0.87677 0.05252 0.0
N1430 N 0.38341 0.86979 0.88086 0.0
N1431 N 0.42746 0.88247 0.99892 0.0
H1432 H 0.83364 0.87488 0.30941 0.0
H1433 H 0.90884 0.93467 0.04966 0.0
H1434 H 0.878 0.94842 0.31271 0.0
H1435 H 0.86452 0.86109 0.04714 0.0
H1436 H 0.89806 0.93995 0.14595 0.0
H1437 H 0.84466 0.86965 0.21334 0.0
C1438 C 0.84556 0.89005 0.28991 0.0
C1439 C 0.85481 0.9122 0.31939 0.0
C1440 C 0.8907 0.92264 0.12435 0.0
C1441 C 0.8678 0.90614 0.20904 0.0
C1442 C 0.89698 0.91952 0.06936 0.0
C1443 C 0.88763 0.89736 0.04002 0.0
C1444 C 0.87494 0.90347 0.15052 0.0
C1445 C 0.87193 0.87866 0.06774 0.0
C1446 C 0.85199 0.88695 0.23501 0.0
C1447 C 0.87064 0.93089 0.29193 0.0
N1448 N 0.86613 0.88213 0.1213 0.0
N1449 N 0.87658 0.92746 0.2384 0.0
H1450 H 0.91272 0.17557 1.02616 0.0
H1451 H 0.90435 0.12446 0.71725 0.0
H1452 H 0.88634 0.09685 0.98033 0.0
H1453 H 0.92979 0.20348 0.76307 0.0
H1454 H 0.89854 0.11369 0.81333 0.0
H1455 H 0.91926 0.18606 0.93019 0.0
C1456 C 0.90813 0.16051 0.996 0.0
C1457 C 0.89889 0.13525 1.0117 0.0
C1458 C 0.90541 0.13339 0.80239 0.0
C1459 C 0.90673 0.1471 0.90122 0.0
C1460 C 0.90892 0.13951 0.74743 0.0
C1461 C 0.91758 0.16496 0.7317 0.0
C1462 C 0.91059 0.1528 0.84228 0.0
C1463 C 0.92273 0.18372 0.77295 0.0
C1464 C 0.91205 0.16648 0.9411 0.0
C1465 C 0.8938 0.11646 0.97048 0.0
N1466 N 0.91916 0.17728 0.82615 0.0
N1467 N 0.89775 0.12277 0.91732 0.0
H1468 H 0.1725 0.11013 0.03928 0.0
H1469 H 0.12024 0.11956 0.34658 0.0
H1470 H 0.09315 0.13524 0.0829 0.0
H1471 H 0.20059 0.09756 0.30355 0.0
H1472 H 0.1099 0.12509 0.25025 0.0
H1473 H 0.18297 0.10475 0.13569 0.0
C1474 C 0.15722 0.1144 0.06909 0.0
C1475 C 0.13186 0.12313 0.05279 0.0
C1476 C 0.1298 0.11906 0.26184 0.0
C1477 C 0.14384 0.1172 0.16356 0.0
C1478 C 0.13578 0.11602 0.31696 0.0
C1479 C 0.16138 0.10811 0.33345 0.0
C1480 C 0.14952 0.11415 0.22262 0.0
C1481 C 0.1805 0.10336 0.2929 0.0
C1482 C 0.16327 0.11146 0.1242 0.0
C1483 C 0.11305 0.12877 0.09345 0.0
N1484 N 0.1742 0.10647 0.2395 0.0
N1485 N 0.11939 0.12566 0.14682 0.0
H1486 H 0.06415 0.85657 0.75623 0.0
H1487 H 0.16773 0.87096 1.00281 0.0
H1488 H 0.14841 0.84178 0.73999 0.0
H1489 H 0.08414 0.88993 1.01534 0.0
H1490 H 0.16103 0.85916 0.90728 0.0
H1491 H 0.07094 0.86704 0.8522 0.0
C1492 C 0.08406 0.85526 0.7729 0.0
C1493 C 0.10572 0.84822 0.73977 0.0
C1494 C 0.14415 0.86588 0.93096 0.0
C1495 C 0.11373 0.86062 0.84993 0.0
C1496 C 0.14799 0.8728 0.98551 0.0
C1497 C 0.12648 0.8815 1.01746 0.0
C1498 C 0.1186 0.86763 0.90794 0.0
C1499 C 0.10128 0.88299 0.99276 0.0
C1500 C 0.08796 0.86146 0.82772 0.0
C1501 C 0.13114 0.84739 0.76369 0.0
N1502 N 0.09806 0.87616 0.93963 0.0
N1503 N 0.13443 0.85351 0.8172 0.0
loop_
_geom_bond_atom_site_label_1
_geom_bond_atom_site_label_2
_geom_bond_distance
_geom_bond_site_symmetry_2
_ccdc_geom_bond_type
Tb0 C2 2.809 . S
Tb0 O20 2.484 . S
Tb0 O21 2.440 . S
Tb0 O22 2.658 . S
Tb0 O23 2.409 . S
Tb0 O24 2.378 . S
Tb0 O28 2.325 . S
Tb0 O31 2.341 . S
Tb1 C11 2.809 1_554 S
Tb1 O22 2.325 . S
Tb1 O25 2.341 . S
Tb1 O26 2.484 1_554 S
Tb1 O27 2.440 1_554 S
Tb1 O28 2.658 . S
Tb1 O29 2.409 . S
Tb1 O30 2.378 . S
C2 Tb0 2.809 . S
C2 C3 1.514 . S
C2 O20 1.248 . S
C2 O21 1.266 . S
C3 C2 1.514 . S
C3 C4 1.359 . S
C3 C8 1.348 . S
C4 C3 1.359 . S
C4 C5 1.380 . S
C4 H32 0.929 . S
C5 C4 1.380 . S
C5 C6 1.347 . S
C5 H33 0.931 . S
C6 C5 1.347 . S
C6 C7 1.369 . S
C7 C6 1.369 . S
C7 C8 1.408 . S
C7 H34 0.930 . S
C8 C3 1.348 . S
C8 C7 1.408 . S
C8 H35 0.930 . S
C9 O22 1.281 . S
C9 O23 1.254 . S
C10 O24 1.236 . S
C10 O25 1.266 . S
C11 Tb1 2.809 1_556 S
C11 C12 1.514 . S
C11 O26 1.248 . S
C11 O27 1.266 . S
C12 C11 1.514 . S
C12 C13 1.359 . S
C12 C17 1.348 . S
C13 C12 1.359 . S
C13 C14 1.380 . S
C13 H36 0.929 . S
C14 C13 1.380 . S
C14 C15 1.347 . S
C14 H37 0.931 . S
C15 C14 1.347 . S
C15 C16 1.369 . S
C16 C15 1.369 . S
C16 C17 1.408 . S
C16 H38 0.930 . S
C17 C12 1.348 . S
C17 C16 1.408 . S
C17 H39 0.930 . S
C18 O28 1.281 . S
C18 O29 1.254 . S
C19 O30 1.236 . S
C19 O31 1.266 . S
O20 Tb0 2.484 . S
O20 C2 1.248 . S
O21 Tb0 2.440 . S
O21 C2 1.266 . S
O22 Tb0 2.658 . S
O22 Tb1 2.325 . S
O22 C9 1.281 . S
O23 Tb0 2.409 . S
O23 C9 1.254 . S
O24 Tb0 2.378 . S
O24 C10 1.236 . S
O25 Tb1 2.341 . S
O25 C10 1.266 . S
O26 Tb1 2.484 1_556 S
O26 C11 1.248 . S
O27 Tb1 2.440 1_556 S
O27 C11 1.266 . S
O28 Tb0 2.325 . S
O28 Tb1 2.658 . S
O28 C18 1.281 . S
O29 Tb1 2.409 . S
O29 C18 1.254 . S
O30 Tb1 2.378 . S
O30 C19 1.236 . S
O31 Tb0 2.341 . S
O31 C19 1.266 . S
H32 C4 0.929 . S
H33 C5 0.931 . S
H34 C7 0.930 . S
H35 C8 0.930 . S
H36 C13 0.929 . S
H37 C14 0.931 . S
H38 C16 0.930 . S
H39 C17 0.930 . S
Tb40 C42 2.809 1_556 S
Tb40 O60 2.484 1_556 S
Tb40 O61 2.440 1_556 S
Tb40 O62 2.658 . S
Tb40 O63 2.409 . S
Tb40 O64 2.378 . S
Tb40 O68 2.325 . S
Tb40 O71 2.341 . S
Tb41 C51 2.809 . S
Tb41 O62 2.325 . S
Tb41 O65 2.341 . S
Tb41 O66 2.484 . S
Tb41 O67 2.440 . S
Tb41 O68 2.658 . S
Tb41 O69 2.409 . S
Tb41 O70 2.378 . S
C42 Tb40 2.809 1_554 S
C42 C43 1.514 . S
C42 O60 1.248 . S
C42 O61 1.266 . S
C43 C42 1.514 . S
C43 C44 1.359 . S
C43 C48 1.348 . S
C44 C43 1.359 . S
C44 C45 1.380 . S
C44 H72 0.929 . S
C45 C44 1.380 . S
C45 C46 1.347 . S
C45 H73 0.931 . S
C46 C45 1.347 . S
C46 C47 1.369 . S
C47 C46 1.369 . S
C47 C48 1.408 . S
C47 H74 0.930 . S
C48 C43 1.348 . S
C48 C47 1.408 . S
C48 H75 0.930 . S
C49 O62 1.281 . S
C49 O63 1.254 . S
C50 O64 1.236 . S
C50 O65 1.266 . S
C51 Tb41 2.809 . S
C51 C52 1.514 . S
C51 O66 1.248 . S
C51 O67 1.266 . S
C52 C51 1.514 . S
C52 C53 1.359 . S
C52 C57 1.348 . S
C53 C52 1.359 . S
C53 C54 1.380 . S
C53 H76 0.929 . S
C54 C53 1.380 . S
C54 C55 1.347 . S
C54 H77 0.931 . S
C55 C54 1.347 . S
C55 C56 1.369 . S
C56 C55 1.369 . S
C56 C57 1.408 . S
C56 H78 0.930 . S
C57 C52 1.348 . S
C57 C56 1.408 . S
C57 H79 0.930 . S
C58 O68 1.281 . S
C58 O69 1.254 . S
C59 O70 1.236 . S
C59 O71 1.266 . S
O60 Tb40 2.484 1_554 S
O60 C42 1.248 . S
O61 Tb40 2.440 1_554 S
O61 C42 1.266 . S
O62 Tb40 2.658 . S
O62 Tb41 2.325 . S
O62 C49 1.281 . S
O63 Tb40 2.409 . S
O63 C49 1.254 . S
O64 Tb40 2.378 . S
O64 C50 1.236 . S
O65 Tb41 2.341 . S
O65 C50 1.266 . S
O66 Tb41 2.484 . S
O66 C51 1.248 . S
O67 Tb41 2.440 . S
O67 C51 1.266 . S
O68 Tb40 2.325 . S
O68 Tb41 2.658 . S
O68 C58 1.281 . S
O69 Tb41 2.409 . S
O69 C58 1.254 . S
O70 Tb41 2.378 . S
O70 C59 1.236 . S
O71 Tb40 2.341 . S
O71 C59 1.266 . S
H72 C44 0.929 . S
H73 C45 0.931 . S
H74 C47 0.930 . S
H75 C48 0.930 . S
H76 C53 0.929 . S
H77 C54 0.931 . S
H78 C56 0.930 . S
H79 C57 0.930 . S
Tb80 C82 2.809 . S
Tb80 O100 2.484 . S
Tb80 O101 2.440 . S
Tb80 O102 2.658 . S
Tb80 O103 2.409 . S
Tb80 O104 2.378 . S
Tb80 O108 2.325 . S
Tb80 O111 2.341 . S
Tb81 C91 2.809 1_554 S
Tb81 O102 2.325 . S
Tb81 O105 2.341 . S
Tb81 O106 2.484 1_554 S
Tb81 O107 2.440 1_554 S
Tb81 O108 2.658 . S
Tb81 O109 2.409 . S
Tb81 O110 2.378 . S
C82 Tb80 2.809 . S
C82 C83 1.514 . S
C82 O100 1.248 . S
C82 O101 1.266 . S
C83 C82 1.514 . S
C83 C84 1.359 . S
C83 C88 1.348 . S
C84 C83 1.359 . S
C84 C85 1.380 . S
C84 H112 0.929 . S
C85 C84 1.380 . S
C85 C86 1.347 . S
C85 H113 0.931 . S
C86 C85 1.347 . S
C86 C87 1.369 . S
C87 C86 1.369 . S
C87 C88 1.408 . S
C87 H114 0.930 . S
C88 C83 1.348 . S
C88 C87 1.408 . S
C88 H115 0.930 . S
C89 O102 1.281 . S
C89 O103 1.254 . S
C90 O104 1.236 . S
C90 O105 1.266 . S
C91 Tb81 2.809 1_556 S
C91 C92 1.514 . S
C91 O106 1.248 . S
C91 O107 1.266 . S
C92 C91 1.514 . S
C92 C93 1.359 . S
C92 C97 1.348 . S
C93 C92 1.359 . S
C93 C94 1.380 . S
C93 H116 0.929 . S
C94 C93 1.380 . S
C94 C95 1.347 . S
C94 H117 0.931 . S
C95 C94 1.347 . S
C95 C96 1.369 . S
C96 C95 1.369 . S
C96 C97 1.408 . S
C96 H118 0.930 . S
C97 C92 1.348 . S
C97 C96 1.408 . S
C97 H119 0.930 . S
C98 O108 1.281 . S
C98 O109 1.254 . S
C99 O110 1.236 . S
C99 O111 1.266 . S
O100 Tb80 2.484 . S
O100 C82 1.248 . S
O101 Tb80 2.440 . S
O101 C82 1.266 . S
O102 Tb80 2.658 . S
O102 Tb81 2.325 . S
O102 C89 1.281 . S
O103 Tb80 2.409 . S
O103 C89 1.254 . S
O104 Tb80 2.378 . S
O104 C90 1.236 . S
O105 Tb81 2.341 . S
O105 C90 1.266 . S
O106 Tb81 2.484 1_556 S
O106 C91 1.248 . S
O107 Tb81 2.440 1_556 S
O107 C91 1.266 . S
O108 Tb80 2.325 . S
O108 Tb81 2.658 . S
O108 C98 1.281 . S
O109 Tb81 2.409 . S
O109 C98 1.254 . S
O110 Tb81 2.378 . S
O110 C99 1.236 . S
O111 Tb80 2.341 . S
O111 C99 1.266 . S
H112 C84 0.929 . S
H113 C85 0.931 . S
H114 C87 0.930 . S
H115 C88 0.930 . S
H116 C93 0.929 . S
H117 C94 0.931 . S
H118 C96 0.930 . S
H119 C97 0.930 . S
Tb120 C122 2.809 1_556 S
Tb120 O140 2.484 1_556 S
Tb120 O141 2.440 1_556 S
Tb120 O142 2.658 . S
Tb120 O143 2.409 . S
Tb120 O144 2.378 . S
Tb120 O148 2.325 . S
Tb120 O151 2.341 . S
Tb121 C131 2.809 . S
Tb121 O142 2.325 . S
Tb121 O145 2.341 . S
Tb121 O146 2.484 . S
Tb121 O147 2.440 . S
Tb121 O148 2.658 . S
Tb121 O149 2.409 . S
Tb121 O150 2.378 . S
C122 Tb120 2.809 1_554 S
C122 C123 1.514 . S
C122 O140 1.248 . S
C122 O141 1.266 . S
C123 C122 1.514 . S
C123 C124 1.359 . S
C123 C128 1.348 . S
C124 C123 1.359 . S
C124 C125 1.380 . S
C124 H152 0.929 . S
C125 C124 1.380 . S
C125 C126 1.347 . S
C125 H153 0.931 . S
C126 C125 1.347 . S
C126 C127 1.369 . S
C127 C126 1.369 . S
C127 C128 1.408 . S
C127 H154 0.930 . S
C128 C123 1.348 . S
C128 C127 1.408 . S
C128 H155 0.930 . S
C129 O142 1.281 . S
C129 O143 1.254 . S
C130 O144 1.236 . S
C130 O145 1.266 . S
C131 Tb121 2.809 . S
C131 C132 1.514 . S
C131 O146 1.248 . S
C131 O147 1.266 . S
C132 C131 1.514 . S
C132 C133 1.359 . S
C132 C137 1.348 . S
C133 C132 1.359 . S
C133 C134 1.380 . S
C133 H156 0.929 . S
C134 C133 1.380 . S
C134 C135 1.347 . S
C134 H157 0.931 . S
C135 C134 1.347 . S
C135 C136 1.369 . S
C136 C135 1.369 . S
C136 C137 1.408 . S
C136 H158 0.930 . S
C137 C132 1.348 . S
C137 C136 1.408 . S
C137 H159 0.930 . S
C138 O148 1.281 . S
C138 O149 1.254 . S
C139 O150 1.236 . S
C139 O151 1.266 . S
O140 Tb120 2.484 1_554 S
O140 C122 1.248 . S
O141 Tb120 2.440 1_554 S
O141 C122 1.266 . S
O142 Tb120 2.658 . S
O142 Tb121 2.325 . S
O142 C129 1.281 . S
O143 Tb120 2.409 . S
O143 C129 1.254 . S
O144 Tb120 2.378 . S
O144 C130 1.236 . S
O145 Tb121 2.341 . S
O145 C130 1.266 . S
O146 Tb121 2.484 . S
O146 C131 1.248 . S
O147 Tb121 2.440 . S
O147 C131 1.266 . S
O148 Tb120 2.325 . S
O148 Tb121 2.658 . S
O148 C138 1.281 . S
O149 Tb121 2.409 . S
O149 C138 1.254 . S
O150 Tb121 2.378 . S
O150 C139 1.236 . S
O151 Tb120 2.341 . S
O151 C139 1.266 . S
H152 C124 0.929 . S
H153 C125 0.931 . S
H154 C127 0.930 . S
H155 C128 0.930 . S
H156 C133 0.929 . S
H157 C134 0.931 . S
H158 C136 0.930 . S
H159 C137 0.930 . S
Tb160 C162 2.809 1_554 S
Tb160 O180 2.484 1_554 S
Tb160 O181 2.440 1_554 S
Tb160 O182 2.658 . S
Tb160 O183 2.409 . S
Tb160 O184 2.378 . S
Tb160 O188 2.325 . S
Tb160 O191 2.341 . S
Tb161 C171 2.809 . S
Tb161 O182 2.325 . S
Tb161 O185 2.341 . S
Tb161 O186 2.484 . S
Tb161 O187 2.440 . S
Tb161 O188 2.658 . S
Tb161 O189 2.409 . S
Tb161 O190 2.378 . S
C162 Tb160 2.809 1_556 S
C162 C163 1.514 . S
C162 O180 1.248 . S
C162 O181 1.266 . S
C163 C162 1.514 . S
C163 C164 1.359 . S
C163 C168 1.348 . S
C164 C163 1.359 . S
C164 C165 1.380 . S
C164 H192 0.929 . S
C165 C164 1.380 . S
C165 C166 1.347 . S
C165 H193 0.931 . S
C166 C165 1.347 . S
C166 C167 1.369 . S
C167 C166 1.369 . S
C167 C168 1.408 . S
C167 H194 0.930 . S
C168 C163 1.348 . S
C168 C167 1.408 . S
C168 H195 0.930 . S
C169 O182 1.281 . S
C169 O183 1.254 . S
C170 O184 1.236 . S
C170 O185 1.266 . S
C171 Tb161 2.809 . S
C171 C172 1.514 . S
C171 O186 1.248 . S
C171 O187 1.266 . S
C172 C171 1.514 . S
C172 C173 1.359 . S
C172 C177 1.348 . S
C173 C172 1.359 . S
C173 C174 1.380 . S
C173 H196 0.929 . S
C174 C173 1.380 . S
C174 C175 1.347 . S
C174 H197 0.931 . S
C175 C174 1.347 . S
C175 C176 1.369 . S
C176 C175 1.369 . S
C176 C177 1.408 . S
C176 H198 0.930 . S
C177 C172 1.348 . S
C177 C176 1.408 . S
C177 H199 0.930 . S
C178 O188 1.281 . S
C178 O189 1.254 . S
C179 O190 1.236 . S
C179 O191 1.266 . S
O180 Tb160 2.484 1_556 S
O180 C162 1.248 . S
O181 Tb160 2.440 1_556 S
O181 C162 1.266 . S
O182 Tb160 2.658 . S
O182 Tb161 2.325 . S
O182 C169 1.281 . S
O183 Tb160 2.409 . S
O183 C169 1.254 . S
O184 Tb160 2.378 . S
O184 C170 1.236 . S
O185 Tb161 2.341 . S
O185 C170 1.266 . S
O186 Tb161 2.484 . S
O186 C171 1.248 . S
O187 Tb161 2.440 . S
O187 C171 1.266 . S
O188 Tb160 2.325 . S
O188 Tb161 2.658 . S
O188 C178 1.281 . S
O189 Tb161 2.409 . S
O189 C178 1.254 . S
O190 Tb161 2.378 . S
O190 C179 1.236 . S
O191 Tb160 2.341 . S
O191 C179 1.266 . S
H192 C164 0.929 . S
H193 C165 0.931 . S
H194 C167 0.930 . S
H195 C168 0.930 . S
H196 C173 0.929 . S
H197 C174 0.931 . S
H198 C176 0.930 . S
H199 C177 0.930 . S
Tb200 C202 2.809 . S
Tb200 O220 2.484 . S
Tb200 O221 2.440 . S
Tb200 O222 2.658 . S
Tb200 O223 2.409 . S
Tb200 O224 2.378 . S
Tb200 O228 2.325 . S
Tb200 O231 2.341 . S
Tb201 C211 2.809 1_556 S
Tb201 O222 2.325 . S
Tb201 O225 2.341 . S
Tb201 O226 2.484 1_556 S
Tb201 O227 2.440 1_556 S
Tb201 O228 2.658 . S
Tb201 O229 2.409 . S
Tb201 O230 2.378 . S
C202 Tb200 2.809 . S
C202 C203 1.514 . S
C202 O220 1.248 . S
C202 O221 1.266 . S
C203 C202 1.514 . S
C203 C204 1.359 . S
C203 C208 1.348 . S
C204 C203 1.359 . S
C204 C205 1.380 . S
C204 H232 0.929 . S
C205 C204 1.380 . S
C205 C206 1.347 . S
C205 H233 0.931 . S
C206 C205 1.347 . S
C206 C207 1.369 . S
C207 C206 1.369 . S
C207 C208 1.408 . S
C207 H234 0.930 . S
C208 C203 1.348 . S
C208 C207 1.408 . S
C208 H235 0.930 . S
C209 O222 1.281 . S
C209 O223 1.254 . S
C210 O224 1.236 . S
C210 O225 1.266 . S
C211 Tb201 2.809 1_554 S
C211 C212 1.514 . S
C211 O226 1.248 . S
C211 O227 1.266 . S
C212 C211 1.514 . S
C212 C213 1.359 . S
C212 C217 1.348 . S
C213 C212 1.359 . S
C213 C214 1.380 . S
C213 H236 0.929 . S
C214 C213 1.380 . S
C214 C215 1.347 . S
C214 H237 0.931 . S
C215 C214 1.347 . S
C215 C216 1.369 . S
C216 C215 1.369 . S
C216 C217 1.408 . S
C216 H238 0.930 . S
C217 C212 1.348 . S
C217 C216 1.408 . S
C217 H239 0.930 . S
C218 O228 1.281 . S
C218 O229 1.254 . S
C219 O230 1.236 . S
C219 O231 1.266 . S
O220 Tb200 2.484 . S
O220 C202 1.248 . S
O221 Tb200 2.440 . S
O221 C202 1.266 . S
O222 Tb200 2.658 . S
O222 Tb201 2.325 . S
O222 C209 1.281 . S
O223 Tb200 2.409 . S
O223 C209 1.254 . S
O224 Tb200 2.378 . S
O224 C210 1.236 . S
O225 Tb201 2.341 . S
O225 C210 1.266 . S
O226 Tb201 2.484 1_554 S
O226 C211 1.248 . S
O227 Tb201 2.440 1_554 S
O227 C211 1.266 . S
O228 Tb200 2.325 . S
O228 Tb201 2.658 . S
O228 C218 1.281 . S
O229 Tb201 2.409 . S
O229 C218 1.254 . S
O230 Tb201 2.378 . S
O230 C219 1.236 . S
O231 Tb200 2.341 . S
O231 C219 1.266 . S
H232 C204 0.929 . S
H233 C205 0.931 . S
H234 C207 0.930 . S
H235 C208 0.930 . S
H236 C213 0.929 . S
H237 C214 0.931 . S
H238 C216 0.930 . S
H239 C217 0.930 . S
Tb240 C242 2.809 1_554 S
Tb240 O260 2.484 1_554 S
Tb240 O261 2.440 1_554 S
Tb240 O262 2.658 . S
Tb240 O263 2.409 . S
Tb240 O264 2.378 . S
Tb240 O268 2.325 . S
Tb240 O271 2.341 . S
Tb241 C251 2.809 . S
Tb241 O262 2.325 . S
Tb241 O265 2.341 . S
Tb241 O266 2.484 . S
Tb241 O267 2.440 . S
Tb241 O268 2.658 . S
Tb241 O269 2.409 . S
Tb241 O270 2.378 . S
C242 Tb240 2.809 1_556 S
C242 C243 1.514 . S
C242 O260 1.248 . S
C242 O261 1.266 . S
C243 C242 1.514 . S
C243 C244 1.359 . S
C243 C248 1.348 . S
C244 C243 1.359 . S
C244 C245 1.380 . S
C244 H272 0.929 . S
C245 C244 1.380 . S
C245 C246 1.347 . S
C245 H273 0.931 . S
C246 C245 1.347 . S
C246 C247 1.369 . S
C247 C246 1.369 . S
C247 C248 1.408 . S
C247 H274 0.930 . S
C248 C243 1.348 . S
C248 C247 1.408 . S
C248 H275 0.930 . S
C249 O262 1.281 . S
C249 O263 1.254 . S
C250 O264 1.236 . S
C250 O265 1.266 . S
C251 Tb241 2.809 . S
C251 C252 1.514 . S
C251 O266 1.248 . S
C251 O267 1.266 . S
C252 C251 1.514 . S
C252 C253 1.359 . S
C252 C257 1.348 . S
C253 C252 1.359 . S
C253 C254 1.380 . S
C253 H276 0.929 . S
C254 C253 1.380 . S
C254 C255 1.347 . S
C254 H277 0.931 . S
C255 C254 1.347 . S
C255 C256 1.369 . S
C256 C255 1.369 . S
C256 C257 1.408 . S
C256 H278 0.930 . S
C257 C252 1.348 . S
C257 C256 1.408 . S
C257 H279 0.930 . S
C258 O268 1.281 . S
C258 O269 1.254 . S
C259 O270 1.236 . S
C259 O271 1.266 . S
O260 Tb240 2.484 1_556 S
O260 C242 1.248 . S
O261 Tb240 2.440 1_556 S
O261 C242 1.266 . S
O262 Tb240 2.658 . S
O262 Tb241 2.325 . S
O262 C249 1.281 . S
O263 Tb240 2.409 . S
O263 C249 1.254 . S
O264 Tb240 2.378 . S
O264 C250 1.236 . S
O265 Tb241 2.341 . S
O265 C250 1.266 . S
O266 Tb241 2.484 . S
O266 C251 1.248 . S
O267 Tb241 2.440 . S
O267 C251 1.266 . S
O268 Tb240 2.325 . S
O268 Tb241 2.658 . S
O268 C258 1.281 . S
O269 Tb241 2.409 . S
O269 C258 1.254 . S
O270 Tb241 2.378 . S
O270 C259 1.236 . S
O271 Tb240 2.341 . S
O271 C259 1.266 . S
H272 C244 0.929 . S
H273 C245 0.931 . S
H274 C247 0.930 . S
H275 C248 0.930 . S
H276 C253 0.929 . S
H277 C254 0.931 . S
H278 C256 0.930 . S
H279 C257 0.930 . S
Tb280 C282 2.809 . S
Tb280 O300 2.484 . S
Tb280 O301 2.440 . S
Tb280 O302 2.658 . S
Tb280 O303 2.409 . S
Tb280 O304 2.378 . S
Tb280 O308 2.325 . S
Tb280 O311 2.341 . S
Tb281 C291 2.809 1_556 S
Tb281 O302 2.325 . S
Tb281 O305 2.341 . S
Tb281 O306 2.484 1_556 S
Tb281 O307 2.440 1_556 S
Tb281 O308 2.658 . S
Tb281 O309 2.409 . S
Tb281 O310 2.378 . S
C282 Tb280 2.809 . S
C282 C283 1.514 . S
C282 O300 1.248 . S
C282 O301 1.266 . S
C283 C282 1.514 . S
C283 C284 1.359 . S
C283 C288 1.348 . S
C284 C283 1.359 . S
C284 C285 1.380 . S
C284 H312 0.929 . S
C285 C284 1.380 . S
C285 C286 1.347 . S
C285 H313 0.931 . S
C286 C285 1.347 . S
C286 C287 1.369 . S
C287 C286 1.369 . S
C287 C288 1.408 . S
C287 H314 0.930 . S
C288 C283 1.348 . S
C288 C287 1.408 . S
C288 H315 0.930 . S
C289 O302 1.281 . S
C289 O303 1.254 . S
C290 O304 1.236 . S
C290 O305 1.266 . S
C291 Tb281 2.809 1_554 S
C291 C292 1.514 . S
C291 O306 1.248 . S
C291 O307 1.266 . S
C292 C291 1.514 . S
C292 C293 1.359 . S
C292 C297 1.348 . S
C293 C292 1.359 . S
C293 C294 1.380 . S
C293 H316 0.929 . S
C294 C293 1.380 . S
C294 C295 1.347 . S
C294 H317 0.931 . S
C295 C294 1.347 . S
C295 C296 1.369 . S
C296 C295 1.369 . S
C296 C297 1.408 . S
C296 H318 0.930 . S
C297 C292 1.348 . S
C297 C296 1.408 . S
C297 H319 0.930 . S
C298 O308 1.281 . S
C298 O309 1.254 . S
C299 O310 1.236 . S
C299 O311 1.266 . S
O300 Tb280 2.484 . S
O300 C282 1.248 . S
O301 Tb280 2.440 . S
O301 C282 1.266 . S
O302 Tb280 2.658 . S
O302 Tb281 2.325 . S
O302 C289 1.281 . S
O303 Tb280 2.409 . S
O303 C289 1.254 . S
O304 Tb280 2.378 . S
O304 C290 1.236 . S
O305 Tb281 2.341 . S
O305 C290 1.266 . S
O306 Tb281 2.484 1_554 S
O306 C291 1.248 . S
O307 Tb281 2.440 1_554 S
O307 C291 1.266 . S
O308 Tb280 2.325 . S
O308 Tb281 2.658 . S
O308 C298 1.281 . S
O309 Tb281 2.409 . S
O309 C298 1.254 . S
O310 Tb281 2.378 . S
O310 C299 1.236 . S
O311 Tb280 2.341 . S
O311 C299 1.266 . S
H312 C284 0.929 . S
H313 C285 0.931 . S
H314 C287 0.930 . S
H315 C288 0.930 . S
H316 C293 0.929 . S
H317 C294 0.931 . S
H318 C296 0.930 . S
H319 C297 0.930 . S
Tb320 C322 2.809 . S
Tb320 O340 2.484 . S
Tb320 O341 2.440 . S
Tb320 O342 2.658 . S
Tb320 O343 2.409 . S
Tb320 O344 2.378 . S
Tb320 O348 2.325 . S
Tb320 O351 2.341 . S
Tb321 C331 2.809 . S
Tb321 O342 2.325 . S
Tb321 O345 2.341 . S
Tb321 O346 2.484 . S
Tb321 O347 2.440 . S
Tb321 O348 2.658 . S
Tb321 O349 2.409 . S
Tb321 O350 2.378 . S
C322 Tb320 2.809 . S
C322 C323 1.514 . S
C322 O340 1.248 . S
C322 O341 1.266 . S
C323 C322 1.514 . S
C323 C324 1.359 . S
C323 C328 1.348 . S
C324 C323 1.359 . S
C324 C325 1.380 . S
C324 H352 0.929 . S
C325 C324 1.380 . S
C325 C326 1.347 . S
C325 H353 0.931 . S
C326 C325 1.347 . S
C326 C327 1.369 . S
C327 C326 1.369 . S
C327 C328 1.408 . S
C327 H354 0.930 . S
C328 C323 1.348 . S
C328 C327 1.408 . S
C328 H355 0.930 . S
C329 O342 1.281 . S
C329 O343 1.254 . S
C330 O344 1.236 . S
C330 O345 1.266 . S
C331 Tb321 2.809 . S
C331 C332 1.514 . S
C331 O346 1.248 . S
C331 O347 1.266 . S
C332 C331 1.514 . S
C332 C333 1.359 . S
C332 C337 1.348 . S
C333 C332 1.359 . S
C333 C334 1.380 . S
C333 H356 0.929 . S
C334 C333 1.380 . S
C334 C335 1.347 . S
C334 H357 0.931 . S
C335 C334 1.347 . S
C335 C336 1.369 . S
C336 C335 1.369 . S
C336 C337 1.408 . S
C336 H358 0.930 . S
C337 C332 1.348 . S
C337 C336 1.408 . S
C337 H359 0.930 . S
C338 O348 1.281 . S
C338 O349 1.254 . S
C339 O350 1.236 . S
C339 O351 1.266 . S
O340 Tb320 2.484 . S
O340 C322 1.248 . S
O341 Tb320 2.440 . S
O341 C322 1.266 . S
O342 Tb320 2.658 . S
O342 Tb321 2.325 . S
O342 C329 1.281 . S
O343 Tb320 2.409 . S
O343 C329 1.254 . S
O344 Tb320 2.378 . S
O344 C330 1.236 . S
O345 Tb321 2.341 . S
O345 C330 1.266 . S
O346 Tb321 2.484 . S
O346 C331 1.248 . S
O347 Tb321 2.440 . S
O347 C331 1.266 . S
O348 Tb320 2.325 . S
O348 Tb321 2.658 . S
O348 C338 1.281 . S
O349 Tb321 2.409 . S
O349 C338 1.254 . S
O350 Tb321 2.378 . S
O350 C339 1.236 . S
O351 Tb320 2.341 . S
O351 C339 1.266 . S
H352 C324 0.929 . S
H353 C325 0.931 . S
H354 C327 0.930 . S
H355 C328 0.930 . S
H356 C333 0.929 . S
H357 C334 0.931 . S
H358 C336 0.930 . S
H359 C337 0.930 . S
Tb360 C362 2.809 . S
Tb360 O380 2.484 . S
Tb360 O381 2.440 . S
Tb360 O382 2.658 . S
Tb360 O383 2.409 . S
Tb360 O384 2.378 . S
Tb360 O388 2.325 . S
Tb360 O391 2.341 . S
Tb361 C371 2.809 . S
Tb361 O382 2.325 . S
Tb361 O385 2.341 . S
Tb361 O386 2.484 . S
Tb361 O387 2.440 . S
Tb361 O388 2.658 . S
Tb361 O389 2.409 . S
Tb361 O390 2.378 . S
C362 Tb360 2.809 . S
C362 C363 1.514 . S
C362 O380 1.248 . S
C362 O381 1.266 . S
C363 C362 1.514 . S
C363 C364 1.359 . S
C363 C368 1.348 . S
C364 C363 1.359 . S
C364 C365 1.380 . S
C364 H392 0.929 . S
C365 C364 1.380 . S
C365 C366 1.347 . S
C365 H393 0.931 . S
C366 C365 1.347 . S
C366 C367 1.369 . S
C367 C366 1.369 . S
C367 C368 1.408 . S
C367 H394 0.930 . S
C368 C363 1.348 . S
C368 C367 1.408 . S
C368 H395 0.930 . S
C369 O382 1.281 . S
C369 O383 1.254 . S
C370 O384 1.236 . S
C370 O385 1.266 . S
C371 Tb361 2.809 . S
C371 C372 1.514 . S
C371 O386 1.248 . S
C371 O387 1.266 . S
C372 C371 1.514 . S
C372 C373 1.359 . S
C372 C377 1.348 . S
C373 C372 1.359 . S
C373 C374 1.380 . S
C373 H396 0.929 . S
C374 C373 1.380 . S
C374 C375 1.347 . S
C374 H397 0.931 . S
C375 C374 1.347 . S
C375 C376 1.369 . S
C376 C375 1.369 . S
C376 C377 1.408 . S
C376 H398 0.930 . S
C377 C372 1.348 . S
C377 C376 1.408 . S
C377 H399 0.930 . S
C378 O388 1.281 . S
C378 O389 1.254 . S
C379 O390 1.236 . S
C379 O391 1.266 . S
O380 Tb360 2.484 . S
O380 C362 1.248 . S
O381 Tb360 2.440 . S
O381 C362 1.266 . S
O382 Tb360 2.658 . S
O382 Tb361 2.325 . S
O382 C369 1.281 . S
O383 Tb360 2.409 . S
O383 C369 1.254 . S
O384 Tb360 2.378 . S
O384 C370 1.236 . S
O385 Tb361 2.341 . S
O385 C370 1.266 . S
O386 Tb361 2.484 . S
O386 C371 1.248 . S
O387 Tb361 2.440 . S
O387 C371 1.266 . S
O388 Tb360 2.325 . S
O388 Tb361 2.658 . S
O388 C378 1.281 . S
O389 Tb361 2.409 . S
O389 C378 1.254 . S
O390 Tb361 2.378 . S
O390 C379 1.236 . S
O391 Tb360 2.341 . S
O391 C379 1.266 . S
H392 C364 0.929 . S
H393 C365 0.931 . S
H394 C367 0.930 . S
H395 C368 0.930 . S
H396 C373 0.929 . S
H397 C374 0.931 . S
H398 C376 0.930 . S
H399 C377 0.930 . S
Tb400 C402 2.809 . S
Tb400 O420 2.484 . S
Tb400 O421 2.440 . S
Tb400 O422 2.658 . S
Tb400 O423 2.409 . S
Tb400 O424 2.378 . S
Tb400 O428 2.325 . S
Tb400 O431 2.341 . S
Tb401 C411 2.809 . S
Tb401 O422 2.325 . S
Tb401 O425 2.341 . S
Tb401 O426 2.484 . S
Tb401 O427 2.440 . S
Tb401 O428 2.658 . S
Tb401 O429 2.409 . S
Tb401 O430 2.378 . S
C402 Tb400 2.809 . S
C402 C403 1.514 . S
C402 O420 1.248 . S
C402 O421 1.266 . S
C403 C402 1.514 . S
C403 C404 1.359 . S
C403 C408 1.348 . S
C404 C403 1.359 . S
C404 C405 1.380 . S
C404 H432 0.929 . S
C405 C404 1.380 . S
C405 C406 1.347 . S
C405 H433 0.931 . S
C406 C405 1.347 . S
C406 C407 1.369 . S
C407 C406 1.369 . S
C407 C408 1.408 . S
C407 H434 0.930 . S
C408 C403 1.348 . S
C408 C407 1.408 . S
C408 H435 0.930 . S
C409 O422 1.281 . S
C409 O423 1.254 . S
C410 O424 1.236 . S
C410 O425 1.266 . S
C411 Tb401 2.809 . S
C411 C412 1.514 . S
C411 O426 1.248 . S
C411 O427 1.266 . S
C412 C411 1.514 . S
C412 C413 1.359 . S
C412 C417 1.348 . S
C413 C412 1.359 . S
C413 C414 1.380 . S
C413 H436 0.929 . S
C414 C413 1.380 . S
C414 C415 1.347 . S
C414 H437 0.931 . S
C415 C414 1.347 . S
C415 C416 1.369 . S
C416 C415 1.369 . S
C416 C417 1.408 . S
C416 H438 0.930 . S
C417 C412 1.348 . S
C417 C416 1.408 . S
C417 H439 0.930 . S
C418 O428 1.281 . S
C418 O429 1.254 . S
C419 O430 1.236 . S
C419 O431 1.266 . S
O420 Tb400 2.484 . S
O420 C402 1.248 . S
O421 Tb400 2.440 . S
O421 C402 1.266 . S
O422 Tb400 2.658 . S
O422 Tb401 2.325 . S
O422 C409 1.281 . S
O423 Tb400 2.409 . S
O423 C409 1.254 . S
O424 Tb400 2.378 . S
O424 C410 1.236 . S
O425 Tb401 2.341 . S
O425 C410 1.266 . S
O426 Tb401 2.484 . S
O426 C411 1.248 . S
O427 Tb401 2.440 . S
O427 C411 1.266 . S
O428 Tb400 2.325 . S
O428 Tb401 2.658 . S
O428 C418 1.281 . S
O429 Tb401 2.409 . S
O429 C418 1.254 . S
O430 Tb401 2.378 . S
O430 C419 1.236 . S
O431 Tb400 2.341 . S
O431 C419 1.266 . S
H432 C404 0.929 . S
H433 C405 0.931 . S
H434 C407 0.930 . S
H435 C408 0.930 . S
H436 C413 0.929 . S
H437 C414 0.931 . S
H438 C416 0.930 . S
H439 C417 0.930 . S
Tb440 C442 2.809 . S
Tb440 O460 2.484 . S
Tb440 O461 2.440 . S
Tb440 O462 2.658 . S
Tb440 O463 2.409 . S
Tb440 O464 2.378 . S
Tb440 O468 2.325 . S
Tb440 O471 2.341 . S
Tb441 C451 2.809 . S
Tb441 O462 2.325 . S
Tb441 O465 2.341 . S
Tb441 O466 2.484 . S
Tb441 O467 2.440 . S
Tb441 O468 2.658 . S
Tb441 O469 2.409 . S
Tb441 O470 2.378 . S
C442 Tb440 2.809 . S
C442 C443 1.514 . S
C442 O460 1.248 . S
C442 O461 1.266 . S
C443 C442 1.514 . S
C443 C444 1.359 . S
C443 C448 1.348 . S
C444 C443 1.359 . S
C444 C445 1.380 . S
C444 H472 0.929 . S
C445 C444 1.380 . S
C445 C446 1.347 . S
C445 H473 0.931 . S
C446 C445 1.347 . S
C446 C447 1.369 . S
C447 C446 1.369 . S
C447 C448 1.408 . S
C447 H474 0.930 . S
C448 C443 1.348 . S
C448 C447 1.408 . S
C448 H475 0.930 . S
C449 O462 1.281 . S
C449 O463 1.254 . S
C450 O464 1.236 . S
C450 O465 1.266 . S
C451 Tb441 2.809 . S
C451 C452 1.514 . S
C451 O466 1.248 . S
C451 O467 1.266 . S
C452 C451 1.514 . S
C452 C453 1.359 . S
C452 C457 1.348 . S
C453 C452 1.359 . S
C453 C454 1.380 . S
C453 H476 0.929 . S
C454 C453 1.380 . S
C454 C455 1.347 . S
C454 H477 0.931 . S
C455 C454 1.347 . S
C455 C456 1.369 . S
C456 C455 1.369 . S
C456 C457 1.408 . S
C456 H478 0.930 . S
C457 C452 1.348 . S
C457 C456 1.408 . S
C457 H479 0.930 . S
C458 O468 1.281 . S
C458 O469 1.254 . S
C459 O470 1.236 . S
C459 O471 1.266 . S
O460 Tb440 2.484 . S
O460 C442 1.248 . S
O461 Tb440 2.440 . S
O461 C442 1.266 . S
O462 Tb440 2.658 . S
O462 Tb441 2.325 . S
O462 C449 1.281 . S
O463 Tb440 2.409 . S
O463 C449 1.254 . S
O464 Tb440 2.378 . S
O464 C450 1.236 . S
O465 Tb441 2.341 . S
O465 C450 1.266 . S
O466 Tb441 2.484 . S
O466 C451 1.248 . S
O467 Tb441 2.440 . S
O467 C451 1.266 . S
O468 Tb440 2.325 . S
O468 Tb441 2.658 . S
O468 C458 1.281 . S
O469 Tb441 2.409 . S
O469 C458 1.254 . S
O470 Tb441 2.378 . S
O470 C459 1.236 . S
O471 Tb440 2.341 . S
O471 C459 1.266 . S
H472 C444 0.929 . S
H473 C445 0.931 . S
H474 C447 0.930 . S
H475 C448 0.930 . S
H476 C453 0.929 . S
H477 C454 0.931 . S
H478 C456 0.930 . S
H479 C457 0.930 . S
Tb480 C482 2.809 . S
Tb480 O500 2.484 . S
Tb480 O501 2.440 . S
Tb480 O502 2.658 . S
Tb480 O503 2.409 . S
Tb480 O504 2.378 . S
Tb480 O508 2.325 . S
Tb480 O511 2.341 . S
Tb481 C491 2.809 . S
Tb481 O502 2.325 . S
Tb481 O505 2.341 . S
Tb481 O506 2.484 . S
Tb481 O507 2.440 . S
Tb481 O508 2.658 . S
Tb481 O509 2.409 . S
Tb481 O510 2.378 . S
C482 Tb480 2.809 . S
C482 C483 1.514 . S
C482 O500 1.248 . S
C482 O501 1.266 . S
C483 C482 1.514 . S
C483 C484 1.359 . S
C483 C488 1.348 . S
C484 C483 1.359 . S
C484 C485 1.380 . S
C484 H512 0.929 . S
C485 C484 1.380 . S
C485 C486 1.347 . S
C485 H513 0.931 . S
C486 C485 1.347 . S
C486 C487 1.369 . S
C487 C486 1.369 . S
C487 C488 1.408 . S
C487 H514 0.930 . S
C488 C483 1.348 . S
C488 C487 1.408 . S
C488 H515 0.930 . S
C489 O502 1.281 . S
C489 O503 1.254 . S
C490 O504 1.236 . S
C490 O505 1.266 . S
C491 Tb481 2.809 . S
C491 C492 1.514 . S
C491 O506 1.248 . S
C491 O507 1.266 . S
C492 C491 1.514 . S
C492 C493 1.359 . S
C492 C497 1.348 . S
C493 C492 1.359 . S
C493 C494 1.380 . S
C493 H516 0.929 . S
C494 C493 1.380 . S
C494 C495 1.347 . S
C494 H517 0.931 . S
C495 C494 1.347 . S
C495 C496 1.369 . S
C496 C495 1.369 . S
C496 C497 1.408 . S
C496 H518 0.930 . S
C497 C492 1.348 . S
C497 C496 1.408 . S
C497 H519 0.930 . S
C498 O508 1.281 . S
C498 O509 1.254 . S
C499 O510 1.236 . S
C499 O511 1.266 . S
O500 Tb480 2.484 . S
O500 C482 1.248 . S
O501 Tb480 2.440 . S
O501 C482 1.266 . S
O502 Tb480 2.658 . S
O502 Tb481 2.325 . S
O502 C489 1.281 . S
O503 Tb480 2.409 . S
O503 C489 1.254 . S
O504 Tb480 2.378 . S
O504 C490 1.236 . S
O505 Tb481 2.341 . S
O505 C490 1.266 . S
O506 Tb481 2.484 . S
O506 C491 1.248 . S
O507 Tb481 2.440 . S
O507 C491 1.266 . S
O508 Tb480 2.325 . S
O508 Tb481 2.658 . S
O508 C498 1.281 . S
O509 Tb481 2.409 . S
O509 C498 1.254 . S
O510 Tb481 2.378 . S
O510 C499 1.236 . S
O511 Tb480 2.341 . S
O511 C499 1.266 . S
H512 C484 0.929 . S
H513 C485 0.931 . S
H514 C487 0.930 . S
H515 C488 0.930 . S
H516 C493 0.929 . S
H517 C494 0.931 . S
H518 C496 0.930 . S
H519 C497 0.930 . S
Tb520 C522 2.809 . S
Tb520 O540 2.484 . S
Tb520 O541 2.440 . S
Tb520 O542 2.658 . S
Tb520 O543 2.409 . S
Tb520 O544 2.378 . S
Tb520 O548 2.325 . S
Tb520 O551 2.341 . S
Tb521 C531 2.809 . S
Tb521 O542 2.325 . S
Tb521 O545 2.341 . S
Tb521 O546 2.484 . S
Tb521 O547 2.440 . S
Tb521 O548 2.658 . S
Tb521 O549 2.409 . S
Tb521 O550 2.378 . S
C522 Tb520 2.809 . S
C522 C523 1.514 . S
C522 O540 1.248 . S
C522 O541 1.266 . S
C523 C522 1.514 . S
C523 C524 1.359 . S
C523 C528 1.348 . S
C524 C523 1.359 . S
C524 C525 1.380 . S
C524 H552 0.929 . S
C525 C524 1.380 . S
C525 C526 1.347 . S
C525 H553 0.931 . S
C526 C525 1.347 . S
C526 C527 1.369 . S
C527 C526 1.369 . S
C527 C528 1.408 . S
C527 H554 0.930 . S
C528 C523 1.348 . S
C528 C527 1.408 . S
C528 H555 0.930 . S
C529 O542 1.281 . S
C529 O543 1.254 . S
C530 O544 1.236 . S
C530 O545 1.266 . S
C531 Tb521 2.809 . S
C531 C532 1.514 . S
C531 O546 1.248 . S
C531 O547 1.266 . S
C532 C531 1.514 . S
C532 C533 1.359 . S
C532 C537 1.348 . S
C533 C532 1.359 . S
C533 C534 1.380 . S
C533 H556 0.929 . S
C534 C533 1.380 . S
C534 C535 1.347 . S
C534 H557 0.931 . S
C535 C534 1.347 . S
C535 C536 1.369 . S
C536 C535 1.369 . S
C536 C537 1.408 . S
C536 H558 0.930 . S
C537 C532 1.348 . S
C537 C536 1.408 . S
C537 H559 0.930 . S
C538 O548 1.281 . S
C538 O549 1.254 . S
C539 O550 1.236 . S
C539 O551 1.266 . S
O540 Tb520 2.484 . S
O540 C522 1.248 . S
O541 Tb520 2.440 . S
O541 C522 1.266 . S
O542 Tb520 2.658 . S
O542 Tb521 2.325 . S
O542 C529 1.281 . S
O543 Tb520 2.409 . S
O543 C529 1.254 . S
O544 Tb520 2.378 . S
O544 C530 1.236 . S
O545 Tb521 2.341 . S
O545 C530 1.266 . S
O546 Tb521 2.484 . S
O546 C531 1.248 . S
O547 Tb521 2.440 . S
O547 C531 1.266 . S
O548 Tb520 2.325 . S
O548 Tb521 2.658 . S
O548 C538 1.281 . S
O549 Tb521 2.409 . S
O549 C538 1.254 . S
O550 Tb521 2.378 . S
O550 C539 1.236 . S
O551 Tb520 2.341 . S
O551 C539 1.266 . S
H552 C524 0.929 . S
H553 C525 0.931 . S
H554 C527 0.930 . S
H555 C528 0.930 . S
H556 C533 0.929 . S
H557 C534 0.931 . S
H558 C536 0.930 . S
H559 C537 0.930 . S
Tb560 C562 2.809 . S
Tb560 O580 2.484 . S
Tb560 O581 2.440 . S
Tb560 O582 2.658 . S
Tb560 O583 2.409 . S
Tb560 O584 2.378 . S
Tb560 O588 2.325 . S
Tb560 O591 2.341 . S
Tb561 C571 2.809 . S
Tb561 O582 2.325 . S
Tb561 O585 2.341 . S
Tb561 O586 2.484 . S
Tb561 O587 2.440 . S
Tb561 O588 2.658 . S
Tb561 O589 2.409 . S
Tb561 O590 2.378 . S
C562 Tb560 2.809 . S
C562 C563 1.514 . S
C562 O580 1.248 . S
C562 O581 1.266 . S
C563 C562 1.514 . S
C563 C564 1.359 . S
C563 C568 1.348 . S
C564 C563 1.359 . S
C564 C565 1.380 . S
C564 H592 0.929 . S
C565 C564 1.380 . S
C565 C566 1.347 . S
C565 H593 0.931 . S
C566 C565 1.347 . S
C566 C567 1.369 . S
C567 C566 1.369 . S
C567 C568 1.408 . S
C567 H594 0.930 . S
C568 C563 1.348 . S
C568 C567 1.408 . S
C568 H595 0.930 . S
C569 O582 1.281 . S
C569 O583 1.254 . S
C570 O584 1.236 . S
C570 O585 1.266 . S
C571 Tb561 2.809 . S
C571 C572 1.514 . S
C571 O586 1.248 . S
C571 O587 1.266 . S
C572 C571 1.514 . S
C572 C573 1.359 . S
C572 C577 1.348 . S
C573 C572 1.359 . S
C573 C574 1.380 . S
C573 H596 0.929 . S
C574 C573 1.380 . S
C574 C575 1.347 . S
C574 H597 0.931 . S
C575 C574 1.347 . S
C575 C576 1.369 . S
C576 C575 1.369 . S
C576 C577 1.408 . S
C576 H598 0.930 . S
C577 C572 1.348 . S
C577 C576 1.408 . S
C577 H599 0.930 . S
C578 O588 1.281 . S
C578 O589 1.254 . S
C579 O590 1.236 . S
C579 O591 1.266 . S
O580 Tb560 2.484 . S
O580 C562 1.248 . S
O581 Tb560 2.440 . S
O581 C562 1.266 . S
O582 Tb560 2.658 . S
O582 Tb561 2.325 . S
O582 C569 1.281 . S
O583 Tb560 2.409 . S
O583 C569 1.254 . S
O584 Tb560 2.378 . S
O584 C570 1.236 . S
O585 Tb561 2.341 . S
O585 C570 1.266 . S
O586 Tb561 2.484 . S
O586 C571 1.248 . S
O587 Tb561 2.440 . S
O587 C571 1.266 . S
O588 Tb560 2.325 . S
O588 Tb561 2.658 . S
O588 C578 1.281 . S
O589 Tb561 2.409 . S
O589 C578 1.254 . S
O590 Tb561 2.378 . S
O590 C579 1.236 . S
O591 Tb560 2.341 . S
O591 C579 1.266 . S
H592 C564 0.929 . S
H593 C565 0.931 . S
H594 C567 0.930 . S
H595 C568 0.930 . S
H596 C573 0.929 . S
H597 C574 0.931 . S
H598 C576 0.930 . S
H599 C577 0.930 . S
Tb600 C602 2.809 . S
Tb600 O620 2.484 . S
Tb600 O621 2.440 . S
Tb600 O622 2.658 . S
Tb600 O623 2.409 . S
Tb600 O624 2.378 . S
Tb600 O628 2.325 . S
Tb600 O631 2.341 . S
Tb601 C611 2.809 . S
Tb601 O622 2.325 . S
Tb601 O625 2.341 . S
Tb601 O626 2.484 . S
Tb601 O627 2.440 . S
Tb601 O628 2.658 . S
Tb601 O629 2.409 . S
Tb601 O630 2.378 . S
C602 Tb600 2.809 . S
C602 C603 1.514 . S
C602 O620 1.248 . S
C602 O621 1.266 . S
C603 C602 1.514 . S
C603 C604 1.359 . S
C603 C608 1.348 . S
C604 C603 1.359 . S
C604 C605 1.380 . S
C604 H632 0.929 . S
C605 C604 1.380 . S
C605 C606 1.347 . S
C605 H633 0.931 . S
C606 C605 1.347 . S
C606 C607 1.369 . S
C607 C606 1.369 . S
C607 C608 1.408 . S
C607 H634 0.930 . S
C608 C603 1.348 . S
C608 C607 1.408 . S
C608 H635 0.930 . S
C609 O622 1.281 . S
C609 O623 1.254 . S
C610 O624 1.236 . S
C610 O625 1.266 . S
C611 Tb601 2.809 . S
C611 C612 1.514 . S
C611 O626 1.248 . S
C611 O627 1.266 . S
C612 C611 1.514 . S
C612 C613 1.359 . S
C612 C617 1.348 . S
C613 C612 1.359 . S
C613 C614 1.380 . S
C613 H636 0.929 . S
C614 C613 1.380 . S
C614 C615 1.347 . S
C614 H637 0.931 . S
C615 C614 1.347 . S
C615 C616 1.369 . S
C616 C615 1.369 . S
C616 C617 1.408 . S
C616 H638 0.930 . S
C617 C612 1.348 . S
C617 C616 1.408 . S
C617 H639 0.930 . S
C618 O628 1.281 . S
C618 O629 1.254 . S
C619 O630 1.236 . S
C619 O631 1.266 . S
O620 Tb600 2.484 . S
O620 C602 1.248 . S
O621 Tb600 2.440 . S
O621 C602 1.266 . S
O622 Tb600 2.658 . S
O622 Tb601 2.325 . S
O622 C609 1.281 . S
O623 Tb600 2.409 . S
O623 C609 1.254 . S
O624 Tb600 2.378 . S
O624 C610 1.236 . S
O625 Tb601 2.341 . S
O625 C610 1.266 . S
O626 Tb601 2.484 . S
O626 C611 1.248 . S
O627 Tb601 2.440 . S
O627 C611 1.266 . S
O628 Tb600 2.325 . S
O628 Tb601 2.658 . S
O628 C618 1.281 . S
O629 Tb601 2.409 . S
O629 C618 1.254 . S
O630 Tb601 2.378 . S
O630 C619 1.236 . S
O631 Tb600 2.341 . S
O631 C619 1.266 . S
H632 C604 0.929 . S
H633 C605 0.931 . S
H634 C607 0.930 . S
H635 C608 0.930 . S
H636 C613 0.929 . S
H637 C614 0.931 . S
H638 C616 0.930 . S
H639 C617 0.930 . S
H640 C646 0.930 . S
H641 C650 0.930 . S
H642 C655 0.929 . S
H643 C653 0.929 . S
H644 C648 0.929 . S
H645 C654 0.929 . S
C646 H640 0.930 . S
C646 C647 1.367 . S
C646 C654 1.378 . S
C647 C646 1.367 . S
C647 C655 1.433 . S
C648 H644 0.929 . S
C648 C650 1.378 . S
C648 C652 1.350 1_545 S
C649 C652 1.463 . S
C649 C654 1.350 . S
C649 N657 1.427 . S
C650 H641 0.930 . S
C650 C648 1.378 . S
C650 C651 1.367 . S
C651 C650 1.367 . S
C651 C653 1.433 . S
C652 C648 1.350 1_565 S
C652 C649 1.463 . S
C652 N656 1.427 . S
C653 H643 0.929 . S
C653 C651 1.433 . S
C653 N656 1.384 1_545 S
C654 H645 0.929 . S
C654 C646 1.378 . S
C654 C649 1.350 . S
C655 H642 0.929 . S
C655 C647 1.433 . S
C655 N657 1.384 . S
N656 C652 1.427 . S
N656 C653 1.384 1_565 S
N657 C649 1.427 . S
N657 C655 1.384 . S
H658 C664 0.930 . S
H659 C668 0.930 . S
H660 C673 0.929 . S
H661 C671 0.929 . S
H662 C666 0.929 . S
H663 C672 0.929 . S
C664 H658 0.930 . S
C664 C665 1.367 . S
C664 C672 1.378 . S
C665 C664 1.367 . S
C665 C673 1.433 . S
C666 H662 0.929 . S
C666 C668 1.378 1_655 S
C666 C670 1.350 . S
C667 C670 1.463 . S
C667 C672 1.350 . S
C667 N675 1.427 . S
C668 H659 0.930 . S
C668 C666 1.378 1_455 S
C668 C669 1.367 . S
C669 C668 1.367 . S
C669 C671 1.433 . S
C670 C666 1.350 . S
C670 C667 1.463 . S
C670 N674 1.443 . S
C671 H661 0.929 . S
C671 C669 1.433 . S
C671 N674 1.353 1_455 S
C672 H663 0.929 . S
C672 C664 1.378 . S
C672 C667 1.350 . S
C673 H660 0.929 . S
C673 C665 1.433 . S
C673 N675 1.384 . S
N674 C670 1.443 . S
N674 C671 1.353 1_655 S
N675 C667 1.427 . S
N675 C673 1.384 . S
H676 C682 0.930 . S
H677 C686 0.930 . S
H678 C691 0.929 . S
H679 C689 0.929 . S
H680 C684 0.929 . S
H681 C690 0.929 . S
C682 H676 0.930 . S
C682 C683 1.367 . S
C682 C690 1.378 1_565 S
C683 C682 1.367 . S
C683 C691 1.433 . S
C684 H680 0.929 . S
C684 C686 1.378 . S
C684 C688 1.350 . S
C685 C688 1.463 . S
C685 C690 1.350 . S
C685 N693 1.427 . S
C686 H677 0.930 . S
C686 C684 1.378 . S
C686 C687 1.367 . S
C687 C686 1.367 . S
C687 C689 1.433 . S
C688 C684 1.350 . S
C688 C685 1.463 . S
C688 N692 1.427 . S
C689 H679 0.929 . S
C689 C687 1.433 . S
C689 N692 1.384 . S
C690 H681 0.929 . S
C690 C682 1.378 1_545 S
C690 C685 1.350 . S
C691 H678 0.929 . S
C691 C683 1.433 . S
C691 N693 1.384 1_565 S
N692 C688 1.427 . S
N692 C689 1.384 . S
N693 C685 1.427 . S
N693 C691 1.384 1_545 S
H694 C700 0.930 . S
H695 C704 0.930 . S
H696 C709 0.929 . S
H697 C707 0.929 . S
H698 C702 0.929 . S
H699 C708 0.929 . S
C700 H694 0.930 . S
C700 C701 1.367 . S
C700 C708 1.378 . S
C701 C700 1.367 . S
C701 C709 1.433 . S
C702 H698 0.929 . S
C702 C704 1.378 . S
C702 C706 1.350 . S
C703 C706 1.463 . S
C703 C708 1.350 1_455 S
C703 N711 1.427 . S
C704 H695 0.930 . S
C704 C702 1.378 . S
C704 C705 1.367 . S
C705 C704 1.367 . S
C705 C707 1.433 . S
C706 C702 1.350 . S
C706 C703 1.463 . S
C706 N710 1.427 . S
C707 H697 0.929 . S
C707 C705 1.433 . S
C707 N710 1.384 . S
C708 H699 0.929 . S
C708 C700 1.378 . S
C708 C703 1.350 1_655 S
C709 H696 0.929 . S
C709 C701 1.433 . S
C709 N711 1.384 1_655 S
N710 C706 1.427 . S
N710 C707 1.384 . S
N711 C703 1.427 . S
N711 C709 1.384 1_455 S
H712 C718 0.930 . S
H713 C722 0.930 . S
H714 C727 0.929 . S
H715 C725 0.929 . S
H716 C720 0.929 . S
H717 C726 0.929 1_556 S
C718 H712 0.930 . S
C718 C719 1.367 . S
C718 C726 1.378 . S
C719 C718 1.367 . S
C719 C727 1.433 . S
C720 H716 0.929 . S
C720 C722 1.378 . S
C720 C724 1.350 . S
C721 C724 1.463 . S
C721 C726 1.350 . S
C721 N729 1.427 . S
C722 H713 0.930 . S
C722 C720 1.378 . S
C722 C723 1.367 1_554 S
C723 C722 1.367 1_556 S
C723 C725 1.433 . S
C724 C720 1.350 . S
C724 C721 1.463 . S
C724 N728 1.427 1_554 S
C725 H715 0.929 . S
C725 C723 1.433 . S
C725 N728 1.384 . S
C726 H717 0.929 1_554 S
C726 C718 1.378 . S
C726 C721 1.350 . S
C727 H714 0.929 . S
C727 C719 1.433 . S
C727 N729 1.384 . S
N728 C724 1.427 1_556 S
N728 C725 1.384 . S
N729 C721 1.427 . S
N729 C727 1.384 . S
H730 C736 0.930 . S
H731 C740 0.930 . S
H732 C745 0.929 . S
H733 C743 0.929 . S
H734 C738 0.929 . S
H735 C744 0.929 . S
C736 H730 0.930 . S
C736 C737 1.367 . S
C736 C744 1.378 . S
C737 C736 1.367 . S
C737 C745 1.433 1_554 S
C738 H734 0.929 . S
C738 C740 1.378 . S
C738 C742 1.350 . S
C739 C742 1.463 . S
C739 C744 1.350 1_556 S
C739 N747 1.427 . S
C740 H731 0.930 . S
C740 C738 1.378 . S
C740 C741 1.367 . S
C741 C740 1.367 . S
C741 C743 1.433 . S
C742 C738 1.350 . S
C742 C739 1.463 . S
C742 N746 1.427 . S
C743 H733 0.929 . S
C743 C741 1.433 . S
C743 N746 1.384 . S
C744 H735 0.929 . S
C744 C736 1.378 . S
C744 C739 1.350 1_554 S
C745 H732 0.929 . S
C745 C737 1.433 1_556 S
C745 N747 1.384 . S
N746 C742 1.427 . S
N746 C743 1.384 . S
N747 C739 1.427 . S
N747 C745 1.384 . S
H748 C754 0.930 . S
H749 C758 0.930 . S
H750 C763 0.929 . S
H751 C761 0.929 . S
H752 C756 0.929 . S
H753 C762 0.929 . S
C754 H748 0.930 . S
C754 C755 1.367 . S
C754 C762 1.378 . S
C755 C754 1.367 . S
C755 C763 1.433 . S
C756 H752 0.929 . S
C756 C758 1.378 1_554 S
C756 C760 1.350 . S
C757 C760 1.463 . S
C757 C762 1.350 . S
C757 N765 1.427 . S
C758 H749 0.930 . S
C758 C756 1.378 1_556 S
C758 C759 1.367 . S
C759 C758 1.367 . S
C759 C761 1.433 . S
C760 C756 1.350 . S
C760 C757 1.463 . S
C760 N764 1.427 . S
C761 H751 0.929 . S
C761 C759 1.433 . S
C761 N764 1.384 1_556 S
C762 H753 0.929 . S
C762 C754 1.378 . S
C762 C757 1.350 . S
C763 H750 0.929 . S
C763 C755 1.433 . S
C763 N765 1.384 . S
N764 C760 1.427 . S
N764 C761 1.384 1_554 S
N765 C757 1.427 . S
N765 C763 1.384 . S
H766 C772 0.930 . S
H767 C776 0.930 . S
H768 C781 0.929 . S
H769 C779 0.929 . S
H770 C774 0.929 . S
H771 C780 0.929 . S
C772 H766 0.930 . S
C772 C773 1.367 . S
C772 C780 1.378 . S
C773 C772 1.367 . S
C773 C781 1.433 1_554 S
C774 H770 0.929 . S
C774 C776 1.378 . S
C774 C778 1.350 . S
C775 C778 1.463 . S
C775 C780 1.350 1_556 S
C775 N783 1.427 . S
C776 H767 0.930 . S
C776 C774 1.378 . S
C776 C777 1.367 . S
C777 C776 1.367 . S
C777 C779 1.433 . S
C778 C774 1.350 . S
C778 C775 1.463 . S
C778 N782 1.427 . S
C779 H769 0.929 . S
C779 C777 1.433 . S
C779 N782 1.384 . S
C780 H771 0.929 . S
C780 C772 1.378 . S
C780 C775 1.350 1_554 S
C781 H768 0.929 . S
C781 C773 1.433 1_556 S
C781 N783 1.384 . S
N782 C778 1.427 . S
N782 C779 1.384 . S
N783 C775 1.427 . S
N783 C781 1.384 . S
H784 C790 0.930 . S
H785 C794 0.930 . S
H786 C799 0.929 . S
H787 C797 0.929 . S
H788 C792 0.929 . S
H789 C798 0.929 . S
C790 H784 0.930 . S
C790 C791 1.367 . S
C790 C798 1.378 . S
C791 C790 1.367 . S
C791 C799 1.433 . S
C792 H788 0.929 . S
C792 C794 1.378 . S
C792 C796 1.350 . S
C793 C796 1.463 . S
C793 C798 1.350 . S
C793 N801 1.427 . S
C794 H785 0.930 . S
C794 C792 1.378 . S
C794 C795 1.367 . S
C795 C794 1.367 . S
C795 C797 1.433 . S
C796 C792 1.350 . S
C796 C793 1.463 . S
C796 N800 1.427 . S
C797 H787 0.929 . S
C797 C795 1.433 . S
C797 N800 1.384 . S
C798 H789 0.929 . S
C798 C790 1.378 . S
C798 C793 1.350 . S
C799 H786 0.929 . S
C799 C791 1.433 . S
C799 N801 1.384 . S
N800 C796 1.427 . S
N800 C797 1.384 . S
N801 C793 1.427 . S
N801 C799 1.384 . S
H802 C808 0.930 . S
H803 C812 0.930 . S
H804 C817 0.929 . S
H805 C815 0.929 . S
H806 C810 0.929 . S
H807 C816 0.929 . S
C808 H802 0.930 . S
C808 C809 1.367 . S
C808 C816 1.378 . S
C809 C808 1.367 . S
C809 C817 1.433 . S
C810 H806 0.929 . S
C810 C812 1.378 . S
C810 C814 1.350 . S
C811 C814 1.463 . S
C811 C816 1.350 . S
C811 N819 1.427 . S
C812 H803 0.930 . S
C812 C810 1.378 . S
C812 C813 1.367 . S
C813 C812 1.367 . S
C813 C815 1.433 . S
C814 C810 1.350 . S
C814 C811 1.463 . S
C814 N818 1.427 . S
C815 H805 0.929 . S
C815 C813 1.433 . S
C815 N818 1.384 . S
C816 H807 0.929 . S
C816 C808 1.378 . S
C816 C811 1.350 . S
C817 H804 0.929 . S
C817 C809 1.433 . S
C817 N819 1.384 . S
N818 C814 1.427 . S
N818 C815 1.384 . S
N819 C811 1.427 . S
N819 C817 1.384 . S
H820 C826 0.930 . S
H821 C830 0.930 . S
H822 C835 0.929 . S
H823 C833 0.929 . S
H824 C828 0.929 . S
H825 C834 0.929 . S
C826 H820 0.930 . S
C826 C827 1.367 . S
C826 C834 1.378 . S
C827 C826 1.367 . S
C827 C835 1.433 . S
C828 H824 0.929 . S
C828 C830 1.378 . S
C828 C832 1.350 . S
C829 C832 1.463 . S
C829 C834 1.350 . S
C829 N837 1.427 . S
C830 H821 0.930 . S
C830 C828 1.378 . S
C830 C831 1.367 . S
C831 C830 1.367 . S
C831 C833 1.433 . S
C832 C828 1.350 . S
C832 C829 1.463 . S
C832 N836 1.427 . S
C833 H823 0.929 . S
C833 C831 1.433 . S
C833 N836 1.384 . S
C834 H825 0.929 . S
C834 C826 1.378 . S
C834 C829 1.350 . S
C835 H822 0.929 . S
C835 C827 1.433 . S
C835 N837 1.384 . S
N836 C832 1.427 . S
N836 C833 1.384 . S
N837 C829 1.427 . S
N837 C835 1.384 . S
H838 C844 0.930 . S
H839 C848 0.930 . S
H840 C853 0.929 . S
H841 C851 0.929 . S
H842 C846 0.929 . S
H843 C852 0.929 . S
C844 H838 0.930 . S
C844 C845 1.367 . S
C844 C852 1.378 . S
C845 C844 1.367 . S
C845 C853 1.433 . S
C846 H842 0.929 . S
C846 C848 1.378 . S
C846 C850 1.350 . S
C847 C850 1.463 . S
C847 C852 1.350 . S
C847 N855 1.427 . S
C848 H839 0.930 . S
C848 C846 1.378 . S
C848 C849 1.367 . S
C849 C848 1.367 . S
C849 C851 1.433 . S
C850 C846 1.350 . S
C850 C847 1.463 . S
C850 N854 1.427 . S
C851 H841 0.929 . S
C851 C849 1.433 . S
C851 N854 1.384 . S
C852 H843 0.929 . S
C852 C844 1.378 . S
C852 C847 1.350 . S
C853 H840 0.929 . S
C853 C845 1.433 . S
C853 N855 1.384 . S
N854 C850 1.427 . S
N854 C851 1.384 . S
N855 C847 1.427 . S
N855 C853 1.384 . S
H856 C862 0.930 . S
H857 C866 0.930 . S
H858 C871 0.929 . S
H859 C869 0.929 . S
H860 C864 0.929 . S
H861 C870 0.929 . S
C862 H856 0.930 . S
C862 C863 1.367 . S
C862 C870 1.378 1_565 S
C863 C862 1.367 . S
C863 C871 1.433 . S
C864 H860 0.929 . S
C864 C866 1.378 . S
C864 C868 1.350 . S
C865 C868 1.463 . S
C865 C870 1.350 . S
C865 N873 1.427 1_545 S
C866 H857 0.930 . S
C866 C864 1.378 . S
C866 C867 1.367 . S
C867 C866 1.367 . S
C867 C869 1.433 . S
C868 C864 1.350 . S
C868 C865 1.463 . S
C868 N872 1.427 . S
C869 H859 0.929 . S
C869 C867 1.433 . S
C869 N872 1.384 . S
C870 H861 0.929 . S
C870 C862 1.378 1_545 S
C870 C865 1.350 . S
C871 H858 0.929 . S
C871 C863 1.433 . S
C871 N873 1.384 . S
N872 C868 1.427 . S
N872 C869 1.384 . S
N873 C865 1.427 1_565 S
N873 C871 1.384 . S
H874 C880 0.930 . S
H875 C884 0.930 . S
H876 C889 0.929 . S
H877 C887 0.929 . S
H878 C882 0.929 . S
H879 C888 0.929 . S
C880 H874 0.930 . S
C880 C881 1.367 . S
C880 C888 1.378 . S
C881 C880 1.367 . S
C881 C889 1.433 . S
C882 H878 0.929 . S
C882 C884 1.378 1_455 S
C882 C886 1.350 . S
C883 C886 1.463 . S
C883 C888 1.350 . S
C883 N891 1.427 . S
C884 H875 0.930 . S
C884 C882 1.378 1_655 S
C884 C885 1.367 . S
C885 C884 1.367 . S
C885 C887 1.433 . S
C886 C882 1.350 . S
C886 C883 1.463 . S
C886 N890 1.427 1_455 S
C887 H877 0.929 . S
C887 C885 1.433 . S
C887 N890 1.384 . S
C888 H879 0.929 . S
C888 C880 1.378 . S
C888 C883 1.350 . S
C889 H876 0.929 . S
C889 C881 1.433 . S
C889 N891 1.384 . S
N890 C886 1.427 1_655 S
N890 C887 1.384 . S
N891 C883 1.427 . S
N891 C889 1.384 . S
H892 C898 0.930 . S
H893 C902 0.930 . S
H894 C907 0.929 . S
H895 C905 0.929 . S
H896 C900 0.930 . S
H897 C906 0.929 . S
C898 H892 0.930 . S
C898 C899 1.367 . S
C898 C906 1.378 . S
C899 C898 1.367 . S
C899 C907 1.433 . S
C900 H896 0.930 . S
C900 C902 1.378 . S
C900 C904 1.350 1_545 S
C901 C904 1.463 . S
C901 C906 1.350 . S
C901 N909 1.427 . S
C902 H893 0.930 . S
C902 C900 1.378 . S
C902 C903 1.367 . S
C903 C902 1.367 . S
C903 C905 1.433 . S
C904 C900 1.350 1_565 S
C904 C901 1.463 . S
C904 N908 1.427 . S
C905 H895 0.929 . S
C905 C903 1.433 . S
C905 N908 1.384 1_545 S
C906 H897 0.929 . S
C906 C898 1.378 . S
C906 C901 1.350 . S
C907 H894 0.929 . S
C907 C899 1.433 . S
C907 N909 1.384 . S
N908 C904 1.427 . S
N908 C905 1.384 1_565 S
N909 C901 1.427 . S
N909 C907 1.384 . S
H910 C916 0.930 . S
H911 C920 0.930 . S
H912 C925 0.929 . S
H913 C923 0.929 . S
H914 C918 0.929 . S
H915 C924 0.929 . S
C916 H910 0.930 . S
C916 C917 1.367 . S
C916 C924 1.378 . S
C917 C916 1.367 . S
C917 C925 1.433 . S
C918 H914 0.929 . S
C918 C920 1.378 . S
C918 C922 1.350 . S
C919 C922 1.463 . S
C919 C924 1.350 1_655 S
C919 N927 1.427 . S
C920 H911 0.930 . S
C920 C918 1.378 . S
C920 C921 1.367 . S
C921 C920 1.367 . S
C921 C923 1.433 . S
C922 C918 1.350 . S
C922 C919 1.463 . S
C922 N926 1.427 . S
C923 H913 0.929 . S
C923 C921 1.433 . S
C923 N926 1.384 . S
C924 H915 0.929 . S
C924 C916 1.378 . S
C924 C919 1.350 1_455 S
C925 H912 0.929 . S
C925 C917 1.433 . S
C925 N927 1.384 1_455 S
N926 C922 1.427 . S
N926 C923 1.384 . S
N927 C919 1.427 . S
N927 C925 1.384 1_655 S
H928 C934 0.930 . S
H929 C938 0.930 . S
H930 C943 0.929 . S
H931 C941 0.929 . S
H932 C936 0.929 . S
H933 C942 0.929 . S
C934 H928 0.930 . S
C934 C935 1.367 . S
C934 C942 1.378 . S
C935 C934 1.367 . S
C935 C943 1.433 . S
C936 H932 0.929 . S
C936 C938 1.378 . S
C936 C940 1.350 . S
C937 C940 1.463 . S
C937 C942 1.350 . S
C937 N945 1.427 . S
C938 H929 0.930 . S
C938 C936 1.378 . S
C938 C939 1.367 . S
C939 C938 1.367 . S
C939 C941 1.433 . S
C940 C936 1.350 . S
C940 C937 1.463 . S
C940 N944 1.427 . S
C941 H931 0.929 . S
C941 C939 1.433 . S
C941 N944 1.384 . S
C942 H933 0.929 . S
C942 C934 1.378 . S
C942 C937 1.350 . S
C943 H930 0.929 . S
C943 C935 1.433 . S
C943 N945 1.384 . S
N944 C940 1.427 . S
N944 C941 1.384 . S
N945 C937 1.427 . S
N945 C943 1.384 . S
H946 C952 0.930 . S
H947 C956 0.930 . S
H948 C961 0.929 . S
H949 C959 0.929 . S
H950 C954 0.929 . S
H951 C960 0.929 . S
C952 H946 0.930 . S
C952 C953 1.367 . S
C952 C960 1.378 . S
C953 C952 1.367 . S
C953 C961 1.433 . S
C954 H950 0.929 . S
C954 C956 1.378 . S
C954 C958 1.350 . S
C955 C958 1.463 . S
C955 C960 1.350 . S
C955 N963 1.427 . S
C956 H947 0.930 . S
C956 C954 1.378 . S
C956 C957 1.367 . S
C957 C956 1.367 . S
C957 C959 1.433 . S
C958 C954 1.350 . S
C958 C955 1.463 . S
C958 N962 1.427 . S
C959 H949 0.929 . S
C959 C957 1.433 . S
C959 N962 1.384 . S
C960 H951 0.929 . S
C960 C952 1.378 . S
C960 C955 1.350 . S
C961 H948 0.929 . S
C961 C953 1.433 . S
C961 N963 1.384 . S
N962 C958 1.427 . S
N962 C959 1.384 . S
N963 C955 1.427 . S
N963 C961 1.384 . S
H964 C970 0.930 . S
H965 C974 0.930 . S
H966 C979 0.929 . S
H967 C977 0.929 . S
H968 C972 0.929 . S
H969 C978 0.929 . S
C970 H964 0.930 . S
C970 C971 1.367 . S
C970 C978 1.378 . S
C971 C970 1.367 . S
C971 C979 1.433 . S
C972 H968 0.929 . S
C972 C974 1.378 . S
C972 C976 1.350 . S
C973 C976 1.463 . S
C973 C978 1.350 . S
C973 N981 1.427 . S
C974 H965 0.930 . S
C974 C972 1.378 . S
C974 C975 1.367 . S
C975 C974 1.367 . S
C975 C977 1.433 . S
C976 C972 1.350 . S
C976 C973 1.463 . S
C976 N980 1.427 . S
C977 H967 0.929 . S
C977 C975 1.433 . S
C977 N980 1.384 . S
C978 H969 0.929 . S
C978 C970 1.378 . S
C978 C973 1.350 . S
C979 H966 0.929 . S
C979 C971 1.433 . S
C979 N981 1.384 . S
N980 C976 1.427 . S
N980 C977 1.384 . S
N981 C973 1.427 . S
N981 C979 1.384 . S
H982 C988 0.930 . S
H983 C992 0.930 . S
H984 C997 0.929 . S
H985 C995 0.929 . S
H986 C990 0.929 . S
H987 C996 0.929 . S
C988 H982 0.930 . S
C988 C989 1.367 . S
C988 C996 1.378 . S
C989 C988 1.367 . S
C989 C997 1.433 . S
C990 H986 0.929 . S
C990 C992 1.378 . S
C990 C994 1.350 . S
C991 C994 1.463 . S
C991 C996 1.350 . S
C991 N999 1.427 . S
C992 H983 0.930 . S
C992 C990 1.378 . S
C992 C993 1.367 . S
C993 C992 1.367 . S
C993 C995 1.433 . S
C994 C990 1.350 . S
C994 C991 1.463 . S
C994 N998 1.427 . S
C995 H985 0.929 . S
C995 C993 1.433 . S
C995 N998 1.384 . S
C996 H987 0.929 . S
C996 C988 1.378 . S
C996 C991 1.350 . S
C997 H984 0.929 . S
C997 C989 1.433 . S
C997 N999 1.384 . S
N998 C994 1.427 . S
N998 C995 1.384 . S
N999 C991 1.427 . S
N999 C997 1.384 . S
H1000 C1006 0.930 . S
H1001 C1010 0.930 . S
H1002 C1015 0.929 . S
H1003 C1013 0.929 . S
H1004 C1008 0.929 . S
H1005 C1014 0.929 . S
C1006 H1000 0.930 . S
C1006 C1007 1.367 . S
C1006 C1014 1.378 . S
C1007 C1006 1.367 . S
C1007 C1015 1.433 . S
C1008 H1004 0.929 . S
C1008 C1010 1.378 . S
C1008 C1012 1.350 . S
C1009 C1012 1.463 . S
C1009 C1014 1.350 . S
C1009 N1017 1.427 . S
C1010 H1001 0.930 . S
C1010 C1008 1.378 . S
C1010 C1011 1.367 . S
C1011 C1010 1.367 . S
C1011 C1013 1.433 . S
C1012 C1008 1.350 . S
C1012 C1009 1.463 . S
C1012 N1016 1.427 . S
C1013 H1003 0.929 . S
C1013 C1011 1.433 . S
C1013 N1016 1.384 . S
C1014 H1005 0.929 . S
C1014 C1006 1.378 . S
C1014 C1009 1.350 . S
C1015 H1002 0.929 . S
C1015 C1007 1.433 . S
C1015 N1017 1.384 . S
N1016 C1012 1.427 . S
N1016 C1013 1.384 . S
N1017 C1009 1.427 . S
N1017 C1015 1.384 . S
H1018 C1024 0.930 . S
H1019 C1028 0.930 . S
H1020 C1033 0.929 . S
H1021 C1031 0.929 . S
H1022 C1026 0.929 . S
H1023 C1032 0.929 . S
C1024 H1018 0.930 . S
C1024 C1025 1.367 . S
C1024 C1032 1.378 . S
C1025 C1024 1.367 . S
C1025 C1033 1.433 . S
C1026 H1022 0.929 . S
C1026 C1028 1.378 . S
C1026 C1030 1.350 . S
C1027 C1030 1.463 . S
C1027 C1032 1.350 . S
C1027 N1035 1.427 . S
C1028 H1019 0.930 . S
C1028 C1026 1.378 . S
C1028 C1029 1.367 . S
C1029 C1028 1.367 . S
C1029 C1031 1.433 . S
C1030 C1026 1.350 . S
C1030 C1027 1.463 . S
C1030 N1034 1.427 . S
C1031 H1021 0.929 . S
C1031 C1029 1.433 . S
C1031 N1034 1.384 . S
C1032 H1023 0.929 . S
C1032 C1024 1.378 . S
C1032 C1027 1.350 . S
C1033 H1020 0.929 . S
C1033 C1025 1.433 . S
C1033 N1035 1.384 . S
N1034 C1030 1.427 . S
N1034 C1031 1.384 . S
N1035 C1027 1.427 . S
N1035 C1033 1.384 . S
H1036 C1042 0.930 . S
H1037 C1046 0.930 . S
H1038 C1051 0.929 . S
H1039 C1049 0.929 . S
H1040 C1044 0.929 . S
H1041 C1050 0.929 . S
C1042 H1036 0.930 . S
C1042 C1043 1.367 . S
C1042 C1050 1.378 . S
C1043 C1042 1.367 . S
C1043 C1051 1.433 . S
C1044 H1040 0.929 . S
C1044 C1046 1.378 . S
C1044 C1048 1.350 . S
C1045 C1048 1.463 . S
C1045 C1050 1.350 . S
C1045 N1053 1.427 . S
C1046 H1037 0.930 . S
C1046 C1044 1.378 . S
C1046 C1047 1.367 . S
C1047 C1046 1.367 . S
C1047 C1049 1.433 . S
C1048 C1044 1.350 . S
C1048 C1045 1.463 . S
C1048 N1052 1.427 . S
C1049 H1039 0.929 . S
C1049 C1047 1.433 . S
C1049 N1052 1.384 . S
C1050 H1041 0.929 . S
C1050 C1042 1.378 . S
C1050 C1045 1.350 . S
C1051 H1038 0.929 . S
C1051 C1043 1.433 . S
C1051 N1053 1.384 . S
N1052 C1048 1.427 . S
N1052 C1049 1.384 . S
N1053 C1045 1.427 . S
N1053 C1051 1.384 . S
H1054 C1060 0.930 . S
H1055 C1064 0.930 . S
H1056 C1069 0.929 . S
H1057 C1067 0.929 . S
H1058 C1062 0.929 . S
H1059 C1068 0.929 . S
C1060 H1054 0.930 . S
C1060 C1061 1.367 . S
C1060 C1068 1.378 . S
C1061 C1060 1.367 . S
C1061 C1069 1.433 . S
C1062 H1058 0.929 . S
C1062 C1064 1.378 . S
C1062 C1066 1.350 . S
C1063 C1066 1.463 . S
C1063 C1068 1.350 . S
C1063 N1071 1.427 . S
C1064 H1055 0.930 . S
C1064 C1062 1.378 . S
C1064 C1065 1.367 . S
C1065 C1064 1.367 . S
C1065 C1067 1.433 . S
C1066 C1062 1.350 . S
C1066 C1063 1.463 . S
C1066 N1070 1.427 . S
C1067 H1057 0.929 . S
C1067 C1065 1.433 . S
C1067 N1070 1.384 . S
C1068 H1059 0.929 . S
C1068 C1060 1.378 . S
C1068 C1063 1.350 . S
C1069 H1056 0.929 . S
C1069 C1061 1.433 . S
C1069 N1071 1.384 . S
N1070 C1066 1.427 . S
N1070 C1067 1.384 . S
N1071 C1063 1.427 . S
N1071 C1069 1.384 . S
H1072 C1078 0.930 . S
H1073 C1082 0.930 . S
H1074 C1087 0.929 . S
H1075 C1085 0.929 1_554 S
H1076 C1080 0.929 . S
H1077 C1086 0.929 . S
C1078 H1072 0.930 . S
C1078 C1079 1.367 . S
C1078 C1086 1.378 . S
C1079 C1078 1.367 . S
C1079 C1087 1.433 . S
C1080 H1076 0.929 . S
C1080 C1082 1.378 . S
C1080 C1084 1.350 . S
C1081 C1084 1.463 . S
C1081 C1086 1.350 . S
C1081 N1089 1.427 . S
C1082 H1073 0.930 . S
C1082 C1080 1.378 . S
C1082 C1083 1.367 . S
C1083 C1082 1.367 . S
C1083 C1085 1.433 . S
C1084 C1080 1.350 . S
C1084 C1081 1.463 . S
C1084 N1088 1.427 . S
C1085 H1075 0.929 1_556 S
C1085 C1083 1.433 . S
C1085 N1088 1.384 . S
C1086 H1077 0.929 . S
C1086 C1078 1.378 . S
C1086 C1081 1.350 . S
C1087 H1074 0.929 . S
C1087 C1079 1.433 . S
C1087 N1089 1.384 . S
N1088 C1084 1.427 . S
N1088 C1085 1.384 . S
N1089 C1081 1.427 . S
N1089 C1087 1.384 . S
H1090 C1096 0.930 1_556 S
H1091 C1100 0.930 . S
H1092 C1105 0.929 . S
H1093 C1103 0.929 . S
H1094 C1098 0.929 . S
H1095 C1104 0.929 . S
C1096 H1090 0.930 1_554 S
C1096 C1097 1.367 . S
C1096 C1104 1.378 . S
C1097 C1096 1.367 . S
C1097 C1105 1.433 . S
C1098 H1094 0.929 . S
C1098 C1100 1.378 . S
C1098 C1102 1.350 . S
C1099 C1102 1.463 . S
C1099 C1104 1.350 . S
C1099 N1107 1.427 . S
C1100 H1091 0.930 . S
C1100 C1098 1.378 . S
C1100 C1101 1.367 . S
C1101 C1100 1.367 . S
C1101 C1103 1.433 . S
C1102 C1098 1.350 . S
C1102 C1099 1.463 . S
C1102 N1106 1.427 . S
C1103 H1093 0.929 . S
C1103 C1101 1.433 . S
C1103 N1106 1.384 . S
C1104 H1095 0.929 . S
C1104 C1096 1.378 . S
C1104 C1099 1.350 . S
C1105 H1092 0.929 . S
C1105 C1097 1.433 . S
C1105 N1107 1.384 . S
N1106 C1102 1.427 . S
N1106 C1103 1.384 . S
N1107 C1099 1.427 . S
N1107 C1105 1.384 . S
H1108 C1114 0.930 1_554 S
H1109 C1118 0.930 . S
H1110 C1123 0.929 . S
H1111 C1121 0.929 . S
H1112 C1116 0.929 . S
H1113 C1122 0.929 . S
C1114 H1108 0.930 1_556 S
C1114 C1115 1.367 . S
C1114 C1122 1.378 . S
C1115 C1114 1.367 . S
C1115 C1123 1.433 . S
C1116 H1112 0.929 . S
C1116 C1118 1.378 . S
C1116 C1120 1.350 . S
C1117 C1120 1.463 . S
C1117 C1122 1.350 . S
C1117 N1125 1.427 . S
C1118 H1109 0.930 . S
C1118 C1116 1.378 . S
C1118 C1119 1.367 . S
C1119 C1118 1.367 . S
C1119 C1121 1.433 . S
C1120 C1116 1.350 . S
C1120 C1117 1.463 . S
C1120 N1124 1.427 . S
C1121 H1111 0.929 . S
C1121 C1119 1.433 . S
C1121 N1124 1.384 . S
C1122 H1113 0.929 . S
C1122 C1114 1.378 . S
C1122 C1117 1.350 . S
C1123 H1110 0.929 . S
C1123 C1115 1.433 . S
C1123 N1125 1.384 . S
N1124 C1120 1.427 . S
N1124 C1121 1.384 . S
N1125 C1117 1.427 . S
N1125 C1123 1.384 . S
H1126 C1132 0.930 . S
H1127 C1136 0.930 . S
H1128 C1141 0.929 1_556 S
H1129 C1139 0.929 . S
H1130 C1134 0.929 . S
H1131 C1140 0.929 . S
C1132 H1126 0.930 . S
C1132 C1133 1.367 . S
C1132 C1140 1.378 . S
C1133 C1132 1.367 . S
C1133 C1141 1.433 . S
C1134 H1130 0.929 . S
C1134 C1136 1.378 . S
C1134 C1138 1.350 . S
C1135 C1138 1.463 . S
C1135 C1140 1.350 . S
C1135 N1143 1.427 . S
C1136 H1127 0.930 . S
C1136 C1134 1.378 . S
C1136 C1137 1.367 . S
C1137 C1136 1.367 . S
C1137 C1139 1.433 . S
C1138 C1134 1.350 . S
C1138 C1135 1.463 . S
C1138 N1142 1.427 . S
C1139 H1129 0.929 . S
C1139 C1137 1.433 . S
C1139 N1142 1.384 . S
C1140 H1131 0.929 . S
C1140 C1132 1.378 . S
C1140 C1135 1.350 . S
C1141 H1128 0.929 1_554 S
C1141 C1133 1.433 . S
C1141 N1143 1.384 . S
N1142 C1138 1.427 . S
N1142 C1139 1.384 . S
N1143 C1135 1.427 . S
N1143 C1141 1.384 . S
H1144 C1150 0.930 . S
H1145 C1154 0.930 . S
H1146 C1159 0.929 . S
H1147 C1157 0.929 . S
H1148 C1152 0.929 . S
H1149 C1158 0.929 . S
C1150 H1144 0.930 . S
C1150 C1151 1.367 . S
C1150 C1158 1.378 . S
C1151 C1150 1.367 . S
C1151 C1159 1.433 . S
C1152 H1148 0.929 . S
C1152 C1154 1.378 . S
C1152 C1156 1.350 . S
C1153 C1156 1.463 . S
C1153 C1158 1.350 . S
C1153 N1161 1.427 . S
C1154 H1145 0.930 . S
C1154 C1152 1.378 . S
C1154 C1155 1.367 . S
C1155 C1154 1.367 . S
C1155 C1157 1.433 . S
C1156 C1152 1.350 . S
C1156 C1153 1.463 . S
C1156 N1160 1.427 . S
C1157 H1147 0.929 . S
C1157 C1155 1.433 . S
C1157 N1160 1.384 . S
C1158 H1149 0.929 . S
C1158 C1150 1.378 . S
C1158 C1153 1.350 . S
C1159 H1146 0.929 . S
C1159 C1151 1.433 . S
C1159 N1161 1.384 . S
N1160 C1156 1.427 . S
N1160 C1157 1.384 . S
N1161 C1153 1.427 . S
N1161 C1159 1.384 . S
H1162 C1168 0.930 . S
H1163 C1172 0.930 . S
H1164 C1177 0.929 . S
H1165 C1175 0.929 . S
H1166 C1170 0.929 . S
H1167 C1176 0.929 . S
C1168 H1162 0.930 . S
C1168 C1169 1.367 . S
C1168 C1176 1.378 . S
C1169 C1168 1.367 . S
C1169 C1177 1.433 . S
C1170 H1166 0.929 . S
C1170 C1172 1.378 . S
C1170 C1174 1.350 . S
C1171 C1174 1.463 . S
C1171 C1176 1.350 . S
C1171 N1179 1.427 . S
C1172 H1163 0.930 . S
C1172 C1170 1.378 . S
C1172 C1173 1.367 . S
C1173 C1172 1.367 . S
C1173 C1175 1.433 . S
C1174 C1170 1.350 . S
C1174 C1171 1.463 . S
C1174 N1178 1.427 . S
C1175 H1165 0.929 . S
C1175 C1173 1.433 . S
C1175 N1178 1.384 . S
C1176 H1167 0.929 . S
C1176 C1168 1.378 . S
C1176 C1171 1.350 . S
C1177 H1164 0.929 . S
C1177 C1169 1.433 . S
C1177 N1179 1.384 . S
N1178 C1174 1.427 . S
N1178 C1175 1.384 . S
N1179 C1171 1.427 . S
N1179 C1177 1.384 . S
H1180 C1186 0.930 . S
H1181 C1190 0.930 . S
H1182 C1195 0.929 . S
H1183 C1193 0.929 . S
H1184 C1188 0.929 . S
H1185 C1194 0.929 . S
C1186 H1180 0.930 . S
C1186 C1187 1.367 . S
C1186 C1194 1.378 . S
C1187 C1186 1.367 . S
C1187 C1195 1.433 . S
C1188 H1184 0.929 . S
C1188 C1190 1.378 . S
C1188 C1192 1.350 . S
C1189 C1192 1.463 . S
C1189 C1194 1.350 . S
C1189 N1197 1.427 . S
C1190 H1181 0.930 . S
C1190 C1188 1.378 . S
C1190 C1191 1.367 . S
C1191 C1190 1.367 . S
C1191 C1193 1.433 . S
C1192 C1188 1.350 . S
C1192 C1189 1.463 . S
C1192 N1196 1.427 . S
C1193 H1183 0.929 . S
C1193 C1191 1.433 . S
C1193 N1196 1.384 . S
C1194 H1185 0.929 . S
C1194 C1186 1.378 . S
C1194 C1189 1.350 . S
C1195 H1182 0.929 . S
C1195 C1187 1.433 . S
C1195 N1197 1.384 . S
N1196 C1192 1.427 . S
N1196 C1193 1.384 . S
N1197 C1189 1.427 . S
N1197 C1195 1.384 . S
H1198 C1204 0.930 . S
H1199 C1208 0.930 . S
H1200 C1213 0.929 . S
H1201 C1211 0.929 . S
H1202 C1206 0.929 . S
H1203 C1212 0.929 . S
C1204 H1198 0.930 . S
C1204 C1205 1.367 . S
C1204 C1212 1.378 . S
C1205 C1204 1.367 . S
C1205 C1213 1.433 . S
C1206 H1202 0.929 . S
C1206 C1208 1.378 . S
C1206 C1210 1.350 . S
C1207 C1210 1.463 . S
C1207 C1212 1.350 . S
C1207 N1215 1.427 . S
C1208 H1199 0.930 . S
C1208 C1206 1.378 . S
C1208 C1209 1.367 . S
C1209 C1208 1.367 . S
C1209 C1211 1.433 . S
C1210 C1206 1.350 . S
C1210 C1207 1.463 . S
C1210 N1214 1.427 . S
C1211 H1201 0.929 . S
C1211 C1209 1.433 . S
C1211 N1214 1.384 . S
C1212 H1203 0.929 . S
C1212 C1204 1.378 . S
C1212 C1207 1.350 . S
C1213 H1200 0.929 . S
C1213 C1205 1.433 . S
C1213 N1215 1.384 . S
N1214 C1210 1.427 . S
N1214 C1211 1.384 . S
N1215 C1207 1.427 . S
N1215 C1213 1.384 . S
H1216 C1222 0.930 . S
H1217 C1226 0.930 . S
H1218 C1231 0.929 . S
H1219 C1229 0.929 . S
H1220 C1224 0.929 . S
H1221 C1230 0.929 . S
C1222 H1216 0.930 . S
C1222 C1223 1.367 . S
C1222 C1230 1.378 . S
C1223 C1222 1.367 . S
C1223 C1231 1.433 . S
C1224 H1220 0.929 . S
C1224 C1226 1.378 . S
C1224 C1228 1.350 . S
C1225 C1228 1.463 . S
C1225 C1230 1.350 . S
C1225 N1233 1.427 . S
C1226 H1217 0.930 . S
C1226 C1224 1.378 . S
C1226 C1227 1.367 . S
C1227 C1226 1.367 . S
C1227 C1229 1.433 . S
C1228 C1224 1.350 . S
C1228 C1225 1.463 . S
C1228 N1232 1.427 . S
C1229 H1219 0.929 . S
C1229 C1227 1.433 . S
C1229 N1232 1.384 . S
C1230 H1221 0.929 . S
C1230 C1222 1.378 . S
C1230 C1225 1.350 . S
C1231 H1218 0.929 . S
C1231 C1223 1.433 . S
C1231 N1233 1.384 . S
N1232 C1228 1.427 . S
N1232 C1229 1.384 . S
N1233 C1225 1.427 . S
N1233 C1231 1.384 . S
H1234 C1240 0.930 . S
H1235 C1244 0.930 . S
H1236 C1249 0.929 . S
H1237 C1247 0.929 . S
H1238 C1242 0.929 . S
H1239 C1248 0.929 . S
C1240 H1234 0.930 . S
C1240 C1241 1.367 . S
C1240 C1248 1.378 . S
C1241 C1240 1.367 . S
C1241 C1249 1.433 . S
C1242 H1238 0.929 . S
C1242 C1244 1.378 . S
C1242 C1246 1.350 . S
C1243 C1246 1.463 . S
C1243 C1248 1.350 . S
C1243 N1251 1.427 . S
C1244 H1235 0.930 . S
C1244 C1242 1.378 . S
C1244 C1245 1.367 . S
C1245 C1244 1.367 . S
C1245 C1247 1.433 . S
C1246 C1242 1.350 . S
C1246 C1243 1.463 . S
C1246 N1250 1.427 . S
C1247 H1237 0.929 . S
C1247 C1245 1.433 . S
C1247 N1250 1.384 . S
C1248 H1239 0.929 . S
C1248 C1240 1.378 . S
C1248 C1243 1.350 . S
C1249 H1236 0.929 . S
C1249 C1241 1.433 . S
C1249 N1251 1.384 . S
N1250 C1246 1.427 . S
N1250 C1247 1.384 . S
N1251 C1243 1.427 . S
N1251 C1249 1.384 . S
H1252 C1258 0.930 . S
H1253 C1262 0.930 . S
H1254 C1267 0.929 . S
H1255 C1265 0.929 . S
H1256 C1260 0.929 . S
H1257 C1266 0.929 . S
C1258 H1252 0.930 . S
C1258 C1259 1.367 . S
C1258 C1266 1.378 . S
C1259 C1258 1.367 . S
C1259 C1267 1.433 . S
C1260 H1256 0.929 . S
C1260 C1262 1.378 . S
C1260 C1264 1.350 . S
C1261 C1264 1.463 . S
C1261 C1266 1.350 . S
C1261 N1269 1.427 . S
C1262 H1253 0.930 . S
C1262 C1260 1.378 . S
C1262 C1263 1.367 . S
C1263 C1262 1.367 . S
C1263 C1265 1.433 . S
C1264 C1260 1.350 . S
C1264 C1261 1.463 . S
C1264 N1268 1.427 . S
C1265 H1255 0.929 . S
C1265 C1263 1.433 . S
C1265 N1268 1.384 . S
C1266 H1257 0.929 . S
C1266 C1258 1.378 . S
C1266 C1261 1.350 . S
C1267 H1254 0.929 . S
C1267 C1259 1.433 . S
C1267 N1269 1.384 . S
N1268 C1264 1.427 . S
N1268 C1265 1.384 . S
N1269 C1261 1.427 . S
N1269 C1267 1.384 . S
H1270 C1276 0.930 . S
H1271 C1280 0.930 . S
H1272 C1285 0.929 . S
H1273 C1283 0.929 . S
H1274 C1278 0.929 . S
H1275 C1284 0.929 . S
C1276 H1270 0.930 . S
C1276 C1277 1.367 . S
C1276 C1284 1.378 . S
C1277 C1276 1.367 . S
C1277 C1285 1.433 . S
C1278 H1274 0.929 . S
C1278 C1280 1.378 . S
C1278 C1282 1.350 . S
C1279 C1282 1.463 . S
C1279 C1284 1.350 . S
C1279 N1287 1.427 . S
C1280 H1271 0.930 . S
C1280 C1278 1.378 . S
C1280 C1281 1.367 . S
C1281 C1280 1.367 . S
C1281 C1283 1.433 . S
C1282 C1278 1.350 . S
C1282 C1279 1.463 . S
C1282 N1286 1.427 . S
C1283 H1273 0.929 . S
C1283 C1281 1.433 . S
C1283 N1286 1.384 . S
C1284 H1275 0.929 . S
C1284 C1276 1.378 . S
C1284 C1279 1.350 . S
C1285 H1272 0.929 . S
C1285 C1277 1.433 . S
C1285 N1287 1.384 . S
N1286 C1282 1.427 . S
N1286 C1283 1.384 . S
N1287 C1279 1.427 . S
N1287 C1285 1.384 . S
H1288 C1294 0.930 . S
H1289 C1298 0.930 . S
H1290 C1303 0.929 . S
H1291 C1301 0.929 . S
H1292 C1296 0.929 . S
H1293 C1302 0.929 . S
C1294 H1288 0.930 . S
C1294 C1295 1.367 . S
C1294 C1302 1.378 . S
C1295 C1294 1.367 . S
C1295 C1303 1.433 . S
C1296 H1292 0.929 . S
C1296 C1298 1.378 . S
C1296 C1300 1.350 . S
C1297 C1300 1.463 . S
C1297 C1302 1.350 . S
C1297 N1305 1.427 . S
C1298 H1289 0.930 . S
C1298 C1296 1.378 . S
C1298 C1299 1.367 . S
C1299 C1298 1.367 . S
C1299 C1301 1.433 . S
C1300 C1296 1.350 . S
C1300 C1297 1.463 . S
C1300 N1304 1.427 . S
C1301 H1291 0.929 . S
C1301 C1299 1.433 . S
C1301 N1304 1.384 . S
C1302 H1293 0.929 . S
C1302 C1294 1.378 . S
C1302 C1297 1.350 . S
C1303 H1290 0.929 . S
C1303 C1295 1.433 . S
C1303 N1305 1.384 . S
N1304 C1300 1.427 . S
N1304 C1301 1.384 . S
N1305 C1297 1.427 . S
N1305 C1303 1.384 . S
H1306 C1312 0.930 . S
H1307 C1316 0.930 . S
H1308 C1321 0.929 . S
H1309 C1319 0.929 . S
H1310 C1314 0.929 . S
H1311 C1320 0.929 . S
C1312 H1306 0.930 . S
C1312 C1313 1.367 . S
C1312 C1320 1.378 . S
C1313 C1312 1.367 . S
C1313 C1321 1.433 . S
C1314 H1310 0.929 . S
C1314 C1316 1.378 . S
C1314 C1318 1.350 . S
C1315 C1318 1.463 . S
C1315 C1320 1.350 . S
C1315 N1323 1.427 . S
C1316 H1307 0.930 . S
C1316 C1314 1.378 . S
C1316 C1317 1.367 . S
C1317 C1316 1.367 . S
C1317 C1319 1.433 . S
C1318 C1314 1.350 . S
C1318 C1315 1.463 . S
C1318 N1322 1.427 . S
C1319 H1309 0.929 . S
C1319 C1317 1.433 . S
C1319 N1322 1.384 . S
C1320 H1311 0.929 . S
C1320 C1312 1.378 . S
C1320 C1315 1.350 . S
C1321 H1308 0.929 . S
C1321 C1313 1.433 . S
C1321 N1323 1.384 . S
N1322 C1318 1.427 . S
N1322 C1319 1.384 . S
N1323 C1315 1.427 . S
N1323 C1321 1.384 . S
H1324 C1330 0.930 . S
H1325 C1334 0.930 . S
H1326 C1339 0.929 . S
H1327 C1337 0.929 . S
H1328 C1332 0.929 . S
H1329 C1338 0.929 . S
C1330 H1324 0.930 . S
C1330 C1331 1.367 . S
C1330 C1338 1.378 . S
C1331 C1330 1.367 . S
C1331 C1339 1.433 . S
C1332 H1328 0.929 . S
C1332 C1334 1.378 . S
C1332 C1336 1.350 . S
C1333 C1336 1.463 . S
C1333 C1338 1.350 . S
C1333 N1341 1.427 . S
C1334 H1325 0.930 . S
C1334 C1332 1.378 . S
C1334 C1335 1.367 . S
C1335 C1334 1.367 . S
C1335 C1337 1.433 . S
C1336 C1332 1.350 . S
C1336 C1333 1.463 . S
C1336 N1340 1.427 . S
C1337 H1327 0.929 . S
C1337 C1335 1.433 . S
C1337 N1340 1.384 . S
C1338 H1329 0.929 . S
C1338 C1330 1.378 . S
C1338 C1333 1.350 . S
C1339 H1326 0.929 . S
C1339 C1331 1.433 . S
C1339 N1341 1.384 . S
N1340 C1336 1.427 . S
N1340 C1337 1.384 . S
N1341 C1333 1.427 . S
N1341 C1339 1.384 . S
H1342 C1348 0.930 . S
H1343 C1352 0.930 . S
H1344 C1357 0.929 . S
H1345 C1355 0.929 . S
H1346 C1350 0.929 . S
H1347 C1356 0.929 . S
C1348 H1342 0.930 . S
C1348 C1349 1.367 . S
C1348 C1356 1.378 . S
C1349 C1348 1.367 . S
C1349 C1357 1.433 . S
C1350 H1346 0.929 . S
C1350 C1352 1.378 . S
C1350 C1354 1.350 . S
C1351 C1354 1.463 . S
C1351 C1356 1.350 . S
C1351 N1359 1.427 . S
C1352 H1343 0.930 . S
C1352 C1350 1.378 . S
C1352 C1353 1.367 . S
C1353 C1352 1.367 . S
C1353 C1355 1.433 . S
C1354 C1350 1.350 . S
C1354 C1351 1.463 . S
C1354 N1358 1.427 . S
C1355 H1345 0.929 . S
C1355 C1353 1.433 . S
C1355 N1358 1.384 . S
C1356 H1347 0.929 . S
C1356 C1348 1.378 . S
C1356 C1351 1.350 . S
C1357 H1344 0.929 . S
C1357 C1349 1.433 . S
C1357 N1359 1.384 . S
N1358 C1354 1.427 . S
N1358 C1355 1.384 . S
N1359 C1351 1.427 . S
N1359 C1357 1.384 . S
H1360 C1366 0.930 1_556 S
H1361 C1370 0.930 . S
H1362 C1375 0.929 . S
H1363 C1373 0.929 . S
H1364 C1368 0.929 . S
H1365 C1374 0.929 . S
C1366 H1360 0.930 1_554 S
C1366 C1367 1.367 1_554 S
C1366 C1374 1.378 . S
C1367 C1366 1.367 1_556 S
C1367 C1375 1.433 1_556 S
C1368 H1364 0.929 . S
C1368 C1370 1.378 . S
C1368 C1372 1.350 . S
C1369 C1372 1.463 . S
C1369 C1374 1.350 . S
C1369 N1377 1.427 . S
C1370 H1361 0.930 . S
C1370 C1368 1.378 . S
C1370 C1371 1.367 . S
C1371 C1370 1.367 . S
C1371 C1373 1.433 . S
C1372 C1368 1.350 . S
C1372 C1369 1.463 . S
C1372 N1376 1.427 . S
C1373 H1363 0.929 . S
C1373 C1371 1.433 . S
C1373 N1376 1.384 . S
C1374 H1365 0.929 . S
C1374 C1366 1.378 . S
C1374 C1369 1.350 . S
C1375 H1362 0.929 . S
C1375 C1367 1.433 1_554 S
C1375 N1377 1.384 . S
N1376 C1372 1.427 . S
N1376 C1373 1.384 . S
N1377 C1369 1.427 . S
N1377 C1375 1.384 . S
H1378 C1384 0.930 . S
H1379 C1388 0.930 . S
H1380 C1393 0.929 . S
H1381 C1391 0.929 . S
H1382 C1386 0.929 . S
H1383 C1392 0.929 . S
C1384 H1378 0.930 . S
C1384 C1385 1.367 . S
C1384 C1392 1.378 . S
C1385 C1384 1.367 . S
C1385 C1393 1.433 . S
C1386 H1382 0.929 . S
C1386 C1388 1.378 . S
C1386 C1390 1.350 . S
C1387 C1390 1.463 . S
C1387 C1392 1.350 . S
C1387 N1395 1.427 . S
C1388 H1379 0.930 . S
C1388 C1386 1.378 . S
C1388 C1389 1.367 1_556 S
C1389 C1388 1.367 1_554 S
C1389 C1391 1.433 1_554 S
C1390 C1386 1.350 . S
C1390 C1387 1.463 . S
C1390 N1394 1.427 . S
C1391 H1381 0.929 . S
C1391 C1389 1.433 1_556 S
C1391 N1394 1.384 . S
C1392 H1383 0.929 . S
C1392 C1384 1.378 . S
C1392 C1387 1.350 . S
C1393 H1380 0.929 . S
C1393 C1385 1.433 . S
C1393 N1395 1.384 . S
N1394 C1390 1.427 . S
N1394 C1391 1.384 . S
N1395 C1387 1.427 . S
N1395 C1393 1.384 . S
H1396 C1402 0.930 . S
H1397 C1406 0.930 . S
H1398 C1411 0.929 . S
H1399 C1409 0.929 . S
H1400 C1404 0.929 . S
H1401 C1410 0.929 . S
C1402 H1396 0.930 . S
C1402 C1403 1.367 . S
C1402 C1410 1.378 . S
C1403 C1402 1.367 . S
C1403 C1411 1.433 . S
C1404 H1400 0.929 . S
C1404 C1406 1.378 . S
C1404 C1408 1.350 . S
C1405 C1408 1.463 . S
C1405 C1410 1.350 . S
C1405 N1413 1.427 . S
C1406 H1397 0.930 . S
C1406 C1404 1.378 . S
C1406 C1407 1.367 1_554 S
C1407 C1406 1.367 1_556 S
C1407 C1409 1.433 1_556 S
C1408 C1404 1.350 . S
C1408 C1405 1.463 . S
C1408 N1412 1.427 . S
C1409 H1399 0.929 . S
C1409 C1407 1.433 1_554 S
C1409 N1412 1.384 . S
C1410 H1401 0.929 . S
C1410 C1402 1.378 . S
C1410 C1405 1.350 . S
C1411 H1398 0.929 . S
C1411 C1403 1.433 . S
C1411 N1413 1.384 . S
N1412 C1408 1.427 . S
N1412 C1409 1.384 . S
N1413 C1405 1.427 . S
N1413 C1411 1.384 . S
H1414 C1420 0.930 . S
H1415 C1424 0.930 . S
H1416 C1429 0.929 1_554 S
H1417 C1427 0.929 . S
H1418 C1422 0.929 . S
H1419 C1428 0.929 . S
C1420 H1414 0.930 . S
C1420 C1421 1.367 1_556 S
C1420 C1428 1.378 . S
C1421 C1420 1.367 1_554 S
C1421 C1429 1.433 1_554 S
C1422 H1418 0.929 . S
C1422 C1424 1.378 . S
C1422 C1426 1.350 . S
C1423 C1426 1.463 . S
C1423 C1428 1.350 . S
C1423 N1431 1.427 . S
C1424 H1415 0.930 . S
C1424 C1422 1.378 . S
C1424 C1425 1.367 . S
C1425 C1424 1.367 . S
C1425 C1427 1.433 . S
C1426 C1422 1.350 . S
C1426 C1423 1.463 . S
C1426 N1430 1.427 . S
C1427 H1417 0.929 . S
C1427 C1425 1.433 . S
C1427 N1430 1.384 . S
C1428 H1419 0.929 . S
C1428 C1420 1.378 . S
C1428 C1423 1.350 . S
C1429 H1416 0.929 1_556 S
C1429 C1421 1.433 1_556 S
C1429 N1431 1.384 . S
N1430 C1426 1.427 . S
N1430 C1427 1.384 . S
N1431 C1423 1.427 . S
N1431 C1429 1.384 . S
H1432 C1438 0.930 . S
H1433 C1442 0.930 . S
H1434 C1447 0.929 . S
H1435 C1445 0.929 1_556 S
H1436 C1440 0.929 . S
H1437 C1446 0.929 . S
C1438 H1432 0.930 . S
C1438 C1439 1.367 . S
C1438 C1446 1.378 . S
C1439 C1438 1.367 . S
C1439 C1447 1.433 . S
C1440 H1436 0.929 . S
C1440 C1442 1.378 . S
C1440 C1444 1.350 . S
C1441 C1444 1.463 . S
C1441 C1446 1.350 . S
C1441 N1449 1.427 . S
C1442 H1433 0.930 . S
C1442 C1440 1.378 . S
C1442 C1443 1.367 1_554 S
C1443 C1442 1.367 1_556 S
C1443 C1445 1.433 1_556 S
C1444 C1440 1.350 . S
C1444 C1441 1.463 . S
C1444 N1448 1.427 . S
C1445 H1435 0.929 1_554 S
C1445 C1443 1.433 1_554 S
C1445 N1448 1.384 . S
C1446 H1437 0.929 . S
C1446 C1438 1.378 . S
C1446 C1441 1.350 . S
C1447 H1434 0.929 . S
C1447 C1439 1.433 . S
C1447 N1449 1.384 . S
N1448 C1444 1.427 . S
N1448 C1445 1.384 . S
N1449 C1441 1.427 . S
N1449 C1447 1.384 . S
H1450 C1456 0.930 1_554 S
H1451 C1460 0.930 . S
H1452 C1465 0.929 . S
H1453 C1463 0.929 . S
H1454 C1458 0.929 . S
H1455 C1464 0.929 . S
C1456 H1450 0.930 1_556 S
C1456 C1457 1.367 1_556 S
C1456 C1464 1.378 . S
C1457 C1456 1.367 1_554 S
C1457 C1465 1.433 1_554 S
C1458 H1454 0.929 . S
C1458 C1460 1.378 . S
C1458 C1462 1.350 . S
C1459 C1462 1.463 . S
C1459 C1464 1.350 . S
C1459 N1467 1.427 . S
C1460 H1451 0.930 . S
C1460 C1458 1.378 . S
C1460 C1461 1.367 . S
C1461 C1460 1.367 . S
C1461 C1463 1.433 . S
C1462 C1458 1.350 . S
C1462 C1459 1.463 . S
C1462 N1466 1.427 . S
C1463 H1453 0.929 . S
C1463 C1461 1.433 . S
C1463 N1466 1.384 . S
C1464 H1455 0.929 . S
C1464 C1456 1.378 . S
C1464 C1459 1.350 . S
C1465 H1452 0.929 . S
C1465 C1457 1.433 1_556 S
C1465 N1467 1.384 . S
N1466 C1462 1.427 . S
N1466 C1463 1.384 . S
N1467 C1459 1.427 . S
N1467 C1465 1.384 . S
H1468 C1474 0.930 . S
H1469 C1478 0.930 . S
H1470 C1483 0.929 1_556 S
H1471 C1481 0.929 . S
H1472 C1476 0.929 . S
H1473 C1482 0.929 . S
C1474 H1468 0.930 . S
C1474 C1475 1.367 1_554 S
C1474 C1482 1.378 . S
C1475 C1474 1.367 1_556 S
C1475 C1483 1.433 1_556 S
C1476 H1472 0.929 . S
C1476 C1478 1.378 . S
C1476 C1480 1.350 . S
C1477 C1480 1.463 . S
C1477 C1482 1.350 . S
C1477 N1485 1.427 . S
C1478 H1469 0.930 . S
C1478 C1476 1.378 . S
C1478 C1479 1.367 . S
C1479 C1478 1.367 . S
C1479 C1481 1.433 . S
C1480 C1476 1.350 . S
C1480 C1477 1.463 . S
C1480 N1484 1.427 . S
C1481 H1471 0.929 . S
C1481 C1479 1.433 . S
C1481 N1484 1.384 . S
C1482 H1473 0.929 . S
C1482 C1474 1.378 . S
C1482 C1477 1.350 . S
C1483 H1470 0.929 1_554 S
C1483 C1475 1.433 1_554 S
C1483 N1485 1.384 . S
N1484 C1480 1.427 . S
N1484 C1481 1.384 . S
N1485 C1477 1.427 . S
N1485 C1483 1.384 . S
H1486 C1492 0.930 . S
H1487 C1496 0.930 1_554 S
H1488 C1501 0.929 . S
H1489 C1499 0.929 . S
H1490 C1494 0.929 . S
H1491 C1500 0.929 . S
C1492 H1486 0.930 . S
C1492 C1493 1.367 . S
C1492 C1500 1.378 . S
C1493 C1492 1.367 . S
C1493 C1501 1.433 . S
C1494 H1490 0.929 . S
C1494 C1496 1.378 . S
C1494 C1498 1.350 . S
C1495 C1498 1.463 . S
C1495 C1500 1.350 . S
C1495 N1503 1.427 . S
C1496 H1487 0.930 1_556 S
C1496 C1494 1.378 . S
C1496 C1497 1.367 1_556 S
C1497 C1496 1.367 1_554 S
C1497 C1499 1.433 1_554 S
C1498 C1494 1.350 . S
C1498 C1495 1.463 . S
C1498 N1502 1.427 . S
C1499 H1489 0.929 . S
C1499 C1497 1.433 1_556 S
C1499 N1502 1.384 . S
C1500 H1491 0.929 . S
C1500 C1492 1.378 . S
C1500 C1495 1.350 . S
C1501 H1488 0.929 . S
C1501 C1493 1.433 . S
C1501 N1503 1.384 . S
N1502 C1498 1.427 . S
N1502 C1499 1.384 . S
N1503 C1495 1.427 . S
N1503 C1501 1.384 . S
C647 C459 1.728 . S
C651 C18 1.705 . S
C665 C330 1.734 . S
C669 C49 1.716 . S
C683 C98 1.705 . S
C687 C379 1.725 . S
C701 C129 1.708 . S
C705 C410 1.730 . S
C719 C178 1.713 . S
C723 C219 1.734 . S
C737 C250 1.725 . S
C741 C209 1.707 . S
C755 C258 1.716 . S
C759 C299 1.733 . S
C773 C170 1.725 . S
C777 C289 1.705 . S
C791 C139 1.729 . S
C795 C338 1.713 . S
C809 C369 1.706 . S
C813 C10 1.725 . S
C827 C59 1.728 . S
C831 C418 1.713 . S
C845 C90 1.734 . S
C849 C449 1.713 . S
C863 C498 1.716 . S
C867 C539 1.733 . S
C881 C570 1.726 . S
C885 C529 1.709 . S
C899 C619 1.727 . S
C903 C578 1.705 . S
C917 C609 1.714 . S
C921 C490 1.734 . S
C935 C9 1.184 . S
C939 C169 1.195 . S
C953 C218 1.179 . S
C957 C58 1.186 . S
C971 C89 1.194 . S
C975 C249 1.184 . S
C989 C138 1.194 . S
C993 C298 1.201 . S
C1007 C329 1.195 . S
C1011 C489 1.185 . S
C1025 C538 1.184 . S
C1029 C378 1.195 . S
C1043 C409 1.192 . S
C1047 C569 1.182 . S
C1061 C458 1.189 . S
C1065 C618 1.180 . S
C1079 C579 2.274 . S
C1083 C19 2.273 1_556 S
C1097 C50 2.279 1_554 S
C1101 C610 2.280 . S
C1115 C99 2.280 1_556 S
C1119 C499 2.280 . S
C1133 C130 2.273 1_554 S
C1137 C530 2.273 . S
C1151 C179 2.277 . S
C1155 C419 2.279 . S
C1169 C210 2.279 . S
C1173 C450 2.280 . S
C1187 C259 2.273 . S
C1191 C339 2.273 . S
C1205 C370 2.279 . S
C1209 C290 2.280 . S
C1223 C6 1.063 . S
C1227 C15 1.063 . S
C1241 C55 1.065 . S
C1245 C46 1.065 . S
C1259 C86 1.063 . S
C1263 C95 1.063 . S
C1277 C126 1.063 . S
C1281 C135 1.063 . S
C1295 C175 1.063 . S
C1299 C166 1.063 . S
C1313 C215 1.065 . S
C1317 C206 1.065 . S
C1331 C246 1.063 . S
C1335 C255 1.063 . S
C1349 C286 1.063 . S
C1353 C295 1.063 . S
C1367 C326 1.063 . S
C1371 C335 1.063 . S
C1385 C366 1.063 . S
C1389 C375 1.063 . S
C1403 C415 1.066 . S
C1407 C406 1.066 . S
C1421 C455 1.067 . S
C1425 C446 1.067 . S
C1439 C486 1.067 . S
C1443 C495 1.067 . S
C1457 C526 1.064 . S
C1461 C535 1.064 . S
C1475 C575 1.067 . S
C1479 C566 1.067 . S
C1493 C615 1.063 . S
C1497 C606 1.063 . S
