# Generated by pormake.
# Topology afw, (4)-cn, num edge types: 1
# Building blocks:
#     Node 0, Type 0, BuildingBlock: QUQFOY_clean_sbu_3, # of connection points: 4
#     Node 1, Type 0, BuildingBlock: QUQFOY_clean_sbu_3, # of connection points: 4
#     Node 2, Type 0, BuildingBlock: QUQFOY_clean_sbu_3, # of connection points: 4
#     Node 3, Type 0, BuildingBlock: QUQFOY_clean_sbu_3, # of connection points: 4
#     Node 4, Type 0, BuildingBlock: QUQFOY_clean_sbu_3, # of connection points: 4
#     Node 5, Type 0, BuildingBlock: QUQFOY_clean_sbu_3, # of connection points: 4
#     Node 6, Type 0, BuildingBlock: QUQFOY_clean_sbu_3, # of connection points: 4
#     Node 7, Type 0, BuildingBlock: QUQFOY_clean_sbu_3, # of connection points: 4
#     Node 8, Type 0, BuildingBlock: QUQFOY_clean_sbu_3, # of connection points: 4
#     Edge 9, Type (0, 0), BuildingBlock: XUDNAN_clean_linker_2, # of connection points: 2
#     Edge 10, Type (0, 0), BuildingBlock: XUDNAN_clean_linker_2, # of connection points: 2
#     Edge 11, Type (0, 0), BuildingBlock: XUDNAN_clean_linker_2, # of connection points: 2
#     Edge 12, Type (0, 0), BuildingBlock: XUDNAN_clean_linker_2, # of connection points: 2
#     Edge 13, Type (0, 0), BuildingBlock: XUDNAN_clean_linker_2, # of connection points: 2
#     Edge 14, Type (0, 0), BuildingBlock: XUDNAN_clean_linker_2, # of connection points: 2
#     Edge 15, Type (0, 0), BuildingBlock: XUDNAN_clean_linker_2, # of connection points: 2
#     Edge 16, Type (0, 0), BuildingBlock: XUDNAN_clean_linker_2, # of connection points: 2
#     Edge 17, Type (0, 0), BuildingBlock: XUDNAN_clean_linker_2, # of connection points: 2
#     Edge 18, Type (0, 0), BuildingBlock: XUDNAN_clean_linker_2, # of connection points: 2
#     Edge 19, Type (0, 0), BuildingBlock: XUDNAN_clean_linker_2, # of connection points: 2
#     Edge 20, Type (0, 0), BuildingBlock: XUDNAN_clean_linker_2, # of connection points: 2
#     Edge 21, Type (0, 0), BuildingBlock: XUDNAN_clean_linker_2, # of connection points: 2
#     Edge 22, Type (0, 0), BuildingBlock: XUDNAN_clean_linker_2, # of connection points: 2
#     Edge 23, Type (0, 0), BuildingBlock: XUDNAN_clean_linker_2, # of connection points: 2
#     Edge 24, Type (0, 0), BuildingBlock: XUDNAN_clean_linker_2, # of connection points: 2
#     Edge 25, Type (0, 0), BuildingBlock: XUDNAN_clean_linker_2, # of connection points: 2
#     Edge 26, Type (0, 0), BuildingBlock: XUDNAN_clean_linker_2, # of connection points: 2
# Relax obj value: 0.197
# Max RMSD: 0.207
# Mean RMSD: 0.200
data_MOF--net-afw--node1-QUQFOY_clean_sbu_3--edge1-XUDNAN_clean_linker_2
_symmetry_space_group_name_H-M    P1
_symmetry_Int_Tables_number       1
_symmetry_cell_setting            triclinic
loop_
_symmetry_equiv_pos_as_xyz
'x, y, z'
_cell_length_a     45.401825
_cell_length_b     45.738351
_cell_length_c     34.145662
_cell_angle_alpha  91.210673
_cell_angle_beta   91.420352
_cell_angle_gamma 120.54865
loop_
_atom_site_label
_atom_site_type_symbol
_atom_site_fract_x
_atom_site_fract_y
_atom_site_fract_z
_atom_type_partial_charge
C0 C 0.06043 0.19085 0.02855 0.0
O1 O 0.05412 0.19537 0.06342 0.0
Cd2 Cd 0.0045 0.19752 0.07973 0.0
O3 O 0.04234 0.19133 -0.00032 0.0
Cd4 Cd -0.00486 0.20447 -0.0084 0.0
C5 C 0.94182 0.1274 0.02593 0.0
O6 O 0.00571 0.24355 0.04717 0.0
O7 O 0.95353 0.21532 0.02409 0.0
O8 O 0.02722 0.25144 0.94844 0.0
C9 C -0.02407 0.23942 0.04628 0.0
O10 O 0.95503 0.14199 0.05923 0.0
C11 C 0.0058 0.23916 0.91955 0.0
O12 O 0.95271 0.14347 -0.0055 0.0
O13 O -0.02033 0.20987 0.92336 0.0
C14 C 0.85496 0.81587 0.96923 0.0
O15 O 0.84958 0.82122 0.93413 0.0
Cd16 Cd 0.8014 0.82314 0.90931 0.0
O17 O 0.83261 0.80858 -0.00486 0.0
Cd18 Cd 0.77209 0.79683 -0.00253 0.0
C19 C 0.80419 0.88094 -0.02113 0.0
O20 O 0.758 0.77096 0.9326 0.0
O21 O 0.71734 0.77507 0.95756 0.0
O22 O 0.76344 0.75275 0.04365 0.0
C23 C 0.72772 0.76501 0.92909 0.0
O24 O 0.80827 0.874 0.9438 0.0
C25 C 0.7425 0.75638 0.06424 0.0
O26 O 0.79201 0.85789 0.00409 0.0
O27 O 0.73658 0.77969 0.05486 0.0
C28 C 0.09578 0.93582 0.03735 0.0
O29 O 0.10331 0.94852 0.07212 0.0
Cd30 Cd 0.15936 -0.0053 0.09143 0.0
O31 O 0.11802 0.94741 0.01111 0.0
Cd32 Cd 0.17844 -0.00936 0.00044 0.0
C33 C 0.16378 0.05365 0.02567 0.0
O34 O 0.19921 -0.01767 0.0629 0.0
O35 O 0.23505 0.02657 0.03302 0.0
O36 O 0.17188 0.94499 0.95655 0.0
C37 C 0.22901 0.00802 0.06224 0.0
O38 O 0.16375 0.04441 0.06063 0.0
C39 C 0.19252 0.9639 0.93147 0.0
O40 O 0.16535 0.03681 -0.00368 0.0
O41 O 0.20683 -0.00421 0.9379 0.0
C42 C 0.56497 0.43598 0.26025 0.0
O43 O 0.5702 0.44734 0.226 0.0
Cd44 Cd 0.61946 0.50174 0.21698 0.0
O45 O 0.58123 0.45573 0.28978 0.0
Cd46 Cd 0.61998 0.51862 0.30282 0.0
C47 C 0.6779 0.49798 0.28146 0.0
O48 O 0.61226 0.54582 0.24531 0.0
O49 O 0.66152 0.57353 0.27623 0.0
O50 O 0.57275 0.51328 0.33959 0.0
C51 C 0.6408 0.57325 0.2504 0.0
O52 O 0.66673 0.49711 0.24657 0.0
C53 C 0.59045 0.53157 0.36919 0.0
O54 O 0.66494 0.50473 0.31047 0.0
O55 O 0.62268 0.54402 0.3687 0.0
C56 C 0.51954 0.12869 0.28284 0.0
O57 O 0.50256 0.1219 0.25048 0.0
Cd58 Cd 0.44861 0.1187 0.24121 0.0
O59 O 0.5067 0.13085 0.31481 0.0
Cd60 Cd 0.45007 0.12095 0.336 0.0
C61 C 0.4658 0.19285 0.29273 0.0
O62 O 0.40991 0.08112 0.28561 0.0
O63 O 0.39303 0.11042 0.31819 0.0
O64 O 0.4388 0.07429 0.3775 0.0
C65 C 0.38634 0.08757 0.29197 0.0
O66 O 0.45827 0.17441 0.26136 0.0
C67 C 0.43791 0.08837 0.40948 0.0
O68 O 0.46791 0.18153 0.32599 0.0
O69 O 0.44438 0.11889 0.40811 0.0
C70 C 0.80733 0.3811 0.26861 0.0
O71 O 0.80728 0.3725 0.23302 0.0
Cd72 Cd 0.8217 0.33048 0.21524 0.0
O73 O 0.81703 0.36878 0.29574 0.0
Cd74 Cd 0.84018 0.33009 0.30286 0.0
C75 C 0.7641 0.2654 0.27105 0.0
O76 O 0.87598 0.34592 0.24566 0.0
O77 O 0.86201 0.29739 0.26932 0.0
O78 O 0.87736 0.37387 0.35112 0.0
C79 C 0.87988 0.32039 0.24588 0.0
O80 O 0.77464 0.27662 0.23729 0.0
C81 C 0.87882 0.35415 0.3756 0.0
O82 O 0.7816 0.28146 0.30205 0.0
O83 O 0.86191 0.32252 0.36674 0.0
C84 C 0.37735 0.84306 0.70519 0.0
O85 O 0.36707 0.84022 0.7399 0.0
Cd86 Cd 0.3144 0.83874 0.75277 0.0
O87 O 0.36306 0.85069 0.67799 0.0
Cd88 Cd 0.31862 0.86651 0.66925 0.0
C89 C 0.26457 0.78203 0.67743 0.0
O90 O 0.31247 0.88788 0.73332 0.0
O91 O 0.26886 0.867 0.69203 0.0
O92 O 0.35966 0.92346 0.65077 0.0
C93 C 0.28267 0.88254 0.72457 0.0
O94 O 0.27262 0.78843 0.71391 0.0
C95 C 0.3482 0.92085 0.61582 0.0
O96 O 0.27813 0.80561 0.65284 0.0
O97 O 0.32271 0.89213 0.6045 0.0
C98 C 0.18235 0.46712 0.62277 0.0
O99 O 0.17637 0.46901 0.58669 0.0
Cd100 Cd 0.12533 0.4695 0.56493 0.0
O101 O 0.16017 0.46251 0.64766 0.0
Cd102 Cd 0.10226 0.45351 0.65208 0.0
C103 C 0.13569 0.53527 0.6267 0.0
O104 O 0.07202 0.42654 0.58913 0.0
O105 O 0.05324 0.45343 0.62407 0.0
O106 O 0.07998 0.39747 0.67617 0.0
C107 C 0.04937 0.43475 0.59405 0.0
O108 O 0.13473 0.52292 0.59257 0.0
C109 C 0.074 0.40351 0.71054 0.0
O110 O 0.12773 0.51668 0.65664 0.0
O111 O 0.08193 0.43397 0.71926 0.0
C112 C 0.42397 0.5913 0.69946 0.0
O113 O 0.43571 0.60247 0.73415 0.0
Cd114 Cd 0.49114 0.65191 0.7481 0.0
O115 O 0.4428 0.60408 0.67027 0.0
Cd116 Cd 0.50286 0.64625 0.65495 0.0
C117 C 0.48523 0.70694 0.68373 0.0
O118 O 0.53122 0.64263 0.71506 0.0
O119 O 0.56252 0.68271 0.67635 0.0
O120 O 0.49473 0.59826 0.61459 0.0
C121 C 0.56035 0.66763 0.70777 0.0
O122 O 0.48638 0.69737 0.71824 0.0
C123 C 0.5108 0.61521 0.58557 0.0
O124 O 0.48913 0.69208 0.6539 0.0
O125 O 0.5228 0.64712 0.58795 0.0
H126 H 0.11998 0.06072 -0.02472 0.0
H127 H 0.19944 0.11366 0.06621 0.0
H128 H 0.18811 0.16098 0.06707 0.0
H129 H 0.12999 0.1393 0.92579 0.0
H130 H 0.08432 0.11975 0.9179 0.0
H131 H 0.10392 0.09394 0.9173 0.0
H132 H 0.06355 0.05699 -0.02914 0.0
H133 H 0.04402 0.08269 -0.02822 0.0
H134 H 0.06241 0.07709 0.01635 0.0
H135 H 0.16166 0.19624 0.06795 0.0
H136 H 0.12149 0.21753 0.06868 0.0
H137 H 0.05835 0.14303 -0.0229 0.0
C138 C 0.13592 0.08305 -0.00601 0.0
C139 C 0.16103 0.08405 0.02015 0.0
C140 C 0.18042 0.11279 0.04563 0.0
C141 C 0.17424 0.13981 0.0462 0.0
C142 C 0.14845 0.13764 0.02118 0.0
C143 C 0.12964 0.11012 -0.00467 0.0
C144 C 0.10017 0.11188 -0.02414 0.0
C145 C 0.10489 0.1165 0.93158 0.0
C146 C 0.06551 0.0803 -0.01576 0.0
C147 C 0.10436 0.14365 -0.00369 0.0
C148 C 0.13281 0.15842 0.02176 0.0
C149 C 0.13988 0.18555 0.04735 0.0
C150 C 0.11689 0.19742 0.04767 0.0
C151 C 0.08729 0.18232 0.02245 0.0
C152 C 0.08146 0.15573 -0.00431 0.0
H153 H 0.83976 0.93775 0.93562 0.0
H154 H 0.79836 0.90572 0.05045 0.0
H155 H 0.82504 0.96579 0.07305 0.0
H156 H 0.91939 0.00451 0.9689 0.0
H157 H 0.92389 0.03262 0.93031 0.0
H158 H 0.89824 -0.01264 0.92159 0.0
H159 H 0.84621 -0.00691 0.90063 0.0
H160 H 0.87179 0.03848 0.90909 0.0
H161 H 0.83202 0.01447 0.93335 0.0
H162 H 0.86099 0.02888 0.08519 0.0
H163 H 0.90261 0.0904 0.08573 0.0
H164 H 0.92043 0.08171 0.96284 0.0
C165 C 0.8356 0.94328 0.96528 0.0
C166 C 0.81675 0.91687 -0.00881 0.0
C167 C 0.81251 0.92539 0.02996 0.0
C168 C 0.82756 0.95948 0.04307 0.0
C169 C 0.84662 -0.01519 0.01704 0.0
C170 C 0.85049 -0.02285 -0.02114 0.0
C171 C 0.87411 0.00906 0.95757 0.0
C172 C 0.90577 0.00833 0.9438 0.0
C173 C 0.85487 0.01406 0.92312 0.0
C174 C 0.88361 0.03584 -0.00998 0.0
C175 C 0.86727 0.02131 0.02399 0.0
C176 C 0.87355 0.04058 0.05861 0.0
C177 C 0.89735 0.07552 0.05864 0.0
C178 C 0.91467 0.09098 0.02427 0.0
C179 C 0.90723 0.0708 -0.0106 0.0
H180 H 0.89377 0.84561 0.03662 0.0
H181 H 0.89308 0.79933 0.92427 0.0
H182 H 0.95403 0.81772 0.93528 0.0
H183 H -0.03062 0.91795 0.02682 0.0
H184 H -0.01506 0.92416 0.07716 0.0
H185 H 0.93969 0.90058 0.06567 0.0
H186 H 0.93413 0.84905 0.1022 0.0
H187 H -0.02054 0.87267 0.1143 0.0
H188 H -0.03944 0.83168 0.08913 0.0
H189 H 0.01592 0.84957 0.95178 0.0
H190 H 0.07508 0.89174 -0.02618 0.0
H191 H 0.03698 0.9185 0.07562 0.0
C192 C 0.90617 0.83809 0.01528 0.0
C193 C 0.8888 0.82067 -0.02011 0.0
C194 C 0.90602 0.81241 0.95173 0.0
C195 C 0.94057 0.82265 0.95779 0.0
C196 C -0.04247 0.84116 -0.00783 0.0
C197 C 0.94092 0.84859 0.0207 0.0
C198 C -0.03387 0.87278 0.0523 0.0
C199 C -0.03504 0.90581 0.05565 0.0
C200 C -0.04032 0.8555 0.09183 0.0
C201 C -0.00047 0.87905 0.03602 0.0
C202 C -0.00612 0.86007 0.00168 0.0
C203 C 0.02071 0.86397 -0.02087 0.0
C204 C 0.05421 0.88816 -0.00826 0.0
C205 C 0.06061 0.90821 0.02655 0.0
C206 C 0.03289 0.90304 0.04932 0.0
H207 H 0.78133 0.40905 0.21829 0.0
H208 H 0.80342 0.4048 0.34179 0.0
H209 H 0.77763 0.4395 0.35856 0.0
H210 H 0.79602 0.4961 0.22211 0.0
H211 H 0.7613 0.48527 0.18708 0.0
H212 H 0.78478 0.46326 0.18477 0.0
H213 H 0.72816 0.4056 0.18883 0.0
H214 H 0.70456 0.42739 0.19115 0.0
H215 H 0.70077 0.39902 0.22912 0.0
H216 H 0.74447 0.47028 0.36199 0.0
H217 H 0.70655 0.49382 0.35165 0.0
H218 H 0.70706 0.47794 0.22591 0.0
C219 C 0.78135 0.41589 0.24885 0.0
C220 C 0.79452 0.40424 0.27869 0.0
C221 C 0.7936 0.41348 0.31835 0.0
C222 C 0.77907 0.43327 0.32818 0.0
C223 C 0.76579 0.44382 0.29803 0.0
C224 C 0.76698 0.43556 0.25915 0.0
C225 C 0.74899 0.44804 0.23238 0.0
C226 C 0.77429 0.47476 0.20497 0.0
C227 C 0.71884 0.41824 0.20902 0.0
C228 C 0.73667 0.46384 0.26231 0.0
C229 C 0.74686 0.46151 0.3 0.0
C230 C 0.73673 0.47265 0.33256 0.0
C231 C 0.71519 0.48599 0.3264 0.0
C232 C 0.70389 0.4879 0.28797 0.0
C233 C 0.71544 0.47721 0.25565 0.0
H234 H 0.51055 0.25183 0.33604 0.0
H235 H 0.43429 0.21212 0.24 0.0
H236 H 0.44713 0.26994 0.22661 0.0
H237 H 0.49751 0.32363 0.36727 0.0
H238 H 0.54262 0.35227 0.37747 0.0
H239 H 0.52427 0.30731 0.38362 0.0
H240 H 0.56816 0.30698 0.33685 0.0
H241 H 0.58651 0.3518 0.33045 0.0
H242 H 0.57116 0.32278 0.28829 0.0
H243 H 0.4726 0.33121 0.21739 0.0
H244 H 0.50886 0.39343 0.21412 0.0
H245 H 0.56862 0.39555 0.31643 0.0
C246 C 0.49595 0.25536 0.313 0.0
C247 C 0.4713 0.22747 0.28916 0.0
C248 C 0.45331 0.23311 0.25858 0.0
C249 C 0.46029 0.26586 0.25083 0.0
C250 C 0.48536 0.29293 0.27394 0.0
C251 C 0.50284 0.28821 0.30458 0.0
C252 C 0.53061 0.3222 0.3225 0.0
C253 C 0.5233 0.32661 0.36526 0.0
C254 C 0.5662 0.32616 0.31931 0.0
C255 C 0.52656 0.34652 0.29633 0.0
C256 C 0.50006 0.32895 0.26877 0.0
C257 C 0.49299 0.34536 0.23928 0.0
C258 C 0.51378 0.38068 0.23756 0.0
C259 C 0.54121 0.39931 0.26528 0.0
C260 C 0.54727 0.38201 0.29546 0.0
H261 H 0.57233 0.17043 0.33474 0.0
H262 H 0.54836 0.10783 0.2282 0.0
H263 H 0.60982 0.12969 0.22025 0.0
H264 H 0.63961 0.24102 0.29979 0.0
H265 H 0.66614 0.25518 0.34424 0.0
H266 H 0.62046 0.2294 0.34681 0.0
H267 H 0.62716 0.18543 0.38671 0.0
H268 H 0.67305 0.21128 0.3845 0.0
H269 H 0.65133 0.16741 0.36742 0.0
H270 H 0.67255 0.16523 0.21677 0.0
H271 H 0.73283 0.2117 0.21868 0.0
H272 H 0.71757 0.25156 0.32775 0.0
C273 C 0.58 0.16034 0.31065 0.0
C274 C 0.5556 0.13718 0.28229 0.0
C275 C 0.56664 0.12543 0.25037 0.0
C276 C 0.60149 0.13759 0.2457 0.0
C277 C 0.62504 0.16143 0.27328 0.0
C278 C 0.61483 0.17251 0.30537 0.0
C279 C 0.64543 0.2014 0.32784 0.0
C280 C 0.64274 0.23364 0.32975 0.0
C281 C 0.64948 0.19073 0.36907 0.0
C282 C 0.67418 0.20589 0.30228 0.0
C283 C 0.66185 0.18215 0.27134 0.0
C284 C 0.6827 0.1834 0.24138 0.0
C285 C 0.71685 0.20994 0.24261 0.0
C286 C 0.72988 0.23485 0.27363 0.0
C287 C 0.70848 0.23225 0.30434 0.0
H288 H 0.40857 0.81956 0.75461 0.0
H289 H 0.40168 0.84153 0.6328 0.0
H290 H 0.43479 0.81448 0.61443 0.0
H291 H 0.49583 0.82979 0.75216 0.0
H292 H 0.48383 0.7952 0.78452 0.0
H293 H 0.46471 0.82128 0.78866 0.0
H294 H 0.40442 0.7674 0.7805 0.0
H295 H 0.42328 0.74124 0.77592 0.0
H296 H 0.39409 0.73944 0.73788 0.0
H297 H 0.46104 0.77725 0.60817 0.0
H298 H 0.48022 0.73566 0.6154 0.0
H299 H 0.47027 0.73917 0.7413 0.0
C300 C 0.41492 0.81969 0.72422 0.0
C301 C 0.40256 0.83281 0.69522 0.0
C302 C 0.41099 0.83186 0.65567 0.0
C303 C 0.42981 0.81651 0.6449 0.0
C304 C 0.4404 0.80258 0.67405 0.0
C305 C 0.43366 0.80451 0.71301 0.0
C306 C 0.44521 0.78512 0.73828 0.0
C307 C 0.47412 0.8093 0.76764 0.0
C308 C 0.41494 0.75662 0.75935 0.0
C309 C 0.45826 0.77088 0.70731 0.0
C310 C 0.45568 0.78145 0.67046 0.0
C311 C 0.4638 0.76935 0.637 0.0
C312 C 0.47458 0.74564 0.64136 0.0
C313 C 0.47696 0.7342 0.67891 0.0
C314 C 0.46917 0.74758 0.71218 0.0
H315 H 0.24289 0.72441 0.71909 0.0
H316 H 0.23182 0.75879 0.60503 0.0
H317 H 0.19307 0.6991 0.58226 0.0
H318 H 0.24696 0.65372 0.68366 0.0
H319 H 0.22367 0.62663 0.72282 0.0
H320 H 0.24785 0.67201 0.73128 0.0
H321 H 0.19344 0.6709 0.7546 0.0
H322 H 0.16902 0.62546 0.7461 0.0
H323 H 0.15537 0.65191 0.72297 0.0
H324 H 0.15851 0.63621 0.57078 0.0
H325 H 0.13262 0.57413 0.56964 0.0
H326 H 0.16647 0.5798 0.69105 0.0
C327 C 0.23192 0.7195 0.68947 0.0
C328 C 0.24022 0.7464 0.66389 0.0
C329 C 0.2258 0.7387 0.62517 0.0
C330 C 0.20365 0.70488 0.61206 0.0
C331 C 0.19622 0.67904 0.63798 0.0
C332 C 0.21 0.68591 0.67584 0.0
C333 C 0.19975 0.65338 0.69694 0.0
C334 C 0.23144 0.65132 0.70939 0.0
C335 C 0.1781 0.65024 0.73225 0.0
C336 C 0.17846 0.62705 0.66478 0.0
C337 C 0.17652 0.64251 0.63121 0.0
C338 C 0.15967 0.62383 0.59696 0.0
C339 C 0.1451 0.58853 0.59664 0.0
C340 C 0.14745 0.57202 0.63029 0.0
C341 C 0.16378 0.59158 0.66509 0.0
H342 H 0.243 0.50004 0.58509 0.0
H343 H 0.19915 0.45224 0.69389 0.0
H344 H 0.25705 0.47336 0.72285 0.0
H345 H 0.31935 0.48822 0.59082 0.0
H346 H 0.34667 0.52921 0.57088 0.0
H347 H 0.30183 0.50525 0.55632 0.0
H348 H 0.29559 0.55647 0.57765 0.0
H349 H 0.34018 0.58041 0.59266 0.0
H350 H 0.30817 0.57401 0.62712 0.0
H351 H 0.31886 0.50682 0.74343 0.0
H352 H 0.38062 0.54832 0.75314 0.0
H353 H 0.38492 0.5742 0.63102 0.0
C354 C 0.24555 0.49296 0.61449 0.0
C355 C 0.21652 0.47427 0.63712 0.0
C356 C 0.22099 0.46639 0.67593 0.0
C357 C 0.25381 0.47822 0.69263 0.0
C358 C 0.28195 0.49774 0.67011 0.0
C359 C 0.27821 0.50474 0.63171 0.0
C360 C 0.31263 0.52909 0.61524 0.0
C361 C 0.32059 0.51191 0.5813 0.0
C362 C 0.31421 0.56193 0.60244 0.0
C363 C 0.33608 0.53567 0.65084 0.0
C364 C 0.3179 0.51704 0.68204 0.0
C365 C 0.33351 0.521 0.71899 0.0
C366 C 0.36857 0.54477 0.72428 0.0
C367 C 0.38767 0.5643 0.69279 0.0
C368 C 0.37118 0.55919 0.65548 0.0
H369 H 0.04797 0.30766 0.91145 0.0
H370 H -0.02558 0.21486 0.84706 0.0
H371 H -0.01747 0.24752 0.78745 0.0
H372 H 0.02144 0.36184 0.8652 0.0
H373 H 0.06427 0.39801 0.86489 0.0
H374 H 0.05288 0.36742 0.9025 0.0
H375 H 0.10274 0.35833 0.88408 0.0
H376 H 0.11436 0.38896 0.84654 0.0
H377 H 0.10549 0.34667 0.83411 0.0
H378 H 0.00098 0.28941 0.73435 0.0
H379 H 0.02643 0.33826 0.69134 0.0
H380 H 0.08524 0.40511 0.79075 0.0
C381 C 0.03363 0.2942 0.88476 0.0
C382 C 0.01072 0.25864 0.88375 0.0
C383 C -0.00788 0.24203 0.84845 0.0
C384 C -0.00344 0.26038 0.81449 0.0
C385 C 0.0193 0.29539 0.8165 0.0
C386 C 0.03732 0.31222 0.85078 0.0
C387 C 0.0599 0.35008 0.84506 0.0
C388 C 0.04896 0.37054 0.87096 0.0
C389 C 0.09787 0.36168 0.8529 0.0
C390 C 0.05218 0.35185 0.802 0.0
C391 C 0.02879 0.31992 0.78615 0.0
C392 C 0.01896 0.31456 0.74652 0.0
C393 C 0.0336 0.34246 0.72234 0.0
C394 C 0.05747 0.37544 0.73784 0.0
C395 C 0.06654 0.38027 0.77833 0.0
H396 H 0.65776 0.73107 0.91736 0.0
H397 H 0.75247 0.76721 0.85693 0.0
H398 H 0.71969 0.74456 0.79402 0.0
H399 H 0.60955 0.6522 0.85879 0.0
H400 H 0.57013 0.65274 0.85903 0.0
H401 H 0.60094 0.67209 0.89953 0.0
H402 H 0.60251 0.72893 0.89012 0.0
H403 H 0.57165 0.70973 0.84969 0.0
H404 H 0.6121 0.74785 0.84288 0.0
H405 H 0.67736 0.72174 0.73746 0.0
H406 H 0.62727 0.69615 0.69081 0.0
H407 H 0.55953 0.6701 0.78785 0.0
C408 C 0.6715 0.73419 0.89083 0.0
C409 C 0.7076 0.75103 0.89186 0.0
C410 C 0.72478 0.75434 0.85672 0.0
C411 C 0.70642 0.7416 0.82086 0.0
C412 C 0.67087 0.72509 0.82077 0.0
C413 C 0.65349 0.72094 0.8548 0.0
C414 C 0.61511 0.70159 0.84645 0.0
C415 C 0.59793 0.66764 0.86718 0.0
C416 C 0.59943 0.72333 0.85796 0.0
C417 C 0.61373 0.69605 0.80236 0.0
C418 C 0.64624 0.71007 0.78817 0.0
C419 C 0.65175 0.71017 0.74821 0.0
C420 C 0.62324 0.69566 0.72199 0.0
C421 C 0.58975 0.68077 0.73592 0.0
C422 C 0.58493 0.68064 0.77661 0.0
H423 H 0.30784 0.93462 0.78056 0.0
H424 H 0.21369 0.84908 0.73082 0.0
H425 H 0.18041 0.86166 0.77724 0.0
H426 H 0.28382 0.92702 0.88051 0.0
H427 H 0.30386 0.97212 0.89064 0.0
H428 H 0.32045 0.95625 0.8538 0.0
H429 H 0.31389 -0.00625 0.80256 0.0
H430 H 0.29718 0.00969 0.83925 0.0
H431 H 0.27278 -0.00987 0.79415 0.0
H432 H 0.15774 0.88073 0.83173 0.0
H433 H 0.14649 0.90833 0.88774 0.0
H434 H 0.25429 -0.01494 0.89837 0.0
C435 C 0.28023 0.91858 0.77959 0.0
C436 C 0.26328 0.89074 0.75237 0.0
C437 C 0.22712 0.87054 0.75147 0.0
C438 C 0.20801 0.87745 0.77773 0.0
C439 C 0.22541 0.90508 0.80418 0.0
C440 C 0.26064 0.92565 0.80501 0.0
C441 C 0.27278 0.95427 0.8358 0.0
C442 C 0.29663 0.95228 0.86704 0.0
C443 C 0.29019 -0.01098 0.81679 0.0
C444 C 0.23892 0.94614 0.85257 0.0
C445 C 0.21199 0.91745 0.83408 0.0
C446 C 0.1785 0.90354 0.84602 0.0
C447 C 0.17236 0.91931 0.87781 0.0
C448 C 0.19943 0.94901 0.89674 0.0
C449 C 0.23307 0.9628 0.88369 0.0
H450 H 0.36246 0.03601 0.23581 0.0
H451 H 0.34522 0.11465 0.28327 0.0
H452 H 0.30164 0.10123 0.23056 0.0
H453 H 0.35569 0.04968 0.13661 0.0
H454 H 0.33303 0.00551 0.12064 0.0
H455 H 0.36104 0.0192 0.16379 0.0
H456 H 0.31139 -0.02423 0.20483 0.0
H457 H 0.28327 0.96161 0.16166 0.0
H458 H 0.27184 -0.02394 0.20508 0.0
H459 H 0.26498 0.08394 0.16927 0.0
H460 H 0.2324 0.05919 0.10631 0.0
H461 H 0.27054 -0.01042 0.10012 0.0
C462 C 0.34905 0.04996 0.23547 0.0
C463 C 0.35722 0.07638 0.26357 0.0
C464 C 0.33924 0.09417 0.26217 0.0
C465 C 0.31452 0.08683 0.23227 0.0
C466 C 0.30769 0.06124 0.20445 0.0
C467 C 0.32391 0.04261 0.20614 0.0
C468 C 0.31214 0.01681 0.17212 0.0
C469 C 0.34228 0.02321 0.1468 0.0
C470 C 0.29355 -0.01959 0.18681 0.0
C471 C 0.28758 0.02459 0.15043 0.0
C472 C 0.28549 0.05039 0.16961 0.0
C473 C 0.26595 0.06338 0.15429 0.0
C474 C 0.24777 0.0494 0.11856 0.0
C475 C 0.24916 0.02265 0.09892 0.0
C476 C 0.26909 0.00993 0.11501 0.0
H477 H 0.91775 0.21435 0.08751 0.0
H478 H 0.01416 0.30626 0.06883 0.0
H479 H -0.00042 0.33778 0.11697 0.0
H480 H 0.86582 0.2524 0.10268 0.0
H481 H 0.84232 0.22462 0.14125 0.0
H482 H 0.85936 0.21013 0.10339 0.0
H483 H 0.89178 0.19601 0.1562 0.0
H484 H 0.87492 0.21055 0.19421 0.0
H485 H 0.92051 0.22868 0.19148 0.0
H486 H -0.02685 0.35944 0.16541 0.0
H487 H 0.9398 0.36832 0.21586 0.0
H488 H 0.86401 0.2608 0.20796 0.0
C489 C 0.93553 0.24121 0.09328 0.0
C490 C -0.0332 0.25818 0.0742 0.0
C491 C -0.01003 0.29304 0.08311 0.0
C492 C -0.01812 0.31108 0.11028 0.0
C493 C 0.95087 0.2936 0.12882 0.0
C494 C 0.9283 0.25932 0.12113 0.0
C495 C 0.89778 0.246 0.14691 0.0
C496 C 0.86435 0.2325 0.12207 0.0
C497 C 0.89617 0.2187 0.1738 0.0
C498 C 0.90654 0.27818 0.17008 0.0
C499 C 0.93697 0.30549 0.15878 0.0
C500 C 0.9495 0.33818 0.17484 0.0
C501 C 0.93045 0.34301 0.20334 0.0
C502 C 0.89976 0.31517 0.21601 0.0
C503 C 0.88778 0.28239 0.19924 0.0
H504 H 0.70302 0.61302 0.21869 0.0
H505 H 0.60077 0.59758 0.22343 0.0
H506 H 0.61729 0.6459 0.18013 0.0
H507 H 0.75039 0.70507 0.21382 0.0
H508 H 0.77963 0.70556 0.17872 0.0
H509 H 0.7608 0.67192 0.21288 0.0
H510 H 0.73744 0.62715 0.1552 0.0
H511 H 0.7563 0.66062 0.12091 0.0
H512 H 0.71116 0.62979 0.1166 0.0
H513 H 0.64535 0.69636 0.13724 0.0
H514 H 0.67996 0.74008 0.09029 0.0
H515 H 0.76211 0.71881 0.10789 0.0
C516 C 0.68431 0.62017 0.21093 0.0
C517 C 0.65079 0.60208 0.22473 0.0
C518 C 0.62662 0.61137 0.21322 0.0
C519 C 0.63583 0.63882 0.18886 0.0
C520 C 0.66911 0.65618 0.17565 0.0
C521 C 0.6928 0.64685 0.1857 0.0
C522 C 0.72586 0.66775 0.16479 0.0
C523 C 0.75595 0.68882 0.19432 0.0
C524 C 0.7331 0.64497 0.13777 0.0
C525 C 0.71708 0.69029 0.1414 0.0
C526 C 0.68449 0.68369 0.14876 0.0
C527 C 0.67083 0.70163 0.1311 0.0
C528 C 0.69074 0.72652 0.10463 0.0
C529 C 0.72363 0.73273 0.09541 0.0
C530 C 0.73699 0.7145 0.11431 0.0
H531 H 0.02204 0.38266 0.53761 0.0
H532 H 0.01329 0.46678 0.5845 0.0
H533 H -0.03302 0.45341 0.53557 0.0
H534 H 0.00665 0.39144 0.43674 0.0
H535 H -0.01862 0.34645 0.42521 0.0
H536 H 0.01369 0.36219 0.46431 0.0
H537 H -0.03176 0.32301 0.51252 0.0
H538 H 0.93574 0.30721 0.47355 0.0
H539 H 0.93018 0.32552 0.518 0.0
H540 H 0.92513 0.4342 0.47915 0.0
H541 H 0.88706 0.40758 0.42025 0.0
H542 H 0.91868 0.3328 0.4123 0.0
C543 C 0.01028 0.39816 0.53752 0.0
C544 C 0.02132 0.42583 0.56473 0.0
C545 C 0.00518 0.44541 0.564 0.0
C546 C -0.02114 0.43805 0.53631 0.0
C547 C -0.03145 0.41067 0.50992 0.0
C548 C -0.01659 0.39075 0.51045 0.0
C549 C -0.03283 0.36268 0.47876 0.0
C550 C -0.00619 0.3659 0.44952 0.0
C551 C 0.94927 0.32752 0.49679 0.0
C552 C 0.94139 0.37043 0.45994 0.0
C553 C 0.94284 0.39837 0.47835 0.0
C554 C 0.9233 0.41196 0.46485 0.0
C555 C 0.90183 0.39675 0.43142 0.0
C556 C 0.89966 0.36794 0.41232 0.0
C557 C 0.91935 0.35434 0.42704 0.0
H558 H 0.61601 0.589 0.4174 0.0
H559 H 0.52676 0.489 0.39413 0.0
H560 H 0.49663 0.49993 0.44646 0.0
H561 H 0.60932 0.59303 0.52287 0.0
H562 H 0.62202 0.63735 0.52475 0.0
H563 H 0.63734 0.62099 0.48692 0.0
H564 H 0.61315 0.64387 0.43403 0.0
H565 H 0.59749 0.66004 0.4717 0.0
H566 H 0.5685 0.63123 0.43351 0.0
H567 H 0.47671 0.52076 0.50202 0.0
H568 H 0.46704 0.5515 0.55583 0.0
H569 H 0.56689 0.64009 0.53981 0.0
C570 C 0.5903 0.56932 0.42378 0.0
C571 C 0.57377 0.53799 0.40212 0.0
C572 C 0.53986 0.51309 0.41055 0.0
C573 C 0.52256 0.51906 0.44018 0.0
C574 C 0.53931 0.55032 0.46067 0.0
C575 C 0.5723 0.57518 0.45275 0.0
C576 C 0.58373 0.60709 0.47811 0.0
C577 C 0.61495 0.61507 0.50474 0.0
C578 C 0.59115 0.63734 0.45282 0.0
C579 C 0.55211 0.59612 0.50167 0.0
C580 C 0.52696 0.56314 0.49133 0.0
C581 C 0.49603 0.54672 0.51012 0.0
C582 C 0.49076 0.56435 0.54058 0.0
C583 C 0.51599 0.59823 0.55146 0.0
C584 C 0.5469 0.61443 0.53144 0.0
H585 H 0.34658 0.92129 0.53495 0.0
H586 H 0.38525 -0.01252 0.63952 0.0
H587 H 0.41193 0.03761 0.59847 0.0
H588 H 0.42192 0.96997 0.47968 0.0
H589 H 0.39853 0.96232 0.43353 0.0
H590 H 0.38108 0.93156 0.47107 0.0
H591 H 0.32572 0.9348 0.4687 0.0
H592 H 0.34298 0.96552 0.43109 0.0
H593 H 0.32872 -0.02456 0.47555 0.0
H594 H 0.43323 0.0809 0.54597 0.0
H595 H 0.45076 0.11373 0.48554 0.0
H596 H 0.40185 0.01945 0.41542 0.0
C597 C 0.36049 0.94635 0.54913 0.0
C598 C 0.36368 0.9505 0.59043 0.0
C599 C 0.3825 -0.01631 0.60792 0.0
C600 C 0.39769 0.01236 0.58486 0.0
C601 C 0.39426 0.00747 0.54426 0.0
C602 C 0.37641 -0.02469 0.52649 0.0
C603 C 0.37775 -0.02287 0.48225 0.0
C604 C 0.39591 0.95918 0.46567 0.0
C605 C 0.34164 0.96235 0.46329 0.0
C606 C 0.39897 0.01526 0.47802 0.0
C607 C 0.40793 0.03235 0.5141 0.0
C608 C 0.42661 0.06779 0.51753 0.0
C609 C 0.43643 0.08623 0.48312 0.0
C610 C 0.42803 0.06917 0.4459 0.0
C611 C 0.40912 0.03322 0.44351 0.0
loop_
_geom_bond_atom_site_label_1
_geom_bond_atom_site_label_2
_geom_bond_distance
_geom_bond_site_symmetry_2
_ccdc_geom_bond_type
C0 O1 1.306 . S
C0 O3 1.160 . S
O1 C0 1.306 . S
O1 Cd2 2.228 . S
Cd2 O1 2.228 . S
Cd2 O6 2.273 . S
Cd2 O10 2.277 1_455 S
O3 C0 1.160 . S
O3 Cd4 2.203 . S
Cd4 O3 2.203 . S
Cd4 O6 2.411 . S
Cd4 O7 2.333 1_455 S
Cd4 O8 2.352 1_554 S
Cd4 O12 2.277 1_454 S
Cd4 O13 2.356 1_554 S
C5 O10 1.209 . S
C5 O12 1.226 1_554 S
O6 Cd2 2.273 . S
O6 Cd4 2.411 . S
O6 C9 1.320 1_455 S
O7 Cd4 2.333 1_655 S
O7 C9 1.214 . S
O8 Cd4 2.352 1_556 S
O8 C11 1.258 . S
C9 O6 1.320 1_655 S
C9 O7 1.214 . S
O10 Cd2 2.277 1_655 S
O10 C5 1.209 . S
C11 O8 1.258 . S
C11 O13 1.282 . S
O12 Cd4 2.277 1_656 S
O12 C5 1.226 1_556 S
O13 Cd4 2.356 1_556 S
O13 C11 1.282 . S
C14 O15 1.306 1_554 S
C14 O17 1.160 . S
O15 C14 1.306 1_556 S
O15 Cd16 2.228 . S
Cd16 O15 2.228 . S
Cd16 O20 2.273 . S
Cd16 O24 2.277 . S
O17 C14 1.160 . S
O17 Cd18 2.203 . S
Cd18 O17 2.203 . S
Cd18 O20 2.411 1_554 S
Cd18 O21 2.333 . S
Cd18 O22 2.352 . S
Cd18 O26 2.277 . S
Cd18 O27 2.356 . S
C19 O24 1.209 1_554 S
C19 O26 1.226 . S
O20 Cd16 2.273 . S
O20 Cd18 2.411 1_556 S
O20 C23 1.320 . S
O21 Cd18 2.333 . S
O21 C23 1.214 1_554 S
O22 Cd18 2.352 . S
O22 C25 1.258 . S
C23 O20 1.320 . S
C23 O21 1.214 1_556 S
O24 Cd16 2.277 . S
O24 C19 1.209 1_556 S
C25 O22 1.258 . S
C25 O27 1.282 . S
O26 Cd18 2.277 . S
O26 C19 1.226 . S
O27 Cd18 2.356 . S
O27 C25 1.282 . S
C28 O29 1.306 . S
C28 O31 1.160 1_554 S
O29 C28 1.306 . S
O29 Cd30 2.228 1_565 S
Cd30 O29 2.228 1_545 S
Cd30 O34 2.273 . S
Cd30 O38 2.277 . S
O31 C28 1.160 1_556 S
O31 Cd32 2.203 1_566 S
Cd32 O31 2.203 1_544 S
Cd32 O34 2.411 . S
Cd32 O35 2.333 . S
Cd32 O36 2.352 1_544 S
Cd32 O40 2.277 1_554 S
Cd32 O41 2.356 1_554 S
C33 O38 1.209 . S
C33 O40 1.226 1_554 S
O34 Cd30 2.273 . S
O34 Cd32 2.411 . S
O34 C37 1.320 . S
O35 Cd32 2.333 . S
O35 C37 1.214 . S
O36 Cd32 2.352 1_566 S
O36 C39 1.258 . S
C37 O34 1.320 . S
C37 O35 1.214 . S
O38 Cd30 2.277 . S
O38 C33 1.209 . S
C39 O36 1.258 . S
C39 O41 1.282 1_565 S
O40 Cd32 2.277 1_556 S
O40 C33 1.226 1_556 S
O41 Cd32 2.356 1_556 S
O41 C39 1.282 1_545 S
C42 O43 1.306 . S
C42 O45 1.160 . S
O43 C42 1.306 . S
O43 Cd44 2.228 . S
Cd44 O43 2.228 . S
Cd44 O48 2.273 . S
Cd44 O52 2.277 . S
O45 C42 1.160 . S
O45 Cd46 2.203 . S
Cd46 O45 2.203 . S
Cd46 O48 2.411 . S
Cd46 O49 2.333 . S
Cd46 O50 2.352 . S
Cd46 O54 2.277 . S
Cd46 O55 2.356 . S
C47 O52 1.209 . S
C47 O54 1.226 . S
O48 Cd44 2.273 . S
O48 Cd46 2.411 . S
O48 C51 1.320 . S
O49 Cd46 2.333 . S
O49 C51 1.214 . S
O50 Cd46 2.352 . S
O50 C53 1.258 . S
C51 O48 1.320 . S
C51 O49 1.214 . S
O52 Cd44 2.277 . S
O52 C47 1.209 . S
C53 O50 1.258 . S
C53 O55 1.282 . S
O54 Cd46 2.277 . S
O54 C47 1.226 . S
O55 Cd46 2.356 . S
O55 C53 1.282 . S
C56 O57 1.306 . S
C56 O59 1.160 . S
O57 C56 1.306 . S
O57 Cd58 2.228 . S
Cd58 O57 2.228 . S
Cd58 O62 2.273 . S
Cd58 O66 2.277 . S
O59 C56 1.160 . S
O59 Cd60 2.203 . S
Cd60 O59 2.203 . S
Cd60 O62 2.411 . S
Cd60 O63 2.333 . S
Cd60 O64 2.352 . S
Cd60 O68 2.277 . S
Cd60 O69 2.356 . S
C61 O66 1.209 . S
C61 O68 1.226 . S
O62 Cd58 2.273 . S
O62 Cd60 2.411 . S
O62 C65 1.320 . S
O63 Cd60 2.333 . S
O63 C65 1.214 . S
O64 Cd60 2.352 . S
O64 C67 1.258 . S
C65 O62 1.320 . S
C65 O63 1.214 . S
O66 Cd58 2.277 . S
O66 C61 1.209 . S
C67 O64 1.258 . S
C67 O69 1.282 . S
O68 Cd60 2.277 . S
O68 C61 1.226 . S
O69 Cd60 2.356 . S
O69 C67 1.282 . S
C70 O71 1.306 . S
C70 O73 1.160 . S
O71 C70 1.306 . S
O71 Cd72 2.228 . S
Cd72 O71 2.228 . S
Cd72 O76 2.273 . S
Cd72 O80 2.277 . S
O73 C70 1.160 . S
O73 Cd74 2.203 . S
Cd74 O73 2.203 . S
Cd74 O76 2.411 . S
Cd74 O77 2.333 . S
Cd74 O78 2.352 . S
Cd74 O82 2.277 . S
Cd74 O83 2.356 . S
C75 O80 1.209 . S
C75 O82 1.226 . S
O76 Cd72 2.273 . S
O76 Cd74 2.411 . S
O76 C79 1.320 . S
O77 Cd74 2.333 . S
O77 C79 1.214 . S
O78 Cd74 2.352 . S
O78 C81 1.258 . S
C79 O76 1.320 . S
C79 O77 1.214 . S
O80 Cd72 2.277 . S
O80 C75 1.209 . S
C81 O78 1.258 . S
C81 O83 1.282 . S
O82 Cd74 2.277 . S
O82 C75 1.226 . S
O83 Cd74 2.356 . S
O83 C81 1.282 . S
C84 O85 1.306 . S
C84 O87 1.160 . S
O85 C84 1.306 . S
O85 Cd86 2.228 . S
Cd86 O85 2.228 . S
Cd86 O90 2.273 . S
Cd86 O94 2.277 . S
O87 C84 1.160 . S
O87 Cd88 2.203 . S
Cd88 O87 2.203 . S
Cd88 O90 2.411 . S
Cd88 O91 2.333 . S
Cd88 O92 2.352 . S
Cd88 O96 2.277 . S
Cd88 O97 2.356 . S
C89 O94 1.209 . S
C89 O96 1.226 . S
O90 Cd86 2.273 . S
O90 Cd88 2.411 . S
O90 C93 1.320 . S
O91 Cd88 2.333 . S
O91 C93 1.214 . S
O92 Cd88 2.352 . S
O92 C95 1.258 . S
C93 O90 1.320 . S
C93 O91 1.214 . S
O94 Cd86 2.277 . S
O94 C89 1.209 . S
C95 O92 1.258 . S
C95 O97 1.282 . S
O96 Cd88 2.277 . S
O96 C89 1.226 . S
O97 Cd88 2.356 . S
O97 C95 1.282 . S
C98 O99 1.306 . S
C98 O101 1.160 . S
O99 C98 1.306 . S
O99 Cd100 2.228 . S
Cd100 O99 2.228 . S
Cd100 O104 2.273 . S
Cd100 O108 2.277 . S
O101 C98 1.160 . S
O101 Cd102 2.203 . S
Cd102 O101 2.203 . S
Cd102 O104 2.411 . S
Cd102 O105 2.333 . S
Cd102 O106 2.352 . S
Cd102 O110 2.277 . S
Cd102 O111 2.356 . S
C103 O108 1.209 . S
C103 O110 1.226 . S
O104 Cd100 2.273 . S
O104 Cd102 2.411 . S
O104 C107 1.320 . S
O105 Cd102 2.333 . S
O105 C107 1.214 . S
O106 Cd102 2.352 . S
O106 C109 1.258 . S
C107 O104 1.320 . S
C107 O105 1.214 . S
O108 Cd100 2.277 . S
O108 C103 1.209 . S
C109 O106 1.258 . S
C109 O111 1.282 . S
O110 Cd102 2.277 . S
O110 C103 1.226 . S
O111 Cd102 2.356 . S
O111 C109 1.282 . S
C112 O113 1.306 . S
C112 O115 1.160 . S
O113 C112 1.306 . S
O113 Cd114 2.228 . S
Cd114 O113 2.228 . S
Cd114 O118 2.273 . S
Cd114 O122 2.277 . S
O115 C112 1.160 . S
O115 Cd116 2.203 . S
Cd116 O115 2.203 . S
Cd116 O118 2.411 . S
Cd116 O119 2.333 . S
Cd116 O120 2.352 . S
Cd116 O124 2.277 . S
Cd116 O125 2.356 . S
C117 O122 1.209 . S
C117 O124 1.226 . S
O118 Cd114 2.273 . S
O118 Cd116 2.411 . S
O118 C121 1.320 . S
O119 Cd116 2.333 . S
O119 C121 1.214 . S
O120 Cd116 2.352 . S
O120 C123 1.258 . S
C121 O118 1.320 . S
C121 O119 1.214 . S
O122 Cd114 2.277 . S
O122 C117 1.209 . S
C123 O120 1.258 . S
C123 O125 1.282 . S
O124 Cd116 2.277 . S
O124 C117 1.226 . S
O125 Cd116 2.356 . S
O125 C123 1.282 . S
H126 C138 0.930 . S
H127 C140 0.930 . S
H128 C141 0.930 . S
H129 C145 0.959 . S
H130 C145 0.959 . S
H131 C145 0.961 . S
H132 C146 0.960 . S
H133 C146 0.961 . S
H134 C146 0.959 . S
H135 C149 0.929 . S
H136 C150 0.931 . S
H137 C152 0.949 . S
C138 H126 0.930 . S
C138 C139 1.399 1_556 S
C138 C143 1.395 1_556 S
C139 C138 1.399 1_554 S
C139 C140 1.376 . S
C140 H127 0.930 . S
C140 C139 1.376 . S
C140 C141 1.388 . S
C141 H128 0.930 . S
C141 C140 1.388 . S
C141 C142 1.390 . S
C142 C141 1.390 . S
C142 C143 1.410 . S
C142 C148 1.465 . S
C143 C138 1.395 1_554 S
C143 C142 1.410 . S
C143 C144 1.506 1_554 S
C144 C143 1.506 1_556 S
C144 C145 1.502 . S
C144 C146 1.561 . S
C144 C147 1.526 1_556 S
C145 H129 0.959 . S
C145 H130 0.959 . S
C145 H131 0.961 . S
C145 C144 1.502 . S
C146 H132 0.960 . S
C146 H133 0.961 . S
C146 H134 0.959 . S
C146 C144 1.561 . S
C147 C144 1.526 1_554 S
C147 C148 1.396 . S
C147 C152 1.387 1_554 S
C148 C142 1.465 . S
C148 C147 1.396 . S
C148 C149 1.399 . S
C149 H135 0.929 . S
C149 C148 1.399 . S
C149 C150 1.385 . S
C150 H136 0.931 . S
C150 C149 1.385 . S
C150 C151 1.389 . S
C151 C150 1.389 . S
C151 C152 1.370 1_554 S
C152 H137 0.949 . S
C152 C147 1.387 1_556 S
C152 C151 1.370 1_556 S
H153 C165 0.930 . S
H154 C167 0.930 . S
H155 C168 0.930 . S
H156 C172 0.959 . S
H157 C172 0.959 . S
H158 C172 0.961 1_565 S
H159 C173 0.960 1_565 S
H160 C173 0.961 . S
H161 C173 0.959 . S
H162 C176 0.929 . S
H163 C177 0.931 . S
H164 C179 0.934 . S
C165 H153 0.930 . S
C165 C166 1.399 . S
C165 C170 1.399 . S
C166 C165 1.399 . S
C166 C167 1.376 . S
C167 H154 0.930 . S
C167 C166 1.376 . S
C167 C168 1.388 . S
C168 H155 0.930 . S
C168 C167 1.388 . S
C168 C169 1.390 . S
C169 C168 1.390 . S
C169 C170 1.394 . S
C169 C175 1.465 1_565 S
C170 C165 1.399 . S
C170 C169 1.394 . S
C170 C171 1.516 1_565 S
C171 C170 1.516 1_545 S
C171 C172 1.502 . S
C171 C173 1.561 1_554 S
C171 C174 1.526 . S
C172 H156 0.959 . S
C172 H157 0.959 . S
C172 H158 0.961 1_545 S
C172 C171 1.502 . S
C173 H159 0.960 1_545 S
C173 H160 0.961 . S
C173 H161 0.959 . S
C173 C171 1.561 1_556 S
C174 C171 1.526 . S
C174 C175 1.396 . S
C174 C179 1.390 . S
C175 C169 1.465 1_545 S
C175 C174 1.396 . S
C175 C176 1.399 . S
C176 H162 0.929 . S
C176 C175 1.399 . S
C176 C177 1.385 . S
C177 H163 0.931 . S
C177 C176 1.385 . S
C177 C178 1.389 . S
C178 C177 1.389 . S
C178 C179 1.387 . S
C179 H164 0.934 . S
C179 C174 1.390 . S
C179 C178 1.387 . S
H180 C192 0.930 . S
H181 C194 0.930 . S
H182 C195 0.930 . S
H183 C199 0.959 . S
H184 C199 0.959 . S
H185 C199 0.961 1_655 S
H186 C200 0.960 1_655 S
H187 C200 0.961 . S
H188 C200 0.959 . S
H189 C203 0.929 . S
H190 C204 0.931 . S
H191 C206 0.930 . S
C192 H180 0.930 . S
C192 C193 1.399 . S
C192 C197 1.399 . S
C193 C192 1.399 . S
C193 C194 1.376 1_554 S
C194 H181 0.930 . S
C194 C193 1.376 1_556 S
C194 C195 1.388 . S
C195 H182 0.930 . S
C195 C194 1.388 . S
C195 C196 1.374 1_556 S
C196 C195 1.374 1_554 S
C196 C197 1.415 . S
C196 C202 1.465 1_655 S
C197 C192 1.399 . S
C197 C196 1.415 . S
C197 C198 1.516 1_655 S
C198 C197 1.516 1_455 S
C198 C199 1.502 . S
C198 C200 1.561 . S
C198 C201 1.526 . S
C199 H183 0.959 . S
C199 H184 0.959 . S
C199 H185 0.961 1_455 S
C199 C198 1.502 . S
C200 H186 0.960 1_455 S
C200 H187 0.961 . S
C200 H188 0.959 . S
C200 C198 1.561 . S
C201 C198 1.526 . S
C201 C202 1.396 . S
C201 C206 1.390 . S
C202 C196 1.465 1_455 S
C202 C201 1.396 . S
C202 C203 1.399 1_554 S
C203 H189 0.929 . S
C203 C202 1.399 1_556 S
C203 C204 1.385 . S
C204 H190 0.931 . S
C204 C203 1.385 . S
C204 C205 1.389 1_556 S
C205 C204 1.389 1_554 S
C205 C206 1.387 . S
C206 H191 0.930 . S
C206 C201 1.390 . S
C206 C205 1.387 . S
H207 C219 0.930 . S
H208 C221 0.930 . S
H209 C222 0.930 . S
H210 C226 0.959 . S
H211 C226 0.959 . S
H212 C226 0.961 . S
H213 C227 0.960 . S
H214 C227 0.961 . S
H215 C227 0.959 . S
H216 C230 0.929 . S
H217 C231 0.931 . S
H218 C233 0.930 . S
C219 H207 0.930 . S
C219 C220 1.399 . S
C219 C224 1.399 . S
C220 C219 1.399 . S
C220 C221 1.376 . S
C221 H208 0.930 . S
C221 C220 1.376 . S
C221 C222 1.388 . S
C222 H209 0.930 . S
C222 C221 1.388 . S
C222 C223 1.390 . S
C223 C222 1.390 . S
C223 C224 1.394 . S
C223 C229 1.465 . S
C224 C219 1.399 . S
C224 C223 1.394 . S
C224 C225 1.516 . S
C225 C224 1.516 . S
C225 C226 1.502 . S
C225 C227 1.561 . S
C225 C228 1.526 . S
C226 H210 0.959 . S
C226 H211 0.959 . S
C226 H212 0.961 . S
C226 C225 1.502 . S
C227 H213 0.960 . S
C227 H214 0.961 . S
C227 H215 0.959 . S
C227 C225 1.561 . S
C228 C225 1.526 . S
C228 C229 1.396 . S
C228 C233 1.390 . S
C229 C223 1.465 . S
C229 C228 1.396 . S
C229 C230 1.399 . S
C230 H216 0.929 . S
C230 C229 1.399 . S
C230 C231 1.385 . S
C231 H217 0.931 . S
C231 C230 1.385 . S
C231 C232 1.389 . S
C232 C231 1.389 . S
C232 C233 1.387 . S
C233 H218 0.930 . S
C233 C228 1.390 . S
C233 C232 1.387 . S
H234 C246 0.930 . S
H235 C248 0.930 . S
H236 C249 0.930 . S
H237 C253 0.959 . S
H238 C253 0.959 . S
H239 C253 0.961 . S
H240 C254 0.960 . S
H241 C254 0.961 . S
H242 C254 0.959 . S
H243 C257 0.929 . S
H244 C258 0.931 . S
H245 C260 0.930 . S
C246 H234 0.930 . S
C246 C247 1.399 . S
C246 C251 1.399 . S
C247 C246 1.399 . S
C247 C248 1.376 . S
C248 H235 0.930 . S
C248 C247 1.376 . S
C248 C249 1.388 . S
C249 H236 0.930 . S
C249 C248 1.388 . S
C249 C250 1.390 . S
C250 C249 1.390 . S
C250 C251 1.394 . S
C250 C256 1.465 . S
C251 C246 1.399 . S
C251 C250 1.394 . S
C251 C252 1.516 . S
C252 C251 1.516 . S
C252 C253 1.502 . S
C252 C254 1.561 . S
C252 C255 1.526 . S
C253 H237 0.959 . S
C253 H238 0.959 . S
C253 H239 0.961 . S
C253 C252 1.502 . S
C254 H240 0.960 . S
C254 H241 0.961 . S
C254 H242 0.959 . S
C254 C252 1.561 . S
C255 C252 1.526 . S
C255 C256 1.396 . S
C255 C260 1.390 . S
C256 C250 1.465 . S
C256 C255 1.396 . S
C256 C257 1.399 . S
C257 H243 0.929 . S
C257 C256 1.399 . S
C257 C258 1.385 . S
C258 H244 0.931 . S
C258 C257 1.385 . S
C258 C259 1.389 . S
C259 C258 1.389 . S
C259 C260 1.387 . S
C260 H245 0.930 . S
C260 C255 1.390 . S
C260 C259 1.387 . S
H261 C273 0.930 . S
H262 C275 0.930 . S
H263 C276 0.930 . S
H264 C280 0.959 . S
H265 C280 0.959 . S
H266 C280 0.961 . S
H267 C281 0.960 . S
H268 C281 0.961 . S
H269 C281 0.959 . S
H270 C284 0.929 . S
H271 C285 0.931 . S
H272 C287 0.930 . S
C273 H261 0.930 . S
C273 C274 1.399 . S
C273 C278 1.399 . S
C274 C273 1.399 . S
C274 C275 1.376 . S
C275 H262 0.930 . S
C275 C274 1.376 . S
C275 C276 1.388 . S
C276 H263 0.930 . S
C276 C275 1.388 . S
C276 C277 1.390 . S
C277 C276 1.390 . S
C277 C278 1.394 . S
C277 C283 1.465 . S
C278 C273 1.399 . S
C278 C277 1.394 . S
C278 C279 1.516 . S
C279 C278 1.516 . S
C279 C280 1.502 . S
C279 C281 1.561 . S
C279 C282 1.526 . S
C280 H264 0.959 . S
C280 H265 0.959 . S
C280 H266 0.961 . S
C280 C279 1.502 . S
C281 H267 0.960 . S
C281 H268 0.961 . S
C281 H269 0.959 . S
C281 C279 1.561 . S
C282 C279 1.526 . S
C282 C283 1.396 . S
C282 C287 1.390 . S
C283 C277 1.465 . S
C283 C282 1.396 . S
C283 C284 1.399 . S
C284 H270 0.929 . S
C284 C283 1.399 . S
C284 C285 1.385 . S
C285 H271 0.931 . S
C285 C284 1.385 . S
C285 C286 1.389 . S
C286 C285 1.389 . S
C286 C287 1.387 . S
C287 H272 0.930 . S
C287 C282 1.390 . S
C287 C286 1.387 . S
H288 C300 0.930 . S
H289 C302 0.930 . S
H290 C303 0.930 . S
H291 C307 0.959 . S
H292 C307 0.959 . S
H293 C307 0.961 . S
H294 C308 0.960 . S
H295 C308 0.961 . S
H296 C308 0.959 . S
H297 C311 0.929 . S
H298 C312 0.931 . S
H299 C314 0.930 . S
C300 H288 0.930 . S
C300 C301 1.399 . S
C300 C305 1.399 . S
C301 C300 1.399 . S
C301 C302 1.376 . S
C302 H289 0.930 . S
C302 C301 1.376 . S
C302 C303 1.388 . S
C303 H290 0.930 . S
C303 C302 1.388 . S
C303 C304 1.390 . S
C304 C303 1.390 . S
C304 C305 1.394 . S
C304 C310 1.465 . S
C305 C300 1.399 . S
C305 C304 1.394 . S
C305 C306 1.516 . S
C306 C305 1.516 . S
C306 C307 1.502 . S
C306 C308 1.561 . S
C306 C309 1.526 . S
C307 H291 0.959 . S
C307 H292 0.959 . S
C307 H293 0.961 . S
C307 C306 1.502 . S
C308 H294 0.960 . S
C308 H295 0.961 . S
C308 H296 0.959 . S
C308 C306 1.561 . S
C309 C306 1.526 . S
C309 C310 1.396 . S
C309 C314 1.390 . S
C310 C304 1.465 . S
C310 C309 1.396 . S
C310 C311 1.399 . S
C311 H297 0.929 . S
C311 C310 1.399 . S
C311 C312 1.385 . S
C312 H298 0.931 . S
C312 C311 1.385 . S
C312 C313 1.389 . S
C313 C312 1.389 . S
C313 C314 1.387 . S
C314 H299 0.930 . S
C314 C309 1.390 . S
C314 C313 1.387 . S
H315 C327 0.930 . S
H316 C329 0.930 . S
H317 C330 0.930 . S
H318 C334 0.959 . S
H319 C334 0.959 . S
H320 C334 0.961 . S
H321 C335 0.960 . S
H322 C335 0.961 . S
H323 C335 0.959 . S
H324 C338 0.929 . S
H325 C339 0.931 . S
H326 C341 0.930 . S
C327 H315 0.930 . S
C327 C328 1.399 . S
C327 C332 1.399 . S
C328 C327 1.399 . S
C328 C329 1.376 . S
C329 H316 0.930 . S
C329 C328 1.376 . S
C329 C330 1.388 . S
C330 H317 0.930 . S
C330 C329 1.388 . S
C330 C331 1.390 . S
C331 C330 1.390 . S
C331 C332 1.394 . S
C331 C337 1.465 . S
C332 C327 1.399 . S
C332 C331 1.394 . S
C332 C333 1.516 . S
C333 C332 1.516 . S
C333 C334 1.502 . S
C333 C335 1.561 . S
C333 C336 1.526 . S
C334 H318 0.959 . S
C334 H319 0.959 . S
C334 H320 0.961 . S
C334 C333 1.502 . S
C335 H321 0.960 . S
C335 H322 0.961 . S
C335 H323 0.959 . S
C335 C333 1.561 . S
C336 C333 1.526 . S
C336 C337 1.396 . S
C336 C341 1.390 . S
C337 C331 1.465 . S
C337 C336 1.396 . S
C337 C338 1.399 . S
C338 H324 0.929 . S
C338 C337 1.399 . S
C338 C339 1.385 . S
C339 H325 0.931 . S
C339 C338 1.385 . S
C339 C340 1.389 . S
C340 C339 1.389 . S
C340 C341 1.387 . S
C341 H326 0.930 . S
C341 C336 1.390 . S
C341 C340 1.387 . S
H342 C354 0.930 . S
H343 C356 0.930 . S
H344 C357 0.930 . S
H345 C361 0.959 . S
H346 C361 0.959 . S
H347 C361 0.961 . S
H348 C362 0.960 . S
H349 C362 0.961 . S
H350 C362 0.959 . S
H351 C365 0.929 . S
H352 C366 0.931 . S
H353 C368 0.930 . S
C354 H342 0.930 . S
C354 C355 1.399 . S
C354 C359 1.399 . S
C355 C354 1.399 . S
C355 C356 1.376 . S
C356 H343 0.930 . S
C356 C355 1.376 . S
C356 C357 1.388 . S
C357 H344 0.930 . S
C357 C356 1.388 . S
C357 C358 1.390 . S
C358 C357 1.390 . S
C358 C359 1.394 . S
C358 C364 1.465 . S
C359 C354 1.399 . S
C359 C358 1.394 . S
C359 C360 1.516 . S
C360 C359 1.516 . S
C360 C361 1.502 . S
C360 C362 1.561 . S
C360 C363 1.526 . S
C361 H345 0.959 . S
C361 H346 0.959 . S
C361 H347 0.961 . S
C361 C360 1.502 . S
C362 H348 0.960 . S
C362 H349 0.961 . S
C362 H350 0.959 . S
C362 C360 1.561 . S
C363 C360 1.526 . S
C363 C364 1.396 . S
C363 C368 1.390 . S
C364 C358 1.465 . S
C364 C363 1.396 . S
C364 C365 1.399 . S
C365 H351 0.929 . S
C365 C364 1.399 . S
C365 C366 1.385 . S
C366 H352 0.931 . S
C366 C365 1.385 . S
C366 C367 1.389 . S
C367 C366 1.389 . S
C367 C368 1.387 . S
C368 H353 0.930 . S
C368 C363 1.390 . S
C368 C367 1.387 . S
H369 C381 0.930 . S
H370 C383 0.930 . S
H371 C384 0.930 . S
H372 C388 0.959 . S
H373 C388 0.959 . S
H374 C388 0.961 . S
H375 C389 0.960 . S
H376 C389 0.961 . S
H377 C389 0.959 . S
H378 C392 0.929 . S
H379 C393 0.931 . S
H380 C395 0.930 . S
C381 H369 0.930 . S
C381 C382 1.399 . S
C381 C386 1.399 . S
C382 C381 1.399 . S
C382 C383 1.376 . S
C383 H370 0.930 . S
C383 C382 1.376 . S
C383 C384 1.388 . S
C384 H371 0.930 . S
C384 C383 1.388 . S
C384 C385 1.390 . S
C385 C384 1.390 . S
C385 C386 1.394 . S
C385 C391 1.465 . S
C386 C381 1.399 . S
C386 C385 1.394 . S
C386 C387 1.516 . S
C387 C386 1.516 . S
C387 C388 1.502 . S
C387 C389 1.561 . S
C387 C390 1.526 . S
C388 H372 0.959 . S
C388 H373 0.959 . S
C388 H374 0.961 . S
C388 C387 1.502 . S
C389 H375 0.960 . S
C389 H376 0.961 . S
C389 H377 0.959 . S
C389 C387 1.561 . S
C390 C387 1.526 . S
C390 C391 1.396 . S
C390 C395 1.390 . S
C391 C385 1.465 . S
C391 C390 1.396 . S
C391 C392 1.399 . S
C392 H378 0.929 . S
C392 C391 1.399 . S
C392 C393 1.385 . S
C393 H379 0.931 . S
C393 C392 1.385 . S
C393 C394 1.389 . S
C394 C393 1.389 . S
C394 C395 1.387 . S
C395 H380 0.930 . S
C395 C390 1.390 . S
C395 C394 1.387 . S
H396 C408 0.930 . S
H397 C410 0.930 . S
H398 C411 0.930 . S
H399 C415 0.959 . S
H400 C415 0.959 . S
H401 C415 0.961 . S
H402 C416 0.960 . S
H403 C416 0.961 . S
H404 C416 0.959 . S
H405 C419 0.929 . S
H406 C420 0.931 . S
H407 C422 0.930 . S
C408 H396 0.930 . S
C408 C409 1.399 . S
C408 C413 1.399 . S
C409 C408 1.399 . S
C409 C410 1.376 . S
C410 H397 0.930 . S
C410 C409 1.376 . S
C410 C411 1.388 . S
C411 H398 0.930 . S
C411 C410 1.388 . S
C411 C412 1.390 . S
C412 C411 1.390 . S
C412 C413 1.394 . S
C412 C418 1.465 . S
C413 C408 1.399 . S
C413 C412 1.394 . S
C413 C414 1.516 . S
C414 C413 1.516 . S
C414 C415 1.502 . S
C414 C416 1.561 . S
C414 C417 1.526 . S
C415 H399 0.959 . S
C415 H400 0.959 . S
C415 H401 0.961 . S
C415 C414 1.502 . S
C416 H402 0.960 . S
C416 H403 0.961 . S
C416 H404 0.959 . S
C416 C414 1.561 . S
C417 C414 1.526 . S
C417 C418 1.396 . S
C417 C422 1.390 . S
C418 C412 1.465 . S
C418 C417 1.396 . S
C418 C419 1.399 . S
C419 H405 0.929 . S
C419 C418 1.399 . S
C419 C420 1.385 . S
C420 H406 0.931 . S
C420 C419 1.385 . S
C420 C421 1.389 . S
C421 C420 1.389 . S
C421 C422 1.387 . S
C422 H407 0.930 . S
C422 C417 1.390 . S
C422 C421 1.387 . S
H423 C435 0.930 . S
H424 C437 0.930 . S
H425 C438 0.930 . S
H426 C442 0.959 . S
H427 C442 0.959 1_545 S
H428 C442 0.961 . S
H429 C443 0.960 . S
H430 C443 0.961 . S
H431 C443 0.959 . S
H432 C446 0.929 . S
H433 C447 0.931 . S
H434 C449 0.930 1_545 S
C435 H423 0.930 . S
C435 C436 1.399 . S
C435 C440 1.399 . S
C436 C435 1.399 . S
C436 C437 1.376 . S
C437 H424 0.930 . S
C437 C436 1.376 . S
C437 C438 1.388 . S
C438 H425 0.930 . S
C438 C437 1.388 . S
C438 C439 1.390 . S
C439 C438 1.390 . S
C439 C440 1.394 . S
C439 C445 1.465 . S
C440 C435 1.399 . S
C440 C439 1.394 . S
C440 C441 1.516 . S
C441 C440 1.516 . S
C441 C442 1.502 . S
C441 C443 1.561 1_565 S
C441 C444 1.526 . S
C442 H426 0.959 . S
C442 H427 0.959 1_565 S
C442 H428 0.961 . S
C442 C441 1.502 . S
C443 H429 0.960 . S
C443 H430 0.961 . S
C443 H431 0.959 . S
C443 C441 1.561 1_545 S
C444 C441 1.526 . S
C444 C445 1.396 . S
C444 C449 1.390 . S
C445 C439 1.465 . S
C445 C444 1.396 . S
C445 C446 1.399 . S
C446 H432 0.929 . S
C446 C445 1.399 . S
C446 C447 1.385 . S
C447 H433 0.931 . S
C447 C446 1.385 . S
C447 C448 1.389 . S
C448 C447 1.389 . S
C448 C449 1.387 . S
C449 H434 0.930 1_565 S
C449 C444 1.390 . S
C449 C448 1.387 . S
H450 C462 0.930 . S
H451 C464 0.930 . S
H452 C465 0.930 . S
H453 C469 0.959 . S
H454 C469 0.959 . S
H455 C469 0.961 . S
H456 C470 0.960 . S
H457 C470 0.968 . S
H458 C470 0.959 . S
H459 C473 0.929 . S
H460 C474 0.931 . S
H461 C476 0.930 . S
C462 H450 0.930 . S
C462 C463 1.399 . S
C462 C467 1.399 . S
C463 C462 1.399 . S
C463 C464 1.376 . S
C464 H451 0.930 . S
C464 C463 1.376 . S
C464 C465 1.388 . S
C465 H452 0.930 . S
C465 C464 1.388 . S
C465 C466 1.390 . S
C466 C465 1.390 . S
C466 C467 1.394 . S
C466 C472 1.465 . S
C467 C462 1.399 . S
C467 C466 1.394 . S
C467 C468 1.516 . S
C468 C467 1.516 . S
C468 C469 1.502 . S
C468 C470 1.561 . S
C468 C471 1.526 . S
C469 H453 0.959 . S
C469 H454 0.959 . S
C469 H455 0.961 . S
C469 C468 1.502 . S
C470 H456 0.960 . S
C470 H457 0.968 . S
C470 H458 0.959 . S
C470 C468 1.561 . S
C471 C468 1.526 . S
C471 C472 1.396 . S
C471 C476 1.390 . S
C472 C466 1.465 . S
C472 C471 1.396 . S
C472 C473 1.399 . S
C473 H459 0.929 . S
C473 C472 1.399 . S
C473 C474 1.385 . S
C474 H460 0.931 . S
C474 C473 1.385 . S
C474 C475 1.389 . S
C475 C474 1.389 . S
C475 C476 1.387 . S
C476 H461 0.930 . S
C476 C471 1.390 . S
C476 C475 1.387 . S
H477 C489 0.930 . S
H478 C491 0.930 . S
H479 C492 0.927 1_455 S
H480 C496 0.959 . S
H481 C496 0.959 . S
H482 C496 0.961 . S
H483 C497 0.960 . S
H484 C497 0.961 . S
H485 C497 0.959 . S
H486 C500 0.929 . S
H487 C501 0.931 . S
H488 C503 0.930 . S
C489 H477 0.930 . S
C489 C490 1.399 . S
C489 C494 1.399 . S
C490 C489 1.399 . S
C490 C491 1.376 1_655 S
C491 H478 0.930 . S
C491 C490 1.376 1_455 S
C491 C492 1.368 1_455 S
C492 H479 0.927 1_655 S
C492 C491 1.368 1_655 S
C492 C493 1.414 . S
C493 C492 1.414 . S
C493 C494 1.394 . S
C493 C499 1.465 . S
C494 C489 1.399 . S
C494 C493 1.394 . S
C494 C495 1.516 . S
C495 C494 1.516 . S
C495 C496 1.502 . S
C495 C497 1.561 . S
C495 C498 1.526 . S
C496 H480 0.959 . S
C496 H481 0.959 . S
C496 H482 0.961 . S
C496 C495 1.502 . S
C497 H483 0.960 . S
C497 H484 0.961 . S
C497 H485 0.959 . S
C497 C495 1.561 . S
C498 C495 1.526 . S
C498 C499 1.396 . S
C498 C503 1.390 . S
C499 C493 1.465 . S
C499 C498 1.396 . S
C499 C500 1.399 . S
C500 H486 0.929 . S
C500 C499 1.399 . S
C500 C501 1.385 . S
C501 H487 0.931 . S
C501 C500 1.385 . S
C501 C502 1.389 . S
C502 C501 1.389 . S
C502 C503 1.387 . S
C503 H488 0.930 . S
C503 C498 1.390 . S
C503 C502 1.387 . S
H504 C516 0.930 . S
H505 C518 0.930 . S
H506 C519 0.930 . S
H507 C523 0.959 . S
H508 C523 0.959 . S
H509 C523 0.961 . S
H510 C524 0.960 . S
H511 C524 0.961 . S
H512 C524 0.959 . S
H513 C527 0.929 . S
H514 C528 0.931 . S
H515 C530 0.930 . S
C516 H504 0.930 . S
C516 C517 1.399 . S
C516 C521 1.399 . S
C517 C516 1.399 . S
C517 C518 1.376 . S
C518 H505 0.930 . S
C518 C517 1.376 . S
C518 C519 1.388 . S
C519 H506 0.930 . S
C519 C518 1.388 . S
C519 C520 1.390 . S
C520 C519 1.390 . S
C520 C521 1.394 . S
C520 C526 1.465 . S
C521 C516 1.399 . S
C521 C520 1.394 . S
C521 C522 1.516 . S
C522 C521 1.516 . S
C522 C523 1.502 . S
C522 C524 1.561 . S
C522 C525 1.526 . S
C523 H507 0.959 . S
C523 H508 0.959 . S
C523 H509 0.961 . S
C523 C522 1.502 . S
C524 H510 0.960 . S
C524 H511 0.961 . S
C524 H512 0.959 . S
C524 C522 1.561 . S
C525 C522 1.526 . S
C525 C526 1.396 . S
C525 C530 1.390 . S
C526 C520 1.465 . S
C526 C525 1.396 . S
C526 C527 1.399 . S
C527 H513 0.929 . S
C527 C526 1.399 . S
C527 C528 1.385 . S
C528 H514 0.931 . S
C528 C527 1.385 . S
C528 C529 1.389 . S
C529 C528 1.389 . S
C529 C530 1.387 . S
C530 H515 0.930 . S
C530 C525 1.390 . S
C530 C529 1.387 . S
H531 C543 0.930 . S
H532 C545 0.930 . S
H533 C546 0.930 . S
H534 C550 0.959 . S
H535 C550 0.959 . S
H536 C550 0.961 . S
H537 C551 0.960 . S
H538 C551 0.961 . S
H539 C551 0.987 . S
H540 C554 0.929 . S
H541 C555 0.931 . S
H542 C557 0.930 . S
C543 H531 0.930 . S
C543 C544 1.399 . S
C543 C548 1.399 . S
C544 C543 1.399 . S
C544 C545 1.376 . S
C545 H532 0.930 . S
C545 C544 1.376 . S
C545 C546 1.388 . S
C546 H533 0.930 . S
C546 C545 1.388 . S
C546 C547 1.390 . S
C547 C546 1.390 . S
C547 C548 1.394 . S
C547 C553 1.465 . S
C548 C543 1.399 . S
C548 C547 1.394 . S
C548 C549 1.516 . S
C549 C548 1.516 . S
C549 C550 1.502 . S
C549 C551 1.561 . S
C549 C552 1.526 . S
C550 H534 0.959 . S
C550 H535 0.959 . S
C550 H536 0.961 . S
C550 C549 1.502 . S
C551 H537 0.960 . S
C551 H538 0.961 . S
C551 H539 0.987 . S
C551 C549 1.561 . S
C552 C549 1.526 . S
C552 C553 1.396 . S
C552 C557 1.390 1_455 S
C553 C547 1.465 . S
C553 C552 1.396 . S
C553 C554 1.399 1_455 S
C554 H540 0.929 . S
C554 C553 1.399 1_655 S
C554 C555 1.385 . S
C555 H541 0.931 . S
C555 C554 1.385 . S
C555 C556 1.389 . S
C556 C555 1.389 . S
C556 C557 1.387 . S
C557 H542 0.930 . S
C557 C552 1.390 1_655 S
C557 C556 1.387 . S
H558 C570 0.930 . S
H559 C572 0.930 . S
H560 C573 0.930 . S
H561 C577 0.959 . S
H562 C577 0.959 . S
H563 C577 0.961 . S
H564 C578 0.960 . S
H565 C578 0.961 . S
H566 C578 0.959 . S
H567 C581 0.929 . S
H568 C582 0.931 . S
H569 C584 0.930 . S
C570 H558 0.930 . S
C570 C571 1.399 . S
C570 C575 1.399 . S
C571 C570 1.399 . S
C571 C572 1.376 . S
C572 H559 0.930 . S
C572 C571 1.376 . S
C572 C573 1.388 . S
C573 H560 0.930 . S
C573 C572 1.388 . S
C573 C574 1.390 . S
C574 C573 1.390 . S
C574 C575 1.394 . S
C574 C580 1.465 . S
C575 C570 1.399 . S
C575 C574 1.394 . S
C575 C576 1.516 . S
C576 C575 1.516 . S
C576 C577 1.502 . S
C576 C578 1.561 . S
C576 C579 1.526 . S
C577 H561 0.959 . S
C577 H562 0.959 . S
C577 H563 0.961 . S
C577 C576 1.502 . S
C578 H564 0.960 . S
C578 H565 0.961 . S
C578 H566 0.959 . S
C578 C576 1.561 . S
C579 C576 1.526 . S
C579 C580 1.396 . S
C579 C584 1.390 . S
C580 C574 1.465 . S
C580 C579 1.396 . S
C580 C581 1.399 . S
C581 H567 0.929 . S
C581 C580 1.399 . S
C581 C582 1.385 . S
C582 H568 0.931 . S
C582 C581 1.385 . S
C582 C583 1.389 . S
C583 C582 1.389 . S
C583 C584 1.387 . S
C584 H569 0.930 . S
C584 C579 1.390 . S
C584 C583 1.387 . S
H585 C597 0.930 . S
H586 C599 0.930 . S
H587 C600 0.930 . S
H588 C604 0.959 . S
H589 C604 0.959 . S
H590 C604 0.961 . S
H591 C605 0.960 . S
H592 C605 0.961 . S
H593 C605 0.959 . S
H594 C608 0.929 . S
H595 C609 0.931 . S
H596 C611 0.930 . S
C597 H585 0.930 . S
C597 C598 1.399 . S
C597 C602 1.399 . S
C598 C597 1.399 . S
C598 C599 1.376 . S
C599 H586 0.930 . S
C599 C598 1.376 . S
C599 C600 1.388 1_565 S
C600 H587 0.930 . S
C600 C599 1.388 1_545 S
C600 C601 1.390 . S
C601 C600 1.390 . S
C601 C602 1.394 1_545 S
C601 C607 1.465 . S
C602 C597 1.399 . S
C602 C601 1.394 1_565 S
C602 C603 1.516 . S
C603 C602 1.516 . S
C603 C604 1.502 . S
C603 C605 1.561 . S
C603 C606 1.526 1_565 S
C604 H588 0.959 . S
C604 H589 0.959 . S
C604 H590 0.961 . S
C604 C603 1.502 . S
C605 H591 0.960 . S
C605 H592 0.961 . S
C605 H593 0.959 . S
C605 C603 1.561 . S
C606 C603 1.526 1_545 S
C606 C607 1.396 . S
C606 C611 1.390 . S
C607 C601 1.465 . S
C607 C606 1.396 . S
C607 C608 1.399 . S
C608 H594 0.929 . S
C608 C607 1.399 . S
C608 C609 1.385 . S
C609 H595 0.931 . S
C609 C608 1.385 . S
C609 C610 1.389 . S
C610 C609 1.389 . S
C610 C611 1.387 . S
C611 H596 0.930 . S
C611 C606 1.390 . S
C611 C610 1.387 . S
C139 C33 1.015 . S
C151 C0 1.019 . S
C166 C19 1.102 . S
C178 C5 1.100 . S
C193 C14 1.012 . S
C205 C28 1.017 . S
C220 C70 0.988 . S
C232 C47 1.014 . S
C247 C61 0.964 . S
C259 C42 0.963 . S
C274 C56 1.066 . S
C286 C75 1.058 . S
C301 C84 0.958 . S
C313 C117 0.979 . S
C328 C89 1.041 . S
C340 C103 1.015 . S
C355 C98 0.930 . S
C367 C112 0.934 . S
C382 C11 1.373 . S
C394 C109 1.381 . S
C409 C23 1.412 . S
C421 C121 1.407 . S
C436 C93 1.382 . S
C448 C39 1.397 . S
C463 C65 1.365 . S
C475 C37 1.371 . S
C490 C9 1.417 . S
C502 C79 1.419 . S
C517 C51 1.413 . S
C529 C25 1.405 . S
C544 C107 1.385 . S
C556 C81 1.389 . S
C571 C53 1.382 . S
C583 C123 1.380 . S
C598 C95 1.418 . S
C610 C67 1.404 . S
