# Generated by pormake.
# Topology wfu, (7)-cn, num edge types: 1
# Building blocks:
#     Node 0, Type 0, BuildingBlock: HICVOG_clean_sbu_0, # of connection points: 7
#     Node 1, Type 0, BuildingBlock: HICVOG_clean_sbu_0, # of connection points: 7
#     Node 2, Type 0, BuildingBlock: HICVOG_clean_sbu_0, # of connection points: 7
#     Node 3, Type 0, BuildingBlock: HICVOG_clean_sbu_0, # of connection points: 7
#     Node 4, Type 0, BuildingBlock: HICVOG_clean_sbu_0, # of connection points: 7
#     Node 5, Type 0, BuildingBlock: HICVOG_clean_sbu_0, # of connection points: 7
#     Node 6, Type 0, BuildingBlock: HICVOG_clean_sbu_0, # of connection points: 7
#     Node 7, Type 0, BuildingBlock: HICVOG_clean_sbu_0, # of connection points: 7
#     Edge 8, Type (0, 0), BuildingBlock: ZUJKAS_clean_linker_0, # of connection points: 2
#     Edge 9, Type (0, 0), BuildingBlock: ZUJKAS_clean_linker_0, # of connection points: 2
#     Edge 10, Type (0, 0), BuildingBlock: ZUJKAS_clean_linker_0, # of connection points: 2
#     Edge 11, Type (0, 0), BuildingBlock: ZUJKAS_clean_linker_0, # of connection points: 2
#     Edge 12, Type (0, 0), BuildingBlock: ZUJKAS_clean_linker_0, # of connection points: 2
#     Edge 13, Type (0, 0), BuildingBlock: ZUJKAS_clean_linker_0, # of connection points: 2
#     Edge 14, Type (0, 0), BuildingBlock: ZUJKAS_clean_linker_0, # of connection points: 2
#     Edge 15, Type (0, 0), BuildingBlock: ZUJKAS_clean_linker_0, # of connection points: 2
#     Edge 16, Type (0, 0), BuildingBlock: ZUJKAS_clean_linker_0, # of connection points: 2
#     Edge 17, Type (0, 0), BuildingBlock: ZUJKAS_clean_linker_0, # of connection points: 2
#     Edge 18, Type (0, 0), BuildingBlock: ZUJKAS_clean_linker_0, # of connection points: 2
#     Edge 19, Type (0, 0), BuildingBlock: ZUJKAS_clean_linker_0, # of connection points: 2
#     Edge 20, Type (0, 0), BuildingBlock: ZUJKAS_clean_linker_0, # of connection points: 2
#     Edge 21, Type (0, 0), BuildingBlock: ZUJKAS_clean_linker_0, # of connection points: 2
#     Edge 22, Type (0, 0), BuildingBlock: ZUJKAS_clean_linker_0, # of connection points: 2
#     Edge 23, Type (0, 0), BuildingBlock: ZUJKAS_clean_linker_0, # of connection points: 2
#     Edge 24, Type (0, 0), BuildingBlock: ZUJKAS_clean_linker_0, # of connection points: 2
#     Edge 25, Type (0, 0), BuildingBlock: ZUJKAS_clean_linker_0, # of connection points: 2
#     Edge 26, Type (0, 0), BuildingBlock: ZUJKAS_clean_linker_0, # of connection points: 2
#     Edge 27, Type (0, 0), BuildingBlock: ZUJKAS_clean_linker_0, # of connection points: 2
#     Edge 28, Type (0, 0), BuildingBlock: ZUJKAS_clean_linker_0, # of connection points: 2
#     Edge 29, Type (0, 0), BuildingBlock: ZUJKAS_clean_linker_0, # of connection points: 2
#     Edge 30, Type (0, 0), BuildingBlock: ZUJKAS_clean_linker_0, # of connection points: 2
#     Edge 31, Type (0, 0), BuildingBlock: ZUJKAS_clean_linker_0, # of connection points: 2
#     Edge 32, Type (0, 0), BuildingBlock: ZUJKAS_clean_linker_0, # of connection points: 2
#     Edge 33, Type (0, 0), BuildingBlock: ZUJKAS_clean_linker_0, # of connection points: 2
#     Edge 34, Type (0, 0), BuildingBlock: ZUJKAS_clean_linker_0, # of connection points: 2
#     Edge 35, Type (0, 0), BuildingBlock: ZUJKAS_clean_linker_0, # of connection points: 2
# Relax obj value: 0.414
# Max RMSD: 0.287
# Mean RMSD: 0.287
data_MOF--net-wfu--node1-HICVOG_clean_sbu_0--edge1-ZUJKAS_clean_linker_0
_symmetry_space_group_name_H-M    P1
_symmetry_Int_Tables_number       1
_symmetry_cell_setting            triclinic
loop_
_symmetry_equiv_pos_as_xyz
'x, y, z'
_cell_length_a     39.671456
_cell_length_b     39.706793
_cell_length_c     39.149717
_cell_angle_alpha  89.947398
_cell_angle_beta   90.056607
_cell_angle_gamma 89.839214
loop_
_atom_site_label
_atom_site_type_symbol
_atom_site_fract_x
_atom_site_fract_y
_atom_site_fract_z
_atom_type_partial_charge
Zn0 Zn 0.25291 0.3565 0.12745 0.0
C1 C 0.26537 0.36755 0.22934 0.0
N2 N 0.25962 0.33425 0.23009 0.0
C3 C 0.25688 0.32663 0.19679 0.0
N4 N 0.2605 0.35419 0.17663 0.0
N5 N 0.26595 0.37997 0.1974 0.0
C6 C 0.25386 0.47793 0.22685 0.0
O7 O 0.22613 0.4704 0.2102 0.0
O8 O 0.28988 0.33226 0.10117 0.0
Zn9 Zn 0.28321 0.42371 0.18499 0.0
N10 N 0.2096 0.33554 0.11916 0.0
C11 C 0.15546 0.31963 0.13963 0.0
C12 C 0.18718 0.33342 0.14533 0.0
C13 C 0.20116 0.32532 0.08717 0.0
N14 N 0.14695 0.3095 0.1077 0.0
C15 C 0.16882 0.31199 0.08104 0.0
O16 O 0.26354 0.44398 0.14283 0.0
C17 C 0.25299 0.43478 0.11368 0.0
O18 O 0.2496 0.40371 0.1062 0.0
H19 H 0.19362 0.3428 0.17037 0.0
H20 H 0.2191 0.32893 0.06673 0.0
C21 C 0.35067 0.41595 0.20412 0.0
C22 C 0.3856 0.41201 0.19973 0.0
C23 C 0.37693 0.40935 0.13956 0.0
C24 C 0.34251 0.41449 0.14422 0.0
N25 N 0.3302 0.41738 0.17642 0.0
N26 N 0.39756 0.40855 0.16725 0.0
H27 H 0.3393 0.41828 0.22898 0.0
C28 C 0.32003 0.33046 0.11217 0.0
O29 O 0.32697 0.34224 0.14269 0.0
O30 O 0.28003 0.45988 0.22215 0.0
H31 H 0.32569 0.41553 0.1225 0.0
H32 H 0.13746 0.3176 0.16026 0.0
H33 H 0.38727 0.40645 0.11417 0.0
Zn34 Zn 0.41715 0.73576 0.80591 0.0
C35 C 0.32451 0.77639 0.79236 0.0
N36 N 0.33571 0.77819 0.75997 0.0
C37 C 0.36769 0.76772 0.76245 0.0
N38 N 0.37611 0.75955 0.79461 0.0
N39 N 0.34917 0.76532 0.81395 0.0
C40 C 0.30894 0.70121 0.8737 0.0
O41 O 0.30707 0.69838 0.84032 0.0
O42 O 0.45552 0.74248 0.77117 0.0
Zn43 Zn 0.34937 0.76557 0.86429 0.0
N44 N 0.40567 0.68906 0.80647 0.0
C45 C 0.37252 0.64492 0.82976 0.0
C46 C 0.3841 0.67802 0.83088 0.0
C47 C 0.41728 0.66819 0.78169 0.0
N48 N 0.3836 0.62413 0.80462 0.0
C49 C 0.40592 0.63485 0.78058 0.0
O50 O 0.39603 0.76435 0.88711 0.0
C51 C 0.42681 0.75742 0.88084 0.0
O52 O 0.43613 0.74717 0.85165 0.0
H53 H 0.37576 0.69504 0.85064 0.0
H54 H 0.43461 0.67771 0.76268 0.0
C55 C 0.31777 0.8128 0.91015 0.0
C56 C 0.30603 0.8448 0.92032 0.0
C57 C 0.31901 0.86606 0.86518 0.0
C58 C 0.33171 0.83472 0.85574 0.0
N59 N 0.33035 0.80856 0.87814 0.0
N60 N 0.30671 0.87041 0.89717 0.0
H61 H 0.31726 0.79145 0.9273 0.0
C62 C 0.47966 0.76226 0.77867 0.0
O63 O 0.47717 0.78075 0.80636 0.0
O64 O 0.3239 0.72649 0.88673 0.0
H65 H 0.34283 0.83145 0.8308 0.0
H66 H 0.35501 0.63577 0.84876 0.0
H67 H 0.31957 0.88698 0.84748 0.0
Zn68 Zn 0.72858 0.59901 0.20246 0.0
C69 C 0.76602 0.69271 0.20118 0.0
N70 N 0.7688 0.68702 0.23487 0.0
C71 C 0.76111 0.65418 0.23735 0.0
N72 N 0.7538 0.64037 0.20685 0.0
N73 N 0.75658 0.66481 0.18395 0.0
C74 C 0.69113 0.6847 0.11816 0.0
O75 O 0.68404 0.66082 0.14022 0.0
O76 O 0.74516 0.56003 0.23246 0.0
Zn77 Zn 0.75681 0.66092 0.13474 0.0
N78 N 0.68446 0.60967 0.2196 0.0
C79 C 0.64401 0.65016 0.23782 0.0
C80 C 0.67362 0.64218 0.22047 0.0
C81 C 0.66689 0.58479 0.23524 0.0
N82 N 0.62652 0.62532 0.25367 0.0
C83 C 0.63711 0.59268 0.2528 0.0
O84 O 0.74742 0.61434 0.11581 0.0
C85 C 0.73514 0.58594 0.12424 0.0
O86 O 0.72643 0.57958 0.15483 0.0
H87 H 0.68836 0.66191 0.2088 0.0
H88 H 0.67676 0.55937 0.23495 0.0
C89 C 0.80943 0.68637 0.09048 0.0
C90 C 0.84333 0.69274 0.08167 0.0
C91 C 0.86042 0.67229 0.13609 0.0
C92 C 0.82708 0.66512 0.14415 0.0
N93 N 0.80224 0.67248 0.12136 0.0
N94 N 0.86773 0.68566 0.10513 0.0
H95 H 0.78885 0.69211 0.07335 0.0
C96 C 0.76247 0.53586 0.22016 0.0
O97 O 0.77377 0.53839 0.18874 0.0
O98 O 0.72194 0.69133 0.11213 0.0
H99 H 0.82108 0.6536 0.1684 0.0
H100 H 0.63519 0.67593 0.23904 0.0
H101 H 0.88042 0.66679 0.15406 0.0
Zn102 Zn 0.59636 0.27607 0.79917 0.0
C103 C 0.69598 0.25976 0.79546 0.0
N104 N 0.69017 0.26146 0.76171 0.0
C105 C 0.65636 0.26139 0.76003 0.0
N106 N 0.64193 0.26012 0.79111 0.0
N107 N 0.66695 0.25906 0.81368 0.0
C108 C 0.69556 0.31865 0.87892 0.0
O109 O 0.68986 0.32609 0.84675 0.0
O110 O 0.56069 0.26542 0.76285 0.0
Zn111 Zn 0.66291 0.25355 0.86306 0.0
N112 N 0.60023 0.32395 0.79928 0.0
C113 C 0.61755 0.37451 0.82626 0.0
C114 C 0.61443 0.33959 0.8265 0.0
C115 C 0.58865 0.34156 0.77195 0.0
N116 N 0.60507 0.39228 0.79941 0.0
C117 C 0.59023 0.37685 0.77218 0.0
O118 O 0.61551 0.25456 0.88282 0.0
C119 C 0.58461 0.25756 0.87456 0.0
O120 O 0.5758 0.26395 0.84407 0.0
H121 H 0.62317 0.32496 0.84807 0.0
H122 H 0.5781 0.32798 0.75059 0.0
C123 C 0.69084 0.20176 0.90596 0.0
C124 C 0.70094 0.16859 0.91394 0.0
C125 C 0.68823 0.1522 0.857 0.0
C126 C 0.6778 0.18489 0.84951 0.0
N127 N 0.6798 0.2091 0.87393 0.0
N128 N 0.69933 0.14481 0.88893 0.0
H129 H 0.69039 0.2214 0.92505 0.0
C130 C 0.53822 0.24309 0.7678 0.0
O131 O 0.54131 0.22292 0.79424 0.0
O132 O 0.68826 0.28937 0.88985 0.0
H133 H 0.66817 0.19094 0.82439 0.0
H134 H 0.62911 0.38746 0.84755 0.0
H135 H 0.68707 0.13271 0.83775 0.0
Zn136 Zn 0.75557 0.15857 0.36406 0.0
C137 C 0.76215 0.15284 0.26079 0.0
N138 N 0.76008 0.18654 0.26249 0.0
C139 C 0.75876 0.19217 0.29626 0.0
N140 N 0.76039 0.16316 0.3145 0.0
N141 N 0.76245 0.13833 0.29187 0.0
C142 C 0.74948 0.0372 0.26716 0.0
O143 O 0.72828 0.04148 0.29256 0.0
O144 O 0.79057 0.18529 0.39106 0.0
Zn145 Zn 0.78185 0.09424 0.29967 0.0
N146 N 0.71067 0.17423 0.37487 0.0
C147 C 0.65353 0.18126 0.35779 0.0
C148 C 0.68647 0.17153 0.35044 0.0
C149 C 0.7031 0.18541 0.40676 0.0
N150 N 0.64591 0.19248 0.38958 0.0
C151 C 0.6697 0.19485 0.41457 0.0
O152 O 0.77034 0.0727 0.34418 0.0
C153 C 0.76255 0.08033 0.37463 0.0
O154 O 0.75776 0.11082 0.38354 0.0
H155 H 0.69271 0.16184 0.32543 0.0
H156 H 0.72278 0.18562 0.42587 0.0
C157 C 0.84892 0.09318 0.27369 0.0
C158 C 0.88295 0.10242 0.27356 0.0
C159 C 0.87564 0.12944 0.32706 0.0
C160 C 0.84194 0.11965 0.3274 0.0
N161 N 0.82923 0.1023 0.30048 0.0
N162 N 0.89538 0.12057 0.30022 0.0
H163 H 0.83813 0.07915 0.25268 0.0
C164 C 0.81869 0.1959 0.37975 0.0
O165 O 0.82572 0.19218 0.34725 0.0
O166 O 0.77303 0.05856 0.26309 0.0
H167 H 0.82575 0.12628 0.34855 0.0
H168 H 0.63405 0.1795 0.33853 0.0
H169 H 0.88609 0.14376 0.34804 0.0
Zn170 Zn 0.10156 0.23962 0.69687 0.0
C171 C 0.19309 0.27986 0.69974 0.0
N172 N 0.1861 0.28256 0.73319 0.0
C173 C 0.15318 0.27483 0.73442 0.0
N174 N 0.14057 0.26744 0.70345 0.0
N175 N 0.16568 0.2707 0.6814 0.0
C176 C 0.17305 0.20229 0.60671 0.0
O177 O 0.14127 0.20064 0.61586 0.0
O178 O 0.06328 0.24773 0.73108 0.0
Zn179 Zn 0.16268 0.26935 0.63179 0.0
N180 N 0.11785 0.19446 0.70406 0.0
C181 C 0.16275 0.15468 0.70211 0.0
C182 C 0.14947 0.1861 0.69369 0.0
C183 C 0.09914 0.17291 0.72307 0.0
N184 N 0.14403 0.13306 0.72102 0.0
C185 C 0.11244 0.14124 0.73185 0.0
O186 O 0.11494 0.26652 0.6122 0.0
C187 C 0.08584 0.25584 0.62071 0.0
O188 O 0.07998 0.24471 0.65059 0.0
H189 H 0.1646 0.20395 0.67975 0.0
H190 H 0.07469 0.181 0.73212 0.0
C191 C 0.19411 0.31581 0.58453 0.0
C192 C 0.20662 0.34749 0.57449 0.0
C193 C 0.19289 0.36935 0.62913 0.0
C194 C 0.1797 0.33828 0.63858 0.0
N195 N 0.18108 0.31194 0.6164 0.0
N196 N 0.20593 0.37326 0.5974 0.0
H197 H 0.19467 0.29445 0.56741 0.0
C198 C 0.04054 0.26977 0.72544 0.0
O199 O 0.04404 0.29011 0.6992 0.0
O200 O 0.18895 0.22973 0.61148 0.0
H201 H 0.16837 0.3353 0.66346 0.0
H202 H 0.18788 0.14767 0.69405 0.0
H203 H 0.19234 0.39036 0.64669 0.0
Zn204 Zn 0.26555 0.85322 0.37193 0.0
C205 C 0.26786 0.86473 0.26917 0.0
N206 N 0.27475 0.83159 0.26978 0.0
C207 C 0.27148 0.824 0.30305 0.0
N208 N 0.26305 0.85133 0.32197 0.0
N209 N 0.26053 0.87699 0.30031 0.0
C210 C 0.24275 0.98745 0.28517 0.0
O211 O 0.22515 0.98813 0.31358 0.0
O212 O 0.22794 0.82767 0.39604 0.0
Zn213 Zn 0.2424 0.9215 0.30932 0.0
N214 N 0.30879 0.83354 0.38372 0.0
C215 C 0.36596 0.82375 0.36827 0.0
C216 C 0.33427 0.83693 0.36078 0.0
C217 C 0.31397 0.8182 0.41436 0.0
N218 N 0.37128 0.80873 0.39892 0.0
C219 C 0.34633 0.80579 0.42261 0.0
O220 O 0.2548 0.93954 0.3551 0.0
C221 C 0.26229 0.931 0.38539 0.0
O222 O 0.26578 0.90016 0.39375 0.0
H223 H 0.33006 0.84987 0.33686 0.0
H224 H 0.29304 0.81597 0.43187 0.0
C225 C 0.1773 0.9284 0.28054 0.0
C226 C 0.14198 0.92721 0.28014 0.0
C227 C 0.14294 0.903 0.33572 0.0
C228 C 0.17794 0.90562 0.33642 0.0
N229 N 0.19432 0.91771 0.30863 0.0
N230 N 0.12582 0.91409 0.30782 0.0
H231 H 0.19136 0.93808 0.25908 0.0
C232 C 0.19816 0.82315 0.38486 0.0
O233 O 0.19061 0.83288 0.35373 0.0
O234 O 0.25475 0.9592 0.27527 0.0
H235 H 0.19204 0.89817 0.35886 0.0
H236 H 0.38637 0.82593 0.3501 0.0
H237 H 0.12943 0.89296 0.35743 0.0
Zn238 Zn 0.91422 0.78311 0.70055 0.0
C239 C 0.82296 0.74123 0.70468 0.0
N240 N 0.83002 0.74031 0.73822 0.0
C241 C 0.86257 0.74927 0.73923 0.0
N242 N 0.8751 0.75549 0.70797 0.0
N243 N 0.85017 0.75049 0.68593 0.0
C244 C 0.84337 0.81491 0.60846 0.0
O245 O 0.87401 0.81806 0.62073 0.0
O246 O 0.95313 0.77593 0.73453 0.0
Zn247 Zn 0.85415 0.74907 0.63617 0.0
N248 N 0.8982 0.82835 0.70701 0.0
C249 C 0.85402 0.86891 0.70472 0.0
C250 C 0.86646 0.83695 0.69712 0.0
C251 C 0.91768 0.85002 0.72502 0.0
N252 N 0.8735 0.89063 0.72273 0.0
C253 C 0.90498 0.88194 0.73356 0.0
O254 O 0.90193 0.7522 0.61693 0.0
C255 C 0.93041 0.76459 0.62509 0.0
O256 O 0.93555 0.77736 0.65438 0.0
H257 H 0.85073 0.81899 0.68397 0.0
H258 H 0.94277 0.84226 0.73251 0.0
C259 C 0.8254 0.69908 0.5911 0.0
C260 C 0.81583 0.66605 0.58203 0.0
C261 C 0.82972 0.64766 0.6381 0.0
C262 C 0.84023 0.67999 0.64643 0.0
N263 N 0.83752 0.70515 0.62299 0.0
N264 N 0.81806 0.64143 0.60619 0.0
H265 H 0.82365 0.71982 0.57331 0.0
C266 C 0.97773 0.75666 0.72687 0.0
O267 O 0.97558 0.73828 0.69907 0.0
O268 O 0.8282 0.78693 0.6123 0.0
H269 H 0.85081 0.68485 0.67137 0.0
H270 H 0.82893 0.87626 0.69678 0.0
H271 H 0.83146 0.62747 0.65659 0.0
H272 H 0.10438 0.31299 0.0568 0.0
H273 H 0.08514 0.30182 0.99847 0.0
H274 H 0.1871 0.27911 0.96828 0.0
H275 H 0.20664 0.28936 0.02644 0.0
H276 H 0.14278 0.33579 0.93133 0.0
H277 H 0.09001 0.20611 0.9401 0.0
H278 H 0.08333 0.23632 0.97392 0.0
H279 H 0.12448 0.21889 0.96732 0.0
C280 C 0.12272 0.30516 0.0379 0.0
C281 C 0.15721 0.3028 0.04624 0.0
C282 C 0.1116 0.2988 0.00464 0.0
C283 C 0.13476 0.28973 0.97932 0.0
C284 C 0.16895 0.28621 0.98767 0.0
H285 H 0.17125 0.23069 0.78311 0.0
H286 H 0.15445 0.2326 0.84309 0.0
C287 C 0.1801 0.29248 0.02086 0.0
C288 C 0.12415 0.28646 0.94341 0.0
H289 H 0.09575 0.22955 0.88496 0.0
C290 C 0.1318 0.31291 0.92112 0.0
C291 C 0.10983 0.25654 0.93061 0.0
C292 C 0.10131 0.22767 0.95405 0.0
C293 C 0.1274 0.30953 0.8858 0.0
C294 C 0.11451 0.27893 0.87262 0.0
C295 C 0.10519 0.25308 0.89521 0.0
C296 C 0.11673 0.27144 0.83571 0.0
C297 C 0.13897 0.33777 0.86278 0.0
C298 C 0.09964 0.29123 0.81142 0.0
C299 C 0.10945 0.29027 0.7771 0.0
C300 C 0.13594 0.26912 0.76692 0.0
C301 C 0.15062 0.24704 0.7906 0.0
C302 C 0.14095 0.24805 0.82476 0.0
H303 H 0.15256 0.35776 0.87704 0.0
H304 H 0.15591 0.32795 0.84252 0.0
H305 H 0.11677 0.34948 0.8502 0.0
H306 H 0.08063 0.3092 0.8194 0.0
H307 H 0.0982 0.3078 0.75917 0.0
H308 H 0.26184 0.89345 0.94085 0.0
H309 H 0.24616 0.90868 0.9993 0.0
H310 H 0.3092 0.82875 0.03818 0.0
H311 H 0.32536 0.81356 0.98027 0.0
H312 H 0.24359 0.8324 0.06756 0.0
H313 H 0.30996 0.95582 0.06854 0.0
H314 H 0.2806 0.94839 0.03432 0.0
H315 H 0.31856 0.92385 0.03694 0.0
C316 C 0.27227 0.87899 0.96183 0.0
C317 C 0.29457 0.852 0.95567 0.0
C318 C 0.26337 0.88785 0.99518 0.0
C319 C 0.27679 0.87004 0.02297 0.0
C320 C 0.29851 0.84275 0.01698 0.0
H321 H 0.3194 0.88361 0.22914 0.0
H322 H 0.3157 0.8945 0.16776 0.0
C323 C 0.30745 0.83387 0.98371 0.0
C324 C 0.26855 0.87954 0.05851 0.0
H325 H 0.28453 0.93851 0.11986 0.0
C326 C 0.25198 0.85583 0.07895 0.0
C327 C 0.27976 0.9101 0.07311 0.0
C328 C 0.29841 0.93603 0.05229 0.0
C329 C 0.24765 0.86109 0.11405 0.0
C330 C 0.25962 0.89129 0.12895 0.0
C331 C 0.27498 0.91566 0.10822 0.0
C332 C 0.26115 0.89517 0.16651 0.0
C333 C 0.23227 0.83325 0.13522 0.0
C334 C 0.23173 0.89416 0.18643 0.0
C335 C 0.23391 0.88777 0.2215 0.0
C336 C 0.26548 0.88326 0.23697 0.0
C337 C 0.29485 0.88773 0.21769 0.0
C338 C 0.29271 0.89386 0.18267 0.0
H339 H 0.22951 0.80948 0.12054 0.0
H340 H 0.24795 0.82802 0.15814 0.0
H341 H 0.20687 0.84114 0.14398 0.0
H342 H 0.20715 0.89536 0.17443 0.0
H343 H 0.21102 0.8831 0.23573 0.0
H344 H 0.92092 0.72124 0.76283 0.0
H345 H 0.93899 0.7199 0.82288 0.0
H346 H 0.85736 0.78723 0.84897 0.0
H347 H 0.84084 0.79011 0.78909 0.0
H348 H 0.9097 0.79495 0.8925 0.0
H349 H 0.87789 0.65908 0.87662 0.0
H350 H 0.91338 0.67418 0.85279 0.0
H351 H 0.87168 0.68912 0.84274 0.0
C352 C 0.90815 0.73711 0.78124 0.0
C353 C 0.87969 0.75589 0.77167 0.0
C354 C 0.91811 0.73597 0.81554 0.0
C355 C 0.89886 0.75265 0.84052 0.0
C356 C 0.87252 0.77403 0.83023 0.0
H357 H 0.80807 0.6903 0.02045 0.0
H358 H 0.82768 0.70734 0.96451 0.0
C359 C 0.86299 0.77558 0.79606 0.0
C360 C 0.9013 0.7436 0.87716 0.0
H361 H 0.88178 0.67964 0.93191 0.0
C362 C 0.9043 0.76961 0.90128 0.0
C363 C 0.89384 0.71052 0.88845 0.0
C364 C 0.88876 0.6816 0.86391 0.0
C365 C 0.89781 0.76392 0.93608 0.0
C366 C 0.8889 0.73118 0.94697 0.0
C367 C 0.88836 0.70475 0.92328 0.0
C368 C 0.87664 0.72407 0.98192 0.0
C369 C 0.8983 0.79334 0.96045 0.0
C370 C 0.89748 0.72832 0.01047 0.0
C371 C 0.88602 0.71925 0.04294 0.0
C372 C 0.85362 0.70541 0.04746 0.0
C373 C 0.83274 0.70162 0.01864 0.0
C374 C 0.84411 0.71099 0.98633 0.0
H375 H 0.89934 0.81787 0.94682 0.0
H376 H 0.87563 0.79312 0.97706 0.0
H377 H 0.92085 0.79139 0.97711 0.0
H378 H 0.92289 0.73779 0.00757 0.0
H379 H 0.90291 0.72249 0.06443 0.0
H380 H 0.80627 0.16568 0.21027 0.0
H381 H 0.79871 0.15126 0.15008 0.0
H382 H 0.71445 0.08798 0.1765 0.0
H383 H 0.72175 0.10293 0.23695 0.0
H384 H 0.78993 0.0922 0.10638 0.0
H385 H 0.67439 0.17057 0.12432 0.0
H386 H 0.70706 0.16817 0.15629 0.0
H387 H 0.67853 0.13361 0.15057 0.0
C388 C 0.78706 0.14759 0.20332 0.0
C389 C 0.76466 0.13523 0.22799 0.0
C390 C 0.78277 0.13933 0.16899 0.0
C391 C 0.75573 0.11897 0.15887 0.0
C392 C 0.73535 0.10389 0.18388 0.0
H393 H 0.69746 0.10588 0.94226 0.0
H394 H 0.71146 0.08902 0.00068 0.0
C395 C 0.7397 0.11215 0.21836 0.0
C396 C 0.74559 0.11918 0.1225 0.0
H397 H 0.68916 0.15648 0.06837 0.0
C398 C 0.76755 0.10561 0.09798 0.0
C399 C 0.71666 0.1373 0.11175 0.0
C400 C 0.69281 0.1535 0.13696 0.0
C401 C 0.76171 0.11045 0.06288 0.0
C402 C 0.73335 0.12939 0.05234 0.0
C403 C 0.71086 0.14197 0.07676 0.0
C404 C 0.72762 0.1386 0.01624 0.0
C405 C 0.78655 0.09674 0.03728 0.0
C406 C 0.73233 0.17202 0.00575 0.0
C407 C 0.72451 0.18182 0.9724 0.0
C408 C 0.71132 0.15839 0.94899 0.0
C409 C 0.7075 0.12465 0.95952 0.0
C410 C 0.7155 0.11488 0.99288 0.0
H411 H 0.80869 0.08471 0.04975 0.0
H412 H 0.7739 0.07775 0.02093 0.0
H413 H 0.79549 0.11731 0.02034 0.0
H414 H 0.7418 0.19063 0.02354 0.0
H415 H 0.72888 0.20774 0.96518 0.0
H416 H 0.60722 0.18986 0.44314 0.0
H417 H 0.59023 0.20419 0.50141 0.0
H418 H 0.69106 0.23799 0.52331 0.0
H419 H 0.70825 0.22473 0.4651 0.0
H420 H 0.6582 0.18445 0.56893 0.0
H421 H 0.58398 0.30229 0.54912 0.0
H422 H 0.57804 0.26715 0.52058 0.0
H423 H 0.61701 0.2898 0.51996 0.0
C424 C 0.62577 0.20073 0.46016 0.0
C425 C 0.65934 0.20542 0.44945 0.0
C426 C 0.61592 0.20891 0.49342 0.0
C427 C 0.63942 0.22209 0.51646 0.0
C428 C 0.67264 0.22769 0.50576 0.0
H429 H 0.66767 0.30444 0.70811 0.0
H430 H 0.65236 0.29531 0.64836 0.0
C431 C 0.6825 0.21968 0.47252 0.0
C432 C 0.63028 0.228 0.55249 0.0
H433 H 0.59294 0.28475 0.60598 0.0
C434 C 0.64345 0.20602 0.57713 0.0
C435 C 0.61102 0.25618 0.56276 0.0
C436 C 0.59664 0.28042 0.53689 0.0
C437 C 0.63916 0.21225 0.61206 0.0
C438 C 0.62081 0.24109 0.62253 0.0
C439 C 0.60655 0.26245 0.5978 0.0
C440 C 0.62114 0.25189 0.65867 0.0
C441 C 0.65608 0.18904 0.63746 0.0
C442 C 0.60697 0.2317 0.68438 0.0
C443 C 0.61578 0.23691 0.71859 0.0
C444 C 0.63846 0.26256 0.72727 0.0
C445 C 0.64991 0.28467 0.7019 0.0
C446 C 0.64113 0.2795 0.66782 0.0
H447 H 0.67324 0.17068 0.62491 0.0
H448 H 0.67086 0.20376 0.65633 0.0
H449 H 0.63659 0.17469 0.65158 0.0
H450 H 0.59133 0.21036 0.67775 0.0
H451 H 0.60728 0.21915 0.73773 0.0
H452 H 0.25658 0.3906 0.55594 0.0
H453 H 0.27551 0.40447 0.49813 0.0
H454 H 0.20328 0.33458 0.45652 0.0
H455 H 0.18458 0.32027 0.51403 0.0
H456 H 0.26456 0.32784 0.42764 0.0
H457 H 0.22672 0.46268 0.42851 0.0
H458 H 0.25504 0.4505 0.46218 0.0
H459 H 0.21321 0.43328 0.46086 0.0
C460 C 0.24483 0.37812 0.53443 0.0
C461 C 0.21935 0.35407 0.5396 0.0
C462 C 0.25549 0.38628 0.50144 0.0
C463 C 0.24042 0.37098 0.47303 0.0
C464 C 0.21524 0.34671 0.47814 0.0
H465 H 0.21897 0.40448 0.26277 0.0
H466 H 0.21931 0.41356 0.32459 0.0
C467 C 0.20478 0.33831 0.51108 0.0
C468 C 0.25121 0.37937 0.43784 0.0
H469 H 0.25393 0.44274 0.37875 0.0
C470 C 0.26252 0.35301 0.41701 0.0
C471 C 0.24827 0.41225 0.42407 0.0
C472 C 0.23488 0.4413 0.4449 0.0
C473 C 0.26991 0.35823 0.38246 0.0
C474 C 0.26714 0.39112 0.3686 0.0
C475 C 0.25664 0.41774 0.38963 0.0
C476 C 0.27093 0.39697 0.33144 0.0
C477 C 0.27873 0.32798 0.36078 0.0
C478 C 0.30066 0.38743 0.31457 0.0
C479 C 0.30022 0.38166 0.2794 0.0
C480 C 0.2705 0.38678 0.2607 0.0
C481 C 0.24229 0.40091 0.27678 0.0
C482 C 0.24246 0.40596 0.31208 0.0
H483 H 0.27265 0.30388 0.3738 0.0
H484 H 0.265 0.3287 0.33607 0.0
H485 H 0.30618 0.32803 0.35537 0.0
H486 H 0.3231 0.38108 0.32901 0.0
H487 H 0.32205 0.3702 0.26746 0.0
H488 H 0.39745 0.76215 0.438 0.0
H489 H 0.41446 0.74136 0.49432 0.0
H490 H 0.3322 0.79594 0.54038 0.0
H491 H 0.31533 0.8173 0.48478 0.0
H492 H 0.43345 0.78046 0.55128 0.0
H493 H 0.32321 0.70082 0.58084 0.0
H494 H 0.33308 0.71437 0.53794 0.0
H495 H 0.31087 0.74202 0.56663 0.0
C496 C 0.38272 0.76949 0.46006 0.0
C497 C 0.35459 0.791 0.45653 0.0
C498 C 0.39252 0.75754 0.4922 0.0
C499 C 0.37425 0.76664 0.52137 0.0
C500 C 0.34612 0.78789 0.51801 0.0
H501 H 0.39475 0.81438 0.72113 0.0
H502 H 0.40891 0.80592 0.66118 0.0
C503 C 0.33637 0.79996 0.486 0.0
C504 C 0.38531 0.75579 0.55579 0.0
H505 H 0.35428 0.7222 0.62926 0.0
C506 C 0.41655 0.767 0.56821 0.0
C507 C 0.36372 0.73744 0.57755 0.0
C508 C 0.33101 0.72264 0.56495 0.0
C509 C 0.42529 0.76304 0.60277 0.0
C510 C 0.40194 0.74801 0.62536 0.0
C511 C 0.37217 0.73402 0.61212 0.0
C512 C 0.40458 0.75154 0.66299 0.0
C513 C 0.45886 0.77611 0.61496 0.0
C514 C 0.39857 0.72377 0.68443 0.0
C515 C 0.39019 0.72876 0.71874 0.0
C516 C 0.38812 0.76146 0.73201 0.0
C517 C 0.39708 0.7889 0.71149 0.0
C518 C 0.40533 0.78399 0.67723 0.0
H519 H 0.47826 0.77354 0.59467 0.0
H520 H 0.45645 0.80331 0.62101 0.0
H521 H 0.46768 0.76262 0.63819 0.0
H522 H 0.39742 0.69856 0.67393 0.0
H523 H 0.38201 0.70745 0.73382 0.0
H524 H 0.77993 0.61066 0.56289 0.0
H525 H 0.76673 0.59168 0.50511 0.0
H526 H 0.81313 0.68093 0.46386 0.0
H527 H 0.82806 0.6993 0.52088 0.0
H528 H 0.72925 0.6179 0.45435 0.0
H529 H 0.86131 0.60775 0.41188 0.0
H530 H 0.85009 0.61295 0.45625 0.0
H531 H 0.85327 0.64904 0.42846 0.0
C532 C 0.78743 0.62632 0.54156 0.0
C533 C 0.80503 0.65666 0.54692 0.0
C534 C 0.77977 0.61538 0.50855 0.0
C535 C 0.78964 0.6345 0.48021 0.0
C536 C 0.80604 0.66534 0.48539 0.0
H537 H 0.72156 0.67607 0.28826 0.0
H538 H 0.7241 0.6587 0.34781 0.0
C539 C 0.81399 0.67617 0.5183 0.0
C540 C 0.78258 0.62274 0.44505 0.0
H541 H 0.81973 0.61572 0.36707 0.0
C542 C 0.74908 0.61671 0.43533 0.0
C543 C 0.80853 0.61973 0.4205 0.0
C544 C 0.84533 0.62231 0.42994 0.0
C545 C 0.74057 0.61102 0.401 0.0
C546 C 0.76612 0.61243 0.37584 0.0
C547 C 0.79993 0.61516 0.38614 0.0
C548 C 0.75841 0.61697 0.33905 0.0
C549 C 0.70418 0.60457 0.39202 0.0
C550 C 0.77664 0.59927 0.31398 0.0
C551 C 0.77578 0.60986 0.27989 0.0
C552 C 0.75627 0.63784 0.2705 0.0
C553 C 0.73639 0.65408 0.29504 0.0
C554 C 0.73752 0.64385 0.32903 0.0
H555 H 0.69171 0.58964 0.41241 0.0
H556 H 0.69059 0.62897 0.3901 0.0
H557 H 0.70164 0.59092 0.36741 0.0
H558 H 0.79325 0.57874 0.32114 0.0
H559 H 0.79212 0.59774 0.26145 0.0
H560 H 0.59287 0.25847 0.94424 0.0
H561 H 0.54882 0.26407 0.98773 0.0
H562 H 0.47263 0.26145 0.90919 0.0
H563 H 0.51624 0.25572 0.86566 0.0
H564 H 0.50212 0.31832 0.98954 0.0
H565 H 0.43622 0.19555 0.9815 0.0
H566 H 0.47825 0.20187 0.965 0.0
H567 H 0.44222 0.21607 0.94106 0.0
C568 C 0.56672 0.25843 0.93625 0.0
C569 C 0.55816 0.2567 0.9014 0.0
C570 C 0.54158 0.26172 0.96115 0.0
C571 C 0.50743 0.26286 0.95174 0.0
C572 C 0.49877 0.26005 0.91712 0.0
H573 H 0.31589 0.30942 0.0456 0.0
H574 H 0.36219 0.29176 0.00834 0.0
C575 C 0.52382 0.25696 0.89222 0.0
C576 C 0.48097 0.26989 0.97761 0.0
H577 H 0.40793 0.23937 0.01178 0.0
C578 C 0.48173 0.30091 0.99474 0.0
C579 C 0.45424 0.24727 0.98408 0.0
C580 C 0.45271 0.21318 0.96719 0.0
C581 C 0.45595 0.3104 0.01739 0.0
C582 C 0.42905 0.28786 0.02374 0.0
C583 C 0.42854 0.25662 0.00693 0.0
C584 C 0.40082 0.2967 0.04707 0.0
C585 C 0.45714 0.34502 0.03324 0.0
C586 C 0.40697 0.30455 0.08147 0.0
C587 C 0.38061 0.31486 0.10277 0.0
C588 C 0.34744 0.31714 0.09021 0.0
C589 C 0.34113 0.30802 0.05609 0.0
C590 C 0.36758 0.29789 0.03475 0.0
H591 H 0.4741 0.36219 0.01892 0.0
H592 H 0.43163 0.35655 0.03426 0.0
H593 H 0.46688 0.34294 0.05974 0.0
H594 H 0.43227 0.30305 0.09179 0.0
H595 H 0.38635 0.32147 0.12897 0.0
H596 H 0.246 0.42653 0.04409 0.0
H597 H 0.24947 0.47059 0.00013 0.0
H598 H 0.25512 0.54642 0.07856 0.0
H599 H 0.25169 0.50299 0.12246 0.0
H600 H 0.21009 0.53553 0.98877 0.0
H601 H 0.34519 0.55298 0.02165 0.0
H602 H 0.32194 0.51572 0.03348 0.0
H603 H 0.31659 0.55405 0.05722 0.0
C604 C 0.24727 0.45263 0.05199 0.0
C605 C 0.24895 0.46111 0.08688 0.0
C606 C 0.24932 0.47776 0.02681 0.0
C607 C 0.25311 0.51169 0.03613 0.0
C608 C 0.25267 0.52035 0.07083 0.0
H609 H 0.30617 0.70076 0.94347 0.0
H610 H 0.29001 0.65431 0.98086 0.0
C611 C 0.25065 0.4954 0.09591 0.0
C612 C 0.26002 0.53799 0.01006 0.0
H613 H 0.32089 0.59303 0.9842 0.0
C614 C 0.23435 0.54798 0.98749 0.0
C615 C 0.29173 0.55412 0.00847 0.0
C616 C 0.32061 0.54358 0.03126 0.0
C617 C 0.23923 0.57459 0.96416 0.0
C618 C 0.27081 0.59114 0.96303 0.0
C619 C 0.29662 0.58054 0.98517 0.0
C620 C 0.27772 0.62003 0.93979 0.0
C621 C 0.2102 0.5855 0.9418 0.0
C622 C 0.27598 0.61643 0.90413 0.0
C623 C 0.28507 0.64312 0.88257 0.0
C624 C 0.29646 0.67383 0.89627 0.0
C625 C 0.29759 0.6775 0.93199 0.0
C626 C 0.28837 0.65091 0.95345 0.0
H627 H 0.18567 0.57625 0.9517 0.0
H628 H 0.20905 0.61337 0.9397 0.0
H629 H 0.21377 0.57504 0.91578 0.0
H630 H 0.26855 0.59266 0.89291 0.0
H631 H 0.2841 0.63934 0.8552 0.0
H632 H 0.41695 0.7567 0.95041 0.0
H633 H 0.46031 0.75189 0.99505 0.0
H634 H 0.538 0.75618 0.91833 0.0
H635 H 0.49517 0.76056 0.87374 0.0
H636 H 0.51204 0.69622 0.99313 0.0
H637 H 0.56782 0.82444 0.99575 0.0
H638 H 0.52538 0.81652 0.98096 0.0
H639 H 0.56068 0.80637 0.95423 0.0
C640 C 0.44327 0.75725 0.94311 0.0
C641 C 0.45253 0.75895 0.90846 0.0
C642 C 0.468 0.75442 0.96863 0.0
C643 C 0.50237 0.75395 0.96 0.0
C644 C 0.51166 0.75692 0.9256 0.0
H645 H 0.69548 0.71816 0.05691 0.0
H646 H 0.64868 0.73671 0.02042 0.0
C647 C 0.48706 0.75928 0.90012 0.0
C648 C 0.52857 0.74729 0.98631 0.0
H649 H 0.59757 0.78144 0.02536 0.0
C650 C 0.53051 0.71494 0.00057 0.0
C651 C 0.55293 0.7716 0.99544 0.0
C652 C 0.55166 0.80681 0.98105 0.0
C653 C 0.55672 0.70588 0.02299 0.0
C654 C 0.58112 0.73024 0.03238 0.0
C655 C 0.57888 0.76279 0.01836 0.0
C656 C 0.60957 0.72201 0.05593 0.0
C657 C 0.55876 0.66982 0.03511 0.0
C658 C 0.60334 0.70878 0.0886 0.0
C659 C 0.62998 0.69778 0.10926 0.0
C660 C 0.66354 0.70045 0.09805 0.0
C661 C 0.66992 0.71572 0.06628 0.0
C662 C 0.64316 0.72629 0.04538 0.0
H663 H 0.54455 0.65258 0.01805 0.0
H664 H 0.58531 0.66099 0.03649 0.0
H665 H 0.54754 0.66794 0.06099 0.0
H666 H 0.57776 0.70623 0.09786 0.0
H667 H 0.62422 0.68657 0.1338 0.0
H668 H 0.71164 0.38422 0.86466 0.0
H669 H 0.72247 0.42968 0.90532 0.0
H670 H 0.71132 0.35986 0.98896 0.0
H671 H 0.70128 0.31417 0.94854 0.0
H672 H 0.67991 0.45363 0.9533 0.0
H673 H 0.79621 0.40799 0.01675 0.0
H674 H 0.78072 0.38992 0.9775 0.0
H675 H 0.76284 0.37763 0.01786 0.0
C676 C 0.71211 0.37838 0.89168 0.0
C677 C 0.70571 0.34546 0.90328 0.0
C678 C 0.7182 0.40446 0.91492 0.0
C679 C 0.71814 0.39821 0.95025 0.0
C680 C 0.71232 0.36525 0.96186 0.0
H681 H 0.7185 0.51964 0.13398 0.0
H682 H 0.71458 0.47513 0.09103 0.0
C683 C 0.7064 0.33912 0.93865 0.0
C684 C 0.72191 0.42649 0.97494 0.0
H685 H 0.76692 0.45305 0.04438 0.0
C686 C 0.69917 0.45364 0.97298 0.0
C687 C 0.74697 0.42654 0.00073 0.0
C688 C 0.77328 0.39912 0.00319 0.0
C689 C 0.70028 0.48033 0.99653 0.0
C690 C 0.72499 0.48007 0.02259 0.0
C691 C 0.7479 0.45312 0.02445 0.0
C692 C 0.72721 0.50739 0.04842 0.0
C693 C 0.67445 0.50818 0.99394 0.0
C694 C 0.73584 0.54031 0.03876 0.0
C695 C 0.73819 0.56588 0.06327 0.0
C696 C 0.73192 0.55904 0.09799 0.0
C697 C 0.72329 0.52595 0.10751 0.0
C698 C 0.72115 0.5004 0.08301 0.0
H699 H 0.653 0.50116 0.97714 0.0
H700 H 0.66449 0.51477 0.01958 0.0
H701 H 0.68652 0.53097 0.98309 0.0
H702 H 0.74107 0.54617 0.01227 0.0
H703 H 0.74502 0.59099 0.05498 0.0
H704 H 0.81534 0.20064 0.44958 0.0
H705 H 0.86055 0.21613 0.48897 0.0
H706 H 0.92663 0.23507 0.40375 0.0
H707 H 0.88177 0.21899 0.36416 0.0
H708 H 0.95623 0.19537 0.45171 0.0
H709 H 0.89943 0.30665 0.51481 0.0
H710 H 0.87298 0.27011 0.51656 0.0
H711 H 0.88256 0.28901 0.47592 0.0
C712 C 0.83933 0.20857 0.43915 0.0
C713 C 0.84485 0.20861 0.40364 0.0
C714 C 0.86514 0.21762 0.46176 0.0
C715 C 0.89693 0.22725 0.44938 0.0
C716 C 0.9023 0.22789 0.41393 0.0
H717 H 0.08946 0.26926 0.55183 0.0
H718 H 0.04433 0.26434 0.50936 0.0
C719 C 0.87655 0.21876 0.39131 0.0
C720 C 0.92519 0.23444 0.47337 0.0
H721 H 0.94822 0.28298 0.54159 0.0
C722 C 0.95461 0.21479 0.47112 0.0
C723 C 0.9231 0.25973 0.49878 0.0
C724 C 0.89296 0.28281 0.50152 0.0
C725 C 0.98151 0.21902 0.49411 0.0
C726 C 0.97919 0.24394 0.51983 0.0
C727 C 0.94997 0.26388 0.52188 0.0
C728 C 1.00631 0.24875 0.54563 0.0
C729 C 0.01174 0.19602 0.49142 0.0
C730 C 0.99973 0.24261 0.58028 0.0
C731 C 0.0254 0.24547 0.60462 0.0
C732 C 0.05826 0.25479 0.59491 0.0
C733 C 0.06454 0.2619 0.56026 0.0
C734 C 0.03881 0.25892 0.53588 0.0
H735 H 1.00649 0.17364 0.47526 0.0
H736 H 0.03297 0.21002 0.47973 0.0
H737 H 0.01989 0.18728 0.51709 0.0
H738 H 0.97482 0.23489 0.58842 0.0
H739 H 0.01949 0.23999 0.63105 0.0
H740 H 0.14734 0.13917 0.60044 0.0
H741 H 0.16987 0.09211 0.56764 0.0
H742 H 0.25668 0.15144 0.54043 0.0
H743 H 0.23434 0.1989 0.57374 0.0
H744 H 0.18109 0.09461 0.49831 0.0
H745 H 0.29864 0.06007 0.56733 0.0
H746 H 0.26585 0.08548 0.58643 0.0
H747 H 0.2946 0.10388 0.55637 0.0
C748 C 0.17145 0.14221 0.58786 0.0
C749 C 0.18892 0.17295 0.58952 0.0
C750 C 0.18432 0.11518 0.56913 0.0
C751 C 0.21504 0.1181 0.55169 0.0
C752 C 0.23318 0.14838 0.55412 0.0
H753 H 0.26757 0.99869 0.37493 0.0
H754 H 0.2597 0.04365 0.41656 0.0
C755 C 0.2203 0.17556 0.57302 0.0
C756 C 0.22618 0.09042 0.52869 0.0
H757 H 0.28895 0.03292 0.51406 0.0
C758 C 0.20467 0.08113 0.50183 0.0
C759 C 0.2568 0.07263 0.53344 0.0
C760 C 0.28026 0.08072 0.5626 0.0
C761 C 0.21298 0.05481 0.47947 0.0
C762 C 0.24392 0.03749 0.48369 0.0
C763 C 0.26536 0.04641 0.51076 0.0
C764 C 0.25406 0.01024 0.45979 0.0
C765 C 0.18831 0.04545 0.45167 0.0
C766 C 0.25508 0.97649 0.47055 0.0
C767 C 0.25972 0.95049 0.4467 0.0
C768 C 0.26333 0.95793 0.41173 0.0
C769 C 0.26442 0.99194 0.40155 0.0
C770 C 0.25992 0.01776 0.42532 0.0
H771 H 0.16273 0.05578 0.45668 0.0
H772 H 0.19723 0.05583 0.42696 0.0
H773 H 0.18647 0.01767 0.44904 0.0
H774 H 0.25069 0.97018 0.49709 0.0
H775 H 0.25876 0.92462 0.45542 0.0
H776 H 0.20282 0.80997 0.45341 0.0
H777 H 0.15711 0.79534 0.49261 0.0
H778 H 0.08688 0.79425 0.40857 0.0
H779 H 0.13237 0.80908 0.3691 0.0
H780 H 0.09575 0.83712 0.49949 0.0
H781 H 0.06885 0.70445 0.46315 0.0
H782 H 0.10886 0.72434 0.45444 0.0
H783 H 0.07265 0.73453 0.42895 0.0
C784 C 0.17777 0.80615 0.44312 0.0
C785 C 0.1713 0.81073 0.40806 0.0
C786 C 0.15167 0.79784 0.4656 0.0
C787 C 0.11867 0.79348 0.45347 0.0
C788 C 0.11225 0.79707 0.41839 0.0
H789 H 0.92663 0.75491 0.55561 0.0
H790 H 0.972 0.76145 0.51362 0.0
C791 C 0.13829 0.80565 0.3959 0.0
C792 C 0.09063 0.78763 0.47785 0.0
H793 H 0.03241 0.72963 0.50354 0.0
C794 C 0.08195 0.81359 0.50049 0.0
C795 C 0.07244 0.75708 0.47875 0.0
C796 C 0.08115 0.72831 0.45523 0.0
C797 C 0.05539 0.80996 0.52389 0.0
C798 C 0.0376 0.77908 0.52545 0.0
C799 C 0.04609 0.75321 0.5025 0.0
C800 C 0.01043 0.77321 0.55099 0.0
C801 C 0.04616 0.83962 0.54614 0.0
C802 C 0.01708 0.77665 0.58604 0.0
C803 C 0.99122 0.77325 0.61001 0.0
C804 C 0.95813 0.76571 0.59957 0.0
C805 C 0.95178 0.76077 0.56455 0.0
C806 C 0.9777 0.76452 0.5405 0.0
H807 H 0.05475 0.86376 0.53477 0.0
H808 H 0.01851 0.8411 0.55026 0.0
H809 H 0.05865 0.83684 0.57136 0.0
H810 H 0.0423 0.78234 0.5949 0.0
H811 H 0.99719 0.77678 0.63677 0.0
H812 H 0.7597 0.08595 0.4447 0.0
H813 H 0.76672 0.04062 0.4868 0.0
H814 H 0.77119 0.96762 0.40553 0.0
H815 H 0.76448 0.01244 0.3634 0.0
H816 H 0.73085 0.97716 0.4998 0.0
H817 H 0.86288 0.9588 0.4562 0.0
H818 H 0.83848 0.99572 0.4453 0.0
H819 H 0.83166 0.95679 0.42299 0.0
C820 C 0.76167 0.0602 0.4358 0.0
C821 C 0.762 0.05296 0.4006 0.0
C822 C 0.76566 0.03433 0.45991 0.0
C823 C 0.77003 1.00084 0.44924 0.0
C824 C 0.7684 0.99335 0.41428 0.0
H825 H 0.78576 0.81484 0.56907 0.0
H826 H 0.76509 0.86047 0.53209 0.0
C827 C 0.76452 0.01908 0.39023 0.0
C828 C 0.77876 0.97401 0.47423 0.0
H829 H 0.842 0.91967 0.49633 0.0
C830 C 0.75513 0.96457 0.49914 0.0
C831 C 0.8106 0.95788 0.47351 0.0
C832 C 0.83754 0.96792 0.44829 0.0
C833 C 0.76243 0.93906 0.5231 0.0
C834 C 0.79405 0.92249 0.52188 0.0
C835 C 0.81768 0.93222 0.49712 0.0
C836 C 0.804 0.89581 0.54663 0.0
C837 C 0.73659 0.93048 0.54993 0.0
C838 C 0.83264 0.90046 0.5671 0.0
C839 C 0.84458 0.87449 0.58794 0.0
C840 C 0.82824 0.8431 0.58875 0.0
C841 C 0.79886 0.83874 0.5691 0.0
C842 C 0.78692 0.86485 0.54808 0.0
H843 H 0.71699 0.95039 0.55225 0.0
H844 H 0.72391 0.9066 0.54284 0.0
H845 H 0.74876 0.92679 0.57522 0.0
H846 H 0.84622 0.92409 0.56642 0.0
H847 H 0.86712 0.87887 0.60291 0.0
H848 H 0.45238 0.39594 0.19907 0.0
H849 H 0.49497 0.4141 0.23924 0.0
H850 H 0.41778 0.45119 0.30705 0.0
H851 H 0.37497 0.43484 0.26663 0.0
H852 H 0.4555 0.49978 0.28656 0.0
H853 H 0.54171 0.39988 0.32819 0.0
H854 H 0.53489 0.3949 0.28329 0.0
H855 H 0.49987 0.39072 0.31242 0.0
C856 C 0.44417 0.40716 0.22287 0.0
C857 C 0.40996 0.41463 0.22864 0.0
C858 C 0.46873 0.41698 0.24629 0.0
C859 C 0.45965 0.43399 0.27632 0.0
C860 C 0.42538 0.43802 0.28407 0.0
H861 H 0.60247 0.59708 0.31276 0.0
H862 H 0.56206 0.55623 0.33568 0.0
C863 C 0.40075 0.42857 0.26048 0.0
C864 C 0.48526 0.45487 0.29383 0.0
H865 H 0.56927 0.45439 0.31198 0.0
C866 C 0.48005 0.48985 0.29354 0.0
C867 C 0.51714 0.44199 0.30336 0.0
C868 C 0.52349 0.40474 0.30717 0.0
C869 C 0.50694 0.51225 0.29746 0.0
C870 C 0.53978 0.49916 0.30266 0.0
C871 C 0.54416 0.46435 0.30748 0.0
C872 C 0.56975 0.51994 0.29519 0.0
C873 C 0.50043 0.54939 0.29195 0.0
C874 C 0.58896 0.51205 0.26619 0.0
C875 C 0.61226 0.53497 0.2534 0.0
C876 C 0.61665 0.56632 0.26934 0.0
C877 C 0.59914 0.57326 0.29974 0.0
C878 C 0.57615 0.54998 0.31287 0.0
H879 H 0.47393 0.55472 0.28442 0.0
H880 H 0.50563 0.56329 0.31594 0.0
H881 H 0.51727 0.55942 0.27174 0.0
H882 H 0.58431 0.48908 0.25203 0.0
H883 H 0.62514 0.52898 0.22979 0.0
H884 H 0.37093 0.58906 0.74296 0.0
H885 H 0.39463 0.54234 0.70965 0.0
H886 H 0.49497 0.5784 0.73122 0.0
H887 H 0.47141 0.62592 0.76249 0.0
H888 H 0.49328 0.54663 0.67025 0.0
H889 H 0.42895 0.46863 0.76938 0.0
H890 H 0.4023 0.49234 0.7412 0.0
H891 H 0.42884 0.51387 0.7714 0.0
C892 C 0.398 0.58736 0.73968 0.0
C893 C 0.41942 0.61067 0.75557 0.0
C894 C 0.41149 0.56071 0.72077 0.0
C895 C 0.44658 0.5563 0.71888 0.0
C896 C 0.46781 0.58121 0.73238 0.0
H897 H 0.60466 0.44151 0.75459 0.0
H898 H 0.56807 0.48045 0.72411 0.0
C899 C 0.45434 0.60831 0.75041 0.0
C900 C 0.46166 0.52373 0.7085 0.0
H901 H 0.4721 0.44404 0.73906 0.0
C902 C 0.48811 0.52386 0.68462 0.0
C903 C 0.4547 0.49385 0.72701 0.0
C904 C 0.42734 0.492 0.75381 0.0
C905 C 0.50974 0.49602 0.68121 0.0
C906 C 0.50468 0.46755 0.70219 0.0
C907 C 0.47599 0.466 0.72304 0.0
C908 C 0.53166 0.44265 0.70915 0.0
C909 C 0.53887 0.49809 0.65663 0.0
C910 C 0.52408 0.40819 0.70997 0.0
C911 C 0.54462 0.38589 0.72816 0.0
C912 C 0.57328 0.39773 0.74573 0.0
C913 C 0.58263 0.43161 0.74172 0.0
C914 C 0.56196 0.45388 0.72371 0.0
H915 H 0.53188 0.51317 0.63376 0.0
H916 H 0.5603 0.51097 0.66928 0.0
H917 H 0.54731 0.47271 0.6483 0.0
H918 H 0.50065 0.39906 0.6992 0.0
H919 H 0.53612 0.36016 0.73075 0.0
H920 H 0.89141 0.03784 0.25337 0.0
H921 H 0.9401 0.01515 0.2232 0.0
H922 H 0.97507 0.11608 0.20293 0.0
H923 H 0.92745 0.13879 0.2357 0.0
H924 H 0.97551 0.01608 0.16528 0.0
H925 H 0.04636 0.08523 0.26663 0.0
H926 H 1.00109 0.08424 0.26614 0.0
H927 H 0.02365 0.11052 0.23646 0.0
C928 C 0.90901 0.05518 0.24167 0.0
C929 C 0.90627 0.08994 0.24731 0.0
C930 C 0.93679 0.04223 0.22427 0.0
C931 C 0.96189 0.0639 0.21182 0.0
C932 C 0.95667 0.09887 0.21344 0.0
H933 H 0.15951 0.9798 0.23735 0.0
H934 H 0.12146 0.01305 0.20233 0.0
C935 C 0.92945 0.11183 0.23193 0.0
C936 C 0.99544 0.0495 0.20367 0.0
H937 H 0.07362 0.04208 0.23904 0.0
C938 C 0.99732 0.02231 0.18074 0.0
C939 C 0.02411 0.05778 0.22363 0.0
C940 C 0.02384 0.08585 0.24974 0.0
C941 C 0.0258 1.00124 0.17978 0.0
C942 C 0.05294 0.00773 0.20215 0.0
C943 C 0.05267 0.03712 0.22195 0.0
C944 C 0.07798 0.98165 0.2116 0.0
C945 C 0.02575 0.97116 0.15635 0.0
C946 C 0.06658 0.95191 0.22713 0.0
C947 C 0.08835 0.93259 0.2472 0.0
C948 C 0.12188 0.94271 0.25224 0.0
C949 C 0.13404 0.97074 0.23393 0.0
C950 C 0.11225 0.98997 0.21374 0.0
H951 H 0.01155 0.97675 0.13252 0.0
H952 H 0.05177 0.96323 0.1496 0.0
H953 H 0.01296 0.94985 0.16927 0.0
H954 H 0.04011 0.94532 0.22653 0.0
H955 H 0.07826 0.91101 0.26066 0.0
H956 H 0.04386 0.13217 0.73288 0.0
H957 H 0.01304 0.08714 0.76039 0.0
H958 H 0.10551 0.04811 0.80314 0.0
H959 H 0.13694 0.0935 0.7754 0.0
H960 H 0.07376 1.00231 0.76694 0.0
H961 H 0.9804 0.05915 0.85302 0.0
H962 H 0.9794 0.0811 0.81305 0.0
H963 H 0.01723 0.08185 0.8387 0.0
C964 C 0.05766 0.11489 0.74913 0.0
C965 C 0.09293 0.11656 0.75205 0.0
C966 C 0.03987 0.08914 0.7651 0.0
C967 C 0.05684 0.06465 0.7845 0.0
C968 C 0.09188 0.06702 0.78867 0.0
H969 H 0.95217 0.8698 0.78399 0.0
H970 H 0.99043 0.91082 0.80973 0.0
C971 C 0.10978 0.09277 0.77257 0.0
C972 C 0.03868 0.03369 0.79439 0.0
H973 H 0.96113 0.00849 0.82143 0.0
C974 C 0.04969 1.00323 0.78003 0.0
C975 C 1.00753 0.03486 0.81183 0.0
C976 C 0.99572 0.06601 0.83033 0.0
C977 C 0.02848 0.97514 0.77874 0.0
C978 C 0.99566 0.97768 0.79262 0.0
C979 C 0.98617 1.00684 0.81042 0.0
C980 C 0.96923 0.95351 0.7828 0.0
C981 C 0.04009 0.94425 0.7595 0.0
C982 C 0.94375 0.96427 0.76043 0.0
C983 C 0.92201 0.94101 0.74558 0.0
C984 C 0.92555 0.90654 0.75268 0.0
C985 C 0.94962 0.89606 0.77699 0.0
C986 C 0.9713 0.91945 0.79199 0.0
H987 H 0.06518 0.94778 0.74747 0.0
H988 H 0.04183 0.92258 0.77732 0.0
H989 H 0.02165 0.93772 0.73921 0.0
H990 H 0.9418 0.99051 0.75303 0.0
H991 H 0.90355 0.94988 0.72723 0.0
H992 H 0.2632 0.99723 0.21808 0.0
H993 H 0.26852 0.05163 0.18782 0.0
H994 H 0.23875 0.10402 0.27933 0.0
H995 H 0.2332 0.05065 0.30931 0.0
H996 H 0.21093 0.10879 0.18586 0.0
H997 H 0.33368 0.1446 0.24349 0.0
H998 H 0.32078 0.10125 0.23842 0.0
H999 H 0.30345 0.12636 0.27227 0.0
C1000 C 0.258 0.0204 0.2317 0.0
C1001 C 0.2478 0.01952 0.26613 0.0
C1002 C 0.26087 0.0514 0.21437 0.0
C1003 C 0.25407 0.08186 0.23141 0.0
C1004 C 0.2442 0.08088 0.26572 0.0
H1005 H 0.20375 0.28658 0.21076 0.0
H1006 H 0.20318 0.22502 0.20976 0.0
C1007 C 0.24102 0.05021 0.2828 0.0
C1008 C 0.25699 0.11516 0.21418 0.0
H1009 H 0.30082 0.18887 0.21932 0.0
C1010 C 0.23096 0.12614 0.1925 0.0
C1011 C 0.28314 0.13774 0.22274 0.0
C1012 C 0.31206 0.12697 0.24531 0.0
C1013 C 0.22949 0.1597 0.18071 0.0
C1014 C 0.25447 0.18294 0.19123 0.0
C1015 C 0.28155 0.17126 0.21124 0.0
C1016 C 0.25161 0.21995 0.18482 0.0
C1017 C 0.2008 0.17009 0.15768 0.0
C1018 C 0.27866 0.23797 0.1706 0.0
C1019 C 0.27886 0.27331 0.17106 0.0
C1020 C 0.25202 0.29136 0.18563 0.0
C1021 C 0.22426 0.27337 0.19829 0.0
C1022 C 0.22395 0.23809 0.19775 0.0
H1023 H 0.19116 0.14832 0.14281 0.0
H1024 H 0.17975 0.17984 0.17352 0.0
H1025 H 0.2086 0.19021 0.13965 0.0
H1026 H 0.30057 0.22468 0.16099 0.0
H1027 H 0.30137 0.28619 0.16291 0.0
H1028 H 0.28705 0.7635 0.8516 0.0
H1029 H 0.22541 0.76382 0.85667 0.0
H1030 H 0.21771 0.80431 0.75475 0.0
H1031 H 0.27846 0.80437 0.74988 0.0
H1032 H 0.1711 0.83191 0.79534 0.0
H1033 H 0.16891 0.69243 0.80995 0.0
H1034 H 0.19125 0.7156 0.84217 0.0
H1035 H 0.2069 0.71484 0.79914 0.0
C1036 C 0.27232 0.77253 0.83046 0.0
C1037 C 0.28807 0.78262 0.79999 0.0
C1038 C 0.23692 0.77269 0.83329 0.0
C1039 C 0.21666 0.78311 0.80563 0.0
C1040 C 0.23252 0.79576 0.77637 0.0
H1041 H 0.03615 0.72331 0.71226 0.0
H1042 H 0.09132 0.73043 0.7385 0.0
C1043 C 0.26756 0.79562 0.77363 0.0
C1044 C 0.17918 0.77921 0.80531 0.0
H1045 H 0.11729 0.71953 0.80081 0.0
C1046 C 0.15919 0.80742 0.79715 0.0
C1047 C 0.1636 0.7472 0.80737 0.0
C1048 C 0.18365 0.71567 0.8149 0.0
C1049 C 0.12473 0.8043 0.7891 0.0
C1050 C 0.1094 0.77211 0.79006 0.0
C1051 C 0.12895 0.7442 0.80011 0.0
C1052 C 0.07459 0.76615 0.77664 0.0
C1053 C 0.10571 0.83522 0.77738 0.0
C1054 C 0.04624 0.78313 0.7898 0.0
C1055 C 0.01439 0.7793 0.77452 0.0
C1056 C 0.01019 0.7581 0.74601 0.0
C1057 C 0.03831 0.73993 0.73407 0.0
C1058 C 0.07002 0.74394 0.74914 0.0
H1059 H 0.12287 0.85646 0.77131 0.0
H1060 H 0.09035 0.82962 0.75436 0.0
H1061 H 0.08844 0.8436 0.79797 0.0
H1062 H 0.04881 0.79979 0.81152 0.0
H1063 H 0.99327 0.79352 0.78454 0.0
H1064 H 0.71686 0.73098 0.17207 0.0
H1065 H 0.71658 0.79265 0.16924 0.0
H1066 H 0.82103 0.794 0.19993 0.0
H1067 H 0.82098 0.73245 0.20326 0.0
H1068 H 0.78145 0.82766 0.2438 0.0
H1069 H 0.75196 0.87091 0.11248 0.0
H1070 H 0.72352 0.83937 0.12815 0.0
H1071 H 0.76717 0.82891 0.1216 0.0
C1072 C 0.74022 0.74441 0.17622 0.0
C1073 C 0.76916 0.72702 0.18715 0.0
C1074 C 0.74003 0.77975 0.17486 0.0
C1075 C 0.76885 0.79816 0.18425 0.0
C1076 C 0.79852 0.78047 0.19245 0.0
H1077 H 0.79491 0.01507 0.21889 0.0
H1078 H 0.79916 0.95819 0.1946 0.0
C1079 C 0.79859 0.74529 0.19408 0.0
C1080 C 0.76661 0.83502 0.19136 0.0
H1081 H 0.74495 0.9116 0.15733 0.0
C1082 C 0.77385 0.84597 0.22469 0.0
C1083 C 0.75659 0.85907 0.16657 0.0
C1084 C 0.74965 0.84909 0.1301 0.0
C1085 C 0.77072 0.87994 0.23408 0.0
C1086 C 0.75971 0.90379 0.20966 0.0
C1087 C 0.75316 0.8932 0.17608 0.0
C1088 C 0.75426 0.93957 0.21944 0.0
C1089 C 0.77894 0.89012 0.27028 0.0
C1090 C 0.72707 0.94822 0.24059 0.0
C1091 C 0.72455 0.98057 0.25449 0.0
C1092 C 0.74926 1.00504 0.24762 0.0
C1093 C 0.77546 0.99688 0.22478 0.0
C1094 C 0.77792 0.96439 0.21082 0.0
H1095 H 0.79269 0.86998 0.2843 0.0
H1096 H 0.79446 0.91336 0.2705 0.0
H1097 H 0.75519 0.8956 0.28418 0.0
H1098 H 0.70851 0.92945 0.24751 0.0
H1099 H 0.70395 0.98592 0.2718 0.0
H1100 H 0.01828 0.22306 0.7722 0.0
H1101 H 0.96225 0.21988 0.79856 0.0
H1102 H 0.93396 0.31289 0.74935 0.0
H1103 H 0.98967 0.3163 0.72294 0.0
H1104 H 0.91235 0.30544 0.82138 0.0
H1105 H 0.87782 0.19691 0.73848 0.0
H1106 H 0.91617 0.19347 0.7628 0.0
H1107 H 0.91318 0.22386 0.72898 0.0
C1108 C 1.00032 0.24311 0.76738 0.0
C1109 C 0.00846 0.26981 0.74519 0.0
C1110 C 0.96823 0.24116 0.78236 0.0
C1111 C 0.94374 0.26594 0.77561 0.0
C1112 C 0.95238 0.29344 0.75487 0.0
H1113 H 0.73591 0.31413 0.79261 0.0
H1114 H 0.79726 0.3147 0.79579 0.0
C1115 C 0.98429 0.29529 0.73973 0.0
C1116 C 0.90846 0.26245 0.78819 0.0
H1117 H 0.83583 0.21849 0.7743 0.0
C1118 C 0.89567 0.2862 0.81141 0.0
C1119 C 0.88673 0.23723 0.77537 0.0
C1120 C 0.8989 0.21145 0.74987 0.0
C1121 C 0.86162 0.28578 0.82164 0.0
C1122 C 0.83944 0.26153 0.80754 0.0
C1123 C 0.85265 0.23705 0.78528 0.0
C1124 C 0.80208 0.26292 0.81256 0.0
C1125 C 0.84984 0.3114 0.84746 0.0
C1126 C 0.7838 0.23379 0.82126 0.0
C1127 C 0.74845 0.23349 0.8193 0.0
C1128 C 0.73068 0.26238 0.80897 0.0
C1129 C 0.74886 0.29189 0.80198 0.0
C1130 C 0.78408 0.2922 0.80376 0.0
H1131 H 0.87067 0.3187 0.86491 0.0
H1132 H 0.84142 0.33449 0.83388 0.0
H1133 H 0.82854 0.30173 0.86297 0.0
H1134 H 0.79698 0.2107 0.82766 0.0
H1135 H 0.73544 0.20994 0.8231 0.0
H1136 H 0.70642 0.23041 0.32015 0.0
H1137 H 0.70503 0.29211 0.32197 0.0
H1138 H 0.81099 0.2948 0.29799 0.0
H1139 H 0.81233 0.23337 0.29625 0.0
H1140 H 0.78835 0.34874 0.34352 0.0
H1141 H 0.71163 0.3348 0.22517 0.0
H1142 H 0.69554 0.31487 0.26301 0.0
H1143 H 0.73398 0.29987 0.24416 0.0
C1144 C 0.72979 0.24407 0.31741 0.0
C1145 C 0.75982 0.22693 0.3096 0.0
C1146 C 0.72888 0.27942 0.31782 0.0
C1147 C 0.75789 0.29814 0.30988 0.0
C1148 C 0.78838 0.28099 0.30454 0.0
H1149 H 0.79328 0.47827 0.19825 0.0
H1150 H 0.79157 0.42251 0.22441 0.0
C1151 C 0.78922 0.24579 0.30397 0.0
C1152 C 0.75585 0.33478 0.30186 0.0
H1153 H 0.72762 0.38944 0.24056 0.0
C1154 C 0.77464 0.35779 0.32135 0.0
C1155 C 0.73843 0.34647 0.27252 0.0
C1156 C 0.71891 0.32282 0.24975 0.0
C1157 C 0.77679 0.39203 0.31199 0.0
C1158 C 0.75981 0.40347 0.28237 0.0
C1159 C 0.74051 0.38062 0.26334 0.0
C1160 C 0.76358 0.43836 0.26897 0.0
C1161 C 0.79826 0.41553 0.33292 0.0
C1162 C 0.74886 0.46607 0.2856 0.0
C1163 C 0.74972 0.49822 0.2706 0.0
C1164 C 0.76529 0.50318 0.23865 0.0
C1165 C 0.78107 0.47552 0.22282 0.0
C1166 C 0.78008 0.44352 0.23772 0.0
H1167 H 0.81294 0.40197 0.35285 0.0
H1168 H 0.816 0.4294 0.31612 0.0
H1169 H 0.78186 0.4344 0.34564 0.0
H1170 H 0.7357 0.46263 0.30958 0.0
H1171 H 0.73722 0.51891 0.28347 0.0
H1172 H 0.48698 0.19735 0.77007 0.0
H1173 H 0.43051 0.20291 0.74585 0.0
H1174 H 0.45893 0.29665 0.6984 0.0
H1175 H 0.51583 0.29097 0.72213 0.0
H1176 H 0.38821 0.25363 0.76265 0.0
H1177 H 0.40514 0.25206 0.62206 0.0
H1178 H 0.43738 0.23762 0.65128 0.0
H1179 H 0.43142 0.28191 0.64385 0.0
C1180 C 0.48154 0.2188 0.75384 0.0
C1181 C 0.50602 0.24376 0.74819 0.0
C1182 C 0.44914 0.22197 0.74001 0.0
C1183 C 0.44032 0.25011 0.7201 0.0
C1184 C 0.46515 0.27436 0.7131 0.0
H1185 H 0.23796 0.32976 0.7101 0.0
H1186 H 0.29942 0.32404 0.70899 0.0
C1187 C 0.49773 0.27114 0.72683 0.0
C1188 C 0.40435 0.25569 0.7102 0.0
H1189 H 0.35098 0.26909 0.6426 0.0
C1190 C 0.38017 0.25682 0.73635 0.0
C1191 C 0.39365 0.25976 0.67588 0.0
C1192 C 0.41817 0.25749 0.64658 0.0
C1193 C 0.34588 0.26227 0.7293 0.0
C1194 C 0.33525 0.26726 0.69514 0.0
C1195 C 0.35921 0.26562 0.66879 0.0
C1196 C 0.29917 0.27407 0.6871 0.0
C1197 C 0.32112 0.26249 0.75857 0.0
C1198 C 0.27865 0.24871 0.67322 0.0
C1199 C 0.24339 0.25216 0.67347 0.0
C1200 C 0.22829 0.28105 0.6875 0.0
C1201 C 0.249 0.30748 0.69866 0.0
C1202 C 0.2841 0.30413 0.69823 0.0
H1203 H 0.33216 0.2516 0.78224 0.0
H1204 H 0.31346 0.28883 0.76407 0.0
H1205 H 0.29808 0.24809 0.75188 0.0
H1206 H 0.28972 0.22519 0.66476 0.0
H1207 H 0.22806 0.23092 0.66593 0.0
H1208 H 0.21891 0.78527 0.32269 0.0
H1209 H 0.21702 0.7238 0.3225 0.0
H1210 H 0.32387 0.72038 0.30309 0.0
H1211 H 0.32571 0.78216 0.30371 0.0
H1212 H 0.23835 0.69182 0.25949 0.0
H1213 H 0.30706 0.64051 0.37197 0.0
H1214 H 0.28791 0.68189 0.37193 0.0
H1215 H 0.32666 0.67483 0.34948 0.0
C1216 C 0.24233 0.7715 0.32078 0.0
C1217 C 0.27267 0.7886 0.31474 0.0
C1218 C 0.24116 0.73624 0.31999 0.0
C1219 C 0.27035 0.71733 0.31312 0.0
C1220 C 0.30114 0.7343 0.30916 0.0
H1221 H 0.31064 0.51108 0.24881 0.0
H1222 H 0.31405 0.56818 0.27221 0.0
C1223 C 0.30222 0.76962 0.3097 0.0
C1224 C 0.26755 0.68088 0.30447 0.0
H1225 H 0.29189 0.60162 0.32864 0.0
C1226 C 0.24978 0.67206 0.27479 0.0
C1227 C 0.283 0.65519 0.32407 0.0
C1228 C 0.3021 0.66334 0.3563 0.0
C1229 C 0.24743 0.63844 0.26386 0.0
C1230 C 0.26231 0.61248 0.28376 0.0
C1231 C 0.2802 0.62133 0.31349 0.0
C1232 C 0.26009 0.57628 0.27344 0.0
C1233 C 0.23004 0.63132 0.23031 0.0
C1234 C 0.22865 0.56107 0.26761 0.0
C1235 C 0.22663 0.52857 0.25385 0.0
C1236 C 0.25602 0.51017 0.24619 0.0
C1237 C 0.28747 0.5245 0.25428 0.0
C1238 C 0.28947 0.55723 0.26768 0.0
H1239 H 0.22904 0.65406 0.21376 0.0
H1240 H 0.24302 0.61089 0.21608 0.0
H1241 H 0.20371 0.62337 0.23532 0.0
H1242 H 0.20555 0.57473 0.27281 0.0
H1243 H 0.20198 0.5182 0.24837 0.0
H1244 H 0.49259 0.73835 0.71364 0.0
H1245 H 0.54762 0.73473 0.68497 0.0
H1246 H 0.5952 0.77817 0.77372 0.0
H1247 H 0.54069 0.78345 0.80134 0.0
H1248 H 0.62185 0.80408 0.72056 0.0
H1249 H 0.61857 0.66582 0.6996 0.0
H1250 H 0.58554 0.68873 0.6785 0.0
H1251 H 0.587 0.68738 0.72443 0.0
C1252 C 0.51485 0.74729 0.72683 0.0
C1253 C 0.5122 0.76116 0.75981 0.0
C1254 C 0.54639 0.74491 0.71056 0.0
C1255 C 0.57598 0.7555 0.72734 0.0
C1256 C 0.57301 0.7698 0.76002 0.0
H1257 H 0.77885 0.69485 0.72709 0.0
H1258 H 0.71767 0.69807 0.72373 0.0
C1259 C 0.54164 0.77282 0.77588 0.0
C1260 C 0.61031 0.7519 0.71175 0.0
H1261 H 0.66758 0.69413 0.68248 0.0
C1262 C 0.63176 0.78004 0.71201 0.0
C1263 C 0.62345 0.72056 0.70052 0.0
C1264 C 0.60261 0.68882 0.70096 0.0
C1265 C 0.66614 0.77744 0.70361 0.0
C1266 C 0.67946 0.746 0.69276 0.0
C1267 C 0.65753 0.71828 0.69054 0.0
C1268 C 0.7166 0.74023 0.68857 0.0
C1269 C 0.68814 0.80799 0.70895 0.0
C1270 C 0.73692 0.76141 0.66835 0.0
C1271 C 0.77225 0.75998 0.67088 0.0
C1272 C 0.78786 0.7365 0.69262 0.0
C1273 C 0.76756 0.7131 0.70992 0.0
C1274 C 0.73244 0.71498 0.70802 0.0
H1275 H 0.67555 0.82737 0.72497 0.0
H1276 H 0.71229 0.80097 0.72146 0.0
H1277 H 0.69382 0.81966 0.68386 0.0
H1278 H 0.72553 0.78048 0.65227 0.0
H1279 H 0.78697 0.77916 0.65838 0.0
loop_
_geom_bond_atom_site_label_1
_geom_bond_atom_site_label_2
_geom_bond_distance
_geom_bond_site_symmetry_2
_ccdc_geom_bond_type
Zn0 N4 2.020 . S
Zn0 O8 2.019 . S
Zn0 N10 2.119 . S
Zn0 O18 1.975 . S
C1 N2 1.334 . S
C1 N5 1.336 . S
N2 C1 1.334 . S
N2 C3 1.334 . S
C3 N2 1.334 . S
C3 N4 1.336 . S
N4 Zn0 2.020 . S
N4 C3 1.336 . S
N4 N5 1.354 . S
N5 C1 1.336 . S
N5 N4 1.354 . S
N5 Zn9 2.020 . S
C6 O7 1.244 . S
C6 O30 1.257 . S
O7 C6 1.244 . S
O8 Zn0 2.019 . S
O8 C28 1.257 . S
Zn9 N5 2.020 . S
Zn9 O16 1.975 . S
Zn9 N25 2.119 . S
Zn9 O30 2.019 . S
N10 Zn0 2.119 . S
N10 C12 1.334 . S
N10 C13 1.328 . S
C11 C12 1.391 . S
C11 N14 1.329 . S
C11 H32 0.930 . S
C12 N10 1.334 . S
C12 C11 1.391 . S
C12 H19 0.930 . S
C13 N10 1.328 . S
C13 C15 1.392 . S
C13 H20 0.930 . S
N14 C11 1.329 . S
N14 C15 1.331 . S
C15 C13 1.392 . S
C15 N14 1.331 . S
O16 Zn9 1.975 . S
O16 C17 1.252 . S
C17 O16 1.252 . S
C17 O18 1.252 . S
O18 Zn0 1.975 . S
O18 C17 1.252 . S
H19 C12 0.930 . S
H20 C13 0.930 . S
C21 C22 1.392 . S
C21 N25 1.328 . S
C21 H27 0.930 . S
C22 C21 1.392 . S
C22 N26 1.331 . S
C23 C24 1.391 . S
C23 N26 1.329 . S
C23 H33 0.930 . S
C24 C23 1.391 . S
C24 N25 1.334 . S
C24 H31 0.930 . S
N25 Zn9 2.119 . S
N25 C21 1.328 . S
N25 C24 1.334 . S
N26 C22 1.331 . S
N26 C23 1.329 . S
H27 C21 0.930 . S
C28 O8 1.257 . S
C28 O29 1.244 . S
O29 C28 1.244 . S
O30 C6 1.257 . S
O30 Zn9 2.019 . S
H31 C24 0.930 . S
H32 C11 0.930 . S
H33 C23 0.930 . S
Zn34 N38 2.020 . S
Zn34 O42 2.019 . S
Zn34 N44 2.119 . S
Zn34 O52 1.975 . S
C35 N36 1.334 . S
C35 N39 1.336 . S
N36 C35 1.334 . S
N36 C37 1.334 . S
C37 N36 1.334 . S
C37 N38 1.336 . S
N38 Zn34 2.020 . S
N38 C37 1.336 . S
N38 N39 1.354 . S
N39 C35 1.336 . S
N39 N38 1.354 . S
N39 Zn43 2.020 . S
C40 O41 1.244 . S
C40 O64 1.257 . S
O41 C40 1.244 . S
O42 Zn34 2.019 . S
O42 C62 1.257 . S
Zn43 N39 2.020 . S
Zn43 O50 1.975 . S
Zn43 N59 2.119 . S
Zn43 O64 2.019 . S
N44 Zn34 2.119 . S
N44 C46 1.334 . S
N44 C47 1.328 . S
C45 C46 1.391 . S
C45 N48 1.329 . S
C45 H66 0.930 . S
C46 N44 1.334 . S
C46 C45 1.391 . S
C46 H53 0.930 . S
C47 N44 1.328 . S
C47 C49 1.392 . S
C47 H54 0.930 . S
N48 C45 1.329 . S
N48 C49 1.331 . S
C49 C47 1.392 . S
C49 N48 1.331 . S
O50 Zn43 1.975 . S
O50 C51 1.252 . S
C51 O50 1.252 . S
C51 O52 1.252 . S
O52 Zn34 1.975 . S
O52 C51 1.252 . S
H53 C46 0.930 . S
H54 C47 0.930 . S
C55 C56 1.392 . S
C55 N59 1.328 . S
C55 H61 0.930 . S
C56 C55 1.392 . S
C56 N60 1.331 . S
C57 C58 1.391 . S
C57 N60 1.329 . S
C57 H67 0.930 . S
C58 C57 1.391 . S
C58 N59 1.334 . S
C58 H65 0.930 . S
N59 Zn43 2.119 . S
N59 C55 1.328 . S
N59 C58 1.334 . S
N60 C56 1.331 . S
N60 C57 1.329 . S
H61 C55 0.930 . S
C62 O42 1.257 . S
C62 O63 1.244 . S
O63 C62 1.244 . S
O64 C40 1.257 . S
O64 Zn43 2.019 . S
H65 C58 0.930 . S
H66 C45 0.930 . S
H67 C57 0.930 . S
Zn68 N72 2.020 . S
Zn68 O76 2.019 . S
Zn68 N78 2.119 . S
Zn68 O86 1.975 . S
C69 N70 1.334 . S
C69 N73 1.336 . S
N70 C69 1.334 . S
N70 C71 1.334 . S
C71 N70 1.334 . S
C71 N72 1.336 . S
N72 Zn68 2.020 . S
N72 C71 1.336 . S
N72 N73 1.354 . S
N73 C69 1.336 . S
N73 N72 1.354 . S
N73 Zn77 2.020 . S
C74 O75 1.244 . S
C74 O98 1.257 . S
O75 C74 1.244 . S
O76 Zn68 2.019 . S
O76 C96 1.257 . S
Zn77 N73 2.020 . S
Zn77 O84 1.975 . S
Zn77 N93 2.119 . S
Zn77 O98 2.019 . S
N78 Zn68 2.119 . S
N78 C80 1.334 . S
N78 C81 1.328 . S
C79 C80 1.391 . S
C79 N82 1.329 . S
C79 H100 0.930 . S
C80 N78 1.334 . S
C80 C79 1.391 . S
C80 H87 0.930 . S
C81 N78 1.328 . S
C81 C83 1.392 . S
C81 H88 0.930 . S
N82 C79 1.329 . S
N82 C83 1.331 . S
C83 C81 1.392 . S
C83 N82 1.331 . S
O84 Zn77 1.975 . S
O84 C85 1.252 . S
C85 O84 1.252 . S
C85 O86 1.252 . S
O86 Zn68 1.975 . S
O86 C85 1.252 . S
H87 C80 0.930 . S
H88 C81 0.930 . S
C89 C90 1.392 . S
C89 N93 1.328 . S
C89 H95 0.930 . S
C90 C89 1.392 . S
C90 N94 1.331 . S
C91 C92 1.391 . S
C91 N94 1.329 . S
C91 H101 0.930 . S
C92 C91 1.391 . S
C92 N93 1.334 . S
C92 H99 0.930 . S
N93 Zn77 2.119 . S
N93 C89 1.328 . S
N93 C92 1.334 . S
N94 C90 1.331 . S
N94 C91 1.329 . S
H95 C89 0.930 . S
C96 O76 1.257 . S
C96 O97 1.244 . S
O97 C96 1.244 . S
O98 C74 1.257 . S
O98 Zn77 2.019 . S
H99 C92 0.930 . S
H100 C79 0.930 . S
H101 C91 0.930 . S
Zn102 N106 2.020 . S
Zn102 O110 2.019 . S
Zn102 N112 2.119 . S
Zn102 O120 1.975 . S
C103 N104 1.334 . S
C103 N107 1.336 . S
N104 C103 1.334 . S
N104 C105 1.334 . S
C105 N104 1.334 . S
C105 N106 1.336 . S
N106 Zn102 2.020 . S
N106 C105 1.336 . S
N106 N107 1.354 . S
N107 C103 1.336 . S
N107 N106 1.354 . S
N107 Zn111 2.020 . S
C108 O109 1.244 . S
C108 O132 1.257 . S
O109 C108 1.244 . S
O110 Zn102 2.019 . S
O110 C130 1.257 . S
Zn111 N107 2.020 . S
Zn111 O118 1.975 . S
Zn111 N127 2.119 . S
Zn111 O132 2.019 . S
N112 Zn102 2.119 . S
N112 C114 1.334 . S
N112 C115 1.328 . S
C113 C114 1.391 . S
C113 N116 1.329 . S
C113 H134 0.930 . S
C114 N112 1.334 . S
C114 C113 1.391 . S
C114 H121 0.930 . S
C115 N112 1.328 . S
C115 C117 1.392 . S
C115 H122 0.930 . S
N116 C113 1.329 . S
N116 C117 1.331 . S
C117 C115 1.392 . S
C117 N116 1.331 . S
O118 Zn111 1.975 . S
O118 C119 1.252 . S
C119 O118 1.252 . S
C119 O120 1.252 . S
O120 Zn102 1.975 . S
O120 C119 1.252 . S
H121 C114 0.930 . S
H122 C115 0.930 . S
C123 C124 1.392 . S
C123 N127 1.328 . S
C123 H129 0.930 . S
C124 C123 1.392 . S
C124 N128 1.331 . S
C125 C126 1.391 . S
C125 N128 1.329 . S
C125 H135 0.930 . S
C126 C125 1.391 . S
C126 N127 1.334 . S
C126 H133 0.930 . S
N127 Zn111 2.119 . S
N127 C123 1.328 . S
N127 C126 1.334 . S
N128 C124 1.331 . S
N128 C125 1.329 . S
H129 C123 0.930 . S
C130 O110 1.257 . S
C130 O131 1.244 . S
O131 C130 1.244 . S
O132 C108 1.257 . S
O132 Zn111 2.019 . S
H133 C126 0.930 . S
H134 C113 0.930 . S
H135 C125 0.930 . S
Zn136 N140 2.020 . S
Zn136 O144 2.019 . S
Zn136 N146 2.119 . S
Zn136 O154 1.975 . S
C137 N138 1.334 . S
C137 N141 1.336 . S
N138 C137 1.334 . S
N138 C139 1.334 . S
C139 N138 1.334 . S
C139 N140 1.336 . S
N140 Zn136 2.020 . S
N140 C139 1.336 . S
N140 N141 1.354 . S
N141 C137 1.336 . S
N141 N140 1.354 . S
N141 Zn145 2.020 . S
C142 O143 1.219 1_565 S
C142 O166 1.256 . S
O143 C142 1.219 1_545 S
O144 Zn136 2.019 . S
O144 C164 1.257 . S
Zn145 N141 2.020 . S
Zn145 O152 1.975 . S
Zn145 N161 2.119 . S
Zn145 O166 2.019 1_545 S
N146 Zn136 2.119 . S
N146 C148 1.334 . S
N146 C149 1.328 . S
C147 C148 1.391 . S
C147 N150 1.329 . S
C147 H168 0.930 . S
C148 N146 1.334 . S
C148 C147 1.391 . S
C148 H155 0.930 . S
C149 N146 1.328 . S
C149 C151 1.392 . S
C149 H156 0.930 . S
N150 C147 1.329 . S
N150 C151 1.331 . S
C151 C149 1.392 . S
C151 N150 1.331 . S
O152 Zn145 1.975 . S
O152 C153 1.252 . S
C153 O152 1.252 . S
C153 O154 1.252 . S
O154 Zn136 1.975 . S
O154 C153 1.252 . S
H155 C148 0.930 . S
H156 C149 0.930 . S
C157 C158 1.392 . S
C157 N161 1.328 . S
C157 H163 0.930 . S
C158 C157 1.392 . S
C158 N162 1.331 . S
C159 C160 1.391 . S
C159 N162 1.329 . S
C159 H169 0.930 . S
C160 C159 1.391 . S
C160 N161 1.334 . S
C160 H167 0.930 . S
N161 Zn145 2.119 . S
N161 C157 1.328 . S
N161 C160 1.334 . S
N162 C158 1.331 . S
N162 C159 1.329 . S
H163 C157 0.930 . S
C164 O144 1.257 . S
C164 O165 1.244 . S
O165 C164 1.244 . S
O166 C142 1.256 . S
O166 Zn145 2.019 1_565 S
H167 C160 0.930 . S
H168 C147 0.930 . S
H169 C159 0.930 . S
Zn170 N174 2.020 . S
Zn170 O178 2.019 1_455 S
Zn170 N180 2.119 . S
Zn170 O188 1.975 . S
C171 N172 1.334 . S
C171 N175 1.336 . S
N172 C171 1.334 . S
N172 C173 1.334 . S
C173 N172 1.334 . S
C173 N174 1.336 . S
N174 Zn170 2.020 . S
N174 C173 1.336 . S
N174 N175 1.354 . S
N175 C171 1.336 . S
N175 N174 1.354 . S
N175 Zn179 2.020 . S
C176 O177 1.244 . S
C176 O200 1.257 . S
O177 C176 1.244 . S
O178 Zn170 2.019 1_655 S
O178 C198 1.256 . S
Zn179 N175 2.020 . S
Zn179 O186 1.975 . S
Zn179 N195 2.119 . S
Zn179 O200 2.019 . S
N180 Zn170 2.119 . S
N180 C182 1.334 . S
N180 C183 1.328 . S
C181 C182 1.391 . S
C181 N184 1.329 . S
C181 H202 0.930 . S
C182 N180 1.334 . S
C182 C181 1.391 . S
C182 H189 0.930 . S
C183 N180 1.328 . S
C183 C185 1.392 . S
C183 H190 0.930 . S
N184 C181 1.329 . S
N184 C185 1.331 . S
C185 C183 1.392 . S
C185 N184 1.331 . S
O186 Zn179 1.975 . S
O186 C187 1.252 . S
C187 O186 1.252 . S
C187 O188 1.252 . S
O188 Zn170 1.975 . S
O188 C187 1.252 . S
H189 C182 0.930 . S
H190 C183 0.930 . S
C191 C192 1.392 . S
C191 N195 1.328 . S
C191 H197 0.930 . S
C192 C191 1.392 . S
C192 N196 1.331 . S
C193 C194 1.391 . S
C193 N196 1.329 . S
C193 H203 0.930 . S
C194 C193 1.391 . S
C194 N195 1.334 . S
C194 H201 0.930 . S
N195 Zn179 2.119 . S
N195 C191 1.328 . S
N195 C194 1.334 . S
N196 C192 1.331 . S
N196 C193 1.329 . S
H197 C191 0.930 . S
C198 O178 1.256 . S
C198 O199 1.219 1_655 S
O199 C198 1.219 1_455 S
O200 C176 1.257 . S
O200 Zn179 2.019 . S
H201 C194 0.930 . S
H202 C181 0.930 . S
H203 C193 0.930 . S
Zn204 N208 2.020 . S
Zn204 O212 2.019 . S
Zn204 N214 2.119 . S
Zn204 O222 1.975 . S
C205 N206 1.334 . S
C205 N209 1.336 . S
N206 C205 1.334 . S
N206 C207 1.334 . S
C207 N206 1.334 . S
C207 N208 1.336 . S
N208 Zn204 2.020 . S
N208 C207 1.336 . S
N208 N209 1.354 . S
N209 C205 1.336 . S
N209 N208 1.354 . S
N209 Zn213 2.020 . S
C210 O211 1.219 1_545 S
C210 O234 1.256 . S
O211 C210 1.219 1_565 S
O212 Zn204 2.019 . S
O212 C232 1.257 . S
Zn213 N209 2.020 . S
Zn213 O220 1.975 . S
Zn213 N229 2.119 . S
Zn213 O234 2.019 1_565 S
N214 Zn204 2.119 . S
N214 C216 1.334 . S
N214 C217 1.328 . S
C215 C216 1.391 . S
C215 N218 1.329 . S
C215 H236 0.930 . S
C216 N214 1.334 . S
C216 C215 1.391 . S
C216 H223 0.930 . S
C217 N214 1.328 . S
C217 C219 1.392 . S
C217 H224 0.930 . S
N218 C215 1.329 . S
N218 C219 1.331 . S
C219 C217 1.392 . S
C219 N218 1.331 . S
O220 Zn213 1.975 . S
O220 C221 1.252 . S
C221 O220 1.252 . S
C221 O222 1.252 . S
O222 Zn204 1.975 . S
O222 C221 1.252 . S
H223 C216 0.930 . S
H224 C217 0.930 . S
C225 C226 1.392 . S
C225 N229 1.328 . S
C225 H231 0.930 . S
C226 C225 1.392 . S
C226 N230 1.331 . S
C227 C228 1.391 . S
C227 N230 1.329 . S
C227 H237 0.930 . S
C228 C227 1.391 . S
C228 N229 1.334 . S
C228 H235 0.930 . S
N229 Zn213 2.119 . S
N229 C225 1.328 . S
N229 C228 1.334 . S
N230 C226 1.331 . S
N230 C227 1.329 . S
H231 C225 0.930 . S
C232 O212 1.257 . S
C232 O233 1.244 . S
O233 C232 1.244 . S
O234 C210 1.256 . S
O234 Zn213 2.019 1_545 S
H235 C228 0.930 . S
H236 C215 0.930 . S
H237 C227 0.930 . S
Zn238 N242 2.020 . S
Zn238 O246 2.019 1_655 S
Zn238 N248 2.119 . S
Zn238 O256 1.975 . S
C239 N240 1.334 . S
C239 N243 1.336 . S
N240 C239 1.334 . S
N240 C241 1.334 . S
C241 N240 1.334 . S
C241 N242 1.336 . S
N242 Zn238 2.020 . S
N242 C241 1.336 . S
N242 N243 1.354 . S
N243 C239 1.336 . S
N243 N242 1.354 . S
N243 Zn247 2.020 . S
C244 O245 1.244 . S
C244 O268 1.257 . S
O245 C244 1.244 . S
O246 Zn238 2.019 1_455 S
O246 C266 1.256 . S
Zn247 N243 2.020 . S
Zn247 O254 1.975 . S
Zn247 N263 2.119 . S
Zn247 O268 2.019 . S
N248 Zn238 2.119 . S
N248 C250 1.334 . S
N248 C251 1.328 . S
C249 C250 1.391 . S
C249 N252 1.329 . S
C249 H270 0.930 . S
C250 N248 1.334 . S
C250 C249 1.391 . S
C250 H257 0.930 . S
C251 N248 1.328 . S
C251 C253 1.392 . S
C251 H258 0.930 . S
N252 C249 1.329 . S
N252 C253 1.331 . S
C253 C251 1.392 . S
C253 N252 1.331 . S
O254 Zn247 1.975 . S
O254 C255 1.252 . S
C255 O254 1.252 . S
C255 O256 1.252 . S
O256 Zn238 1.975 . S
O256 C255 1.252 . S
H257 C250 0.930 . S
H258 C251 0.930 . S
C259 C260 1.392 . S
C259 N263 1.328 . S
C259 H265 0.930 . S
C260 C259 1.392 . S
C260 N264 1.331 . S
C261 C262 1.391 . S
C261 N264 1.329 . S
C261 H271 0.930 . S
C262 C261 1.391 . S
C262 N263 1.334 . S
C262 H269 0.930 . S
N263 Zn247 2.119 . S
N263 C259 1.328 . S
N263 C262 1.334 . S
N264 C260 1.331 . S
N264 C261 1.329 . S
H265 C259 0.930 . S
C266 O246 1.256 . S
C266 O267 1.219 1_455 S
O267 C266 1.219 1_655 S
O268 C244 1.257 . S
O268 Zn247 2.019 . S
H269 C262 0.930 . S
H270 C249 0.930 . S
H271 C261 0.930 . S
H272 C280 0.929 . S
H273 C282 0.930 . S
H274 C284 0.930 . S
H275 C287 0.929 . S
H276 C290 0.930 . S
H277 C292 0.960 . S
H278 C292 0.960 . S
H279 C292 0.960 . S
C280 H272 0.929 . S
C280 C281 1.377 . S
C280 C282 1.384 1_554 S
C281 C280 1.377 . S
C281 C287 1.390 . S
C282 H273 0.930 . S
C282 C280 1.384 1_556 S
C282 C283 1.372 . S
C283 C282 1.372 . S
C283 C284 1.400 . S
C283 C288 1.490 . S
C284 H274 0.930 . S
C284 C283 1.400 . S
C284 C287 1.386 1_556 S
H285 C301 0.930 . S
H286 C302 0.931 . S
C287 H275 0.929 . S
C287 C281 1.390 . S
C287 C284 1.386 1_554 S
C288 C283 1.490 . S
C288 C290 1.395 . S
C288 C291 1.403 . S
H289 C295 0.930 . S
C290 H276 0.930 . S
C290 C288 1.395 . S
C290 C293 1.403 . S
C291 C288 1.403 . S
C291 C292 1.524 . S
C291 C295 1.400 . S
C292 H277 0.960 . S
C292 H278 0.960 . S
C292 H279 0.960 . S
C292 C291 1.524 . S
C293 C290 1.403 . S
C293 C294 1.392 . S
C293 C297 1.495 . S
C294 C293 1.392 . S
C294 C295 1.385 . S
C294 C296 1.478 . S
C295 H289 0.930 . S
C295 C291 1.400 . S
C295 C294 1.385 . S
C296 C294 1.478 . S
C296 C298 1.381 . S
C296 C302 1.383 . S
C297 C293 1.495 . S
C297 H303 0.959 . S
C297 H304 0.961 . S
C297 H305 0.960 . S
C298 C296 1.381 . S
C298 C299 1.394 . S
C298 H306 0.930 . S
C299 C298 1.394 . S
C299 C300 1.383 . S
C299 H307 0.929 . S
C300 C299 1.383 . S
C300 C301 1.377 . S
C301 H285 0.930 . S
C301 C300 1.377 . S
C301 C302 1.379 . S
C302 H286 0.931 . S
C302 C296 1.383 . S
C302 C301 1.379 . S
H303 C297 0.959 . S
H304 C297 0.961 . S
H305 C297 0.960 . S
H306 C298 0.930 . S
H307 C299 0.929 . S
H308 C316 0.929 . S
H309 C318 0.930 . S
H310 C320 0.930 . S
H311 C323 0.934 . S
H312 C326 0.930 . S
H313 C328 0.960 . S
H314 C328 0.960 . S
H315 C328 0.960 . S
C316 H308 0.929 . S
C316 C317 1.377 . S
C316 C318 1.384 1_556 S
C317 C316 1.377 . S
C317 C323 1.414 . S
C318 H309 0.930 . S
C318 C316 1.384 1_554 S
C318 C319 1.372 . S
C319 C318 1.372 . S
C319 C320 1.400 . S
C319 C324 1.490 . S
C320 H310 0.930 . S
C320 C319 1.400 . S
C320 C323 1.357 1_554 S
H321 C337 0.930 . S
H322 C338 0.931 . S
C323 H311 0.934 . S
C323 C317 1.414 . S
C323 C320 1.357 1_556 S
C324 C319 1.490 . S
C324 C326 1.395 . S
C324 C327 1.403 . S
H325 C331 0.930 . S
C326 H312 0.930 . S
C326 C324 1.395 . S
C326 C329 1.403 . S
C327 C324 1.403 . S
C327 C328 1.524 . S
C327 C331 1.400 . S
C328 H313 0.960 . S
C328 H314 0.960 . S
C328 H315 0.960 . S
C328 C327 1.524 . S
C329 C326 1.403 . S
C329 C330 1.392 . S
C329 C333 1.495 . S
C330 C329 1.392 . S
C330 C331 1.385 . S
C330 C332 1.478 . S
C331 H325 0.930 . S
C331 C327 1.400 . S
C331 C330 1.385 . S
C332 C330 1.478 . S
C332 C334 1.381 . S
C332 C338 1.383 . S
C333 C329 1.495 . S
C333 H339 0.959 . S
C333 H340 0.961 . S
C333 H341 0.960 . S
C334 C332 1.381 . S
C334 C335 1.394 . S
C334 H342 0.930 . S
C335 C334 1.394 . S
C335 C336 1.383 . S
C335 H343 0.929 . S
C336 C335 1.383 . S
C336 C337 1.377 . S
C337 H321 0.930 . S
C337 C336 1.377 . S
C337 C338 1.379 . S
C338 H322 0.931 . S
C338 C332 1.383 . S
C338 C337 1.379 . S
H339 C333 0.959 . S
H340 C333 0.961 . S
H341 C333 0.960 . S
H342 C334 0.930 . S
H343 C335 0.929 . S
H344 C352 0.929 . S
H345 C354 0.930 . S
H346 C356 0.930 . S
H347 C359 0.929 . S
H348 C362 0.930 . S
H349 C364 0.960 . S
H350 C364 0.960 . S
H351 C364 0.960 . S
C352 H344 0.929 . S
C352 C353 1.377 . S
C352 C354 1.384 . S
C353 C352 1.377 . S
C353 C359 1.390 . S
C354 H345 0.930 . S
C354 C352 1.384 . S
C354 C355 1.372 . S
C355 C354 1.372 . S
C355 C356 1.400 . S
C355 C360 1.490 . S
C356 H346 0.930 . S
C356 C355 1.400 . S
C356 C359 1.386 . S
H357 C373 0.930 . S
H358 C374 0.931 . S
C359 H347 0.929 . S
C359 C353 1.390 . S
C359 C356 1.386 . S
C360 C355 1.490 . S
C360 C362 1.395 . S
C360 C363 1.403 . S
H361 C367 0.930 . S
C362 H348 0.930 . S
C362 C360 1.395 . S
C362 C365 1.403 . S
C363 C360 1.403 . S
C363 C364 1.524 . S
C363 C367 1.400 . S
C364 H349 0.960 . S
C364 H350 0.960 . S
C364 H351 0.960 . S
C364 C363 1.524 . S
C365 C362 1.403 . S
C365 C366 1.392 . S
C365 C369 1.495 . S
C366 C365 1.392 . S
C366 C367 1.385 . S
C366 C368 1.478 . S
C367 H361 0.930 . S
C367 C363 1.400 . S
C367 C366 1.385 . S
C368 C366 1.478 . S
C368 C370 1.381 . S
C368 C374 1.383 . S
C369 C365 1.495 . S
C369 H375 0.959 . S
C369 H376 0.961 . S
C369 H377 0.960 . S
C370 C368 1.381 . S
C370 C371 1.394 1_556 S
C370 H378 0.930 . S
C371 C370 1.394 1_554 S
C371 C372 1.383 . S
C371 H379 0.929 . S
C372 C371 1.383 . S
C372 C373 1.377 . S
C373 H357 0.930 . S
C373 C372 1.377 . S
C373 C374 1.379 1_554 S
C374 H358 0.931 . S
C374 C368 1.383 . S
C374 C373 1.379 1_556 S
H375 C369 0.959 . S
H376 C369 0.961 . S
H377 C369 0.960 . S
H378 C370 0.930 . S
H379 C371 0.929 . S
H380 C388 0.929 . S
H381 C390 0.930 . S
H382 C392 0.930 . S
H383 C395 0.929 . S
H384 C398 0.930 . S
H385 C400 0.960 . S
H386 C400 0.960 . S
H387 C400 0.960 . S
C388 H380 0.929 . S
C388 C389 1.377 . S
C388 C390 1.384 . S
C389 C388 1.377 . S
C389 C395 1.390 . S
C390 H381 0.930 . S
C390 C388 1.384 . S
C390 C391 1.372 . S
C391 C390 1.372 . S
C391 C392 1.400 . S
C391 C396 1.490 . S
C392 H382 0.930 . S
C392 C391 1.400 . S
C392 C395 1.386 . S
H393 C409 0.930 . S
H394 C410 0.931 . S
C395 H383 0.929 . S
C395 C389 1.390 . S
C395 C392 1.386 . S
C396 C391 1.490 . S
C396 C398 1.395 . S
C396 C399 1.403 . S
H397 C403 0.930 . S
C398 H384 0.930 . S
C398 C396 1.395 . S
C398 C401 1.403 . S
C399 C396 1.403 . S
C399 C400 1.524 . S
C399 C403 1.400 . S
C400 H385 0.960 . S
C400 H386 0.960 . S
C400 H387 0.960 . S
C400 C399 1.524 . S
C401 C398 1.403 . S
C401 C402 1.392 . S
C401 C405 1.495 . S
C402 C401 1.392 . S
C402 C403 1.385 . S
C402 C404 1.478 . S
C403 H397 0.930 . S
C403 C399 1.400 . S
C403 C402 1.385 . S
C404 C402 1.478 . S
C404 C406 1.381 . S
C404 C410 1.383 . S
C405 C401 1.495 . S
C405 H411 0.959 . S
C405 H412 0.961 . S
C405 H413 0.960 . S
C406 C404 1.381 . S
C406 C407 1.394 1_554 S
C406 H414 0.930 . S
C407 C406 1.394 1_556 S
C407 C408 1.383 . S
C407 H415 0.929 . S
C408 C407 1.383 . S
C408 C409 1.377 . S
C409 H393 0.930 . S
C409 C408 1.377 . S
C409 C410 1.379 1_556 S
C410 H394 0.931 . S
C410 C404 1.383 . S
C410 C409 1.379 1_554 S
H411 C405 0.959 . S
H412 C405 0.961 . S
H413 C405 0.960 . S
H414 C406 0.930 . S
H415 C407 0.929 . S
H416 C424 0.929 . S
H417 C426 0.930 . S
H418 C428 0.930 . S
H419 C431 0.929 . S
H420 C434 0.930 . S
H421 C436 0.960 . S
H422 C436 0.960 . S
H423 C436 0.960 . S
C424 H416 0.929 . S
C424 C425 1.377 . S
C424 C426 1.384 . S
C425 C424 1.377 . S
C425 C431 1.390 . S
C426 H417 0.930 . S
C426 C424 1.384 . S
C426 C427 1.372 . S
C427 C426 1.372 . S
C427 C428 1.400 . S
C427 C432 1.490 . S
C428 H418 0.930 . S
C428 C427 1.400 . S
C428 C431 1.386 . S
H429 C445 0.930 . S
H430 C446 0.931 . S
C431 H419 0.929 . S
C431 C425 1.390 . S
C431 C428 1.386 . S
C432 C427 1.490 . S
C432 C434 1.395 . S
C432 C435 1.403 . S
H433 C439 0.930 . S
C434 H420 0.930 . S
C434 C432 1.395 . S
C434 C437 1.403 . S
C435 C432 1.403 . S
C435 C436 1.524 . S
C435 C439 1.400 . S
C436 H421 0.960 . S
C436 H422 0.960 . S
C436 H423 0.960 . S
C436 C435 1.524 . S
C437 C434 1.403 . S
C437 C438 1.392 . S
C437 C441 1.495 . S
C438 C437 1.392 . S
C438 C439 1.385 . S
C438 C440 1.478 . S
C439 H433 0.930 . S
C439 C435 1.400 . S
C439 C438 1.385 . S
C440 C438 1.478 . S
C440 C442 1.381 . S
C440 C446 1.383 . S
C441 C437 1.495 . S
C441 H447 0.959 . S
C441 H448 0.961 . S
C441 H449 0.960 . S
C442 C440 1.381 . S
C442 C443 1.394 . S
C442 H450 0.930 . S
C443 C442 1.394 . S
C443 C444 1.383 . S
C443 H451 0.929 . S
C444 C443 1.383 . S
C444 C445 1.377 . S
C445 H429 0.930 . S
C445 C444 1.377 . S
C445 C446 1.379 . S
C446 H430 0.931 . S
C446 C440 1.383 . S
C446 C445 1.379 . S
H447 C441 0.959 . S
H448 C441 0.961 . S
H449 C441 0.960 . S
H450 C442 0.930 . S
H451 C443 0.929 . S
H452 C460 0.929 . S
H453 C462 0.930 . S
H454 C464 0.930 . S
H455 C467 0.929 . S
H456 C470 0.930 . S
H457 C472 0.960 . S
H458 C472 0.960 . S
H459 C472 0.960 . S
C460 H452 0.929 . S
C460 C461 1.377 . S
C460 C462 1.384 . S
C461 C460 1.377 . S
C461 C467 1.390 . S
C462 H453 0.930 . S
C462 C460 1.384 . S
C462 C463 1.372 . S
C463 C462 1.372 . S
C463 C464 1.400 . S
C463 C468 1.490 . S
C464 H454 0.930 . S
C464 C463 1.400 . S
C464 C467 1.386 . S
H465 C481 0.930 . S
H466 C482 0.931 . S
C467 H455 0.929 . S
C467 C461 1.390 . S
C467 C464 1.386 . S
C468 C463 1.490 . S
C468 C470 1.395 . S
C468 C471 1.403 . S
H469 C475 0.930 . S
C470 H456 0.930 . S
C470 C468 1.395 . S
C470 C473 1.403 . S
C471 C468 1.403 . S
C471 C472 1.524 . S
C471 C475 1.400 . S
C472 H457 0.960 . S
C472 H458 0.960 . S
C472 H459 0.960 . S
C472 C471 1.524 . S
C473 C470 1.403 . S
C473 C474 1.392 . S
C473 C477 1.495 . S
C474 C473 1.392 . S
C474 C475 1.385 . S
C474 C476 1.478 . S
C475 H469 0.930 . S
C475 C471 1.400 . S
C475 C474 1.385 . S
C476 C474 1.478 . S
C476 C478 1.381 . S
C476 C482 1.383 . S
C477 C473 1.495 . S
C477 H483 0.959 . S
C477 H484 0.961 . S
C477 H485 0.960 . S
C478 C476 1.381 . S
C478 C479 1.394 . S
C478 H486 0.930 . S
C479 C478 1.394 . S
C479 C480 1.383 . S
C479 H487 0.929 . S
C480 C479 1.383 . S
C480 C481 1.377 . S
C481 H465 0.930 . S
C481 C480 1.377 . S
C481 C482 1.379 . S
C482 H466 0.931 . S
C482 C476 1.383 . S
C482 C481 1.379 . S
H483 C477 0.959 . S
H484 C477 0.961 . S
H485 C477 0.960 . S
H486 C478 0.930 . S
H487 C479 0.929 . S
H488 C496 0.929 . S
H489 C498 0.930 . S
H490 C500 0.930 . S
H491 C503 0.929 . S
H492 C506 0.930 . S
H493 C508 0.960 . S
H494 C508 0.960 . S
H495 C508 0.960 . S
C496 H488 0.929 . S
C496 C497 1.377 . S
C496 C498 1.384 . S
C497 C496 1.377 . S
C497 C503 1.390 . S
C498 H489 0.930 . S
C498 C496 1.384 . S
C498 C499 1.372 . S
C499 C498 1.372 . S
C499 C500 1.400 . S
C499 C504 1.490 . S
C500 H490 0.930 . S
C500 C499 1.400 . S
C500 C503 1.386 . S
H501 C517 0.930 . S
H502 C518 0.931 . S
C503 H491 0.929 . S
C503 C497 1.390 . S
C503 C500 1.386 . S
C504 C499 1.490 . S
C504 C506 1.395 . S
C504 C507 1.403 . S
H505 C511 0.930 . S
C506 H492 0.930 . S
C506 C504 1.395 . S
C506 C509 1.403 . S
C507 C504 1.403 . S
C507 C508 1.524 . S
C507 C511 1.400 . S
C508 H493 0.960 . S
C508 H494 0.960 . S
C508 H495 0.960 . S
C508 C507 1.524 . S
C509 C506 1.403 . S
C509 C510 1.392 . S
C509 C513 1.495 . S
C510 C509 1.392 . S
C510 C511 1.385 . S
C510 C512 1.478 . S
C511 H505 0.930 . S
C511 C507 1.400 . S
C511 C510 1.385 . S
C512 C510 1.478 . S
C512 C514 1.381 . S
C512 C518 1.383 . S
C513 C509 1.495 . S
C513 H519 0.959 . S
C513 H520 0.961 . S
C513 H521 0.960 . S
C514 C512 1.381 . S
C514 C515 1.394 . S
C514 H522 0.930 . S
C515 C514 1.394 . S
C515 C516 1.383 . S
C515 H523 0.929 . S
C516 C515 1.383 . S
C516 C517 1.377 . S
C517 H501 0.930 . S
C517 C516 1.377 . S
C517 C518 1.379 . S
C518 H502 0.931 . S
C518 C512 1.383 . S
C518 C517 1.379 . S
H519 C513 0.959 . S
H520 C513 0.961 . S
H521 C513 0.960 . S
H522 C514 0.930 . S
H523 C515 0.929 . S
H524 C532 0.929 . S
H525 C534 0.930 . S
H526 C536 0.930 . S
H527 C539 0.929 . S
H528 C542 0.930 . S
H529 C544 0.960 . S
H530 C544 0.960 . S
H531 C544 0.960 . S
C532 H524 0.929 . S
C532 C533 1.377 . S
C532 C534 1.384 . S
C533 C532 1.377 . S
C533 C539 1.390 . S
C534 H525 0.930 . S
C534 C532 1.384 . S
C534 C535 1.372 . S
C535 C534 1.372 . S
C535 C536 1.400 . S
C535 C540 1.490 . S
C536 H526 0.930 . S
C536 C535 1.400 . S
C536 C539 1.386 . S
H537 C553 0.930 . S
H538 C554 0.931 . S
C539 H527 0.929 . S
C539 C533 1.390 . S
C539 C536 1.386 . S
C540 C535 1.490 . S
C540 C542 1.395 . S
C540 C543 1.403 . S
H541 C547 0.930 . S
C542 H528 0.930 . S
C542 C540 1.395 . S
C542 C545 1.403 . S
C543 C540 1.403 . S
C543 C544 1.524 . S
C543 C547 1.400 . S
C544 H529 0.960 . S
C544 H530 0.960 . S
C544 H531 0.960 . S
C544 C543 1.524 . S
C545 C542 1.403 . S
C545 C546 1.392 . S
C545 C549 1.495 . S
C546 C545 1.392 . S
C546 C547 1.385 . S
C546 C548 1.478 . S
C547 H541 0.930 . S
C547 C543 1.400 . S
C547 C546 1.385 . S
C548 C546 1.478 . S
C548 C550 1.381 . S
C548 C554 1.383 . S
C549 C545 1.495 . S
C549 H555 0.959 . S
C549 H556 0.961 . S
C549 H557 0.960 . S
C550 C548 1.381 . S
C550 C551 1.394 . S
C550 H558 0.930 . S
C551 C550 1.394 . S
C551 C552 1.383 . S
C551 H559 0.929 . S
C552 C551 1.383 . S
C552 C553 1.377 . S
C553 H537 0.930 . S
C553 C552 1.377 . S
C553 C554 1.379 . S
C554 H538 0.931 . S
C554 C548 1.383 . S
C554 C553 1.379 . S
H555 C549 0.959 . S
H556 C549 0.961 . S
H557 C549 0.960 . S
H558 C550 0.930 . S
H559 C551 0.929 . S
H560 C568 0.929 . S
H561 C570 0.930 . S
H562 C572 0.930 . S
H563 C575 0.929 . S
H564 C578 0.930 . S
H565 C580 0.960 . S
H566 C580 0.960 . S
H567 C580 0.960 . S
C568 H560 0.929 . S
C568 C569 1.377 . S
C568 C570 1.384 . S
C569 C568 1.377 . S
C569 C575 1.390 . S
C570 H561 0.930 . S
C570 C568 1.384 . S
C570 C571 1.372 . S
C571 C570 1.372 . S
C571 C572 1.400 . S
C571 C576 1.490 . S
C572 H562 0.930 . S
C572 C571 1.400 . S
C572 C575 1.386 . S
H573 C589 0.930 . S
H574 C590 0.931 . S
C575 H563 0.929 . S
C575 C569 1.390 . S
C575 C572 1.386 . S
C576 C571 1.490 . S
C576 C578 1.395 1_556 S
C576 C579 1.403 . S
H577 C583 0.930 . S
C578 H564 0.930 . S
C578 C576 1.395 1_554 S
C578 C581 1.403 . S
C579 C576 1.403 . S
C579 C580 1.524 . S
C579 C583 1.400 . S
C580 H565 0.960 . S
C580 H566 0.960 . S
C580 H567 0.960 . S
C580 C579 1.524 . S
C581 C578 1.403 . S
C581 C582 1.392 . S
C581 C585 1.495 . S
C582 C581 1.392 . S
C582 C583 1.385 1_554 S
C582 C584 1.478 . S
C583 H577 0.930 . S
C583 C579 1.400 . S
C583 C582 1.385 1_556 S
C584 C582 1.478 . S
C584 C586 1.381 . S
C584 C590 1.383 . S
C585 C581 1.495 . S
C585 H591 0.959 . S
C585 H592 0.961 . S
C585 H593 0.960 . S
C586 C584 1.381 . S
C586 C587 1.394 . S
C586 H594 0.930 . S
C587 C586 1.394 . S
C587 C588 1.383 . S
C587 H595 0.929 . S
C588 C587 1.383 . S
C588 C589 1.377 . S
C589 H573 0.930 . S
C589 C588 1.377 . S
C589 C590 1.379 . S
C590 H574 0.931 . S
C590 C584 1.383 . S
C590 C589 1.379 . S
H591 C585 0.959 . S
H592 C585 0.961 . S
H593 C585 0.960 . S
H594 C586 0.930 . S
H595 C587 0.929 . S
H596 C604 0.929 . S
H597 C606 0.930 . S
H598 C608 0.930 . S
H599 C611 0.929 . S
H600 C614 0.930 1_556 S
H601 C616 0.960 . S
H602 C616 0.960 . S
H603 C616 0.960 . S
C604 H596 0.929 . S
C604 C605 1.377 . S
C604 C606 1.384 . S
C605 C604 1.377 . S
C605 C611 1.390 . S
C606 H597 0.930 . S
C606 C604 1.384 . S
C606 C607 1.372 . S
C607 C606 1.372 . S
C607 C608 1.400 . S
C607 C612 1.490 . S
C608 H598 0.930 . S
C608 C607 1.400 . S
C608 C611 1.386 . S
H609 C625 0.930 . S
H610 C626 0.931 . S
C611 H599 0.929 . S
C611 C605 1.390 . S
C611 C608 1.386 . S
C612 C607 1.490 . S
C612 C614 1.395 . S
C612 C615 1.403 . S
H613 C619 0.930 . S
C614 H600 0.930 1_554 S
C614 C612 1.395 . S
C614 C617 1.403 1_554 S
C615 C612 1.403 . S
C615 C616 1.524 . S
C615 C619 1.400 . S
C616 H601 0.960 . S
C616 H602 0.960 . S
C616 H603 0.960 . S
C616 C615 1.524 . S
C617 C614 1.403 1_556 S
C617 C618 1.392 . S
C617 C621 1.495 . S
C618 C617 1.392 . S
C618 C619 1.385 1_556 S
C618 C620 1.478 . S
C619 H613 0.930 . S
C619 C615 1.400 . S
C619 C618 1.385 1_554 S
C620 C618 1.478 . S
C620 C622 1.381 . S
C620 C626 1.383 . S
C621 C617 1.495 . S
C621 H627 0.959 . S
C621 H628 0.961 . S
C621 H629 0.960 . S
C622 C620 1.381 . S
C622 C623 1.394 . S
C622 H630 0.930 . S
C623 C622 1.394 . S
C623 C624 1.383 . S
C623 H631 0.929 . S
C624 C623 1.383 . S
C624 C625 1.377 . S
C625 H609 0.930 . S
C625 C624 1.377 . S
C625 C626 1.379 . S
C626 H610 0.931 . S
C626 C620 1.383 . S
C626 C625 1.379 . S
H627 C621 0.959 . S
H628 C621 0.961 . S
H629 C621 0.960 . S
H630 C622 0.930 . S
H631 C623 0.929 . S
H632 C640 0.929 . S
H633 C642 0.930 . S
H634 C644 0.930 . S
H635 C647 0.929 . S
H636 C650 0.930 . S
H637 C652 0.960 . S
H638 C652 0.960 . S
H639 C652 0.960 . S
C640 H632 0.929 . S
C640 C641 1.377 . S
C640 C642 1.384 . S
C641 C640 1.377 . S
C641 C647 1.390 . S
C642 H633 0.930 . S
C642 C640 1.384 . S
C642 C643 1.372 . S
C643 C642 1.372 . S
C643 C644 1.400 . S
C643 C648 1.490 . S
C644 H634 0.930 . S
C644 C643 1.400 . S
C644 C647 1.386 . S
H645 C661 0.930 . S
H646 C662 0.931 1_556 S
C647 H635 0.929 . S
C647 C641 1.390 . S
C647 C644 1.386 . S
C648 C643 1.490 . S
C648 C650 1.395 . S
C648 C651 1.403 . S
H649 C655 0.924 1_554 S
C650 H636 0.930 . S
C650 C648 1.395 . S
C650 C653 1.403 . S
C651 C648 1.403 . S
C651 C652 1.524 . S
C651 C655 1.411 . S
C652 H637 0.960 . S
C652 H638 0.960 . S
C652 H639 0.960 . S
C652 C651 1.524 . S
C653 C650 1.403 . S
C653 C654 1.392 1_556 S
C653 C657 1.495 1_556 S
C654 C653 1.392 1_554 S
C654 C655 1.380 1_554 S
C654 C656 1.478 . S
C655 H649 0.924 1_556 S
C655 C651 1.411 . S
C655 C654 1.380 1_556 S
C656 C654 1.478 . S
C656 C658 1.381 . S
C656 C662 1.383 . S
C657 C653 1.495 1_554 S
C657 H663 0.959 1_554 S
C657 H664 0.960 1_554 S
C657 H665 0.960 . S
C658 C656 1.381 . S
C658 C659 1.394 . S
C658 H666 0.930 . S
C659 C658 1.394 . S
C659 C660 1.383 . S
C659 H667 0.929 . S
C660 C659 1.383 . S
C660 C661 1.377 . S
C661 H645 0.930 . S
C661 C660 1.377 . S
C661 C662 1.379 . S
C662 H646 0.931 1_554 S
C662 C656 1.383 . S
C662 C661 1.379 . S
H663 C657 0.959 1_556 S
H664 C657 0.960 1_556 S
H665 C657 0.960 . S
H666 C658 0.930 . S
H667 C659 0.929 . S
H668 C676 0.929 . S
H669 C678 0.930 . S
H670 C680 0.933 1_554 S
H671 C683 0.929 . S
H672 C686 0.930 . S
H673 C688 0.960 . S
H674 C688 0.960 . S
H675 C688 0.960 . S
C676 H668 0.929 . S
C676 C677 1.377 . S
C676 C678 1.384 . S
C677 C676 1.377 . S
C677 C683 1.390 . S
C678 H669 0.930 . S
C678 C676 1.384 . S
C678 C679 1.372 . S
C679 C678 1.372 . S
C679 C680 1.400 . S
C679 C684 1.490 . S
C680 H670 0.933 1_556 S
C680 C679 1.400 . S
C680 C683 1.386 . S
H681 C697 0.930 . S
H682 C698 0.931 . S
C683 H671 0.929 . S
C683 C677 1.390 . S
C683 C680 1.386 . S
C684 C679 1.490 . S
C684 C686 1.395 . S
C684 C687 1.403 1_556 S
H685 C691 0.930 . S
C686 H672 0.930 . S
C686 C684 1.395 . S
C686 C689 1.403 . S
C687 C684 1.403 1_554 S
C687 C688 1.524 . S
C687 C691 1.400 . S
C688 H673 0.960 . S
C688 H674 0.960 . S
C688 H675 0.960 . S
C688 C687 1.524 . S
C689 C686 1.403 . S
C689 C690 1.392 1_556 S
C689 C693 1.495 . S
C690 C689 1.392 1_554 S
C690 C691 1.385 . S
C690 C692 1.478 . S
C691 H685 0.930 . S
C691 C687 1.400 . S
C691 C690 1.385 . S
C692 C690 1.478 . S
C692 C694 1.381 . S
C692 C698 1.383 . S
C693 C689 1.495 . S
C693 H699 0.959 . S
C693 H700 0.961 . S
C693 H701 0.960 . S
C694 C692 1.381 . S
C694 C695 1.394 . S
C694 H702 0.930 . S
C695 C694 1.394 . S
C695 C696 1.383 . S
C695 H703 0.929 . S
C696 C695 1.383 . S
C696 C697 1.377 . S
C697 H681 0.930 . S
C697 C696 1.377 . S
C697 C698 1.379 . S
C698 H682 0.931 . S
C698 C692 1.383 . S
C698 C697 1.379 . S
H699 C693 0.959 . S
H700 C693 0.961 . S
H701 C693 0.960 . S
H702 C694 0.930 . S
H703 C695 0.929 . S
H704 C712 0.929 . S
H705 C714 0.930 . S
H706 C716 0.930 . S
H707 C719 0.929 . S
H708 C722 0.930 . S
H709 C724 0.960 . S
H710 C724 0.960 . S
H711 C724 0.960 . S
C712 H704 0.929 . S
C712 C713 1.377 . S
C712 C714 1.384 . S
C713 C712 1.377 . S
C713 C719 1.390 . S
C714 H705 0.930 . S
C714 C712 1.384 . S
C714 C715 1.372 . S
C715 C714 1.372 . S
C715 C716 1.400 . S
C715 C720 1.490 . S
C716 H706 0.930 . S
C716 C715 1.400 . S
C716 C719 1.386 . S
H717 C733 0.930 . S
H718 C734 0.931 . S
C719 H707 0.929 . S
C719 C713 1.390 . S
C719 C716 1.386 . S
C720 C715 1.490 . S
C720 C722 1.395 . S
C720 C723 1.403 . S
H721 C727 0.930 . S
C722 H708 0.930 . S
C722 C720 1.395 . S
C722 C725 1.403 . S
C723 C720 1.403 . S
C723 C724 1.524 . S
C723 C727 1.400 . S
C724 H709 0.960 . S
C724 H710 0.960 . S
C724 H711 0.960 . S
C724 C723 1.524 . S
C725 C722 1.403 . S
C725 C726 1.392 . S
C725 C729 1.495 . S
C726 C725 1.392 . S
C726 C727 1.385 . S
C726 C728 1.478 . S
C727 H721 0.930 . S
C727 C723 1.400 . S
C727 C726 1.385 . S
C728 C726 1.478 . S
C728 C730 1.381 . S
C728 C734 1.383 . S
C729 C725 1.495 . S
C729 H735 0.959 . S
C729 H736 0.961 1_655 S
C729 H737 0.960 . S
C730 C728 1.381 . S
C730 C731 1.394 1_655 S
C730 H738 0.930 . S
C731 C730 1.394 1_455 S
C731 C732 1.383 . S
C731 H739 0.929 . S
C732 C731 1.383 . S
C732 C733 1.377 . S
C733 H717 0.930 . S
C733 C732 1.377 . S
C733 C734 1.379 1_455 S
C734 H718 0.931 . S
C734 C728 1.383 . S
C734 C733 1.379 1_655 S
H735 C729 0.959 . S
H736 C729 0.961 1_455 S
H737 C729 0.960 . S
H738 C730 0.930 . S
H739 C731 0.929 . S
H740 C748 0.929 . S
H741 C750 0.930 . S
H742 C752 0.930 . S
H743 C755 0.929 . S
H744 C758 0.930 . S
H745 C760 0.960 . S
H746 C760 0.960 . S
H747 C760 0.960 . S
C748 H740 0.929 . S
C748 C749 1.377 . S
C748 C750 1.384 . S
C749 C748 1.377 . S
C749 C755 1.390 . S
C750 H741 0.930 . S
C750 C748 1.384 . S
C750 C751 1.372 . S
C751 C750 1.372 . S
C751 C752 1.400 . S
C751 C756 1.490 . S
C752 H742 0.930 . S
C752 C751 1.400 . S
C752 C755 1.386 . S
H753 C769 0.930 . S
H754 C770 0.931 . S
C755 H743 0.929 . S
C755 C749 1.390 . S
C755 C752 1.386 . S
C756 C751 1.490 . S
C756 C758 1.395 . S
C756 C759 1.403 . S
H757 C763 0.930 . S
C758 H744 0.930 . S
C758 C756 1.395 . S
C758 C761 1.403 . S
C759 C756 1.403 . S
C759 C760 1.524 . S
C759 C763 1.400 . S
C760 H745 0.960 . S
C760 H746 0.960 . S
C760 H747 0.960 . S
C760 C759 1.524 . S
C761 C758 1.403 . S
C761 C762 1.392 . S
C761 C765 1.495 . S
C762 C761 1.392 . S
C762 C763 1.385 . S
C762 C764 1.478 . S
C763 H757 0.930 . S
C763 C759 1.400 . S
C763 C762 1.385 . S
C764 C762 1.478 . S
C764 C766 1.381 . S
C764 C770 1.383 . S
C765 C761 1.495 . S
C765 H771 0.959 . S
C765 H772 0.961 . S
C765 H773 0.960 . S
C766 C764 1.381 . S
C766 C767 1.394 1_545 S
C766 H774 0.930 . S
C767 C766 1.394 1_565 S
C767 C768 1.383 . S
C767 H775 0.929 . S
C768 C767 1.383 . S
C768 C769 1.377 . S
C769 H753 0.930 . S
C769 C768 1.377 . S
C769 C770 1.379 1_565 S
C770 H754 0.931 . S
C770 C764 1.383 . S
C770 C769 1.379 1_545 S
H771 C765 0.959 . S
H772 C765 0.961 . S
H773 C765 0.960 . S
H774 C766 0.930 . S
H775 C767 0.929 . S
H776 C784 0.929 . S
H777 C786 0.930 . S
H778 C788 0.930 . S
H779 C791 0.929 . S
H780 C794 0.930 . S
H781 C796 0.960 . S
H782 C796 0.960 . S
H783 C796 0.960 . S
C784 H776 0.929 . S
C784 C785 1.377 . S
C784 C786 1.384 . S
C785 C784 1.377 . S
C785 C791 1.390 . S
C786 H777 0.930 . S
C786 C784 1.384 . S
C786 C787 1.372 . S
C787 C786 1.372 . S
C787 C788 1.400 . S
C787 C792 1.490 . S
C788 H778 0.930 . S
C788 C787 1.400 . S
C788 C791 1.386 . S
H789 C805 0.930 . S
H790 C806 0.931 . S
C791 H779 0.929 . S
C791 C785 1.390 . S
C791 C788 1.386 . S
C792 C787 1.490 . S
C792 C794 1.395 . S
C792 C795 1.403 . S
H793 C799 0.930 . S
C794 H780 0.930 . S
C794 C792 1.395 . S
C794 C797 1.403 . S
C795 C792 1.403 . S
C795 C796 1.524 . S
C795 C799 1.400 . S
C796 H781 0.960 . S
C796 H782 0.960 . S
C796 H783 0.960 . S
C796 C795 1.524 . S
C797 C794 1.403 . S
C797 C798 1.392 . S
C797 C801 1.495 . S
C798 C797 1.392 . S
C798 C799 1.385 . S
C798 C800 1.478 . S
C799 H793 0.930 . S
C799 C795 1.400 . S
C799 C798 1.385 . S
C800 C798 1.478 . S
C800 C802 1.381 . S
C800 C806 1.383 1_455 S
C801 C797 1.495 . S
C801 H807 0.959 . S
C801 H808 0.961 . S
C801 H809 0.960 . S
C802 C800 1.381 . S
C802 C803 1.394 . S
C802 H810 0.930 . S
C803 C802 1.394 . S
C803 C804 1.383 1_455 S
C803 H811 0.929 . S
C804 C803 1.383 1_655 S
C804 C805 1.377 . S
C805 H789 0.930 . S
C805 C804 1.377 . S
C805 C806 1.379 . S
C806 H790 0.931 . S
C806 C800 1.383 1_655 S
C806 C805 1.379 . S
H807 C801 0.959 . S
H808 C801 0.961 . S
H809 C801 0.960 . S
H810 C802 0.930 . S
H811 C803 0.929 . S
H812 C820 0.929 . S
H813 C822 0.930 . S
H814 C824 0.930 . S
H815 C827 0.929 . S
H816 C830 0.930 . S
H817 C832 0.960 . S
H818 C832 0.960 . S
H819 C832 0.960 . S
C820 H812 0.929 . S
C820 C821 1.377 . S
C820 C822 1.384 . S
C821 C820 1.377 . S
C821 C827 1.390 . S
C822 H813 0.930 . S
C822 C820 1.384 . S
C822 C823 1.372 1_545 S
C823 C822 1.372 1_565 S
C823 C824 1.400 . S
C823 C828 1.490 . S
C824 H814 0.930 . S
C824 C823 1.400 . S
C824 C827 1.386 1_565 S
H825 C841 0.930 . S
H826 C842 0.931 . S
C827 H815 0.929 . S
C827 C821 1.390 . S
C827 C824 1.386 1_545 S
C828 C823 1.490 . S
C828 C830 1.395 . S
C828 C831 1.403 . S
H829 C835 0.930 . S
C830 H816 0.930 . S
C830 C828 1.395 . S
C830 C833 1.403 . S
C831 C828 1.403 . S
C831 C832 1.524 . S
C831 C835 1.400 . S
C832 H817 0.960 . S
C832 H818 0.960 . S
C832 H819 0.960 . S
C832 C831 1.524 . S
C833 C830 1.403 . S
C833 C834 1.392 . S
C833 C837 1.495 . S
C834 C833 1.392 . S
C834 C835 1.385 . S
C834 C836 1.478 . S
C835 H829 0.930 . S
C835 C831 1.400 . S
C835 C834 1.385 . S
C836 C834 1.478 . S
C836 C838 1.381 . S
C836 C842 1.383 . S
C837 C833 1.495 . S
C837 H843 0.959 . S
C837 H844 0.961 . S
C837 H845 0.960 . S
C838 C836 1.381 . S
C838 C839 1.394 . S
C838 H846 0.930 . S
C839 C838 1.394 . S
C839 C840 1.383 . S
C839 H847 0.929 . S
C840 C839 1.383 . S
C840 C841 1.377 . S
C841 H825 0.930 . S
C841 C840 1.377 . S
C841 C842 1.379 . S
C842 H826 0.931 . S
C842 C836 1.383 . S
C842 C841 1.379 . S
H843 C837 0.959 . S
H844 C837 0.961 . S
H845 C837 0.960 . S
H846 C838 0.930 . S
H847 C839 0.929 . S
H848 C856 0.929 . S
H849 C858 0.930 . S
H850 C860 0.930 . S
H851 C863 0.929 . S
H852 C866 0.930 . S
H853 C868 0.960 . S
H854 C868 0.960 . S
H855 C868 0.960 . S
C856 H848 0.929 . S
C856 C857 1.377 . S
C856 C858 1.384 . S
C857 C856 1.377 . S
C857 C863 1.390 . S
C858 H849 0.930 . S
C858 C856 1.384 . S
C858 C859 1.372 . S
C859 C858 1.372 . S
C859 C860 1.400 . S
C859 C864 1.490 . S
C860 H850 0.930 . S
C860 C859 1.400 . S
C860 C863 1.386 . S
H861 C877 0.930 . S
H862 C878 0.931 . S
C863 H851 0.929 . S
C863 C857 1.390 . S
C863 C860 1.386 . S
C864 C859 1.490 . S
C864 C866 1.395 . S
C864 C867 1.403 . S
H865 C871 0.930 . S
C866 H852 0.930 . S
C866 C864 1.395 . S
C866 C869 1.403 . S
C867 C864 1.403 . S
C867 C868 1.524 . S
C867 C871 1.400 . S
C868 H853 0.960 . S
C868 H854 0.960 . S
C868 H855 0.960 . S
C868 C867 1.524 . S
C869 C866 1.403 . S
C869 C870 1.392 . S
C869 C873 1.495 . S
C870 C869 1.392 . S
C870 C871 1.385 . S
C870 C872 1.478 . S
C871 H865 0.930 . S
C871 C867 1.400 . S
C871 C870 1.385 . S
C872 C870 1.478 . S
C872 C874 1.381 . S
C872 C878 1.383 . S
C873 C869 1.495 . S
C873 H879 0.959 . S
C873 H880 0.961 . S
C873 H881 0.960 . S
C874 C872 1.381 . S
C874 C875 1.394 . S
C874 H882 0.930 . S
C875 C874 1.394 . S
C875 C876 1.383 . S
C875 H883 0.929 . S
C876 C875 1.383 . S
C876 C877 1.377 . S
C877 H861 0.930 . S
C877 C876 1.377 . S
C877 C878 1.379 . S
C878 H862 0.931 . S
C878 C872 1.383 . S
C878 C877 1.379 . S
H879 C873 0.959 . S
H880 C873 0.961 . S
H881 C873 0.960 . S
H882 C874 0.930 . S
H883 C875 0.929 . S
H884 C892 0.929 . S
H885 C894 0.930 . S
H886 C896 0.930 . S
H887 C899 0.929 . S
H888 C902 0.930 . S
H889 C904 0.960 . S
H890 C904 0.960 . S
H891 C904 0.960 . S
C892 H884 0.929 . S
C892 C893 1.377 . S
C892 C894 1.384 . S
C893 C892 1.377 . S
C893 C899 1.390 . S
C894 H885 0.930 . S
C894 C892 1.384 . S
C894 C895 1.372 . S
C895 C894 1.372 . S
C895 C896 1.400 . S
C895 C900 1.490 . S
C896 H886 0.930 . S
C896 C895 1.400 . S
C896 C899 1.386 . S
H897 C913 0.930 . S
H898 C914 0.931 . S
C899 H887 0.929 . S
C899 C893 1.390 . S
C899 C896 1.386 . S
C900 C895 1.490 . S
C900 C902 1.395 . S
C900 C903 1.403 . S
H901 C907 0.930 . S
C902 H888 0.930 . S
C902 C900 1.395 . S
C902 C905 1.403 . S
C903 C900 1.403 . S
C903 C904 1.524 . S
C903 C907 1.400 . S
C904 H889 0.960 . S
C904 H890 0.960 . S
C904 H891 0.960 . S
C904 C903 1.524 . S
C905 C902 1.403 . S
C905 C906 1.392 . S
C905 C909 1.495 . S
C906 C905 1.392 . S
C906 C907 1.385 . S
C906 C908 1.478 . S
C907 H901 0.930 . S
C907 C903 1.400 . S
C907 C906 1.385 . S
C908 C906 1.478 . S
C908 C910 1.381 . S
C908 C914 1.383 . S
C909 C905 1.495 . S
C909 H915 0.959 . S
C909 H916 0.961 . S
C909 H917 0.960 . S
C910 C908 1.381 . S
C910 C911 1.394 . S
C910 H918 0.930 . S
C911 C910 1.394 . S
C911 C912 1.383 . S
C911 H919 0.929 . S
C912 C911 1.383 . S
C912 C913 1.377 . S
C913 H897 0.930 . S
C913 C912 1.377 . S
C913 C914 1.379 . S
C914 H898 0.931 . S
C914 C908 1.383 . S
C914 C913 1.379 . S
H915 C909 0.959 . S
H916 C909 0.961 . S
H917 C909 0.960 . S
H918 C910 0.930 . S
H919 C911 0.929 . S
H920 C928 0.929 . S
H921 C930 0.930 . S
H922 C932 0.930 . S
H923 C935 0.929 . S
H924 C938 0.930 . S
H925 C940 0.960 . S
H926 C940 0.960 . S
H927 C940 0.960 . S
C928 H920 0.929 . S
C928 C929 1.377 1_565 S
C928 C930 1.384 . S
C929 C928 1.377 1_545 S
C929 C935 1.390 . S
C930 H921 0.930 . S
C930 C928 1.384 . S
C930 C931 1.372 1_565 S
C931 C930 1.372 1_545 S
C931 C932 1.400 . S
C931 C936 1.489 1_545 S
C932 H922 0.930 . S
C932 C931 1.400 . S
C932 C935 1.386 . S
H933 C949 0.930 . S
H934 C950 0.931 . S
C935 H923 0.929 . S
C935 C929 1.390 . S
C935 C932 1.386 . S
C936 C931 1.489 1_565 S
C936 C938 1.398 . S
C936 C939 1.400 1_565 S
H937 C943 0.930 . S
C938 H924 0.930 . S
C938 C936 1.398 . S
C938 C941 1.403 1_655 S
C939 C936 1.400 1_545 S
C939 C940 1.524 . S
C939 C943 1.400 1_655 S
C940 H925 0.960 . S
C940 H926 0.960 . S
C940 H927 0.960 . S
C940 C939 1.524 . S
C941 C938 1.403 1_455 S
C941 C942 1.392 . S
C941 C945 1.495 . S
C942 C941 1.392 . S
C942 C943 1.385 1_565 S
C942 C944 1.478 . S
C943 H937 0.930 . S
C943 C939 1.400 1_455 S
C943 C942 1.385 1_545 S
C944 C942 1.478 . S
C944 C946 1.381 . S
C944 C950 1.383 1_565 S
C945 C941 1.495 . S
C945 H951 0.959 . S
C945 H952 0.961 . S
C945 H953 0.960 . S
C946 C944 1.381 . S
C946 C947 1.394 . S
C946 H954 0.930 . S
C947 C946 1.394 . S
C947 C948 1.383 . S
C947 H955 0.929 . S
C948 C947 1.383 . S
C948 C949 1.377 1_565 S
C949 H933 0.930 . S
C949 C948 1.377 1_545 S
C949 C950 1.379 . S
C950 H934 0.931 . S
C950 C944 1.383 1_545 S
C950 C949 1.379 . S
H951 C945 0.959 . S
H952 C945 0.961 . S
H953 C945 0.960 . S
H954 C946 0.930 . S
H955 C947 0.929 . S
H956 C964 0.929 . S
H957 C966 0.930 . S
H958 C968 0.930 . S
H959 C971 0.929 . S
H960 C974 0.930 . S
H961 C976 0.960 . S
H962 C976 0.960 . S
H963 C976 0.960 . S
C964 H956 0.929 . S
C964 C965 1.377 1_655 S
C964 C966 1.384 . S
C965 C964 1.377 1_455 S
C965 C971 1.390 . S
C966 H957 0.930 . S
C966 C964 1.384 . S
C966 C967 1.372 1_655 S
C967 C966 1.372 1_455 S
C967 C968 1.400 . S
C967 C972 1.490 . S
C968 H958 0.930 . S
C968 C967 1.400 . S
C968 C971 1.386 . S
H969 C985 0.930 . S
H970 C986 0.931 . S
C971 H959 0.929 . S
C971 C965 1.390 . S
C971 C968 1.386 . S
C972 C967 1.490 . S
C972 C974 1.395 . S
C972 C975 1.403 1_455 S
H973 C979 0.930 . S
C974 H960 0.930 . S
C974 C972 1.395 . S
C974 C977 1.403 1_545 S
C975 C972 1.403 1_655 S
C975 C976 1.524 . S
C975 C979 1.400 1_545 S
C976 H961 0.960 . S
C976 H962 0.960 . S
C976 H963 0.960 . S
C976 C975 1.524 . S
C977 C974 1.403 1_565 S
C977 C978 1.392 . S
C977 C981 1.495 . S
C978 C977 1.392 . S
C978 C979 1.385 1_455 S
C978 C980 1.477 1_455 S
C979 H973 0.930 . S
C979 C975 1.400 1_565 S
C979 C978 1.385 1_655 S
C980 C978 1.477 1_655 S
C980 C982 1.383 . S
C980 C986 1.381 1_655 S
C981 C977 1.495 . S
C981 H987 0.959 . S
C981 H988 0.961 . S
C981 H989 0.960 . S
C982 C980 1.383 . S
C982 C983 1.394 . S
C982 H990 0.930 . S
C983 C982 1.394 . S
C983 C984 1.383 . S
C983 H991 0.929 . S
C984 C983 1.383 . S
C984 C985 1.377 1_655 S
C985 H969 0.930 . S
C985 C984 1.377 1_455 S
C985 C986 1.379 . S
C986 H970 0.931 . S
C986 C980 1.381 1_455 S
C986 C985 1.379 . S
H987 C981 0.959 . S
H988 C981 0.961 . S
H989 C981 0.960 . S
H990 C982 0.930 . S
H991 C983 0.929 . S
H992 C1000 0.929 . S
H993 C1002 0.930 . S
H994 C1004 0.930 . S
H995 C1007 0.929 . S
H996 C1010 0.930 . S
H997 C1012 0.960 . S
H998 C1012 0.960 . S
H999 C1012 0.960 . S
C1000 H992 0.929 . S
C1000 C1001 1.377 . S
C1000 C1002 1.384 . S
C1001 C1000 1.377 . S
C1001 C1007 1.390 . S
C1002 H993 0.930 . S
C1002 C1000 1.384 . S
C1002 C1003 1.372 . S
C1003 C1002 1.372 . S
C1003 C1004 1.400 . S
C1003 C1008 1.490 . S
C1004 H994 0.930 . S
C1004 C1003 1.400 . S
C1004 C1007 1.386 . S
H1005 C1021 0.930 . S
H1006 C1022 0.931 . S
C1007 H995 0.929 . S
C1007 C1001 1.390 . S
C1007 C1004 1.386 . S
C1008 C1003 1.490 . S
C1008 C1010 1.395 . S
C1008 C1011 1.403 . S
H1009 C1015 0.930 . S
C1010 H996 0.930 . S
C1010 C1008 1.395 . S
C1010 C1013 1.403 . S
C1011 C1008 1.403 . S
C1011 C1012 1.524 . S
C1011 C1015 1.400 . S
C1012 H997 0.960 . S
C1012 H998 0.960 . S
C1012 H999 0.960 . S
C1012 C1011 1.524 . S
C1013 C1010 1.403 . S
C1013 C1014 1.392 . S
C1013 C1017 1.495 . S
C1014 C1013 1.392 . S
C1014 C1015 1.385 . S
C1014 C1016 1.478 . S
C1015 H1009 0.930 . S
C1015 C1011 1.400 . S
C1015 C1014 1.385 . S
C1016 C1014 1.478 . S
C1016 C1018 1.381 . S
C1016 C1022 1.383 . S
C1017 C1013 1.495 . S
C1017 H1023 0.959 . S
C1017 H1024 0.961 . S
C1017 H1025 0.960 . S
C1018 C1016 1.381 . S
C1018 C1019 1.394 . S
C1018 H1026 0.930 . S
C1019 C1018 1.394 . S
C1019 C1020 1.383 . S
C1019 H1027 0.929 . S
C1020 C1019 1.383 . S
C1020 C1021 1.377 . S
C1021 H1005 0.930 . S
C1021 C1020 1.377 . S
C1021 C1022 1.379 . S
C1022 H1006 0.931 . S
C1022 C1016 1.383 . S
C1022 C1021 1.379 . S
H1023 C1017 0.959 . S
H1024 C1017 0.961 . S
H1025 C1017 0.960 . S
H1026 C1018 0.930 . S
H1027 C1019 0.929 . S
H1028 C1036 0.929 . S
H1029 C1038 0.930 . S
H1030 C1040 0.930 . S
H1031 C1043 0.929 . S
H1032 C1046 0.930 . S
H1033 C1048 0.960 . S
H1034 C1048 0.960 . S
H1035 C1048 0.960 . S
C1036 H1028 0.929 . S
C1036 C1037 1.377 . S
C1036 C1038 1.384 . S
C1037 C1036 1.377 . S
C1037 C1043 1.390 . S
C1038 H1029 0.930 . S
C1038 C1036 1.384 . S
C1038 C1039 1.372 . S
C1039 C1038 1.372 . S
C1039 C1040 1.400 . S
C1039 C1044 1.490 . S
C1040 H1030 0.930 . S
C1040 C1039 1.400 . S
C1040 C1043 1.386 . S
H1041 C1057 0.930 . S
H1042 C1058 0.931 . S
C1043 H1031 0.929 . S
C1043 C1037 1.390 . S
C1043 C1040 1.386 . S
C1044 C1039 1.490 . S
C1044 C1046 1.395 . S
C1044 C1047 1.403 . S
H1045 C1051 0.930 . S
C1046 H1032 0.930 . S
C1046 C1044 1.395 . S
C1046 C1049 1.403 . S
C1047 C1044 1.403 . S
C1047 C1048 1.524 . S
C1047 C1051 1.400 . S
C1048 H1033 0.960 . S
C1048 H1034 0.960 . S
C1048 H1035 0.960 . S
C1048 C1047 1.524 . S
C1049 C1046 1.403 . S
C1049 C1050 1.392 . S
C1049 C1053 1.495 . S
C1050 C1049 1.392 . S
C1050 C1051 1.385 . S
C1050 C1052 1.478 . S
C1051 H1045 0.930 . S
C1051 C1047 1.400 . S
C1051 C1050 1.385 . S
C1052 C1050 1.478 . S
C1052 C1054 1.381 . S
C1052 C1058 1.383 . S
C1053 C1049 1.495 . S
C1053 H1059 0.959 . S
C1053 H1060 0.961 . S
C1053 H1061 0.960 . S
C1054 C1052 1.381 . S
C1054 C1055 1.394 . S
C1054 H1062 0.930 . S
C1055 C1054 1.394 . S
C1055 C1056 1.383 . S
C1055 H1063 0.929 . S
C1056 C1055 1.383 . S
C1056 C1057 1.377 . S
C1057 H1041 0.930 . S
C1057 C1056 1.377 . S
C1057 C1058 1.379 . S
C1058 H1042 0.931 . S
C1058 C1052 1.383 . S
C1058 C1057 1.379 . S
H1059 C1053 0.959 . S
H1060 C1053 0.961 . S
H1061 C1053 0.960 . S
H1062 C1054 0.930 . S
H1063 C1055 0.929 . S
H1064 C1072 0.929 . S
H1065 C1074 0.930 . S
H1066 C1076 0.930 . S
H1067 C1079 0.929 . S
H1068 C1082 0.930 . S
H1069 C1084 0.960 . S
H1070 C1084 0.960 . S
H1071 C1084 0.960 . S
C1072 H1064 0.929 . S
C1072 C1073 1.377 . S
C1072 C1074 1.384 . S
C1073 C1072 1.377 . S
C1073 C1079 1.390 . S
C1074 H1065 0.930 . S
C1074 C1072 1.384 . S
C1074 C1075 1.372 . S
C1075 C1074 1.372 . S
C1075 C1076 1.400 . S
C1075 C1080 1.490 . S
C1076 H1066 0.930 . S
C1076 C1075 1.400 . S
C1076 C1079 1.386 . S
H1077 C1093 0.930 . S
H1078 C1094 0.931 . S
C1079 H1067 0.929 . S
C1079 C1073 1.390 . S
C1079 C1076 1.386 . S
C1080 C1075 1.490 . S
C1080 C1082 1.395 . S
C1080 C1083 1.403 . S
H1081 C1087 0.930 . S
C1082 H1068 0.930 . S
C1082 C1080 1.395 . S
C1082 C1085 1.403 . S
C1083 C1080 1.403 . S
C1083 C1084 1.524 . S
C1083 C1087 1.400 . S
C1084 H1069 0.960 . S
C1084 H1070 0.960 . S
C1084 H1071 0.960 . S
C1084 C1083 1.524 . S
C1085 C1082 1.403 . S
C1085 C1086 1.392 . S
C1085 C1089 1.495 . S
C1086 C1085 1.392 . S
C1086 C1087 1.385 . S
C1086 C1088 1.478 . S
C1087 H1081 0.930 . S
C1087 C1083 1.400 . S
C1087 C1086 1.385 . S
C1088 C1086 1.478 . S
C1088 C1090 1.381 . S
C1088 C1094 1.383 . S
C1089 C1085 1.495 . S
C1089 H1095 0.959 . S
C1089 H1096 0.961 . S
C1089 H1097 0.960 . S
C1090 C1088 1.381 . S
C1090 C1091 1.394 . S
C1090 H1098 0.930 . S
C1091 C1090 1.394 . S
C1091 C1092 1.383 . S
C1091 H1099 0.929 . S
C1092 C1091 1.383 . S
C1092 C1093 1.377 . S
C1093 H1077 0.930 . S
C1093 C1092 1.377 . S
C1093 C1094 1.379 . S
C1094 H1078 0.931 . S
C1094 C1088 1.383 . S
C1094 C1093 1.379 . S
H1095 C1089 0.959 . S
H1096 C1089 0.961 . S
H1097 C1089 0.960 . S
H1098 C1090 0.930 . S
H1099 C1091 0.929 . S
H1100 C1108 0.929 . S
H1101 C1110 0.930 . S
H1102 C1112 0.930 . S
H1103 C1115 0.929 . S
H1104 C1118 0.930 . S
H1105 C1120 0.960 . S
H1106 C1120 0.960 . S
H1107 C1120 0.960 . S
C1108 H1100 0.929 . S
C1108 C1109 1.377 . S
C1108 C1110 1.384 . S
C1109 C1108 1.377 . S
C1109 C1115 1.390 . S
C1110 H1101 0.930 . S
C1110 C1108 1.384 . S
C1110 C1111 1.372 . S
C1111 C1110 1.372 . S
C1111 C1112 1.400 . S
C1111 C1116 1.490 . S
C1112 H1102 0.930 . S
C1112 C1111 1.400 . S
C1112 C1115 1.386 . S
H1113 C1129 0.930 . S
H1114 C1130 0.931 . S
C1115 H1103 0.929 . S
C1115 C1109 1.390 . S
C1115 C1112 1.386 . S
C1116 C1111 1.490 . S
C1116 C1118 1.395 . S
C1116 C1119 1.403 . S
H1117 C1123 0.930 . S
C1118 H1104 0.930 . S
C1118 C1116 1.395 . S
C1118 C1121 1.403 . S
C1119 C1116 1.403 . S
C1119 C1120 1.524 . S
C1119 C1123 1.400 . S
C1120 H1105 0.960 . S
C1120 H1106 0.960 . S
C1120 H1107 0.960 . S
C1120 C1119 1.524 . S
C1121 C1118 1.403 . S
C1121 C1122 1.392 . S
C1121 C1125 1.495 . S
C1122 C1121 1.392 . S
C1122 C1123 1.385 . S
C1122 C1124 1.478 . S
C1123 H1117 0.930 . S
C1123 C1119 1.400 . S
C1123 C1122 1.385 . S
C1124 C1122 1.478 . S
C1124 C1126 1.381 . S
C1124 C1130 1.383 . S
C1125 C1121 1.495 . S
C1125 H1131 0.959 . S
C1125 H1132 0.961 . S
C1125 H1133 0.960 . S
C1126 C1124 1.381 . S
C1126 C1127 1.394 . S
C1126 H1134 0.930 . S
C1127 C1126 1.394 . S
C1127 C1128 1.383 . S
C1127 H1135 0.929 . S
C1128 C1127 1.383 . S
C1128 C1129 1.377 . S
C1129 H1113 0.930 . S
C1129 C1128 1.377 . S
C1129 C1130 1.379 . S
C1130 H1114 0.931 . S
C1130 C1124 1.383 . S
C1130 C1129 1.379 . S
H1131 C1125 0.959 . S
H1132 C1125 0.961 . S
H1133 C1125 0.960 . S
H1134 C1126 0.930 . S
H1135 C1127 0.929 . S
H1136 C1144 0.929 . S
H1137 C1146 0.930 . S
H1138 C1148 0.930 . S
H1139 C1151 0.929 . S
H1140 C1154 0.930 . S
H1141 C1156 0.960 . S
H1142 C1156 0.960 . S
H1143 C1156 0.960 . S
C1144 H1136 0.929 . S
C1144 C1145 1.377 . S
C1144 C1146 1.384 . S
C1145 C1144 1.377 . S
C1145 C1151 1.390 . S
C1146 H1137 0.930 . S
C1146 C1144 1.384 . S
C1146 C1147 1.372 . S
C1147 C1146 1.372 . S
C1147 C1148 1.400 . S
C1147 C1152 1.490 . S
C1148 H1138 0.930 . S
C1148 C1147 1.400 . S
C1148 C1151 1.386 . S
H1149 C1165 0.930 . S
H1150 C1166 0.931 . S
C1151 H1139 0.929 . S
C1151 C1145 1.390 . S
C1151 C1148 1.386 . S
C1152 C1147 1.490 . S
C1152 C1154 1.395 . S
C1152 C1155 1.403 . S
H1153 C1159 0.930 . S
C1154 H1140 0.930 . S
C1154 C1152 1.395 . S
C1154 C1157 1.403 . S
C1155 C1152 1.403 . S
C1155 C1156 1.524 . S
C1155 C1159 1.400 . S
C1156 H1141 0.960 . S
C1156 H1142 0.960 . S
C1156 H1143 0.960 . S
C1156 C1155 1.524 . S
C1157 C1154 1.403 . S
C1157 C1158 1.392 . S
C1157 C1161 1.495 . S
C1158 C1157 1.392 . S
C1158 C1159 1.385 . S
C1158 C1160 1.478 . S
C1159 H1153 0.930 . S
C1159 C1155 1.400 . S
C1159 C1158 1.385 . S
C1160 C1158 1.478 . S
C1160 C1162 1.381 . S
C1160 C1166 1.383 . S
C1161 C1157 1.495 . S
C1161 H1167 0.959 . S
C1161 H1168 0.961 . S
C1161 H1169 0.960 . S
C1162 C1160 1.381 . S
C1162 C1163 1.394 . S
C1162 H1170 0.930 . S
C1163 C1162 1.394 . S
C1163 C1164 1.383 . S
C1163 H1171 0.929 . S
C1164 C1163 1.383 . S
C1164 C1165 1.377 . S
C1165 H1149 0.930 . S
C1165 C1164 1.377 . S
C1165 C1166 1.379 . S
C1166 H1150 0.931 . S
C1166 C1160 1.383 . S
C1166 C1165 1.379 . S
H1167 C1161 0.959 . S
H1168 C1161 0.961 . S
H1169 C1161 0.960 . S
H1170 C1162 0.930 . S
H1171 C1163 0.929 . S
H1172 C1180 0.929 . S
H1173 C1182 0.930 . S
H1174 C1184 0.930 . S
H1175 C1187 0.929 . S
H1176 C1190 0.930 . S
H1177 C1192 0.960 . S
H1178 C1192 0.960 . S
H1179 C1192 0.960 . S
C1180 H1172 0.929 . S
C1180 C1181 1.377 . S
C1180 C1182 1.384 . S
C1181 C1180 1.377 . S
C1181 C1187 1.390 . S
C1182 H1173 0.930 . S
C1182 C1180 1.384 . S
C1182 C1183 1.372 . S
C1183 C1182 1.372 . S
C1183 C1184 1.400 . S
C1183 C1188 1.490 . S
C1184 H1174 0.930 . S
C1184 C1183 1.400 . S
C1184 C1187 1.386 . S
H1185 C1201 0.930 . S
H1186 C1202 0.931 . S
C1187 H1175 0.929 . S
C1187 C1181 1.390 . S
C1187 C1184 1.386 . S
C1188 C1183 1.490 . S
C1188 C1190 1.395 . S
C1188 C1191 1.403 . S
H1189 C1195 0.930 . S
C1190 H1176 0.930 . S
C1190 C1188 1.395 . S
C1190 C1193 1.403 . S
C1191 C1188 1.403 . S
C1191 C1192 1.524 . S
C1191 C1195 1.400 . S
C1192 H1177 0.960 . S
C1192 H1178 0.960 . S
C1192 H1179 0.960 . S
C1192 C1191 1.524 . S
C1193 C1190 1.403 . S
C1193 C1194 1.392 . S
C1193 C1197 1.495 . S
C1194 C1193 1.392 . S
C1194 C1195 1.385 . S
C1194 C1196 1.478 . S
C1195 H1189 0.930 . S
C1195 C1191 1.400 . S
C1195 C1194 1.385 . S
C1196 C1194 1.478 . S
C1196 C1198 1.381 . S
C1196 C1202 1.383 . S
C1197 C1193 1.495 . S
C1197 H1203 0.959 . S
C1197 H1204 0.961 . S
C1197 H1205 0.960 . S
C1198 C1196 1.381 . S
C1198 C1199 1.394 . S
C1198 H1206 0.930 . S
C1199 C1198 1.394 . S
C1199 C1200 1.383 . S
C1199 H1207 0.929 . S
C1200 C1199 1.383 . S
C1200 C1201 1.377 . S
C1201 H1185 0.930 . S
C1201 C1200 1.377 . S
C1201 C1202 1.379 . S
C1202 H1186 0.931 . S
C1202 C1196 1.383 . S
C1202 C1201 1.379 . S
H1203 C1197 0.959 . S
H1204 C1197 0.961 . S
H1205 C1197 0.960 . S
H1206 C1198 0.930 . S
H1207 C1199 0.929 . S
H1208 C1216 0.929 . S
H1209 C1218 0.930 . S
H1210 C1220 0.930 . S
H1211 C1223 0.929 . S
H1212 C1226 0.930 . S
H1213 C1228 0.960 . S
H1214 C1228 0.960 . S
H1215 C1228 0.960 . S
C1216 H1208 0.929 . S
C1216 C1217 1.377 . S
C1216 C1218 1.384 . S
C1217 C1216 1.377 . S
C1217 C1223 1.390 . S
C1218 H1209 0.930 . S
C1218 C1216 1.384 . S
C1218 C1219 1.372 . S
C1219 C1218 1.372 . S
C1219 C1220 1.400 . S
C1219 C1224 1.490 . S
C1220 H1210 0.930 . S
C1220 C1219 1.400 . S
C1220 C1223 1.386 . S
H1221 C1237 0.930 . S
H1222 C1238 0.931 . S
C1223 H1211 0.929 . S
C1223 C1217 1.390 . S
C1223 C1220 1.386 . S
C1224 C1219 1.490 . S
C1224 C1226 1.395 . S
C1224 C1227 1.403 . S
H1225 C1231 0.930 . S
C1226 H1212 0.930 . S
C1226 C1224 1.395 . S
C1226 C1229 1.403 . S
C1227 C1224 1.403 . S
C1227 C1228 1.524 . S
C1227 C1231 1.400 . S
C1228 H1213 0.960 . S
C1228 H1214 0.960 . S
C1228 H1215 0.960 . S
C1228 C1227 1.524 . S
C1229 C1226 1.403 . S
C1229 C1230 1.392 . S
C1229 C1233 1.495 . S
C1230 C1229 1.392 . S
C1230 C1231 1.385 . S
C1230 C1232 1.478 . S
C1231 H1225 0.930 . S
C1231 C1227 1.400 . S
C1231 C1230 1.385 . S
C1232 C1230 1.478 . S
C1232 C1234 1.381 . S
C1232 C1238 1.383 . S
C1233 C1229 1.495 . S
C1233 H1239 0.959 . S
C1233 H1240 0.961 . S
C1233 H1241 0.960 . S
C1234 C1232 1.381 . S
C1234 C1235 1.394 . S
C1234 H1242 0.930 . S
C1235 C1234 1.394 . S
C1235 C1236 1.383 . S
C1235 H1243 0.929 . S
C1236 C1235 1.383 . S
C1236 C1237 1.377 . S
C1237 H1221 0.930 . S
C1237 C1236 1.377 . S
C1237 C1238 1.379 . S
C1238 H1222 0.931 . S
C1238 C1232 1.383 . S
C1238 C1237 1.379 . S
H1239 C1233 0.959 . S
H1240 C1233 0.961 . S
H1241 C1233 0.960 . S
H1242 C1234 0.930 . S
H1243 C1235 0.929 . S
H1244 C1252 0.929 . S
H1245 C1254 0.930 . S
H1246 C1256 0.930 . S
H1247 C1259 0.929 . S
H1248 C1262 0.930 . S
H1249 C1264 0.960 . S
H1250 C1264 0.960 . S
H1251 C1264 0.960 . S
C1252 H1244 0.929 . S
C1252 C1253 1.377 . S
C1252 C1254 1.384 . S
C1253 C1252 1.377 . S
C1253 C1259 1.390 . S
C1254 H1245 0.930 . S
C1254 C1252 1.384 . S
C1254 C1255 1.372 . S
C1255 C1254 1.372 . S
C1255 C1256 1.400 . S
C1255 C1260 1.490 . S
C1256 H1246 0.930 . S
C1256 C1255 1.400 . S
C1256 C1259 1.386 . S
H1257 C1273 0.930 . S
H1258 C1274 0.931 . S
C1259 H1247 0.929 . S
C1259 C1253 1.390 . S
C1259 C1256 1.386 . S
C1260 C1255 1.490 . S
C1260 C1262 1.395 . S
C1260 C1263 1.403 . S
H1261 C1267 0.930 . S
C1262 H1248 0.930 . S
C1262 C1260 1.395 . S
C1262 C1265 1.403 . S
C1263 C1260 1.403 . S
C1263 C1264 1.524 . S
C1263 C1267 1.400 . S
C1264 H1249 0.960 . S
C1264 H1250 0.960 . S
C1264 H1251 0.960 . S
C1264 C1263 1.524 . S
C1265 C1262 1.403 . S
C1265 C1266 1.392 . S
C1265 C1269 1.495 . S
C1266 C1265 1.392 . S
C1266 C1267 1.385 . S
C1266 C1268 1.478 . S
C1267 H1261 0.930 . S
C1267 C1263 1.400 . S
C1267 C1266 1.385 . S
C1268 C1266 1.478 . S
C1268 C1270 1.381 . S
C1268 C1274 1.383 . S
C1269 C1265 1.495 . S
C1269 H1275 0.959 . S
C1269 H1276 0.961 . S
C1269 H1277 0.960 . S
C1270 C1268 1.381 . S
C1270 C1271 1.394 . S
C1270 H1278 0.930 . S
C1271 C1270 1.394 . S
C1271 C1272 1.383 . S
C1271 H1279 0.929 . S
C1272 C1271 1.383 . S
C1272 C1273 1.377 . S
C1273 H1257 0.930 . S
C1273 C1272 1.377 . S
C1273 C1274 1.379 . S
C1274 H1258 0.931 . S
C1274 C1268 1.383 . S
C1274 C1273 1.379 . S
H1275 C1269 0.959 . S
H1276 C1269 0.961 . S
H1277 C1269 0.960 . S
H1278 C1270 0.930 . S
H1279 C1271 0.929 . S
C281 C15 1.577 . S
C300 C173 1.475 . S
C317 C56 1.574 . S
C336 C205 1.486 . S
C353 C241 1.484 . S
C372 C90 1.587 . S
C389 C137 1.474 . S
C408 C124 1.584 . S
C425 C151 1.572 . S
C444 C105 1.443 . S
C461 C192 1.573 . S
C480 C1 1.490 . S
C497 C219 1.577 . S
C516 C37 1.499 . S
C533 C260 1.571 . S
C552 C71 1.508 . S
C569 C119 0.855 . S
C588 C28 0.820 . S
C605 C17 0.858 . S
C624 C40 0.868 . S
C641 C51 0.858 . S
C660 C74 0.798 . S
C677 C108 0.853 . S
C696 C85 0.868 . S
C713 C164 0.843 . S
C732 C187 0.868 . S
C749 C176 0.834 . S
C768 C221 0.843 . S
C785 C232 0.853 . S
C804 C255 0.848 . S
C821 C153 0.859 . S
C840 C244 0.888 . S
C857 C22 0.678 . S
C876 C83 0.641 . S
C893 C49 0.678 . S
C912 C117 0.779 . S
C929 C158 0.690 . S
C948 C226 0.724 . S
C965 C185 0.706 . S
C984 C253 0.706 . S
C1001 C210 1.831 . S
C1020 C3 1.757 . S
C1037 C35 1.739 . S
C1056 C266 1.807 . S
C1073 C69 1.739 . S
C1092 C142 1.816 . S
C1109 C198 1.823 . S
C1128 C103 1.746 . S
C1145 C139 1.740 . S
C1164 C96 1.814 . S
C1181 C130 1.800 . S
C1200 C171 1.704 . S
C1217 C207 1.741 . S
C1236 C6 1.794 . S
C1253 C62 1.796 . S
C1272 C239 1.720 . S
