# Generated by pormake.
# Topology und, (4)-cn, num edge types: 1
# Building blocks:
#     Node 0, Type 0, BuildingBlock: GALJAG_clean_sbu_0, # of connection points: 4
#     Node 1, Type 0, BuildingBlock: GALJAG_clean_sbu_0, # of connection points: 4
#     Node 2, Type 0, BuildingBlock: GALJAG_clean_sbu_0, # of connection points: 4
#     Node 3, Type 0, BuildingBlock: GALJAG_clean_sbu_0, # of connection points: 4
#     Node 4, Type 0, BuildingBlock: GALJAG_clean_sbu_0, # of connection points: 4
#     Node 5, Type 0, BuildingBlock: GALJAG_clean_sbu_0, # of connection points: 4
#     Node 6, Type 0, BuildingBlock: GALJAG_clean_sbu_0, # of connection points: 4
#     Node 7, Type 0, BuildingBlock: GALJAG_clean_sbu_0, # of connection points: 4
#     Node 8, Type 0, BuildingBlock: GALJAG_clean_sbu_0, # of connection points: 4
#     Node 9, Type 0, BuildingBlock: GALJAG_clean_sbu_0, # of connection points: 4
#     Node 10, Type 0, BuildingBlock: GALJAG_clean_sbu_0, # of connection points: 4
#     Node 11, Type 0, BuildingBlock: GALJAG_clean_sbu_0, # of connection points: 4
#     Node 12, Type 0, BuildingBlock: GALJAG_clean_sbu_0, # of connection points: 4
#     Node 13, Type 0, BuildingBlock: GALJAG_clean_sbu_0, # of connection points: 4
#     Node 14, Type 0, BuildingBlock: GALJAG_clean_sbu_0, # of connection points: 4
#     Node 15, Type 0, BuildingBlock: GALJAG_clean_sbu_0, # of connection points: 4
#     Edge 16, Type (0, 0), BuildingBlock: XUDNAN_clean_linker_2, # of connection points: 2
#     Edge 17, Type (0, 0), BuildingBlock: XUDNAN_clean_linker_2, # of connection points: 2
#     Edge 18, Type (0, 0), BuildingBlock: XUDNAN_clean_linker_2, # of connection points: 2
#     Edge 19, Type (0, 0), BuildingBlock: XUDNAN_clean_linker_2, # of connection points: 2
#     Edge 20, Type (0, 0), BuildingBlock: XUDNAN_clean_linker_2, # of connection points: 2
#     Edge 21, Type (0, 0), BuildingBlock: XUDNAN_clean_linker_2, # of connection points: 2
#     Edge 22, Type (0, 0), BuildingBlock: XUDNAN_clean_linker_2, # of connection points: 2
#     Edge 23, Type (0, 0), BuildingBlock: XUDNAN_clean_linker_2, # of connection points: 2
#     Edge 24, Type (0, 0), BuildingBlock: XUDNAN_clean_linker_2, # of connection points: 2
#     Edge 25, Type (0, 0), BuildingBlock: XUDNAN_clean_linker_2, # of connection points: 2
#     Edge 26, Type (0, 0), BuildingBlock: XUDNAN_clean_linker_2, # of connection points: 2
#     Edge 27, Type (0, 0), BuildingBlock: XUDNAN_clean_linker_2, # of connection points: 2
#     Edge 28, Type (0, 0), BuildingBlock: XUDNAN_clean_linker_2, # of connection points: 2
#     Edge 29, Type (0, 0), BuildingBlock: XUDNAN_clean_linker_2, # of connection points: 2
#     Edge 30, Type (0, 0), BuildingBlock: XUDNAN_clean_linker_2, # of connection points: 2
#     Edge 31, Type (0, 0), BuildingBlock: XUDNAN_clean_linker_2, # of connection points: 2
#     Edge 32, Type (0, 0), BuildingBlock: XUDNAN_clean_linker_2, # of connection points: 2
#     Edge 33, Type (0, 0), BuildingBlock: XUDNAN_clean_linker_2, # of connection points: 2
#     Edge 34, Type (0, 0), BuildingBlock: XUDNAN_clean_linker_2, # of connection points: 2
#     Edge 35, Type (0, 0), BuildingBlock: XUDNAN_clean_linker_2, # of connection points: 2
#     Edge 36, Type (0, 0), BuildingBlock: XUDNAN_clean_linker_2, # of connection points: 2
#     Edge 37, Type (0, 0), BuildingBlock: XUDNAN_clean_linker_2, # of connection points: 2
#     Edge 38, Type (0, 0), BuildingBlock: XUDNAN_clean_linker_2, # of connection points: 2
#     Edge 39, Type (0, 0), BuildingBlock: XUDNAN_clean_linker_2, # of connection points: 2
#     Edge 40, Type (0, 0), BuildingBlock: XUDNAN_clean_linker_2, # of connection points: 2
#     Edge 41, Type (0, 0), BuildingBlock: XUDNAN_clean_linker_2, # of connection points: 2
#     Edge 42, Type (0, 0), BuildingBlock: XUDNAN_clean_linker_2, # of connection points: 2
#     Edge 43, Type (0, 0), BuildingBlock: XUDNAN_clean_linker_2, # of connection points: 2
#     Edge 44, Type (0, 0), BuildingBlock: XUDNAN_clean_linker_2, # of connection points: 2
#     Edge 45, Type (0, 0), BuildingBlock: XUDNAN_clean_linker_2, # of connection points: 2
#     Edge 46, Type (0, 0), BuildingBlock: XUDNAN_clean_linker_2, # of connection points: 2
#     Edge 47, Type (0, 0), BuildingBlock: XUDNAN_clean_linker_2, # of connection points: 2
# Relax obj value: 0.013
# Max RMSD: 0.034
# Mean RMSD: 0.034
data_MOF--net-und--node1-GALJAG_clean_sbu_0--edge1-XUDNAN_clean_linker_2
_symmetry_space_group_name_H-M    P1
_symmetry_Int_Tables_number       1
_symmetry_cell_setting            triclinic
loop_
_symmetry_equiv_pos_as_xyz
'x, y, z'
_cell_length_a     62.8678
_cell_length_b     62.860426
_cell_length_c     20.183695
_cell_angle_alpha  90.031785
_cell_angle_beta   89.984089
_cell_angle_gamma 89.9657
loop_
_atom_site_label
_atom_site_type_symbol
_atom_site_fract_x
_atom_site_fract_y
_atom_site_fract_z
_atom_type_partial_charge
In0 In 0.25742 0.34528 0.01507 0.0
O1 O 0.22736 0.36245 0.9777 0.0
O2 O 0.23446 0.364 0.08029 0.0
C3 C 0.26317 0.31297 0.92849 0.0
C4 C 0.28641 0.37559 0.9841 0.0
C5 C 0.26104 0.31982 0.12182 0.0
O6 O 0.24527 0.32192 0.93558 0.0
O7 O 0.2779 0.32083 0.96301 0.0
O8 O 0.27489 0.33358 0.10689 0.0
O9 O 0.24507 0.31932 0.08388 0.0
C10 C 0.22219 0.36951 0.03409 0.0
O11 O 0.28326 0.36924 0.0426 0.0
O12 O 0.27493 0.36668 0.94103 0.0
In13 In 0.91391 0.0086 0.23625 0.0
O14 O 0.89407 0.03778 0.26208 0.0
O15 O 0.89093 0.02555 0.16468 0.0
C16 C 0.94515 0.01626 0.32443 0.0
C17 C 0.88958 0.97818 0.29444 0.0
C18 C 0.94087 1.0013 0.13446 0.0
O19 O 0.93251 0.03064 0.30509 0.0
O20 O 0.94195 0.99815 0.29935 0.0
O21 O 0.92899 0.98694 0.15793 0.0
O22 O 0.93837 0.01941 0.16023 0.0
C23 C 0.88527 0.03945 0.20621 0.0
O24 O 0.89021 0.98036 0.23224 0.0
O25 O 0.90094 0.99119 0.32585 0.0
In26 In 0.25345 0.66521 0.49793 0.0
O27 O 0.28407 0.64546 0.48127 0.0
O28 O 0.27114 0.64805 0.5787 0.0
C29 C 0.24527 0.69122 0.39526 0.0
C30 C 0.22308 0.63544 0.48114 0.0
C31 C 0.2592 0.69793 0.58162 0.0
O32 O 0.26307 0.68185 0.40089 0.0
O33 O 0.23189 0.68685 0.43985 0.0
O34 O 0.24272 0.68631 0.58441 0.0
O35 O 0.27239 0.69291 0.53706 0.0
C36 C 0.28575 0.64086 0.54223 0.0
O37 O 0.22397 0.64699 0.53251 0.0
O38 O 0.23758 0.63879 0.43908 0.0
In39 In 0.59219 0.9964 0.77662 0.0
O40 O 0.61075 0.02783 0.7597 0.0
O41 O 0.60599 0.01685 0.85808 0.0
C42 C 0.56314 0.99185 0.67906 0.0
C43 C 0.62384 0.96856 0.74826 0.0
C44 C 0.56279 0.9903 0.87175 0.0
O45 O 0.57119 0.00984 0.69217 0.0
O46 O 0.5705 0.97668 0.71274 0.0
O47 O 0.57721 0.97681 0.85941 0.0
O48 O 0.56347 0.00696 0.83682 0.0
C49 C 0.61372 0.03092 0.82095 0.0
O50 O 0.6145 0.96906 0.80364 0.0
O51 O 0.61748 0.98234 0.70734 0.0
In52 In 0.75148 0.66662 0.99115 0.0
O53 O 0.71985 0.64853 0.98571 0.0
O54 O 0.73579 0.65095 0.0791 0.0
C55 C 0.75824 0.68899 0.87966 0.0
C56 C 0.77835 0.63401 0.96971 0.0
C57 C 0.74797 0.70078 0.07063 0.0
O58 O 0.73996 0.68176 0.89374 0.0
O59 O 0.77269 0.68426 0.92038 0.0
O60 O 0.76348 0.68794 0.07611 0.0
O61 O 0.73474 0.69618 0.02581 0.0
C62 C 0.71993 0.6441 0.04706 0.0
O63 O 0.7838 0.64984 0.00478 0.0
O64 O 0.75966 0.6347 0.94702 0.0
In65 In 0.09248 0.0056 0.73754 0.0
O66 O 0.11263 0.03585 0.75581 0.0
O67 O 0.11175 0.0221 0.65912 0.0
C68 C 0.06411 0.99867 0.8349 0.0
C69 C 0.1208 0.97426 0.76021 0.0
C70 C 0.06159 0.01262 0.64844 0.0
O71 O 0.07466 0.01586 0.83202 0.0
O72 O 0.06853 0.98522 0.79052 0.0
O73 O 0.07235 0.99553 0.64811 0.0
O74 O 0.06656 0.02575 0.69323 0.0
C75 C 0.11846 0.03689 0.69571 0.0
O76 O 0.11018 0.97537 0.707 0.0
O77 O 0.11725 0.98902 0.80126 0.0
In78 In 0.75594 0.34522 0.4898 0.0
O79 O 0.7306 0.36918 0.52259 0.0
O80 O 0.73457 0.36429 0.4194 0.0
C81 C 0.74855 0.31517 0.58281 0.0
C82 C 0.78855 0.37178 0.5198 0.0
C83 C 0.76121 0.31767 0.38831 0.0
O84 O 0.73422 0.32736 0.56098 0.0
O85 O 0.76686 0.31865 0.55959 0.0
O86 O 0.77634 0.32855 0.41159 0.0
O87 O 0.74342 0.32106 0.41517 0.0
C88 C 0.72482 0.37407 0.46471 0.0
O89 O 0.78285 0.36776 0.46121 0.0
O90 O 0.77804 0.36212 0.56372 0.0
In91 In 0.41242 0.9985 0.27664 0.0
O92 O 0.38778 0.97363 0.30783 0.0
O93 O 0.39043 0.98074 0.20535 0.0
C94 C 0.43998 0.99434 0.37829 0.0
C95 C 0.38851 0.03385 0.29638 0.0
C96 C 0.44269 0.99194 0.18396 0.0
O97 O 0.42619 0.98042 0.3643 0.0
O98 O 0.43935 0.0108 0.34251 0.0
O99 O 0.43471 0.01019 0.19356 0.0
O100 O 0.43496 0.97739 0.21949 0.0
C101 C 0.38129 0.96999 0.24972 0.0
O102 O 0.39575 0.02883 0.24008 0.0
O103 O 0.3938 0.02141 0.34245 0.0
In104 In 0.75726 0.84396 0.49573 0.0
O105 O 0.72804 0.86636 0.49934 0.0
O106 O 0.74381 0.85882 0.58925 0.0
C107 C 0.75034 0.81959 0.38761 0.0
C108 C 0.78848 0.87218 0.46639 0.0
C109 C 0.76301 0.81008 0.57553 0.0
O110 O 0.73594 0.83127 0.41212 0.0
O111 O 0.76812 0.82093 0.41606 0.0
O112 O 0.77821 0.82171 0.55634 0.0
O113 O 0.74486 0.8158 0.55556 0.0
C114 C 0.72889 0.86879 0.56147 0.0
O115 O 0.78822 0.86135 0.51895 0.0
O116 O 0.77292 0.86887 0.42831 0.0
In117 In 0.41571 0.50357 0.73009 0.0
O118 O 0.40442 0.53764 0.74875 0.0
O119 O 0.3906 0.52069 0.66827 0.0
C120 C 0.45025 0.49864 0.80777 0.0
C121 C 0.38768 0.4785 0.79515 0.0
C122 C 0.43835 0.4989 0.61801 0.0
O123 O 0.44031 0.51615 0.80461 0.0
O124 O 0.44247 0.48387 0.77307 0.0
O125 O 0.42523 0.48491 0.63724 0.0
O126 O 0.43929 0.5153 0.65398 0.0
C127 C 0.39138 0.53778 0.70102 0.0
O128 O 0.39235 0.47531 0.73495 0.0
O129 O 0.39686 0.49426 0.82108 0.0
In130 In 0.74838 0.16656 0.98774 0.0
O131 O 0.77819 0.14508 0.97938 0.0
O132 O 0.76182 0.14745 0.07173 0.0
C133 C 0.74326 0.19238 0.88288 0.0
C134 C 0.71595 0.13936 0.96707 0.0
C135 C 0.75562 0.19925 0.07063 0.0
O136 O 0.76038 0.18196 0.89099 0.0
O137 O 0.7291 0.18904 0.92591 0.0
O138 O 0.73838 0.18881 0.07241 0.0
O139 O 0.76886 0.19304 0.02773 0.0
C140 C 0.77729 0.13974 0.03997 0.0
O141 O 0.71635 0.15213 0.01564 0.0
O142 O 0.73205 0.14016 0.92956 0.0
In143 In 0.09276 0.50186 0.26306 0.0
O144 O 0.11177 0.47049 0.25848 0.0
O145 O 0.11247 0.49093 0.17481 0.0
C146 C 0.06388 0.49472 0.35919 0.0
C147 C 0.12025 0.52918 0.32203 0.0
C148 C 0.06247 0.51021 0.17233 0.0
O149 O 0.07596 0.48013 0.33762 0.0
O150 O 0.06671 0.51271 0.333 0.0
O151 O 0.07473 0.52453 0.19443 0.0
O152 O 0.06592 0.4918 0.19482 0.0
C153 C 0.11846 0.47364 0.20025 0.0
O154 O 0.11358 0.5321 0.26369 0.0
O155 O 0.11341 0.51254 0.34937 0.0
In156 In 0.25742 0.16651 0.51607 0.0
O157 O 0.28585 0.14329 0.51722 0.0
O158 O 0.269 0.14769 0.42704 0.0
C159 C 0.26177 0.19049 0.6259 0.0
C160 C 0.22314 0.142 0.54335 0.0
C161 C 0.26198 0.20031 0.43523 0.0
O162 O 0.27578 0.17718 0.60811 0.0
O163 O 0.24536 0.19093 0.58992 0.0
O164 O 0.24464 0.1901 0.43859 0.0
O165 O 0.2767 0.19316 0.47136 0.0
C166 C 0.28422 0.13867 0.45641 0.0
O167 O 0.2238 0.15452 0.49441 0.0
O168 O 0.23976 0.1418 0.57836 0.0
In169 In 0.593 0.50367 0.23071 0.0
O170 O 0.61648 0.47539 0.23162 0.0
O171 O 0.6122 0.49329 0.31994 0.0
C172 C 0.57024 0.49957 0.11853 0.0
C173 C 0.61706 0.53841 0.20591 0.0
C174 C 0.55858 0.49821 0.30853 0.0
O175 O 0.5837 0.4857 0.13637 0.0
O176 O 0.56899 0.51562 0.15595 0.0
O177 O 0.56816 0.51589 0.3049 0.0
O178 O 0.56666 0.48351 0.27418 0.0
C179 C 0.62134 0.47787 0.29197 0.0
O180 O 0.60486 0.53715 0.25556 0.0
O181 O 0.61709 0.52221 0.16898 0.0
In182 In 0.24997 0.84344 0.99978 0.0
O183 O 0.21902 0.86316 0.99431 0.0
O184 O 0.2401 0.86381 0.9121 0.0
C185 C 0.24231 0.81266 0.08967 0.0
C186 C 0.27609 0.87035 0.06569 0.0
C187 C 0.25874 0.81517 0.90356 0.0
O188 O 0.22763 0.82437 0.06687 0.0
O189 O 0.26069 0.81693 0.0684 0.0
O190 O 0.27273 0.8278 0.92573 0.0
O191 O 0.24055 0.81713 0.92937 0.0
C192 C 0.22277 0.87005 0.93667 0.0
O193 O 0.28099 0.86268 0.00982 0.0
O194 O 0.25816 0.86465 0.08722 0.0
In195 In 0.91418 0.50422 0.76591 0.0
O196 O 0.89584 0.53589 0.76503 0.0
O197 O 0.88562 0.51077 0.82944 0.0
C198 C 0.94598 0.49845 0.67964 0.0
C199 C 0.88902 0.47628 0.70368 0.0
C200 C 0.9409 0.51088 0.86696 0.0
O201 O 0.93485 0.51538 0.67872 0.0
O202 O 0.94087 0.48504 0.72353 0.0
O203 O 0.93167 0.49304 0.85939 0.0
O204 O 0.93604 0.52498 0.82496 0.0
C205 C 0.8827 0.52953 0.80864 0.0
O206 O 0.89618 0.47252 0.76147 0.0
O207 O 0.89436 0.49403 0.67913 0.0
H208 H 0.23405 0.28781 0.16051 0.0
H209 H 0.29487 0.31705 0.20603 0.0
H210 H 0.30116 0.29001 0.29244 0.0
H211 H 0.22036 0.27334 0.3307 0.0
H212 H 0.20823 0.24853 0.30676 0.0
H213 H 0.20804 0.27076 0.25045 0.0
H214 H 0.22603 0.24742 0.16063 0.0
H215 H 0.22641 0.22517 0.21675 0.0
H216 H 0.25079 0.23423 0.17922 0.0
H217 H 0.30182 0.259 0.36909 0.0
H218 H 0.29622 0.22665 0.43555 0.0
H219 H 0.23466 0.21744 0.34237 0.0
C220 C 0.24857 0.28866 0.18923 0.0
C221 C 0.26397 0.30456 0.17673 0.0
C222 C 0.28284 0.30506 0.21495 0.0
C223 C 0.28656 0.28976 0.26406 0.0
C224 C 0.27122 0.27413 0.2745 0.0
C225 C 0.25253 0.27353 0.23861 0.0
C226 C 0.23887 0.25474 0.259 0.0
C227 C 0.21762 0.2623 0.28849 0.0
C228 C 0.23533 0.23949 0.20041 0.0
C229 C 0.25293 0.24477 0.31148 0.0
C230 C 0.27151 0.25624 0.31947 0.0
C231 C 0.28728 0.24996 0.36367 0.0
C232 C 0.28396 0.23151 0.40103 0.0
C233 C 0.26499 0.21955 0.39422 0.0
C234 C 0.24927 0.22632 0.34884 0.0
H235 H 0.97471 0.9878 0.36988 0.0
H236 H 0.95404 0.05341 0.38926 0.0
H237 H 0.98219 0.05966 0.47247 0.0
H238 H 0.98661 0.97923 0.54093 0.0
H239 H 0.00963 0.96291 0.52504 0.0
H240 H 0.9882 0.96372 0.46594 0.0
H241 H 0.01465 0.97487 0.37383 0.0
H242 H 0.03619 0.97411 0.43265 0.0
H243 H 0.03116 0.998 0.38585 0.0
H244 H 0.01169 0.0585 0.55534 0.0
H245 H 0.04106 0.05031 0.63199 0.0
H246 H 0.04311 0.98549 0.55792 0.0
C247 C 0.97616 0.00351 0.39146 0.0
C248 C 0.96221 0.02015 0.3732 0.0
C249 C 0.96458 0.04046 0.40254 0.0
C250 C 0.98051 0.04415 0.44978 0.0
C251 C 0.99395 0.02738 0.46683 0.0
C252 C 0.992 0.00748 0.4385 0.0
C253 C 0.00837 0.99214 0.46611 0.0
C254 C 0.99755 0.9734 0.50162 0.0
C255 C 0.02349 0.98433 0.41134 0.0
C256 C 0.01977 0.00652 0.51475 0.0
C257 C 0.01116 0.02677 0.51431 0.0
C258 C 0.01863 0.04275 0.55592 0.0
C259 C 0.0353 0.03791 0.59934 0.0
C260 C 0.04439 0.01728 0.60075 0.0
C261 C 0.03656 1.00143 0.55758 0.0
H262 H 0.23197 0.7153 0.67381 0.0
H263 H 0.29534 0.7216 0.59065 0.0
H264 H 0.30229 0.75215 0.66417 0.0
H265 H 0.22159 0.77131 0.68884 0.0
H266 H 0.2073 0.76886 0.76587 0.0
H267 H 0.20741 0.74714 0.70766 0.0
H268 H 0.22191 0.72192 0.79866 0.0
H269 H 0.22181 0.74356 0.85717 0.0
H270 H 0.24597 0.72889 0.84213 0.0
H271 H 0.30248 0.78203 0.74701 0.0
H272 H 0.29546 0.80947 0.8323 0.0
H273 H 0.23184 0.78414 0.85958 0.0
C274 C 0.24732 0.72307 0.67129 0.0
C275 C 0.26312 0.71606 0.62663 0.0
C276 C 0.28298 0.72671 0.6245 0.0
C277 C 0.2871 0.74408 0.66609 0.0
C278 C 0.27119 0.75066 0.70941 0.0
C279 C 0.25168 0.74054 0.71226 0.0
C280 C 0.23722 0.75102 0.76265 0.0
C281 C 0.2172 0.76012 0.72924 0.0
C282 C 0.23139 0.73542 0.81846 0.0
C283 C 0.25165 0.76857 0.78755 0.0
C284 C 0.2712 0.76806 0.75643 0.0
C285 C 0.28721 0.78263 0.77167 0.0
C286 C 0.2831 0.79814 0.8201 0.0
C287 C 0.26312 0.79897 0.8523 0.0
C288 C 0.24725 0.78397 0.83558 0.0
H289 H 0.46199 0.01971 0.09655 0.0
H290 H 0.4639 0.95461 0.16819 0.0
H291 H 0.49483 0.94732 0.09688 0.0
H292 H 0.4765 0.00717 0.92628 0.0
H293 H 0.49241 0.03078 0.9159 0.0
H294 H 0.47017 0.03095 0.97221 0.0
H295 H 0.49507 0.04308 0.06726 0.0
H296 H 0.5174 0.04283 0.01133 0.0
H297 H 0.51832 0.02749 0.08671 0.0
H298 H 0.52621 0.94718 0.0214 0.0
H299 H 0.55503 0.95379 0.94081 0.0
H300 H 0.53255 0.01857 0.91511 0.0
C301 C 0.46886 0.00391 0.09684 0.0
C302 C 0.46053 0.98774 0.13797 0.0
C303 C 0.46997 0.96725 0.13702 0.0
C304 C 0.48758 0.96294 0.09679 0.0
C305 C 0.49555 0.97923 0.05734 0.0
C306 C 0.48643 0.99925 0.05646 0.0
C307 C 0.49814 0.01382 0.00897 0.0
C308 C 0.48343 0.0211 0.95249 0.0
C309 C 0.50781 0.03293 0.04579 0.0
C310 C 0.51529 0.99887 0.98386 0.0
C311 C 0.51353 0.97903 0.01266 0.0
C312 C 0.52772 0.96262 0.9982 0.0
C313 C 0.54406 0.96654 0.95255 0.0
C314 C 0.546 0.98665 0.92168 0.0
C315 C 0.53142 1.00301 0.9378 0.0
H316 H 0.27159 0.78495 0.1412 0.0
H317 H 0.20409 0.7995 0.14018 0.0
H318 H 0.19744 0.76863 0.21319 0.0
H319 H 0.26631 0.72768 0.13932 0.0
H320 H 0.28859 0.72332 0.19386 0.0
H321 H 0.28807 0.74635 0.14075 0.0
H322 H 0.29299 0.77096 0.24261 0.0
H323 H 0.2937 0.74802 0.29594 0.0
H324 H 0.27472 0.76896 0.31118 0.0
H325 H 0.19824 0.73682 0.28779 0.0
H326 H 0.20641 0.70698 0.36275 0.0
H327 H 0.27345 0.71263 0.31458 0.0
C328 C 0.2554 0.78166 0.15637 0.0
C329 C 0.23832 0.79464 0.13511 0.0
C330 C 0.21739 0.78979 0.15599 0.0
C331 C 0.21346 0.77226 0.19722 0.0
C332 C 0.23064 0.75971 0.2169 0.0
C333 C 0.2512 0.76421 0.19739 0.0
C334 C 0.26687 0.74845 0.22668 0.0
C335 C 0.27812 0.7357 0.17187 0.0
C336 C 0.28302 0.75978 0.27179 0.0
C337 C 0.25193 0.73447 0.26632 0.0
C338 C 0.23109 0.74122 0.25964 0.0
C339 C 0.21447 0.73133 0.29311 0.0
C340 C 0.21928 0.71437 0.33553 0.0
C341 C 0.24055 0.7074 0.34416 0.0
C342 C 0.25702 0.7174 0.30821 0.0
H343 H 0.47026 0.0226 0.42302 0.0
H344 H 0.44773 0.95774 0.44605 0.0
H345 H 0.47729 0.95028 0.52277 0.0
H346 H 0.52591 0.0109 0.42626 0.0
H347 H 0.5332 0.03407 0.47378 0.0
H348 H 0.51005 0.03475 0.42125 0.0
H349 H 0.48665 0.04575 0.52122 0.0
H350 H 0.50977 0.04532 0.57394 0.0
H351 H 0.48677 0.0296 0.59503 0.0
H352 H 0.50978 0.94909 0.59163 0.0
H353 H 0.54176 0.955 0.65899 0.0
H354 H 0.54328 0.02113 0.59672 0.0
C355 C 0.47147 0.0069 0.44474 0.0
C356 C 0.4567 0.99072 0.42856 0.0
C357 C 0.4588 0.97038 0.45788 0.0
C358 C 0.47559 0.96596 0.50129 0.0
C359 C 0.49006 0.9821 0.51535 0.0
C360 C 0.48808 1.00225 0.48884 0.0
C361 C 0.50579 0.01672 0.51319 0.0
C362 C 0.51955 0.02457 0.45515 0.0
C363 C 0.4967 0.03545 0.55323 0.0
C364 C 0.51807 1.00147 0.55721 0.0
C365 C 0.50873 0.98156 0.55701 0.0
C366 C 0.51717 0.96463 0.59261 0.0
C367 C 0.53542 0.96817 0.63054 0.0
C368 C 0.54504 0.98854 0.63326 0.0
C369 C 0.5363 0.00539 0.59559 0.0
H370 H 0.23401 0.221 0.66975 0.0
H371 H 0.2973 0.19549 0.70267 0.0
H372 H 0.30425 0.22393 0.78445 0.0
H373 H 0.24808 0.27533 0.67747 0.0
H374 H 0.22429 0.28372 0.71997 0.0
H375 H 0.22368 0.26065 0.66712 0.0
H376 H 0.20943 0.23776 0.76417 0.0
H377 H 0.20976 0.26083 0.81719 0.0
H378 H 0.22387 0.23709 0.8413 0.0
H379 H 0.30515 0.25634 0.8566 0.0
H380 H 0.29923 0.28914 0.92088 0.0
H381 H 0.23503 0.2935 0.84277 0.0
C382 C 0.24922 0.2212 0.69493 0.0
C383 C 0.26512 0.20599 0.68007 0.0
C384 C 0.28486 0.20689 0.7136 0.0
C385 C 0.28897 0.22303 0.75992 0.0
C386 C 0.27312 0.23804 0.77234 0.0
C387 C 0.25355 0.23715 0.74141 0.0
C388 C 0.23942 0.25549 0.7627 0.0
C389 C 0.23353 0.26963 0.70327 0.0
C390 C 0.21944 0.2473 0.79848 0.0
C391 C 0.25418 0.26698 0.81001 0.0
C392 C 0.27355 0.25665 0.81462 0.0
C393 C 0.28999 0.26446 0.85381 0.0
C394 C 0.28649 0.28318 0.88991 0.0
C395 C 0.26666 0.29388 0.88691 0.0
C396 C 0.25033 0.28566 0.84618 0.0
H397 H 0.04415 0.02748 0.91748 0.0
H398 H 0.04408 0.96112 0.8579 0.0
H399 H 0.01248 0.95468 0.9272 0.0
H400 H 0.0266 0.01853 0.08855 0.0
H401 H 0.01026 0.04209 0.09015 0.0
H402 H 0.03365 0.04123 0.03862 0.0
H403 H 0.01062 0.05078 0.93638 0.0
H404 H 0.98713 0.05139 0.98744 0.0
H405 H 0.98808 0.03435 0.91566 0.0
H406 H 0.98005 0.95555 0.99887 0.0
H407 H 0.9499 0.96347 0.07358 0.0
H408 H 0.97054 0.02923 0.08619 0.0
C409 C 0.03768 0.01154 0.91999 0.0
C410 C 0.04663 0.99478 0.88248 0.0
C411 C 0.03752 0.9742 0.88628 0.0
C412 C 0.01953 0.97037 0.92542 0.0
C413 C 0.01078 0.98728 0.96056 0.0
C414 C 0.0196 0.00743 0.95876 0.0
C415 C 0.00672 0.02287 1.00029 0.0
C416 C 0.0201 0.0317 0.05782 0.0
C417 C 0.9976 0.04091 0.95736 0.0
C418 C 0.98926 0.00827 0.02518 0.0
C419 C 0.99192 0.98781 0.00167 0.0
C420 C 0.97781 0.97151 0.01778 0.0
C421 C 0.96069 0.97616 0.05999 0.0
C422 C 0.95782 0.99695 0.08544 0.0
C423 C 0.97223 0.01321 0.06719 0.0
H424 H 0.72945 0.71268 0.80788 0.0
H425 H 0.79683 0.69921 0.82877 0.0
H426 H 0.80514 0.72758 0.74875 0.0
H427 H 0.73107 0.72687 0.62881 0.0
H428 H 0.71174 0.74782 0.63876 0.0
H429 H 0.71087 0.7248 0.69189 0.0
H430 H 0.71264 0.74939 0.79479 0.0
H431 H 0.7138 0.77245 0.74208 0.0
H432 H 0.73434 0.76796 0.80279 0.0
H433 H 0.8066 0.75949 0.67624 0.0
H434 H 0.80086 0.79185 0.60937 0.0
H435 H 0.73261 0.78495 0.63397 0.0
C436 C 0.74589 0.71533 0.79406 0.0
C437 C 0.7625 0.70366 0.82412 0.0
C438 C 0.78386 0.70791 0.80611 0.0
C439 C 0.78875 0.724 0.76072 0.0
C440 C 0.77211 0.73569 0.73356 0.0
C441 C 0.75109 0.73146 0.74884 0.0
C442 C 0.73637 0.74728 0.7154 0.0
C443 C 0.72165 0.73602 0.66575 0.0
C444 C 0.72354 0.76002 0.76685 0.0
C445 C 0.75246 0.76126 0.68021 0.0
C446 C 0.77297 0.75422 0.69124 0.0
C447 C 0.7906 0.76502 0.66647 0.0
C448 C 0.78719 0.78344 0.62886 0.0
C449 C 0.76632 0.79085 0.61634 0.0
C450 C 0.74876 0.77956 0.64235 0.0
H451 H 0.73209 0.28866 0.34333 0.0
H452 H 0.79714 0.31002 0.31584 0.0
H453 H 0.80256 0.28213 0.23111 0.0
H454 H 0.74305 0.23299 0.32846 0.0
H455 H 0.71874 0.22698 0.28497 0.0
H456 H 0.71968 0.24908 0.34175 0.0
H457 H 0.70685 0.27446 0.24885 0.0
H458 H 0.70578 0.25243 0.19183 0.0
H459 H 0.72136 0.27562 0.17187 0.0
H460 H 0.80103 0.2519 0.15068 0.0
H461 H 0.79285 0.22112 0.07951 0.0
H462 H 0.72891 0.21873 0.16051 0.0
C463 C 0.74743 0.28757 0.31908 0.0
C464 C 0.76419 0.30155 0.33583 0.0
C465 C 0.78408 0.2995 0.30357 0.0
C466 C 0.7873 0.28372 0.25546 0.0
C467 C 0.77049 0.27009 0.24045 0.0
C468 C 0.75095 0.27183 0.27126 0.0
C469 C 0.73568 0.25486 0.24696 0.0
C470 C 0.7289 0.24011 0.30393 0.0
C471 C 0.71627 0.26495 0.21284 0.0
C472 C 0.7497 0.24331 0.1976 0.0
C473 C 0.76969 0.25241 0.19459 0.0
C474 C 0.78544 0.24464 0.15258 0.0
C475 C 0.78062 0.22714 0.11236 0.0
C476 C 0.76025 0.21751 0.11453 0.0
C477 C 0.74463 0.22572 0.15793 0.0
H478 H 0.77362 0.21281 0.80688 0.0
H479 H 0.70571 0.20947 0.84441 0.0
H480 H 0.69987 0.24006 0.7706 0.0
H481 H 0.77722 0.26879 0.8072 0.0
H482 H 0.79646 0.27065 0.74122 0.0
H483 H 0.79552 0.24721 0.79238 0.0
H484 H 0.79071 0.22357 0.6883 0.0
H485 H 0.79193 0.24692 0.63669 0.0
H486 H 0.76942 0.22926 0.63117 0.0
H487 H 0.7013 0.27236 0.70048 0.0
H488 H 0.70979 0.30336 0.63052 0.0
H489 H 0.77672 0.28637 0.63655 0.0
C490 C 0.75751 0.21824 0.79819 0.0
C491 C 0.7401 0.20871 0.83112 0.0
C492 C 0.71927 0.2165 0.81962 0.0
C493 C 0.71578 0.23389 0.77784 0.0
C494 C 0.73326 0.24335 0.74768 0.0
C495 C 0.7537 0.23573 0.75655 0.0
C496 C 0.76968 0.24946 0.71981 0.0
C497 C 0.78566 0.25963 0.76805 0.0
C498 C 0.78111 0.23653 0.66577 0.0
C499 C 0.75501 0.26606 0.68985 0.0
C500 C 0.73408 0.26218 0.70667 0.0
C501 C 0.71761 0.2755 0.68642 0.0
C502 C 0.7226 0.29312 0.64697 0.0
C503 C 0.74389 0.29728 0.62809 0.0
C504 C 0.76029 0.28359 0.6502 0.0
H505 H 0.77556 0.71783 0.1631 0.0
H506 H 0.71341 0.72675 0.07361 0.0
H507 H 0.7076 0.75855 0.14254 0.0
H508 H 0.76081 0.73404 0.32781 0.0
H509 H 0.78552 0.74759 0.34411 0.0
H510 H 0.78492 0.72547 0.2874 0.0
H511 H 0.80161 0.74912 0.19601 0.0
H512 H 0.80218 0.77134 0.25242 0.0
H513 H 0.78885 0.7738 0.17373 0.0
H514 H 0.70794 0.78891 0.22308 0.0
H515 H 0.71486 0.81599 0.3095 0.0
H516 H 0.77706 0.78819 0.34444 0.0
C517 C 0.76075 0.72649 0.15812 0.0
C518 C 0.74494 0.71978 0.113 0.0
C519 C 0.72578 0.73158 0.10775 0.0
C520 C 0.72231 0.7497 0.1467 0.0
C521 C 0.73819 0.75595 0.19052 0.0
C522 C 0.75706 0.74477 0.19643 0.0
C523 C 0.77148 0.75498 0.2475 0.0
C524 C 0.77594 0.7396 0.30512 0.0
C525 C 0.79226 0.76277 0.21548 0.0
C526 C 0.7577 0.77349 0.2695 0.0
C527 C 0.73854 0.77375 0.2361 0.0
C528 C 0.72295 0.78898 0.2493 0.0
C529 C 0.72701 0.8043 0.29836 0.0
C530 C 0.74652 0.8043 0.33322 0.0
C531 C 0.76207 0.78876 0.31805 0.0
H532 H 0.53931 0.5269 0.07585 0.0
H533 H 0.56753 0.46522 0.03525 0.0
H534 H 0.54049 0.45887 0.94846 0.0
H535 H 0.48593 0.51102 0.05965 0.0
H536 H 0.47704 0.53525 0.0208 0.0
H537 H 0.49953 0.53571 0.07597 0.0
H538 H 0.52277 0.55264 0.98403 0.0
H539 H 0.50029 0.55242 0.92867 0.0
H540 H 0.52481 0.53971 0.90452 0.0
H541 H 0.50895 0.45823 0.87211 0.0
H542 H 0.47615 0.4639 0.80751 0.0
H543 H 0.46857 0.52622 0.89718 0.0
C544 C 0.54004 0.51219 0.04796 0.0
C545 C 0.55558 0.49656 0.06203 0.0
C546 C 0.55584 0.47745 0.02497 0.0
C547 C 0.54053 0.47369 0.97572 0.0
C548 C 0.52516 0.48926 0.96405 0.0
C549 C 0.52491 0.50821 0.99871 0.0
C550 C 0.50626 0.52202 0.97822 0.0
C551 C 0.49131 0.52624 0.03717 0.0
C552 C 0.514 0.54294 0.94699 0.0
C553 C 0.49586 0.50776 0.92717 0.0
C554 C 0.50704 0.48896 0.91975 0.0
C555 C 0.50019 0.47297 0.87707 0.0
C556 C 0.48148 0.47632 0.84078 0.0
C557 C 0.46983 0.49552 0.84722 0.0
C558 C 0.4772 0.51144 0.89095 0.0
H559 H 0.0343 0.52325 0.40423 0.0
H560 H 0.05587 0.4581 0.42819 0.0
H561 H 0.02776 0.45211 0.51185 0.0
H562 H 0.02149 0.53297 0.57531 0.0
H563 H 0.99827 0.54873 0.55695 0.0
H564 H 0.0201 0.5479 0.4992 0.0
H565 H 0.99443 0.53563 0.40638 0.0
H566 H 0.97251 0.53637 0.46386 0.0
H567 H 0.9783 0.51227 0.41891 0.0
H568 H 0.99775 0.45331 0.59292 0.0
H569 H 0.96757 0.46126 0.66647 0.0
H570 H 0.96478 0.52565 0.58912 0.0
C571 C 0.03315 0.50773 0.42721 0.0
C572 C 0.0473 0.49112 0.40992 0.0
C573 C 0.04522 0.47103 0.4408 0.0
C574 C 0.0293 0.46749 0.48829 0.0
C575 C 0.01559 0.48419 0.50405 0.0
C576 C 0.01731 0.50391 0.47445 0.0
C577 C 1.00045 0.51912 0.50011 0.0
C578 C 0.0107 0.53831 0.53497 0.0
C579 C 0.98554 0.52626 0.44396 0.0
C580 C 0.989 0.50489 0.54907 0.0
C581 C 0.99805 0.48483 0.55046 0.0
C582 C 0.99052 0.46893 0.59218 0.0
C583 C 0.97335 0.47365 0.63383 0.0
C584 C 0.96378 0.49409 0.63352 0.0
C585 C 0.97169 0.50987 0.59024 0.0
H586 H 0.03448 0.4816 0.11881 0.0
H587 H 0.0502 0.54882 0.12264 0.0
H588 H 0.01959 0.55631 0.04939 0.0
H589 H 0.01864 0.47954 0.94796 0.0
H590 H 0.9974 0.46084 0.9622 0.0
H591 H 0.02034 0.4609 0.0156 0.0
H592 H 0.99578 0.46572 0.11765 0.0
H593 H 0.97277 0.46587 0.06448 0.0
H594 H 0.97747 0.48779 0.12015 0.0
H595 H 0.98767 0.55645 0.97548 0.0
H596 H 0.95749 0.54924 0.90103 0.0
H597 H 0.96219 0.48182 0.94508 0.0
C598 C 0.0315 0.4979 0.10415 0.0
C599 C 0.04471 0.51466 0.12637 0.0
C600 C 0.04031 0.53575 0.10609 0.0
C601 C 0.02292 0.54016 0.06473 0.0
C602 C 0.01012 0.52329 0.04421 0.0
C603 C 0.01424 0.50257 0.0629 0.0
C604 C 0.99824 0.48731 0.03281 0.0
C605 C 0.00932 0.4712 0.98691 0.0
C606 C 0.9853 0.47601 0.08702 0.0
C607 C 0.98452 0.50269 0.9939 0.0
C608 C 0.99163 0.52337 0.00153 0.0
C609 C 0.98193 0.54035 0.9693 0.0
C610 C 0.96477 0.53607 0.92716 0.0
C611 C 0.95743 0.51498 0.91749 0.0
C612 C 0.96728 0.49812 0.95214 0.0
H613 H 0.46855 0.52654 0.57299 0.0
H614 H 0.4419 0.46388 0.53766 0.0
H615 H 0.46919 0.45739 0.45156 0.0
H616 H 0.48298 0.5382 0.4009 0.0
H617 H 0.50714 0.55167 0.42433 0.0
H618 H 0.48456 0.55184 0.47933 0.0
H619 H 0.50804 0.53625 0.57297 0.0
H620 H 0.53063 0.53583 0.51818 0.0
H621 H 0.52225 0.51174 0.55892 0.0
H622 H 0.50086 0.45686 0.37543 0.0
H623 H 0.53362 0.46279 0.31074 0.0
H624 H 0.53948 0.52598 0.39556 0.0
C625 C 0.46821 0.51158 0.54638 0.0
C626 C 0.45305 0.49572 0.56172 0.0
C627 C 0.45329 0.47628 0.52634 0.0
C628 C 0.46874 0.47245 0.47752 0.0
C629 C 0.48373 0.48827 0.46463 0.0
C630 C 0.48348 0.50752 0.49765 0.0
C631 C 0.50181 0.52157 0.47631 0.0
C632 C 0.49363 0.54203 0.44324 0.0
C633 C 0.51655 0.52663 0.5351 0.0
C634 C 0.51263 0.50712 0.42664 0.0
C635 C 0.50193 0.488 0.42061 0.0
C636 C 0.50925 0.47184 0.37932 0.0
C637 C 0.52792 0.47534 0.34298 0.0
C638 C 0.53907 0.49486 0.34805 0.0
C639 C 0.53125 0.51094 0.39042 0.0
H640 H 0.14394 0.44188 0.25064 0.0
H641 H 0.12342 0.471 0.06663 0.0
H642 H 0.14592 0.44593 0.00358 0.0
H643 H 0.19807 0.43511 0.2015 0.0
H644 H 0.20152 0.41013 0.24395 0.0
H645 H 0.18254 0.42925 0.27434 0.0
H646 H 0.15277 0.40083 0.26775 0.0
H647 H 0.17167 0.38163 0.2371 0.0
H648 H 0.1479 0.38732 0.19041 0.0
H649 H 0.17098 0.41793 0.9603 0.0
H650 H 0.19905 0.39103 0.94075 0.0
H651 H 0.20478 0.38141 0.15285 0.0
C652 C 0.14404 0.44279 0.19706 0.0
C653 C 0.13183 0.45826 0.16342 0.0
C654 C 0.13265 0.45925 0.09335 0.0
C655 C 0.14531 0.44502 0.05708 0.0
C656 C 0.15725 0.43001 0.09161 0.0
C657 C 0.15691 0.42892 0.16006 0.0
C658 C 0.1723 0.41219 0.18513 0.0
C659 C 0.18963 0.42228 0.22879 0.0
C660 C 0.16044 0.39444 0.22229 0.0
C661 C 0.1814 0.40415 0.12019 0.0
C662 C 0.17229 0.41442 0.06678 0.0
C663 C 0.17823 0.40977 0.00175 0.0
C664 C 0.19413 0.39443 0.99108 0.0
C665 C 0.20409 0.38416 0.0452 0.0
C666 C 0.19744 0.389 0.11046 0.0
H667 H 0.79609 0.89307 0.34878 0.0
H668 H 0.81961 0.88594 0.54977 0.0
H669 H 0.84817 0.91174 0.52622 0.0
H670 H 0.84799 0.89733 0.27095 0.0
H671 H 0.8395 0.91674 0.2108 0.0
H672 H 0.82075 0.89771 0.24306 0.0
H673 H 0.79594 0.92843 0.27997 0.0
H674 H 0.81459 0.94755 0.24779 0.0
H675 H 0.80622 0.94907 0.33308 0.0
H676 H 0.87323 0.93894 0.48312 0.0
H677 H 0.89441 0.96532 0.42168 0.0
H678 H 0.85602 0.95427 0.24626 0.0
C679 C 0.80727 0.89696 0.38776 0.0
C680 C 0.80561 0.88755 0.45124 0.0
C681 C 0.82059 0.89294 0.50083 0.0
C682 C 0.83686 0.90758 0.48795 0.0
C683 C 0.83806 0.91657 0.425 0.0
C684 C 0.82379 0.91143 0.37551 0.0
C685 C 0.82886 0.92337 0.31204 0.0
C686 C 0.83462 0.90786 0.2559 0.0
C687 C 0.8103 0.93797 0.29207 0.0
C688 C 0.84808 0.93617 0.3339 0.0
C689 C 0.85301 0.932 0.39937 0.0
C690 C 0.86964 0.94225 0.43171 0.0
C691 C 0.88154 0.95724 0.39637 0.0
C692 C 0.87693 0.96177 0.32914 0.0
C693 C 0.86004 0.95096 0.2974 0.0
H694 H 0.30735 0.60621 0.49123 0.0
H695 H 0.30418 0.64872 0.6602 0.0
H696 H 0.33253 0.6283 0.71576 0.0
H697 H 0.31322 0.55922 0.58665 0.0
H698 H 0.3311 0.54611 0.52996 0.0
H699 H 0.31232 0.56538 0.49947 0.0
H700 H 0.34305 0.58696 0.44667 0.0
H701 H 0.36194 0.56768 0.47683 0.0
H702 H 0.36504 0.5954 0.49758 0.0
H703 H 0.36015 0.60289 0.75508 0.0
H704 H 0.38401 0.57258 0.7786 0.0
H705 H 0.36796 0.54479 0.58817 0.0
C706 C 0.31301 0.61139 0.53927 0.0
C707 C 0.30384 0.62916 0.57125 0.0
C708 C 0.31113 0.63519 0.6349 0.0
C709 C 0.32725 0.62374 0.66675 0.0
C710 C 0.33577 0.60608 0.63469 0.0
C711 C 0.32886 0.59979 0.5726 0.0
C712 C 0.33956 0.57918 0.55187 0.0
C713 C 0.32306 0.56142 0.54139 0.0
C714 C 0.35321 0.58251 0.48954 0.0
C715 C 0.35332 0.57485 0.6122 0.0
C716 C 0.35111 0.59077 0.65887 0.0
C717 C 0.36207 0.59032 0.71889 0.0
C718 C 0.37558 0.57306 0.73182 0.0
C719 C 0.37778 0.55633 0.68539 0.0
C720 C 0.36654 0.55734 0.62471 0.0
H721 H 0.70832 0.1153 0.85581 0.0
H722 H 0.68288 0.13042 0.05017 0.0
H723 H 0.653 0.10571 0.03066 0.0
H724 H 0.65701 0.11117 0.7722 0.0
H725 H 0.6653 0.08942 0.71997 0.0
H726 H 0.68453 0.10863 0.74835 0.0
H727 H 0.70736 0.07834 0.79848 0.0
H728 H 0.68827 0.05905 0.77009 0.0
H729 H 0.69542 0.0601 0.8565 0.0
H730 H 0.62736 0.07792 0.9936 0.0
H731 H 0.6067 0.04937 0.93994 0.0
H732 H 0.64724 0.05329 0.76646 0.0
C733 C 0.69641 0.11345 0.89416 0.0
C734 C 0.69794 0.12473 0.95469 0.0
C735 C 0.68202 0.12195 0.0035 0.0
C736 C 0.66498 0.10797 0.99283 0.0
C737 C 0.66395 0.09708 0.93274 0.0
C738 C 0.67914 0.09972 0.88398 0.0
C739 C 0.67432 0.08589 0.82413 0.0
C740 C 0.67003 0.0996 0.76252 0.0
C741 C 0.69242 0.06989 0.81159 0.0
C742 C 0.65425 0.07477 0.84735 0.0
C743 C 0.64862 0.08149 0.91025 0.0
C744 C 0.63144 0.07274 0.94406 0.0
C745 C 0.61982 0.05652 0.91321 0.0
C746 C 0.62524 0.04934 0.84887 0.0
C747 C 0.6425 0.05881 0.81512 0.0
H748 H 0.14847 0.55801 0.26879 0.0
H749 H 0.12368 0.53427 0.45519 0.0
H750 H 0.14657 0.55948 0.51618 0.0
H751 H 0.20252 0.56351 0.3261 0.0
H752 H 0.20769 0.58723 0.27862 0.0
H753 H 0.18858 0.56807 0.24935 0.0
H754 H 0.15982 0.59755 0.24366 0.0
H755 H 0.17884 0.6168 0.273 0.0
H756 H 0.15408 0.61313 0.31653 0.0
H757 H 0.17132 0.58803 0.55698 0.0
H758 H 0.19874 0.6157 0.57494 0.0
H759 H 0.20957 0.61895 0.36293 0.0
C760 C 0.14782 0.55824 0.3224 0.0
C761 C 0.13422 0.54432 0.35737 0.0
C762 C 0.13401 0.54482 0.42752 0.0
C763 C 0.14689 0.55912 0.46258 0.0
C764 C 0.16016 0.57262 0.42681 0.0
C765 C 0.16095 0.57213 0.35833 0.0
C766 C 0.17739 0.58765 0.3322 0.0
C767 C 0.1951 0.57591 0.29434 0.0
C768 C 0.1669 0.6048 0.28879 0.0
C769 C 0.1856 0.59698 0.3966 0.0
C770 C 0.17525 0.58829 0.45056 0.0
C771 C 0.17966 0.59484 0.51516 0.0
C772 C 0.19519 0.61057 0.5249 0.0
C773 C 0.20635 0.61929 0.47044 0.0
C774 C 0.20144 0.61237 0.40556 0.0
H775 H 0.64041 0.95859 0.62585 0.0
H776 H 0.64464 0.94248 0.8345 0.0
H777 H 0.67186 0.91538 0.80873 0.0
H778 H 0.64552 0.90494 0.5651 0.0
H779 H 0.66111 0.91223 0.49368 0.0
H780 H 0.64241 0.93089 0.52834 0.0
H781 H 0.67246 0.95875 0.54131 0.0
H782 H 0.69125 0.9402 0.50651 0.0
H783 H 0.69617 0.95183 0.58669 0.0
H784 H 0.69876 0.8905 0.76129 0.0
H785 H 0.72311 0.8684 0.69476 0.0
H786 H 0.70074 0.8992 0.51538 0.0
C787 C 0.64718 0.94943 0.6661 0.0
C788 C 0.6405 0.95271 0.73232 0.0
C789 C 0.64954 0.94026 0.78351 0.0
C790 C 0.66501 0.92484 0.76935 0.0
C791 C 0.67116 0.92192 0.70364 0.0
C792 C 0.6625 0.93377 0.65272 0.0
C793 C 0.67164 0.92704 0.58625 0.0
C794 C 0.65412 0.91825 0.54066 0.0
C795 C 0.68359 0.94556 0.55326 0.0
C796 C 0.68683 0.90961 0.60786 0.0
C797 C 0.68635 0.90705 0.67588 0.0
C798 C 0.69922 0.89229 0.70799 0.0
C799 C 0.71303 0.87983 0.66972 0.0
C800 C 0.71377 0.88201 0.59989 0.0
C801 C 0.70039 0.89706 0.5686 0.0
H802 H 0.36081 0.44687 0.74979 0.0
H803 H 0.38189 0.47901 0.9285 0.0
H804 H 0.3585 0.45613 0.99551 0.0
H805 H 0.30584 0.44114 0.80066 0.0
H806 H 0.30266 0.41528 0.76332 0.0
H807 H 0.32132 0.43398 0.72882 0.0
H808 H 0.35151 0.40614 0.74031 0.0
H809 H 0.33294 0.38737 0.77491 0.0
H810 H 0.35669 0.3943 0.82002 0.0
H811 H 0.3337 0.42944 0.04394 0.0
H812 H 0.30749 0.40146 0.0703 0.0
H813 H 0.30107 0.38719 0.86082 0.0
C814 C 0.36048 0.44905 0.803 0.0
C815 C 0.37322 0.4647 0.83393 0.0
C816 C 0.37226 0.46717 0.90366 0.0
C817 C 0.35905 0.45421 0.94225 0.0
C818 C 0.34672 0.43894 0.91044 0.0
C819 C 0.34715 0.43635 0.84242 0.0
C820 C 0.33195 0.41892 0.82094 0.0
C821 C 0.3144 0.42787 0.77577 0.0
C822 C 0.34399 0.4006 0.78705 0.0
C823 C 0.32303 0.4121 0.88752 0.0
C824 C 0.33189 0.42381 0.93844 0.0
C825 C 0.32655 0.42022 0.0045 0.0
C826 C 0.31168 0.40428 0.019 0.0
C827 C 0.30219 0.39223 0.96767 0.0
C828 C 0.30796 0.39625 0.90107 0.0
H829 H 0.8057 0.11057 0.98606 0.0
H830 H 0.78517 0.13906 0.17139 0.0
H831 H 0.81113 0.11731 0.23219 0.0
H832 H 0.81237 0.05773 0.05211 0.0
H833 H 0.83553 0.05153 0.0031 0.0
H834 H 0.81609 0.07015 0.97245 0.0
H835 H 0.84551 0.09861 0.95822 0.0
H836 H 0.86504 0.08007 0.9888 0.0
H837 H 0.86193 0.10564 0.0281 0.0
H838 H 0.83889 0.093 0.27385 0.0
H839 H 0.86611 0.06565 0.29511 0.0
H840 H 0.86826 0.05086 0.08504 0.0
C841 C 0.80685 0.11228 0.03933 0.0
C842 C 0.79346 0.12656 0.07399 0.0
C843 C 0.79521 0.12819 0.1438 0.0
C844 C 0.80996 0.11596 0.17886 0.0
C845 C 0.82281 0.10194 0.14363 0.0
C846 C 0.82138 0.09985 0.07557 0.0
C847 C 0.8366 0.08281 0.05085 0.0
C848 C 0.82441 0.06447 0.01767 0.0
C849 C 0.85326 0.09236 0.0037 0.0
C850 C 0.84668 0.07575 0.11567 0.0
C851 C 0.83857 0.08721 0.16831 0.0
C852 C 0.84537 0.08387 0.23311 0.0
C853 C 0.86086 0.0683 0.24468 0.0
C854 C 0.86926 0.05609 0.19185 0.0
C855 C 0.86206 0.0599 0.12644 0.0
H856 H 0.82022 0.6344 0.92912 0.0
H857 H 0.76734 0.59262 0.97433 0.0
H858 H 0.78873 0.56155 0.94 0.0
H859 H 0.8354 0.60719 0.78138 0.0
H860 H 0.86361 0.61094 0.79208 0.0
H861 H 0.84519 0.6299 0.8266 0.0
H862 H 0.86166 0.62447 0.94296 0.0
H863 H 0.88028 0.60565 0.90867 0.0
H864 H 0.86344 0.59801 0.97693 0.0
H865 H 0.81514 0.53526 0.90037 0.0
H866 H 0.84493 0.51483 0.85285 0.0
H867 H 0.88031 0.57329 0.8229 0.0
C868 C 0.81343 0.61862 0.93311 0.0
C869 C 0.79232 0.61572 0.95554 0.0
C870 C 0.78358 0.59502 0.95801 0.0
C871 C 0.79559 0.57733 0.93857 0.0
C872 C 0.8162 0.58065 0.91553 0.0
C873 C 0.82509 0.60073 0.91221 0.0
C874 C 0.84711 0.59982 0.88111 0.0
C875 C 0.84786 0.61273 0.81645 0.0
C876 C 0.86413 0.60744 0.93037 0.0
C877 C 0.84913 0.57612 0.86759 0.0
C878 C 0.83115 0.56542 0.88869 0.0
C879 C 0.82927 0.54344 0.88339 0.0
C880 C 0.84627 0.53198 0.85632 0.0
C881 C 0.8648 0.5425 0.83375 0.0
C882 C 0.86618 0.56491 0.83892 0.0
H883 H 0.21511 0.1189 0.65638 0.0
H884 H 0.18923 0.13414 0.46278 0.0
H885 H 0.15883 0.11027 0.48413 0.0
H886 H 0.20099 0.06421 0.65779 0.0
H887 H 0.19401 0.06345 0.74438 0.0
H888 H 0.2134 0.08233 0.71525 0.0
H889 H 0.19126 0.11318 0.76525 0.0
H890 H 0.17178 0.09438 0.79457 0.0
H891 H 0.16372 0.11614 0.74214 0.0
H892 H 0.13308 0.08287 0.52183 0.0
H893 H 0.11203 0.05481 0.57635 0.0
H894 H 0.15274 0.05852 0.74939 0.0
C895 C 0.20296 0.1173 0.61871 0.0
C896 C 0.20454 0.12832 0.55775 0.0
C897 C 0.18832 0.12588 0.50978 0.0
C898 C 0.17099 0.11236 0.52147 0.0
C899 C 0.16997 0.10162 0.58178 0.0
C900 C 0.18536 0.10407 0.62997 0.0
C901 C 0.18045 0.09044 0.69023 0.0
C902 C 0.19827 0.07414 0.70261 0.0
C903 C 0.17657 0.10437 0.75169 0.0
C904 C 0.1601 0.07964 0.66778 0.0
C905 C 0.15446 0.08633 0.60489 0.0
C906 C 0.13713 0.07774 0.57141 0.0
C907 C 0.12533 0.06178 0.6027 0.0
C908 C 0.13065 0.05474 0.6672 0.0
C909 C 0.14811 0.06397 0.7006 0.0
H910 H 0.7076 0.38524 0.34432 0.0
H911 H 0.70491 0.39973 0.55446 0.0
H912 H 0.67821 0.42765 0.53246 0.0
H913 H 0.7025 0.43887 0.28575 0.0
H914 H 0.68594 0.43202 0.21604 0.0
H915 H 0.70471 0.41296 0.24801 0.0
H916 H 0.67434 0.38559 0.26386 0.0
H917 H 0.65548 0.40455 0.23176 0.0
H918 H 0.65132 0.39281 0.31218 0.0
H919 H 0.65276 0.45454 0.488 0.0
H920 H 0.62888 0.47796 0.42454 0.0
H921 H 0.64701 0.44579 0.24266 0.0
C922 C 0.70133 0.39426 0.38569 0.0
C923 C 0.70835 0.39034 0.45118 0.0
C924 C 0.69976 0.40244 0.50397 0.0
C925 C 0.6846 0.41835 0.49194 0.0
C926 C 0.67811 0.4219 0.42687 0.0
C927 C 0.68606 0.41014 0.3746 0.0
C928 C 0.67626 0.41717 0.30943 0.0
C929 C 0.69337 0.42577 0.26202 0.0
C930 C 0.6636 0.39895 0.27744 0.0
C931 C 0.66165 0.43481 0.33326 0.0
C932 C 0.66307 0.43726 0.40119 0.0
C933 C 0.65144 0.45271 0.43484 0.0
C934 C 0.63795 0.46597 0.39825 0.0
C935 C 0.63604 0.46369 0.32864 0.0
C936 C 0.64807 0.44785 0.29582 0.0
H937 H 0.37099 0.95286 0.12887 0.0
H938 H 0.3534 0.95193 0.33676 0.0
H939 H 0.32461 0.92638 0.31185 0.0
H940 H 0.31827 0.94925 0.06157 0.0
H941 H 0.32578 0.9319 0.99437 0.0
H942 H 0.34487 0.95028 0.02829 0.0
H943 H 0.37086 0.91913 0.05099 0.0
H944 H 0.35186 0.90065 0.01707 0.0
H945 H 0.36203 0.89678 0.09969 0.0
H946 H 0.297 0.90212 0.26393 0.0
H947 H 0.27369 0.87884 0.19753 0.0
H948 H 0.3103 0.89377 0.02131 0.0
C949 C 0.36104 0.94729 0.1691 0.0
C950 C 0.36431 0.95444 0.23476 0.0
C951 C 0.35115 0.94665 0.28616 0.0
C952 C 0.33475 0.93217 0.27246 0.0
C953 C 0.33191 0.92546 0.20722 0.0
C954 C 0.3448 0.93259 0.15643 0.0
C955 C 0.33861 0.9225 0.09089 0.0
C956 C 0.33145 0.9395 0.04084 0.0
C957 C 0.35693 0.90896 0.06304 0.0
C958 C 0.32012 0.90871 0.11269 0.0
C959 C 0.31644 0.91082 0.17993 0.0
C960 C 0.29982 0.90023 0.21137 0.0
C961 C 0.28663 0.88709 0.17319 0.0
C962 C 0.29026 0.88443 0.1044 0.0
C963 C 0.30729 0.89535 0.07392 0.0
H964 H 0.80552 0.38177 0.64197 0.0
H965 H 0.8097 0.39718 0.43271 0.0
H966 H 0.83655 0.42461 0.45754 0.0
H967 H 0.81036 0.43471 0.70289 0.0
H968 H 0.8265 0.42776 0.77344 0.0
H969 H 0.80815 0.40865 0.73955 0.0
H970 H 0.83889 0.38161 0.72466 0.0
H971 H 0.85734 0.40063 0.75871 0.0
H972 H 0.86217 0.3892 0.67817 0.0
H973 H 0.86096 0.4517 0.50458 0.0
H974 H 0.88322 0.47593 0.5707 0.0
H975 H 0.8649 0.4426 0.75014 0.0
C976 C 0.81224 0.39081 0.60138 0.0
C977 C 0.80551 0.38734 0.53532 0.0
C978 C 0.81463 0.39951 0.48361 0.0
C979 C 0.82989 0.41515 0.49722 0.0
C980 C 0.83602 0.41832 0.56278 0.0
C981 C 0.82768 0.40642 0.61406 0.0
C982 C 0.83696 0.41332 0.68016 0.0
C983 C 0.81945 0.4216 0.72674 0.0
C984 C 0.84959 0.3951 0.71231 0.0
C985 C 0.85158 0.43117 0.65797 0.0
C986 C 0.85068 0.43375 0.59001 0.0
C987 C 0.86197 0.44971 0.55774 0.0
C988 C 0.87451 0.46344 0.59582 0.0
C989 C 0.87587 0.46108 0.66549 0.0
C990 C 0.86435 0.44461 0.69689 0.0
H991 H 0.31425 0.11153 0.50932 0.0
H992 H 0.28808 0.13388 0.32296 0.0
H993 H 0.31316 0.11093 0.26187 0.0
H994 H 0.36915 0.10712 0.45515 0.0
H995 H 0.37413 0.08305 0.50111 0.0
H996 H 0.35474 0.10192 0.53065 0.0
H997 H 0.32603 0.07236 0.53236 0.0
H998 H 0.34535 0.0534 0.50318 0.0
H999 H 0.32091 0.05726 0.45809 0.0
H1000 H 0.3411 0.08564 0.22055 0.0
H1001 H 0.36811 0.05762 0.20235 0.0
H1002 H 0.37525 0.0505 0.41503 0.0
C1003 C 0.31389 0.11163 0.45568 0.0
C1004 C 0.29927 0.12456 0.42089 0.0
C1005 C 0.29913 0.1241 0.35069 0.0
C1006 C 0.31338 0.11118 0.31548 0.0
C1007 C 0.32761 0.09866 0.35111 0.0
C1008 C 0.32787 0.09861 0.41963 0.0
C1009 C 0.34419 0.08294 0.44574 0.0
C1010 C 0.36158 0.09445 0.48551 0.0
C1011 C 0.33347 0.06545 0.48728 0.0
C1012 C 0.35292 0.07413 0.38124 0.0
C1013 C 0.34332 0.08361 0.32725 0.0
C1014 C 0.34873 0.07809 0.26245 0.0
C1015 C 0.36413 0.06221 0.25257 0.0
C1016 C 0.37376 0.05189 0.30719 0.0
C1017 C 0.36816 0.05811 0.37227 0.0
H1018 H 0.63622 0.54948 0.08888 0.0
H1019 H 0.62871 0.56944 0.29335 0.0
H1020 H 0.65305 0.59965 0.27329 0.0
H1021 H 0.69084 0.56178 0.07176 0.0
H1022 H 0.68872 0.57158 0.98811 0.0
H1023 H 0.67018 0.55197 0.01786 0.0
H1024 H 0.63871 0.57666 0.98688 0.0
H1025 H 0.65717 0.59637 0.9569 0.0
H1026 H 0.63788 0.60338 0.01931 0.0
H1027 H 0.68053 0.62561 0.23372 0.0
H1028 H 0.70728 0.64739 0.17515 0.0
H1029 H 0.69506 0.61243 0.99386 0.0
C1030 C 0.6396 0.56031 0.12926 0.0
C1031 C 0.63068 0.55711 0.1928 0.0
C1032 C 0.63535 0.57165 0.24432 0.0
C1033 C 0.64917 0.58883 0.23338 0.0
C1034 C 0.65785 0.59144 0.17034 0.0
C1035 C 0.65304 0.57777 0.11886 0.0
C1036 C 0.66454 0.58417 0.05584 0.0
C1037 C 0.67945 0.56631 0.03202 0.0
C1038 C 0.64862 0.59052 0.00152 0.0
C1039 C 0.67698 0.60327 0.08033 0.0
C1040 C 0.67293 0.60711 0.14663 0.0
C1041 C 0.68355 0.62299 0.18156 0.0
C1042 C 0.69875 0.63522 0.14797 0.0
C1043 C 0.70298 0.63173 0.07993 0.0
C1044 C 0.69177 0.6157 0.04555 0.0
H1045 H 0.19363 0.89881 0.98537 0.0
H1046 H 0.21886 0.87235 0.80305 0.0
H1047 H 0.19465 0.89522 0.73812 0.0
H1048 H 0.13896 0.90543 0.93146 0.0
H1049 H 0.13551 0.93056 0.97312 0.0
H1050 H 0.15388 0.91119 0.00559 0.0
H1051 H 0.18418 0.93909 0.00141 0.0
H1052 H 0.1659 0.95853 0.96894 0.0
H1053 H 0.18999 0.95239 0.92438 0.0
H1054 H 0.16728 0.92043 0.69288 0.0
H1055 H 0.14079 0.94865 0.67024 0.0
H1056 H 0.13534 0.96089 0.8811 0.0
C1057 C 0.19387 0.89774 0.93181 0.0
C1058 C 0.20794 0.88372 0.89909 0.0
C1059 C 0.20815 0.883 0.82897 0.0
C1060 C 0.19442 0.89586 0.7917 0.0
C1061 C 0.1808 0.90962 0.82526 0.0
C1062 C 0.18058 0.91086 0.89369 0.0
C1063 C 0.16524 0.92791 0.91717 0.0
C1064 C 0.14734 0.91819 0.95932 0.0
C1065 C 0.17704 0.94552 0.95521 0.0
C1066 C 0.15687 0.93596 0.85132 0.0
C1067 C 0.16584 0.92499 0.79898 0.0
C1068 C 0.16024 0.92923 0.73344 0.0
C1069 C 0.14517 0.94523 0.72103 0.0
C1070 C 0.13619 0.95702 0.77381 0.0
C1071 C 0.14214 0.95226 0.83973 0.0
loop_
_geom_bond_atom_site_label_1
_geom_bond_atom_site_label_2
_geom_bond_distance
_geom_bond_site_symmetry_2
_ccdc_geom_bond_type
In0 O1 2.294 1_554 S
In0 O2 2.326 . S
In0 O6 2.266 1_554 S
In0 O7 2.326 1_554 S
In0 O8 2.266 . S
In0 O9 2.326 . S
In0 O11 2.294 . S
In0 O12 2.326 1_554 S
O1 In0 2.294 1_556 S
O1 C10 1.240 1_556 S
O2 In0 2.326 . S
O2 C10 1.252 . S
C3 O6 1.252 . S
C3 O7 1.260 . S
C4 O11 1.240 1_556 S
C4 O12 1.252 . S
C5 O8 1.252 . S
C5 O9 1.260 . S
O6 In0 2.266 1_556 S
O6 C3 1.252 . S
O7 In0 2.326 1_556 S
O7 C3 1.260 . S
O8 In0 2.266 . S
O8 C5 1.252 . S
O9 In0 2.326 . S
O9 C5 1.260 . S
C10 O1 1.240 1_554 S
C10 O2 1.252 . S
O11 In0 2.294 . S
O11 C4 1.240 1_554 S
O12 In0 2.326 1_556 S
O12 C4 1.252 . S
In13 O14 2.294 . S
In13 O15 2.326 . S
In13 O19 2.266 . S
In13 O20 2.326 1_545 S
In13 O21 2.266 1_545 S
In13 O22 2.326 . S
In13 O24 2.294 1_545 S
In13 O25 2.326 1_545 S
O14 In13 2.294 . S
O14 C23 1.240 . S
O15 In13 2.326 . S
O15 C23 1.252 . S
C16 O19 1.253 . S
C16 O20 1.259 1_545 S
C17 O24 1.240 . S
C17 O25 1.252 . S
C18 O21 1.253 1_545 S
C18 O22 1.259 . S
O19 In13 2.266 . S
O19 C16 1.253 . S
O20 In13 2.326 1_565 S
O20 C16 1.259 1_565 S
O21 In13 2.266 1_565 S
O21 C18 1.253 1_565 S
O22 In13 2.326 . S
O22 C18 1.259 . S
C23 O14 1.240 . S
C23 O15 1.252 . S
O24 In13 2.294 1_565 S
O24 C17 1.240 . S
O25 In13 2.326 1_565 S
O25 C17 1.252 . S
In26 O27 2.294 . S
In26 O28 2.326 . S
In26 O32 2.266 . S
In26 O33 2.326 . S
In26 O34 2.266 . S
In26 O35 2.326 . S
In26 O37 2.294 . S
In26 O38 2.326 . S
O27 In26 2.294 . S
O27 C36 1.240 . S
O28 In26 2.326 . S
O28 C36 1.252 . S
C29 O32 1.252 . S
C29 O33 1.260 . S
C30 O37 1.240 . S
C30 O38 1.252 . S
C31 O34 1.252 . S
C31 O35 1.260 . S
O32 In26 2.266 . S
O32 C29 1.252 . S
O33 In26 2.326 . S
O33 C29 1.260 . S
O34 In26 2.266 . S
O34 C31 1.252 . S
O35 In26 2.326 . S
O35 C31 1.260 . S
C36 O27 1.240 . S
C36 O28 1.252 . S
O37 In26 2.294 . S
O37 C30 1.240 . S
O38 In26 2.326 . S
O38 C30 1.252 . S
In39 O40 2.294 . S
In39 O41 2.326 . S
In39 O45 2.266 . S
In39 O46 2.326 1_545 S
In39 O47 2.266 1_545 S
In39 O48 2.326 . S
In39 O50 2.294 1_545 S
In39 O51 2.326 1_545 S
O40 In39 2.294 . S
O40 C49 1.240 . S
O41 In39 2.326 . S
O41 C49 1.252 . S
C42 O45 1.253 . S
C42 O46 1.259 1_545 S
C43 O50 1.240 . S
C43 O51 1.252 . S
C44 O47 1.253 1_545 S
C44 O48 1.259 . S
O45 In39 2.266 . S
O45 C42 1.253 . S
O46 In39 2.326 1_565 S
O46 C42 1.259 1_565 S
O47 In39 2.266 1_565 S
O47 C44 1.253 1_565 S
O48 In39 2.326 . S
O48 C44 1.259 . S
C49 O40 1.240 . S
C49 O41 1.252 . S
O50 In39 2.294 1_565 S
O50 C43 1.240 . S
O51 In39 2.326 1_565 S
O51 C43 1.252 . S
In52 O53 2.294 1_554 S
In52 O54 2.326 . S
In52 O58 2.266 1_554 S
In52 O59 2.326 1_554 S
In52 O60 2.266 . S
In52 O61 2.326 . S
In52 O63 2.294 . S
In52 O64 2.326 1_554 S
O53 In52 2.294 1_556 S
O53 C62 1.240 1_556 S
O54 In52 2.326 . S
O54 C62 1.252 . S
C55 O58 1.252 . S
C55 O59 1.260 . S
C56 O63 1.240 1_556 S
C56 O64 1.252 . S
C57 O60 1.252 . S
C57 O61 1.260 . S
O58 In52 2.266 1_556 S
O58 C55 1.252 . S
O59 In52 2.326 1_556 S
O59 C55 1.260 . S
O60 In52 2.266 . S
O60 C57 1.252 . S
O61 In52 2.326 . S
O61 C57 1.260 . S
C62 O53 1.240 1_554 S
C62 O54 1.252 . S
O63 In52 2.294 . S
O63 C56 1.240 1_554 S
O64 In52 2.326 1_556 S
O64 C56 1.252 . S
In65 O66 2.294 . S
In65 O67 2.326 . S
In65 O71 2.266 . S
In65 O72 2.326 1_545 S
In65 O73 2.266 1_545 S
In65 O74 2.326 . S
In65 O76 2.294 1_545 S
In65 O77 2.326 1_545 S
O66 In65 2.294 . S
O66 C75 1.240 . S
O67 In65 2.326 . S
O67 C75 1.252 . S
C68 O71 1.253 . S
C68 O72 1.259 1_545 S
C69 O76 1.240 . S
C69 O77 1.252 . S
C70 O73 1.253 1_545 S
C70 O74 1.259 . S
O71 In65 2.266 . S
O71 C68 1.253 . S
O72 In65 2.326 1_565 S
O72 C68 1.259 1_565 S
O73 In65 2.266 1_565 S
O73 C70 1.253 1_565 S
O74 In65 2.326 . S
O74 C70 1.259 . S
C75 O66 1.240 . S
C75 O67 1.252 . S
O76 In65 2.294 1_565 S
O76 C69 1.240 . S
O77 In65 2.326 1_565 S
O77 C69 1.252 . S
In78 O79 2.294 . S
In78 O80 2.326 . S
In78 O84 2.266 . S
In78 O85 2.326 . S
In78 O86 2.266 . S
In78 O87 2.326 . S
In78 O89 2.294 . S
In78 O90 2.326 . S
O79 In78 2.294 . S
O79 C88 1.240 . S
O80 In78 2.326 . S
O80 C88 1.252 . S
C81 O84 1.252 . S
C81 O85 1.260 . S
C82 O89 1.240 . S
C82 O90 1.252 . S
C83 O86 1.252 . S
C83 O87 1.260 . S
O84 In78 2.266 . S
O84 C81 1.252 . S
O85 In78 2.326 . S
O85 C81 1.260 . S
O86 In78 2.266 . S
O86 C83 1.252 . S
O87 In78 2.326 . S
O87 C83 1.260 . S
C88 O79 1.240 . S
C88 O80 1.252 . S
O89 In78 2.294 . S
O89 C82 1.240 . S
O90 In78 2.326 . S
O90 C82 1.252 . S
In91 O92 2.294 1_545 S
In91 O93 2.326 1_545 S
In91 O97 2.266 1_545 S
In91 O98 2.326 . S
In91 O99 2.266 . S
In91 O100 2.326 1_545 S
In91 O102 2.294 . S
In91 O103 2.326 . S
O92 In91 2.294 1_565 S
O92 C101 1.240 . S
O93 In91 2.326 1_565 S
O93 C101 1.252 . S
C94 O97 1.253 1_545 S
C94 O98 1.259 . S
C95 O102 1.240 . S
C95 O103 1.252 . S
C96 O99 1.253 . S
C96 O100 1.259 1_545 S
O97 In91 2.266 1_565 S
O97 C94 1.253 1_565 S
O98 In91 2.326 . S
O98 C94 1.259 . S
O99 In91 2.266 . S
O99 C96 1.253 . S
O100 In91 2.326 1_565 S
O100 C96 1.259 1_565 S
C101 O92 1.240 . S
C101 O93 1.252 . S
O102 In91 2.294 . S
O102 C95 1.240 . S
O103 In91 2.326 . S
O103 C95 1.252 . S
In104 O105 2.294 . S
In104 O106 2.326 . S
In104 O110 2.266 . S
In104 O111 2.326 . S
In104 O112 2.266 . S
In104 O113 2.326 . S
In104 O115 2.294 . S
In104 O116 2.326 . S
O105 In104 2.294 . S
O105 C114 1.240 . S
O106 In104 2.326 . S
O106 C114 1.252 . S
C107 O110 1.252 . S
C107 O111 1.260 . S
C108 O115 1.240 . S
C108 O116 1.252 . S
C109 O112 1.252 . S
C109 O113 1.260 . S
O110 In104 2.266 . S
O110 C107 1.252 . S
O111 In104 2.326 . S
O111 C107 1.260 . S
O112 In104 2.266 . S
O112 C109 1.252 . S
O113 In104 2.326 . S
O113 C109 1.260 . S
C114 O105 1.240 . S
C114 O106 1.252 . S
O115 In104 2.294 . S
O115 C108 1.240 . S
O116 In104 2.326 . S
O116 C108 1.252 . S
In117 O118 2.294 . S
In117 O119 2.326 . S
In117 O123 2.266 . S
In117 O124 2.326 . S
In117 O125 2.266 . S
In117 O126 2.326 . S
In117 O128 2.294 . S
In117 O129 2.326 . S
O118 In117 2.294 . S
O118 C127 1.240 . S
O119 In117 2.326 . S
O119 C127 1.252 . S
C120 O123 1.252 . S
C120 O124 1.260 . S
C121 O128 1.240 . S
C121 O129 1.252 . S
C122 O125 1.252 . S
C122 O126 1.260 . S
O123 In117 2.266 . S
O123 C120 1.252 . S
O124 In117 2.326 . S
O124 C120 1.260 . S
O125 In117 2.266 . S
O125 C122 1.252 . S
O126 In117 2.326 . S
O126 C122 1.260 . S
C127 O118 1.240 . S
C127 O119 1.252 . S
O128 In117 2.294 . S
O128 C121 1.240 . S
O129 In117 2.326 . S
O129 C121 1.252 . S
In130 O131 2.294 1_554 S
In130 O132 2.326 . S
In130 O136 2.266 1_554 S
In130 O137 2.326 1_554 S
In130 O138 2.266 . S
In130 O139 2.326 . S
In130 O141 2.294 . S
In130 O142 2.326 1_554 S
O131 In130 2.294 1_556 S
O131 C140 1.240 1_556 S
O132 In130 2.326 . S
O132 C140 1.252 . S
C133 O136 1.252 . S
C133 O137 1.260 . S
C134 O141 1.240 1_556 S
C134 O142 1.252 . S
C135 O138 1.252 . S
C135 O139 1.260 . S
O136 In130 2.266 1_556 S
O136 C133 1.252 . S
O137 In130 2.326 1_556 S
O137 C133 1.260 . S
O138 In130 2.266 . S
O138 C135 1.252 . S
O139 In130 2.326 . S
O139 C135 1.260 . S
C140 O131 1.240 1_554 S
C140 O132 1.252 . S
O141 In130 2.294 . S
O141 C134 1.240 1_554 S
O142 In130 2.326 1_556 S
O142 C134 1.252 . S
In143 O144 2.294 . S
In143 O145 2.326 . S
In143 O149 2.266 . S
In143 O150 2.326 . S
In143 O151 2.266 . S
In143 O152 2.326 . S
In143 O154 2.294 . S
In143 O155 2.326 . S
O144 In143 2.294 . S
O144 C153 1.240 . S
O145 In143 2.326 . S
O145 C153 1.252 . S
C146 O149 1.252 . S
C146 O150 1.260 . S
C147 O154 1.240 . S
C147 O155 1.252 . S
C148 O151 1.252 . S
C148 O152 1.260 . S
O149 In143 2.266 . S
O149 C146 1.252 . S
O150 In143 2.326 . S
O150 C146 1.260 . S
O151 In143 2.266 . S
O151 C148 1.252 . S
O152 In143 2.326 . S
O152 C148 1.260 . S
C153 O144 1.240 . S
C153 O145 1.252 . S
O154 In143 2.294 . S
O154 C147 1.240 . S
O155 In143 2.326 . S
O155 C147 1.252 . S
In156 O157 2.294 . S
In156 O158 2.326 . S
In156 O162 2.266 . S
In156 O163 2.326 . S
In156 O164 2.266 . S
In156 O165 2.326 . S
In156 O167 2.294 . S
In156 O168 2.326 . S
O157 In156 2.294 . S
O157 C166 1.240 . S
O158 In156 2.326 . S
O158 C166 1.252 . S
C159 O162 1.252 . S
C159 O163 1.260 . S
C160 O167 1.240 . S
C160 O168 1.252 . S
C161 O164 1.252 . S
C161 O165 1.260 . S
O162 In156 2.266 . S
O162 C159 1.252 . S
O163 In156 2.326 . S
O163 C159 1.260 . S
O164 In156 2.266 . S
O164 C161 1.252 . S
O165 In156 2.326 . S
O165 C161 1.260 . S
C166 O157 1.240 . S
C166 O158 1.252 . S
O167 In156 2.294 . S
O167 C160 1.240 . S
O168 In156 2.326 . S
O168 C160 1.252 . S
In169 O170 2.294 . S
In169 O171 2.326 . S
In169 O175 2.266 . S
In169 O176 2.326 . S
In169 O177 2.266 . S
In169 O178 2.326 . S
In169 O180 2.294 . S
In169 O181 2.326 . S
O170 In169 2.294 . S
O170 C179 1.240 . S
O171 In169 2.326 . S
O171 C179 1.252 . S
C172 O175 1.252 . S
C172 O176 1.260 . S
C173 O180 1.240 . S
C173 O181 1.252 . S
C174 O177 1.252 . S
C174 O178 1.260 . S
O175 In169 2.266 . S
O175 C172 1.252 . S
O176 In169 2.326 . S
O176 C172 1.260 . S
O177 In169 2.266 . S
O177 C174 1.252 . S
O178 In169 2.326 . S
O178 C174 1.260 . S
C179 O170 1.240 . S
C179 O171 1.252 . S
O180 In169 2.294 . S
O180 C173 1.240 . S
O181 In169 2.326 . S
O181 C173 1.252 . S
In182 O183 2.294 . S
In182 O184 2.326 1_554 S
In182 O188 2.266 . S
In182 O189 2.326 . S
In182 O190 2.266 1_554 S
In182 O191 2.326 1_554 S
In182 O193 2.294 1_554 S
In182 O194 2.326 . S
O183 In182 2.294 . S
O183 C192 1.240 1_554 S
O184 In182 2.326 1_556 S
O184 C192 1.252 . S
C185 O188 1.252 . S
C185 O189 1.260 . S
C186 O193 1.240 1_554 S
C186 O194 1.252 . S
C187 O190 1.252 . S
C187 O191 1.260 . S
O188 In182 2.266 . S
O188 C185 1.252 . S
O189 In182 2.326 . S
O189 C185 1.260 . S
O190 In182 2.266 1_556 S
O190 C187 1.252 . S
O191 In182 2.326 1_556 S
O191 C187 1.260 . S
C192 O183 1.240 1_556 S
C192 O184 1.252 . S
O193 In182 2.294 1_556 S
O193 C186 1.240 1_556 S
O194 In182 2.326 . S
O194 C186 1.252 . S
In195 O196 2.294 . S
In195 O197 2.326 . S
In195 O201 2.266 . S
In195 O202 2.326 . S
In195 O203 2.266 . S
In195 O204 2.326 . S
In195 O206 2.294 . S
In195 O207 2.326 . S
O196 In195 2.294 . S
O196 C205 1.240 . S
O197 In195 2.326 . S
O197 C205 1.252 . S
C198 O201 1.252 . S
C198 O202 1.260 . S
C199 O206 1.240 . S
C199 O207 1.252 . S
C200 O203 1.252 . S
C200 O204 1.260 . S
O201 In195 2.266 . S
O201 C198 1.252 . S
O202 In195 2.326 . S
O202 C198 1.260 . S
O203 In195 2.266 . S
O203 C200 1.252 . S
O204 In195 2.326 . S
O204 C200 1.260 . S
C205 O196 1.240 . S
C205 O197 1.252 . S
O206 In195 2.294 . S
O206 C199 1.240 . S
O207 In195 2.326 . S
O207 C199 1.252 . S
H208 C220 0.930 . S
H209 C222 0.930 . S
H210 C223 0.930 . S
H211 C227 0.959 . S
H212 C227 0.959 . S
H213 C227 0.961 . S
H214 C228 0.960 . S
H215 C228 0.961 . S
H216 C228 0.959 . S
H217 C231 0.929 . S
H218 C232 0.931 . S
H219 C234 0.930 . S
C220 H208 0.930 . S
C220 C221 1.399 . S
C220 C225 1.399 . S
C221 C220 1.399 . S
C221 C222 1.376 . S
C222 H209 0.930 . S
C222 C221 1.376 . S
C222 C223 1.388 . S
C223 H210 0.930 . S
C223 C222 1.388 . S
C223 C224 1.390 . S
C224 C223 1.390 . S
C224 C225 1.394 . S
C224 C230 1.465 . S
C225 C220 1.399 . S
C225 C224 1.394 . S
C225 C226 1.516 . S
C226 C225 1.516 . S
C226 C227 1.502 . S
C226 C228 1.561 . S
C226 C229 1.526 . S
C227 H211 0.959 . S
C227 H212 0.959 . S
C227 H213 0.961 . S
C227 C226 1.502 . S
C228 H214 0.960 . S
C228 H215 0.961 . S
C228 H216 0.959 . S
C228 C226 1.561 . S
C229 C226 1.526 . S
C229 C230 1.396 . S
C229 C234 1.390 . S
C230 C224 1.465 . S
C230 C229 1.396 . S
C230 C231 1.399 . S
C231 H217 0.929 . S
C231 C230 1.399 . S
C231 C232 1.385 . S
C232 H218 0.931 . S
C232 C231 1.385 . S
C232 C233 1.389 . S
C233 C232 1.389 . S
C233 C234 1.387 . S
C234 H219 0.930 . S
C234 C229 1.390 . S
C234 C233 1.387 . S
H235 C247 0.930 . S
H236 C249 0.930 . S
H237 C250 0.930 . S
H238 C254 0.959 . S
H239 C254 0.959 . S
H240 C254 0.961 . S
H241 C255 0.960 1_655 S
H242 C255 0.961 . S
H243 C255 0.959 . S
H244 C258 0.929 . S
H245 C259 0.931 . S
H246 C261 0.930 . S
C247 H235 0.930 . S
C247 C248 1.399 1_565 S
C247 C252 1.399 . S
C248 C247 1.399 1_545 S
C248 C249 1.376 . S
C249 H236 0.930 . S
C249 C248 1.376 . S
C249 C250 1.388 . S
C250 H237 0.930 . S
C250 C249 1.388 . S
C250 C251 1.390 . S
C251 C250 1.390 . S
C251 C252 1.394 1_545 S
C251 C257 1.465 1_655 S
C252 C247 1.399 . S
C252 C251 1.394 1_565 S
C252 C253 1.516 . S
C253 C252 1.516 . S
C253 C254 1.502 . S
C253 C255 1.561 1_655 S
C253 C256 1.526 1_655 S
C254 H238 0.959 . S
C254 H239 0.959 . S
C254 H240 0.961 . S
C254 C253 1.502 . S
C255 H241 0.960 1_455 S
C255 H242 0.961 . S
C255 H243 0.959 . S
C255 C253 1.561 1_455 S
C256 C253 1.526 1_455 S
C256 C257 1.396 1_565 S
C256 C261 1.390 . S
C257 C251 1.465 1_455 S
C257 C256 1.396 1_545 S
C257 C258 1.399 . S
C258 H244 0.929 . S
C258 C257 1.399 . S
C258 C259 1.385 . S
C259 H245 0.931 . S
C259 C258 1.385 . S
C259 C260 1.389 . S
C260 C259 1.389 . S
C260 C261 1.387 1_545 S
C261 H246 0.930 . S
C261 C256 1.390 . S
C261 C260 1.387 1_565 S
H262 C274 0.930 . S
H263 C276 0.930 . S
H264 C277 0.930 . S
H265 C281 0.959 . S
H266 C281 0.959 . S
H267 C281 0.961 . S
H268 C282 0.960 . S
H269 C282 0.961 . S
H270 C282 0.959 . S
H271 C285 0.929 . S
H272 C286 0.931 . S
H273 C288 0.930 . S
C274 H262 0.930 . S
C274 C275 1.399 . S
C274 C279 1.399 . S
C275 C274 1.399 . S
C275 C276 1.376 . S
C276 H263 0.930 . S
C276 C275 1.376 . S
C276 C277 1.388 . S
C277 H264 0.930 . S
C277 C276 1.388 . S
C277 C278 1.390 . S
C278 C277 1.390 . S
C278 C279 1.394 . S
C278 C284 1.465 . S
C279 C274 1.399 . S
C279 C278 1.394 . S
C279 C280 1.516 . S
C280 C279 1.516 . S
C280 C281 1.502 . S
C280 C282 1.561 . S
C280 C283 1.526 . S
C281 H265 0.959 . S
C281 H266 0.959 . S
C281 H267 0.961 . S
C281 C280 1.502 . S
C282 H268 0.960 . S
C282 H269 0.961 . S
C282 H270 0.959 . S
C282 C280 1.561 . S
C283 C280 1.526 . S
C283 C284 1.396 . S
C283 C288 1.390 . S
C284 C278 1.465 . S
C284 C283 1.396 . S
C284 C285 1.399 . S
C285 H271 0.929 . S
C285 C284 1.399 . S
C285 C286 1.385 . S
C286 H272 0.931 . S
C286 C285 1.385 . S
C286 C287 1.389 . S
C287 C286 1.389 . S
C287 C288 1.387 . S
C288 H273 0.930 . S
C288 C283 1.390 . S
C288 C287 1.387 . S
H289 C301 0.930 . S
H290 C303 0.930 . S
H291 C304 0.929 . S
H292 C308 0.959 . S
H293 C308 0.959 . S
H294 C308 0.961 . S
H295 C309 0.960 . S
H296 C309 0.961 . S
H297 C309 0.959 . S
H298 C312 0.929 . S
H299 C313 0.931 . S
H300 C315 0.930 . S
C301 H289 0.930 . S
C301 C302 1.399 . S
C301 C306 1.399 . S
C302 C301 1.399 . S
C302 C303 1.378 . S
C303 H290 0.930 . S
C303 C302 1.378 . S
C303 C304 1.388 . S
C304 H291 0.929 . S
C304 C303 1.388 . S
C304 C305 1.392 . S
C305 C304 1.392 . S
C305 C306 1.394 . S
C305 C311 1.465 . S
C306 C301 1.399 . S
C306 C305 1.394 . S
C306 C307 1.516 1_554 S
C307 C306 1.516 1_556 S
C307 C308 1.502 1_545 S
C307 C309 1.561 . S
C307 C310 1.526 . S
C308 H292 0.959 . S
C308 H293 0.959 . S
C308 H294 0.961 . S
C308 C307 1.502 1_565 S
C309 H295 0.960 . S
C309 H296 0.961 . S
C309 H297 0.959 . S
C309 C307 1.561 . S
C310 C307 1.526 . S
C310 C311 1.396 1_556 S
C310 C315 1.390 . S
C311 C305 1.465 . S
C311 C310 1.396 1_554 S
C311 C312 1.397 1_545 S
C312 H298 0.929 . S
C312 C311 1.397 1_565 S
C312 C313 1.386 1_554 S
C313 H299 0.931 . S
C313 C312 1.386 1_556 S
C313 C314 1.390 . S
C314 C313 1.390 . S
C314 C315 1.386 1_565 S
C315 H300 0.930 . S
C315 C310 1.390 . S
C315 C314 1.386 1_545 S
H316 C328 0.930 . S
H317 C330 0.930 . S
H318 C331 0.930 . S
H319 C335 0.959 . S
H320 C335 0.959 . S
H321 C335 0.961 . S
H322 C336 0.960 . S
H323 C336 0.961 . S
H324 C336 0.959 . S
H325 C339 0.929 . S
H326 C340 0.931 . S
H327 C342 0.930 . S
C328 H316 0.930 . S
C328 C329 1.399 . S
C328 C333 1.399 . S
C329 C328 1.399 . S
C329 C330 1.376 . S
C330 H317 0.930 . S
C330 C329 1.376 . S
C330 C331 1.388 . S
C331 H318 0.930 . S
C331 C330 1.388 . S
C331 C332 1.390 . S
C332 C331 1.390 . S
C332 C333 1.394 . S
C332 C338 1.465 . S
C333 C328 1.399 . S
C333 C332 1.394 . S
C333 C334 1.516 . S
C334 C333 1.516 . S
C334 C335 1.502 . S
C334 C336 1.561 . S
C334 C337 1.526 . S
C335 H319 0.959 . S
C335 H320 0.959 . S
C335 H321 0.961 . S
C335 C334 1.502 . S
C336 H322 0.960 . S
C336 H323 0.961 . S
C336 H324 0.959 . S
C336 C334 1.561 . S
C337 C334 1.526 . S
C337 C338 1.396 . S
C337 C342 1.390 . S
C338 C332 1.465 . S
C338 C337 1.396 . S
C338 C339 1.399 . S
C339 H325 0.929 . S
C339 C338 1.399 . S
C339 C340 1.385 . S
C340 H326 0.931 . S
C340 C339 1.385 . S
C340 C341 1.389 . S
C341 C340 1.389 . S
C341 C342 1.387 . S
C342 H327 0.930 . S
C342 C337 1.390 . S
C342 C341 1.387 . S
H343 C355 0.930 . S
H344 C357 0.930 . S
H345 C358 0.930 . S
H346 C362 0.959 . S
H347 C362 0.959 . S
H348 C362 0.961 . S
H349 C363 0.960 . S
H350 C363 0.961 . S
H351 C363 0.959 . S
H352 C366 0.929 . S
H353 C367 0.931 . S
H354 C369 0.930 . S
C355 H343 0.930 . S
C355 C356 1.399 1_545 S
C355 C360 1.399 . S
C356 C355 1.399 1_565 S
C356 C357 1.376 . S
C357 H344 0.930 . S
C357 C356 1.376 . S
C357 C358 1.388 . S
C358 H345 0.930 . S
C358 C357 1.388 . S
C358 C359 1.390 . S
C359 C358 1.390 . S
C359 C360 1.394 1_565 S
C359 C365 1.465 . S
C360 C355 1.399 . S
C360 C359 1.394 1_545 S
C360 C361 1.516 . S
C361 C360 1.516 . S
C361 C362 1.502 . S
C361 C363 1.561 . S
C361 C364 1.526 . S
C362 H346 0.959 . S
C362 H347 0.959 . S
C362 H348 0.961 . S
C362 C361 1.502 . S
C363 H349 0.960 . S
C363 H350 0.961 . S
C363 H351 0.959 . S
C363 C361 1.561 . S
C364 C361 1.526 . S
C364 C365 1.396 1_545 S
C364 C369 1.390 . S
C365 C359 1.465 . S
C365 C364 1.396 1_565 S
C365 C366 1.399 . S
C366 H352 0.929 . S
C366 C365 1.399 . S
C366 C367 1.385 . S
C367 H353 0.931 . S
C367 C366 1.385 . S
C367 C368 1.389 . S
C368 C367 1.389 . S
C368 C369 1.387 1_565 S
C369 H354 0.930 . S
C369 C364 1.390 . S
C369 C368 1.387 1_545 S
H370 C382 0.930 . S
H371 C384 0.930 . S
H372 C385 0.930 . S
H373 C389 0.959 . S
H374 C389 0.959 . S
H375 C389 0.961 . S
H376 C390 0.960 . S
H377 C390 0.961 . S
H378 C390 0.959 . S
H379 C393 0.929 . S
H380 C394 0.931 . S
H381 C396 0.930 . S
C382 H370 0.930 . S
C382 C383 1.399 . S
C382 C387 1.399 . S
C383 C382 1.399 . S
C383 C384 1.376 . S
C384 H371 0.930 . S
C384 C383 1.376 . S
C384 C385 1.388 . S
C385 H372 0.930 . S
C385 C384 1.388 . S
C385 C386 1.390 . S
C386 C385 1.390 . S
C386 C387 1.394 . S
C386 C392 1.465 . S
C387 C382 1.399 . S
C387 C386 1.394 . S
C387 C388 1.516 . S
C388 C387 1.516 . S
C388 C389 1.502 . S
C388 C390 1.561 . S
C388 C391 1.526 . S
C389 H373 0.959 . S
C389 H374 0.959 . S
C389 H375 0.961 . S
C389 C388 1.502 . S
C390 H376 0.960 . S
C390 H377 0.961 . S
C390 H378 0.959 . S
C390 C388 1.561 . S
C391 C388 1.526 . S
C391 C392 1.396 . S
C391 C396 1.390 . S
C392 C386 1.465 . S
C392 C391 1.396 . S
C392 C393 1.399 . S
C393 H379 0.929 . S
C393 C392 1.399 . S
C393 C394 1.385 . S
C394 H380 0.931 . S
C394 C393 1.385 . S
C394 C395 1.389 . S
C395 C394 1.389 . S
C395 C396 1.387 . S
C396 H381 0.930 . S
C396 C391 1.390 . S
C396 C395 1.387 . S
H397 C409 0.930 . S
H398 C411 0.930 . S
H399 C412 0.930 . S
H400 C416 0.959 . S
H401 C416 0.959 . S
H402 C416 0.961 . S
H403 C417 0.960 1_455 S
H404 C417 0.961 1_554 S
H405 C417 0.959 . S
H406 C420 0.929 . S
H407 C421 0.931 . S
H408 C423 0.930 . S
C409 H397 0.930 . S
C409 C410 1.399 1_545 S
C409 C414 1.399 . S
C410 C409 1.399 1_565 S
C410 C411 1.376 . S
C411 H398 0.930 . S
C411 C410 1.376 . S
C411 C412 1.388 . S
C412 H399 0.930 . S
C412 C411 1.388 . S
C412 C413 1.390 . S
C413 C412 1.390 . S
C413 C414 1.394 1_565 S
C413 C419 1.465 1_456 S
C414 C409 1.399 . S
C414 C413 1.394 1_545 S
C414 C415 1.516 1_556 S
C415 C414 1.516 1_554 S
C415 C416 1.502 . S
C415 C417 1.561 1_454 S
C415 C418 1.526 1_455 S
C416 H400 0.959 . S
C416 H401 0.959 . S
C416 H402 0.961 . S
C416 C415 1.502 . S
C417 H403 0.960 1_655 S
C417 H404 0.961 1_556 S
C417 H405 0.959 . S
C417 C415 1.561 1_656 S
C418 C415 1.526 1_655 S
C418 C419 1.396 1_545 S
C418 C423 1.390 . S
C419 C413 1.465 1_654 S
C419 C418 1.396 1_565 S
C419 C420 1.399 . S
C420 H406 0.929 . S
C420 C419 1.399 . S
C420 C421 1.385 . S
C421 H407 0.931 . S
C421 C420 1.385 . S
C421 C422 1.389 . S
C422 C421 1.389 . S
C422 C423 1.387 1_565 S
C423 H408 0.930 . S
C423 C418 1.390 . S
C423 C422 1.387 1_545 S
H424 C436 0.930 . S
H425 C438 0.930 . S
H426 C439 0.930 . S
H427 C443 0.959 . S
H428 C443 0.959 . S
H429 C443 0.961 . S
H430 C444 0.960 . S
H431 C444 0.961 . S
H432 C444 0.959 . S
H433 C447 0.929 . S
H434 C448 0.931 . S
H435 C450 0.930 . S
C436 H424 0.930 . S
C436 C437 1.399 . S
C436 C441 1.399 . S
C437 C436 1.399 . S
C437 C438 1.376 . S
C438 H425 0.930 . S
C438 C437 1.376 . S
C438 C439 1.388 . S
C439 H426 0.930 . S
C439 C438 1.388 . S
C439 C440 1.390 . S
C440 C439 1.390 . S
C440 C441 1.394 . S
C440 C446 1.465 . S
C441 C436 1.399 . S
C441 C440 1.394 . S
C441 C442 1.516 . S
C442 C441 1.516 . S
C442 C443 1.502 . S
C442 C444 1.561 . S
C442 C445 1.526 . S
C443 H427 0.959 . S
C443 H428 0.959 . S
C443 H429 0.961 . S
C443 C442 1.502 . S
C444 H430 0.960 . S
C444 H431 0.961 . S
C444 H432 0.959 . S
C444 C442 1.561 . S
C445 C442 1.526 . S
C445 C446 1.396 . S
C445 C450 1.390 . S
C446 C440 1.465 . S
C446 C445 1.396 . S
C446 C447 1.399 . S
C447 H433 0.929 . S
C447 C446 1.399 . S
C447 C448 1.385 . S
C448 H434 0.931 . S
C448 C447 1.385 . S
C448 C449 1.389 . S
C449 C448 1.389 . S
C449 C450 1.387 . S
C450 H435 0.930 . S
C450 C445 1.390 . S
C450 C449 1.387 . S
H451 C463 0.930 . S
H452 C465 0.930 . S
H453 C466 0.930 . S
H454 C470 0.959 . S
H455 C470 0.959 . S
H456 C470 0.961 . S
H457 C471 0.960 . S
H458 C471 0.961 . S
H459 C471 0.959 . S
H460 C474 0.929 . S
H461 C475 0.931 . S
H462 C477 0.930 . S
C463 H451 0.930 . S
C463 C464 1.399 . S
C463 C468 1.399 . S
C464 C463 1.399 . S
C464 C465 1.376 . S
C465 H452 0.930 . S
C465 C464 1.376 . S
C465 C466 1.388 . S
C466 H453 0.930 . S
C466 C465 1.388 . S
C466 C467 1.390 . S
C467 C466 1.390 . S
C467 C468 1.394 . S
C467 C473 1.465 . S
C468 C463 1.399 . S
C468 C467 1.394 . S
C468 C469 1.516 . S
C469 C468 1.516 . S
C469 C470 1.502 . S
C469 C471 1.561 . S
C469 C472 1.526 . S
C470 H454 0.959 . S
C470 H455 0.959 . S
C470 H456 0.961 . S
C470 C469 1.502 . S
C471 H457 0.960 . S
C471 H458 0.961 . S
C471 H459 0.959 . S
C471 C469 1.561 . S
C472 C469 1.526 . S
C472 C473 1.396 . S
C472 C477 1.390 . S
C473 C467 1.465 . S
C473 C472 1.396 . S
C473 C474 1.399 . S
C474 H460 0.929 . S
C474 C473 1.399 . S
C474 C475 1.385 . S
C475 H461 0.931 . S
C475 C474 1.385 . S
C475 C476 1.389 . S
C476 C475 1.389 . S
C476 C477 1.387 . S
C477 H462 0.930 . S
C477 C472 1.390 . S
C477 C476 1.387 . S
H478 C490 0.930 . S
H479 C492 0.930 . S
H480 C493 0.930 . S
H481 C497 0.959 . S
H482 C497 0.959 . S
H483 C497 0.961 . S
H484 C498 0.960 . S
H485 C498 0.961 . S
H486 C498 0.959 . S
H487 C501 0.929 . S
H488 C502 0.931 . S
H489 C504 0.930 . S
C490 H478 0.930 . S
C490 C491 1.399 . S
C490 C495 1.399 . S
C491 C490 1.399 . S
C491 C492 1.376 . S
C492 H479 0.930 . S
C492 C491 1.376 . S
C492 C493 1.388 . S
C493 H480 0.930 . S
C493 C492 1.388 . S
C493 C494 1.390 . S
C494 C493 1.390 . S
C494 C495 1.394 . S
C494 C500 1.465 . S
C495 C490 1.399 . S
C495 C494 1.394 . S
C495 C496 1.516 . S
C496 C495 1.516 . S
C496 C497 1.502 . S
C496 C498 1.561 . S
C496 C499 1.526 . S
C497 H481 0.959 . S
C497 H482 0.959 . S
C497 H483 0.961 . S
C497 C496 1.502 . S
C498 H484 0.960 . S
C498 H485 0.961 . S
C498 H486 0.959 . S
C498 C496 1.561 . S
C499 C496 1.526 . S
C499 C500 1.396 . S
C499 C504 1.390 . S
C500 C494 1.465 . S
C500 C499 1.396 . S
C500 C501 1.399 . S
C501 H487 0.929 . S
C501 C500 1.399 . S
C501 C502 1.385 . S
C502 H488 0.931 . S
C502 C501 1.385 . S
C502 C503 1.389 . S
C503 C502 1.389 . S
C503 C504 1.387 . S
C504 H489 0.930 . S
C504 C499 1.390 . S
C504 C503 1.387 . S
H505 C517 0.930 . S
H506 C519 0.930 . S
H507 C520 0.930 . S
H508 C524 0.959 . S
H509 C524 0.959 . S
H510 C524 0.961 . S
H511 C525 0.960 . S
H512 C525 0.961 . S
H513 C525 0.959 . S
H514 C528 0.929 . S
H515 C529 0.931 . S
H516 C531 0.930 . S
C517 H505 0.930 . S
C517 C518 1.399 . S
C517 C522 1.399 . S
C518 C517 1.399 . S
C518 C519 1.376 . S
C519 H506 0.930 . S
C519 C518 1.376 . S
C519 C520 1.388 . S
C520 H507 0.930 . S
C520 C519 1.388 . S
C520 C521 1.390 . S
C521 C520 1.390 . S
C521 C522 1.394 . S
C521 C527 1.465 . S
C522 C517 1.399 . S
C522 C521 1.394 . S
C522 C523 1.516 . S
C523 C522 1.516 . S
C523 C524 1.502 . S
C523 C525 1.561 . S
C523 C526 1.526 . S
C524 H508 0.959 . S
C524 H509 0.959 . S
C524 H510 0.961 . S
C524 C523 1.502 . S
C525 H511 0.960 . S
C525 H512 0.961 . S
C525 H513 0.959 . S
C525 C523 1.561 . S
C526 C523 1.526 . S
C526 C527 1.396 . S
C526 C531 1.390 . S
C527 C521 1.465 . S
C527 C526 1.396 . S
C527 C528 1.399 . S
C528 H514 0.929 . S
C528 C527 1.399 . S
C528 C529 1.385 . S
C529 H515 0.931 . S
C529 C528 1.385 . S
C529 C530 1.389 . S
C530 C529 1.389 . S
C530 C531 1.387 . S
C531 H516 0.930 . S
C531 C526 1.390 . S
C531 C530 1.387 . S
H532 C544 0.930 . S
H533 C546 0.930 . S
H534 C547 0.930 1_556 S
H535 C551 0.959 . S
H536 C551 0.959 . S
H537 C551 0.961 . S
H538 C552 0.960 1_554 S
H539 C552 0.961 . S
H540 C552 0.959 . S
H541 C555 0.929 . S
H542 C556 0.931 . S
H543 C558 0.930 . S
C544 H532 0.930 . S
C544 C545 1.399 . S
C544 C549 1.399 . S
C545 C544 1.399 . S
C545 C546 1.376 . S
C546 H533 0.930 . S
C546 C545 1.376 . S
C546 C547 1.388 . S
C547 H534 0.930 1_554 S
C547 C546 1.388 . S
C547 C548 1.390 . S
C548 C547 1.390 . S
C548 C549 1.394 . S
C548 C554 1.465 1_554 S
C549 C544 1.399 . S
C549 C548 1.394 . S
C549 C550 1.516 . S
C550 C549 1.516 . S
C550 C551 1.502 . S
C550 C552 1.561 1_554 S
C550 C553 1.526 1_554 S
C551 H535 0.959 . S
C551 H536 0.959 . S
C551 H537 0.961 . S
C551 C550 1.502 . S
C552 H538 0.960 1_556 S
C552 H539 0.961 . S
C552 H540 0.959 . S
C552 C550 1.561 1_556 S
C553 C550 1.526 1_556 S
C553 C554 1.396 . S
C553 C558 1.390 . S
C554 C548 1.465 1_556 S
C554 C553 1.396 . S
C554 C555 1.399 . S
C555 H541 0.929 . S
C555 C554 1.399 . S
C555 C556 1.385 . S
C556 H542 0.931 . S
C556 C555 1.385 . S
C556 C557 1.389 . S
C557 C556 1.389 . S
C557 C558 1.387 . S
C558 H543 0.930 . S
C558 C553 1.390 . S
C558 C557 1.387 . S
H559 C571 0.930 . S
H560 C573 0.930 . S
H561 C574 0.930 . S
H562 C578 0.959 . S
H563 C578 0.959 . S
H564 C578 0.961 . S
H565 C579 0.960 1_455 S
H566 C579 0.961 . S
H567 C579 0.959 . S
H568 C582 0.929 . S
H569 C583 0.931 . S
H570 C585 0.930 . S
C571 H559 0.930 . S
C571 C572 1.399 . S
C571 C576 1.399 . S
C572 C571 1.399 . S
C572 C573 1.376 . S
C573 H560 0.930 . S
C573 C572 1.376 . S
C573 C574 1.388 . S
C574 H561 0.930 . S
C574 C573 1.388 . S
C574 C575 1.390 . S
C575 C574 1.390 . S
C575 C576 1.394 . S
C575 C581 1.465 1_455 S
C576 C571 1.399 . S
C576 C575 1.394 . S
C576 C577 1.516 . S
C577 C576 1.516 . S
C577 C578 1.502 . S
C577 C579 1.561 1_455 S
C577 C580 1.526 1_455 S
C578 H562 0.959 . S
C578 H563 0.959 . S
C578 H564 0.961 . S
C578 C577 1.502 . S
C579 H565 0.960 1_655 S
C579 H566 0.961 . S
C579 H567 0.959 . S
C579 C577 1.561 1_655 S
C580 C577 1.526 1_655 S
C580 C581 1.396 . S
C580 C585 1.390 . S
C581 C575 1.465 1_655 S
C581 C580 1.396 . S
C581 C582 1.399 . S
C582 H568 0.929 . S
C582 C581 1.399 . S
C582 C583 1.385 . S
C583 H569 0.931 . S
C583 C582 1.385 . S
C583 C584 1.389 . S
C584 C583 1.389 . S
C584 C585 1.387 . S
C585 H570 0.930 . S
C585 C580 1.390 . S
C585 C584 1.387 . S
H586 C598 0.930 . S
H587 C600 0.930 . S
H588 C601 0.930 1_655 S
H589 C605 0.959 . S
H590 C605 0.959 . S
H591 C605 0.961 . S
H592 C606 0.960 1_554 S
H593 C606 0.961 1_655 S
H594 C606 0.959 1_654 S
H595 C609 0.929 1_554 S
H596 C610 0.931 . S
H597 C612 0.930 . S
C598 H586 0.930 . S
C598 C599 1.399 . S
C598 C603 1.399 . S
C599 C598 1.399 . S
C599 C600 1.376 . S
C600 H587 0.930 . S
C600 C599 1.376 . S
C600 C601 1.388 . S
C601 H588 0.930 1_455 S
C601 C600 1.388 . S
C601 C602 1.390 . S
C602 C601 1.390 . S
C602 C603 1.394 . S
C602 C608 1.465 1_454 S
C603 C598 1.399 . S
C603 C602 1.394 . S
C603 C604 1.516 1_554 S
C604 C603 1.516 1_556 S
C604 C605 1.502 . S
C604 C606 1.561 . S
C604 C607 1.526 1_455 S
C605 H589 0.959 . S
C605 H590 0.959 . S
C605 H591 0.961 . S
C605 C604 1.502 . S
C606 H592 0.960 1_556 S
C606 H593 0.961 1_455 S
C606 H594 0.959 1_456 S
C606 C604 1.561 . S
C607 C604 1.526 1_655 S
C607 C608 1.396 . S
C607 C612 1.390 . S
C608 C602 1.465 1_656 S
C608 C607 1.396 . S
C608 C609 1.399 . S
C609 H595 0.929 1_556 S
C609 C608 1.399 . S
C609 C610 1.385 . S
C610 H596 0.931 . S
C610 C609 1.385 . S
C610 C611 1.389 . S
C611 C610 1.389 . S
C611 C612 1.387 . S
C612 H597 0.930 . S
C612 C607 1.390 . S
C612 C611 1.387 . S
H613 C625 0.930 . S
H614 C627 0.930 . S
H615 C628 0.930 . S
H616 C632 0.959 . S
H617 C632 0.959 . S
H618 C632 0.961 . S
H619 C633 0.960 . S
H620 C633 0.961 . S
H621 C633 0.959 . S
H622 C636 0.929 . S
H623 C637 0.931 . S
H624 C639 0.930 . S
C625 H613 0.930 . S
C625 C626 1.399 . S
C625 C630 1.399 . S
C626 C625 1.399 . S
C626 C627 1.376 . S
C627 H614 0.930 . S
C627 C626 1.376 . S
C627 C628 1.388 . S
C628 H615 0.930 . S
C628 C627 1.388 . S
C628 C629 1.390 . S
C629 C628 1.390 . S
C629 C630 1.394 . S
C629 C635 1.465 . S
C630 C625 1.399 . S
C630 C629 1.394 . S
C630 C631 1.516 . S
C631 C630 1.516 . S
C631 C632 1.502 . S
C631 C633 1.561 . S
C631 C634 1.526 . S
C632 H616 0.959 . S
C632 H617 0.959 . S
C632 H618 0.961 . S
C632 C631 1.502 . S
C633 H619 0.960 . S
C633 H620 0.961 . S
C633 H621 0.959 . S
C633 C631 1.561 . S
C634 C631 1.526 . S
C634 C635 1.396 . S
C634 C639 1.390 . S
C635 C629 1.465 . S
C635 C634 1.396 . S
C635 C636 1.399 . S
C636 H622 0.929 . S
C636 C635 1.399 . S
C636 C637 1.385 . S
C637 H623 0.931 . S
C637 C636 1.385 . S
C637 C638 1.389 . S
C638 C637 1.389 . S
C638 C639 1.387 . S
C639 H624 0.930 . S
C639 C634 1.390 . S
C639 C638 1.387 . S
H640 C652 0.930 . S
H641 C654 0.930 . S
H642 C655 0.930 . S
H643 C659 0.959 . S
H644 C659 0.959 . S
H645 C659 0.961 . S
H646 C660 0.960 . S
H647 C660 0.961 . S
H648 C660 0.959 . S
H649 C663 0.929 1_556 S
H650 C664 0.931 1_556 S
H651 C666 0.930 . S
C652 H640 0.930 . S
C652 C653 1.399 . S
C652 C657 1.399 . S
C653 C652 1.399 . S
C653 C654 1.376 . S
C654 H641 0.930 . S
C654 C653 1.376 . S
C654 C655 1.388 . S
C655 H642 0.930 . S
C655 C654 1.388 . S
C655 C656 1.390 . S
C656 C655 1.390 . S
C656 C657 1.394 . S
C656 C662 1.465 . S
C657 C652 1.399 . S
C657 C656 1.394 . S
C657 C658 1.516 . S
C658 C657 1.516 . S
C658 C659 1.502 . S
C658 C660 1.561 . S
C658 C661 1.526 . S
C659 H643 0.959 . S
C659 H644 0.959 . S
C659 H645 0.961 . S
C659 C658 1.502 . S
C660 H646 0.960 . S
C660 H647 0.961 . S
C660 H648 0.959 . S
C660 C658 1.561 . S
C661 C658 1.526 . S
C661 C662 1.396 . S
C661 C666 1.390 . S
C662 C656 1.465 . S
C662 C661 1.396 . S
C662 C663 1.399 . S
C663 H649 0.929 1_554 S
C663 C662 1.399 . S
C663 C664 1.385 . S
C664 H650 0.931 1_554 S
C664 C663 1.385 . S
C664 C665 1.389 . S
C665 C664 1.389 . S
C665 C666 1.387 . S
C666 H651 0.930 . S
C666 C661 1.390 . S
C666 C665 1.387 . S
H667 C679 0.930 . S
H668 C681 0.930 . S
H669 C682 0.930 . S
H670 C686 0.959 . S
H671 C686 0.959 . S
H672 C686 0.961 . S
H673 C687 0.960 . S
H674 C687 0.961 . S
H675 C687 0.959 . S
H676 C690 0.929 . S
H677 C691 0.931 . S
H678 C693 0.930 . S
C679 H667 0.930 . S
C679 C680 1.399 . S
C679 C684 1.399 . S
C680 C679 1.399 . S
C680 C681 1.376 . S
C681 H668 0.930 . S
C681 C680 1.376 . S
C681 C682 1.388 . S
C682 H669 0.930 . S
C682 C681 1.388 . S
C682 C683 1.390 . S
C683 C682 1.390 . S
C683 C684 1.394 . S
C683 C689 1.465 . S
C684 C679 1.399 . S
C684 C683 1.394 . S
C684 C685 1.516 . S
C685 C684 1.516 . S
C685 C686 1.502 . S
C685 C687 1.561 . S
C685 C688 1.526 . S
C686 H670 0.959 . S
C686 H671 0.959 . S
C686 H672 0.961 . S
C686 C685 1.502 . S
C687 H673 0.960 . S
C687 H674 0.961 . S
C687 H675 0.959 . S
C687 C685 1.561 . S
C688 C685 1.526 . S
C688 C689 1.396 . S
C688 C693 1.390 . S
C689 C683 1.465 . S
C689 C688 1.396 . S
C689 C690 1.399 . S
C690 H676 0.929 . S
C690 C689 1.399 . S
C690 C691 1.385 . S
C691 H677 0.931 . S
C691 C690 1.385 . S
C691 C692 1.389 . S
C692 C691 1.389 . S
C692 C693 1.387 . S
C693 H678 0.930 . S
C693 C688 1.390 . S
C693 C692 1.387 . S
H694 C706 0.930 . S
H695 C708 0.930 . S
H696 C709 0.930 . S
H697 C713 0.959 . S
H698 C713 0.959 . S
H699 C713 0.961 . S
H700 C714 0.960 . S
H701 C714 0.961 . S
H702 C714 0.959 . S
H703 C717 0.929 . S
H704 C718 0.931 . S
H705 C720 0.930 . S
C706 H694 0.930 . S
C706 C707 1.399 . S
C706 C711 1.399 . S
C707 C706 1.399 . S
C707 C708 1.376 . S
C708 H695 0.930 . S
C708 C707 1.376 . S
C708 C709 1.388 . S
C709 H696 0.930 . S
C709 C708 1.388 . S
C709 C710 1.390 . S
C710 C709 1.390 . S
C710 C711 1.394 . S
C710 C716 1.465 . S
C711 C706 1.399 . S
C711 C710 1.394 . S
C711 C712 1.516 . S
C712 C711 1.516 . S
C712 C713 1.502 . S
C712 C714 1.561 . S
C712 C715 1.526 . S
C713 H697 0.959 . S
C713 H698 0.959 . S
C713 H699 0.961 . S
C713 C712 1.502 . S
C714 H700 0.960 . S
C714 H701 0.961 . S
C714 H702 0.959 . S
C714 C712 1.561 . S
C715 C712 1.526 . S
C715 C716 1.396 . S
C715 C720 1.390 . S
C716 C710 1.465 . S
C716 C715 1.396 . S
C716 C717 1.399 . S
C717 H703 0.929 . S
C717 C716 1.399 . S
C717 C718 1.385 . S
C718 H704 0.931 . S
C718 C717 1.385 . S
C718 C719 1.389 . S
C719 C718 1.389 . S
C719 C720 1.387 . S
C720 H705 0.930 . S
C720 C715 1.390 . S
C720 C719 1.387 . S
H721 C733 0.930 . S
H722 C735 0.930 1_554 S
H723 C736 0.930 1_554 S
H724 C740 0.959 . S
H725 C740 0.959 . S
H726 C740 0.961 . S
H727 C741 0.960 . S
H728 C741 0.961 . S
H729 C741 0.959 . S
H730 C744 0.929 . S
H731 C745 0.931 . S
H732 C747 0.930 . S
C733 H721 0.930 . S
C733 C734 1.399 . S
C733 C738 1.399 . S
C734 C733 1.399 . S
C734 C735 1.376 . S
C735 H722 0.930 1_556 S
C735 C734 1.376 . S
C735 C736 1.388 . S
C736 H723 0.930 1_556 S
C736 C735 1.388 . S
C736 C737 1.390 . S
C737 C736 1.390 . S
C737 C738 1.394 . S
C737 C743 1.465 . S
C738 C733 1.399 . S
C738 C737 1.394 . S
C738 C739 1.516 . S
C739 C738 1.516 . S
C739 C740 1.502 . S
C739 C741 1.561 . S
C739 C742 1.526 . S
C740 H724 0.959 . S
C740 H725 0.959 . S
C740 H726 0.961 . S
C740 C739 1.502 . S
C741 H727 0.960 . S
C741 H728 0.961 . S
C741 H729 0.959 . S
C741 C739 1.561 . S
C742 C739 1.526 . S
C742 C743 1.396 . S
C742 C747 1.390 . S
C743 C737 1.465 . S
C743 C742 1.396 . S
C743 C744 1.399 . S
C744 H730 0.929 . S
C744 C743 1.399 . S
C744 C745 1.385 . S
C745 H731 0.931 . S
C745 C744 1.385 . S
C745 C746 1.389 . S
C746 C745 1.389 . S
C746 C747 1.387 . S
C747 H732 0.930 . S
C747 C742 1.390 . S
C747 C746 1.387 . S
H748 C760 0.930 . S
H749 C762 0.930 . S
H750 C763 0.930 . S
H751 C767 0.959 . S
H752 C767 0.959 . S
H753 C767 0.961 . S
H754 C768 0.960 . S
H755 C768 0.961 . S
H756 C768 0.959 . S
H757 C771 0.929 . S
H758 C772 0.931 . S
H759 C774 0.930 . S
C760 H748 0.930 . S
C760 C761 1.399 . S
C760 C765 1.399 . S
C761 C760 1.399 . S
C761 C762 1.376 . S
C762 H749 0.930 . S
C762 C761 1.376 . S
C762 C763 1.388 . S
C763 H750 0.930 . S
C763 C762 1.388 . S
C763 C764 1.390 . S
C764 C763 1.390 . S
C764 C765 1.394 . S
C764 C770 1.465 . S
C765 C760 1.399 . S
C765 C764 1.394 . S
C765 C766 1.516 . S
C766 C765 1.516 . S
C766 C767 1.502 . S
C766 C768 1.561 . S
C766 C769 1.526 . S
C767 H751 0.959 . S
C767 H752 0.959 . S
C767 H753 0.961 . S
C767 C766 1.502 . S
C768 H754 0.960 . S
C768 H755 0.961 . S
C768 H756 0.959 . S
C768 C766 1.561 . S
C769 C766 1.526 . S
C769 C770 1.396 . S
C769 C774 1.390 . S
C770 C764 1.465 . S
C770 C769 1.396 . S
C770 C771 1.399 . S
C771 H757 0.929 . S
C771 C770 1.399 . S
C771 C772 1.385 . S
C772 H758 0.931 . S
C772 C771 1.385 . S
C772 C773 1.389 . S
C773 C772 1.389 . S
C773 C774 1.387 . S
C774 H759 0.930 . S
C774 C769 1.390 . S
C774 C773 1.387 . S
H775 C787 0.930 . S
H776 C789 0.930 . S
H777 C790 0.930 . S
H778 C794 0.959 . S
H779 C794 0.959 . S
H780 C794 0.961 . S
H781 C795 0.960 . S
H782 C795 0.961 . S
H783 C795 0.959 . S
H784 C798 0.929 . S
H785 C799 0.931 . S
H786 C801 0.930 . S
C787 H775 0.930 . S
C787 C788 1.399 . S
C787 C792 1.399 . S
C788 C787 1.399 . S
C788 C789 1.376 . S
C789 H776 0.930 . S
C789 C788 1.376 . S
C789 C790 1.388 . S
C790 H777 0.930 . S
C790 C789 1.388 . S
C790 C791 1.390 . S
C791 C790 1.390 . S
C791 C792 1.394 . S
C791 C797 1.465 . S
C792 C787 1.399 . S
C792 C791 1.394 . S
C792 C793 1.516 . S
C793 C792 1.516 . S
C793 C794 1.502 . S
C793 C795 1.561 . S
C793 C796 1.526 . S
C794 H778 0.959 . S
C794 H779 0.959 . S
C794 H780 0.961 . S
C794 C793 1.502 . S
C795 H781 0.960 . S
C795 H782 0.961 . S
C795 H783 0.959 . S
C795 C793 1.561 . S
C796 C793 1.526 . S
C796 C797 1.396 . S
C796 C801 1.390 . S
C797 C791 1.465 . S
C797 C796 1.396 . S
C797 C798 1.399 . S
C798 H784 0.929 . S
C798 C797 1.399 . S
C798 C799 1.385 . S
C799 H785 0.931 . S
C799 C798 1.385 . S
C799 C800 1.389 . S
C800 C799 1.389 . S
C800 C801 1.387 . S
C801 H786 0.930 . S
C801 C796 1.390 . S
C801 C800 1.387 . S
H802 C814 0.930 . S
H803 C816 0.930 . S
H804 C817 0.930 . S
H805 C821 0.959 . S
H806 C821 0.959 . S
H807 C821 0.961 . S
H808 C822 0.960 . S
H809 C822 0.961 . S
H810 C822 0.959 . S
H811 C825 0.929 1_554 S
H812 C826 0.931 1_554 S
H813 C828 0.930 . S
C814 H802 0.930 . S
C814 C815 1.399 . S
C814 C819 1.399 . S
C815 C814 1.399 . S
C815 C816 1.376 . S
C816 H803 0.930 . S
C816 C815 1.376 . S
C816 C817 1.388 . S
C817 H804 0.930 . S
C817 C816 1.388 . S
C817 C818 1.390 . S
C818 C817 1.390 . S
C818 C819 1.394 . S
C818 C824 1.465 . S
C819 C814 1.399 . S
C819 C818 1.394 . S
C819 C820 1.516 . S
C820 C819 1.516 . S
C820 C821 1.502 . S
C820 C822 1.561 . S
C820 C823 1.526 . S
C821 H805 0.959 . S
C821 H806 0.959 . S
C821 H807 0.961 . S
C821 C820 1.502 . S
C822 H808 0.960 . S
C822 H809 0.961 . S
C822 H810 0.959 . S
C822 C820 1.561 . S
C823 C820 1.526 . S
C823 C824 1.396 . S
C823 C828 1.390 . S
C824 C818 1.465 . S
C824 C823 1.396 . S
C824 C825 1.399 . S
C825 H811 0.929 1_556 S
C825 C824 1.399 . S
C825 C826 1.385 . S
C826 H812 0.931 1_556 S
C826 C825 1.385 . S
C826 C827 1.389 . S
C827 C826 1.389 . S
C827 C828 1.387 . S
C828 H813 0.930 . S
C828 C823 1.390 . S
C828 C827 1.387 . S
H829 C841 0.930 . S
H830 C843 0.930 . S
H831 C844 0.930 . S
H832 C848 0.959 1_554 S
H833 C848 0.959 . S
H834 C848 0.961 . S
H835 C849 0.960 . S
H836 C849 0.961 . S
H837 C849 0.959 . S
H838 C852 0.929 . S
H839 C853 0.931 . S
H840 C855 0.930 . S
C841 H829 0.930 . S
C841 C842 1.399 . S
C841 C846 1.399 . S
C842 C841 1.399 . S
C842 C843 1.376 . S
C843 H830 0.930 . S
C843 C842 1.376 . S
C843 C844 1.388 . S
C844 H831 0.930 . S
C844 C843 1.388 . S
C844 C845 1.390 . S
C845 C844 1.390 . S
C845 C846 1.394 . S
C845 C851 1.465 . S
C846 C841 1.399 . S
C846 C845 1.394 . S
C846 C847 1.516 . S
C847 C846 1.516 . S
C847 C848 1.502 1_554 S
C847 C849 1.561 . S
C847 C850 1.526 . S
C848 H832 0.959 1_556 S
C848 H833 0.959 . S
C848 H834 0.961 . S
C848 C847 1.502 1_556 S
C849 H835 0.960 . S
C849 H836 0.961 . S
C849 H837 0.959 . S
C849 C847 1.561 . S
C850 C847 1.526 . S
C850 C851 1.396 . S
C850 C855 1.390 . S
C851 C845 1.465 . S
C851 C850 1.396 . S
C851 C852 1.399 . S
C852 H838 0.929 . S
C852 C851 1.399 . S
C852 C853 1.385 . S
C853 H839 0.931 . S
C853 C852 1.385 . S
C853 C854 1.389 . S
C854 C853 1.389 . S
C854 C855 1.387 . S
C855 H840 0.930 . S
C855 C850 1.390 . S
C855 C854 1.387 . S
H856 C868 0.930 . S
H857 C870 0.930 . S
H858 C871 0.930 . S
H859 C875 0.959 . S
H860 C875 0.959 . S
H861 C875 0.961 . S
H862 C876 0.960 . S
H863 C876 0.961 . S
H864 C876 0.959 . S
H865 C879 0.929 . S
H866 C880 0.931 . S
H867 C882 0.930 . S
C868 H856 0.930 . S
C868 C869 1.399 . S
C868 C873 1.399 . S
C869 C868 1.399 . S
C869 C870 1.376 . S
C870 H857 0.930 . S
C870 C869 1.376 . S
C870 C871 1.388 . S
C871 H858 0.930 . S
C871 C870 1.388 . S
C871 C872 1.390 . S
C872 C871 1.390 . S
C872 C873 1.394 . S
C872 C878 1.465 . S
C873 C868 1.399 . S
C873 C872 1.394 . S
C873 C874 1.516 . S
C874 C873 1.516 . S
C874 C875 1.502 . S
C874 C876 1.561 . S
C874 C877 1.526 . S
C875 H859 0.959 . S
C875 H860 0.959 . S
C875 H861 0.961 . S
C875 C874 1.502 . S
C876 H862 0.960 . S
C876 H863 0.961 . S
C876 H864 0.959 . S
C876 C874 1.561 . S
C877 C874 1.526 . S
C877 C878 1.396 . S
C877 C882 1.390 . S
C878 C872 1.465 . S
C878 C877 1.396 . S
C878 C879 1.399 . S
C879 H865 0.929 . S
C879 C878 1.399 . S
C879 C880 1.385 . S
C880 H866 0.931 . S
C880 C879 1.385 . S
C880 C881 1.389 . S
C881 C880 1.389 . S
C881 C882 1.387 . S
C882 H867 0.930 . S
C882 C877 1.390 . S
C882 C881 1.387 . S
H883 C895 0.930 . S
H884 C897 0.930 . S
H885 C898 0.930 . S
H886 C902 0.959 . S
H887 C902 0.959 . S
H888 C902 0.961 . S
H889 C903 0.960 . S
H890 C903 0.961 . S
H891 C903 0.959 . S
H892 C906 0.929 . S
H893 C907 0.931 . S
H894 C909 0.930 . S
C895 H883 0.930 . S
C895 C896 1.399 . S
C895 C900 1.399 . S
C896 C895 1.399 . S
C896 C897 1.376 . S
C897 H884 0.930 . S
C897 C896 1.376 . S
C897 C898 1.388 . S
C898 H885 0.930 . S
C898 C897 1.388 . S
C898 C899 1.390 . S
C899 C898 1.390 . S
C899 C900 1.394 . S
C899 C905 1.465 . S
C900 C895 1.399 . S
C900 C899 1.394 . S
C900 C901 1.516 . S
C901 C900 1.516 . S
C901 C902 1.502 . S
C901 C903 1.561 . S
C901 C904 1.526 . S
C902 H886 0.959 . S
C902 H887 0.959 . S
C902 H888 0.961 . S
C902 C901 1.502 . S
C903 H889 0.960 . S
C903 H890 0.961 . S
C903 H891 0.959 . S
C903 C901 1.561 . S
C904 C901 1.526 . S
C904 C905 1.396 . S
C904 C909 1.390 . S
C905 C899 1.465 . S
C905 C904 1.396 . S
C905 C906 1.399 . S
C906 H892 0.929 . S
C906 C905 1.399 . S
C906 C907 1.385 . S
C907 H893 0.931 . S
C907 C906 1.385 . S
C907 C908 1.389 . S
C908 C907 1.389 . S
C908 C909 1.387 . S
C909 H894 0.930 . S
C909 C904 1.390 . S
C909 C908 1.387 . S
H910 C922 0.930 . S
H911 C924 0.930 . S
H912 C925 0.930 . S
H913 C929 0.959 . S
H914 C929 0.959 . S
H915 C929 0.961 . S
H916 C930 0.960 . S
H917 C930 0.961 . S
H918 C930 0.959 . S
H919 C933 0.929 . S
H920 C934 0.931 . S
H921 C936 0.930 . S
C922 H910 0.930 . S
C922 C923 1.399 . S
C922 C927 1.399 . S
C923 C922 1.399 . S
C923 C924 1.376 . S
C924 H911 0.930 . S
C924 C923 1.376 . S
C924 C925 1.388 . S
C925 H912 0.930 . S
C925 C924 1.388 . S
C925 C926 1.390 . S
C926 C925 1.390 . S
C926 C927 1.394 . S
C926 C932 1.465 . S
C927 C922 1.399 . S
C927 C926 1.394 . S
C927 C928 1.516 . S
C928 C927 1.516 . S
C928 C929 1.502 . S
C928 C930 1.561 . S
C928 C931 1.526 . S
C929 H913 0.959 . S
C929 H914 0.959 . S
C929 H915 0.961 . S
C929 C928 1.502 . S
C930 H916 0.960 . S
C930 H917 0.961 . S
C930 H918 0.959 . S
C930 C928 1.561 . S
C931 C928 1.526 . S
C931 C932 1.396 . S
C931 C936 1.390 . S
C932 C926 1.465 . S
C932 C931 1.396 . S
C932 C933 1.399 . S
C933 H919 0.929 . S
C933 C932 1.399 . S
C933 C934 1.385 . S
C934 H920 0.931 . S
C934 C933 1.385 . S
C934 C935 1.389 . S
C935 C934 1.389 . S
C935 C936 1.387 . S
C936 H921 0.930 . S
C936 C931 1.390 . S
C936 C935 1.387 . S
H937 C949 0.930 . S
H938 C951 0.930 . S
H939 C952 0.930 . S
H940 C956 0.959 . S
H941 C956 0.959 . S
H942 C956 0.961 . S
H943 C957 0.960 . S
H944 C957 0.961 . S
H945 C957 0.959 1_554 S
H946 C960 0.929 . S
H947 C961 0.931 . S
H948 C963 0.930 . S
C949 H937 0.930 . S
C949 C950 1.399 . S
C949 C954 1.399 . S
C950 C949 1.399 . S
C950 C951 1.376 . S
C951 H938 0.930 . S
C951 C950 1.376 . S
C951 C952 1.388 . S
C952 H939 0.930 . S
C952 C951 1.388 . S
C952 C953 1.390 . S
C953 C952 1.390 . S
C953 C954 1.394 . S
C953 C959 1.465 . S
C954 C949 1.399 . S
C954 C953 1.394 . S
C954 C955 1.516 . S
C955 C954 1.516 . S
C955 C956 1.502 . S
C955 C957 1.561 1_554 S
C955 C958 1.526 . S
C956 H940 0.959 . S
C956 H941 0.959 . S
C956 H942 0.961 . S
C956 C955 1.502 . S
C957 H943 0.960 . S
C957 H944 0.961 . S
C957 H945 0.959 1_556 S
C957 C955 1.561 1_556 S
C958 C955 1.526 . S
C958 C959 1.396 . S
C958 C963 1.390 . S
C959 C953 1.465 . S
C959 C958 1.396 . S
C959 C960 1.399 . S
C960 H946 0.929 . S
C960 C959 1.399 . S
C960 C961 1.385 . S
C961 H947 0.931 . S
C961 C960 1.385 . S
C961 C962 1.389 . S
C962 C961 1.389 . S
C962 C963 1.387 . S
C963 H948 0.930 . S
C963 C958 1.390 . S
C963 C962 1.387 . S
H964 C976 0.930 . S
H965 C978 0.930 . S
H966 C979 0.930 . S
H967 C983 0.959 . S
H968 C983 0.959 . S
H969 C983 0.961 . S
H970 C984 0.960 . S
H971 C984 0.961 . S
H972 C984 0.959 . S
H973 C987 0.929 . S
H974 C988 0.931 . S
H975 C990 0.930 . S
C976 H964 0.930 . S
C976 C977 1.399 . S
C976 C981 1.399 . S
C977 C976 1.399 . S
C977 C978 1.376 . S
C978 H965 0.930 . S
C978 C977 1.376 . S
C978 C979 1.388 . S
C979 H966 0.930 . S
C979 C978 1.388 . S
C979 C980 1.390 . S
C980 C979 1.390 . S
C980 C981 1.394 . S
C980 C986 1.465 . S
C981 C976 1.399 . S
C981 C980 1.394 . S
C981 C982 1.516 . S
C982 C981 1.516 . S
C982 C983 1.502 . S
C982 C984 1.561 . S
C982 C985 1.526 . S
C983 H967 0.959 . S
C983 H968 0.959 . S
C983 H969 0.961 . S
C983 C982 1.502 . S
C984 H970 0.960 . S
C984 H971 0.961 . S
C984 H972 0.959 . S
C984 C982 1.561 . S
C985 C982 1.526 . S
C985 C986 1.396 . S
C985 C990 1.390 . S
C986 C980 1.465 . S
C986 C985 1.396 . S
C986 C987 1.399 . S
C987 H973 0.929 . S
C987 C986 1.399 . S
C987 C988 1.385 . S
C988 H974 0.931 . S
C988 C987 1.385 . S
C988 C989 1.389 . S
C989 C988 1.389 . S
C989 C990 1.387 . S
C990 H975 0.930 . S
C990 C985 1.390 . S
C990 C989 1.387 . S
H991 C1003 0.930 . S
H992 C1005 0.930 . S
H993 C1006 0.930 . S
H994 C1010 0.959 . S
H995 C1010 0.959 . S
H996 C1010 0.961 . S
H997 C1011 0.960 . S
H998 C1011 0.961 . S
H999 C1011 0.959 . S
H1000 C1014 0.929 . S
H1001 C1015 0.931 . S
H1002 C1017 0.930 . S
C1003 H991 0.930 . S
C1003 C1004 1.399 . S
C1003 C1008 1.399 . S
C1004 C1003 1.399 . S
C1004 C1005 1.376 . S
C1005 H992 0.930 . S
C1005 C1004 1.376 . S
C1005 C1006 1.388 . S
C1006 H993 0.930 . S
C1006 C1005 1.388 . S
C1006 C1007 1.390 . S
C1007 C1006 1.390 . S
C1007 C1008 1.394 . S
C1007 C1013 1.465 . S
C1008 C1003 1.399 . S
C1008 C1007 1.394 . S
C1008 C1009 1.516 . S
C1009 C1008 1.516 . S
C1009 C1010 1.502 . S
C1009 C1011 1.561 . S
C1009 C1012 1.526 . S
C1010 H994 0.959 . S
C1010 H995 0.959 . S
C1010 H996 0.961 . S
C1010 C1009 1.502 . S
C1011 H997 0.960 . S
C1011 H998 0.961 . S
C1011 H999 0.959 . S
C1011 C1009 1.561 . S
C1012 C1009 1.526 . S
C1012 C1013 1.396 . S
C1012 C1017 1.390 . S
C1013 C1007 1.465 . S
C1013 C1012 1.396 . S
C1013 C1014 1.399 . S
C1014 H1000 0.929 . S
C1014 C1013 1.399 . S
C1014 C1015 1.385 . S
C1015 H1001 0.931 . S
C1015 C1014 1.385 . S
C1015 C1016 1.389 . S
C1016 C1015 1.389 . S
C1016 C1017 1.387 . S
C1017 H1002 0.930 . S
C1017 C1012 1.390 . S
C1017 C1016 1.387 . S
H1018 C1030 0.930 . S
H1019 C1032 0.930 . S
H1020 C1033 0.930 . S
H1021 C1037 0.959 . S
H1022 C1037 0.959 . S
H1023 C1037 0.961 . S
H1024 C1038 0.960 . S
H1025 C1038 0.961 . S
H1026 C1038 0.959 . S
H1027 C1041 0.929 . S
H1028 C1042 0.931 . S
H1029 C1044 0.930 . S
C1030 H1018 0.930 . S
C1030 C1031 1.399 . S
C1030 C1035 1.399 . S
C1031 C1030 1.399 . S
C1031 C1032 1.376 . S
C1032 H1019 0.930 . S
C1032 C1031 1.376 . S
C1032 C1033 1.388 . S
C1033 H1020 0.930 . S
C1033 C1032 1.388 . S
C1033 C1034 1.390 . S
C1034 C1033 1.390 . S
C1034 C1035 1.394 . S
C1034 C1040 1.465 . S
C1035 C1030 1.399 . S
C1035 C1034 1.394 . S
C1035 C1036 1.516 . S
C1036 C1035 1.516 . S
C1036 C1037 1.502 1_554 S
C1036 C1038 1.561 . S
C1036 C1039 1.526 . S
C1037 H1021 0.959 . S
C1037 H1022 0.959 . S
C1037 H1023 0.961 . S
C1037 C1036 1.502 1_556 S
C1038 H1024 0.960 . S
C1038 H1025 0.961 . S
C1038 H1026 0.959 . S
C1038 C1036 1.561 . S
C1039 C1036 1.526 . S
C1039 C1040 1.396 . S
C1039 C1044 1.390 . S
C1040 C1034 1.465 . S
C1040 C1039 1.396 . S
C1040 C1041 1.399 . S
C1041 H1027 0.929 . S
C1041 C1040 1.399 . S
C1041 C1042 1.385 . S
C1042 H1028 0.931 . S
C1042 C1041 1.385 . S
C1042 C1043 1.389 . S
C1043 C1042 1.389 . S
C1043 C1044 1.387 . S
C1044 H1029 0.930 . S
C1044 C1039 1.390 . S
C1044 C1043 1.387 . S
H1045 C1057 0.930 1_554 S
H1046 C1059 0.930 . S
H1047 C1060 0.930 . S
H1048 C1064 0.959 . S
H1049 C1064 0.959 1_554 S
H1050 C1064 0.961 1_554 S
H1051 C1065 0.960 1_554 S
H1052 C1065 0.961 . S
H1053 C1065 0.959 . S
H1054 C1068 0.929 . S
H1055 C1069 0.931 . S
H1056 C1071 0.930 . S
C1057 H1045 0.930 1_556 S
C1057 C1058 1.399 . S
C1057 C1062 1.399 . S
C1058 C1057 1.399 . S
C1058 C1059 1.376 . S
C1059 H1046 0.930 . S
C1059 C1058 1.376 . S
C1059 C1060 1.388 . S
C1060 H1047 0.930 . S
C1060 C1059 1.388 . S
C1060 C1061 1.390 . S
C1061 C1060 1.390 . S
C1061 C1062 1.394 . S
C1061 C1067 1.465 . S
C1062 C1057 1.399 . S
C1062 C1061 1.394 . S
C1062 C1063 1.516 . S
C1063 C1062 1.516 . S
C1063 C1064 1.502 . S
C1063 C1065 1.561 . S
C1063 C1066 1.526 . S
C1064 H1048 0.959 . S
C1064 H1049 0.959 1_556 S
C1064 H1050 0.961 1_556 S
C1064 C1063 1.502 . S
C1065 H1051 0.960 1_556 S
C1065 H1052 0.961 . S
C1065 H1053 0.959 . S
C1065 C1063 1.561 . S
C1066 C1063 1.526 . S
C1066 C1067 1.396 . S
C1066 C1071 1.390 . S
C1067 C1061 1.465 . S
C1067 C1066 1.396 . S
C1067 C1068 1.399 . S
C1068 H1054 0.929 . S
C1068 C1067 1.399 . S
C1068 C1069 1.385 . S
C1069 H1055 0.931 . S
C1069 C1068 1.385 . S
C1069 C1070 1.389 . S
C1070 C1069 1.389 . S
C1070 C1071 1.387 . S
C1071 H1056 0.930 . S
C1071 C1066 1.390 . S
C1071 C1070 1.387 . S
C221 C5 1.462 . S
C233 C161 1.449 . S
C248 C16 1.455 . S
C260 C70 1.457 . S
C275 C31 1.450 . S
C287 C187 1.466 . S
C302 C96 1.452 . S
C314 C44 1.463 1_565 S
C329 C185 1.462 . S
C341 C29 1.452 . S
C356 C94 1.464 1_565 S
C368 C42 1.451 1_565 S
C383 C159 1.462 . S
C395 C3 1.452 . S
C410 C68 1.450 1_565 S
C422 C18 1.463 1_565 S
C437 C55 1.454 . S
C449 C109 1.459 . S
C464 C83 1.464 . S
C476 C135 1.449 . S
C491 C133 1.449 . S
C503 C81 1.466 . S
C518 C57 1.458 . S
C530 C107 1.453 . S
C545 C172 1.464 . S
C557 C120 1.451 . S
C572 C146 1.453 . S
C584 C198 1.458 . S
C599 C148 1.452 . S
C611 C200 1.460 . S
C626 C122 1.460 . S
C638 C174 1.452 . S
C653 C153 1.545 . S
C665 C10 1.549 . S
C680 C108 1.549 . S
C692 C17 1.550 . S
C707 C36 1.545 . S
C719 C127 1.550 . S
C734 C134 1.550 . S
C746 C49 1.542 . S
C761 C147 1.545 . S
C773 C30 1.550 . S
C788 C43 1.550 . S
C800 C114 1.549 . S
C815 C121 1.545 . S
C827 C4 1.550 . S
C842 C140 1.545 . S
C854 C23 1.545 . S
C869 C56 1.549 . S
C881 C205 1.548 . S
C896 C160 1.549 . S
C908 C75 1.541 . S
C923 C88 1.549 . S
C935 C179 1.545 . S
C950 C101 1.548 . S
C962 C186 1.548 . S
C977 C82 1.550 . S
C989 C199 1.546 . S
C1004 C166 1.548 . S
C1016 C95 1.545 . S
C1031 C173 1.549 . S
C1043 C62 1.545 . S
C1058 C192 1.545 . S
C1070 C69 1.555 . S
