# Generated by pormake.
# Topology wkc, (5)-cn, num edge types: 1
# Building blocks:
#     Node 0, Type 0, BuildingBlock: BEQFEK_clean_sbu_0, # of connection points: 5
#     Node 1, Type 0, BuildingBlock: BEQFEK_clean_sbu_0, # of connection points: 5
#     Node 2, Type 0, BuildingBlock: BEQFEK_clean_sbu_0, # of connection points: 5
#     Node 3, Type 0, BuildingBlock: BEQFEK_clean_sbu_0, # of connection points: 5
#     Node 4, Type 0, BuildingBlock: BEQFEK_clean_sbu_0, # of connection points: 5
#     Node 5, Type 0, BuildingBlock: BEQFEK_clean_sbu_0, # of connection points: 5
#     Node 6, Type 0, BuildingBlock: BEQFEK_clean_sbu_0, # of connection points: 5
#     Node 7, Type 0, BuildingBlock: BEQFEK_clean_sbu_0, # of connection points: 5
#     Node 8, Type 0, BuildingBlock: BEQFEK_clean_sbu_0, # of connection points: 5
#     Node 9, Type 0, BuildingBlock: BEQFEK_clean_sbu_0, # of connection points: 5
#     Node 10, Type 0, BuildingBlock: BEQFEK_clean_sbu_0, # of connection points: 5
#     Node 11, Type 0, BuildingBlock: BEQFEK_clean_sbu_0, # of connection points: 5
#     Edge 12, Type (0, 0), BuildingBlock: MIFKUJ_clean_linker_0, # of connection points: 2
#     Edge 13, Type (0, 0), BuildingBlock: MIFKUJ_clean_linker_0, # of connection points: 2
#     Edge 14, Type (0, 0), BuildingBlock: MIFKUJ_clean_linker_0, # of connection points: 2
#     Edge 15, Type (0, 0), BuildingBlock: MIFKUJ_clean_linker_0, # of connection points: 2
#     Edge 16, Type (0, 0), BuildingBlock: MIFKUJ_clean_linker_0, # of connection points: 2
#     Edge 17, Type (0, 0), BuildingBlock: MIFKUJ_clean_linker_0, # of connection points: 2
#     Edge 18, Type (0, 0), BuildingBlock: MIFKUJ_clean_linker_0, # of connection points: 2
#     Edge 19, Type (0, 0), BuildingBlock: MIFKUJ_clean_linker_0, # of connection points: 2
#     Edge 20, Type (0, 0), BuildingBlock: MIFKUJ_clean_linker_0, # of connection points: 2
#     Edge 21, Type (0, 0), BuildingBlock: MIFKUJ_clean_linker_0, # of connection points: 2
#     Edge 22, Type (0, 0), BuildingBlock: MIFKUJ_clean_linker_0, # of connection points: 2
#     Edge 23, Type (0, 0), BuildingBlock: MIFKUJ_clean_linker_0, # of connection points: 2
#     Edge 24, Type (0, 0), BuildingBlock: MIFKUJ_clean_linker_0, # of connection points: 2
#     Edge 25, Type (0, 0), BuildingBlock: MIFKUJ_clean_linker_0, # of connection points: 2
#     Edge 26, Type (0, 0), BuildingBlock: MIFKUJ_clean_linker_0, # of connection points: 2
#     Edge 27, Type (0, 0), BuildingBlock: MIFKUJ_clean_linker_0, # of connection points: 2
#     Edge 28, Type (0, 0), BuildingBlock: MIFKUJ_clean_linker_0, # of connection points: 2
#     Edge 29, Type (0, 0), BuildingBlock: MIFKUJ_clean_linker_0, # of connection points: 2
#     Edge 30, Type (0, 0), BuildingBlock: MIFKUJ_clean_linker_0, # of connection points: 2
#     Edge 31, Type (0, 0), BuildingBlock: MIFKUJ_clean_linker_0, # of connection points: 2
#     Edge 32, Type (0, 0), BuildingBlock: MIFKUJ_clean_linker_0, # of connection points: 2
#     Edge 33, Type (0, 0), BuildingBlock: MIFKUJ_clean_linker_0, # of connection points: 2
#     Edge 34, Type (0, 0), BuildingBlock: MIFKUJ_clean_linker_0, # of connection points: 2
#     Edge 35, Type (0, 0), BuildingBlock: MIFKUJ_clean_linker_0, # of connection points: 2
#     Edge 36, Type (0, 0), BuildingBlock: MIFKUJ_clean_linker_0, # of connection points: 2
#     Edge 37, Type (0, 0), BuildingBlock: MIFKUJ_clean_linker_0, # of connection points: 2
#     Edge 38, Type (0, 0), BuildingBlock: MIFKUJ_clean_linker_0, # of connection points: 2
#     Edge 39, Type (0, 0), BuildingBlock: MIFKUJ_clean_linker_0, # of connection points: 2
#     Edge 40, Type (0, 0), BuildingBlock: MIFKUJ_clean_linker_0, # of connection points: 2
#     Edge 41, Type (0, 0), BuildingBlock: MIFKUJ_clean_linker_0, # of connection points: 2
# Relax obj value: 0.258
# Max RMSD: 0.189
# Mean RMSD: 0.189
data_MOF--net-wkc--node1-BEQFEK_clean_sbu_0--edge1-MIFKUJ_clean_linker_0
_symmetry_space_group_name_H-M    P1
_symmetry_Int_Tables_number       1
_symmetry_cell_setting            triclinic
loop_
_symmetry_equiv_pos_as_xyz
'x, y, z'
_cell_length_a     50.836853
_cell_length_b     50.829285
_cell_length_c     55.67464
_cell_angle_alpha  89.990046
_cell_angle_beta   89.984393
_cell_angle_gamma 120.01269
loop_
_atom_site_label
_atom_site_type_symbol
_atom_site_fract_x
_atom_site_fract_y
_atom_site_fract_z
_atom_type_partial_charge
Co0 Co 0.24705 0.35854 0.00739 0.0
Co1 Co 0.24938 0.4113 0.03825 0.0
C2 C 0.19045 0.35913 0.02098 0.0
O3 O 0.20372 0.34696 0.01014 0.0
O4 O 0.2055 0.38393 0.03248 0.0
C5 C 0.23684 0.32463 0.96393 0.0
O6 O 0.22192 0.33836 0.95736 0.0
C7 C 0.24206 0.46372 0.05194 0.0
C8 C 0.27882 0.48617 0.0787 0.0
C9 C 0.25635 0.48893 0.0669 0.0
N10 N 0.25596 0.44724 0.05448 0.0
N11 N 0.2777 0.46067 0.07068 0.0
C12 C 0.21528 0.45505 0.03592 0.0
H13 H 0.2016 0.43014 0.034 0.0
H14 H 0.22334 0.46487 0.0178 0.0
H15 H 0.2007 0.4637 0.04317 0.0
C16 C 0.29215 0.41163 0.97863 0.0
N17 N 0.27189 0.39936 0.99673 0.0
N18 N 0.27201 0.42138 0.00926 0.0
C19 C 0.29195 0.44829 0.99933 0.0
C20 C 0.30547 0.44302 0.97967 0.0
C21 C 0.30092 0.39393 0.96226 0.0
H22 H 0.30101 0.37512 0.97226 0.0
H23 H 0.28409 0.38412 0.94749 0.0
H24 H 0.32372 0.40858 0.95429 0.0
O25 O 0.26129 0.3526 0.03897 0.0
O26 O 0.26412 0.39088 0.06029 0.0
H27 H 0.30929 0.48317 0.02607 0.0
H28 H 0.31184 0.49717 0.99578 0.0
C29 C 0.29774 0.47846 0.0084 0.0
H30 H 0.27585 0.47783 0.01077 0.0
H31 H 0.29211 0.45267 0.07599 0.0
O32 O 0.24926 0.3301 0.98452 0.0
C33 C 0.26735 0.36769 0.05844 0.0
Co34 Co 0.89251 0.25325 0.17978 0.0
Co35 Co 0.84388 0.25762 0.2112 0.0
C36 C 0.8325 0.19843 0.19092 0.0
O37 O 0.85858 0.21079 0.18106 0.0
O38 O 0.82386 0.21401 0.20299 0.0
C39 C 0.91475 0.24005 0.13686 0.0
O40 O 0.88577 0.22336 0.13159 0.0
C41 C 0.78601 0.25336 0.22378 0.0
C42 C 0.79924 0.28525 0.25435 0.0
C43 C 0.77474 0.26583 0.24017 0.0
N44 N 0.81575 0.2649 0.22813 0.0
N45 N 0.82348 0.28371 0.24656 0.0
C46 C 0.7697 0.23286 0.20307 0.0
H47 H 0.78608 0.23533 0.18884 0.0
H48 H 0.75253 0.238 0.19557 0.0
H49 H 0.75786 0.20895 0.20938 0.0
C50 C 0.88681 0.30028 0.15176 0.0
N51 N 0.87889 0.28045 0.17015 0.0
N52 N 0.85842 0.28226 0.18343 0.0
C53 C 0.85272 0.30331 0.17399 0.0
C54 C 0.87034 0.31527 0.15353 0.0
C55 C 0.90888 0.3039 0.13246 0.0
H56 H 0.8991 0.28276 0.12168 0.0
H57 H 0.91385 0.32298 0.12017 0.0
H58 H 0.93031 0.30752 0.1407 0.0
O59 O 0.9126 0.26477 0.21184 0.0
O60 O 0.87761 0.26787 0.23351 0.0
H61 H 0.83587 0.33487 0.17727 0.0
H62 H 0.80855 0.29553 0.18313 0.0
C63 C 0.83261 0.3135 0.18537 0.0
H64 H 0.83762 0.31732 0.20482 0.0
H65 H 0.84544 0.29594 0.25352 0.0
O66 O 0.92254 0.25469 0.15653 0.0
C67 C 0.90346 0.26983 0.23171 0.0
Co68 Co 0.63972 0.88835 0.34196 0.0
Co69 Co 0.58669 0.83584 0.37075 0.0
C70 C 0.63681 0.82861 0.35073 0.0
O71 O 0.65059 0.85574 0.34278 0.0
O72 O 0.61142 0.81775 0.36149 0.0
C73 C 0.67384 0.91435 0.29894 0.0
O74 O 0.6604 0.88609 0.29136 0.0
C75 C 0.53867 0.77674 0.38963 0.0
C76 C 0.50821 0.79056 0.40675 0.0
C77 C 0.51126 0.76549 0.40185 0.0
N78 N 0.55072 0.80692 0.38696 0.0
N79 N 0.53267 0.81506 0.39761 0.0
C80 C 0.55447 0.75982 0.38234 0.0
H81 H 0.57877 0.77311 0.3874 0.0
H82 H 0.55307 0.75685 0.36254 0.0
H83 H 0.54453 0.73734 0.39125 0.0
C84 C 0.58719 0.88333 0.31419 0.0
N85 N 0.59909 0.87391 0.33156 0.0
N86 N 0.57685 0.85102 0.34316 0.0
C87 C 0.55019 0.84447 0.33301 0.0
C88 C 0.5558 0.86491 0.3145 0.0
C89 C 0.60523 0.91121 0.29923 0.0
H90 H 0.62418 0.929 0.30991 0.0
H91 H 0.61484 0.90539 0.28357 0.0
H92 H 0.59085 0.92037 0.29251 0.0
O93 O 0.64581 0.90691 0.37411 0.0
O94 O 0.60904 0.86869 0.39447 0.0
H95 H 0.51098 0.82528 0.35564 0.0
H96 H 0.50341 0.81147 0.32522 0.0
C97 C 0.51996 0.81838 0.34021 0.0
H98 H 0.52234 0.79868 0.34559 0.0
H99 H 0.53681 0.83733 0.39824 0.0
O100 O 0.66822 0.92003 0.31993 0.0
C101 C 0.63158 0.89562 0.39365 0.0
Co102 Co 0.74244 0.63307 0.51391 0.0
Co103 Co 0.73814 0.58019 0.5456 0.0
C104 C 0.7972 0.62723 0.52526 0.0
O105 O 0.78496 0.64095 0.51517 0.0
O106 O 0.78152 0.60319 0.5375 0.0
C107 C 0.7508 0.66421 0.46901 0.0
O108 O 0.76137 0.64679 0.46143 0.0
C109 C 0.74289 0.52734 0.56082 0.0
C110 C 0.70468 0.50521 0.58645 0.0
C111 C 0.72759 0.5022 0.57566 0.0
N112 N 0.72958 0.54438 0.56278 0.0
N113 N 0.70704 0.53126 0.57837 0.0
C114 C 0.76744 0.53341 0.54308 0.0
H115 H 0.76686 0.54722 0.52788 0.0
H116 H 0.76497 0.51183 0.53611 0.0
H117 H 0.78983 0.54628 0.55211 0.0
C118 C 0.69332 0.58034 0.48735 0.0
N119 N 0.71442 0.59237 0.50486 0.0
N120 N 0.71364 0.57017 0.51761 0.0
C121 C 0.69273 0.54334 0.50815 0.0
C122 C 0.67902 0.54889 0.48875 0.0
C123 C 0.68491 0.59843 0.47109 0.0
H124 H 0.68787 0.61895 0.48048 0.0
H125 H 0.69981 0.60552 0.45502 0.0
H126 H 0.66099 0.58473 0.46501 0.0
O127 O 0.73079 0.6419 0.54554 0.0
O128 O 0.72896 0.60485 0.56792 0.0
H129 H 0.67507 0.5078 0.53434 0.0
H130 H 0.67343 0.49465 0.5039 0.0
C131 C 0.68709 0.51308 0.51684 0.0
H132 H 0.70905 0.51389 0.51944 0.0
H133 H 0.69269 0.53963 0.58295 0.0
O134 O 0.74171 0.66189 0.49058 0.0
C135 C 0.72658 0.62849 0.56567 0.0
Co136 Co 0.1104 0.74875 0.67114 0.0
Co137 Co 0.16057 0.74946 0.70393 0.0
C138 C 0.16355 0.80698 0.68563 0.0
O139 O 0.13875 0.79296 0.674 0.0
O140 O 0.17379 0.79266 0.69755 0.0
C141 C 0.08081 0.75913 0.6307 0.0
O142 O 0.10604 0.7853 0.62829 0.0
C143 C 0.22186 0.76023 0.71236 0.0
C144 C 0.21677 0.73717 0.74714 0.0
C145 C 0.23762 0.75328 0.72919 0.0
N146 N 0.19301 0.74836 0.71989 0.0
N147 N 0.19014 0.73478 0.74075 0.0
C148 C 0.23404 0.77893 0.69003 0.0
H149 H 0.22003 0.7891 0.68485 0.0
H150 H 0.23325 0.76424 0.67501 0.0
H151 H 0.25798 0.79714 0.69268 0.0
C152 C 0.12544 0.7089 0.64207 0.0
N153 N 0.13037 0.72744 0.66094 0.0
N154 N 0.1503 0.72638 0.67537 0.0
C155 C 0.15792 0.70636 0.66662 0.0
C156 C 0.14269 0.69486 0.64507 0.0
C157 C 0.10464 0.70487 0.62162 0.0
H158 H 0.10943 0.72746 0.61515 0.0
H159 H 0.10756 0.69247 0.60642 0.0
H160 H 0.08075 0.69225 0.62796 0.0
O161 O 0.08971 0.73275 0.70269 0.0
O162 O 0.12529 0.73222 0.72552 0.0
H163 H 0.16916 0.67154 0.67488 0.0
H164 H 0.20023 0.70993 0.67659 0.0
C165 C 0.17568 0.69504 0.68029 0.0
H166 H 0.17169 0.69523 0.69983 0.0
H167 H 0.16993 0.72365 0.75051 0.0
O168 O 0.0784 0.74133 0.64767 0.0
C169 C 0.09831 0.72712 0.7226 0.0
Co170 Co 0.35878 0.10747 0.84403 0.0
Co171 Co 0.40949 0.15791 0.87631 0.0
C172 C 0.35786 0.16412 0.85728 0.0
O173 O 0.34614 0.13851 0.8467 0.0
O174 O 0.38246 0.17433 0.86912 0.0
C175 C 0.32456 0.08399 0.80053 0.0
O176 O 0.33592 0.11279 0.79495 0.0
C177 C 0.46124 0.21758 0.89095 0.0
C178 C 0.47971 0.20364 0.92121 0.0
C179 C 0.48428 0.22865 0.90798 0.0
N180 N 0.44413 0.18728 0.89379 0.0
N181 N 0.45522 0.1792 0.91201 0.0
C182 C 0.45493 0.23565 0.87295 0.0
H183 H 0.46118 0.25831 0.88036 0.0
H184 H 0.43074 0.22357 0.86767 0.0
H185 H 0.46867 0.23908 0.85656 0.0
C186 C 0.41324 0.11844 0.81595 0.0
N187 N 0.40004 0.12479 0.83433 0.0
N188 N 0.42135 0.14588 0.84792 0.0
C189 C 0.44877 0.15356 0.83864 0.0
C190 C 0.44452 0.13652 0.81804 0.0
C191 C 0.39639 0.09375 0.79793 0.0
H192 H 0.37819 0.0733 0.807 0.0
H193 H 0.38574 0.10164 0.78451 0.0
H194 H 0.41173 0.08758 0.78845 0.0
O195 O 0.35234 0.08634 0.8753 0.0
O196 O 0.38778 0.12267 0.89798 0.0
H197 H 0.48035 0.17012 0.86784 0.0
H198 H 0.49813 0.18006 0.83853 0.0
C199 C 0.47841 0.17689 0.84928 0.0
H200 H 0.47904 0.19893 0.85013 0.0
H201 H 0.44617 0.1569 0.91808 0.0
O202 O 0.3316 0.07695 0.82045 0.0
C203 C 0.36574 0.09569 0.89543 0.0
Co204 Co 0.6285 0.74366 0.82157 0.0
Co205 Co 0.58135 0.74543 0.78643 0.0
C206 C 0.62993 0.80173 0.80953 0.0
O207 O 0.64163 0.78775 0.81999 0.0
O208 O 0.60636 0.78787 0.79649 0.0
C209 C 0.67718 0.75703 0.85526 0.0
O210 O 0.69115 0.78436 0.84576 0.0
C211 C 0.535 0.75783 0.76673 0.0
C212 C 0.51316 0.7215 0.73951 0.0
C213 C 0.51189 0.74565 0.74979 0.0
N214 N 0.54891 0.74125 0.76672 0.0
N215 N 0.53597 0.71979 0.75025 0.0
C216 C 0.54494 0.7856 0.78185 0.0
H217 H 0.56931 0.80177 0.77847 0.0
H218 H 0.5424 0.77922 0.80113 0.0
H219 H 0.53208 0.79736 0.77774 0.0
C220 C 0.57142 0.69782 0.84515 0.0
N221 N 0.5863 0.71889 0.82805 0.0
N222 N 0.56637 0.71987 0.81357 0.0
C223 C 0.53813 0.69992 0.82126 0.0
C224 C 0.54035 0.68514 0.8415 0.0
C225 C 0.58685 0.68802 0.863 0.0
H226 H 0.60393 0.68423 0.85363 0.0
H227 H 0.59895 0.70638 0.87638 0.0
H228 H 0.57059 0.66678 0.87239 0.0
O229 O 0.6388 0.7312 0.79091 0.0
O230 O 0.60598 0.73388 0.76619 0.0
H231 H 0.5063 0.68394 0.7923 0.0
H232 H 0.4895 0.68239 0.82129 0.0
C233 C 0.50969 0.69574 0.80975 0.0
H234 H 0.51195 0.71824 0.80626 0.0
H235 H 0.54247 0.70372 0.74656 0.0
O236 O 0.65122 0.73734 0.84743 0.0
C237 C 0.62772 0.72877 0.76998 0.0
Co238 Co 0.8934 0.63293 0.98238 0.0
Co239 Co 0.84502 0.57912 0.95126 0.0
C240 C 0.83698 0.63146 0.96792 0.0
O241 O 0.86208 0.64486 0.97921 0.0
O242 O 0.82853 0.60664 0.95676 0.0
C243 C 0.92231 0.67584 0.02148 0.0
O244 O 0.89564 0.67336 0.0252 0.0
C245 C 0.78504 0.52564 0.94337 0.0
C246 C 0.7921 0.50732 0.90951 0.0
C247 C 0.77041 0.50231 0.92677 0.0
N248 N 0.81401 0.54333 0.93629 0.0
N249 N 0.81808 0.53228 0.91604 0.0
C250 C 0.77156 0.53219 0.96489 0.0
H251 H 0.7857 0.55612 0.97063 0.0
H252 H 0.77059 0.5176 0.98006 0.0
H253 H 0.74812 0.52723 0.96093 0.0
C254 C 0.88312 0.58104 0.0136 0.0
N255 N 0.87688 0.5924 0.99392 0.0
N256 N 0.8576 0.56975 0.98032 0.0
C257 C 0.8516 0.54329 0.99054 0.0
C258 C 0.86729 0.54952 0.01211 0.0
C259 C 0.90341 0.60012 0.03355 0.0
H260 H 0.89657 0.61672 0.03928 0.0
H261 H 0.90219 0.58621 0.04931 0.0
H262 H 0.92718 0.61298 0.02697 0.0
O263 O 0.91327 0.63791 0.95052 0.0
O264 O 0.87961 0.59867 0.92894 0.0
H265 H 0.84132 0.4969 0.9854 0.0
H266 H 0.80968 0.50318 0.98214 0.0
C267 C 0.83426 0.51293 0.97854 0.0
H268 H 0.83805 0.51538 0.95887 0.0
H269 H 0.83857 0.54187 0.90662 0.0
O270 O 0.92553 0.66096 0.00452 0.0
C271 C 0.90542 0.62259 0.93109 0.0
Co272 Co 0.25468 0.89127 0.1552 0.0
Co273 Co 0.2605 0.84304 0.12443 0.0
C274 C 0.20034 0.83124 0.14223 0.0
O275 O 0.21211 0.85718 0.15231 0.0
O276 O 0.21668 0.8227 0.13114 0.0
C277 C 0.24145 0.91398 0.19815 0.0
O278 O 0.22671 0.88539 0.20495 0.0
C279 C 0.25648 0.78547 0.11081 0.0
C280 C 0.29302 0.80058 0.08371 0.0
C281 C 0.27095 0.77511 0.09559 0.0
N282 N 0.26943 0.81567 0.10803 0.0
N283 N 0.29107 0.82454 0.09166 0.0
C284 C 0.2325 0.76762 0.12909 0.0
H285 H 0.23399 0.78249 0.14425 0.0
H286 H 0.23481 0.74836 0.13595 0.0
H287 H 0.20982 0.75837 0.12062 0.0
C288 C 0.30175 0.88683 0.18409 0.0
N289 N 0.2817 0.87804 0.1658 0.0
N290 N 0.28367 0.85729 0.15303 0.0
C291 C 0.30459 0.85181 0.16303 0.0
C292 C 0.31665 0.87027 0.18302 0.0
C293 C 0.30677 0.91083 0.20204 0.0
H294 H 0.30835 0.93086 0.1927 0.0
H295 H 0.28714 0.9017 0.2145 0.0
H296 H 0.32762 0.91797 0.21279 0.0
O297 O 0.26831 0.91214 0.12375 0.0
O298 O 0.27059 0.8768 0.1019 0.0
H299 H 0.32247 0.83827 0.13381 0.0
H300 H 0.33347 0.83155 0.16287 0.0
C301 C 0.31466 0.83116 0.1525 0.0
H302 H 0.29518 0.80761 0.15211 0.0
H303 H 0.30484 0.84704 0.08622 0.0
O304 O 0.25475 0.92096 0.1779 0.0
C305 C 0.27311 0.90289 0.10387 0.0
Co306 Co 0.36634 0.25483 0.31511 0.0
Co307 Co 0.41781 0.25796 0.28242 0.0
C308 C 0.36867 0.19892 0.30239 0.0
O309 O 0.3561 0.21174 0.31336 0.0
O310 O 0.39254 0.21422 0.28982 0.0
C311 C 0.32808 0.24241 0.35741 0.0
O312 O 0.33273 0.21967 0.36183 0.0
C313 C 0.46932 0.25112 0.26709 0.0
C314 C 0.49101 0.28774 0.24008 0.0
C315 C 0.49395 0.2652 0.25161 0.0
N316 N 0.45269 0.26482 0.26481 0.0
N317 N 0.46551 0.28638 0.24839 0.0
C318 C 0.46335 0.22741 0.2856 0.0
H319 H 0.44922 0.22837 0.30039 0.0
H320 H 0.485 0.23053 0.29301 0.0
H321 H 0.45088 0.20464 0.27711 0.0
C322 C 0.42003 0.30087 0.34228 0.0
N323 N 0.40746 0.28078 0.32417 0.0
N324 N 0.42919 0.28164 0.31076 0.0
C325 C 0.45633 0.30209 0.32005 0.0
C326 C 0.45142 0.315 0.3403 0.0
C327 C 0.40225 0.30825 0.35975 0.0
H328 H 0.38478 0.31103 0.34999 0.0
H329 H 0.39048 0.28915 0.37259 0.0
H330 H 0.41698 0.32941 0.36988 0.0
O331 O 0.35784 0.26753 0.28368 0.0
O332 O 0.39523 0.27065 0.26106 0.0
H333 H 0.48957 0.31934 0.29203 0.0
H334 H 0.50551 0.32373 0.32181 0.0
C335 C 0.48631 0.30862 0.30996 0.0
H336 H 0.48643 0.28705 0.30778 0.0
H337 H 0.45734 0.30077 0.24339 0.0
O338 O 0.33974 0.25872 0.33884 0.0
C339 C 0.37178 0.27326 0.26367 0.0
Co340 Co 0.1136 0.36444 0.49059 0.0
Co341 Co 0.15898 0.41493 0.45571 0.0
C342 C 0.16912 0.36477 0.47414 0.0
O343 O 0.14513 0.35253 0.48696 0.0
O344 O 0.17633 0.38844 0.46168 0.0
C345 C 0.08209 0.31764 0.52757 0.0
O346 O 0.10242 0.30921 0.52445 0.0
C347 C 0.21736 0.46638 0.44169 0.0
C348 C 0.20496 0.48428 0.41014 0.0
C349 C 0.22928 0.48929 0.42455 0.0
N350 N 0.18749 0.44878 0.43754 0.0
N351 N 0.18023 0.45938 0.41853 0.0
C352 C 0.23316 0.46245 0.4629 0.0
H353 H 0.21647 0.44887 0.47707 0.0
H354 H 0.25029 0.48487 0.47026 0.0
H355 H 0.24495 0.45009 0.4572 0.0
C356 C 0.12574 0.41925 0.51866 0.0
N357 N 0.13073 0.40602 0.49957 0.0
N358 N 0.1494 0.42731 0.48469 0.0
C359 C 0.15658 0.45474 0.49364 0.0
C360 C 0.14197 0.45055 0.51553 0.0
C361 C 0.10577 0.40215 0.53942 0.0
H362 H 0.11106 0.38452 0.54546 0.0
H363 H 0.10882 0.41743 0.5547 0.0
H364 H 0.0817 0.39057 0.53353 0.0
O365 O 0.09046 0.35583 0.45982 0.0
O366 O 0.12244 0.39318 0.43593 0.0
H367 H 0.16785 0.48076 0.46109 0.0
H368 H 0.1705 0.50211 0.4877 0.0
C369 C 0.17439 0.48408 0.4803 0.0
H370 H 0.19894 0.49171 0.48164 0.0
H371 H 0.15829 0.44996 0.41159 0.0
O372 O 0.08358 0.33935 0.51521 0.0
C373 C 0.09683 0.36959 0.43968 0.0
Co374 Co 0.73401 0.10964 0.6495 0.0
Co375 Co 0.73395 0.15601 0.61252 0.0
C376 C 0.79177 0.16436 0.6333 0.0
O377 O 0.77818 0.14 0.64563 0.0
O378 O 0.77709 0.17314 0.62023 0.0
C379 C 0.7474 0.07382 0.68296 0.0
O380 O 0.77299 0.08366 0.67111 0.0
C381 C 0.7437 0.21366 0.59285 0.0
C382 C 0.71021 0.19791 0.56331 0.0
C383 C 0.73193 0.22387 0.57494 0.0
N384 N 0.72946 0.1832 0.59182 0.0
N385 N 0.70982 0.17394 0.57389 0.0
C386 C 0.76584 0.23195 0.61218 0.0
H387 H 0.76422 0.21719 0.62745 0.0
H388 H 0.76153 0.2501 0.61869 0.0
H389 H 0.78923 0.24277 0.60481 0.0
C390 C 0.69104 0.12412 0.67408 0.0
N391 N 0.71036 0.12835 0.65599 0.0
N392 N 0.7105 0.14821 0.64078 0.0
C393 C 0.69161 0.15768 0.64889 0.0
C394 C 0.67863 0.14272 0.67033 0.0
C395 C 0.68247 0.1004 0.69313 0.0
H396 H 0.67739 0.07862 0.68466 0.0
H397 H 0.70193 0.10741 0.70555 0.0
H398 H 0.66224 0.09663 0.70348 0.0
O399 O 0.71913 0.08449 0.62 0.0
O400 O 0.72047 0.11828 0.59402 0.0
H401 H 0.67729 0.17312 0.61848 0.0
H402 H 0.67177 0.18693 0.64697 0.0
C403 C 0.68689 0.18124 0.63665 0.0
H404 H 0.70904 0.20231 0.63457 0.0
H405 H 0.69555 0.15119 0.56933 0.0
O406 O 0.72881 0.08229 0.67656 0.0
C407 C 0.7154 0.09167 0.59887 0.0
H408 H 0.29957 0.14486 0.8425 0.0
H409 H 0.27019 0.17039 0.84916 0.0
H410 H 0.34913 0.24698 0.88014 0.0
H411 H 0.37859 0.22188 0.87346 0.0
H412 H 0.2581 0.18355 0.89261 0.0
H413 H 0.34708 0.31089 0.8732 0.0
H414 H 0.38633 0.34054 0.84296 0.0
H415 H 0.34052 0.26865 0.79163 0.0
H416 H 0.30074 0.23873 0.82143 0.0
H417 H 0.25921 0.2872 0.97412 0.0
H418 H 0.26962 0.25669 0.94617 0.0
H419 H 0.23536 0.28649 0.88759 0.0
H420 H 0.22481 0.31735 0.91562 0.0
H421 H 0.29074 0.29183 0.87747 0.0
H422 H 0.19454 0.21469 0.90436 0.0
H423 H 0.15408 0.18445 0.93359 0.0
H424 H 0.21077 0.15441 0.96667 0.0
H425 H 0.25176 0.18481 0.93788 0.0
C426 C 0.31086 0.16744 0.85023 0.0
C427 C 0.34136 0.18122 0.85768 0.0
C428 C 0.29401 0.18196 0.85404 0.0
C429 C 0.30749 0.21062 0.86503 0.0
C430 C 0.33835 0.22507 0.87128 0.0
C431 C 0.35514 0.21056 0.86761 0.0
C432 C 0.28883 0.22393 0.87294 0.0
C433 C 0.2649 0.20708 0.88899 0.0
C434 C 0.29725 0.2544 0.86776 0.0
C435 C 0.32094 0.2725 0.84963 0.0
C436 C 0.34523 0.30147 0.85542 0.0
C437 C 0.36762 0.31832 0.83836 0.0
C438 C 0.36595 0.30647 0.8154 0.0
C439 C 0.34184 0.27777 0.80944 0.0
C440 C 0.31939 0.26084 0.82643 0.0
C441 C 0.25361 0.28711 0.95534 0.0
C442 C 0.2412 0.3047 0.94707 0.0
C443 C 0.25941 0.2695 0.9394 0.0
C444 C 0.25295 0.26909 0.91487 0.0
C445 C 0.24032 0.2864 0.9065 0.0
C446 C 0.23426 0.30392 0.92253 0.0
C447 C 0.26132 0.2519 0.89809 0.0
C448 C 0.28335 0.26805 0.88048 0.0
C449 C 0.25095 0.22067 0.90162 0.0
C450 C 0.22629 0.20213 0.91895 0.0
C451 C 0.19846 0.20178 0.91795 0.0
C452 C 0.17541 0.18459 0.93444 0.0
C453 C 0.17985 0.16753 0.95198 0.0
C454 C 0.20735 0.1676 0.95305 0.0
C455 C 0.23048 0.18477 0.93662 0.0
H456 H 0.16198 0.15425 0.96474 0.0
H457 H 0.38331 0.31954 0.80223 0.0
H458 H 0.15064 0.30066 0.00708 0.0
H459 H 0.09614 0.27139 0.01555 0.0
H460 H 0.10006 0.35093 0.04679 0.0
H461 H 0.15423 0.38026 0.0384 0.0
H462 H 0.07362 0.26052 0.06013 0.0
H463 H 0.03335 0.34827 0.04201 0.0
H464 H 0.04088 0.38647 0.0114 0.0
H465 H 0.06448 0.3395 0.95926 0.0
H466 H 0.05665 0.30074 0.98943 0.0
H467 H 0.97526 0.26419 0.145 0.0
H468 H 0.01481 0.27408 0.11569 0.0
H469 H 0.94743 0.23561 0.05964 0.0
H470 H 0.90743 0.22543 0.08903 0.0
H471 H 0.99664 0.29199 0.04767 0.0
H472 H 0.97989 0.19682 0.0752 0.0
H473 H 0.97158 0.15731 0.1048 0.0
H474 H 0.05987 0.21555 0.13492 0.0
H475 H 0.06856 0.25561 0.10574 0.0
C476 C 0.13976 0.31211 0.01524 0.0
C477 C 0.15687 0.34276 0.02228 0.0
C478 C 0.10862 0.29532 0.02008 0.0
C479 C 0.09403 0.309 0.03171 0.0
C480 C 0.11073 0.34 0.03748 0.0
C481 C 0.14182 0.35672 0.03281 0.0
C482 C 0.06257 0.29045 0.04079 0.0
C483 C 0.05659 0.26706 0.05711 0.0
C484 C 0.04011 0.29853 0.0364 0.0
C485 C 0.04451 0.32162 0.01806 0.0
C486 C 0.03993 0.34594 0.02398 0.0
C487 C 0.04431 0.36774 0.00671 0.0
C488 C 0.0532 0.36544 0.98341 0.0
C489 C 0.05768 0.3413 0.97733 0.0
C490 C 0.05331 0.31943 0.99452 0.0
C491 C 0.96876 0.25755 0.12649 0.0
C492 C 0.93825 0.24404 0.11931 0.0
C493 C 0.99137 0.26308 0.10979 0.0
C494 C 0.98397 0.25532 0.08557 0.0
C495 C 0.95351 0.2416 0.0783 0.0
C496 C 0.93075 0.23573 0.09511 0.0
C497 C 0.00861 0.26341 0.06792 0.0
C498 C 0.01332 0.28487 0.05011 0.0
C499 C 0.0298 0.25335 0.07073 0.0
C500 C 0.02482 0.22928 0.08829 0.0
C501 C 0.99747 0.20129 0.08823 0.0
C502 C 0.9927 0.17878 0.10492 0.0
C503 C 0.01517 0.18392 0.12174 0.0
C504 C 0.04249 0.21159 0.12187 0.0
C505 C 0.04737 0.23419 0.10522 0.0
H506 H 0.01143 0.16647 0.13465 0.0
H507 H 0.05659 0.38236 0.97008 0.0
H508 H 0.77405 0.16423 0.20686 0.0
H509 H 0.74696 0.10973 0.21484 0.0
H510 H 0.82024 0.10221 0.18296 0.0
H511 H 0.84767 0.1568 0.17493 0.0
H512 H 0.72679 0.05383 0.19137 0.0
H513 H 0.8376 0.06325 0.22443 0.0
H514 H 0.88916 0.10247 0.23691 0.0
H515 H 0.85433 0.15914 0.26172 0.0
H516 H 0.80258 0.12008 0.24973 0.0
H517 H 0.68354 0.91203 0.25067 0.0
H518 H 0.71236 0.95524 0.22358 0.0
H519 H 0.73572 0.01686 0.28345 0.0
H520 H 0.70747 0.97419 0.31048 0.0
H521 H 0.78367 0.03348 0.25417 0.0
H522 H 0.6762 0.00151 0.24737 0.0
H523 H 0.62272 0.96421 0.23829 0.0
H524 H 0.64737 0.95567 0.16612 0.0
H525 H 0.7011 0.99261 0.17492 0.0
C526 C 0.78411 0.15091 0.20099 0.0
C527 C 0.81333 0.16496 0.19078 0.0
C528 C 0.76846 0.1197 0.20538 0.0
C529 C 0.78183 0.10212 0.19978 0.0
C530 C 0.80969 0.11552 0.18754 0.0
C531 C 0.82533 0.14674 0.18304 0.0
C532 C 0.76915 0.07152 0.21044 0.0
C533 C 0.73935 0.04909 0.20477 0.0
C534 C 0.78547 0.06559 0.22816 0.0
C535 C 0.81637 0.08895 0.23588 0.0
C536 C 0.84099 0.08406 0.23261 0.0
C537 C 0.87022 0.10624 0.2396 0.0
C538 C 0.87504 0.13333 0.25 0.0
C539 C 0.8506 0.13821 0.25357 0.0
C540 C 0.82133 0.11607 0.24668 0.0
C541 C 0.69515 0.93479 0.25806 0.0
C542 C 0.69309 0.93974 0.28268 0.0
C543 C 0.71151 0.95939 0.24257 0.0
C544 C 0.72598 0.9892 0.25152 0.0
C545 C 0.7248 0.99402 0.27619 0.0
C546 C 0.70849 0.96958 0.29161 0.0
C547 C 0.74109 0.01582 0.23539 0.0
C548 C 0.77141 0.03765 0.24012 0.0
C549 C 0.72498 0.02136 0.21722 0.0
C550 C 0.69267 -0.00049 0.21187 0.0
C551 C 0.67023 0.99151 0.22961 0.0
C552 C 0.63988 0.97047 0.22452 0.0
C553 C 0.63166 0.95752 0.20166 0.0
C554 C 0.65377 0.96567 0.18383 0.0
C555 C 0.68417 0.98666 0.18886 0.0
H556 H 0.60816 0.94122 0.19774 0.0
H557 H 0.89769 0.1505 0.25536 0.0
H558 H 0.74556 0.65931 0.42006 0.0
H559 H 0.73057 0.68763 0.39309 0.0
H560 H 0.73039 0.74149 0.45297 0.0
H561 H 0.74429 0.71267 0.47999 0.0
H562 H 0.68007 0.72056 0.43003 0.0
H563 H 0.78523 0.77052 0.4073 0.0
H564 H 0.83265 0.77385 0.39282 0.0
H565 H 0.78923 0.73203 0.32625 0.0
H566 H 0.74141 0.72809 0.34048 0.0
H567 H 0.69764 0.84937 0.35288 0.0
H568 H 0.72127 0.81967 0.36481 0.0
H569 H 0.63434 0.73733 0.36002 0.0
H570 H 0.61041 0.76704 0.34909 0.0
H571 H 0.72846 0.77156 0.35329 0.0
H572 H 0.62224 0.69831 0.41056 0.0
H573 H 0.57798 0.70031 0.42659 0.0
H574 H 0.63033 0.79775 0.42854 0.0
H575 H 0.67498 0.79628 0.41287 0.0
C576 C 0.74278 0.67754 0.42735 0.0
C577 C 0.74586 0.68368 0.45212 0.0
C578 C 0.7343 0.69375 0.41192 0.0
C579 C 0.72933 0.71669 0.421 0.0
C580 C 0.73384 0.72372 0.44558 0.0
C581 C 0.74184 0.70728 0.461 0.0
C582 C 0.71711 0.73185 0.40552 0.0
C583 C 0.69071 0.73162 0.41324 0.0
C584 C 0.73095 0.74641 0.38363 0.0
C585 C 0.75965 0.74871 0.37506 0.0
C586 C 0.78572 0.76179 0.38966 0.0
C587 C 0.81269 0.76384 0.38148 0.0
C588 C 0.81393 0.75308 0.35866 0.0
C589 C 0.78822 0.74031 0.34394 0.0
C590 C 0.76119 0.73819 0.35205 0.0
C591 C 0.68377 0.82485 0.3536 0.0
C592 C 0.65212 0.8105 0.35064 0.0
C593 C 0.69732 0.80789 0.36035 0.0
C594 C 0.67939 0.77642 0.36391 0.0
C595 C 0.64845 0.76169 0.35786 0.0
C596 C 0.6348 0.77866 0.35164 0.0
C597 C 0.69163 0.76017 0.37794 0.0
C598 C 0.71783 0.76017 0.36998 0.0
C599 C 0.67818 0.74606 0.40004 0.0
C600 C 0.65182 0.74715 0.41034 0.0
C601 C 0.62433 0.72013 0.41457 0.0
C602 C 0.59919 0.72118 0.42357 0.0
C603 C 0.60134 0.74913 0.42855 0.0
C604 C 0.62869 0.77611 0.42467 0.0
C605 C 0.65391 0.77518 0.41573 0.0
H606 H 0.5818 0.7499 0.4354 0.0
H607 H 0.83483 0.75469 0.35236 0.0
H608 H 0.02866 0.70441 0.62889 0.0
H609 H 0.98794 0.68699 0.59957 0.0
H610 H 0.03578 0.77292 0.56255 0.0
H611 H 0.07696 0.79087 0.59221 0.0
H612 H 0.97495 0.7536 0.57029 0.0
H613 H 0.03253 0.71189 0.53678 0.0
H614 H 0.06163 0.685 0.53849 0.0
H615 H 0.98206 0.60394 0.56238 0.0
H616 H 0.9526 0.63041 0.56122 0.0
H617 H 0.83938 0.67929 0.50225 0.0
H618 H 0.89458 0.70574 0.50756 0.0
H619 H 0.88548 0.63323 0.5535 0.0
H620 H 0.83086 0.60637 0.54769 0.0
H621 H 0.93579 0.65448 0.52892 0.0
H622 H 0.88551 0.69853 0.57545 0.0
H623 H 0.855 0.72373 0.57969 0.0
H624 H 0.91904 0.79794 0.53602 0.0
H625 H 0.94975 0.77296 0.53133 0.0
C626 C 0.03068 0.7197 0.61454 0.0
C627 C 0.05608 0.74906 0.61289 0.0
C628 C 0.00745 0.70958 0.59765 0.0
C629 C 0.00915 0.72845 0.57863 0.0
C630 C 0.03426 0.75793 0.57699 0.0
C631 C 0.05768 0.76812 0.59394 0.0
C632 C 0.98364 0.71742 0.56141 0.0
C633 C 0.96683 0.7324 0.5606 0.0
C634 C 0.97294 0.68956 0.54908 0.0
C635 C 0.99035 0.6732 0.54893 0.0
C636 C 0.02124 0.68834 0.54244 0.0
C637 C 0.03781 0.67318 0.54334 0.0
C638 C 0.02369 0.64281 0.55058 0.0
C639 C 0.99295 0.62747 0.55677 0.0
C640 C 0.97629 0.64252 0.55594 0.0
C641 C 0.84923 0.6687 0.51306 0.0
C642 C 0.83064 0.64098 0.52491 0.0
C643 C 0.88077 0.68388 0.51612 0.0
C644 C 0.8941 0.67178 0.53134 0.0
C645 C 0.87575 0.6431 0.54172 0.0
C646 C 0.84439 0.62781 0.53848 0.0
C647 C 0.92634 0.68987 0.53886 0.0
C648 C 0.94449 0.67627 0.53779 0.0
C649 C 0.93802 0.7187 0.5499 0.0
C650 C 0.91966 0.73373 0.55278 0.0
C651 C 0.89295 0.72014 0.56664 0.0
C652 C 0.87565 0.73438 0.56914 0.0
C653 C 0.88502 0.76237 0.55806 0.0
C654 C 0.91177 0.77622 0.54453 0.0
C655 C 0.92912 0.76203 0.54194 0.0
H656 H 0.87159 0.77336 0.56001 0.0
H657 H 0.03655 0.63115 0.55146 0.0
H658 H 0.14116 0.845 0.67623 0.0
H659 H 0.16561 0.89937 0.68542 0.0
H660 H 0.24639 0.89867 0.70813 0.0
H661 H 0.22223 0.8446 0.69911 0.0
H662 H 0.18275 0.92139 0.73049 0.0
H663 H 0.30802 0.96699 0.69909 0.0
H664 H 0.33481 0.96124 0.66435 0.0
H665 H 0.25643 0.93505 0.62005 0.0
H666 H 0.22931 0.94108 0.6544 0.0
H667 H 0.29277 0.02307 0.80887 0.0
H668 H 0.26144 0.98278 0.78069 0.0
H669 H 0.28017 0.04938 0.72542 0.0
H670 H 0.31184 0.09016 0.75366 0.0
H671 H 0.28746 0.00189 0.7097 0.0
H672 H 0.21105 0.01399 0.74818 0.0
H673 H 0.18363 0.02032 0.78218 0.0
H674 H 0.16222 0.9329 0.80968 0.0
H675 H 0.1899 0.9262 0.77605 0.0
C676 C 0.16439 0.85662 0.68264 0.0
C677 C 0.17969 0.84049 0.68718 0.0
C678 C 0.17828 0.88764 0.68791 0.0
C679 C 0.20783 0.90305 0.69735 0.0
C680 C 0.22372 0.88733 0.70055 0.0
C681 C 0.20978 0.85635 0.69555 0.0
C682 C 0.22087 0.93431 0.70688 0.0
C683 C 0.20545 0.93919 0.72569 0.0
C684 C 0.25021 0.95771 0.70024 0.0
C685 C 0.26657 0.95438 0.6794 0.0
C686 C 0.29655 0.96021 0.68191 0.0
C687 C 0.31179 0.95685 0.66228 0.0
C688 C 0.29732 0.94774 0.64002 0.0
C689 C 0.26759 0.94202 0.63732 0.0
C690 C 0.25226 0.94537 0.65688 0.0
C691 C 0.29015 0.02926 0.79077 0.0
C692 C 0.30477 0.05982 0.7835 0.0
C693 C 0.27208 0.00619 0.77472 0.0
C694 C 0.26821 0.01315 0.75107 0.0
C695 C 0.28277 0.04361 0.74365 0.0
C696 C 0.30077 0.06682 0.75982 0.0
C697 C 0.24994 0.98816 0.73409 0.0
C698 C 0.26442 0.98443 0.714 0.0
C699 C 0.21959 0.96589 0.73939 0.0
C700 C 0.20265 0.96965 0.75959 0.0
C701 C 0.20065 0.99618 0.76154 0.0
C702 C 0.18503 -0.00017 0.78075 0.0
C703 C 0.1712 0.97704 0.79808 0.0
C704 C 0.17292 0.95052 0.79623 0.0
C705 C 0.18852 0.94677 0.77707 0.0
H706 H 0.15914 0.97991 0.81294 0.0
H707 H 0.30915 0.94514 0.62485 0.0
H708 H 0.85616 0.6921 0.96881 0.0
H709 H 0.82691 0.71617 0.95684 0.0
H710 H 0.74643 0.62786 0.95035 0.0
H711 H 0.77594 0.60375 0.96118 0.0
H712 H 0.75463 0.65706 0.91127 0.0
H713 H 0.75559 0.68293 0.99412 0.0
H714 H 0.77835 0.70423 0.03355 0.0
H715 H 0.83073 0.79279 0.00203 0.0
H716 H 0.8086 0.77195 0.96233 0.0
H717 H 0.6523 0.7042 0.8807 0.0
H718 H 0.67833 0.68644 0.90714 0.0
H719 H 0.76193 0.77133 0.89803 0.0
H720 H 0.73593 0.78957 0.87149 0.0
H721 H 0.75199 0.74553 0.94617 0.0
H722 H 0.75254 0.71781 0.86313 0.0
H723 H 0.7285 0.69614 0.82411 0.0
H724 H 0.67181 0.60956 0.85753 0.0
H725 H 0.69522 0.63088 0.89683 0.0
C726 C 0.83207 0.6779 0.96538 0.0
C727 C 0.81834 0.64608 0.96565 0.0
C728 C 0.81531 0.69168 0.95865 0.0
C729 C 0.78442 0.67385 0.95268 0.0
C730 C 0.77028 0.6421 0.95469 0.0
C731 C 0.78712 0.62833 0.96091 0.0
C732 C 0.76779 0.68775 0.94144 0.0
C733 C 0.75363 0.67601 0.91925 0.0
C734 C 0.7673 0.71319 0.95133 0.0
C735 C 0.78063 0.7258 0.97519 0.0
C736 C 0.77215 0.7069 0.99555 0.0
C737 C 0.7849 0.71891 0.01796 0.0
C738 C 0.80603 0.74983 0.02028 0.0
C739 C 0.81439 0.76883 0.0002 0.0
C740 C 0.80172 0.75694 0.97774 0.0
C741 C 0.67612 0.71934 0.88453 0.0
C742 C 0.6922 0.74811 0.87364 0.0
C743 C 0.69091 0.70917 0.89974 0.0
C744 C 0.72207 0.72746 0.90425 0.0
C745 C 0.73784 0.75694 0.89472 0.0
C746 C 0.72299 0.76722 0.87947 0.0
C747 C 0.7386 0.71431 0.9165 0.0
C748 C 0.75291 0.72636 0.93855 0.0
C749 C 0.73918 0.68899 0.90665 0.0
C750 C 0.72543 0.67602 0.88295 0.0
C751 C 0.73481 0.69421 0.86218 0.0
C752 C 0.72131 0.68199 0.84001 0.0
C753 C 0.69859 0.65151 0.83835 0.0
C754 C 0.68939 0.63317 0.85885 0.0
C755 C 0.70278 0.64531 0.88107 0.0
H756 H 0.68816 0.64209 0.82117 0.0
H757 H 0.81587 0.75908 0.03765 0.0
H758 H 0.16771 0.77526 0.12166 0.0
H759 H 0.11467 0.75041 0.1094 0.0
H760 H 0.10373 0.81924 0.14563 0.0
H761 H 0.15719 0.84477 0.15789 0.0
H762 H 0.04902 0.74479 0.1424 0.0
H763 H 0.11308 0.84118 0.0997 0.0
H764 H 0.16205 0.87783 0.08119 0.0
H765 H 0.15544 0.80853 0.03333 0.0
H766 H 0.10664 0.77137 0.05187 0.0
H767 H 0.92348 0.70788 0.06164 0.0
H768 H 0.96657 0.73684 0.08877 0.0
H769 H 0.02208 0.71341 0.04524 0.0
H770 H 0.97965 0.68494 0.01812 0.0
H771 H 0.05192 0.77241 0.05648 0.0
H772 H 0.9904 0.67652 0.09754 0.0
H773 H 0.94356 0.63644 0.11653 0.0
H774 H 0.94581 0.70108 0.16736 0.0
H775 H 0.99248 0.74166 0.14843 0.0
C776 C 0.15394 0.78476 0.12766 0.0
C777 C 0.16689 0.8124 0.14031 0.0
C778 C 0.12355 0.77038 0.12075 0.0
C779 C 0.10555 0.78319 0.12651 0.0
C780 C 0.1174 0.80904 0.14115 0.0
C781 C 0.14797 0.82364 0.14801 0.0
C782 C 0.07687 0.77276 0.11334 0.0
C783 C 0.04932 0.75132 0.12381 0.0
C784 C 0.07764 0.78099 0.08901 0.0
C785 C 0.10638 0.8035 0.07727 0.0
C786 C 0.12218 0.83375 0.08532 0.0
C787 C 0.14988 0.85461 0.07482 0.0
C788 C 0.16189 0.8455 0.05613 0.0
C789 C 0.14613 0.81555 0.04782 0.0
C790 C 0.11843 0.7946 0.0583 0.0
C791 C 0.94493 0.70904 0.05783 0.0
C792 C 0.94815 0.69413 0.03771 0.0
C793 C 0.96945 0.72548 0.07339 0.0
C794 C 0.99746 0.72714 0.06905 0.0
C795 C 0.0007 0.71252 0.04887 0.0
C796 C 0.97635 0.69617 0.0334 0.0
C797 C 0.02371 0.74393 0.08532 0.0
C798 C 0.0511 0.76651 0.07531 0.0
C799 C 0.02264 0.73656 0.10999 0.0
C800 C 0.99467 0.71218 0.12138 0.0
C801 C 0.98075 0.68224 0.11263 0.0
C802 C 0.95427 0.65942 0.12341 0.0
C803 C 0.94166 0.66623 0.14308 0.0
C804 C 0.95556 0.69586 0.15207 0.0
C805 C 0.98203 0.71877 0.14134 0.0
H806 H 0.92116 0.64854 0.15141 0.0
H807 H 0.18338 0.86166 0.04806 0.0
H808 H 0.38955 0.16404 0.28191 0.0
H809 H 0.36111 0.10946 0.27502 0.0
H810 H 0.28577 0.1028 0.31568 0.0
H811 H 0.31393 0.15773 0.32238 0.0
H812 H 0.33275 0.05647 0.29959 0.0
H813 H 0.22143 0.05576 0.28386 0.0
H814 H 0.20286 0.09144 0.27565 0.0
H815 H 0.28639 0.15161 0.23948 0.0
H816 H 0.30524 0.11611 0.24723 0.0
H817 H 0.23363 0.91093 0.24701 0.0
H818 H 0.24694 0.95359 0.27447 0.0
H819 H 0.27217 0.01452 0.21394 0.0
H820 H 0.25904 0.97234 0.18659 0.0
H821 H 0.24218 0.02779 0.24871 0.0
H822 H 0.32451 0.00524 0.24157 0.0
H823 H 0.34611 0.97145 0.24529 0.0
H824 H 0.32627 0.96148 0.32083 0.0
H825 H 0.30404 0.99481 0.31743 0.0
C826 C 0.36715 0.15098 0.2898 0.0
C827 C 0.35376 0.16537 0.30225 0.0
C828 C 0.351 0.11968 0.28599 0.0
C829 C 0.32117 0.10217 0.29453 0.0
C830 C 0.30865 0.11601 0.3087 0.0
C831 C 0.32479 0.14741 0.31249 0.0
C832 C 0.30225 0.07066 0.28567 0.0
C833 C 0.31257 0.04993 0.2889 0.0
C834 C 0.27609 0.06223 0.2715 0.0
C835 C 0.26484 0.08351 0.26641 0.0
C836 C 0.23577 0.07659 0.27412 0.0
C837 C 0.2252 0.09676 0.26954 0.0
C838 C 0.24349 0.12383 0.25714 0.0
C839 C 0.2723 0.1307 0.24916 0.0
C840 C 0.28293 0.11057 0.25365 0.0
C841 C 0.24148 0.93334 0.2396 0.0
C842 C 0.24559 0.93841 0.2147 0.0
C843 C 0.24909 0.95764 0.25528 0.0
C844 C 0.26066 0.98717 0.2462 0.0
C845 C 0.26317 0.99187 0.22129 0.0
C846 C 0.25586 0.96778 0.2057 0.0
C847 C 0.27303 0.01389 0.26225 0.0
C848 C 0.26155 0.03378 0.26028 0.0
C849 C 0.29851 0.02179 0.27709 0.0
C850 C 0.31228 0.00217 0.2792 0.0
C851 C 0.32456 0.99566 0.25893 0.0
C852 C 0.33693 0.97661 0.26098 0.0
C853 C 0.33748 0.96426 0.28327 0.0
C854 C 0.32575 0.97101 0.30357 0.0
C855 C 0.31325 0.98995 0.30159 0.0
H856 H 0.34707 0.94952 0.28483 0.0
H857 H 0.23529 0.13944 0.25365 0.0
H858 H 0.15601 0.30822 0.49014 0.0
H859 H 0.18139 0.28006 0.47775 0.0
H860 H 0.2478 0.35842 0.43854 0.0
H861 H 0.22321 0.38679 0.45093 0.0
H862 H 0.20504 0.29741 0.41252 0.0
H863 H 0.27596 0.34632 0.47947 0.0
H864 H 0.288 0.35642 0.52256 0.0
H865 H 0.24955 0.26088 0.5357 0.0
H866 H 0.23688 0.2502 0.49269 0.0
H867 H 0.32231 0.29269 0.35641 0.0
H868 H 0.29223 0.30535 0.3828 0.0
H869 H 0.26325 0.2226 0.42276 0.0
H870 H 0.29402 0.20977 0.39636 0.0
H871 H 0.27721 0.27252 0.45237 0.0
H872 H 0.21412 0.22372 0.38522 0.0
H873 H 0.20113 0.2121 0.3424 0.0
H874 H 0.221 0.30362 0.33005 0.0
H875 H 0.23455 0.31595 0.37272 0.0
C876 C 0.17651 0.31972 0.47944 0.0
C877 C 0.18731 0.3496 0.47119 0.0
C878 C 0.19094 0.30359 0.47242 0.0
C879 C 0.21626 0.31723 0.45717 0.0
C880 C 0.22822 0.3476 0.45031 0.0
C881 C 0.21405 0.36373 0.45738 0.0
C882 C 0.22801 0.29919 0.44545 0.0
C883 C 0.22077 0.29186 0.4212 0.0
C884 C 0.24746 0.29095 0.45717 0.0
C885 C 0.25505 0.29743 0.48296 0.0
C886 C 0.26972 0.32744 0.49159 0.0
C887 C 0.27676 0.33328 0.51599 0.0
C888 C 0.26943 0.30929 0.53188 0.0
C889 C 0.25514 0.27943 0.52339 0.0
C890 C 0.24804 0.27348 0.49901 0.0
C891 C 0.30958 0.27706 0.37076 0.0
C892 C 0.31024 0.25 0.37409 0.0
C893 C 0.29237 0.28436 0.38585 0.0
C894 C 0.27509 0.26464 0.40444 0.0
C895 C 0.27632 0.238 0.40839 0.0
C896 C 0.29379 0.23069 0.39327 0.0
C897 C 0.25538 0.2721 0.41905 0.0
C898 C 0.2609 0.2773 0.4438 0.0
C899 C 0.23395 0.27812 0.40787 0.0
C900 C 0.22546 0.27077 0.38219 0.0
C901 C 0.21588 0.24142 0.37335 0.0
C902 C 0.2084 0.2347 0.3491 0.0
C903 C 0.21026 0.25711 0.33351 0.0
C904 C 0.21954 0.28628 0.34215 0.0
C905 C 0.22707 0.29313 0.36638 0.0
H906 H 0.20448 0.25187 0.31474 0.0
H907 H 0.27491 0.31386 0.55075 0.0
H908 H 0.83158 0.14449 0.6445 0.0
H909 H 0.88533 0.16895 0.63296 0.0
H910 H 0.88097 0.24636 0.60632 0.0
H911 H 0.82762 0.22225 0.61761 0.0
H912 H 0.8984 0.21896 0.57207 0.0
H913 H 0.92249 0.25307 0.65458 0.0
H914 H 0.92154 0.24594 0.69844 0.0
H915 H 0.96405 0.19175 0.68989 0.0
H916 H 0.96487 0.19821 0.64591 0.0
H917 H 0.0403 0.3334 0.54057 0.0
H918 H 0.99486 0.30433 0.56469 0.0
H919 H 0.01955 0.2357 0.57695 0.0
H920 H 0.06568 0.26495 0.55265 0.0
H921 H 0.99278 0.25051 0.61866 0.0
H922 H 0.97177 0.21869 0.5368 0.0
H923 H 0.97353 0.226 0.49293 0.0
H924 H 0.92459 0.27414 0.50015 0.0
H925 H 0.92294 0.26754 0.54415 0.0
C926 C 0.84234 0.16708 0.6368 0.0
C927 C 0.82527 0.18126 0.63161 0.0
C928 C 0.87302 0.18099 0.63021 0.0
C929 C 0.88695 0.20928 0.61855 0.0
C930 C 0.87052 0.22438 0.61509 0.0
C931 C 0.84002 0.21056 0.62157 0.0
C932 C 0.91724 0.22179 0.60729 0.0
C933 C 0.91903 0.22601 0.58231 0.0
C934 C 0.94394 0.22972 0.62052 0.0
C935 C 0.94338 0.2258 0.64693 0.0
C936 C 0.93134 0.23936 0.66202 0.0
C937 C 0.9309 0.23551 0.68691 0.0
C938 C 0.94263 0.21832 0.69694 0.0
C939 C 0.95491 0.20501 0.68209 0.0
C940 C 0.95539 0.20878 0.65719 0.0
C941 C 0.03639 0.31231 0.54855 0.0
C942 C 0.05639 0.30125 0.54438 0.0
C943 C 0.01042 0.29578 0.56241 0.0
C944 C 0.00377 0.26778 0.57232 0.0
C945 C 0.0244 0.25731 0.5694 0.0
C946 C 0.0506 0.27395 0.55544 0.0
C947 C 0.97381 0.24866 0.58369 0.0
C948 C 0.97204 0.24302 0.60848 0.0
C949 C 0.9469 0.2391 0.57032 0.0
C950 C 0.94743 0.24279 0.54381 0.0
C951 C 0.96156 0.23102 0.52906 0.0
C952 C 0.96252 0.23501 0.50417 0.0
C953 C 0.94923 0.25057 0.49377 0.0
C954 C 0.93488 0.2621 0.50825 0.0
C955 C 0.9339 0.25821 0.53317 0.0
H956 H 0.95002 0.25364 0.4745 0.0
H957 H 0.94228 0.21537 0.71621 0.0
H958 H 0.60511 0.83787 0.81435 0.0
H959 H 0.62889 0.89137 0.80277 0.0
H960 H 0.71362 0.89323 0.7903 0.0
H961 H 0.69032 0.84025 0.80337 0.0
H962 H 0.72469 0.94849 0.80217 0.0
H963 H 0.65857 0.87088 0.74581 0.0
H964 H 0.61009 0.82635 0.73347 0.0
H965 H 0.56416 0.87698 0.74408 0.0
H966 H 0.61231 0.92169 0.7568 0.0
H967 H 0.77821 0.04554 0.69863 0.0
H968 H 0.76128 0.00503 0.72863 0.0
H969 H 0.68092 0.01121 0.7418 0.0
H970 H 0.69741 0.05131 0.71183 0.0
H971 H 0.66722 0.95414 0.73222 0.0
H972 H 0.73659 0.03448 0.78391 0.0
H973 H 0.78585 0.07809 0.79589 0.0
H974 H 0.82702 0.02219 0.79256 0.0
H975 H 0.77808 0.97832 0.78023 0.0
C976 C 0.62913 0.85014 0.81006 0.0
C977 C 0.64589 0.83507 0.80945 0.0
C978 C 0.64265 0.88059 0.80332 0.0
C979 C 0.67271 0.89592 0.79482 0.0
C980 C 0.69032 0.88177 0.79658 0.0
C981 C 0.67702 0.85152 0.80405 0.0
C982 C 0.68414 0.92441 0.78082 0.0
C983 C 0.71224 0.94976 0.78682 0.0
C984 C 0.66775 0.92609 0.76085 0.0
C985 C 0.63898 0.89954 0.75243 0.0
C986 C 0.63811 0.87249 0.74553 0.0
C987 C 0.6107 0.84722 0.73848 0.0
C988 C 0.58406 0.84883 0.73799 0.0
C989 C 0.58481 0.87576 0.74446 0.0
C990 C 0.61215 0.90108 0.75158 0.0
C991 C 0.75713 0.03854 0.70814 0.0
C992 C 0.73902 0.05146 0.70266 0.0
C993 C 0.74758 0.0155 0.72538 0.0
C994 C 0.71988 0.00519 0.7375 0.0
C995 C 0.70234 0.01881 0.73263 0.0
C996 C 0.71182 0.04173 0.71545 0.0
C997 C 0.70776 0.97841 0.7536 0.0
C998 C 0.67955 0.95317 0.74779 0.0
C999 C 0.72426 0.97683 0.77348 0.0
C1000 C 0.75371 0.00317 0.78094 0.0
C1001 C 0.7562 0.03154 0.78554 0.0
C1002 C 0.78406 0.0563 0.79243 0.0
C1003 C 0.80957 0.05293 0.79493 0.0
C1004 C 0.80725 0.02477 0.7906 0.0
C1005 C 0.77944 -6e-05 0.78368 0.0
H1006 H 0.83111 0.07213 0.80027 0.0
H1007 H 0.56283 0.82921 0.73262 0.0
H1008 H 0.31347 0.75817 0.09151 0.0
H1009 H 0.30528 0.70696 0.08565 0.0
H1010 H 0.20827 0.6709 0.08619 0.0
H1011 H 0.21647 0.72214 0.09268 0.0
H1012 H 0.22076 0.63472 0.11039 0.0
H1013 H 0.24768 0.68049 0.03316 0.0
H1014 H 0.27803 0.71979 0.00313 0.0
H1015 H 0.35459 0.70816 0.01745 0.0
H1016 H 0.32483 0.66908 0.04782 0.0
H1017 H 0.24053 0.51638 0.0317 0.0
H1018 H 0.23493 0.56105 0.03568 0.0
H1019 H 0.2591 0.56778 0.11064 0.0
H1020 H 0.26294 0.52192 0.10707 0.0
H1021 H 0.27553 0.61583 0.04496 0.0
H1022 H 0.22855 0.60198 0.14258 0.0
H1023 H 0.19326 0.56088 0.16954 0.0
H1024 H 0.14726 0.50482 0.10861 0.0
H1025 H 0.18198 0.54572 0.08128 0.0
C1026 C 0.29041 0.73927 0.09044 0.0
C1027 C 0.2656 0.74398 0.09273 0.0
C1028 C 0.28574 0.71006 0.08699 0.0
C1029 C 0.25615 0.68513 0.0851 0.0
C1030 C 0.23129 0.68978 0.08764 0.0
C1031 C 0.23598 0.71901 0.09143 0.0
C1032 C 0.25133 0.6543 0.08041 0.0
C1033 C 0.23262 0.63053 0.09604 0.0
C1034 C 0.2661 0.6486 0.06124 0.0
C1035 C 0.28407 0.672 0.0429 0.0
C1036 C 0.27105 0.68645 0.03002 0.0
C1037 C 0.28814 0.70868 0.01292 0.0
C1038 C 0.31823 0.71651 0.00842 0.0
C1039 C 0.33128 0.70208 0.02097 0.0
C1040 C 0.3143 0.67987 0.03811 0.0
C1041 C 0.24343 0.52655 0.04926 0.0
C1042 C 0.25122 0.515 0.06927 0.0
C1043 C 0.24072 0.55246 0.05142 0.0
C1044 C 0.24613 0.56755 0.07353 0.0
C1045 C 0.25406 0.55613 0.09352 0.0
C1046 C 0.2565 0.53006 0.09141 0.0
C1047 C 0.24562 0.59641 0.07535 0.0
C1048 C 0.2634 0.61987 0.05919 0.0
C1049 C 0.22924 0.60151 0.09356 0.0
C1050 C 0.20807 0.57686 0.10989 0.0
C1051 C 0.21082 0.58094 0.13493 0.0
C1052 C 0.19093 0.55766 0.15028 0.0
C1053 C 0.16809 0.53023 0.14079 0.0
C1054 C 0.16504 0.52604 0.11594 0.0
C1055 C 0.18484 0.54925 0.10051 0.0
H1056 H 0.15273 0.51223 0.15271 0.0
H1057 H 0.33143 0.73372 0.99517 0.0
H1058 H 0.72001 0.21323 0.23525 0.0
H1059 H 0.6693 0.20743 0.23801 0.0
H1060 H 0.70963 0.3035 0.25191 0.0
H1061 H 0.76021 0.30925 0.24949 0.0
H1062 H 0.66395 0.27273 0.28118 0.0
H1063 H 0.68083 0.27151 0.19596 0.0
H1064 H 0.69245 0.25275 0.15888 0.0
H1065 H 0.61404 0.16476 0.17003 0.0
H1066 H 0.60221 0.1829 0.20739 0.0
H1067 H 0.55291 0.30915 0.24832 0.0
H1068 H 0.59757 0.30295 0.24716 0.0
H1069 H 0.53975 0.20556 0.24934 0.0
H1070 H 0.49474 0.21164 0.25049 0.0
H1071 H 0.58988 0.22947 0.21423 0.0
H1072 H 0.57085 0.23428 0.29798 0.0
H1073 H 0.55968 0.25561 0.33374 0.0
H1074 H 0.64322 0.33969 0.32399 0.0
H1075 H 0.65465 0.31904 0.2879 0.0
C1076 C 0.71801 0.23313 0.23856 0.0
C1077 C 0.74398 0.2618 0.24171 0.0
C1078 C 0.68905 0.22978 0.24024 0.0
C1079 C 0.68569 0.25511 0.24485 0.0
C1080 C 0.71167 0.28364 0.24835 0.0
C1081 C 0.74054 0.28692 0.24692 0.0
C1082 C 0.65523 0.25221 0.24606 0.0
C1083 C 0.64786 0.26341 0.26647 0.0
C1084 C 0.63388 0.23932 0.22713 0.0
C1085 C 0.64084 0.22846 0.2046 0.0
C1086 C 0.6662 0.24809 0.1906 0.0
C1087 C 0.67281 0.23758 0.16952 0.0
C1088 C 0.65405 0.20755 0.16215 0.0
C1089 C 0.62858 0.188 0.17579 0.0
C1090 C 0.62191 0.19838 0.19691 0.0
C1091 C 0.5497 0.28641 0.24841 0.0
C1092 C 0.52048 0.26087 0.24988 0.0
C1093 C 0.57518 0.28292 0.24783 0.0
C1094 C 0.57184 0.25383 0.24843 0.0
C1095 C 0.54266 0.22818 0.24902 0.0
C1096 C 0.51709 0.23169 0.24989 0.0
C1097 C 0.59915 0.25067 0.24904 0.0
C1098 C 0.60586 0.23833 0.22904 0.0
C1099 C 0.62008 0.26279 0.26822 0.0
C1100 C 0.6135 0.27516 0.29012 0.0
C1101 C 0.58674 0.25739 0.30335 0.0
C1102 C 0.58037 0.26936 0.32369 0.0
C1103 C 0.6007 0.29901 0.33111 0.0
C1104 C 0.62748 0.31673 0.31822 0.0
C1105 C 0.63393 0.30489 0.29783 0.0
H1106 H 0.59572 0.30823 0.34686 0.0
H1107 H 0.6592 0.19946 0.14582 0.0
H1108 H 0.49562 0.71487 0.3743 0.0
H1109 H 0.45259 0.66396 0.3802 0.0
H1110 H 0.42748 0.69417 0.44414 0.0
H1111 H 0.47197 0.74465 0.43937 0.0
H1112 H 0.41412 0.63761 0.45002 0.0
H1113 H 0.39771 0.69445 0.38808 0.0
H1114 H 0.40965 0.72378 0.35039 0.0
H1115 H 0.40172 0.6475 0.31102 0.0
H1116 H 0.39012 0.61785 0.34855 0.0
H1117 H 0.24537 0.54665 0.41135 0.0
H1118 H 0.29645 0.59061 0.40837 0.0
H1119 H 0.33456 0.53491 0.4294 0.0
H1120 H 0.2834 0.49076 0.43234 0.0
H1121 H 0.34312 0.60195 0.3808 0.0
H1122 H 0.39956 0.57989 0.46253 0.0
H1123 H 0.38497 0.554 0.50184 0.0
H1124 H 0.30739 0.56632 0.50446 0.0
H1125 H 0.32176 0.59266 0.46538 0.0
C1126 C 0.48191 0.7104 0.39027 0.0
C1127 C 0.48763 0.73369 0.40667 0.0
C1128 C 0.45691 0.68135 0.39337 0.0
C1129 C 0.43654 0.67538 0.41239 0.0
C1130 C 0.4429 0.69822 0.42934 0.0
C1131 C 0.46821 0.72711 0.4265 0.0
C1132 C 0.40716 0.64649 0.41341 0.0
C1133 C 0.3987 0.62965 0.43483 0.0
C1134 C 0.38677 0.6364 0.39373 0.0
C1135 C 0.39336 0.65406 0.37113 0.0
C1136 C 0.39868 0.684 0.37139 0.0
C1137 C 0.40537 0.70067 0.35007 0.0
C1138 C 0.40652 0.68754 0.32834 0.0
C1139 C 0.40087 0.65766 0.32787 0.0
C1140 C 0.39422 0.64091 0.34916 0.0
C1141 C 0.26464 0.54376 0.41532 0.0
C1142 C 0.26039 0.51545 0.42259 0.0
C1143 C 0.29379 0.56886 0.41358 0.0
C1144 C 0.31926 0.56609 0.41893 0.0
C1145 C 0.31516 0.53766 0.42566 0.0
C1146 C 0.28592 0.51251 0.4275 0.0
C1147 C 0.35 0.59315 0.41744 0.0
C1148 C 0.35873 0.60962 0.39588 0.0
C1149 C 0.37018 0.60333 0.43722 0.0
C1150 C 0.36155 0.58789 0.46089 0.0
C1151 C 0.37944 0.57714 0.47154 0.0
C1152 C 0.37121 0.56239 0.49378 0.0
C1153 C 0.3452 0.55841 0.50559 0.0
C1154 C 0.32745 0.5693 0.49525 0.0
C1155 C 0.33562 0.58411 0.47305 0.0
H1156 H 0.33885 0.54695 0.52279 0.0
H1157 H 0.41172 0.70049 0.31185 0.0
H1158 H 0.78062 0.50093 0.57947 0.0
H1159 H 0.78644 0.4559 0.58037 0.0
H1160 H 0.68901 0.39829 0.57656 0.0
H1161 H 0.68318 0.44317 0.57632 0.0
H1162 H 0.71077 0.37488 0.60654 0.0
H1163 H 0.73689 0.41633 0.52636 0.0
H1164 H 0.76554 0.45638 0.49638 0.0
H1165 H 0.84874 0.46223 0.51992 0.0
H1166 H 0.82061 0.42252 0.55031 0.0
H1167 H 0.68941 0.23839 0.56204 0.0
H1168 H 0.69448 0.28869 0.56107 0.0
H1169 H 0.78948 0.32945 0.5789 0.0
H1170 H 0.78484 0.27905 0.57909 0.0
H1171 H 0.77446 0.36325 0.54452 0.0
H1172 H 0.7453 0.31728 0.62294 0.0
H1173 H 0.71377 0.27259 0.64832 0.0
H1174 H 0.63343 0.27305 0.62522 0.0
H1175 H 0.66444 0.31737 0.59925 0.0
C1176 C 0.76052 0.47862 0.57877 0.0
C1177 C 0.73148 0.47541 0.57741 0.0
C1178 C 0.76384 0.45294 0.57931 0.0
C1179 C 0.73818 0.42371 0.57808 0.0
C1180 C 0.70914 0.42059 0.5775 0.0
C1181 C 0.70582 0.44621 0.57731 0.0
C1182 C 0.74132 0.39626 0.57673 0.0
C1183 C 0.72463 0.3724 0.59291 0.0
C1184 C 0.75982 0.3931 0.55922 0.0
C1185 C 0.7767 0.41671 0.54077 0.0
C1186 C 0.76132 0.42631 0.52524 0.0
C1187 C 0.77746 0.44893 0.50817 0.0
C1188 C 0.80895 0.4619 0.50629 0.0
C1189 C 0.82435 0.4522 0.52143 0.0
C1190 C 0.80833 0.42964 0.53857 0.0
C1191 C 0.71154 0.25806 0.56531 0.0
C1192 C 0.73651 0.25471 0.57145 0.0
C1193 C 0.71437 0.28675 0.56479 0.0
C1194 C 0.74219 0.3126 0.5704 0.0
C1195 C 0.76776 0.30965 0.57478 0.0
C1196 C 0.76494 0.28084 0.57526 0.0
C1197 C 0.74351 0.34202 0.57396 0.0
C1198 C 0.76103 0.36612 0.55832 0.0
C1199 C 0.72558 0.34536 0.59179 0.0
C1200 C 0.70718 0.32052 0.60902 0.0
C1201 C 0.72091 0.30789 0.6233 0.0
C1202 C 0.70313 0.28256 0.63772 0.0
C1203 C 0.67161 0.26987 0.63823 0.0
C1204 C 0.65785 0.28284 0.6247 0.0
C1205 C 0.67552 0.3081 0.61015 0.0
H1206 H 0.65786 0.24994 0.64906 0.0
H1207 H 0.8214 0.47942 0.49306 0.0
H1208 H 0.27064 0.75372 0.68995 0.0
H1209 H 0.32162 0.7606 0.68969 0.0
H1210 H 0.32622 0.77076 0.76676 0.0
H1211 H 0.27562 0.76533 0.76702 0.0
H1212 H 0.38038 0.80973 0.74589 0.0
H1213 H 0.30538 0.70277 0.74104 0.0
H1214 H 0.26142 0.65779 0.72333 0.0
H1215 H 0.30988 0.67306 0.65688 0.0
H1216 H 0.35401 0.7184 0.67411 0.0
H1217 H 0.47999 0.75845 0.7825 0.0
H1218 H 0.43801 0.76761 0.77468 0.0
H1219 H 0.44636 0.7571 0.69863 0.0
H1220 H 0.48884 0.74826 0.70643 0.0
H1221 H 0.38871 0.72299 0.71405 0.0
H1222 H 0.46648 0.82648 0.72098 0.0
H1223 H 0.51055 0.87066 0.73933 0.0
H1224 H 0.45764 0.86172 0.80212 0.0
H1225 H 0.41331 0.81723 0.78427 0.0
C1226 C 0.28283 0.75854 0.70675 0.0
C1227 C 0.26931 0.7596 0.72848 0.0
C1228 C 0.31186 0.762 0.7066 0.0
C1229 C 0.32759 0.76596 0.72822 0.0
C1230 C 0.3145 0.76784 0.74986 0.0
C1231 C 0.28554 0.76453 0.75 0.0
C1232 C 0.35674 0.76603 0.72856 0.0
C1233 C 0.38223 0.79073 0.73905 0.0
C1234 C 0.35925 0.74155 0.71907 0.0
C1235 C 0.33284 0.71415 0.70877 0.0
C1236 C 0.30657 0.69665 0.7226 0.0
C1237 C 0.28164 0.67108 0.71266 0.0
C1238 C 0.28282 0.66262 0.68897 0.0
C1239 C 0.30898 0.67967 0.67521 0.0
C1240 C 0.33396 0.7053 0.68505 0.0
C1241 C 0.47359 0.75915 0.76406 0.0
C1242 C 0.4882 0.75358 0.74498 0.0
C1243 C 0.44947 0.76418 0.75962 0.0
C1244 C 0.43943 0.76356 0.73604 0.0
C1245 C 0.45397 0.75795 0.71694 0.0
C1246 C 0.47816 0.75294 0.72139 0.0
C1247 C 0.41231 0.7665 0.73169 0.0
C1248 C 0.38711 0.74228 0.72051 0.0
C1249 C 0.4101 0.79139 0.74059 0.0
C1250 C 0.43661 0.81837 0.75133 0.0
C1251 C 0.46428 0.8338 0.73877 0.0
C1252 C 0.48932 0.85892 0.74907 0.0
C1253 C 0.48693 0.86894 0.7719 0.0
C1254 C 0.45946 0.85392 0.78444 0.0
C1255 C 0.43435 0.82878 0.77421 0.0
H1256 H 0.50635 0.88837 0.77986 0.0
H1257 H 0.2635 0.64282 0.68131 0.0
H1258 H 0.7342 0.47049 0.96513 0.0
H1259 H 0.68242 0.42778 0.9639 0.0
H1260 H 0.68369 0.43196 0.88648 0.0
H1261 H 0.73508 0.47588 0.88764 0.0
H1262 H 0.62951 0.4206 0.90371 0.0
H1263 H 0.69765 0.38157 0.91638 0.0
H1264 H 0.73823 0.37752 0.93731 0.0
H1265 H 0.68482 0.34975 0.00186 0.0
H1266 H 0.64407 0.35404 0.98138 0.0
H1267 H 0.5183 0.26974 0.87314 0.0
H1268 H 0.5634 0.31944 0.87875 0.0
H1269 H 0.5548 0.30702 0.9556 0.0
H1270 H 0.50947 0.25709 0.95003 0.0
H1271 H 0.61075 0.3243 0.94146 0.0
H1272 H 0.54026 0.35881 0.92731 0.0
H1273 H 0.4997 0.36233 0.90586 0.0
H1274 H 0.55701 0.398 0.84376 0.0
H1275 H 0.59778 0.39429 0.86471 0.0
C1276 C 0.72322 0.46309 0.94787 0.0
C1277 C 0.73857 0.47705 0.92649 0.0
C1278 C 0.69371 0.43828 0.94718 0.0
C1279 C 0.67928 0.42654 0.92509 0.0
C1280 C 0.69437 0.44071 0.90373 0.0
C1281 C 0.72379 0.46565 0.90442 0.0
C1282 C 0.64907 0.39863 0.92411 0.0
C1283 C 0.62541 0.39946 0.91179 0.0
C1284 C 0.64359 0.37126 0.93516 0.0
C1285 C 0.66797 0.36843 0.94742 0.0
C1286 C 0.69466 0.3748 0.93508 0.0
C1287 C 0.71767 0.37244 0.94686 0.0
C1288 C 0.71415 0.36347 0.97092 0.0
C1289 C 0.68754 0.35675 0.98323 0.0
C1290 C 0.66448 0.35912 0.97155 0.0
C1291 C 0.52536 0.27797 0.89124 0.0
C1292 C 0.50995 0.25985 0.91118 0.0
C1293 C 0.5513 0.30636 0.89443 0.0
C1294 C 0.56222 0.31716 0.91761 0.0
C1295 C 0.54667 0.29919 0.93756 0.0
C1296 C 0.52081 0.27074 0.93437 0.0
C1297 C 0.59112 0.34613 0.92091 0.0
C1298 C 0.61463 0.34549 0.93361 0.0
C1299 C 0.59641 0.3736 0.91016 0.0
C1300 C 0.572 0.37605 0.89754 0.0
C1301 C 0.54414 0.3672 0.90902 0.0
C1302 C 0.52112 0.36926 0.89696 0.0
C1303 C 0.52575 0.38032 0.87345 0.0
C1304 C 0.55345 0.38942 0.86197 0.0
C1305 C 0.57653 0.38738 0.87394 0.0
H1306 H 0.5079 0.38189 0.86413 0.0
H1307 H 0.73199 0.36166 0.98001 0.0
H1308 H 0.40343 0.30255 0.22345 0.0
H1309 H 0.38572 0.31939 0.18923 0.0
H1310 H 0.29731 0.2823 0.22217 0.0
H1311 H 0.31535 0.2665 0.25701 0.0
H1312 H 0.34585 0.29146 0.15705 0.0
H1313 H 0.26302 0.32143 0.20526 0.0
H1314 H 0.25727 0.34015 0.24469 0.0
H1315 H 0.3535 0.38297 0.25631 0.0
H1316 H 0.35986 0.36484 0.21683 0.0
H1317 H 0.25776 0.31094 0.06838 0.0
H1318 H 0.27465 0.29486 0.10368 0.0
H1319 H 0.31913 0.38677 0.13075 0.0
H1320 H 0.30092 0.40256 0.09611 0.0
H1321 H 0.2938 0.35141 0.16591 0.0
H1322 H 0.35844 0.35334 0.1026 0.0
H1323 H 0.37093 0.34093 0.06291 0.0
H1324 H 0.32358 0.2461 0.08106 0.0
H1325 H 0.31048 0.25792 0.12076 0.0
C1326 C 0.38023 0.29806 0.22346 0.0
C1327 C 0.36081 0.28331 0.24298 0.0
C1328 C 0.37011 0.30764 0.20384 0.0
C1329 C 0.34026 0.3024 0.20316 0.0
C1330 C 0.32064 0.28721 0.22248 0.0
C1331 C 0.33093 0.27807 0.24234 0.0
C1332 C 0.32975 0.31259 0.18208 0.0
C1333 C 0.33448 0.30458 0.15901 0.0
C1334 C 0.31539 0.33018 0.18454 0.0
C1335 C 0.31184 0.34148 0.2082 0.0
C1336 C 0.28295 0.33492 0.2162 0.0
C1337 C 0.27959 0.34542 0.23856 0.0
C1338 C 0.30499 0.36264 0.25303 0.0
C1339 C 0.33383 0.36952 0.24513 0.0
C1340 C 0.33732 0.35911 0.22277 0.0
C1341 C 0.27119 0.3277 0.08185 0.0
C1342 C 0.27815 0.35803 0.07945 0.0
C1343 C 0.28095 0.31852 0.10199 0.0
C1344 C 0.29864 0.33968 0.11975 0.0
C1345 C 0.30549 0.36998 0.11736 0.0
C1346 C 0.29517 0.37902 0.0975 0.0
C1347 C 0.30994 0.33032 0.14085 0.0
C1348 C 0.3052 0.33832 0.16394 0.0
C1349 C 0.32531 0.31368 0.13837 0.0
C1350 C 0.33324 0.3065 0.11455 0.0
C1351 C 0.35052 0.32983 0.09806 0.0
C1352 C 0.35773 0.3229 0.07557 0.0
C1353 C 0.34799 0.29274 0.06945 0.0
C1354 C 0.33108 0.26945 0.08582 0.0
C1355 C 0.32378 0.27625 0.10832 0.0
H1356 H 0.35359 0.28742 0.05203 0.0
H1357 H 0.30233 0.37072 0.27035 0.0
H1358 H 0.09303 0.40141 0.40197 0.0
H1359 H 0.05851 0.38199 0.36783 0.0
H1360 H 0.01732 0.29141 0.39742 0.0
H1361 H 0.05101 0.31112 0.43233 0.0
H1362 H 0.05335 0.34611 0.33428 0.0
H1363 H 0.94496 0.24886 0.37794 0.0
H1364 H 0.91863 0.23584 0.4171 0.0
H1365 H 0.95904 0.33059 0.43427 0.0
H1366 H 0.98532 0.34417 0.39513 0.0
H1367 H 0.95241 0.26209 0.23976 0.0
H1368 H 0.98381 0.27553 0.276 0.0
H1369 H 0.93034 0.31062 0.30823 0.0
H1370 H 0.89833 0.29625 0.27261 0.0
H1371 H 0.94142 0.28138 0.34054 0.0
H1372 H 0.00179 0.35752 0.2821 0.0
H1373 H 0.02774 0.37687 0.24326 0.0
H1374 H 0.08246 0.33578 0.25629 0.0
H1375 H 0.05655 0.31586 0.2951 0.0
C1376 C 0.0764 0.37739 0.40133 0.0
C1377 C 0.07464 0.35777 0.41983 0.0
C1378 C 0.05676 0.36628 0.38174 0.0
C1379 C 0.0352 0.33523 0.38001 0.0
C1380 C 0.03335 0.31554 0.39852 0.0
C1381 C 0.05265 0.3268 0.41844 0.0
C1382 C 0.01531 0.3237 0.35851 0.0
C1383 C 0.02887 0.33191 0.33569 0.0
C1384 C 0.98333 0.30539 0.36025 0.0
C1385 C 0.96734 0.29749 0.38371 0.0
C1386 C 0.94813 0.2669 0.39005 0.0
C1387 C 0.93324 0.25943 0.41224 0.0
C1388 C 0.93723 0.28237 0.42818 0.0
C1389 C 0.95606 0.31284 0.42194 0.0
C1390 C 0.97098 0.32043 0.39977 0.0
C1391 C 0.9474 0.27268 0.25459 0.0
C1392 C 0.92298 0.27822 0.25328 0.0
C1393 C 0.96537 0.28039 0.27528 0.0
C1394 C 0.95965 0.29439 0.29478 0.0
C1395 C 0.93514 0.29971 0.29351 0.0
C1396 C 0.91693 0.29161 0.27304 0.0
C1397 C 0.97946 0.30422 0.31637 0.0
C1398 C 0.96591 0.29547 0.33917 0.0
C1399 C 0.01137 0.32296 0.31467 0.0
C1400 C 0.027 0.33492 0.29136 0.0
C1401 C 0.0192 0.35242 0.2766 0.0
C1402 C 0.03392 0.36353 0.2546 0.0
C1403 C 0.05667 0.35748 0.24728 0.0
C1404 C 0.06479 0.34039 0.26197 0.0
C1405 C 0.05011 0.3292 0.28397 0.0
H1406 H 0.06804 0.3661 0.23025 0.0
H1407 H 0.92567 0.27655 0.44534 0.0
H1408 H 0.61385 0.87636 0.43973 0.0
H1409 H 0.62854 0.90708 0.47621 0.0
H1410 H 0.68461 0.9875 0.43427 0.0
H1411 H 0.67074 0.95678 0.39776 0.0
H1412 H 0.71325 0.98869 0.4736 0.0
H1413 H 0.61308 0.96979 0.4552 0.0
H1414 H 0.55843 0.9386 0.44616 0.0
H1415 H 0.54336 0.8937 0.51432 0.0
H1416 H 0.59804 0.92437 0.52363 0.0
H1417 H 0.72123 0.10305 0.55082 0.0
H1418 H 0.70736 0.06655 0.51809 0.0
H1419 H 0.67444 0.99312 0.56924 0.0
H1420 H 0.6888 0.02968 0.60238 0.0
H1421 H 0.63425 0.98556 0.52787 0.0
H1422 H 0.7361 0.0092 0.54645 0.0
H1423 H 0.79057 0.04342 0.55451 0.0
H1424 H 0.80196 0.08286 0.48437 0.0
H1425 H 0.74742 0.04918 0.47603 0.0
C1426 C 0.62935 0.90058 0.43825 0.0
C1427 C 0.641 0.91416 0.41581 0.0
C1428 C 0.63764 0.91813 0.45913 0.0
C1429 C 0.6573 0.94967 0.45794 0.0
C1430 C 0.66938 0.9632 0.43562 0.0
C1431 C 0.66137 0.94562 0.41475 0.0
C1432 C 0.66515 0.96866 0.47991 0.0
C1433 C 0.69593 0.98816 0.48532 0.0
C1434 C 0.64259 0.96756 0.49552 0.0
C1435 C 0.6097 0.94913 0.48999 0.0
C1436 C 0.59815 0.95309 0.46818 0.0
C1437 C 0.56717 0.93554 0.46302 0.0
C1438 C 0.54745 0.91411 0.47962 0.0
C1439 C 0.55867 0.91027 0.50145 0.0
C1440 C 0.58965 0.92774 0.50669 0.0
C1441 C 0.71097 0.07915 0.55518 0.0
C1442 C 0.70612 0.06923 0.5792 0.0
C1443 C 0.70317 0.05837 0.53645 0.0
C1444 C 0.69008 0.02727 0.54133 0.0
C1445 C 0.68462 0.01711 0.56521 0.0
C1446 C 0.69289 0.03799 0.58406 0.0
C1447 C 0.68219 0.0056 0.52127 0.0
C1448 C 0.65145 0.98573 0.51622 0.0
C1449 C 0.70474 0.00667 0.5058 0.0
C1450 C 0.7376 0.02684 0.5107 0.0
C1451 C 0.75015 0.02535 0.53282 0.0
C1452 C 0.78106 0.04462 0.53743 0.0
C1453 C 0.7997 0.06535 0.51998 0.0
C1454 C 0.78749 0.06681 0.49787 0.0
C1455 C 0.75658 0.04761 0.49319 0.0
H1456 H 0.82363 0.08025 0.52358 0.0
H1457 H 0.52347 0.90055 0.4756 0.0
H1458 H 0.69948 0.66324 0.56681 0.0
H1459 H 0.68529 0.6817 0.60224 0.0
H1460 H 0.72329 0.64054 0.64801 0.0
H1461 H 0.73603 0.6207 0.61266 0.0
H1462 H 0.67321 0.62981 0.66607 0.0
H1463 H 0.75908 0.72043 0.63683 0.0
H1464 H 0.79057 0.75962 0.60707 0.0
H1465 H 0.72026 0.7821 0.5978 0.0
H1466 H 0.68817 0.74276 0.62727 0.0
H1467 H 0.66808 0.70788 0.7713 0.0
H1468 H 0.68787 0.69258 0.73722 0.0
H1469 H 0.63572 0.71452 0.68847 0.0
H1470 H 0.6158 0.72979 0.72228 0.0
H1471 H 0.69588 0.73641 0.6735 0.0
H1472 H 0.60995 0.6428 0.70266 0.0
H1473 H 0.58085 0.60458 0.73376 0.0
H1474 H 0.65596 0.58964 0.74494 0.0
H1475 H 0.68565 0.62808 0.7141 0.0
C1476 C 0.70489 0.65825 0.58444 0.0
C1477 C 0.71887 0.64056 0.58699 0.0
C1478 C 0.69696 0.66898 0.6047 0.0
C1479 C 0.7037 0.66302 0.62786 0.0
C1480 C 0.71783 0.64547 0.63037 0.0
C1481 C 0.72515 0.63418 0.61015 0.0
C1482 C 0.6951 0.67414 0.6495 0.0
C1483 C 0.67869 0.65328 0.66782 0.0
C1484 C 0.70181 0.70466 0.65176 0.0
C1485 C 0.72112 0.72846 0.63412 0.0
C1486 C 0.75025 0.7336 0.62833 0.0
C1487 C 0.76822 0.75586 0.61153 0.0
C1488 C 0.7574 0.77329 0.60052 0.0
C1489 C 0.72861 0.76856 0.60633 0.0
C1490 C 0.71053 0.74631 0.6231 0.0
C1491 C 0.66088 0.70953 0.75333 0.0
C1492 C 0.64025 0.71993 0.74952 0.0
C1493 C 0.67217 0.70073 0.7339 0.0
C1494 C 0.6631 0.70231 0.71039 0.0
C1495 C 0.64299 0.71319 0.7065 0.0
C1496 C 0.63153 0.72175 0.72588 0.0
C1497 C 0.67402 0.69205 0.68976 0.0
C1498 C 0.69077 0.71306 0.6717 0.0
C1499 C 0.66808 0.66184 0.6879 0.0
C1500 C 0.65012 0.63852 0.70626 0.0
C1501 C 0.62034 0.63152 0.71188 0.0
C1502 C 0.60372 0.60979 0.72943 0.0
C1503 C 0.61658 0.59475 0.74136 0.0
C1504 C 0.64604 0.60134 0.73571 0.0
C1505 C 0.66276 0.62307 0.71818 0.0
H1506 H 0.60368 0.57794 0.75496 0.0
H1507 H 0.77134 0.79051 0.58751 0.0
H1508 H 0.04583 0.7289 0.72911 0.0
H1509 H 0.01274 0.71221 0.76445 0.0
H1510 H 0.06881 0.68048 0.7971 0.0
H1511 H 0.10252 0.69814 0.76235 0.0
H1512 H 0.97798 0.66115 0.78541 0.0
H1513 H 0.07243 0.68943 0.85652 0.0
H1514 H 0.12687 0.72628 0.86233 0.0
H1515 H 0.11974 0.78943 0.81534 0.0
H1516 H 0.0652 0.75315 0.80951 0.0
H1517 H 0.90729 0.58902 0.89362 0.0
H1518 H 0.94002 0.60726 0.85823 0.0
H1519 H 0.9817 0.69902 0.88537 0.0
H1520 H 0.95012 0.6806 0.9214 0.0
H1521 H 0.02301 0.69215 0.86673 0.0
H1522 H 0.92539 0.67055 0.83939 0.0
H1523 H 0.87 0.63992 0.83331 0.0
H1524 H 0.88169 0.57495 0.7923 0.0
H1525 H 0.93714 0.60501 0.79839 0.0
C1526 C 0.05102 0.71829 0.74381 0.0
C1527 C 0.07695 0.71513 0.74306 0.0
C1528 C 0.03208 0.70872 0.76398 0.0
C1529 C 0.03859 0.69561 0.78365 0.0
C1530 C 0.06375 0.69128 0.78245 0.0
C1531 C 0.08294 0.70126 0.76251 0.0
C1532 C 0.01936 0.68676 0.80557 0.0
C1533 C 0.98782 0.66796 0.80319 0.0
C1534 C 0.03205 0.69629 0.82876 0.0
C1535 C 0.06479 0.71843 0.83241 0.0
C1536 C 0.08246 0.71123 0.84751 0.0
C1537 C 0.11334 0.73201 0.85079 0.0
C1538 C 0.12678 0.76014 0.83916 0.0
C1539 C 0.10933 0.76759 0.82428 0.0
C1540 C 0.07844 0.74691 0.82096 0.0
C1541 C 0.92357 0.61306 0.89208 0.0
C1542 C 0.9261 0.63342 0.91022 0.0
C1543 C 0.94212 0.62351 0.87175 0.0
C1544 C 0.9629 0.65465 0.86881 0.0
C1545 C 0.96583 0.67491 0.88716 0.0
C1546 C 0.94775 0.66437 0.90775 0.0
C1547 C 0.98162 0.66609 0.84665 0.0
C1548 C 0.01311 0.68537 0.84897 0.0
C1549 C 0.96872 0.65795 0.82338 0.0
C1550 C 0.9354 0.63991 0.81952 0.0
C1551 C 0.91613 0.64964 0.8292 0.0
C1552 C 0.88472 0.63239 0.82574 0.0
C1553 C 0.87233 0.60547 0.81247 0.0
C1554 C 0.89133 0.59579 0.80258 0.0
C1555 C 0.92275 0.61294 0.80601 0.0
H1556 H 0.84801 0.59214 0.80982 0.0
H1557 H 0.15069 0.77618 0.8417 0.0
H1558 H 0.26164 0.885 0.05719 0.0
H1559 H 0.27548 0.91713 0.02153 0.0
H1560 H 0.31804 0.99713 0.06634 0.0
H1561 H 0.30272 0.96491 0.1022 0.0
H1562 H 0.2898 0.00649 0.03243 0.0
H1563 H 0.35917 0.9685 0.03406 0.0
H1564 H 0.37423 0.92934 0.03601 0.0
H1565 H 0.3257 0.88959 0.97064 0.0
H1566 H 0.31001 0.92828 0.96847 0.0
H1567 H 0.38272 0.11042 0.94226 0.0
H1568 H 0.36525 0.07679 0.97712 0.0
H1569 H 0.30813 0.00087 0.93142 0.0
H1570 H 0.32538 0.03441 0.89629 0.0
H1571 H 0.343 0.98913 0.96487 0.0
H1572 H 0.27574 0.03028 0.96365 0.0
H1573 H 0.26355 0.07151 0.96233 0.0
H1574 H 0.31252 0.10812 0.02809 0.0
H1575 H 0.32537 0.06733 0.02963 0.0
C1576 C 0.27397 0.90945 0.05942 0.0
C1577 C 0.28137 0.92251 0.08243 0.0
C1578 C 0.28201 0.92781 0.03902 0.0
C1579 C 0.29848 0.9596 0.04116 0.0
C1580 C 0.30545 0.97267 0.06419 0.0
C1581 C 0.29677 0.95428 0.08467 0.0
C1582 C 0.30837 0.9792 0.01942 0.0
C1583 C 0.30179 0.00289 0.01783 0.0
C1584 C 0.32355 0.97425 8e-05 0.0
C1585 C 0.33319 0.95112 0.00123 0.0
C1586 C 0.35156 0.95129 0.02018 0.0
C1587 C 0.36023 0.9292 0.02132 0.0
C1588 C 0.35087 0.90695 0.00349 0.0
C1589 C 0.3329 0.90681 0.98445 0.0
C1590 C 0.32414 0.92884 0.98324 0.0
C1591 C 0.36645 0.08657 0.93955 0.0
C1592 C 0.35537 0.07511 0.91647 0.0
C1593 C 0.35643 0.06743 0.95952 0.0
C1594 C 0.33524 0.03645 0.95682 0.0
C1595 C 0.32445 0.02477 0.93382 0.0
C1596 C 0.33427 0.04397 0.91381 0.0
C1597 C 0.32452 0.0163 0.97808 0.0
C1598 C 0.33097 0.99257 0.97952 0.0
C1599 C 0.30968 0.02151 0.99743 0.0
C1600 C 0.30174 0.0459 0.99664 0.0
C1601 C 0.28411 0.04725 0.97773 0.0
C1602 C 0.27704 0.07052 0.97696 0.0
C1603 C 0.28731 0.09246 0.99508 0.0
C1604 C 0.3046 0.09113 0.01405 0.0
C1605 C 0.31175 0.06792 0.0149 0.0
H1606 H 0.28183 0.11046 0.99445 0.0
H1607 H 0.35758 0.88985 0.00441 0.0
H1608 H 0.35894 0.49078 0.99469 0.0
H1609 H 0.39853 0.53092 0.96997 0.0
H1610 H 0.34794 0.48643 0.90597 0.0
H1611 H 0.30799 0.44633 0.93079 0.0
H1612 H 0.41085 0.50838 0.90196 0.0
H1613 H 0.34358 0.5442 0.92669 0.0
H1614 H 0.3146 0.55555 0.95634 0.0
H1615 H 0.3975 0.61889 0.99169 0.0
H1616 H 0.42697 0.60751 0.96249 0.0
H1617 H 0.49266 0.63331 0.82361 0.0
H1618 H 0.45188 0.59142 0.8462 0.0
H1619 H 0.49212 0.63805 0.91263 0.0
H1620 H 0.5321 0.68062 0.88994 0.0
H1621 H 0.43295 0.61419 0.91455 0.0
H1622 H 0.50044 0.57821 0.89188 0.0
H1623 H 0.53062 0.56616 0.864 0.0
H1624 H 0.44937 0.50313 0.82656 0.0
H1625 H 0.41873 0.51514 0.85402 0.0
C1626 C 0.35629 0.48967 0.97534 0.0
C1627 C 0.33029 0.46589 0.96458 0.0
C1628 C 0.37889 0.51248 0.96128 0.0
C1629 C 0.37589 0.51183 0.9362 0.0
C1630 C 0.35057 0.48735 0.92532 0.0
C1631 C 0.32784 0.46455 0.93944 0.0
C1632 C 0.39875 0.53731 0.9215 0.0
C1633 C 0.41543 0.53147 0.90441 0.0
C1634 C 0.40511 0.56747 0.92521 0.0
C1635 C 0.38747 0.5748 0.94251 0.0
C1636 C 0.35562 0.5604 0.94088 0.0
C1637 C 0.3391 0.56685 0.9576 0.0
C1638 C 0.35419 0.58788 0.97592 0.0
C1639 C 0.38584 0.60258 0.9775 0.0
C1640 C 0.40247 0.59615 0.96086 0.0
C1641 C 0.49251 0.63472 0.84302 0.0
C1642 C 0.51544 0.66008 0.8551 0.0
C1643 C 0.46943 0.61067 0.85592 0.0
C1644 C 0.46919 0.61136 0.88114 0.0
C1645 C 0.49188 0.63696 0.89319 0.0
C1646 C 0.51479 0.66113 0.88027 0.0
C1647 C 0.44536 0.58541 0.895 0.0
C1648 C 0.4284 0.59113 0.91197 0.0
C1649 C 0.43897 0.55518 0.89133 0.0
C1650 C 0.45732 0.54782 0.87486 0.0
C1651 C 0.48903 0.56196 0.87759 0.0
C1652 C 0.50622 0.5551 0.86188 0.0
C1653 C 0.49193 0.53395 0.84348 0.0
C1654 C 0.46041 0.51955 0.84079 0.0
C1655 C 0.44312 0.52635 0.85644 0.0
H1656 H 0.50528 0.52867 0.83133 0.0
H1657 H 0.34136 0.59283 0.98885 0.0
H1658 H 0.9176 0.55057 0.03033 0.0
H1659 H 0.91936 0.51201 0.05558 0.0
H1660 H 0.8214 0.45915 0.05486 0.0
H1661 H 0.81963 0.49833 0.03043 0.0
H1662 H 0.8424 0.45829 0.09837 0.0
H1663 H 0.86428 0.44206 0.0178 0.0
H1664 H 0.89129 0.45631 0.97901 0.0
H1665 H 0.97474 0.47813 0.01454 0.0
H1666 H 0.94829 0.46443 0.05363 0.0
H1667 H 0.82299 0.31515 0.13109 0.0
H1668 H 0.82389 0.35617 0.10726 0.0
H1669 H 0.92097 0.40996 0.11686 0.0
H1670 H 0.92001 0.36903 0.14099 0.0
H1671 H 0.90177 0.41115 0.06964 0.0
H1672 H 0.87744 0.42466 0.15058 0.0
H1673 H 0.84828 0.40753 0.18832 0.0
H1674 H 0.76682 0.38811 0.15066 0.0
H1675 H 0.79541 0.40462 0.11258 0.0
C1676 C 0.89649 0.53099 0.03599 0.0
C1677 C 0.86848 0.52734 0.02855 0.0
C1678 C 0.8975 0.50884 0.05017 0.0
C1679 C 0.87051 0.48248 0.05681 0.0
C1680 C 0.84249 0.47926 0.04991 0.0
C1681 C 0.84149 0.5015 0.03587 0.0
C1682 C 0.87145 0.45786 0.07036 0.0
C1683 C 0.85514 0.4478 0.09196 0.0
C1684 C 0.88844 0.44444 0.06216 0.0
C1685 C 0.90437 0.45253 0.03867 0.0
C1686 C 0.88844 0.45012 0.01737 0.0
C1687 C 0.90364 0.45806 0.99532 0.0
C1688 C 0.93473 0.46819 0.99432 0.0
C1689 C 0.95067 0.47032 0.01536 0.0
C1690 C 0.93558 0.46246 0.03746 0.0
C1691 C 0.84449 0.3357 0.12795 0.0
C1692 C 0.87144 0.33907 0.13771 0.0
C1693 C 0.84499 0.35905 0.11441 0.0
C1694 C 0.87247 0.38614 0.11051 0.0
C1695 C 0.89957 0.38918 0.11966 0.0
C1696 C 0.89903 0.36585 0.13333 0.0
C1697 C 0.8727 0.41164 0.09753 0.0
C1698 C 0.88919 0.42181 0.07606 0.0
C1699 C 0.85563 0.42492 0.1057 0.0
C1700 C 0.83853 0.41564 0.12868 0.0
C1701 C 0.85327 0.41656 0.15031 0.0
C1702 C 0.83685 0.40697 0.17177 0.0
C1703 C 0.8057 0.39668 0.17188 0.0
C1704 C 0.79094 0.39606 0.15054 0.0
C1705 C 0.80725 0.40555 0.12901 0.0
H1706 H 0.79302 0.38924 0.18851 0.0
H1707 H 0.94646 0.47433 0.97723 0.0
H1708 H 0.55459 0.87074 0.26585 0.0
H1709 H 0.5168 0.87613 0.24213 0.0
H1710 H 0.46822 0.87109 0.30714 0.0
H1711 H 0.50626 0.86655 0.3308 0.0
H1712 H 0.45692 0.8383 0.23673 0.0
H1713 H 0.43728 0.91636 0.30202 0.0
H1714 H 0.46662 0.95746 0.33104 0.0
H1715 H 0.54923 0.97988 0.29381 0.0
H1716 H 0.52037 0.93925 0.26436 0.0
H1717 H 0.31667 0.82689 0.2112 0.0
H1718 H 0.35976 0.82975 0.23327 0.0
H1719 H 0.41614 0.92265 0.21007 0.0
H1720 H 0.37274 0.91987 0.18839 0.0
H1721 H 0.42845 0.91628 0.25557 0.0
H1722 H 0.41891 0.86566 0.18131 0.0
H1723 H 0.39174 0.82746 0.14979 0.0
H1724 H 0.37366 0.75588 0.19965 0.0
H1725 H 0.40022 0.79365 0.23163 0.0
C1726 C 0.53593 0.87103 0.27499 0.0
C1727 C 0.53318 0.86815 0.30007 0.0
C1728 C 0.51433 0.87394 0.26147 0.0
C1729 C 0.48985 0.87426 0.2729 0.0
C1730 C 0.48712 0.87129 0.29797 0.0
C1731 C 0.50866 0.86839 0.31144 0.0
C1732 C 0.4667 0.87703 0.25869 0.0
C1733 C 0.45077 0.8554 0.24079 0.0
C1734 C 0.45913 0.89977 0.26364 0.0
C1735 C 0.47665 0.92455 0.28111 0.0
C1736 C 0.46169 0.93015 0.29996 0.0
C1737 C 0.47824 0.95336 0.3165 0.0
C1738 C 0.50978 0.97121 0.31431 0.0
C1739 C 0.52482 0.96596 0.29554 0.0
C1740 C 0.50837 0.94282 0.27893 0.0
C1741 C 0.3382 0.84798 0.21118 0.0
C1742 C 0.34163 0.87317 0.19825 0.0
C1743 C 0.36279 0.84958 0.22361 0.0
C1744 C 0.39129 0.87626 0.22296 0.0
C1745 C 0.39438 0.90185 0.21077 0.0
C1746 C 0.36968 0.90029 0.19845 0.0
C1747 C 0.41808 0.87696 0.23418 0.0
C1748 C 0.4347 0.89926 0.25146 0.0
C1749 C 0.42677 0.85527 0.22826 0.0
C1750 C 0.41139 0.8325 0.20892 0.0
C1751 C 0.40901 0.84177 0.1856 0.0
C1752 C 0.39371 0.82019 0.16764 0.0
C1753 C 0.38095 0.78926 0.17272 0.0
C1754 C 0.38354 0.77985 0.19575 0.0
C1755 C 0.39874 0.80134 0.21379 0.0
H1756 H 0.36909 0.77259 0.1588 0.0
H1757 H 0.52255 0.98914 0.32715 0.0
H1758 H 0.45634 0.31595 0.38899 0.0
H1759 H 0.49439 0.35716 0.41404 0.0
H1760 H 0.53615 0.41054 0.35048 0.0
H1761 H 0.49786 0.36957 0.32547 0.0
H1762 H 0.57778 0.4095 0.38224 0.0
H1763 H 0.4933 0.42731 0.38431 0.0
H1764 H 0.43976 0.41286 0.39081 0.0
H1765 H 0.44647 0.39314 0.46481 0.0
H1766 H 0.49995 0.40701 0.45865 0.0
H1767 H 0.67644 0.54816 0.4399 0.0
H1768 H 0.63655 0.5099 0.41423 0.0
H1769 H 0.58699 0.46017 0.47718 0.0
H1770 H 0.62608 0.4993 0.50283 0.0
H1771 H 0.549 0.45959 0.44517 0.0
H1772 H 0.63156 0.4394 0.44396 0.0
H1773 H 0.68456 0.45142 0.43838 0.0
H1774 H 0.68109 0.47283 0.36425 0.0
H1775 H 0.62819 0.46136 0.36948 0.0
C1776 C 0.47358 0.33659 0.38046 0.0
C1777 C 0.47437 0.3397 0.35539 0.0
C1778 C 0.49524 0.36004 0.39472 0.0
C1779 C 0.51794 0.38691 0.38408 0.0
C1780 C 0.51885 0.38993 0.359 0.0
C1781 C 0.49709 0.36657 0.34477 0.0
C1782 C 0.5409 0.41184 0.39909 0.0
C1783 C 0.57159 0.42079 0.39578 0.0
C1784 C 0.5326 0.4259 0.41715 0.0
C1785 C 0.50056 0.41794 0.42096 0.0
C1786 C 0.4833 0.41968 0.40192 0.0
C1787 C 0.45297 0.41162 0.40555 0.0
C1788 C 0.4397 0.40202 0.42819 0.0
C1789 C 0.45677 0.40055 0.44727 0.0
C1790 C 0.4871 0.40853 0.44373 0.0
C1791 C 0.65681 0.52925 0.44819 0.0
C1792 C 0.65443 0.52638 0.47328 0.0
C1793 C 0.63419 0.50727 0.43355 0.0
C1794 C 0.60908 0.48182 0.44378 0.0
C1795 C 0.60626 0.47948 0.46888 0.0
C1796 C 0.6287 0.50164 0.48351 0.0
C1797 C 0.58603 0.45734 0.42836 0.0
C1798 C 0.55529 0.44842 0.4316 0.0
C1799 C 0.59424 0.44304 0.41039 0.0
C1800 C 0.62601 0.44981 0.40717 0.0
C1801 C 0.64217 0.44689 0.42651 0.0
C1802 C 0.67218 0.45357 0.42341 0.0
C1803 C 0.68621 0.46296 0.40099 0.0
C1804 C 0.67022 0.4656 0.38161 0.0
C1805 C 0.64021 0.45899 0.38463 0.0
H1806 H 0.70944 0.46812 0.39862 0.0
H1807 H 0.41621 0.39578 0.43096 0.0
H1808 H 0.19053 0.50141 0.53325 0.0
H1809 H 0.19016 0.54263 0.55587 0.0
H1810 H 0.09215 0.49418 0.55402 0.0
H1811 H 0.09256 0.4531 0.53114 0.0
H1812 H 0.11691 0.55411 0.54098 0.0
H1813 H 0.12791 0.49715 0.60499 0.0
H1814 H 0.15104 0.47132 0.62644 0.0
H1815 H 0.23555 0.55546 0.63112 0.0
H1816 H 0.21306 0.58173 0.60935 0.0
H1817 H 0.09353 0.64334 0.62811 0.0
H1818 H 0.09353 0.60208 0.60539 0.0
H1819 H 0.19151 0.64981 0.6072 0.0
H1820 H 0.19157 0.69144 0.6295 0.0
H1821 H 0.16658 0.59012 0.62031 0.0
H1822 H 0.15663 0.64725 0.55655 0.0
H1823 H 0.13483 0.67371 0.53422 0.0
H1824 H 0.04985 0.59029 0.52823 0.0
H1825 H 0.07096 0.56339 0.55095 0.0
C1826 C 0.16897 0.49957 0.53788 0.0
C1827 C 0.14158 0.47418 0.53067 0.0
C1828 C 0.16875 0.52299 0.55082 0.0
C1829 C 0.14111 0.52134 0.55674 0.0
C1830 C 0.1137 0.49583 0.54966 0.0
C1831 C 0.11393 0.47234 0.53681 0.0
C1832 C 0.14088 0.54668 0.56966 0.0
C1833 C 0.12733 0.5617 0.5585 0.0
C1834 C 0.15529 0.55708 0.59218 0.0
C1835 C 0.16887 0.54134 0.60531 0.0
C1836 C 0.1515 0.5101 0.6104 0.0
C1837 C 0.16449 0.49539 0.62265 0.0
C1838 C 0.19477 0.51172 0.63008 0.0
C1839 C 0.21211 0.54283 0.62532 0.0
C1840 C 0.19925 0.55764 0.61304 0.0
C1841 C 0.11505 0.64527 0.62321 0.0
C1842 C 0.14257 0.67063 0.6303 0.0
C1843 C 0.11503 0.62166 0.61036 0.0
C1844 C 0.14253 0.623 0.60451 0.0
C1845 C 0.17005 0.64835 0.61156 0.0
C1846 C 0.17007 0.67206 0.62426 0.0
C1847 C 0.14254 0.5975 0.59165 0.0
C1848 C 0.15608 0.58248 0.60282 0.0
C1849 C 0.12823 0.58719 0.56909 0.0
C1850 C 0.1153 0.60336 0.55569 0.0
C1851 C 0.13319 0.6346 0.55072 0.0
C1852 C 0.12098 0.64967 0.53794 0.0
C1853 C 0.09098 0.63369 0.52982 0.0
C1854 C 0.0731 0.60262 0.53452 0.0
C1855 C 0.08517 0.58746 0.54737 0.0
H1856 H 0.0816 0.64539 0.51986 0.0
H1857 H 0.20477 0.50029 0.63958 0.0
H1858 H 0.62569 0.13917 0.65565 0.0
H1859 H 0.58705 0.14108 0.68082 0.0
H1860 H 0.64001 0.15031 0.74399 0.0
H1861 H 0.67962 0.15027 0.71878 0.0
H1862 H 0.5729 0.09942 0.74147 0.0
H1863 H 0.64125 0.20704 0.7352 0.0
H1864 H 0.67279 0.25647 0.71532 0.0
H1865 H 0.5945 0.24644 0.67785 0.0
H1866 H 0.56252 0.19666 0.69725 0.0
H1867 H 0.49084 0.12738 0.83114 0.0
H1868 H 0.53071 0.12908 0.80532 0.0
H1869 H 0.49019 0.14675 0.74381 0.0
H1870 H 0.45062 0.14567 0.76981 0.0
H1871 H 0.55113 0.18425 0.74477 0.0
H1872 H 0.4822 0.07756 0.75195 0.0
H1873 H 0.45006 0.02919 0.77308 0.0
H1874 H 0.52864 0.03701 0.80857 0.0
H1875 H 0.56123 0.0857 0.78792 0.0
C1876 C 0.62942 0.14237 0.67484 0.0
C1877 C 0.65568 0.1448 0.68531 0.0
C1878 C 0.6073 0.14326 0.68916 0.0
C1879 C 0.61086 0.14592 0.71417 0.0
C1880 C 0.637 0.14829 0.72469 0.0
C1881 C 0.65945 0.14814 0.71032 0.0
C1882 C 0.58651 0.14468 0.7294 0.0
C1883 C 0.56831 0.11807 0.74249 0.0
C1884 C 0.58019 0.16875 0.73004 0.0
C1885 C 0.59957 0.19793 0.71745 0.0
C1886 C 0.63084 0.21512 0.72242 0.0
C1887 C 0.64876 0.24328 0.71135 0.0
C1888 C 0.63562 0.25462 0.69541 0.0
C1889 C 0.60461 0.23766 0.69027 0.0
C1890 C 0.58658 0.20946 0.70129 0.0
C1891 C 0.49061 0.13173 0.81211 0.0
C1892 C 0.46798 0.13663 0.80237 0.0
C1893 C 0.51319 0.13248 0.79737 0.0
C1894 C 0.51328 0.13784 0.77262 0.0
C1895 C 0.49053 0.1426 0.76286 0.0
C1896 C 0.46793 0.14184 0.77763 0.0
C1897 C 0.53745 0.13897 0.75702 0.0
C1898 C 0.55558 0.16551 0.74376 0.0
C1899 C 0.54364 0.11476 0.75614 0.0
C1900 C 0.52412 0.08544 0.76856 0.0
C1901 C 0.49261 0.0691 0.76441 0.0
C1902 C 0.47431 0.0416 0.77628 0.0
C1903 C 0.48729 0.03007 0.7922 0.0
C1904 C 0.51862 0.04599 0.79625 0.0
C1905 C 0.53701 0.07353 0.78446 0.0
H1906 H 0.47309 0.00877 0.80136 0.0
H1907 H 0.64948 0.27657 0.68705 0.0
loop_
_geom_bond_atom_site_label_1
_geom_bond_atom_site_label_2
_geom_bond_distance
_geom_bond_site_symmetry_2
_ccdc_geom_bond_type
Co0 O3 1.970 . S
Co0 N17 1.989 1_554 S
Co0 O25 1.967 . S
Co0 O32 1.920 1_554 S
Co1 O4 1.966 . S
Co1 N10 2.022 . S
Co1 N18 1.993 . S
Co1 O26 1.941 . S
C2 O3 1.258 . S
C2 O4 1.263 . S
O3 Co0 1.970 . S
O3 C2 1.258 . S
O4 Co1 1.966 . S
O4 C2 1.263 . S
C5 O6 1.235 . S
C5 O32 1.289 . S
O6 C5 1.235 . S
C7 C9 1.400 . S
C7 N10 1.351 . S
C7 C12 1.501 . S
C8 C9 1.387 . S
C8 N11 1.341 . S
C9 C7 1.400 . S
C9 C8 1.387 . S
N10 Co1 2.022 . S
N10 C7 1.351 . S
N10 N11 1.365 . S
N11 C8 1.341 . S
N11 N10 1.365 . S
N11 H31 0.862 . S
C12 C7 1.501 . S
C12 H13 0.961 . S
C12 H14 0.961 . S
C12 H15 0.960 . S
H13 C12 0.961 . S
H14 C12 0.961 . S
H15 C12 0.960 . S
C16 N17 1.342 . S
C16 C20 1.401 . S
C16 C21 1.499 . S
N17 Co0 1.989 1_556 S
N17 C16 1.342 . S
N17 N18 1.388 1_556 S
N18 Co1 1.993 . S
N18 N17 1.388 1_554 S
N18 C19 1.346 1_554 S
C19 N18 1.346 1_556 S
C19 C20 1.396 . S
C19 C29 1.508 1_556 S
C20 C16 1.401 . S
C20 C19 1.396 . S
C21 C16 1.499 . S
C21 H22 0.959 . S
C21 H23 0.960 . S
C21 H24 0.961 . S
H22 C21 0.959 . S
H23 C21 0.960 . S
H24 C21 0.961 . S
O25 Co0 1.967 . S
O25 C33 1.258 . S
O26 Co1 1.941 . S
O26 C33 1.266 . S
H27 C29 0.962 . S
H28 C29 0.953 1_556 S
C29 C19 1.508 1_554 S
C29 H27 0.962 . S
C29 H28 0.953 1_554 S
C29 H30 0.968 . S
H30 C29 0.968 . S
H31 N11 0.862 . S
O32 Co0 1.920 1_556 S
O32 C5 1.289 . S
C33 O25 1.258 . S
C33 O26 1.266 . S
Co34 O37 1.970 . S
Co34 N51 1.989 . S
Co34 O59 1.967 . S
Co34 O66 1.920 . S
Co35 O38 1.966 . S
Co35 N44 2.022 . S
Co35 N52 1.993 . S
Co35 O60 1.941 . S
C36 O37 1.258 . S
C36 O38 1.263 . S
O37 Co34 1.970 . S
O37 C36 1.258 . S
O38 Co35 1.966 . S
O38 C36 1.263 . S
C39 O40 1.235 . S
C39 O66 1.289 . S
O40 C39 1.235 . S
C41 C43 1.400 . S
C41 N44 1.351 . S
C41 C46 1.501 . S
C42 C43 1.387 . S
C42 N45 1.341 . S
C43 C41 1.400 . S
C43 C42 1.387 . S
N44 Co35 2.022 . S
N44 C41 1.351 . S
N44 N45 1.365 . S
N45 C42 1.341 . S
N45 N44 1.365 . S
N45 H65 0.862 . S
C46 C41 1.501 . S
C46 H47 0.961 . S
C46 H48 0.961 . S
C46 H49 0.960 . S
H47 C46 0.961 . S
H48 C46 0.961 . S
H49 C46 0.960 . S
C50 N51 1.342 . S
C50 C54 1.401 . S
C50 C55 1.499 . S
N51 Co34 1.989 . S
N51 C50 1.342 . S
N51 N52 1.388 . S
N52 Co35 1.993 . S
N52 N51 1.388 . S
N52 C53 1.346 . S
C53 N52 1.346 . S
C53 C54 1.396 . S
C53 C63 1.510 . S
C54 C50 1.401 . S
C54 C53 1.396 . S
C55 C50 1.499 . S
C55 H56 0.959 . S
C55 H57 0.960 . S
C55 H58 0.961 . S
H56 C55 0.959 . S
H57 C55 0.960 . S
H58 C55 0.961 . S
O59 Co34 1.967 . S
O59 C67 1.258 . S
O60 Co35 1.941 . S
O60 C67 1.266 . S
H61 C63 0.959 . S
H62 C63 0.961 . S
C63 C53 1.510 . S
C63 H61 0.959 . S
C63 H62 0.961 . S
C63 H64 0.960 . S
H64 C63 0.960 . S
H65 N45 0.862 . S
O66 Co34 1.920 . S
O66 C39 1.289 . S
C67 O59 1.258 . S
C67 O60 1.266 . S
Co68 O71 1.970 . S
Co68 N85 1.989 . S
Co68 O93 1.967 . S
Co68 O100 1.920 . S
Co69 O72 1.966 . S
Co69 N78 2.022 . S
Co69 N86 1.993 . S
Co69 O94 1.941 . S
C70 O71 1.258 . S
C70 O72 1.263 . S
O71 Co68 1.970 . S
O71 C70 1.258 . S
O72 Co69 1.966 . S
O72 C70 1.263 . S
C73 O74 1.235 . S
C73 O100 1.289 . S
O74 C73 1.235 . S
C75 C77 1.400 . S
C75 N78 1.351 . S
C75 C80 1.501 . S
C76 C77 1.387 . S
C76 N79 1.341 . S
C77 C75 1.400 . S
C77 C76 1.387 . S
N78 Co69 2.022 . S
N78 C75 1.351 . S
N78 N79 1.365 . S
N79 C76 1.341 . S
N79 N78 1.365 . S
N79 H99 0.862 . S
C80 C75 1.501 . S
C80 H81 0.961 . S
C80 H82 0.961 . S
C80 H83 0.960 . S
H81 C80 0.961 . S
H82 C80 0.961 . S
H83 C80 0.960 . S
C84 N85 1.342 . S
C84 C88 1.401 . S
C84 C89 1.499 . S
N85 Co68 1.989 . S
N85 C84 1.342 . S
N85 N86 1.388 . S
N86 Co69 1.993 . S
N86 N85 1.388 . S
N86 C87 1.346 . S
C87 N86 1.346 . S
C87 C88 1.396 . S
C87 C97 1.510 . S
C88 C84 1.401 . S
C88 C87 1.396 . S
C89 C84 1.499 . S
C89 H90 0.959 . S
C89 H91 0.960 . S
C89 H92 0.961 . S
H90 C89 0.959 . S
H91 C89 0.960 . S
H92 C89 0.961 . S
O93 Co68 1.967 . S
O93 C101 1.258 . S
O94 Co69 1.941 . S
O94 C101 1.266 . S
H95 C97 0.959 . S
H96 C97 0.961 . S
C97 C87 1.510 . S
C97 H95 0.959 . S
C97 H96 0.961 . S
C97 H98 0.960 . S
H98 C97 0.960 . S
H99 N79 0.862 . S
O100 Co68 1.920 . S
O100 C73 1.289 . S
C101 O93 1.258 . S
C101 O94 1.266 . S
Co102 O105 1.970 . S
Co102 N119 1.989 . S
Co102 O127 1.967 . S
Co102 O134 1.920 . S
Co103 O106 1.966 . S
Co103 N112 2.022 . S
Co103 N120 1.993 . S
Co103 O128 1.941 . S
C104 O105 1.258 . S
C104 O106 1.263 . S
O105 Co102 1.970 . S
O105 C104 1.258 . S
O106 Co103 1.966 . S
O106 C104 1.263 . S
C107 O108 1.235 . S
C107 O134 1.289 . S
O108 C107 1.235 . S
C109 C111 1.400 . S
C109 N112 1.351 . S
C109 C114 1.501 . S
C110 C111 1.387 . S
C110 N113 1.341 . S
C111 C109 1.400 . S
C111 C110 1.387 . S
N112 Co103 2.022 . S
N112 C109 1.351 . S
N112 N113 1.365 . S
N113 C110 1.341 . S
N113 N112 1.365 . S
N113 H133 0.862 . S
C114 C109 1.501 . S
C114 H115 0.961 . S
C114 H116 0.961 . S
C114 H117 0.960 . S
H115 C114 0.961 . S
H116 C114 0.961 . S
H117 C114 0.960 . S
C118 N119 1.342 . S
C118 C122 1.401 . S
C118 C123 1.499 . S
N119 Co102 1.989 . S
N119 C118 1.342 . S
N119 N120 1.388 . S
N120 Co103 1.993 . S
N120 N119 1.388 . S
N120 C121 1.346 . S
C121 N120 1.346 . S
C121 C122 1.396 . S
C121 C131 1.510 . S
C122 C118 1.401 . S
C122 C121 1.396 . S
C123 C118 1.499 . S
C123 H124 0.959 . S
C123 H125 0.960 . S
C123 H126 0.961 . S
H124 C123 0.959 . S
H125 C123 0.960 . S
H126 C123 0.961 . S
O127 Co102 1.967 . S
O127 C135 1.258 . S
O128 Co103 1.941 . S
O128 C135 1.266 . S
H129 C131 0.959 . S
H130 C131 0.961 . S
C131 C121 1.510 . S
C131 H129 0.959 . S
C131 H130 0.961 . S
C131 H132 0.960 . S
H132 C131 0.960 . S
H133 N113 0.862 . S
O134 Co102 1.920 . S
O134 C107 1.289 . S
C135 O127 1.258 . S
C135 O128 1.266 . S
Co136 O139 1.970 . S
Co136 N153 1.989 . S
Co136 O161 1.967 . S
Co136 O168 1.920 . S
Co137 O140 1.966 . S
Co137 N146 2.022 . S
Co137 N154 1.993 . S
Co137 O162 1.941 . S
C138 O139 1.258 . S
C138 O140 1.263 . S
O139 Co136 1.970 . S
O139 C138 1.258 . S
O140 Co137 1.966 . S
O140 C138 1.263 . S
C141 O142 1.235 . S
C141 O168 1.289 . S
O142 C141 1.235 . S
C143 C145 1.400 . S
C143 N146 1.351 . S
C143 C148 1.501 . S
C144 C145 1.387 . S
C144 N147 1.341 . S
C145 C143 1.400 . S
C145 C144 1.387 . S
N146 Co137 2.022 . S
N146 C143 1.351 . S
N146 N147 1.365 . S
N147 C144 1.341 . S
N147 N146 1.365 . S
N147 H167 0.862 . S
C148 C143 1.501 . S
C148 H149 0.961 . S
C148 H150 0.961 . S
C148 H151 0.960 . S
H149 C148 0.961 . S
H150 C148 0.961 . S
H151 C148 0.960 . S
C152 N153 1.342 . S
C152 C156 1.401 . S
C152 C157 1.499 . S
N153 Co136 1.989 . S
N153 C152 1.342 . S
N153 N154 1.388 . S
N154 Co137 1.993 . S
N154 N153 1.388 . S
N154 C155 1.346 . S
C155 N154 1.346 . S
C155 C156 1.396 . S
C155 C165 1.510 . S
C156 C152 1.401 . S
C156 C155 1.396 . S
C157 C152 1.499 . S
C157 H158 0.959 . S
C157 H159 0.960 . S
C157 H160 0.961 . S
H158 C157 0.959 . S
H159 C157 0.960 . S
H160 C157 0.961 . S
O161 Co136 1.967 . S
O161 C169 1.258 . S
O162 Co137 1.941 . S
O162 C169 1.266 . S
H163 C165 0.959 . S
H164 C165 0.961 . S
C165 C155 1.510 . S
C165 H163 0.959 . S
C165 H164 0.961 . S
C165 H166 0.960 . S
H166 C165 0.960 . S
H167 N147 0.862 . S
O168 Co136 1.920 . S
O168 C141 1.289 . S
C169 O161 1.258 . S
C169 O162 1.266 . S
Co170 O173 1.970 . S
Co170 N187 1.989 . S
Co170 O195 1.967 . S
Co170 O202 1.920 . S
Co171 O174 1.966 . S
Co171 N180 2.022 . S
Co171 N188 1.993 . S
Co171 O196 1.941 . S
C172 O173 1.258 . S
C172 O174 1.263 . S
O173 Co170 1.970 . S
O173 C172 1.258 . S
O174 Co171 1.966 . S
O174 C172 1.263 . S
C175 O176 1.235 . S
C175 O202 1.289 . S
O176 C175 1.235 . S
C177 C179 1.400 . S
C177 N180 1.351 . S
C177 C182 1.501 . S
C178 C179 1.387 . S
C178 N181 1.341 . S
C179 C177 1.400 . S
C179 C178 1.387 . S
N180 Co171 2.022 . S
N180 C177 1.351 . S
N180 N181 1.365 . S
N181 C178 1.341 . S
N181 N180 1.365 . S
N181 H201 0.862 . S
C182 C177 1.501 . S
C182 H183 0.961 . S
C182 H184 0.961 . S
C182 H185 0.960 . S
H183 C182 0.961 . S
H184 C182 0.961 . S
H185 C182 0.960 . S
C186 N187 1.342 . S
C186 C190 1.401 . S
C186 C191 1.499 . S
N187 Co170 1.989 . S
N187 C186 1.342 . S
N187 N188 1.388 . S
N188 Co171 1.993 . S
N188 N187 1.388 . S
N188 C189 1.346 . S
C189 N188 1.346 . S
C189 C190 1.396 . S
C189 C199 1.510 . S
C190 C186 1.401 . S
C190 C189 1.396 . S
C191 C186 1.499 . S
C191 H192 0.959 . S
C191 H193 0.960 . S
C191 H194 0.961 . S
H192 C191 0.959 . S
H193 C191 0.960 . S
H194 C191 0.961 . S
O195 Co170 1.967 . S
O195 C203 1.258 . S
O196 Co171 1.941 . S
O196 C203 1.266 . S
H197 C199 0.959 . S
H198 C199 0.961 . S
C199 C189 1.510 . S
C199 H197 0.959 . S
C199 H198 0.961 . S
C199 H200 0.960 . S
H200 C199 0.960 . S
H201 N181 0.862 . S
O202 Co170 1.920 . S
O202 C175 1.289 . S
C203 O195 1.258 . S
C203 O196 1.266 . S
Co204 O207 1.970 . S
Co204 N221 1.989 . S
Co204 O229 1.967 . S
Co204 O236 1.920 . S
Co205 O208 1.966 . S
Co205 N214 2.022 . S
Co205 N222 1.993 . S
Co205 O230 1.941 . S
C206 O207 1.258 . S
C206 O208 1.263 . S
O207 Co204 1.970 . S
O207 C206 1.258 . S
O208 Co205 1.966 . S
O208 C206 1.263 . S
C209 O210 1.235 . S
C209 O236 1.289 . S
O210 C209 1.235 . S
C211 C213 1.400 . S
C211 N214 1.351 . S
C211 C216 1.501 . S
C212 C213 1.387 . S
C212 N215 1.341 . S
C213 C211 1.400 . S
C213 C212 1.387 . S
N214 Co205 2.022 . S
N214 C211 1.351 . S
N214 N215 1.365 . S
N215 C212 1.341 . S
N215 N214 1.365 . S
N215 H235 0.862 . S
C216 C211 1.501 . S
C216 H217 0.961 . S
C216 H218 0.961 . S
C216 H219 0.960 . S
H217 C216 0.961 . S
H218 C216 0.961 . S
H219 C216 0.960 . S
C220 N221 1.342 . S
C220 C224 1.401 . S
C220 C225 1.499 . S
N221 Co204 1.989 . S
N221 C220 1.342 . S
N221 N222 1.388 . S
N222 Co205 1.993 . S
N222 N221 1.388 . S
N222 C223 1.346 . S
C223 N222 1.346 . S
C223 C224 1.396 . S
C223 C233 1.510 . S
C224 C220 1.401 . S
C224 C223 1.396 . S
C225 C220 1.499 . S
C225 H226 0.959 . S
C225 H227 0.960 . S
C225 H228 0.961 . S
H226 C225 0.959 . S
H227 C225 0.960 . S
H228 C225 0.961 . S
O229 Co204 1.967 . S
O229 C237 1.258 . S
O230 Co205 1.941 . S
O230 C237 1.266 . S
H231 C233 0.959 . S
H232 C233 0.961 . S
C233 C223 1.510 . S
C233 H231 0.959 . S
C233 H232 0.961 . S
C233 H234 0.960 . S
H234 C233 0.960 . S
H235 N215 0.862 . S
O236 Co204 1.920 . S
O236 C209 1.289 . S
C237 O229 1.258 . S
C237 O230 1.266 . S
Co238 O241 1.970 . S
Co238 N255 1.989 . S
Co238 O263 1.967 . S
Co238 O270 1.920 . S
Co239 O242 1.966 . S
Co239 N248 2.022 . S
Co239 N256 1.993 . S
Co239 O264 1.941 . S
C240 O241 1.258 . S
C240 O242 1.263 . S
O241 Co238 1.970 . S
O241 C240 1.258 . S
O242 Co239 1.966 . S
O242 C240 1.263 . S
C243 O244 1.235 . S
C243 O270 1.289 1_554 S
O244 C243 1.235 . S
C245 C247 1.400 . S
C245 N248 1.351 . S
C245 C250 1.501 . S
C246 C247 1.387 . S
C246 N249 1.341 . S
C247 C245 1.400 . S
C247 C246 1.387 . S
N248 Co239 2.022 . S
N248 C245 1.351 . S
N248 N249 1.365 . S
N249 C246 1.341 . S
N249 N248 1.365 . S
N249 H269 0.862 . S
C250 C245 1.501 . S
C250 H251 0.961 . S
C250 H252 0.961 . S
C250 H253 0.960 . S
H251 C250 0.961 . S
H252 C250 0.961 . S
H253 C250 0.960 . S
C254 N255 1.342 1_554 S
C254 C258 1.401 . S
C254 C259 1.499 . S
N255 Co238 1.989 . S
N255 C254 1.342 1_556 S
N255 N256 1.388 . S
N256 Co239 1.993 . S
N256 N255 1.388 . S
N256 C257 1.346 . S
C257 N256 1.346 . S
C257 C258 1.396 1_556 S
C257 C267 1.510 . S
C258 C254 1.401 . S
C258 C257 1.396 1_554 S
C259 C254 1.499 . S
C259 H260 0.959 . S
C259 H261 0.960 . S
C259 H262 0.961 . S
H260 C259 0.959 . S
H261 C259 0.960 . S
H262 C259 0.961 . S
O263 Co238 1.967 . S
O263 C271 1.258 . S
O264 Co239 1.941 . S
O264 C271 1.266 . S
H265 C267 0.959 . S
H266 C267 0.961 1_554 S
C267 C257 1.510 . S
C267 H265 0.959 . S
C267 H266 0.961 1_556 S
C267 H268 0.960 . S
H268 C267 0.960 . S
H269 N249 0.862 . S
O270 Co238 1.920 . S
O270 C243 1.289 1_556 S
C271 O263 1.258 . S
C271 O264 1.266 . S
Co272 O275 1.970 . S
Co272 N289 1.989 . S
Co272 O297 1.967 . S
Co272 O304 1.920 . S
Co273 O276 1.966 . S
Co273 N282 2.022 . S
Co273 N290 1.993 . S
Co273 O298 1.941 . S
C274 O275 1.258 . S
C274 O276 1.263 . S
O275 Co272 1.970 . S
O275 C274 1.258 . S
O276 Co273 1.966 . S
O276 C274 1.263 . S
C277 O278 1.235 . S
C277 O304 1.289 . S
O278 C277 1.235 . S
C279 C281 1.400 . S
C279 N282 1.351 . S
C279 C284 1.501 . S
C280 C281 1.387 . S
C280 N283 1.341 . S
C281 C279 1.400 . S
C281 C280 1.387 . S
N282 Co273 2.022 . S
N282 C279 1.351 . S
N282 N283 1.365 . S
N283 C280 1.341 . S
N283 N282 1.365 . S
N283 H303 0.862 . S
C284 C279 1.501 . S
C284 H285 0.961 . S
C284 H286 0.961 . S
C284 H287 0.960 . S
H285 C284 0.961 . S
H286 C284 0.961 . S
H287 C284 0.960 . S
C288 N289 1.342 . S
C288 C292 1.401 . S
C288 C293 1.499 . S
N289 Co272 1.989 . S
N289 C288 1.342 . S
N289 N290 1.388 . S
N290 Co273 1.993 . S
N290 N289 1.388 . S
N290 C291 1.346 . S
C291 N290 1.346 . S
C291 C292 1.396 . S
C291 C301 1.510 . S
C292 C288 1.401 . S
C292 C291 1.396 . S
C293 C288 1.499 . S
C293 H294 0.959 . S
C293 H295 0.960 . S
C293 H296 0.961 . S
H294 C293 0.959 . S
H295 C293 0.960 . S
H296 C293 0.961 . S
O297 Co272 1.967 . S
O297 C305 1.258 . S
O298 Co273 1.941 . S
O298 C305 1.266 . S
H299 C301 0.959 . S
H300 C301 0.961 . S
C301 C291 1.510 . S
C301 H299 0.959 . S
C301 H300 0.961 . S
C301 H302 0.960 . S
H302 C301 0.960 . S
H303 N283 0.862 . S
O304 Co272 1.920 . S
O304 C277 1.289 . S
C305 O297 1.258 . S
C305 O298 1.266 . S
Co306 O309 1.970 . S
Co306 N323 1.989 . S
Co306 O331 1.967 . S
Co306 O338 1.920 . S
Co307 O310 1.966 . S
Co307 N316 2.022 . S
Co307 N324 1.993 . S
Co307 O332 1.941 . S
C308 O309 1.258 . S
C308 O310 1.263 . S
O309 Co306 1.970 . S
O309 C308 1.258 . S
O310 Co307 1.966 . S
O310 C308 1.263 . S
C311 O312 1.235 . S
C311 O338 1.289 . S
O312 C311 1.235 . S
C313 C315 1.400 . S
C313 N316 1.351 . S
C313 C318 1.501 . S
C314 C315 1.387 . S
C314 N317 1.341 . S
C315 C313 1.400 . S
C315 C314 1.387 . S
N316 Co307 2.022 . S
N316 C313 1.351 . S
N316 N317 1.365 . S
N317 C314 1.341 . S
N317 N316 1.365 . S
N317 H337 0.862 . S
C318 C313 1.501 . S
C318 H319 0.961 . S
C318 H320 0.961 . S
C318 H321 0.960 . S
H319 C318 0.961 . S
H320 C318 0.961 . S
H321 C318 0.960 . S
C322 N323 1.342 . S
C322 C326 1.401 . S
C322 C327 1.499 . S
N323 Co306 1.989 . S
N323 C322 1.342 . S
N323 N324 1.388 . S
N324 Co307 1.993 . S
N324 N323 1.388 . S
N324 C325 1.346 . S
C325 N324 1.346 . S
C325 C326 1.396 . S
C325 C335 1.510 . S
C326 C322 1.401 . S
C326 C325 1.396 . S
C327 C322 1.499 . S
C327 H328 0.959 . S
C327 H329 0.960 . S
C327 H330 0.961 . S
H328 C327 0.959 . S
H329 C327 0.960 . S
H330 C327 0.961 . S
O331 Co306 1.967 . S
O331 C339 1.258 . S
O332 Co307 1.941 . S
O332 C339 1.266 . S
H333 C335 0.959 . S
H334 C335 0.961 . S
C335 C325 1.510 . S
C335 H333 0.959 . S
C335 H334 0.961 . S
C335 H336 0.960 . S
H336 C335 0.960 . S
H337 N317 0.862 . S
O338 Co306 1.920 . S
O338 C311 1.289 . S
C339 O331 1.258 . S
C339 O332 1.266 . S
Co340 O343 1.970 . S
Co340 N357 1.989 . S
Co340 O365 1.967 . S
Co340 O372 1.920 . S
Co341 O344 1.966 . S
Co341 N350 2.022 . S
Co341 N358 1.993 . S
Co341 O366 1.941 . S
C342 O343 1.258 . S
C342 O344 1.263 . S
O343 Co340 1.970 . S
O343 C342 1.258 . S
O344 Co341 1.966 . S
O344 C342 1.263 . S
C345 O346 1.235 . S
C345 O372 1.289 . S
O346 C345 1.235 . S
C347 C349 1.400 . S
C347 N350 1.351 . S
C347 C352 1.501 . S
C348 C349 1.387 . S
C348 N351 1.341 . S
C349 C347 1.400 . S
C349 C348 1.387 . S
N350 Co341 2.022 . S
N350 C347 1.351 . S
N350 N351 1.365 . S
N351 C348 1.341 . S
N351 N350 1.365 . S
N351 H371 0.862 . S
C352 C347 1.501 . S
C352 H353 0.961 . S
C352 H354 0.961 . S
C352 H355 0.960 . S
H353 C352 0.961 . S
H354 C352 0.961 . S
H355 C352 0.960 . S
C356 N357 1.342 . S
C356 C360 1.401 . S
C356 C361 1.499 . S
N357 Co340 1.989 . S
N357 C356 1.342 . S
N357 N358 1.388 . S
N358 Co341 1.993 . S
N358 N357 1.388 . S
N358 C359 1.346 . S
C359 N358 1.346 . S
C359 C360 1.396 . S
C359 C369 1.510 . S
C360 C356 1.401 . S
C360 C359 1.396 . S
C361 C356 1.499 . S
C361 H362 0.959 . S
C361 H363 0.960 . S
C361 H364 0.961 . S
H362 C361 0.959 . S
H363 C361 0.960 . S
H364 C361 0.961 . S
O365 Co340 1.967 . S
O365 C373 1.258 . S
O366 Co341 1.941 . S
O366 C373 1.266 . S
H367 C369 0.959 . S
H368 C369 0.961 . S
C369 C359 1.510 . S
C369 H367 0.959 . S
C369 H368 0.961 . S
C369 H370 0.960 . S
H370 C369 0.960 . S
H371 N351 0.862 . S
O372 Co340 1.920 . S
O372 C345 1.289 . S
C373 O365 1.258 . S
C373 O366 1.266 . S
Co374 O377 1.970 . S
Co374 N391 1.989 . S
Co374 O399 1.967 . S
Co374 O406 1.920 . S
Co375 O378 1.966 . S
Co375 N384 2.022 . S
Co375 N392 1.993 . S
Co375 O400 1.941 . S
C376 O377 1.258 . S
C376 O378 1.263 . S
O377 Co374 1.970 . S
O377 C376 1.258 . S
O378 Co375 1.966 . S
O378 C376 1.263 . S
C379 O380 1.235 . S
C379 O406 1.289 . S
O380 C379 1.235 . S
C381 C383 1.400 . S
C381 N384 1.351 . S
C381 C386 1.501 . S
C382 C383 1.387 . S
C382 N385 1.341 . S
C383 C381 1.400 . S
C383 C382 1.387 . S
N384 Co375 2.022 . S
N384 C381 1.351 . S
N384 N385 1.365 . S
N385 C382 1.341 . S
N385 N384 1.365 . S
N385 H405 0.862 . S
C386 C381 1.501 . S
C386 H387 0.961 . S
C386 H388 0.961 . S
C386 H389 0.960 . S
H387 C386 0.961 . S
H388 C386 0.961 . S
H389 C386 0.960 . S
C390 N391 1.342 . S
C390 C394 1.401 . S
C390 C395 1.499 . S
N391 Co374 1.989 . S
N391 C390 1.342 . S
N391 N392 1.388 . S
N392 Co375 1.993 . S
N392 N391 1.388 . S
N392 C393 1.346 . S
C393 N392 1.346 . S
C393 C394 1.396 . S
C393 C403 1.510 . S
C394 C390 1.401 . S
C394 C393 1.396 . S
C395 C390 1.499 . S
C395 H396 0.959 . S
C395 H397 0.960 . S
C395 H398 0.961 . S
H396 C395 0.959 . S
H397 C395 0.960 . S
H398 C395 0.961 . S
O399 Co374 1.967 . S
O399 C407 1.258 . S
O400 Co375 1.941 . S
O400 C407 1.266 . S
H401 C403 0.959 . S
H402 C403 0.961 . S
C403 C393 1.510 . S
C403 H401 0.959 . S
C403 H402 0.961 . S
C403 H404 0.960 . S
H404 C403 0.960 . S
H405 N385 0.862 . S
O406 Co374 1.920 . S
O406 C379 1.289 . S
C407 O399 1.258 . S
C407 O400 1.266 . S
H408 C426 0.951 . S
H409 C428 0.951 . S
H410 C430 0.950 . S
H411 C431 0.950 . S
H412 C433 0.950 . S
H413 C436 0.950 . S
H414 C437 0.950 . S
H415 C439 0.950 . S
H416 C440 0.950 . S
H417 C441 0.951 . S
H418 C443 0.951 . S
H419 C445 0.950 . S
H420 C446 0.950 . S
H421 C448 0.950 . S
H422 C451 0.950 . S
H423 C452 0.950 . S
H424 C454 0.950 1_554 S
H425 C455 0.950 . S
C426 H408 0.951 . S
C426 C427 1.366 . S
C426 C428 1.388 . S
C427 C426 1.366 . S
C427 C431 1.385 . S
C428 H409 0.951 . S
C428 C426 1.388 . S
C428 C429 1.366 . S
C429 C428 1.366 . S
C429 C430 1.414 . S
C429 C432 1.499 . S
C430 H410 0.950 . S
C430 C429 1.414 . S
C430 C431 1.374 . S
C431 H411 0.950 . S
C431 C427 1.385 . S
C431 C430 1.374 . S
C432 C429 1.499 . S
C432 C433 1.373 . S
C432 C434 1.389 . S
C433 H412 0.950 . S
C433 C432 1.373 . S
C433 C449 1.377 . S
C434 C432 1.389 . S
C434 C435 1.524 . S
C434 C448 1.377 . S
C435 C434 1.524 . S
C435 C436 1.397 . S
C435 C440 1.363 . S
C436 H413 0.950 . S
C436 C435 1.397 . S
C436 C437 1.334 . S
C437 H414 0.950 . S
C437 C436 1.334 . S
C437 C438 1.287 . S
C438 C437 1.287 . S
C438 C439 1.524 . S
C438 H457 0.913 . S
C439 H415 0.950 . S
C439 C438 1.524 . S
C439 C440 1.415 . S
C440 H416 0.950 . S
C440 C435 1.363 . S
C440 C439 1.415 . S
C441 H417 0.951 . S
C441 C442 1.366 . S
C441 C443 1.388 . S
C442 C441 1.366 . S
C442 C446 1.385 . S
C443 H418 0.951 . S
C443 C441 1.388 . S
C443 C444 1.366 . S
C444 C443 1.366 . S
C444 C445 1.414 . S
C444 C447 1.499 . S
C445 H419 0.950 . S
C445 C444 1.414 . S
C445 C446 1.374 . S
C446 H420 0.950 . S
C446 C442 1.385 . S
C446 C445 1.374 . S
C447 C444 1.499 . S
C447 C448 1.373 . S
C447 C449 1.389 . S
C448 H421 0.950 . S
C448 C434 1.377 . S
C448 C447 1.373 . S
C449 C433 1.377 . S
C449 C447 1.389 . S
C449 C450 1.524 . S
C450 C449 1.524 . S
C450 C451 1.397 . S
C450 C455 1.363 . S
C451 H422 0.950 . S
C451 C450 1.397 . S
C451 C452 1.334 . S
C452 H423 0.950 . S
C452 C451 1.334 . S
C452 C453 1.287 . S
C453 C452 1.287 . S
C453 C454 1.524 . S
C453 H456 0.999 1_556 S
C454 H424 0.950 1_556 S
C454 C453 1.524 . S
C454 C455 1.415 . S
C455 H425 0.950 . S
C455 C450 1.363 . S
C455 C454 1.415 . S
H456 C453 0.999 1_554 S
H457 C438 0.913 . S
H458 C476 0.951 . S
H459 C478 0.951 . S
H460 C480 0.950 . S
H461 C481 0.950 . S
H462 C483 0.950 . S
H463 C486 0.950 . S
H464 C487 0.950 . S
H465 C489 0.950 1_556 S
H466 C490 0.950 . S
H467 C491 0.951 . S
H468 C493 0.951 . S
H469 C495 0.950 . S
H470 C496 0.950 . S
H471 C498 0.950 . S
H472 C501 0.950 . S
H473 C502 0.950 . S
H474 C504 0.950 . S
H475 C505 0.950 . S
C476 H458 0.951 . S
C476 C477 1.366 . S
C476 C478 1.388 . S
C477 C476 1.366 . S
C477 C481 1.385 . S
C478 H459 0.951 . S
C478 C476 1.388 . S
C478 C479 1.366 . S
C479 C478 1.366 . S
C479 C480 1.414 . S
C479 C482 1.499 . S
C480 H460 0.950 . S
C480 C479 1.414 . S
C480 C481 1.374 . S
C481 H461 0.950 . S
C481 C477 1.385 . S
C481 C480 1.374 . S
C482 C479 1.499 . S
C482 C483 1.373 . S
C482 C484 1.389 . S
C483 H462 0.950 . S
C483 C482 1.373 . S
C483 C499 1.377 . S
C484 C482 1.389 . S
C484 C485 1.524 . S
C484 C498 1.377 . S
C485 C484 1.524 . S
C485 C486 1.397 . S
C485 C490 1.363 . S
C486 H463 0.950 . S
C486 C485 1.397 . S
C486 C487 1.334 . S
C487 H464 0.950 . S
C487 C486 1.334 . S
C487 C488 1.287 . S
C488 C487 1.287 . S
C488 C489 1.524 . S
C488 H507 0.913 1_554 S
C489 H465 0.950 1_554 S
C489 C488 1.524 . S
C489 C490 1.415 . S
C490 H466 0.950 . S
C490 C485 1.363 . S
C490 C489 1.415 . S
C491 H467 0.951 . S
C491 C492 1.366 . S
C491 C493 1.388 1_655 S
C492 C491 1.366 . S
C492 C496 1.385 . S
C493 H468 0.951 . S
C493 C491 1.388 1_455 S
C493 C494 1.366 . S
C494 C493 1.366 . S
C494 C495 1.414 1_455 S
C494 C497 1.499 . S
C495 H469 0.950 . S
C495 C494 1.414 1_655 S
C495 C496 1.374 . S
C496 H470 0.950 . S
C496 C492 1.385 . S
C496 C495 1.374 . S
C497 C494 1.499 . S
C497 C498 1.373 . S
C497 C499 1.389 . S
C498 H471 0.950 . S
C498 C484 1.377 . S
C498 C497 1.373 . S
C499 C483 1.377 . S
C499 C497 1.389 . S
C499 C500 1.524 . S
C500 C499 1.524 . S
C500 C501 1.397 . S
C500 C505 1.363 . S
C501 H472 0.950 . S
C501 C500 1.397 . S
C501 C502 1.334 . S
C502 H473 0.950 . S
C502 C501 1.334 . S
C502 C503 1.287 . S
C503 C502 1.287 . S
C503 C504 1.524 . S
C503 H506 0.999 . S
C504 H474 0.950 . S
C504 C503 1.524 . S
C504 C505 1.415 . S
C505 H475 0.950 . S
C505 C500 1.363 . S
C505 C504 1.415 . S
H506 C503 0.999 . S
H507 C488 0.913 1_556 S
H508 C526 0.951 . S
H509 C528 0.951 . S
H510 C530 0.950 . S
H511 C531 0.950 . S
H512 C533 0.950 . S
H513 C536 0.950 . S
H514 C537 0.950 . S
H515 C539 0.950 . S
H516 C540 0.950 . S
H517 C541 0.951 . S
H518 C543 0.951 . S
H519 C545 0.950 . S
H520 C546 0.950 . S
H521 C548 0.950 . S
H522 C551 0.950 . S
H523 C552 0.950 . S
H524 C554 0.950 . S
H525 C555 0.950 . S
C526 H508 0.951 . S
C526 C527 1.366 . S
C526 C528 1.388 . S
C527 C526 1.366 . S
C527 C531 1.385 . S
C528 H509 0.951 . S
C528 C526 1.388 . S
C528 C529 1.366 . S
C529 C528 1.366 . S
C529 C530 1.414 . S
C529 C532 1.499 . S
C530 H510 0.950 . S
C530 C529 1.414 . S
C530 C531 1.374 . S
C531 H511 0.950 . S
C531 C527 1.385 . S
C531 C530 1.374 . S
C532 C529 1.499 . S
C532 C533 1.373 . S
C532 C534 1.389 . S
C533 H512 0.950 . S
C533 C532 1.373 . S
C533 C549 1.377 . S
C534 C532 1.389 . S
C534 C535 1.524 . S
C534 C548 1.377 . S
C535 C534 1.524 . S
C535 C536 1.397 . S
C535 C540 1.363 . S
C536 H513 0.950 . S
C536 C535 1.397 . S
C536 C537 1.334 . S
C537 H514 0.950 . S
C537 C536 1.334 . S
C537 C538 1.287 . S
C538 C537 1.287 . S
C538 C539 1.524 . S
C538 H557 0.913 . S
C539 H515 0.950 . S
C539 C538 1.524 . S
C539 C540 1.415 . S
C540 H516 0.950 . S
C540 C535 1.363 . S
C540 C539 1.415 . S
C541 H517 0.951 . S
C541 C542 1.366 . S
C541 C543 1.388 . S
C542 C541 1.366 . S
C542 C546 1.385 . S
C543 H518 0.951 . S
C543 C541 1.388 . S
C543 C544 1.366 1_565 S
C544 C543 1.366 1_545 S
C544 C545 1.414 . S
C544 C547 1.499 . S
C545 H519 0.950 . S
C545 C544 1.414 . S
C545 C546 1.374 1_545 S
C546 H520 0.950 . S
C546 C542 1.385 . S
C546 C545 1.374 1_565 S
C547 C544 1.499 . S
C547 C548 1.373 . S
C547 C549 1.389 . S
C548 H521 0.950 . S
C548 C534 1.377 . S
C548 C547 1.373 . S
C549 C533 1.377 . S
C549 C547 1.389 . S
C549 C550 1.524 . S
C550 C549 1.524 . S
C550 C551 1.397 . S
C550 C555 1.363 . S
C551 H522 0.950 . S
C551 C550 1.397 . S
C551 C552 1.334 1_545 S
C552 H523 0.950 . S
C552 C551 1.334 1_565 S
C552 C553 1.287 . S
C553 C552 1.287 . S
C553 C554 1.524 . S
C553 H556 0.999 . S
C554 H524 0.950 . S
C554 C553 1.524 . S
C554 C555 1.415 1_565 S
C555 H525 0.950 . S
C555 C550 1.363 . S
C555 C554 1.415 1_545 S
H556 C553 0.999 . S
H557 C538 0.913 . S
H558 C576 0.951 . S
H559 C578 0.951 . S
H560 C580 0.950 . S
H561 C581 0.950 . S
H562 C583 0.950 . S
H563 C586 0.950 . S
H564 C587 0.950 . S
H565 C589 0.950 . S
H566 C590 0.950 . S
H567 C591 0.951 . S
H568 C593 0.951 . S
H569 C595 0.950 . S
H570 C596 0.950 . S
H571 C598 0.950 . S
H572 C601 0.950 . S
H573 C602 0.950 . S
H574 C604 0.950 . S
H575 C605 0.950 . S
C576 H558 0.951 . S
C576 C577 1.366 . S
C576 C578 1.388 . S
C577 C576 1.366 . S
C577 C581 1.385 . S
C578 H559 0.951 . S
C578 C576 1.388 . S
C578 C579 1.366 . S
C579 C578 1.366 . S
C579 C580 1.414 . S
C579 C582 1.499 . S
C580 H560 0.950 . S
C580 C579 1.414 . S
C580 C581 1.374 . S
C581 H561 0.950 . S
C581 C577 1.385 . S
C581 C580 1.374 . S
C582 C579 1.499 . S
C582 C583 1.373 . S
C582 C584 1.389 . S
C583 H562 0.950 . S
C583 C582 1.373 . S
C583 C599 1.377 . S
C584 C582 1.389 . S
C584 C585 1.524 . S
C584 C598 1.377 . S
C585 C584 1.524 . S
C585 C586 1.397 . S
C585 C590 1.363 . S
C586 H563 0.950 . S
C586 C585 1.397 . S
C586 C587 1.334 . S
C587 H564 0.950 . S
C587 C586 1.334 . S
C587 C588 1.287 . S
C588 C587 1.287 . S
C588 C589 1.524 . S
C588 H607 0.913 . S
C589 H565 0.950 . S
C589 C588 1.524 . S
C589 C590 1.415 . S
C590 H566 0.950 . S
C590 C585 1.363 . S
C590 C589 1.415 . S
C591 H567 0.951 . S
C591 C592 1.366 . S
C591 C593 1.388 . S
C592 C591 1.366 . S
C592 C596 1.385 . S
C593 H568 0.951 . S
C593 C591 1.388 . S
C593 C594 1.366 . S
C594 C593 1.366 . S
C594 C595 1.414 . S
C594 C597 1.499 . S
C595 H569 0.950 . S
C595 C594 1.414 . S
C595 C596 1.374 . S
C596 H570 0.950 . S
C596 C592 1.385 . S
C596 C595 1.374 . S
C597 C594 1.499 . S
C597 C598 1.373 . S
C597 C599 1.389 . S
C598 H571 0.950 . S
C598 C584 1.377 . S
C598 C597 1.373 . S
C599 C583 1.377 . S
C599 C597 1.389 . S
C599 C600 1.524 . S
C600 C599 1.524 . S
C600 C601 1.397 . S
C600 C605 1.363 . S
C601 H572 0.950 . S
C601 C600 1.397 . S
C601 C602 1.334 . S
C602 H573 0.950 . S
C602 C601 1.334 . S
C602 C603 1.287 . S
C603 C602 1.287 . S
C603 C604 1.524 . S
C603 H606 0.999 . S
C604 H574 0.950 . S
C604 C603 1.524 . S
C604 C605 1.415 . S
C605 H575 0.950 . S
C605 C600 1.363 . S
C605 C604 1.415 . S
H606 C603 0.999 . S
H607 C588 0.913 . S
H608 C626 0.951 . S
H609 C628 0.951 . S
H610 C630 0.950 . S
H611 C631 0.950 . S
H612 C633 0.950 . S
H613 C636 0.950 . S
H614 C637 0.950 1_455 S
H615 C639 0.950 . S
H616 C640 0.950 . S
H617 C641 0.951 . S
H618 C643 0.951 . S
H619 C645 0.950 . S
H620 C646 0.950 . S
H621 C648 0.950 . S
H622 C651 0.950 . S
H623 C652 0.950 . S
H624 C654 0.950 . S
H625 C655 0.950 . S
C626 H608 0.951 . S
C626 C627 1.366 . S
C626 C628 1.388 1_455 S
C627 C626 1.366 . S
C627 C631 1.385 . S
C628 H609 0.951 . S
C628 C626 1.388 1_655 S
C628 C629 1.366 . S
C629 C628 1.366 . S
C629 C630 1.414 1_655 S
C629 C632 1.499 . S
C630 H610 0.950 . S
C630 C629 1.414 1_455 S
C630 C631 1.374 . S
C631 H611 0.950 . S
C631 C627 1.385 . S
C631 C630 1.374 . S
C632 C629 1.499 . S
C632 C633 1.373 . S
C632 C634 1.389 . S
C633 H612 0.950 . S
C633 C632 1.373 . S
C633 C649 1.377 . S
C634 C632 1.389 . S
C634 C635 1.524 . S
C634 C648 1.377 . S
C635 C634 1.524 . S
C635 C636 1.397 . S
C635 C640 1.363 . S
C636 H613 0.950 . S
C636 C635 1.397 . S
C636 C637 1.334 . S
C637 H614 0.950 1_655 S
C637 C636 1.334 . S
C637 C638 1.287 . S
C638 C637 1.287 . S
C638 C639 1.524 . S
C638 H657 0.913 . S
C639 H615 0.950 . S
C639 C638 1.524 . S
C639 C640 1.415 . S
C640 H616 0.950 . S
C640 C635 1.363 . S
C640 C639 1.415 . S
C641 H617 0.951 . S
C641 C642 1.366 . S
C641 C643 1.388 . S
C642 C641 1.366 . S
C642 C646 1.385 . S
C643 H618 0.951 . S
C643 C641 1.388 . S
C643 C644 1.366 . S
C644 C643 1.366 . S
C644 C645 1.414 . S
C644 C647 1.499 . S
C645 H619 0.950 . S
C645 C644 1.414 . S
C645 C646 1.374 . S
C646 H620 0.950 . S
C646 C642 1.385 . S
C646 C645 1.374 . S
C647 C644 1.499 . S
C647 C648 1.373 . S
C647 C649 1.389 . S
C648 H621 0.950 . S
C648 C634 1.377 . S
C648 C647 1.373 . S
C649 C633 1.377 . S
C649 C647 1.389 . S
C649 C650 1.524 . S
C650 C649 1.524 . S
C650 C651 1.397 . S
C650 C655 1.363 . S
C651 H622 0.950 . S
C651 C650 1.397 . S
C651 C652 1.334 . S
C652 H623 0.950 . S
C652 C651 1.334 . S
C652 C653 1.287 . S
C653 C652 1.287 . S
C653 C654 1.524 . S
C653 H656 0.999 . S
C654 H624 0.950 . S
C654 C653 1.524 . S
C654 C655 1.415 . S
C655 H625 0.950 . S
C655 C650 1.363 . S
C655 C654 1.415 . S
H656 C653 0.999 . S
H657 C638 0.913 . S
H658 C676 0.951 . S
H659 C678 0.951 . S
H660 C680 0.950 . S
H661 C681 0.950 . S
H662 C683 0.950 . S
H663 C686 0.950 . S
H664 C687 0.950 . S
H665 C689 0.950 . S
H666 C690 0.950 . S
H667 C691 0.951 . S
H668 C693 0.951 . S
H669 C695 0.950 . S
H670 C696 0.950 . S
H671 C698 0.950 . S
H672 C701 0.950 . S
H673 C702 0.950 . S
H674 C704 0.950 . S
H675 C705 0.950 . S
C676 H658 0.951 . S
C676 C677 1.366 . S
C676 C678 1.388 . S
C677 C676 1.366 . S
C677 C681 1.385 . S
C678 H659 0.951 . S
C678 C676 1.388 . S
C678 C679 1.366 . S
C679 C678 1.366 . S
C679 C680 1.414 . S
C679 C682 1.499 . S
C680 H660 0.950 . S
C680 C679 1.414 . S
C680 C681 1.374 . S
C681 H661 0.950 . S
C681 C677 1.385 . S
C681 C680 1.374 . S
C682 C679 1.499 . S
C682 C683 1.373 . S
C682 C684 1.389 . S
C683 H662 0.950 . S
C683 C682 1.373 . S
C683 C699 1.377 . S
C684 C682 1.389 . S
C684 C685 1.524 . S
C684 C698 1.377 . S
C685 C684 1.524 . S
C685 C686 1.397 . S
C685 C690 1.363 . S
C686 H663 0.950 . S
C686 C685 1.397 . S
C686 C687 1.334 . S
C687 H664 0.950 . S
C687 C686 1.334 . S
C687 C688 1.287 . S
C688 C687 1.287 . S
C688 C689 1.524 . S
C688 H707 0.913 . S
C689 H665 0.950 . S
C689 C688 1.524 . S
C689 C690 1.415 . S
C690 H666 0.950 . S
C690 C685 1.363 . S
C690 C689 1.415 . S
C691 H667 0.951 . S
C691 C692 1.366 . S
C691 C693 1.388 1_545 S
C692 C691 1.366 . S
C692 C696 1.385 . S
C693 H668 0.951 . S
C693 C691 1.388 1_565 S
C693 C694 1.366 . S
C694 C693 1.366 . S
C694 C695 1.414 1_565 S
C694 C697 1.499 . S
C695 H669 0.950 . S
C695 C694 1.414 1_545 S
C695 C696 1.374 . S
C696 H670 0.950 . S
C696 C692 1.385 . S
C696 C695 1.374 . S
C697 C694 1.499 . S
C697 C698 1.373 . S
C697 C699 1.389 . S
C698 H671 0.950 . S
C698 C684 1.377 . S
C698 C697 1.373 . S
C699 C683 1.377 . S
C699 C697 1.389 . S
C699 C700 1.524 . S
C700 C699 1.524 . S
C700 C701 1.397 . S
C700 C705 1.363 . S
C701 H672 0.950 . S
C701 C700 1.397 . S
C701 C702 1.334 . S
C702 H673 0.950 . S
C702 C701 1.334 . S
C702 C703 1.287 . S
C703 C702 1.287 . S
C703 C704 1.524 . S
C703 H706 0.999 . S
C704 H674 0.950 . S
C704 C703 1.524 . S
C704 C705 1.415 . S
C705 H675 0.950 . S
C705 C700 1.363 . S
C705 C704 1.415 . S
H706 C703 0.999 . S
H707 C688 0.913 . S
H708 C726 0.951 . S
H709 C728 0.951 . S
H710 C730 0.950 . S
H711 C731 0.950 . S
H712 C733 0.950 . S
H713 C736 0.950 . S
H714 C737 0.920 1_554 S
H715 C739 0.950 . S
H716 C740 0.950 . S
H717 C741 0.951 . S
H718 C743 0.951 . S
H719 C745 0.950 . S
H720 C746 0.950 . S
H721 C748 0.950 . S
H722 C751 0.950 . S
H723 C752 0.950 . S
H724 C754 0.950 . S
H725 C755 0.950 . S
C726 H708 0.951 . S
C726 C727 1.366 . S
C726 C728 1.388 . S
C727 C726 1.366 . S
C727 C731 1.385 . S
C728 H709 0.951 . S
C728 C726 1.388 . S
C728 C729 1.366 . S
C729 C728 1.366 . S
C729 C730 1.414 . S
C729 C732 1.499 . S
C730 H710 0.950 . S
C730 C729 1.414 . S
C730 C731 1.374 . S
C731 H711 0.950 . S
C731 C727 1.385 . S
C731 C730 1.374 . S
C732 C729 1.499 . S
C732 C733 1.373 . S
C732 C734 1.389 . S
C733 H712 0.950 . S
C733 C732 1.373 . S
C733 C749 1.377 . S
C734 C732 1.389 . S
C734 C735 1.524 . S
C734 C748 1.377 . S
C735 C734 1.524 . S
C735 C736 1.397 . S
C735 C740 1.363 . S
C736 H713 0.950 . S
C736 C735 1.397 . S
C736 C737 1.334 . S
C737 H714 0.920 1_556 S
C737 C736 1.334 . S
C737 C738 1.287 . S
C738 C737 1.287 . S
C738 C739 1.524 . S
C738 H757 0.913 . S
C739 H715 0.950 . S
C739 C738 1.524 . S
C739 C740 1.415 . S
C740 H716 0.950 . S
C740 C735 1.363 . S
C740 C739 1.415 . S
C741 H717 0.951 . S
C741 C742 1.366 . S
C741 C743 1.388 . S
C742 C741 1.366 . S
C742 C746 1.385 . S
C743 H718 0.951 . S
C743 C741 1.388 . S
C743 C744 1.366 . S
C744 C743 1.366 . S
C744 C745 1.414 . S
C744 C747 1.499 . S
C745 H719 0.950 . S
C745 C744 1.414 . S
C745 C746 1.374 . S
C746 H720 0.950 . S
C746 C742 1.385 . S
C746 C745 1.374 . S
C747 C744 1.499 . S
C747 C748 1.373 . S
C747 C749 1.389 . S
C748 H721 0.950 . S
C748 C734 1.377 . S
C748 C747 1.373 . S
C749 C733 1.377 . S
C749 C747 1.389 . S
C749 C750 1.524 . S
C750 C749 1.524 . S
C750 C751 1.397 . S
C750 C755 1.363 . S
C751 H722 0.950 . S
C751 C750 1.397 . S
C751 C752 1.334 . S
C752 H723 0.950 . S
C752 C751 1.334 . S
C752 C753 1.287 . S
C753 C752 1.287 . S
C753 C754 1.524 . S
C753 H756 0.999 . S
C754 H724 0.950 . S
C754 C753 1.524 . S
C754 C755 1.415 . S
C755 H725 0.950 . S
C755 C750 1.363 . S
C755 C754 1.415 . S
H756 C753 0.999 . S
H757 C738 0.913 . S
H758 C776 0.951 . S
H759 C778 0.951 . S
H760 C780 0.950 . S
H761 C781 0.950 . S
H762 C783 0.950 . S
H763 C786 0.950 . S
H764 C787 0.950 . S
H765 C789 0.950 1_556 S
H766 C790 0.950 . S
H767 C791 0.951 . S
H768 C793 0.951 . S
H769 C795 0.950 . S
H770 C796 0.950 . S
H771 C798 0.950 . S
H772 C801 0.950 1_455 S
H773 C802 0.950 . S
H774 C804 0.950 . S
H775 C805 0.950 . S
C776 H758 0.951 . S
C776 C777 1.366 . S
C776 C778 1.388 . S
C777 C776 1.366 . S
C777 C781 1.385 . S
C778 H759 0.951 . S
C778 C776 1.388 . S
C778 C779 1.366 . S
C779 C778 1.366 . S
C779 C780 1.414 . S
C779 C782 1.499 . S
C780 H760 0.950 . S
C780 C779 1.414 . S
C780 C781 1.374 . S
C781 H761 0.950 . S
C781 C777 1.385 . S
C781 C780 1.374 . S
C782 C779 1.499 . S
C782 C783 1.373 . S
C782 C784 1.389 . S
C783 H762 0.950 . S
C783 C782 1.373 . S
C783 C799 1.377 . S
C784 C782 1.389 . S
C784 C785 1.524 . S
C784 C798 1.377 . S
C785 C784 1.524 . S
C785 C786 1.397 . S
C785 C790 1.363 . S
C786 H763 0.950 . S
C786 C785 1.397 . S
C786 C787 1.334 . S
C787 H764 0.950 . S
C787 C786 1.334 . S
C787 C788 1.287 . S
C788 C787 1.287 . S
C788 C789 1.524 . S
C788 H807 0.913 . S
C789 H765 0.950 1_554 S
C789 C788 1.524 . S
C789 C790 1.415 . S
C790 H766 0.950 . S
C790 C785 1.363 . S
C790 C789 1.415 . S
C791 H767 0.951 . S
C791 C792 1.366 . S
C791 C793 1.388 . S
C792 C791 1.366 . S
C792 C796 1.385 . S
C793 H768 0.951 . S
C793 C791 1.388 . S
C793 C794 1.366 1_655 S
C794 C793 1.366 1_455 S
C794 C795 1.414 . S
C794 C797 1.499 . S
C795 H769 0.950 . S
C795 C794 1.414 . S
C795 C796 1.374 1_455 S
C796 H770 0.950 . S
C796 C792 1.385 . S
C796 C795 1.374 1_655 S
C797 C794 1.499 . S
C797 C798 1.373 . S
C797 C799 1.389 . S
C798 H771 0.950 . S
C798 C784 1.377 . S
C798 C797 1.373 . S
C799 C783 1.377 . S
C799 C797 1.389 . S
C799 C800 1.524 . S
C800 C799 1.524 . S
C800 C801 1.397 1_455 S
C800 C805 1.363 . S
C801 H772 0.950 1_655 S
C801 C800 1.397 1_655 S
C801 C802 1.334 . S
C802 H773 0.950 . S
C802 C801 1.334 . S
C802 C803 1.287 . S
C803 C802 1.287 . S
C803 C804 1.524 . S
C803 H806 0.999 . S
C804 H774 0.950 . S
C804 C803 1.524 . S
C804 C805 1.415 1_655 S
C805 H775 0.950 . S
C805 C800 1.363 . S
C805 C804 1.415 1_455 S
H806 C803 0.999 . S
H807 C788 0.913 . S
H808 C826 0.951 . S
H809 C828 0.951 . S
H810 C830 0.950 . S
H811 C831 0.950 . S
H812 C833 0.950 . S
H813 C836 0.950 . S
H814 C837 0.950 . S
H815 C839 0.950 . S
H816 C840 0.950 . S
H817 C841 0.951 . S
H818 C843 0.951 . S
H819 C845 0.950 . S
H820 C846 0.950 . S
H821 C848 0.950 . S
H822 C851 0.950 . S
H823 C852 0.950 . S
H824 C854 0.950 . S
H825 C855 0.950 . S
C826 H808 0.951 . S
C826 C827 1.366 . S
C826 C828 1.388 . S
C827 C826 1.366 . S
C827 C831 1.385 . S
C828 H809 0.951 . S
C828 C826 1.388 . S
C828 C829 1.366 . S
C829 C828 1.366 . S
C829 C830 1.414 . S
C829 C832 1.499 . S
C830 H810 0.950 . S
C830 C829 1.414 . S
C830 C831 1.374 . S
C831 H811 0.950 . S
C831 C827 1.385 . S
C831 C830 1.374 . S
C832 C829 1.499 . S
C832 C833 1.373 . S
C832 C834 1.389 . S
C833 H812 0.950 . S
C833 C832 1.373 . S
C833 C849 1.377 . S
C834 C832 1.389 . S
C834 C835 1.524 . S
C834 C848 1.377 . S
C835 C834 1.524 . S
C835 C836 1.397 . S
C835 C840 1.363 . S
C836 H813 0.950 . S
C836 C835 1.397 . S
C836 C837 1.334 . S
C837 H814 0.950 . S
C837 C836 1.334 . S
C837 C838 1.287 . S
C838 C837 1.287 . S
C838 C839 1.524 . S
C838 H857 0.913 . S
C839 H815 0.950 . S
C839 C838 1.524 . S
C839 C840 1.415 . S
C840 H816 0.950 . S
C840 C835 1.363 . S
C840 C839 1.415 . S
C841 H817 0.951 . S
C841 C842 1.366 . S
C841 C843 1.388 . S
C842 C841 1.366 . S
C842 C846 1.385 . S
C843 H818 0.951 . S
C843 C841 1.388 . S
C843 C844 1.366 1_565 S
C844 C843 1.366 1_545 S
C844 C845 1.414 . S
C844 C847 1.499 . S
C845 H819 0.950 . S
C845 C844 1.414 . S
C845 C846 1.374 1_545 S
C846 H820 0.950 . S
C846 C842 1.385 . S
C846 C845 1.374 1_565 S
C847 C844 1.499 . S
C847 C848 1.373 . S
C847 C849 1.389 . S
C848 H821 0.950 . S
C848 C834 1.377 . S
C848 C847 1.373 . S
C849 C833 1.377 . S
C849 C847 1.389 . S
C849 C850 1.524 . S
C850 C849 1.524 . S
C850 C851 1.397 . S
C850 C855 1.363 . S
C851 H822 0.950 . S
C851 C850 1.397 . S
C851 C852 1.334 1_545 S
C852 H823 0.950 . S
C852 C851 1.334 1_565 S
C852 C853 1.287 . S
C853 C852 1.287 . S
C853 C854 1.524 . S
C853 H856 0.999 . S
C854 H824 0.950 . S
C854 C853 1.524 . S
C854 C855 1.415 1_565 S
C855 H825 0.950 . S
C855 C850 1.363 . S
C855 C854 1.415 1_545 S
H856 C853 0.999 . S
H857 C838 0.913 . S
H858 C876 0.951 . S
H859 C878 0.951 . S
H860 C880 0.950 . S
H861 C881 0.950 . S
H862 C883 0.950 . S
H863 C886 0.950 . S
H864 C887 0.950 . S
H865 C889 0.950 . S
H866 C890 0.950 . S
H867 C891 0.951 . S
H868 C893 0.951 . S
H869 C895 0.950 . S
H870 C896 0.950 . S
H871 C898 0.950 . S
H872 C901 0.950 . S
H873 C902 0.950 . S
H874 C904 0.950 . S
H875 C905 0.950 . S
C876 H858 0.951 . S
C876 C877 1.366 . S
C876 C878 1.388 . S
C877 C876 1.366 . S
C877 C881 1.385 . S
C878 H859 0.951 . S
C878 C876 1.388 . S
C878 C879 1.366 . S
C879 C878 1.366 . S
C879 C880 1.414 . S
C879 C882 1.499 . S
C880 H860 0.950 . S
C880 C879 1.414 . S
C880 C881 1.374 . S
C881 H861 0.950 . S
C881 C877 1.385 . S
C881 C880 1.374 . S
C882 C879 1.499 . S
C882 C883 1.373 . S
C882 C884 1.389 . S
C883 H862 0.950 . S
C883 C882 1.373 . S
C883 C899 1.377 . S
C884 C882 1.389 . S
C884 C885 1.524 . S
C884 C898 1.377 . S
C885 C884 1.524 . S
C885 C886 1.397 . S
C885 C890 1.363 . S
C886 H863 0.950 . S
C886 C885 1.397 . S
C886 C887 1.334 . S
C887 H864 0.950 . S
C887 C886 1.334 . S
C887 C888 1.287 . S
C888 C887 1.287 . S
C888 C889 1.524 . S
C888 H907 0.913 . S
C889 H865 0.950 . S
C889 C888 1.524 . S
C889 C890 1.415 . S
C890 H866 0.950 . S
C890 C885 1.363 . S
C890 C889 1.415 . S
C891 H867 0.951 . S
C891 C892 1.366 . S
C891 C893 1.388 . S
C892 C891 1.366 . S
C892 C896 1.385 . S
C893 H868 0.951 . S
C893 C891 1.388 . S
C893 C894 1.366 . S
C894 C893 1.366 . S
C894 C895 1.414 . S
C894 C897 1.499 . S
C895 H869 0.950 . S
C895 C894 1.414 . S
C895 C896 1.374 . S
C896 H870 0.950 . S
C896 C892 1.385 . S
C896 C895 1.374 . S
C897 C894 1.499 . S
C897 C898 1.373 . S
C897 C899 1.389 . S
C898 H871 0.950 . S
C898 C884 1.377 . S
C898 C897 1.373 . S
C899 C883 1.377 . S
C899 C897 1.389 . S
C899 C900 1.524 . S
C900 C899 1.524 . S
C900 C901 1.397 . S
C900 C905 1.363 . S
C901 H872 0.950 . S
C901 C900 1.397 . S
C901 C902 1.334 . S
C902 H873 0.950 . S
C902 C901 1.334 . S
C902 C903 1.287 . S
C903 C902 1.287 . S
C903 C904 1.524 . S
C903 H906 0.999 . S
C904 H874 0.950 . S
C904 C903 1.524 . S
C904 C905 1.415 . S
C905 H875 0.950 . S
C905 C900 1.363 . S
C905 C904 1.415 . S
H906 C903 0.999 . S
H907 C888 0.913 . S
H908 C926 0.951 . S
H909 C928 0.951 . S
H910 C930 0.950 . S
H911 C931 0.950 . S
H912 C933 0.950 . S
H913 C936 0.950 . S
H914 C937 0.950 . S
H915 C939 0.950 . S
H916 C940 0.950 . S
H917 C941 0.951 . S
H918 C943 0.951 . S
H919 C945 0.950 . S
H920 C946 0.950 . S
H921 C948 0.950 . S
H922 C951 0.950 . S
H923 C952 0.950 . S
H924 C954 0.950 . S
H925 C955 0.950 . S
C926 H908 0.951 . S
C926 C927 1.366 . S
C926 C928 1.388 . S
C927 C926 1.366 . S
C927 C931 1.385 . S
C928 H909 0.951 . S
C928 C926 1.388 . S
C928 C929 1.366 . S
C929 C928 1.366 . S
C929 C930 1.414 . S
C929 C932 1.499 . S
C930 H910 0.950 . S
C930 C929 1.414 . S
C930 C931 1.374 . S
C931 H911 0.950 . S
C931 C927 1.385 . S
C931 C930 1.374 . S
C932 C929 1.499 . S
C932 C933 1.373 . S
C932 C934 1.389 . S
C933 H912 0.950 . S
C933 C932 1.373 . S
C933 C949 1.377 . S
C934 C932 1.389 . S
C934 C935 1.524 . S
C934 C948 1.377 . S
C935 C934 1.524 . S
C935 C936 1.397 . S
C935 C940 1.363 . S
C936 H913 0.950 . S
C936 C935 1.397 . S
C936 C937 1.334 . S
C937 H914 0.950 . S
C937 C936 1.334 . S
C937 C938 1.287 . S
C938 C937 1.287 . S
C938 C939 1.524 . S
C938 H957 0.913 . S
C939 H915 0.950 . S
C939 C938 1.524 . S
C939 C940 1.415 . S
C940 H916 0.950 . S
C940 C935 1.363 . S
C940 C939 1.415 . S
C941 H917 0.951 . S
C941 C942 1.366 . S
C941 C943 1.388 1_455 S
C942 C941 1.366 . S
C942 C946 1.385 . S
C943 H918 0.951 . S
C943 C941 1.388 1_655 S
C943 C944 1.366 . S
C944 C943 1.366 . S
C944 C945 1.414 1_655 S
C944 C947 1.499 . S
C945 H919 0.950 . S
C945 C944 1.414 1_455 S
C945 C946 1.374 . S
C946 H920 0.950 . S
C946 C942 1.385 . S
C946 C945 1.374 . S
C947 C944 1.499 . S
C947 C948 1.373 . S
C947 C949 1.389 . S
C948 H921 0.950 . S
C948 C934 1.377 . S
C948 C947 1.373 . S
C949 C933 1.377 . S
C949 C947 1.389 . S
C949 C950 1.524 . S
C950 C949 1.524 . S
C950 C951 1.397 . S
C950 C955 1.363 . S
C951 H922 0.950 . S
C951 C950 1.397 . S
C951 C952 1.334 . S
C952 H923 0.950 . S
C952 C951 1.334 . S
C952 C953 1.287 . S
C953 C952 1.287 . S
C953 C954 1.524 . S
C953 H956 0.999 . S
C954 H924 0.950 . S
C954 C953 1.524 . S
C954 C955 1.415 . S
C955 H925 0.950 . S
C955 C950 1.363 . S
C955 C954 1.415 . S
H956 C953 0.999 . S
H957 C938 0.913 . S
H958 C976 0.951 . S
H959 C978 0.951 . S
H960 C980 0.950 . S
H961 C981 0.950 . S
H962 C983 0.950 . S
H963 C986 0.950 . S
H964 C987 0.950 . S
H965 C989 0.950 . S
H966 C990 0.950 . S
H967 C991 0.951 . S
H968 C993 0.951 1_565 S
H969 C995 0.950 . S
H970 C996 0.950 . S
H971 C998 0.950 . S
H972 C1001 0.950 . S
H973 C1002 0.950 . S
H974 C1004 0.950 . S
H975 C1005 0.950 . S
C976 H958 0.951 . S
C976 C977 1.366 . S
C976 C978 1.388 . S
C977 C976 1.366 . S
C977 C981 1.385 . S
C978 H959 0.951 . S
C978 C976 1.388 . S
C978 C979 1.366 . S
C979 C978 1.366 . S
C979 C980 1.414 . S
C979 C982 1.499 . S
C980 H960 0.950 . S
C980 C979 1.414 . S
C980 C981 1.374 . S
C981 H961 0.950 . S
C981 C977 1.385 . S
C981 C980 1.374 . S
C982 C979 1.499 . S
C982 C983 1.373 . S
C982 C984 1.389 . S
C983 H962 0.950 . S
C983 C982 1.373 . S
C983 C999 1.377 . S
C984 C982 1.389 . S
C984 C985 1.524 . S
C984 C998 1.377 . S
C985 C984 1.524 . S
C985 C986 1.397 . S
C985 C990 1.363 . S
C986 H963 0.950 . S
C986 C985 1.397 . S
C986 C987 1.334 . S
C987 H964 0.950 . S
C987 C986 1.334 . S
C987 C988 1.287 . S
C988 C987 1.287 . S
C988 C989 1.524 . S
C988 H1007 0.913 . S
C989 H965 0.950 . S
C989 C988 1.524 . S
C989 C990 1.415 . S
C990 H966 0.950 . S
C990 C985 1.363 . S
C990 C989 1.415 . S
C991 H967 0.951 . S
C991 C992 1.366 . S
C991 C993 1.388 . S
C992 C991 1.366 . S
C992 C996 1.385 . S
C993 H968 0.951 1_545 S
C993 C991 1.388 . S
C993 C994 1.366 1_545 S
C994 C993 1.366 1_565 S
C994 C995 1.414 1_565 S
C994 C997 1.499 . S
C995 H969 0.950 . S
C995 C994 1.414 1_545 S
C995 C996 1.374 . S
C996 H970 0.950 . S
C996 C992 1.385 . S
C996 C995 1.374 . S
C997 C994 1.499 . S
C997 C998 1.373 . S
C997 C999 1.389 . S
C998 H971 0.950 . S
C998 C984 1.377 . S
C998 C997 1.373 . S
C999 C983 1.377 . S
C999 C997 1.389 . S
C999 C1000 1.524 . S
C1000 C999 1.524 . S
C1000 C1001 1.397 1_565 S
C1000 C1005 1.363 . S
C1001 H972 0.950 . S
C1001 C1000 1.397 1_545 S
C1001 C1002 1.334 . S
C1002 H973 0.950 . S
C1002 C1001 1.334 . S
C1002 C1003 1.287 . S
C1003 C1002 1.287 . S
C1003 C1004 1.524 1_545 S
C1003 H1006 0.999 . S
C1004 H974 0.950 . S
C1004 C1003 1.524 1_565 S
C1004 C1005 1.415 . S
C1005 H975 0.950 . S
C1005 C1000 1.363 . S
C1005 C1004 1.415 . S
H1006 C1003 0.999 . S
H1007 C988 0.913 . S
H1008 C1026 0.951 . S
H1009 C1028 0.951 . S
H1010 C1030 0.950 . S
H1011 C1031 0.950 . S
H1012 C1033 0.950 . S
H1013 C1036 0.950 . S
H1014 C1037 0.950 . S
H1015 C1039 0.950 . S
H1016 C1040 0.950 . S
H1017 C1041 0.951 . S
H1018 C1043 0.951 . S
H1019 C1045 0.950 . S
H1020 C1046 0.950 . S
H1021 C1048 0.950 . S
H1022 C1051 0.950 . S
H1023 C1052 0.950 . S
H1024 C1054 0.950 . S
H1025 C1055 0.950 . S
C1026 H1008 0.951 . S
C1026 C1027 1.366 . S
C1026 C1028 1.388 . S
C1027 C1026 1.366 . S
C1027 C1031 1.385 . S
C1028 H1009 0.951 . S
C1028 C1026 1.388 . S
C1028 C1029 1.366 . S
C1029 C1028 1.366 . S
C1029 C1030 1.414 . S
C1029 C1032 1.499 . S
C1030 H1010 0.950 . S
C1030 C1029 1.414 . S
C1030 C1031 1.374 . S
C1031 H1011 0.950 . S
C1031 C1027 1.385 . S
C1031 C1030 1.374 . S
C1032 C1029 1.499 . S
C1032 C1033 1.373 . S
C1032 C1034 1.389 . S
C1033 H1012 0.950 . S
C1033 C1032 1.373 . S
C1033 C1049 1.377 . S
C1034 C1032 1.389 . S
C1034 C1035 1.524 . S
C1034 C1048 1.377 . S
C1035 C1034 1.524 . S
C1035 C1036 1.397 . S
C1035 C1040 1.363 . S
C1036 H1013 0.950 . S
C1036 C1035 1.397 . S
C1036 C1037 1.334 . S
C1037 H1014 0.950 . S
C1037 C1036 1.334 . S
C1037 C1038 1.287 . S
C1038 C1037 1.287 . S
C1038 C1039 1.524 . S
C1038 H1057 0.913 . S
C1039 H1015 0.950 . S
C1039 C1038 1.524 . S
C1039 C1040 1.415 . S
C1040 H1016 0.950 . S
C1040 C1035 1.363 . S
C1040 C1039 1.415 . S
C1041 H1017 0.951 . S
C1041 C1042 1.366 . S
C1041 C1043 1.388 . S
C1042 C1041 1.366 . S
C1042 C1046 1.385 . S
C1043 H1018 0.951 . S
C1043 C1041 1.388 . S
C1043 C1044 1.366 . S
C1044 C1043 1.366 . S
C1044 C1045 1.414 . S
C1044 C1047 1.499 . S
C1045 H1019 0.950 . S
C1045 C1044 1.414 . S
C1045 C1046 1.374 . S
C1046 H1020 0.950 . S
C1046 C1042 1.385 . S
C1046 C1045 1.374 . S
C1047 C1044 1.499 . S
C1047 C1048 1.373 . S
C1047 C1049 1.389 . S
C1048 H1021 0.950 . S
C1048 C1034 1.377 . S
C1048 C1047 1.373 . S
C1049 C1033 1.377 . S
C1049 C1047 1.389 . S
C1049 C1050 1.524 . S
C1050 C1049 1.524 . S
C1050 C1051 1.397 . S
C1050 C1055 1.363 . S
C1051 H1022 0.950 . S
C1051 C1050 1.397 . S
C1051 C1052 1.334 . S
C1052 H1023 0.950 . S
C1052 C1051 1.334 . S
C1052 C1053 1.287 . S
C1053 C1052 1.287 . S
C1053 C1054 1.524 . S
C1053 H1056 0.999 . S
C1054 H1024 0.950 . S
C1054 C1053 1.524 . S
C1054 C1055 1.415 . S
C1055 H1025 0.950 . S
C1055 C1050 1.363 . S
C1055 C1054 1.415 . S
H1056 C1053 0.999 . S
H1057 C1038 0.913 . S
H1058 C1076 0.951 . S
H1059 C1078 0.951 . S
H1060 C1080 0.950 . S
H1061 C1081 0.950 . S
H1062 C1083 0.950 . S
H1063 C1086 0.950 . S
H1064 C1087 0.950 . S
H1065 C1089 0.950 . S
H1066 C1090 0.950 . S
H1067 C1091 0.951 . S
H1068 C1093 0.951 . S
H1069 C1095 0.950 . S
H1070 C1096 0.950 . S
H1071 C1098 0.950 . S
H1072 C1101 0.950 . S
H1073 C1102 0.950 . S
H1074 C1104 0.950 . S
H1075 C1105 0.950 . S
C1076 H1058 0.951 . S
C1076 C1077 1.366 . S
C1076 C1078 1.388 . S
C1077 C1076 1.366 . S
C1077 C1081 1.385 . S
C1078 H1059 0.951 . S
C1078 C1076 1.388 . S
C1078 C1079 1.366 . S
C1079 C1078 1.366 . S
C1079 C1080 1.414 . S
C1079 C1082 1.499 . S
C1080 H1060 0.950 . S
C1080 C1079 1.414 . S
C1080 C1081 1.374 . S
C1081 H1061 0.950 . S
C1081 C1077 1.385 . S
C1081 C1080 1.374 . S
C1082 C1079 1.499 . S
C1082 C1083 1.373 . S
C1082 C1084 1.389 . S
C1083 H1062 0.950 . S
C1083 C1082 1.373 . S
C1083 C1099 1.377 . S
C1084 C1082 1.389 . S
C1084 C1085 1.524 . S
C1084 C1098 1.377 . S
C1085 C1084 1.524 . S
C1085 C1086 1.397 . S
C1085 C1090 1.363 . S
C1086 H1063 0.950 . S
C1086 C1085 1.397 . S
C1086 C1087 1.334 . S
C1087 H1064 0.950 . S
C1087 C1086 1.334 . S
C1087 C1088 1.287 . S
C1088 C1087 1.287 . S
C1088 C1089 1.524 . S
C1088 H1107 0.913 . S
C1089 H1065 0.950 . S
C1089 C1088 1.524 . S
C1089 C1090 1.415 . S
C1090 H1066 0.950 . S
C1090 C1085 1.363 . S
C1090 C1089 1.415 . S
C1091 H1067 0.951 . S
C1091 C1092 1.366 . S
C1091 C1093 1.388 . S
C1092 C1091 1.366 . S
C1092 C1096 1.385 . S
C1093 H1068 0.951 . S
C1093 C1091 1.388 . S
C1093 C1094 1.366 . S
C1094 C1093 1.366 . S
C1094 C1095 1.414 . S
C1094 C1097 1.499 . S
C1095 H1069 0.950 . S
C1095 C1094 1.414 . S
C1095 C1096 1.374 . S
C1096 H1070 0.950 . S
C1096 C1092 1.385 . S
C1096 C1095 1.374 . S
C1097 C1094 1.499 . S
C1097 C1098 1.373 . S
C1097 C1099 1.389 . S
C1098 H1071 0.950 . S
C1098 C1084 1.377 . S
C1098 C1097 1.373 . S
C1099 C1083 1.377 . S
C1099 C1097 1.389 . S
C1099 C1100 1.524 . S
C1100 C1099 1.524 . S
C1100 C1101 1.397 . S
C1100 C1105 1.363 . S
C1101 H1072 0.950 . S
C1101 C1100 1.397 . S
C1101 C1102 1.334 . S
C1102 H1073 0.950 . S
C1102 C1101 1.334 . S
C1102 C1103 1.287 . S
C1103 C1102 1.287 . S
C1103 C1104 1.524 . S
C1103 H1106 0.999 . S
C1104 H1074 0.950 . S
C1104 C1103 1.524 . S
C1104 C1105 1.415 . S
C1105 H1075 0.950 . S
C1105 C1100 1.363 . S
C1105 C1104 1.415 . S
H1106 C1103 0.999 . S
H1107 C1088 0.913 . S
H1108 C1126 0.951 . S
H1109 C1128 0.951 . S
H1110 C1130 0.950 . S
H1111 C1131 0.950 . S
H1112 C1133 0.950 . S
H1113 C1136 0.950 . S
H1114 C1137 0.950 . S
H1115 C1139 0.950 . S
H1116 C1140 0.950 . S
H1117 C1141 0.951 . S
H1118 C1143 0.951 . S
H1119 C1145 0.950 . S
H1120 C1146 0.950 . S
H1121 C1148 0.950 . S
H1122 C1151 0.950 . S
H1123 C1152 0.950 . S
H1124 C1154 0.950 . S
H1125 C1155 0.950 . S
C1126 H1108 0.951 . S
C1126 C1127 1.366 . S
C1126 C1128 1.388 . S
C1127 C1126 1.366 . S
C1127 C1131 1.385 . S
C1128 H1109 0.951 . S
C1128 C1126 1.388 . S
C1128 C1129 1.366 . S
C1129 C1128 1.366 . S
C1129 C1130 1.414 . S
C1129 C1132 1.499 . S
C1130 H1110 0.950 . S
C1130 C1129 1.414 . S
C1130 C1131 1.374 . S
C1131 H1111 0.950 . S
C1131 C1127 1.385 . S
C1131 C1130 1.374 . S
C1132 C1129 1.499 . S
C1132 C1133 1.373 . S
C1132 C1134 1.389 . S
C1133 H1112 0.950 . S
C1133 C1132 1.373 . S
C1133 C1149 1.377 . S
C1134 C1132 1.389 . S
C1134 C1135 1.524 . S
C1134 C1148 1.377 . S
C1135 C1134 1.524 . S
C1135 C1136 1.397 . S
C1135 C1140 1.363 . S
C1136 H1113 0.950 . S
C1136 C1135 1.397 . S
C1136 C1137 1.334 . S
C1137 H1114 0.950 . S
C1137 C1136 1.334 . S
C1137 C1138 1.287 . S
C1138 C1137 1.287 . S
C1138 C1139 1.524 . S
C1138 H1157 0.913 . S
C1139 H1115 0.950 . S
C1139 C1138 1.524 . S
C1139 C1140 1.415 . S
C1140 H1116 0.950 . S
C1140 C1135 1.363 . S
C1140 C1139 1.415 . S
C1141 H1117 0.951 . S
C1141 C1142 1.366 . S
C1141 C1143 1.388 . S
C1142 C1141 1.366 . S
C1142 C1146 1.385 . S
C1143 H1118 0.951 . S
C1143 C1141 1.388 . S
C1143 C1144 1.366 . S
C1144 C1143 1.366 . S
C1144 C1145 1.414 . S
C1144 C1147 1.499 . S
C1145 H1119 0.950 . S
C1145 C1144 1.414 . S
C1145 C1146 1.374 . S
C1146 H1120 0.950 . S
C1146 C1142 1.385 . S
C1146 C1145 1.374 . S
C1147 C1144 1.499 . S
C1147 C1148 1.373 . S
C1147 C1149 1.389 . S
C1148 H1121 0.950 . S
C1148 C1134 1.377 . S
C1148 C1147 1.373 . S
C1149 C1133 1.377 . S
C1149 C1147 1.389 . S
C1149 C1150 1.524 . S
C1150 C1149 1.524 . S
C1150 C1151 1.397 . S
C1150 C1155 1.363 . S
C1151 H1122 0.950 . S
C1151 C1150 1.397 . S
C1151 C1152 1.334 . S
C1152 H1123 0.950 . S
C1152 C1151 1.334 . S
C1152 C1153 1.287 . S
C1153 C1152 1.287 . S
C1153 C1154 1.524 . S
C1153 H1156 0.999 . S
C1154 H1124 0.950 . S
C1154 C1153 1.524 . S
C1154 C1155 1.415 . S
C1155 H1125 0.950 . S
C1155 C1150 1.363 . S
C1155 C1154 1.415 . S
H1156 C1153 0.999 . S
H1157 C1138 0.913 . S
H1158 C1176 0.951 . S
H1159 C1178 0.951 . S
H1160 C1180 0.950 . S
H1161 C1181 0.950 . S
H1162 C1183 0.950 . S
H1163 C1186 0.950 . S
H1164 C1187 0.950 . S
H1165 C1189 0.950 . S
H1166 C1190 0.950 . S
H1167 C1191 0.951 . S
H1168 C1193 0.951 . S
H1169 C1195 0.950 . S
H1170 C1196 0.950 . S
H1171 C1198 0.950 . S
H1172 C1201 0.950 . S
H1173 C1202 0.950 . S
H1174 C1204 0.950 . S
H1175 C1205 0.950 . S
C1176 H1158 0.951 . S
C1176 C1177 1.366 . S
C1176 C1178 1.388 . S
C1177 C1176 1.366 . S
C1177 C1181 1.385 . S
C1178 H1159 0.951 . S
C1178 C1176 1.388 . S
C1178 C1179 1.366 . S
C1179 C1178 1.366 . S
C1179 C1180 1.414 . S
C1179 C1182 1.499 . S
C1180 H1160 0.950 . S
C1180 C1179 1.414 . S
C1180 C1181 1.374 . S
C1181 H1161 0.950 . S
C1181 C1177 1.385 . S
C1181 C1180 1.374 . S
C1182 C1179 1.499 . S
C1182 C1183 1.373 . S
C1182 C1184 1.389 . S
C1183 H1162 0.950 . S
C1183 C1182 1.373 . S
C1183 C1199 1.377 . S
C1184 C1182 1.389 . S
C1184 C1185 1.524 . S
C1184 C1198 1.377 . S
C1185 C1184 1.524 . S
C1185 C1186 1.397 . S
C1185 C1190 1.363 . S
C1186 H1163 0.950 . S
C1186 C1185 1.397 . S
C1186 C1187 1.334 . S
C1187 H1164 0.950 . S
C1187 C1186 1.334 . S
C1187 C1188 1.287 . S
C1188 C1187 1.287 . S
C1188 C1189 1.524 . S
C1188 H1207 0.913 . S
C1189 H1165 0.950 . S
C1189 C1188 1.524 . S
C1189 C1190 1.415 . S
C1190 H1166 0.950 . S
C1190 C1185 1.363 . S
C1190 C1189 1.415 . S
C1191 H1167 0.951 . S
C1191 C1192 1.366 . S
C1191 C1193 1.388 . S
C1192 C1191 1.366 . S
C1192 C1196 1.385 . S
C1193 H1168 0.951 . S
C1193 C1191 1.388 . S
C1193 C1194 1.366 . S
C1194 C1193 1.366 . S
C1194 C1195 1.414 . S
C1194 C1197 1.499 . S
C1195 H1169 0.950 . S
C1195 C1194 1.414 . S
C1195 C1196 1.374 . S
C1196 H1170 0.950 . S
C1196 C1192 1.385 . S
C1196 C1195 1.374 . S
C1197 C1194 1.499 . S
C1197 C1198 1.373 . S
C1197 C1199 1.389 . S
C1198 H1171 0.950 . S
C1198 C1184 1.377 . S
C1198 C1197 1.373 . S
C1199 C1183 1.377 . S
C1199 C1197 1.389 . S
C1199 C1200 1.524 . S
C1200 C1199 1.524 . S
C1200 C1201 1.397 . S
C1200 C1205 1.363 . S
C1201 H1172 0.950 . S
C1201 C1200 1.397 . S
C1201 C1202 1.334 . S
C1202 H1173 0.950 . S
C1202 C1201 1.334 . S
C1202 C1203 1.287 . S
C1203 C1202 1.287 . S
C1203 C1204 1.524 . S
C1203 H1206 0.999 . S
C1204 H1174 0.950 . S
C1204 C1203 1.524 . S
C1204 C1205 1.415 . S
C1205 H1175 0.950 . S
C1205 C1200 1.363 . S
C1205 C1204 1.415 . S
H1206 C1203 0.999 . S
H1207 C1188 0.913 . S
H1208 C1226 0.951 . S
H1209 C1228 0.951 . S
H1210 C1230 0.950 . S
H1211 C1231 0.950 . S
H1212 C1233 0.950 . S
H1213 C1236 0.950 . S
H1214 C1237 0.950 . S
H1215 C1239 0.950 . S
H1216 C1240 0.950 . S
H1217 C1241 0.951 . S
H1218 C1243 0.951 . S
H1219 C1245 0.950 . S
H1220 C1246 0.950 . S
H1221 C1248 0.950 . S
H1222 C1251 0.950 . S
H1223 C1252 0.950 . S
H1224 C1254 0.950 . S
H1225 C1255 0.950 . S
C1226 H1208 0.951 . S
C1226 C1227 1.366 . S
C1226 C1228 1.388 . S
C1227 C1226 1.366 . S
C1227 C1231 1.385 . S
C1228 H1209 0.951 . S
C1228 C1226 1.388 . S
C1228 C1229 1.366 . S
C1229 C1228 1.366 . S
C1229 C1230 1.414 . S
C1229 C1232 1.499 . S
C1230 H1210 0.950 . S
C1230 C1229 1.414 . S
C1230 C1231 1.374 . S
C1231 H1211 0.950 . S
C1231 C1227 1.385 . S
C1231 C1230 1.374 . S
C1232 C1229 1.499 . S
C1232 C1233 1.373 . S
C1232 C1234 1.389 . S
C1233 H1212 0.950 . S
C1233 C1232 1.373 . S
C1233 C1249 1.377 . S
C1234 C1232 1.389 . S
C1234 C1235 1.524 . S
C1234 C1248 1.377 . S
C1235 C1234 1.524 . S
C1235 C1236 1.397 . S
C1235 C1240 1.363 . S
C1236 H1213 0.950 . S
C1236 C1235 1.397 . S
C1236 C1237 1.334 . S
C1237 H1214 0.950 . S
C1237 C1236 1.334 . S
C1237 C1238 1.287 . S
C1238 C1237 1.287 . S
C1238 C1239 1.524 . S
C1238 H1257 0.913 . S
C1239 H1215 0.950 . S
C1239 C1238 1.524 . S
C1239 C1240 1.415 . S
C1240 H1216 0.950 . S
C1240 C1235 1.363 . S
C1240 C1239 1.415 . S
C1241 H1217 0.951 . S
C1241 C1242 1.366 . S
C1241 C1243 1.388 . S
C1242 C1241 1.366 . S
C1242 C1246 1.385 . S
C1243 H1218 0.951 . S
C1243 C1241 1.388 . S
C1243 C1244 1.366 . S
C1244 C1243 1.366 . S
C1244 C1245 1.414 . S
C1244 C1247 1.499 . S
C1245 H1219 0.950 . S
C1245 C1244 1.414 . S
C1245 C1246 1.374 . S
C1246 H1220 0.950 . S
C1246 C1242 1.385 . S
C1246 C1245 1.374 . S
C1247 C1244 1.499 . S
C1247 C1248 1.373 . S
C1247 C1249 1.389 . S
C1248 H1221 0.950 . S
C1248 C1234 1.377 . S
C1248 C1247 1.373 . S
C1249 C1233 1.377 . S
C1249 C1247 1.389 . S
C1249 C1250 1.524 . S
C1250 C1249 1.524 . S
C1250 C1251 1.397 . S
C1250 C1255 1.363 . S
C1251 H1222 0.950 . S
C1251 C1250 1.397 . S
C1251 C1252 1.334 . S
C1252 H1223 0.950 . S
C1252 C1251 1.334 . S
C1252 C1253 1.287 . S
C1253 C1252 1.287 . S
C1253 C1254 1.524 . S
C1253 H1256 0.999 . S
C1254 H1224 0.950 . S
C1254 C1253 1.524 . S
C1254 C1255 1.415 . S
C1255 H1225 0.950 . S
C1255 C1250 1.363 . S
C1255 C1254 1.415 . S
H1256 C1253 0.999 . S
H1257 C1238 0.913 . S
H1258 C1276 0.951 . S
H1259 C1278 0.951 . S
H1260 C1280 0.950 . S
H1261 C1281 0.950 . S
H1262 C1283 0.950 . S
H1263 C1286 0.950 . S
H1264 C1287 0.950 . S
H1265 C1289 0.950 1_554 S
H1266 C1290 0.950 . S
H1267 C1291 0.951 . S
H1268 C1293 0.951 . S
H1269 C1295 0.950 . S
H1270 C1296 0.950 . S
H1271 C1298 0.950 . S
H1272 C1301 0.950 . S
H1273 C1302 0.950 . S
H1274 C1304 0.950 . S
H1275 C1305 0.950 . S
C1276 H1258 0.951 . S
C1276 C1277 1.366 . S
C1276 C1278 1.388 . S
C1277 C1276 1.366 . S
C1277 C1281 1.385 . S
C1278 H1259 0.951 . S
C1278 C1276 1.388 . S
C1278 C1279 1.366 . S
C1279 C1278 1.366 . S
C1279 C1280 1.414 . S
C1279 C1282 1.499 . S
C1280 H1260 0.950 . S
C1280 C1279 1.414 . S
C1280 C1281 1.374 . S
C1281 H1261 0.950 . S
C1281 C1277 1.385 . S
C1281 C1280 1.374 . S
C1282 C1279 1.499 . S
C1282 C1283 1.373 . S
C1282 C1284 1.389 . S
C1283 H1262 0.950 . S
C1283 C1282 1.373 . S
C1283 C1299 1.377 . S
C1284 C1282 1.389 . S
C1284 C1285 1.524 . S
C1284 C1298 1.377 . S
C1285 C1284 1.524 . S
C1285 C1286 1.397 . S
C1285 C1290 1.363 . S
C1286 H1263 0.950 . S
C1286 C1285 1.397 . S
C1286 C1287 1.334 . S
C1287 H1264 0.950 . S
C1287 C1286 1.334 . S
C1287 C1288 1.287 . S
C1288 C1287 1.287 . S
C1288 C1289 1.524 . S
C1288 H1307 0.913 . S
C1289 H1265 0.950 1_556 S
C1289 C1288 1.524 . S
C1289 C1290 1.415 . S
C1290 H1266 0.950 . S
C1290 C1285 1.363 . S
C1290 C1289 1.415 . S
C1291 H1267 0.951 . S
C1291 C1292 1.366 . S
C1291 C1293 1.388 . S
C1292 C1291 1.366 . S
C1292 C1296 1.385 . S
C1293 H1268 0.951 . S
C1293 C1291 1.388 . S
C1293 C1294 1.366 . S
C1294 C1293 1.366 . S
C1294 C1295 1.414 . S
C1294 C1297 1.499 . S
C1295 H1269 0.950 . S
C1295 C1294 1.414 . S
C1295 C1296 1.374 . S
C1296 H1270 0.950 . S
C1296 C1292 1.385 . S
C1296 C1295 1.374 . S
C1297 C1294 1.499 . S
C1297 C1298 1.373 . S
C1297 C1299 1.389 . S
C1298 H1271 0.950 . S
C1298 C1284 1.377 . S
C1298 C1297 1.373 . S
C1299 C1283 1.377 . S
C1299 C1297 1.389 . S
C1299 C1300 1.524 . S
C1300 C1299 1.524 . S
C1300 C1301 1.397 . S
C1300 C1305 1.363 . S
C1301 H1272 0.950 . S
C1301 C1300 1.397 . S
C1301 C1302 1.334 . S
C1302 H1273 0.950 . S
C1302 C1301 1.334 . S
C1302 C1303 1.287 . S
C1303 C1302 1.287 . S
C1303 C1304 1.524 . S
C1303 H1306 0.999 . S
C1304 H1274 0.950 . S
C1304 C1303 1.524 . S
C1304 C1305 1.415 . S
C1305 H1275 0.950 . S
C1305 C1300 1.363 . S
C1305 C1304 1.415 . S
H1306 C1303 0.999 . S
H1307 C1288 0.913 . S
H1308 C1326 0.951 . S
H1309 C1328 0.951 . S
H1310 C1330 0.950 . S
H1311 C1331 0.950 . S
H1312 C1333 0.950 . S
H1313 C1336 0.950 . S
H1314 C1337 0.950 . S
H1315 C1339 0.950 . S
H1316 C1340 0.950 . S
H1317 C1341 0.951 . S
H1318 C1343 0.951 . S
H1319 C1345 0.950 . S
H1320 C1346 0.950 . S
H1321 C1348 0.950 . S
H1322 C1351 0.950 . S
H1323 C1352 0.950 . S
H1324 C1354 0.950 . S
H1325 C1355 0.950 . S
C1326 H1308 0.951 . S
C1326 C1327 1.366 . S
C1326 C1328 1.388 . S
C1327 C1326 1.366 . S
C1327 C1331 1.385 . S
C1328 H1309 0.951 . S
C1328 C1326 1.388 . S
C1328 C1329 1.366 . S
C1329 C1328 1.366 . S
C1329 C1330 1.414 . S
C1329 C1332 1.499 . S
C1330 H1310 0.950 . S
C1330 C1329 1.414 . S
C1330 C1331 1.374 . S
C1331 H1311 0.950 . S
C1331 C1327 1.385 . S
C1331 C1330 1.374 . S
C1332 C1329 1.499 . S
C1332 C1333 1.373 . S
C1332 C1334 1.389 . S
C1333 H1312 0.950 . S
C1333 C1332 1.373 . S
C1333 C1349 1.377 . S
C1334 C1332 1.389 . S
C1334 C1335 1.524 . S
C1334 C1348 1.377 . S
C1335 C1334 1.524 . S
C1335 C1336 1.397 . S
C1335 C1340 1.363 . S
C1336 H1313 0.950 . S
C1336 C1335 1.397 . S
C1336 C1337 1.334 . S
C1337 H1314 0.950 . S
C1337 C1336 1.334 . S
C1337 C1338 1.287 . S
C1338 C1337 1.287 . S
C1338 C1339 1.524 . S
C1338 H1357 0.913 . S
C1339 H1315 0.950 . S
C1339 C1338 1.524 . S
C1339 C1340 1.415 . S
C1340 H1316 0.950 . S
C1340 C1335 1.363 . S
C1340 C1339 1.415 . S
C1341 H1317 0.951 . S
C1341 C1342 1.366 . S
C1341 C1343 1.388 . S
C1342 C1341 1.366 . S
C1342 C1346 1.385 . S
C1343 H1318 0.951 . S
C1343 C1341 1.388 . S
C1343 C1344 1.366 . S
C1344 C1343 1.366 . S
C1344 C1345 1.414 . S
C1344 C1347 1.499 . S
C1345 H1319 0.950 . S
C1345 C1344 1.414 . S
C1345 C1346 1.374 . S
C1346 H1320 0.950 . S
C1346 C1342 1.385 . S
C1346 C1345 1.374 . S
C1347 C1344 1.499 . S
C1347 C1348 1.373 . S
C1347 C1349 1.389 . S
C1348 H1321 0.950 . S
C1348 C1334 1.377 . S
C1348 C1347 1.373 . S
C1349 C1333 1.377 . S
C1349 C1347 1.389 . S
C1349 C1350 1.524 . S
C1350 C1349 1.524 . S
C1350 C1351 1.397 . S
C1350 C1355 1.363 . S
C1351 H1322 0.950 . S
C1351 C1350 1.397 . S
C1351 C1352 1.334 . S
C1352 H1323 0.950 . S
C1352 C1351 1.334 . S
C1352 C1353 1.287 . S
C1353 C1352 1.287 . S
C1353 C1354 1.524 . S
C1353 H1356 0.999 . S
C1354 H1324 0.950 . S
C1354 C1353 1.524 . S
C1354 C1355 1.415 . S
C1355 H1325 0.950 . S
C1355 C1350 1.363 . S
C1355 C1354 1.415 . S
H1356 C1353 0.999 . S
H1357 C1338 0.913 . S
H1358 C1376 0.951 . S
H1359 C1378 0.951 . S
H1360 C1380 0.950 . S
H1361 C1381 0.950 . S
H1362 C1383 0.950 . S
H1363 C1386 0.950 . S
H1364 C1387 0.950 . S
H1365 C1389 0.950 . S
H1366 C1390 0.950 . S
H1367 C1391 0.951 . S
H1368 C1393 0.951 . S
H1369 C1395 0.950 . S
H1370 C1396 0.950 . S
H1371 C1398 0.950 . S
H1372 C1401 0.950 . S
H1373 C1402 0.950 . S
H1374 C1404 0.950 . S
H1375 C1405 0.950 . S
C1376 H1358 0.951 . S
C1376 C1377 1.366 . S
C1376 C1378 1.388 . S
C1377 C1376 1.366 . S
C1377 C1381 1.385 . S
C1378 H1359 0.951 . S
C1378 C1376 1.388 . S
C1378 C1379 1.366 . S
C1379 C1378 1.366 . S
C1379 C1380 1.414 . S
C1379 C1382 1.499 . S
C1380 H1360 0.950 . S
C1380 C1379 1.414 . S
C1380 C1381 1.374 . S
C1381 H1361 0.950 . S
C1381 C1377 1.385 . S
C1381 C1380 1.374 . S
C1382 C1379 1.499 . S
C1382 C1383 1.373 . S
C1382 C1384 1.389 1_455 S
C1383 H1362 0.950 . S
C1383 C1382 1.373 . S
C1383 C1399 1.377 . S
C1384 C1382 1.389 1_655 S
C1384 C1385 1.524 . S
C1384 C1398 1.377 . S
C1385 C1384 1.524 . S
C1385 C1386 1.397 . S
C1385 C1390 1.363 . S
C1386 H1363 0.950 . S
C1386 C1385 1.397 . S
C1386 C1387 1.334 . S
C1387 H1364 0.950 . S
C1387 C1386 1.334 . S
C1387 C1388 1.287 . S
C1388 C1387 1.287 . S
C1388 C1389 1.524 . S
C1388 H1407 0.913 . S
C1389 H1365 0.950 . S
C1389 C1388 1.524 . S
C1389 C1390 1.415 . S
C1390 H1366 0.950 . S
C1390 C1385 1.363 . S
C1390 C1389 1.415 . S
C1391 H1367 0.951 . S
C1391 C1392 1.366 . S
C1391 C1393 1.388 . S
C1392 C1391 1.366 . S
C1392 C1396 1.385 . S
C1393 H1368 0.951 . S
C1393 C1391 1.388 . S
C1393 C1394 1.366 . S
C1394 C1393 1.366 . S
C1394 C1395 1.414 . S
C1394 C1397 1.499 . S
C1395 H1369 0.950 . S
C1395 C1394 1.414 . S
C1395 C1396 1.374 . S
C1396 H1370 0.950 . S
C1396 C1392 1.385 . S
C1396 C1395 1.374 . S
C1397 C1394 1.499 . S
C1397 C1398 1.373 . S
C1397 C1399 1.389 1_655 S
C1398 H1371 0.950 . S
C1398 C1384 1.377 . S
C1398 C1397 1.373 . S
C1399 C1383 1.377 . S
C1399 C1397 1.389 1_455 S
C1399 C1400 1.524 . S
C1400 C1399 1.524 . S
C1400 C1401 1.397 . S
C1400 C1405 1.363 . S
C1401 H1372 0.950 . S
C1401 C1400 1.397 . S
C1401 C1402 1.334 . S
C1402 H1373 0.950 . S
C1402 C1401 1.334 . S
C1402 C1403 1.287 . S
C1403 C1402 1.287 . S
C1403 C1404 1.524 . S
C1403 H1406 0.999 . S
C1404 H1374 0.950 . S
C1404 C1403 1.524 . S
C1404 C1405 1.415 . S
C1405 H1375 0.950 . S
C1405 C1400 1.363 . S
C1405 C1404 1.415 . S
H1406 C1403 0.999 . S
H1407 C1388 0.913 . S
H1408 C1426 0.951 . S
H1409 C1428 0.951 . S
H1410 C1430 0.950 . S
H1411 C1431 0.950 . S
H1412 C1433 0.950 . S
H1413 C1436 0.950 . S
H1414 C1437 0.950 . S
H1415 C1439 0.950 . S
H1416 C1440 0.950 . S
H1417 C1441 0.951 . S
H1418 C1443 0.951 . S
H1419 C1445 0.950 . S
H1420 C1446 0.950 . S
H1421 C1448 0.950 . S
H1422 C1451 0.950 . S
H1423 C1452 0.950 . S
H1424 C1454 0.950 . S
H1425 C1455 0.950 . S
C1426 H1408 0.951 . S
C1426 C1427 1.366 . S
C1426 C1428 1.388 . S
C1427 C1426 1.366 . S
C1427 C1431 1.385 . S
C1428 H1409 0.951 . S
C1428 C1426 1.388 . S
C1428 C1429 1.366 . S
C1429 C1428 1.366 . S
C1429 C1430 1.414 . S
C1429 C1432 1.499 . S
C1430 H1410 0.950 . S
C1430 C1429 1.414 . S
C1430 C1431 1.374 . S
C1431 H1411 0.950 . S
C1431 C1427 1.385 . S
C1431 C1430 1.374 . S
C1432 C1429 1.499 . S
C1432 C1433 1.373 . S
C1432 C1434 1.389 . S
C1433 H1412 0.950 . S
C1433 C1432 1.373 . S
C1433 C1449 1.377 1_565 S
C1434 C1432 1.389 . S
C1434 C1435 1.524 . S
C1434 C1448 1.377 1_565 S
C1435 C1434 1.524 . S
C1435 C1436 1.397 . S
C1435 C1440 1.363 . S
C1436 H1413 0.950 . S
C1436 C1435 1.397 . S
C1436 C1437 1.334 . S
C1437 H1414 0.950 . S
C1437 C1436 1.334 . S
C1437 C1438 1.287 . S
C1438 C1437 1.287 . S
C1438 C1439 1.524 . S
C1438 H1457 0.913 . S
C1439 H1415 0.950 . S
C1439 C1438 1.524 . S
C1439 C1440 1.415 . S
C1440 H1416 0.950 . S
C1440 C1435 1.363 . S
C1440 C1439 1.415 . S
C1441 H1417 0.951 . S
C1441 C1442 1.366 . S
C1441 C1443 1.388 . S
C1442 C1441 1.366 . S
C1442 C1446 1.385 . S
C1443 H1418 0.951 . S
C1443 C1441 1.388 . S
C1443 C1444 1.366 . S
C1444 C1443 1.366 . S
C1444 C1445 1.414 . S
C1444 C1447 1.499 . S
C1445 H1419 0.950 . S
C1445 C1444 1.414 . S
C1445 C1446 1.374 . S
C1446 H1420 0.950 . S
C1446 C1442 1.385 . S
C1446 C1445 1.374 . S
C1447 C1444 1.499 . S
C1447 C1448 1.373 . S
C1447 C1449 1.389 . S
C1448 H1421 0.950 . S
C1448 C1434 1.377 1_545 S
C1448 C1447 1.373 . S
C1449 C1433 1.377 1_545 S
C1449 C1447 1.389 . S
C1449 C1450 1.524 . S
C1450 C1449 1.524 . S
C1450 C1451 1.397 . S
C1450 C1455 1.363 . S
C1451 H1422 0.950 . S
C1451 C1450 1.397 . S
C1451 C1452 1.334 . S
C1452 H1423 0.950 . S
C1452 C1451 1.334 . S
C1452 C1453 1.287 . S
C1453 C1452 1.287 . S
C1453 C1454 1.524 . S
C1453 H1456 0.999 . S
C1454 H1424 0.950 . S
C1454 C1453 1.524 . S
C1454 C1455 1.415 . S
C1455 H1425 0.950 . S
C1455 C1450 1.363 . S
C1455 C1454 1.415 . S
H1456 C1453 0.999 . S
H1457 C1438 0.913 . S
H1458 C1476 0.951 . S
H1459 C1478 0.951 . S
H1460 C1480 0.950 . S
H1461 C1481 0.950 . S
H1462 C1483 0.950 . S
H1463 C1486 0.950 . S
H1464 C1487 0.950 . S
H1465 C1489 0.950 . S
H1466 C1490 0.950 . S
H1467 C1491 0.951 . S
H1468 C1493 0.951 . S
H1469 C1495 0.950 . S
H1470 C1496 0.950 . S
H1471 C1498 0.950 . S
H1472 C1501 0.950 . S
H1473 C1502 0.950 . S
H1474 C1504 0.950 . S
H1475 C1505 0.950 . S
C1476 H1458 0.951 . S
C1476 C1477 1.366 . S
C1476 C1478 1.388 . S
C1477 C1476 1.366 . S
C1477 C1481 1.385 . S
C1478 H1459 0.951 . S
C1478 C1476 1.388 . S
C1478 C1479 1.366 . S
C1479 C1478 1.366 . S
C1479 C1480 1.414 . S
C1479 C1482 1.499 . S
C1480 H1460 0.950 . S
C1480 C1479 1.414 . S
C1480 C1481 1.374 . S
C1481 H1461 0.950 . S
C1481 C1477 1.385 . S
C1481 C1480 1.374 . S
C1482 C1479 1.499 . S
C1482 C1483 1.373 . S
C1482 C1484 1.389 . S
C1483 H1462 0.950 . S
C1483 C1482 1.373 . S
C1483 C1499 1.377 . S
C1484 C1482 1.389 . S
C1484 C1485 1.524 . S
C1484 C1498 1.377 . S
C1485 C1484 1.524 . S
C1485 C1486 1.397 . S
C1485 C1490 1.363 . S
C1486 H1463 0.950 . S
C1486 C1485 1.397 . S
C1486 C1487 1.334 . S
C1487 H1464 0.950 . S
C1487 C1486 1.334 . S
C1487 C1488 1.287 . S
C1488 C1487 1.287 . S
C1488 C1489 1.524 . S
C1488 H1507 0.913 . S
C1489 H1465 0.950 . S
C1489 C1488 1.524 . S
C1489 C1490 1.415 . S
C1490 H1466 0.950 . S
C1490 C1485 1.363 . S
C1490 C1489 1.415 . S
C1491 H1467 0.951 . S
C1491 C1492 1.366 . S
C1491 C1493 1.388 . S
C1492 C1491 1.366 . S
C1492 C1496 1.385 . S
C1493 H1468 0.951 . S
C1493 C1491 1.388 . S
C1493 C1494 1.366 . S
C1494 C1493 1.366 . S
C1494 C1495 1.414 . S
C1494 C1497 1.499 . S
C1495 H1469 0.950 . S
C1495 C1494 1.414 . S
C1495 C1496 1.374 . S
C1496 H1470 0.950 . S
C1496 C1492 1.385 . S
C1496 C1495 1.374 . S
C1497 C1494 1.499 . S
C1497 C1498 1.373 . S
C1497 C1499 1.389 . S
C1498 H1471 0.950 . S
C1498 C1484 1.377 . S
C1498 C1497 1.373 . S
C1499 C1483 1.377 . S
C1499 C1497 1.389 . S
C1499 C1500 1.524 . S
C1500 C1499 1.524 . S
C1500 C1501 1.397 . S
C1500 C1505 1.363 . S
C1501 H1472 0.950 . S
C1501 C1500 1.397 . S
C1501 C1502 1.334 . S
C1502 H1473 0.950 . S
C1502 C1501 1.334 . S
C1502 C1503 1.287 . S
C1503 C1502 1.287 . S
C1503 C1504 1.524 . S
C1503 H1506 0.999 . S
C1504 H1474 0.950 . S
C1504 C1503 1.524 . S
C1504 C1505 1.415 . S
C1505 H1475 0.950 . S
C1505 C1500 1.363 . S
C1505 C1504 1.415 . S
H1506 C1503 0.999 . S
H1507 C1488 0.913 . S
H1508 C1526 0.951 . S
H1509 C1528 0.951 . S
H1510 C1530 0.950 . S
H1511 C1531 0.950 . S
H1512 C1533 0.950 . S
H1513 C1536 0.950 . S
H1514 C1537 0.950 . S
H1515 C1539 0.950 . S
H1516 C1540 0.950 . S
H1517 C1541 0.951 . S
H1518 C1543 0.951 . S
H1519 C1545 0.950 . S
H1520 C1546 0.950 . S
H1521 C1548 0.950 . S
H1522 C1551 0.950 . S
H1523 C1552 0.950 . S
H1524 C1554 0.950 . S
H1525 C1555 0.950 . S
C1526 H1508 0.951 . S
C1526 C1527 1.366 . S
C1526 C1528 1.388 . S
C1527 C1526 1.366 . S
C1527 C1531 1.385 . S
C1528 H1509 0.951 . S
C1528 C1526 1.388 . S
C1528 C1529 1.366 . S
C1529 C1528 1.366 . S
C1529 C1530 1.414 . S
C1529 C1532 1.499 . S
C1530 H1510 0.950 . S
C1530 C1529 1.414 . S
C1530 C1531 1.374 . S
C1531 H1511 0.950 . S
C1531 C1527 1.385 . S
C1531 C1530 1.374 . S
C1532 C1529 1.499 . S
C1532 C1533 1.373 1_455 S
C1532 C1534 1.389 . S
C1533 H1512 0.950 . S
C1533 C1532 1.373 1_655 S
C1533 C1549 1.377 . S
C1534 C1532 1.389 . S
C1534 C1535 1.524 . S
C1534 C1548 1.377 . S
C1535 C1534 1.524 . S
C1535 C1536 1.397 . S
C1535 C1540 1.363 . S
C1536 H1513 0.950 . S
C1536 C1535 1.397 . S
C1536 C1537 1.334 . S
C1537 H1514 0.950 . S
C1537 C1536 1.334 . S
C1537 C1538 1.287 . S
C1538 C1537 1.287 . S
C1538 C1539 1.524 . S
C1538 H1557 0.913 . S
C1539 H1515 0.950 . S
C1539 C1538 1.524 . S
C1539 C1540 1.415 . S
C1540 H1516 0.950 . S
C1540 C1535 1.363 . S
C1540 C1539 1.415 . S
C1541 H1517 0.951 . S
C1541 C1542 1.366 . S
C1541 C1543 1.388 . S
C1542 C1541 1.366 . S
C1542 C1546 1.385 . S
C1543 H1518 0.951 . S
C1543 C1541 1.388 . S
C1543 C1544 1.366 . S
C1544 C1543 1.366 . S
C1544 C1545 1.414 . S
C1544 C1547 1.499 . S
C1545 H1519 0.950 . S
C1545 C1544 1.414 . S
C1545 C1546 1.374 . S
C1546 H1520 0.950 . S
C1546 C1542 1.385 . S
C1546 C1545 1.374 . S
C1547 C1544 1.499 . S
C1547 C1548 1.373 1_655 S
C1547 C1549 1.389 . S
C1548 H1521 0.950 . S
C1548 C1534 1.377 . S
C1548 C1547 1.373 1_455 S
C1549 C1533 1.377 . S
C1549 C1547 1.389 . S
C1549 C1550 1.524 . S
C1550 C1549 1.524 . S
C1550 C1551 1.397 . S
C1550 C1555 1.363 . S
C1551 H1522 0.950 . S
C1551 C1550 1.397 . S
C1551 C1552 1.334 . S
C1552 H1523 0.950 . S
C1552 C1551 1.334 . S
C1552 C1553 1.287 . S
C1553 C1552 1.287 . S
C1553 C1554 1.524 . S
C1553 H1556 0.999 . S
C1554 H1524 0.950 . S
C1554 C1553 1.524 . S
C1554 C1555 1.415 . S
C1555 H1525 0.950 . S
C1555 C1550 1.363 . S
C1555 C1554 1.415 . S
H1556 C1553 0.999 . S
H1557 C1538 0.913 . S
H1558 C1576 0.951 . S
H1559 C1578 0.951 . S
H1560 C1580 0.950 . S
H1561 C1581 0.950 . S
H1562 C1583 0.950 . S
H1563 C1586 0.950 1_554 S
H1564 C1587 0.942 1_554 S
H1565 C1589 0.950 . S
H1566 C1590 0.950 . S
H1567 C1591 0.951 . S
H1568 C1593 0.951 . S
H1569 C1595 0.950 . S
H1570 C1596 0.950 . S
H1571 C1598 0.950 . S
H1572 C1601 0.950 . S
H1573 C1602 0.958 . S
H1574 C1604 0.950 . S
H1575 C1605 0.950 . S
C1576 H1558 0.951 . S
C1576 C1577 1.366 . S
C1576 C1578 1.388 . S
C1577 C1576 1.366 . S
C1577 C1581 1.385 . S
C1578 H1559 0.951 . S
C1578 C1576 1.388 . S
C1578 C1579 1.366 . S
C1579 C1578 1.366 . S
C1579 C1580 1.414 . S
C1579 C1582 1.499 . S
C1580 H1560 0.950 . S
C1580 C1579 1.414 . S
C1580 C1581 1.374 . S
C1581 H1561 0.950 . S
C1581 C1577 1.385 . S
C1581 C1580 1.374 . S
C1582 C1579 1.499 . S
C1582 C1583 1.373 1_565 S
C1582 C1584 1.389 1_554 S
C1583 H1562 0.950 . S
C1583 C1582 1.373 1_545 S
C1583 C1599 1.367 1_554 S
C1584 C1582 1.389 1_556 S
C1584 C1585 1.524 . S
C1584 C1598 1.377 . S
C1585 C1584 1.524 . S
C1585 C1586 1.397 . S
C1585 C1590 1.363 . S
C1586 H1563 0.950 1_556 S
C1586 C1585 1.397 . S
C1586 C1587 1.334 . S
C1587 H1564 0.942 1_556 S
C1587 C1586 1.334 . S
C1587 C1588 1.287 . S
C1588 C1587 1.287 . S
C1588 C1589 1.524 . S
C1588 H1607 0.913 . S
C1589 H1565 0.950 . S
C1589 C1588 1.524 . S
C1589 C1590 1.415 . S
C1590 H1566 0.950 . S
C1590 C1585 1.363 . S
C1590 C1589 1.415 . S
C1591 H1567 0.951 . S
C1591 C1592 1.366 . S
C1591 C1593 1.388 . S
C1592 C1591 1.366 . S
C1592 C1596 1.385 . S
C1593 H1568 0.951 . S
C1593 C1591 1.388 . S
C1593 C1594 1.366 . S
C1594 C1593 1.366 . S
C1594 C1595 1.414 . S
C1594 C1597 1.499 . S
C1595 H1569 0.950 . S
C1595 C1594 1.414 . S
C1595 C1596 1.374 . S
C1596 H1570 0.950 . S
C1596 C1592 1.385 . S
C1596 C1595 1.374 . S
C1597 C1594 1.499 . S
C1597 C1598 1.373 1_545 S
C1597 C1599 1.401 . S
C1598 H1571 0.950 . S
C1598 C1584 1.377 . S
C1598 C1597 1.373 1_565 S
C1599 C1583 1.367 1_556 S
C1599 C1597 1.401 . S
C1599 C1600 1.522 1_556 S
C1600 C1599 1.522 1_554 S
C1600 C1601 1.397 1_554 S
C1600 C1605 1.363 . S
C1601 H1572 0.950 . S
C1601 C1600 1.397 1_556 S
C1601 C1602 1.337 . S
C1602 H1573 0.958 . S
C1602 C1601 1.337 . S
C1602 C1603 1.276 1_556 S
C1603 C1602 1.276 1_554 S
C1603 C1604 1.524 . S
C1603 H1606 0.999 . S
C1604 H1574 0.950 . S
C1604 C1603 1.524 . S
C1604 C1605 1.415 . S
C1605 H1575 0.950 . S
C1605 C1600 1.363 . S
C1605 C1604 1.415 . S
H1606 C1603 0.999 . S
H1607 C1588 0.913 . S
H1608 C1626 0.951 . S
H1609 C1628 0.951 . S
H1610 C1630 0.950 . S
H1611 C1631 0.950 . S
H1612 C1633 0.950 . S
H1613 C1636 0.950 . S
H1614 C1637 0.950 . S
H1615 C1639 0.950 1_554 S
H1616 C1640 0.950 . S
H1617 C1641 0.951 . S
H1618 C1643 0.951 . S
H1619 C1645 0.950 . S
H1620 C1646 0.950 . S
H1621 C1648 0.950 . S
H1622 C1651 0.950 . S
H1623 C1652 0.950 . S
H1624 C1654 0.950 . S
H1625 C1655 0.950 . S
C1626 H1608 0.951 . S
C1626 C1627 1.366 . S
C1626 C1628 1.388 . S
C1627 C1626 1.366 . S
C1627 C1631 1.385 . S
C1628 H1609 0.951 . S
C1628 C1626 1.388 . S
C1628 C1629 1.366 . S
C1629 C1628 1.366 . S
C1629 C1630 1.414 . S
C1629 C1632 1.499 . S
C1630 H1610 0.950 . S
C1630 C1629 1.414 . S
C1630 C1631 1.374 . S
C1631 H1611 0.950 . S
C1631 C1627 1.385 . S
C1631 C1630 1.374 . S
C1632 C1629 1.499 . S
C1632 C1633 1.373 . S
C1632 C1634 1.389 . S
C1633 H1612 0.950 . S
C1633 C1632 1.373 . S
C1633 C1649 1.377 . S
C1634 C1632 1.389 . S
C1634 C1635 1.524 . S
C1634 C1648 1.377 . S
C1635 C1634 1.524 . S
C1635 C1636 1.397 . S
C1635 C1640 1.363 . S
C1636 H1613 0.950 . S
C1636 C1635 1.397 . S
C1636 C1637 1.334 . S
C1637 H1614 0.950 . S
C1637 C1636 1.334 . S
C1637 C1638 1.287 . S
C1638 C1637 1.287 . S
C1638 C1639 1.524 . S
C1638 H1657 0.913 1_556 S
C1639 H1615 0.950 1_556 S
C1639 C1638 1.524 . S
C1639 C1640 1.415 . S
C1640 H1616 0.950 . S
C1640 C1635 1.363 . S
C1640 C1639 1.415 . S
C1641 H1617 0.951 . S
C1641 C1642 1.366 . S
C1641 C1643 1.388 . S
C1642 C1641 1.366 . S
C1642 C1646 1.385 . S
C1643 H1618 0.951 . S
C1643 C1641 1.388 . S
C1643 C1644 1.366 . S
C1644 C1643 1.366 . S
C1644 C1645 1.414 . S
C1644 C1647 1.499 . S
C1645 H1619 0.950 . S
C1645 C1644 1.414 . S
C1645 C1646 1.374 . S
C1646 H1620 0.950 . S
C1646 C1642 1.385 . S
C1646 C1645 1.374 . S
C1647 C1644 1.499 . S
C1647 C1648 1.373 . S
C1647 C1649 1.389 . S
C1648 H1621 0.950 . S
C1648 C1634 1.377 . S
C1648 C1647 1.373 . S
C1649 C1633 1.377 . S
C1649 C1647 1.389 . S
C1649 C1650 1.524 . S
C1650 C1649 1.524 . S
C1650 C1651 1.397 . S
C1650 C1655 1.363 . S
C1651 H1622 0.950 . S
C1651 C1650 1.397 . S
C1651 C1652 1.334 . S
C1652 H1623 0.950 . S
C1652 C1651 1.334 . S
C1652 C1653 1.287 . S
C1653 C1652 1.287 . S
C1653 C1654 1.524 . S
C1653 H1656 0.999 . S
C1654 H1624 0.950 . S
C1654 C1653 1.524 . S
C1654 C1655 1.415 . S
C1655 H1625 0.950 . S
C1655 C1650 1.363 . S
C1655 C1654 1.415 . S
H1656 C1653 0.999 . S
H1657 C1638 0.913 1_554 S
H1658 C1676 0.951 . S
H1659 C1678 0.951 . S
H1660 C1680 0.950 . S
H1661 C1681 0.950 . S
H1662 C1683 0.950 . S
H1663 C1686 0.950 . S
H1664 C1687 0.950 . S
H1665 C1689 0.950 . S
H1666 C1690 0.950 . S
H1667 C1691 0.951 . S
H1668 C1693 0.951 . S
H1669 C1695 0.950 . S
H1670 C1696 0.950 . S
H1671 C1698 0.950 . S
H1672 C1701 0.950 . S
H1673 C1702 0.950 . S
H1674 C1704 0.950 . S
H1675 C1705 0.950 . S
C1676 H1658 0.951 . S
C1676 C1677 1.366 . S
C1676 C1678 1.388 . S
C1677 C1676 1.366 . S
C1677 C1681 1.385 . S
C1678 H1659 0.951 . S
C1678 C1676 1.388 . S
C1678 C1679 1.366 . S
C1679 C1678 1.366 . S
C1679 C1680 1.414 . S
C1679 C1682 1.499 . S
C1680 H1660 0.950 . S
C1680 C1679 1.414 . S
C1680 C1681 1.374 . S
C1681 H1661 0.950 . S
C1681 C1677 1.385 . S
C1681 C1680 1.374 . S
C1682 C1679 1.499 . S
C1682 C1683 1.373 . S
C1682 C1684 1.389 . S
C1683 H1662 0.950 . S
C1683 C1682 1.373 . S
C1683 C1699 1.377 . S
C1684 C1682 1.389 . S
C1684 C1685 1.524 . S
C1684 C1698 1.377 . S
C1685 C1684 1.524 . S
C1685 C1686 1.397 . S
C1685 C1690 1.363 . S
C1686 H1663 0.950 . S
C1686 C1685 1.397 . S
C1686 C1687 1.334 1_554 S
C1687 H1664 0.950 . S
C1687 C1686 1.334 1_556 S
C1687 C1688 1.287 . S
C1688 C1687 1.287 . S
C1688 C1689 1.524 1_556 S
C1688 H1707 0.913 . S
C1689 H1665 0.950 . S
C1689 C1688 1.524 1_554 S
C1689 C1690 1.415 . S
C1690 H1666 0.950 . S
C1690 C1685 1.363 . S
C1690 C1689 1.415 . S
C1691 H1667 0.951 . S
C1691 C1692 1.366 . S
C1691 C1693 1.388 . S
C1692 C1691 1.366 . S
C1692 C1696 1.385 . S
C1693 H1668 0.951 . S
C1693 C1691 1.388 . S
C1693 C1694 1.366 . S
C1694 C1693 1.366 . S
C1694 C1695 1.414 . S
C1694 C1697 1.499 . S
C1695 H1669 0.950 . S
C1695 C1694 1.414 . S
C1695 C1696 1.374 . S
C1696 H1670 0.950 . S
C1696 C1692 1.385 . S
C1696 C1695 1.374 . S
C1697 C1694 1.499 . S
C1697 C1698 1.373 . S
C1697 C1699 1.389 . S
C1698 H1671 0.950 . S
C1698 C1684 1.377 . S
C1698 C1697 1.373 . S
C1699 C1683 1.377 . S
C1699 C1697 1.389 . S
C1699 C1700 1.524 . S
C1700 C1699 1.524 . S
C1700 C1701 1.397 . S
C1700 C1705 1.363 . S
C1701 H1672 0.950 . S
C1701 C1700 1.397 . S
C1701 C1702 1.334 . S
C1702 H1673 0.950 . S
C1702 C1701 1.334 . S
C1702 C1703 1.287 . S
C1703 C1702 1.287 . S
C1703 C1704 1.524 . S
C1703 H1706 0.999 . S
C1704 H1674 0.950 . S
C1704 C1703 1.524 . S
C1704 C1705 1.415 . S
C1705 H1675 0.950 . S
C1705 C1700 1.363 . S
C1705 C1704 1.415 . S
H1706 C1703 0.999 . S
H1707 C1688 0.913 . S
H1708 C1726 0.951 . S
H1709 C1728 0.951 . S
H1710 C1730 0.950 . S
H1711 C1731 0.950 . S
H1712 C1733 0.950 . S
H1713 C1736 0.950 . S
H1714 C1737 0.950 . S
H1715 C1739 0.968 . S
H1716 C1740 0.950 . S
H1717 C1741 0.951 . S
H1718 C1743 0.951 . S
H1719 C1745 0.950 . S
H1720 C1746 0.950 . S
H1721 C1748 0.950 . S
H1722 C1751 0.950 . S
H1723 C1752 0.950 . S
H1724 C1754 0.950 . S
H1725 C1755 0.950 . S
C1726 H1708 0.951 . S
C1726 C1727 1.366 . S
C1726 C1728 1.388 . S
C1727 C1726 1.366 . S
C1727 C1731 1.385 . S
C1728 H1709 0.951 . S
C1728 C1726 1.388 . S
C1728 C1729 1.366 . S
C1729 C1728 1.366 . S
C1729 C1730 1.414 . S
C1729 C1732 1.499 . S
C1730 H1710 0.950 . S
C1730 C1729 1.414 . S
C1730 C1731 1.374 . S
C1731 H1711 0.950 . S
C1731 C1727 1.385 . S
C1731 C1730 1.374 . S
C1732 C1729 1.499 . S
C1732 C1733 1.373 . S
C1732 C1734 1.389 . S
C1733 H1712 0.950 . S
C1733 C1732 1.373 . S
C1733 C1749 1.377 . S
C1734 C1732 1.389 . S
C1734 C1735 1.524 . S
C1734 C1748 1.377 . S
C1735 C1734 1.524 . S
C1735 C1736 1.397 . S
C1735 C1740 1.363 . S
C1736 H1713 0.950 . S
C1736 C1735 1.397 . S
C1736 C1737 1.334 . S
C1737 H1714 0.950 . S
C1737 C1736 1.334 . S
C1737 C1738 1.287 . S
C1738 C1737 1.287 . S
C1738 C1739 1.524 . S
C1738 H1757 0.913 . S
C1739 H1715 0.968 . S
C1739 C1738 1.524 . S
C1739 C1740 1.415 . S
C1740 H1716 0.950 . S
C1740 C1735 1.363 . S
C1740 C1739 1.415 . S
C1741 H1717 0.951 . S
C1741 C1742 1.366 . S
C1741 C1743 1.388 . S
C1742 C1741 1.366 . S
C1742 C1746 1.385 . S
C1743 H1718 0.951 . S
C1743 C1741 1.388 . S
C1743 C1744 1.366 . S
C1744 C1743 1.366 . S
C1744 C1745 1.414 . S
C1744 C1747 1.499 . S
C1745 H1719 0.950 . S
C1745 C1744 1.414 . S
C1745 C1746 1.374 . S
C1746 H1720 0.950 . S
C1746 C1742 1.385 . S
C1746 C1745 1.374 . S
C1747 C1744 1.499 . S
C1747 C1748 1.373 . S
C1747 C1749 1.389 . S
C1748 H1721 0.950 . S
C1748 C1734 1.377 . S
C1748 C1747 1.373 . S
C1749 C1733 1.377 . S
C1749 C1747 1.389 . S
C1749 C1750 1.524 . S
C1750 C1749 1.524 . S
C1750 C1751 1.397 . S
C1750 C1755 1.363 . S
C1751 H1722 0.950 . S
C1751 C1750 1.397 . S
C1751 C1752 1.334 . S
C1752 H1723 0.950 . S
C1752 C1751 1.334 . S
C1752 C1753 1.287 . S
C1753 C1752 1.287 . S
C1753 C1754 1.524 . S
C1753 H1756 0.999 . S
C1754 H1724 0.950 . S
C1754 C1753 1.524 . S
C1754 C1755 1.415 . S
C1755 H1725 0.950 . S
C1755 C1750 1.363 . S
C1755 C1754 1.415 . S
H1756 C1753 0.999 . S
H1757 C1738 0.913 . S
H1758 C1776 0.951 . S
H1759 C1778 0.951 . S
H1760 C1780 0.950 . S
H1761 C1781 0.950 . S
H1762 C1783 0.950 . S
H1763 C1786 0.950 . S
H1764 C1787 0.950 . S
H1765 C1789 0.950 . S
H1766 C1790 0.950 . S
H1767 C1791 0.951 . S
H1768 C1793 0.951 . S
H1769 C1795 0.950 . S
H1770 C1796 0.950 . S
H1771 C1798 0.950 . S
H1772 C1801 0.950 . S
H1773 C1802 0.950 . S
H1774 C1804 0.950 . S
H1775 C1805 0.950 . S
C1776 H1758 0.951 . S
C1776 C1777 1.366 . S
C1776 C1778 1.388 . S
C1777 C1776 1.366 . S
C1777 C1781 1.385 . S
C1778 H1759 0.951 . S
C1778 C1776 1.388 . S
C1778 C1779 1.366 . S
C1779 C1778 1.366 . S
C1779 C1780 1.414 . S
C1779 C1782 1.499 . S
C1780 H1760 0.950 . S
C1780 C1779 1.414 . S
C1780 C1781 1.374 . S
C1781 H1761 0.950 . S
C1781 C1777 1.385 . S
C1781 C1780 1.374 . S
C1782 C1779 1.499 . S
C1782 C1783 1.373 . S
C1782 C1784 1.389 . S
C1783 H1762 0.950 . S
C1783 C1782 1.373 . S
C1783 C1799 1.377 . S
C1784 C1782 1.389 . S
C1784 C1785 1.524 . S
C1784 C1798 1.377 . S
C1785 C1784 1.524 . S
C1785 C1786 1.397 . S
C1785 C1790 1.363 . S
C1786 H1763 0.950 . S
C1786 C1785 1.397 . S
C1786 C1787 1.334 . S
C1787 H1764 0.950 . S
C1787 C1786 1.334 . S
C1787 C1788 1.287 . S
C1788 C1787 1.287 . S
C1788 C1789 1.524 . S
C1788 H1807 0.913 . S
C1789 H1765 0.950 . S
C1789 C1788 1.524 . S
C1789 C1790 1.415 . S
C1790 H1766 0.950 . S
C1790 C1785 1.363 . S
C1790 C1789 1.415 . S
C1791 H1767 0.951 . S
C1791 C1792 1.366 . S
C1791 C1793 1.388 . S
C1792 C1791 1.366 . S
C1792 C1796 1.385 . S
C1793 H1768 0.951 . S
C1793 C1791 1.388 . S
C1793 C1794 1.366 . S
C1794 C1793 1.366 . S
C1794 C1795 1.414 . S
C1794 C1797 1.499 . S
C1795 H1769 0.950 . S
C1795 C1794 1.414 . S
C1795 C1796 1.374 . S
C1796 H1770 0.950 . S
C1796 C1792 1.385 . S
C1796 C1795 1.374 . S
C1797 C1794 1.499 . S
C1797 C1798 1.373 . S
C1797 C1799 1.389 . S
C1798 H1771 0.950 . S
C1798 C1784 1.377 . S
C1798 C1797 1.373 . S
C1799 C1783 1.377 . S
C1799 C1797 1.389 . S
C1799 C1800 1.524 . S
C1800 C1799 1.524 . S
C1800 C1801 1.397 . S
C1800 C1805 1.363 . S
C1801 H1772 0.950 . S
C1801 C1800 1.397 . S
C1801 C1802 1.334 . S
C1802 H1773 0.950 . S
C1802 C1801 1.334 . S
C1802 C1803 1.287 . S
C1803 C1802 1.287 . S
C1803 C1804 1.524 . S
C1803 H1806 0.999 . S
C1804 H1774 0.950 . S
C1804 C1803 1.524 . S
C1804 C1805 1.415 . S
C1805 H1775 0.950 . S
C1805 C1800 1.363 . S
C1805 C1804 1.415 . S
H1806 C1803 0.999 . S
H1807 C1788 0.913 . S
H1808 C1826 0.951 . S
H1809 C1828 0.951 . S
H1810 C1830 0.950 . S
H1811 C1831 0.950 . S
H1812 C1833 0.950 . S
H1813 C1836 0.950 . S
H1814 C1837 0.950 . S
H1815 C1839 0.950 . S
H1816 C1840 0.950 . S
H1817 C1841 0.951 . S
H1818 C1843 0.951 . S
H1819 C1845 0.950 . S
H1820 C1846 0.950 . S
H1821 C1848 0.950 . S
H1822 C1851 0.950 . S
H1823 C1852 0.950 . S
H1824 C1854 0.950 . S
H1825 C1855 0.950 . S
C1826 H1808 0.951 . S
C1826 C1827 1.366 . S
C1826 C1828 1.388 . S
C1827 C1826 1.366 . S
C1827 C1831 1.385 . S
C1828 H1809 0.951 . S
C1828 C1826 1.388 . S
C1828 C1829 1.366 . S
C1829 C1828 1.366 . S
C1829 C1830 1.414 . S
C1829 C1832 1.499 . S
C1830 H1810 0.950 . S
C1830 C1829 1.414 . S
C1830 C1831 1.374 . S
C1831 H1811 0.950 . S
C1831 C1827 1.385 . S
C1831 C1830 1.374 . S
C1832 C1829 1.499 . S
C1832 C1833 1.373 . S
C1832 C1834 1.389 . S
C1833 H1812 0.950 . S
C1833 C1832 1.373 . S
C1833 C1849 1.377 . S
C1834 C1832 1.389 . S
C1834 C1835 1.524 . S
C1834 C1848 1.377 . S
C1835 C1834 1.524 . S
C1835 C1836 1.397 . S
C1835 C1840 1.363 . S
C1836 H1813 0.950 . S
C1836 C1835 1.397 . S
C1836 C1837 1.334 . S
C1837 H1814 0.950 . S
C1837 C1836 1.334 . S
C1837 C1838 1.287 . S
C1838 C1837 1.287 . S
C1838 C1839 1.524 . S
C1838 H1857 0.913 . S
C1839 H1815 0.950 . S
C1839 C1838 1.524 . S
C1839 C1840 1.415 . S
C1840 H1816 0.950 . S
C1840 C1835 1.363 . S
C1840 C1839 1.415 . S
C1841 H1817 0.951 . S
C1841 C1842 1.366 . S
C1841 C1843 1.388 . S
C1842 C1841 1.366 . S
C1842 C1846 1.385 . S
C1843 H1818 0.951 . S
C1843 C1841 1.388 . S
C1843 C1844 1.366 . S
C1844 C1843 1.366 . S
C1844 C1845 1.414 . S
C1844 C1847 1.499 . S
C1845 H1819 0.950 . S
C1845 C1844 1.414 . S
C1845 C1846 1.374 . S
C1846 H1820 0.950 . S
C1846 C1842 1.385 . S
C1846 C1845 1.374 . S
C1847 C1844 1.499 . S
C1847 C1848 1.373 . S
C1847 C1849 1.389 . S
C1848 H1821 0.950 . S
C1848 C1834 1.377 . S
C1848 C1847 1.373 . S
C1849 C1833 1.377 . S
C1849 C1847 1.389 . S
C1849 C1850 1.524 . S
C1850 C1849 1.524 . S
C1850 C1851 1.397 . S
C1850 C1855 1.363 . S
C1851 H1822 0.950 . S
C1851 C1850 1.397 . S
C1851 C1852 1.334 . S
C1852 H1823 0.950 . S
C1852 C1851 1.334 . S
C1852 C1853 1.287 . S
C1853 C1852 1.287 . S
C1853 C1854 1.524 . S
C1853 H1856 0.999 . S
C1854 H1824 0.950 . S
C1854 C1853 1.524 . S
C1854 C1855 1.415 . S
C1855 H1825 0.950 . S
C1855 C1850 1.363 . S
C1855 C1854 1.415 . S
H1856 C1853 0.999 . S
H1857 C1838 0.913 . S
H1858 C1876 0.951 . S
H1859 C1878 0.951 . S
H1860 C1880 0.950 . S
H1861 C1881 0.950 . S
H1862 C1883 0.950 . S
H1863 C1886 0.950 . S
H1864 C1887 0.950 . S
H1865 C1889 0.950 . S
H1866 C1890 0.950 . S
H1867 C1891 0.951 . S
H1868 C1893 0.951 . S
H1869 C1895 0.950 . S
H1870 C1896 0.950 . S
H1871 C1898 0.950 . S
H1872 C1901 0.950 . S
H1873 C1902 0.950 . S
H1874 C1904 0.950 . S
H1875 C1905 0.950 . S
C1876 H1858 0.951 . S
C1876 C1877 1.366 . S
C1876 C1878 1.388 . S
C1877 C1876 1.366 . S
C1877 C1881 1.385 . S
C1878 H1859 0.951 . S
C1878 C1876 1.388 . S
C1878 C1879 1.366 . S
C1879 C1878 1.366 . S
C1879 C1880 1.414 . S
C1879 C1882 1.499 . S
C1880 H1860 0.950 . S
C1880 C1879 1.414 . S
C1880 C1881 1.374 . S
C1881 H1861 0.950 . S
C1881 C1877 1.385 . S
C1881 C1880 1.374 . S
C1882 C1879 1.499 . S
C1882 C1883 1.373 . S
C1882 C1884 1.389 . S
C1883 H1862 0.950 . S
C1883 C1882 1.373 . S
C1883 C1899 1.377 . S
C1884 C1882 1.389 . S
C1884 C1885 1.524 . S
C1884 C1898 1.377 . S
C1885 C1884 1.524 . S
C1885 C1886 1.397 . S
C1885 C1890 1.363 . S
C1886 H1863 0.950 . S
C1886 C1885 1.397 . S
C1886 C1887 1.334 . S
C1887 H1864 0.950 . S
C1887 C1886 1.334 . S
C1887 C1888 1.287 . S
C1888 C1887 1.287 . S
C1888 C1889 1.524 . S
C1888 H1907 0.913 . S
C1889 H1865 0.950 . S
C1889 C1888 1.524 . S
C1889 C1890 1.415 . S
C1890 H1866 0.950 . S
C1890 C1885 1.363 . S
C1890 C1889 1.415 . S
C1891 H1867 0.951 . S
C1891 C1892 1.366 . S
C1891 C1893 1.388 . S
C1892 C1891 1.366 . S
C1892 C1896 1.385 . S
C1893 H1868 0.951 . S
C1893 C1891 1.388 . S
C1893 C1894 1.366 . S
C1894 C1893 1.366 . S
C1894 C1895 1.414 . S
C1894 C1897 1.499 . S
C1895 H1869 0.950 . S
C1895 C1894 1.414 . S
C1895 C1896 1.374 . S
C1896 H1870 0.950 . S
C1896 C1892 1.385 . S
C1896 C1895 1.374 . S
C1897 C1894 1.499 . S
C1897 C1898 1.373 . S
C1897 C1899 1.389 . S
C1898 H1871 0.950 . S
C1898 C1884 1.377 . S
C1898 C1897 1.373 . S
C1899 C1883 1.377 . S
C1899 C1897 1.389 . S
C1899 C1900 1.524 . S
C1900 C1899 1.524 . S
C1900 C1901 1.397 . S
C1900 C1905 1.363 . S
C1901 H1872 0.950 . S
C1901 C1900 1.397 . S
C1901 C1902 1.334 . S
C1902 H1873 0.950 . S
C1902 C1901 1.334 . S
C1902 C1903 1.287 . S
C1903 C1902 1.287 . S
C1903 C1904 1.524 . S
C1903 H1906 0.999 1_545 S
C1904 H1874 0.950 . S
C1904 C1903 1.524 . S
C1904 C1905 1.415 . S
C1905 H1875 0.950 . S
C1905 C1900 1.363 . S
C1905 C1904 1.415 . S
H1906 C1903 0.999 1_565 S
H1907 C1888 0.913 . S
C427 C172 1.080 . S
C442 C5 1.080 . S
C477 C2 1.080 . S
C492 C39 1.080 . S
C527 C36 1.081 . S
C542 C73 1.081 . S
C577 C107 1.080 . S
C592 C70 1.081 . S
C627 C141 1.081 . S
C642 C104 1.080 . S
C677 C138 1.080 . S
C692 C175 1.080 . S
C727 C240 1.080 . S
C742 C209 1.080 . S
C777 C274 1.081 . S
C792 C243 1.081 . S
C827 C308 1.080 . S
C842 C277 1.081 . S
C877 C342 1.080 . S
C892 C311 1.080 . S
C927 C376 1.080 . S
C942 C345 1.080 . S
C977 C206 1.081 . S
C992 C379 1.080 . S
C1027 C281 1.288 . S
C1042 C9 1.287 . S
C1077 C43 1.287 . S
C1092 C315 1.287 . S
C1127 C77 1.287 . S
C1142 C349 1.287 . S
C1177 C111 1.287 . S
C1192 C383 1.287 . S
C1227 C145 1.288 . S
C1242 C213 1.287 . S
C1277 C247 1.288 . S
C1292 C179 1.287 . S
C1327 C339 1.525 . S
C1342 C33 1.525 . S
C1377 C373 1.525 . S
C1392 C67 1.525 . S
C1427 C101 1.525 . S
C1442 C407 1.525 . S
C1477 C135 1.525 . S
C1492 C237 1.525 . S
C1527 C169 1.525 . S
C1542 C271 1.525 . S
C1577 C305 1.525 . S
C1592 C203 1.525 . S
C1627 C20 1.479 . S
C1642 C224 1.479 . S
C1677 C258 1.480 . S
C1692 C54 1.480 . S
C1727 C88 1.479 . S
C1742 C292 1.480 . S
C1777 C326 1.479 . S
C1792 C122 1.479 . S
C1827 C360 1.479 . S
C1842 C156 1.479 . S
C1877 C394 1.479 . S
C1892 C190 1.479 . S
