# Generated by pormake.
# Topology fnd, (5)-cn, num edge types: 1
# Building blocks:
#     Node 0, Type 0, BuildingBlock: XOMCOT_clean_sbu_0, # of connection points: 5
#     Node 1, Type 0, BuildingBlock: XOMCOT_clean_sbu_0, # of connection points: 5
#     Node 2, Type 0, BuildingBlock: XOMCOT_clean_sbu_0, # of connection points: 5
#     Node 3, Type 0, BuildingBlock: XOMCOT_clean_sbu_0, # of connection points: 5
#     Node 4, Type 0, BuildingBlock: XOMCOT_clean_sbu_0, # of connection points: 5
#     Node 5, Type 0, BuildingBlock: XOMCOT_clean_sbu_0, # of connection points: 5
#     Node 6, Type 0, BuildingBlock: XOMCOT_clean_sbu_0, # of connection points: 5
#     Node 7, Type 0, BuildingBlock: XOMCOT_clean_sbu_0, # of connection points: 5
#     Node 8, Type 0, BuildingBlock: XOMCOT_clean_sbu_0, # of connection points: 5
#     Node 9, Type 0, BuildingBlock: XOMCOT_clean_sbu_0, # of connection points: 5
#     Node 10, Type 0, BuildingBlock: XOMCOT_clean_sbu_0, # of connection points: 5
#     Node 11, Type 0, BuildingBlock: XOMCOT_clean_sbu_0, # of connection points: 5
#     Node 12, Type 0, BuildingBlock: XOMCOT_clean_sbu_0, # of connection points: 5
#     Node 13, Type 0, BuildingBlock: XOMCOT_clean_sbu_0, # of connection points: 5
#     Node 14, Type 0, BuildingBlock: XOMCOT_clean_sbu_0, # of connection points: 5
#     Node 15, Type 0, BuildingBlock: XOMCOT_clean_sbu_0, # of connection points: 5
#     Node 16, Type 0, BuildingBlock: XOMCOT_clean_sbu_0, # of connection points: 5
#     Node 17, Type 0, BuildingBlock: XOMCOT_clean_sbu_0, # of connection points: 5
#     Edge 18, Type (0, 0), BuildingBlock: OJICUG_clean_linker_0, # of connection points: 2
#     Edge 19, Type (0, 0), BuildingBlock: OJICUG_clean_linker_0, # of connection points: 2
#     Edge 20, Type (0, 0), BuildingBlock: OJICUG_clean_linker_0, # of connection points: 2
#     Edge 21, Type (0, 0), BuildingBlock: OJICUG_clean_linker_0, # of connection points: 2
#     Edge 22, Type (0, 0), BuildingBlock: OJICUG_clean_linker_0, # of connection points: 2
#     Edge 23, Type (0, 0), BuildingBlock: OJICUG_clean_linker_0, # of connection points: 2
#     Edge 24, Type (0, 0), BuildingBlock: OJICUG_clean_linker_0, # of connection points: 2
#     Edge 25, Type (0, 0), BuildingBlock: OJICUG_clean_linker_0, # of connection points: 2
#     Edge 26, Type (0, 0), BuildingBlock: OJICUG_clean_linker_0, # of connection points: 2
#     Edge 27, Type (0, 0), BuildingBlock: OJICUG_clean_linker_0, # of connection points: 2
#     Edge 28, Type (0, 0), BuildingBlock: OJICUG_clean_linker_0, # of connection points: 2
#     Edge 29, Type (0, 0), BuildingBlock: OJICUG_clean_linker_0, # of connection points: 2
#     Edge 30, Type (0, 0), BuildingBlock: OJICUG_clean_linker_0, # of connection points: 2
#     Edge 31, Type (0, 0), BuildingBlock: OJICUG_clean_linker_0, # of connection points: 2
#     Edge 32, Type (0, 0), BuildingBlock: OJICUG_clean_linker_0, # of connection points: 2
#     Edge 33, Type (0, 0), BuildingBlock: OJICUG_clean_linker_0, # of connection points: 2
#     Edge 34, Type (0, 0), BuildingBlock: OJICUG_clean_linker_0, # of connection points: 2
#     Edge 35, Type (0, 0), BuildingBlock: OJICUG_clean_linker_0, # of connection points: 2
#     Edge 36, Type (0, 0), BuildingBlock: OJICUG_clean_linker_0, # of connection points: 2
#     Edge 37, Type (0, 0), BuildingBlock: OJICUG_clean_linker_0, # of connection points: 2
#     Edge 38, Type (0, 0), BuildingBlock: OJICUG_clean_linker_0, # of connection points: 2
#     Edge 39, Type (0, 0), BuildingBlock: OJICUG_clean_linker_0, # of connection points: 2
#     Edge 40, Type (0, 0), BuildingBlock: OJICUG_clean_linker_0, # of connection points: 2
#     Edge 41, Type (0, 0), BuildingBlock: OJICUG_clean_linker_0, # of connection points: 2
#     Edge 42, Type (0, 0), BuildingBlock: OJICUG_clean_linker_0, # of connection points: 2
#     Edge 43, Type (0, 0), BuildingBlock: OJICUG_clean_linker_0, # of connection points: 2
#     Edge 44, Type (0, 0), BuildingBlock: OJICUG_clean_linker_0, # of connection points: 2
#     Edge 45, Type (0, 0), BuildingBlock: OJICUG_clean_linker_0, # of connection points: 2
#     Edge 46, Type (0, 0), BuildingBlock: OJICUG_clean_linker_0, # of connection points: 2
#     Edge 47, Type (0, 0), BuildingBlock: OJICUG_clean_linker_0, # of connection points: 2
#     Edge 48, Type (0, 0), BuildingBlock: OJICUG_clean_linker_0, # of connection points: 2
#     Edge 49, Type (0, 0), BuildingBlock: OJICUG_clean_linker_0, # of connection points: 2
#     Edge 50, Type (0, 0), BuildingBlock: OJICUG_clean_linker_0, # of connection points: 2
#     Edge 51, Type (0, 0), BuildingBlock: OJICUG_clean_linker_0, # of connection points: 2
#     Edge 52, Type (0, 0), BuildingBlock: OJICUG_clean_linker_0, # of connection points: 2
#     Edge 53, Type (0, 0), BuildingBlock: OJICUG_clean_linker_0, # of connection points: 2
#     Edge 54, Type (0, 0), BuildingBlock: OJICUG_clean_linker_0, # of connection points: 2
#     Edge 55, Type (0, 0), BuildingBlock: OJICUG_clean_linker_0, # of connection points: 2
#     Edge 56, Type (0, 0), BuildingBlock: OJICUG_clean_linker_0, # of connection points: 2
#     Edge 57, Type (0, 0), BuildingBlock: OJICUG_clean_linker_0, # of connection points: 2
#     Edge 58, Type (0, 0), BuildingBlock: OJICUG_clean_linker_0, # of connection points: 2
#     Edge 59, Type (0, 0), BuildingBlock: OJICUG_clean_linker_0, # of connection points: 2
#     Edge 60, Type (0, 0), BuildingBlock: OJICUG_clean_linker_0, # of connection points: 2
#     Edge 61, Type (0, 0), BuildingBlock: OJICUG_clean_linker_0, # of connection points: 2
#     Edge 62, Type (0, 0), BuildingBlock: OJICUG_clean_linker_0, # of connection points: 2
# Relax obj value: 0.027
# Max RMSD: 0.057
# Mean RMSD: 0.057
data_MOF--net-fnd--node1-XOMCOT_clean_sbu_0--edge1-OJICUG_clean_linker_0
_symmetry_space_group_name_H-M    P1
_symmetry_Int_Tables_number       1
_symmetry_cell_setting            triclinic
loop_
_symmetry_equiv_pos_as_xyz
'x, y, z'
_cell_length_a     62.135415
_cell_length_b     62.172615
_cell_length_c     13.626333
_cell_angle_alpha  90.269689
_cell_angle_beta   89.988962
_cell_angle_gamma 119.9879
loop_
_atom_site_label
_atom_site_type_symbol
_atom_site_fract_x
_atom_site_fract_y
_atom_site_fract_z
_atom_type_partial_charge
Co0 Co 0.1253 0.25646 0.48392 0.0
C1 C 0.12986 0.25657 0.69986 0.0
C2 C 0.13754 0.292 0.64473 0.0
C3 C 0.13844 0.29317 0.74543 0.0
N4 N 0.13228 0.26912 0.6164 0.0
N5 N 0.13355 0.27087 0.78031 0.0
H6 H 0.125 0.23727 0.7011 0.0
H7 H 0.13951 0.30652 0.59582 0.0
C8 C 0.17184 0.30083 0.39896 0.0
O9 O 0.18157 0.28706 0.37444 0.0
N10 N 0.11741 0.244 0.34866 0.0
C11 C 0.09859 0.22165 0.31916 0.0
C12 C 0.09799 0.22049 0.21855 0.0
C13 C 0.12756 0.2562 0.26418 0.0
N14 N 0.11626 0.24224 0.18373 0.0
C15 C 0.1437 0.22284 0.46051 0.0
C16 C 0.18883 0.25072 0.55464 0.0
C17 C 0.183 0.22768 0.51361 0.0
C18 C 0.15997 0.21364 0.46722 0.0
C19 C 0.17202 0.25949 0.54489 0.0
N20 N 0.15008 0.24592 0.49498 0.0
H21 H 0.12563 0.21094 0.42934 0.0
H22 H 0.17685 0.27737 0.57609 0.0
H23 H 0.08585 0.20696 0.36691 0.0
H24 H 0.14252 0.27504 0.26066 0.0
O25 O 0.09704 0.22635 0.53098 0.0
O26 O 0.09592 0.25993 0.48489 0.0
O27 O 0.15011 0.29106 0.43661 0.0
C28 C 0.08406 0.2373 0.51837 0.0
H29 H 0.14124 0.30893 0.78925 0.0
H30 H 0.08457 0.20499 0.17489 0.0
H31 H 0.2063 0.26196 0.59262 0.0
H32 H 0.15424 0.19529 0.43822 0.0
Co33 Co 0.79215 0.87833 0.47279 0.0
C34 C 0.79268 0.87802 0.69055 0.0
C35 C 0.75745 0.85058 0.63153 0.0
C36 C 0.75646 0.84877 0.73235 0.0
N37 N 0.78009 0.86901 0.6055 0.0
N38 N 0.77864 0.86603 0.76969 0.0
H39 H 0.81174 0.89293 0.69423 0.0
H40 H 0.74283 0.83888 0.58069 0.0
C41 C 0.75038 0.879 0.36001 0.0
O42 O 0.76666 0.8983 0.30973 0.0
N43 N 0.80437 0.88721 0.33922 0.0
C44 C 0.8257 0.90715 0.30966 0.0
C45 C 0.8271 0.90658 0.20891 0.0
C46 C 0.79351 0.87437 0.25606 0.0
N47 N 0.80673 0.88609 0.17507 0.0
C48 C 0.82763 0.92707 0.53901 0.0
C49 C 0.80013 0.95029 0.51366 0.0
C50 C 0.82543 0.9649 0.53864 0.0
C51 C 0.83857 0.95242 0.5569 0.0
C52 C 0.78946 0.92445 0.50085 0.0
N53 N 0.80371 0.91335 0.50607 0.0
H54 H 0.83902 0.91878 0.55028 0.0
H55 H 0.76984 0.91379 0.4868 0.0
H56 H 0.83934 0.92133 0.3572 0.0
H57 H 0.77596 0.85711 0.25489 0.0
O58 O 0.82197 0.87762 0.50608 0.0
O59 O 0.78762 0.84521 0.45099 0.0
O60 O 0.75758 0.87054 0.43057 0.0
C61 C 0.81046 0.8544 0.48096 0.0
H62 H 0.74076 0.83529 0.77444 0.0
H63 H 0.84162 0.92065 0.1639 0.0
H64 H 0.78867 0.95863 0.50204 0.0
H65 H 0.85753 0.96212 0.5834 0.0
Co66 Co 0.16517 0.92328 0.4548 0.0
C67 C 0.16359 0.9205 0.67444 0.0
C68 C 0.19531 0.92029 0.61438 0.0
C69 C 0.19696 0.9205 0.71516 0.0
N70 N 0.17408 0.91972 0.58847 0.0
N71 N 0.17699 0.92069 0.75311 0.0
H72 H 0.14736 0.92239 0.68019 0.0
H73 H 0.20899 0.92108 0.56324 0.0
C74 C 0.17299 0.8792 0.44438 0.0
O75 O 0.16196 0.87156 0.52967 0.0
N76 N 0.157 0.92735 0.32202 0.0
C77 C 0.13855 0.93138 0.29398 0.0
C78 C 0.13783 0.93152 0.19295 0.0
C79 C 0.16743 0.92533 0.23814 0.0
N80 N 0.15596 0.92767 0.15791 0.0
C81 C 0.1157 0.90338 0.52869 0.0
C82 C 0.09418 0.85856 0.42936 0.0
C83 C 0.07919 0.86388 0.49029 0.0
C84 C 0.09036 0.88679 0.53948 0.0
C85 C 0.11966 0.87577 0.42092 0.0
N86 N 0.1304 0.89753 0.47339 0.0
H87 H 0.1232 0.92145 0.5622 0.0
H88 H 0.13035 0.87183 0.36904 0.0
H89 H 0.12623 0.93367 0.34354 0.0
H90 H 0.18264 0.92156 0.23589 0.0
O91 O 0.16305 0.95203 0.49551 0.0
O92 O 0.19735 0.95325 0.44316 0.0
O93 O 0.17501 0.89871 0.40471 0.0
C94 C 0.18665 0.96522 0.47668 0.0
H95 H 0.21194 0.92085 0.75683 0.0
H96 H 0.12495 0.93429 0.14878 0.0
H97 H 0.08628 0.8414 0.38772 0.0
H98 H 0.07944 0.89239 0.58331 0.0
Co99 Co 0.26092 0.1129 0.57902 0.0
C100 C 0.26197 0.1155 0.35946 0.0
C101 C 0.29407 0.11598 0.41911 0.0
C102 C 0.29539 0.11562 0.31825 0.0
N103 N 0.27338 0.1165 0.4453 0.0
N104 N 0.27511 0.1152 0.28088 0.0
H105 H 0.24409 0.11417 0.3535 0.0
H106 H 0.30695 0.11511 0.4701 0.0
C107 C 0.31288 0.1568 0.59025 0.0
O108 O 0.30955 0.1646 0.50521 0.0
N109 N 0.24868 0.10877 0.71179 0.0
C110 C 0.22624 0.10482 0.73997 0.0
C111 C 0.22526 0.10423 0.84094 0.0
C112 C 0.26102 0.11041 0.7955 0.0
N113 N 0.24715 0.10778 0.87604 0.0
C114 C 0.23182 0.13334 0.50546 0.0
C115 C 0.25537 0.17798 0.60606 0.0
C116 C 0.2353 0.17301 0.54443 0.0
C117 C 0.2234 0.15019 0.49466 0.0
C118 C 0.26332 0.16053 0.61441 0.0
N119 N 0.25222 0.13888 0.56117 0.0
H120 H 0.22111 0.11534 0.4716 0.0
H121 H 0.27778 0.16418 0.66677 0.0
H122 H 0.21179 0.10298 0.69058 0.0
H123 H 0.27974 0.11344 0.79714 0.0
O124 O 0.2299 0.08438 0.53798 0.0
O125 O 0.26278 0.08273 0.58992 0.0
O126 O 0.29536 0.13721 0.6294 0.0
C127 C 0.2401 0.07099 0.55642 0.0
H128 H 0.30959 0.11458 0.27589 0.0
H129 H 0.20978 0.10202 0.88483 0.0
H130 H 0.2647 0.19505 0.64825 0.0
H131 H 0.20701 0.14487 0.45033 0.0
Co132 Co 0.93548 0.16064 0.59202 0.0
C133 C 0.93431 0.1603 0.37158 0.0
C134 C 0.93114 0.19026 0.43354 0.0
C135 C 0.93171 0.19234 0.33276 0.0
N136 N 0.93213 0.16976 0.45824 0.0
N137 N 0.93381 0.1735 0.29401 0.0
H138 H 0.93699 0.14461 0.36396 0.0
H139 H 0.93071 0.20323 0.48551 0.0
C140 C 0.88988 0.16583 0.60024 0.0
O141 O 0.88267 0.15459 0.51473 0.0
N142 N 0.93938 0.15248 0.72491 0.0
C143 C 0.94393 0.13444 0.75341 0.0
C144 C 0.94477 0.1344 0.85441 0.0
C145 C 0.93764 0.16327 0.8084 0.0
N146 N 0.9408 0.15253 0.88911 0.0
C147 C 0.91723 0.11206 0.51101 0.0
C148 C 0.87386 0.08772 0.61775 0.0
C149 C 0.88003 0.07368 0.5544 0.0
C150 C 0.90179 0.0866 0.49861 0.0
C151 C 0.88947 0.11362 0.62472 0.0
N152 N 0.91073 0.12563 0.57013 0.0
H153 H 0.93516 0.12049 0.47653 0.0
H154 H 0.8851 0.12364 0.67853 0.0
H155 H 0.94616 0.122 0.7042 0.0
H156 H 0.9343 0.17875 0.80975 0.0
O157 O 0.96496 0.15967 0.55419 0.0
O158 O 0.96479 0.19326 0.60772 0.0
O159 O 0.90983 0.16902 0.64054 0.0
C160 C 0.9775 0.18317 0.57601 0.0
H161 H 0.93161 0.20712 0.29152 0.0
H162 H 0.94755 0.12158 0.89866 0.0
H163 H 0.85778 0.07879 0.66508 0.0
H164 H 0.90762 0.07716 0.44746 0.0
Co165 Co 0.88565 0.78126 0.55286 0.0
C166 C 0.88957 0.78101 0.33689 0.0
C167 C 0.86168 0.74572 0.39265 0.0
C168 C 0.86116 0.74453 0.29192 0.0
N169 N 0.87953 0.76853 0.42054 0.0
N170 N 0.87866 0.76674 0.25665 0.0
H171 H 0.90416 0.80025 0.33544 0.0
H172 H 0.84917 0.73127 0.44193 0.0
C173 C 0.88865 0.73768 0.64018 0.0
O174 O 0.91185 0.75205 0.66749 0.0
N175 N 0.89071 0.79383 0.688 0.0
C176 C 0.89558 0.81664 0.71724 0.0
C177 C 0.89588 0.81777 0.81784 0.0
C178 C 0.88738 0.78126 0.77259 0.0
N179 N 0.89079 0.79549 0.85297 0.0
C180 C 0.93776 0.81546 0.5698 0.0
C181 C 0.95478 0.7867 0.48144 0.0
C182 C 0.97209 0.8101 0.51944 0.0
C183 C 0.96321 0.8246 0.56265 0.0
C184 C 0.92921 0.77803 0.49161 0.0
N185 N 0.92097 0.79202 0.53908 0.0
H186 H 0.93166 0.82764 0.59849 0.0
H187 H 0.91605 0.75989 0.46278 0.0
H188 H 0.89848 0.83164 0.66925 0.0
H189 H 0.88187 0.76195 0.77607 0.0
O190 O 0.88692 0.81114 0.50671 0.0
O191 O 0.85264 0.7774 0.55488 0.0
O192 O 0.87648 0.74684 0.59964 0.0
C193 C 0.86305 0.80001 0.52141 0.0
H194 H 0.84801 0.72881 0.24844 0.0
H195 H 0.89888 0.83365 0.86119 0.0
H196 H 0.96091 0.77511 0.44574 0.0
H197 H 0.97592 0.84321 0.58908 0.0
Co198 Co 0.79088 0.58834 0.81486 0.0
C199 C 0.79518 0.58863 0.03082 0.0
C200 C 0.80211 0.62377 0.97524 0.0
C201 C 0.80285 0.62497 0.07596 0.0
N202 N 0.79741 0.60105 0.94723 0.0
N203 N 0.79843 0.60285 0.11112 0.0
H204 H 0.79077 0.56946 0.03221 0.0
H205 H 0.80382 0.63815 0.92606 0.0
C206 C 0.83716 0.63258 0.72857 0.0
O207 O 0.84666 0.61871 0.70241 0.0
N208 N 0.78345 0.57579 0.67966 0.0
C209 C 0.76543 0.55301 0.6503 0.0
C210 C 0.7647 0.55188 0.54971 0.0
C211 C 0.79288 0.5883 0.59512 0.0
N212 N 0.78204 0.5741 0.51471 0.0
C213 C 0.80954 0.55483 0.79642 0.0
C214 C 0.85493 0.58373 0.88748 0.0
C215 C 0.84918 0.56047 0.849 0.0
C216 C 0.82602 0.54592 0.80423 0.0
C217 C 0.83789 0.59219 0.87659 0.0
N218 N 0.81583 0.57811 0.82807 0.0
H219 H 0.7914 0.54258 0.76668 0.0
H220 H 0.8426 0.61021 0.90594 0.0
H221 H 0.75324 0.53803 0.69819 0.0
H222 H 0.80689 0.60755 0.59163 0.0
O223 O 0.76258 0.55817 0.86116 0.0
O224 O 0.76144 0.59164 0.81346 0.0
O225 O 0.81566 0.62292 0.76801 0.0
C226 C 0.74956 0.56901 0.84692 0.0
H227 H 0.80525 0.64061 0.11954 0.0
H228 H 0.75178 0.53604 0.50622 0.0
H229 H 0.87248 0.59535 0.92431 0.0
H230 H 0.82038 0.52741 0.77731 0.0
Co231 Co 0.45966 0.21028 0.79087 0.0
C232 C 0.45863 0.21089 1.01103 0.0
C233 C 0.42671 0.17938 0.94938 0.0
C234 C 0.42524 0.17745 0.05022 0.0
N235 N 0.44741 0.20065 0.9245 0.0
N236 N 0.44543 0.19725 0.08875 0.0
H237 H 0.47629 0.22759 1.01844 0.0
H238 H 0.4138 0.16588 0.89746 0.0
C239 C 0.40822 0.20387 0.78594 0.0
O240 O 0.41159 0.2138 0.87391 0.0
N241 N 0.47155 0.21905 0.65802 0.0
C242 C 0.49391 0.23755 0.62967 0.0
C243 C 0.49479 0.23778 0.52868 0.0
C244 C 0.45917 0.20816 0.57441 0.0
N245 N 0.47293 0.21928 0.49375 0.0
C246 C 0.49106 0.25863 0.87118 0.0
C247 C 0.47012 0.28315 0.77843 0.0
C248 C 0.49147 0.29698 0.83635 0.0
C249 C 0.50146 0.2841 0.88467 0.0
C250 C 0.45986 0.25731 0.76855 0.0
N251 N 0.47007 0.2452 0.81634 0.0
H252 H 0.50079 0.24999 0.90214 0.0
H253 H 0.44461 0.24747 0.71801 0.0
H254 H 0.50848 0.25013 0.67894 0.0
H255 H 0.44056 0.19229 0.57301 0.0
O256 O 0.49009 0.211 0.82649 0.0
O257 O 0.45628 0.1777 0.77176 0.0
O258 O 0.42556 0.20202 0.74357 0.0
C259 C 0.4791 0.18762 0.80296 0.0
H260 H 0.41094 0.16219 0.09171 0.0
H261 H 0.51025 0.25092 0.48465 0.0
H262 H 0.46212 0.2923 0.73721 0.0
H263 H 0.51784 0.2937 0.93057 0.0
Co264 Co 0.83318 0.25692 0.80029 0.0
C265 C 0.83162 0.25433 0.01988 0.0
C266 C 0.86336 0.25409 0.96016 0.0
C267 C 0.86504 0.25443 0.06101 0.0
N268 N 0.84209 0.25344 0.93403 0.0
N269 N 0.8451 0.25471 0.09841 0.0
H270 H 0.81499 0.25552 0.0259 0.0
H271 H 0.87714 0.25503 0.90913 0.0
C272 C 0.84107 0.21296 0.79065 0.0
O273 O 0.82991 0.20537 0.87574 0.0
N274 N 0.82504 0.26095 0.66749 0.0
C275 C 0.8066 0.26498 0.63938 0.0
C276 C 0.8062 0.26556 0.53843 0.0
C277 C 0.83571 0.25927 0.58375 0.0
N278 N 0.8245 0.26194 0.50327 0.0
C279 C 0.78364 0.23671 0.87379 0.0
C280 C 0.76243 0.19206 0.77323 0.0
C281 C 0.74732 0.19717 0.83428 0.0
C282 C 0.75833 0.21999 0.88411 0.0
C283 C 0.78788 0.20938 0.76531 0.0
N284 N 0.79847 0.23104 0.81845 0.0
H285 H 0.79102 0.25472 0.90761 0.0
H286 H 0.79867 0.20563 0.71324 0.0
H287 H 0.79404 0.2669 0.68881 0.0
H288 H 0.85137 0.25618 0.58209 0.0
O289 O 0.83083 0.28555 0.84082 0.0
O290 O 0.86527 0.28699 0.78885 0.0
O291 O 0.84319 0.23247 0.75055 0.0
C292 C 0.85443 0.29885 0.82214 0.0
H293 H 0.88031 0.25555 0.10335 0.0
H294 H 0.79297 0.26784 0.4946 0.0
H295 H 0.75465 0.17498 0.73106 0.0
H296 H 0.74728 0.22542 0.92803 0.0
Co297 Co 0.92784 0.4466 0.92169 0.0
C298 C 0.92902 0.44925 0.70201 0.0
C299 C 0.96099 0.44956 0.76209 0.0
C300 C 0.96243 0.44934 0.66129 0.0
N301 N 0.9403 0.45007 0.78799 0.0
N302 N 0.94226 0.44911 0.62335 0.0
H303 H 0.91088 0.4473 0.6962 0.0
H304 H 0.97391 0.44883 0.81324 0.0
C305 C 0.97968 0.49071 0.93197 0.0
O306 O 0.97625 0.4983 0.84663 0.0
N307 N 0.91563 0.44262 0.0545 0.0
C308 C 0.89318 0.4387 0.08262 0.0
C309 C 0.89233 0.43856 0.18365 0.0
C310 C 0.92806 0.44458 0.13833 0.0
N311 N 0.91429 0.44231 0.21862 0.0
C312 C 0.89851 0.46668 0.84707 0.0
C313 C 0.92199 0.51155 0.94604 0.0
C314 C 0.90191 0.5064 0.88412 0.0
C315 C 0.89005 0.48345 0.83524 0.0
C316 C 0.93 0.49417 0.95544 0.0
N317 N 0.91894 0.47241 0.90292 0.0
H318 H 0.88785 0.44859 0.81381 0.0
H319 H 0.94447 0.49798 1.00794 0.0
H320 H 0.8786 0.43648 0.0331 0.0
H321 H 0.94702 0.44825 0.14051 0.0
O322 O 0.89691 0.41791 0.88119 0.0
O323 O 0.92993 0.41658 0.93356 0.0
O324 O 0.96225 0.47115 0.97161 0.0
C325 C 0.90725 0.40467 0.90017 0.0
H326 H 0.9771 0.44905 0.6196 0.0
H327 H 0.87671 0.43586 0.22787 0.0
H328 H 0.93129 0.52873 0.98762 0.0
H329 H 0.87365 0.478 0.79076 0.0
Co330 Co 0.60067 0.49183 0.90568 0.0
C331 C 0.59919 0.49133 0.68548 0.0
C332 C 0.59906 0.52296 0.74726 0.0
C333 C 0.59955 0.52492 0.64643 0.0
N334 N 0.59831 0.50161 0.77204 0.0
N335 N 0.59975 0.50503 0.60782 0.0
H336 H 0.59995 0.47452 0.67797 0.0
H337 H 0.59972 0.53649 0.79924 0.0
C338 C 0.55568 0.49826 0.9091 0.0
O339 O 0.54932 0.48839 0.82097 0.0
N340 N 0.60355 0.48291 0.03855 0.0
C341 C 0.60728 0.46433 0.0669 0.0
C342 C 0.60793 0.46411 0.16788 0.0
C343 C 0.60214 0.49386 0.12215 0.0
N344 N 0.60472 0.4827 0.2028 0.0
C345 C 0.58384 0.44353 0.82484 0.0
C346 C 0.53817 0.419 0.91613 0.0
C347 C 0.54575 0.4052 0.85834 0.0
C348 C 0.56874 0.41808 0.81079 0.0
C349 C 0.55378 0.44481 0.92657 0.0
N350 N 0.5762 0.45694 0.87947 0.0
H351 H 0.60227 0.45219 0.7944 0.0
H352 H 0.54829 0.45461 0.977 0.0
H353 H 0.60921 0.45172 1.01763 0.0
H354 H 0.59955 0.50982 0.12353 0.0
O355 O 0.63048 0.49118 0.87089 0.0
O356 O 0.6298 0.52439 0.92576 0.0
O357 O 0.57475 0.50004 0.95223 0.0
C358 C 0.64279 0.51453 0.89495 0.0
H359 H 0.60062 0.54023 0.60499 0.0
H360 H 0.61019 0.45093 0.2119 0.0
H361 H 0.52093 0.40983 0.95684 0.0
H362 H 0.57557 0.40851 0.76502 0.0
Co363 Co 0.55383 0.11453 0.89048 0.0
C364 C 0.55816 0.11438 0.67453 0.0
C365 C 0.53042 0.07897 0.72988 0.0
C366 C 0.53004 0.0778 0.62917 0.0
N367 N 0.54809 0.10184 0.75806 0.0
N368 N 0.54744 0.10009 0.59416 0.0
H369 H 0.57261 0.13368 0.6732 0.0
H370 H 0.51788 0.06446 0.77889 0.0
C371 C 0.55613 0.07045 0.97699 0.0
O372 O 0.57947 0.08447 1.00332 0.0
N373 N 0.55846 0.12703 0.02569 0.0
C374 C 0.56254 0.14959 0.05499 0.0
C375 C 0.56296 0.15074 0.15561 0.0
C376 C 0.55584 0.11468 0.11028 0.0
N377 N 0.5588 0.12876 0.19065 0.0
C378 C 0.60586 0.14828 0.91224 0.0
C379 C 0.62303 0.11995 0.82123 0.0
C380 C 0.64027 0.14311 0.86136 0.0
C381 C 0.63132 0.15739 0.90603 0.0
C382 C 0.59746 0.1113 0.83046 0.0
N383 N 0.58913 0.12508 0.87904 0.0
H384 H 0.59973 0.16033 0.94212 0.0
H385 H 0.58436 0.09333 0.80004 0.0
H386 H 0.56493 0.16442 1.00707 0.0
H387 H 0.55127 0.09563 0.11388 0.0
O388 O 0.55558 0.14458 0.84352 0.0
O389 O 0.52095 0.11096 0.88999 0.0
O390 O 0.54415 0.07998 0.93767 0.0
C391 C 0.53166 0.13358 0.85648 0.0
H392 H 0.51702 0.06206 0.58548 0.0
H393 H 0.56544 0.16642 0.19907 0.0
H394 H 0.62923 0.10854 0.78447 0.0
H395 H 0.64398 0.17582 0.9342 0.0
Co396 Co 0.45723 0.92105 0.14968 0.0
C397 C 0.4618 0.92113 0.36562 0.0
C398 C 0.46976 0.95665 0.31047 0.0
C399 C 0.47061 0.9578 0.41117 0.0
N400 N 0.46435 0.93372 0.28215 0.0
N401 N 0.46554 0.93545 0.44606 0.0
H402 H 0.45677 0.90178 0.36687 0.0
H403 H 0.47183 0.97121 0.26157 0.0
C404 C 0.50373 0.96523 0.06373 0.0
O405 O 0.51323 0.95133 0.03814 0.0
N406 N 0.44921 0.90859 1.01446 0.0
C407 C 0.43041 0.88622 0.98511 0.0
C408 C 0.42974 0.88505 0.88449 0.0
C409 C 0.45924 0.92082 0.9299 0.0
N410 N 0.44792 0.90683 0.84951 0.0
C411 C 0.47547 0.88728 0.1257 0.0
C412 C 0.52088 0.91528 0.21775 0.0
C413 C 0.51501 0.89229 0.17613 0.0
C414 C 0.49184 0.87817 0.13093 0.0
C415 C 0.50397 0.92397 0.20938 0.0
N416 N 0.48191 0.91037 0.16031 0.0
H417 H 0.45732 0.87535 0.09522 0.0
H418 H 0.50885 0.94185 0.24072 0.0
H419 H 0.41775 0.87151 0.03298 0.0
H420 H 0.47411 0.93969 0.92628 0.0
O421 O 0.42886 0.89105 0.19686 0.0
O422 O 0.42804 0.92479 0.15088 0.0
O423 O 0.48213 0.95558 0.10238 0.0
C424 C 0.41604 0.90218 0.18435 0.0
H425 H 0.4735 0.97359 0.45496 0.0
H426 H 0.41633 0.86951 0.84095 0.0
H427 H 0.53846 0.92657 0.25486 0.0
H428 H 0.48613 0.85986 0.10147 0.0
Co429 Co 0.12655 0.54483 0.13163 0.0
C430 C 0.12554 0.54534 0.35182 0.0
C431 C 0.09367 0.5138 0.29008 0.0
C432 C 0.09221 0.51185 0.39092 0.0
N433 N 0.11435 0.5351 0.26526 0.0
N434 N 0.11237 0.53167 0.42951 0.0
H435 H 0.14317 0.56207 0.35929 0.0
H436 H 0.08078 0.5003 0.23813 0.0
C437 C 0.07508 0.5383 0.12704 0.0
O438 O 0.07845 0.5482 0.21507 0.0
N439 N 0.1384 0.55369 0.99878 0.0
C440 C 0.16072 0.57227 0.97039 0.0
C441 C 0.16159 0.57248 0.86939 0.0
C442 C 0.12604 0.54274 0.91518 0.0
N443 N 0.13977 0.5539 0.8345 0.0
C444 C 0.15785 0.59315 0.21239 0.0
C445 C 0.13676 0.61761 0.12034 0.0
C446 C 0.15809 0.63144 0.1784 0.0
C447 C 0.16815 0.61859 0.22637 0.0
C448 C 0.12659 0.59179 0.11002 0.0
N449 N 0.13688 0.57971 0.15749 0.0
H450 H 0.16764 0.58454 0.24305 0.0
H451 H 0.11136 0.58197 0.05941 0.0
H452 H 0.17526 0.5849 0.01963 0.0
H453 H 0.10748 0.52679 0.91381 0.0
O454 O 0.15704 0.54562 0.16691 0.0
O455 O 0.12325 0.5123 0.11205 0.0
O456 O 0.09243 0.53651 0.08455 0.0
C457 C 0.14609 0.52226 0.14306 0.0
H458 H 0.07792 0.49656 0.43238 0.0
H459 H 0.17702 0.58567 0.82533 0.0
H460 H 0.12871 0.62675 0.07936 0.0
H461 H 0.18451 0.62819 0.27235 0.0
Co462 Co 0.50042 0.59047 0.1106 0.0
C463 C 0.49889 0.58796 0.33013 0.0
C464 C 0.53053 0.5875 0.27048 0.0
C465 C 0.53218 0.58782 0.37134 0.0
N466 N 0.50934 0.58701 0.24432 0.0
N467 N 0.51231 0.58823 0.4087 0.0
H468 H 0.4823 0.58922 0.33608 0.0
H469 H 0.54426 0.58832 0.21947 0.0
C470 C 0.50781 0.54616 0.10127 0.0
O471 O 0.49683 0.53874 0.18677 0.0
N472 N 0.49224 0.59446 0.97782 0.0
C473 C 0.47387 0.5986 0.94974 0.0
C474 C 0.47346 0.59917 0.84879 0.0
C475 C 0.50286 0.5927 0.89407 0.0
N476 N 0.49168 0.59543 0.8136 0.0
C477 C 0.45094 0.57084 0.18455 0.0
C478 C 0.42936 0.52574 0.08716 0.0
C479 C 0.41444 0.53114 0.14809 0.0
C480 C 0.42562 0.55422 0.19612 0.0
C481 C 0.45479 0.543 0.07776 0.0
N482 N 0.46559 0.56487 0.12955 0.0
H483 H 0.45849 0.58899 0.21741 0.0
H484 H 0.46541 0.53898 0.02581 0.0
H485 H 0.46138 0.60063 0.99919 0.0
H486 H 0.51846 0.58954 0.8924 0.0
O487 O 0.4986 0.61945 0.15067 0.0
O488 O 0.5327 0.62028 0.09826 0.0
O489 O 0.50999 0.56568 0.06103 0.0
C490 C 0.52219 0.63246 0.13135 0.0
H491 H 0.54739 0.5888 0.41372 0.0
H492 H 0.46028 0.60153 0.80498 0.0
H493 H 0.42147 0.50846 0.04629 0.0
H494 H 0.41473 0.55989 0.2398 0.0
Co495 Co 0.59707 0.78068 0.22333 0.0
C496 C 0.59751 0.78232 1.00336 0.0
C497 C 0.6307 0.78524 0.06347 0.0
C498 C 0.63212 0.78486 0.96275 0.0
N499 N 0.60926 0.78427 0.08928 0.0
N500 N 0.61118 0.78292 0.92511 0.0
H501 H 0.5791 0.7797 0.99707 0.0
H502 H 0.6441 0.78543 0.11463 0.0
C503 C 0.64763 0.82597 0.22972 0.0
O504 O 0.64129 0.83365 0.15096 0.0
N505 N 0.58516 0.77651 0.35644 0.0
C506 C 0.56244 0.7717 0.38469 0.0
C507 C 0.56141 0.77089 0.48553 0.0
C508 C 0.59766 0.77846 0.43996 0.0
N509 N 0.58357 0.77515 0.52042 0.0
C510 C 0.56764 0.80079 0.14943 0.0
C511 C 0.5891 0.84411 0.25882 0.0
C512 C 0.56933 0.8393 0.19564 0.0
C513 C 0.5585 0.81712 0.14135 0.0
C514 C 0.59773 0.82716 0.26458 0.0
N515 N 0.58775 0.80626 0.20686 0.0
H516 H 0.55751 0.78306 0.1131 0.0
H517 H 0.61184 0.83052 0.31831 0.0
H518 H 0.54777 0.76935 0.33537 0.0
H519 H 0.61661 0.78213 0.44153 0.0
O520 O 0.56605 0.75195 0.18403 0.0
O521 O 0.59928 0.75065 0.23364 0.0
O522 O 0.63186 0.80554 0.27017 0.0
C523 C 0.57643 0.7387 0.20193 0.0
H524 H 0.64692 0.7849 0.92069 0.0
H525 H 0.5457 0.76799 0.52955 0.0
H526 H 0.59764 0.86064 0.30442 0.0
H527 H 0.54229 0.81179 0.09587 0.0
Co528 Co 0.26721 0.82625 0.24774 0.0
C529 C 0.26576 0.82578 0.02751 0.0
C530 C 0.26557 0.85738 0.08936 0.0
C531 C 0.26607 0.85935 0.98852 0.0
N532 N 0.26485 0.83603 0.1141 0.0
N533 N 0.26631 0.83949 0.94987 0.0
H534 H 0.26655 0.809 0.01996 0.0
H535 H 0.26622 0.87089 0.14136 0.0
C536 C 0.22224 0.83272 0.25153 0.0
O537 O 0.21584 0.82276 0.16355 0.0
N538 N 0.27009 0.81733 0.3806 0.0
C539 C 0.27373 0.7987 0.40898 0.0
C540 C 0.27439 0.79848 0.50997 0.0
C541 C 0.26873 0.82831 0.46419 0.0
N542 N 0.27125 0.81713 0.54486 0.0
C543 C 0.25017 0.77795 0.16677 0.0
C544 C 0.20461 0.75346 0.25889 0.0
C545 C 0.21212 0.73964 0.20084 0.0
C546 C 0.23504 0.75251 0.15281 0.0
C547 C 0.22025 0.77929 0.26918 0.0
N548 N 0.24262 0.79138 0.22169 0.0
H549 H 0.26857 0.78656 0.13612 0.0
H550 H 0.21485 0.78911 0.31983 0.0
H551 H 0.27559 0.78604 0.35974 0.0
H552 H 0.26621 0.84431 0.46555 0.0
O553 O 0.29689 0.82538 0.21274 0.0
O554 O 0.29652 0.85874 0.26751 0.0
O555 O 0.24138 0.8346 0.29447 0.0
C556 C 0.30936 0.84873 0.2366 0.0
H557 H 0.26713 0.87466 0.94712 0.0
H558 H 0.27657 0.78527 0.55402 0.0
H559 H 0.18742 0.74431 0.29991 0.0
H560 H 0.2418 0.74291 0.10684 0.0
Co561 Co 0.2214 0.4493 0.21827 0.0
C562 C 0.22334 0.44941 1.00116 0.0
C563 C 0.19951 0.4129 0.05807 0.0
C564 C 0.19878 0.41158 0.95739 0.0
N565 N 0.21501 0.43658 0.08543 0.0
N566 N 0.21363 0.43457 0.92123 0.0
H567 H 0.23563 0.4693 0.99901 0.0
H568 H 0.18899 0.39762 0.10752 0.0
C569 C 0.22385 0.40599 0.31091 0.0
O570 O 0.24667 0.42058 0.34204 0.0
N571 N 0.2269 0.46185 0.3535 0.0
C572 C 0.23486 0.48548 0.38294 0.0
C573 C 0.23516 0.48659 0.48366 0.0
C574 C 0.22121 0.44878 0.43797 0.0
N575 N 0.2266 0.46349 0.51807 0.0
C576 C 0.27363 0.48363 0.22596 0.0
C577 C 0.28991 0.45308 0.1491 0.0
C578 C 0.3075 0.47707 0.18079 0.0
C579 C 0.299 0.49247 0.21793 0.0
C580 C 0.26442 0.44476 0.16017 0.0
N581 N 0.25658 0.45967 0.20263 0.0
H582 H 0.26783 0.49646 0.24891 0.0
H583 H 0.25101 0.42623 0.13573 0.0
H584 H 0.23962 0.50103 0.33509 0.0
H585 H 0.21274 0.42889 0.44193 0.0
O586 O 0.22286 0.47939 0.17353 0.0
O587 O 0.18855 0.44573 0.22198 0.0
O588 O 0.21208 0.41489 0.26537 0.0
C589 C 0.19906 0.46841 0.18928 0.0
H590 H 0.1879 0.39485 0.91469 0.0
H591 H 0.24046 0.50297 0.52811 0.0
H592 H 0.29577 0.44082 0.11764 0.0
H593 H 0.31194 0.5115 0.23889 0.0
C594 C 0.21688 0.19353 0.44391 0.0
C595 C 0.22553 0.19049 0.53523 0.0
H596 H 0.19703 0.20795 0.36563 0.0
C597 C 0.22274 0.20254 0.61799 0.0
H598 H 0.21921 0.18501 0.37827 0.0
C599 C 0.21016 0.21596 0.6104 0.0
C600 C 0.20007 0.21746 0.52008 0.0
H601 H 0.22907 0.20049 0.68953 0.0
H602 H 0.20711 0.22396 0.67607 0.0
C603 C 0.20425 0.20675 0.43652 0.0
C604 C 0.87742 0.03228 0.529 0.0
C605 C 0.86537 0.04578 0.55108 0.0
H606 H 0.87456 0.99743 0.50081 0.0
C607 C 0.83961 0.03226 0.56982 0.0
H608 H 0.89726 0.04146 0.51717 0.0
C609 C 0.82647 1.00611 0.56649 0.0
C610 C 0.83868 0.99279 0.54291 0.0
H611 H 0.82947 0.04179 0.58645 0.0
H612 H 0.80684 0.99646 0.58329 0.0
C613 C 0.86429 1.00649 0.52258 0.0
C614 C 1.01102 0.82114 0.42398 0.0
C615 C 0.99936 0.82014 0.51363 0.0
H616 H 0.04548 0.836 0.34562 0.0
C617 C 1.0142 0.83116 0.59705 0.0
H618 H 1.00002 0.8129 0.35843 0.0
C619 C 0.04007 0.84414 0.59012 0.0
C620 C 0.05186 0.84668 0.49932 0.0
H621 H 1.00572 0.83036 0.66745 0.0
H622 H 0.05086 0.85285 0.65567 0.0
C623 C 0.03705 0.83436 0.41679 0.0
C624 C 0.81012 0.81374 0.49241 0.0
C625 C 0.82329 0.83978 0.48611 0.0
H626 H 0.81238 0.78055 0.51006 0.0
C627 C 0.84938 0.85231 0.48822 0.0
H628 H 0.78999 0.80362 0.49123 0.0
C629 C 0.86209 0.83922 0.49739 0.0
C630 C 0.84906 0.81326 0.50641 0.0
H631 H 0.86008 0.87237 0.483 0.0
H632 H 0.88221 0.84958 0.49956 0.0
C633 C 0.82291 0.80058 0.5035 0.0
C634 C 0.20066 0.031 0.52629 0.0
C635 C 0.22663 0.04388 0.53729 0.0
H636 H 0.16772 0.99608 0.49941 0.0
C637 C 0.23947 0.03072 0.52718 0.0
H638 H 0.19024 0.04061 0.53364 0.0
C639 C 0.22658 1.00522 0.5056 0.0
C640 C 0.20057 0.99233 0.49562 0.0
H641 H 0.25951 0.04019 0.53465 0.0
H642 H 0.23694 0.99554 0.49809 0.0
C643 C 0.18776 1.00548 0.50667 0.0
C644 C 1.01777 0.22352 0.55867 0.0
C645 C 1.00485 0.19745 0.56451 0.0
H646 H 0.05305 0.25668 0.53804 0.0
C647 C 1.01826 0.18483 0.55708 0.0
H648 H 1.00789 0.23372 0.56385 0.0
C649 C 0.04398 0.19791 0.54395 0.0
C650 C 0.05691 0.22391 0.53613 0.0
H651 H 1.00886 0.16476 0.56164 0.0
H652 H 0.05369 0.18754 0.53815 0.0
C653 C 0.04356 0.23663 0.54361 0.0
C654 C 0.88346 0.5266 0.78194 0.0
C655 C 0.89211 0.52382 0.87369 0.0
H656 H 0.86345 0.54065 0.7024 0.0
C657 C 0.88927 0.53605 0.95572 0.0
H658 H 0.88583 0.51794 0.71683 0.0
C659 C 0.8766 0.54937 0.94705 0.0
C660 C 0.86648 0.55056 0.85639 0.0
H661 H 0.89562 0.53421 0.02754 0.0
H662 H 0.87349 0.55748 1.0122 0.0
C663 C 0.87073 0.5397 0.77351 0.0
C664 C 0.49193 0.33808 0.84381 0.0
C665 C 0.50474 0.32473 0.84092 0.0
H666 H 0.49467 0.37393 0.85132 0.0
C667 C 0.53087 0.33815 0.84343 0.0
H668 H 0.47182 0.32838 0.84245 0.0
C669 C 0.54381 0.36394 0.85078 0.0
C670 C 0.53119 0.37745 0.85324 0.0
H671 H 0.54156 0.32877 0.8391 0.0
H672 H 0.56388 0.37326 0.85531 0.0
C673 C 0.50502 0.36418 0.85006 0.0
C674 C 0.70813 0.17696 0.93345 0.0
C675 C 0.72002 0.17986 0.84265 0.0
H676 H 0.67369 0.16279 1.01036 0.0
C677 C 0.70533 0.16781 0.75954 0.0
H678 H 0.71884 0.18547 0.99936 0.0
C679 C 0.6793 0.15452 0.76623 0.0
C680 C 0.66754 0.15316 0.85596 0.0
H681 H 0.71386 0.16975 0.68838 0.0
H682 H 0.66839 0.14652 0.70029 0.0
C683 C 0.68226 0.16388 0.93991 0.0
C684 C 0.47904 0.14726 0.81821 0.0
C685 C 0.49217 0.17332 0.81246 0.0
H686 H 0.48123 0.11412 0.83813 0.0
C687 C 0.51822 0.18595 0.81879 0.0
H688 H 0.45894 0.13705 0.81389 0.0
C689 C 0.53091 0.1729 0.83106 0.0
C690 C 0.51785 0.14691 0.83908 0.0
H691 H 0.52887 0.20602 0.81424 0.0
H692 H 0.55099 0.18329 0.83619 0.0
C693 C 0.49177 0.13416 0.83241 0.0
C694 C 0.85522 0.33896 0.85164 0.0
C695 C 0.86819 0.32597 0.84083 0.0
H696 H 0.85742 0.374 0.87798 0.0
C697 C 0.89421 0.33902 0.85068 0.0
H698 H 0.83518 0.32942 0.84447 0.0
C699 C 0.90694 0.36454 0.87183 0.0
C700 C 0.89394 0.37754 0.88164 0.0
H701 H 0.90468 0.32946 0.84334 0.0
H702 H 0.92698 0.37414 0.87916 0.0
C703 C 0.86797 0.3645 0.87084 0.0
C704 C 0.68305 0.55497 0.88164 0.0
C705 C 0.67019 0.5289 0.8866 0.0
H706 H 0.71838 0.58823 0.86373 0.0
C707 C 0.68369 0.51636 0.88088 0.0
H708 H 0.67309 0.56511 0.88554 0.0
C709 C 0.70948 0.52952 0.87005 0.0
C710 C 0.72236 0.55553 0.86285 0.0
H711 H 0.67432 0.49628 0.88485 0.0
H712 H 0.71927 0.51922 0.86536 0.0
C713 C 0.70892 0.56817 0.86885 0.0
C714 C 0.53671 0.87232 0.09491 0.0
C715 C 0.53231 0.88231 0.18015 0.0
H716 H 0.55246 0.85173 0.03244 0.0
C717 C 0.54252 0.88042 0.26951 0.0
H718 H 0.52937 0.87382 0.02476 0.0
C719 C 0.55555 0.86739 0.27436 0.0
C720 C 0.55872 0.85616 0.18972 0.0
H721 H 0.53929 0.88785 0.33642 0.0
H722 H 0.56199 0.86506 0.34518 0.0
C723 C 0.54985 0.85956 0.0995 0.0
C724 C 0.17143 0.69857 0.19284 0.0
C725 C 0.1976 0.7119 0.19598 0.0
H726 H 0.13829 0.66273 0.18502 0.0
C727 C 0.21027 0.69845 0.1935 0.0
H728 H 0.16104 0.70829 0.19417 0.0
C729 C 0.1974 0.67267 0.18597 0.0
C730 C 0.17128 0.65918 0.18337 0.0
H731 H 0.23035 0.70781 0.19804 0.0
H732 H 0.20814 0.66334 0.18151 0.0
C733 C 0.1584 0.67247 0.18643 0.0
C734 C 0.37553 0.5116 0.24933 0.0
C735 C 0.38715 0.51379 0.15839 0.0
H736 H 0.3413 0.49802 0.32743 0.0
C737 C 0.3722 0.50089 0.07686 0.0
H738 H 0.38642 0.52073 0.3142 0.0
C739 C 0.34619 0.48748 0.08503 0.0
C740 C 0.33471 0.48687 0.17464 0.0
H741 H 0.38048 0.50223 1.0056 0.0
H742 H 0.33505 0.47883 0.02015 0.0
C743 C 0.34968 0.49845 0.25718 0.0
C744 C 0.14621 0.48195 0.15621 0.0
C745 C 0.15926 0.50803 0.15155 0.0
H746 H 0.14857 0.44884 0.17335 0.0
C747 C 0.18531 0.52074 0.15749 0.0
H748 H 0.12611 0.47169 0.15216 0.0
C749 C 0.19809 0.50773 0.16802 0.0
C750 C 0.18513 0.48171 0.17464 0.0
H751 H 0.19589 0.54082 0.15379 0.0
H752 H 0.21819 0.51816 0.17272 0.0
C753 C 0.15904 0.4689 0.16868 0.0
C754 C 0.5755 0.69816 0.17532 0.0
C755 C 0.56281 0.71147 0.1852 0.0
H756 H 0.57263 0.66273 0.14868 0.0
C757 C 0.53677 0.69861 0.1767 0.0
H758 H 0.59556 0.70759 0.18103 0.0
C759 C 0.52367 0.67298 0.15954 0.0
C760 C 0.53632 0.65966 0.14855 0.0
H761 H 0.52645 0.70832 0.18407 0.0
H762 H 0.5036 0.66362 0.15402 0.0
C763 C 0.56239 0.67252 0.15623 0.0
C764 C 0.3757 0.90189 0.20833 0.0
C765 C 0.38889 0.88899 0.20188 0.0
H766 H 0.34009 0.89927 0.22621 0.0
C767 C 0.37579 0.863 0.20992 0.0
H768 H 0.38533 0.92194 0.2026 0.0
C769 C 0.35003 0.8501 0.22183 0.0
C770 C 0.33677 0.86289 0.22778 0.0
H771 H 0.38538 0.8525 0.20497 0.0
H772 H 0.34049 0.83002 0.2263 0.0
C773 C 0.34986 0.88895 0.22216 0.0
C774 C 0.17212 0.34037 0.36173 0.0
C775 C 0.1853 0.32771 0.37619 0.0
H776 H 0.17394 0.37486 0.32842 0.0
C777 C 0.21137 0.34104 0.3695 0.0
H778 H 0.15203 0.33062 0.36612 0.0
C779 C 0.224 0.36658 0.34988 0.0
C780 C 0.21076 0.37913 0.33416 0.0
H781 H 0.22203 0.3318 0.38079 0.0
H782 H 0.2441 0.37642 0.34556 0.0
C783 C 0.18468 0.36571 0.33982 0.0
C784 C 0.68107 0.83225 0.35031 0.0
C785 C 0.67344 0.84043 0.26825 0.0
H786 H 0.71121 0.838 0.44413 0.0
C787 C 0.69108 0.86215 0.2204 0.0
H788 H 0.66798 0.81563 0.38913 0.0
C789 C 0.71583 0.87497 0.25193 0.0
C790 C 0.72365 0.86646 0.33229 0.0
H791 H 0.68592 0.86906 0.15709 0.0
H792 H 0.72895 0.89131 0.21178 0.0
C793 C 0.70588 0.84511 0.38195 0.0
C794 C 0.19676 0.85367 0.24506 0.0
C795 C 0.20793 0.84287 0.30044 0.0
H796 H 0.17732 0.87411 0.24751 0.0
C797 C 0.20651 0.8431 0.40339 0.0
H798 H 0.19775 0.85391 0.16567 0.0
C799 C 0.19429 0.85408 0.45008 0.0
C800 C 0.18394 0.8657 0.39482 0.0
H801 H 0.21496 0.83489 0.44785 0.0
H802 H 0.19372 0.85424 0.52954 0.0
C803 C 0.1852 0.86532 0.29186 0.0
C804 C 0.36175 0.18248 0.79112 0.0
C805 C 0.38384 0.19361 0.7364 0.0
H806 H 0.32189 0.16163 0.78742 0.0
C807 C 0.38239 0.19351 0.63341 0.0
H808 H 0.36234 0.18213 0.87052 0.0
C809 C 0.35928 0.18234 0.58601 0.0
C810 C 0.33721 0.1704 0.64058 0.0
H811 H 0.39915 0.20196 0.58947 0.0
H812 H 0.35871 0.1823 0.50654 0.0
C813 C 0.33865 0.17065 0.7436 0.0
C814 C 0.85283 0.19843 0.63884 0.0
C815 C 0.85196 0.19934 0.74178 0.0
H816 H 0.86494 0.18637 0.51322 0.0
C817 C 0.86259 0.18809 0.79768 0.0
H818 H 0.84474 0.20694 0.59408 0.0
C819 C 0.8747 0.17695 0.75153 0.0
C820 C 0.87569 0.17614 0.64861 0.0
H821 H 0.86231 0.18869 0.87712 0.0
H822 H 0.88339 0.16904 0.79633 0.0
C823 C 0.86425 0.18657 0.59265 0.0
C824 C 0.87648 0.67267 0.69494 0.0
C825 C 0.8505 0.65944 0.70545 0.0
H826 H 0.90902 0.70797 0.66787 0.0
C827 C 0.83727 0.67216 0.69459 0.0
H828 H 0.88718 0.66338 0.70337 0.0
C829 C 0.84968 0.69749 0.67262 0.0
C830 C 0.87568 0.71083 0.66321 0.0
H831 H 0.81723 0.66248 0.70194 0.0
H832 H 0.83889 0.70669 0.66415 0.0
C833 C 0.88898 0.6982 0.67515 0.0
C834 C 0.04919 0.52773 0.97463 0.0
C835 C 0.05068 0.52797 0.07762 0.0
H836 H 1.02546 0.51627 0.84788 0.0
C837 C 1.02862 0.51687 0.13247 0.0
H838 H 0.06593 0.53616 0.93058 0.0
C839 C 1.0055 0.50492 0.0851 0.0
C840 C 1.00402 0.5045 0.98209 0.0
H841 H 0.02924 0.51662 0.21189 0.0
H842 H 0.98876 0.4959 0.12904 0.0
C843 C 1.02607 0.51643 0.92735 0.0
C844 C 0.52828 0.52028 0.10721 0.0
C845 C 0.51834 0.53227 0.05182 0.0
H846 H 0.5483 0.50044 0.10522 0.0
C847 C 0.51959 0.53183 0.94886 0.0
H848 H 0.5277 0.52046 0.18666 0.0
C849 C 0.53078 0.5198 0.9022 0.0
C850 C 0.54157 0.50865 0.95773 0.0
H851 H 0.51201 0.54089 0.90441 0.0
H852 H 0.5318 0.52004 0.82281 0.0
C853 C 0.54012 0.5089 0.06066 0.0
C854 C 0.51687 0.03044 1.00907 0.0
C855 C 0.54287 0.04356 0.99959 0.0
H856 H 0.48421 0.99556 0.03808 0.0
C857 C 0.55594 0.03068 1.01103 0.0
H858 H 0.50626 0.03983 1.00096 0.0
C859 C 0.54323 1.00515 0.03045 0.0
C860 C 0.51725 0.99211 0.04103 0.0
H861 H 0.57597 0.04028 1.00367 0.0
H862 H 0.55377 0.99568 0.03852 0.0
C863 C 0.50423 1.00508 0.03064 0.0
C864 C 0.11679 0.23831 0.90824 0.0
C865 C 0.13051 0.26349 0.88199 0.0
H866 H 0.10194 0.21179 0.02363 0.0
C867 C 0.14038 0.28147 0.95712 0.0
H868 H 0.10875 0.22387 0.85295 0.0
C869 C 0.13594 0.27456 0.05559 0.0
C870 C 0.12172 0.24941 0.08196 0.0
H871 H 0.15144 0.30101 0.94022 0.0
H872 H 0.14331 0.28913 0.11042 0.0
C873 C 0.11255 0.23137 1.00681 0.0
C874 C 0.7676 0.86244 0.94656 0.0
C875 C 0.78575 0.87041 0.87231 0.0
H876 H 0.75998 0.86121 0.10041 0.0
C877 C 0.81094 0.88282 0.90041 0.0
H878 H 0.74804 0.85315 0.92833 0.0
C879 C 0.81775 0.88748 0.99952 0.0
C880 C 0.79961 0.87978 0.0734 0.0
H881 H 0.82548 0.88886 0.84605 0.0
H882 H 0.8373 0.8971 1.01833 0.0
C883 C 0.77444 0.86701 0.04569 0.0
C884 C 0.19058 0.93052 0.92726 0.0
C885 C 0.17168 0.92215 0.85569 0.0
H886 H 0.20046 0.93901 0.07896 0.0
C887 C 0.14746 0.91533 0.88625 0.0
H888 H 0.20952 0.93625 0.90705 0.0
C889 C 0.14237 0.91714 0.98496 0.0
C890 C 0.16128 0.92564 0.05617 0.0
H891 H 0.13227 0.90831 0.83422 0.0
H892 H 0.12347 0.91152 1.00569 0.0
C893 C 0.18542 0.93216 0.0262 0.0
C894 C 0.27952 0.12135 1.00595 0.0
C895 C 0.25432 0.10928 0.97805 0.0
H896 H 0.30585 0.13289 0.124 0.0
C897 C 0.23616 0.099 0.05201 0.0
H898 H 0.29408 0.12982 0.95168 0.0
C899 C 0.24296 0.10097 0.15087 0.0
C900 C 0.26811 0.11314 0.17868 0.0
H901 H 0.21659 0.08915 0.03377 0.0
H902 H 0.22844 0.09257 0.20541 0.0
C903 C 0.28632 0.12318 0.10498 0.0
C904 C 0.92676 0.1709 0.01909 0.0
C905 C 0.93963 0.15858 0.99094 0.0
H906 H 0.91465 0.18511 0.13748 0.0
C907 C 0.95104 0.15187 0.06446 0.0
H908 H 0.91748 0.17611 0.96499 0.0
C909 C 0.94929 0.15693 0.16327 0.0
C910 C 0.93615 0.16892 0.19155 0.0
H911 H 0.96154 0.14285 0.04584 0.0
H912 H 0.95851 0.15165 0.21743 0.0
C913 C 0.9251 0.17606 0.11815 0.0
C914 C 0.89495 0.7993 0.12863 0.0
C915 C 0.88293 0.7741 0.1549 0.0
H916 H 0.90732 0.82586 1.01344 0.0
C917 C 0.87432 0.7561 0.07974 0.0
H918 H 0.90175 0.81377 0.18388 0.0
C919 C 0.87696 0.76304 0.98128 0.0
C920 C 0.88857 0.78824 0.95485 0.0
H921 H 0.86538 0.73653 0.09657 0.0
H922 H 0.86944 0.74846 0.92655 0.0
C923 C 0.89784 0.80627 0.03008 0.0
C924 C 0.78253 0.5703 0.23913 0.0
C925 C 0.7955 0.59551 0.21286 0.0
H926 H 0.76854 0.54373 0.35441 0.0
C927 C 0.80479 0.61351 0.288 0.0
H928 H 0.77494 0.55582 0.1839 0.0
C929 C 0.80055 0.60656 0.38647 0.0
C930 C 0.78713 0.58136 0.41288 0.0
H931 H 0.81527 0.63309 0.27115 0.0
H932 H 0.8075 0.62114 0.44124 0.0
C933 C 0.77851 0.56333 0.33769 0.0
C934 C 0.44067 0.19967 0.36361 0.0
C935 C 0.46585 0.21312 0.3918 0.0
H936 H 0.41445 0.18425 0.24518 0.0
C937 C 0.48408 0.22076 0.31819 0.0
H938 H 0.42606 0.19371 0.41768 0.0
C939 C 0.47738 0.21548 0.21937 0.0
C940 C 0.45225 0.20228 0.19116 0.0
H941 H 0.50363 0.23067 0.33666 0.0
H942 H 0.49196 0.22149 0.16513 0.0
C943 C 0.43397 0.19426 0.26454 0.0
C944 C 0.8223 0.27078 0.32739 0.0
C945 C 0.83017 0.26048 0.40124 0.0
H946 H 0.82103 0.27726 0.17403 0.0
C947 C 0.84331 0.24842 0.37322 0.0
H948 H 0.81257 0.28062 0.34571 0.0
C949 C 0.84829 0.24663 0.27418 0.0
C950 C 0.84013 0.2567 0.2006 0.0
H951 H 0.84939 0.23993 0.42741 0.0
H952 H 0.85813 0.23695 0.25502 0.0
C953 C 0.82714 0.26885 0.22851 0.0
C954 C 0.94601 0.4393 0.44914 0.0
C955 C 0.93551 0.44769 0.52079 0.0
H956 H 0.94738 0.43083 0.29739 0.0
C957 C 0.91816 0.45458 0.49033 0.0
H958 H 0.95918 0.43353 0.46931 0.0
C959 C 0.91126 0.45281 0.39164 0.0
C960 C 0.92164 0.44429 0.32034 0.0
H961 H 0.91002 0.46162 0.54244 0.0
H962 H 0.89803 0.45849 0.37101 0.0
C963 C 0.93922 0.43771 0.35021 0.0
C964 C 0.59124 0.50807 0.43215 0.0
C965 C 0.60144 0.49995 0.5054 0.0
H966 H 0.5838 0.50861 0.2791 0.0
C967 C 0.61319 0.48659 0.47705 0.0
H968 H 0.58187 0.5182 0.45163 0.0
C969 C 0.61448 0.48123 0.37822 0.0
C970 C 0.60394 0.48896 0.30474 0.0
H971 H 0.62172 0.48051 0.53119 0.0
H972 H 0.62399 0.4712 0.35965 0.0
C973 C 0.5924 0.50258 0.33307 0.0
C974 C 0.56321 0.13266 0.46624 0.0
C975 C 0.55168 0.10748 0.49246 0.0
H976 H 0.57496 0.15919 0.35095 0.0
C977 C 0.54343 0.0895 0.41731 0.0
H978 H 0.56972 0.14711 0.52154 0.0
C979 C 0.54587 0.09642 0.31888 0.0
C980 C 0.55693 0.12158 0.29248 0.0
H981 H 0.53488 0.06995 0.43416 0.0
H982 H 0.53859 0.08183 0.26412 0.0
C983 C 0.5659 0.13961 0.36767 0.0
C984 C 0.44846 0.90288 0.57397 0.0
C985 C 0.46237 0.92805 0.54774 0.0
H986 H 0.43338 0.87638 0.68931 0.0
C987 C 0.47231 0.94602 0.62288 0.0
H988 H 0.44036 0.88845 0.51866 0.0
C989 C 0.46777 0.93912 0.72133 0.0
C990 C 0.45338 0.91398 0.74771 0.0
H991 H 0.48351 0.96555 0.60601 0.0
H992 H 0.47522 0.95369 0.77611 0.0
C993 C 0.44412 0.89594 0.67254 0.0
C994 C 0.14428 0.55002 0.56019 0.0
C995 C 0.11917 0.53672 0.53193 0.0
H996 H 0.17051 0.56535 0.67751 0.0
C997 C 0.10087 0.52864 0.60527 0.0
H998 H 0.15888 0.55607 0.50599 0.0
C999 C 0.10754 0.53411 0.70435 0.0
C1000 C 0.13272 0.54766 0.73257 0.0
H1001 H 0.08135 0.51856 0.58588 0.0
H1002 H 0.09293 0.5281 0.75839 0.0
C1003 C 0.15096 0.55536 0.659 0.0
C1004 C 0.48954 0.60434 0.63773 0.0
C1005 C 0.49734 0.59396 0.71156 0.0
H1006 H 0.48834 0.61088 0.48441 0.0
C1007 C 0.51041 0.58183 0.6835 0.0
H1008 H 0.47988 0.61423 0.65608 0.0
C1009 C 0.5154 0.58005 0.58446 0.0
C1010 C 0.50732 0.5902 0.5109 0.0
H1011 H 0.51644 0.57329 0.73767 0.0
H1012 H 0.52519 0.57031 0.56529 0.0
C1013 C 0.49439 0.60241 0.53885 0.0
C1014 C 0.62253 0.79174 0.74983 0.0
C1015 C 0.60428 0.78062 0.82287 0.0
H1016 H 0.63035 0.79912 0.5969 0.0
C1017 C 0.57919 0.76724 0.79443 0.0
H1018 H 0.642 0.80239 0.76944 0.0
C1019 C 0.57249 0.76519 0.69551 0.0
C1020 C 0.59068 0.7766 0.6223 0.0
H1021 H 0.56469 0.75801 0.8485 0.0
H1022 H 0.55299 0.75445 0.67659 0.0
C1023 C 0.61582 0.78981 0.65076 0.0
C1024 C 0.28101 0.81565 0.72028 0.0
C1025 C 0.2705 0.8234 0.64679 0.0
H1026 H 0.28824 0.81493 0.87324 0.0
C1027 C 0.25899 0.83705 0.67509 0.0
H1028 H 0.29049 0.80559 0.70171 0.0
C1029 C 0.25783 0.84255 0.77418 0.0
C1030 C 0.26801 0.83441 0.84744 0.0
H1031 H 0.25041 0.8431 0.62111 0.0
H1032 H 0.24849 0.85271 0.79364 0.0
C1033 C 0.27973 0.82103 0.8191 0.0
C1034 C 0.23974 0.47223 0.69158 0.0
C1035 C 0.22344 0.45611 0.61944 0.0
H1036 H 0.24994 0.47793 0.84299 0.0
C1037 C 0.20405 0.43274 0.64779 0.0
H1038 H 0.25509 0.49023 0.67157 0.0
C1039 C 0.20085 0.42572 0.7463 0.0
C1040 C 0.21715 0.4418 0.81909 0.0
H1041 H 0.19099 0.42006 0.59405 0.0
H1042 H 0.18528 0.40779 0.76488 0.0
C1043 C 0.23674 0.46513 0.79009 0.0
loop_
_geom_bond_atom_site_label_1
_geom_bond_atom_site_label_2
_geom_bond_distance
_geom_bond_site_symmetry_2
_ccdc_geom_bond_type
Co0 N4 2.148 . S
Co0 N10 2.128 . S
Co0 N20 2.194 . S
Co0 O25 2.351 . S
Co0 O26 2.155 . S
Co0 O27 2.096 . S
C1 N4 1.301 . S
C1 N5 1.328 . S
C1 H6 0.930 . S
C2 C3 1.333 . S
C2 N4 1.317 . S
C2 H7 0.930 . S
C3 C2 1.333 . S
C3 N5 1.350 . S
C3 H29 0.931 . S
N4 Co0 2.148 . S
N4 C1 1.301 . S
N4 C2 1.317 . S
N5 C1 1.328 . S
N5 C3 1.350 . S
H6 C1 0.930 . S
H7 C2 0.930 . S
C8 O9 1.224 . S
C8 O27 1.247 . S
O9 C8 1.224 . S
N10 Co0 2.128 . S
N10 C11 1.355 . S
N10 C13 1.311 . S
C11 N10 1.355 . S
C11 C12 1.363 . S
C11 H23 0.929 . S
C12 C11 1.363 . S
C12 N14 1.375 . S
C12 H30 0.931 . S
C13 N10 1.311 . S
C13 N14 1.347 . S
C13 H24 0.929 . S
N14 C12 1.375 . S
N14 C13 1.347 . S
C15 C18 1.365 . S
C15 N20 1.328 . S
C15 H21 0.929 . S
C16 C17 1.362 . S
C16 C19 1.378 . S
C16 H31 0.929 . S
C17 C16 1.362 . S
C17 C18 1.366 . S
C18 C15 1.365 . S
C18 C17 1.366 . S
C18 H32 0.930 . S
C19 C16 1.378 . S
C19 N20 1.315 . S
C19 H22 0.930 . S
N20 Co0 2.194 . S
N20 C15 1.328 . S
N20 C19 1.315 . S
H21 C15 0.929 . S
H22 C19 0.930 . S
H23 C11 0.929 . S
H24 C13 0.929 . S
O25 Co0 2.351 . S
O25 C28 1.244 . S
O26 Co0 2.155 . S
O26 C28 1.240 . S
O27 Co0 2.096 . S
O27 C8 1.247 . S
C28 O25 1.244 . S
C28 O26 1.240 . S
H29 C3 0.931 . S
H30 C12 0.931 . S
H31 C16 0.929 . S
H32 C18 0.930 . S
Co33 N37 2.148 . S
Co33 N43 2.128 . S
Co33 N53 2.194 . S
Co33 O58 2.351 . S
Co33 O59 2.155 . S
Co33 O60 2.096 . S
C34 N37 1.301 . S
C34 N38 1.328 . S
C34 H39 0.930 . S
C35 C36 1.333 . S
C35 N37 1.317 . S
C35 H40 0.930 . S
C36 C35 1.333 . S
C36 N38 1.350 . S
C36 H62 0.931 . S
N37 Co33 2.148 . S
N37 C34 1.301 . S
N37 C35 1.317 . S
N38 C34 1.328 . S
N38 C36 1.350 . S
H39 C34 0.930 . S
H40 C35 0.930 . S
C41 O42 1.224 . S
C41 O60 1.247 . S
O42 C41 1.224 . S
N43 Co33 2.128 . S
N43 C44 1.355 . S
N43 C46 1.311 . S
C44 N43 1.355 . S
C44 C45 1.363 . S
C44 H56 0.929 . S
C45 C44 1.363 . S
C45 N47 1.375 . S
C45 H63 0.931 . S
C46 N43 1.311 . S
C46 N47 1.347 . S
C46 H57 0.929 . S
N47 C45 1.375 . S
N47 C46 1.347 . S
C48 C51 1.365 . S
C48 N53 1.328 . S
C48 H54 0.929 . S
C49 C50 1.362 . S
C49 C52 1.378 . S
C49 H64 0.929 . S
C50 C49 1.362 . S
C50 C51 1.366 . S
C51 C48 1.365 . S
C51 C50 1.366 . S
C51 H65 0.930 . S
C52 C49 1.378 . S
C52 N53 1.315 . S
C52 H55 0.930 . S
N53 Co33 2.194 . S
N53 C48 1.328 . S
N53 C52 1.315 . S
H54 C48 0.929 . S
H55 C52 0.930 . S
H56 C44 0.929 . S
H57 C46 0.929 . S
O58 Co33 2.351 . S
O58 C61 1.244 . S
O59 Co33 2.155 . S
O59 C61 1.240 . S
O60 Co33 2.096 . S
O60 C41 1.247 . S
C61 O58 1.244 . S
C61 O59 1.240 . S
H62 C36 0.931 . S
H63 C45 0.931 . S
H64 C49 0.929 . S
H65 C51 0.930 . S
Co66 N70 2.148 . S
Co66 N76 2.128 . S
Co66 N86 2.194 . S
Co66 O91 2.351 . S
Co66 O92 2.155 . S
Co66 O93 2.096 . S
C67 N70 1.301 . S
C67 N71 1.328 . S
C67 H72 0.930 . S
C68 C69 1.333 . S
C68 N70 1.317 . S
C68 H73 0.930 . S
C69 C68 1.333 . S
C69 N71 1.350 . S
C69 H95 0.931 . S
N70 Co66 2.148 . S
N70 C67 1.301 . S
N70 C68 1.317 . S
N71 C67 1.328 . S
N71 C69 1.350 . S
H72 C67 0.930 . S
H73 C68 0.930 . S
C74 O75 1.224 . S
C74 O93 1.247 . S
O75 C74 1.224 . S
N76 Co66 2.128 . S
N76 C77 1.355 . S
N76 C79 1.311 . S
C77 N76 1.355 . S
C77 C78 1.363 . S
C77 H89 0.929 . S
C78 C77 1.363 . S
C78 N80 1.375 . S
C78 H96 0.931 . S
C79 N76 1.311 . S
C79 N80 1.347 . S
C79 H90 0.929 . S
N80 C78 1.375 . S
N80 C79 1.347 . S
C81 C84 1.365 . S
C81 N86 1.328 . S
C81 H87 0.929 . S
C82 C83 1.362 . S
C82 C85 1.378 . S
C82 H97 0.929 . S
C83 C82 1.362 . S
C83 C84 1.366 . S
C84 C81 1.365 . S
C84 C83 1.366 . S
C84 H98 0.930 . S
C85 C82 1.378 . S
C85 N86 1.315 . S
C85 H88 0.930 . S
N86 Co66 2.194 . S
N86 C81 1.328 . S
N86 C85 1.315 . S
H87 C81 0.929 . S
H88 C85 0.930 . S
H89 C77 0.929 . S
H90 C79 0.929 . S
O91 Co66 2.351 . S
O91 C94 1.244 . S
O92 Co66 2.155 . S
O92 C94 1.240 . S
O93 Co66 2.096 . S
O93 C74 1.247 . S
C94 O91 1.244 . S
C94 O92 1.240 . S
H95 C69 0.931 . S
H96 C78 0.931 . S
H97 C82 0.929 . S
H98 C84 0.930 . S
Co99 N103 2.148 . S
Co99 N109 2.128 . S
Co99 N119 2.194 . S
Co99 O124 2.351 . S
Co99 O125 2.155 . S
Co99 O126 2.096 . S
C100 N103 1.301 . S
C100 N104 1.328 . S
C100 H105 0.930 . S
C101 C102 1.333 . S
C101 N103 1.317 . S
C101 H106 0.930 . S
C102 C101 1.333 . S
C102 N104 1.350 . S
C102 H128 0.931 . S
N103 Co99 2.148 . S
N103 C100 1.301 . S
N103 C101 1.317 . S
N104 C100 1.328 . S
N104 C102 1.350 . S
H105 C100 0.930 . S
H106 C101 0.930 . S
C107 O108 1.224 . S
C107 O126 1.247 . S
O108 C107 1.224 . S
N109 Co99 2.128 . S
N109 C110 1.355 . S
N109 C112 1.311 . S
C110 N109 1.355 . S
C110 C111 1.363 . S
C110 H122 0.929 . S
C111 C110 1.363 . S
C111 N113 1.375 . S
C111 H129 0.931 . S
C112 N109 1.311 . S
C112 N113 1.347 . S
C112 H123 0.929 . S
N113 C111 1.375 . S
N113 C112 1.347 . S
C114 C117 1.365 . S
C114 N119 1.328 . S
C114 H120 0.929 . S
C115 C116 1.362 . S
C115 C118 1.378 . S
C115 H130 0.929 . S
C116 C115 1.362 . S
C116 C117 1.366 . S
C117 C114 1.365 . S
C117 C116 1.366 . S
C117 H131 0.930 . S
C118 C115 1.378 . S
C118 N119 1.315 . S
C118 H121 0.930 . S
N119 Co99 2.194 . S
N119 C114 1.328 . S
N119 C118 1.315 . S
H120 C114 0.929 . S
H121 C118 0.930 . S
H122 C110 0.929 . S
H123 C112 0.929 . S
O124 Co99 2.351 . S
O124 C127 1.244 . S
O125 Co99 2.155 . S
O125 C127 1.240 . S
O126 Co99 2.096 . S
O126 C107 1.247 . S
C127 O124 1.244 . S
C127 O125 1.240 . S
H128 C102 0.931 . S
H129 C111 0.931 . S
H130 C115 0.929 . S
H131 C117 0.930 . S
Co132 N136 2.148 . S
Co132 N142 2.128 . S
Co132 N152 2.194 . S
Co132 O157 2.351 . S
Co132 O158 2.155 . S
Co132 O159 2.096 . S
C133 N136 1.301 . S
C133 N137 1.328 . S
C133 H138 0.930 . S
C134 C135 1.333 . S
C134 N136 1.317 . S
C134 H139 0.930 . S
C135 C134 1.333 . S
C135 N137 1.350 . S
C135 H161 0.931 . S
N136 Co132 2.148 . S
N136 C133 1.301 . S
N136 C134 1.317 . S
N137 C133 1.328 . S
N137 C135 1.350 . S
H138 C133 0.930 . S
H139 C134 0.930 . S
C140 O141 1.224 . S
C140 O159 1.247 . S
O141 C140 1.224 . S
N142 Co132 2.128 . S
N142 C143 1.355 . S
N142 C145 1.311 . S
C143 N142 1.355 . S
C143 C144 1.363 . S
C143 H155 0.929 . S
C144 C143 1.363 . S
C144 N146 1.375 . S
C144 H162 0.931 . S
C145 N142 1.311 . S
C145 N146 1.347 . S
C145 H156 0.929 . S
N146 C144 1.375 . S
N146 C145 1.347 . S
C147 C150 1.365 . S
C147 N152 1.328 . S
C147 H153 0.929 . S
C148 C149 1.362 . S
C148 C151 1.378 . S
C148 H163 0.929 . S
C149 C148 1.362 . S
C149 C150 1.366 . S
C150 C147 1.365 . S
C150 C149 1.366 . S
C150 H164 0.930 . S
C151 C148 1.378 . S
C151 N152 1.315 . S
C151 H154 0.930 . S
N152 Co132 2.194 . S
N152 C147 1.328 . S
N152 C151 1.315 . S
H153 C147 0.929 . S
H154 C151 0.930 . S
H155 C143 0.929 . S
H156 C145 0.929 . S
O157 Co132 2.351 . S
O157 C160 1.244 . S
O158 Co132 2.155 . S
O158 C160 1.240 . S
O159 Co132 2.096 . S
O159 C140 1.247 . S
C160 O157 1.244 . S
C160 O158 1.240 . S
H161 C135 0.931 . S
H162 C144 0.931 . S
H163 C148 0.929 . S
H164 C150 0.930 . S
Co165 N169 2.148 . S
Co165 N175 2.128 . S
Co165 N185 2.194 . S
Co165 O190 2.351 . S
Co165 O191 2.155 . S
Co165 O192 2.096 . S
C166 N169 1.301 . S
C166 N170 1.328 . S
C166 H171 0.930 . S
C167 C168 1.333 . S
C167 N169 1.317 . S
C167 H172 0.930 . S
C168 C167 1.333 . S
C168 N170 1.350 . S
C168 H194 0.931 . S
N169 Co165 2.148 . S
N169 C166 1.301 . S
N169 C167 1.317 . S
N170 C166 1.328 . S
N170 C168 1.350 . S
H171 C166 0.930 . S
H172 C167 0.930 . S
C173 O174 1.224 . S
C173 O192 1.247 . S
O174 C173 1.224 . S
N175 Co165 2.128 . S
N175 C176 1.355 . S
N175 C178 1.311 . S
C176 N175 1.355 . S
C176 C177 1.363 . S
C176 H188 0.929 . S
C177 C176 1.363 . S
C177 N179 1.375 . S
C177 H195 0.931 . S
C178 N175 1.311 . S
C178 N179 1.347 . S
C178 H189 0.929 . S
N179 C177 1.375 . S
N179 C178 1.347 . S
C180 C183 1.365 . S
C180 N185 1.328 . S
C180 H186 0.929 . S
C181 C182 1.362 . S
C181 C184 1.378 . S
C181 H196 0.929 . S
C182 C181 1.362 . S
C182 C183 1.366 . S
C183 C180 1.365 . S
C183 C182 1.366 . S
C183 H197 0.930 . S
C184 C181 1.378 . S
C184 N185 1.315 . S
C184 H187 0.930 . S
N185 Co165 2.194 . S
N185 C180 1.328 . S
N185 C184 1.315 . S
H186 C180 0.929 . S
H187 C184 0.930 . S
H188 C176 0.929 . S
H189 C178 0.929 . S
O190 Co165 2.351 . S
O190 C193 1.244 . S
O191 Co165 2.155 . S
O191 C193 1.240 . S
O192 Co165 2.096 . S
O192 C173 1.247 . S
C193 O190 1.244 . S
C193 O191 1.240 . S
H194 C168 0.931 . S
H195 C177 0.931 . S
H196 C181 0.929 . S
H197 C183 0.930 . S
Co198 N202 2.148 . S
Co198 N208 2.128 . S
Co198 N218 2.194 . S
Co198 O223 2.351 . S
Co198 O224 2.155 . S
Co198 O225 2.096 . S
C199 N202 1.301 1_554 S
C199 N203 1.328 . S
C199 H204 0.930 1_554 S
C200 C201 1.333 1_556 S
C200 N202 1.317 . S
C200 H205 0.930 . S
C201 C200 1.333 1_554 S
C201 N203 1.350 . S
C201 H227 0.931 . S
N202 Co198 2.148 . S
N202 C199 1.301 1_556 S
N202 C200 1.317 . S
N203 C199 1.328 . S
N203 C201 1.350 . S
H204 C199 0.930 1_556 S
H205 C200 0.930 . S
C206 O207 1.224 . S
C206 O225 1.247 . S
O207 C206 1.224 . S
N208 Co198 2.128 . S
N208 C209 1.355 . S
N208 C211 1.311 . S
C209 N208 1.355 . S
C209 C210 1.363 . S
C209 H221 0.929 . S
C210 C209 1.363 . S
C210 N212 1.375 . S
C210 H228 0.931 . S
C211 N208 1.311 . S
C211 N212 1.347 . S
C211 H222 0.929 . S
N212 C210 1.375 . S
N212 C211 1.347 . S
C213 C216 1.365 . S
C213 N218 1.328 . S
C213 H219 0.929 . S
C214 C215 1.362 . S
C214 C217 1.378 . S
C214 H229 0.929 . S
C215 C214 1.362 . S
C215 C216 1.366 . S
C216 C213 1.365 . S
C216 C215 1.366 . S
C216 H230 0.930 . S
C217 C214 1.378 . S
C217 N218 1.315 . S
C217 H220 0.930 . S
N218 Co198 2.194 . S
N218 C213 1.328 . S
N218 C217 1.315 . S
H219 C213 0.929 . S
H220 C217 0.930 . S
H221 C209 0.929 . S
H222 C211 0.929 . S
O223 Co198 2.351 . S
O223 C226 1.244 . S
O224 Co198 2.155 . S
O224 C226 1.240 . S
O225 Co198 2.096 . S
O225 C206 1.247 . S
C226 O223 1.244 . S
C226 O224 1.240 . S
H227 C201 0.931 . S
H228 C210 0.931 . S
H229 C214 0.929 . S
H230 C216 0.930 . S
Co231 N235 2.148 . S
Co231 N241 2.128 . S
Co231 N251 2.194 . S
Co231 O256 2.351 . S
Co231 O257 2.155 . S
Co231 O258 2.096 . S
C232 N235 1.301 1_554 S
C232 N236 1.328 . S
C232 H237 0.930 1_554 S
C233 C234 1.333 1_556 S
C233 N235 1.317 . S
C233 H238 0.930 . S
C234 C233 1.333 1_554 S
C234 N236 1.350 . S
C234 H260 0.931 . S
N235 Co231 2.148 . S
N235 C232 1.301 1_556 S
N235 C233 1.317 . S
N236 C232 1.328 . S
N236 C234 1.350 . S
H237 C232 0.930 1_556 S
H238 C233 0.930 . S
C239 O240 1.224 . S
C239 O258 1.247 . S
O240 C239 1.224 . S
N241 Co231 2.128 . S
N241 C242 1.355 . S
N241 C244 1.311 . S
C242 N241 1.355 . S
C242 C243 1.363 . S
C242 H254 0.929 . S
C243 C242 1.363 . S
C243 N245 1.375 . S
C243 H261 0.931 . S
C244 N241 1.311 . S
C244 N245 1.347 . S
C244 H255 0.929 . S
N245 C243 1.375 . S
N245 C244 1.347 . S
C246 C249 1.365 . S
C246 N251 1.328 . S
C246 H252 0.929 . S
C247 C248 1.362 . S
C247 C250 1.378 . S
C247 H262 0.929 . S
C248 C247 1.362 . S
C248 C249 1.366 . S
C249 C246 1.365 . S
C249 C248 1.366 . S
C249 H263 0.930 . S
C250 C247 1.378 . S
C250 N251 1.315 . S
C250 H253 0.930 . S
N251 Co231 2.194 . S
N251 C246 1.328 . S
N251 C250 1.315 . S
H252 C246 0.929 . S
H253 C250 0.930 . S
H254 C242 0.929 . S
H255 C244 0.929 . S
O256 Co231 2.351 . S
O256 C259 1.244 . S
O257 Co231 2.155 . S
O257 C259 1.240 . S
O258 Co231 2.096 . S
O258 C239 1.247 . S
C259 O256 1.244 . S
C259 O257 1.240 . S
H260 C234 0.931 . S
H261 C243 0.931 . S
H262 C247 0.929 . S
H263 C249 0.930 . S
Co264 N268 2.148 . S
Co264 N274 2.128 . S
Co264 N284 2.194 . S
Co264 O289 2.351 . S
Co264 O290 2.155 . S
Co264 O291 2.096 . S
C265 N268 1.301 1_554 S
C265 N269 1.328 . S
C265 H270 0.930 1_554 S
C266 C267 1.333 1_556 S
C266 N268 1.317 . S
C266 H271 0.930 . S
C267 C266 1.333 1_554 S
C267 N269 1.350 . S
C267 H293 0.931 . S
N268 Co264 2.148 . S
N268 C265 1.301 1_556 S
N268 C266 1.317 . S
N269 C265 1.328 . S
N269 C267 1.350 . S
H270 C265 0.930 1_556 S
H271 C266 0.930 . S
C272 O273 1.224 . S
C272 O291 1.247 . S
O273 C272 1.224 . S
N274 Co264 2.128 . S
N274 C275 1.355 . S
N274 C277 1.311 . S
C275 N274 1.355 . S
C275 C276 1.363 . S
C275 H287 0.929 . S
C276 C275 1.363 . S
C276 N278 1.375 . S
C276 H294 0.931 . S
C277 N274 1.311 . S
C277 N278 1.347 . S
C277 H288 0.929 . S
N278 C276 1.375 . S
N278 C277 1.347 . S
C279 C282 1.365 . S
C279 N284 1.328 . S
C279 H285 0.929 . S
C280 C281 1.362 . S
C280 C283 1.378 . S
C280 H295 0.929 . S
C281 C280 1.362 . S
C281 C282 1.366 . S
C282 C279 1.365 . S
C282 C281 1.366 . S
C282 H296 0.930 . S
C283 C280 1.378 . S
C283 N284 1.315 . S
C283 H286 0.930 . S
N284 Co264 2.194 . S
N284 C279 1.328 . S
N284 C283 1.315 . S
H285 C279 0.929 . S
H286 C283 0.930 . S
H287 C275 0.929 . S
H288 C277 0.929 . S
O289 Co264 2.351 . S
O289 C292 1.244 . S
O290 Co264 2.155 . S
O290 C292 1.240 . S
O291 Co264 2.096 . S
O291 C272 1.247 . S
C292 O289 1.244 . S
C292 O290 1.240 . S
H293 C267 0.931 . S
H294 C276 0.931 . S
H295 C280 0.929 . S
H296 C282 0.930 . S
Co297 N301 2.148 . S
Co297 N307 2.128 1_556 S
Co297 N317 2.194 . S
Co297 O322 2.351 . S
Co297 O323 2.155 . S
Co297 O324 2.096 . S
C298 N301 1.301 . S
C298 N302 1.328 . S
C298 H303 0.930 . S
C299 C300 1.333 . S
C299 N301 1.317 . S
C299 H304 0.930 . S
C300 C299 1.333 . S
C300 N302 1.350 . S
C300 H326 0.931 . S
N301 Co297 2.148 . S
N301 C298 1.301 . S
N301 C299 1.317 . S
N302 C298 1.328 . S
N302 C300 1.350 . S
H303 C298 0.930 . S
H304 C299 0.930 . S
C305 O306 1.224 . S
C305 O324 1.247 . S
O306 C305 1.224 . S
N307 Co297 2.128 1_554 S
N307 C308 1.355 . S
N307 C310 1.311 . S
C308 N307 1.355 . S
C308 C309 1.363 . S
C308 H320 0.929 . S
C309 C308 1.363 . S
C309 N311 1.375 . S
C309 H327 0.931 . S
C310 N307 1.311 . S
C310 N311 1.347 . S
C310 H321 0.929 . S
N311 C309 1.375 . S
N311 C310 1.347 . S
C312 C315 1.365 . S
C312 N317 1.328 . S
C312 H318 0.929 . S
C313 C314 1.362 . S
C313 C316 1.378 . S
C313 H328 0.929 . S
C314 C313 1.362 . S
C314 C315 1.366 . S
C315 C312 1.365 . S
C315 C314 1.366 . S
C315 H329 0.930 . S
C316 C313 1.378 . S
C316 N317 1.315 . S
C316 H319 0.930 . S
N317 Co297 2.194 . S
N317 C312 1.328 . S
N317 C316 1.315 . S
H318 C312 0.929 . S
H319 C316 0.930 . S
H320 C308 0.929 . S
H321 C310 0.929 . S
O322 Co297 2.351 . S
O322 C325 1.244 . S
O323 Co297 2.155 . S
O323 C325 1.240 . S
O324 Co297 2.096 . S
O324 C305 1.247 . S
C325 O322 1.244 . S
C325 O323 1.240 . S
H326 C300 0.931 . S
H327 C309 0.931 . S
H328 C313 0.929 . S
H329 C315 0.930 . S
Co330 N334 2.148 . S
Co330 N340 2.128 1_556 S
Co330 N350 2.194 . S
Co330 O355 2.351 . S
Co330 O356 2.155 . S
Co330 O357 2.096 . S
C331 N334 1.301 . S
C331 N335 1.328 . S
C331 H336 0.930 . S
C332 C333 1.333 . S
C332 N334 1.317 . S
C332 H337 0.930 . S
C333 C332 1.333 . S
C333 N335 1.350 . S
C333 H359 0.931 . S
N334 Co330 2.148 . S
N334 C331 1.301 . S
N334 C332 1.317 . S
N335 C331 1.328 . S
N335 C333 1.350 . S
H336 C331 0.930 . S
H337 C332 0.930 . S
C338 O339 1.224 . S
C338 O357 1.247 . S
O339 C338 1.224 . S
N340 Co330 2.128 1_554 S
N340 C341 1.355 . S
N340 C343 1.311 . S
C341 N340 1.355 . S
C341 C342 1.363 . S
C341 H353 0.929 . S
C342 C341 1.363 . S
C342 N344 1.375 . S
C342 H360 0.931 . S
C343 N340 1.311 . S
C343 N344 1.347 . S
C343 H354 0.929 . S
N344 C342 1.375 . S
N344 C343 1.347 . S
C345 C348 1.365 . S
C345 N350 1.328 . S
C345 H351 0.929 . S
C346 C347 1.362 . S
C346 C349 1.378 . S
C346 H361 0.929 . S
C347 C346 1.362 . S
C347 C348 1.366 . S
C348 C345 1.365 . S
C348 C347 1.366 . S
C348 H362 0.930 . S
C349 C346 1.378 . S
C349 N350 1.315 . S
C349 H352 0.930 . S
N350 Co330 2.194 . S
N350 C345 1.328 . S
N350 C349 1.315 . S
H351 C345 0.929 . S
H352 C349 0.930 . S
H353 C341 0.929 . S
H354 C343 0.929 . S
O355 Co330 2.351 . S
O355 C358 1.244 . S
O356 Co330 2.155 . S
O356 C358 1.240 . S
O357 Co330 2.096 . S
O357 C338 1.247 . S
C358 O355 1.244 . S
C358 O356 1.240 . S
H359 C333 0.931 . S
H360 C342 0.931 . S
H361 C346 0.929 . S
H362 C348 0.930 . S
Co363 N367 2.148 . S
Co363 N373 2.128 1_556 S
Co363 N383 2.194 . S
Co363 O388 2.351 . S
Co363 O389 2.155 . S
Co363 O390 2.096 . S
C364 N367 1.301 . S
C364 N368 1.328 . S
C364 H369 0.930 . S
C365 C366 1.333 . S
C365 N367 1.317 . S
C365 H370 0.930 . S
C366 C365 1.333 . S
C366 N368 1.350 . S
C366 H392 0.931 . S
N367 Co363 2.148 . S
N367 C364 1.301 . S
N367 C365 1.317 . S
N368 C364 1.328 . S
N368 C366 1.350 . S
H369 C364 0.930 . S
H370 C365 0.930 . S
C371 O372 1.224 . S
C371 O390 1.247 . S
O372 C371 1.224 . S
N373 Co363 2.128 1_554 S
N373 C374 1.355 . S
N373 C376 1.311 . S
C374 N373 1.355 . S
C374 C375 1.363 . S
C374 H386 0.929 . S
C375 C374 1.363 . S
C375 N377 1.375 . S
C375 H393 0.931 . S
C376 N373 1.311 . S
C376 N377 1.347 . S
C376 H387 0.929 . S
N377 C375 1.375 . S
N377 C376 1.347 . S
C378 C381 1.365 . S
C378 N383 1.328 . S
C378 H384 0.929 . S
C379 C380 1.362 . S
C379 C382 1.378 . S
C379 H394 0.929 . S
C380 C379 1.362 . S
C380 C381 1.366 . S
C381 C378 1.365 . S
C381 C380 1.366 . S
C381 H395 0.930 . S
C382 C379 1.378 . S
C382 N383 1.315 . S
C382 H385 0.930 . S
N383 Co363 2.194 . S
N383 C378 1.328 . S
N383 C382 1.315 . S
H384 C378 0.929 . S
H385 C382 0.930 . S
H386 C374 0.929 . S
H387 C376 0.929 . S
O388 Co363 2.351 . S
O388 C391 1.244 . S
O389 Co363 2.155 . S
O389 C391 1.240 . S
O390 Co363 2.096 . S
O390 C371 1.247 . S
C391 O388 1.244 . S
C391 O389 1.240 . S
H392 C366 0.931 . S
H393 C375 0.931 . S
H394 C379 0.929 . S
H395 C381 0.930 . S
Co396 N400 2.148 . S
Co396 N406 2.128 1_554 S
Co396 N416 2.194 . S
Co396 O421 2.351 . S
Co396 O422 2.155 . S
Co396 O423 2.096 . S
C397 N400 1.301 . S
C397 N401 1.328 . S
C397 H402 0.930 . S
C398 C399 1.333 . S
C398 N400 1.317 . S
C398 H403 0.930 . S
C399 C398 1.333 . S
C399 N401 1.350 . S
C399 H425 0.931 . S
N400 Co396 2.148 . S
N400 C397 1.301 . S
N400 C398 1.317 . S
N401 C397 1.328 . S
N401 C399 1.350 . S
H402 C397 0.930 . S
H403 C398 0.930 . S
C404 O405 1.224 . S
C404 O423 1.247 . S
O405 C404 1.224 . S
N406 Co396 2.128 1_556 S
N406 C407 1.355 . S
N406 C409 1.311 . S
C407 N406 1.355 . S
C407 C408 1.363 . S
C407 H419 0.929 . S
C408 C407 1.363 . S
C408 N410 1.375 . S
C408 H426 0.931 . S
C409 N406 1.311 . S
C409 N410 1.347 . S
C409 H420 0.929 . S
N410 C408 1.375 . S
N410 C409 1.347 . S
C411 C414 1.365 . S
C411 N416 1.328 . S
C411 H417 0.929 . S
C412 C413 1.362 . S
C412 C415 1.378 . S
C412 H427 0.929 . S
C413 C412 1.362 . S
C413 C414 1.366 . S
C414 C411 1.365 . S
C414 C413 1.366 . S
C414 H428 0.930 . S
C415 C412 1.378 . S
C415 N416 1.315 . S
C415 H418 0.930 . S
N416 Co396 2.194 . S
N416 C411 1.328 . S
N416 C415 1.315 . S
H417 C411 0.929 . S
H418 C415 0.930 . S
H419 C407 0.929 . S
H420 C409 0.929 . S
O421 Co396 2.351 . S
O421 C424 1.244 . S
O422 Co396 2.155 . S
O422 C424 1.240 . S
O423 Co396 2.096 . S
O423 C404 1.247 . S
C424 O421 1.244 . S
C424 O422 1.240 . S
H425 C399 0.931 . S
H426 C408 0.931 . S
H427 C412 0.929 . S
H428 C414 0.930 . S
Co429 N433 2.148 . S
Co429 N439 2.128 1_554 S
Co429 N449 2.194 . S
Co429 O454 2.351 . S
Co429 O455 2.155 . S
Co429 O456 2.096 . S
C430 N433 1.301 . S
C430 N434 1.328 . S
C430 H435 0.930 . S
C431 C432 1.333 . S
C431 N433 1.317 . S
C431 H436 0.930 . S
C432 C431 1.333 . S
C432 N434 1.350 . S
C432 H458 0.931 . S
N433 Co429 2.148 . S
N433 C430 1.301 . S
N433 C431 1.317 . S
N434 C430 1.328 . S
N434 C432 1.350 . S
H435 C430 0.930 . S
H436 C431 0.930 . S
C437 O438 1.224 . S
C437 O456 1.247 . S
O438 C437 1.224 . S
N439 Co429 2.128 1_556 S
N439 C440 1.355 . S
N439 C442 1.311 . S
C440 N439 1.355 . S
C440 C441 1.363 . S
C440 H452 0.929 . S
C441 C440 1.363 . S
C441 N443 1.375 . S
C441 H459 0.931 . S
C442 N439 1.311 . S
C442 N443 1.347 . S
C442 H453 0.929 . S
N443 C441 1.375 . S
N443 C442 1.347 . S
C444 C447 1.365 . S
C444 N449 1.328 . S
C444 H450 0.929 . S
C445 C446 1.362 . S
C445 C448 1.378 . S
C445 H460 0.929 . S
C446 C445 1.362 . S
C446 C447 1.366 . S
C447 C444 1.365 . S
C447 C446 1.366 . S
C447 H461 0.930 . S
C448 C445 1.378 . S
C448 N449 1.315 . S
C448 H451 0.930 . S
N449 Co429 2.194 . S
N449 C444 1.328 . S
N449 C448 1.315 . S
H450 C444 0.929 . S
H451 C448 0.930 . S
H452 C440 0.929 . S
H453 C442 0.929 . S
O454 Co429 2.351 . S
O454 C457 1.244 . S
O455 Co429 2.155 . S
O455 C457 1.240 . S
O456 Co429 2.096 . S
O456 C437 1.247 . S
C457 O454 1.244 . S
C457 O455 1.240 . S
H458 C432 0.931 . S
H459 C441 0.931 . S
H460 C445 0.929 . S
H461 C447 0.930 . S
Co462 N466 2.148 . S
Co462 N472 2.128 1_554 S
Co462 N482 2.194 . S
Co462 O487 2.351 . S
Co462 O488 2.155 . S
Co462 O489 2.096 . S
C463 N466 1.301 . S
C463 N467 1.328 . S
C463 H468 0.930 . S
C464 C465 1.333 . S
C464 N466 1.317 . S
C464 H469 0.930 . S
C465 C464 1.333 . S
C465 N467 1.350 . S
C465 H491 0.931 . S
N466 Co462 2.148 . S
N466 C463 1.301 . S
N466 C464 1.317 . S
N467 C463 1.328 . S
N467 C465 1.350 . S
H468 C463 0.930 . S
H469 C464 0.930 . S
C470 O471 1.224 . S
C470 O489 1.247 . S
O471 C470 1.224 . S
N472 Co462 2.128 1_556 S
N472 C473 1.355 . S
N472 C475 1.311 . S
C473 N472 1.355 . S
C473 C474 1.363 . S
C473 H485 0.929 . S
C474 C473 1.363 . S
C474 N476 1.375 . S
C474 H492 0.931 . S
C475 N472 1.311 . S
C475 N476 1.347 . S
C475 H486 0.929 . S
N476 C474 1.375 . S
N476 C475 1.347 . S
C477 C480 1.365 . S
C477 N482 1.328 . S
C477 H483 0.929 . S
C478 C479 1.362 . S
C478 C481 1.378 . S
C478 H493 0.929 . S
C479 C478 1.362 . S
C479 C480 1.366 . S
C480 C477 1.365 . S
C480 C479 1.366 . S
C480 H494 0.930 . S
C481 C478 1.378 . S
C481 N482 1.315 . S
C481 H484 0.930 . S
N482 Co462 2.194 . S
N482 C477 1.328 . S
N482 C481 1.315 . S
H483 C477 0.929 . S
H484 C481 0.930 . S
H485 C473 0.929 . S
H486 C475 0.929 . S
O487 Co462 2.351 . S
O487 C490 1.244 . S
O488 Co462 2.155 . S
O488 C490 1.240 . S
O489 Co462 2.096 . S
O489 C470 1.247 . S
C490 O487 1.244 . S
C490 O488 1.240 . S
H491 C465 0.931 . S
H492 C474 0.931 . S
H493 C478 0.929 . S
H494 C480 0.930 . S
Co495 N499 2.148 . S
Co495 N505 2.128 . S
Co495 N515 2.194 . S
Co495 O520 2.351 . S
Co495 O521 2.155 . S
Co495 O522 2.096 . S
C496 N499 1.301 1_556 S
C496 N500 1.328 . S
C496 H501 0.930 1_556 S
C497 C498 1.333 1_554 S
C497 N499 1.317 . S
C497 H502 0.930 . S
C498 C497 1.333 1_556 S
C498 N500 1.350 . S
C498 H524 0.931 . S
N499 Co495 2.148 . S
N499 C496 1.301 1_554 S
N499 C497 1.317 . S
N500 C496 1.328 . S
N500 C498 1.350 . S
H501 C496 0.930 1_554 S
H502 C497 0.930 . S
C503 O504 1.224 . S
C503 O522 1.247 . S
O504 C503 1.224 . S
N505 Co495 2.128 . S
N505 C506 1.355 . S
N505 C508 1.311 . S
C506 N505 1.355 . S
C506 C507 1.363 . S
C506 H518 0.929 . S
C507 C506 1.363 . S
C507 N509 1.375 . S
C507 H525 0.931 . S
C508 N505 1.311 . S
C508 N509 1.347 . S
C508 H519 0.929 . S
N509 C507 1.375 . S
N509 C508 1.347 . S
C510 C513 1.365 . S
C510 N515 1.328 . S
C510 H516 0.929 . S
C511 C512 1.362 . S
C511 C514 1.378 . S
C511 H526 0.929 . S
C512 C511 1.362 . S
C512 C513 1.366 . S
C513 C510 1.365 . S
C513 C512 1.366 . S
C513 H527 0.930 . S
C514 C511 1.378 . S
C514 N515 1.315 . S
C514 H517 0.930 . S
N515 Co495 2.194 . S
N515 C510 1.328 . S
N515 C514 1.315 . S
H516 C510 0.929 . S
H517 C514 0.930 . S
H518 C506 0.929 . S
H519 C508 0.929 . S
O520 Co495 2.351 . S
O520 C523 1.244 . S
O521 Co495 2.155 . S
O521 C523 1.240 . S
O522 Co495 2.096 . S
O522 C503 1.247 . S
C523 O520 1.244 . S
C523 O521 1.240 . S
H524 C498 0.931 . S
H525 C507 0.931 . S
H526 C511 0.929 . S
H527 C513 0.930 . S
Co528 N532 2.148 . S
Co528 N538 2.128 . S
Co528 N548 2.194 . S
Co528 O553 2.351 . S
Co528 O554 2.155 . S
Co528 O555 2.096 . S
C529 N532 1.301 1_556 S
C529 N533 1.328 . S
C529 H534 0.930 1_556 S
C530 C531 1.333 1_554 S
C530 N532 1.317 . S
C530 H535 0.930 . S
C531 C530 1.333 1_556 S
C531 N533 1.350 . S
C531 H557 0.931 . S
N532 Co528 2.148 . S
N532 C529 1.301 1_554 S
N532 C530 1.317 . S
N533 C529 1.328 . S
N533 C531 1.350 . S
H534 C529 0.930 1_554 S
H535 C530 0.930 . S
C536 O537 1.224 . S
C536 O555 1.247 . S
O537 C536 1.224 . S
N538 Co528 2.128 . S
N538 C539 1.355 . S
N538 C541 1.311 . S
C539 N538 1.355 . S
C539 C540 1.363 . S
C539 H551 0.929 . S
C540 C539 1.363 . S
C540 N542 1.375 . S
C540 H558 0.931 . S
C541 N538 1.311 . S
C541 N542 1.347 . S
C541 H552 0.929 . S
N542 C540 1.375 . S
N542 C541 1.347 . S
C543 C546 1.365 . S
C543 N548 1.328 . S
C543 H549 0.929 . S
C544 C545 1.362 . S
C544 C547 1.378 . S
C544 H559 0.929 . S
C545 C544 1.362 . S
C545 C546 1.366 . S
C546 C543 1.365 . S
C546 C545 1.366 . S
C546 H560 0.930 . S
C547 C544 1.378 . S
C547 N548 1.315 . S
C547 H550 0.930 . S
N548 Co528 2.194 . S
N548 C543 1.328 . S
N548 C547 1.315 . S
H549 C543 0.929 . S
H550 C547 0.930 . S
H551 C539 0.929 . S
H552 C541 0.929 . S
O553 Co528 2.351 . S
O553 C556 1.244 . S
O554 Co528 2.155 . S
O554 C556 1.240 . S
O555 Co528 2.096 . S
O555 C536 1.247 . S
C556 O553 1.244 . S
C556 O554 1.240 . S
H557 C531 0.931 . S
H558 C540 0.931 . S
H559 C544 0.929 . S
H560 C546 0.930 . S
Co561 N565 2.148 . S
Co561 N571 2.128 . S
Co561 N581 2.194 . S
Co561 O586 2.351 . S
Co561 O587 2.155 . S
Co561 O588 2.096 . S
C562 N565 1.301 1_556 S
C562 N566 1.328 . S
C562 H567 0.930 1_556 S
C563 C564 1.333 1_554 S
C563 N565 1.317 . S
C563 H568 0.930 . S
C564 C563 1.333 1_556 S
C564 N566 1.350 . S
C564 H590 0.931 . S
N565 Co561 2.148 . S
N565 C562 1.301 1_554 S
N565 C563 1.317 . S
N566 C562 1.328 . S
N566 C564 1.350 . S
H567 C562 0.930 1_554 S
H568 C563 0.930 . S
C569 O570 1.224 . S
C569 O588 1.247 . S
O570 C569 1.224 . S
N571 Co561 2.128 . S
N571 C572 1.355 . S
N571 C574 1.311 . S
C572 N571 1.355 . S
C572 C573 1.363 . S
C572 H584 0.929 . S
C573 C572 1.363 . S
C573 N575 1.375 . S
C573 H591 0.931 . S
C574 N571 1.311 . S
C574 N575 1.347 . S
C574 H585 0.929 . S
N575 C573 1.375 . S
N575 C574 1.347 . S
C576 C579 1.365 . S
C576 N581 1.328 . S
C576 H582 0.929 . S
C577 C578 1.362 . S
C577 C580 1.378 . S
C577 H592 0.929 . S
C578 C577 1.362 . S
C578 C579 1.366 . S
C579 C576 1.365 . S
C579 C578 1.366 . S
C579 H593 0.930 . S
C580 C577 1.378 . S
C580 N581 1.315 . S
C580 H583 0.930 . S
N581 Co561 2.194 . S
N581 C576 1.328 . S
N581 C580 1.315 . S
H582 C576 0.929 . S
H583 C580 0.930 . S
H584 C572 0.929 . S
H585 C574 0.929 . S
O586 Co561 2.351 . S
O586 C589 1.244 . S
O587 Co561 2.155 . S
O587 C589 1.240 . S
O588 Co561 2.096 . S
O588 C569 1.247 . S
C589 O586 1.244 . S
C589 O587 1.240 . S
H590 C564 0.931 . S
H591 C573 0.931 . S
H592 C577 0.929 . S
H593 C579 0.930 . S
C594 C595 1.387 . S
C594 H598 0.950 . S
C594 C603 1.390 . S
C595 C594 1.387 . S
C595 C597 1.387 . S
H596 C603 0.950 . S
C597 C595 1.387 . S
C597 C599 1.390 . S
C597 H601 0.950 . S
H598 C594 0.950 . S
C599 C597 1.390 . S
C599 C600 1.387 . S
C599 H602 0.950 . S
C600 C599 1.387 . S
C600 C603 1.387 . S
H601 C597 0.950 . S
H602 C599 0.950 . S
C603 C594 1.390 . S
C603 H596 0.950 . S
C603 C600 1.387 . S
C604 C605 1.387 . S
C604 H608 0.950 . S
C604 C613 1.390 1_545 S
C605 C604 1.387 . S
C605 C607 1.387 . S
H606 C613 0.950 . S
C607 C605 1.387 . S
C607 C609 1.390 1_545 S
C607 H611 0.950 . S
H608 C604 0.950 . S
C609 C607 1.390 1_565 S
C609 C610 1.387 . S
C609 H612 0.950 . S
C610 C609 1.387 . S
C610 C613 1.387 . S
H611 C607 0.950 . S
H612 C609 0.950 . S
C613 C604 1.390 1_565 S
C613 H606 0.950 . S
C613 C610 1.387 . S
C614 C615 1.387 . S
C614 H618 0.950 . S
C614 C623 1.390 1_655 S
C615 C614 1.387 . S
C615 C617 1.387 . S
H616 C623 0.950 . S
C617 C615 1.387 . S
C617 C619 1.390 1_655 S
C617 H621 0.950 . S
H618 C614 0.950 . S
C619 C617 1.390 1_455 S
C619 C620 1.387 . S
C619 H622 0.950 . S
C620 C619 1.387 . S
C620 C623 1.387 . S
H621 C617 0.950 . S
H622 C619 0.950 . S
C623 C614 1.390 1_455 S
C623 H616 0.950 . S
C623 C620 1.387 . S
C624 C625 1.387 . S
C624 H628 0.950 . S
C624 C633 1.390 . S
C625 C624 1.387 . S
C625 C627 1.387 . S
H626 C633 0.950 . S
C627 C625 1.387 . S
C627 C629 1.390 . S
C627 H631 0.950 . S
H628 C624 0.950 . S
C629 C627 1.390 . S
C629 C630 1.387 . S
C629 H632 0.950 . S
C630 C629 1.387 . S
C630 C633 1.387 . S
H631 C627 0.950 . S
H632 C629 0.950 . S
C633 C624 1.390 . S
C633 H626 0.950 . S
C633 C630 1.387 . S
C634 C635 1.387 . S
C634 H638 0.950 . S
C634 C643 1.390 1_545 S
C635 C634 1.387 . S
C635 C637 1.387 . S
H636 C643 0.950 . S
C637 C635 1.387 . S
C637 C639 1.390 1_545 S
C637 H641 0.950 . S
H638 C634 0.950 . S
C639 C637 1.390 1_565 S
C639 C640 1.387 . S
C639 H642 0.950 . S
C640 C639 1.387 . S
C640 C643 1.387 . S
H641 C637 0.950 . S
H642 C639 0.950 . S
C643 C634 1.390 1_565 S
C643 H636 0.950 . S
C643 C640 1.387 . S
C644 C645 1.387 . S
C644 H648 0.950 . S
C644 C653 1.390 1_655 S
C645 C644 1.387 . S
C645 C647 1.387 . S
H646 C653 0.950 . S
C647 C645 1.387 . S
C647 C649 1.390 1_655 S
C647 H651 0.950 . S
H648 C644 0.950 . S
C649 C647 1.390 1_455 S
C649 C650 1.387 . S
C649 H652 0.950 . S
C650 C649 1.387 . S
C650 C653 1.387 . S
H651 C647 0.950 . S
H652 C649 0.950 . S
C653 C644 1.390 1_455 S
C653 H646 0.950 . S
C653 C650 1.387 . S
C654 C655 1.387 . S
C654 H658 0.950 . S
C654 C663 1.390 . S
C655 C654 1.387 . S
C655 C657 1.387 . S
H656 C663 0.950 . S
C657 C655 1.387 . S
C657 C659 1.390 . S
C657 H661 0.950 . S
H658 C654 0.950 . S
C659 C657 1.390 . S
C659 C660 1.387 . S
C659 H662 0.950 . S
C660 C659 1.387 . S
C660 C663 1.387 . S
H661 C657 0.950 . S
H662 C659 0.950 . S
C663 C654 1.390 . S
C663 H656 0.950 . S
C663 C660 1.387 . S
C664 C665 1.387 . S
C664 H668 0.950 . S
C664 C673 1.390 . S
C665 C664 1.387 . S
C665 C667 1.387 . S
H666 C673 0.950 . S
C667 C665 1.387 . S
C667 C669 1.390 . S
C667 H671 0.950 . S
H668 C664 0.950 . S
C669 C667 1.390 . S
C669 C670 1.387 . S
C669 H672 0.950 . S
C670 C669 1.387 . S
C670 C673 1.387 . S
H671 C667 0.950 . S
H672 C669 0.950 . S
C673 C664 1.390 . S
C673 H666 0.950 . S
C673 C670 1.387 . S
C674 C675 1.387 . S
C674 H678 0.950 . S
C674 C683 1.390 . S
C675 C674 1.387 . S
C675 C677 1.387 . S
H676 C683 0.950 . S
C677 C675 1.387 . S
C677 C679 1.390 . S
C677 H681 0.950 . S
H678 C674 0.950 . S
C679 C677 1.390 . S
C679 C680 1.387 . S
C679 H682 0.950 . S
C680 C679 1.387 . S
C680 C683 1.387 . S
H681 C677 0.950 . S
H682 C679 0.950 . S
C683 C674 1.390 . S
C683 H676 0.950 . S
C683 C680 1.387 . S
C684 C685 1.387 . S
C684 H688 0.950 . S
C684 C693 1.390 . S
C685 C684 1.387 . S
C685 C687 1.387 . S
H686 C693 0.950 . S
C687 C685 1.387 . S
C687 C689 1.390 . S
C687 H691 0.950 . S
H688 C684 0.950 . S
C689 C687 1.390 . S
C689 C690 1.387 . S
C689 H692 0.950 . S
C690 C689 1.387 . S
C690 C693 1.387 . S
H691 C687 0.950 . S
H692 C689 0.950 . S
C693 C684 1.390 . S
C693 H686 0.950 . S
C693 C690 1.387 . S
C694 C695 1.387 . S
C694 H698 0.950 . S
C694 C703 1.390 . S
C695 C694 1.387 . S
C695 C697 1.387 . S
H696 C703 0.950 . S
C697 C695 1.387 . S
C697 C699 1.390 . S
C697 H701 0.950 . S
H698 C694 0.950 . S
C699 C697 1.390 . S
C699 C700 1.387 . S
C699 H702 0.950 . S
C700 C699 1.387 . S
C700 C703 1.387 . S
H701 C697 0.950 . S
H702 C699 0.950 . S
C703 C694 1.390 . S
C703 H696 0.950 . S
C703 C700 1.387 . S
C704 C705 1.387 . S
C704 H708 0.950 . S
C704 C713 1.390 . S
C705 C704 1.387 . S
C705 C707 1.387 . S
H706 C713 0.950 . S
C707 C705 1.387 . S
C707 C709 1.390 . S
C707 H711 0.950 . S
H708 C704 0.950 . S
C709 C707 1.390 . S
C709 C710 1.387 . S
C709 H712 0.950 . S
C710 C709 1.387 . S
C710 C713 1.387 . S
H711 C707 0.950 . S
H712 C709 0.950 . S
C713 C704 1.390 . S
C713 H706 0.950 . S
C713 C710 1.387 . S
C714 C715 1.387 . S
C714 H718 0.950 . S
C714 C723 1.390 . S
C715 C714 1.387 . S
C715 C717 1.387 . S
H716 C723 0.950 . S
C717 C715 1.387 . S
C717 C719 1.390 . S
C717 H721 0.950 . S
H718 C714 0.950 . S
C719 C717 1.390 . S
C719 C720 1.387 . S
C719 H722 0.950 . S
C720 C719 1.387 . S
C720 C723 1.387 . S
H721 C717 0.950 . S
H722 C719 0.950 . S
C723 C714 1.390 . S
C723 H716 0.950 . S
C723 C720 1.387 . S
C724 C725 1.387 . S
C724 H728 0.950 . S
C724 C733 1.390 . S
C725 C724 1.387 . S
C725 C727 1.387 . S
H726 C733 0.950 . S
C727 C725 1.387 . S
C727 C729 1.390 . S
C727 H731 0.950 . S
H728 C724 0.950 . S
C729 C727 1.390 . S
C729 C730 1.387 . S
C729 H732 0.950 . S
C730 C729 1.387 . S
C730 C733 1.387 . S
H731 C727 0.950 . S
H732 C729 0.950 . S
C733 C724 1.390 . S
C733 H726 0.950 . S
C733 C730 1.387 . S
C734 C735 1.387 . S
C734 H738 0.950 . S
C734 C743 1.390 . S
C735 C734 1.387 . S
C735 C737 1.387 . S
H736 C743 0.950 . S
C737 C735 1.387 . S
C737 C739 1.390 . S
C737 H741 0.950 . S
H738 C734 0.950 . S
C739 C737 1.390 . S
C739 C740 1.387 . S
C739 H742 0.950 . S
C740 C739 1.387 . S
C740 C743 1.387 . S
H741 C737 0.950 . S
H742 C739 0.950 . S
C743 C734 1.390 . S
C743 H736 0.950 . S
C743 C740 1.387 . S
C744 C745 1.387 . S
C744 H748 0.950 . S
C744 C753 1.390 . S
C745 C744 1.387 . S
C745 C747 1.387 . S
H746 C753 0.950 . S
C747 C745 1.387 . S
C747 C749 1.390 . S
C747 H751 0.950 . S
H748 C744 0.950 . S
C749 C747 1.390 . S
C749 C750 1.387 . S
C749 H752 0.950 . S
C750 C749 1.387 . S
C750 C753 1.387 . S
H751 C747 0.950 . S
H752 C749 0.950 . S
C753 C744 1.390 . S
C753 H746 0.950 . S
C753 C750 1.387 . S
C754 C755 1.387 . S
C754 H758 0.950 . S
C754 C763 1.390 . S
C755 C754 1.387 . S
C755 C757 1.387 . S
H756 C763 0.950 . S
C757 C755 1.387 . S
C757 C759 1.390 . S
C757 H761 0.950 . S
H758 C754 0.950 . S
C759 C757 1.390 . S
C759 C760 1.387 . S
C759 H762 0.950 . S
C760 C759 1.387 . S
C760 C763 1.387 . S
H761 C757 0.950 . S
H762 C759 0.950 . S
C763 C754 1.390 . S
C763 H756 0.950 . S
C763 C760 1.387 . S
C764 C765 1.387 . S
C764 H768 0.950 . S
C764 C773 1.390 . S
C765 C764 1.387 . S
C765 C767 1.387 . S
H766 C773 0.950 . S
C767 C765 1.387 . S
C767 C769 1.390 . S
C767 H771 0.950 . S
H768 C764 0.950 . S
C769 C767 1.390 . S
C769 C770 1.387 . S
C769 H772 0.950 . S
C770 C769 1.387 . S
C770 C773 1.387 . S
H771 C767 0.950 . S
H772 C769 0.950 . S
C773 C764 1.390 . S
C773 H766 0.950 . S
C773 C770 1.387 . S
C774 C775 1.387 . S
C774 H778 0.950 . S
C774 C783 1.390 . S
C775 C774 1.387 . S
C775 C777 1.387 . S
H776 C783 0.950 . S
C777 C775 1.387 . S
C777 C779 1.390 . S
C777 H781 0.950 . S
H778 C774 0.950 . S
C779 C777 1.390 . S
C779 C780 1.387 . S
C779 H782 0.950 . S
C780 C779 1.387 . S
C780 C783 1.387 . S
H781 C777 0.950 . S
H782 C779 0.950 . S
C783 C774 1.390 . S
C783 H776 0.950 . S
C783 C780 1.387 . S
C784 C785 1.387 . S
C784 H788 0.950 . S
C784 C793 1.390 . S
C785 C784 1.387 . S
C785 C787 1.387 . S
H786 C793 0.950 . S
C787 C785 1.387 . S
C787 C789 1.390 . S
C787 H791 0.950 . S
H788 C784 0.950 . S
C789 C787 1.390 . S
C789 C790 1.387 . S
C789 H792 0.950 . S
C790 C789 1.387 . S
C790 C793 1.387 . S
H791 C787 0.950 . S
H792 C789 0.950 . S
C793 C784 1.390 . S
C793 H786 0.950 . S
C793 C790 1.387 . S
C794 C795 1.387 . S
C794 H798 0.950 . S
C794 C803 1.390 . S
C795 C794 1.387 . S
C795 C797 1.387 . S
H796 C803 0.950 . S
C797 C795 1.387 . S
C797 C799 1.390 . S
C797 H801 0.950 . S
H798 C794 0.950 . S
C799 C797 1.390 . S
C799 C800 1.387 . S
C799 H802 0.950 . S
C800 C799 1.387 . S
C800 C803 1.387 . S
H801 C797 0.950 . S
H802 C799 0.950 . S
C803 C794 1.390 . S
C803 H796 0.950 . S
C803 C800 1.387 . S
C804 C805 1.387 . S
C804 H808 0.950 . S
C804 C813 1.390 . S
C805 C804 1.387 . S
C805 C807 1.387 . S
H806 C813 0.950 . S
C807 C805 1.387 . S
C807 C809 1.390 . S
C807 H811 0.950 . S
H808 C804 0.950 . S
C809 C807 1.390 . S
C809 C810 1.387 . S
C809 H812 0.950 . S
C810 C809 1.387 . S
C810 C813 1.387 . S
H811 C807 0.950 . S
H812 C809 0.950 . S
C813 C804 1.390 . S
C813 H806 0.950 . S
C813 C810 1.387 . S
C814 C815 1.387 . S
C814 H818 0.950 . S
C814 C823 1.390 . S
C815 C814 1.387 . S
C815 C817 1.387 . S
H816 C823 0.950 . S
C817 C815 1.387 . S
C817 C819 1.390 . S
C817 H821 0.950 . S
H818 C814 0.950 . S
C819 C817 1.390 . S
C819 C820 1.387 . S
C819 H822 0.950 . S
C820 C819 1.387 . S
C820 C823 1.387 . S
H821 C817 0.950 . S
H822 C819 0.950 . S
C823 C814 1.390 . S
C823 H816 0.950 . S
C823 C820 1.387 . S
C824 C825 1.387 . S
C824 H828 0.950 . S
C824 C833 1.390 . S
C825 C824 1.387 . S
C825 C827 1.387 . S
H826 C833 0.950 . S
C827 C825 1.387 . S
C827 C829 1.390 . S
C827 H831 0.950 . S
H828 C824 0.950 . S
C829 C827 1.390 . S
C829 C830 1.387 . S
C829 H832 0.950 . S
C830 C829 1.387 . S
C830 C833 1.387 . S
H831 C827 0.950 . S
H832 C829 0.950 . S
C833 C824 1.390 . S
C833 H826 0.950 . S
C833 C830 1.387 . S
C834 C835 1.387 1_556 S
C834 H838 0.950 . S
C834 C843 1.390 1_455 S
C835 C834 1.387 1_554 S
C835 C837 1.387 . S
H836 C843 0.950 . S
C837 C835 1.387 . S
C837 C839 1.390 1_455 S
C837 H841 0.950 . S
H838 C834 0.950 . S
C839 C837 1.390 1_655 S
C839 C840 1.387 1_554 S
C839 H842 0.950 . S
C840 C839 1.387 1_556 S
C840 C843 1.387 . S
H841 C837 0.950 . S
H842 C839 0.950 . S
C843 C834 1.390 1_655 S
C843 H836 0.950 . S
C843 C840 1.387 . S
C844 C845 1.387 . S
C844 H848 0.950 . S
C844 C853 1.390 . S
C845 C844 1.387 . S
C845 C847 1.387 1_554 S
H846 C853 0.950 . S
C847 C845 1.387 1_556 S
C847 C849 1.390 . S
C847 H851 0.950 . S
H848 C844 0.950 . S
C849 C847 1.390 . S
C849 C850 1.387 . S
C849 H852 0.950 . S
C850 C849 1.387 . S
C850 C853 1.387 1_556 S
H851 C847 0.950 . S
H852 C849 0.950 . S
C853 C844 1.390 . S
C853 H846 0.950 . S
C853 C850 1.387 1_554 S
C854 C855 1.387 . S
C854 H858 0.950 . S
C854 C863 1.390 1_546 S
C855 C854 1.387 . S
C855 C857 1.387 . S
H856 C863 0.950 . S
C857 C855 1.387 . S
C857 C859 1.390 1_546 S
C857 H861 0.950 . S
H858 C854 0.950 . S
C859 C857 1.390 1_564 S
C859 C860 1.387 . S
C859 H862 0.950 . S
C860 C859 1.387 . S
C860 C863 1.387 . S
H861 C857 0.950 . S
H862 C859 0.950 . S
C863 C854 1.390 1_564 S
C863 H856 0.950 . S
C863 C860 1.387 . S
C864 C865 1.387 . S
C864 H868 0.950 . S
C864 C873 1.390 . S
C865 C864 1.387 . S
C865 C867 1.387 . S
H866 C873 0.950 1_554 S
C867 C865 1.387 . S
C867 C869 1.390 1_556 S
C867 H871 0.950 . S
H868 C864 0.950 . S
C869 C867 1.390 1_554 S
C869 C870 1.387 . S
C869 H872 0.950 . S
C870 C869 1.387 . S
C870 C873 1.387 1_554 S
H871 C867 0.950 . S
H872 C869 0.950 . S
C873 C864 1.390 . S
C873 H866 0.950 1_556 S
C873 C870 1.387 1_556 S
C874 C875 1.387 . S
C874 H878 0.950 . S
C874 C883 1.390 . S
C875 C874 1.387 . S
C875 C877 1.387 . S
H876 C883 0.950 1_554 S
C877 C875 1.387 . S
C877 C879 1.390 . S
C877 H881 0.950 . S
H878 C874 0.950 . S
C879 C877 1.390 . S
C879 C880 1.387 1_556 S
C879 H882 0.950 1_556 S
C880 C879 1.387 1_554 S
C880 C883 1.387 1_554 S
H881 C877 0.950 . S
H882 C879 0.950 1_554 S
C883 C874 1.390 . S
C883 H876 0.950 1_556 S
C883 C880 1.387 1_556 S
C884 C885 1.387 . S
C884 H888 0.950 . S
C884 C893 1.390 1_556 S
C885 C884 1.387 . S
C885 C887 1.387 . S
H886 C893 0.950 . S
C887 C885 1.387 . S
C887 C889 1.390 . S
C887 H891 0.950 . S
H888 C884 0.950 . S
C889 C887 1.390 . S
C889 C890 1.387 1_556 S
C889 H892 0.950 1_556 S
C890 C889 1.387 1_554 S
C890 C893 1.387 . S
H891 C887 0.950 . S
H892 C889 0.950 1_554 S
C893 C884 1.390 1_554 S
C893 H886 0.950 . S
C893 C890 1.387 . S
C894 C895 1.387 1_554 S
C894 H898 0.950 1_554 S
C894 C903 1.390 . S
C895 C894 1.387 1_556 S
C895 C897 1.387 1_556 S
H896 C903 0.950 . S
C897 C895 1.387 1_554 S
C897 C899 1.390 . S
C897 H901 0.950 1_554 S
H898 C894 0.950 1_556 S
C899 C897 1.390 . S
C899 C900 1.387 . S
C899 H902 0.950 . S
C900 C899 1.387 . S
C900 C903 1.387 . S
H901 C897 0.950 1_556 S
H902 C899 0.950 . S
C903 C894 1.390 . S
C903 H896 0.950 . S
C903 C900 1.387 . S
C904 C905 1.387 1_554 S
C904 H908 0.950 1_554 S
C904 C913 1.390 . S
C905 C904 1.387 1_556 S
C905 C907 1.387 1_556 S
H906 C913 0.950 . S
C907 C905 1.387 1_554 S
C907 C909 1.390 . S
C907 H911 0.950 1_554 S
H908 C904 0.950 1_556 S
C909 C907 1.390 . S
C909 C910 1.387 . S
C909 H912 0.950 . S
C910 C909 1.387 . S
C910 C913 1.387 . S
H911 C907 0.950 1_556 S
H912 C909 0.950 . S
C913 C904 1.390 . S
C913 H906 0.950 . S
C913 C910 1.387 . S
C914 C915 1.387 . S
C914 H918 0.950 . S
C914 C923 1.390 . S
C915 C914 1.387 . S
C915 C917 1.387 . S
H916 C923 0.950 1_556 S
C917 C915 1.387 . S
C917 C919 1.390 1_554 S
C917 H921 0.950 . S
H918 C914 0.950 . S
C919 C917 1.390 1_556 S
C919 C920 1.387 . S
C919 H922 0.950 . S
C920 C919 1.387 . S
C920 C923 1.387 1_556 S
H921 C917 0.950 . S
H922 C919 0.950 . S
C923 C914 1.390 . S
C923 H916 0.950 1_554 S
C923 C920 1.387 1_554 S
C924 C925 1.387 . S
C924 H928 0.950 . S
C924 C933 1.390 . S
C925 C924 1.387 . S
C925 C927 1.387 . S
H926 C933 0.950 . S
C927 C925 1.387 . S
C927 C929 1.390 . S
C927 H931 0.950 . S
H928 C924 0.950 . S
C929 C927 1.390 . S
C929 C930 1.387 . S
C929 H932 0.950 . S
C930 C929 1.387 . S
C930 C933 1.387 . S
H931 C927 0.950 . S
H932 C929 0.950 . S
C933 C924 1.390 . S
C933 H926 0.950 . S
C933 C930 1.387 . S
C934 C935 1.387 . S
C934 H938 0.950 . S
C934 C943 1.390 . S
C935 C934 1.387 . S
C935 C937 1.387 . S
H936 C943 0.950 . S
C937 C935 1.387 . S
C937 C939 1.390 . S
C937 H941 0.950 . S
H938 C934 0.950 . S
C939 C937 1.390 . S
C939 C940 1.387 . S
C939 H942 0.950 . S
C940 C939 1.387 . S
C940 C943 1.387 . S
H941 C937 0.950 . S
H942 C939 0.950 . S
C943 C934 1.390 . S
C943 H936 0.950 . S
C943 C940 1.387 . S
C944 C945 1.387 . S
C944 H948 0.950 . S
C944 C953 1.390 . S
C945 C944 1.387 . S
C945 C947 1.387 . S
H946 C953 0.950 . S
C947 C945 1.387 . S
C947 C949 1.390 . S
C947 H951 0.950 . S
H948 C944 0.950 . S
C949 C947 1.390 . S
C949 C950 1.387 . S
C949 H952 0.950 . S
C950 C949 1.387 . S
C950 C953 1.387 . S
H951 C947 0.950 . S
H952 C949 0.950 . S
C953 C944 1.390 . S
C953 H946 0.950 . S
C953 C950 1.387 . S
C954 C955 1.387 . S
C954 H958 0.950 . S
C954 C963 1.390 . S
C955 C954 1.387 . S
C955 C957 1.387 . S
H956 C963 0.950 . S
C957 C955 1.387 . S
C957 C959 1.390 . S
C957 H961 0.950 . S
H958 C954 0.950 . S
C959 C957 1.390 . S
C959 C960 1.387 . S
C959 H962 0.950 . S
C960 C959 1.387 . S
C960 C963 1.387 . S
H961 C957 0.950 . S
H962 C959 0.950 . S
C963 C954 1.390 . S
C963 H956 0.950 . S
C963 C960 1.387 . S
C964 C965 1.387 . S
C964 H968 0.950 . S
C964 C973 1.390 . S
C965 C964 1.387 . S
C965 C967 1.387 . S
H966 C973 0.950 . S
C967 C965 1.387 . S
C967 C969 1.390 . S
C967 H971 0.950 . S
H968 C964 0.950 . S
C969 C967 1.390 . S
C969 C970 1.387 . S
C969 H972 0.950 . S
C970 C969 1.387 . S
C970 C973 1.387 . S
H971 C967 0.950 . S
H972 C969 0.950 . S
C973 C964 1.390 . S
C973 H966 0.950 . S
C973 C970 1.387 . S
C974 C975 1.387 . S
C974 H978 0.950 . S
C974 C983 1.390 . S
C975 C974 1.387 . S
C975 C977 1.387 . S
H976 C983 0.950 . S
C977 C975 1.387 . S
C977 C979 1.390 . S
C977 H981 0.950 . S
H978 C974 0.950 . S
C979 C977 1.390 . S
C979 C980 1.387 . S
C979 H982 0.950 . S
C980 C979 1.387 . S
C980 C983 1.387 . S
H981 C977 0.950 . S
H982 C979 0.950 . S
C983 C974 1.390 . S
C983 H976 0.950 . S
C983 C980 1.387 . S
C984 C985 1.387 . S
C984 H988 0.950 . S
C984 C993 1.390 . S
C985 C984 1.387 . S
C985 C987 1.387 . S
H986 C993 0.950 . S
C987 C985 1.387 . S
C987 C989 1.390 . S
C987 H991 0.950 . S
H988 C984 0.950 . S
C989 C987 1.390 . S
C989 C990 1.387 . S
C989 H992 0.950 . S
C990 C989 1.387 . S
C990 C993 1.387 . S
H991 C987 0.950 . S
H992 C989 0.950 . S
C993 C984 1.390 . S
C993 H986 0.950 . S
C993 C990 1.387 . S
C994 C995 1.387 . S
C994 H998 0.950 . S
C994 C1003 1.390 . S
C995 C994 1.387 . S
C995 C997 1.387 . S
H996 C1003 0.950 . S
C997 C995 1.387 . S
C997 C999 1.390 . S
C997 H1001 0.950 . S
H998 C994 0.950 . S
C999 C997 1.390 . S
C999 C1000 1.387 . S
C999 H1002 0.950 . S
C1000 C999 1.387 . S
C1000 C1003 1.387 . S
H1001 C997 0.950 . S
H1002 C999 0.950 . S
C1003 C994 1.390 . S
C1003 H996 0.950 . S
C1003 C1000 1.387 . S
C1004 C1005 1.387 . S
C1004 H1008 0.950 . S
C1004 C1013 1.390 . S
C1005 C1004 1.387 . S
C1005 C1007 1.387 . S
H1006 C1013 0.950 . S
C1007 C1005 1.387 . S
C1007 C1009 1.390 . S
C1007 H1011 0.950 . S
H1008 C1004 0.950 . S
C1009 C1007 1.390 . S
C1009 C1010 1.387 . S
C1009 H1012 0.950 . S
C1010 C1009 1.387 . S
C1010 C1013 1.387 . S
H1011 C1007 0.950 . S
H1012 C1009 0.950 . S
C1013 C1004 1.390 . S
C1013 H1006 0.950 . S
C1013 C1010 1.387 . S
C1014 C1015 1.387 . S
C1014 H1018 0.950 . S
C1014 C1023 1.390 . S
C1015 C1014 1.387 . S
C1015 C1017 1.387 . S
H1016 C1023 0.950 . S
C1017 C1015 1.387 . S
C1017 C1019 1.390 . S
C1017 H1021 0.950 . S
H1018 C1014 0.950 . S
C1019 C1017 1.390 . S
C1019 C1020 1.387 . S
C1019 H1022 0.950 . S
C1020 C1019 1.387 . S
C1020 C1023 1.387 . S
H1021 C1017 0.950 . S
H1022 C1019 0.950 . S
C1023 C1014 1.390 . S
C1023 H1016 0.950 . S
C1023 C1020 1.387 . S
C1024 C1025 1.387 . S
C1024 H1028 0.950 . S
C1024 C1033 1.390 . S
C1025 C1024 1.387 . S
C1025 C1027 1.387 . S
H1026 C1033 0.950 . S
C1027 C1025 1.387 . S
C1027 C1029 1.390 . S
C1027 H1031 0.950 . S
H1028 C1024 0.950 . S
C1029 C1027 1.390 . S
C1029 C1030 1.387 . S
C1029 H1032 0.950 . S
C1030 C1029 1.387 . S
C1030 C1033 1.387 . S
H1031 C1027 0.950 . S
H1032 C1029 0.950 . S
C1033 C1024 1.390 . S
C1033 H1026 0.950 . S
C1033 C1030 1.387 . S
C1034 C1035 1.387 . S
C1034 H1038 0.950 . S
C1034 C1043 1.390 . S
C1035 C1034 1.387 . S
C1035 C1037 1.387 . S
H1036 C1043 0.950 . S
C1037 C1035 1.387 . S
C1037 C1039 1.390 . S
C1037 H1041 0.950 . S
H1038 C1034 0.950 . S
C1039 C1037 1.390 . S
C1039 C1040 1.387 . S
C1039 H1042 0.950 . S
C1040 C1039 1.387 . S
C1040 C1043 1.387 . S
H1041 C1037 0.950 . S
H1042 C1039 0.950 . S
C1043 C1034 1.390 . S
C1043 H1036 0.950 . S
C1043 C1040 1.387 . S
C595 C116 1.539 . S
C600 C17 1.539 . S
C605 C149 1.539 . S
C610 C50 1.539 . S
C615 C182 1.540 . S
C620 C83 1.539 . S
C625 C61 1.519 . S
C630 C193 1.519 . S
C635 C127 1.519 . S
C640 C94 1.519 . S
C645 C160 1.519 . S
C650 C28 1.519 . S
C655 C314 1.539 . S
C660 C215 1.539 . S
C665 C248 1.540 . S
C670 C347 1.540 . S
C675 C281 1.539 . S
C680 C380 1.539 . S
C685 C259 1.519 . S
C690 C391 1.519 . S
C695 C292 1.519 . S
C700 C325 1.519 . S
C705 C358 1.519 . S
C710 C226 1.519 . S
C715 C413 1.539 . S
C720 C512 1.539 . S
C725 C545 1.540 . S
C730 C446 1.540 . S
C735 C479 1.539 . S
C740 C578 1.539 . S
C745 C457 1.519 . S
C750 C589 1.519 . S
C755 C523 1.519 . S
C760 C490 1.519 . S
C765 C424 1.519 . S
C770 C556 1.519 . S
C775 C8 1.468 . S
C780 C569 1.468 . S
C785 C503 1.468 . S
C790 C41 1.468 . S
C795 C536 1.468 . S
C800 C74 1.468 . S
C805 C239 1.468 . S
C810 C107 1.468 . S
C815 C272 1.468 . S
C820 C140 1.468 . S
C825 C206 1.469 . S
C830 C173 1.469 . S
C835 C437 1.468 . S
C840 C305 1.468 . S
C845 C470 1.468 . S
C850 C338 1.468 . S
C855 C371 1.468 . S
C860 C404 1.468 . S
C865 N5 1.455 . S
C870 N14 1.451 . S
C875 N38 1.454 . S
C880 N47 1.452 . S
C885 N71 1.453 . S
C890 N80 1.450 . S
C895 N113 1.452 . S
C900 N104 1.454 . S
C905 N146 1.452 . S
C910 N137 1.454 . S
C915 N170 1.455 . S
C920 N179 1.451 . S
C925 N203 1.454 . S
C930 N212 1.451 . S
C935 N245 1.451 . S
C940 N236 1.454 . S
C945 N278 1.450 . S
C950 N269 1.454 . S
C955 N302 1.453 . S
C960 N311 1.450 . S
C965 N335 1.454 . S
C970 N344 1.451 . S
C975 N368 1.455 . S
C980 N377 1.451 . S
C985 N401 1.454 . S
C990 N410 1.451 . S
C995 N434 1.454 . S
C1000 N443 1.451 . S
C1005 N476 1.450 . S
C1010 N467 1.454 . S
C1015 N500 1.455 . S
C1020 N509 1.452 . S
C1025 N542 1.452 . S
C1030 N533 1.455 . S
C1035 N575 1.452 . S
C1040 N566 1.455 . S
