# Generated by pormake.
# Topology umf, (4)-cn, num edge types: 1
# Building blocks:
#     Node 0, Type 0, BuildingBlock: GALJAG_clean_sbu_0, # of connection points: 4
#     Node 1, Type 0, BuildingBlock: GALJAG_clean_sbu_0, # of connection points: 4
#     Node 2, Type 0, BuildingBlock: GALJAG_clean_sbu_0, # of connection points: 4
#     Node 3, Type 0, BuildingBlock: GALJAG_clean_sbu_0, # of connection points: 4
#     Node 4, Type 0, BuildingBlock: GALJAG_clean_sbu_0, # of connection points: 4
#     Node 5, Type 0, BuildingBlock: GALJAG_clean_sbu_0, # of connection points: 4
#     Node 6, Type 0, BuildingBlock: GALJAG_clean_sbu_0, # of connection points: 4
#     Node 7, Type 0, BuildingBlock: GALJAG_clean_sbu_0, # of connection points: 4
#     Edge 8, Type (0, 0), BuildingBlock: XUDNAN_clean_linker_2, # of connection points: 2
#     Edge 9, Type (0, 0), BuildingBlock: XUDNAN_clean_linker_2, # of connection points: 2
#     Edge 10, Type (0, 0), BuildingBlock: XUDNAN_clean_linker_2, # of connection points: 2
#     Edge 11, Type (0, 0), BuildingBlock: XUDNAN_clean_linker_2, # of connection points: 2
#     Edge 12, Type (0, 0), BuildingBlock: XUDNAN_clean_linker_2, # of connection points: 2
#     Edge 13, Type (0, 0), BuildingBlock: XUDNAN_clean_linker_2, # of connection points: 2
#     Edge 14, Type (0, 0), BuildingBlock: XUDNAN_clean_linker_2, # of connection points: 2
#     Edge 15, Type (0, 0), BuildingBlock: XUDNAN_clean_linker_2, # of connection points: 2
#     Edge 16, Type (0, 0), BuildingBlock: XUDNAN_clean_linker_2, # of connection points: 2
#     Edge 17, Type (0, 0), BuildingBlock: XUDNAN_clean_linker_2, # of connection points: 2
#     Edge 18, Type (0, 0), BuildingBlock: XUDNAN_clean_linker_2, # of connection points: 2
#     Edge 19, Type (0, 0), BuildingBlock: XUDNAN_clean_linker_2, # of connection points: 2
#     Edge 20, Type (0, 0), BuildingBlock: XUDNAN_clean_linker_2, # of connection points: 2
#     Edge 21, Type (0, 0), BuildingBlock: XUDNAN_clean_linker_2, # of connection points: 2
#     Edge 22, Type (0, 0), BuildingBlock: XUDNAN_clean_linker_2, # of connection points: 2
#     Edge 23, Type (0, 0), BuildingBlock: XUDNAN_clean_linker_2, # of connection points: 2
# Relax obj value: 0.108
# Max RMSD: 0.235
# Mean RMSD: 0.235
data_MOF--net-umf--node1-GALJAG_clean_sbu_0--edge1-XUDNAN_clean_linker_2
_symmetry_space_group_name_H-M    P1
_symmetry_Int_Tables_number       1
_symmetry_cell_setting            triclinic
loop_
_symmetry_equiv_pos_as_xyz
'x, y, z'
_cell_length_a     28.336242
_cell_length_b     28.520444
_cell_length_c     52.88005
_cell_angle_alpha  90.129133
_cell_angle_beta   90.038186
_cell_angle_gamma 90.199871
loop_
_atom_site_label
_atom_site_type_symbol
_atom_site_fract_x
_atom_site_fract_y
_atom_site_fract_z
_atom_type_partial_charge
In0 In 0.05265 0.25631 0.14477 0.0
O1 O 0.07672 0.24546 0.10365 0.0
O2 O 0.00281 0.24666 0.11236 0.0
C3 C 0.1122 0.26192 0.18369 0.0
C4 C 0.03714 0.34812 0.14403 0.0
C5 C 0.02637 0.17104 0.15918 0.0
O6 O 0.12643 0.24955 0.16182 0.0
O7 O 0.06883 0.27215 0.18538 0.0
O8 O -0.00213 0.20534 0.16074 0.0
O9 O 0.06674 0.18027 0.15024 0.0
C10 C 0.0344 0.24264 0.09561 0.0
O11 O 0.0062 0.31968 0.15243 0.0
O12 O 0.07499 0.32976 0.13599 0.0
In13 In 0.7621 0.0007 0.66315 0.0
O14 O 0.75863 0.01364 0.62007 0.0
O15 O 0.76995 0.94413 0.63355 0.0
C16 C 0.76977 0.07923 0.69101 0.0
C17 C 0.67298 0.97421 0.67292 0.0
C18 C 0.85017 0.98136 0.67812 0.0
O19 O 0.77213 0.08038 0.667 0.0
O20 O 0.75973 0.03955 0.7002 0.0
O21 O 0.81526 0.95856 0.68692 0.0
O22 O 0.8402 0.01046 0.66098 0.0
C23 C 0.76473 0.97066 0.61466 0.0
O24 O 0.70798 0.94902 0.67903 0.0
O25 O 0.68329 0.01277 0.66248 0.0
In26 In 0.89502 0.76114 0.13466 0.0
O27 O 0.85547 0.75803 0.09619 0.0
O28 O 0.92857 0.77487 0.09667 0.0
C29 C 0.8328 0.75687 0.17329 0.0
C30 C 0.93697 0.67699 0.13776 0.0
C31 C 0.92988 0.8453 0.14825 0.0
O32 O 0.81963 0.76625 0.15093 0.0
O33 O 0.87617 0.74821 0.17554 0.0
O34 O 0.95265 0.80767 0.15118 0.0
O35 O 0.88982 0.84049 0.13807 0.0
C36 C 0.8921 0.76805 0.08351 0.0
O37 O 0.95911 0.71513 0.1408 0.0
O38 O 0.89342 0.68124 0.13315 0.0
In39 In 0.23703 0.94201 0.65334 0.0
O40 O 0.30656 0.97036 0.66929 0.0
O41 O 0.30659 0.90178 0.6534 0.0
C42 C 0.18329 0.98548 0.68818 0.0
C43 C 0.23831 0.97934 0.60625 0.0
C44 C 0.17866 0.86822 0.6605 0.0
O45 O 0.21163 0.95323 0.69395 0.0
O46 O 0.18759 1e-05 0.66578 0.0
O47 O 0.16711 0.90324 0.64734 0.0
O48 O 0.22161 0.86776 0.66695 0.0
C49 C 0.33004 0.93415 0.66387 0.0
O50 O 0.23307 0.93577 0.60988 0.0
O51 O 0.24297 0.00327 0.62618 0.0
In52 In 0.03964 0.76035 0.86262 0.0
O53 O 0.03255 0.77322 0.90454 0.0
O54 O 0.9685 0.76545 0.88358 0.0
C55 C 0.03635 0.7567 0.81184 0.0
C56 C 0.06031 0.67047 0.86948 0.0
C57 C 0.08158 0.84353 0.8597 0.0
O58 O 0.07191 0.74526 0.82481 0.0
O59 O 0.0001 0.76797 0.82466 0.0
O60 O 0.03903 0.83628 0.85364 0.0
O61 O 0.10334 0.80872 0.86899 0.0
C62 C 0.98796 0.77165 0.905 0.0
O63 O 0.01911 0.68482 0.8646 0.0
O64 O 0.0919 0.70198 0.87122 0.0
In65 In 0.23069 0.06849 0.3753 0.0
O66 O 0.23743 0.10533 0.41405 0.0
O67 O 0.22181 0.03236 0.41304 0.0
C68 C 0.23127 0.13487 0.33895 0.0
C69 C 0.31466 0.02646 0.37 0.0
C70 C 0.14477 0.03408 0.36423 0.0
O71 O 0.22422 0.14501 0.36198 0.0
O72 O 0.2396 0.09216 0.33478 0.0
O73 O 0.18235 0.01289 0.35847 0.0
O74 O 0.15059 0.07247 0.37577 0.0
C75 C 0.2297 0.06809 0.42645 0.0
O76 O 0.27601 0.00539 0.3662 0.0
O77 O 0.311 0.06922 0.37597 0.0
In78 In 0.01542 0.2394 0.86023 0.0
O79 O 0.96857 0.23152 0.89564 0.0
O80 O 0.04273 0.22672 0.90007 0.0
C81 C 0.95032 0.23309 0.82285 0.0
C82 C 0.04068 0.33005 0.85942 0.0
C83 C 0.07066 0.16666 0.84742 0.0
O84 O 0.98893 0.25489 0.82033 0.0
O85 O 0.94386 0.21546 0.84452 0.0
O86 O 0.08798 0.20492 0.85511 0.0
O87 O 0.0263 0.16561 0.8461 0.0
C88 C 0.00296 0.22646 0.91061 0.0
O89 O 0.06727 0.29825 0.85092 0.0
O90 O 0.0012 0.31607 0.86751 0.0
In91 In 0.73336 0.89807 0.38196 0.0
O92 O 0.74254 0.85934 0.41968 0.0
O93 O 0.7413 0.93431 0.41974 0.0
C94 C 0.72618 0.84794 0.33924 0.0
C95 C 0.64176 0.91782 0.38156 0.0
C96 C 0.81865 0.92863 0.36877 0.0
O97 O 0.73909 0.82887 0.35986 0.0
O98 O 0.71661 0.89115 0.34061 0.0
O99 O 0.7842 0.9569 0.37049 0.0
O100 O 0.80977 0.88648 0.37435 0.0
C101 C 0.74459 0.89707 0.43252 0.0
O102 O 0.67256 0.94906 0.37667 0.0
O103 O 0.65773 0.87776 0.38721 0.0
H104 H 0.95405 0.39758 0.14687 0.0
H105 H 0.1059 0.41424 0.14053 0.0
H106 H 0.09665 0.50012 0.13944 0.0
H107 H 0.92499 0.48991 0.10377 0.0
H108 H 0.87384 0.50909 0.12114 0.0
H109 H 0.89226 0.44881 0.12285 0.0
H110 H 0.89678 0.45485 0.1717 0.0
H111 H 0.8783 0.51516 0.17014 0.0
H112 H 0.93248 0.50014 0.18601 0.0
H113 H 0.07157 0.58364 0.13912 0.0
H114 H 0.03152 0.66029 0.13733 0.0
H115 H 0.89557 0.59017 0.14168 0.0
C116 C 0.98528 0.41942 0.14547 0.0
C117 C 0.0307 0.3994 0.14391 0.0
C118 C 0.07076 0.42894 0.14172 0.0
C119 C 0.06591 0.47773 0.14116 0.0
C120 C 0.02071 0.49643 0.14256 0.0
C121 C 0.98102 0.46833 0.1445 0.0
C122 C 0.93644 0.49756 0.14461 0.0
C123 C 0.90504 0.48563 0.12173 0.0
C124 C 0.90942 0.49156 0.16961 0.0
C125 C 0.95738 0.54636 0.14239 0.0
C126 C 0.00607 0.54484 0.1415 0.0
C127 C 0.03344 0.58535 0.13974 0.0
C128 C 0.01041 0.62868 0.13876 0.0
C129 C 0.96053 0.63106 0.13926 0.0
C130 C 0.93376 0.58931 0.14111 0.0
H131 H 0.39386 0.00581 0.66799 0.0
H132 H 0.38188 0.85426 0.66946 0.0
H133 H 0.46827 0.84807 0.67564 0.0
H134 H 0.49825 0.0084 0.63144 0.0
H135 H 0.52302 0.05894 0.64717 0.0
H136 H 0.46001 0.05141 0.64567 0.0
H137 H 0.45519 0.05727 0.69452 0.0
H138 H 0.51829 0.06474 0.69617 0.0
H139 H 0.49009 0.01831 0.71368 0.0
H140 H 0.55656 0.85871 0.68071 0.0
H141 H 0.64 0.88484 0.68005 0.0
H142 H 0.59415 0.02902 0.67227 0.0
C143 C 0.40939 0.97138 0.67006 0.0
C144 C 0.38129 0.93049 0.6686 0.0
C145 C 0.40289 0.88599 0.67068 0.0
C146 C 0.45184 0.88216 0.67429 0.0
C147 C 0.47869 0.92318 0.67546 0.0
C148 C 0.45825 0.96693 0.67314 0.0
C149 C 0.49528 0.00535 0.67288 0.0
C150 C 0.49406 0.03261 0.6478 0.0
C151 C 0.48935 0.03836 0.69567 0.0
C152 C 0.53977 0.97642 0.67519 0.0
C153 C 0.52948 0.92916 0.67712 0.0
C154 C 0.565 0.89563 0.67924 0.0
C155 C 0.61225 0.91077 0.67894 0.0
C156 C 0.62344 0.95887 0.67608 0.0
C157 C 0.58661 0.992 0.67446 0.0
H158 H 0.98495 0.40391 0.87162 0.0
H159 H 0.12824 0.36797 0.85045 0.0
H160 H 0.15147 0.45155 0.85431 0.0
H161 H 0.97924 0.50955 0.83708 0.0
H162 H 0.94391 0.53944 0.86038 0.0
H163 H 0.94021 0.47671 0.85737 0.0
H164 H 0.9608 0.46809 0.90495 0.0
H165 H 0.96504 0.53089 0.90803 0.0
H166 H 0.01411 0.49453 0.91708 0.0
H167 H 0.15795 0.54011 0.85992 0.0
H168 H 0.14522 0.626 0.86284 0.0
H169 H -0.00273 0.60153 0.87926 0.0
C170 C 0.0213 0.41352 0.8679 0.0
C171 C 0.05488 0.37966 0.86081 0.0
C172 C 0.10199 0.39359 0.85588 0.0
C173 C 0.11553 0.44083 0.85818 0.0
C174 C 0.08146 0.47339 0.86539 0.0
C175 C 0.03523 0.46025 0.86996 0.0
C176 C 0.00461 0.50192 0.87609 0.0
C177 C 0.96466 0.50721 0.85656 0.0
C178 C 0.985 0.49864 0.90315 0.0
C179 C 0.04057 0.54081 0.87383 0.0
C180 C 0.08491 0.52383 0.86806 0.0
C181 C 0.12341 0.55375 0.86453 0.0
C182 C 0.11597 0.60234 0.86633 0.0
C183 C 0.0703 0.62007 0.87122 0.0
C184 C 0.03256 0.58882 0.87548 0.0
H185 H 0.40318 0.06549 0.37221 0.0
H186 H 0.32918 0.93236 0.36628 0.0
H187 H 0.40518 0.89059 0.3681 0.0
H188 H 0.50443 0.03132 0.33346 0.0
H189 H 0.54598 0.06395 0.35247 0.0
H190 H 0.48579 0.08355 0.34986 0.0
H191 H 0.47812 0.08237 0.39869 0.0
H192 H 0.53812 0.06243 0.40145 0.0
H193 H 0.49094 0.02913 0.41564 0.0
H194 H 0.48765 0.86319 0.37351 0.0
H195 H 0.57318 0.8514 0.37863 0.0
H196 H 0.59499 0.00217 0.37921 0.0
C197 C 0.40308 0.02757 0.37106 0.0
C198 C 0.36039 0.00207 0.36914 0.0
C199 C 0.36154 0.95253 0.36767 0.0
C200 C 0.40448 0.92851 0.36875 0.0
C201 C 0.44588 0.95461 0.37103 0.0
C202 C 0.44571 0.00302 0.37183 0.0
C203 C 0.49534 0.02249 0.37437 0.0
C204 C 0.50866 0.05207 0.35115 0.0
C205 C 0.50094 0.05077 0.399 0.0
C206 C 0.52332 0.97737 0.37527 0.0
C207 C 0.49395 0.9387 0.37342 0.0
C208 C 0.5111 0.89314 0.37472 0.0
C209 C 0.55969 0.88685 0.37776 0.0
C210 C 0.59061 0.92589 0.37925 0.0
C211 C 0.57214 0.97173 0.37795 0.0
H212 H 0.07359 0.2261 0.94591 0.0
H213 H 0.92116 0.22136 0.93817 0.0
H214 H 0.91329 0.22131 0.98477 0.0
H215 H 0.08192 0.15201 1.00205 0.0
H216 H 0.1292 0.18615 0.01569 0.0
H217 H 0.12284 0.18265 0.98182 0.0
H218 H 0.11986 0.2733 0.97935 0.0
H219 H 0.12603 0.27711 0.01317 0.0
H220 H 0.07665 0.30465 0.99775 0.0
H221 H 0.92198 0.22529 0.03187 0.0
H222 H 0.94584 0.23359 0.0764 0.0
H223 H 0.09314 0.23699 0.05386 0.0
C224 C 0.03853 0.22442 0.954 0.0
C225 C -0.0021 0.22345 0.93842 0.0
C226 C 0.9527 0.2219 0.94974 0.0
C227 C 0.94793 0.22184 0.97618 0.0
C228 C 0.98872 0.22337 0.99097 0.0
C229 C 0.03316 0.22457 0.98032 0.0
C230 C 0.07122 0.22808 1.00046 0.0
C231 C 0.10317 0.18463 0.99997 0.0
C232 C 0.10013 0.27349 0.9975 0.0
C233 C 0.04122 0.22927 0.02416 0.0
C234 C 0.99375 0.22618 0.0182 0.0
C235 C 0.95901 0.2275 0.03675 0.0
C236 C 0.97303 0.23229 0.06202 0.0
C237 C 0.02142 0.23593 0.06867 0.0
C238 C 0.05594 0.23411 0.04941 0.0
H239 H 0.75367 0.01832 0.56942 0.0
H240 H 0.77544 0.87943 0.60064 0.0
H241 H 0.77347 0.84564 0.55776 0.0
H242 H 0.67319 0.98333 0.52033 0.0
H243 H 0.69616 0.02382 0.49725 0.0
H244 H 0.70012 0.03759 0.53044 0.0
H245 H 0.79062 0.04824 0.52627 0.0
H246 H 0.7869 0.03458 0.49305 0.0
H247 H 0.82555 0.00133 0.51324 0.0
H248 H 0.76717 0.82608 0.51142 0.0
H249 H 0.75872 0.82311 0.46482 0.0
H250 H 0.74215 0.9743 0.46343 0.0
C251 C 0.75823 0.98086 0.5672 0.0
C252 C 0.76473 0.9516 0.58847 0.0
C253 C 0.77045 0.90268 0.58471 0.0
C254 C 0.76936 0.88305 0.56038 0.0
C255 C 0.76266 0.9127 0.53983 0.0
C256 C 0.75736 0.96058 0.54293 0.0
C257 C 0.75042 0.98444 0.51758 0.0
C258 C 0.7021 0.00872 0.51634 0.0
C259 C 0.79078 0.0192 0.51223 0.0
C260 C 0.75242 0.94251 0.49988 0.0
C261 C 0.75946 0.90143 0.51309 0.0
C262 C 0.76184 0.85807 0.50084 0.0
C263 C 0.75695 0.85667 0.47439 0.0
C264 C 0.74991 0.89837 0.46045 0.0
C265 C 0.74771 0.94176 0.4735 0.0
H266 H 0.9689 0.78766 0.05458 0.0
H267 H 0.82014 0.75298 0.04893 0.0
H268 H 0.82647 0.75405 1.00206 0.0
H269 H 0.9748 0.8655 1.00063 0.0
H270 H 0.0328 0.84572 0.99168 0.0
H271 H 0.01515 0.84454 0.02439 0.0
H272 H 0.03456 0.75586 0.02652 0.0
H273 H 0.05227 0.75677 0.99386 0.0
H274 H 0.00739 0.7162 1.00421 0.0
H275 H 0.85161 0.75627 0.95493 0.0
H276 H 0.89268 0.75771 0.91345 0.0
H277 H 0.02426 0.79036 0.95164 0.0
C278 C 0.93739 0.78068 0.04357 0.0
C279 C 0.89392 0.77038 0.05545 0.0
C280 C 0.85376 0.76113 0.04025 0.0
C281 C 0.85708 0.7617 0.01362 0.0
C282 C 0.90078 0.77167 1.00254 0.0
C283 C 0.94013 0.78103 0.01719 0.0
C284 C 0.9835 0.78909 1.0011 0.0
C285 C 0.00267 0.83919 1.00466 0.0
C286 C 0.02166 0.75228 1.00676 0.0
C287 C 0.96279 0.78236 0.97499 0.0
C288 C 0.915 0.77263 0.97602 0.0
C289 C 0.88896 0.76411 0.95401 0.0
C290 C 0.91252 0.76509 0.93052 0.0
C291 C 0.96165 0.77426 0.92926 0.0
C292 C 0.98666 0.78341 0.95187 0.0
H293 H 0.21778 0.98992 0.45552 0.0
H294 H 0.24568 0.13935 0.46057 0.0
H295 H 0.25049 0.13286 0.50723 0.0
H296 H 0.14566 0.98078 0.51154 0.0
H297 H 0.16878 0.92428 0.52026 0.0
H298 H 0.16666 0.94114 0.48748 0.0
H299 H 0.25639 0.92569 0.48341 0.0
H300 H 0.25884 0.90892 0.51619 0.0
H301 H 0.29678 0.95495 0.50461 0.0
H302 H 0.25306 0.10946 0.55332 0.0
H303 H 0.25301 0.07161 0.59523 0.0
H304 H 0.2242 0.93703 0.55989 0.0
C305 C 0.22467 0.0214 0.46642 0.0
C306 C 0.23123 0.06525 0.45442 0.0
C307 C 0.24041 0.10548 0.46937 0.0
C308 C 0.24324 0.10208 0.49586 0.0
C309 C 0.23685 0.0582 0.50705 0.0
C310 C 0.22771 0.0186 0.49278 0.0
C311 C 0.22276 0.97549 0.50932 0.0
C312 C 0.173 0.95418 0.50701 0.0
C313 C 0.26098 0.93913 0.503 0.0
C314 C 0.23066 -0.00308 0.53521 0.0
C315 C 0.23864 0.04469 0.53348 0.0
C316 C 0.24682 0.07211 0.55486 0.0
C317 C 0.24674 0.05024 0.57861 0.0
C318 C 0.23864 0.00134 0.58086 0.0
C319 C 0.23058 0.97444 0.55879 0.0
H320 H 0.17608 0.19451 0.19617 0.0
H321 H 0.1108 0.32188 0.22357 0.0
H322 H 0.14686 0.30964 0.26559 0.0
H323 H 0.14991 0.1301 0.24812 0.0
H324 H 0.20289 0.09531 0.24864 0.0
H325 H 0.18233 0.11963 0.21934 0.0
H326 H 0.26299 0.16091 0.21272 0.0
H327 H 0.28403 0.13632 0.24201 0.0
H328 H 0.28618 0.19882 0.2371 0.0
H329 H 0.17884 0.27733 0.30606 0.0
H330 H 0.20187 0.22636 0.34176 0.0
H331 H 0.24371 0.11827 0.28856 0.0
C332 C 0.17141 0.22088 0.21072 0.0
C333 C 0.1418 0.25976 0.20659 0.0
C334 C 0.13419 0.29236 0.22635 0.0
C335 C 0.15457 0.2857 0.25025 0.0
C336 C 0.18217 0.246 0.25413 0.0
C337 C 0.19075 0.21415 0.23487 0.0
C338 C 0.21545 0.17094 0.24488 0.0
C339 C 0.18587 0.1264 0.23996 0.0
C340 C 0.26512 0.16651 0.2335 0.0
C341 C 0.21775 0.18265 0.27283 0.0
C342 C 0.19933 0.22652 0.27773 0.0
C343 C 0.19421 0.2433 0.3024 0.0
C344 C 0.20735 0.21413 0.32258 0.0
C345 C 0.22484 0.16851 0.31795 0.0
C346 C 0.23107 0.15324 0.29271 0.0
H347 H 0.87791 0.16943 0.81985 0.0
H348 H 0.95066 0.27678 0.77682 0.0
H349 H 0.90263 0.25675 0.73924 0.0
H350 H 0.87757 0.08623 0.77232 0.0
H351 H 0.82054 0.06176 0.77978 0.0
H352 H 0.85489 0.08975 0.80411 0.0
H353 H 0.78525 0.14576 0.81377 0.0
H354 H 0.75067 0.11791 0.78933 0.0
H355 H 0.76034 0.18039 0.78863 0.0
H356 H 0.85339 0.21835 0.70493 0.0
H357 H 0.8103 0.16306 0.67701 0.0
H358 H 0.77018 0.08094 0.74254 0.0
C359 C 0.88274 0.18965 0.80273 0.0
C360 C 0.91764 0.22504 0.80134 0.0
C361 C 0.92385 0.24978 0.77837 0.0
C362 C 0.89661 0.23874 0.75694 0.0
C363 C 0.86318 0.20289 0.75875 0.0
C364 C 0.85612 0.17879 0.78112 0.0
C365 C 0.82174 0.13857 0.77749 0.0
C366 C 0.8451 0.09131 0.78378 0.0
C367 C 0.77683 0.14613 0.79324 0.0
C368 C 0.81159 0.14288 0.74946 0.0
C369 C 0.83519 0.1806 0.739 0.0
C370 C 0.83406 0.18923 0.71301 0.0
C371 C 0.80933 0.15775 0.69727 0.0
C372 C 0.78643 0.11795 0.70757 0.0
C373 C 0.78659 0.11146 0.73409 0.0
H374 H 0.79194 0.78709 0.32054 0.0
H375 H 0.66195 0.85835 0.30172 0.0
H376 H 0.6688 0.83126 0.25746 0.0
H377 H 0.85115 0.82231 0.26771 0.0
H378 H 0.88482 0.76949 0.26306 0.0
H379 H 0.86448 0.78484 0.29416 0.0
H380 H 0.82216 0.70448 0.29799 0.0
H381 H 0.84269 0.68869 0.26686 0.0
H382 H 0.78053 0.68663 0.27401 0.0
H383 H 0.69553 0.80656 0.21422 0.0
H384 H 0.7414 0.78865 0.17558 0.0
H385 H 0.85561 0.73613 0.22213 0.0
C386 C 0.76393 0.79504 0.30729 0.0
C387 C 0.72578 0.82371 0.31455 0.0
C388 C 0.69096 0.83564 0.29651 0.0
C389 C 0.69455 0.82037 0.27136 0.0
C390 C 0.73347 0.79349 0.26446 0.0
C391 C 0.76755 0.78081 0.28193 0.0
C392 C 0.8091 0.75756 0.26901 0.0
C393 C 0.85507 0.78522 0.27377 0.0
C394 C 0.81388 0.70629 0.27747 0.0
C395 C 0.79382 0.76062 0.24157 0.0
C396 C 0.74968 0.78057 0.23935 0.0
C397 C 0.72976 0.79011 0.21574 0.0
C398 C 0.75603 0.77982 0.19388 0.0
C399 C 0.80191 0.76075 0.19581 0.0
C400 C 0.82037 0.75016 0.22 0.0
H401 H 0.19485 0.79517 0.69246 0.0
H402 H 0.08272 0.88036 0.66129 0.0
H403 H 0.02787 0.84973 0.69355 0.0
H404 H 0.11836 0.69351 0.7147 0.0
H405 H 0.15399 0.6872 0.74273 0.0
H406 H 0.18054 0.70696 0.71365 0.0
H407 H 0.21231 0.78079 0.7368 0.0
H408 H 0.18544 0.76181 0.76576 0.0
H409 H 0.17149 0.8187 0.75306 0.0
H410 H 0.99034 0.82256 0.73465 0.0
H411 H 0.97396 0.79917 0.77895 0.0
H412 H 0.11042 0.73124 0.78247 0.0
C413 C 0.15817 0.80557 0.69161 0.0
C414 C 0.14301 0.83959 0.67408 0.0
C415 C 0.095 0.85351 0.67414 0.0
C416 C 0.06355 0.83643 0.69254 0.0
C417 C 0.0804 0.80488 0.71051 0.0
C418 C 0.12647 0.78892 0.70983 0.0
C419 C 0.13791 0.75993 0.73295 0.0
C420 C 0.1483 0.70886 0.72556 0.0
C421 C 0.17919 0.78163 0.74802 0.0
C422 C 0.0919 0.76369 0.7473 0.0
C423 C 0.05879 0.78921 0.73403 0.0
C424 C 0.01555 0.80142 0.7449 0.0
C425 C 0.00644 0.78794 0.77006 0.0
C426 C 0.04062 0.76289 0.78408 0.0
C427 C 0.08316 0.74963 0.77215 0.0
H428 H 0.94322 0.12419 0.15089 0.0
H429 H 0.08397 0.10883 0.18183 0.0
H430 H 0.0706 0.02387 0.187 0.0
H431 H 0.88488 0.02819 0.18897 0.0
H432 H 0.8494 0.0099 0.1624 0.0
H433 H 0.86628 0.0706 0.16582 0.0
H434 H 0.90281 0.06886 0.12093 0.0
H435 H 0.88668 0.00815 0.11748 0.0
H436 H 0.94734 0.02593 0.11358 0.0
H437 H 0.04696 0.94047 0.18338 0.0
H438 H 0.01372 0.86323 0.17185 0.0
H439 H 0.88888 0.93139 0.14198 0.0
C440 C 0.97031 0.10305 0.15969 0.0
C441 C 0.01428 0.12277 0.16637 0.0
C442 C 0.04988 0.0941 0.17685 0.0
C443 C 0.04258 0.04593 0.1799 0.0
C444 C -0.00046 0.02699 0.17224 0.0
C445 C 0.96381 0.05457 0.16248 0.0
C446 C 0.92318 0.02461 0.153 0.0
C447 C 0.87828 0.03388 0.16848 0.0
C448 C 0.91453 0.03236 0.12456 0.0
C449 C 0.94246 0.97604 0.15812 0.0
C450 C 0.98621 0.97829 0.16959 0.0
C451 C 0.01238 0.93816 0.17478 0.0
C452 C 0.99332 0.8945 0.16804 0.0
C453 C 0.94874 0.89138 0.15608 0.0
C454 C 0.92288 0.93272 0.15129 0.0
H455 H 0.11783 0.05266 0.67994 0.0
H456 H 0.14515 0.92845 0.72453 0.0
H457 H 0.0599 0.9195 0.73251 0.0
H458 H 0.00565 0.09229 0.71534 0.0
H459 H 0.98004 0.11053 0.68576 0.0
H460 H 0.04285 0.11542 0.69066 0.0
H461 H 0.0564 0.06687 0.64988 0.0
H462 H 0.99406 0.06016 0.64524 0.0
H463 H 0.03099 0.00898 0.64734 0.0
H464 H 0.97101 0.91298 0.72635 0.0
H465 H 0.88836 0.91541 0.71057 0.0
H466 H 0.92146 0.04195 0.66879 0.0
C467 C 0.10608 0.02526 0.69264 0.0
C468 C 0.13808 0.99155 0.7017 0.0
C469 C 0.12138 0.95529 0.71772 0.0
C470 C 0.07281 0.94964 0.72217 0.0
C471 C 0.04165 0.98105 0.71087 0.0
C472 C 0.05786 0.01903 0.69702 0.0
C473 C 0.01787 0.04382 0.68375 0.0
C474 C 0.0112 0.09345 0.69453 0.0
C475 C 0.02531 0.04496 0.65486 0.0
C476 C 0.97717 0.01223 0.69085 0.0
C477 C 0.99101 0.97673 0.70693 0.0
C478 C 0.95962 0.94132 0.71425 0.0
C479 C 0.91293 0.94268 0.70505 0.0
C480 C 0.89866 0.97864 0.68833 0.0
C481 C 0.93128 0.01386 0.68148 0.0
H482 H 0.05161 0.09752 0.81436 0.0
H483 H 0.14913 0.13891 0.87331 0.0
H484 H 0.17823 0.05741 0.87597 0.0
H485 H 0.01178 0.00482 0.84048 0.0
H486 H 0.00593 0.96719 0.8132 0.0
H487 H 0.0051 0.02945 0.80929 0.0
H488 H 0.07465 0.02481 0.77769 0.0
H489 H 0.07543 0.96195 0.7812 0.0
H490 H 0.12839 -0.00439 0.7867 0.0
H491 H 0.17902 0.97001 0.88085 0.0
H492 H 0.15418 0.88692 0.88559 0.0
H493 H 0.05677 0.90346 0.82316 0.0
C494 C 0.08091 0.08969 0.8268 0.0
C495 C 0.09843 0.12396 0.84352 0.0
C496 C 0.13595 0.11298 0.86006 0.0
C497 C 0.15261 0.06676 0.86168 0.0
C498 C 0.13211 0.03264 0.84614 0.0
C499 C 0.09794 0.04399 0.82841 0.0
C500 C 0.07563 0.00066 0.81698 0.0
C501 C 0.02147 0.00056 0.82023 0.0
C502 C 0.08938 -0.00453 0.78899 0.0
C503 C 0.09885 0.96342 0.8329 0.0
C504 C 0.13256 0.98204 0.84901 0.0
C505 C 0.15386 0.9548 0.86776 0.0
C506 C 0.13949 0.9078 0.87045 0.0
C507 C 0.10349 0.88936 0.85482 0.0
C508 C 0.08444 0.917 0.83532 0.0
H509 H 0.86589 0.01102 0.37847 0.0
H510 H 0.8789 0.8757 0.34163 0.0
H511 H 0.96244 0.89238 0.33217 0.0
H512 H 0.95141 0.07635 0.33713 0.0
H513 H 0.97465 0.10932 0.36349 0.0
H514 H 0.91383 0.09053 0.36354 0.0
H515 H 0.92702 0.04929 0.40658 0.0
H516 H 0.98783 0.06756 0.40656 0.0
H517 H 0.97317 0.00626 0.40945 0.0
H518 H 0.04558 0.91871 0.33109 0.0
H519 H 0.12422 0.95344 0.33861 0.0
H520 H 0.05901 0.07107 0.37719 0.0
C521 C 0.88612 0.98574 0.36771 0.0
C522 C 0.8662 0.94235 0.36052 0.0
C523 C 0.89378 0.90924 0.34719 0.0
C524 C 0.94111 0.91845 0.34164 0.0
C525 C 0.96035 0.96089 0.34966 0.0
C526 C 0.93384 -0.00586 0.36234 0.0
C527 C 0.96456 0.03459 0.37118 0.0
C528 C 0.95026 0.08041 0.35804 0.0
C529 C 0.96305 0.03969 0.40016 0.0
C530 C 0.01249 0.01802 0.36221 0.0
C531 C 0.00908 0.9758 0.34949 0.0
C532 C 0.04874 0.95212 0.34069 0.0
C533 C 0.09323 0.972 0.34514 0.0
C534 C 0.09761 0.01491 0.35843 0.0
C535 C 0.05664 0.0384 0.36679 0.0
loop_
_geom_bond_atom_site_label_1
_geom_bond_atom_site_label_2
_geom_bond_distance
_geom_bond_site_symmetry_2
_ccdc_geom_bond_type
In0 O1 2.294 . S
In0 O2 2.326 . S
In0 O6 2.266 . S
In0 O7 2.326 . S
In0 O8 2.266 . S
In0 O9 2.326 . S
In0 O11 2.294 . S
In0 O12 2.326 . S
O1 In0 2.294 . S
O1 C10 1.240 . S
O2 In0 2.326 . S
O2 C10 1.252 . S
C3 O6 1.252 . S
C3 O7 1.260 . S
C4 O11 1.240 . S
C4 O12 1.252 . S
C5 O8 1.252 . S
C5 O9 1.260 . S
O6 In0 2.266 . S
O6 C3 1.252 . S
O7 In0 2.326 . S
O7 C3 1.260 . S
O8 In0 2.266 . S
O8 C5 1.252 . S
O9 In0 2.326 . S
O9 C5 1.260 . S
C10 O1 1.240 . S
C10 O2 1.252 . S
O11 In0 2.294 . S
O11 C4 1.240 . S
O12 In0 2.326 . S
O12 C4 1.252 . S
In13 O14 2.294 . S
In13 O15 2.326 . S
In13 O19 2.266 . S
In13 O20 2.326 . S
In13 O21 2.266 . S
In13 O22 2.326 . S
In13 O24 2.294 . S
In13 O25 2.326 . S
O14 In13 2.294 . S
O14 C23 1.240 . S
O15 In13 2.326 . S
O15 C23 1.252 . S
C16 O19 1.252 . S
C16 O20 1.260 . S
C17 O24 1.240 . S
C17 O25 1.252 . S
C18 O21 1.252 . S
C18 O22 1.260 . S
O19 In13 2.266 . S
O19 C16 1.252 . S
O20 In13 2.326 . S
O20 C16 1.260 . S
O21 In13 2.266 . S
O21 C18 1.252 . S
O22 In13 2.326 . S
O22 C18 1.260 . S
C23 O14 1.240 . S
C23 O15 1.252 . S
O24 In13 2.294 . S
O24 C17 1.240 . S
O25 In13 2.326 . S
O25 C17 1.252 . S
In26 O27 2.294 . S
In26 O28 2.326 . S
In26 O32 2.266 . S
In26 O33 2.326 . S
In26 O34 2.266 . S
In26 O35 2.326 . S
In26 O37 2.294 . S
In26 O38 2.326 . S
O27 In26 2.294 . S
O27 C36 1.240 . S
O28 In26 2.326 . S
O28 C36 1.252 . S
C29 O32 1.252 . S
C29 O33 1.260 . S
C30 O37 1.240 . S
C30 O38 1.252 . S
C31 O34 1.252 . S
C31 O35 1.260 . S
O32 In26 2.266 . S
O32 C29 1.252 . S
O33 In26 2.326 . S
O33 C29 1.260 . S
O34 In26 2.266 . S
O34 C31 1.252 . S
O35 In26 2.326 . S
O35 C31 1.260 . S
C36 O27 1.240 . S
C36 O28 1.252 . S
O37 In26 2.294 . S
O37 C30 1.240 . S
O38 In26 2.326 . S
O38 C30 1.252 . S
In39 O40 2.294 . S
In39 O41 2.326 . S
In39 O45 2.266 . S
In39 O46 2.326 . S
In39 O47 2.266 . S
In39 O48 2.326 . S
In39 O50 2.294 . S
In39 O51 2.326 . S
O40 In39 2.294 . S
O40 C49 1.240 . S
O41 In39 2.326 . S
O41 C49 1.252 . S
C42 O45 1.252 . S
C42 O46 1.260 . S
C43 O50 1.240 . S
C43 O51 1.252 . S
C44 O47 1.252 . S
C44 O48 1.260 . S
O45 In39 2.266 . S
O45 C42 1.252 . S
O46 In39 2.326 . S
O46 C42 1.260 . S
O47 In39 2.266 . S
O47 C44 1.252 . S
O48 In39 2.326 . S
O48 C44 1.260 . S
C49 O40 1.240 . S
C49 O41 1.252 . S
O50 In39 2.294 . S
O50 C43 1.240 . S
O51 In39 2.326 . S
O51 C43 1.252 . S
In52 O53 2.294 . S
In52 O54 2.326 . S
In52 O58 2.266 . S
In52 O59 2.326 . S
In52 O60 2.266 . S
In52 O61 2.326 . S
In52 O63 2.294 . S
In52 O64 2.326 . S
O53 In52 2.294 . S
O53 C62 1.240 . S
O54 In52 2.326 . S
O54 C62 1.252 . S
C55 O58 1.252 . S
C55 O59 1.260 . S
C56 O63 1.240 . S
C56 O64 1.252 . S
C57 O60 1.252 . S
C57 O61 1.260 . S
O58 In52 2.266 . S
O58 C55 1.252 . S
O59 In52 2.326 . S
O59 C55 1.260 . S
O60 In52 2.266 . S
O60 C57 1.252 . S
O61 In52 2.326 . S
O61 C57 1.260 . S
C62 O53 1.240 . S
C62 O54 1.252 . S
O63 In52 2.294 . S
O63 C56 1.240 . S
O64 In52 2.326 . S
O64 C56 1.252 . S
In65 O66 2.294 . S
In65 O67 2.326 . S
In65 O71 2.266 . S
In65 O72 2.326 . S
In65 O73 2.266 . S
In65 O74 2.326 . S
In65 O76 2.294 . S
In65 O77 2.326 . S
O66 In65 2.294 . S
O66 C75 1.240 . S
O67 In65 2.326 . S
O67 C75 1.252 . S
C68 O71 1.252 . S
C68 O72 1.260 . S
C69 O76 1.240 . S
C69 O77 1.252 . S
C70 O73 1.252 . S
C70 O74 1.260 . S
O71 In65 2.266 . S
O71 C68 1.252 . S
O72 In65 2.326 . S
O72 C68 1.260 . S
O73 In65 2.266 . S
O73 C70 1.252 . S
O74 In65 2.326 . S
O74 C70 1.260 . S
C75 O66 1.240 . S
C75 O67 1.252 . S
O76 In65 2.294 . S
O76 C69 1.240 . S
O77 In65 2.326 . S
O77 C69 1.252 . S
In78 O79 2.294 . S
In78 O80 2.326 . S
In78 O84 2.266 . S
In78 O85 2.326 . S
In78 O86 2.266 . S
In78 O87 2.326 . S
In78 O89 2.294 . S
In78 O90 2.326 . S
O79 In78 2.294 . S
O79 C88 1.240 . S
O80 In78 2.326 . S
O80 C88 1.252 . S
C81 O84 1.252 . S
C81 O85 1.260 . S
C82 O89 1.240 . S
C82 O90 1.252 . S
C83 O86 1.252 . S
C83 O87 1.260 . S
O84 In78 2.266 . S
O84 C81 1.252 . S
O85 In78 2.326 . S
O85 C81 1.260 . S
O86 In78 2.266 . S
O86 C83 1.252 . S
O87 In78 2.326 . S
O87 C83 1.260 . S
C88 O79 1.240 . S
C88 O80 1.252 . S
O89 In78 2.294 . S
O89 C82 1.240 . S
O90 In78 2.326 . S
O90 C82 1.252 . S
In91 O92 2.294 . S
In91 O93 2.326 . S
In91 O97 2.266 . S
In91 O98 2.326 . S
In91 O99 2.266 . S
In91 O100 2.326 . S
In91 O102 2.294 . S
In91 O103 2.326 . S
O92 In91 2.294 . S
O92 C101 1.240 . S
O93 In91 2.326 . S
O93 C101 1.252 . S
C94 O97 1.252 . S
C94 O98 1.260 . S
C95 O102 1.240 . S
C95 O103 1.252 . S
C96 O99 1.252 . S
C96 O100 1.260 . S
O97 In91 2.266 . S
O97 C94 1.252 . S
O98 In91 2.326 . S
O98 C94 1.260 . S
O99 In91 2.266 . S
O99 C96 1.252 . S
O100 In91 2.326 . S
O100 C96 1.260 . S
C101 O92 1.240 . S
C101 O93 1.252 . S
O102 In91 2.294 . S
O102 C95 1.240 . S
O103 In91 2.326 . S
O103 C95 1.252 . S
H104 C116 0.930 1_655 S
H105 C118 0.930 . S
H106 C119 0.930 . S
H107 C123 0.959 . S
H108 C123 0.959 . S
H109 C123 0.961 . S
H110 C124 0.960 . S
H111 C124 0.961 . S
H112 C124 0.959 . S
H113 C127 0.929 . S
H114 C128 0.931 . S
H115 C130 0.930 . S
C116 H104 0.930 1_455 S
C116 C117 1.399 . S
C116 C121 1.399 . S
C117 C116 1.399 . S
C117 C118 1.376 . S
C118 H105 0.930 . S
C118 C117 1.376 . S
C118 C119 1.388 . S
C119 H106 0.930 . S
C119 C118 1.388 . S
C119 C120 1.390 . S
C120 C119 1.390 . S
C120 C121 1.394 . S
C120 C126 1.465 . S
C121 C116 1.399 . S
C121 C120 1.394 . S
C121 C122 1.516 1_455 S
C122 C121 1.516 1_655 S
C122 C123 1.502 . S
C122 C124 1.561 1_655 S
C122 C125 1.526 . S
C123 H107 0.959 . S
C123 H108 0.959 . S
C123 H109 0.961 . S
C123 C122 1.502 . S
C124 H110 0.960 . S
C124 H111 0.961 . S
C124 H112 0.959 . S
C124 C122 1.561 1_455 S
C125 C122 1.526 . S
C125 C126 1.396 1_655 S
C125 C130 1.390 . S
C126 C120 1.465 . S
C126 C125 1.396 1_455 S
C126 C127 1.399 . S
C127 H113 0.929 . S
C127 C126 1.399 . S
C127 C128 1.386 . S
C128 H114 0.931 . S
C128 C127 1.386 . S
C128 C129 1.388 1_455 S
C129 C128 1.388 1_655 S
C129 C130 1.387 . S
C130 H115 0.930 . S
C130 C125 1.390 . S
C130 C129 1.387 . S
H131 C143 0.930 . S
H132 C145 0.930 . S
H133 C146 0.930 . S
H134 C150 0.959 . S
H135 C150 0.959 . S
H136 C150 0.961 . S
H137 C151 0.960 . S
H138 C151 0.961 . S
H139 C151 0.959 . S
H140 C154 0.929 . S
H141 C155 0.931 . S
H142 C157 0.930 . S
C143 H131 0.930 . S
C143 C144 1.399 . S
C143 C148 1.399 . S
C144 C143 1.399 . S
C144 C145 1.376 . S
C145 H132 0.930 . S
C145 C144 1.376 . S
C145 C146 1.388 . S
C146 H133 0.930 . S
C146 C145 1.388 . S
C146 C147 1.390 . S
C147 C146 1.390 . S
C147 C148 1.394 . S
C147 C153 1.465 . S
C148 C143 1.399 . S
C148 C147 1.394 . S
C148 C149 1.516 1_565 S
C149 C148 1.516 1_545 S
C149 C150 1.502 . S
C149 C151 1.561 1_545 S
C149 C152 1.526 . S
C150 H134 0.959 . S
C150 H135 0.959 . S
C150 H136 0.961 . S
C150 C149 1.502 . S
C151 H137 0.960 . S
C151 H138 0.961 . S
C151 H139 0.959 . S
C151 C149 1.561 1_565 S
C152 C149 1.526 . S
C152 C153 1.396 1_545 S
C152 C157 1.390 . S
C153 C147 1.465 . S
C153 C152 1.396 1_565 S
C153 C154 1.399 . S
C154 H140 0.929 . S
C154 C153 1.399 . S
C154 C155 1.385 1_565 S
C155 H141 0.931 . S
C155 C154 1.385 1_545 S
C155 C156 1.389 . S
C156 C155 1.389 . S
C156 C157 1.387 . S
C157 H142 0.930 . S
C157 C152 1.390 . S
C157 C156 1.387 . S
H158 C170 0.930 . S
H159 C172 0.930 . S
H160 C173 0.930 . S
H161 C177 0.959 . S
H162 C177 0.959 . S
H163 C177 0.961 . S
H164 C178 0.960 . S
H165 C178 0.961 . S
H166 C178 0.959 1_455 S
H167 C181 0.929 . S
H168 C182 0.931 . S
H169 C184 0.930 . S
C170 H158 0.930 . S
C170 C171 1.399 . S
C170 C175 1.399 . S
C171 C170 1.399 . S
C171 C172 1.376 1_655 S
C172 H159 0.930 . S
C172 C171 1.376 1_455 S
C172 C173 1.388 . S
C173 H160 0.930 . S
C173 C172 1.388 . S
C173 C174 1.390 . S
C174 C173 1.390 . S
C174 C175 1.394 1_455 S
C174 C180 1.465 . S
C175 C170 1.399 . S
C175 C174 1.394 1_655 S
C175 C176 1.516 . S
C176 C175 1.516 . S
C176 C177 1.502 . S
C176 C178 1.561 . S
C176 C179 1.526 . S
C177 H161 0.959 . S
C177 H162 0.959 . S
C177 H163 0.961 . S
C177 C176 1.502 . S
C178 H164 0.960 . S
C178 H165 0.961 . S
C178 H166 0.959 1_655 S
C178 C176 1.561 . S
C179 C176 1.526 . S
C179 C180 1.396 1_655 S
C179 C184 1.390 . S
C180 C174 1.465 . S
C180 C179 1.396 1_455 S
C180 C181 1.399 . S
C181 H167 0.929 . S
C181 C180 1.399 . S
C181 C182 1.385 . S
C182 H168 0.931 . S
C182 C181 1.385 . S
C182 C183 1.389 . S
C183 C182 1.389 . S
C183 C184 1.387 1_455 S
C184 H169 0.930 . S
C184 C179 1.390 . S
C184 C183 1.387 1_655 S
H185 C197 0.930 . S
H186 C199 0.930 . S
H187 C200 0.930 . S
H188 C204 0.959 . S
H189 C204 0.959 . S
H190 C204 0.961 . S
H191 C205 0.953 1_545 S
H192 C205 0.961 . S
H193 C205 0.959 . S
H194 C208 0.929 . S
H195 C209 0.931 . S
H196 C211 0.930 1_545 S
C197 H185 0.930 . S
C197 C198 1.399 . S
C197 C202 1.399 . S
C198 C197 1.399 . S
C198 C199 1.376 1_545 S
C199 H186 0.930 . S
C199 C198 1.376 1_565 S
C199 C200 1.388 . S
C200 H187 0.930 . S
C200 C199 1.388 . S
C200 C201 1.390 . S
C201 C200 1.390 . S
C201 C202 1.394 1_565 S
C201 C207 1.465 . S
C202 C197 1.399 . S
C202 C201 1.394 1_545 S
C202 C203 1.516 . S
C203 C202 1.516 . S
C203 C204 1.502 . S
C203 C205 1.561 1_545 S
C203 C206 1.526 1_545 S
C204 H188 0.959 . S
C204 H189 0.959 . S
C204 H190 0.961 . S
C204 C203 1.502 . S
C205 H191 0.953 1_565 S
C205 H192 0.961 . S
C205 H193 0.959 . S
C205 C203 1.561 1_565 S
C206 C203 1.526 1_565 S
C206 C207 1.396 . S
C206 C211 1.390 . S
C207 C201 1.465 . S
C207 C206 1.396 . S
C207 C208 1.399 . S
C208 H194 0.929 . S
C208 C207 1.399 . S
C208 C209 1.385 . S
C209 H195 0.931 . S
C209 C208 1.385 . S
C209 C210 1.389 . S
C210 C209 1.389 . S
C210 C211 1.387 . S
C211 H196 0.930 1_565 S
C211 C206 1.390 . S
C211 C210 1.387 . S
H212 C224 0.930 . S
H213 C226 0.930 . S
H214 C227 0.930 . S
H215 C231 0.959 . S
H216 C231 0.959 . S
H217 C231 0.961 . S
H218 C232 0.960 1_556 S
H219 C232 0.961 . S
H220 C232 0.959 . S
H221 C235 0.929 1_655 S
H222 C236 0.931 . S
H223 C238 0.930 . S
C224 H212 0.930 . S
C224 C225 1.399 . S
C224 C229 1.399 . S
C225 C224 1.399 . S
C225 C226 1.376 . S
C226 H213 0.930 . S
C226 C225 1.376 . S
C226 C227 1.388 . S
C227 H214 0.930 . S
C227 C226 1.388 . S
C227 C228 1.390 . S
C228 C227 1.390 . S
C228 C229 1.394 . S
C228 C234 1.465 1_656 S
C229 C224 1.399 . S
C229 C228 1.394 . S
C229 C230 1.516 1_655 S
C230 C229 1.516 1_455 S
C230 C231 1.502 . S
C230 C232 1.561 1_456 S
C230 C233 1.526 1_556 S
C231 H215 0.959 . S
C231 H216 0.959 . S
C231 H217 0.961 . S
C231 C230 1.502 . S
C232 H218 0.960 1_554 S
C232 H219 0.961 . S
C232 H220 0.959 . S
C232 C230 1.561 1_654 S
C233 C230 1.526 1_554 S
C233 C234 1.396 . S
C233 C238 1.390 . S
C234 C228 1.465 1_454 S
C234 C233 1.396 . S
C234 C235 1.399 . S
C235 H221 0.929 1_455 S
C235 C234 1.399 . S
C235 C236 1.385 . S
C236 H222 0.931 . S
C236 C235 1.385 . S
C236 C237 1.389 . S
C237 C236 1.389 . S
C237 C238 1.387 . S
C238 H223 0.930 . S
C238 C233 1.390 . S
C238 C237 1.387 . S
H239 C251 0.930 . S
H240 C253 0.930 . S
H241 C254 0.930 . S
H242 C258 0.959 . S
H243 C258 0.959 . S
H244 C258 0.961 . S
H245 C259 0.960 . S
H246 C259 0.961 . S
H247 C259 0.959 . S
H248 C262 0.929 . S
H249 C263 0.931 . S
H250 C265 0.930 1_545 S
C251 H239 0.930 . S
C251 C252 1.399 . S
C251 C256 1.399 . S
C252 C251 1.399 . S
C252 C253 1.376 . S
C253 H240 0.930 . S
C253 C252 1.376 . S
C253 C254 1.388 1_545 S
C254 H241 0.930 . S
C254 C253 1.388 1_565 S
C254 C255 1.390 . S
C255 C254 1.390 . S
C255 C256 1.394 1_565 S
C255 C261 1.465 . S
C256 C251 1.399 . S
C256 C255 1.394 1_545 S
C256 C257 1.516 . S
C257 C256 1.516 . S
C257 C258 1.502 . S
C257 C259 1.561 . S
C257 C260 1.526 1_545 S
C258 H242 0.959 . S
C258 H243 0.959 . S
C258 H244 0.961 . S
C258 C257 1.502 . S
C259 H245 0.960 . S
C259 H246 0.961 . S
C259 H247 0.959 . S
C259 C257 1.561 . S
C260 C257 1.526 1_565 S
C260 C261 1.396 . S
C260 C265 1.390 . S
C261 C255 1.465 . S
C261 C260 1.396 . S
C261 C262 1.399 . S
C262 H248 0.929 . S
C262 C261 1.399 . S
C262 C263 1.385 . S
C263 H249 0.931 . S
C263 C262 1.385 . S
C263 C264 1.389 . S
C264 C263 1.389 . S
C264 C265 1.387 . S
C265 H250 0.930 1_565 S
C265 C260 1.390 . S
C265 C264 1.387 . S
H266 C278 0.930 . S
H267 C280 0.930 . S
H268 C281 0.930 . S
H269 C285 0.959 . S
H270 C285 0.959 . S
H271 C285 0.961 . S
H272 C286 0.960 1_554 S
H273 C286 0.961 1_455 S
H274 C286 0.959 . S
H275 C289 0.929 1_655 S
H276 C290 0.931 . S
H277 C292 0.930 . S
C278 H266 0.930 . S
C278 C279 1.399 . S
C278 C283 1.399 . S
C279 C278 1.399 . S
C279 C280 1.376 . S
C280 H267 0.930 . S
C280 C279 1.376 . S
C280 C281 1.388 . S
C281 H268 0.930 . S
C281 C280 1.388 . S
C281 C282 1.390 . S
C282 C281 1.390 . S
C282 C283 1.394 . S
C282 C288 1.465 1_654 S
C283 C278 1.399 . S
C283 C282 1.394 . S
C283 C284 1.516 1_655 S
C284 C283 1.516 1_455 S
C284 C285 1.502 . S
C284 C286 1.561 1_454 S
C284 C287 1.526 1_554 S
C285 H269 0.959 . S
C285 H270 0.959 . S
C285 H271 0.961 . S
C285 C284 1.502 . S
C286 H272 0.960 1_556 S
C286 H273 0.961 1_655 S
C286 H274 0.959 . S
C286 C284 1.561 1_656 S
C287 C284 1.526 1_556 S
C287 C288 1.396 . S
C287 C292 1.390 . S
C288 C282 1.465 1_456 S
C288 C287 1.396 . S
C288 C289 1.399 . S
C289 H275 0.929 1_455 S
C289 C288 1.399 . S
C289 C290 1.385 . S
C290 H276 0.931 . S
C290 C289 1.385 . S
C290 C291 1.389 . S
C291 C290 1.389 . S
C291 C292 1.387 . S
C292 H277 0.930 . S
C292 C287 1.390 . S
C292 C291 1.387 . S
H293 C305 0.930 1_565 S
H294 C307 0.930 . S
H295 C308 0.930 . S
H296 C312 0.959 . S
H297 C312 0.959 . S
H298 C312 0.961 . S
H299 C313 0.960 . S
H300 C313 0.961 . S
H301 C313 0.959 . S
H302 C316 0.929 . S
H303 C317 0.931 . S
H304 C319 0.930 . S
C305 H293 0.930 1_545 S
C305 C306 1.399 . S
C305 C310 1.399 . S
C306 C305 1.399 . S
C306 C307 1.376 . S
C307 H294 0.930 . S
C307 C306 1.376 . S
C307 C308 1.388 . S
C308 H295 0.930 . S
C308 C307 1.388 . S
C308 C309 1.390 . S
C309 C308 1.390 . S
C309 C310 1.394 . S
C309 C315 1.465 . S
C310 C305 1.399 . S
C310 C309 1.394 . S
C310 C311 1.516 1_545 S
C311 C310 1.516 1_565 S
C311 C312 1.502 . S
C311 C313 1.561 . S
C311 C314 1.526 . S
C312 H296 0.959 . S
C312 H297 0.959 . S
C312 H298 0.961 . S
C312 C311 1.502 . S
C313 H299 0.960 . S
C313 H300 0.961 . S
C313 H301 0.959 . S
C313 C311 1.561 . S
C314 C311 1.526 . S
C314 C315 1.396 1_565 S
C314 C319 1.390 . S
C315 C309 1.465 . S
C315 C314 1.396 1_545 S
C315 C316 1.399 . S
C316 H302 0.929 . S
C316 C315 1.399 . S
C316 C317 1.385 1_545 S
C317 H303 0.931 . S
C317 C316 1.385 1_565 S
C317 C318 1.389 . S
C318 C317 1.389 . S
C318 C319 1.387 . S
C319 H304 0.930 . S
C319 C314 1.390 . S
C319 C318 1.387 . S
H320 C332 0.930 . S
H321 C334 0.930 . S
H322 C335 0.930 . S
H323 C339 0.959 . S
H324 C339 0.959 . S
H325 C339 0.961 . S
H326 C340 0.960 . S
H327 C340 0.961 . S
H328 C340 0.959 . S
H329 C343 0.929 . S
H330 C344 0.931 . S
H331 C346 0.930 . S
C332 H320 0.930 . S
C332 C333 1.399 . S
C332 C337 1.399 . S
C333 C332 1.399 . S
C333 C334 1.376 . S
C334 H321 0.930 . S
C334 C333 1.376 . S
C334 C335 1.388 . S
C335 H322 0.930 . S
C335 C334 1.388 . S
C335 C336 1.390 . S
C336 C335 1.390 . S
C336 C337 1.394 . S
C336 C342 1.465 . S
C337 C332 1.399 . S
C337 C336 1.394 . S
C337 C338 1.516 . S
C338 C337 1.516 . S
C338 C339 1.502 . S
C338 C340 1.561 . S
C338 C341 1.526 . S
C339 H323 0.959 . S
C339 H324 0.959 . S
C339 H325 0.961 . S
C339 C338 1.502 . S
C340 H326 0.960 . S
C340 H327 0.961 . S
C340 H328 0.959 . S
C340 C338 1.561 . S
C341 C338 1.526 . S
C341 C342 1.396 . S
C341 C346 1.390 . S
C342 C336 1.465 . S
C342 C341 1.396 . S
C342 C343 1.399 . S
C343 H329 0.929 . S
C343 C342 1.399 . S
C343 C344 1.385 . S
C344 H330 0.931 . S
C344 C343 1.385 . S
C344 C345 1.389 . S
C345 C344 1.389 . S
C345 C346 1.387 . S
C346 H331 0.930 . S
C346 C341 1.390 . S
C346 C345 1.387 . S
H347 C359 0.930 . S
H348 C361 0.930 . S
H349 C362 0.930 . S
H350 C366 0.959 . S
H351 C366 0.959 . S
H352 C366 0.961 . S
H353 C367 0.960 . S
H354 C367 0.961 . S
H355 C367 0.959 . S
H356 C370 0.929 . S
H357 C371 0.931 . S
H358 C373 0.930 . S
C359 H347 0.930 . S
C359 C360 1.399 . S
C359 C364 1.399 . S
C360 C359 1.399 . S
C360 C361 1.376 . S
C361 H348 0.930 . S
C361 C360 1.376 . S
C361 C362 1.388 . S
C362 H349 0.930 . S
C362 C361 1.388 . S
C362 C363 1.390 . S
C363 C362 1.390 . S
C363 C364 1.394 . S
C363 C369 1.465 . S
C364 C359 1.399 . S
C364 C363 1.394 . S
C364 C365 1.516 . S
C365 C364 1.516 . S
C365 C366 1.502 . S
C365 C367 1.561 . S
C365 C368 1.526 . S
C366 H350 0.959 . S
C366 H351 0.959 . S
C366 H352 0.961 . S
C366 C365 1.502 . S
C367 H353 0.960 . S
C367 H354 0.961 . S
C367 H355 0.959 . S
C367 C365 1.561 . S
C368 C365 1.526 . S
C368 C369 1.396 . S
C368 C373 1.390 . S
C369 C363 1.465 . S
C369 C368 1.396 . S
C369 C370 1.399 . S
C370 H356 0.929 . S
C370 C369 1.399 . S
C370 C371 1.385 . S
C371 H357 0.931 . S
C371 C370 1.385 . S
C371 C372 1.389 . S
C372 C371 1.389 . S
C372 C373 1.387 . S
C373 H358 0.930 . S
C373 C368 1.390 . S
C373 C372 1.387 . S
H374 C386 0.930 . S
H375 C388 0.930 . S
H376 C389 0.930 . S
H377 C393 0.959 . S
H378 C393 0.959 . S
H379 C393 0.961 . S
H380 C394 0.960 . S
H381 C394 0.961 . S
H382 C394 0.959 . S
H383 C397 0.929 . S
H384 C398 0.931 . S
H385 C400 0.930 . S
C386 H374 0.930 . S
C386 C387 1.399 . S
C386 C391 1.399 . S
C387 C386 1.399 . S
C387 C388 1.376 . S
C388 H375 0.930 . S
C388 C387 1.376 . S
C388 C389 1.388 . S
C389 H376 0.930 . S
C389 C388 1.388 . S
C389 C390 1.390 . S
C390 C389 1.390 . S
C390 C391 1.394 . S
C390 C396 1.465 . S
C391 C386 1.399 . S
C391 C390 1.394 . S
C391 C392 1.516 . S
C392 C391 1.516 . S
C392 C393 1.502 . S
C392 C394 1.561 . S
C392 C395 1.526 . S
C393 H377 0.959 . S
C393 H378 0.959 . S
C393 H379 0.961 . S
C393 C392 1.502 . S
C394 H380 0.960 . S
C394 H381 0.961 . S
C394 H382 0.959 . S
C394 C392 1.561 . S
C395 C392 1.526 . S
C395 C396 1.396 . S
C395 C400 1.390 . S
C396 C390 1.465 . S
C396 C395 1.396 . S
C396 C397 1.399 . S
C397 H383 0.929 . S
C397 C396 1.399 . S
C397 C398 1.385 . S
C398 H384 0.931 . S
C398 C397 1.385 . S
C398 C399 1.389 . S
C399 C398 1.389 . S
C399 C400 1.387 . S
C400 H385 0.930 . S
C400 C395 1.390 . S
C400 C399 1.387 . S
H401 C413 0.930 . S
H402 C415 0.930 . S
H403 C416 0.930 . S
H404 C420 0.959 . S
H405 C420 0.959 . S
H406 C420 0.961 . S
H407 C421 0.960 . S
H408 C421 0.961 . S
H409 C421 0.959 . S
H410 C424 0.929 . S
H411 C425 0.931 . S
H412 C427 0.930 . S
C413 H401 0.930 . S
C413 C414 1.399 . S
C413 C418 1.399 . S
C414 C413 1.399 . S
C414 C415 1.376 . S
C415 H402 0.930 . S
C415 C414 1.376 . S
C415 C416 1.388 . S
C416 H403 0.930 . S
C416 C415 1.388 . S
C416 C417 1.390 . S
C417 C416 1.390 . S
C417 C418 1.394 . S
C417 C423 1.465 . S
C418 C413 1.399 . S
C418 C417 1.394 . S
C418 C419 1.516 . S
C419 C418 1.516 . S
C419 C420 1.502 . S
C419 C421 1.561 . S
C419 C422 1.526 . S
C420 H404 0.959 . S
C420 H405 0.959 . S
C420 H406 0.961 . S
C420 C419 1.502 . S
C421 H407 0.960 . S
C421 H408 0.961 . S
C421 H409 0.959 . S
C421 C419 1.561 . S
C422 C419 1.526 . S
C422 C423 1.396 . S
C422 C427 1.390 . S
C423 C417 1.465 . S
C423 C422 1.396 . S
C423 C424 1.399 . S
C424 H410 0.929 . S
C424 C423 1.399 . S
C424 C425 1.385 . S
C425 H411 0.931 . S
C425 C424 1.385 . S
C425 C426 1.389 . S
C426 C425 1.389 . S
C426 C427 1.387 . S
C427 H412 0.930 . S
C427 C422 1.390 . S
C427 C426 1.387 . S
H428 C440 0.930 . S
H429 C442 0.930 . S
H430 C443 0.930 . S
H431 C447 0.959 . S
H432 C447 0.959 1_565 S
H433 C447 0.961 . S
H434 C448 0.960 . S
H435 C448 0.961 1_565 S
H436 C448 0.959 1_465 S
H437 C451 0.929 . S
H438 C452 0.931 . S
H439 C454 0.930 . S
C440 H428 0.930 . S
C440 C441 1.399 1_655 S
C440 C445 1.399 . S
C441 C440 1.399 1_455 S
C441 C442 1.376 . S
C442 H429 0.930 . S
C442 C441 1.376 . S
C442 C443 1.388 . S
C443 H430 0.930 . S
C443 C442 1.388 . S
C443 C444 1.390 . S
C444 C443 1.390 . S
C444 C445 1.394 1_455 S
C444 C450 1.465 1_545 S
C445 C440 1.399 . S
C445 C444 1.394 1_655 S
C445 C446 1.516 . S
C446 C445 1.516 . S
C446 C447 1.502 . S
C446 C448 1.561 . S
C446 C449 1.526 1_545 S
C447 H431 0.959 . S
C447 H432 0.959 1_545 S
C447 H433 0.961 . S
C447 C446 1.502 . S
C448 H434 0.960 . S
C448 H435 0.961 1_545 S
C448 H436 0.959 1_645 S
C448 C446 1.561 . S
C449 C446 1.526 1_565 S
C449 C450 1.396 1_655 S
C449 C454 1.390 . S
C450 C444 1.465 1_565 S
C450 C449 1.396 1_455 S
C450 C451 1.399 . S
C451 H437 0.929 . S
C451 C450 1.399 . S
C451 C452 1.385 . S
C452 H438 0.931 . S
C452 C451 1.385 . S
C452 C453 1.389 1_455 S
C453 C452 1.389 1_655 S
C453 C454 1.387 . S
C454 H439 0.930 . S
C454 C449 1.390 . S
C454 C453 1.387 . S
H455 C467 0.933 . S
H456 C469 0.930 . S
H457 C470 0.930 . S
H458 C474 0.959 . S
H459 C474 0.959 1_655 S
H460 C474 0.961 . S
H461 C475 0.960 1_455 S
H462 C475 0.961 . S
H463 C475 0.959 . S
H464 C478 0.929 . S
H465 C479 0.932 . S
H466 C481 0.930 . S
C467 H455 0.933 . S
C467 C468 1.399 . S
C467 C472 1.399 . S
C468 C467 1.399 . S
C468 C469 1.376 . S
C469 H456 0.930 . S
C469 C468 1.376 . S
C469 C470 1.388 . S
C470 H457 0.930 . S
C470 C469 1.388 . S
C470 C471 1.390 . S
C471 C470 1.390 . S
C471 C472 1.394 . S
C471 C477 1.465 1_455 S
C472 C467 1.399 . S
C472 C471 1.394 . S
C472 C473 1.531 1_565 S
C473 C472 1.531 1_545 S
C473 C474 1.504 . S
C473 C475 1.559 1_445 S
C473 C476 1.511 1_455 S
C474 H458 0.959 . S
C474 H459 0.959 1_455 S
C474 H460 0.961 . S
C474 C473 1.504 . S
C475 H461 0.960 1_655 S
C475 H462 0.961 . S
C475 H463 0.959 . S
C475 C473 1.559 1_665 S
C476 C473 1.511 1_655 S
C476 C477 1.396 1_545 S
C476 C481 1.390 . S
C477 C471 1.465 1_655 S
C477 C476 1.396 1_565 S
C477 C478 1.399 . S
C478 H464 0.929 . S
C478 C477 1.399 . S
C478 C479 1.385 1_565 S
C479 H465 0.932 . S
C479 C478 1.385 1_545 S
C479 C480 1.389 . S
C480 C479 1.389 . S
C480 C481 1.387 . S
C481 H466 0.930 . S
C481 C476 1.390 . S
C481 C480 1.387 . S
H482 C494 0.930 . S
H483 C496 0.930 . S
H484 C497 0.930 . S
H485 C501 0.959 . S
H486 C501 0.959 . S
H487 C501 0.961 1_545 S
H488 C502 0.960 . S
H489 C502 0.961 1_565 S
H490 C502 0.959 . S
H491 C505 0.929 . S
H492 C506 0.931 . S
H493 C508 0.930 1_655 S
C494 H482 0.930 . S
C494 C495 1.399 . S
C494 C499 1.399 . S
C495 C494 1.399 . S
C495 C496 1.376 1_655 S
C496 H483 0.930 . S
C496 C495 1.376 1_455 S
C496 C497 1.388 . S
C497 H484 0.930 . S
C497 C496 1.388 . S
C497 C498 1.390 . S
C498 C497 1.390 . S
C498 C499 1.394 1_455 S
C498 C504 1.465 1_545 S
C499 C494 1.399 . S
C499 C498 1.394 1_655 S
C499 C500 1.516 1_545 S
C500 C499 1.516 1_565 S
C500 C501 1.502 . S
C500 C502 1.561 1_665 S
C500 C503 1.525 1_655 S
C501 H485 0.959 . S
C501 H486 0.959 . S
C501 H487 0.961 1_565 S
C501 C500 1.502 . S
C502 H488 0.960 . S
C502 H489 0.961 1_545 S
C502 H490 0.959 . S
C502 C500 1.561 1_445 S
C503 C500 1.525 1_455 S
C503 C504 1.397 . S
C503 C508 1.390 . S
C504 C498 1.465 1_565 S
C504 C503 1.397 . S
C504 C505 1.399 . S
C505 H491 0.929 . S
C505 C504 1.399 . S
C505 C506 1.385 . S
C506 H492 0.931 . S
C506 C505 1.385 . S
C506 C507 1.389 . S
C507 C506 1.389 . S
C507 C508 1.387 . S
C508 H493 0.930 1_455 S
C508 C503 1.390 . S
C508 C507 1.387 . S
H509 C521 0.930 1_545 S
H510 C523 0.930 . S
H511 C524 0.930 . S
H512 C528 0.959 . S
H513 C528 0.959 1_455 S
H514 C528 0.961 . S
H515 C529 0.960 1_655 S
H516 C529 0.961 . S
H517 C529 0.959 . S
H518 C532 0.929 . S
H519 C533 0.931 . S
H520 C535 0.930 . S
C521 H509 0.930 1_565 S
C521 C522 1.399 . S
C521 C526 1.399 . S
C522 C521 1.399 . S
C522 C523 1.376 . S
C523 H510 0.930 . S
C523 C522 1.376 . S
C523 C524 1.388 . S
C524 H511 0.930 . S
C524 C523 1.388 . S
C524 C525 1.390 . S
C525 C524 1.390 . S
C525 C526 1.394 . S
C525 C531 1.465 1_655 S
C526 C521 1.399 . S
C526 C525 1.394 . S
C526 C527 1.516 1_565 S
C527 C526 1.516 1_545 S
C527 C528 1.502 . S
C527 C529 1.561 1_645 S
C527 C530 1.526 1_655 S
C528 H512 0.959 . S
C528 H513 0.959 1_655 S
C528 H514 0.961 . S
C528 C527 1.502 . S
C529 H515 0.960 1_455 S
C529 H516 0.961 . S
C529 H517 0.959 . S
C529 C527 1.561 1_465 S
C530 C527 1.526 1_455 S
C530 C531 1.396 1_545 S
C530 C535 1.390 . S
C531 C525 1.465 1_455 S
C531 C530 1.396 1_565 S
C531 C532 1.399 . S
C532 H518 0.929 . S
C532 C531 1.399 . S
C532 C533 1.385 . S
C533 H519 0.931 . S
C533 C532 1.385 . S
C533 C534 1.389 1_565 S
C534 C533 1.389 1_545 S
C534 C535 1.387 . S
C535 H520 0.930 . S
C535 C530 1.390 . S
C535 C534 1.387 . S
C117 C4 1.308 . S
C129 C30 1.319 . S
C144 C49 1.307 . S
C156 C17 1.316 . S
C171 C82 1.338 . S
C183 C56 1.324 . S
C198 C69 1.340 . S
C210 C95 1.328 . S
C225 C88 1.576 . S
C237 C10 1.528 . S
C252 C23 1.516 . S
C264 C101 1.587 . S
C279 C36 1.577 . S
C291 C62 1.527 . S
C306 C75 1.585 . S
C318 C43 1.521 . S
C333 C3 1.402 . S
C345 C68 1.403 . S
C360 C81 1.400 . S
C372 C16 1.404 . S
C387 C94 1.347 . S
C399 C29 1.380 . S
C414 C44 1.386 . S
C426 C55 1.353 . S
C441 C5 1.127 . S
C453 C31 1.178 . S
C468 C42 1.142 . S
C480 C18 1.170 . S
C495 C83 1.161 . S
C507 C57 1.122 . S
C522 C96 1.137 . S
C534 C70 1.173 . S
