# Generated by pormake.
# Topology pcb, (4)-cn, num edge types: 1
# Building blocks:
#     Node 0, Type 0, BuildingBlock: QUQFOY_clean_sbu_3, # of connection points: 4
#     Node 1, Type 0, BuildingBlock: QUQFOY_clean_sbu_3, # of connection points: 4
#     Node 2, Type 0, BuildingBlock: QUQFOY_clean_sbu_3, # of connection points: 4
#     Node 3, Type 0, BuildingBlock: QUQFOY_clean_sbu_3, # of connection points: 4
#     Node 4, Type 0, BuildingBlock: QUQFOY_clean_sbu_3, # of connection points: 4
#     Node 5, Type 0, BuildingBlock: QUQFOY_clean_sbu_3, # of connection points: 4
#     Node 6, Type 0, BuildingBlock: QUQFOY_clean_sbu_3, # of connection points: 4
#     Node 7, Type 0, BuildingBlock: QUQFOY_clean_sbu_3, # of connection points: 4
#     Node 8, Type 0, BuildingBlock: QUQFOY_clean_sbu_3, # of connection points: 4
#     Node 9, Type 0, BuildingBlock: QUQFOY_clean_sbu_3, # of connection points: 4
#     Node 10, Type 0, BuildingBlock: QUQFOY_clean_sbu_3, # of connection points: 4
#     Node 11, Type 0, BuildingBlock: QUQFOY_clean_sbu_3, # of connection points: 4
#     Node 12, Type 0, BuildingBlock: QUQFOY_clean_sbu_3, # of connection points: 4
#     Node 13, Type 0, BuildingBlock: QUQFOY_clean_sbu_3, # of connection points: 4
#     Node 14, Type 0, BuildingBlock: QUQFOY_clean_sbu_3, # of connection points: 4
#     Node 15, Type 0, BuildingBlock: QUQFOY_clean_sbu_3, # of connection points: 4
#     Edge 16, Type (0, 0), BuildingBlock: XUDNAN_clean_linker_2, # of connection points: 2
#     Edge 17, Type (0, 0), BuildingBlock: XUDNAN_clean_linker_2, # of connection points: 2
#     Edge 18, Type (0, 0), BuildingBlock: XUDNAN_clean_linker_2, # of connection points: 2
#     Edge 19, Type (0, 0), BuildingBlock: XUDNAN_clean_linker_2, # of connection points: 2
#     Edge 20, Type (0, 0), BuildingBlock: XUDNAN_clean_linker_2, # of connection points: 2
#     Edge 21, Type (0, 0), BuildingBlock: XUDNAN_clean_linker_2, # of connection points: 2
#     Edge 22, Type (0, 0), BuildingBlock: XUDNAN_clean_linker_2, # of connection points: 2
#     Edge 23, Type (0, 0), BuildingBlock: XUDNAN_clean_linker_2, # of connection points: 2
#     Edge 24, Type (0, 0), BuildingBlock: XUDNAN_clean_linker_2, # of connection points: 2
#     Edge 25, Type (0, 0), BuildingBlock: XUDNAN_clean_linker_2, # of connection points: 2
#     Edge 26, Type (0, 0), BuildingBlock: XUDNAN_clean_linker_2, # of connection points: 2
#     Edge 27, Type (0, 0), BuildingBlock: XUDNAN_clean_linker_2, # of connection points: 2
#     Edge 28, Type (0, 0), BuildingBlock: XUDNAN_clean_linker_2, # of connection points: 2
#     Edge 29, Type (0, 0), BuildingBlock: XUDNAN_clean_linker_2, # of connection points: 2
#     Edge 30, Type (0, 0), BuildingBlock: XUDNAN_clean_linker_2, # of connection points: 2
#     Edge 31, Type (0, 0), BuildingBlock: XUDNAN_clean_linker_2, # of connection points: 2
#     Edge 32, Type (0, 0), BuildingBlock: XUDNAN_clean_linker_2, # of connection points: 2
#     Edge 33, Type (0, 0), BuildingBlock: XUDNAN_clean_linker_2, # of connection points: 2
#     Edge 34, Type (0, 0), BuildingBlock: XUDNAN_clean_linker_2, # of connection points: 2
#     Edge 35, Type (0, 0), BuildingBlock: XUDNAN_clean_linker_2, # of connection points: 2
#     Edge 36, Type (0, 0), BuildingBlock: XUDNAN_clean_linker_2, # of connection points: 2
#     Edge 37, Type (0, 0), BuildingBlock: XUDNAN_clean_linker_2, # of connection points: 2
#     Edge 38, Type (0, 0), BuildingBlock: XUDNAN_clean_linker_2, # of connection points: 2
#     Edge 39, Type (0, 0), BuildingBlock: XUDNAN_clean_linker_2, # of connection points: 2
#     Edge 40, Type (0, 0), BuildingBlock: XUDNAN_clean_linker_2, # of connection points: 2
#     Edge 41, Type (0, 0), BuildingBlock: XUDNAN_clean_linker_2, # of connection points: 2
#     Edge 42, Type (0, 0), BuildingBlock: XUDNAN_clean_linker_2, # of connection points: 2
#     Edge 43, Type (0, 0), BuildingBlock: XUDNAN_clean_linker_2, # of connection points: 2
#     Edge 44, Type (0, 0), BuildingBlock: XUDNAN_clean_linker_2, # of connection points: 2
#     Edge 45, Type (0, 0), BuildingBlock: XUDNAN_clean_linker_2, # of connection points: 2
#     Edge 46, Type (0, 0), BuildingBlock: XUDNAN_clean_linker_2, # of connection points: 2
#     Edge 47, Type (0, 0), BuildingBlock: XUDNAN_clean_linker_2, # of connection points: 2
# Relax obj value: 0.313
# Max RMSD: 0.170
# Mean RMSD: 0.170
data_MOF--net-pcb--node1-QUQFOY_clean_sbu_3--edge1-XUDNAN_clean_linker_2
_symmetry_space_group_name_H-M    P1
_symmetry_Int_Tables_number       1
_symmetry_cell_setting            triclinic
loop_
_symmetry_equiv_pos_as_xyz
'x, y, z'
_cell_length_a     41.237891
_cell_length_b     50.334955
_cell_length_c     50.312159
_cell_angle_alpha  89.982442
_cell_angle_beta   89.835946
_cell_angle_gamma 89.964506
loop_
_atom_site_label
_atom_site_type_symbol
_atom_site_fract_x
_atom_site_fract_y
_atom_site_fract_z
_atom_type_partial_charge
C0 C 0.11561 0.11354 0.12561 0.0
O1 O 0.11892 0.09215 0.11248 0.0
Cd2 Cd 0.1644 0.06287 0.11406 0.0
O3 O 0.13841 0.12197 0.14046 0.0
Cd4 Cd 0.19496 0.10646 0.14895 0.0
C5 C 0.21591 0.10536 0.0843 0.0
O6 O 0.17976 0.06133 0.15982 0.0
O7 O 0.23021 0.06652 0.15123 0.0
O8 O 0.19283 0.13174 0.1906 0.0
C9 C 0.20789 0.05147 0.15977 0.0
O10 O 0.20487 0.08177 0.08373 0.0
C11 C 0.22206 0.13953 0.18903 0.0
O12 O 0.21191 0.12001 0.10462 0.0
O13 O 0.2383 0.132 0.16896 0.0
C14 C 0.89016 0.16203 0.09529 0.0
O15 O 0.88143 0.14987 0.07439 0.0
Cd16 Cd 0.82701 0.14055 0.06157 0.0
O17 O 0.86904 0.17144 0.11129 0.0
Cd18 Cd 0.80853 0.17284 0.11321 0.0
C19 C 0.80537 0.10608 0.11779 0.0
O20 O 0.79683 0.18038 0.06705 0.0
O21 O 0.75729 0.16365 0.08918 0.0
O22 O 0.80632 0.21941 0.12531 0.0
C23 C 0.7673 0.17376 0.06757 0.0
O24 O 0.80928 0.10603 0.09266 0.0
C25 C 0.79078 0.21597 0.14683 0.0
O26 O 0.80659 0.12765 0.131 0.0
O27 O 0.78432 0.19216 0.15337 0.0
C28 C 0.88494 0.83523 0.14578 0.0
O29 O 0.88539 0.84825 0.16723 0.0
Cd30 Cd 0.8291 0.86366 0.16033 0.0
O31 O 0.8583 0.8346 0.13346 0.0
Cd32 Cd 0.81317 0.85967 0.16009 0.0
C33 C 0.79342 0.8534 0.10538 0.0
O34 O 0.83008 0.90673 0.17434 0.0
O35 O 0.78667 0.90367 0.15104 0.0
O36 O 0.77637 0.83748 0.1916 0.0
C37 C 0.80621 0.91836 0.16377 0.0
O38 O 0.81898 0.86622 0.11085 0.0
C39 C 0.79865 0.82988 0.20728 0.0
O40 O 0.77723 0.84419 0.12469 0.0
O41 O 0.82736 0.8371 0.2018 0.0
C42 C 0.10233 0.8062 0.08097 0.0
O43 O 0.10706 0.8194 0.05981 0.0
Cd44 Cd 0.15769 0.83665 0.04482 0.0
O45 O 0.12587 0.79932 0.09587 0.0
Cd46 Cd 0.18638 0.80251 0.09439 0.0
C47 C 0.18335 0.86888 0.10194 0.0
O48 O 0.19371 0.80036 0.04723 0.0
O49 O 0.23395 0.81755 0.06776 0.0
O50 O 0.19856 0.75611 0.10448 0.0
C51 C 0.2216 0.81061 0.04576 0.0
O52 O 0.17528 0.87005 0.0775 0.0
C53 C 0.21162 0.76091 0.12679 0.0
O54 O 0.18642 0.84667 0.1138 0.0
O55 O 0.21292 0.78505 0.13404 0.0
C56 C 0.09477 0.89098 0.81581 0.0
O57 O 0.09982 0.9146 0.82366 0.0
Cd58 Cd 0.15214 0.93439 0.83026 0.0
O59 O 0.11832 0.8756 0.81 0.0
Cd60 Cd 0.17858 0.87956 0.80834 0.0
C61 C 0.18755 0.89114 0.87404 0.0
O62 O 0.18192 0.92415 0.7909 0.0
O63 O 0.22589 0.90983 0.80859 0.0
O64 O 0.18753 0.85517 0.76697 0.0
C65 C 0.21159 0.92807 0.79576 0.0
O66 O 0.17846 0.91497 0.86978 0.0
C67 C 0.20175 0.83573 0.77805 0.0
O68 O 0.18693 0.8739 0.85559 0.0
O69 O 0.20508 0.83675 0.80308 0.0
C70 C 0.10577 0.15066 0.87499 0.0
O71 O 0.11512 0.13813 0.8955 0.0
Cd72 Cd 0.1697 0.13487 0.91071 0.0
O73 O 0.12609 0.16345 0.86072 0.0
Cd74 Cd 0.18583 0.1728 0.86144 0.0
C75 C 0.20325 0.10768 0.85417 0.0
O76 O 0.19055 0.17888 0.90881 0.0
O77 O 0.23588 0.17335 0.88872 0.0
O78 O 0.17097 0.21623 0.84379 0.0
C79 C 0.22109 0.17772 0.91039 0.0
O80 O 0.19678 0.10537 0.87885 0.0
C81 C 0.19413 0.21726 0.82716 0.0
O82 O 0.19886 0.12966 0.84214 0.0
O83 O 0.21353 0.19768 0.82655 0.0
C84 C 0.87685 0.1048 0.85075 0.0
O85 O 0.87284 0.08461 0.86557 0.0
Cd86 Cd 0.82661 0.05649 0.86894 0.0
O87 O 0.85393 0.11309 0.83583 0.0
Cd88 Cd 0.79604 0.09857 0.82932 0.0
C89 C 0.77545 0.10236 0.89488 0.0
O90 O 0.81013 0.05232 0.82383 0.0
O91 O 0.75901 0.05985 0.82454 0.0
O92 O 0.79628 0.12037 0.78537 0.0
C93 C 0.78176 0.04326 0.82148 0.0
O94 O 0.789 0.07988 0.89818 0.0
C95 C 0.76707 0.12818 0.78759 0.0
O96 O 0.77694 0.11411 0.87253 0.0
O97 O 0.75261 0.12321 0.80928 0.0
C98 C 0.88062 0.81193 0.83923 0.0
O99 O 0.88212 0.79345 0.85621 0.0
Cd100 Cd 0.82376 0.79787 0.86579 0.0
O101 O 0.85268 0.8207 0.8337 0.0
Cd102 Cd 0.80601 0.79701 0.86028 0.0
C103 C 0.78804 0.85147 0.84866 0.0
O104 O 0.82052 0.79414 0.91034 0.0
O105 O 0.77188 0.80591 0.90023 0.0
O106 O 0.81899 0.75128 0.84603 0.0
C107 C 0.79261 0.80113 0.91821 0.0
O108 O 0.8128 0.84668 0.86267 0.0
C109 C 0.79082 0.74665 0.837 0.0
O110 O 0.77216 0.83176 0.84013 0.0
O111 O 0.76995 0.76506 0.83933 0.0
C112 C 0.60791 0.60392 0.63602 0.0
O113 O 0.61304 0.5852 0.61959 0.0
Cd114 Cd 0.6588 0.55663 0.61629 0.0
O115 O 0.62924 0.61017 0.6533 0.0
Cd116 Cd 0.68613 0.59418 0.6618 0.0
C117 C 0.70975 0.60582 0.59795 0.0
O118 O 0.67077 0.54793 0.66162 0.0
O119 O 0.72201 0.55427 0.66404 0.0
O120 O 0.68244 0.6133 0.70692 0.0
C121 C 0.69865 0.53798 0.66424 0.0
O122 O 0.69818 0.58323 0.59177 0.0
C123 C 0.71221 0.6199 0.70726 0.0
O124 O 0.7062 0.61506 0.62129 0.0
O125 O 0.7288 0.61512 0.68657 0.0
C126 C 0.38826 0.66354 0.59325 0.0
O127 O 0.3821 0.65514 0.57 0.0
Cd128 Cd 0.33059 0.65495 0.5479 0.0
O129 O 0.36568 0.67284 0.6079 0.0
Cd130 Cd 0.30594 0.6778 0.60315 0.0
C131 C 0.29163 0.61289 0.58999 0.0
O132 O 0.30391 0.69554 0.55854 0.0
O133 O 0.25882 0.67991 0.57292 0.0
O134 O 0.29928 0.71882 0.62868 0.0
C135 C 0.27405 0.69168 0.55441 0.0
O136 O 0.2997 0.61745 0.56596 0.0
C137 C 0.28398 0.70774 0.64763 0.0
O138 O 0.29495 0.63053 0.60789 0.0
O139 O 0.279 0.68295 0.64577 0.0
C140 C 0.37318 0.38396 0.64571 0.0
O141 O 0.37065 0.40524 0.63236 0.0
Cd142 Cd 0.32089 0.42548 0.61935 0.0
O143 O 0.34813 0.37174 0.65425 0.0
Cd144 Cd 0.28814 0.38002 0.65345 0.0
C145 C 0.28281 0.37365 0.58766 0.0
O146 O 0.29067 0.42786 0.65949 0.0
O147 O 0.24513 0.41348 0.64535 0.0
O148 O 0.28645 0.35979 0.69782 0.0
C149 C 0.26185 0.43314 0.6529 0.0
O150 O 0.29326 0.39742 0.58642 0.0
C151 C 0.25938 0.34842 0.69409 0.0
O152 O 0.28179 0.36102 0.60951 0.0
O153 O 0.24608 0.35158 0.67163 0.0
C154 C 0.58972 0.30782 0.63909 0.0
O155 O 0.59022 0.28752 0.62434 0.0
Cd156 Cd 0.64904 0.29232 0.61685 0.0
O157 O 0.61681 0.31832 0.64436 0.0
Cd158 Cd 0.6652 0.2928 0.62225 0.0
C159 C 0.68524 0.34678 0.63101 0.0
O160 O 0.65519 0.27988 0.57347 0.0
O161 O 0.6954 0.30586 0.58109 0.0
O162 O 0.70246 0.26278 0.64489 0.0
C163 C 0.67901 0.29277 0.5643 0.0
O164 O 0.6609 0.34177 0.61652 0.0
C165 C 0.68146 0.24512 0.65026 0.0
O166 O 0.69972 0.32721 0.64136 0.0
O167 O 0.65283 0.24908 0.64191 0.0
C168 C 0.59411 0.38475 0.33111 0.0
O169 O 0.60121 0.40407 0.34623 0.0
Cd170 Cd 0.65412 0.41946 0.35687 0.0
O171 O 0.61638 0.37157 0.31937 0.0
Cd172 Cd 0.67699 0.37327 0.31863 0.0
C173 C 0.68108 0.36151 0.38458 0.0
O174 O 0.68347 0.42063 0.3162 0.0
O175 O 0.72585 0.40009 0.32976 0.0
O176 O 0.68295 0.36386 0.27133 0.0
C177 C 0.71298 0.42187 0.32273 0.0
O178 O 0.67523 0.38616 0.38782 0.0
C179 C 0.69903 0.3426 0.27459 0.0
O180 O 0.68058 0.35111 0.36154 0.0
O181 O 0.70432 0.33534 0.29835 0.0
C182 C 0.60656 0.65001 0.38072 0.0
O183 O 0.61171 0.64111 0.40397 0.0
Cd184 Cd 0.66158 0.64103 0.42839 0.0
O185 O 0.62957 0.66025 0.36716 0.0
Cd186 Cd 0.68887 0.66634 0.37497 0.0
C187 C 0.70271 0.60106 0.38551 0.0
O188 O 0.68748 0.68248 0.42054 0.0
O189 O 0.73357 0.66827 0.40682 0.0
O190 O 0.6909 0.70689 0.34777 0.0
C191 C 0.71735 0.67918 0.4252 0.0
O192 O 0.69403 0.60488 0.40953 0.0
C193 C 0.71615 0.69958 0.33521 0.0
O194 O 0.69955 0.61918 0.36804 0.0
O195 O 0.72729 0.67666 0.34036 0.0
C196 C 0.38137 0.6049 0.33673 0.0
O197 O 0.37334 0.58554 0.35154 0.0
Cd198 Cd 0.32037 0.5667 0.35543 0.0
O199 O 0.36038 0.61621 0.32196 0.0
Cd200 Cd 0.30089 0.61094 0.31381 0.0
C201 C 0.28208 0.62235 0.37854 0.0
O202 O 0.29959 0.56301 0.31138 0.0
O203 O 0.25291 0.58141 0.31655 0.0
O204 O 0.30532 0.61997 0.26627 0.0
C205 C 0.2691 0.56041 0.3122 0.0
O206 O 0.29019 0.59832 0.38293 0.0
C207 C 0.28712 0.64031 0.26666 0.0
O208 O 0.28577 0.63259 0.35559 0.0
O209 O 0.27567 0.64724 0.28906 0.0
C210 C 0.36653 0.34225 0.36582 0.0
O211 O 0.35983 0.35295 0.38804 0.0
Cd212 Cd 0.30926 0.34967 0.41114 0.0
O213 O 0.34547 0.32837 0.35357 0.0
Cd214 Cd 0.28807 0.31438 0.35996 0.0
C215 C 0.26347 0.3785 0.36212 0.0
O216 O 0.29371 0.30465 0.40628 0.0
O217 O 0.24441 0.30612 0.39318 0.0
O218 O 0.30571 0.27402 0.338 0.0
C219 C 0.26405 0.30245 0.41218 0.0
O220 O 0.27288 0.37877 0.3862 0.0
C221 C 0.28101 0.27191 0.32316 0.0
O222 O 0.26883 0.35863 0.34704 0.0
O223 O 0.2592 0.28962 0.32549 0.0
H224 H 0.22586 0.25327 0.2993 0.0
H225 H 0.32998 0.24133 0.30343 0.0
H226 H 0.32598 0.20548 0.27013 0.0
H227 H 0.20542 0.18332 0.29305 0.0
H228 H 0.17219 0.18935 0.27064 0.0
H229 H 0.1832 0.21413 0.29482 0.0
H230 H 0.18993 0.24893 0.25723 0.0
H231 H 0.17896 0.22427 0.23295 0.0
H232 H 0.2168 0.24191 0.22978 0.0
H233 H 0.31124 0.17309 0.23457 0.0
H234 H 0.28609 0.14368 0.20119 0.0
H235 H 0.19111 0.17437 0.22232 0.0
C236 C 0.24777 0.24307 0.29319 0.0
C237 C 0.27825 0.2501 0.30378 0.0
C238 C 0.30639 0.23618 0.29555 0.0
C239 C 0.30437 0.21585 0.27664 0.0
C240 C 0.27399 0.20945 0.2665 0.0
C241 C 0.24613 0.22239 0.27467 0.0
C242 C 0.21645 0.21135 0.26089 0.0
C243 C 0.19293 0.19879 0.28106 0.0
C244 C 0.19955 0.2329 0.24422 0.0
C245 C 0.23206 0.19046 0.2434 0.0
C246 C 0.2653 0.18984 0.24683 0.0
C247 C 0.28521 0.17314 0.23193 0.0
C248 C 0.27074 0.15659 0.213 0.0
C249 C 0.23671 0.15665 0.20944 0.0
C250 C 0.21715 0.17367 0.22498 0.0
H251 H 0.71756 0.2904 0.27359 0.0
H252 H 0.70986 0.3609 0.22433 0.0
H253 H 0.73416 0.33639 0.18667 0.0
H254 H 0.79312 0.26631 0.24782 0.0
H255 H 0.78131 0.23185 0.24871 0.0
H256 H 0.76388 0.255 0.27201 0.0
H257 H 0.70615 0.24189 0.25657 0.0
H258 H 0.7234 0.21856 0.23336 0.0
H259 H 0.69604 0.24398 0.22179 0.0
H260 H 0.7613 0.30493 0.15517 0.0
H261 H 0.78411 0.26712 0.1301 0.0
H262 H 0.7709 0.2162 0.19893 0.0
C263 C 0.721 0.30064 0.25486 0.0
C264 C 0.71205 0.32755 0.25183 0.0
C265 C 0.71653 0.34026 0.22699 0.0
C266 C 0.73043 0.32655 0.20556 0.0
C267 C 0.73925 0.30009 0.20925 0.0
C268 C 0.73429 0.28713 0.23313 0.0
C269 C 0.74481 0.25834 0.23153 0.0
C270 C 0.77242 0.25255 0.25119 0.0
C271 C 0.71587 0.23959 0.23607 0.0
C272 C 0.75665 0.2572 0.20305 0.0
C273 C 0.7536 0.28159 0.19069 0.0
C274 C 0.76361 0.28568 0.16456 0.0
C275 C 0.77666 0.26413 0.15054 0.0
C276 C 0.77913 0.23877 0.16258 0.0
C277 C 0.76911 0.23535 0.18921 0.0
H278 H 0.73989 0.81726 0.23014 0.0
H279 H 0.84306 0.80026 0.23383 0.0
H280 H 0.83274 0.76553 0.26723 0.0
H281 H 0.72469 0.80711 0.30173 0.0
H282 H 0.6854 0.79244 0.29627 0.0
H283 H 0.70092 0.81684 0.27332 0.0
H284 H 0.69304 0.78363 0.23454 0.0
H285 H 0.67786 0.75903 0.25739 0.0
H286 H 0.71192 0.75136 0.23621 0.0
H287 H 0.81135 0.72995 0.2962 0.0
H288 H 0.78049 0.69896 0.32451 0.0
H289 H 0.69136 0.74059 0.3053 0.0
C290 C 0.76029 0.80645 0.23828 0.0
C291 C 0.79226 0.81138 0.22938 0.0
C292 C 0.81839 0.79689 0.24046 0.0
C293 C 0.81278 0.77704 0.25935 0.0
C294 C 0.78099 0.77226 0.26729 0.0
C295 C 0.7552 0.78684 0.25759 0.0
C296 C 0.72344 0.77758 0.2697 0.0
C297 C 0.70769 0.79982 0.28624 0.0
C298 C 0.7002 0.76729 0.24817 0.0
C299 C 0.73544 0.75517 0.28723 0.0
C300 C 0.7687 0.75236 0.28527 0.0
C301 C 0.78536 0.73217 0.29829 0.0
C302 C 0.76761 0.71458 0.31413 0.0
C303 C 0.73366 0.71754 0.31712 0.0
C304 C 0.71737 0.73812 0.30353 0.0
H305 H 0.26378 0.69102 0.26228 0.0
H306 H 0.29178 0.62217 0.21565 0.0
H307 H 0.27564 0.6456 0.17457 0.0
H308 H 0.19456 0.70965 0.22438 0.0
H309 H 0.20172 0.74486 0.22724 0.0
H310 H 0.21554 0.7227 0.25293 0.0
H311 H 0.27408 0.74065 0.24741 0.0
H312 H 0.26041 0.76294 0.22176 0.0
H313 H 0.29303 0.74002 0.21508 0.0
H314 H 0.25336 0.67558 0.13897 0.0
H315 H 0.23109 0.71154 0.11089 0.0
H316 H 0.22115 0.76176 0.18051 0.0
C317 C 0.26658 0.68092 0.24341 0.0
C318 C 0.27887 0.65477 0.24208 0.0
C319 C 0.28247 0.64225 0.21704 0.0
C320 C 0.27328 0.65535 0.19364 0.0
C321 C 0.26102 0.68107 0.19565 0.0
C322 C 0.25807 0.69386 0.21984 0.0
C323 C 0.2448 0.7217 0.21649 0.0
C324 C 0.21222 0.7249 0.23112 0.0
C325 C 0.26956 0.74256 0.22573 0.0
C326 C 0.24038 0.72246 0.18666 0.0
C327 C 0.24959 0.69875 0.17502 0.0
C328 C 0.24641 0.69435 0.14781 0.0
C329 C 0.23366 0.71481 0.13205 0.0
C330 C 0.22471 0.73942 0.14354 0.0
C331 C 0.22822 0.74324 0.17117 0.0
H332 H 0.26948 0.7607 0.64988 0.0
H333 H 0.27169 0.68873 0.69733 0.0
H334 H 0.25168 0.7139 0.73624 0.0
H335 H 0.29363 0.80658 0.70113 0.0
H336 H 0.26632 0.8324 0.6904 0.0
H337 H 0.28219 0.80896 0.66664 0.0
H338 H 0.22368 0.79654 0.65267 0.0
H339 H 0.20763 0.81991 0.6764 0.0
H340 H 0.19514 0.78562 0.67759 0.0
H341 H 0.233 0.74708 0.77013 0.0
H342 H 0.21269 0.78544 0.79597 0.0
H343 H 0.21871 0.83494 0.7255 0.0
C344 C 0.26597 0.75033 0.66854 0.0
C345 C 0.27235 0.72289 0.67078 0.0
C346 C 0.26695 0.7098 0.6953 0.0
C347 C 0.25569 0.72392 0.71748 0.0
C348 C 0.24952 0.75097 0.71461 0.0
C349 C 0.25411 0.764 0.69071 0.0
C350 C 0.24423 0.7929 0.69263 0.0
C351 C 0.27333 0.81129 0.68739 0.0
C352 C 0.21599 0.79909 0.6737 0.0
C353 C 0.23353 0.79411 0.72139 0.0
C354 C 0.23714 0.76979 0.7338 0.0
C355 C 0.22982 0.76618 0.7606 0.0
C356 C 0.21839 0.78805 0.7751 0.0
C357 C 0.21393 0.81298 0.76262 0.0
C358 C 0.22153 0.81597 0.73542 0.0
H359 H 0.25018 0.23574 0.80481 0.0
H360 H 0.1464 0.24951 0.80827 0.0
H361 H 0.15203 0.28579 0.77542 0.0
H362 H 0.27239 0.30599 0.79954 0.0
H363 H 0.30608 0.29944 0.7776 0.0
H364 H 0.29385 0.27485 0.80165 0.0
H365 H 0.28747 0.24015 0.76398 0.0
H366 H 0.29957 0.26462 0.73982 0.0
H367 H 0.26146 0.24751 0.73619 0.0
H368 H 0.16833 0.3172 0.7391 0.0
H369 H 0.19504 0.34541 0.70523 0.0
H370 H 0.28877 0.31435 0.72869 0.0
C371 C 0.22871 0.24653 0.79872 0.0
C372 C 0.19783 0.23984 0.80883 0.0
C373 C 0.17027 0.25446 0.80072 0.0
C374 C 0.17322 0.27501 0.78206 0.0
C375 C 0.204 0.28098 0.77226 0.0
C376 C 0.23134 0.26751 0.78064 0.0
C377 C 0.26163 0.2781 0.76726 0.0
C378 C 0.28485 0.29033 0.78774 0.0
C379 C 0.27851 0.2563 0.75084 0.0
C380 C 0.24694 0.2992 0.74957 0.0
C381 C 0.21363 0.30035 0.75257 0.0
C382 C 0.19444 0.31688 0.73692 0.0
C383 C 0.20975 0.33271 0.71773 0.0
C384 C 0.24386 0.33221 0.71479 0.0
C385 C 0.26269 0.31545 0.73105 0.0
H386 H 0.79198 0.16087 0.74882 0.0
H387 H 0.70279 0.12515 0.77753 0.0
H388 H 0.67228 0.14741 0.74182 0.0
H389 H 0.75748 0.22353 0.73575 0.0
H390 H 0.78147 0.23023 0.7065 0.0
H391 H 0.79711 0.20881 0.73207 0.0
H392 H 0.80577 0.17146 0.69731 0.0
H393 H 0.78999 0.19278 0.67162 0.0
H394 H 0.7721 0.1606 0.67729 0.0
H395 H 0.65096 0.1748 0.7049 0.0
H396 H 0.63908 0.20939 0.67164 0.0
H397 H 0.74136 0.22966 0.66813 0.0
C398 C 0.76613 0.15745 0.74721 0.0
C399 C 0.74968 0.1412 0.76568 0.0
C400 C 0.71575 0.13759 0.7635 0.0
C401 C 0.69827 0.14996 0.74319 0.0
C402 C 0.71505 0.16608 0.72541 0.0
C403 C 0.74814 0.17013 0.72733 0.0
C404 C 0.75958 0.19056 0.70727 0.0
C405 C 0.77479 0.21471 0.72124 0.0
C406 C 0.78326 0.1781 0.68718 0.0
C407 C 0.72765 0.19767 0.69423 0.0
C408 C 0.70243 0.18288 0.70462 0.0
C409 C 0.6705 0.18643 0.69644 0.0
C410 C 0.66401 0.2061 0.67752 0.0
C411 C 0.68929 0.2222 0.66734 0.0
C412 C 0.72157 0.21756 0.67548 0.0
H413 H 0.73191 0.73075 0.81772 0.0
H414 H 0.83287 0.70695 0.82328 0.0
H415 H 0.82173 0.66842 0.79445 0.0
H416 H 0.69749 0.66192 0.81527 0.0
H417 H 0.66659 0.67168 0.79196 0.0
H418 H 0.68144 0.69523 0.816 0.0
H419 H 0.69569 0.72794 0.77795 0.0
H420 H 0.68115 0.70449 0.75382 0.0
H421 H 0.72196 0.71708 0.75138 0.0
H422 H 0.80208 0.63732 0.75984 0.0
H423 H 0.77414 0.61343 0.72373 0.0
H424 H 0.68507 0.65553 0.742 0.0
C425 C 0.75149 0.71707 0.81341 0.0
C426 C 0.78326 0.72181 0.82274 0.0
C427 C 0.80833 0.70363 0.81644 0.0
C428 C 0.80222 0.68167 0.80011 0.0
C429 C 0.77084 0.67798 0.79062 0.0
C430 C 0.74575 0.69492 0.79732 0.0
C431 C 0.71479 0.68754 0.78295 0.0
C432 C 0.68853 0.67855 0.80273 0.0
C433 C 0.70271 0.71063 0.76549 0.0
C434 C 0.72677 0.66451 0.76624 0.0
C435 C 0.75914 0.65926 0.77113 0.0
C436 C 0.77655 0.64076 0.75629 0.0
C437 C 0.76056 0.62742 0.73576 0.0
C438 C 0.72745 0.63248 0.73044 0.0
C439 C 0.71019 0.65088 0.74618 0.0
H440 H 0.20347 0.1962 0.95895 0.0
H441 H 0.27034 0.14264 0.91954 0.0
H442 H 0.28382 0.12223 0.96272 0.0
H443 H 0.25224 0.20184 0.02398 0.0
H444 H 0.21517 0.20318 0.043 0.0
H445 H 0.21674 0.21745 0.01014 0.0
H446 H 0.16761 0.18856 -0.00356 0.0
H447 H 0.16619 0.17385 0.0289 0.0
H448 H 0.16998 0.15295 -3e-05 0.0
H449 H 0.27798 0.1001 0.00693 0.0
H450 H 0.2599 0.08259 0.05057 0.0
H451 H 0.20129 0.15297 0.06264 0.0
C452 C 0.2221 0.18105 0.95968 0.0
C453 C 0.23603 0.17108 0.93609 0.0
C454 C 0.2598 0.15084 0.9375 0.0
C455 C 0.2675 0.13906 0.96194 0.0
C456 C 0.25196 0.14833 0.98477 0.0
C457 C 0.23054 0.1695 0.98398 0.0
C458 C 0.21468 0.17401 0.01076 0.0
C459 C 0.22536 0.20071 0.02268 0.0
C460 C 0.17744 0.17221 0.00888 0.0
C461 C 0.22867 0.15094 0.0262 0.0
C462 C 0.25028 0.1364 0.01095 0.0
C463 C 0.26223 0.11189 0.01949 0.0
C464 C 0.25172 0.102 0.04414 0.0
C465 C 0.22997 0.11684 0.06003 0.0
C466 C 0.21894 0.14181 0.0512 0.0
H467 H 0.76507 0.08228 0.94477 0.0
H468 H 0.75308 0.15358 0.89726 0.0
H469 H 0.73698 0.17838 0.93738 0.0
H470 H 0.69814 0.09781 -0.00495 0.0
H471 H 0.72199 0.08393 0.02163 0.0
H472 H 0.72513 0.07037 -0.01146 0.0
H473 H 0.78732 0.07795 -0.01076 0.0
H474 H 0.78432 0.0914 0.02216 0.0
H475 H 0.8028 0.11075 -0.00395 0.0
H476 H 0.73602 0.19749 0.98272 0.0
H477 H 0.74773 0.20855 0.02964 0.0
H478 H 0.75616 0.12494 0.04811 0.0
C479 C 0.75799 0.10289 0.94265 0.0
C480 C 0.76039 0.11597 0.91788 0.0
C481 C 0.75132 0.14306 0.91599 0.0
C482 C 0.74199 0.15731 0.93868 0.0
C483 C 0.74117 0.14409 0.96301 0.0
C484 C 0.74839 0.11733 0.96507 0.0
C485 C 0.74967 0.10854 -0.00617 0.0
C486 C 0.72208 0.08901 0.00013 0.0
C487 C 0.783 0.09648 0.0007 0.0
C488 C 0.74434 0.13489 0.00765 0.0
C489 C 0.73892 0.15512 -0.01046 0.0
C490 C 0.73881 0.18177 -0.00279 0.0
C491 C 0.74541 0.18792 0.02383 0.0
C492 C 0.75147 0.16748 0.04237 0.0
C493 C 0.74984 0.14071 0.0344 0.0
H494 H 0.83603 0.81394 0.95669 0.0
H495 H 0.73342 0.80133 0.94297 0.0
H496 H 0.72177 0.81356 -0.01025 0.0
H497 H 0.83924 0.79042 0.0246 0.0
H498 H 0.86753 0.81572 0.03473 0.0
H499 H 0.86754 0.80408 0.00089 0.0
H500 H 0.85987 0.85246 0.98434 0.0
H501 H 0.85947 0.86422 0.01814 0.0
H502 H 0.82601 0.87172 -0.00359 0.0
H503 H 0.72195 0.82658 0.0386 0.0
H504 H 0.73376 0.84126 0.08464 0.0
H505 H 0.83554 0.84903 0.06415 0.0
C506 C 0.81117 0.8133 0.96366 0.0
C507 C 0.78563 0.80633 0.94646 0.0
C508 C 0.75331 0.80643 0.95602 0.0
C509 C 0.74649 0.81336 0.98249 0.0
C510 C 0.77225 0.82055 -0.00113 0.0
C511 C 0.80391 0.82073 -0.01026 0.0
C512 C 0.82706 0.83056 0.01079 0.0
C513 C 0.85179 0.8089 0.01819 0.0
C514 C 0.84409 0.85627 0.00188 0.0
C515 C 0.80355 0.83576 0.03327 0.0
C516 C 0.77208 0.82962 0.0262 0.0
C517 C 0.74646 0.83172 0.04426 0.0
C518 C 0.75333 0.84009 0.07028 0.0
C519 C 0.7854 0.84669 0.07769 0.0
C520 C 0.81065 0.84472 0.05882 0.0
H521 H 0.20997 0.79322 -0.00424 0.0
H522 H 0.2514 0.85886 0.0398 0.0
H523 H 0.25164 0.88616 -0.00103 0.0
H524 H 0.25284 0.80781 0.93052 0.0
H525 H 0.21763 0.79768 0.91197 0.0
H526 H 0.22669 0.78211 0.94336 0.0
H527 H 0.16915 0.79432 0.96018 0.0
H528 H 0.16015 0.81054 0.92925 0.0
H529 H 0.15648 0.82862 0.96003 0.0
H530 H 0.23658 0.9088 0.95589 0.0
H531 H 0.21555 0.92279 0.91198 0.0
H532 H 0.1864 0.84162 0.89581 0.0
C533 C 0.22044 0.81294 -0.00352 0.0
C534 C 0.23096 0.82387 0.02077 0.0
C535 C 0.24381 0.84994 0.02125 0.0
C536 C 0.24379 0.86566 -0.00181 0.0
C537 C 0.2315 0.85476 0.97481 0.0
C538 C 0.22096 0.8287 0.97363 0.0
C539 C 0.20665 0.82226 0.94674 0.0
C540 C 0.22719 0.80122 0.93229 0.0
C541 C 0.17101 0.81343 0.94922 0.0
C542 C 0.2094 0.84905 0.93336 0.0
C543 C 0.22381 0.86759 0.9498 0.0
C544 C 0.22608 0.89429 0.94259 0.0
C545 C 0.21379 0.90211 0.91777 0.0
C546 C 0.19965 0.88323 0.90047 0.0
C547 C 0.19763 0.8564 0.90844 0.0
H548 H 0.07003 0.10877 0.08695 0.0
H549 H 0.09096 0.15106 0.16003 0.0
H550 H 0.03662 0.17207 0.15824 0.0
H551 H 0.02259 0.1621 0.05523 0.0
H552 H -0.00492 0.1387 0.04026 0.0
H553 H 0.03664 0.1294 0.04618 0.0
H554 H 0.01727 0.08853 0.0733 0.0
H555 H 0.97576 0.0977 0.06752 0.0
H556 H 0.99013 0.09337 0.10105 0.0
H557 H 0.97721 0.18421 0.1507 0.0
H558 H 0.91953 0.18733 0.13749 0.0
H559 H 0.93977 0.13793 0.0687 0.0
C560 C 0.06344 0.12273 0.10243 0.0
C561 C 0.08464 0.12822 0.12369 0.0
C562 C 0.0751 0.14666 0.14349 0.0
C563 C 0.04431 0.15867 0.14263 0.0
C564 C 0.02372 0.15234 0.12159 0.0
C565 C 0.03315 0.13501 0.1017 0.0
C566 C 0.00625 0.13032 0.08195 0.0
C567 C 0.01571 0.14076 0.05427 0.0
C568 C -0.0032 0.10074 0.08092 0.0
C569 C 0.97972 0.14698 0.09425 0.0
C570 C 0.99016 0.15973 0.117 0.0
C571 C 0.96897 0.17468 0.13267 0.0
C572 C 0.93624 0.17631 0.12503 0.0
C573 C 0.92511 0.16302 0.10196 0.0
C574 C 0.94745 0.14865 0.08624 0.0
H575 H 0.78033 0.94985 0.1253 0.0
H576 H 0.82637 0.95238 0.20259 0.0
H577 H 0.82494 0.00155 0.20152 0.0
H578 H 0.82636 0.00104 0.09813 0.0
H579 H 0.79439 0.01454 0.07784 0.0
H580 H 0.79401 0.97992 0.08664 0.0
H581 H 0.73649 0.98528 0.10686 0.0
H582 H 0.73669 0.02 0.09806 0.0
H583 H 0.72945 0.01015 0.13201 0.0
H584 H 0.8214 0.05034 0.19072 0.0
H585 H 0.82135 0.09456 0.16927 0.0
H586 H 0.78172 0.05963 0.09755 0.0
C587 C 0.78929 0.9608 0.14229 0.0
C588 C 0.80293 0.94749 0.16425 0.0
C589 C 0.81554 0.96235 0.18572 0.0
C590 C 0.81468 -0.00978 0.18532 0.0
C591 C 0.80153 0.00283 0.16314 0.0
C592 C 0.78933 -0.01142 0.1419 0.0
C593 C 0.78015 0.00672 0.11913 0.0
C594 C 0.79992 0.00016 0.09396 0.0
C595 C 0.74351 0.00546 0.11371 0.0
C596 C 0.78971 0.03334 0.13064 0.0
C597 C 0.80125 0.03078 0.15628 0.0
C598 C 0.81225 0.05261 0.17071 0.0
C599 C 0.81206 0.07764 0.1584 0.0
C600 C 0.80161 0.08045 0.13176 0.0
C601 C 0.78987 0.05804 0.11794 0.0
H602 H 0.94615 0.8337 0.16721 0.0
H603 H 0.89019 0.80903 0.09854 0.0
H604 H 0.93999 0.79239 0.07718 0.0
H605 H 0.01137 0.8584 0.13278 0.0
H606 H 0.04219 0.84735 0.1556 0.0
H607 H 0.00169 0.85345 0.1674 0.0
H608 H -0.00121 0.80554 0.18613 0.0
H609 H 0.03942 0.79928 0.17435 0.0
H610 H 0.00669 0.77777 0.16444 0.0
H611 H -0.00427 0.78567 0.06018 0.0
H612 H 0.05417 0.78778 0.04941 0.0
H613 H 0.07469 0.81418 0.12956 0.0
C614 C 0.94429 0.82416 0.14798 0.0
C615 C 0.91429 0.82259 0.13458 0.0
C616 C 0.91288 0.81034 0.10926 0.0
C617 C 0.94103 0.80073 0.09698 0.0
C618 C 0.97035 0.80314 0.11042 0.0
C619 C 0.97219 0.81427 0.13549 0.0
C620 C 0.0071 0.81656 0.14457 0.0
C621 C 0.0161 0.84566 0.15041 0.0
C622 C 0.01336 0.79871 0.16881 0.0
C623 C 0.02461 0.80619 0.12017 0.0
C624 C 0.00289 0.7983 0.10082 0.0
C625 C 0.01303 0.79101 0.0754 0.0
C626 C 0.04618 0.79231 0.06944 0.0
C627 C 0.06872 0.80053 0.08888 0.0
C628 C 0.05792 0.80691 0.11472 0.0
H629 H 0.22417 0.02243 0.11674 0.0
H630 H 0.19562 0.01602 0.19934 0.0
H631 H 0.19154 0.96707 0.19464 0.0
H632 H 0.16735 0.97808 0.09398 0.0
H633 H 0.19196 0.964 0.06787 0.0
H634 H 0.19931 -0.00259 0.07894 0.0
H635 H 0.2592 0.98565 0.08907 0.0
H636 H 0.25219 0.95222 0.07764 0.0
H637 H 0.26826 0.95788 0.11043 0.0
H638 H 0.18627 0.91947 0.17971 0.0
H639 H 0.17713 0.87741 0.15541 0.0
H640 H 0.2041 0.9162 0.08157 0.0
C641 C 0.21844 0.01049 0.13406 0.0
C642 C 0.21133 0.02254 0.15865 0.0
C643 C 0.20203 0.00678 0.1806 0.0
C644 C 0.19961 0.97908 0.17806 0.0
C645 C 0.20599 0.96774 0.15328 0.0
C646 C 0.2151 0.98299 0.13163 0.0
C647 C 0.21637 0.96661 0.10644 0.0
C648 C 0.19231 0.97716 0.08559 0.0
C649 C 0.25108 0.96552 0.09524 0.0
C650 C 0.20592 0.93987 0.11715 0.0
C651 C 0.20072 0.94076 0.14429 0.0
C652 C 0.19044 0.91851 0.15848 0.0
C653 C 0.18527 0.89476 0.14454 0.0
C654 C 0.18969 0.89368 0.11664 0.0
C655 C 0.20027 0.91653 0.10288 0.0
H656 H 0.94426 0.79592 0.84416 0.0
H657 H 0.88342 0.85786 0.81071 0.0
H658 H 0.9321 0.88313 0.79793 0.0
H659 H 0.00222 0.8372 0.87215 0.0
H660 H 0.03681 0.81665 0.86451 0.0
H661 H -0.00255 0.80178 0.86857 0.0
H662 H 0.00192 0.78061 0.82178 0.0
H663 H 0.0415 0.79525 0.81764 0.0
H664 H 0.01026 0.80144 0.79342 0.0
H665 H 0.98621 0.90462 0.79477 0.0
H666 H 0.0434 0.91902 0.79721 0.0
H667 H 0.07023 0.84227 0.82956 0.0
C668 C 0.94124 0.81449 0.83359 0.0
C669 C 0.91002 0.82487 0.82838 0.0
C670 C 0.90705 0.84939 0.81475 0.0
C671 C 0.93458 0.86394 0.80743 0.0
C672 C 0.96495 0.85353 0.81345 0.0
C673 C 0.96855 0.82915 0.82577 0.0
C674 C 0.00402 0.8231 0.83091 0.0
C675 C 0.01049 0.81948 0.86081 0.0
C676 C 0.01507 0.79865 0.81498 0.0
C677 C 0.01963 0.84828 0.8204 0.0
C678 C -0.00341 0.86556 0.81046 0.0
C679 C 0.0046 0.89105 0.80188 0.0
C680 C 0.03704 0.8991 0.80347 0.0
C681 C 0.0611 0.88159 0.81319 0.0
C682 C 0.05233 0.85576 0.82145 0.0
H683 H 0.23462 0.95409 0.83864 0.0
H684 H 0.21084 0.96408 0.75554 0.0
H685 H 0.21694 0.01276 0.76012 0.0
H686 H 0.18603 0.00244 0.8598 0.0
H687 H 0.2107 0.01438 0.88679 0.0
H688 H 0.21481 0.98066 0.87568 0.0
H689 H 0.2762 -0.01232 0.86738 0.0
H690 H 0.27251 0.02145 0.87894 0.0
H691 H 0.28961 0.01475 0.84662 0.0
H692 H 0.21575 0.05983 0.77537 0.0
H693 H 0.2048 0.10122 0.80008 0.0
H694 H 0.22509 0.0604 0.8742 0.0
C695 C 0.2326 0.96652 0.82114 0.0
C696 C 0.22345 0.95553 0.79652 0.0
C697 C 0.21881 0.97228 0.77432 0.0
C698 C 0.22222 -0.00011 0.77679 0.0
C699 C 0.22981 0.01034 0.80169 0.0
C700 C 0.23502 -0.00588 0.82351 0.0
C701 C 0.23679 0.01015 0.84893 0.0
C702 C 0.21051 0.00139 0.86895 0.0
C703 C 0.27081 0.00841 0.86119 0.0
C704 C 0.23014 0.03771 0.83822 0.0
C705 C 0.22718 0.03754 0.81086 0.0
C706 C 0.21862 0.0603 0.79673 0.0
C707 C 0.21235 0.08372 0.81096 0.0
C708 C 0.21403 0.08403 0.83908 0.0
C709 C 0.22374 0.06082 0.85271 0.0
H710 H 0.05761 0.12319 0.9001 0.0
H711 H 0.07518 0.17546 0.83295 0.0
H712 H 0.01727 0.17186 0.82037 0.0
H713 H 0.00477 0.07944 0.8673 0.0
H714 H 0.97925 0.07412 0.89595 0.0
H715 H 0.0213 0.08247 0.9003 0.0
H716 H 0.00493 0.12274 0.92956 0.0
H717 H 0.96276 0.11452 0.92529 0.0
H718 H 0.97719 0.14719 0.91659 0.0
H719 H 0.9568 0.16062 0.8145 0.0
H720 H 0.90115 0.14187 0.81532 0.0
H721 H 0.92559 0.09714 0.88626 0.0
C722 C 0.04939 0.13415 0.88286 0.0
C723 C 0.071 0.14967 0.86756 0.0
C724 C 0.05908 0.16347 0.84503 0.0
C725 C 0.02621 0.16159 0.83777 0.0
C726 C 0.00565 0.14588 0.85326 0.0
C727 C 0.01693 0.13244 0.87535 0.0
C728 C 0.99064 0.11595 0.88819 0.0
C729 C -0.00047 0.08624 0.8879 0.0
C730 C 0.98346 0.1257 0.91659 0.0
C731 C 0.96276 0.12186 0.86973 0.0
C732 C 0.97159 0.13931 0.84979 0.0
C733 C 0.94966 0.14703 0.83013 0.0
C734 C 0.9181 0.13634 0.83077 0.0
C735 C 0.90899 0.11798 0.8508 0.0
C736 C 0.93168 0.11105 0.8706 0.0
H737 H 0.82878 0.8935 0.84833 0.0
H738 H 0.72911 0.87129 0.8324 0.0
H739 H 0.7164 0.91824 0.8213 0.0
H740 H 0.81334 0.9552 0.87871 0.0
H741 H 0.84805 0.97137 0.86407 0.0
H742 H 0.8488 0.93612 0.86991 0.0
H743 H 0.86213 0.92796 0.82016 0.0
H744 H 0.86137 0.96324 0.81414 0.0
H745 H 0.83582 0.94146 0.79498 0.0
H746 H 0.71456 0.96866 0.81512 0.0
H747 H 0.72422 0.01723 0.81252 0.0
H748 H 0.82593 0.00425 0.83019 0.0
C749 C 0.80423 0.89847 0.84253 0.0
C750 C 0.77979 0.87897 0.84146 0.0
C751 C 0.74811 0.8861 0.83337 0.0
C752 C 0.74073 0.91263 0.82704 0.0
C753 C 0.76551 0.93146 0.82847 0.0
C754 C 0.79668 0.92455 0.83576 0.0
C755 C 0.8191 0.94822 0.83588 0.0
C756 C 0.83312 0.95301 0.8638 0.0
C757 C 0.8462 0.94502 0.81505 0.0
C758 C 0.79557 0.96979 0.82811 0.0
C759 C 0.76474 0.95989 0.82391 0.0
C760 C 0.7387 0.97656 0.81801 0.0
C761 C 0.74437 0.00406 0.81661 0.0
C762 C 0.77584 0.01441 0.82094 0.0
C763 C 0.80169 -0.00308 0.82639 0.0
H764 H 0.74224 0.63523 0.44765 0.0
H765 H 0.71289 0.71595 0.46488 0.0
H766 H 0.72079 0.70761 0.51298 0.0
H767 H 0.69585 0.60833 0.49466 0.0
H768 H 0.72236 0.5813 0.50361 0.0
H769 H 0.72486 0.59556 0.471 0.0
H770 H 0.78594 0.60526 0.4778 0.0
H771 H 0.78378 0.59076 0.51054 0.0
H772 H 0.79892 0.62409 0.50632 0.0
H773 H 0.72315 0.68861 0.55866 0.0
H774 H 0.71281 0.66 0.59754 0.0
H775 H 0.73506 0.59034 0.55014 0.0
C776 C 0.73918 0.65149 0.46154 0.0
C777 C 0.72813 0.67649 0.4528 0.0
C778 C 0.72225 0.69693 0.47139 0.0
C779 C 0.7268 0.69234 0.49865 0.0
C780 C 0.73666 0.66708 0.50682 0.0
C781 C 0.74256 0.64692 0.48874 0.0
C782 C 0.74616 0.62031 0.50243 0.0
C783 C 0.72079 0.60023 0.49233 0.0
C784 C 0.78077 0.60948 0.49907 0.0
C785 C 0.73968 0.62836 0.53091 0.0
C786 C 0.73557 0.65554 0.53318 0.0
C787 C 0.72687 0.66737 0.5572 0.0
C788 C 0.72108 0.65094 0.5792 0.0
C789 C 0.72313 0.62296 0.57679 0.0
C790 C 0.73357 0.61168 0.55256 0.0
H791 H 0.2501 0.64785 0.53073 0.0
H792 H 0.27712 0.72957 0.51586 0.0
H793 H 0.27113 0.72217 0.46747 0.0
H794 H 0.29841 0.62283 0.48375 0.0
H795 H 0.27286 0.59566 0.47354 0.0
H796 H 0.26915 0.60892 0.50652 0.0
H797 H 0.20805 0.61795 0.49907 0.0
H798 H 0.21132 0.60429 0.46604 0.0
H799 H 0.19528 0.63727 0.47079 0.0
H800 H 0.27117 0.70411 0.42122 0.0
H801 H 0.28126 0.67668 0.38139 0.0
H802 H 0.25906 0.60566 0.42681 0.0
C803 C 0.25294 0.66451 0.51729 0.0
C804 C 0.26286 0.68953 0.52683 0.0
C805 C 0.26853 0.71052 0.50877 0.0
C806 C 0.26518 0.70645 0.48132 0.0
C807 C 0.25665 0.68116 0.47236 0.0
C808 C 0.25064 0.6605 0.48987 0.0
C809 C 0.24802 0.6342 0.47543 0.0
C810 C 0.27364 0.61426 0.4854 0.0
C811 C 0.21361 0.62276 0.47798 0.0
C812 C 0.25498 0.64305 0.44724 0.0
C813 C 0.25884 0.67029 0.44574 0.0
C814 C 0.26765 0.68282 0.42208 0.0
C815 C 0.27336 0.66706 0.39955 0.0
C816 C 0.27098 0.63903 0.40101 0.0
C817 C 0.26092 0.62704 0.42505 0.0
H818 H 0.29825 0.28957 0.45635 0.0
H819 H 0.2084 0.32597 0.43049 0.0
H820 H 0.1997 0.34374 0.47566 0.0
H821 H 0.27064 0.27518 0.52763 0.0
H822 H 0.31062 0.28257 0.53999 0.0
H823 H 0.30581 0.26786 0.50756 0.0
H824 H 0.33907 0.30643 0.48709 0.0
H825 H 0.34334 0.32164 0.51917 0.0
H826 H 0.32579 0.3402 0.49215 0.0
H827 H 0.20771 0.36617 0.51941 0.0
H828 H 0.22785 0.38623 0.56122 0.0
H829 H 0.31074 0.33344 0.55982 0.0
C830 C 0.27603 0.30028 0.46055 0.0
C831 C 0.25395 0.30634 0.44004 0.0
C832 C 0.22541 0.32081 0.44602 0.0
C833 C 0.22035 0.33108 0.4716 0.0
C834 C 0.24365 0.32611 0.49102 0.0
C835 C 0.27047 0.31037 0.48602 0.0
C836 C 0.29346 0.31012 0.50944 0.0
C837 C 0.29522 0.28228 0.5219 0.0
C838 C 0.32739 0.32021 0.50147 0.0
C839 C 0.27643 0.32947 0.52774 0.0
C840 C 0.2476 0.33835 0.51684 0.0
C841 C 0.22962 0.35871 0.52857 0.0
C842 C 0.24129 0.37012 0.55209 0.0
C843 C 0.27042 0.36095 0.56359 0.0
C844 C 0.28798 0.34022 0.55152 0.0
H845 H 0.70293 0.37677 0.43346 0.0
H846 H 0.66996 0.30815 0.38896 0.0
H847 H 0.67184 0.28103 0.42988 0.0
H848 H 0.75784 0.33906 0.47898 0.0
H849 H 0.7482 0.36046 0.50661 0.0
H850 H 0.74793 0.37347 0.47323 0.0
H851 H 0.68877 0.38961 0.47998 0.0
H852 H 0.68881 0.3766 0.51325 0.0
H853 H 0.65814 0.3661 0.49006 0.0
H854 H 0.66832 0.26382 0.47671 0.0
H855 H 0.66459 0.25679 0.52536 0.0
H856 H 0.70419 0.33543 0.53855 0.0
C857 C 0.69676 0.3559 0.43224 0.0
C858 C 0.68623 0.34454 0.40812 0.0
C859 C 0.6783 0.31718 0.40724 0.0
C860 C 0.67928 0.30163 0.43036 0.0
C861 C 0.68899 0.31362 0.454 0.0
C862 C 0.69822 0.34 0.45498 0.0
C863 C 0.70613 0.34849 0.48306 0.0
C864 C 0.74217 0.35579 0.48561 0.0
C865 C 0.68414 0.37155 0.49211 0.0
C866 C 0.69844 0.32313 0.49791 0.0
C867 C 0.68866 0.30319 0.48083 0.0
C868 C 0.67683 0.27898 0.49024 0.0
C869 C 0.67468 0.27519 0.51783 0.0
C870 C 0.68471 0.29537 0.53553 0.0
C871 C 0.69732 0.31937 0.52539 0.0
H872 H 0.56564 0.60346 0.59472 0.0
H873 H 0.57947 0.63692 0.67336 0.0
H874 H 0.52545 0.65853 0.67036 0.0
H875 H 0.52367 0.66009 0.56612 0.0
H876 H 0.49732 0.63932 0.54656 0.0
H877 H 0.53756 0.62808 0.55471 0.0
H878 H 0.51352 0.58528 0.57563 0.0
H879 H 0.47327 0.59637 0.56758 0.0
H880 H 0.48328 0.58807 0.60143 0.0
H881 H 0.46742 0.67358 0.65931 0.0
H882 H 0.41251 0.6815 0.64107 0.0
H883 H 0.43939 0.63855 0.56951 0.0
C884 C 0.55753 0.61545 0.61134 0.0
C885 C 0.5767 0.6184 0.63436 0.0
C886 C 0.56518 0.63444 0.65551 0.0
C887 C 0.53456 0.64675 0.65396 0.0
C888 C 0.5161 0.64305 0.63102 0.0
C889 C 0.52743 0.62794 0.61003 0.0
C890 C 0.50298 0.62625 0.58781 0.0
C891 C 0.51618 0.63921 0.5623 0.0
C892 C 0.49266 0.59728 0.58285 0.0
C893 C 0.47568 0.64235 0.59967 0.0
C894 C 0.48354 0.652 0.62456 0.0
C895 C 0.46122 0.66636 0.63971 0.0
C896 C 0.43009 0.67074 0.6292 0.0
C897 C 0.42164 0.66079 0.60377 0.0
C898 C 0.44504 0.64671 0.58886 0.0
H899 H 0.304 0.58499 0.63511 0.0
H900 H 0.25074 0.5817 0.56104 0.0
H901 H 0.22964 0.53726 0.57328 0.0
H902 H 0.33066 0.51933 0.63217 0.0
H903 H 0.329 0.51369 0.66753 0.0
H904 H 0.33524 0.54672 0.65494 0.0
H905 H 0.28529 0.56312 0.68175 0.0
H906 H 0.27873 0.52997 0.69421 0.0
H907 H 0.24659 0.54716 0.67713 0.0
H908 H 0.2169 0.4924 0.59251 0.0
H909 H 0.22057 0.448 0.61315 0.0
H910 H 0.28587 0.47938 0.67281 0.0
C911 C 0.28733 0.57509 0.62178 0.0
C912 C 0.27851 0.58674 0.59736 0.0
C913 C 0.25756 0.573 0.57991 0.0
C914 C 0.24527 0.54794 0.58682 0.0
C915 C 0.25456 0.53686 0.61105 0.0
C916 C 0.27555 0.54983 0.62805 0.0
C917 C 0.28528 0.53225 0.6511 0.0
C918 C 0.32222 0.52772 0.65143 0.0
C919 C 0.27324 0.54382 0.67762 0.0
C920 C 0.26716 0.5071 0.64407 0.0
C921 C 0.24878 0.51042 0.62136 0.0
C922 C 0.231 0.48962 0.61041 0.0
C923 C 0.23308 0.4645 0.62236 0.0
C924 C 0.25344 0.46037 0.64461 0.0
C925 C 0.2699 0.48212 0.65597 0.0
H926 H 0.52728 0.29037 0.63069 0.0
H927 H 0.58292 0.35404 0.66672 0.0
H928 H 0.53237 0.37816 0.67661 0.0
H929 H 0.47109 0.33007 0.59881 0.0
H930 H 0.43648 0.30892 0.60439 0.0
H931 H 0.47652 0.29479 0.60312 0.0
H932 H 0.46802 0.27399 0.64973 0.0
H933 H 0.42778 0.28795 0.65109 0.0
H934 H 0.45636 0.29494 0.6772 0.0
H935 H 0.47768 0.39841 0.67636 0.0
H936 H 0.42089 0.41219 0.66895 0.0
H937 H 0.39919 0.33482 0.63577 0.0
C938 C 0.52874 0.30907 0.64125 0.0
C939 C 0.55906 0.32028 0.64799 0.0
C940 C 0.56 0.34497 0.66148 0.0
C941 C 0.5314 0.35884 0.66722 0.0
C942 C 0.50198 0.3476 0.65971 0.0
C943 C 0.50031 0.32311 0.64738 0.0
C944 C 0.46564 0.31634 0.63998 0.0
C945 C 0.46225 0.31231 0.60979 0.0
C946 C 0.45375 0.29185 0.65543 0.0
C947 C 0.44833 0.34131 0.64914 0.0
C948 C 0.46983 0.35901 0.66056 0.0
C949 C 0.46042 0.38449 0.66813 0.0
C950 C 0.42825 0.39218 0.66378 0.0
C951 C 0.40582 0.37434 0.65232 0.0
C952 C 0.4158 0.34846 0.64529 0.0
H953 H 0.65514 0.50153 0.6467 0.0
H954 H 0.75361 0.50938 0.67578 0.0
H955 H 0.76164 0.46084 0.67023 0.0
H956 H 0.63684 0.43865 0.6765 0.0
H957 H 0.61381 0.42715 0.64838 0.0
H958 H 0.61599 0.46214 0.65557 0.0
H959 H 0.63749 0.47105 0.6079 0.0
H960 H 0.63553 0.43607 0.6006 0.0
H961 H 0.67316 0.45379 0.59634 0.0
H962 H 0.75778 0.41091 0.66225 0.0
H963 H 0.74321 0.3645 0.65096 0.0
H964 H 0.64846 0.39115 0.6248 0.0
C965 C 0.67834 0.49306 0.65213 0.0
C966 C 0.70371 0.50909 0.66189 0.0
C967 C 0.73386 0.49733 0.66836 0.0
C968 C 0.73861 0.46985 0.66526 0.0
C969 C 0.71306 0.45463 0.6554 0.0
C970 C 0.6836 0.46592 0.6488 0.0
C971 C 0.66025 0.44558 0.63789 0.0
C972 C 0.62994 0.44325 0.65565 0.0
C973 C 0.65109 0.45201 0.60897 0.0
C974 C 0.68102 0.42095 0.63951 0.0
C975 C 0.71133 0.42643 0.64982 0.0
C976 C 0.73421 0.40645 0.65398 0.0
C977 C 0.72575 0.38021 0.64753 0.0
C978 C 0.69486 0.37437 0.63678 0.0
C979 C 0.67243 0.39508 0.6326 0.0
H980 H 0.412 0.37847 0.38094 0.0
H981 H 0.39507 0.31458 0.32476 0.0
H982 H 0.45089 0.32007 0.3073 0.0
H983 H 0.46121 0.41949 0.33697 0.0
H984 H 0.48732 0.43021 0.36356 0.0
H985 H 0.44562 0.42194 0.3704 0.0
H986 H 0.46413 0.38782 0.4059 0.0
H987 H 0.50581 0.39599 0.39921 0.0
H988 H 0.49236 0.36203 0.39669 0.0
H989 H 0.51053 0.33077 0.29852 0.0
H990 H 0.56751 0.3464 0.29858 0.0
H991 H 0.54304 0.40397 0.3597 0.0
C992 C 0.41987 0.36569 0.36484 0.0
C993 C 0.39923 0.34603 0.35428 0.0
C994 C 0.41048 0.32983 0.33312 0.0
C995 C 0.44212 0.33281 0.32308 0.0
C996 C 0.46195 0.35227 0.3342 0.0
C997 C 0.45107 0.36856 0.35448 0.0
C998 C 0.47712 0.38752 0.36359 0.0
C999 C 0.46722 0.4165 0.3583 0.0
C1000 C 0.48534 0.38305 0.39309 0.0
C1001 C 0.50467 0.37905 0.34567 0.0
C1002 C 0.4956 0.35876 0.32878 0.0
C1003 C 0.51776 0.34689 0.31144 0.0
C1004 C 0.55005 0.35587 0.31162 0.0
C1005 C 0.55974 0.37653 0.329 0.0
C1006 C 0.53647 0.38837 0.3459 0.0
H1007 H 0.70009 0.46984 0.3008 0.0
H1008 H 0.75422 0.43194 0.36403 0.0
H1009 H 0.76434 0.47582 0.38439 0.0
H1010 H 0.75034 0.53361 0.29879 0.0
H1011 H 0.71454 0.55299 0.29198 0.0
H1012 H 0.71774 0.51946 0.27965 0.0
H1013 H 0.66339 0.50788 0.30282 0.0
H1014 H 0.66028 0.54105 0.31567 0.0
H1015 H 0.65922 0.51315 0.33812 0.0
H1016 H 0.75688 0.5216 0.40306 0.0
H1017 H 0.7392 0.56699 0.41533 0.0
H1018 H 0.69328 0.57574 0.33844 0.0
C1019 C 0.71527 0.47097 0.31829 0.0
C1020 C 0.72656 0.44767 0.33079 0.0
C1021 C 0.74581 0.44965 0.35394 0.0
C1022 C 0.75154 0.47448 0.3657 0.0
C1023 C 0.73855 0.49705 0.35362 0.0
C1024 C 0.72162 0.49558 0.32998 0.0
C1025 C 0.70763 0.5223 0.32228 0.0
C1026 C 0.72353 0.53271 0.29666 0.0
C1027 C 0.67044 0.52099 0.31959 0.0
C1028 C 0.71761 0.53867 0.34607 0.0
C1029 C 0.73558 0.52383 0.36389 0.0
C1030 C 0.74382 0.5337 0.38888 0.0
C1031 C 0.73347 0.55936 0.39577 0.0
C1032 C 0.71539 0.57487 0.37762 0.0
C1033 C 0.7079 0.56452 0.35234 0.0
H1034 H 0.55682 0.6197 0.39963 0.0
H1035 H 0.58199 0.67383 0.33566 0.0
H1036 H 0.52689 0.66837 0.31685 0.0
H1037 H 0.51042 0.57474 0.36011 0.0
H1038 H 0.48127 0.56825 0.38606 0.0
H1039 H 0.52227 0.57707 0.39449 0.0
H1040 H 0.50106 0.61625 0.42315 0.0
H1041 H 0.45999 0.60751 0.41488 0.0
H1042 H 0.4746 0.64063 0.40837 0.0
H1043 H 0.46779 0.65716 0.30578 0.0
H1044 H 0.41149 0.64023 0.30278 0.0
H1045 H 0.42753 0.5925 0.37341 0.0
C1046 C 0.55082 0.63058 0.38174 0.0
C1047 C 0.57368 0.64734 0.36922 0.0
C1048 C 0.56484 0.66091 0.34563 0.0
C1049 C 0.53362 0.65794 0.33482 0.0
C1050 C 0.5117 0.64117 0.34773 0.0
C1051 C 0.52009 0.62764 0.37061 0.0
C1052 C 0.49262 0.61042 0.38055 0.0
C1053 C 0.50223 0.58088 0.38027 0.0
C1054 C 0.48141 0.61924 0.40838 0.0
C1055 C 0.46727 0.6164 0.35979 0.0
C1056 C 0.47851 0.63426 0.34104 0.0
C1057 C 0.45885 0.64307 0.3203 0.0
C1058 C 0.42691 0.63336 0.31876 0.0
C1059 C 0.41513 0.6149 0.33774 0.0
C1060 C 0.4358 0.60637 0.35839 0.0
H1061 H 0.28666 0.40546 0.31978 0.0
H1062 H 0.21323 0.40799 0.38131 0.0
H1063 H 0.19857 0.45375 0.36781 0.0
H1064 H 0.31654 0.46585 0.3336 0.0
H1065 H 0.32685 0.47539 0.30009 0.0
H1066 H 0.32497 0.44087 0.30884 0.0
H1067 H 0.28326 0.43256 0.27133 0.0
H1068 H 0.28516 0.4672 0.2623 0.0
H1069 H 0.24665 0.45212 0.27008 0.0
H1070 H 0.1978 0.501 0.35245 0.0
H1071 H 0.21468 0.54654 0.34024 0.0
H1072 H 0.29228 0.51422 0.29178 0.0
C1073 C 0.26642 0.41528 0.32943 0.0
C1074 C 0.25027 0.40317 0.35093 0.0
C1075 C 0.22522 0.41692 0.36433 0.0
C1076 C 0.21673 0.44282 0.35673 0.0
C1077 C 0.23393 0.45473 0.33599 0.0
C1078 C 0.25841 0.44141 0.3226 0.0
C1079 C 0.27735 0.46001 0.30472 0.0
C1080 C 0.31354 0.46056 0.31229 0.0
C1081 C 0.27282 0.45252 0.27536 0.0
C1082 C 0.26078 0.48607 0.3111 0.0
C1083 C 0.23504 0.48251 0.3284 0.0
C1084 C 0.21755 0.50398 0.33856 0.0
C1085 C 0.22726 0.52977 0.3315 0.0
C1086 C 0.25471 0.53376 0.31505 0.0
C1087 C 0.27103 0.51162 0.30421 0.0
loop_
_geom_bond_atom_site_label_1
_geom_bond_atom_site_label_2
_geom_bond_distance
_geom_bond_site_symmetry_2
_ccdc_geom_bond_type
C0 O1 1.306 . S
C0 O3 1.160 . S
O1 C0 1.306 . S
O1 Cd2 2.228 . S
Cd2 O1 2.228 . S
Cd2 O6 2.273 . S
Cd2 O10 2.277 . S
O3 C0 1.160 . S
O3 Cd4 2.203 . S
Cd4 O3 2.203 . S
Cd4 O6 2.411 . S
Cd4 O7 2.333 . S
Cd4 O8 2.352 . S
Cd4 O12 2.277 . S
Cd4 O13 2.356 . S
C5 O10 1.209 . S
C5 O12 1.226 . S
O6 Cd2 2.273 . S
O6 Cd4 2.411 . S
O6 C9 1.320 . S
O7 Cd4 2.333 . S
O7 C9 1.214 . S
O8 Cd4 2.352 . S
O8 C11 1.258 . S
C9 O6 1.320 . S
C9 O7 1.214 . S
O10 Cd2 2.277 . S
O10 C5 1.209 . S
C11 O8 1.258 . S
C11 O13 1.282 . S
O12 Cd4 2.277 . S
O12 C5 1.226 . S
O13 Cd4 2.356 . S
O13 C11 1.282 . S
C14 O15 1.306 . S
C14 O17 1.160 . S
O15 C14 1.306 . S
O15 Cd16 2.228 . S
Cd16 O15 2.228 . S
Cd16 O20 2.273 . S
Cd16 O24 2.277 . S
O17 C14 1.160 . S
O17 Cd18 2.203 . S
Cd18 O17 2.203 . S
Cd18 O20 2.411 . S
Cd18 O21 2.333 . S
Cd18 O22 2.352 . S
Cd18 O26 2.277 . S
Cd18 O27 2.356 . S
C19 O24 1.209 . S
C19 O26 1.226 . S
O20 Cd16 2.273 . S
O20 Cd18 2.411 . S
O20 C23 1.320 . S
O21 Cd18 2.333 . S
O21 C23 1.214 . S
O22 Cd18 2.352 . S
O22 C25 1.258 . S
C23 O20 1.320 . S
C23 O21 1.214 . S
O24 Cd16 2.277 . S
O24 C19 1.209 . S
C25 O22 1.258 . S
C25 O27 1.282 . S
O26 Cd18 2.277 . S
O26 C19 1.226 . S
O27 Cd18 2.356 . S
O27 C25 1.282 . S
C28 O29 1.306 . S
C28 O31 1.160 . S
O29 C28 1.306 . S
O29 Cd30 2.228 . S
Cd30 O29 2.228 . S
Cd30 O34 2.273 . S
Cd30 O38 2.277 . S
O31 C28 1.160 . S
O31 Cd32 2.203 . S
Cd32 O31 2.203 . S
Cd32 O34 2.411 . S
Cd32 O35 2.333 . S
Cd32 O36 2.352 . S
Cd32 O40 2.277 . S
Cd32 O41 2.356 . S
C33 O38 1.209 . S
C33 O40 1.226 . S
O34 Cd30 2.273 . S
O34 Cd32 2.411 . S
O34 C37 1.320 . S
O35 Cd32 2.333 . S
O35 C37 1.214 . S
O36 Cd32 2.352 . S
O36 C39 1.258 . S
C37 O34 1.320 . S
C37 O35 1.214 . S
O38 Cd30 2.277 . S
O38 C33 1.209 . S
C39 O36 1.258 . S
C39 O41 1.282 . S
O40 Cd32 2.277 . S
O40 C33 1.226 . S
O41 Cd32 2.356 . S
O41 C39 1.282 . S
C42 O43 1.306 . S
C42 O45 1.160 . S
O43 C42 1.306 . S
O43 Cd44 2.228 . S
Cd44 O43 2.228 . S
Cd44 O48 2.273 . S
Cd44 O52 2.277 . S
O45 C42 1.160 . S
O45 Cd46 2.203 . S
Cd46 O45 2.203 . S
Cd46 O48 2.411 . S
Cd46 O49 2.333 . S
Cd46 O50 2.352 . S
Cd46 O54 2.277 . S
Cd46 O55 2.356 . S
C47 O52 1.209 . S
C47 O54 1.226 . S
O48 Cd44 2.273 . S
O48 Cd46 2.411 . S
O48 C51 1.320 . S
O49 Cd46 2.333 . S
O49 C51 1.214 . S
O50 Cd46 2.352 . S
O50 C53 1.258 . S
C51 O48 1.320 . S
C51 O49 1.214 . S
O52 Cd44 2.277 . S
O52 C47 1.209 . S
C53 O50 1.258 . S
C53 O55 1.282 . S
O54 Cd46 2.277 . S
O54 C47 1.226 . S
O55 Cd46 2.356 . S
O55 C53 1.282 . S
C56 O57 1.306 . S
C56 O59 1.160 . S
O57 C56 1.306 . S
O57 Cd58 2.228 . S
Cd58 O57 2.228 . S
Cd58 O62 2.273 . S
Cd58 O66 2.277 . S
O59 C56 1.160 . S
O59 Cd60 2.203 . S
Cd60 O59 2.203 . S
Cd60 O62 2.411 . S
Cd60 O63 2.333 . S
Cd60 O64 2.352 . S
Cd60 O68 2.277 . S
Cd60 O69 2.356 . S
C61 O66 1.209 . S
C61 O68 1.226 . S
O62 Cd58 2.273 . S
O62 Cd60 2.411 . S
O62 C65 1.320 . S
O63 Cd60 2.333 . S
O63 C65 1.214 . S
O64 Cd60 2.352 . S
O64 C67 1.258 . S
C65 O62 1.320 . S
C65 O63 1.214 . S
O66 Cd58 2.277 . S
O66 C61 1.209 . S
C67 O64 1.258 . S
C67 O69 1.282 . S
O68 Cd60 2.277 . S
O68 C61 1.226 . S
O69 Cd60 2.356 . S
O69 C67 1.282 . S
C70 O71 1.306 . S
C70 O73 1.160 . S
O71 C70 1.306 . S
O71 Cd72 2.228 . S
Cd72 O71 2.228 . S
Cd72 O76 2.273 . S
Cd72 O80 2.277 . S
O73 C70 1.160 . S
O73 Cd74 2.203 . S
Cd74 O73 2.203 . S
Cd74 O76 2.411 . S
Cd74 O77 2.333 . S
Cd74 O78 2.352 . S
Cd74 O82 2.277 . S
Cd74 O83 2.356 . S
C75 O80 1.209 . S
C75 O82 1.226 . S
O76 Cd72 2.273 . S
O76 Cd74 2.411 . S
O76 C79 1.320 . S
O77 Cd74 2.333 . S
O77 C79 1.214 . S
O78 Cd74 2.352 . S
O78 C81 1.258 . S
C79 O76 1.320 . S
C79 O77 1.214 . S
O80 Cd72 2.277 . S
O80 C75 1.209 . S
C81 O78 1.258 . S
C81 O83 1.282 . S
O82 Cd74 2.277 . S
O82 C75 1.226 . S
O83 Cd74 2.356 . S
O83 C81 1.282 . S
C84 O85 1.306 . S
C84 O87 1.160 . S
O85 C84 1.306 . S
O85 Cd86 2.228 . S
Cd86 O85 2.228 . S
Cd86 O90 2.273 . S
Cd86 O94 2.277 . S
O87 C84 1.160 . S
O87 Cd88 2.203 . S
Cd88 O87 2.203 . S
Cd88 O90 2.411 . S
Cd88 O91 2.333 . S
Cd88 O92 2.352 . S
Cd88 O96 2.277 . S
Cd88 O97 2.356 . S
C89 O94 1.209 . S
C89 O96 1.226 . S
O90 Cd86 2.273 . S
O90 Cd88 2.411 . S
O90 C93 1.320 . S
O91 Cd88 2.333 . S
O91 C93 1.214 . S
O92 Cd88 2.352 . S
O92 C95 1.258 . S
C93 O90 1.320 . S
C93 O91 1.214 . S
O94 Cd86 2.277 . S
O94 C89 1.209 . S
C95 O92 1.258 . S
C95 O97 1.282 . S
O96 Cd88 2.277 . S
O96 C89 1.226 . S
O97 Cd88 2.356 . S
O97 C95 1.282 . S
C98 O99 1.306 . S
C98 O101 1.160 . S
O99 C98 1.306 . S
O99 Cd100 2.228 . S
Cd100 O99 2.228 . S
Cd100 O104 2.273 . S
Cd100 O108 2.277 . S
O101 C98 1.160 . S
O101 Cd102 2.203 . S
Cd102 O101 2.203 . S
Cd102 O104 2.411 . S
Cd102 O105 2.333 . S
Cd102 O106 2.352 . S
Cd102 O110 2.277 . S
Cd102 O111 2.356 . S
C103 O108 1.209 . S
C103 O110 1.226 . S
O104 Cd100 2.273 . S
O104 Cd102 2.411 . S
O104 C107 1.320 . S
O105 Cd102 2.333 . S
O105 C107 1.214 . S
O106 Cd102 2.352 . S
O106 C109 1.258 . S
C107 O104 1.320 . S
C107 O105 1.214 . S
O108 Cd100 2.277 . S
O108 C103 1.209 . S
C109 O106 1.258 . S
C109 O111 1.282 . S
O110 Cd102 2.277 . S
O110 C103 1.226 . S
O111 Cd102 2.356 . S
O111 C109 1.282 . S
C112 O113 1.306 . S
C112 O115 1.160 . S
O113 C112 1.306 . S
O113 Cd114 2.228 . S
Cd114 O113 2.228 . S
Cd114 O118 2.273 . S
Cd114 O122 2.277 . S
O115 C112 1.160 . S
O115 Cd116 2.203 . S
Cd116 O115 2.203 . S
Cd116 O118 2.411 . S
Cd116 O119 2.333 . S
Cd116 O120 2.352 . S
Cd116 O124 2.277 . S
Cd116 O125 2.356 . S
C117 O122 1.209 . S
C117 O124 1.226 . S
O118 Cd114 2.273 . S
O118 Cd116 2.411 . S
O118 C121 1.320 . S
O119 Cd116 2.333 . S
O119 C121 1.214 . S
O120 Cd116 2.352 . S
O120 C123 1.258 . S
C121 O118 1.320 . S
C121 O119 1.214 . S
O122 Cd114 2.277 . S
O122 C117 1.209 . S
C123 O120 1.258 . S
C123 O125 1.282 . S
O124 Cd116 2.277 . S
O124 C117 1.226 . S
O125 Cd116 2.356 . S
O125 C123 1.282 . S
C126 O127 1.306 . S
C126 O129 1.160 . S
O127 C126 1.306 . S
O127 Cd128 2.228 . S
Cd128 O127 2.228 . S
Cd128 O132 2.273 . S
Cd128 O136 2.277 . S
O129 C126 1.160 . S
O129 Cd130 2.203 . S
Cd130 O129 2.203 . S
Cd130 O132 2.411 . S
Cd130 O133 2.333 . S
Cd130 O134 2.352 . S
Cd130 O138 2.277 . S
Cd130 O139 2.356 . S
C131 O136 1.209 . S
C131 O138 1.226 . S
O132 Cd128 2.273 . S
O132 Cd130 2.411 . S
O132 C135 1.320 . S
O133 Cd130 2.333 . S
O133 C135 1.214 . S
O134 Cd130 2.352 . S
O134 C137 1.258 . S
C135 O132 1.320 . S
C135 O133 1.214 . S
O136 Cd128 2.277 . S
O136 C131 1.209 . S
C137 O134 1.258 . S
C137 O139 1.282 . S
O138 Cd130 2.277 . S
O138 C131 1.226 . S
O139 Cd130 2.356 . S
O139 C137 1.282 . S
C140 O141 1.306 . S
C140 O143 1.160 . S
O141 C140 1.306 . S
O141 Cd142 2.228 . S
Cd142 O141 2.228 . S
Cd142 O146 2.273 . S
Cd142 O150 2.277 . S
O143 C140 1.160 . S
O143 Cd144 2.203 . S
Cd144 O143 2.203 . S
Cd144 O146 2.411 . S
Cd144 O147 2.333 . S
Cd144 O148 2.352 . S
Cd144 O152 2.277 . S
Cd144 O153 2.356 . S
C145 O150 1.209 . S
C145 O152 1.226 . S
O146 Cd142 2.273 . S
O146 Cd144 2.411 . S
O146 C149 1.320 . S
O147 Cd144 2.333 . S
O147 C149 1.214 . S
O148 Cd144 2.352 . S
O148 C151 1.258 . S
C149 O146 1.320 . S
C149 O147 1.214 . S
O150 Cd142 2.277 . S
O150 C145 1.209 . S
C151 O148 1.258 . S
C151 O153 1.282 . S
O152 Cd144 2.277 . S
O152 C145 1.226 . S
O153 Cd144 2.356 . S
O153 C151 1.282 . S
C154 O155 1.306 . S
C154 O157 1.160 . S
O155 C154 1.306 . S
O155 Cd156 2.228 . S
Cd156 O155 2.228 . S
Cd156 O160 2.273 . S
Cd156 O164 2.277 . S
O157 C154 1.160 . S
O157 Cd158 2.203 . S
Cd158 O157 2.203 . S
Cd158 O160 2.411 . S
Cd158 O161 2.333 . S
Cd158 O162 2.352 . S
Cd158 O166 2.277 . S
Cd158 O167 2.356 . S
C159 O164 1.209 . S
C159 O166 1.226 . S
O160 Cd156 2.273 . S
O160 Cd158 2.411 . S
O160 C163 1.320 . S
O161 Cd158 2.333 . S
O161 C163 1.214 . S
O162 Cd158 2.352 . S
O162 C165 1.258 . S
C163 O160 1.320 . S
C163 O161 1.214 . S
O164 Cd156 2.277 . S
O164 C159 1.209 . S
C165 O162 1.258 . S
C165 O167 1.282 . S
O166 Cd158 2.277 . S
O166 C159 1.226 . S
O167 Cd158 2.356 . S
O167 C165 1.282 . S
C168 O169 1.306 . S
C168 O171 1.160 . S
O169 C168 1.306 . S
O169 Cd170 2.228 . S
Cd170 O169 2.228 . S
Cd170 O174 2.273 . S
Cd170 O178 2.277 . S
O171 C168 1.160 . S
O171 Cd172 2.203 . S
Cd172 O171 2.203 . S
Cd172 O174 2.411 . S
Cd172 O175 2.333 . S
Cd172 O176 2.352 . S
Cd172 O180 2.277 . S
Cd172 O181 2.356 . S
C173 O178 1.209 . S
C173 O180 1.226 . S
O174 Cd170 2.273 . S
O174 Cd172 2.411 . S
O174 C177 1.320 . S
O175 Cd172 2.333 . S
O175 C177 1.214 . S
O176 Cd172 2.352 . S
O176 C179 1.258 . S
C177 O174 1.320 . S
C177 O175 1.214 . S
O178 Cd170 2.277 . S
O178 C173 1.209 . S
C179 O176 1.258 . S
C179 O181 1.282 . S
O180 Cd172 2.277 . S
O180 C173 1.226 . S
O181 Cd172 2.356 . S
O181 C179 1.282 . S
C182 O183 1.306 . S
C182 O185 1.160 . S
O183 C182 1.306 . S
O183 Cd184 2.228 . S
Cd184 O183 2.228 . S
Cd184 O188 2.273 . S
Cd184 O192 2.277 . S
O185 C182 1.160 . S
O185 Cd186 2.203 . S
Cd186 O185 2.203 . S
Cd186 O188 2.411 . S
Cd186 O189 2.333 . S
Cd186 O190 2.352 . S
Cd186 O194 2.277 . S
Cd186 O195 2.356 . S
C187 O192 1.209 . S
C187 O194 1.226 . S
O188 Cd184 2.273 . S
O188 Cd186 2.411 . S
O188 C191 1.320 . S
O189 Cd186 2.333 . S
O189 C191 1.214 . S
O190 Cd186 2.352 . S
O190 C193 1.258 . S
C191 O188 1.320 . S
C191 O189 1.214 . S
O192 Cd184 2.277 . S
O192 C187 1.209 . S
C193 O190 1.258 . S
C193 O195 1.282 . S
O194 Cd186 2.277 . S
O194 C187 1.226 . S
O195 Cd186 2.356 . S
O195 C193 1.282 . S
C196 O197 1.306 . S
C196 O199 1.160 . S
O197 C196 1.306 . S
O197 Cd198 2.228 . S
Cd198 O197 2.228 . S
Cd198 O202 2.273 . S
Cd198 O206 2.277 . S
O199 C196 1.160 . S
O199 Cd200 2.203 . S
Cd200 O199 2.203 . S
Cd200 O202 2.411 . S
Cd200 O203 2.333 . S
Cd200 O204 2.352 . S
Cd200 O208 2.277 . S
Cd200 O209 2.356 . S
C201 O206 1.209 . S
C201 O208 1.226 . S
O202 Cd198 2.273 . S
O202 Cd200 2.411 . S
O202 C205 1.320 . S
O203 Cd200 2.333 . S
O203 C205 1.214 . S
O204 Cd200 2.352 . S
O204 C207 1.258 . S
C205 O202 1.320 . S
C205 O203 1.214 . S
O206 Cd198 2.277 . S
O206 C201 1.209 . S
C207 O204 1.258 . S
C207 O209 1.282 . S
O208 Cd200 2.277 . S
O208 C201 1.226 . S
O209 Cd200 2.356 . S
O209 C207 1.282 . S
C210 O211 1.306 . S
C210 O213 1.160 . S
O211 C210 1.306 . S
O211 Cd212 2.228 . S
Cd212 O211 2.228 . S
Cd212 O216 2.273 . S
Cd212 O220 2.277 . S
O213 C210 1.160 . S
O213 Cd214 2.203 . S
Cd214 O213 2.203 . S
Cd214 O216 2.411 . S
Cd214 O217 2.333 . S
Cd214 O218 2.352 . S
Cd214 O222 2.277 . S
Cd214 O223 2.356 . S
C215 O220 1.209 . S
C215 O222 1.226 . S
O216 Cd212 2.273 . S
O216 Cd214 2.411 . S
O216 C219 1.320 . S
O217 Cd214 2.333 . S
O217 C219 1.214 . S
O218 Cd214 2.352 . S
O218 C221 1.258 . S
C219 O216 1.320 . S
C219 O217 1.214 . S
O220 Cd212 2.277 . S
O220 C215 1.209 . S
C221 O218 1.258 . S
C221 O223 1.282 . S
O222 Cd214 2.277 . S
O222 C215 1.226 . S
O223 Cd214 2.356 . S
O223 C221 1.282 . S
H224 C236 0.930 . S
H225 C238 0.930 . S
H226 C239 0.930 . S
H227 C243 0.959 . S
H228 C243 0.959 . S
H229 C243 0.961 . S
H230 C244 0.960 . S
H231 C244 0.961 . S
H232 C244 0.959 . S
H233 C247 0.929 . S
H234 C248 0.931 . S
H235 C250 0.930 . S
C236 H224 0.930 . S
C236 C237 1.399 . S
C236 C241 1.399 . S
C237 C236 1.399 . S
C237 C238 1.376 . S
C238 H225 0.930 . S
C238 C237 1.376 . S
C238 C239 1.388 . S
C239 H226 0.930 . S
C239 C238 1.388 . S
C239 C240 1.390 . S
C240 C239 1.390 . S
C240 C241 1.394 . S
C240 C246 1.465 . S
C241 C236 1.399 . S
C241 C240 1.394 . S
C241 C242 1.516 . S
C242 C241 1.516 . S
C242 C243 1.502 . S
C242 C244 1.561 . S
C242 C245 1.526 . S
C243 H227 0.959 . S
C243 H228 0.959 . S
C243 H229 0.961 . S
C243 C242 1.502 . S
C244 H230 0.960 . S
C244 H231 0.961 . S
C244 H232 0.959 . S
C244 C242 1.561 . S
C245 C242 1.526 . S
C245 C246 1.396 . S
C245 C250 1.390 . S
C246 C240 1.465 . S
C246 C245 1.396 . S
C246 C247 1.399 . S
C247 H233 0.929 . S
C247 C246 1.399 . S
C247 C248 1.385 . S
C248 H234 0.931 . S
C248 C247 1.385 . S
C248 C249 1.389 . S
C249 C248 1.389 . S
C249 C250 1.387 . S
C250 H235 0.930 . S
C250 C245 1.390 . S
C250 C249 1.387 . S
H251 C263 0.930 . S
H252 C265 0.930 . S
H253 C266 0.930 . S
H254 C270 0.959 . S
H255 C270 0.959 . S
H256 C270 0.961 . S
H257 C271 0.960 . S
H258 C271 0.961 . S
H259 C271 0.959 . S
H260 C274 0.929 . S
H261 C275 0.931 . S
H262 C277 0.930 . S
C263 H251 0.930 . S
C263 C264 1.399 . S
C263 C268 1.399 . S
C264 C263 1.399 . S
C264 C265 1.376 . S
C265 H252 0.930 . S
C265 C264 1.376 . S
C265 C266 1.388 . S
C266 H253 0.930 . S
C266 C265 1.388 . S
C266 C267 1.390 . S
C267 C266 1.390 . S
C267 C268 1.394 . S
C267 C273 1.465 . S
C268 C263 1.399 . S
C268 C267 1.394 . S
C268 C269 1.516 . S
C269 C268 1.516 . S
C269 C270 1.502 . S
C269 C271 1.561 . S
C269 C272 1.526 . S
C270 H254 0.959 . S
C270 H255 0.959 . S
C270 H256 0.961 . S
C270 C269 1.502 . S
C271 H257 0.960 . S
C271 H258 0.961 . S
C271 H259 0.959 . S
C271 C269 1.561 . S
C272 C269 1.526 . S
C272 C273 1.396 . S
C272 C277 1.390 . S
C273 C267 1.465 . S
C273 C272 1.396 . S
C273 C274 1.399 . S
C274 H260 0.929 . S
C274 C273 1.399 . S
C274 C275 1.385 . S
C275 H261 0.931 . S
C275 C274 1.385 . S
C275 C276 1.389 . S
C276 C275 1.389 . S
C276 C277 1.387 . S
C277 H262 0.930 . S
C277 C272 1.390 . S
C277 C276 1.387 . S
H278 C290 0.930 . S
H279 C292 0.930 . S
H280 C293 0.930 . S
H281 C297 0.959 . S
H282 C297 0.959 . S
H283 C297 0.961 . S
H284 C298 0.960 . S
H285 C298 0.961 . S
H286 C298 0.959 . S
H287 C301 0.929 . S
H288 C302 0.931 . S
H289 C304 0.930 . S
C290 H278 0.930 . S
C290 C291 1.399 . S
C290 C295 1.399 . S
C291 C290 1.399 . S
C291 C292 1.376 . S
C292 H279 0.930 . S
C292 C291 1.376 . S
C292 C293 1.388 . S
C293 H280 0.930 . S
C293 C292 1.388 . S
C293 C294 1.390 . S
C294 C293 1.390 . S
C294 C295 1.394 . S
C294 C300 1.465 . S
C295 C290 1.399 . S
C295 C294 1.394 . S
C295 C296 1.516 . S
C296 C295 1.516 . S
C296 C297 1.502 . S
C296 C298 1.561 . S
C296 C299 1.526 . S
C297 H281 0.959 . S
C297 H282 0.959 . S
C297 H283 0.961 . S
C297 C296 1.502 . S
C298 H284 0.960 . S
C298 H285 0.961 . S
C298 H286 0.959 . S
C298 C296 1.561 . S
C299 C296 1.526 . S
C299 C300 1.396 . S
C299 C304 1.390 . S
C300 C294 1.465 . S
C300 C299 1.396 . S
C300 C301 1.399 . S
C301 H287 0.929 . S
C301 C300 1.399 . S
C301 C302 1.385 . S
C302 H288 0.931 . S
C302 C301 1.385 . S
C302 C303 1.389 . S
C303 C302 1.389 . S
C303 C304 1.387 . S
C304 H289 0.930 . S
C304 C299 1.390 . S
C304 C303 1.387 . S
H305 C317 0.930 . S
H306 C319 0.930 . S
H307 C320 0.930 . S
H308 C324 0.959 . S
H309 C324 0.959 . S
H310 C324 0.961 . S
H311 C325 0.960 . S
H312 C325 0.961 . S
H313 C325 0.959 . S
H314 C328 0.929 . S
H315 C329 0.931 . S
H316 C331 0.930 . S
C317 H305 0.930 . S
C317 C318 1.399 . S
C317 C322 1.399 . S
C318 C317 1.399 . S
C318 C319 1.376 . S
C319 H306 0.930 . S
C319 C318 1.376 . S
C319 C320 1.388 . S
C320 H307 0.930 . S
C320 C319 1.388 . S
C320 C321 1.390 . S
C321 C320 1.390 . S
C321 C322 1.394 . S
C321 C327 1.465 . S
C322 C317 1.399 . S
C322 C321 1.394 . S
C322 C323 1.516 . S
C323 C322 1.516 . S
C323 C324 1.502 . S
C323 C325 1.561 . S
C323 C326 1.526 . S
C324 H308 0.959 . S
C324 H309 0.959 . S
C324 H310 0.961 . S
C324 C323 1.502 . S
C325 H311 0.960 . S
C325 H312 0.961 . S
C325 H313 0.959 . S
C325 C323 1.561 . S
C326 C323 1.526 . S
C326 C327 1.396 . S
C326 C331 1.390 . S
C327 C321 1.465 . S
C327 C326 1.396 . S
C327 C328 1.399 . S
C328 H314 0.929 . S
C328 C327 1.399 . S
C328 C329 1.385 . S
C329 H315 0.931 . S
C329 C328 1.385 . S
C329 C330 1.389 . S
C330 C329 1.389 . S
C330 C331 1.387 . S
C331 H316 0.930 . S
C331 C326 1.390 . S
C331 C330 1.387 . S
H332 C344 0.930 . S
H333 C346 0.930 . S
H334 C347 0.930 . S
H335 C351 0.959 . S
H336 C351 0.959 . S
H337 C351 0.961 . S
H338 C352 0.960 . S
H339 C352 0.961 . S
H340 C352 0.959 . S
H341 C355 0.929 . S
H342 C356 0.931 . S
H343 C358 0.930 . S
C344 H332 0.930 . S
C344 C345 1.399 . S
C344 C349 1.399 . S
C345 C344 1.399 . S
C345 C346 1.376 . S
C346 H333 0.930 . S
C346 C345 1.376 . S
C346 C347 1.388 . S
C347 H334 0.930 . S
C347 C346 1.388 . S
C347 C348 1.390 . S
C348 C347 1.390 . S
C348 C349 1.394 . S
C348 C354 1.465 . S
C349 C344 1.399 . S
C349 C348 1.394 . S
C349 C350 1.516 . S
C350 C349 1.516 . S
C350 C351 1.502 . S
C350 C352 1.561 . S
C350 C353 1.526 . S
C351 H335 0.959 . S
C351 H336 0.959 . S
C351 H337 0.961 . S
C351 C350 1.502 . S
C352 H338 0.960 . S
C352 H339 0.961 . S
C352 H340 0.959 . S
C352 C350 1.561 . S
C353 C350 1.526 . S
C353 C354 1.396 . S
C353 C358 1.390 . S
C354 C348 1.465 . S
C354 C353 1.396 . S
C354 C355 1.399 . S
C355 H341 0.929 . S
C355 C354 1.399 . S
C355 C356 1.385 . S
C356 H342 0.931 . S
C356 C355 1.385 . S
C356 C357 1.389 . S
C357 C356 1.389 . S
C357 C358 1.387 . S
C358 H343 0.930 . S
C358 C353 1.390 . S
C358 C357 1.387 . S
H359 C371 0.930 . S
H360 C373 0.930 . S
H361 C374 0.930 . S
H362 C378 0.959 . S
H363 C378 0.959 . S
H364 C378 0.961 . S
H365 C379 0.960 . S
H366 C379 0.961 . S
H367 C379 0.959 . S
H368 C382 0.929 . S
H369 C383 0.931 . S
H370 C385 0.930 . S
C371 H359 0.930 . S
C371 C372 1.399 . S
C371 C376 1.399 . S
C372 C371 1.399 . S
C372 C373 1.376 . S
C373 H360 0.930 . S
C373 C372 1.376 . S
C373 C374 1.388 . S
C374 H361 0.930 . S
C374 C373 1.388 . S
C374 C375 1.390 . S
C375 C374 1.390 . S
C375 C376 1.394 . S
C375 C381 1.465 . S
C376 C371 1.399 . S
C376 C375 1.394 . S
C376 C377 1.516 . S
C377 C376 1.516 . S
C377 C378 1.502 . S
C377 C379 1.561 . S
C377 C380 1.526 . S
C378 H362 0.959 . S
C378 H363 0.959 . S
C378 H364 0.961 . S
C378 C377 1.502 . S
C379 H365 0.960 . S
C379 H366 0.961 . S
C379 H367 0.959 . S
C379 C377 1.561 . S
C380 C377 1.526 . S
C380 C381 1.396 . S
C380 C385 1.390 . S
C381 C375 1.465 . S
C381 C380 1.396 . S
C381 C382 1.399 . S
C382 H368 0.929 . S
C382 C381 1.399 . S
C382 C383 1.385 . S
C383 H369 0.931 . S
C383 C382 1.385 . S
C383 C384 1.389 . S
C384 C383 1.389 . S
C384 C385 1.387 . S
C385 H370 0.930 . S
C385 C380 1.390 . S
C385 C384 1.387 . S
H386 C398 0.930 . S
H387 C400 0.930 . S
H388 C401 0.930 . S
H389 C405 0.959 . S
H390 C405 0.959 . S
H391 C405 0.961 . S
H392 C406 0.960 . S
H393 C406 0.961 . S
H394 C406 0.959 . S
H395 C409 0.929 . S
H396 C410 0.931 . S
H397 C412 0.930 . S
C398 H386 0.930 . S
C398 C399 1.399 . S
C398 C403 1.399 . S
C399 C398 1.399 . S
C399 C400 1.376 . S
C400 H387 0.930 . S
C400 C399 1.376 . S
C400 C401 1.388 . S
C401 H388 0.930 . S
C401 C400 1.388 . S
C401 C402 1.390 . S
C402 C401 1.390 . S
C402 C403 1.394 . S
C402 C408 1.465 . S
C403 C398 1.399 . S
C403 C402 1.394 . S
C403 C404 1.516 . S
C404 C403 1.516 . S
C404 C405 1.502 . S
C404 C406 1.561 . S
C404 C407 1.526 . S
C405 H389 0.959 . S
C405 H390 0.959 . S
C405 H391 0.961 . S
C405 C404 1.502 . S
C406 H392 0.960 . S
C406 H393 0.961 . S
C406 H394 0.959 . S
C406 C404 1.561 . S
C407 C404 1.526 . S
C407 C408 1.396 . S
C407 C412 1.390 . S
C408 C402 1.465 . S
C408 C407 1.396 . S
C408 C409 1.399 . S
C409 H395 0.929 . S
C409 C408 1.399 . S
C409 C410 1.385 . S
C410 H396 0.931 . S
C410 C409 1.385 . S
C410 C411 1.389 . S
C411 C410 1.389 . S
C411 C412 1.387 . S
C412 H397 0.930 . S
C412 C407 1.390 . S
C412 C411 1.387 . S
H413 C425 0.930 . S
H414 C427 0.930 . S
H415 C428 0.930 . S
H416 C432 0.959 . S
H417 C432 0.959 . S
H418 C432 0.961 . S
H419 C433 0.960 . S
H420 C433 0.961 . S
H421 C433 0.959 . S
H422 C436 0.929 . S
H423 C437 0.931 . S
H424 C439 0.930 . S
C425 H413 0.930 . S
C425 C426 1.399 . S
C425 C430 1.399 . S
C426 C425 1.399 . S
C426 C427 1.376 . S
C427 H414 0.930 . S
C427 C426 1.376 . S
C427 C428 1.388 . S
C428 H415 0.930 . S
C428 C427 1.388 . S
C428 C429 1.390 . S
C429 C428 1.390 . S
C429 C430 1.394 . S
C429 C435 1.465 . S
C430 C425 1.399 . S
C430 C429 1.394 . S
C430 C431 1.516 . S
C431 C430 1.516 . S
C431 C432 1.502 . S
C431 C433 1.561 . S
C431 C434 1.526 . S
C432 H416 0.959 . S
C432 H417 0.959 . S
C432 H418 0.961 . S
C432 C431 1.502 . S
C433 H419 0.960 . S
C433 H420 0.961 . S
C433 H421 0.959 . S
C433 C431 1.561 . S
C434 C431 1.526 . S
C434 C435 1.396 . S
C434 C439 1.390 . S
C435 C429 1.465 . S
C435 C434 1.396 . S
C435 C436 1.399 . S
C436 H422 0.929 . S
C436 C435 1.399 . S
C436 C437 1.385 . S
C437 H423 0.931 . S
C437 C436 1.385 . S
C437 C438 1.389 . S
C438 C437 1.389 . S
C438 C439 1.387 . S
C439 H424 0.930 . S
C439 C434 1.390 . S
C439 C438 1.387 . S
H440 C452 0.930 . S
H441 C454 0.930 . S
H442 C455 0.930 . S
H443 C459 0.959 . S
H444 C459 0.959 . S
H445 C459 0.961 1_556 S
H446 C460 0.960 1_556 S
H447 C460 0.961 . S
H448 C460 0.959 . S
H449 C463 0.929 . S
H450 C464 0.931 . S
H451 C466 0.930 . S
C452 H440 0.930 . S
C452 C453 1.399 . S
C452 C457 1.399 . S
C453 C452 1.399 . S
C453 C454 1.376 . S
C454 H441 0.930 . S
C454 C453 1.376 . S
C454 C455 1.388 . S
C455 H442 0.930 . S
C455 C454 1.388 . S
C455 C456 1.390 . S
C456 C455 1.390 . S
C456 C457 1.394 . S
C456 C462 1.465 1_556 S
C457 C452 1.399 . S
C457 C456 1.394 . S
C457 C458 1.516 1_556 S
C458 C457 1.516 1_554 S
C458 C459 1.502 . S
C458 C460 1.561 . S
C458 C461 1.526 . S
C459 H443 0.959 . S
C459 H444 0.959 . S
C459 H445 0.961 1_554 S
C459 C458 1.502 . S
C460 H446 0.960 1_554 S
C460 H447 0.961 . S
C460 H448 0.959 . S
C460 C458 1.561 . S
C461 C458 1.526 . S
C461 C462 1.396 . S
C461 C466 1.390 . S
C462 C456 1.465 1_554 S
C462 C461 1.396 . S
C462 C463 1.399 . S
C463 H449 0.929 . S
C463 C462 1.399 . S
C463 C464 1.385 . S
C464 H450 0.931 . S
C464 C463 1.385 . S
C464 C465 1.389 . S
C465 C464 1.389 . S
C465 C466 1.387 . S
C466 H451 0.930 . S
C466 C461 1.390 . S
C466 C465 1.387 . S
H467 C479 0.930 . S
H468 C481 0.930 . S
H469 C482 0.930 . S
H470 C486 0.961 . S
H471 C486 0.938 1_554 S
H472 C486 0.982 . S
H473 C487 0.960 1_556 S
H474 C487 0.961 . S
H475 C487 0.959 . S
H476 C490 0.929 . S
H477 C491 0.931 . S
H478 C493 0.930 . S
C479 H467 0.930 . S
C479 C480 1.399 . S
C479 C484 1.399 . S
C480 C479 1.399 . S
C480 C481 1.376 . S
C481 H468 0.930 . S
C481 C480 1.376 . S
C481 C482 1.388 . S
C482 H469 0.930 . S
C482 C481 1.388 . S
C482 C483 1.390 . S
C483 C482 1.390 . S
C483 C484 1.394 . S
C483 C489 1.465 1_556 S
C484 C479 1.399 . S
C484 C483 1.394 . S
C484 C485 1.491 1_556 S
C485 C484 1.491 1_554 S
C485 C486 1.500 1_554 S
C485 C487 1.566 . S
C485 C488 1.549 . S
C486 H470 0.961 . S
C486 H471 0.938 1_556 S
C486 H472 0.982 . S
C486 C485 1.500 1_556 S
C487 H473 0.960 1_554 S
C487 H474 0.961 . S
C487 H475 0.959 . S
C487 C485 1.566 . S
C488 C485 1.549 . S
C488 C489 1.396 . S
C488 C493 1.390 . S
C489 C483 1.465 1_554 S
C489 C488 1.396 . S
C489 C490 1.399 . S
C490 H476 0.929 . S
C490 C489 1.399 . S
C490 C491 1.385 . S
C491 H477 0.931 . S
C491 C490 1.385 . S
C491 C492 1.389 . S
C492 C491 1.389 . S
C492 C493 1.387 . S
C493 H478 0.930 . S
C493 C488 1.390 . S
C493 C492 1.387 . S
H494 C506 0.930 . S
H495 C508 0.930 . S
H496 C509 0.930 . S
H497 C513 0.959 . S
H498 C513 0.959 1_554 S
H499 C513 0.961 . S
H500 C514 0.960 . S
H501 C514 0.961 1_554 S
H502 C514 0.959 1_554 S
H503 C517 0.929 . S
H504 C518 0.931 . S
H505 C520 0.930 . S
C506 H494 0.930 . S
C506 C507 1.399 . S
C506 C511 1.399 . S
C507 C506 1.399 . S
C507 C508 1.376 . S
C508 H495 0.930 . S
C508 C507 1.376 . S
C508 C509 1.388 . S
C509 H496 0.930 . S
C509 C508 1.388 . S
C509 C510 1.390 . S
C510 C509 1.390 . S
C510 C511 1.394 . S
C510 C516 1.465 1_556 S
C511 C506 1.399 . S
C511 C510 1.394 . S
C511 C512 1.516 . S
C512 C511 1.516 . S
C512 C513 1.502 . S
C512 C514 1.561 . S
C512 C515 1.526 1_556 S
C513 H497 0.959 . S
C513 H498 0.959 1_556 S
C513 H499 0.961 . S
C513 C512 1.502 . S
C514 H500 0.960 . S
C514 H501 0.961 1_556 S
C514 H502 0.959 1_556 S
C514 C512 1.561 . S
C515 C512 1.526 1_554 S
C515 C516 1.396 . S
C515 C520 1.390 . S
C516 C510 1.465 1_554 S
C516 C515 1.396 . S
C516 C517 1.399 . S
C517 H503 0.929 . S
C517 C516 1.399 . S
C517 C518 1.385 . S
C518 H504 0.931 . S
C518 C517 1.385 . S
C518 C519 1.389 . S
C519 C518 1.389 . S
C519 C520 1.387 . S
C520 H505 0.930 . S
C520 C515 1.390 . S
C520 C519 1.387 . S
H521 C533 0.930 . S
H522 C535 0.930 . S
H523 C536 0.930 . S
H524 C540 0.959 . S
H525 C540 0.959 . S
H526 C540 0.961 1_554 S
H527 C541 0.960 1_554 S
H528 C541 0.961 . S
H529 C541 0.959 . S
H530 C544 0.929 . S
H531 C545 0.931 . S
H532 C547 0.930 . S
C533 H521 0.930 . S
C533 C534 1.399 . S
C533 C538 1.399 . S
C534 C533 1.399 . S
C534 C535 1.376 . S
C535 H522 0.930 . S
C535 C534 1.376 . S
C535 C536 1.388 . S
C536 H523 0.930 . S
C536 C535 1.388 . S
C536 C537 1.390 . S
C537 C536 1.390 . S
C537 C538 1.394 . S
C537 C543 1.465 1_554 S
C538 C533 1.399 . S
C538 C537 1.394 . S
C538 C539 1.516 1_554 S
C539 C538 1.516 1_556 S
C539 C540 1.502 . S
C539 C541 1.561 . S
C539 C542 1.526 . S
C540 H524 0.959 . S
C540 H525 0.959 . S
C540 H526 0.961 1_556 S
C540 C539 1.502 . S
C541 H527 0.960 1_556 S
C541 H528 0.961 . S
C541 H529 0.959 . S
C541 C539 1.561 . S
C542 C539 1.526 . S
C542 C543 1.396 . S
C542 C547 1.390 . S
C543 C537 1.465 1_556 S
C543 C542 1.396 . S
C543 C544 1.399 . S
C544 H530 0.929 . S
C544 C543 1.399 . S
C544 C545 1.385 . S
C545 H531 0.931 . S
C545 C544 1.385 . S
C545 C546 1.389 . S
C546 C545 1.389 . S
C546 C547 1.387 . S
C547 H532 0.930 . S
C547 C542 1.390 . S
C547 C546 1.387 . S
H548 C560 0.930 . S
H549 C562 0.930 . S
H550 C563 0.930 . S
H551 C567 0.959 . S
H552 C567 0.959 . S
H553 C567 0.961 1_455 S
H554 C568 0.947 1_455 S
H555 C568 0.973 . S
H556 C568 0.960 . S
H557 C571 0.929 . S
H558 C572 0.931 . S
H559 C574 0.930 . S
C560 H548 0.930 . S
C560 C561 1.399 . S
C560 C565 1.399 . S
C561 C560 1.399 . S
C561 C562 1.376 . S
C562 H549 0.930 . S
C562 C561 1.376 . S
C562 C563 1.388 . S
C563 H550 0.930 . S
C563 C562 1.388 . S
C563 C564 1.390 . S
C564 C563 1.390 . S
C564 C565 1.394 . S
C564 C570 1.465 1_455 S
C565 C560 1.399 . S
C565 C564 1.394 . S
C565 C566 1.516 1_455 S
C566 C565 1.516 1_655 S
C566 C567 1.502 . S
C566 C568 1.562 . S
C566 C569 1.526 . S
C567 H551 0.959 . S
C567 H552 0.959 . S
C567 H553 0.961 1_655 S
C567 C566 1.502 . S
C568 H554 0.947 1_655 S
C568 H555 0.973 . S
C568 H556 0.960 . S
C568 C566 1.562 . S
C569 C566 1.526 . S
C569 C570 1.396 . S
C569 C574 1.390 . S
C570 C564 1.465 1_655 S
C570 C569 1.396 . S
C570 C571 1.399 . S
C571 H557 0.929 . S
C571 C570 1.399 . S
C571 C572 1.385 . S
C572 H558 0.931 . S
C572 C571 1.385 . S
C572 C573 1.389 . S
C573 C572 1.389 . S
C573 C574 1.387 . S
C574 H559 0.930 . S
C574 C569 1.390 . S
C574 C573 1.387 . S
H575 C587 0.930 . S
H576 C589 0.930 . S
H577 C590 0.930 . S
H578 C594 0.959 . S
H579 C594 0.959 1_545 S
H580 C594 0.961 . S
H581 C595 0.960 . S
H582 C595 0.961 1_545 S
H583 C595 0.958 1_545 S
H584 C598 0.929 . S
H585 C599 0.931 . S
H586 C601 0.930 . S
C587 H575 0.930 . S
C587 C588 1.399 . S
C587 C592 1.399 . S
C588 C587 1.399 . S
C588 C589 1.376 . S
C589 H576 0.930 . S
C589 C588 1.376 . S
C589 C590 1.388 . S
C590 H577 0.930 . S
C590 C589 1.388 . S
C590 C591 1.390 . S
C591 C590 1.390 . S
C591 C592 1.394 . S
C591 C597 1.465 1_565 S
C592 C587 1.399 . S
C592 C591 1.394 . S
C592 C593 1.516 . S
C593 C592 1.516 . S
C593 C594 1.502 . S
C593 C595 1.561 . S
C593 C596 1.526 1_565 S
C594 H578 0.959 . S
C594 H579 0.959 1_565 S
C594 H580 0.961 . S
C594 C593 1.502 . S
C595 H581 0.960 . S
C595 H582 0.961 1_565 S
C595 H583 0.958 1_565 S
C595 C593 1.561 . S
C596 C593 1.526 1_545 S
C596 C597 1.396 . S
C596 C601 1.390 . S
C597 C591 1.465 1_545 S
C597 C596 1.396 . S
C597 C598 1.399 . S
C598 H584 0.929 . S
C598 C597 1.399 . S
C598 C599 1.385 . S
C599 H585 0.931 . S
C599 C598 1.385 . S
C599 C600 1.389 . S
C600 C599 1.389 . S
C600 C601 1.387 . S
C601 H586 0.930 . S
C601 C596 1.390 . S
C601 C600 1.387 . S
H602 C614 0.930 . S
H603 C616 0.930 . S
H604 C617 0.930 . S
H605 C621 0.962 . S
H606 C621 0.988 . S
H607 C621 0.931 1_655 S
H608 C622 0.960 1_655 S
H609 C622 0.961 . S
H610 C622 0.959 . S
H611 C625 0.929 . S
H612 C626 0.931 . S
H613 C628 0.930 . S
C614 H602 0.930 . S
C614 C615 1.399 . S
C614 C619 1.399 . S
C615 C614 1.399 . S
C615 C616 1.376 . S
C616 H603 0.930 . S
C616 C615 1.376 . S
C616 C617 1.388 . S
C617 H604 0.930 . S
C617 C616 1.388 . S
C617 C618 1.390 . S
C618 C617 1.390 . S
C618 C619 1.394 . S
C618 C624 1.465 1_655 S
C619 C614 1.399 . S
C619 C618 1.394 . S
C619 C620 1.490 1_655 S
C620 C619 1.490 1_455 S
C620 C621 1.502 . S
C620 C622 1.563 . S
C620 C623 1.552 . S
C621 H605 0.962 . S
C621 H606 0.988 . S
C621 H607 0.931 1_455 S
C621 C620 1.502 . S
C622 H608 0.960 1_455 S
C622 H609 0.961 . S
C622 H610 0.959 . S
C622 C620 1.563 . S
C623 C620 1.552 . S
C623 C624 1.396 . S
C623 C628 1.390 . S
C624 C618 1.465 1_455 S
C624 C623 1.396 . S
C624 C625 1.399 . S
C625 H611 0.929 . S
C625 C624 1.399 . S
C625 C626 1.385 . S
C626 H612 0.931 . S
C626 C625 1.385 . S
C626 C627 1.389 . S
C627 C626 1.389 . S
C627 C628 1.387 . S
C628 H613 0.930 . S
C628 C623 1.390 . S
C628 C627 1.387 . S
H629 C641 0.930 . S
H630 C643 0.930 . S
H631 C644 0.930 . S
H632 C648 0.959 . S
H633 C648 0.959 1_565 S
H634 C648 0.961 . S
H635 C649 0.960 . S
H636 C649 0.961 1_565 S
H637 C649 0.959 1_565 S
H638 C652 0.929 . S
H639 C653 0.931 . S
H640 C655 0.930 . S
C641 H629 0.930 . S
C641 C642 1.399 . S
C641 C646 1.399 . S
C642 C641 1.399 . S
C642 C643 1.376 . S
C643 H630 0.930 . S
C643 C642 1.376 . S
C643 C644 1.388 . S
C644 H631 0.930 . S
C644 C643 1.388 . S
C644 C645 1.390 . S
C645 C644 1.390 . S
C645 C646 1.394 . S
C645 C651 1.465 1_545 S
C646 C641 1.399 . S
C646 C645 1.394 . S
C646 C647 1.516 . S
C647 C646 1.516 . S
C647 C648 1.502 . S
C647 C649 1.561 . S
C647 C650 1.526 1_545 S
C648 H632 0.959 . S
C648 H633 0.959 1_545 S
C648 H634 0.961 . S
C648 C647 1.502 . S
C649 H635 0.960 . S
C649 H636 0.961 1_545 S
C649 H637 0.959 1_545 S
C649 C647 1.561 . S
C650 C647 1.526 1_565 S
C650 C651 1.396 . S
C650 C655 1.390 . S
C651 C645 1.465 1_565 S
C651 C650 1.396 . S
C651 C652 1.399 . S
C652 H638 0.929 . S
C652 C651 1.399 . S
C652 C653 1.385 . S
C653 H639 0.931 . S
C653 C652 1.385 . S
C653 C654 1.389 . S
C654 C653 1.389 . S
C654 C655 1.387 . S
C655 H640 0.930 . S
C655 C650 1.390 . S
C655 C654 1.387 . S
H656 C668 0.930 . S
H657 C670 0.930 . S
H658 C671 0.930 . S
H659 C675 0.958 1_455 S
H660 C675 0.952 1_455 S
H661 C675 0.968 . S
H662 C676 0.960 1_655 S
H663 C676 0.961 . S
H664 C676 0.959 . S
H665 C679 0.929 . S
H666 C680 0.931 . S
H667 C682 0.930 . S
C668 H656 0.930 . S
C668 C669 1.399 . S
C668 C673 1.399 . S
C669 C668 1.399 . S
C669 C670 1.376 . S
C670 H657 0.930 . S
C670 C669 1.376 . S
C670 C671 1.388 . S
C671 H658 0.930 . S
C671 C670 1.388 . S
C671 C672 1.390 . S
C672 C671 1.390 . S
C672 C673 1.394 . S
C672 C678 1.465 1_655 S
C673 C668 1.399 . S
C673 C672 1.394 . S
C673 C674 1.513 1_655 S
C674 C673 1.513 1_455 S
C674 C675 1.502 1_455 S
C674 C676 1.561 . S
C674 C677 1.529 . S
C675 H659 0.958 1_655 S
C675 H660 0.952 1_655 S
C675 H661 0.968 . S
C675 C674 1.502 1_655 S
C676 H662 0.960 1_455 S
C676 H663 0.961 . S
C676 H664 0.959 . S
C676 C674 1.561 . S
C677 C674 1.529 . S
C677 C678 1.396 . S
C677 C682 1.390 . S
C678 C672 1.465 1_455 S
C678 C677 1.396 . S
C678 C679 1.399 . S
C679 H665 0.929 . S
C679 C678 1.399 . S
C679 C680 1.385 . S
C680 H666 0.931 . S
C680 C679 1.385 . S
C680 C681 1.389 . S
C681 C680 1.389 . S
C681 C682 1.387 . S
C682 H667 0.930 . S
C682 C677 1.390 . S
C682 C681 1.387 . S
H683 C695 0.930 . S
H684 C697 0.930 . S
H685 C698 0.930 . S
H686 C702 0.959 . S
H687 C702 0.959 1_545 S
H688 C702 0.961 . S
H689 C703 0.960 . S
H690 C703 0.961 1_545 S
H691 C703 0.959 . S
H692 C706 0.929 . S
H693 C707 0.931 . S
H694 C709 0.930 . S
C695 H683 0.930 . S
C695 C696 1.399 . S
C695 C700 1.399 . S
C696 C695 1.399 . S
C696 C697 1.376 . S
C697 H684 0.930 . S
C697 C696 1.376 . S
C697 C698 1.388 . S
C698 H685 0.930 . S
C698 C697 1.388 . S
C698 C699 1.390 . S
C699 C698 1.390 . S
C699 C700 1.394 . S
C699 C705 1.465 1_565 S
C700 C695 1.399 . S
C700 C699 1.394 . S
C700 C701 1.516 . S
C701 C700 1.516 . S
C701 C702 1.502 . S
C701 C703 1.561 . S
C701 C704 1.526 1_565 S
C702 H686 0.959 . S
C702 H687 0.959 1_565 S
C702 H688 0.961 . S
C702 C701 1.502 . S
C703 H689 0.960 . S
C703 H690 0.961 1_565 S
C703 H691 0.959 . S
C703 C701 1.561 . S
C704 C701 1.526 1_545 S
C704 C705 1.396 . S
C704 C709 1.390 . S
C705 C699 1.465 1_545 S
C705 C704 1.396 . S
C705 C706 1.399 . S
C706 H692 0.929 . S
C706 C705 1.399 . S
C706 C707 1.385 . S
C707 H693 0.931 . S
C707 C706 1.385 . S
C707 C708 1.389 . S
C708 C707 1.389 . S
C708 C709 1.387 . S
C709 H694 0.930 . S
C709 C704 1.390 . S
C709 C708 1.387 . S
H710 C722 0.930 . S
H711 C724 0.930 . S
H712 C725 0.930 . S
H713 C729 0.960 . S
H714 C729 0.968 . S
H715 C729 0.951 1_455 S
H716 C730 0.960 1_455 S
H717 C730 0.961 . S
H718 C730 0.959 . S
H719 C733 0.929 . S
H720 C734 0.931 . S
H721 C736 0.930 . S
C722 H710 0.930 . S
C722 C723 1.399 . S
C722 C727 1.399 . S
C723 C722 1.399 . S
C723 C724 1.376 . S
C724 H711 0.930 . S
C724 C723 1.376 . S
C724 C725 1.388 . S
C725 H712 0.930 . S
C725 C724 1.388 . S
C725 C726 1.390 . S
C726 C725 1.390 . S
C726 C727 1.394 . S
C726 C732 1.465 1_455 S
C727 C722 1.399 . S
C727 C726 1.394 . S
C727 C728 1.500 1_455 S
C728 C727 1.500 1_655 S
C728 C729 1.502 . S
C728 C730 1.562 . S
C728 C731 1.542 . S
C729 H713 0.960 . S
C729 H714 0.968 . S
C729 H715 0.951 1_655 S
C729 C728 1.502 . S
C730 H716 0.960 1_655 S
C730 H717 0.961 . S
C730 H718 0.959 . S
C730 C728 1.562 . S
C731 C728 1.542 . S
C731 C732 1.396 . S
C731 C736 1.390 . S
C732 C726 1.465 1_655 S
C732 C731 1.396 . S
C732 C733 1.399 . S
C733 H719 0.929 . S
C733 C732 1.399 . S
C733 C734 1.385 . S
C734 H720 0.931 . S
C734 C733 1.385 . S
C734 C735 1.389 . S
C735 C734 1.389 . S
C735 C736 1.387 . S
C736 H721 0.930 . S
C736 C731 1.390 . S
C736 C735 1.387 . S
H737 C749 0.930 . S
H738 C751 0.930 . S
H739 C752 0.930 . S
H740 C756 0.959 . S
H741 C756 0.959 . S
H742 C756 0.961 1_565 S
H743 C757 0.960 . S
H744 C757 0.961 1_545 S
H745 C757 0.959 . S
H746 C760 0.929 . S
H747 C761 0.931 . S
H748 C763 0.930 . S
C749 H737 0.930 . S
C749 C750 1.399 . S
C749 C754 1.399 . S
C750 C749 1.399 . S
C750 C751 1.376 . S
C751 H738 0.930 . S
C751 C750 1.376 . S
C751 C752 1.388 . S
C752 H739 0.930 . S
C752 C751 1.388 . S
C752 C753 1.390 . S
C753 C752 1.390 . S
C753 C754 1.394 . S
C753 C759 1.465 1_565 S
C754 C749 1.399 . S
C754 C753 1.394 . S
C754 C755 1.516 . S
C755 C754 1.516 . S
C755 C756 1.502 1_565 S
C755 C757 1.561 . S
C755 C758 1.526 1_565 S
C756 H740 0.959 . S
C756 H741 0.959 . S
C756 H742 0.961 1_545 S
C756 C755 1.502 1_545 S
C757 H743 0.960 . S
C757 H744 0.961 1_565 S
C757 H745 0.959 . S
C757 C755 1.561 . S
C758 C755 1.526 1_545 S
C758 C759 1.396 . S
C758 C763 1.390 . S
C759 C753 1.465 1_545 S
C759 C758 1.396 . S
C759 C760 1.399 . S
C760 H746 0.929 . S
C760 C759 1.399 . S
C760 C761 1.385 . S
C761 H747 0.931 . S
C761 C760 1.385 . S
C761 C762 1.389 . S
C762 C761 1.389 . S
C762 C763 1.387 . S
C763 H748 0.930 . S
C763 C758 1.390 . S
C763 C762 1.387 . S
H764 C776 0.930 . S
H765 C778 0.930 . S
H766 C779 0.930 . S
H767 C783 0.959 . S
H768 C783 0.959 . S
H769 C783 0.961 . S
H770 C784 0.960 . S
H771 C784 0.961 . S
H772 C784 0.959 . S
H773 C787 0.929 . S
H774 C788 0.931 . S
H775 C790 0.930 . S
C776 H764 0.930 . S
C776 C777 1.399 . S
C776 C781 1.399 . S
C777 C776 1.399 . S
C777 C778 1.376 . S
C778 H765 0.930 . S
C778 C777 1.376 . S
C778 C779 1.388 . S
C779 H766 0.930 . S
C779 C778 1.388 . S
C779 C780 1.390 . S
C780 C779 1.390 . S
C780 C781 1.394 . S
C780 C786 1.465 . S
C781 C776 1.399 . S
C781 C780 1.394 . S
C781 C782 1.516 . S
C782 C781 1.516 . S
C782 C783 1.502 . S
C782 C784 1.561 . S
C782 C785 1.526 . S
C783 H767 0.959 . S
C783 H768 0.959 . S
C783 H769 0.961 . S
C783 C782 1.502 . S
C784 H770 0.960 . S
C784 H771 0.961 . S
C784 H772 0.959 . S
C784 C782 1.561 . S
C785 C782 1.526 . S
C785 C786 1.396 . S
C785 C790 1.390 . S
C786 C780 1.465 . S
C786 C785 1.396 . S
C786 C787 1.399 . S
C787 H773 0.929 . S
C787 C786 1.399 . S
C787 C788 1.385 . S
C788 H774 0.931 . S
C788 C787 1.385 . S
C788 C789 1.389 . S
C789 C788 1.389 . S
C789 C790 1.387 . S
C790 H775 0.930 . S
C790 C785 1.390 . S
C790 C789 1.387 . S
H791 C803 0.930 . S
H792 C805 0.930 . S
H793 C806 0.930 . S
H794 C810 0.959 . S
H795 C810 0.959 . S
H796 C810 0.961 . S
H797 C811 0.960 . S
H798 C811 0.961 . S
H799 C811 0.959 . S
H800 C814 0.929 . S
H801 C815 0.931 . S
H802 C817 0.930 . S
C803 H791 0.930 . S
C803 C804 1.399 . S
C803 C808 1.399 . S
C804 C803 1.399 . S
C804 C805 1.376 . S
C805 H792 0.930 . S
C805 C804 1.376 . S
C805 C806 1.388 . S
C806 H793 0.930 . S
C806 C805 1.388 . S
C806 C807 1.390 . S
C807 C806 1.390 . S
C807 C808 1.394 . S
C807 C813 1.465 . S
C808 C803 1.399 . S
C808 C807 1.394 . S
C808 C809 1.516 . S
C809 C808 1.516 . S
C809 C810 1.502 . S
C809 C811 1.561 . S
C809 C812 1.526 . S
C810 H794 0.959 . S
C810 H795 0.959 . S
C810 H796 0.961 . S
C810 C809 1.502 . S
C811 H797 0.960 . S
C811 H798 0.961 . S
C811 H799 0.959 . S
C811 C809 1.561 . S
C812 C809 1.526 . S
C812 C813 1.396 . S
C812 C817 1.390 . S
C813 C807 1.465 . S
C813 C812 1.396 . S
C813 C814 1.399 . S
C814 H800 0.929 . S
C814 C813 1.399 . S
C814 C815 1.385 . S
C815 H801 0.931 . S
C815 C814 1.385 . S
C815 C816 1.389 . S
C816 C815 1.389 . S
C816 C817 1.387 . S
C817 H802 0.930 . S
C817 C812 1.390 . S
C817 C816 1.387 . S
H818 C830 0.930 . S
H819 C832 0.930 . S
H820 C833 0.930 . S
H821 C837 0.959 . S
H822 C837 0.959 . S
H823 C837 0.961 . S
H824 C838 0.960 . S
H825 C838 0.961 . S
H826 C838 0.959 . S
H827 C841 0.929 . S
H828 C842 0.931 . S
H829 C844 0.930 . S
C830 H818 0.930 . S
C830 C831 1.399 . S
C830 C835 1.399 . S
C831 C830 1.399 . S
C831 C832 1.376 . S
C832 H819 0.930 . S
C832 C831 1.376 . S
C832 C833 1.388 . S
C833 H820 0.930 . S
C833 C832 1.388 . S
C833 C834 1.390 . S
C834 C833 1.390 . S
C834 C835 1.394 . S
C834 C840 1.465 . S
C835 C830 1.399 . S
C835 C834 1.394 . S
C835 C836 1.516 . S
C836 C835 1.516 . S
C836 C837 1.502 . S
C836 C838 1.561 . S
C836 C839 1.526 . S
C837 H821 0.959 . S
C837 H822 0.959 . S
C837 H823 0.961 . S
C837 C836 1.502 . S
C838 H824 0.960 . S
C838 H825 0.961 . S
C838 H826 0.959 . S
C838 C836 1.561 . S
C839 C836 1.526 . S
C839 C840 1.396 . S
C839 C844 1.390 . S
C840 C834 1.465 . S
C840 C839 1.396 . S
C840 C841 1.399 . S
C841 H827 0.929 . S
C841 C840 1.399 . S
C841 C842 1.385 . S
C842 H828 0.931 . S
C842 C841 1.385 . S
C842 C843 1.389 . S
C843 C842 1.389 . S
C843 C844 1.387 . S
C844 H829 0.930 . S
C844 C839 1.390 . S
C844 C843 1.387 . S
H845 C857 0.930 . S
H846 C859 0.930 . S
H847 C860 0.930 . S
H848 C864 0.959 . S
H849 C864 0.959 . S
H850 C864 0.961 . S
H851 C865 0.960 . S
H852 C865 0.961 . S
H853 C865 0.959 . S
H854 C868 0.929 . S
H855 C869 0.931 . S
H856 C871 0.930 . S
C857 H845 0.930 . S
C857 C858 1.399 . S
C857 C862 1.399 . S
C858 C857 1.399 . S
C858 C859 1.376 . S
C859 H846 0.930 . S
C859 C858 1.376 . S
C859 C860 1.388 . S
C860 H847 0.930 . S
C860 C859 1.388 . S
C860 C861 1.390 . S
C861 C860 1.390 . S
C861 C862 1.394 . S
C861 C867 1.465 . S
C862 C857 1.399 . S
C862 C861 1.394 . S
C862 C863 1.516 . S
C863 C862 1.516 . S
C863 C864 1.502 . S
C863 C865 1.561 . S
C863 C866 1.526 . S
C864 H848 0.959 . S
C864 H849 0.959 . S
C864 H850 0.961 . S
C864 C863 1.502 . S
C865 H851 0.960 . S
C865 H852 0.961 . S
C865 H853 0.959 . S
C865 C863 1.561 . S
C866 C863 1.526 . S
C866 C867 1.396 . S
C866 C871 1.390 . S
C867 C861 1.465 . S
C867 C866 1.396 . S
C867 C868 1.399 . S
C868 H854 0.929 . S
C868 C867 1.399 . S
C868 C869 1.385 . S
C869 H855 0.931 . S
C869 C868 1.385 . S
C869 C870 1.389 . S
C870 C869 1.389 . S
C870 C871 1.387 . S
C871 H856 0.930 . S
C871 C866 1.390 . S
C871 C870 1.387 . S
H872 C884 0.930 . S
H873 C886 0.930 . S
H874 C887 0.930 . S
H875 C891 0.959 . S
H876 C891 0.959 . S
H877 C891 0.961 . S
H878 C892 0.960 . S
H879 C892 0.961 . S
H880 C892 0.959 . S
H881 C895 0.929 . S
H882 C896 0.931 . S
H883 C898 0.930 . S
C884 H872 0.930 . S
C884 C885 1.399 . S
C884 C889 1.399 . S
C885 C884 1.399 . S
C885 C886 1.376 . S
C886 H873 0.930 . S
C886 C885 1.376 . S
C886 C887 1.388 . S
C887 H874 0.930 . S
C887 C886 1.388 . S
C887 C888 1.390 . S
C888 C887 1.390 . S
C888 C889 1.394 . S
C888 C894 1.465 . S
C889 C884 1.399 . S
C889 C888 1.394 . S
C889 C890 1.516 . S
C890 C889 1.516 . S
C890 C891 1.502 . S
C890 C892 1.561 . S
C890 C893 1.526 . S
C891 H875 0.959 . S
C891 H876 0.959 . S
C891 H877 0.961 . S
C891 C890 1.502 . S
C892 H878 0.960 . S
C892 H879 0.961 . S
C892 H880 0.959 . S
C892 C890 1.561 . S
C893 C890 1.526 . S
C893 C894 1.396 . S
C893 C898 1.390 . S
C894 C888 1.465 . S
C894 C893 1.396 . S
C894 C895 1.399 . S
C895 H881 0.929 . S
C895 C894 1.399 . S
C895 C896 1.385 . S
C896 H882 0.931 . S
C896 C895 1.385 . S
C896 C897 1.389 . S
C897 C896 1.389 . S
C897 C898 1.387 . S
C898 H883 0.930 . S
C898 C893 1.390 . S
C898 C897 1.387 . S
H899 C911 0.930 . S
H900 C913 0.930 . S
H901 C914 0.930 . S
H902 C918 0.959 . S
H903 C918 0.959 . S
H904 C918 0.961 . S
H905 C919 0.960 . S
H906 C919 0.961 . S
H907 C919 0.959 . S
H908 C922 0.929 . S
H909 C923 0.931 . S
H910 C925 0.930 . S
C911 H899 0.930 . S
C911 C912 1.399 . S
C911 C916 1.399 . S
C912 C911 1.399 . S
C912 C913 1.376 . S
C913 H900 0.930 . S
C913 C912 1.376 . S
C913 C914 1.388 . S
C914 H901 0.930 . S
C914 C913 1.388 . S
C914 C915 1.390 . S
C915 C914 1.390 . S
C915 C916 1.394 . S
C915 C921 1.465 . S
C916 C911 1.399 . S
C916 C915 1.394 . S
C916 C917 1.516 . S
C917 C916 1.516 . S
C917 C918 1.502 . S
C917 C919 1.561 . S
C917 C920 1.526 . S
C918 H902 0.959 . S
C918 H903 0.959 . S
C918 H904 0.961 . S
C918 C917 1.502 . S
C919 H905 0.960 . S
C919 H906 0.961 . S
C919 H907 0.959 . S
C919 C917 1.561 . S
C920 C917 1.526 . S
C920 C921 1.396 . S
C920 C925 1.390 . S
C921 C915 1.465 . S
C921 C920 1.396 . S
C921 C922 1.399 . S
C922 H908 0.929 . S
C922 C921 1.399 . S
C922 C923 1.385 . S
C923 H909 0.931 . S
C923 C922 1.385 . S
C923 C924 1.389 . S
C924 C923 1.389 . S
C924 C925 1.387 . S
C925 H910 0.930 . S
C925 C920 1.390 . S
C925 C924 1.387 . S
H926 C938 0.930 . S
H927 C940 0.930 . S
H928 C941 0.930 . S
H929 C945 0.959 . S
H930 C945 0.959 . S
H931 C945 0.961 . S
H932 C946 0.960 . S
H933 C946 0.961 . S
H934 C946 0.959 . S
H935 C949 0.929 . S
H936 C950 0.931 . S
H937 C952 0.930 . S
C938 H926 0.930 . S
C938 C939 1.399 . S
C938 C943 1.399 . S
C939 C938 1.399 . S
C939 C940 1.376 . S
C940 H927 0.930 . S
C940 C939 1.376 . S
C940 C941 1.388 . S
C941 H928 0.930 . S
C941 C940 1.388 . S
C941 C942 1.390 . S
C942 C941 1.390 . S
C942 C943 1.394 . S
C942 C948 1.465 . S
C943 C938 1.399 . S
C943 C942 1.394 . S
C943 C944 1.516 . S
C944 C943 1.516 . S
C944 C945 1.502 . S
C944 C946 1.561 . S
C944 C947 1.526 . S
C945 H929 0.959 . S
C945 H930 0.959 . S
C945 H931 0.961 . S
C945 C944 1.502 . S
C946 H932 0.960 . S
C946 H933 0.961 . S
C946 H934 0.959 . S
C946 C944 1.561 . S
C947 C944 1.526 . S
C947 C948 1.396 . S
C947 C952 1.390 . S
C948 C942 1.465 . S
C948 C947 1.396 . S
C948 C949 1.399 . S
C949 H935 0.929 . S
C949 C948 1.399 . S
C949 C950 1.385 . S
C950 H936 0.931 . S
C950 C949 1.385 . S
C950 C951 1.389 . S
C951 C950 1.389 . S
C951 C952 1.387 . S
C952 H937 0.930 . S
C952 C947 1.390 . S
C952 C951 1.387 . S
H953 C965 0.930 . S
H954 C967 0.930 . S
H955 C968 0.930 . S
H956 C972 0.959 . S
H957 C972 0.959 . S
H958 C972 0.961 . S
H959 C973 0.960 . S
H960 C973 0.961 . S
H961 C973 0.959 . S
H962 C976 0.929 . S
H963 C977 0.931 . S
H964 C979 0.930 . S
C965 H953 0.930 . S
C965 C966 1.399 . S
C965 C970 1.399 . S
C966 C965 1.399 . S
C966 C967 1.376 . S
C967 H954 0.930 . S
C967 C966 1.376 . S
C967 C968 1.388 . S
C968 H955 0.930 . S
C968 C967 1.388 . S
C968 C969 1.390 . S
C969 C968 1.390 . S
C969 C970 1.394 . S
C969 C975 1.465 . S
C970 C965 1.399 . S
C970 C969 1.394 . S
C970 C971 1.516 . S
C971 C970 1.516 . S
C971 C972 1.502 . S
C971 C973 1.561 . S
C971 C974 1.526 . S
C972 H956 0.959 . S
C972 H957 0.959 . S
C972 H958 0.961 . S
C972 C971 1.502 . S
C973 H959 0.960 . S
C973 H960 0.961 . S
C973 H961 0.959 . S
C973 C971 1.561 . S
C974 C971 1.526 . S
C974 C975 1.396 . S
C974 C979 1.390 . S
C975 C969 1.465 . S
C975 C974 1.396 . S
C975 C976 1.399 . S
C976 H962 0.929 . S
C976 C975 1.399 . S
C976 C977 1.385 . S
C977 H963 0.931 . S
C977 C976 1.385 . S
C977 C978 1.389 . S
C978 C977 1.389 . S
C978 C979 1.387 . S
C979 H964 0.930 . S
C979 C974 1.390 . S
C979 C978 1.387 . S
H980 C992 0.930 . S
H981 C994 0.930 . S
H982 C995 0.930 . S
H983 C999 0.959 . S
H984 C999 0.959 . S
H985 C999 0.961 . S
H986 C1000 0.960 . S
H987 C1000 0.961 . S
H988 C1000 0.959 . S
H989 C1003 0.929 . S
H990 C1004 0.931 . S
H991 C1006 0.930 . S
C992 H980 0.930 . S
C992 C993 1.399 . S
C992 C997 1.399 . S
C993 C992 1.399 . S
C993 C994 1.376 . S
C994 H981 0.930 . S
C994 C993 1.376 . S
C994 C995 1.388 . S
C995 H982 0.930 . S
C995 C994 1.388 . S
C995 C996 1.390 . S
C996 C995 1.390 . S
C996 C997 1.394 . S
C996 C1002 1.465 . S
C997 C992 1.399 . S
C997 C996 1.394 . S
C997 C998 1.516 . S
C998 C997 1.516 . S
C998 C999 1.502 . S
C998 C1000 1.561 . S
C998 C1001 1.526 . S
C999 H983 0.959 . S
C999 H984 0.959 . S
C999 H985 0.961 . S
C999 C998 1.502 . S
C1000 H986 0.960 . S
C1000 H987 0.961 . S
C1000 H988 0.959 . S
C1000 C998 1.561 . S
C1001 C998 1.526 . S
C1001 C1002 1.396 . S
C1001 C1006 1.390 . S
C1002 C996 1.465 . S
C1002 C1001 1.396 . S
C1002 C1003 1.399 . S
C1003 H989 0.929 . S
C1003 C1002 1.399 . S
C1003 C1004 1.385 . S
C1004 H990 0.931 . S
C1004 C1003 1.385 . S
C1004 C1005 1.389 . S
C1005 C1004 1.389 . S
C1005 C1006 1.387 . S
C1006 H991 0.930 . S
C1006 C1001 1.390 . S
C1006 C1005 1.387 . S
H1007 C1019 0.930 . S
H1008 C1021 0.930 . S
H1009 C1022 0.930 . S
H1010 C1026 0.959 . S
H1011 C1026 0.959 . S
H1012 C1026 0.961 . S
H1013 C1027 0.960 . S
H1014 C1027 0.961 . S
H1015 C1027 0.959 . S
H1016 C1030 0.929 . S
H1017 C1031 0.931 . S
H1018 C1033 0.930 . S
C1019 H1007 0.930 . S
C1019 C1020 1.399 . S
C1019 C1024 1.399 . S
C1020 C1019 1.399 . S
C1020 C1021 1.376 . S
C1021 H1008 0.930 . S
C1021 C1020 1.376 . S
C1021 C1022 1.388 . S
C1022 H1009 0.930 . S
C1022 C1021 1.388 . S
C1022 C1023 1.390 . S
C1023 C1022 1.390 . S
C1023 C1024 1.394 . S
C1023 C1029 1.465 . S
C1024 C1019 1.399 . S
C1024 C1023 1.394 . S
C1024 C1025 1.516 . S
C1025 C1024 1.516 . S
C1025 C1026 1.502 . S
C1025 C1027 1.561 . S
C1025 C1028 1.526 . S
C1026 H1010 0.959 . S
C1026 H1011 0.959 . S
C1026 H1012 0.961 . S
C1026 C1025 1.502 . S
C1027 H1013 0.960 . S
C1027 H1014 0.961 . S
C1027 H1015 0.959 . S
C1027 C1025 1.561 . S
C1028 C1025 1.526 . S
C1028 C1029 1.396 . S
C1028 C1033 1.390 . S
C1029 C1023 1.465 . S
C1029 C1028 1.396 . S
C1029 C1030 1.399 . S
C1030 H1016 0.929 . S
C1030 C1029 1.399 . S
C1030 C1031 1.385 . S
C1031 H1017 0.931 . S
C1031 C1030 1.385 . S
C1031 C1032 1.389 . S
C1032 C1031 1.389 . S
C1032 C1033 1.387 . S
C1033 H1018 0.930 . S
C1033 C1028 1.390 . S
C1033 C1032 1.387 . S
H1034 C1046 0.930 . S
H1035 C1048 0.930 . S
H1036 C1049 0.930 . S
H1037 C1053 0.959 . S
H1038 C1053 0.959 . S
H1039 C1053 0.961 . S
H1040 C1054 0.960 . S
H1041 C1054 0.961 . S
H1042 C1054 0.959 . S
H1043 C1057 0.929 . S
H1044 C1058 0.931 . S
H1045 C1060 0.930 . S
C1046 H1034 0.930 . S
C1046 C1047 1.399 . S
C1046 C1051 1.399 . S
C1047 C1046 1.399 . S
C1047 C1048 1.376 . S
C1048 H1035 0.930 . S
C1048 C1047 1.376 . S
C1048 C1049 1.388 . S
C1049 H1036 0.930 . S
C1049 C1048 1.388 . S
C1049 C1050 1.390 . S
C1050 C1049 1.390 . S
C1050 C1051 1.394 . S
C1050 C1056 1.465 . S
C1051 C1046 1.399 . S
C1051 C1050 1.394 . S
C1051 C1052 1.516 . S
C1052 C1051 1.516 . S
C1052 C1053 1.502 . S
C1052 C1054 1.561 . S
C1052 C1055 1.526 . S
C1053 H1037 0.959 . S
C1053 H1038 0.959 . S
C1053 H1039 0.961 . S
C1053 C1052 1.502 . S
C1054 H1040 0.960 . S
C1054 H1041 0.961 . S
C1054 H1042 0.959 . S
C1054 C1052 1.561 . S
C1055 C1052 1.526 . S
C1055 C1056 1.396 . S
C1055 C1060 1.390 . S
C1056 C1050 1.465 . S
C1056 C1055 1.396 . S
C1056 C1057 1.399 . S
C1057 H1043 0.929 . S
C1057 C1056 1.399 . S
C1057 C1058 1.385 . S
C1058 H1044 0.931 . S
C1058 C1057 1.385 . S
C1058 C1059 1.389 . S
C1059 C1058 1.389 . S
C1059 C1060 1.387 . S
C1060 H1045 0.930 . S
C1060 C1055 1.390 . S
C1060 C1059 1.387 . S
H1061 C1073 0.930 . S
H1062 C1075 0.930 . S
H1063 C1076 0.930 . S
H1064 C1080 0.959 . S
H1065 C1080 0.959 . S
H1066 C1080 0.961 . S
H1067 C1081 0.960 . S
H1068 C1081 0.961 . S
H1069 C1081 0.959 . S
H1070 C1084 0.929 . S
H1071 C1085 0.931 . S
H1072 C1087 0.930 . S
C1073 H1061 0.930 . S
C1073 C1074 1.399 . S
C1073 C1078 1.399 . S
C1074 C1073 1.399 . S
C1074 C1075 1.376 . S
C1075 H1062 0.930 . S
C1075 C1074 1.376 . S
C1075 C1076 1.388 . S
C1076 H1063 0.930 . S
C1076 C1075 1.388 . S
C1076 C1077 1.390 . S
C1077 C1076 1.390 . S
C1077 C1078 1.394 . S
C1077 C1083 1.465 . S
C1078 C1073 1.399 . S
C1078 C1077 1.394 . S
C1078 C1079 1.516 . S
C1079 C1078 1.516 . S
C1079 C1080 1.502 . S
C1079 C1081 1.561 . S
C1079 C1082 1.526 . S
C1080 H1064 0.959 . S
C1080 H1065 0.959 . S
C1080 H1066 0.961 . S
C1080 C1079 1.502 . S
C1081 H1067 0.960 . S
C1081 H1068 0.961 . S
C1081 H1069 0.959 . S
C1081 C1079 1.561 . S
C1082 C1079 1.526 . S
C1082 C1083 1.396 . S
C1082 C1087 1.390 . S
C1083 C1077 1.465 . S
C1083 C1082 1.396 . S
C1083 C1084 1.399 . S
C1084 H1070 0.929 . S
C1084 C1083 1.399 . S
C1084 C1085 1.385 . S
C1085 H1071 0.931 . S
C1085 C1084 1.385 . S
C1085 C1086 1.389 . S
C1086 C1085 1.389 . S
C1086 C1087 1.387 . S
C1087 H1072 0.930 . S
C1087 C1082 1.390 . S
C1087 C1086 1.387 . S
C237 C221 1.033 . S
C249 C11 1.055 . S
C264 C179 1.052 . S
C276 C25 1.065 . S
C291 C39 1.015 . S
C303 C193 1.026 . S
C318 C207 1.065 . S
C330 C53 1.055 . S
C345 C137 1.021 . S
C357 C67 1.017 . S
C372 C81 1.015 . S
C384 C151 1.029 . S
C399 C95 1.036 . S
C411 C165 1.018 . S
C426 C109 1.015 . S
C438 C123 1.025 . S
C453 C79 1.418 . S
C465 C5 1.476 . S
C480 C89 1.476 . S
C492 C23 1.447 . S
C507 C107 1.476 . S
C519 C33 1.478 . S
C534 C51 1.419 . S
C546 C61 1.476 . S
C561 C0 1.523 . S
C573 C14 1.553 . S
C588 C37 1.477 . S
C600 C19 1.478 . S
C615 C28 1.493 . S
C627 C42 1.499 . S
C642 C9 1.475 . S
C654 C47 1.478 . S
C669 C98 1.504 . S
C681 C56 1.492 . S
C696 C65 1.476 . S
C708 C75 1.479 . S
C723 C70 1.497 . S
C735 C84 1.495 . S
C750 C103 1.479 . S
C762 C93 1.460 . S
C777 C191 1.476 . S
C789 C117 1.478 . S
C804 C135 1.475 . S
C816 C201 1.478 . S
C831 C219 1.420 . S
C843 C145 1.476 . S
C858 C173 1.476 . S
C870 C163 1.454 . S
C885 C112 1.496 . S
C897 C126 1.496 . S
C912 C131 1.477 . S
C924 C149 1.437 . S
C939 C154 1.495 . S
C951 C140 1.498 . S
C966 C121 1.420 . S
C978 C159 1.476 . S
C993 C210 1.521 . S
C1005 C168 1.492 . S
C1020 C177 1.420 . S
C1032 C187 1.476 . S
C1047 C182 1.555 . S
C1059 C196 1.540 . S
C1074 C215 1.478 . S
C1086 C205 1.449 . S
