# Generated by pormake.
# Topology whk, (6)-cn, num edge types: 1
# Building blocks:
#     Node 0, Type 0, BuildingBlock: PAMTOO_clean_sbu_0, # of connection points: 6
#     Node 1, Type 0, BuildingBlock: PAMTOO_clean_sbu_0, # of connection points: 6
#     Node 2, Type 0, BuildingBlock: PAMTOO_clean_sbu_0, # of connection points: 6
#     Node 3, Type 0, BuildingBlock: PAMTOO_clean_sbu_0, # of connection points: 6
#     Node 4, Type 0, BuildingBlock: PAMTOO_clean_sbu_0, # of connection points: 6
#     Node 5, Type 0, BuildingBlock: PAMTOO_clean_sbu_0, # of connection points: 6
#     Node 6, Type 0, BuildingBlock: PAMTOO_clean_sbu_0, # of connection points: 6
#     Node 7, Type 0, BuildingBlock: PAMTOO_clean_sbu_0, # of connection points: 6
#     Node 8, Type 0, BuildingBlock: PAMTOO_clean_sbu_0, # of connection points: 6
#     Node 9, Type 0, BuildingBlock: PAMTOO_clean_sbu_0, # of connection points: 6
#     Node 10, Type 0, BuildingBlock: PAMTOO_clean_sbu_0, # of connection points: 6
#     Node 11, Type 0, BuildingBlock: PAMTOO_clean_sbu_0, # of connection points: 6
#     Node 12, Type 0, BuildingBlock: PAMTOO_clean_sbu_0, # of connection points: 6
#     Node 13, Type 0, BuildingBlock: PAMTOO_clean_sbu_0, # of connection points: 6
#     Node 14, Type 0, BuildingBlock: PAMTOO_clean_sbu_0, # of connection points: 6
#     Node 15, Type 0, BuildingBlock: PAMTOO_clean_sbu_0, # of connection points: 6
#     Edge 16, Type (0, 0), BuildingBlock: CIFDUS_clean_linker_0, # of connection points: 2
#     Edge 17, Type (0, 0), BuildingBlock: CIFDUS_clean_linker_0, # of connection points: 2
#     Edge 18, Type (0, 0), BuildingBlock: CIFDUS_clean_linker_0, # of connection points: 2
#     Edge 19, Type (0, 0), BuildingBlock: CIFDUS_clean_linker_0, # of connection points: 2
#     Edge 20, Type (0, 0), BuildingBlock: CIFDUS_clean_linker_0, # of connection points: 2
#     Edge 21, Type (0, 0), BuildingBlock: CIFDUS_clean_linker_0, # of connection points: 2
#     Edge 22, Type (0, 0), BuildingBlock: CIFDUS_clean_linker_0, # of connection points: 2
#     Edge 23, Type (0, 0), BuildingBlock: CIFDUS_clean_linker_0, # of connection points: 2
#     Edge 24, Type (0, 0), BuildingBlock: CIFDUS_clean_linker_0, # of connection points: 2
#     Edge 25, Type (0, 0), BuildingBlock: CIFDUS_clean_linker_0, # of connection points: 2
#     Edge 26, Type (0, 0), BuildingBlock: CIFDUS_clean_linker_0, # of connection points: 2
#     Edge 27, Type (0, 0), BuildingBlock: CIFDUS_clean_linker_0, # of connection points: 2
#     Edge 28, Type (0, 0), BuildingBlock: CIFDUS_clean_linker_0, # of connection points: 2
#     Edge 29, Type (0, 0), BuildingBlock: CIFDUS_clean_linker_0, # of connection points: 2
#     Edge 30, Type (0, 0), BuildingBlock: CIFDUS_clean_linker_0, # of connection points: 2
#     Edge 31, Type (0, 0), BuildingBlock: CIFDUS_clean_linker_0, # of connection points: 2
#     Edge 32, Type (0, 0), BuildingBlock: CIFDUS_clean_linker_0, # of connection points: 2
#     Edge 33, Type (0, 0), BuildingBlock: CIFDUS_clean_linker_0, # of connection points: 2
#     Edge 34, Type (0, 0), BuildingBlock: CIFDUS_clean_linker_0, # of connection points: 2
#     Edge 35, Type (0, 0), BuildingBlock: CIFDUS_clean_linker_0, # of connection points: 2
#     Edge 36, Type (0, 0), BuildingBlock: CIFDUS_clean_linker_0, # of connection points: 2
#     Edge 37, Type (0, 0), BuildingBlock: CIFDUS_clean_linker_0, # of connection points: 2
#     Edge 38, Type (0, 0), BuildingBlock: CIFDUS_clean_linker_0, # of connection points: 2
#     Edge 39, Type (0, 0), BuildingBlock: CIFDUS_clean_linker_0, # of connection points: 2
#     Edge 40, Type (0, 0), BuildingBlock: CIFDUS_clean_linker_0, # of connection points: 2
#     Edge 41, Type (0, 0), BuildingBlock: CIFDUS_clean_linker_0, # of connection points: 2
#     Edge 42, Type (0, 0), BuildingBlock: CIFDUS_clean_linker_0, # of connection points: 2
#     Edge 43, Type (0, 0), BuildingBlock: CIFDUS_clean_linker_0, # of connection points: 2
#     Edge 44, Type (0, 0), BuildingBlock: CIFDUS_clean_linker_0, # of connection points: 2
#     Edge 45, Type (0, 0), BuildingBlock: CIFDUS_clean_linker_0, # of connection points: 2
#     Edge 46, Type (0, 0), BuildingBlock: CIFDUS_clean_linker_0, # of connection points: 2
#     Edge 47, Type (0, 0), BuildingBlock: CIFDUS_clean_linker_0, # of connection points: 2
#     Edge 48, Type (0, 0), BuildingBlock: CIFDUS_clean_linker_0, # of connection points: 2
#     Edge 49, Type (0, 0), BuildingBlock: CIFDUS_clean_linker_0, # of connection points: 2
#     Edge 50, Type (0, 0), BuildingBlock: CIFDUS_clean_linker_0, # of connection points: 2
#     Edge 51, Type (0, 0), BuildingBlock: CIFDUS_clean_linker_0, # of connection points: 2
#     Edge 52, Type (0, 0), BuildingBlock: CIFDUS_clean_linker_0, # of connection points: 2
#     Edge 53, Type (0, 0), BuildingBlock: CIFDUS_clean_linker_0, # of connection points: 2
#     Edge 54, Type (0, 0), BuildingBlock: CIFDUS_clean_linker_0, # of connection points: 2
#     Edge 55, Type (0, 0), BuildingBlock: CIFDUS_clean_linker_0, # of connection points: 2
#     Edge 56, Type (0, 0), BuildingBlock: CIFDUS_clean_linker_0, # of connection points: 2
#     Edge 57, Type (0, 0), BuildingBlock: CIFDUS_clean_linker_0, # of connection points: 2
#     Edge 58, Type (0, 0), BuildingBlock: CIFDUS_clean_linker_0, # of connection points: 2
#     Edge 59, Type (0, 0), BuildingBlock: CIFDUS_clean_linker_0, # of connection points: 2
#     Edge 60, Type (0, 0), BuildingBlock: CIFDUS_clean_linker_0, # of connection points: 2
#     Edge 61, Type (0, 0), BuildingBlock: CIFDUS_clean_linker_0, # of connection points: 2
#     Edge 62, Type (0, 0), BuildingBlock: CIFDUS_clean_linker_0, # of connection points: 2
#     Edge 63, Type (0, 0), BuildingBlock: CIFDUS_clean_linker_0, # of connection points: 2
# Relax obj value: 0.656
# Max RMSD: 0.330
# Mean RMSD: 0.330
data_MOF--net-whk--node1-PAMTOO_clean_sbu_0--edge1-CIFDUS_clean_linker_0
_symmetry_space_group_name_H-M    P1
_symmetry_Int_Tables_number       1
_symmetry_cell_setting            triclinic
loop_
_symmetry_equiv_pos_as_xyz
'x, y, z'
_cell_length_a     41.390959
_cell_length_b     41.450127
_cell_length_c     34.478974
_cell_angle_alpha  90.244179
_cell_angle_beta   90.106583
_cell_angle_gamma 90.092957
loop_
_atom_site_label
_atom_site_type_symbol
_atom_site_fract_x
_atom_site_fract_y
_atom_site_fract_z
_atom_type_partial_charge
Dy0 Dy 0.57248 0.22239 0.43143 0.0
Dy1 Dy 0.62862 0.259 0.38331 0.0
C2 C 0.59746 0.1966 0.34857 0.0
O3 O 0.61912 0.20839 0.45913 0.0
O4 O 0.65251 0.21386 0.40644 0.0
O5 O 0.5224 0.22107 0.45039 0.0
O6 O 0.55383 0.18084 0.46196 0.0
O7 O 0.63713 0.27689 0.44316 0.0
O8 O 0.58796 0.26434 0.47097 0.0
O9 O 0.58927 0.29467 0.39577 0.0
O10 O 0.54918 0.25799 0.39123 0.0
O11 O 0.63847 0.28218 0.32891 0.0
O12 O 0.67584 0.27951 0.37293 0.0
C13 C 0.64613 0.20131 0.4408 0.0
O14 O 0.58871 0.18831 0.38375 0.0
O15 O 0.60335 0.22683 0.34106 0.0
C16 C 0.49833 0.16883 0.44993 0.0
C17 C 0.44899 0.12398 0.42928 0.0
C18 C 0.47987 0.12237 0.41214 0.0
C19 C 0.50418 0.14455 0.42223 0.0
C20 C 0.4674 0.17096 0.46645 0.0
C21 C 0.44299 0.1489 0.4562 0.0
C22 C 0.52424 0.19147 0.46268 0.0
C23 C 0.6161 0.2799 0.47132 0.0
C24 C 0.55846 0.28828 0.39201 0.0
C25 C 0.67115 0.3284 0.33743 0.0
C26 C 0.68408 0.39464 0.32613 0.0
C27 C 0.65772 0.37986 0.30745 0.0
C28 C 0.65141 0.34704 0.31288 0.0
C29 C 0.6959 0.34368 0.35831 0.0
C30 C 0.70219 0.37636 0.35294 0.0
C31 C 0.66631 0.29317 0.34081 0.0
H32 H 0.48531 0.10386 0.39088 0.0
H33 H 0.52768 0.14246 0.40867 0.0
H34 H 0.46223 0.18946 0.48785 0.0
H35 H 0.4197 0.15079 0.47028 0.0
H36 H 0.64341 0.39311 0.28658 0.0
H37 H 0.63184 0.33606 0.29662 0.0
H38 H 0.71136 0.33013 0.37767 0.0
H39 H 0.72314 0.38641 0.36749 0.0
Dy40 Dy 0.35743 0.57264 0.42451 0.0
Dy41 Dy 0.32521 0.62247 0.36407 0.0
C42 C 0.38632 0.58833 0.3421 0.0
O43 O 0.36568 0.62128 0.45126 0.0
O44 O 0.36782 0.64694 0.39294 0.0
O45 O 0.39955 0.55618 0.45644 0.0
O46 O 0.35761 0.52546 0.45151 0.0
O47 O 0.29848 0.63435 0.41821 0.0
O48 O 0.31442 0.59247 0.45856 0.0
O49 O 0.28619 0.58537 0.37102 0.0
O50 O 0.32221 0.54564 0.38605 0.0
O51 O 0.30373 0.66728 0.3449 0.0
O52 O 0.32381 0.63409 0.30283 0.0
C53 C 0.37346 0.64665 0.43044 0.0
O54 O 0.39384 0.58753 0.37891 0.0
O55 O 0.35573 0.58621 0.33422 0.0
C56 C 0.40941 0.49963 0.45256 0.0
C57 C 0.45228 0.44762 0.43544 0.0
C58 C 0.4243 0.45277 0.41292 0.0
C59 C 0.4032 0.47853 0.42126 0.0
C60 C 0.43701 0.49423 0.47533 0.0
C61 C 0.45811 0.46868 0.46694 0.0
C62 C 0.38783 0.52739 0.46205 0.0
C63 C 0.29626 0.61819 0.45091 0.0
C64 C 0.29238 0.55483 0.37817 0.0
C65 C 0.34457 0.68663 0.30315 0.0
C66 C 0.40349 0.72072 0.29336 0.0
C67 C 0.38895 0.70409 0.262 0.0
C68 C 0.36004 0.6869 0.26699 0.0
C69 C 0.35888 0.70339 0.33423 0.0
C70 C 0.38756 0.72024 0.3294 0.0
C71 C 0.31765 0.66416 0.3111 0.0
H72 H 0.41907 0.43734 0.38827 0.0
H73 H 0.38218 0.48207 0.40302 0.0
H74 H 0.44235 0.50993 0.49973 0.0
H75 H 0.47902 0.46534 0.4854 0.0
H76 H 0.39968 0.70421 0.23348 0.0
H77 H 0.35006 0.67343 0.24277 0.0
H78 H 0.34799 0.70355 0.36276 0.0
H79 H 0.39644 0.73373 0.35416 0.0
Dy80 Dy 1.00202 0.35364 0.42075 0.0
Dy81 Dy 0.94376 0.32009 0.37347 0.0
C82 C 0.97658 0.37703 0.33715 0.0
O83 O 0.95869 0.36755 0.45561 0.0
O84 O 0.92427 0.36441 0.404 0.0
O85 O 0.05352 0.3547 0.43322 0.0
O86 O 1.02391 0.39525 0.44909 0.0
O87 O 0.94507 0.29064 0.42689 0.0
O88 O 0.98303 0.31739 0.46496 0.0
O89 O 0.97892 0.27912 0.37335 0.0
O90 O 1.02333 0.30772 0.39482 0.0
O91 O 0.89482 0.30232 0.37064 0.0
O92 O 0.92121 0.31157 0.31762 0.0
C93 C 0.93059 0.37412 0.4396 0.0
O94 O 0.98354 0.38651 0.37254 0.0
O95 O 0.97462 0.34613 0.33158 0.0
C96 C 0.0795 0.40613 0.43385 0.0
C97 C 0.13063 0.44875 0.41188 0.0
C98 C 0.09982 0.45061 0.39426 0.0
C99 C 0.07462 0.42956 0.40505 0.0
C100 C 0.11021 0.40396 0.4511 0.0
C101 C 0.13538 0.42488 0.44032 0.0
C102 C 0.05322 0.38399 0.44693 0.0
C103 C 0.96127 0.29416 0.45946 0.0
C104 C 1.00974 0.28045 0.38296 0.0
C105 C 0.87018 0.33651 0.3251 0.0
C106 C 0.83454 0.39413 0.31739 0.0
C107 C 0.82825 0.37269 0.34794 0.0
C108 C 0.84571 0.34425 0.35169 0.0
C109 C 0.87581 0.35749 0.29379 0.0
C110 C 0.85747 0.3856 0.28941 0.0
C111 C 0.89282 0.30995 0.33402 0.0
H112 H 0.09514 0.46826 0.3719 0.0
H113 H 0.05131 0.43171 0.39098 0.0
H114 H 0.11468 0.38619 0.47342 0.0
H115 H 0.15839 0.42279 0.45506 0.0
H116 H 0.80936 0.37768 0.36881 0.0
H117 H 0.84051 0.32868 0.37606 0.0
H118 H 0.8943 0.35211 0.27257 0.0
H119 H 0.86104 0.40056 0.26423 0.0
Dy120 Dy 0.22277 0.9884 0.41201 0.0
Dy121 Dy 0.27337 0.93742 0.37241 0.0
C122 C 0.21042 0.9573 0.32837 0.0
O123 O 0.20243 0.94018 0.43071 0.0
O124 O 0.2311 0.90631 0.38931 0.0
O125 O 0.19681 1.02857 0.3895 0.0
O126 O 0.19264 1.01844 0.45172 0.0
O127 O 0.27994 0.92937 0.43524 0.0
O128 O 0.26045 0.97758 0.45972 0.0
O129 O 0.30367 0.97831 0.39361 0.0
O130 O 0.26459 1.01571 0.38588 0.0
O131 O 0.30916 0.9326 0.32714 0.0
O132 O 0.29733 0.89192 0.36389 0.0
C133 C 0.20851 0.91118 0.41586 0.0
O134 O 0.19745 0.96295 0.36236 0.0
O135 O 0.24189 0.95693 0.3252 0.0
C136 C 0.16095 0.06503 0.4234 0.0
C137 C 0.12298 0.12306 0.41972 0.0
C138 C 0.12653 0.10277 0.38714 0.0
C139 C 0.1452 0.07446 0.38892 0.0
C140 C 0.15656 0.08452 0.45649 0.0
C141 C 0.13798 0.11312 0.45465 0.0
C142 C 0.18433 1.03718 0.42264 0.0
C143 C 0.27749 0.9504 0.46354 0.0
C144 C 0.29516 1.00847 0.39088 0.0
C145 C 0.35171 0.89644 0.34224 0.0
C146 C 0.41596 0.87341 0.34222 0.0
C147 C 0.40578 0.89618 0.31459 0.0
C148 C 0.37385 0.90725 0.31433 0.0
C149 C 0.36276 0.87666 0.37236 0.0
C150 C 0.39444 0.86535 0.37241 0.0
C151 C 0.31691 0.90346 0.33773 0.0
H152 H 0.11589 0.10934 0.35958 0.0
H153 H 0.14796 0.06026 0.36269 0.0
H154 H 0.16839 0.07829 0.48347 0.0
H155 H 0.13563 0.12763 0.48067 0.0
H156 H 0.42171 0.90356 0.29138 0.0
H157 H 0.36604 0.92288 0.29103 0.0
H158 H 0.34646 0.86819 0.39467 0.0
H159 H 0.40082 0.84781 0.39428 0.0
Dy160 Dy 0.06759 0.85936 0.08672 0.0
Dy161 Dy 0.11215 0.81024 0.1337 0.0
C162 C 0.09464 0.87465 0.16922 0.0
O163 O 0.11594 0.87633 0.06513 0.0
O164 O 0.14764 0.84496 0.10594 0.0
O165 O 1.02919 0.88726 0.10982 0.0
O166 O 1.03854 0.8901 0.04704 0.0
O167 O 0.11561 0.78979 0.07441 0.0
O168 O 0.07998 0.82228 0.03959 0.0
O169 O 0.07332 0.77758 0.11341 0.0
O170 O 1.03635 0.81761 0.10736 0.0
O171 O 0.15707 0.79212 0.1568 0.0
O172 O 0.11133 0.77572 0.18033 0.0
C173 C 0.1445 0.86701 0.07831 0.0
O174 O 0.09599 0.88514 0.13372 0.0
O175 O 0.08692 0.84452 0.17329 0.0
C176 C 0.99338 0.92328 0.07595 0.0
C177 C 0.93533 0.96062 0.08032 0.0
C178 C 0.95507 0.95619 0.11313 0.0
C179 C 0.98349 0.93789 0.11096 0.0
C180 C 0.9746 0.92875 0.04262 0.0
C181 C 0.94594 0.94713 0.04478 0.0
C182 C 1.02058 0.89943 0.07652 0.0
C183 C 0.10049 0.79755 0.04211 0.0
C184 C 0.04352 0.7867 0.10833 0.0
C185 C 0.15155 0.78932 0.2246 0.0
C186 C 0.17335 0.81161 0.2976 0.0
C187 C 0.16847 0.83316 0.26643 0.0
C188 C 0.15796 0.82208 0.23051 0.0
C189 C 0.15186 0.7684 0.25632 0.0
C190 C 0.16215 0.77954 0.29272 0.0
C191 C 0.14238 0.77804 0.18576 0.0
H192 H 0.94792 0.96565 0.14113 0.0
H193 H 0.99721 0.93429 0.13737 0.0
H194 H 0.98131 0.91777 0.01524 0.0
H195 H 0.93183 0.95032 0.01861 0.0
H196 H 0.17547 0.8582 0.26789 0.0
H197 H 0.1563 0.83903 0.20676 0.0
H198 H 0.14514 0.7433 0.2527 0.0
H199 H 0.16326 0.76228 0.31607 0.0
Dy200 Dy 0.70067 0.07362 0.09073 0.0
Dy201 Dy 0.73253 0.12902 0.1405 0.0
C202 C 0.67426 0.09878 0.17003 0.0
O203 O 0.68067 0.11425 0.05674 0.0
O204 O 0.69898 0.15467 0.09773 0.0
O205 O 0.68084 1.02997 0.11332 0.0
O206 O 0.67501 0.04054 0.05093 0.0
O207 O 0.76022 0.13392 0.08577 0.0
O208 O 0.7417 0.08928 0.05084 0.0
O209 O 0.77334 0.09375 0.14232 0.0
O210 O 0.74904 0.05274 0.10795 0.0
O211 O 0.71682 0.1699 0.17435 0.0
O212 O 0.76712 0.15494 0.17582 0.0
C213 C 0.6826 0.14495 0.06666 0.0
O214 O 0.66773 0.09951 0.13305 0.0
O215 O 0.70465 0.09541 0.1774 0.0
C216 C 0.65135 0.98938 0.07673 0.0
C217 C 0.6107 0.93373 0.07862 0.0
C218 C 0.63393 0.93922 0.10773 0.0
C219 C 0.65382 0.96665 0.10688 0.0
C220 C 0.62932 0.98319 0.04654 0.0
C221 C 0.60918 0.95579 0.04753 0.0
C222 C 0.66887 1.02083 0.07985 0.0
C223 C 0.76148 0.11444 0.05547 0.0
C224 C 0.77436 0.06502 0.12601 0.0
C225 C 0.7431 0.17293 0.23487 0.0
C226 C 0.74916 0.18434 0.31517 0.0
C227 C 0.72579 0.20096 0.29301 0.0
C228 C 0.72322 0.1956 0.25319 0.0
C229 C 0.76212 0.15237 0.25782 0.0
C230 C 0.7647 0.15772 0.29784 0.0
C231 C 0.74456 0.17233 0.19209 0.0
H232 H 0.63577 0.92312 0.13228 0.0
H233 H 0.67048 0.97058 0.1307 0.0
H234 H 0.62666 1.00022 0.02301 0.0
H235 H 0.59194 0.95221 0.02425 0.0
H236 H 0.71246 0.22112 0.30497 0.0
H237 H 0.70738 0.21091 0.23628 0.0
H238 H 0.77668 0.13363 0.24462 0.0
H239 H 0.78203 0.14368 0.31418 0.0
Dy240 Dy 0.48562 0.70768 0.0783 0.0
Dy241 Dy 0.42919 0.74964 0.12446 0.0
C242 C 0.45895 0.68789 0.16356 0.0
O243 O 0.43882 0.69206 0.0513 0.0
O244 O 0.40472 0.70459 0.10198 0.0
O245 O 0.53323 0.70509 0.05146 0.0
O246 O 0.50593 0.66156 0.06139 0.0
O247 O 0.4234 0.76577 0.06377 0.0
O248 O 0.46951 0.74561 0.0341 0.0
O249 O 0.47035 0.78241 0.10948 0.0
O250 O 0.50951 0.74491 0.11633 0.0
O251 O 0.37987 0.76299 0.1372 0.0
O252 O 0.41956 0.78828 0.16491 0.0
C253 C 0.41086 0.68899 0.06931 0.0
O254 O 0.4681 0.67813 0.12895 0.0
O255 O 0.45184 0.71827 0.1698 0.0
C256 C 0.56382 0.65677 0.06338 0.0
C257 C 0.6215 0.62202 0.08229 0.0
C258 C 0.59227 0.61618 0.10213 0.0
C259 C 0.56388 0.6333 0.09285 0.0
C260 C 0.59295 0.66277 0.04379 0.0
C261 C 0.62128 0.64577 0.05307 0.0
C262 C 0.53358 0.67363 0.05068 0.0
C263 C 0.44338 0.76429 0.03433 0.0
C264 C 0.50092 0.77532 0.11389 0.0
C265 C 0.37059 0.78548 0.20002 0.0
C266 C 0.33446 0.78983 0.26928 0.0
C267 C 0.35624 0.81443 0.25915 0.0
C268 C 0.37376 0.81245 0.22458 0.0
C269 C 0.34985 0.76033 0.2108 0.0
C270 C 0.33185 0.76258 0.24486 0.0
C271 C 0.38833 0.78462 0.16293 0.0
H272 H 0.59131 0.59847 0.1251 0.0
H273 H 0.54191 0.62791 0.10858 0.0
H274 H 0.59371 0.68036 0.02066 0.0
H275 H 0.64292 0.65079 0.03655 0.0
H276 H 0.35899 0.83566 0.27729 0.0
H277 H 0.38958 0.83222 0.21678 0.0
H278 H 0.3469 0.73921 0.19251 0.0
H279 H 0.31473 0.74351 0.25099 0.0
Dy280 Dy 0.84197 0.49085 0.09101 0.0
Dy281 Dy 0.80483 0.42877 0.12667 0.0
C282 C 0.86528 0.456 0.17026 0.0
O283 O 0.86615 0.44848 0.06208 0.0
O284 O 0.85185 0.4087 0.10536 0.0
O285 O 0.86289 0.53495 0.11188 0.0
O286 O 0.8669 0.52282 0.04983 0.0
O287 O 0.79311 0.42702 0.06363 0.0
O288 O 0.80144 0.48029 0.04756 0.0
O289 O 0.76596 0.46575 0.11832 0.0
O290 O 0.79727 0.51097 0.11979 0.0
O291 O 0.79331 0.37798 0.12858 0.0
O292 O 0.77089 0.41144 0.1687 0.0
C293 C 0.86942 0.41899 0.07607 0.0
O294 O 0.87403 0.46741 0.1364 0.0
O295 O 0.83491 0.44854 0.17563 0.0
C296 C 0.89124 0.57441 0.07295 0.0
C297 C 0.9319 0.62983 0.07266 0.0
C298 C 0.90708 0.6267 0.10017 0.0
C299 C 0.88717 0.59929 0.10045 0.0
C300 C 0.91476 0.57831 0.04403 0.0
C301 C 0.93496 0.60562 0.044 0.0
C302 C 0.87388 0.5432 0.07786 0.0
C303 C 0.78824 0.45161 0.04052 0.0
C304 C 0.7686 0.49725 0.12023 0.0
C305 C 0.78421 0.36064 0.19263 0.0
C306 C 0.79987 0.32187 0.25696 0.0
C307 C 0.76774 0.33184 0.2502 0.0
C308 C 0.76006 0.35099 0.21837 0.0
C309 C 0.8163 0.35157 0.19941 0.0
C310 C 0.82395 0.33199 0.23084 0.0
C311 C 0.77588 0.38131 0.15984 0.0
H312 H 0.90408 0.64463 0.12282 0.0
H313 H 0.86928 0.59705 0.12317 0.0
H314 H 0.9186 0.55954 0.02259 0.0
H315 H 0.95359 0.60738 0.02209 0.0
H316 H 0.74803 0.32387 0.26836 0.0
H317 H 0.73517 0.35807 0.21367 0.0
H318 H 0.83547 0.35935 0.1802 0.0
H319 H 0.84885 0.32479 0.23419 0.0
Dy320 Dy 0.45902 0.80464 0.62649 0.0
Dy321 Dy 0.49595 0.85612 0.5733 0.0
C322 C 0.458 0.79731 0.532 0.0
O323 O 0.51232 0.79946 0.63394 0.0
O324 O 0.51991 0.80733 0.57123 0.0
O325 O 0.46581 0.75606 0.64695 0.0
O326 O 0.42236 0.78255 0.66183 0.0
O327 O 0.47827 0.88233 0.62796 0.0
O328 O 0.46357 0.84264 0.67054 0.0
O329 O 0.44624 0.87518 0.56388 0.0
O330 O 0.41914 0.83547 0.5987 0.0
O331 O 0.54517 0.87037 0.58067 0.0
O332 O 0.51653 0.89312 0.53495 0.0
C333 C 0.5284 0.79229 0.60271 0.0
O334 O 0.45378 0.78566 0.56692 0.0
O335 O 0.47351 0.82491 0.52567 0.0
C336 C 0.41848 0.72592 0.65386 0.0
C337 C 0.37476 0.6743 0.64671 0.0
C338 C 0.40134 0.67213 0.67211 0.0
C339 C 0.42281 0.69799 0.67598 0.0
C340 C 0.39505 0.72633 0.62461 0.0
C341 C 0.3734 0.70072 0.62096 0.0
C342 C 0.43742 0.75485 0.66295 0.0
C343 C 0.46769 0.87301 0.66235 0.0
C344 C 0.41925 0.86189 0.57661 0.0
C345 C 0.56577 0.92051 0.55822 0.0
C346 C 0.61941 0.96287 0.57045 0.0
C347 C 0.59915 0.954 0.60146 0.0
C348 C 0.5728 0.93291 0.59547 0.0
C349 C 0.58456 0.93124 0.52695 0.0
C350 C 0.61095 0.95206 0.53293 0.0
C351 C 0.54467 0.89155 0.55265 0.0
H352 H 0.40373 0.65188 0.69164 0.0
H353 H 0.4415 0.69702 0.69799 0.0
H354 H 0.39195 0.74742 0.60654 0.0
H355 H 0.35355 0.70362 0.6008 0.0
H356 H 0.60486 0.96168 0.63074 0.0
H357 H 0.55909 0.92483 0.62034 0.0
H358 H 0.58011 0.92188 0.49803 0.0
H359 H 0.62559 0.9587 0.5082 0.0
Dy360 Dy 0.76145 0.4591 0.63611 0.0
Dy361 Dy 0.717 0.49995 0.57654 0.0
C362 C 0.77948 0.45812 0.54502 0.0
O363 O 0.79141 0.49872 0.61236 0.0
O364 O 0.75122 0.53492 0.60659 0.0
O365 O 0.79369 0.46645 0.68473 0.0
O366 O 0.78351 0.41802 0.66304 0.0
O367 O 0.68528 0.4809 0.6249 0.0
O368 O 0.72246 0.48017 0.67267 0.0
O369 O 0.70539 0.44878 0.55942 0.0
O370 O 0.72611 0.42201 0.61303 0.0
O371 O 0.66905 0.51788 0.56441 0.0
O372 O 0.70942 0.5366 0.53227 0.0
C373 C 0.78228 0.5286 0.60935 0.0
O374 O 0.78417 0.44709 0.58016 0.0
O375 O 0.75567 0.47847 0.53636 0.0
C376 C 0.83764 0.43103 0.67848 0.0
C377 C 0.9026 0.41133 0.67317 0.0
C378 C 0.88133 0.40747 0.64139 0.0
C379 C 0.84923 0.4171 0.64414 0.0
C380 C 0.85961 0.43961 0.70769 0.0
C381 C 0.89204 0.43043 0.70472 0.0
C382 C 0.8028 0.43635 0.68374 0.0
C383 C 0.69241 0.47742 0.66176 0.0
C384 C 0.70873 0.42247 0.58067 0.0
C385 C 0.66486 0.57226 0.54418 0.0
C386 C 0.63381 0.63328 0.55348 0.0
C387 C 0.65334 0.62036 0.58322 0.0
C388 C 0.66867 0.59022 0.57862 0.0
C389 C 0.64558 0.58506 0.51453 0.0
C390 C 0.63029 0.61504 0.51906 0.0
C391 C 0.67862 0.53929 0.5395 0.0
H392 H 0.88803 0.39387 0.61581 0.0
H393 H 0.83305 0.41165 0.62026 0.0
H394 H 0.85136 0.45175 0.73373 0.0
H395 H 0.90794 0.43566 0.7289 0.0
H396 H 0.657 0.63361 0.60999 0.0
H397 H 0.68323 0.58079 0.6021 0.0
H398 H 0.64185 0.57155 0.48791 0.0
H399 H 0.61507 0.62357 0.4957 0.0
Dy400 Dy 0.12668 0.76753 0.62521 0.0
Dy401 Dy 0.08001 0.7179 0.57839 0.0
C402 C 0.11021 0.78289 0.53841 0.0
O403 O 0.07561 0.78041 0.6409 0.0
O404 O 0.05061 0.76241 0.58647 0.0
O405 O 0.16731 0.79884 0.63792 0.0
O406 O 0.13158 0.78856 0.68212 0.0
O407 O 0.08381 0.70317 0.6422 0.0
O408 O 0.13582 0.71818 0.64607 0.0
O409 O 0.12951 0.69994 0.56162 0.0
O410 O 0.1609 0.74247 0.58407 0.0
O411 O 1.03632 0.70929 0.54465 0.0
O412 O 0.06362 0.66908 0.56645 0.0
C413 C 0.0519 0.78239 0.61577 0.0
O414 O 0.11402 0.79542 0.5731 0.0
O415 O 0.10245 0.75194 0.53315 0.0
C416 C 0.18608 0.7822 0.69933 0.0
C417 C 0.23018 0.73395 0.71902 0.0
C418 C 0.19913 0.73309 0.73465 0.0
C419 C 0.17714 0.75725 0.72505 0.0
C420 C 0.21863 0.78539 0.68884 0.0
C421 C 0.2405 0.76119 0.69836 0.0
C422 C 0.16116 0.79781 0.67517 0.0
C423 C 0.11262 0.69979 0.65808 0.0
C424 C 0.15762 0.71489 0.56495 0.0
C425 C 1.00605 0.66246 0.56224 0.0
C426 C 0.94808 0.62921 0.58313 0.0
C427 C 0.97417 0.63217 0.6094 0.0
C428 C 1.00267 0.64856 0.59915 0.0
C429 C 0.97974 0.66042 0.53638 0.0
C430 C 0.95113 0.64414 0.54669 0.0
C431 C 1.03687 0.67821 0.54976 0.0
H432 H 0.19104 0.7124 0.75109 0.0
H433 H 0.15234 0.75429 0.73435 0.0
H434 H 0.22629 0.80446 0.6695 0.0
H435 H 0.26468 0.76216 0.68642 0.0
H436 H 0.9727 0.62149 0.63795 0.0
H437 H 1.02224 0.64994 0.61999 0.0
H438 H 0.98157 0.67093 0.50775 0.0
H439 H 0.93185 0.64224 0.52553 0.0
Dy440 Dy 0.81765 0.13776 0.63291 0.0
Dy441 Dy 0.85098 0.07778 0.58934 0.0
C442 C 0.79351 0.11712 0.54629 0.0
O443 O 0.7752 0.10421 0.63104 0.0
O444 O 0.80213 0.05927 0.60871 0.0
O445 O 0.80374 0.18787 0.63624 0.0
O446 O 0.80347 0.15852 0.68795 0.0
O447 O 0.88398 0.1015 0.63352 0.0
O448 O 0.84442 0.10774 0.67559 0.0
O449 O 0.87467 0.11805 0.55773 0.0
O450 O 0.86149 0.15805 0.60149 0.0
O451 O 0.86915 1.03404 0.61302 0.0
O452 O 0.87594 0.04331 0.55064 0.0
C453 C 0.77544 0.07363 0.62056 0.0
O454 O 0.79116 0.13604 0.57694 0.0
O455 O 0.81448 0.09296 0.5437 0.0
C456 C 0.82886 0.20883 0.69114 0.0
C457 C 0.87789 0.25224 0.71239 0.0
C458 C 0.88584 0.22265 0.6954 0.0
C459 C 0.86151 0.20098 0.68529 0.0
C460 C 0.82079 0.23782 0.70955 0.0
C461 C 0.84527 0.25937 0.72045 0.0
C462 C 0.80419 0.18772 0.67406 0.0
C463 C 0.87522 0.10556 0.66952 0.0
C464 C 0.87726 0.14797 0.57042 0.0
C465 C 0.89811 0.99227 0.57851 0.0
C466 C 0.93464 0.93409 0.57966 0.0
C467 C 0.91735 0.94432 0.61252 0.0
C468 C 0.89944 0.97291 0.61196 0.0
C469 C 0.91478 0.98188 0.54528 0.0
C470 C 0.93281 0.95311 0.54583 0.0
C471 C 0.88114 1.02396 0.5801 0.0
H472 H 0.91072 0.21689 0.68861 0.0
H473 H 0.86807 0.17866 0.67114 0.0
H474 H 0.79573 0.24433 0.71405 0.0
H475 H 0.83861 0.28243 0.73301 0.0
H476 H 0.91753 0.93014 0.63882 0.0
H477 H 0.88686 0.97999 0.63816 0.0
H478 H 0.91447 0.9963 0.51916 0.0
H479 H 0.94596 0.94618 0.51999 0.0
Dy480 Dy 0.92829 0.24744 0.89466 0.0
Dy481 Dy 0.99006 0.21101 0.93497 0.0
C482 C 0.95511 0.27057 0.97933 0.0
O483 O 0.96545 0.28637 0.8912 0.0
O484 O 1.00977 0.2587 0.9138 0.0
O485 O 0.90288 0.26575 0.84523 0.0
O486 O 0.87927 0.26456 0.90142 0.0
O487 O 0.96905 0.1804 0.88621 0.0
O488 O 0.95344 0.22107 0.84734 0.0
O489 O 0.94722 0.19162 0.96731 0.0
O490 O 0.90949 0.20101 0.9198 0.0
O491 O 0.03997 0.20133 0.92334 0.0
O492 O 1.01744 0.1788 0.97321 0.0
C493 C 0.99626 0.28513 0.90023 0.0
O494 O 0.9346 0.27288 0.95053 0.0
O495 O 0.9784 0.24874 0.98065 0.0
C496 C 0.86909 0.30936 0.86157 0.0
C497 C 0.84814 0.36976 0.83588 0.0
C498 C 0.88126 0.36297 0.83732 0.0
C499 C 0.89177 0.33295 0.8507 0.0
C500 C 0.83654 0.31771 0.86485 0.0
C501 C 0.82616 0.34793 0.8526 0.0
C502 C 0.87845 0.27548 0.86605 0.0
C503 C 0.95993 0.1906 0.85185 0.0
C504 C 0.91802 0.18742 0.9527 0.0
C505 C 0.06645 0.15458 0.94713 0.0
C506 C 0.12047 0.1137 0.93326 0.0
C507 C 0.09764 0.11966 0.90377 0.0
C508 C 0.07103 0.14003 0.91055 0.0
C509 C 0.08807 0.14701 0.97713 0.0
C510 C 0.1147 0.12689 0.97033 0.0
C511 C 0.04382 0.18206 0.95275 0.0
H512 H 0.89852 0.37945 0.82453 0.0
H513 H 0.91727 0.32721 0.8493 0.0
H514 H 0.81883 0.30006 0.87405 0.0
H515 H 0.80039 0.3525 0.85159 0.0
H516 H 0.10128 0.11004 0.87486 0.0
H517 H 0.05498 0.14569 0.88669 0.0
H518 H 0.08537 0.1581 0.00545 0.0
H519 H 0.13138 0.12244 0.99393 0.0
Dy520 Dy 0.30724 0.93137 0.86501 0.0
Dy521 Dy 0.34365 0.98905 0.91174 0.0
C522 C 0.28586 0.94837 0.95358 0.0
O523 O 0.26723 0.96601 0.87611 0.0
O524 O 0.29856 1.01076 0.88552 0.0
O525 O 0.29721 0.88184 0.84926 0.0
O526 O 0.27775 0.92094 0.8149 0.0
O527 O 0.37697 0.96395 0.86968 0.0
O528 O 0.33903 0.95905 0.82476 0.0
O529 O 0.36481 0.94509 0.94 0.0
O530 O 0.34915 0.90642 0.89492 0.0
O531 O 0.36608 1.03105 0.88934 0.0
O532 O 0.36844 1.02293 0.95235 0.0
C533 C 0.27005 0.99726 0.88055 0.0
O534 O 0.28656 0.92735 0.92469 0.0
O535 O 0.30337 0.97541 0.95377 0.0
C536 C 0.29619 0.87509 0.78174 0.0
C537 C 0.32979 0.83862 0.72601 0.0
C538 C 0.34075 0.86962 0.73638 0.0
C539 C 0.32418 0.88759 0.76434 0.0
C540 C 0.28305 0.84617 0.76807 0.0
C541 C 0.29958 0.82814 0.74028 0.0
C542 C 0.28299 0.89001 0.81693 0.0
C543 C 0.3696 0.95962 0.83326 0.0
C544 C 0.36567 0.91518 0.92623 0.0
C545 C 0.39538 0.07242 0.92429 0.0
C546 C 0.43341 0.13026 0.92304 0.0
C547 C 0.41925 0.11783 0.889 0.0
C548 C 0.40069 0.08955 0.88961 0.0
C549 C 0.40904 0.08489 0.95864 0.0
C550 C 0.42775 0.11348 0.95804 0.0
C551 C 0.37647 0.04145 0.92293 0.0
H552 H 0.36366 0.87859 0.72571 0.0
H553 H 0.33441 0.91019 0.77423 0.0
H554 H 0.26133 0.83633 0.78097 0.0
H555 H 0.29031 0.80435 0.73353 0.0
H556 H 0.42221 0.13015 0.86161 0.0
H557 H 0.39055 0.08106 0.86244 0.0
H558 H 0.4056 0.07241 0.98585 0.0
H559 H 0.43831 0.12207 0.98493 0.0
Dy560 Dy 0.61763 0.3151 0.85346 0.0
Dy561 Dy 0.57068 0.35592 0.91155 0.0
C562 C 0.60915 0.29302 0.9442 0.0
O563 O 0.57649 0.28078 0.85747 0.0
O564 O 0.54526 0.30788 0.90166 0.0
O565 O 0.66449 0.29711 0.83634 0.0
O566 O 0.62345 0.29173 0.79788 0.0
O567 O 0.59247 0.38903 0.86625 0.0
O568 O 0.59359 0.35294 0.81809 0.0
O569 O 0.61823 0.37506 0.93302 0.0
O570 O 0.64974 0.3513 0.88499 0.0
O571 O 0.52258 0.37149 0.89988 0.0
O572 O 0.54521 0.38598 0.95478 0.0
C573 C 0.55101 0.28239 0.87982 0.0
O574 O 0.6197 0.28713 0.90873 0.0
O575 O 0.591 0.31851 0.95302 0.0
C576 C 0.67366 0.30394 0.76989 0.0
C577 C 0.71873 0.33851 0.72556 0.0
C578 C 0.68797 0.35155 0.73281 0.0
C579 C 0.66571 0.33448 0.75522 0.0
C580 C 0.70238 0.28915 0.75831 0.0
C581 C 0.72471 0.30619 0.73609 0.0
C582 C 0.65471 0.28971 0.80142 0.0
C583 C 0.59611 0.38278 0.8293 0.0
C584 C 0.64648 0.3701 0.91606 0.0
C585 C 0.49601 0.41471 0.93273 0.0
C586 C 0.43989 0.45475 0.9269 0.0
C587 C 0.46195 0.45218 0.89591 0.0
C588 C 0.48949 0.43232 0.8987 0.0
C589 C 0.47514 0.41884 0.96445 0.0
C590 C 0.44756 0.43852 0.96163 0.0
C591 C 0.51924 0.38704 0.93273 0.0
H592 H 0.68245 0.37616 0.72468 0.0
H593 H 0.6434 0.34613 0.76354 0.0
H594 H 0.70877 0.26549 0.76915 0.0
H595 H 0.7481 0.29523 0.73129 0.0
H596 H 0.45703 0.46408 0.86863 0.0
H597 H 0.50474 0.42938 0.87343 0.0
H598 H 0.47911 0.40533 0.99086 0.0
H599 H 0.43166 0.44024 0.98646 0.0
Dy600 Dy 0.25315 0.64283 0.89743 0.0
Dy601 Dy 0.20836 0.57831 0.91533 0.0
C602 C 0.25308 0.61195 0.97828 0.0
O603 O 0.28865 0.60233 0.89439 0.0
O604 O 0.25643 0.557 0.89695 0.0
O605 O 0.26717 0.68606 0.8671 0.0
O606 O 0.29326 0.67101 0.91865 0.0
O607 O 0.18922 0.60352 0.86162 0.0
O608 O 0.23628 0.62523 0.8396 0.0
O609 O 0.18087 0.62047 0.94142 0.0
O610 O 0.20386 0.66327 0.9086 0.0
O611 O 0.1865 0.53643 0.88907 0.0
O612 O 0.17851 0.54609 0.95107 0.0
C613 C 0.28507 0.57085 0.89369 0.0
O614 O 0.24367 0.63782 0.96035 0.0
O615 O 0.2462 0.58363 0.9629 0.0
C616 C 0.32324 0.6957 0.86961 0.0
C617 C 0.37654 0.71108 0.82289 0.0
C618 C 0.3618 0.68057 0.81979 0.0
C619 C 0.33518 0.67295 0.84301 0.0
C620 C 0.34019 0.72436 0.87604 0.0
C621 C 0.36676 0.73195 0.85308 0.0
C622 C 0.29238 0.6907 0.88935 0.0
C623 C 0.20614 0.61673 0.83358 0.0
C624 C 0.18109 0.65131 0.9311 0.0
C625 C 0.15165 0.49783 0.92202 0.0
C626 C 0.11372 0.44019 0.922 0.0
C627 C 0.12013 0.45674 0.8873 0.0
C628 C 0.13893 0.485 0.88729 0.0
C629 C 0.14473 0.48178 0.95687 0.0
C630 C 0.12619 0.45326 0.95685 0.0
C631 C 0.17262 0.52726 0.9212 0.0
H632 H 0.3689 0.66393 0.79705 0.0
H633 H 0.32266 0.65026 0.83845 0.0
H634 H 0.33166 0.74184 0.89712 0.0
H635 H 0.37729 0.75575 0.8564 0.0
H636 H 0.11131 0.4474 0.85987 0.0
H637 H 0.14367 0.49673 0.85987 0.0
H638 H 0.15408 0.49097 0.98412 0.0
H639 H 0.12154 0.44144 0.98423 0.0
H640 H 0.59464 0.20005 0.26944 0.0
H641 H 0.62523 0.13813 0.36258 0.0
H642 H 0.65128 0.10191 0.31592 0.0
H643 H 0.66891 0.08981 0.24848 0.0
H644 H 0.63443 0.1496 0.1552 0.0
H645 H 0.60646 0.1843 0.20164 0.0
C646 C 0.60643 0.17826 0.27944 0.0
C647 C 0.60779 0.17182 0.31956 0.0
C648 C 0.62098 0.15718 0.25228 0.0
C649 C 0.62333 0.14351 0.33194 0.0
C650 C 0.63854 0.1229 0.30522 0.0
C651 C 0.6548 0.11012 0.23834 0.0
C652 C 0.65379 0.11695 0.19829 0.0
C653 C 0.63803 0.12974 0.26532 0.0
C654 C 0.63541 0.14345 0.18569 0.0
C655 C 0.61952 0.16351 0.21233 0.0
H656 H 0.47036 0.68595 0.24259 0.0
H657 H 0.4228 0.63498 0.14935 0.0
H658 H 0.39779 0.59832 0.19571 0.0
H659 H 0.38543 0.58342 0.26324 0.0
H660 H 0.43445 0.63232 0.35693 0.0
H661 H 0.46291 0.66651 0.31041 0.0
C662 C 0.45509 0.66635 0.23247 0.0
C663 C 0.44845 0.6633 0.19245 0.0
C664 C 0.44093 0.64486 0.25951 0.0
C665 C 0.42851 0.63781 0.17987 0.0
C666 C 0.41398 0.6169 0.20645 0.0
C667 C 0.4029 0.60106 0.27344 0.0
C668 C 0.40783 0.60501 0.31364 0.0
C669 C 0.41945 0.62055 0.2464 0.0
C670 C 0.43044 0.62826 0.32625 0.0
C671 C 0.44663 0.64804 0.29957 0.0
H672 H 0.96709 0.36861 0.25901 0.0
H673 H 0.94594 0.4345 0.35253 0.0
H674 H 0.9106 0.4656 0.3097 0.0
H675 H 0.88189 0.47188 0.24615 0.0
H676 H 0.9051 0.40663 0.15273 0.0
H677 H 0.94291 0.37787 0.1945 0.0
C678 C 0.95533 0.39018 0.26987 0.0
C679 C 0.95956 0.3991 0.30916 0.0
C680 C 0.93496 0.40814 0.24489 0.0
C681 C 0.9437 0.42709 0.32249 0.0
C682 C 0.92319 0.44487 0.29795 0.0
C683 C 0.89564 0.45169 0.23486 0.0
C684 C 0.89038 0.44136 0.19621 0.0
C685 C 0.91813 0.43538 0.25916 0.0
C686 C 0.90847 0.4151 0.1822 0.0
C687 C 0.93019 0.39857 0.20618 0.0
H688 H 0.15132 0.92738 0.32854 0.0
H689 H 0.22424 0.96448 0.2515 0.0
H690 H 0.19331 0.94531 0.1954 0.0
H691 H 0.14702 0.91496 0.16796 0.0
H692 H 0.07728 0.87276 0.2453 0.0
H693 H 0.105 0.89704 0.3011 0.0
C694 C 0.16015 0.93177 0.29944 0.0
C695 C 0.18999 0.94775 0.29436 0.0
C696 C 0.14267 0.91967 0.26717 0.0
C697 C 0.20139 0.9524 0.25638 0.0
C698 C 0.18368 0.9414 0.2242 0.0
C699 C 0.13754 0.91165 0.19698 0.0
C700 C 0.10969 0.89253 0.20234 0.0
C701 C 0.15446 0.92463 0.22918 0.0
C702 C 0.09837 0.88766 0.24029 0.0
C703 C 0.11431 0.90149 0.27226 0.0
H704 H 0.38052 0.97158 0.75599 0.0
H705 H 0.41087 0.91121 0.85075 0.0
H706 H 0.4455 0.88031 0.80704 0.0
H707 H 0.46477 0.86813 0.74107 0.0
H708 H 0.43799 0.9304 0.64657 0.0
H709 H 0.40528 0.96321 0.69081 0.0
C710 C 0.39515 0.95198 0.76706 0.0
C711 C 0.39309 0.94376 0.80664 0.0
C712 C 0.41589 0.93473 0.74179 0.0
C713 C 0.41217 0.91826 0.82057 0.0
C714 C 0.43194 0.90047 0.79552 0.0
C715 C 0.45242 0.88936 0.7303 0.0
C716 C 0.45413 0.89686 0.69049 0.0
C717 C 0.43378 0.90824 0.756 0.0
C718 C 0.43768 0.92434 0.6771 0.0
C719 C 0.41859 0.94291 0.70237 0.0
H720 H 0.58999 0.39033 0.7504 0.0
H721 H 0.64119 0.42769 0.84989 0.0
H722 H 0.67489 0.4609 0.80769 0.0
H723 H 0.69239 0.47705 0.74176 0.0
H724 H 0.6387 0.44248 0.6426 0.0
H725 H 0.6036 0.41112 0.68503 0.0
C726 C 0.6081 0.40623 0.76287 0.0
C727 C 0.61282 0.40649 0.80343 0.0
C728 C 0.6272 0.42585 0.73831 0.0
C729 C 0.6366 0.42718 0.81895 0.0
C730 C 0.65614 0.44608 0.79472 0.0
C731 C 0.67265 0.46313 0.72946 0.0
C732 C 0.66832 0.46244 0.6888 0.0
C733 C 0.652 0.44534 0.75426 0.0
C734 C 0.64257 0.444 0.67363 0.0
C735 C 0.62251 0.42576 0.69796 0.0
H736 H 0.16856 0.66807 0.66755 0.0
H737 H 0.07602 0.68202 0.72198 0.0
H738 H 0.09599 0.65479 0.78071 0.0
H739 H 0.14232 0.63229 0.819 0.0
H740 H 0.2349 0.62137 0.76312 0.0
H741 H 0.21197 0.64069 0.70236 0.0
C742 C 0.15241 0.66455 0.69194 0.0
C743 C 0.12074 0.67712 0.69025 0.0
C744 C 0.16428 0.64951 0.72561 0.0
C745 C 0.1003 0.67233 0.72221 0.0
C746 C 0.11193 0.65706 0.75598 0.0
C747 C 0.15736 0.63385 0.79338 0.0
C748 C 0.19048 0.62542 0.79587 0.0
C749 C 0.14424 0.64636 0.75845 0.0
C750 C 0.20956 0.62786 0.76235 0.0
C751 C 0.1965 0.63916 0.72755 0.0
H752 H 0.87317 0.09881 0.74833 0.0
H753 H 0.92822 0.14327 0.65697 0.0
H754 H 0.96046 0.17273 0.70499 0.0
H755 H 0.96982 0.18971 0.77332 0.0
H756 H 0.91882 0.14087 0.86477 0.0
H757 H 0.88851 0.10931 0.81679 0.0
C758 C 0.89263 0.1145 0.73901 0.0
C759 C 0.89808 0.11891 0.69903 0.0
C760 C 0.91173 0.13082 0.76693 0.0
C761 C 0.9236 0.13916 0.68747 0.0
C762 C 0.94194 0.15625 0.71498 0.0
C763 C 0.95262 0.17159 0.78267 0.0
C764 C 0.9467 0.16757 0.82261 0.0
C765 C 0.9358 0.15282 0.75481 0.0
C766 C 0.92419 0.14412 0.83428 0.0
C767 C 0.90662 0.12624 0.8068 0.0
H768 H 0.38367 0.13226 0.41745 0.0
H769 H 0.45742 0.05887 0.42149 0.0
H770 H 0.41697 1.01732 0.40872 0.0
H771 H 0.36048 1.00125 0.39819 0.0
H772 H 0.28624 0.07413 0.39397 0.0
H773 H 0.32688 0.11613 0.40507 0.0
C774 C 0.39089 0.10717 0.41565 0.0
C775 C 0.42378 0.09891 0.4204 0.0
C776 C 0.36734 0.08315 0.40826 0.0
C777 C 0.43254 0.06619 0.41747 0.0
C778 C 0.40932 0.04228 0.41038 0.0
C779 C 0.3531 1.02632 0.39944 0.0
C780 C 0.32015 1.03434 0.39518 0.0
C781 C 0.37663 0.05042 0.40587 0.0
C782 C 0.31131 0.06709 0.39697 0.0
C783 C 0.33459 0.09118 0.40346 0.0
H784 H 0.43998 0.38485 0.41213 0.0
H785 H 0.51828 0.45074 0.43688 0.0
H786 H 0.55741 0.40815 0.42417 0.0
H787 H 0.56991 0.3519 0.40775 0.0
H788 H 0.49232 0.28507 0.38387 0.0
H789 H 0.45279 0.32823 0.39381 0.0
C790 C 0.4656 0.39001 0.41437 0.0
C791 C 0.47591 0.42118 0.42588 0.0
C792 C 0.48829 0.36515 0.40702 0.0
C793 C 0.50936 0.42705 0.42886 0.0
C794 C 0.5319 0.40267 0.42132 0.0
C795 C 0.54438 0.34671 0.40426 0.0
C796 C 0.53429 0.31507 0.39481 0.0
C797 C 0.5217 0.37158 0.41065 0.0
C798 C 0.50096 0.30906 0.39092 0.0
C799 C 0.47826 0.3338 0.39675 0.0
H800 H 0.19612 0.43733 0.40539 0.0
H801 H 0.12565 0.51348 0.39555 0.0
H802 H 0.16857 0.55215 0.3816 0.0
H803 H 0.22668 0.56537 0.37533 0.0
H804 H 0.29711 0.48932 0.38667 0.0
H805 H 0.25394 0.45014 0.39695 0.0
C806 C 0.19003 0.46239 0.40036 0.0
C807 C 0.1573 0.47215 0.40169 0.0
C808 C 0.21504 0.48479 0.39258 0.0
C809 C 0.1503 0.50483 0.39433 0.0
C810 C 0.17498 0.52716 0.38656 0.0
C811 C 0.23264 0.54016 0.37949 0.0
C812 C 0.26542 0.53056 0.37999 0.0
C813 C 0.20751 0.51754 0.38589 0.0
C814 C 0.27234 0.49768 0.38593 0.0
C815 C 0.24755 0.47513 0.39199 0.0
H816 H 0.06787 0.13785 0.37735 0.0
H817 H 0.13782 0.18118 0.45462 0.0
H818 H 0.11059 0.23313 0.44872 0.0
H819 H 0.06649 0.26698 0.42199 0.0
H820 H 0.99595 0.22333 0.34585 0.0
H821 H 1.02402 0.17166 0.3504 0.0
C822 C 0.07741 0.15862 0.39278 0.0
C823 C 0.10513 0.15498 0.41662 0.0
C824 C 0.06153 0.18884 0.3892 0.0
C825 C 0.11642 0.18255 0.4366 0.0
C826 C 0.10093 0.21258 0.43296 0.0
C827 C 0.05744 0.24632 0.40591 0.0
C828 C 1.0291 0.24958 0.38315 0.0
C829 C 0.07345 0.21614 0.40932 0.0
C830 C 1.01766 0.22201 0.36335 0.0
C831 C 1.03372 0.19223 0.36607 0.0
H832 H 0.91897 1.01289 0.12647 0.0
H833 H 0.87822 0.94634 0.04297 0.0
H834 H 0.82542 0.97155 0.05069 0.0
H835 H 0.79016 1.01229 0.08135 0.0
H836 H 0.83073 0.07876 0.16496 0.0
H837 H 0.88359 0.05331 0.15762 0.0
C838 C 0.89858 1.00362 0.11008 0.0
C839 C 0.90312 0.97753 0.08398 0.0
C840 C 0.86787 1.01808 0.115 0.0
C841 C 0.87609 0.96659 0.06273 0.0
C842 C 0.8456 0.98085 0.06744 0.0
C843 C 0.81041 1.02103 0.09841 0.0
C844 C 0.80601 0.04738 0.12409 0.0
C845 C 0.8411 1.00653 0.0936 0.0
C846 C 0.83299 0.05849 0.14524 0.0
C847 C 0.86342 0.04398 0.14091 0.0
H848 H 0.49168 0.83734 0.09041 0.0
H849 H 0.5661 0.77252 0.12991 0.0
H850 H 0.60654 0.81531 0.12231 0.0
H851 H 0.62094 0.87129 0.10358 0.0
H852 H 0.54597 0.93497 0.06256 0.0
H853 H 0.50595 0.89236 0.07086 0.0
C854 C 0.5167 0.83248 0.0976 0.0
C855 C 0.52564 0.80161 0.11105 0.0
C856 C 0.53993 0.85702 0.09241 0.0
C857 C 0.55836 0.79595 0.11971 0.0
C858 C 0.58156 0.82046 0.11525 0.0
C859 C 0.59584 0.87592 0.09654 0.0
C860 C 0.58675 0.90655 0.08222 0.0
C861 C 0.57267 0.85111 0.10148 0.0
C862 C 0.55402 0.9117 0.07294 0.0
C863 C 0.53095 0.88735 0.07804 0.0
H864 H 0.62822 0.5578 0.10195 0.0
H865 H 0.68422 0.64429 0.0837 0.0
H866 H 0.73397 0.61434 0.09528 0.0
H867 H 0.76237 0.56293 0.10863 0.0
H868 H 0.70608 0.47664 0.12702 0.0
H869 H 0.65633 0.50712 0.11812 0.0
C870 C 0.65121 0.57032 0.10098 0.0
C871 C 0.652 0.60349 0.09154 0.0
C872 C 0.68006 0.55285 0.10783 0.0
C873 C 0.68244 0.6188 0.09007 0.0
C874 C 0.71111 0.60166 0.09699 0.0
C875 C 0.73924 0.55082 0.11122 0.0
C876 C 0.73836 0.51731 0.11869 0.0
C877 C 0.71033 0.56857 0.10559 0.0
C878 C 0.70788 0.50227 0.12143 0.0
C879 C 0.67922 0.51974 0.11621 0.0
H880 H 0.05231 0.72306 0.09216 0.0
H881 H 0.97731 0.79337 0.11159 0.0
H882 H 0.93613 0.75148 0.10183 0.0
H883 H 0.92146 0.69436 0.08801 0.0
H884 H 0.99735 0.62545 0.0659 0.0
H885 H 1.03795 0.66742 0.07554 0.0
C886 C 1.02698 0.72939 0.09424 0.0
C887 C 1.01806 0.76146 0.10289 0.0
C888 C 1.00348 0.70535 0.08772 0.0
C889 C 0.98499 0.76897 0.10515 0.0
C890 C 0.9614 0.74497 0.0995 0.0
C891 C 0.94688 0.68855 0.08526 0.0
C892 C 0.95618 0.6566 0.07609 0.0
C893 C 0.97034 0.71301 0.09079 0.0
C894 C 0.98931 0.64974 0.07232 0.0
C895 C 1.01264 0.67373 0.07819 0.0
H896 H 0.76259 1.01853 0.57947 0.0
H897 H 0.71706 0.08809 0.65484 0.0
H898 H 0.66521 0.06014 0.64699 0.0
H899 H 0.63206 1.0162 0.61714 0.0
H900 H 0.67825 0.94867 0.53957 0.0
H901 H 0.73 0.97552 0.54969 0.0
C902 C 0.74148 1.02745 0.59465 0.0
C903 C 0.74413 0.05531 0.6182 0.0
C904 C 0.71148 1.01168 0.58923 0.0
C905 C 0.71606 0.06666 0.63679 0.0
C906 C 0.68626 0.05068 0.63219 0.0
C907 C 0.65346 1.00732 0.60254 0.0
C908 C 0.65087 0.98043 0.57727 0.0
C909 C 0.68354 1.02322 0.60824 0.0
C910 C 0.67908 0.96953 0.55858 0.0
C911 C 0.7089 0.98478 0.56457 0.0
H912 H 0.60545 0.66017 0.6187 0.0
H913 H 0.62447 0.67963 0.49796 0.0
H914 H 0.59475 0.73014 0.50274 0.0
H915 H 0.56173 0.76851 0.54029 0.0
H916 H 0.54326 0.75006 0.66126 0.0
H917 H 0.57467 0.70021 0.65733 0.0
C918 C 0.60352 0.67558 0.5935 0.0
C919 C 0.6171 0.66545 0.55783 0.0
C920 C 0.58639 0.70508 0.59644 0.0
C921 C 0.61384 0.68603 0.5256 0.0
C922 C 0.59695 0.71522 0.52834 0.0
C923 C 0.56477 0.75378 0.56595 0.0
C924 C 0.54998 0.76329 0.60105 0.0
C925 C 0.58282 0.7249 0.56346 0.0
C926 C 0.55431 0.74362 0.63385 0.0
C927 C 0.57225 0.71493 0.6316 0.0
H928 H 0.8829 0.64032 0.56835 0.0
H929 H 0.94785 0.57093 0.61939 0.0
H930 H 0.90252 0.53567 0.63404 0.0
H931 H 0.84508 0.52288 0.63032 0.0
H932 H 0.77853 0.59071 0.57973 0.0
H933 H 0.82356 0.62813 0.5674 0.0
C934 C 0.88713 0.6175 0.5827 0.0
C935 C 0.91913 0.60861 0.59283 0.0
C936 C 0.86057 0.59697 0.59125 0.0
C937 C 0.92378 0.57892 0.61171 0.0
C938 C 0.89777 0.55851 0.61995 0.0
C939 C 0.84017 0.54596 0.61683 0.0
C940 C 0.80821 0.55378 0.60591 0.0
C941 C 0.86614 0.56713 0.60967 0.0
C942 C 0.80267 0.584 0.58872 0.0
C943 C 0.82855 0.60532 0.58141 0.0
H944 H 0.9724 0.91166 0.63929 0.0
H945 H 0.94146 0.88793 0.52298 0.0
H946 H 0.97335 0.83845 0.52488 0.0
H947 H 1.01068 0.80222 0.55893 0.0
H948 H 0.04245 0.82605 0.67486 0.0
H949 H 1.00896 0.87465 0.67401 0.0
C950 C 0.97229 0.89553 0.61446 0.0
C951 C 0.95439 0.90378 0.58097 0.0
C952 C 0.99068 0.86691 0.61577 0.0
C953 C 0.95521 0.88266 0.54893 0.0
C954 C 0.9733 0.85415 0.5501 0.0
C955 C 1.01 0.81774 0.58431 0.0
C956 C 1.02899 0.81016 0.6171 0.0
C957 C 0.99117 0.84604 0.58332 0.0
C958 C 1.02804 0.83103 0.64934 0.0
C959 C 1.00896 0.85897 0.64878 0.0
H960 H 0.12935 0.05786 0.89088 0.0
H961 H 0.18147 0.12984 0.9567 0.0
H962 H 0.23215 0.10172 0.94429 0.0
H963 H 0.26203 0.05584 0.91618 0.0
H964 H 0.20993 0.98259 0.8525 0.0
H965 H 0.15946 1.01208 0.86211 0.0
C966 C 0.15182 0.06749 0.90232 0.0
C967 C 0.15132 0.09592 0.92502 0.0
C968 C 0.18114 0.05098 0.89527 0.0
C969 C 0.18082 0.10779 0.93975 0.0
C970 C 0.20998 0.09181 0.93243 0.0
C971 C 0.23973 0.04656 0.90388 0.0
C972 C 0.24001 1.01711 0.88327 0.0
C973 C 0.21049 0.06329 0.91038 0.0
C974 C 0.21062 1.00522 0.86832 0.0
C975 C 0.18163 1.02205 0.87392 0.0
H976 H 0.47621 0.14881 0.8665 0.0
H977 H 0.43678 0.18042 0.97594 0.0
H978 H 0.46835 0.23031 0.97199 0.0
H979 H 0.50734 0.26558 0.93704 0.0
H980 H 0.54643 0.23282 0.82782 0.0
H981 H 0.51445 0.18356 0.83185 0.0
C982 C 0.47416 0.16666 0.88943 0.0
C983 C 0.45376 0.16053 0.92144 0.0
C984 C 0.4923 0.1955 0.88688 0.0
C985 C 0.45234 0.18398 0.95111 0.0
C986 C 0.47028 0.21277 0.94871 0.0
C987 C 0.50862 0.24784 0.91391 0.0
C988 C 0.52933 0.25334 0.88198 0.0
C989 C 0.49031 0.21893 0.91664 0.0
C990 C 0.53085 0.22958 0.85271 0.0
C991 C 0.51254 0.20121 0.85501 0.0
H992 H 0.42719 0.51242 0.88964 0.0
H993 H 0.38019 0.43644 0.95352 0.0
H994 H 0.32838 0.46385 0.94676 0.0
H995 H 0.29585 0.51034 0.92411 0.0
H996 H 0.34326 0.58715 0.86222 0.0
H997 H 0.39462 0.55844 0.8662 0.0
C998 C 0.40563 0.50169 0.90191 0.0
C999 C 0.4081 0.47231 0.92241 0.0
C1000 C 0.37556 0.51776 0.89803 0.0
C1001 C 0.37957 0.45921 0.93825 0.0
C1002 C 0.34967 0.4748 0.93412 0.0
C1003 C 0.31729 0.52054 0.91089 0.0
C1004 C 0.31531 0.55085 0.89246 0.0
C1005 C 0.34727 0.50418 0.91419 0.0
C1006 C 0.34375 0.56387 0.87638 0.0
C1007 C 0.37331 0.54747 0.87879 0.0
H1008 H 0.05888 0.42448 0.88051 0.0
H1009 H 0.12681 0.38501 0.96255 0.0
H1010 H 0.09775 0.33368 0.96173 0.0
H1011 H 0.0527 0.29969 0.93824 0.0
H1012 H 0.98352 0.33961 0.85804 0.0
H1013 H 1.01348 0.39049 0.85728 0.0
C1014 C 0.06747 0.40461 0.89807 0.0
C1015 C 0.09515 0.40891 0.92165 0.0
C1016 C 0.05042 0.37497 0.89764 0.0
C1017 C 0.10547 0.3828 0.94452 0.0
C1018 C 0.08893 0.35324 0.94386 0.0
C1019 C 0.04434 0.31936 0.92021 0.0
C1020 C 1.01594 0.31544 0.89787 0.0
C1021 C 0.06137 0.34898 0.92056 0.0
C1022 C 1.00528 0.34164 0.87537 0.0
C1023 C 1.02242 0.37089 0.875 0.0
H1024 H 0.71236 0.44603 0.36483 0.0
H1025 H 0.68965 0.41245 0.24988 0.0
H1026 H 0.74427 0.42261 0.22951 0.0
H1027 H 0.79927 0.41195 0.2547 0.0
H1028 H 0.82315 0.44148 0.37095 0.0
H1029 H 0.7684 0.46174 0.3806 0.0
C1030 C 0.71901 0.44289 0.33462 0.0
C1031 C 0.6986 0.42466 0.31024 0.0
C1032 C 0.75159 0.44605 0.32402 0.0
C1033 C 0.70592 0.42383 0.27045 0.0
C1034 C 0.73769 0.42897 0.25872 0.0
C1035 C 0.79313 0.42479 0.28116 0.0
C1036 C 0.81384 0.42296 0.31332 0.0
C1037 C 0.76134 0.43546 0.28675 0.0
C1038 C 0.80641 0.44091 0.3468 0.0
C1039 C 0.7751 0.45244 0.35231 0.0
H1040 H 0.45026 0.73917 0.3468 0.0
H1041 H 0.42458 0.75161 0.22685 0.0
H1042 H 0.44461 0.80679 0.22897 0.0
H1043 H 0.43906 0.8535 0.27168 0.0
H1044 H 0.45763 0.84325 0.3941 0.0
H1045 H 0.47008 0.78638 0.3843 0.0
C1046 C 0.44926 0.75383 0.32087 0.0
C1047 C 0.43186 0.74277 0.28813 0.0
C1048 C 0.45758 0.7866 0.32335 0.0
C1049 C 0.43494 0.76035 0.25357 0.0
C1050 C 0.44609 0.79215 0.2548 0.0
C1051 C 0.44746 0.83955 0.29621 0.0
C1052 C 0.44395 0.85165 0.33423 0.0
C1053 C 0.45263 0.80645 0.29077 0.0
C1054 C 0.45749 0.83369 0.36481 0.0
C1055 C 0.46431 0.80097 0.35933 0.0
H1056 H 0.30359 0.84522 0.2907 0.0
H1057 H 0.31121 0.74447 0.31969 0.0
H1058 H 0.25933 0.74639 0.35208 0.0
H1059 H 0.20635 0.77175 0.35044 0.0
H1060 H 0.19765 0.87217 0.32283 0.0
H1061 H 0.25539 0.87584 0.31236 0.0
C1062 C 0.29481 0.82404 0.3057 0.0
C1063 C 0.3108 0.79429 0.3013 0.0
C1064 C 0.26431 0.8251 0.32332 0.0
C1065 C 0.29905 0.76735 0.32156 0.0
C1066 C 0.26921 0.76844 0.34014 0.0
C1067 C 0.21696 0.79483 0.34327 0.0
C1068 C 0.19765 0.82 0.32862 0.0
C1069 C 0.25048 0.79643 0.33789 0.0
C1070 C 0.21208 0.85079 0.32746 0.0
C1071 C 0.24538 0.85309 0.32191 0.0
H1072 H 0.769 0.3138 0.32693 0.0
H1073 H 0.84834 0.27595 0.25899 0.0
H1074 H 0.849 0.22789 0.2979 0.0
H1075 H 0.81391 0.18976 0.32971 0.0
H1076 H 0.72334 0.22182 0.37611 0.0
H1077 H 0.74134 0.27754 0.37247 0.0
C1078 C 0.78652 0.29513 0.32052 0.0
C1079 C 0.80709 0.29801 0.28812 0.0
C1080 C 0.7846 0.26571 0.34022 0.0
C1081 C 0.83136 0.27457 0.28269 0.0
C1082 C 0.83176 0.24666 0.30503 0.0
C1083 C 0.79832 0.20889 0.34022 0.0
C1084 C 0.76554 0.20221 0.34748 0.0
C1085 C 0.80638 0.2407 0.33075 0.0
C1086 C 0.74788 0.2264 0.36693 0.0
C1087 C 0.75766 0.25861 0.36334 0.0
H1088 H 0.23795 0.69686 0.65658 0.0
H1089 H 0.26617 0.70626 0.77639 0.0
H1090 H 0.31188 0.66997 0.76508 0.0
H1091 H 0.35212 0.65439 0.7172 0.0
H1092 H 0.32726 0.65242 0.59582 0.0
H1093 H 0.27119 0.66444 0.61175 0.0
C1094 C 0.25364 0.68996 0.6804 0.0
C1095 C 0.24981 0.70467 0.71684 0.0
C1096 C 0.28068 0.67076 0.67318 0.0
C1097 C 0.26936 0.69545 0.74799 0.0
C1098 C 0.29551 0.67493 0.74144 0.0
C1099 C 0.33435 0.65532 0.69414 0.0
C1100 C 0.34436 0.65631 0.65511 0.0
C1101 C 0.30296 0.6651 0.70346 0.0
C1102 C 0.32048 0.65411 0.62609 0.0
C1103 C 0.28847 0.66156 0.63515 0.0
H1104 H 0.91657 0.27577 0.65618 0.0
H1105 H 0.8932 0.28616 0.77718 0.0
H1106 H 0.91999 0.33878 0.77872 0.0
H1107 H 0.92733 0.38671 0.74116 0.0
H1108 H 0.94168 0.38022 0.61778 0.0
H1109 H 0.94275 0.32148 0.62187 0.0
C1110 C 0.91843 0.28912 0.68322 0.0
C1111 C 0.90254 0.27767 0.71649 0.0
C1112 C 0.93101 0.32056 0.68311 0.0
C1113 C 0.90514 0.29482 0.75141 0.0
C1114 C 0.91997 0.32497 0.75216 0.0
C1115 C 0.9319 0.37284 0.71507 0.0
C1116 C 0.92941 0.38744 0.67837 0.0
C1117 C 0.92973 0.33924 0.71742 0.0
C1118 C 0.93978 0.36918 0.6461 0.0
C1119 C 0.93998 0.33547 0.64829 0.0
H1120 H 0.85621 0.36355 0.75967 0.0
H1121 H 0.80906 0.42268 0.84532 0.0
H1122 H 0.76201 0.42808 0.80313 0.0
H1123 H 0.72874 0.39712 0.75829 0.0
H1124 H 0.77285 0.32842 0.68045 0.0
H1125 H 0.82637 0.34545 0.70238 0.0
C1126 C 0.83633 0.37915 0.76804 0.0
C1127 C 0.83517 0.39148 0.80604 0.0
C1128 C 0.80801 0.37859 0.74584 0.0
C1129 C 0.81001 0.41245 0.81638 0.0
C1130 C 0.78278 0.41479 0.79261 0.0
C1131 C 0.74997 0.38697 0.74451 0.0
C1132 C 0.74688 0.36017 0.71949 0.0
C1133 C 0.78036 0.39503 0.75955 0.0
C1134 C 0.77469 0.34818 0.70102 0.0
C1135 C 0.80528 0.3576 0.71397 0.0
H1136 H 0.39327 0.83213 0.74527 0.0
H1137 H 0.31916 0.78836 0.67446 0.0
H1138 H 0.33873 0.73492 0.6918 0.0
H1139 H 0.36039 0.70544 0.74726 0.0
H1140 H 0.43065 0.75019 0.82237 0.0
H1141 H 0.43071 0.79815 0.78163 0.0
C1142 C 0.38243 0.81107 0.73172 0.0
C1143 C 0.3529 0.81388 0.71161 0.0
C1144 C 0.39278 0.78052 0.74364 0.0
C1145 C 0.34073 0.78653 0.69216 0.0
C1146 C 0.35166 0.75592 0.70251 0.0
C1147 C 0.37723 0.72474 0.7535 0.0
C1148 C 0.39366 0.72538 0.78926 0.0
C1149 C 0.37523 0.75298 0.73157 0.0
C1150 C 0.41656 0.74991 0.79586 0.0
C1151 C 0.41617 0.77758 0.77289 0.0
H1152 H 0.7074 0.18162 0.41761 0.0
H1153 H 0.63736 0.17067 0.50937 0.0
H1154 H 0.67532 0.13874 0.54629 0.0
H1155 H 0.72992 0.11907 0.55677 0.0
H1156 H 0.8025 0.13167 0.46894 0.0
H1157 H 0.76226 0.15718 0.42614 0.0
C1158 C 0.70052 0.17234 0.44564 0.0
C1159 C 0.66961 0.17955 0.46081 0.0
C1160 C 0.72295 0.15403 0.46749 0.0
C1161 C 0.66096 0.1663 0.4969 0.0
C1162 C 0.68269 0.14781 0.51821 0.0
C1163 C 0.73671 0.12659 0.52778 0.0
C1164 C 0.76898 0.12325 0.51585 0.0
C1165 C 0.71392 0.14222 0.5043 0.0
C1166 C 0.77763 0.13339 0.47845 0.0
C1167 C 0.7547 0.14844 0.45428 0.0
H1168 H 0.40158 0.76694 0.53706 0.0
H1169 H 0.48154 0.77989 0.45888 0.0
H1170 H 0.46115 0.73483 0.41851 0.0
H1171 H 0.42259 0.68833 0.40922 0.0
H1172 H 0.34885 0.67258 0.49546 0.0
H1173 H 0.36491 0.7219 0.5291 0.0
C1174 C 0.41444 0.76032 0.5108 0.0
C1175 C 0.44307 0.77692 0.501 0.0
C1176 C 0.40382 0.73343 0.48954 0.0
C1177 C 0.45919 0.76804 0.46678 0.0
C1178 C 0.44771 0.74196 0.44404 0.0
C1179 C 0.41018 0.69582 0.43541 0.0
C1180 C 0.38469 0.67663 0.4501 0.0
C1181 C 0.42047 0.72387 0.45572 0.0
C1182 C 0.36877 0.68658 0.48396 0.0
C1183 C 0.3778 0.71492 0.50305 0.0
H1184 H 0.86791 0.38971 0.4185 0.0
H1185 H 0.93747 0.40183 0.51103 0.0
H1186 H 0.89776 0.43136 0.54907 0.0
H1187 H 0.843 0.45161 0.55803 0.0
H1188 H 0.77151 0.43876 0.46829 0.0
H1189 H 0.812 0.41155 0.42754 0.0
C1190 C 0.87446 0.39896 0.44688 0.0
C1191 C 0.90596 0.39332 0.46169 0.0
C1192 C 0.85114 0.41596 0.4691 0.0
C1193 C 0.91371 0.40558 0.49866 0.0
C1194 C 0.89093 0.42259 0.52054 0.0
C1195 C 0.83632 0.4434 0.52918 0.0
C1196 C 0.80419 0.44741 0.5162 0.0
C1197 C 0.8596 0.42769 0.50623 0.0
C1198 C 0.79609 0.43659 0.47878 0.0
C1199 C 0.81931 0.42087 0.45555 0.0
H1200 H 0.15897 0.7783 0.4852 0.0
H1201 H 0.08068 0.83914 0.52259 0.0
H1202 H 0.10313 0.88442 0.48625 0.0
H1203 H 0.14886 0.90884 0.45091 0.0
H1204 H 0.2277 0.8482 0.414 0.0
H1205 H 0.20141 0.80124 0.4425 0.0
C1206 C 0.14614 0.80107 0.48392 0.0
C1207 C 0.11777 0.80511 0.50595 0.0
C1208 C 0.15985 0.8275 0.4638 0.0
C1209 C 0.10213 0.8352 0.5052 0.0
C1210 C 0.11525 0.86129 0.48487 0.0
C1211 C 0.16014 0.88531 0.44876 0.0
C1212 C 0.19042 0.88235 0.43046 0.0
C1213 C 0.14476 0.85812 0.46527 0.0
C1214 C 0.2044 0.85143 0.42774 0.0
C1215 C 0.18939 0.82442 0.44419 0.0
H1216 H 0.27832 0.89347 0.99487 0.0
H1217 H 0.23643 0.98733 0.97788 0.0
H1218 H 0.18854 0.97101 0.01509 0.0
H1219 H 0.15639 0.92783 0.04801 0.0
H1220 H 0.20095 0.8353 0.06766 0.0
H1221 H 0.24959 0.85317 0.03422 0.0
C1222 C 0.2591 0.91066 1.0003 0.0
C1223 C 0.26122 0.94175 0.98407 0.0
C1224 C 0.23171 0.90107 0.02176 0.0
C1225 C 0.23584 0.96356 0.99082 0.0
C1226 C 0.2082 0.95401 0.01166 0.0
C1227 C 0.17686 0.91172 0.04521 0.0
C1228 C 0.17471 0.88005 0.06019 0.0
C1229 C 0.20547 0.92251 0.02655 0.0
C1230 C 0.20175 0.85972 0.05662 0.0
C1231 C 0.22967 0.86992 0.03736 0.0
H1232 H 0.66577 0.20851 0.08274 0.0
H1233 H 0.6629 0.13627 0.99213 0.0
H1234 H 0.63856 0.17483 0.94803 0.0
H1235 H 0.61998 0.2293 0.93349 0.0
H1236 H 0.62057 0.30245 0.02265 0.0
H1237 H 0.64323 0.2634 0.06887 0.0
C1238 C 0.65974 0.20121 0.05338 0.0
C1239 C 0.66649 0.16928 0.04098 0.0
C1240 C 0.64516 0.2237 0.02778 0.0
C1241 C 0.6581 0.16039 1.00282 0.0
C1242 C 0.64414 0.18254 0.97737 0.0
C1243 C 0.62484 0.23679 0.96313 0.0
C1244 C 0.61873 0.26897 0.97439 0.0
C1245 C 0.63782 0.21426 0.98935 0.0
C1246 C 0.62483 0.2779 0.01312 0.0
C1247 C 0.63805 0.25556 0.03949 0.0
H1248 H 0.31689 0.60273 0.96684 0.0
H1249 H 0.24803 0.63615 0.0512 0.0
H1250 H 0.29157 0.66129 0.08902 0.0
H1251 H 0.34822 0.67983 0.09337 0.0
H1252 H 0.41612 0.64992 0.0054 0.0
H1253 H 0.37421 0.61783 0.97373 0.0
C1254 C 0.31165 0.6144 0.99432 0.0
C1255 C 0.27939 0.61671 0.00687 0.0
C1256 C 0.33664 0.63039 0.01467 0.0
C1257 C 0.27277 0.63316 0.04164 0.0
C1258 C 0.29764 0.64802 0.06289 0.0
C1259 C 0.354 0.66605 0.06751 0.0
C1260 C 0.38544 0.66772 0.05176 0.0
C1261 C 0.32952 0.64781 0.04895 0.0
C1262 C 0.39223 0.64952 0.01817 0.0
C1263 C 0.36823 0.63098 1.0 0.0
H1264 H 0.887 0.35848 0.1006 0.0
H1265 H 0.90555 0.42842 0.01077 0.0
H1266 H 0.93999 0.38976 0.97713 0.0
H1267 H 0.95876 0.33414 0.96853 0.0
H1268 H 0.93846 0.26293 0.05567 0.0
H1269 H 0.9118 0.30419 0.09574 0.0
C1270 C 0.89884 0.36544 0.07388 0.0
C1271 C 0.89312 0.39635 0.05801 0.0
C1272 C 0.9186 0.34287 0.05438 0.0
C1273 C 0.90911 0.40488 0.02359 0.0
C1274 C 0.92891 0.38274 1.00429 0.0
C1275 C 0.94962 0.32799 0.99706 0.0
C1276 C 0.95099 0.29568 0.00947 0.0
C1277 C 0.93312 0.35146 0.01886 0.0
C1278 C 0.93844 0.28776 0.04599 0.0
C1279 C 0.92263 0.31127 0.06848 0.0
H1280 H 0.40582 0.92472 0.55556 0.0
H1281 H 0.36117 0.8312 0.56774 0.0
H1282 H 0.31117 0.85205 0.5396 0.0
H1283 H 0.28208 0.89504 0.50457 0.0
H1284 H 0.32552 0.98893 0.49311 0.0
H1285 H 0.37337 0.97021 0.52868 0.0
C1286 C 0.38503 0.90897 0.55249 0.0
C1287 C 0.38765 0.87614 0.5635 0.0
C1288 C 0.35589 0.92136 0.53662 0.0
C1289 C 0.36014 0.85641 0.55965 0.0
C1290 C 0.33143 0.86836 0.54342 0.0
C1291 C 0.30145 0.91184 0.51131 0.0
C1292 C 0.29972 0.94368 0.49679 0.0
C1293 C 0.3292 0.90059 0.53108 0.0
C1294 C 0.32554 0.96474 0.50489 0.0
C1295 C 0.35328 0.95374 0.5246 0.0
H1296 H 0.64795 0.41345 0.55028 0.0
H1297 H 0.73504 0.36246 0.58052 0.0
H1298 H 0.71259 0.31256 0.55337 0.0
H1299 H 0.67011 0.28448 0.51557 0.0
H1300 H 0.58141 0.33385 0.48904 0.0
H1301 H 0.60202 0.3829 0.52076 0.0
C1302 C 0.66185 0.39131 0.55116 0.0
C1303 C 0.69341 0.39183 0.56689 0.0
C1304 C 0.64832 0.3623 0.53643 0.0
C1305 C 0.71085 0.36281 0.56847 0.0
C1306 C 0.69799 0.33423 0.5529 0.0
C1307 C 0.65485 0.30565 0.51801 0.0
C1308 C 0.624 0.30528 0.50054 0.0
C1309 C 0.66697 0.33376 0.53626 0.0
C1310 C 0.60482 0.33315 0.50315 0.0
C1311 C 0.61687 0.36139 0.52075 0.0
H1312 H 0.28311 0.68046 0.46837 0.0
H1313 H 0.25414 0.58346 0.4963 0.0
H1314 H 0.20844 0.60455 0.53414 0.0
H1315 H 0.17445 0.65106 0.55562 0.0
H1316 H 0.20628 0.7478 0.53015 0.0
H1317 H 0.25283 0.72646 0.49502 0.0
C1318 C 0.26702 0.66391 0.48317 0.0
C1319 C 0.27197 0.63037 0.47933 0.0
C1320 C 0.24099 0.67625 0.50496 0.0
C1321 C 0.25108 0.60932 0.49899 0.0
C1322 C 0.22474 0.62143 0.52033 0.0
C1323 C 0.19164 0.66741 0.5424 0.0
C1324 C 0.18656 0.70107 0.54511 0.0
C1325 C 0.21904 0.65488 0.52288 0.0
C1326 C 0.20946 0.72189 0.52848 0.0
C1327 C 0.23613 0.70967 0.50832 0.0
H1328 H 0.89577 0.21025 0.5904 0.0
H1329 H 0.90658 0.13781 0.50083 0.0
H1330 H 0.93709 0.17558 0.46154 0.0
H1331 H 0.95651 0.23024 0.44929 0.0
H1332 H 0.94649 0.30392 0.5368 0.0
H1333 H 0.9207 0.26465 0.58038 0.0
C1334 C 0.90502 0.20263 0.56243 0.0
C1335 C 0.89837 0.17104 0.54863 0.0
C1336 C 0.92288 0.22473 0.53957 0.0
C1337 C 0.91098 0.16175 0.5124 0.0
C1338 C 0.92852 0.18342 0.48973 0.0
C1339 C 0.94934 0.23755 0.47829 0.0
C1340 C 0.95353 0.26993 0.48983 0.0
C1341 C 0.93408 0.21507 0.50263 0.0
C1342 C 0.94404 0.27907 0.52741 0.0
C1343 C 0.92887 0.25665 0.5521 0.0
H1344 H 0.85834 0.16575 0.92797 0.0
H1345 H 0.92189 0.16634 0.02748 0.0
H1346 H 0.87995 0.14097 0.06646 0.0
H1347 H 0.8238 0.1231 0.07429 0.0
H1348 H 0.75962 0.12124 0.97589 0.0
H1349 H 0.80321 0.14211 0.93438 0.0
C1350 C 0.86317 0.16003 0.95808 0.0
C1351 C 0.89339 0.16838 0.97471 0.0
C1352 C 0.83874 0.14524 0.98059 0.0
C1353 C 0.89909 0.16039 0.01373 0.0
C1354 C 0.875 0.14592 0.03619 0.0
C1355 C 0.81952 0.12676 0.04356 0.0
C1356 C 0.78851 0.12073 0.02814 0.0
C1357 C 0.84457 0.13887 0.02018 0.0
C1358 C 0.78331 0.1254 0.98833 0.0
C1359 C 0.8082 0.13764 0.96475 0.0
H1360 H 0.37685 0.85099 0.90718 0.0
H1361 H 0.40088 0.92392 0.99246 0.0
H1362 H 0.43101 0.88441 0.02972 0.0
H1363 H 0.44633 0.82835 0.04204 0.0
H1364 H 0.42215 0.75415 0.95931 0.0
H1365 H 0.397 0.79473 0.91695 0.0
C1366 C 0.38889 0.85834 0.93374 0.0
C1367 C 0.38607 0.89068 0.94694 0.0
C1368 C 0.40641 0.83518 0.9555 0.0
C1369 C 0.40219 0.89946 0.98141 0.0
C1370 C 0.41957 0.87679 1.00289 0.0
C1371 C 0.43653 0.82123 0.01408 0.0
C1372 C 0.43682 0.78838 1.00344 0.0
C1373 C 0.42138 0.84453 0.99065 0.0
C1374 C 0.42312 0.77936 0.96768 0.0
C1375 C 0.40827 0.80257 0.94378 0.0
H1376 H 0.78377 0.40285 0.98819 0.0
H1377 H 0.73372 0.48748 0.02851 0.0
H1378 H 0.68482 0.47026 0.99358 0.0
H1379 H 0.65454 0.42777 0.95644 0.0
H1380 H 0.70682 0.34495 0.91377 0.0
H1381 H 0.75616 0.36473 0.9443 0.0
C1382 C 0.76248 0.41808 0.98825 0.0
C1383 C 0.76265 0.44669 0.01051 0.0
C1384 C 0.73445 0.40791 0.96818 0.0
C1385 C 0.73461 0.46581 0.01085 0.0
C1386 C 0.70642 0.45564 0.99133 0.0
C1387 C 0.67679 0.4142 0.95365 0.0
C1388 C 0.67662 0.38457 0.93308 0.0
C1389 C 0.70571 0.4262 0.97075 0.0
C1390 C 0.70595 0.36769 0.92934 0.0
C1391 C 0.73433 0.37899 0.9469 0.0
H1392 H 0.09124 0.73349 0.04131 0.0
H1393 H 0.12723 0.81121 0.97116 0.0
H1394 H 0.15349 0.77202 0.92777 0.0
H1395 H 0.17238 0.71597 0.91566 0.0
H1396 H 0.13654 0.63886 0.98776 0.0
H1397 H 0.10387 0.67735 0.02415 0.0
C1398 C 0.10381 0.74179 0.01566 0.0
C1399 C 0.10683 0.77523 0.00914 0.0
C1400 C 0.1195 0.71915 0.99166 0.0
C1401 C 0.12384 0.78566 0.97631 0.0
C1402 C 0.1393 0.7632 0.95189 0.0
C1403 C 0.15707 0.70742 0.93894 0.0
C1404 C 0.15746 0.67432 0.94911 0.0
C1405 C 0.1383 0.72991 0.96014 0.0
C1406 C 0.1371 0.66397 0.97923 0.0
C1407 C 0.11837 0.68607 1.00021 0.0
loop_
_geom_bond_atom_site_label_1
_geom_bond_atom_site_label_2
_geom_bond_distance
_geom_bond_site_symmetry_2
_ccdc_geom_bond_type
Dy0 O3 2.307 . S
Dy0 O5 2.395 . S
Dy0 O6 2.379 . S
Dy0 O8 2.339 . S
Dy0 O10 2.298 . S
Dy0 O14 2.275 . S
Dy0 C22 2.738 . S
Dy1 O4 2.298 . S
Dy1 O7 2.275 . S
Dy1 O9 2.307 . S
Dy1 O11 2.395 . S
Dy1 O12 2.379 . S
Dy1 O15 2.339 . S
Dy1 C31 2.738 . S
C2 O14 1.254 . S
C2 O15 1.257 . S
O3 Dy0 2.307 . S
O3 C13 1.266 . S
O4 Dy1 2.298 . S
O4 C13 1.236 . S
O5 Dy0 2.395 . S
O5 C22 1.255 . S
O6 Dy0 2.379 . S
O6 C22 1.249 . S
O7 Dy1 2.275 . S
O7 C23 1.254 . S
O8 Dy0 2.339 . S
O8 C23 1.257 . S
O9 Dy1 2.307 . S
O9 C24 1.266 . S
O10 Dy0 2.298 . S
O10 C24 1.236 . S
O11 Dy1 2.395 . S
O11 C31 1.255 . S
O12 Dy1 2.379 . S
O12 C31 1.249 . S
C13 O3 1.266 . S
C13 O4 1.236 . S
O14 Dy0 2.275 . S
O14 C2 1.254 . S
O15 Dy1 2.339 . S
O15 C2 1.257 . S
C16 C19 1.344 . S
C16 C20 1.328 . S
C16 C22 1.516 . S
C17 C18 1.304 . S
C17 C21 1.323 . S
C18 C17 1.304 . S
C18 C19 1.371 . S
C18 H32 0.930 . S
C19 C16 1.344 . S
C19 C18 1.371 . S
C19 H33 0.931 . S
C20 C16 1.328 . S
C20 C21 1.433 . S
C20 H34 0.931 . S
C21 C17 1.323 . S
C21 C20 1.433 . S
C21 H35 0.933 . S
C22 Dy0 2.738 . S
C22 O5 1.255 . S
C22 O6 1.249 . S
C22 C16 1.516 . S
C23 O7 1.254 . S
C23 O8 1.257 . S
C24 O9 1.266 . S
C24 O10 1.236 . S
C25 C28 1.344 . S
C25 C29 1.328 . S
C25 C31 1.516 . S
C26 C27 1.304 . S
C26 C30 1.323 . S
C27 C26 1.304 . S
C27 C28 1.371 . S
C27 H36 0.930 . S
C28 C25 1.344 . S
C28 C27 1.371 . S
C28 H37 0.931 . S
C29 C25 1.328 . S
C29 C30 1.433 . S
C29 H38 0.931 . S
C30 C26 1.323 . S
C30 C29 1.433 . S
C30 H39 0.933 . S
C31 Dy1 2.738 . S
C31 O11 1.255 . S
C31 O12 1.249 . S
C31 C25 1.516 . S
H32 C18 0.930 . S
H33 C19 0.931 . S
H34 C20 0.931 . S
H35 C21 0.933 . S
H36 C27 0.930 . S
H37 C28 0.931 . S
H38 C29 0.931 . S
H39 C30 0.933 . S
Dy40 O43 2.307 . S
Dy40 O45 2.395 . S
Dy40 O46 2.379 . S
Dy40 O48 2.339 . S
Dy40 O50 2.298 . S
Dy40 O54 2.275 . S
Dy40 C62 2.738 . S
Dy41 O44 2.298 . S
Dy41 O47 2.275 . S
Dy41 O49 2.307 . S
Dy41 O51 2.395 . S
Dy41 O52 2.379 . S
Dy41 O55 2.339 . S
Dy41 C71 2.738 . S
C42 O54 1.254 . S
C42 O55 1.257 . S
O43 Dy40 2.307 . S
O43 C53 1.266 . S
O44 Dy41 2.298 . S
O44 C53 1.236 . S
O45 Dy40 2.395 . S
O45 C62 1.255 . S
O46 Dy40 2.379 . S
O46 C62 1.249 . S
O47 Dy41 2.275 . S
O47 C63 1.254 . S
O48 Dy40 2.339 . S
O48 C63 1.257 . S
O49 Dy41 2.307 . S
O49 C64 1.266 . S
O50 Dy40 2.298 . S
O50 C64 1.236 . S
O51 Dy41 2.395 . S
O51 C71 1.255 . S
O52 Dy41 2.379 . S
O52 C71 1.249 . S
C53 O43 1.266 . S
C53 O44 1.236 . S
O54 Dy40 2.275 . S
O54 C42 1.254 . S
O55 Dy41 2.339 . S
O55 C42 1.257 . S
C56 C59 1.344 . S
C56 C60 1.328 . S
C56 C62 1.516 . S
C57 C58 1.304 . S
C57 C61 1.323 . S
C58 C57 1.304 . S
C58 C59 1.371 . S
C58 H72 0.930 . S
C59 C56 1.344 . S
C59 C58 1.371 . S
C59 H73 0.931 . S
C60 C56 1.328 . S
C60 C61 1.433 . S
C60 H74 0.931 . S
C61 C57 1.323 . S
C61 C60 1.433 . S
C61 H75 0.933 . S
C62 Dy40 2.738 . S
C62 O45 1.255 . S
C62 O46 1.249 . S
C62 C56 1.516 . S
C63 O47 1.254 . S
C63 O48 1.257 . S
C64 O49 1.266 . S
C64 O50 1.236 . S
C65 C68 1.344 . S
C65 C69 1.328 . S
C65 C71 1.516 . S
C66 C67 1.304 . S
C66 C70 1.323 . S
C67 C66 1.304 . S
C67 C68 1.371 . S
C67 H76 0.930 . S
C68 C65 1.344 . S
C68 C67 1.371 . S
C68 H77 0.931 . S
C69 C65 1.328 . S
C69 C70 1.433 . S
C69 H78 0.931 . S
C70 C66 1.323 . S
C70 C69 1.433 . S
C70 H79 0.933 . S
C71 Dy41 2.738 . S
C71 O51 1.255 . S
C71 O52 1.249 . S
C71 C65 1.516 . S
H72 C58 0.930 . S
H73 C59 0.931 . S
H74 C60 0.931 . S
H75 C61 0.933 . S
H76 C67 0.930 . S
H77 C68 0.931 . S
H78 C69 0.931 . S
H79 C70 0.933 . S
Dy80 O83 2.307 . S
Dy80 O85 2.395 1_655 S
Dy80 O86 2.379 1_655 S
Dy80 O88 2.339 . S
Dy80 O90 2.298 1_655 S
Dy80 O94 2.275 . S
Dy80 C102 2.738 1_655 S
Dy81 O84 2.298 . S
Dy81 O87 2.275 . S
Dy81 O89 2.307 . S
Dy81 O91 2.395 . S
Dy81 O92 2.379 . S
Dy81 O95 2.339 . S
Dy81 C111 2.738 . S
C82 O94 1.254 . S
C82 O95 1.257 . S
O83 Dy80 2.307 . S
O83 C93 1.266 . S
O84 Dy81 2.298 . S
O84 C93 1.236 . S
O85 Dy80 2.395 1_455 S
O85 C102 1.255 . S
O86 Dy80 2.379 1_455 S
O86 C102 1.249 . S
O87 Dy81 2.275 . S
O87 C103 1.254 . S
O88 Dy80 2.339 . S
O88 C103 1.257 . S
O89 Dy81 2.307 . S
O89 C104 1.266 1_655 S
O90 Dy80 2.298 1_455 S
O90 C104 1.236 . S
O91 Dy81 2.395 . S
O91 C111 1.255 . S
O92 Dy81 2.379 . S
O92 C111 1.249 . S
C93 O83 1.266 . S
C93 O84 1.236 . S
O94 Dy80 2.275 . S
O94 C82 1.254 . S
O95 Dy81 2.339 . S
O95 C82 1.257 . S
C96 C99 1.344 . S
C96 C100 1.328 . S
C96 C102 1.516 . S
C97 C98 1.304 . S
C97 C101 1.323 . S
C98 C97 1.304 . S
C98 C99 1.371 . S
C98 H112 0.930 . S
C99 C96 1.344 . S
C99 C98 1.371 . S
C99 H113 0.931 . S
C100 C96 1.328 . S
C100 C101 1.433 . S
C100 H114 0.931 . S
C101 C97 1.323 . S
C101 C100 1.433 . S
C101 H115 0.933 . S
C102 Dy80 2.738 1_455 S
C102 O85 1.255 . S
C102 O86 1.249 . S
C102 C96 1.516 . S
C103 O87 1.254 . S
C103 O88 1.257 . S
C104 O89 1.266 1_455 S
C104 O90 1.236 . S
C105 C108 1.344 . S
C105 C109 1.328 . S
C105 C111 1.516 . S
C106 C107 1.304 . S
C106 C110 1.323 . S
C107 C106 1.304 . S
C107 C108 1.371 . S
C107 H116 0.930 . S
C108 C105 1.344 . S
C108 C107 1.371 . S
C108 H117 0.931 . S
C109 C105 1.328 . S
C109 C110 1.433 . S
C109 H118 0.931 . S
C110 C106 1.323 . S
C110 C109 1.433 . S
C110 H119 0.933 . S
C111 Dy81 2.738 . S
C111 O91 1.255 . S
C111 O92 1.249 . S
C111 C105 1.516 . S
H112 C98 0.930 . S
H113 C99 0.931 . S
H114 C100 0.931 . S
H115 C101 0.933 . S
H116 C107 0.930 . S
H117 C108 0.931 . S
H118 C109 0.931 . S
H119 C110 0.933 . S
Dy120 O123 2.307 . S
Dy120 O125 2.395 1_565 S
Dy120 O126 2.379 1_565 S
Dy120 O128 2.339 . S
Dy120 O130 2.298 1_565 S
Dy120 O134 2.275 . S
Dy120 C142 2.738 1_565 S
Dy121 O124 2.298 . S
Dy121 O127 2.275 . S
Dy121 O129 2.307 . S
Dy121 O131 2.395 . S
Dy121 O132 2.379 . S
Dy121 O135 2.339 . S
Dy121 C151 2.738 . S
C122 O134 1.254 . S
C122 O135 1.257 . S
O123 Dy120 2.307 . S
O123 C133 1.266 . S
O124 Dy121 2.298 . S
O124 C133 1.236 . S
O125 Dy120 2.395 1_545 S
O125 C142 1.255 . S
O126 Dy120 2.379 1_545 S
O126 C142 1.249 . S
O127 Dy121 2.275 . S
O127 C143 1.254 . S
O128 Dy120 2.339 . S
O128 C143 1.257 . S
O129 Dy121 2.307 . S
O129 C144 1.266 1_565 S
O130 Dy120 2.298 1_545 S
O130 C144 1.236 . S
O131 Dy121 2.395 . S
O131 C151 1.255 . S
O132 Dy121 2.379 . S
O132 C151 1.249 . S
C133 O123 1.266 . S
C133 O124 1.236 . S
O134 Dy120 2.275 . S
O134 C122 1.254 . S
O135 Dy121 2.339 . S
O135 C122 1.257 . S
C136 C139 1.344 . S
C136 C140 1.328 . S
C136 C142 1.516 . S
C137 C138 1.304 . S
C137 C141 1.323 . S
C138 C137 1.304 . S
C138 C139 1.371 . S
C138 H152 0.930 . S
C139 C136 1.344 . S
C139 C138 1.371 . S
C139 H153 0.931 . S
C140 C136 1.328 . S
C140 C141 1.433 . S
C140 H154 0.931 . S
C141 C137 1.323 . S
C141 C140 1.433 . S
C141 H155 0.933 . S
C142 Dy120 2.738 1_545 S
C142 O125 1.255 . S
C142 O126 1.249 . S
C142 C136 1.516 . S
C143 O127 1.254 . S
C143 O128 1.257 . S
C144 O129 1.266 1_545 S
C144 O130 1.236 . S
C145 C148 1.344 . S
C145 C149 1.328 . S
C145 C151 1.516 . S
C146 C147 1.304 . S
C146 C150 1.323 . S
C147 C146 1.304 . S
C147 C148 1.371 . S
C147 H156 0.930 . S
C148 C145 1.344 . S
C148 C147 1.371 . S
C148 H157 0.931 . S
C149 C145 1.328 . S
C149 C150 1.433 . S
C149 H158 0.931 . S
C150 C146 1.323 . S
C150 C149 1.433 . S
C150 H159 0.933 . S
C151 Dy121 2.738 . S
C151 O131 1.255 . S
C151 O132 1.249 . S
C151 C145 1.516 . S
H152 C138 0.930 . S
H153 C139 0.931 . S
H154 C140 0.931 . S
H155 C141 0.933 . S
H156 C147 0.930 . S
H157 C148 0.931 . S
H158 C149 0.931 . S
H159 C150 0.933 . S
Dy160 O163 2.307 . S
Dy160 O165 2.395 1_455 S
Dy160 O166 2.379 1_455 S
Dy160 O168 2.339 . S
Dy160 O170 2.298 1_455 S
Dy160 O174 2.275 . S
Dy160 C182 2.738 1_455 S
Dy161 O164 2.298 . S
Dy161 O167 2.275 . S
Dy161 O169 2.307 . S
Dy161 O171 2.395 . S
Dy161 O172 2.379 . S
Dy161 O175 2.339 . S
Dy161 C191 2.738 . S
C162 O174 1.254 . S
C162 O175 1.257 . S
O163 Dy160 2.307 . S
O163 C173 1.266 . S
O164 Dy161 2.298 . S
O164 C173 1.236 . S
O165 Dy160 2.395 1_655 S
O165 C182 1.255 . S
O166 Dy160 2.379 1_655 S
O166 C182 1.249 . S
O167 Dy161 2.275 . S
O167 C183 1.254 . S
O168 Dy160 2.339 . S
O168 C183 1.257 . S
O169 Dy161 2.307 . S
O169 C184 1.266 1_455 S
O170 Dy160 2.298 1_655 S
O170 C184 1.236 . S
O171 Dy161 2.395 . S
O171 C191 1.255 . S
O172 Dy161 2.379 . S
O172 C191 1.249 . S
C173 O163 1.266 . S
C173 O164 1.236 . S
O174 Dy160 2.275 . S
O174 C162 1.254 . S
O175 Dy161 2.339 . S
O175 C162 1.257 . S
C176 C179 1.344 . S
C176 C180 1.328 . S
C176 C182 1.516 . S
C177 C178 1.304 . S
C177 C181 1.323 . S
C178 C177 1.304 . S
C178 C179 1.371 . S
C178 H192 0.930 . S
C179 C176 1.344 . S
C179 C178 1.371 . S
C179 H193 0.931 . S
C180 C176 1.328 . S
C180 C181 1.433 . S
C180 H194 0.931 . S
C181 C177 1.323 . S
C181 C180 1.433 . S
C181 H195 0.933 . S
C182 Dy160 2.738 1_655 S
C182 O165 1.255 . S
C182 O166 1.249 . S
C182 C176 1.516 . S
C183 O167 1.254 . S
C183 O168 1.257 . S
C184 O169 1.266 1_655 S
C184 O170 1.236 . S
C185 C188 1.344 . S
C185 C189 1.328 . S
C185 C191 1.516 . S
C186 C187 1.304 . S
C186 C190 1.323 . S
C187 C186 1.304 . S
C187 C188 1.371 . S
C187 H196 0.930 . S
C188 C185 1.344 . S
C188 C187 1.371 . S
C188 H197 0.931 . S
C189 C185 1.328 . S
C189 C190 1.433 . S
C189 H198 0.931 . S
C190 C186 1.323 . S
C190 C189 1.433 . S
C190 H199 0.933 . S
C191 Dy161 2.738 . S
C191 O171 1.255 . S
C191 O172 1.249 . S
C191 C185 1.516 . S
H192 C178 0.930 . S
H193 C179 0.931 . S
H194 C180 0.931 . S
H195 C181 0.933 . S
H196 C187 0.930 . S
H197 C188 0.931 . S
H198 C189 0.931 . S
H199 C190 0.933 . S
Dy200 O203 2.307 . S
Dy200 O205 2.395 1_545 S
Dy200 O206 2.379 1_545 S
Dy200 O208 2.339 . S
Dy200 O210 2.298 1_545 S
Dy200 O214 2.275 . S
Dy200 C222 2.738 1_545 S
Dy201 O204 2.298 . S
Dy201 O207 2.275 . S
Dy201 O209 2.307 . S
Dy201 O211 2.395 . S
Dy201 O212 2.379 . S
Dy201 O215 2.339 . S
Dy201 C231 2.738 . S
C202 O214 1.254 . S
C202 O215 1.257 . S
O203 Dy200 2.307 . S
O203 C213 1.266 . S
O204 Dy201 2.298 . S
O204 C213 1.236 . S
O205 Dy200 2.395 1_565 S
O205 C222 1.255 . S
O206 Dy200 2.379 1_565 S
O206 C222 1.249 . S
O207 Dy201 2.275 . S
O207 C223 1.254 . S
O208 Dy200 2.339 . S
O208 C223 1.257 . S
O209 Dy201 2.307 . S
O209 C224 1.266 1_545 S
O210 Dy200 2.298 1_565 S
O210 C224 1.236 . S
O211 Dy201 2.395 . S
O211 C231 1.255 . S
O212 Dy201 2.379 . S
O212 C231 1.249 . S
C213 O203 1.266 . S
C213 O204 1.236 . S
O214 Dy200 2.275 . S
O214 C202 1.254 . S
O215 Dy201 2.339 . S
O215 C202 1.257 . S
C216 C219 1.344 . S
C216 C220 1.328 . S
C216 C222 1.516 . S
C217 C218 1.304 . S
C217 C221 1.323 . S
C218 C217 1.304 . S
C218 C219 1.371 . S
C218 H232 0.930 . S
C219 C216 1.344 . S
C219 C218 1.371 . S
C219 H233 0.931 . S
C220 C216 1.328 . S
C220 C221 1.433 . S
C220 H234 0.931 . S
C221 C217 1.323 . S
C221 C220 1.433 . S
C221 H235 0.933 . S
C222 Dy200 2.738 1_565 S
C222 O205 1.255 . S
C222 O206 1.249 . S
C222 C216 1.516 . S
C223 O207 1.254 . S
C223 O208 1.257 . S
C224 O209 1.266 1_565 S
C224 O210 1.236 . S
C225 C228 1.344 . S
C225 C229 1.328 . S
C225 C231 1.516 . S
C226 C227 1.304 . S
C226 C230 1.323 . S
C227 C226 1.304 . S
C227 C228 1.371 . S
C227 H236 0.930 . S
C228 C225 1.344 . S
C228 C227 1.371 . S
C228 H237 0.931 . S
C229 C225 1.328 . S
C229 C230 1.433 . S
C229 H238 0.931 . S
C230 C226 1.323 . S
C230 C229 1.433 . S
C230 H239 0.933 . S
C231 Dy201 2.738 . S
C231 O211 1.255 . S
C231 O212 1.249 . S
C231 C225 1.516 . S
H232 C218 0.930 . S
H233 C219 0.931 . S
H234 C220 0.931 . S
H235 C221 0.933 . S
H236 C227 0.930 . S
H237 C228 0.931 . S
H238 C229 0.931 . S
H239 C230 0.933 . S
Dy240 O243 2.307 . S
Dy240 O245 2.395 . S
Dy240 O246 2.379 . S
Dy240 O248 2.339 . S
Dy240 O250 2.298 . S
Dy240 O254 2.275 . S
Dy240 C262 2.738 . S
Dy241 O244 2.298 . S
Dy241 O247 2.275 . S
Dy241 O249 2.307 . S
Dy241 O251 2.395 . S
Dy241 O252 2.379 . S
Dy241 O255 2.339 . S
Dy241 C271 2.738 . S
C242 O254 1.254 . S
C242 O255 1.257 . S
O243 Dy240 2.307 . S
O243 C253 1.266 . S
O244 Dy241 2.298 . S
O244 C253 1.236 . S
O245 Dy240 2.395 . S
O245 C262 1.255 . S
O246 Dy240 2.379 . S
O246 C262 1.249 . S
O247 Dy241 2.275 . S
O247 C263 1.254 . S
O248 Dy240 2.339 . S
O248 C263 1.257 . S
O249 Dy241 2.307 . S
O249 C264 1.266 . S
O250 Dy240 2.298 . S
O250 C264 1.236 . S
O251 Dy241 2.395 . S
O251 C271 1.255 . S
O252 Dy241 2.379 . S
O252 C271 1.249 . S
C253 O243 1.266 . S
C253 O244 1.236 . S
O254 Dy240 2.275 . S
O254 C242 1.254 . S
O255 Dy241 2.339 . S
O255 C242 1.257 . S
C256 C259 1.344 . S
C256 C260 1.328 . S
C256 C262 1.516 . S
C257 C258 1.304 . S
C257 C261 1.323 . S
C258 C257 1.304 . S
C258 C259 1.371 . S
C258 H272 0.930 . S
C259 C256 1.344 . S
C259 C258 1.371 . S
C259 H273 0.931 . S
C260 C256 1.328 . S
C260 C261 1.433 . S
C260 H274 0.931 . S
C261 C257 1.323 . S
C261 C260 1.433 . S
C261 H275 0.933 . S
C262 Dy240 2.738 . S
C262 O245 1.255 . S
C262 O246 1.249 . S
C262 C256 1.516 . S
C263 O247 1.254 . S
C263 O248 1.257 . S
C264 O249 1.266 . S
C264 O250 1.236 . S
C265 C268 1.344 . S
C265 C269 1.328 . S
C265 C271 1.516 . S
C266 C267 1.304 . S
C266 C270 1.323 . S
C267 C266 1.304 . S
C267 C268 1.371 . S
C267 H276 0.930 . S
C268 C265 1.344 . S
C268 C267 1.371 . S
C268 H277 0.931 . S
C269 C265 1.328 . S
C269 C270 1.433 . S
C269 H278 0.931 . S
C270 C266 1.323 . S
C270 C269 1.433 . S
C270 H279 0.933 . S
C271 Dy241 2.738 . S
C271 O251 1.255 . S
C271 O252 1.249 . S
C271 C265 1.516 . S
H272 C258 0.930 . S
H273 C259 0.931 . S
H274 C260 0.931 . S
H275 C261 0.933 . S
H276 C267 0.930 . S
H277 C268 0.931 . S
H278 C269 0.931 . S
H279 C270 0.933 . S
Dy280 O283 2.307 . S
Dy280 O285 2.395 . S
Dy280 O286 2.379 . S
Dy280 O288 2.339 . S
Dy280 O290 2.298 . S
Dy280 O294 2.275 . S
Dy280 C302 2.738 . S
Dy281 O284 2.298 . S
Dy281 O287 2.275 . S
Dy281 O289 2.307 . S
Dy281 O291 2.395 . S
Dy281 O292 2.379 . S
Dy281 O295 2.339 . S
Dy281 C311 2.738 . S
C282 O294 1.254 . S
C282 O295 1.257 . S
O283 Dy280 2.307 . S
O283 C293 1.266 . S
O284 Dy281 2.298 . S
O284 C293 1.236 . S
O285 Dy280 2.395 . S
O285 C302 1.255 . S
O286 Dy280 2.379 . S
O286 C302 1.249 . S
O287 Dy281 2.275 . S
O287 C303 1.254 . S
O288 Dy280 2.339 . S
O288 C303 1.257 . S
O289 Dy281 2.307 . S
O289 C304 1.266 . S
O290 Dy280 2.298 . S
O290 C304 1.236 . S
O291 Dy281 2.395 . S
O291 C311 1.255 . S
O292 Dy281 2.379 . S
O292 C311 1.249 . S
C293 O283 1.266 . S
C293 O284 1.236 . S
O294 Dy280 2.275 . S
O294 C282 1.254 . S
O295 Dy281 2.339 . S
O295 C282 1.257 . S
C296 C299 1.344 . S
C296 C300 1.328 . S
C296 C302 1.516 . S
C297 C298 1.304 . S
C297 C301 1.323 . S
C298 C297 1.304 . S
C298 C299 1.371 . S
C298 H312 0.930 . S
C299 C296 1.344 . S
C299 C298 1.371 . S
C299 H313 0.931 . S
C300 C296 1.328 . S
C300 C301 1.433 . S
C300 H314 0.931 . S
C301 C297 1.323 . S
C301 C300 1.433 . S
C301 H315 0.933 . S
C302 Dy280 2.738 . S
C302 O285 1.255 . S
C302 O286 1.249 . S
C302 C296 1.516 . S
C303 O287 1.254 . S
C303 O288 1.257 . S
C304 O289 1.266 . S
C304 O290 1.236 . S
C305 C308 1.344 . S
C305 C309 1.328 . S
C305 C311 1.516 . S
C306 C307 1.304 . S
C306 C310 1.323 . S
C307 C306 1.304 . S
C307 C308 1.371 . S
C307 H316 0.930 . S
C308 C305 1.344 . S
C308 C307 1.371 . S
C308 H317 0.931 . S
C309 C305 1.328 . S
C309 C310 1.433 . S
C309 H318 0.931 . S
C310 C306 1.323 . S
C310 C309 1.433 . S
C310 H319 0.933 . S
C311 Dy281 2.738 . S
C311 O291 1.255 . S
C311 O292 1.249 . S
C311 C305 1.516 . S
H312 C298 0.930 . S
H313 C299 0.931 . S
H314 C300 0.931 . S
H315 C301 0.933 . S
H316 C307 0.930 . S
H317 C308 0.931 . S
H318 C309 0.931 . S
H319 C310 0.933 . S
Dy320 O323 2.307 . S
Dy320 O325 2.395 . S
Dy320 O326 2.379 . S
Dy320 O328 2.339 . S
Dy320 O330 2.298 . S
Dy320 O334 2.275 . S
Dy320 C342 2.738 . S
Dy321 O324 2.298 . S
Dy321 O327 2.275 . S
Dy321 O329 2.307 . S
Dy321 O331 2.395 . S
Dy321 O332 2.379 . S
Dy321 O335 2.339 . S
Dy321 C351 2.738 . S
C322 O334 1.254 . S
C322 O335 1.257 . S
O323 Dy320 2.307 . S
O323 C333 1.266 . S
O324 Dy321 2.298 . S
O324 C333 1.236 . S
O325 Dy320 2.395 . S
O325 C342 1.255 . S
O326 Dy320 2.379 . S
O326 C342 1.249 . S
O327 Dy321 2.275 . S
O327 C343 1.254 . S
O328 Dy320 2.339 . S
O328 C343 1.257 . S
O329 Dy321 2.307 . S
O329 C344 1.266 . S
O330 Dy320 2.298 . S
O330 C344 1.236 . S
O331 Dy321 2.395 . S
O331 C351 1.255 . S
O332 Dy321 2.379 . S
O332 C351 1.249 . S
C333 O323 1.266 . S
C333 O324 1.236 . S
O334 Dy320 2.275 . S
O334 C322 1.254 . S
O335 Dy321 2.339 . S
O335 C322 1.257 . S
C336 C339 1.344 . S
C336 C340 1.328 . S
C336 C342 1.516 . S
C337 C338 1.304 . S
C337 C341 1.323 . S
C338 C337 1.304 . S
C338 C339 1.371 . S
C338 H352 0.930 . S
C339 C336 1.344 . S
C339 C338 1.371 . S
C339 H353 0.931 . S
C340 C336 1.328 . S
C340 C341 1.433 . S
C340 H354 0.931 . S
C341 C337 1.323 . S
C341 C340 1.433 . S
C341 H355 0.933 . S
C342 Dy320 2.738 . S
C342 O325 1.255 . S
C342 O326 1.249 . S
C342 C336 1.516 . S
C343 O327 1.254 . S
C343 O328 1.257 . S
C344 O329 1.266 . S
C344 O330 1.236 . S
C345 C348 1.344 . S
C345 C349 1.328 . S
C345 C351 1.516 . S
C346 C347 1.304 . S
C346 C350 1.323 . S
C347 C346 1.304 . S
C347 C348 1.371 . S
C347 H356 0.930 . S
C348 C345 1.344 . S
C348 C347 1.371 . S
C348 H357 0.931 . S
C349 C345 1.328 . S
C349 C350 1.433 . S
C349 H358 0.931 . S
C350 C346 1.323 . S
C350 C349 1.433 . S
C350 H359 0.933 . S
C351 Dy321 2.738 . S
C351 O331 1.255 . S
C351 O332 1.249 . S
C351 C345 1.516 . S
H352 C338 0.930 . S
H353 C339 0.931 . S
H354 C340 0.931 . S
H355 C341 0.933 . S
H356 C347 0.930 . S
H357 C348 0.931 . S
H358 C349 0.931 . S
H359 C350 0.933 . S
Dy360 O363 2.307 . S
Dy360 O365 2.395 . S
Dy360 O366 2.379 . S
Dy360 O368 2.339 . S
Dy360 O370 2.298 . S
Dy360 O374 2.275 . S
Dy360 C382 2.738 . S
Dy361 O364 2.298 . S
Dy361 O367 2.275 . S
Dy361 O369 2.307 . S
Dy361 O371 2.395 . S
Dy361 O372 2.379 . S
Dy361 O375 2.339 . S
Dy361 C391 2.738 . S
C362 O374 1.254 . S
C362 O375 1.257 . S
O363 Dy360 2.307 . S
O363 C373 1.266 . S
O364 Dy361 2.298 . S
O364 C373 1.236 . S
O365 Dy360 2.395 . S
O365 C382 1.255 . S
O366 Dy360 2.379 . S
O366 C382 1.249 . S
O367 Dy361 2.275 . S
O367 C383 1.254 . S
O368 Dy360 2.339 . S
O368 C383 1.257 . S
O369 Dy361 2.307 . S
O369 C384 1.266 . S
O370 Dy360 2.298 . S
O370 C384 1.236 . S
O371 Dy361 2.395 . S
O371 C391 1.255 . S
O372 Dy361 2.379 . S
O372 C391 1.249 . S
C373 O363 1.266 . S
C373 O364 1.236 . S
O374 Dy360 2.275 . S
O374 C362 1.254 . S
O375 Dy361 2.339 . S
O375 C362 1.257 . S
C376 C379 1.344 . S
C376 C380 1.328 . S
C376 C382 1.516 . S
C377 C378 1.304 . S
C377 C381 1.323 . S
C378 C377 1.304 . S
C378 C379 1.371 . S
C378 H392 0.930 . S
C379 C376 1.344 . S
C379 C378 1.371 . S
C379 H393 0.931 . S
C380 C376 1.328 . S
C380 C381 1.433 . S
C380 H394 0.931 . S
C381 C377 1.323 . S
C381 C380 1.433 . S
C381 H395 0.933 . S
C382 Dy360 2.738 . S
C382 O365 1.255 . S
C382 O366 1.249 . S
C382 C376 1.516 . S
C383 O367 1.254 . S
C383 O368 1.257 . S
C384 O369 1.266 . S
C384 O370 1.236 . S
C385 C388 1.344 . S
C385 C389 1.328 . S
C385 C391 1.516 . S
C386 C387 1.304 . S
C386 C390 1.323 . S
C387 C386 1.304 . S
C387 C388 1.371 . S
C387 H396 0.930 . S
C388 C385 1.344 . S
C388 C387 1.371 . S
C388 H397 0.931 . S
C389 C385 1.328 . S
C389 C390 1.433 . S
C389 H398 0.931 . S
C390 C386 1.323 . S
C390 C389 1.433 . S
C390 H399 0.933 . S
C391 Dy361 2.738 . S
C391 O371 1.255 . S
C391 O372 1.249 . S
C391 C385 1.516 . S
H392 C378 0.930 . S
H393 C379 0.931 . S
H394 C380 0.931 . S
H395 C381 0.933 . S
H396 C387 0.930 . S
H397 C388 0.931 . S
H398 C389 0.931 . S
H399 C390 0.933 . S
Dy400 O403 2.307 . S
Dy400 O405 2.395 . S
Dy400 O406 2.379 . S
Dy400 O408 2.339 . S
Dy400 O410 2.298 . S
Dy400 O414 2.275 . S
Dy400 C422 2.738 . S
Dy401 O404 2.298 1_455 S
Dy401 O407 2.275 . S
Dy401 O409 2.307 . S
Dy401 O411 2.395 1_455 S
Dy401 O412 2.379 1_455 S
Dy401 O415 2.339 . S
Dy401 C431 2.738 1_455 S
C402 O414 1.254 . S
C402 O415 1.257 . S
O403 Dy400 2.307 . S
O403 C413 1.266 1_455 S
O404 Dy401 2.298 1_655 S
O404 C413 1.236 . S
O405 Dy400 2.395 . S
O405 C422 1.255 . S
O406 Dy400 2.379 . S
O406 C422 1.249 . S
O407 Dy401 2.275 . S
O407 C423 1.254 . S
O408 Dy400 2.339 . S
O408 C423 1.257 . S
O409 Dy401 2.307 . S
O409 C424 1.266 . S
O410 Dy400 2.298 . S
O410 C424 1.236 . S
O411 Dy401 2.395 1_655 S
O411 C431 1.255 . S
O412 Dy401 2.379 1_655 S
O412 C431 1.249 . S
C413 O403 1.266 1_655 S
C413 O404 1.236 . S
O414 Dy400 2.275 . S
O414 C402 1.254 . S
O415 Dy401 2.339 . S
O415 C402 1.257 . S
C416 C419 1.344 . S
C416 C420 1.328 . S
C416 C422 1.516 . S
C417 C418 1.304 . S
C417 C421 1.323 . S
C418 C417 1.304 . S
C418 C419 1.371 . S
C418 H432 0.930 . S
C419 C416 1.344 . S
C419 C418 1.371 . S
C419 H433 0.931 . S
C420 C416 1.328 . S
C420 C421 1.433 . S
C420 H434 0.931 . S
C421 C417 1.323 . S
C421 C420 1.433 . S
C421 H435 0.933 . S
C422 Dy400 2.738 . S
C422 O405 1.255 . S
C422 O406 1.249 . S
C422 C416 1.516 . S
C423 O407 1.254 . S
C423 O408 1.257 . S
C424 O409 1.266 . S
C424 O410 1.236 . S
C425 C428 1.344 . S
C425 C429 1.328 . S
C425 C431 1.516 . S
C426 C427 1.304 . S
C426 C430 1.323 . S
C427 C426 1.304 . S
C427 C428 1.371 . S
C427 H436 0.930 . S
C428 C425 1.344 . S
C428 C427 1.371 . S
C428 H437 0.931 . S
C429 C425 1.328 . S
C429 C430 1.433 . S
C429 H438 0.931 . S
C430 C426 1.323 . S
C430 C429 1.433 . S
C430 H439 0.933 . S
C431 Dy401 2.738 1_655 S
C431 O411 1.255 . S
C431 O412 1.249 . S
C431 C425 1.516 . S
H432 C418 0.930 . S
H433 C419 0.931 . S
H434 C420 0.931 . S
H435 C421 0.933 . S
H436 C427 0.930 . S
H437 C428 0.931 . S
H438 C429 0.931 . S
H439 C430 0.933 . S
Dy440 O443 2.307 . S
Dy440 O445 2.395 . S
Dy440 O446 2.379 . S
Dy440 O448 2.339 . S
Dy440 O450 2.298 . S
Dy440 O454 2.275 . S
Dy440 C462 2.738 . S
Dy441 O444 2.298 1_545 S
Dy441 O447 2.275 . S
Dy441 O449 2.307 . S
Dy441 O451 2.395 1_545 S
Dy441 O452 2.379 1_545 S
Dy441 O455 2.339 . S
Dy441 C471 2.738 1_545 S
C442 O454 1.254 . S
C442 O455 1.257 . S
O443 Dy440 2.307 . S
O443 C453 1.266 1_545 S
O444 Dy441 2.298 1_565 S
O444 C453 1.236 . S
O445 Dy440 2.395 . S
O445 C462 1.255 . S
O446 Dy440 2.379 . S
O446 C462 1.249 . S
O447 Dy441 2.275 . S
O447 C463 1.254 . S
O448 Dy440 2.339 . S
O448 C463 1.257 . S
O449 Dy441 2.307 . S
O449 C464 1.266 . S
O450 Dy440 2.298 . S
O450 C464 1.236 . S
O451 Dy441 2.395 1_565 S
O451 C471 1.255 . S
O452 Dy441 2.379 1_565 S
O452 C471 1.249 . S
C453 O443 1.266 1_565 S
C453 O444 1.236 . S
O454 Dy440 2.275 . S
O454 C442 1.254 . S
O455 Dy441 2.339 . S
O455 C442 1.257 . S
C456 C459 1.344 . S
C456 C460 1.328 . S
C456 C462 1.516 . S
C457 C458 1.304 . S
C457 C461 1.323 . S
C458 C457 1.304 . S
C458 C459 1.371 . S
C458 H472 0.930 . S
C459 C456 1.344 . S
C459 C458 1.371 . S
C459 H473 0.931 . S
C460 C456 1.328 . S
C460 C461 1.433 . S
C460 H474 0.931 . S
C461 C457 1.323 . S
C461 C460 1.433 . S
C461 H475 0.933 . S
C462 Dy440 2.738 . S
C462 O445 1.255 . S
C462 O446 1.249 . S
C462 C456 1.516 . S
C463 O447 1.254 . S
C463 O448 1.257 . S
C464 O449 1.266 . S
C464 O450 1.236 . S
C465 C468 1.344 . S
C465 C469 1.328 . S
C465 C471 1.516 . S
C466 C467 1.304 . S
C466 C470 1.323 . S
C467 C466 1.304 . S
C467 C468 1.371 . S
C467 H476 0.930 . S
C468 C465 1.344 . S
C468 C467 1.371 . S
C468 H477 0.931 . S
C469 C465 1.328 . S
C469 C470 1.433 . S
C469 H478 0.931 . S
C470 C466 1.323 . S
C470 C469 1.433 . S
C470 H479 0.933 . S
C471 Dy441 2.738 1_565 S
C471 O451 1.255 . S
C471 O452 1.249 . S
C471 C465 1.516 . S
H472 C458 0.930 . S
H473 C459 0.931 . S
H474 C460 0.931 . S
H475 C461 0.933 . S
H476 C467 0.930 . S
H477 C468 0.931 . S
H478 C469 0.931 . S
H479 C470 0.933 . S
Dy480 O483 2.307 . S
Dy480 O485 2.395 . S
Dy480 O486 2.379 . S
Dy480 O488 2.339 . S
Dy480 O490 2.298 . S
Dy480 O494 2.275 . S
Dy480 C502 2.738 . S
Dy481 O484 2.298 1_655 S
Dy481 O487 2.275 . S
Dy481 O489 2.307 . S
Dy481 O491 2.395 1_655 S
Dy481 O492 2.379 1_655 S
Dy481 O495 2.339 . S
Dy481 C511 2.738 1_655 S
C482 O494 1.254 . S
C482 O495 1.257 . S
O483 Dy480 2.307 . S
O483 C493 1.266 1_655 S
O484 Dy481 2.298 1_455 S
O484 C493 1.236 . S
O485 Dy480 2.395 . S
O485 C502 1.255 . S
O486 Dy480 2.379 . S
O486 C502 1.249 . S
O487 Dy481 2.275 . S
O487 C503 1.254 . S
O488 Dy480 2.339 . S
O488 C503 1.257 . S
O489 Dy481 2.307 . S
O489 C504 1.266 . S
O490 Dy480 2.298 . S
O490 C504 1.236 . S
O491 Dy481 2.395 1_455 S
O491 C511 1.255 . S
O492 Dy481 2.379 1_455 S
O492 C511 1.249 . S
C493 O483 1.266 1_455 S
C493 O484 1.236 . S
O494 Dy480 2.275 . S
O494 C482 1.254 . S
O495 Dy481 2.339 . S
O495 C482 1.257 . S
C496 C499 1.344 . S
C496 C500 1.328 . S
C496 C502 1.516 . S
C497 C498 1.304 . S
C497 C501 1.323 . S
C498 C497 1.304 . S
C498 C499 1.371 . S
C498 H512 0.930 . S
C499 C496 1.344 . S
C499 C498 1.371 . S
C499 H513 0.931 . S
C500 C496 1.328 . S
C500 C501 1.433 . S
C500 H514 0.931 . S
C501 C497 1.323 . S
C501 C500 1.433 . S
C501 H515 0.933 . S
C502 Dy480 2.738 . S
C502 O485 1.255 . S
C502 O486 1.249 . S
C502 C496 1.516 . S
C503 O487 1.254 . S
C503 O488 1.257 . S
C504 O489 1.266 . S
C504 O490 1.236 . S
C505 C508 1.344 . S
C505 C509 1.328 . S
C505 C511 1.516 . S
C506 C507 1.304 . S
C506 C510 1.323 . S
C507 C506 1.304 . S
C507 C508 1.371 . S
C507 H516 0.930 . S
C508 C505 1.344 . S
C508 C507 1.371 . S
C508 H517 0.931 . S
C509 C505 1.328 . S
C509 C510 1.433 . S
C509 H518 0.931 . S
C510 C506 1.323 . S
C510 C509 1.433 . S
C510 H519 0.933 . S
C511 Dy481 2.738 1_455 S
C511 O491 1.255 . S
C511 O492 1.249 . S
C511 C505 1.516 . S
H512 C498 0.930 . S
H513 C499 0.931 . S
H514 C500 0.931 . S
H515 C501 0.933 . S
H516 C507 0.930 . S
H517 C508 0.931 . S
H518 C509 0.931 . S
H519 C510 0.933 . S
Dy520 O523 2.307 . S
Dy520 O525 2.395 . S
Dy520 O526 2.379 . S
Dy520 O528 2.339 . S
Dy520 O530 2.298 . S
Dy520 O534 2.275 . S
Dy520 C542 2.738 . S
Dy521 O524 2.298 1_565 S
Dy521 O527 2.275 . S
Dy521 O529 2.307 . S
Dy521 O531 2.395 1_565 S
Dy521 O532 2.379 1_565 S
Dy521 O535 2.339 . S
Dy521 C551 2.738 1_565 S
C522 O534 1.254 . S
C522 O535 1.257 . S
O523 Dy520 2.307 . S
O523 C533 1.266 1_565 S
O524 Dy521 2.298 1_545 S
O524 C533 1.236 . S
O525 Dy520 2.395 . S
O525 C542 1.255 . S
O526 Dy520 2.379 . S
O526 C542 1.249 . S
O527 Dy521 2.275 . S
O527 C543 1.254 . S
O528 Dy520 2.339 . S
O528 C543 1.257 . S
O529 Dy521 2.307 . S
O529 C544 1.266 . S
O530 Dy520 2.298 . S
O530 C544 1.236 . S
O531 Dy521 2.395 1_545 S
O531 C551 1.255 . S
O532 Dy521 2.379 1_545 S
O532 C551 1.249 . S
C533 O523 1.266 1_545 S
C533 O524 1.236 . S
O534 Dy520 2.275 . S
O534 C522 1.254 . S
O535 Dy521 2.339 . S
O535 C522 1.257 . S
C536 C539 1.344 . S
C536 C540 1.328 . S
C536 C542 1.516 . S
C537 C538 1.304 . S
C537 C541 1.323 . S
C538 C537 1.304 . S
C538 C539 1.371 . S
C538 H552 0.930 . S
C539 C536 1.344 . S
C539 C538 1.371 . S
C539 H553 0.931 . S
C540 C536 1.328 . S
C540 C541 1.433 . S
C540 H554 0.931 . S
C541 C537 1.323 . S
C541 C540 1.433 . S
C541 H555 0.933 . S
C542 Dy520 2.738 . S
C542 O525 1.255 . S
C542 O526 1.249 . S
C542 C536 1.516 . S
C543 O527 1.254 . S
C543 O528 1.257 . S
C544 O529 1.266 . S
C544 O530 1.236 . S
C545 C548 1.344 . S
C545 C549 1.328 . S
C545 C551 1.516 . S
C546 C547 1.304 . S
C546 C550 1.323 . S
C547 C546 1.304 . S
C547 C548 1.371 . S
C547 H556 0.930 . S
C548 C545 1.344 . S
C548 C547 1.371 . S
C548 H557 0.931 . S
C549 C545 1.328 . S
C549 C550 1.433 . S
C549 H558 0.931 . S
C550 C546 1.323 . S
C550 C549 1.433 . S
C550 H559 0.933 . S
C551 Dy521 2.738 1_545 S
C551 O531 1.255 . S
C551 O532 1.249 . S
C551 C545 1.516 . S
H552 C538 0.930 . S
H553 C539 0.931 . S
H554 C540 0.931 . S
H555 C541 0.933 . S
H556 C547 0.930 . S
H557 C548 0.931 . S
H558 C549 0.931 . S
H559 C550 0.933 . S
Dy560 O563 2.307 . S
Dy560 O565 2.395 . S
Dy560 O566 2.379 . S
Dy560 O568 2.339 . S
Dy560 O570 2.298 . S
Dy560 O574 2.275 . S
Dy560 C582 2.738 . S
Dy561 O564 2.298 . S
Dy561 O567 2.275 . S
Dy561 O569 2.307 . S
Dy561 O571 2.395 . S
Dy561 O572 2.379 . S
Dy561 O575 2.339 . S
Dy561 C591 2.738 . S
C562 O574 1.254 . S
C562 O575 1.257 . S
O563 Dy560 2.307 . S
O563 C573 1.266 . S
O564 Dy561 2.298 . S
O564 C573 1.236 . S
O565 Dy560 2.395 . S
O565 C582 1.255 . S
O566 Dy560 2.379 . S
O566 C582 1.249 . S
O567 Dy561 2.275 . S
O567 C583 1.254 . S
O568 Dy560 2.339 . S
O568 C583 1.257 . S
O569 Dy561 2.307 . S
O569 C584 1.266 . S
O570 Dy560 2.298 . S
O570 C584 1.236 . S
O571 Dy561 2.395 . S
O571 C591 1.255 . S
O572 Dy561 2.379 . S
O572 C591 1.249 . S
C573 O563 1.266 . S
C573 O564 1.236 . S
O574 Dy560 2.275 . S
O574 C562 1.254 . S
O575 Dy561 2.339 . S
O575 C562 1.257 . S
C576 C579 1.344 . S
C576 C580 1.328 . S
C576 C582 1.516 . S
C577 C578 1.304 . S
C577 C581 1.323 . S
C578 C577 1.304 . S
C578 C579 1.371 . S
C578 H592 0.930 . S
C579 C576 1.344 . S
C579 C578 1.371 . S
C579 H593 0.931 . S
C580 C576 1.328 . S
C580 C581 1.433 . S
C580 H594 0.931 . S
C581 C577 1.323 . S
C581 C580 1.433 . S
C581 H595 0.933 . S
C582 Dy560 2.738 . S
C582 O565 1.255 . S
C582 O566 1.249 . S
C582 C576 1.516 . S
C583 O567 1.254 . S
C583 O568 1.257 . S
C584 O569 1.266 . S
C584 O570 1.236 . S
C585 C588 1.344 . S
C585 C589 1.328 . S
C585 C591 1.516 . S
C586 C587 1.304 . S
C586 C590 1.323 . S
C587 C586 1.304 . S
C587 C588 1.371 . S
C587 H596 0.930 . S
C588 C585 1.344 . S
C588 C587 1.371 . S
C588 H597 0.931 . S
C589 C585 1.328 . S
C589 C590 1.433 . S
C589 H598 0.931 . S
C590 C586 1.323 . S
C590 C589 1.433 . S
C590 H599 0.933 . S
C591 Dy561 2.738 . S
C591 O571 1.255 . S
C591 O572 1.249 . S
C591 C585 1.516 . S
H592 C578 0.930 . S
H593 C579 0.931 . S
H594 C580 0.931 . S
H595 C581 0.933 . S
H596 C587 0.930 . S
H597 C588 0.931 . S
H598 C589 0.931 . S
H599 C590 0.933 . S
Dy600 O603 2.307 . S
Dy600 O605 2.395 . S
Dy600 O606 2.379 . S
Dy600 O608 2.339 . S
Dy600 O610 2.298 . S
Dy600 O614 2.275 . S
Dy600 C622 2.738 . S
Dy601 O604 2.298 . S
Dy601 O607 2.275 . S
Dy601 O609 2.307 . S
Dy601 O611 2.395 . S
Dy601 O612 2.379 . S
Dy601 O615 2.339 . S
Dy601 C631 2.738 . S
C602 O614 1.254 . S
C602 O615 1.257 . S
O603 Dy600 2.307 . S
O603 C613 1.266 . S
O604 Dy601 2.298 . S
O604 C613 1.236 . S
O605 Dy600 2.395 . S
O605 C622 1.255 . S
O606 Dy600 2.379 . S
O606 C622 1.249 . S
O607 Dy601 2.275 . S
O607 C623 1.254 . S
O608 Dy600 2.339 . S
O608 C623 1.257 . S
O609 Dy601 2.307 . S
O609 C624 1.266 . S
O610 Dy600 2.298 . S
O610 C624 1.236 . S
O611 Dy601 2.395 . S
O611 C631 1.255 . S
O612 Dy601 2.379 . S
O612 C631 1.249 . S
C613 O603 1.266 . S
C613 O604 1.236 . S
O614 Dy600 2.275 . S
O614 C602 1.254 . S
O615 Dy601 2.339 . S
O615 C602 1.257 . S
C616 C619 1.344 . S
C616 C620 1.328 . S
C616 C622 1.516 . S
C617 C618 1.304 . S
C617 C621 1.323 . S
C618 C617 1.304 . S
C618 C619 1.371 . S
C618 H632 0.930 . S
C619 C616 1.344 . S
C619 C618 1.371 . S
C619 H633 0.931 . S
C620 C616 1.328 . S
C620 C621 1.433 . S
C620 H634 0.931 . S
C621 C617 1.323 . S
C621 C620 1.433 . S
C621 H635 0.933 . S
C622 Dy600 2.738 . S
C622 O605 1.255 . S
C622 O606 1.249 . S
C622 C616 1.516 . S
C623 O607 1.254 . S
C623 O608 1.257 . S
C624 O609 1.266 . S
C624 O610 1.236 . S
C625 C628 1.344 . S
C625 C629 1.328 . S
C625 C631 1.516 . S
C626 C627 1.304 . S
C626 C630 1.323 . S
C627 C626 1.304 . S
C627 C628 1.371 . S
C627 H636 0.930 . S
C628 C625 1.344 . S
C628 C627 1.371 . S
C628 H637 0.931 . S
C629 C625 1.328 . S
C629 C630 1.433 . S
C629 H638 0.931 . S
C630 C626 1.323 . S
C630 C629 1.433 . S
C630 H639 0.933 . S
C631 Dy601 2.738 . S
C631 O611 1.255 . S
C631 O612 1.249 . S
C631 C625 1.516 . S
H632 C618 0.930 . S
H633 C619 0.931 . S
H634 C620 0.931 . S
H635 C621 0.933 . S
H636 C627 0.930 . S
H637 C628 0.931 . S
H638 C629 0.931 . S
H639 C630 0.933 . S
H640 C646 0.930 . S
H641 C649 0.930 . S
H642 C650 0.930 . S
H643 C651 0.930 . S
H644 C654 0.930 . S
H645 C655 0.930 . S
C646 H640 0.930 . S
C646 C647 1.355 . S
C646 C648 1.415 . S
C647 C646 1.355 . S
C647 C649 1.419 . S
C648 C646 1.415 . S
C648 C653 1.425 . S
C648 C655 1.409 . S
C649 H641 0.930 . S
C649 C647 1.419 . S
C649 C650 1.362 . S
C650 H642 0.930 . S
C650 C649 1.362 . S
C650 C653 1.409 . S
C651 H643 0.930 . S
C651 C652 1.355 . S
C651 C653 1.415 . S
C652 C651 1.355 . S
C652 C654 1.419 . S
C653 C648 1.425 . S
C653 C650 1.409 . S
C653 C651 1.415 . S
C654 H644 0.930 . S
C654 C652 1.419 . S
C654 C655 1.362 . S
C655 H645 0.930 . S
C655 C648 1.409 . S
C655 C654 1.362 . S
H656 C662 0.930 . S
H657 C665 0.930 . S
H658 C666 0.930 . S
H659 C667 0.930 . S
H660 C670 0.930 . S
H661 C671 0.930 . S
C662 H656 0.930 . S
C662 C663 1.355 . S
C662 C664 1.415 . S
C663 C662 1.355 . S
C663 C665 1.419 . S
C664 C662 1.415 . S
C664 C669 1.425 . S
C664 C671 1.409 . S
C665 H657 0.930 . S
C665 C663 1.419 . S
C665 C666 1.362 . S
C666 H658 0.930 . S
C666 C665 1.362 . S
C666 C669 1.409 . S
C667 H659 0.930 . S
C667 C668 1.355 . S
C667 C669 1.415 . S
C668 C667 1.355 . S
C668 C670 1.419 . S
C669 C664 1.425 . S
C669 C666 1.409 . S
C669 C667 1.415 . S
C670 H660 0.930 . S
C670 C668 1.419 . S
C670 C671 1.362 . S
C671 H661 0.930 . S
C671 C664 1.409 . S
C671 C670 1.362 . S
H672 C678 0.930 . S
H673 C681 0.930 . S
H674 C682 0.930 . S
H675 C683 0.930 . S
H676 C686 0.930 . S
H677 C687 0.930 . S
C678 H672 0.930 . S
C678 C679 1.355 . S
C678 C680 1.415 . S
C679 C678 1.355 . S
C679 C681 1.419 . S
C680 C678 1.415 . S
C680 C685 1.425 . S
C680 C687 1.409 . S
C681 H673 0.930 . S
C681 C679 1.419 . S
C681 C682 1.362 . S
C682 H674 0.930 . S
C682 C681 1.362 . S
C682 C685 1.409 . S
C683 H675 0.930 . S
C683 C684 1.355 . S
C683 C685 1.415 . S
C684 C683 1.355 . S
C684 C686 1.419 . S
C685 C680 1.425 . S
C685 C682 1.409 . S
C685 C683 1.415 . S
C686 H676 0.930 . S
C686 C684 1.419 . S
C686 C687 1.362 . S
C687 H677 0.930 . S
C687 C680 1.409 . S
C687 C686 1.362 . S
H688 C694 0.930 . S
H689 C697 0.930 . S
H690 C698 0.930 . S
H691 C699 0.930 . S
H692 C702 0.930 . S
H693 C703 0.930 . S
C694 H688 0.930 . S
C694 C695 1.355 . S
C694 C696 1.415 . S
C695 C694 1.355 . S
C695 C697 1.419 . S
C696 C694 1.415 . S
C696 C701 1.425 . S
C696 C703 1.409 . S
C697 H689 0.930 . S
C697 C695 1.419 . S
C697 C698 1.362 . S
C698 H690 0.930 . S
C698 C697 1.362 . S
C698 C701 1.409 . S
C699 H691 0.930 . S
C699 C700 1.355 . S
C699 C701 1.415 . S
C700 C699 1.355 . S
C700 C702 1.419 . S
C701 C696 1.425 . S
C701 C698 1.409 . S
C701 C699 1.415 . S
C702 H692 0.930 . S
C702 C700 1.419 . S
C702 C703 1.362 . S
C703 H693 0.930 . S
C703 C696 1.409 . S
C703 C702 1.362 . S
H704 C710 0.930 . S
H705 C713 0.930 . S
H706 C714 0.930 . S
H707 C715 0.930 . S
H708 C718 0.930 . S
H709 C719 0.930 . S
C710 H704 0.930 . S
C710 C711 1.355 . S
C710 C712 1.415 . S
C711 C710 1.355 . S
C711 C713 1.419 . S
C712 C710 1.415 . S
C712 C717 1.425 . S
C712 C719 1.409 . S
C713 H705 0.930 . S
C713 C711 1.419 . S
C713 C714 1.362 . S
C714 H706 0.930 . S
C714 C713 1.362 . S
C714 C717 1.409 . S
C715 H707 0.930 . S
C715 C716 1.355 . S
C715 C717 1.415 . S
C716 C715 1.355 . S
C716 C718 1.419 . S
C717 C712 1.425 . S
C717 C714 1.409 . S
C717 C715 1.415 . S
C718 H708 0.930 . S
C718 C716 1.419 . S
C718 C719 1.362 . S
C719 H709 0.930 . S
C719 C712 1.409 . S
C719 C718 1.362 . S
H720 C726 0.930 . S
H721 C729 0.930 . S
H722 C730 0.930 . S
H723 C731 0.930 . S
H724 C734 0.930 . S
H725 C735 0.930 . S
C726 H720 0.930 . S
C726 C727 1.355 . S
C726 C728 1.415 . S
C727 C726 1.355 . S
C727 C729 1.419 . S
C728 C726 1.415 . S
C728 C733 1.425 . S
C728 C735 1.409 . S
C729 H721 0.930 . S
C729 C727 1.419 . S
C729 C730 1.362 . S
C730 H722 0.930 . S
C730 C729 1.362 . S
C730 C733 1.409 . S
C731 H723 0.930 . S
C731 C732 1.355 . S
C731 C733 1.415 . S
C732 C731 1.355 . S
C732 C734 1.419 . S
C733 C728 1.425 . S
C733 C730 1.409 . S
C733 C731 1.415 . S
C734 H724 0.930 . S
C734 C732 1.419 . S
C734 C735 1.362 . S
C735 H725 0.930 . S
C735 C728 1.409 . S
C735 C734 1.362 . S
H736 C742 0.930 . S
H737 C745 0.930 . S
H738 C746 0.930 . S
H739 C747 0.930 . S
H740 C750 0.930 . S
H741 C751 0.930 . S
C742 H736 0.930 . S
C742 C743 1.355 . S
C742 C744 1.415 . S
C743 C742 1.355 . S
C743 C745 1.419 . S
C744 C742 1.415 . S
C744 C749 1.425 . S
C744 C751 1.409 . S
C745 H737 0.930 . S
C745 C743 1.419 . S
C745 C746 1.362 . S
C746 H738 0.930 . S
C746 C745 1.362 . S
C746 C749 1.409 . S
C747 H739 0.930 . S
C747 C748 1.355 . S
C747 C749 1.415 . S
C748 C747 1.355 . S
C748 C750 1.419 . S
C749 C744 1.425 . S
C749 C746 1.409 . S
C749 C747 1.415 . S
C750 H740 0.930 . S
C750 C748 1.419 . S
C750 C751 1.362 . S
C751 H741 0.930 . S
C751 C744 1.409 . S
C751 C750 1.362 . S
H752 C758 0.930 . S
H753 C761 0.930 . S
H754 C762 0.930 . S
H755 C763 0.930 . S
H756 C766 0.930 . S
H757 C767 0.930 . S
C758 H752 0.930 . S
C758 C759 1.355 . S
C758 C760 1.415 . S
C759 C758 1.355 . S
C759 C761 1.419 . S
C760 C758 1.415 . S
C760 C765 1.425 . S
C760 C767 1.409 . S
C761 H753 0.930 . S
C761 C759 1.419 . S
C761 C762 1.362 . S
C762 H754 0.930 . S
C762 C761 1.362 . S
C762 C765 1.409 . S
C763 H755 0.930 . S
C763 C764 1.355 . S
C763 C765 1.415 . S
C764 C763 1.355 . S
C764 C766 1.419 . S
C765 C760 1.425 . S
C765 C762 1.409 . S
C765 C763 1.415 . S
C766 H756 0.930 . S
C766 C764 1.419 . S
C766 C767 1.362 . S
C767 H757 0.930 . S
C767 C760 1.409 . S
C767 C766 1.362 . S
H768 C774 0.930 . S
H769 C777 0.930 . S
H770 C778 0.930 . S
H771 C779 0.930 . S
H772 C782 0.930 . S
H773 C783 0.930 . S
C774 H768 0.930 . S
C774 C775 1.355 . S
C774 C776 1.415 . S
C775 C774 1.355 . S
C775 C777 1.419 . S
C776 C774 1.415 . S
C776 C781 1.425 . S
C776 C783 1.409 . S
C777 H769 0.930 . S
C777 C775 1.419 . S
C777 C778 1.362 . S
C778 H770 0.930 . S
C778 C777 1.362 . S
C778 C781 1.409 . S
C779 H771 0.930 . S
C779 C780 1.355 . S
C779 C781 1.415 . S
C780 C779 1.355 . S
C780 C782 1.419 . S
C781 C776 1.425 . S
C781 C778 1.409 . S
C781 C779 1.415 . S
C782 H772 0.930 . S
C782 C780 1.419 . S
C782 C783 1.362 . S
C783 H773 0.930 . S
C783 C776 1.409 . S
C783 C782 1.362 . S
H784 C790 0.930 . S
H785 C793 0.930 . S
H786 C794 0.930 . S
H787 C795 0.930 . S
H788 C798 0.930 . S
H789 C799 0.930 . S
C790 H784 0.930 . S
C790 C791 1.355 . S
C790 C792 1.415 . S
C791 C790 1.355 . S
C791 C793 1.419 . S
C792 C790 1.415 . S
C792 C797 1.425 . S
C792 C799 1.409 . S
C793 H785 0.930 . S
C793 C791 1.419 . S
C793 C794 1.362 . S
C794 H786 0.930 . S
C794 C793 1.362 . S
C794 C797 1.409 . S
C795 H787 0.930 . S
C795 C796 1.355 . S
C795 C797 1.415 . S
C796 C795 1.355 . S
C796 C798 1.419 . S
C797 C792 1.425 . S
C797 C794 1.409 . S
C797 C795 1.415 . S
C798 H788 0.930 . S
C798 C796 1.419 . S
C798 C799 1.362 . S
C799 H789 0.930 . S
C799 C792 1.409 . S
C799 C798 1.362 . S
H800 C806 0.930 . S
H801 C809 0.930 . S
H802 C810 0.930 . S
H803 C811 0.930 . S
H804 C814 0.930 . S
H805 C815 0.930 . S
C806 H800 0.930 . S
C806 C807 1.355 . S
C806 C808 1.415 . S
C807 C806 1.355 . S
C807 C809 1.419 . S
C808 C806 1.415 . S
C808 C813 1.425 . S
C808 C815 1.409 . S
C809 H801 0.930 . S
C809 C807 1.419 . S
C809 C810 1.362 . S
C810 H802 0.930 . S
C810 C809 1.362 . S
C810 C813 1.409 . S
C811 H803 0.930 . S
C811 C812 1.355 . S
C811 C813 1.415 . S
C812 C811 1.355 . S
C812 C814 1.419 . S
C813 C808 1.425 . S
C813 C810 1.409 . S
C813 C811 1.415 . S
C814 H804 0.930 . S
C814 C812 1.419 . S
C814 C815 1.362 . S
C815 H805 0.930 . S
C815 C808 1.409 . S
C815 C814 1.362 . S
H816 C822 0.930 . S
H817 C825 0.930 . S
H818 C826 0.930 . S
H819 C827 0.930 . S
H820 C830 0.930 . S
H821 C831 0.930 . S
C822 H816 0.930 . S
C822 C823 1.355 . S
C822 C824 1.415 . S
C823 C822 1.355 . S
C823 C825 1.419 . S
C824 C822 1.415 . S
C824 C829 1.425 . S
C824 C831 1.409 . S
C825 H817 0.930 . S
C825 C823 1.419 . S
C825 C826 1.362 . S
C826 H818 0.930 . S
C826 C825 1.362 . S
C826 C829 1.409 . S
C827 H819 0.930 . S
C827 C828 1.355 . S
C827 C829 1.415 . S
C828 C827 1.355 . S
C828 C830 1.419 . S
C829 C824 1.425 . S
C829 C826 1.409 . S
C829 C827 1.415 . S
C830 H820 0.930 . S
C830 C828 1.419 . S
C830 C831 1.362 . S
C831 H821 0.930 . S
C831 C824 1.409 . S
C831 C830 1.362 . S
H832 C838 0.930 . S
H833 C841 0.930 . S
H834 C842 0.930 . S
H835 C843 0.930 . S
H836 C846 0.918 1_545 S
H837 C847 0.930 . S
C838 H832 0.930 . S
C838 C839 1.355 . S
C838 C840 1.415 . S
C839 C838 1.355 . S
C839 C841 1.419 . S
C840 C838 1.415 . S
C840 C845 1.425 . S
C840 C847 1.409 . S
C841 H833 0.930 . S
C841 C839 1.419 . S
C841 C842 1.362 . S
C842 H834 0.930 . S
C842 C841 1.362 . S
C842 C845 1.409 . S
C843 H835 0.930 . S
C843 C844 1.355 . S
C843 C845 1.415 . S
C844 C843 1.355 . S
C844 C846 1.419 . S
C845 C840 1.425 . S
C845 C842 1.409 . S
C845 C843 1.415 . S
C846 H836 0.918 1_565 S
C846 C844 1.419 . S
C846 C847 1.362 . S
C847 H837 0.930 . S
C847 C840 1.409 . S
C847 C846 1.362 . S
H848 C854 0.930 . S
H849 C857 0.930 . S
H850 C858 0.930 . S
H851 C859 0.930 . S
H852 C862 0.930 . S
H853 C863 0.930 . S
C854 H848 0.930 . S
C854 C855 1.355 . S
C854 C856 1.415 . S
C855 C854 1.355 . S
C855 C857 1.419 . S
C856 C854 1.415 . S
C856 C861 1.425 . S
C856 C863 1.409 . S
C857 H849 0.930 . S
C857 C855 1.419 . S
C857 C858 1.362 . S
C858 H850 0.930 . S
C858 C857 1.362 . S
C858 C861 1.409 . S
C859 H851 0.930 . S
C859 C860 1.355 . S
C859 C861 1.415 . S
C860 C859 1.355 . S
C860 C862 1.419 . S
C861 C856 1.425 . S
C861 C858 1.409 . S
C861 C859 1.415 . S
C862 H852 0.930 . S
C862 C860 1.419 . S
C862 C863 1.362 . S
C863 H853 0.930 . S
C863 C856 1.409 . S
C863 C862 1.362 . S
H864 C870 0.930 . S
H865 C873 0.930 . S
H866 C874 0.930 . S
H867 C875 0.930 . S
H868 C878 0.930 . S
H869 C879 0.930 . S
C870 H864 0.930 . S
C870 C871 1.355 . S
C870 C872 1.415 . S
C871 C870 1.355 . S
C871 C873 1.419 . S
C872 C870 1.415 . S
C872 C877 1.425 . S
C872 C879 1.409 . S
C873 H865 0.930 . S
C873 C871 1.419 . S
C873 C874 1.362 . S
C874 H866 0.930 . S
C874 C873 1.362 . S
C874 C877 1.409 . S
C875 H867 0.930 . S
C875 C876 1.355 . S
C875 C877 1.415 . S
C876 C875 1.355 . S
C876 C878 1.419 . S
C877 C872 1.425 . S
C877 C874 1.409 . S
C877 C875 1.415 . S
C878 H868 0.930 . S
C878 C876 1.419 . S
C878 C879 1.362 . S
C879 H869 0.930 . S
C879 C872 1.409 . S
C879 C878 1.362 . S
H880 C886 0.930 . S
H881 C889 0.930 . S
H882 C890 0.930 . S
H883 C891 0.930 . S
H884 C894 0.930 . S
H885 C895 0.930 . S
C886 H880 0.930 . S
C886 C887 1.355 . S
C886 C888 1.415 . S
C887 C886 1.355 . S
C887 C889 1.419 . S
C888 C886 1.415 . S
C888 C893 1.425 . S
C888 C895 1.409 . S
C889 H881 0.930 . S
C889 C887 1.419 . S
C889 C890 1.362 . S
C890 H882 0.930 . S
C890 C889 1.362 . S
C890 C893 1.409 . S
C891 H883 0.930 . S
C891 C892 1.355 . S
C891 C893 1.415 . S
C892 C891 1.355 . S
C892 C894 1.419 . S
C893 C888 1.425 . S
C893 C890 1.409 . S
C893 C891 1.415 . S
C894 H884 0.930 . S
C894 C892 1.419 . S
C894 C895 1.362 . S
C895 H885 0.930 . S
C895 C888 1.409 . S
C895 C894 1.362 . S
H896 C902 0.930 . S
H897 C905 0.930 . S
H898 C906 0.930 . S
H899 C907 0.930 . S
H900 C910 0.930 . S
H901 C911 0.930 . S
C902 H896 0.930 . S
C902 C903 1.355 . S
C902 C904 1.415 . S
C903 C902 1.355 . S
C903 C905 1.419 . S
C904 C902 1.415 . S
C904 C909 1.425 . S
C904 C911 1.409 . S
C905 H897 0.930 . S
C905 C903 1.419 . S
C905 C906 1.362 . S
C906 H898 0.930 . S
C906 C905 1.362 . S
C906 C909 1.409 . S
C907 H899 0.930 . S
C907 C908 1.355 . S
C907 C909 1.415 . S
C908 C907 1.355 . S
C908 C910 1.419 . S
C909 C904 1.425 . S
C909 C906 1.409 . S
C909 C907 1.415 . S
C910 H900 0.930 . S
C910 C908 1.419 . S
C910 C911 1.362 . S
C911 H901 0.930 . S
C911 C904 1.409 . S
C911 C910 1.362 . S
H912 C918 0.930 . S
H913 C921 0.930 . S
H914 C922 0.930 . S
H915 C923 0.930 . S
H916 C926 0.930 . S
H917 C927 0.930 . S
C918 H912 0.930 . S
C918 C919 1.355 . S
C918 C920 1.415 . S
C919 C918 1.355 . S
C919 C921 1.419 . S
C920 C918 1.415 . S
C920 C925 1.425 . S
C920 C927 1.409 . S
C921 H913 0.930 . S
C921 C919 1.419 . S
C921 C922 1.362 . S
C922 H914 0.930 . S
C922 C921 1.362 . S
C922 C925 1.409 . S
C923 H915 0.930 . S
C923 C924 1.355 . S
C923 C925 1.415 . S
C924 C923 1.355 . S
C924 C926 1.419 . S
C925 C920 1.425 . S
C925 C922 1.409 . S
C925 C923 1.415 . S
C926 H916 0.930 . S
C926 C924 1.419 . S
C926 C927 1.362 . S
C927 H917 0.930 . S
C927 C920 1.409 . S
C927 C926 1.362 . S
H928 C934 0.930 . S
H929 C937 0.930 . S
H930 C938 0.930 . S
H931 C939 0.930 . S
H932 C942 0.930 . S
H933 C943 0.930 . S
C934 H928 0.930 . S
C934 C935 1.355 . S
C934 C936 1.415 . S
C935 C934 1.355 . S
C935 C937 1.419 . S
C936 C934 1.415 . S
C936 C941 1.425 . S
C936 C943 1.409 . S
C937 H929 0.930 . S
C937 C935 1.419 . S
C937 C938 1.362 . S
C938 H930 0.930 . S
C938 C937 1.362 . S
C938 C941 1.409 . S
C939 H931 0.930 . S
C939 C940 1.355 . S
C939 C941 1.415 . S
C940 C939 1.355 . S
C940 C942 1.419 . S
C941 C936 1.425 . S
C941 C938 1.409 . S
C941 C939 1.415 . S
C942 H932 0.930 . S
C942 C940 1.419 . S
C942 C943 1.362 . S
C943 H933 0.930 . S
C943 C936 1.409 . S
C943 C942 1.362 . S
H944 C950 0.930 . S
H945 C953 0.930 . S
H946 C954 0.930 . S
H947 C955 0.930 . S
H948 C958 0.930 1_455 S
H949 C959 0.930 . S
C950 H944 0.930 . S
C950 C951 1.355 . S
C950 C952 1.415 . S
C951 C950 1.355 . S
C951 C953 1.419 . S
C952 C950 1.415 . S
C952 C957 1.425 . S
C952 C959 1.409 . S
C953 H945 0.930 . S
C953 C951 1.419 . S
C953 C954 1.362 . S
C954 H946 0.930 . S
C954 C953 1.362 . S
C954 C957 1.409 . S
C955 H947 0.930 . S
C955 C956 1.355 . S
C955 C957 1.415 . S
C956 C955 1.355 . S
C956 C958 1.419 . S
C957 C952 1.425 . S
C957 C954 1.409 . S
C957 C955 1.415 . S
C958 H948 0.930 1_655 S
C958 C956 1.419 . S
C958 C959 1.362 . S
C959 H949 0.930 . S
C959 C952 1.409 . S
C959 C958 1.362 . S
H960 C966 0.930 . S
H961 C969 0.930 . S
H962 C970 0.930 . S
H963 C971 0.930 . S
H964 C974 0.930 1_565 S
H965 C975 0.930 . S
C966 H960 0.930 . S
C966 C967 1.355 . S
C966 C968 1.415 . S
C967 C966 1.355 . S
C967 C969 1.419 . S
C968 C966 1.415 . S
C968 C973 1.425 . S
C968 C975 1.409 . S
C969 H961 0.930 . S
C969 C967 1.419 . S
C969 C970 1.362 . S
C970 H962 0.930 . S
C970 C969 1.362 . S
C970 C973 1.409 . S
C971 H963 0.930 . S
C971 C972 1.355 . S
C971 C973 1.415 . S
C972 C971 1.355 . S
C972 C974 1.419 . S
C973 C968 1.425 . S
C973 C970 1.409 . S
C973 C971 1.415 . S
C974 H964 0.930 1_545 S
C974 C972 1.419 . S
C974 C975 1.362 . S
C975 H965 0.930 . S
C975 C968 1.409 . S
C975 C974 1.362 . S
H976 C982 0.930 . S
H977 C985 0.930 . S
H978 C986 0.930 . S
H979 C987 0.930 . S
H980 C990 0.930 . S
H981 C991 0.930 . S
C982 H976 0.930 . S
C982 C983 1.355 . S
C982 C984 1.415 . S
C983 C982 1.355 . S
C983 C985 1.419 . S
C984 C982 1.415 . S
C984 C989 1.425 . S
C984 C991 1.409 . S
C985 H977 0.930 . S
C985 C983 1.419 . S
C985 C986 1.362 . S
C986 H978 0.930 . S
C986 C985 1.362 . S
C986 C989 1.409 . S
C987 H979 0.930 . S
C987 C988 1.355 . S
C987 C989 1.415 . S
C988 C987 1.355 . S
C988 C990 1.419 . S
C989 C984 1.425 . S
C989 C986 1.409 . S
C989 C987 1.415 . S
C990 H980 0.930 . S
C990 C988 1.419 . S
C990 C991 1.362 . S
C991 H981 0.930 . S
C991 C984 1.409 . S
C991 C990 1.362 . S
H992 C998 0.930 . S
H993 C1001 0.930 . S
H994 C1002 0.930 . S
H995 C1003 0.930 . S
H996 C1006 0.930 . S
H997 C1007 0.930 . S
C998 H992 0.930 . S
C998 C999 1.355 . S
C998 C1000 1.415 . S
C999 C998 1.355 . S
C999 C1001 1.419 . S
C1000 C998 1.415 . S
C1000 C1005 1.425 . S
C1000 C1007 1.409 . S
C1001 H993 0.930 . S
C1001 C999 1.419 . S
C1001 C1002 1.362 . S
C1002 H994 0.930 . S
C1002 C1001 1.362 . S
C1002 C1005 1.409 . S
C1003 H995 0.930 . S
C1003 C1004 1.355 . S
C1003 C1005 1.415 . S
C1004 C1003 1.355 . S
C1004 C1006 1.419 . S
C1005 C1000 1.425 . S
C1005 C1002 1.409 . S
C1005 C1003 1.415 . S
C1006 H996 0.930 . S
C1006 C1004 1.419 . S
C1006 C1007 1.362 . S
C1007 H997 0.930 . S
C1007 C1000 1.409 . S
C1007 C1006 1.362 . S
H1008 C1014 0.930 . S
H1009 C1017 0.930 . S
H1010 C1018 0.930 . S
H1011 C1019 0.930 . S
H1012 C1022 0.930 . S
H1013 C1023 0.930 . S
C1014 H1008 0.930 . S
C1014 C1015 1.355 . S
C1014 C1016 1.415 . S
C1015 C1014 1.355 . S
C1015 C1017 1.419 . S
C1016 C1014 1.415 . S
C1016 C1021 1.425 . S
C1016 C1023 1.409 . S
C1017 H1009 0.930 . S
C1017 C1015 1.419 . S
C1017 C1018 1.362 . S
C1018 H1010 0.930 . S
C1018 C1017 1.362 . S
C1018 C1021 1.409 . S
C1019 H1011 0.930 . S
C1019 C1020 1.355 . S
C1019 C1021 1.415 . S
C1020 C1019 1.355 . S
C1020 C1022 1.419 . S
C1021 C1016 1.425 . S
C1021 C1018 1.409 . S
C1021 C1019 1.415 . S
C1022 H1012 0.930 . S
C1022 C1020 1.419 . S
C1022 C1023 1.362 . S
C1023 H1013 0.930 . S
C1023 C1016 1.409 . S
C1023 C1022 1.362 . S
H1024 C1030 0.930 . S
H1025 C1033 0.930 . S
H1026 C1034 0.930 . S
H1027 C1035 0.930 . S
H1028 C1038 0.930 . S
H1029 C1039 0.930 . S
C1030 H1024 0.930 . S
C1030 C1031 1.355 . S
C1030 C1032 1.415 . S
C1031 C1030 1.355 . S
C1031 C1033 1.419 . S
C1032 C1030 1.415 . S
C1032 C1037 1.425 . S
C1032 C1039 1.409 . S
C1033 H1025 0.930 . S
C1033 C1031 1.419 . S
C1033 C1034 1.362 . S
C1034 H1026 0.930 . S
C1034 C1033 1.362 . S
C1034 C1037 1.409 . S
C1035 H1027 0.930 . S
C1035 C1036 1.355 . S
C1035 C1037 1.415 . S
C1036 C1035 1.355 . S
C1036 C1038 1.419 . S
C1037 C1032 1.425 . S
C1037 C1034 1.409 . S
C1037 C1035 1.415 . S
C1038 H1028 0.930 . S
C1038 C1036 1.419 . S
C1038 C1039 1.362 . S
C1039 H1029 0.930 . S
C1039 C1032 1.409 . S
C1039 C1038 1.362 . S
H1040 C1046 0.930 . S
H1041 C1049 0.930 . S
H1042 C1050 0.930 . S
H1043 C1051 0.930 . S
H1044 C1054 0.930 . S
H1045 C1055 0.930 . S
C1046 H1040 0.930 . S
C1046 C1047 1.355 . S
C1046 C1048 1.415 . S
C1047 C1046 1.355 . S
C1047 C1049 1.419 . S
C1048 C1046 1.415 . S
C1048 C1053 1.425 . S
C1048 C1055 1.409 . S
C1049 H1041 0.930 . S
C1049 C1047 1.419 . S
C1049 C1050 1.362 . S
C1050 H1042 0.930 . S
C1050 C1049 1.362 . S
C1050 C1053 1.409 . S
C1051 H1043 0.930 . S
C1051 C1052 1.355 . S
C1051 C1053 1.415 . S
C1052 C1051 1.355 . S
C1052 C1054 1.419 . S
C1053 C1048 1.425 . S
C1053 C1050 1.409 . S
C1053 C1051 1.415 . S
C1054 H1044 0.930 . S
C1054 C1052 1.419 . S
C1054 C1055 1.362 . S
C1055 H1045 0.930 . S
C1055 C1048 1.409 . S
C1055 C1054 1.362 . S
H1056 C1062 0.930 . S
H1057 C1065 0.930 . S
H1058 C1066 0.930 . S
H1059 C1067 0.930 . S
H1060 C1070 0.930 . S
H1061 C1071 0.930 . S
C1062 H1056 0.930 . S
C1062 C1063 1.355 . S
C1062 C1064 1.415 . S
C1063 C1062 1.355 . S
C1063 C1065 1.419 . S
C1064 C1062 1.415 . S
C1064 C1069 1.425 . S
C1064 C1071 1.409 . S
C1065 H1057 0.930 . S
C1065 C1063 1.419 . S
C1065 C1066 1.362 . S
C1066 H1058 0.930 . S
C1066 C1065 1.362 . S
C1066 C1069 1.409 . S
C1067 H1059 0.930 . S
C1067 C1068 1.355 . S
C1067 C1069 1.415 . S
C1068 C1067 1.355 . S
C1068 C1070 1.419 . S
C1069 C1064 1.425 . S
C1069 C1066 1.409 . S
C1069 C1067 1.415 . S
C1070 H1060 0.930 . S
C1070 C1068 1.419 . S
C1070 C1071 1.362 . S
C1071 H1061 0.930 . S
C1071 C1064 1.409 . S
C1071 C1070 1.362 . S
H1072 C1078 0.930 . S
H1073 C1081 0.930 . S
H1074 C1082 0.930 . S
H1075 C1083 0.930 . S
H1076 C1086 0.930 . S
H1077 C1087 0.930 . S
C1078 H1072 0.930 . S
C1078 C1079 1.355 . S
C1078 C1080 1.415 . S
C1079 C1078 1.355 . S
C1079 C1081 1.419 . S
C1080 C1078 1.415 . S
C1080 C1085 1.425 . S
C1080 C1087 1.409 . S
C1081 H1073 0.930 . S
C1081 C1079 1.419 . S
C1081 C1082 1.362 . S
C1082 H1074 0.930 . S
C1082 C1081 1.362 . S
C1082 C1085 1.409 . S
C1083 H1075 0.930 . S
C1083 C1084 1.355 . S
C1083 C1085 1.415 . S
C1084 C1083 1.355 . S
C1084 C1086 1.419 . S
C1085 C1080 1.425 . S
C1085 C1082 1.409 . S
C1085 C1083 1.415 . S
C1086 H1076 0.930 . S
C1086 C1084 1.419 . S
C1086 C1087 1.362 . S
C1087 H1077 0.930 . S
C1087 C1080 1.409 . S
C1087 C1086 1.362 . S
H1088 C1094 0.930 . S
H1089 C1097 0.930 . S
H1090 C1098 0.930 . S
H1091 C1099 0.930 . S
H1092 C1102 0.930 . S
H1093 C1103 0.930 . S
C1094 H1088 0.930 . S
C1094 C1095 1.355 . S
C1094 C1096 1.415 . S
C1095 C1094 1.355 . S
C1095 C1097 1.419 . S
C1096 C1094 1.415 . S
C1096 C1101 1.425 . S
C1096 C1103 1.409 . S
C1097 H1089 0.930 . S
C1097 C1095 1.419 . S
C1097 C1098 1.362 . S
C1098 H1090 0.930 . S
C1098 C1097 1.362 . S
C1098 C1101 1.409 . S
C1099 H1091 0.930 . S
C1099 C1100 1.355 . S
C1099 C1101 1.415 . S
C1100 C1099 1.355 . S
C1100 C1102 1.419 . S
C1101 C1096 1.425 . S
C1101 C1098 1.409 . S
C1101 C1099 1.415 . S
C1102 H1092 0.930 . S
C1102 C1100 1.419 . S
C1102 C1103 1.362 . S
C1103 H1093 0.930 . S
C1103 C1096 1.409 . S
C1103 C1102 1.362 . S
H1104 C1110 0.930 . S
H1105 C1113 0.930 . S
H1106 C1114 0.930 . S
H1107 C1115 0.930 . S
H1108 C1118 0.930 . S
H1109 C1119 0.930 . S
C1110 H1104 0.930 . S
C1110 C1111 1.355 . S
C1110 C1112 1.415 . S
C1111 C1110 1.355 . S
C1111 C1113 1.419 . S
C1112 C1110 1.415 . S
C1112 C1117 1.425 . S
C1112 C1119 1.409 . S
C1113 H1105 0.930 . S
C1113 C1111 1.419 . S
C1113 C1114 1.362 . S
C1114 H1106 0.930 . S
C1114 C1113 1.362 . S
C1114 C1117 1.409 . S
C1115 H1107 0.930 . S
C1115 C1116 1.355 . S
C1115 C1117 1.415 . S
C1116 C1115 1.355 . S
C1116 C1118 1.419 . S
C1117 C1112 1.425 . S
C1117 C1114 1.409 . S
C1117 C1115 1.415 . S
C1118 H1108 0.930 . S
C1118 C1116 1.419 . S
C1118 C1119 1.362 . S
C1119 H1109 0.930 . S
C1119 C1112 1.409 . S
C1119 C1118 1.362 . S
H1120 C1126 0.930 . S
H1121 C1129 0.930 . S
H1122 C1130 0.930 . S
H1123 C1131 0.930 . S
H1124 C1134 0.930 . S
H1125 C1135 0.930 . S
C1126 H1120 0.930 . S
C1126 C1127 1.355 . S
C1126 C1128 1.415 . S
C1127 C1126 1.355 . S
C1127 C1129 1.419 . S
C1128 C1126 1.415 . S
C1128 C1133 1.425 . S
C1128 C1135 1.409 . S
C1129 H1121 0.930 . S
C1129 C1127 1.419 . S
C1129 C1130 1.362 . S
C1130 H1122 0.930 . S
C1130 C1129 1.362 . S
C1130 C1133 1.409 . S
C1131 H1123 0.930 . S
C1131 C1132 1.355 . S
C1131 C1133 1.415 . S
C1132 C1131 1.355 . S
C1132 C1134 1.419 . S
C1133 C1128 1.425 . S
C1133 C1130 1.409 . S
C1133 C1131 1.415 . S
C1134 H1124 0.930 . S
C1134 C1132 1.419 . S
C1134 C1135 1.362 . S
C1135 H1125 0.930 . S
C1135 C1128 1.409 . S
C1135 C1134 1.362 . S
H1136 C1142 0.930 . S
H1137 C1145 0.930 . S
H1138 C1146 0.930 . S
H1139 C1147 0.930 . S
H1140 C1150 0.930 . S
H1141 C1151 0.930 . S
C1142 H1136 0.930 . S
C1142 C1143 1.355 . S
C1142 C1144 1.415 . S
C1143 C1142 1.355 . S
C1143 C1145 1.419 . S
C1144 C1142 1.415 . S
C1144 C1149 1.425 . S
C1144 C1151 1.409 . S
C1145 H1137 0.930 . S
C1145 C1143 1.419 . S
C1145 C1146 1.362 . S
C1146 H1138 0.930 . S
C1146 C1145 1.362 . S
C1146 C1149 1.409 . S
C1147 H1139 0.930 . S
C1147 C1148 1.355 . S
C1147 C1149 1.415 . S
C1148 C1147 1.355 . S
C1148 C1150 1.419 . S
C1149 C1144 1.425 . S
C1149 C1146 1.409 . S
C1149 C1147 1.415 . S
C1150 H1140 0.930 . S
C1150 C1148 1.419 . S
C1150 C1151 1.362 . S
C1151 H1141 0.930 . S
C1151 C1144 1.409 . S
C1151 C1150 1.362 . S
H1152 C1158 0.930 . S
H1153 C1161 0.930 . S
H1154 C1162 0.930 . S
H1155 C1163 0.930 . S
H1156 C1166 0.930 . S
H1157 C1167 0.930 . S
C1158 H1152 0.930 . S
C1158 C1159 1.355 . S
C1158 C1160 1.415 . S
C1159 C1158 1.355 . S
C1159 C1161 1.419 . S
C1160 C1158 1.415 . S
C1160 C1165 1.425 . S
C1160 C1167 1.409 . S
C1161 H1153 0.930 . S
C1161 C1159 1.419 . S
C1161 C1162 1.362 . S
C1162 H1154 0.930 . S
C1162 C1161 1.362 . S
C1162 C1165 1.409 . S
C1163 H1155 0.930 . S
C1163 C1164 1.355 . S
C1163 C1165 1.415 . S
C1164 C1163 1.355 . S
C1164 C1166 1.419 . S
C1165 C1160 1.425 . S
C1165 C1162 1.409 . S
C1165 C1163 1.415 . S
C1166 H1156 0.930 . S
C1166 C1164 1.419 . S
C1166 C1167 1.362 . S
C1167 H1157 0.930 . S
C1167 C1160 1.409 . S
C1167 C1166 1.362 . S
H1168 C1174 0.930 . S
H1169 C1177 0.930 . S
H1170 C1178 0.930 . S
H1171 C1179 0.930 . S
H1172 C1182 0.930 . S
H1173 C1183 0.930 . S
C1174 H1168 0.930 . S
C1174 C1175 1.355 . S
C1174 C1176 1.415 . S
C1175 C1174 1.355 . S
C1175 C1177 1.419 . S
C1176 C1174 1.415 . S
C1176 C1181 1.425 . S
C1176 C1183 1.409 . S
C1177 H1169 0.930 . S
C1177 C1175 1.419 . S
C1177 C1178 1.362 . S
C1178 H1170 0.930 . S
C1178 C1177 1.362 . S
C1178 C1181 1.409 . S
C1179 H1171 0.930 . S
C1179 C1180 1.355 . S
C1179 C1181 1.415 . S
C1180 C1179 1.355 . S
C1180 C1182 1.419 . S
C1181 C1176 1.425 . S
C1181 C1178 1.409 . S
C1181 C1179 1.415 . S
C1182 H1172 0.930 . S
C1182 C1180 1.419 . S
C1182 C1183 1.362 . S
C1183 H1173 0.930 . S
C1183 C1176 1.409 . S
C1183 C1182 1.362 . S
H1184 C1190 0.930 . S
H1185 C1193 0.930 . S
H1186 C1194 0.930 . S
H1187 C1195 0.930 . S
H1188 C1198 0.930 . S
H1189 C1199 0.930 . S
C1190 H1184 0.930 . S
C1190 C1191 1.355 . S
C1190 C1192 1.415 . S
C1191 C1190 1.355 . S
C1191 C1193 1.419 . S
C1192 C1190 1.415 . S
C1192 C1197 1.425 . S
C1192 C1199 1.409 . S
C1193 H1185 0.930 . S
C1193 C1191 1.419 . S
C1193 C1194 1.362 . S
C1194 H1186 0.930 . S
C1194 C1193 1.362 . S
C1194 C1197 1.409 . S
C1195 H1187 0.930 . S
C1195 C1196 1.355 . S
C1195 C1197 1.415 . S
C1196 C1195 1.355 . S
C1196 C1198 1.419 . S
C1197 C1192 1.425 . S
C1197 C1194 1.409 . S
C1197 C1195 1.415 . S
C1198 H1188 0.930 . S
C1198 C1196 1.419 . S
C1198 C1199 1.362 . S
C1199 H1189 0.930 . S
C1199 C1192 1.409 . S
C1199 C1198 1.362 . S
H1200 C1206 0.930 . S
H1201 C1209 0.930 . S
H1202 C1210 0.930 . S
H1203 C1211 0.930 . S
H1204 C1214 0.930 . S
H1205 C1215 0.930 . S
C1206 H1200 0.930 . S
C1206 C1207 1.355 . S
C1206 C1208 1.415 . S
C1207 C1206 1.355 . S
C1207 C1209 1.419 . S
C1208 C1206 1.415 . S
C1208 C1213 1.425 . S
C1208 C1215 1.409 . S
C1209 H1201 0.930 . S
C1209 C1207 1.419 . S
C1209 C1210 1.362 . S
C1210 H1202 0.930 . S
C1210 C1209 1.362 . S
C1210 C1213 1.409 . S
C1211 H1203 0.930 . S
C1211 C1212 1.355 . S
C1211 C1213 1.415 . S
C1212 C1211 1.355 . S
C1212 C1214 1.419 . S
C1213 C1208 1.425 . S
C1213 C1210 1.409 . S
C1213 C1211 1.415 . S
C1214 H1204 0.930 . S
C1214 C1212 1.419 . S
C1214 C1215 1.362 . S
C1215 H1205 0.930 . S
C1215 C1208 1.409 . S
C1215 C1214 1.362 . S
H1216 C1222 0.930 . S
H1217 C1225 0.930 . S
H1218 C1226 0.930 . S
H1219 C1227 0.930 . S
H1220 C1230 0.930 . S
H1221 C1231 0.930 . S
C1222 H1216 0.930 . S
C1222 C1223 1.362 . S
C1222 C1224 1.415 . S
C1223 C1222 1.362 . S
C1223 C1225 1.414 1_554 S
C1224 C1222 1.415 . S
C1224 C1229 1.425 . S
C1224 C1231 1.409 . S
C1225 H1217 0.930 . S
C1225 C1223 1.414 1_556 S
C1225 C1226 1.362 . S
C1226 H1218 0.930 . S
C1226 C1225 1.362 . S
C1226 C1229 1.409 1_556 S
C1227 H1219 0.930 . S
C1227 C1228 1.355 . S
C1227 C1229 1.415 . S
C1228 C1227 1.355 . S
C1228 C1230 1.419 . S
C1229 C1224 1.425 . S
C1229 C1226 1.409 1_554 S
C1229 C1227 1.415 . S
C1230 H1220 0.930 . S
C1230 C1228 1.419 . S
C1230 C1231 1.362 . S
C1231 H1221 0.930 . S
C1231 C1224 1.409 . S
C1231 C1230 1.362 . S
H1232 C1238 0.930 . S
H1233 C1241 0.930 . S
H1234 C1242 0.930 . S
H1235 C1243 0.930 . S
H1236 C1246 0.930 . S
H1237 C1247 0.930 . S
C1238 H1232 0.930 . S
C1238 C1239 1.355 . S
C1238 C1240 1.415 . S
C1239 C1238 1.355 . S
C1239 C1241 1.419 1_554 S
C1240 C1238 1.415 . S
C1240 C1245 1.425 1_554 S
C1240 C1247 1.409 . S
C1241 H1233 0.930 . S
C1241 C1239 1.419 1_556 S
C1241 C1242 1.362 . S
C1242 H1234 0.930 . S
C1242 C1241 1.362 . S
C1242 C1245 1.409 . S
C1243 H1235 0.930 . S
C1243 C1244 1.355 1_556 S
C1243 C1245 1.415 . S
C1244 C1243 1.355 1_554 S
C1244 C1246 1.419 . S
C1245 C1240 1.425 1_556 S
C1245 C1242 1.409 . S
C1245 C1243 1.415 . S
C1246 H1236 0.930 . S
C1246 C1244 1.419 . S
C1246 C1247 1.362 . S
C1247 H1237 0.930 . S
C1247 C1240 1.409 . S
C1247 C1246 1.362 . S
H1248 C1254 0.930 . S
H1249 C1257 0.930 . S
H1250 C1258 0.930 . S
H1251 C1259 0.930 . S
H1252 C1262 0.930 . S
H1253 C1263 0.930 . S
C1254 H1248 0.930 . S
C1254 C1255 1.355 1_556 S
C1254 C1256 1.415 . S
C1255 C1254 1.355 1_554 S
C1255 C1257 1.419 . S
C1256 C1254 1.415 . S
C1256 C1261 1.425 1_556 S
C1256 C1263 1.409 . S
C1257 H1249 0.930 . S
C1257 C1255 1.419 . S
C1257 C1258 1.362 . S
C1258 H1250 0.930 . S
C1258 C1257 1.362 . S
C1258 C1261 1.409 . S
C1259 H1251 0.930 . S
C1259 C1260 1.355 . S
C1259 C1261 1.415 . S
C1260 C1259 1.355 . S
C1260 C1262 1.419 1_554 S
C1261 C1256 1.425 1_554 S
C1261 C1258 1.409 . S
C1261 C1259 1.415 . S
C1262 H1252 0.930 . S
C1262 C1260 1.419 1_556 S
C1262 C1263 1.362 . S
C1263 H1253 0.930 . S
C1263 C1256 1.409 . S
C1263 C1262 1.362 . S
H1264 C1270 0.930 . S
H1265 C1273 0.930 . S
H1266 C1274 0.930 . S
H1267 C1275 0.930 . S
H1268 C1278 0.930 . S
H1269 C1279 0.930 . S
C1270 H1264 0.930 . S
C1270 C1271 1.355 . S
C1270 C1272 1.415 . S
C1271 C1270 1.355 . S
C1271 C1273 1.419 . S
C1272 C1270 1.415 . S
C1272 C1277 1.425 . S
C1272 C1279 1.409 1_554 S
C1273 H1265 0.930 . S
C1273 C1271 1.419 . S
C1273 C1274 1.362 . S
C1274 H1266 0.930 . S
C1274 C1273 1.362 . S
C1274 C1277 1.409 . S
C1275 H1267 0.930 . S
C1275 C1276 1.363 . S
C1275 C1277 1.415 . S
C1276 C1275 1.363 . S
C1276 C1278 1.413 1_554 S
C1277 C1272 1.425 . S
C1277 C1274 1.409 . S
C1277 C1275 1.415 . S
C1278 H1268 0.930 . S
C1278 C1276 1.413 1_556 S
C1278 C1279 1.362 . S
C1279 H1269 0.930 . S
C1279 C1272 1.409 1_556 S
C1279 C1278 1.362 . S
H1280 C1286 0.930 . S
H1281 C1289 0.930 . S
H1282 C1290 0.930 . S
H1283 C1291 0.930 . S
H1284 C1294 0.930 . S
H1285 C1295 0.930 . S
C1286 H1280 0.930 . S
C1286 C1287 1.355 . S
C1286 C1288 1.415 . S
C1287 C1286 1.355 . S
C1287 C1289 1.419 . S
C1288 C1286 1.415 . S
C1288 C1293 1.425 . S
C1288 C1295 1.409 . S
C1289 H1281 0.930 . S
C1289 C1287 1.419 . S
C1289 C1290 1.362 . S
C1290 H1282 0.930 . S
C1290 C1289 1.362 . S
C1290 C1293 1.409 . S
C1291 H1283 0.930 . S
C1291 C1292 1.355 . S
C1291 C1293 1.415 . S
C1292 C1291 1.355 . S
C1292 C1294 1.419 . S
C1293 C1288 1.425 . S
C1293 C1290 1.409 . S
C1293 C1291 1.415 . S
C1294 H1284 0.930 . S
C1294 C1292 1.419 . S
C1294 C1295 1.362 . S
C1295 H1285 0.930 . S
C1295 C1288 1.409 . S
C1295 C1294 1.362 . S
H1296 C1302 0.930 . S
H1297 C1305 0.930 . S
H1298 C1306 0.930 . S
H1299 C1307 0.930 . S
H1300 C1310 0.930 . S
H1301 C1311 0.930 . S
C1302 H1296 0.930 . S
C1302 C1303 1.355 . S
C1302 C1304 1.415 . S
C1303 C1302 1.355 . S
C1303 C1305 1.419 . S
C1304 C1302 1.415 . S
C1304 C1309 1.425 . S
C1304 C1311 1.409 . S
C1305 H1297 0.930 . S
C1305 C1303 1.419 . S
C1305 C1306 1.362 . S
C1306 H1298 0.930 . S
C1306 C1305 1.362 . S
C1306 C1309 1.409 . S
C1307 H1299 0.930 . S
C1307 C1308 1.355 . S
C1307 C1309 1.415 . S
C1308 C1307 1.355 . S
C1308 C1310 1.419 . S
C1309 C1304 1.425 . S
C1309 C1306 1.409 . S
C1309 C1307 1.415 . S
C1310 H1300 0.930 . S
C1310 C1308 1.419 . S
C1310 C1311 1.362 . S
C1311 H1301 0.930 . S
C1311 C1304 1.409 . S
C1311 C1310 1.362 . S
H1312 C1318 0.930 . S
H1313 C1321 0.930 . S
H1314 C1322 0.930 . S
H1315 C1323 0.930 . S
H1316 C1326 0.930 . S
H1317 C1327 0.930 . S
C1318 H1312 0.930 . S
C1318 C1319 1.355 . S
C1318 C1320 1.415 . S
C1319 C1318 1.355 . S
C1319 C1321 1.419 . S
C1320 C1318 1.415 . S
C1320 C1325 1.425 . S
C1320 C1327 1.409 . S
C1321 H1313 0.930 . S
C1321 C1319 1.419 . S
C1321 C1322 1.362 . S
C1322 H1314 0.930 . S
C1322 C1321 1.362 . S
C1322 C1325 1.409 . S
C1323 H1315 0.930 . S
C1323 C1324 1.355 . S
C1323 C1325 1.415 . S
C1324 C1323 1.355 . S
C1324 C1326 1.419 . S
C1325 C1320 1.425 . S
C1325 C1322 1.409 . S
C1325 C1323 1.415 . S
C1326 H1316 0.930 . S
C1326 C1324 1.419 . S
C1326 C1327 1.362 . S
C1327 H1317 0.930 . S
C1327 C1320 1.409 . S
C1327 C1326 1.362 . S
H1328 C1334 0.930 . S
H1329 C1337 0.930 . S
H1330 C1338 0.930 . S
H1331 C1339 0.930 . S
H1332 C1342 0.930 . S
H1333 C1343 0.930 . S
C1334 H1328 0.930 . S
C1334 C1335 1.355 . S
C1334 C1336 1.415 . S
C1335 C1334 1.355 . S
C1335 C1337 1.419 . S
C1336 C1334 1.415 . S
C1336 C1341 1.425 . S
C1336 C1343 1.409 . S
C1337 H1329 0.930 . S
C1337 C1335 1.419 . S
C1337 C1338 1.362 . S
C1338 H1330 0.930 . S
C1338 C1337 1.362 . S
C1338 C1341 1.409 . S
C1339 H1331 0.930 . S
C1339 C1340 1.355 . S
C1339 C1341 1.415 . S
C1340 C1339 1.355 . S
C1340 C1342 1.419 . S
C1341 C1336 1.425 . S
C1341 C1338 1.409 . S
C1341 C1339 1.415 . S
C1342 H1332 0.930 . S
C1342 C1340 1.419 . S
C1342 C1343 1.362 . S
C1343 H1333 0.930 . S
C1343 C1336 1.409 . S
C1343 C1342 1.362 . S
H1344 C1350 0.930 . S
H1345 C1353 0.930 . S
H1346 C1354 0.930 . S
H1347 C1355 0.930 . S
H1348 C1358 0.930 . S
H1349 C1359 0.930 . S
C1350 H1344 0.930 . S
C1350 C1351 1.355 . S
C1350 C1352 1.415 . S
C1351 C1350 1.355 . S
C1351 C1353 1.419 1_556 S
C1352 C1350 1.415 . S
C1352 C1357 1.435 . S
C1352 C1359 1.409 . S
C1353 H1345 0.930 . S
C1353 C1351 1.419 1_554 S
C1353 C1354 1.362 . S
C1354 H1346 0.930 . S
C1354 C1353 1.362 . S
C1354 C1357 1.404 1_554 S
C1355 H1347 0.930 . S
C1355 C1356 1.355 1_554 S
C1355 C1357 1.411 1_554 S
C1356 C1355 1.355 1_556 S
C1356 C1358 1.419 . S
C1357 C1352 1.435 . S
C1357 C1354 1.404 1_556 S
C1357 C1355 1.411 1_556 S
C1358 H1348 0.930 . S
C1358 C1356 1.419 . S
C1358 C1359 1.362 . S
C1359 H1349 0.930 . S
C1359 C1352 1.409 . S
C1359 C1358 1.362 . S
H1360 C1366 0.930 . S
H1361 C1369 0.930 . S
H1362 C1370 0.930 . S
H1363 C1371 0.930 . S
H1364 C1374 0.930 . S
H1365 C1375 0.930 . S
C1366 H1360 0.930 . S
C1366 C1367 1.355 . S
C1366 C1368 1.415 . S
C1367 C1366 1.355 . S
C1367 C1369 1.419 1_556 S
C1368 C1366 1.415 . S
C1368 C1373 1.425 1_556 S
C1368 C1375 1.409 . S
C1369 H1361 0.930 . S
C1369 C1367 1.419 1_554 S
C1369 C1370 1.362 . S
C1370 H1362 0.930 . S
C1370 C1369 1.362 . S
C1370 C1373 1.409 . S
C1371 H1363 0.930 . S
C1371 C1372 1.355 1_554 S
C1371 C1373 1.415 . S
C1372 C1371 1.355 1_556 S
C1372 C1374 1.419 . S
C1373 C1368 1.425 1_554 S
C1373 C1370 1.409 . S
C1373 C1371 1.415 . S
C1374 H1364 0.930 . S
C1374 C1372 1.419 . S
C1374 C1375 1.362 . S
C1375 H1365 0.930 . S
C1375 C1368 1.409 . S
C1375 C1374 1.362 . S
H1376 C1382 0.930 . S
H1377 C1385 0.930 . S
H1378 C1386 0.930 . S
H1379 C1387 0.930 1_554 S
H1380 C1390 0.930 . S
H1381 C1391 0.930 . S
C1382 H1376 0.930 . S
C1382 C1383 1.345 1_556 S
C1382 C1384 1.415 . S
C1383 C1382 1.345 1_554 S
C1383 C1385 1.428 . S
C1384 C1382 1.415 . S
C1384 C1389 1.424 1_556 S
C1384 C1391 1.409 . S
C1385 H1377 0.930 . S
C1385 C1383 1.428 . S
C1385 C1386 1.362 . S
C1386 H1378 0.930 . S
C1386 C1385 1.362 . S
C1386 C1389 1.411 . S
C1387 H1379 0.930 1_556 S
C1387 C1388 1.355 . S
C1387 C1389 1.415 1_556 S
C1388 C1387 1.355 . S
C1388 C1390 1.419 . S
C1389 C1384 1.424 1_554 S
C1389 C1386 1.411 . S
C1389 C1387 1.415 1_554 S
C1390 H1380 0.930 . S
C1390 C1388 1.419 . S
C1390 C1391 1.362 . S
C1391 H1381 0.930 . S
C1391 C1384 1.409 . S
C1391 C1390 1.362 . S
H1392 C1398 0.930 . S
H1393 C1401 0.930 . S
H1394 C1402 0.930 . S
H1395 C1403 0.930 . S
H1396 C1406 0.930 . S
H1397 C1407 0.930 . S
C1398 H1392 0.930 . S
C1398 C1399 1.355 1_554 S
C1398 C1400 1.415 . S
C1399 C1398 1.355 1_556 S
C1399 C1401 1.419 . S
C1400 C1398 1.415 . S
C1400 C1405 1.425 1_554 S
C1400 C1407 1.409 . S
C1401 H1393 0.930 . S
C1401 C1399 1.419 . S
C1401 C1402 1.362 . S
C1402 H1394 0.930 . S
C1402 C1401 1.362 . S
C1402 C1405 1.409 . S
C1403 H1395 0.930 . S
C1403 C1404 1.355 . S
C1403 C1405 1.415 . S
C1404 C1403 1.355 . S
C1404 C1406 1.419 1_556 S
C1405 C1400 1.425 1_556 S
C1405 C1402 1.409 . S
C1405 C1403 1.415 . S
C1406 H1396 0.930 . S
C1406 C1404 1.419 1_554 S
C1406 C1407 1.362 . S
C1407 H1397 0.930 . S
C1407 C1400 1.409 . S
C1407 C1406 1.362 . S
C647 C2 2.328 . S
C652 C202 2.348 . S
C663 C242 2.315 . S
C668 C42 2.372 . S
C679 C82 2.386 . S
C684 C282 2.327 . S
C695 C122 2.357 . S
C700 C162 2.370 . S
C711 C543 2.315 . S
C716 C343 2.373 . S
C727 C583 2.317 . S
C732 C383 2.384 . S
C743 C423 2.384 . S
C748 C623 2.317 . S
C759 C463 2.353 . S
C764 C503 2.323 . S
C775 C17 1.913 . S
C780 C144 1.829 . S
C791 C57 1.943 . S
C796 C24 1.860 . S
C807 C97 1.921 . S
C812 C64 1.842 . S
C823 C137 1.942 . S
C828 C104 1.859 . S
C839 C177 1.954 . S
C844 C224 1.806 . S
C855 C264 1.831 . S
C860 C217 1.914 . S
C871 C257 1.938 . S
C876 C304 1.782 . S
C887 C184 1.833 . S
C892 C297 1.915 . S
C903 C453 1.829 . S
C908 C346 1.962 . S
C919 C386 1.925 . S
C924 C333 1.846 . S
C935 C426 1.906 . S
C940 C373 1.773 . S
C951 C466 1.960 . S
C956 C413 1.821 . S
C967 C506 1.949 . S
C972 C533 1.798 . S
C983 C546 1.956 . S
C988 C573 1.811 . S
C999 C586 1.963 . S
C1004 C613 1.833 . S
C1015 C626 1.938 . S
C1020 C493 1.857 . S
C1031 C26 1.434 . S
C1036 C106 1.415 . S
C1047 C66 1.399 . S
C1052 C146 1.371 . S
C1063 C266 1.429 . S
C1068 C186 1.403 . S
C1079 C306 1.376 . S
C1084 C226 1.363 . S
C1095 C417 1.404 . S
C1100 C337 1.375 . S
C1111 C457 1.379 . S
C1116 C377 1.363 . S
C1127 C497 1.366 . S
C1132 C577 1.366 . S
C1143 C537 1.375 . S
C1148 C617 1.362 . S
C1159 C13 2.849 . S
C1164 C442 2.823 . S
C1175 C322 2.818 . S
C1180 C53 2.846 . S
C1191 C93 2.859 . S
C1196 C362 2.835 . S
C1207 C402 2.807 . S
C1212 C133 2.837 . S
C1223 C522 2.805 1_554 S
C1228 C173 2.839 . S
C1239 C213 2.862 . S
C1244 C562 2.839 1_554 S
C1255 C602 2.832 1_554 S
C1260 C253 2.856 . S
C1271 C293 2.843 . S
C1276 C482 2.809 1_554 S
C1287 C344 2.845 . S
C1292 C143 2.817 . S
C1303 C384 2.843 . S
C1308 C23 2.814 . S
C1319 C63 2.834 . S
C1324 C424 2.858 . S
C1335 C464 2.861 . S
C1340 C103 2.838 . S
C1351 C504 2.855 . S
C1356 C223 2.830 1_556 S
C1367 C544 2.862 . S
C1372 C263 2.839 1_556 S
C1383 C303 2.809 . S
C1388 C584 2.837 . S
C1399 C183 2.839 1_556 S
C1404 C624 2.862 . S
