# Generated by pormake.
# Topology uoy, (4)-cn, num edge types: 1
# Building blocks:
#     Node 0, Type 0, BuildingBlock: TATPOV_clean_sbu_0, # of connection points: 4
#     Node 1, Type 0, BuildingBlock: TATPOV_clean_sbu_0, # of connection points: 4
#     Node 2, Type 0, BuildingBlock: TATPOV_clean_sbu_0, # of connection points: 4
#     Node 3, Type 0, BuildingBlock: TATPOV_clean_sbu_0, # of connection points: 4
#     Node 4, Type 0, BuildingBlock: TATPOV_clean_sbu_0, # of connection points: 4
#     Node 5, Type 0, BuildingBlock: TATPOV_clean_sbu_0, # of connection points: 4
#     Node 6, Type 0, BuildingBlock: TATPOV_clean_sbu_0, # of connection points: 4
#     Node 7, Type 0, BuildingBlock: TATPOV_clean_sbu_0, # of connection points: 4
#     Node 8, Type 0, BuildingBlock: TATPOV_clean_sbu_0, # of connection points: 4
#     Node 9, Type 0, BuildingBlock: TATPOV_clean_sbu_0, # of connection points: 4
#     Node 10, Type 0, BuildingBlock: TATPOV_clean_sbu_0, # of connection points: 4
#     Node 11, Type 0, BuildingBlock: TATPOV_clean_sbu_0, # of connection points: 4
#     Node 12, Type 0, BuildingBlock: TATPOV_clean_sbu_0, # of connection points: 4
#     Node 13, Type 0, BuildingBlock: TATPOV_clean_sbu_0, # of connection points: 4
#     Node 14, Type 0, BuildingBlock: TATPOV_clean_sbu_0, # of connection points: 4
#     Node 15, Type 0, BuildingBlock: TATPOV_clean_sbu_0, # of connection points: 4
#     Edge 16, Type (0, 0), BuildingBlock: KIFKEQ_clean_linker_1, # of connection points: 2
#     Edge 17, Type (0, 0), BuildingBlock: KIFKEQ_clean_linker_1, # of connection points: 2
#     Edge 18, Type (0, 0), BuildingBlock: KIFKEQ_clean_linker_1, # of connection points: 2
#     Edge 19, Type (0, 0), BuildingBlock: KIFKEQ_clean_linker_1, # of connection points: 2
#     Edge 20, Type (0, 0), BuildingBlock: KIFKEQ_clean_linker_1, # of connection points: 2
#     Edge 21, Type (0, 0), BuildingBlock: KIFKEQ_clean_linker_1, # of connection points: 2
#     Edge 22, Type (0, 0), BuildingBlock: KIFKEQ_clean_linker_1, # of connection points: 2
#     Edge 23, Type (0, 0), BuildingBlock: KIFKEQ_clean_linker_1, # of connection points: 2
#     Edge 24, Type (0, 0), BuildingBlock: KIFKEQ_clean_linker_1, # of connection points: 2
#     Edge 25, Type (0, 0), BuildingBlock: KIFKEQ_clean_linker_1, # of connection points: 2
#     Edge 26, Type (0, 0), BuildingBlock: KIFKEQ_clean_linker_1, # of connection points: 2
#     Edge 27, Type (0, 0), BuildingBlock: KIFKEQ_clean_linker_1, # of connection points: 2
#     Edge 28, Type (0, 0), BuildingBlock: KIFKEQ_clean_linker_1, # of connection points: 2
#     Edge 29, Type (0, 0), BuildingBlock: KIFKEQ_clean_linker_1, # of connection points: 2
#     Edge 30, Type (0, 0), BuildingBlock: KIFKEQ_clean_linker_1, # of connection points: 2
#     Edge 31, Type (0, 0), BuildingBlock: KIFKEQ_clean_linker_1, # of connection points: 2
#     Edge 32, Type (0, 0), BuildingBlock: KIFKEQ_clean_linker_1, # of connection points: 2
#     Edge 33, Type (0, 0), BuildingBlock: KIFKEQ_clean_linker_1, # of connection points: 2
#     Edge 34, Type (0, 0), BuildingBlock: KIFKEQ_clean_linker_1, # of connection points: 2
#     Edge 35, Type (0, 0), BuildingBlock: KIFKEQ_clean_linker_1, # of connection points: 2
#     Edge 36, Type (0, 0), BuildingBlock: KIFKEQ_clean_linker_1, # of connection points: 2
#     Edge 37, Type (0, 0), BuildingBlock: KIFKEQ_clean_linker_1, # of connection points: 2
#     Edge 38, Type (0, 0), BuildingBlock: KIFKEQ_clean_linker_1, # of connection points: 2
#     Edge 39, Type (0, 0), BuildingBlock: KIFKEQ_clean_linker_1, # of connection points: 2
#     Edge 40, Type (0, 0), BuildingBlock: KIFKEQ_clean_linker_1, # of connection points: 2
#     Edge 41, Type (0, 0), BuildingBlock: KIFKEQ_clean_linker_1, # of connection points: 2
#     Edge 42, Type (0, 0), BuildingBlock: KIFKEQ_clean_linker_1, # of connection points: 2
#     Edge 43, Type (0, 0), BuildingBlock: KIFKEQ_clean_linker_1, # of connection points: 2
#     Edge 44, Type (0, 0), BuildingBlock: KIFKEQ_clean_linker_1, # of connection points: 2
#     Edge 45, Type (0, 0), BuildingBlock: KIFKEQ_clean_linker_1, # of connection points: 2
#     Edge 46, Type (0, 0), BuildingBlock: KIFKEQ_clean_linker_1, # of connection points: 2
#     Edge 47, Type (0, 0), BuildingBlock: KIFKEQ_clean_linker_1, # of connection points: 2
# Relax obj value: 0.090
# Max RMSD: 0.149
# Mean RMSD: 0.149
data_MOF--net-uoy--node1-TATPOV_clean_sbu_0--edge1-KIFKEQ_clean_linker_1
_symmetry_space_group_name_H-M    P1
_symmetry_Int_Tables_number       1
_symmetry_cell_setting            triclinic
loop_
_symmetry_equiv_pos_as_xyz
'x, y, z'
_cell_length_a     27.119182
_cell_length_b     27.138508
_cell_length_c     112.65392
_cell_angle_alpha  89.941178
_cell_angle_beta   90.235637
_cell_angle_gamma 89.876153
loop_
_atom_site_label
_atom_site_type_symbol
_atom_site_fract_x
_atom_site_fract_y
_atom_site_fract_z
_atom_type_partial_charge
Zn0 Zn 0.33378 0.21356 0.16078 0.0
Zn1 Zn 0.26601 0.14037 0.16278 0.0
O2 O 0.25534 0.18593 0.17723 0.0
O3 O 0.3113 0.24435 0.17585 0.0
O4 O 0.20821 0.09313 0.16386 0.0
O5 O 0.30277 0.23531 0.14542 0.0
O6 O 0.253 0.1713 0.14649 0.0
C7 C 0.27561 0.22485 0.18128 0.0
C8 C 0.37567 0.11434 0.16265 0.0
O9 O 0.33092 0.09995 0.16333 0.0
O10 O 0.38548 0.15973 0.16144 0.0
C11 C 0.19102 0.07563 0.17348 0.0
O12 O 0.21414 0.08452 0.18352 0.0
C13 C 0.26876 0.20913 0.14104 0.0
Zn14 Zn 0.80461 0.83066 0.40944 0.0
Zn15 Zn 0.87716 0.76236 0.41108 0.0
O16 O 0.83971 0.758 0.4269 0.0
O17 O 0.78216 0.81526 0.4259 0.0
O18 O 0.92574 0.70525 0.41194 0.0
O19 O 0.77445 0.79496 0.39568 0.0
O20 O 0.83761 0.74396 0.39618 0.0
C21 C 0.80366 0.78106 0.43155 0.0
C22 C 0.90363 0.87105 0.40753 0.0
O23 O 0.91766 0.82668 0.40935 0.0
O24 O 0.85806 0.88124 0.40688 0.0
C25 C 0.90954 0.66418 0.41576 0.0
O26 O 0.86364 0.66158 0.41939 0.0
C27 C 0.7976 0.75865 0.39139 0.0
Zn28 Zn 0.17747 0.31326 0.65849 0.0
Zn29 Zn 0.24576 0.38535 0.66198 0.0
O30 O 0.25003 0.34003 0.67652 0.0
O31 O 0.19257 0.28343 0.67442 0.0
O32 O 0.30256 0.43263 0.66474 0.0
O33 O 0.2156 0.29039 0.64425 0.0
O34 O 0.26618 0.35316 0.64635 0.0
C35 C 0.22747 0.30216 0.68036 0.0
C36 C 0.137 0.41306 0.6588 0.0
O37 O 0.18127 0.42629 0.66104 0.0
O38 O 0.12704 0.36799 0.6571 0.0
C39 C 0.3434 0.41242 0.66756 0.0
O40 O 0.3452 0.36424 0.66865 0.0
C41 C 0.25218 0.31513 0.64067 0.0
Zn42 Zn 0.71609 0.68871 0.90982 0.0
Zn43 Zn 0.64295 0.75579 0.91198 0.0
O44 O 0.68662 0.7645 0.92683 0.0
O45 O 0.74279 0.70593 0.92582 0.0
O46 O 0.59557 0.81352 0.91304 0.0
O47 O 0.74243 0.72424 0.89556 0.0
O48 O 0.67597 0.77103 0.8961 0.0
C49 C 0.72374 0.742 0.93123 0.0
C50 C 0.6167 0.64697 0.90982 0.0
O51 O 0.60252 0.69116 0.91178 0.0
O52 O 0.66206 0.63764 0.90827 0.0
C53 C 0.57892 0.83159 0.92265 0.0
O54 O 0.58859 0.80928 0.93275 0.0
C55 C 0.71582 0.75782 0.8911 0.0
Zn56 Zn 0.32941 0.30729 0.03745 0.0
Zn57 Zn 0.26353 0.38352 0.03674 0.0
O58 O 0.25128 0.34277 0.02161 0.0
O59 O 0.30215 0.27947 0.02239 0.0
O60 O 0.20666 0.43208 0.03639 0.0
O61 O 0.3003 0.28401 0.05283 0.0
O62 O 0.25104 0.34878 0.05257 0.0
C63 C 0.26802 0.30295 0.01718 0.0
C64 C 0.37326 0.40652 0.03671 0.0
O65 O 0.32882 0.42219 0.03666 0.0
O66 O 0.38218 0.3606 0.03696 0.0
C67 C 0.19014 0.45237 0.027 0.0
O68 O 0.21372 0.44589 0.01695 0.0
C69 C 0.26689 0.30979 0.05758 0.0
Zn70 Zn 0.71031 0.83747 0.28917 0.0
Zn71 Zn 0.63826 0.76877 0.28699 0.0
O72 O 0.68282 0.75946 0.27237 0.0
O73 O 0.74106 0.81555 0.27402 0.0
O74 O 0.59107 0.71099 0.2858 0.0
O75 O 0.7325 0.80644 0.30447 0.0
O76 O 0.67164 0.7533 0.30288 0.0
C77 C 0.72163 0.78015 0.26842 0.0
C78 C 0.6112 0.8786 0.28764 0.0
O79 O 0.59724 0.83369 0.28698 0.0
O80 O 0.65658 0.88889 0.28864 0.0
C81 C 0.57298 0.69408 0.2762 0.0
O82 O 0.5811 0.71753 0.26619 0.0
C83 C 0.70869 0.77013 0.30852 0.0
Zn84 Zn 0.20461 0.22234 0.53983 0.0
Zn85 Zn 0.27265 0.15033 0.53845 0.0
O86 O 0.27832 0.1883 0.5227 0.0
O87 O 0.22051 0.24527 0.52344 0.0
O88 O 0.33103 0.10355 0.53785 0.0
O89 O 0.23901 0.25277 0.55374 0.0
O90 O 0.2896 0.18933 0.55354 0.0
C91 C 0.25519 0.2242 0.51794 0.0
C92 C 0.16414 0.12313 0.54151 0.0
O93 O 0.20855 0.10902 0.53979 0.0
O94 O 0.15413 0.16868 0.5422 0.0
C95 C 0.34665 0.08241 0.52851 0.0
O96 O 0.32136 0.08679 0.51859 0.0
C97 C 0.27478 0.22929 0.55826 0.0
Zn98 Zn 0.80601 0.68806 0.78906 0.0
Zn99 Zn 0.88315 0.75184 0.78672 0.0
O100 O 0.83899 0.76333 0.77214 0.0
O101 O 0.77667 0.71187 0.77373 0.0
O102 O 0.93247 0.80743 0.78556 0.0
O103 O 0.78537 0.7221 0.80406 0.0
O104 O 0.85249 0.76751 0.80283 0.0
C105 C 0.7987 0.74572 0.76815 0.0
C106 C 0.90447 0.64195 0.78784 0.0
O107 O 0.92055 0.68579 0.7865 0.0
O108 O 0.8587 0.63434 0.78925 0.0
C109 C 0.94927 0.82506 0.77593 0.0
O110 O 0.9387 0.80315 0.76584 0.0
C111 C 0.81357 0.75479 0.80827 0.0
Zn112 Zn 0.80022 0.7463 0.66135 0.0
Zn113 Zn 0.73701 0.66857 0.66324 0.0
O114 O 0.72872 0.70738 0.67867 0.0
O115 O 0.77804 0.77144 0.67724 0.0
O116 O 0.68231 0.61806 0.6638 0.0
O117 O 0.76574 0.76955 0.64653 0.0
O118 O 0.71874 0.70386 0.64784 0.0
C119 C 0.7466 0.74685 0.68301 0.0
C120 C 0.84702 0.64827 0.66113 0.0
O121 O 0.80328 0.63177 0.66238 0.0
O122 O 0.85447 0.69432 0.66037 0.0
C123 C 0.66454 0.59908 0.67317 0.0
O124 O 0.68518 0.60878 0.68348 0.0
C125 C 0.73157 0.74282 0.6424 0.0
Zn126 Zn 0.28313 0.31246 0.90987 0.0
Zn127 Zn 0.35948 0.24779 0.91285 0.0
O128 O 0.31788 0.24155 0.92792 0.0
O129 O 0.25502 0.29221 0.92562 0.0
O130 O 0.40815 0.19117 0.91409 0.0
O131 O 0.26123 0.27771 0.89502 0.0
O132 O 0.32594 0.22954 0.89721 0.0
C133 C 0.2781 0.26064 0.93179 0.0
C134 C 0.38213 0.35709 0.91045 0.0
O135 O 0.39788 0.31319 0.91209 0.0
O136 O 0.33631 0.36522 0.90916 0.0
C137 C 0.42436 0.17193 0.92364 0.0
O138 O 0.41352 0.19246 0.93386 0.0
C139 C 0.288 0.24275 0.89133 0.0
Zn140 Zn 0.70871 0.77968 0.16171 0.0
Zn141 Zn 0.77542 0.85367 0.16452 0.0
O142 O 0.78252 0.81001 0.1794 0.0
O143 O 0.7297 0.74918 0.17706 0.0
O144 O 0.8329 0.90131 0.16573 0.0
O145 O 0.74072 0.75888 0.14646 0.0
O146 O 0.79143 0.82139 0.14864 0.0
C147 C 0.76257 0.7705 0.18317 0.0
C148 C 0.6658 0.8788 0.16315 0.0
O149 O 0.71032 0.89368 0.16414 0.0
O150 O 0.65657 0.83326 0.162 0.0
C151 C 0.85336 0.9159 0.17529 0.0
O152 O 0.83405 0.90353 0.18554 0.0
C153 C 0.77615 0.78467 0.14268 0.0
Zn154 Zn 0.24027 0.20035 0.40824 0.0
Zn155 Zn 0.16544 0.26634 0.41203 0.0
O156 O 0.20772 0.26847 0.42714 0.0
O157 O 0.26668 0.21346 0.4246 0.0
O158 O 0.1154 0.32118 0.41476 0.0
O159 O 0.26393 0.24054 0.39436 0.0
O160 O 0.19998 0.28932 0.39691 0.0
C161 C 0.24572 0.24564 0.43096 0.0
C162 C 0.14146 0.15765 0.40756 0.0
O163 O 0.12691 0.20117 0.4101 0.0
O164 O 0.18695 0.1489 0.40604 0.0
C165 C 0.09615 0.34418 0.40603 0.0
O166 O 0.10527 0.32891 0.3952 0.0
C167 C 0.23827 0.27719 0.39111 0.0
Zn168 Zn 0.83021 0.79041 0.5411 0.0
Zn169 Zn 0.76498 0.86623 0.53746 0.0
O170 O 0.76068 0.82458 0.52236 0.0
O171 O 0.81487 0.7647 0.52477 0.0
O172 O 0.70895 0.9156 0.53593 0.0
O173 O 0.79106 0.76696 0.55517 0.0
O174 O 0.7435 0.83187 0.55264 0.0
C175 C 0.7826 0.78629 0.51849 0.0
C176 C 0.87419 0.889 0.54144 0.0
O177 O 0.83066 0.90429 0.53903 0.0
O178 O 0.88229 0.8434 0.54301 0.0
C179 C 0.68689 0.92751 0.52635 0.0
O180 O 0.70399 0.9114 0.51617 0.0
C181 C 0.75517 0.79341 0.55847 0.0
Zn182 Zn 0.23856 0.30866 0.78814 0.0
Zn183 Zn 0.16449 0.24223 0.78547 0.0
O184 O 0.20519 0.23659 0.77027 0.0
O185 O 0.26471 0.29117 0.77204 0.0
O186 O 0.11727 0.18478 0.78435 0.0
O187 O 0.2637 0.27355 0.80269 0.0
O188 O 0.19941 0.2248 0.80101 0.0
C189 C 0.24302 0.25811 0.76608 0.0
C190 C 0.13863 0.35081 0.78813 0.0
O191 O 0.12413 0.30671 0.78627 0.0
O192 O 0.18417 0.3599 0.78949 0.0
C193 C 0.10138 0.1655 0.77479 0.0
O194 O 0.1116 0.1865 0.76458 0.0
C195 C 0.23785 0.23841 0.80661 0.0
Zn196 Zn 0.70378 0.74218 0.03849 0.0
Zn197 Zn 0.77133 0.66831 0.03593 0.0
O198 O 0.77775 0.71131 0.021 0.0
O199 O 0.72422 0.77187 0.02301 0.0
O200 O 0.82919 0.62107 0.03484 0.0
O201 O 0.73627 0.7638 0.05371 0.0
O202 O 0.78754 0.7015 0.05169 0.0
C203 C 0.75736 0.75044 0.01706 0.0
C204 C 0.6622 0.64239 0.03729 0.0
O205 O 0.70685 0.62781 0.03636 0.0
O206 O 0.65247 0.68792 0.03834 0.0
C207 C 0.84984 0.60719 0.02529 0.0
O208 O 0.83032 0.61987 0.01504 0.0
C209 C 0.77215 0.73842 0.05755 0.0
Zn210 Zn 0.27718 0.21316 0.28849 0.0
Zn211 Zn 0.35195 0.2788 0.28523 0.0
O212 O 0.308 0.2849 0.27035 0.0
O213 O 0.24703 0.23246 0.27294 0.0
O214 O 0.40036 0.33549 0.28377 0.0
O215 O 0.25687 0.24776 0.30349 0.0
O216 O 0.32006 0.29726 0.30097 0.0
C217 C 0.26837 0.26468 0.26668 0.0
C218 C 0.37587 0.16904 0.28732 0.0
O219 O 0.39113 0.21323 0.28598 0.0
O220 O 0.33025 0.16043 0.2886 0.0
C221 C 0.41356 0.35646 0.27419 0.0
O222 O 0.39926 0.33803 0.26396 0.0
C223 C 0.28314 0.28337 0.30702 0.0
H224 H 0.2619 0.36845 0.07686 0.0
H225 H 0.23347 0.22061 0.06474 0.0
H226 H 0.24897 0.3427 0.09722 0.0
H227 H 0.21532 0.19505 0.085 0.0
H228 H 0.27273 0.15053 0.1218 0.0
H229 H 0.25895 0.1748 0.10134 0.0
H230 H 0.2065 0.31741 0.11324 0.0
H231 H 0.22545 0.29385 0.13366 0.0
C232 C 0.25102 0.33073 0.0786 0.0
C233 C 0.24926 0.29624 0.06939 0.0
C234 C 0.2431 0.3158 0.09028 0.0
C235 C 0.23173 0.2663 0.09293 0.0
C236 C 0.22575 0.23297 0.08345 0.0
C237 C 0.23554 0.24757 0.07182 0.0
C238 C 0.25751 0.18671 0.11996 0.0
C239 C 0.25054 0.22062 0.12914 0.0
C240 C 0.24911 0.20074 0.10822 0.0
C241 C 0.23214 0.24861 0.10547 0.0
C242 C 0.22119 0.28092 0.11489 0.0
C243 C 0.23139 0.2674 0.1266 0.0
H244 H 0.85103 0.70385 0.37565 0.0
H245 H 0.70628 0.76606 0.38146 0.0
H246 H 0.82879 0.68678 0.35502 0.0
H247 H 0.68429 0.7491 0.36094 0.0
H248 H 0.65252 0.71387 0.3234 0.0
H249 H 0.67275 0.69004 0.34381 0.0
H250 H 0.8172 0.75476 0.33995 0.0
H251 H 0.79715 0.77855 0.31971 0.0
C252 C 0.81402 0.71247 0.37264 0.0
C253 C 0.78075 0.73737 0.38005 0.0
C254 C 0.80137 0.70274 0.36084 0.0
C255 C 0.75511 0.71723 0.35637 0.0
C256 C 0.72013 0.73732 0.36415 0.0
C257 C 0.73292 0.74749 0.37588 0.0
C258 C 0.68894 0.72198 0.32685 0.0
C259 C 0.72296 0.7489 0.32007 0.0
C260 C 0.70048 0.70829 0.3385 0.0
C261 C 0.74644 0.72065 0.34344 0.0
C262 C 0.78169 0.74421 0.33634 0.0
C263 C 0.76997 0.75842 0.32479 0.0
H264 H 0.26647 0.32012 0.56824 0.0
H265 H 0.32869 0.17542 0.57423 0.0
H266 H 0.28181 0.34131 0.58886 0.0
H267 H 0.34428 0.1969 0.59497 0.0
H268 H 0.2485 0.2263 0.62963 0.0
H269 H 0.27583 0.20703 0.60967 0.0
H270 H 0.33815 0.35276 0.60638 0.0
H271 H 0.31061 0.37225 0.6265 0.0
C272 C 0.28472 0.29333 0.57389 0.0
C273 C 0.29524 0.24571 0.56972 0.0
C274 C 0.29401 0.30567 0.58568 0.0
C275 C 0.31363 0.27047 0.59354 0.0
C276 C 0.32864 0.22448 0.5891 0.0
C277 C 0.31975 0.21226 0.57724 0.0
C278 C 0.26894 0.25391 0.62475 0.0
C279 C 0.2765 0.3011 0.6295 0.0
C280 C 0.28518 0.24266 0.61337 0.0
C281 C 0.30891 0.27853 0.60646 0.0
C282 C 0.31972 0.32457 0.61152 0.0
C283 C 0.30392 0.33568 0.62301 0.0
H284 H 0.7302 0.80125 0.81533 0.0
H285 H 0.873 0.75231 0.82747 0.0
H286 H 0.70774 0.82302 0.8356 0.0
H287 H 0.8497 0.76885 0.84781 0.0
H288 H 0.80484 0.79277 0.88421 0.0
H289 H 0.8301 0.81282 0.86404 0.0
H290 H 0.6818 0.78157 0.85169 0.0
H291 H 0.65641 0.76677 0.87196 0.0
C292 C 0.75679 0.79557 0.82241 0.0
C293 C 0.80302 0.77496 0.82001 0.0
C294 C 0.7439 0.80743 0.83404 0.0
C295 C 0.77621 0.79664 0.84353 0.0
C296 C 0.82373 0.77855 0.84088 0.0
C297 C 0.83719 0.76852 0.8292 0.0
C298 C 0.77765 0.79179 0.87714 0.0
C299 C 0.72896 0.77793 0.87949 0.0
C300 C 0.79208 0.80267 0.86555 0.0
C301 C 0.75855 0.79756 0.85604 0.0
C302 C 0.70891 0.78666 0.85865 0.0
C303 C 0.69417 0.77768 0.87029 0.0
H304 H 0.76101 0.70897 0.57154 0.0
H305 H 0.69251 0.85299 0.57087 0.0
H306 H 0.73332 0.69734 0.59184 0.0
H307 H 0.66481 0.84115 0.59126 0.0
H308 H 0.6794 0.68098 0.62797 0.0
H309 H 0.66403 0.69214 0.60677 0.0
H310 H 0.72288 0.83966 0.60886 0.0
H311 H 0.73829 0.82867 0.62997 0.0
C312 C 0.73901 0.73763 0.57563 0.0
C313 C 0.72993 0.78233 0.56972 0.0
C314 C 0.72266 0.73074 0.58722 0.0
C315 C 0.69729 0.76858 0.59313 0.0
C316 C 0.68461 0.81161 0.5869 0.0
C317 C 0.70055 0.81832 0.57525 0.0
C318 C 0.68766 0.71632 0.62397 0.0
C319 C 0.71117 0.75358 0.63054 0.0
C320 C 0.67886 0.72262 0.61185 0.0
C321 C 0.69284 0.76647 0.60618 0.0
C322 C 0.71149 0.80553 0.61301 0.0
C323 C 0.72077 0.79907 0.62509 0.0
H324 H 0.35022 0.18715 0.8778 0.0
H325 H 0.20332 0.24927 0.87833 0.0
H326 H 0.33938 0.16584 0.85689 0.0
H327 H 0.19264 0.22792 0.85752 0.0
H328 H 0.17807 0.18172 0.82048 0.0
H329 H 0.19003 0.16272 0.84148 0.0
H330 H 0.33473 0.22865 0.84028 0.0
H331 H 0.32297 0.24768 0.81936 0.0
C332 C 0.31518 0.19506 0.87355 0.0
C333 C 0.27795 0.22081 0.87961 0.0
C334 C 0.30906 0.18285 0.8616 0.0
C335 C 0.26539 0.19559 0.8556 0.0
C336 C 0.22657 0.21729 0.86196 0.0
C337 C 0.23287 0.22999 0.87384 0.0
C338 C 0.21298 0.19092 0.82462 0.0
C339 C 0.2492 0.21718 0.81836 0.0
C340 C 0.21973 0.18003 0.83663 0.0
C341 C 0.26303 0.19467 0.8425 0.0
C342 C 0.30109 0.21664 0.83595 0.0
C343 C 0.29416 0.22798 0.82399 0.0
H344 H 0.82983 0.67815 0.07122 0.0
H345 H 0.76097 0.82199 0.07067 0.0
H346 H 0.85004 0.68905 0.0922 0.0
H347 H 0.78137 0.83275 0.09156 0.0
H348 H 0.76742 0.70071 0.12964 0.0
H349 H 0.78567 0.69081 0.10865 0.0
H350 H 0.84768 0.83719 0.10769 0.0
H351 H 0.82964 0.8472 0.12879 0.0
C352 C 0.82016 0.71258 0.07548 0.0
C353 C 0.79292 0.74885 0.06939 0.0
C354 C 0.83176 0.71874 0.08747 0.0
C355 C 0.81694 0.76152 0.09348 0.0
C356 C 0.79358 0.79954 0.08711 0.0
C357 C 0.78146 0.79317 0.07518 0.0
C358 C 0.78605 0.73032 0.12503 0.0
C359 C 0.79624 0.77505 0.13077 0.0
C360 C 0.79695 0.72447 0.11304 0.0
C361 C 0.81773 0.76343 0.10656 0.0
C362 C 0.83139 0.80677 0.11251 0.0
C363 C 0.82108 0.8124 0.12456 0.0
H364 H 0.17842 0.33839 0.3782 0.0
H365 H 0.32313 0.27125 0.37832 0.0
H366 H 0.18924 0.36168 0.35745 0.0
H367 H 0.33381 0.29464 0.35766 0.0
H368 H 0.34618 0.33876 0.32044 0.0
H369 H 0.33695 0.3594 0.34142 0.0
H370 H 0.19021 0.29785 0.34102 0.0
H371 H 0.19933 0.27709 0.32016 0.0
C372 C 0.21309 0.32991 0.37392 0.0
C373 C 0.24944 0.30184 0.37977 0.0
C374 C 0.21922 0.3433 0.36205 0.0
C375 C 0.26203 0.3294 0.35594 0.0
C376 C 0.30049 0.30606 0.36217 0.0
C377 C 0.29417 0.29221 0.37398 0.0
C378 C 0.31144 0.3309 0.32476 0.0
C379 C 0.27383 0.30532 0.31876 0.0
C380 C 0.30623 0.34276 0.33674 0.0
C381 C 0.26308 0.32987 0.34284 0.0
C382 C 0.22375 0.3086 0.33653 0.0
C383 C 0.22917 0.2962 0.3246 0.0
H384 H 0.32807 0.28723 0.19521 0.0
H385 H 0.19022 0.208 0.19358 0.0
H386 H 0.31215 0.30918 0.21554 0.0
H387 H 0.17214 0.23301 0.2139 0.0
H388 H 0.21056 0.2046 0.25338 0.0
H389 H 0.19957 0.20713 0.23214 0.0
H390 H 0.27362 0.34824 0.23092 0.0
H391 H 0.28792 0.34346 0.25227 0.0
C392 C 0.2935 0.27572 0.19911 0.0
C393 C 0.26089 0.24496 0.19289 0.0
C394 C 0.28396 0.28889 0.21081 0.0
C395 C 0.24101 0.27246 0.21654 0.0
C396 C 0.20628 0.24521 0.20993 0.0
C397 C 0.21644 0.23102 0.19826 0.0
C398 C 0.22363 0.2367 0.24862 0.0
C399 C 0.25126 0.27321 0.25442 0.0
C400 C 0.21692 0.23844 0.23637 0.0
C401 C 0.23677 0.27734 0.22966 0.0
C402 C 0.25943 0.31675 0.23571 0.0
C403 C 0.26733 0.31431 0.24796 0.0
H404 H 0.82562 0.69969 0.44498 0.0
H405 H 0.74863 0.83918 0.44596 0.0
H406 H 0.80846 0.68757 0.46603 0.0
H407 H 0.73399 0.82875 0.46694 0.0
H408 H 0.70294 0.80522 0.50428 0.0
H409 H 0.69656 0.79082 0.48297 0.0
H410 H 0.83987 0.72033 0.48355 0.0
H411 H 0.8445 0.73195 0.50482 0.0
C412 C 0.80482 0.72759 0.44969 0.0
C413 C 0.78901 0.77064 0.44388 0.0
C414 C 0.79512 0.72079 0.46175 0.0
C415 C 0.77028 0.75739 0.46827 0.0
C416 C 0.75245 0.79926 0.46225 0.0
C417 C 0.76133 0.80557 0.45019 0.0
C418 C 0.73243 0.7856 0.49985 0.0
C419 C 0.77455 0.77041 0.50614 0.0
C420 C 0.72899 0.7776 0.48763 0.0
C421 C 0.7682 0.75541 0.48145 0.0
C422 C 0.80868 0.73713 0.48795 0.0
C423 C 0.81158 0.74415 0.50018 0.0
H424 H 0.31451 0.3111 0.69238 0.0
H425 H 0.16924 0.24703 0.69473 0.0
H426 H 0.33207 0.28507 0.71268 0.0
H427 H 0.18523 0.22375 0.71514 0.0
H428 H 0.21569 0.18209 0.75155 0.0
H429 H 0.22441 0.17886 0.73004 0.0
H430 H 0.30791 0.31453 0.73104 0.0
H431 H 0.30168 0.31592 0.75241 0.0
C432 C 0.28645 0.29124 0.69724 0.0
C433 C 0.24025 0.28174 0.69208 0.0
C434 C 0.29639 0.27643 0.70888 0.0
C435 C 0.25987 0.25293 0.71567 0.0
C436 C 0.21466 0.24106 0.71021 0.0
C437 C 0.20517 0.25492 0.6985 0.0
C438 C 0.23708 0.21037 0.74716 0.0
C439 C 0.25713 0.24979 0.75362 0.0
C440 C 0.2418 0.20876 0.73482 0.0
C441 C 0.26574 0.24711 0.72872 0.0
C442 C 0.28945 0.2841 0.73535 0.0
C443 C 0.28555 0.28515 0.74767 0.0
H444 H 0.6995 0.80944 0.00335 0.0
H445 H 0.83634 0.72767 0.00303 0.0
H446 H 0.7034 0.81894 -0.01792 0.0
H447 H 0.84231 0.74008 -0.01835 0.0
H448 H 0.78094 0.68603 0.94577 0.0
H449 H 0.80152 0.70145 0.96628 0.0
H450 H 0.73253 0.84518 0.96395 0.0
H451 H 0.70907 0.82796 0.94344 0.0
C452 C 0.73146 0.79502 -0.00124 0.0
C453 C 0.76696 0.76667 0.0048 0.0
C454 C 0.73398 0.80084 -0.0135 0.0
C455 C 0.77262 0.77925 -0.01998 0.0
C456 C 0.81109 0.75572 -0.01371 0.0
C457 C 0.80794 0.74888 -0.00145 0.0
C458 C 0.77073 0.72124 0.94957 0.0
C459 C 0.74252 0.75538 0.94308 0.0
C460 C 0.78311 0.73045 0.96136 0.0
C461 C 0.76836 0.77449 0.9669 0.0
C462 C 0.74344 0.81034 0.96008 0.0
C463 C 0.73012 0.80061 0.94832 0.0
H464 H 0.27746 0.2112 0.00766 0.0
H465 H 0.22118 0.35698 9e-05 0.0
H466 H 0.2646 0.18786 -0.01299 0.0
H467 H 0.21025 0.3345 -0.02061 0.0
H468 H 0.19232 0.28959 0.94243 0.0
H469 H 0.17432 0.28825 0.9636 0.0
H470 H 0.31099 0.21013 0.97006 0.0
H471 H 0.32795 0.20993 0.94898 0.0
C472 C 0.26167 0.23803 0.00161 0.0
C473 C 0.25127 0.28622 0.0054 0.0
C474 C 0.25444 0.2247 -0.01022 0.0
C475 C 0.23738 0.25955 -0.01852 0.0
C476 C 0.22313 0.30652 -0.01448 0.0
C477 C 0.22973 0.31963 -0.0026 0.0
C478 C 0.21788 0.27106 0.94836 0.0
C479 C 0.2621 0.25079 0.94407 0.0
C480 C 0.20764 0.27048 0.96049 0.0
C481 C 0.2416 0.24995 0.96856 0.0
C482 C 0.28373 0.22599 0.96412 0.0
C483 C 0.29373 0.22619 0.952 0.0
H484 H 0.70776 0.69383 0.25629 0.0
H485 H 0.78169 0.83441 0.2544 0.0
H486 H 0.73389 0.67545 0.23607 0.0
H487 H 0.80471 0.81809 0.23414 0.0
H488 H 0.84087 0.7929 0.1976 0.0
H489 H 0.84581 0.77984 0.21898 0.0
H490 H 0.70742 0.70071 0.21771 0.0
H491 H 0.70477 0.71059 0.19646 0.0
C492 C 0.72981 0.72063 0.25156 0.0
C493 C 0.74201 0.76585 0.25682 0.0
C494 C 0.74466 0.71028 0.23996 0.0
C495 C 0.77079 0.74555 0.2333 0.0
C496 C 0.78538 0.78948 0.23892 0.0
C497 C 0.77159 0.79924 0.25056 0.0
C498 C 0.81241 0.77145 0.2019 0.0
C499 C 0.7719 0.75374 0.19542 0.0
C500 C 0.81494 0.76426 0.21417 0.0
C501 C 0.7762 0.7406 0.22021 0.0
C502 C 0.73817 0.71895 0.21349 0.0
C503 C 0.73636 0.72502 0.20122 0.0
H504 H 0.23041 0.32572 0.44513 0.0
H505 H 0.29786 0.18143 0.44464 0.0
H506 H 0.24644 0.33163 0.46639 0.0
H507 H 0.31102 0.18566 0.46589 0.0
H508 H 0.33508 0.19934 0.50436 0.0
H509 H 0.34642 0.2159 0.48325 0.0
H510 H 0.20828 0.29606 0.48261 0.0
H511 H 0.1987 0.28199 0.50363 0.0
C512 C 0.24904 0.29548 0.44957 0.0
C513 C 0.26219 0.25283 0.4433 0.0
C514 C 0.258 0.29866 0.46176 0.0
C515 C 0.27905 0.25868 0.46795 0.0
C516 C 0.29519 0.21745 0.46147 0.0
C517 C 0.28726 0.21479 0.44926 0.0
C518 C 0.30775 0.22132 0.49971 0.0
C519 C 0.26572 0.23884 0.5056 0.0
C520 C 0.31408 0.23064 0.4876 0.0
C521 C 0.27801 0.25685 0.48114 0.0
C522 C 0.23735 0.27646 0.48725 0.0
C523 C 0.23152 0.26792 0.49934 0.0
H524 H 0.77024 0.83248 0.69444 0.0
H525 H 0.69963 0.69155 0.6997 0.0
H526 H 0.76984 0.84647 0.7158 0.0
H527 H 0.70095 0.70452 0.72096 0.0
H528 H 0.8472 0.79712 0.751 0.0
H529 H 0.82077 0.80999 0.73063 0.0
H530 H 0.67912 0.74551 0.73874 0.0
H531 H 0.70653 0.73079 0.75906 0.0
C532 C 0.75382 0.80489 0.70014 0.0
C533 C 0.73603 0.76038 0.69543 0.0
C534 C 0.75379 0.81282 0.71237 0.0
C535 C 0.73643 0.77618 0.72012 0.0
C536 C 0.71442 0.73374 0.71529 0.0
C537 C 0.71397 0.72607 0.70306 0.0
C538 C 0.8101 0.78655 0.7485 0.0
C539 C 0.77938 0.76189 0.75653 0.0
C540 C 0.79467 0.79434 0.73682 0.0
C541 C 0.74797 0.77815 0.73299 0.0
C542 C 0.7157 0.75738 0.74134 0.0
C543 C 0.73138 0.74903 0.75298 0.0
H544 H 0.14914 0.02241 0.19147 0.0
H545 H 0.12283 0.07192 0.15556 0.0
H546 H 0.06788 0.98422 0.19179 0.0
H547 H 0.0409 0.03591 0.15602 0.0
H548 H 0.9144 0.92646 0.1562 0.0
H549 H 0.99622 0.96267 0.15574 0.0
H550 H 0.98309 1.0014 0.19281 0.0
H551 H 0.90197 0.96296 0.19337 0.0
C552 C 0.12597 0.02521 0.18365 0.0
C553 C 0.14264 0.05008 0.17348 0.0
C554 C 0.07906 1.00371 0.18386 0.0
C555 C 0.0473 1.00706 0.17395 0.0
C556 C 0.06432 0.03171 0.16376 0.0
C557 C 0.11142 0.05262 0.1635 0.0
C558 C 0.92881 0.94297 0.16425 0.0
C559 C 0.90153 0.94178 0.17483 0.0
C560 C 0.97585 0.96401 0.16397 0.0
C561 C 0.99674 0.98506 0.17424 0.0
C562 C 0.96889 0.98473 0.18478 0.0
C563 C 0.92204 0.9631 0.18508 0.0
H564 H 0.06232 0.38269 0.42702 0.0
H565 H 0.06709 0.41106 0.38929 0.0
H566 H 0.01968 0.46126 0.43001 0.0
H567 H 0.02475 0.48932 0.39231 0.0
H568 H 0.99602 0.64889 0.40373 0.0
H569 H 0.04194 0.57157 0.40183 0.0
H570 H 0.93756 0.49951 0.42485 0.0
H571 H 0.89168 0.57649 0.42675 0.0
C572 C 0.05412 0.40552 0.41937 0.0
C573 C 0.06802 0.39048 0.40792 0.0
C574 C 0.02967 0.45048 0.42108 0.0
C575 C 0.01919 0.48163 0.4114 0.0
C576 C 0.03293 0.46647 0.39996 0.0
C577 C 0.0568 0.42135 0.39823 0.0
C578 C 0.98318 0.61668 0.40848 0.0
C579 C 0.94009 0.61881 0.41535 0.0
C580 C 1.00926 0.57234 0.40733 0.0
C581 C 0.99319 0.52939 0.41314 0.0
C582 C 0.95105 0.532 0.42032 0.0
C583 C 0.92465 0.5761 0.42136 0.0
H584 H 0.42933 0.38261 0.6779 0.0
H585 H 0.36096 0.50797 0.66077 0.0
H586 H 0.5065 0.42798 0.67954 0.0
H587 H 0.43863 0.55345 0.66241 0.0
H588 H 0.60245 0.58895 0.65415 0.0
H589 H 0.52372 0.54575 0.65337 0.0
H590 H 0.5419 0.50198 0.68998 0.0
H591 H 0.62077 0.54535 0.69082 0.0
C592 C 0.43068 0.41999 0.67453 0.0
C593 C 0.38903 0.44165 0.66916 0.0
C594 C 0.47488 0.44603 0.67554 0.0
C595 C 0.47868 0.49418 0.67107 0.0
C596 C 0.43688 0.51619 0.66583 0.0
C597 C 0.39237 0.4903 0.66496 0.0
C598 C 0.58986 0.56994 0.66203 0.0
C599 C 0.61803 0.5705 0.67255 0.0
C600 C 0.5445 0.54558 0.6616 0.0
C601 C 0.52651 0.52073 0.67163 0.0
C602 C 0.55495 0.52065 0.68209 0.0
C603 C 0.60008 0.54552 0.68257 0.0
H604 H 0.43195 0.10899 0.90482 0.0
H605 H 0.47333 0.12454 0.94168 0.0
H606 H 0.46689 0.02654 0.90457 0.0
H607 H 0.51049 0.04266 0.94133 0.0
H608 H 0.52815 0.87606 0.94069 0.0
H609 H 0.49138 0.95812 0.94082 0.0
H610 H 0.53966 0.98066 0.90469 0.0
H611 H 0.57422 0.89802 0.90443 0.0
C612 C 0.4493 0.09513 0.91284 0.0
C613 C 0.44982 0.12346 0.92328 0.0
C614 C 0.46958 0.04771 0.91269 0.0
C615 C 0.49158 0.02749 0.92294 0.0
C616 C 0.49304 0.05639 0.93332 0.0
C617 C 0.47217 0.10365 0.9335 0.0
C618 C 0.53047 0.89843 0.93275 0.0
C619 C 0.55397 0.88034 0.92254 0.0
C620 C 0.50981 0.94578 0.93285 0.0
C621 C 0.51266 0.97651 0.92279 0.0
C622 C 0.53589 0.95805 0.91255 0.0
C623 C 0.55595 0.91054 0.91241 0.0
H624 H 0.14824 0.50863 0.00944 0.0
H625 H 0.12171 0.45279 0.04475 0.0
H626 H 0.06632 0.54578 0.00919 0.0
H627 H 0.03921 0.4879 0.04433 0.0
H628 H 0.91053 0.59551 0.04453 0.0
H629 H 0.99319 0.56081 0.04504 0.0
H630 H 0.98189 0.52618 0.00767 0.0
H631 H 0.89985 0.56299 0.00708 0.0
C632 C 0.12492 0.50428 0.01715 0.0
C633 C 0.14164 0.47783 0.02712 0.0
C634 C 0.07765 0.52517 0.01697 0.0
C635 C 0.04566 0.51967 0.0267 0.0
C636 C 0.06281 0.49367 0.03673 0.0
C637 C 0.11023 0.4733 0.03696 0.0
C638 C 0.92552 0.5802 0.03643 0.0
C639 C 0.89849 0.58206 0.02576 0.0
C640 C 0.97304 0.56007 0.03672 0.0
C641 C 0.99465 0.54068 0.02639 0.0
C642 C 0.96706 0.54162 0.01577 0.0
C643 C 0.91972 0.5623 0.01544 0.0
H644 H 0.57161 0.62506 0.29388 0.0
H645 H 0.51801 0.65281 0.25834 0.0
H646 H 0.53592 0.54306 0.29333 0.0
H647 H 0.48008 0.57147 0.25796 0.0
H648 H 0.45846 0.40581 0.25596 0.0
H649 H 0.497 0.48686 0.25655 0.0
H650 H 0.46303 0.49814 0.29392 0.0
H651 H 0.42681 0.4164 0.29341 0.0
C652 C 0.55147 0.61394 0.286 0.0
C653 C 0.54767 0.64559 0.27615 0.0
C654 C 0.53074 0.5668 0.2857 0.0
C655 C 0.50498 0.55016 0.27559 0.0
C656 C 0.50042 0.58234 0.26582 0.0
C657 C 0.52177 0.6293 0.26607 0.0
C658 C 0.4597 0.42546 0.26432 0.0
C659 C 0.43971 0.40447 0.27464 0.0
C660 C 0.48137 0.47227 0.26465 0.0
C661 C 0.48305 0.4996 0.27527 0.0
C662 C 0.46334 0.47819 0.28561 0.0
C663 C 0.4423 0.43119 0.28531 0.0
H664 H 0.63449 0.9682 0.50794 0.0
H665 H 0.62974 0.94487 0.54584 0.0
H666 H 0.55281 1.00576 0.50859 0.0
H667 H 0.54742 0.98023 0.54646 0.0
H668 H 0.41812 0.08685 0.54566 0.0
H669 H 0.50089 0.05247 0.54507 0.0
H670 H 0.46878 0.98688 0.51095 0.0
H671 H 0.38657 0.02333 0.51133 0.0
C672 C 0.61602 0.97113 0.51641 0.0
C673 C 0.63878 0.95365 0.52683 0.0
C674 C 0.56887 0.99222 0.51679 0.0
C675 C 0.54299 0.99585 0.52757 0.0
C676 C 0.56622 0.97889 0.53801 0.0
C677 C 0.61356 0.95838 0.53765 0.0
C678 C 0.42859 0.06484 0.53805 0.0
C679 C 0.39564 0.05787 0.52854 0.0
C680 C 0.47617 0.0449 0.53773 0.0
C681 C 0.49197 0.01685 0.52794 0.0
C682 C 0.45852 1.00907 0.51853 0.0
C683 C 0.41109 0.02957 0.51879 0.0
H684 H 0.09637 0.10168 0.79349 0.0
H685 H 0.05232 0.11818 0.75681 0.0
H686 H 0.06277 0.01886 0.79373 0.0
H687 H 0.01642 0.03587 0.75717 0.0
H688 H 0.99936 0.86933 0.75774 0.0
H689 H 0.03617 0.95126 0.75754 0.0
H690 H 0.99017 0.97321 0.79386 0.0
H691 H 0.95565 0.89079 0.79419 0.0
C692 C 0.07873 0.08792 0.78552 0.0
C693 C 0.07698 0.11666 0.77513 0.0
C694 C 0.05922 0.04031 0.78566 0.0
C695 C 0.03676 0.02028 0.77547 0.0
C696 C 0.03423 0.04949 0.76513 0.0
C697 C 0.05437 0.09697 0.76495 0.0
C698 C 0.99763 0.89152 0.76571 0.0
C699 C 0.97473 0.87339 0.77599 0.0
C700 C 0.0183 0.93878 0.76557 0.0
C701 C 0.01602 0.96931 0.77566 0.0
C702 C 0.9935 0.95074 0.78597 0.0
C703 C 0.97346 0.90335 0.78615 0.0
H704 H 0.57043 0.85872 0.16868 0.0
H705 H 0.66623 0.978 0.15834 0.0
H706 H 0.50065 0.91477 0.16905 0.0
H707 H 0.59574 0.03405 0.15806 0.0
H708 H 0.4703 0.13325 0.16917 0.0
H709 H 0.53985 0.07691 0.16973 0.0
H710 H 0.44541 0.95919 0.15739 0.0
H711 H 0.37509 0.01549 0.15748 0.0
C712 C 0.57649 0.89698 0.16637 0.0
C713 C 0.62392 0.91393 0.16347 0.0
C714 C 0.53625 0.92917 0.16649 0.0
C715 C 0.54208 0.97914 0.16352 0.0
C716 C 0.58971 0.99608 0.16061 0.0
C717 C 0.63022 0.96394 0.1607 0.0
C718 C 0.46433 0.09524 0.16662 0.0
C719 C 0.41716 0.07881 0.16327 0.0
C720 C 0.50444 0.06291 0.16684 0.0
C721 C 0.49876 0.01333 0.16351 0.0
C722 C 0.45133 0.99684 0.1602 0.0
C723 C 0.41091 0.02912 0.16019 0.0
H724 H 1.00299 0.8694 0.41252 0.0
H725 H 0.88584 0.9654 0.40038 0.0
H726 H 0.06014 0.93887 0.4122 0.0
H727 H 0.94292 0.03412 0.39975 0.0
H728 H 0.04318 0.15732 0.41333 0.0
H729 H 0.98675 0.08744 0.41296 0.0
H730 H 0.103 0.99455 0.39931 0.0
H731 H 0.15959 0.06383 0.39998 0.0
C732 C 0.98957 0.90511 0.40965 0.0
C733 C 0.93977 0.91181 0.40655 0.0
C734 C 0.02233 0.94496 0.40943 0.0
C735 C 1.00607 0.99231 0.40603 0.0
C736 C 0.95654 0.99854 0.40266 0.0
C737 C 0.92385 0.95891 0.40294 0.0
C738 C 0.0566 0.12205 0.4102 0.0
C739 C 0.10595 0.11625 0.40672 0.0
C740 C 0.02421 0.08196 0.40994 0.0
C741 C 0.04033 0.03519 0.40613 0.0
C742 C 0.0895 0.0297 0.40249 0.0
C743 C 0.12188 0.06964 0.40279 0.0
H744 H 0.13745 0.5094 0.66639 0.0
H745 H 0.04351 0.39879 0.6506 0.0
H746 H 0.0676 0.5664 0.66705 0.0
H747 H 0.97453 0.45583 0.65093 0.0
H748 H 0.84831 0.54857 0.66516 0.0
H749 H 0.91916 0.49321 0.66459 0.0
H750 H 0.01318 0.61522 0.65502 0.0
H751 H 0.94276 0.6707 0.65594 0.0
C752 C 0.10212 0.49745 0.66294 0.0
C753 C 0.09608 0.44944 0.65851 0.0
C754 C 0.06205 0.53014 0.66328 0.0
C755 C 0.01518 0.51562 0.65914 0.0
C756 C 1.00967 0.46798 0.65446 0.0
C757 C 0.04947 0.43533 0.65419 0.0
C758 C 0.88409 0.56357 0.66293 0.0
C759 C 0.88975 0.61409 0.6606 0.0
C760 C 0.92475 0.53178 0.66254 0.0
C761 C 0.97203 0.54966 0.65973 0.0
C762 C 0.97758 0.60021 0.65739 0.0
C763 C 0.93701 0.63201 0.65784 0.0
H764 H 0.48105 0.3578 0.91578 0.0
H765 H 0.36136 0.45253 0.90454 0.0
H766 H 0.53664 0.42836 0.91578 0.0
H767 H 0.41705 0.52253 0.90419 0.0
H768 H 0.51912 0.6471 0.91643 0.0
H769 H 0.46266 0.57703 0.91677 0.0
H770 H 0.57731 0.48348 0.9026 0.0
H771 H 0.63377 0.5527 0.9026 0.0
C772 C 0.46667 0.39354 0.91322 0.0
C773 C 0.41673 0.39939 0.91017 0.0
C774 C 0.49858 0.43405 0.91317 0.0
C775 C 0.48139 0.48131 0.90998 0.0
C776 C 0.43147 0.48698 0.90688 0.0
C777 C 0.39957 0.44662 0.907 0.0
C778 C 0.53214 0.61158 0.91336 0.0
C779 C 0.58103 0.60556 0.90954 0.0
C780 C 0.49975 0.5714 0.91351 0.0
C781 C 0.51546 0.52438 0.90977 0.0
C782 C 0.56415 0.51875 0.90578 0.0
C783 C 0.59648 0.5587 0.9057 0.0
H784 H 0.66413 0.54289 0.04184 0.0
H785 H 0.56626 0.66195 0.03201 0.0
H786 H 0.59432 0.4862 0.04199 0.0
H787 H 0.49722 0.60538 0.03154 0.0
H788 H 0.37343 0.50425 0.04282 0.0
H789 H 0.44363 0.56014 0.04331 0.0
H790 H 0.5378 0.44365 0.03017 0.0
H791 H 0.46819 0.38745 0.0303 0.0
C792 C 0.62781 0.5568 0.03959 0.0
C793 C 0.62073 0.60692 0.03698 0.0
C794 C 0.58771 0.52429 0.0396 0.0
C795 C 0.53973 0.54104 0.03682 0.0
C796 C 0.53313 0.59113 0.03402 0.0
C797 C 0.57295 0.62363 0.0342 0.0
C798 C 0.40915 0.49071 0.04003 0.0
C799 C 0.41521 0.44143 0.03654 0.0
C800 C 0.4495 0.5228 0.04024 0.0
C801 C 0.49676 0.50664 0.03677 0.0
C802 C 0.50245 0.45737 0.03315 0.0
C803 C 0.46232 0.42515 0.03313 0.0
H804 H 0.35449 0.07305 0.28268 0.0
H805 H 0.47556 0.16927 0.29166 0.0
H806 H 0.41018 1.00296 0.28238 0.0
H807 H 0.53128 0.09858 0.29202 0.0
H808 H 0.62878 0.97259 0.28063 0.0
H809 H 0.57229 0.04192 0.28026 0.0
H810 H 0.45642 0.94833 0.29379 0.0
H811 H 0.51289 0.87806 0.29351 0.0
C812 C 0.39307 0.07915 0.28472 0.0
C813 C 0.41063 0.1268 0.28718 0.0
C814 C 0.42506 0.03873 0.28464 0.0
C815 C 0.47547 0.04464 0.28721 0.0
C816 C 0.49295 0.09245 0.28976 0.0
C817 C 0.461 0.1331 0.28963 0.0
C818 C 0.59115 0.96674 0.28349 0.0
C819 C 0.57531 0.91981 0.28712 0.0
C820 C 0.55874 1.00675 0.28338 0.0
C821 C 0.50965 1.00129 0.28711 0.0
C822 C 0.49368 0.95407 0.29069 0.0
C823 C 0.52605 0.91369 0.29058 0.0
H824 H 0.87574 0.98738 0.53571 0.0
H825 H 0.96845 0.86905 0.54862 0.0
H826 H 0.94654 0.0427 0.53596 0.0
H827 H 0.03868 0.92451 0.54917 0.0
H828 H 0.16471 0.02413 0.53619 0.0
H829 H 0.09455 0.96768 0.53637 0.0
H830 H 1.00086 0.08486 0.54923 0.0
H831 H 0.07016 0.14118 0.54876 0.0
C832 C 0.91105 0.97328 0.53871 0.0
C833 C 0.91631 0.92375 0.54212 0.0
C834 C 0.95168 1.00503 0.5389 0.0
C835 C 0.99849 0.98807 0.54257 0.0
C836 C 1.0035 0.93867 0.54611 0.0
C837 C 0.96301 0.90693 0.54587 0.0
C838 C 0.12919 0.03767 0.53912 0.0
C839 C 0.12308 0.08725 0.54238 0.0
C840 C 0.08894 1.00532 0.53925 0.0
C841 C 0.04182 0.02181 0.54272 0.0
C842 C 0.03622 0.07109 0.54626 0.0
C843 C 0.07621 0.10335 0.54606 0.0
H844 H 1.00297 0.64069 0.7823 0.0
H845 H 0.88355 0.54629 0.79338 0.0
H846 H 0.05848 0.56984 0.78217 0.0
H847 H 0.93919 0.476 0.79362 0.0
H848 H 0.0409 0.35111 0.78155 0.0
H849 H 0.9845 0.4214 0.78115 0.0
H850 H 0.09962 0.51455 0.7953 0.0
H851 H 0.15607 0.44503 0.79534 0.0
C852 C 0.98862 0.60493 0.78478 0.0
C853 C 0.93879 0.59927 0.78784 0.0
C854 C 0.0205 0.56428 0.78476 0.0
C855 C 1.0034 0.51704 0.7879 0.0
C856 C 0.95354 0.51153 0.79097 0.0
C857 C 0.92166 0.55204 0.79091 0.0
C858 C 0.05403 0.38657 0.78461 0.0
C859 C 0.10304 0.3924 0.78843 0.0
C860 C 0.02168 0.4269 0.78442 0.0
C861 C 0.03752 0.47387 0.78813 0.0
C862 C 0.08634 0.47931 0.79214 0.0
C863 C 0.11867 0.43921 0.79225 0.0
loop_
_geom_bond_atom_site_label_1
_geom_bond_atom_site_label_2
_geom_bond_distance
_geom_bond_site_symmetry_2
_ccdc_geom_bond_type
Zn0 O3 2.031 . S
Zn0 O5 2.049 . S
Zn0 O10 2.067 . S
Zn1 O2 1.962 . S
Zn1 O4 1.986 . S
Zn1 O6 1.996 . S
Zn1 O9 1.943 . S
O2 Zn1 1.962 . S
O2 C7 1.254 . S
O3 Zn0 2.031 . S
O3 C7 1.269 . S
O4 Zn1 1.986 . S
O4 C11 1.262 . S
O5 Zn0 2.049 . S
O5 C13 1.260 . S
O6 Zn1 1.996 . S
O6 C13 1.257 . S
C7 O2 1.254 . S
C7 O3 1.269 . S
C8 O9 1.249 . S
C8 O10 1.270 . S
O9 Zn1 1.943 . S
O9 C8 1.249 . S
O10 Zn0 2.067 . S
O10 C8 1.270 . S
C11 O4 1.262 . S
C11 O12 1.232 . S
O12 C11 1.232 . S
C13 O5 1.260 . S
C13 O6 1.257 . S
Zn14 O17 2.031 . S
Zn14 O19 2.049 . S
Zn14 O24 2.067 . S
Zn15 O16 1.962 . S
Zn15 O18 1.986 . S
Zn15 O20 1.996 . S
Zn15 O23 1.943 . S
O16 Zn15 1.962 . S
O16 C21 1.254 . S
O17 Zn14 2.031 . S
O17 C21 1.269 . S
O18 Zn15 1.986 . S
O18 C25 1.262 . S
O19 Zn14 2.049 . S
O19 C27 1.260 . S
O20 Zn15 1.996 . S
O20 C27 1.257 . S
C21 O16 1.254 . S
C21 O17 1.269 . S
C22 O23 1.249 . S
C22 O24 1.270 . S
O23 Zn15 1.943 . S
O23 C22 1.249 . S
O24 Zn14 2.067 . S
O24 C22 1.270 . S
C25 O18 1.262 . S
C25 O26 1.232 . S
O26 C25 1.232 . S
C27 O19 1.260 . S
C27 O20 1.257 . S
Zn28 O31 2.031 . S
Zn28 O33 2.049 . S
Zn28 O38 2.067 . S
Zn29 O30 1.962 . S
Zn29 O32 1.986 . S
Zn29 O34 1.996 . S
Zn29 O37 1.943 . S
O30 Zn29 1.962 . S
O30 C35 1.254 . S
O31 Zn28 2.031 . S
O31 C35 1.269 . S
O32 Zn29 1.986 . S
O32 C39 1.262 . S
O33 Zn28 2.049 . S
O33 C41 1.260 . S
O34 Zn29 1.996 . S
O34 C41 1.257 . S
C35 O30 1.254 . S
C35 O31 1.269 . S
C36 O37 1.249 . S
C36 O38 1.270 . S
O37 Zn29 1.943 . S
O37 C36 1.249 . S
O38 Zn28 2.067 . S
O38 C36 1.270 . S
C39 O32 1.262 . S
C39 O40 1.232 . S
O40 C39 1.232 . S
C41 O33 1.260 . S
C41 O34 1.257 . S
Zn42 O45 2.031 . S
Zn42 O47 2.049 . S
Zn42 O52 2.067 . S
Zn43 O44 1.962 . S
Zn43 O46 1.986 . S
Zn43 O48 1.996 . S
Zn43 O51 1.943 . S
O44 Zn43 1.962 . S
O44 C49 1.254 . S
O45 Zn42 2.031 . S
O45 C49 1.269 . S
O46 Zn43 1.986 . S
O46 C53 1.262 . S
O47 Zn42 2.049 . S
O47 C55 1.260 . S
O48 Zn43 1.996 . S
O48 C55 1.257 . S
C49 O44 1.254 . S
C49 O45 1.269 . S
C50 O51 1.249 . S
C50 O52 1.270 . S
O51 Zn43 1.943 . S
O51 C50 1.249 . S
O52 Zn42 2.067 . S
O52 C50 1.270 . S
C53 O46 1.262 . S
C53 O54 1.232 . S
O54 C53 1.232 . S
C55 O47 1.260 . S
C55 O48 1.257 . S
Zn56 O59 2.031 . S
Zn56 O61 2.049 . S
Zn56 O66 2.067 . S
Zn57 O58 1.962 . S
Zn57 O60 1.986 . S
Zn57 O62 1.996 . S
Zn57 O65 1.943 . S
O58 Zn57 1.962 . S
O58 C63 1.254 . S
O59 Zn56 2.031 . S
O59 C63 1.269 . S
O60 Zn57 1.986 . S
O60 C67 1.262 . S
O61 Zn56 2.049 . S
O61 C69 1.260 . S
O62 Zn57 1.996 . S
O62 C69 1.257 . S
C63 O58 1.254 . S
C63 O59 1.269 . S
C64 O65 1.249 . S
C64 O66 1.270 . S
O65 Zn57 1.943 . S
O65 C64 1.249 . S
O66 Zn56 2.067 . S
O66 C64 1.270 . S
C67 O60 1.262 . S
C67 O68 1.232 . S
O68 C67 1.232 . S
C69 O61 1.260 . S
C69 O62 1.257 . S
Zn70 O73 2.031 . S
Zn70 O75 2.049 . S
Zn70 O80 2.067 . S
Zn71 O72 1.962 . S
Zn71 O74 1.986 . S
Zn71 O76 1.996 . S
Zn71 O79 1.943 . S
O72 Zn71 1.962 . S
O72 C77 1.254 . S
O73 Zn70 2.031 . S
O73 C77 1.269 . S
O74 Zn71 1.986 . S
O74 C81 1.262 . S
O75 Zn70 2.049 . S
O75 C83 1.260 . S
O76 Zn71 1.996 . S
O76 C83 1.257 . S
C77 O72 1.254 . S
C77 O73 1.269 . S
C78 O79 1.249 . S
C78 O80 1.270 . S
O79 Zn71 1.943 . S
O79 C78 1.249 . S
O80 Zn70 2.067 . S
O80 C78 1.270 . S
C81 O74 1.262 . S
C81 O82 1.232 . S
O82 C81 1.232 . S
C83 O75 1.260 . S
C83 O76 1.257 . S
Zn84 O87 2.031 . S
Zn84 O89 2.049 . S
Zn84 O94 2.067 . S
Zn85 O86 1.962 . S
Zn85 O88 1.986 . S
Zn85 O90 1.996 . S
Zn85 O93 1.943 . S
O86 Zn85 1.962 . S
O86 C91 1.254 . S
O87 Zn84 2.031 . S
O87 C91 1.269 . S
O88 Zn85 1.986 . S
O88 C95 1.262 . S
O89 Zn84 2.049 . S
O89 C97 1.260 . S
O90 Zn85 1.996 . S
O90 C97 1.257 . S
C91 O86 1.254 . S
C91 O87 1.269 . S
C92 O93 1.249 . S
C92 O94 1.270 . S
O93 Zn85 1.943 . S
O93 C92 1.249 . S
O94 Zn84 2.067 . S
O94 C92 1.270 . S
C95 O88 1.262 . S
C95 O96 1.232 . S
O96 C95 1.232 . S
C97 O89 1.260 . S
C97 O90 1.257 . S
Zn98 O101 2.031 . S
Zn98 O103 2.049 . S
Zn98 O108 2.067 . S
Zn99 O100 1.962 . S
Zn99 O102 1.986 . S
Zn99 O104 1.996 . S
Zn99 O107 1.943 . S
O100 Zn99 1.962 . S
O100 C105 1.254 . S
O101 Zn98 2.031 . S
O101 C105 1.269 . S
O102 Zn99 1.986 . S
O102 C109 1.262 . S
O103 Zn98 2.049 . S
O103 C111 1.260 . S
O104 Zn99 1.996 . S
O104 C111 1.257 . S
C105 O100 1.254 . S
C105 O101 1.269 . S
C106 O107 1.249 . S
C106 O108 1.270 . S
O107 Zn99 1.943 . S
O107 C106 1.249 . S
O108 Zn98 2.067 . S
O108 C106 1.270 . S
C109 O102 1.262 . S
C109 O110 1.232 . S
O110 C109 1.232 . S
C111 O103 1.260 . S
C111 O104 1.257 . S
Zn112 O115 2.031 . S
Zn112 O117 2.049 . S
Zn112 O122 2.067 . S
Zn113 O114 1.962 . S
Zn113 O116 1.986 . S
Zn113 O118 1.996 . S
Zn113 O121 1.943 . S
O114 Zn113 1.962 . S
O114 C119 1.254 . S
O115 Zn112 2.031 . S
O115 C119 1.269 . S
O116 Zn113 1.986 . S
O116 C123 1.262 . S
O117 Zn112 2.049 . S
O117 C125 1.260 . S
O118 Zn113 1.996 . S
O118 C125 1.257 . S
C119 O114 1.254 . S
C119 O115 1.269 . S
C120 O121 1.249 . S
C120 O122 1.270 . S
O121 Zn113 1.943 . S
O121 C120 1.249 . S
O122 Zn112 2.067 . S
O122 C120 1.270 . S
C123 O116 1.262 . S
C123 O124 1.232 . S
O124 C123 1.232 . S
C125 O117 1.260 . S
C125 O118 1.257 . S
Zn126 O129 2.031 . S
Zn126 O131 2.049 . S
Zn126 O136 2.067 . S
Zn127 O128 1.962 . S
Zn127 O130 1.986 . S
Zn127 O132 1.996 . S
Zn127 O135 1.943 . S
O128 Zn127 1.962 . S
O128 C133 1.254 . S
O129 Zn126 2.031 . S
O129 C133 1.269 . S
O130 Zn127 1.986 . S
O130 C137 1.262 . S
O131 Zn126 2.049 . S
O131 C139 1.260 . S
O132 Zn127 1.996 . S
O132 C139 1.257 . S
C133 O128 1.254 . S
C133 O129 1.269 . S
C134 O135 1.249 . S
C134 O136 1.270 . S
O135 Zn127 1.943 . S
O135 C134 1.249 . S
O136 Zn126 2.067 . S
O136 C134 1.270 . S
C137 O130 1.262 . S
C137 O138 1.232 . S
O138 C137 1.232 . S
C139 O131 1.260 . S
C139 O132 1.257 . S
Zn140 O143 2.031 . S
Zn140 O145 2.049 . S
Zn140 O150 2.067 . S
Zn141 O142 1.962 . S
Zn141 O144 1.986 . S
Zn141 O146 1.996 . S
Zn141 O149 1.943 . S
O142 Zn141 1.962 . S
O142 C147 1.254 . S
O143 Zn140 2.031 . S
O143 C147 1.269 . S
O144 Zn141 1.986 . S
O144 C151 1.262 . S
O145 Zn140 2.049 . S
O145 C153 1.260 . S
O146 Zn141 1.996 . S
O146 C153 1.257 . S
C147 O142 1.254 . S
C147 O143 1.269 . S
C148 O149 1.249 . S
C148 O150 1.270 . S
O149 Zn141 1.943 . S
O149 C148 1.249 . S
O150 Zn140 2.067 . S
O150 C148 1.270 . S
C151 O144 1.262 . S
C151 O152 1.232 . S
O152 C151 1.232 . S
C153 O145 1.260 . S
C153 O146 1.257 . S
Zn154 O157 2.031 . S
Zn154 O159 2.049 . S
Zn154 O164 2.067 . S
Zn155 O156 1.962 . S
Zn155 O158 1.986 . S
Zn155 O160 1.996 . S
Zn155 O163 1.943 . S
O156 Zn155 1.962 . S
O156 C161 1.254 . S
O157 Zn154 2.031 . S
O157 C161 1.269 . S
O158 Zn155 1.986 . S
O158 C165 1.262 . S
O159 Zn154 2.049 . S
O159 C167 1.260 . S
O160 Zn155 1.996 . S
O160 C167 1.257 . S
C161 O156 1.254 . S
C161 O157 1.269 . S
C162 O163 1.249 . S
C162 O164 1.270 . S
O163 Zn155 1.943 . S
O163 C162 1.249 . S
O164 Zn154 2.067 . S
O164 C162 1.270 . S
C165 O158 1.262 . S
C165 O166 1.232 . S
O166 C165 1.232 . S
C167 O159 1.260 . S
C167 O160 1.257 . S
Zn168 O171 2.031 . S
Zn168 O173 2.049 . S
Zn168 O178 2.067 . S
Zn169 O170 1.962 . S
Zn169 O172 1.986 . S
Zn169 O174 1.996 . S
Zn169 O177 1.943 . S
O170 Zn169 1.962 . S
O170 C175 1.254 . S
O171 Zn168 2.031 . S
O171 C175 1.269 . S
O172 Zn169 1.986 . S
O172 C179 1.262 . S
O173 Zn168 2.049 . S
O173 C181 1.260 . S
O174 Zn169 1.996 . S
O174 C181 1.257 . S
C175 O170 1.254 . S
C175 O171 1.269 . S
C176 O177 1.249 . S
C176 O178 1.270 . S
O177 Zn169 1.943 . S
O177 C176 1.249 . S
O178 Zn168 2.067 . S
O178 C176 1.270 . S
C179 O172 1.262 . S
C179 O180 1.232 . S
O180 C179 1.232 . S
C181 O173 1.260 . S
C181 O174 1.257 . S
Zn182 O185 2.031 . S
Zn182 O187 2.049 . S
Zn182 O192 2.067 . S
Zn183 O184 1.962 . S
Zn183 O186 1.986 . S
Zn183 O188 1.996 . S
Zn183 O191 1.943 . S
O184 Zn183 1.962 . S
O184 C189 1.254 . S
O185 Zn182 2.031 . S
O185 C189 1.269 . S
O186 Zn183 1.986 . S
O186 C193 1.262 . S
O187 Zn182 2.049 . S
O187 C195 1.260 . S
O188 Zn183 1.996 . S
O188 C195 1.257 . S
C189 O184 1.254 . S
C189 O185 1.269 . S
C190 O191 1.249 . S
C190 O192 1.270 . S
O191 Zn183 1.943 . S
O191 C190 1.249 . S
O192 Zn182 2.067 . S
O192 C190 1.270 . S
C193 O186 1.262 . S
C193 O194 1.232 . S
O194 C193 1.232 . S
C195 O187 1.260 . S
C195 O188 1.257 . S
Zn196 O199 2.031 . S
Zn196 O201 2.049 . S
Zn196 O206 2.067 . S
Zn197 O198 1.962 . S
Zn197 O200 1.986 . S
Zn197 O202 1.996 . S
Zn197 O205 1.943 . S
O198 Zn197 1.962 . S
O198 C203 1.254 . S
O199 Zn196 2.031 . S
O199 C203 1.269 . S
O200 Zn197 1.986 . S
O200 C207 1.262 . S
O201 Zn196 2.049 . S
O201 C209 1.260 . S
O202 Zn197 1.996 . S
O202 C209 1.257 . S
C203 O198 1.254 . S
C203 O199 1.269 . S
C204 O205 1.249 . S
C204 O206 1.270 . S
O205 Zn197 1.943 . S
O205 C204 1.249 . S
O206 Zn196 2.067 . S
O206 C204 1.270 . S
C207 O200 1.262 . S
C207 O208 1.232 . S
O208 C207 1.232 . S
C209 O201 1.260 . S
C209 O202 1.257 . S
Zn210 O213 2.031 . S
Zn210 O215 2.049 . S
Zn210 O220 2.067 . S
Zn211 O212 1.962 . S
Zn211 O214 1.986 . S
Zn211 O216 1.996 . S
Zn211 O219 1.943 . S
O212 Zn211 1.962 . S
O212 C217 1.254 . S
O213 Zn210 2.031 . S
O213 C217 1.269 . S
O214 Zn211 1.986 . S
O214 C221 1.262 . S
O215 Zn210 2.049 . S
O215 C223 1.260 . S
O216 Zn211 1.996 . S
O216 C223 1.257 . S
C217 O212 1.254 . S
C217 O213 1.269 . S
C218 O219 1.249 . S
C218 O220 1.270 . S
O219 Zn211 1.943 . S
O219 C218 1.249 . S
O220 Zn210 2.067 . S
O220 C218 1.270 . S
C221 O214 1.262 . S
C221 O222 1.232 . S
O222 C221 1.232 . S
C223 O215 1.260 . S
C223 O216 1.257 . S
H224 C232 0.950 . S
H225 C237 0.950 . S
H226 C234 0.950 . S
H227 C236 0.950 . S
H228 C238 0.950 . S
H229 C240 0.950 . S
H230 C242 0.950 . S
H231 C243 0.950 . S
C232 H224 0.950 . S
C232 C233 1.386 . S
C232 C234 1.391 . S
C233 C232 1.386 . S
C233 C237 1.393 . S
C234 H226 0.950 . S
C234 C232 1.391 . S
C234 C235 1.400 . S
C235 C234 1.400 . S
C235 C236 1.398 . S
C235 C241 1.491 . S
C236 H227 0.950 . S
C236 C235 1.398 . S
C236 C237 1.391 . S
C237 H225 0.950 . S
C237 C233 1.393 . S
C237 C236 1.391 . S
C238 H228 0.950 . S
C238 C239 1.386 . S
C238 C240 1.391 . S
C239 C238 1.386 . S
C239 C243 1.393 . S
C240 H229 0.950 . S
C240 C238 1.391 . S
C240 C241 1.400 . S
C241 C235 1.491 . S
C241 C240 1.400 . S
C241 C242 1.398 . S
C242 H230 0.950 . S
C242 C241 1.398 . S
C242 C243 1.391 . S
C243 H231 0.950 . S
C243 C239 1.393 . S
C243 C242 1.391 . S
H244 C252 0.950 . S
H245 C257 0.950 . S
H246 C254 0.950 . S
H247 C256 0.950 . S
H248 C258 0.950 . S
H249 C260 0.950 . S
H250 C262 0.950 . S
H251 C263 0.950 . S
C252 H244 0.950 . S
C252 C253 1.386 . S
C252 C254 1.391 . S
C253 C252 1.386 . S
C253 C257 1.393 . S
C254 H246 0.950 . S
C254 C252 1.391 . S
C254 C255 1.400 . S
C255 C254 1.400 . S
C255 C256 1.398 . S
C255 C261 1.491 . S
C256 H247 0.950 . S
C256 C255 1.398 . S
C256 C257 1.391 . S
C257 H245 0.950 . S
C257 C253 1.393 . S
C257 C256 1.391 . S
C258 H248 0.950 . S
C258 C259 1.386 . S
C258 C260 1.391 . S
C259 C258 1.386 . S
C259 C263 1.393 . S
C260 H249 0.950 . S
C260 C258 1.391 . S
C260 C261 1.400 . S
C261 C255 1.491 . S
C261 C260 1.400 . S
C261 C262 1.398 . S
C262 H250 0.950 . S
C262 C261 1.398 . S
C262 C263 1.391 . S
C263 H251 0.950 . S
C263 C259 1.393 . S
C263 C262 1.391 . S
H264 C272 0.950 . S
H265 C277 0.950 . S
H266 C274 0.950 . S
H267 C276 0.950 . S
H268 C278 0.950 . S
H269 C280 0.950 . S
H270 C282 0.950 . S
H271 C283 0.950 . S
C272 H264 0.950 . S
C272 C273 1.386 . S
C272 C274 1.391 . S
C273 C272 1.386 . S
C273 C277 1.393 . S
C274 H266 0.950 . S
C274 C272 1.391 . S
C274 C275 1.400 . S
C275 C274 1.400 . S
C275 C276 1.398 . S
C275 C281 1.491 . S
C276 H267 0.950 . S
C276 C275 1.398 . S
C276 C277 1.391 . S
C277 H265 0.950 . S
C277 C273 1.393 . S
C277 C276 1.391 . S
C278 H268 0.950 . S
C278 C279 1.386 . S
C278 C280 1.391 . S
C279 C278 1.386 . S
C279 C283 1.393 . S
C280 H269 0.950 . S
C280 C278 1.391 . S
C280 C281 1.400 . S
C281 C275 1.491 . S
C281 C280 1.400 . S
C281 C282 1.398 . S
C282 H270 0.950 . S
C282 C281 1.398 . S
C282 C283 1.391 . S
C283 H271 0.950 . S
C283 C279 1.393 . S
C283 C282 1.391 . S
H284 C292 0.950 . S
H285 C297 0.950 . S
H286 C294 0.950 . S
H287 C296 0.950 . S
H288 C298 0.950 . S
H289 C300 0.950 . S
H290 C302 0.950 . S
H291 C303 0.950 . S
C292 H284 0.950 . S
C292 C293 1.386 . S
C292 C294 1.391 . S
C293 C292 1.386 . S
C293 C297 1.393 . S
C294 H286 0.950 . S
C294 C292 1.391 . S
C294 C295 1.400 . S
C295 C294 1.400 . S
C295 C296 1.398 . S
C295 C301 1.491 . S
C296 H287 0.950 . S
C296 C295 1.398 . S
C296 C297 1.391 . S
C297 H285 0.950 . S
C297 C293 1.393 . S
C297 C296 1.391 . S
C298 H288 0.950 . S
C298 C299 1.386 . S
C298 C300 1.391 . S
C299 C298 1.386 . S
C299 C303 1.393 . S
C300 H289 0.950 . S
C300 C298 1.391 . S
C300 C301 1.400 . S
C301 C295 1.491 . S
C301 C300 1.400 . S
C301 C302 1.398 . S
C302 H290 0.950 . S
C302 C301 1.398 . S
C302 C303 1.391 . S
C303 H291 0.950 . S
C303 C299 1.393 . S
C303 C302 1.391 . S
H304 C312 0.950 . S
H305 C317 0.950 . S
H306 C314 0.950 . S
H307 C316 0.950 . S
H308 C318 0.950 . S
H309 C320 0.950 . S
H310 C322 0.950 . S
H311 C323 0.950 . S
C312 H304 0.950 . S
C312 C313 1.386 . S
C312 C314 1.391 . S
C313 C312 1.386 . S
C313 C317 1.393 . S
C314 H306 0.950 . S
C314 C312 1.391 . S
C314 C315 1.400 . S
C315 C314 1.400 . S
C315 C316 1.398 . S
C315 C321 1.491 . S
C316 H307 0.950 . S
C316 C315 1.398 . S
C316 C317 1.391 . S
C317 H305 0.950 . S
C317 C313 1.393 . S
C317 C316 1.391 . S
C318 H308 0.950 . S
C318 C319 1.386 . S
C318 C320 1.391 . S
C319 C318 1.386 . S
C319 C323 1.393 . S
C320 H309 0.950 . S
C320 C318 1.391 . S
C320 C321 1.400 . S
C321 C315 1.491 . S
C321 C320 1.400 . S
C321 C322 1.398 . S
C322 H310 0.950 . S
C322 C321 1.398 . S
C322 C323 1.391 . S
C323 H311 0.950 . S
C323 C319 1.393 . S
C323 C322 1.391 . S
H324 C332 0.950 . S
H325 C337 0.950 . S
H326 C334 0.950 . S
H327 C336 0.950 . S
H328 C338 0.950 . S
H329 C340 0.950 . S
H330 C342 0.950 . S
H331 C343 0.950 . S
C332 H324 0.950 . S
C332 C333 1.386 . S
C332 C334 1.391 . S
C333 C332 1.386 . S
C333 C337 1.393 . S
C334 H326 0.950 . S
C334 C332 1.391 . S
C334 C335 1.400 . S
C335 C334 1.400 . S
C335 C336 1.398 . S
C335 C341 1.491 . S
C336 H327 0.950 . S
C336 C335 1.398 . S
C336 C337 1.391 . S
C337 H325 0.950 . S
C337 C333 1.393 . S
C337 C336 1.391 . S
C338 H328 0.950 . S
C338 C339 1.386 . S
C338 C340 1.391 . S
C339 C338 1.386 . S
C339 C343 1.393 . S
C340 H329 0.950 . S
C340 C338 1.391 . S
C340 C341 1.400 . S
C341 C335 1.491 . S
C341 C340 1.400 . S
C341 C342 1.398 . S
C342 H330 0.950 . S
C342 C341 1.398 . S
C342 C343 1.391 . S
C343 H331 0.950 . S
C343 C339 1.393 . S
C343 C342 1.391 . S
H344 C352 0.950 . S
H345 C357 0.950 . S
H346 C354 0.950 . S
H347 C356 0.950 . S
H348 C358 0.950 . S
H349 C360 0.950 . S
H350 C362 0.950 . S
H351 C363 0.950 . S
C352 H344 0.950 . S
C352 C353 1.386 . S
C352 C354 1.391 . S
C353 C352 1.386 . S
C353 C357 1.393 . S
C354 H346 0.950 . S
C354 C352 1.391 . S
C354 C355 1.400 . S
C355 C354 1.400 . S
C355 C356 1.398 . S
C355 C361 1.491 . S
C356 H347 0.950 . S
C356 C355 1.398 . S
C356 C357 1.391 . S
C357 H345 0.950 . S
C357 C353 1.393 . S
C357 C356 1.391 . S
C358 H348 0.950 . S
C358 C359 1.386 . S
C358 C360 1.391 . S
C359 C358 1.386 . S
C359 C363 1.393 . S
C360 H349 0.950 . S
C360 C358 1.391 . S
C360 C361 1.400 . S
C361 C355 1.491 . S
C361 C360 1.400 . S
C361 C362 1.398 . S
C362 H350 0.950 . S
C362 C361 1.398 . S
C362 C363 1.391 . S
C363 H351 0.950 . S
C363 C359 1.393 . S
C363 C362 1.391 . S
H364 C372 0.950 . S
H365 C377 0.950 . S
H366 C374 0.950 . S
H367 C376 0.950 . S
H368 C378 0.950 . S
H369 C380 0.950 . S
H370 C382 0.950 . S
H371 C383 0.950 . S
C372 H364 0.950 . S
C372 C373 1.386 . S
C372 C374 1.391 . S
C373 C372 1.386 . S
C373 C377 1.393 . S
C374 H366 0.950 . S
C374 C372 1.391 . S
C374 C375 1.400 . S
C375 C374 1.400 . S
C375 C376 1.398 . S
C375 C381 1.491 . S
C376 H367 0.950 . S
C376 C375 1.398 . S
C376 C377 1.391 . S
C377 H365 0.950 . S
C377 C373 1.393 . S
C377 C376 1.391 . S
C378 H368 0.950 . S
C378 C379 1.386 . S
C378 C380 1.391 . S
C379 C378 1.386 . S
C379 C383 1.393 . S
C380 H369 0.950 . S
C380 C378 1.391 . S
C380 C381 1.400 . S
C381 C375 1.491 . S
C381 C380 1.400 . S
C381 C382 1.398 . S
C382 H370 0.950 . S
C382 C381 1.398 . S
C382 C383 1.391 . S
C383 H371 0.950 . S
C383 C379 1.393 . S
C383 C382 1.391 . S
H384 C392 0.950 . S
H385 C397 0.950 . S
H386 C394 0.950 . S
H387 C396 0.950 . S
H388 C398 0.950 . S
H389 C400 0.950 . S
H390 C402 0.950 . S
H391 C403 0.950 . S
C392 H384 0.950 . S
C392 C393 1.386 . S
C392 C394 1.391 . S
C393 C392 1.386 . S
C393 C397 1.393 . S
C394 H386 0.950 . S
C394 C392 1.391 . S
C394 C395 1.400 . S
C395 C394 1.400 . S
C395 C396 1.398 . S
C395 C401 1.491 . S
C396 H387 0.950 . S
C396 C395 1.398 . S
C396 C397 1.391 . S
C397 H385 0.950 . S
C397 C393 1.393 . S
C397 C396 1.391 . S
C398 H388 0.950 . S
C398 C399 1.386 . S
C398 C400 1.391 . S
C399 C398 1.386 . S
C399 C403 1.393 . S
C400 H389 0.950 . S
C400 C398 1.391 . S
C400 C401 1.400 . S
C401 C395 1.491 . S
C401 C400 1.400 . S
C401 C402 1.398 . S
C402 H390 0.950 . S
C402 C401 1.398 . S
C402 C403 1.391 . S
C403 H391 0.950 . S
C403 C399 1.393 . S
C403 C402 1.391 . S
H404 C412 0.950 . S
H405 C417 0.950 . S
H406 C414 0.950 . S
H407 C416 0.950 . S
H408 C418 0.950 . S
H409 C420 0.950 . S
H410 C422 0.950 . S
H411 C423 0.950 . S
C412 H404 0.950 . S
C412 C413 1.386 . S
C412 C414 1.391 . S
C413 C412 1.386 . S
C413 C417 1.393 . S
C414 H406 0.950 . S
C414 C412 1.391 . S
C414 C415 1.400 . S
C415 C414 1.400 . S
C415 C416 1.398 . S
C415 C421 1.491 . S
C416 H407 0.950 . S
C416 C415 1.398 . S
C416 C417 1.391 . S
C417 H405 0.950 . S
C417 C413 1.393 . S
C417 C416 1.391 . S
C418 H408 0.950 . S
C418 C419 1.386 . S
C418 C420 1.391 . S
C419 C418 1.386 . S
C419 C423 1.393 . S
C420 H409 0.950 . S
C420 C418 1.391 . S
C420 C421 1.400 . S
C421 C415 1.491 . S
C421 C420 1.400 . S
C421 C422 1.398 . S
C422 H410 0.950 . S
C422 C421 1.398 . S
C422 C423 1.391 . S
C423 H411 0.950 . S
C423 C419 1.393 . S
C423 C422 1.391 . S
H424 C432 0.950 . S
H425 C437 0.950 . S
H426 C434 0.950 . S
H427 C436 0.950 . S
H428 C438 0.950 . S
H429 C440 0.950 . S
H430 C442 0.950 . S
H431 C443 0.950 . S
C432 H424 0.950 . S
C432 C433 1.386 . S
C432 C434 1.391 . S
C433 C432 1.386 . S
C433 C437 1.393 . S
C434 H426 0.950 . S
C434 C432 1.391 . S
C434 C435 1.400 . S
C435 C434 1.400 . S
C435 C436 1.398 . S
C435 C441 1.491 . S
C436 H427 0.950 . S
C436 C435 1.398 . S
C436 C437 1.391 . S
C437 H425 0.950 . S
C437 C433 1.393 . S
C437 C436 1.391 . S
C438 H428 0.950 . S
C438 C439 1.386 . S
C438 C440 1.391 . S
C439 C438 1.386 . S
C439 C443 1.393 . S
C440 H429 0.950 . S
C440 C438 1.391 . S
C440 C441 1.400 . S
C441 C435 1.491 . S
C441 C440 1.400 . S
C441 C442 1.398 . S
C442 H430 0.950 . S
C442 C441 1.398 . S
C442 C443 1.391 . S
C443 H431 0.950 . S
C443 C439 1.393 . S
C443 C442 1.391 . S
H444 C452 0.950 . S
H445 C457 0.950 . S
H446 C454 0.950 . S
H447 C456 0.950 . S
H448 C458 0.950 . S
H449 C460 0.950 . S
H450 C462 0.950 . S
H451 C463 0.950 . S
C452 H444 0.950 . S
C452 C453 1.386 . S
C452 C454 1.391 . S
C453 C452 1.386 . S
C453 C457 1.393 . S
C454 H446 0.950 . S
C454 C452 1.391 . S
C454 C455 1.400 . S
C455 C454 1.400 . S
C455 C456 1.398 . S
C455 C461 1.491 1_554 S
C456 H447 0.950 . S
C456 C455 1.398 . S
C456 C457 1.391 . S
C457 H445 0.950 . S
C457 C453 1.393 . S
C457 C456 1.391 . S
C458 H448 0.950 . S
C458 C459 1.386 . S
C458 C460 1.391 . S
C459 C458 1.386 . S
C459 C463 1.393 . S
C460 H449 0.950 . S
C460 C458 1.391 . S
C460 C461 1.400 . S
C461 C455 1.491 1_556 S
C461 C460 1.400 . S
C461 C462 1.398 . S
C462 H450 0.950 . S
C462 C461 1.398 . S
C462 C463 1.391 . S
C463 H451 0.950 . S
C463 C459 1.393 . S
C463 C462 1.391 . S
H464 C472 0.950 . S
H465 C477 0.950 . S
H466 C474 0.950 . S
H467 C476 0.950 . S
H468 C478 0.950 . S
H469 C480 0.950 . S
H470 C482 0.950 . S
H471 C483 0.950 . S
C472 H464 0.950 . S
C472 C473 1.386 . S
C472 C474 1.391 . S
C473 C472 1.386 . S
C473 C477 1.393 . S
C474 H466 0.950 . S
C474 C472 1.391 . S
C474 C475 1.400 . S
C475 C474 1.400 . S
C475 C476 1.398 . S
C475 C481 1.491 1_554 S
C476 H467 0.950 . S
C476 C475 1.398 . S
C476 C477 1.391 . S
C477 H465 0.950 . S
C477 C473 1.393 . S
C477 C476 1.391 . S
C478 H468 0.950 . S
C478 C479 1.386 . S
C478 C480 1.391 . S
C479 C478 1.386 . S
C479 C483 1.393 . S
C480 H469 0.950 . S
C480 C478 1.391 . S
C480 C481 1.400 . S
C481 C475 1.491 1_556 S
C481 C480 1.400 . S
C481 C482 1.398 . S
C482 H470 0.950 . S
C482 C481 1.398 . S
C482 C483 1.391 . S
C483 H471 0.950 . S
C483 C479 1.393 . S
C483 C482 1.391 . S
H484 C492 0.950 . S
H485 C497 0.950 . S
H486 C494 0.950 . S
H487 C496 0.950 . S
H488 C498 0.950 . S
H489 C500 0.950 . S
H490 C502 0.950 . S
H491 C503 0.950 . S
C492 H484 0.950 . S
C492 C493 1.386 . S
C492 C494 1.391 . S
C493 C492 1.386 . S
C493 C497 1.393 . S
C494 H486 0.950 . S
C494 C492 1.391 . S
C494 C495 1.400 . S
C495 C494 1.400 . S
C495 C496 1.398 . S
C495 C501 1.491 . S
C496 H487 0.950 . S
C496 C495 1.398 . S
C496 C497 1.391 . S
C497 H485 0.950 . S
C497 C493 1.393 . S
C497 C496 1.391 . S
C498 H488 0.950 . S
C498 C499 1.386 . S
C498 C500 1.391 . S
C499 C498 1.386 . S
C499 C503 1.393 . S
C500 H489 0.950 . S
C500 C498 1.391 . S
C500 C501 1.400 . S
C501 C495 1.491 . S
C501 C500 1.400 . S
C501 C502 1.398 . S
C502 H490 0.950 . S
C502 C501 1.398 . S
C502 C503 1.391 . S
C503 H491 0.950 . S
C503 C499 1.393 . S
C503 C502 1.391 . S
H504 C512 0.950 . S
H505 C517 0.950 . S
H506 C514 0.950 . S
H507 C516 0.950 . S
H508 C518 0.950 . S
H509 C520 0.950 . S
H510 C522 0.950 . S
H511 C523 0.950 . S
C512 H504 0.950 . S
C512 C513 1.386 . S
C512 C514 1.391 . S
C513 C512 1.386 . S
C513 C517 1.393 . S
C514 H506 0.950 . S
C514 C512 1.391 . S
C514 C515 1.400 . S
C515 C514 1.400 . S
C515 C516 1.398 . S
C515 C521 1.491 . S
C516 H507 0.950 . S
C516 C515 1.398 . S
C516 C517 1.391 . S
C517 H505 0.950 . S
C517 C513 1.393 . S
C517 C516 1.391 . S
C518 H508 0.950 . S
C518 C519 1.386 . S
C518 C520 1.391 . S
C519 C518 1.386 . S
C519 C523 1.393 . S
C520 H509 0.950 . S
C520 C518 1.391 . S
C520 C521 1.400 . S
C521 C515 1.491 . S
C521 C520 1.400 . S
C521 C522 1.398 . S
C522 H510 0.950 . S
C522 C521 1.398 . S
C522 C523 1.391 . S
C523 H511 0.950 . S
C523 C519 1.393 . S
C523 C522 1.391 . S
H524 C532 0.950 . S
H525 C537 0.950 . S
H526 C534 0.950 . S
H527 C536 0.950 . S
H528 C538 0.950 . S
H529 C540 0.950 . S
H530 C542 0.950 . S
H531 C543 0.950 . S
C532 H524 0.950 . S
C532 C533 1.386 . S
C532 C534 1.391 . S
C533 C532 1.386 . S
C533 C537 1.393 . S
C534 H526 0.950 . S
C534 C532 1.391 . S
C534 C535 1.400 . S
C535 C534 1.400 . S
C535 C536 1.398 . S
C535 C541 1.491 . S
C536 H527 0.950 . S
C536 C535 1.398 . S
C536 C537 1.391 . S
C537 H525 0.950 . S
C537 C533 1.393 . S
C537 C536 1.391 . S
C538 H528 0.950 . S
C538 C539 1.386 . S
C538 C540 1.391 . S
C539 C538 1.386 . S
C539 C543 1.393 . S
C540 H529 0.950 . S
C540 C538 1.391 . S
C540 C541 1.400 . S
C541 C535 1.491 . S
C541 C540 1.400 . S
C541 C542 1.398 . S
C542 H530 0.950 . S
C542 C541 1.398 . S
C542 C543 1.391 . S
C543 H531 0.950 . S
C543 C539 1.393 . S
C543 C542 1.391 . S
H544 C552 0.950 . S
H545 C557 0.950 . S
H546 C554 0.950 . S
H547 C556 0.950 . S
H548 C558 0.950 . S
H549 C560 0.950 . S
H550 C562 0.950 . S
H551 C563 0.950 . S
C552 H544 0.950 . S
C552 C553 1.386 . S
C552 C554 1.391 . S
C553 C552 1.386 . S
C553 C557 1.393 . S
C554 H546 0.950 . S
C554 C552 1.391 . S
C554 C555 1.400 . S
C555 C554 1.400 . S
C555 C556 1.398 . S
C555 C561 1.491 1_445 S
C556 H547 0.950 . S
C556 C555 1.398 . S
C556 C557 1.391 . S
C557 H545 0.950 . S
C557 C553 1.393 . S
C557 C556 1.391 . S
C558 H548 0.950 . S
C558 C559 1.386 . S
C558 C560 1.391 . S
C559 C558 1.386 . S
C559 C563 1.393 . S
C560 H549 0.950 . S
C560 C558 1.391 . S
C560 C561 1.400 . S
C561 C555 1.491 1_665 S
C561 C560 1.400 . S
C561 C562 1.398 . S
C562 H550 0.950 . S
C562 C561 1.398 . S
C562 C563 1.391 . S
C563 H551 0.950 . S
C563 C559 1.393 . S
C563 C562 1.391 . S
H564 C572 0.950 . S
H565 C577 0.950 . S
H566 C574 0.950 . S
H567 C576 0.950 . S
H568 C578 0.950 . S
H569 C580 0.950 . S
H570 C582 0.950 . S
H571 C583 0.950 . S
C572 H564 0.950 . S
C572 C573 1.386 . S
C572 C574 1.391 . S
C573 C572 1.386 . S
C573 C577 1.393 1_455 S
C574 H566 0.950 . S
C574 C572 1.391 . S
C574 C575 1.400 . S
C575 C574 1.400 . S
C575 C576 1.398 1_455 S
C575 C581 1.491 1_455 S
C576 H567 0.950 . S
C576 C575 1.398 1_655 S
C576 C577 1.391 . S
C577 H565 0.950 . S
C577 C573 1.393 1_655 S
C577 C576 1.391 . S
C578 H568 0.950 . S
C578 C579 1.386 . S
C578 C580 1.391 . S
C579 C578 1.386 . S
C579 C583 1.393 1_655 S
C580 H569 0.950 . S
C580 C578 1.391 . S
C580 C581 1.400 . S
C581 C575 1.491 1_655 S
C581 C580 1.400 . S
C581 C582 1.398 1_655 S
C582 H570 0.950 . S
C582 C581 1.398 1_455 S
C582 C583 1.391 . S
C583 H571 0.950 . S
C583 C579 1.393 1_455 S
C583 C582 1.391 . S
H584 C592 0.950 . S
H585 C597 0.950 . S
H586 C594 0.950 . S
H587 C596 0.950 . S
H588 C598 0.950 . S
H589 C600 0.950 . S
H590 C602 0.950 . S
H591 C603 0.950 . S
C592 H584 0.950 . S
C592 C593 1.386 . S
C592 C594 1.391 . S
C593 C592 1.386 . S
C593 C597 1.393 . S
C594 H586 0.950 . S
C594 C592 1.391 . S
C594 C595 1.400 . S
C595 C594 1.400 . S
C595 C596 1.398 . S
C595 C601 1.491 . S
C596 H587 0.950 . S
C596 C595 1.398 . S
C596 C597 1.391 . S
C597 H585 0.950 . S
C597 C593 1.393 . S
C597 C596 1.391 . S
C598 H588 0.950 . S
C598 C599 1.386 . S
C598 C600 1.391 . S
C599 C598 1.386 . S
C599 C603 1.393 . S
C600 H589 0.950 . S
C600 C598 1.391 . S
C600 C601 1.400 . S
C601 C595 1.491 . S
C601 C600 1.400 . S
C601 C602 1.398 . S
C602 H590 0.950 . S
C602 C601 1.398 . S
C602 C603 1.391 . S
C603 H591 0.950 . S
C603 C599 1.393 . S
C603 C602 1.391 . S
H604 C612 0.950 . S
H605 C617 0.950 . S
H606 C614 0.950 . S
H607 C616 0.950 . S
H608 C618 0.950 . S
H609 C620 0.950 . S
H610 C622 0.950 . S
H611 C623 0.950 . S
C612 H604 0.950 . S
C612 C613 1.386 . S
C612 C614 1.391 . S
C613 C612 1.386 . S
C613 C617 1.393 . S
C614 H606 0.950 . S
C614 C612 1.391 . S
C614 C615 1.400 . S
C615 C614 1.400 . S
C615 C616 1.398 . S
C615 C621 1.491 1_545 S
C616 H607 0.950 . S
C616 C615 1.398 . S
C616 C617 1.391 . S
C617 H605 0.950 . S
C617 C613 1.393 . S
C617 C616 1.391 . S
C618 H608 0.950 . S
C618 C619 1.386 . S
C618 C620 1.391 . S
C619 C618 1.386 . S
C619 C623 1.393 . S
C620 H609 0.950 . S
C620 C618 1.391 . S
C620 C621 1.400 . S
C621 C615 1.491 1_565 S
C621 C620 1.400 . S
C621 C622 1.398 . S
C622 H610 0.950 . S
C622 C621 1.398 . S
C622 C623 1.391 . S
C623 H611 0.950 . S
C623 C619 1.393 . S
C623 C622 1.391 . S
H624 C632 0.950 . S
H625 C637 0.950 . S
H626 C634 0.950 . S
H627 C636 0.950 . S
H628 C638 0.950 . S
H629 C640 0.950 . S
H630 C642 0.950 . S
H631 C643 0.950 . S
C632 H624 0.950 . S
C632 C633 1.386 . S
C632 C634 1.391 . S
C633 C632 1.386 . S
C633 C637 1.393 . S
C634 H626 0.950 . S
C634 C632 1.391 . S
C634 C635 1.400 . S
C635 C634 1.400 . S
C635 C636 1.398 . S
C635 C641 1.491 1_455 S
C636 H627 0.950 . S
C636 C635 1.398 . S
C636 C637 1.391 . S
C637 H625 0.950 . S
C637 C633 1.393 . S
C637 C636 1.391 . S
C638 H628 0.950 . S
C638 C639 1.386 . S
C638 C640 1.391 . S
C639 C638 1.386 . S
C639 C643 1.393 . S
C640 H629 0.950 . S
C640 C638 1.391 . S
C640 C641 1.400 . S
C641 C635 1.491 1_655 S
C641 C640 1.400 . S
C641 C642 1.398 . S
C642 H630 0.950 . S
C642 C641 1.398 . S
C642 C643 1.391 . S
C643 H631 0.950 . S
C643 C639 1.393 . S
C643 C642 1.391 . S
H644 C652 0.950 . S
H645 C657 0.950 . S
H646 C654 0.950 . S
H647 C656 0.950 . S
H648 C658 0.950 . S
H649 C660 0.950 . S
H650 C662 0.950 . S
H651 C663 0.950 . S
C652 H644 0.950 . S
C652 C653 1.386 . S
C652 C654 1.391 . S
C653 C652 1.386 . S
C653 C657 1.393 . S
C654 H646 0.950 . S
C654 C652 1.391 . S
C654 C655 1.400 . S
C655 C654 1.400 . S
C655 C656 1.398 . S
C655 C661 1.491 . S
C656 H647 0.950 . S
C656 C655 1.398 . S
C656 C657 1.391 . S
C657 H645 0.950 . S
C657 C653 1.393 . S
C657 C656 1.391 . S
C658 H648 0.950 . S
C658 C659 1.386 . S
C658 C660 1.391 . S
C659 C658 1.386 . S
C659 C663 1.393 . S
C660 H649 0.950 . S
C660 C658 1.391 . S
C660 C661 1.400 . S
C661 C655 1.491 . S
C661 C660 1.400 . S
C661 C662 1.398 . S
C662 H650 0.950 . S
C662 C661 1.398 . S
C662 C663 1.391 . S
C663 H651 0.950 . S
C663 C659 1.393 . S
C663 C662 1.391 . S
H664 C672 0.950 . S
H665 C677 0.950 . S
H666 C674 0.950 . S
H667 C676 0.950 . S
H668 C678 0.950 . S
H669 C680 0.950 . S
H670 C682 0.950 . S
H671 C683 0.950 . S
C672 H664 0.950 . S
C672 C673 1.386 . S
C672 C674 1.391 . S
C673 C672 1.386 . S
C673 C677 1.393 . S
C674 H666 0.950 . S
C674 C672 1.391 . S
C674 C675 1.400 . S
C675 C674 1.400 . S
C675 C676 1.398 . S
C675 C681 1.491 1_565 S
C676 H667 0.950 . S
C676 C675 1.398 . S
C676 C677 1.391 . S
C677 H665 0.950 . S
C677 C673 1.393 . S
C677 C676 1.391 . S
C678 H668 0.950 . S
C678 C679 1.386 . S
C678 C680 1.391 . S
C679 C678 1.386 . S
C679 C683 1.393 . S
C680 H669 0.950 . S
C680 C678 1.391 . S
C680 C681 1.400 . S
C681 C675 1.491 1_545 S
C681 C680 1.400 . S
C681 C682 1.398 . S
C682 H670 0.950 . S
C682 C681 1.398 . S
C682 C683 1.391 . S
C683 H671 0.950 . S
C683 C679 1.393 . S
C683 C682 1.391 . S
H684 C692 0.950 . S
H685 C697 0.950 . S
H686 C694 0.950 . S
H687 C696 0.950 . S
H688 C698 0.950 . S
H689 C700 0.950 . S
H690 C702 0.950 . S
H691 C703 0.950 . S
C692 H684 0.950 . S
C692 C693 1.386 . S
C692 C694 1.391 . S
C693 C692 1.386 . S
C693 C697 1.393 . S
C694 H686 0.950 . S
C694 C692 1.391 . S
C694 C695 1.400 . S
C695 C694 1.400 . S
C695 C696 1.398 1_455 S
C695 C701 1.491 1_445 S
C696 H687 0.950 . S
C696 C695 1.398 1_655 S
C696 C697 1.391 1_655 S
C697 H685 0.950 . S
C697 C693 1.393 . S
C697 C696 1.391 1_455 S
C698 H688 0.950 . S
C698 C699 1.386 . S
C698 C700 1.391 . S
C699 C698 1.386 . S
C699 C703 1.393 . S
C700 H689 0.950 . S
C700 C698 1.391 . S
C700 C701 1.400 . S
C701 C695 1.491 1_665 S
C701 C700 1.400 . S
C701 C702 1.398 1_655 S
C702 H690 0.950 . S
C702 C701 1.398 1_455 S
C702 C703 1.391 1_455 S
C703 H691 0.950 . S
C703 C699 1.393 . S
C703 C702 1.391 1_655 S
H704 C712 0.950 . S
H705 C717 0.950 . S
H706 C714 0.950 . S
H707 C716 0.950 . S
H708 C718 0.950 . S
H709 C720 0.950 . S
H710 C722 0.950 . S
H711 C723 0.950 . S
C712 H704 0.950 . S
C712 C713 1.386 . S
C712 C714 1.391 . S
C713 C712 1.386 . S
C713 C717 1.393 1_565 S
C714 H706 0.950 . S
C714 C712 1.391 . S
C714 C715 1.400 . S
C715 C714 1.400 . S
C715 C716 1.398 1_565 S
C715 C721 1.491 1_565 S
C716 H707 0.950 . S
C716 C715 1.398 1_545 S
C716 C717 1.391 . S
C717 H705 0.950 . S
C717 C713 1.393 1_545 S
C717 C716 1.391 . S
C718 H708 0.950 . S
C718 C719 1.386 . S
C718 C720 1.391 . S
C719 C718 1.386 . S
C719 C723 1.393 1_545 S
C720 H709 0.950 . S
C720 C718 1.391 . S
C720 C721 1.400 . S
C721 C715 1.491 1_545 S
C721 C720 1.400 . S
C721 C722 1.398 1_545 S
C722 H710 0.950 . S
C722 C721 1.398 1_565 S
C722 C723 1.391 . S
C723 H711 0.950 . S
C723 C719 1.393 1_565 S
C723 C722 1.391 . S
H724 C732 0.943 1_455 S
H725 C737 0.950 . S
H726 C734 0.950 . S
H727 C736 0.950 . S
H728 C738 0.942 1_655 S
H729 C740 0.950 . S
H730 C742 0.950 . S
H731 C743 0.950 . S
C732 H724 0.943 1_655 S
C732 C733 1.396 . S
C732 C734 1.387 1_655 S
C733 C732 1.396 . S
C733 C737 1.393 . S
C734 H726 0.950 . S
C734 C732 1.387 1_455 S
C734 C735 1.400 1_455 S
C735 C734 1.400 1_655 S
C735 C736 1.398 . S
C735 C741 1.491 1_665 S
C736 H727 0.950 . S
C736 C735 1.398 . S
C736 C737 1.391 . S
C737 H725 0.950 . S
C737 C733 1.393 . S
C737 C736 1.391 . S
C738 H728 0.942 1_455 S
C738 C739 1.398 . S
C738 C740 1.387 1_455 S
C739 C738 1.398 . S
C739 C743 1.393 . S
C740 H729 0.950 . S
C740 C738 1.387 1_655 S
C740 C741 1.400 1_655 S
C741 C735 1.491 1_445 S
C741 C740 1.400 1_455 S
C741 C742 1.398 . S
C742 H730 0.950 . S
C742 C741 1.398 . S
C742 C743 1.391 . S
C743 H731 0.950 . S
C743 C739 1.393 . S
C743 C742 1.391 . S
H744 C752 0.950 . S
H745 C757 0.950 . S
H746 C754 0.950 . S
H747 C756 0.950 . S
H748 C758 0.950 . S
H749 C760 0.950 . S
H750 C762 0.950 . S
H751 C763 0.950 . S
C752 H744 0.950 . S
C752 C753 1.386 . S
C752 C754 1.391 . S
C753 C752 1.386 . S
C753 C757 1.393 . S
C754 H746 0.950 . S
C754 C752 1.391 . S
C754 C755 1.400 . S
C755 C754 1.400 . S
C755 C756 1.398 . S
C755 C761 1.491 1_455 S
C756 H747 0.950 . S
C756 C755 1.398 . S
C756 C757 1.391 . S
C757 H745 0.950 . S
C757 C753 1.393 . S
C757 C756 1.391 . S
C758 H748 0.950 . S
C758 C759 1.386 . S
C758 C760 1.391 . S
C759 C758 1.386 . S
C759 C763 1.393 . S
C760 H749 0.950 . S
C760 C758 1.391 . S
C760 C761 1.400 . S
C761 C755 1.491 1_655 S
C761 C760 1.400 . S
C761 C762 1.398 . S
C762 H750 0.950 . S
C762 C761 1.398 . S
C762 C763 1.391 . S
C763 H751 0.950 . S
C763 C759 1.393 . S
C763 C762 1.391 . S
H764 C772 0.950 . S
H765 C777 0.950 . S
H766 C774 0.950 . S
H767 C776 0.950 . S
H768 C778 0.950 . S
H769 C780 0.950 . S
H770 C782 0.950 . S
H771 C783 0.950 . S
C772 H764 0.950 . S
C772 C773 1.386 . S
C772 C774 1.391 . S
C773 C772 1.386 . S
C773 C777 1.393 . S
C774 H766 0.950 . S
C774 C772 1.391 . S
C774 C775 1.400 . S
C775 C774 1.400 . S
C775 C776 1.398 . S
C775 C781 1.491 . S
C776 H767 0.950 . S
C776 C775 1.398 . S
C776 C777 1.391 . S
C777 H765 0.950 . S
C777 C773 1.393 . S
C777 C776 1.391 . S
C778 H768 0.950 . S
C778 C779 1.386 . S
C778 C780 1.391 . S
C779 C778 1.386 . S
C779 C783 1.393 . S
C780 H769 0.950 . S
C780 C778 1.391 . S
C780 C781 1.400 . S
C781 C775 1.491 . S
C781 C780 1.400 . S
C781 C782 1.398 . S
C782 H770 0.950 . S
C782 C781 1.398 . S
C782 C783 1.391 . S
C783 H771 0.950 . S
C783 C779 1.393 . S
C783 C782 1.391 . S
H784 C792 0.950 . S
H785 C797 0.950 . S
H786 C794 0.950 . S
H787 C796 0.950 . S
H788 C798 0.950 . S
H789 C800 0.950 . S
H790 C802 0.950 . S
H791 C803 0.950 . S
C792 H784 0.950 . S
C792 C793 1.386 . S
C792 C794 1.391 . S
C793 C792 1.386 . S
C793 C797 1.393 . S
C794 H786 0.950 . S
C794 C792 1.391 . S
C794 C795 1.400 . S
C795 C794 1.400 . S
C795 C796 1.398 . S
C795 C801 1.491 . S
C796 H787 0.950 . S
C796 C795 1.398 . S
C796 C797 1.391 . S
C797 H785 0.950 . S
C797 C793 1.393 . S
C797 C796 1.391 . S
C798 H788 0.950 . S
C798 C799 1.386 . S
C798 C800 1.391 . S
C799 C798 1.386 . S
C799 C803 1.393 . S
C800 H789 0.950 . S
C800 C798 1.391 . S
C800 C801 1.400 . S
C801 C795 1.491 . S
C801 C800 1.400 . S
C801 C802 1.398 . S
C802 H790 0.950 . S
C802 C801 1.398 . S
C802 C803 1.391 . S
C803 H791 0.950 . S
C803 C799 1.393 . S
C803 C802 1.391 . S
H804 C812 0.950 . S
H805 C817 0.950 . S
H806 C814 0.950 . S
H807 C816 0.950 . S
H808 C818 0.950 . S
H809 C820 0.950 . S
H810 C822 0.950 . S
H811 C823 0.950 . S
C812 H804 0.950 . S
C812 C813 1.386 . S
C812 C814 1.391 . S
C813 C812 1.386 . S
C813 C817 1.393 . S
C814 H806 0.950 . S
C814 C812 1.391 . S
C814 C815 1.400 . S
C815 C814 1.400 . S
C815 C816 1.398 . S
C815 C821 1.491 1_545 S
C816 H807 0.950 . S
C816 C815 1.398 . S
C816 C817 1.391 . S
C817 H805 0.950 . S
C817 C813 1.393 . S
C817 C816 1.391 . S
C818 H808 0.950 . S
C818 C819 1.386 . S
C818 C820 1.391 . S
C819 C818 1.386 . S
C819 C823 1.393 . S
C820 H809 0.950 . S
C820 C818 1.391 . S
C820 C821 1.400 . S
C821 C815 1.491 1_565 S
C821 C820 1.400 . S
C821 C822 1.398 . S
C822 H810 0.950 . S
C822 C821 1.398 . S
C822 C823 1.391 . S
C823 H811 0.950 . S
C823 C819 1.393 . S
C823 C822 1.391 . S
H824 C832 0.950 . S
H825 C837 0.950 . S
H826 C834 0.950 . S
H827 C836 0.950 . S
H828 C838 0.950 . S
H829 C840 0.950 . S
H830 C842 0.950 . S
H831 C843 0.950 . S
C832 H824 0.950 . S
C832 C833 1.386 . S
C832 C834 1.391 1_565 S
C833 C832 1.386 . S
C833 C837 1.393 . S
C834 H826 0.950 . S
C834 C832 1.391 1_545 S
C834 C835 1.400 1_545 S
C835 C834 1.400 1_565 S
C835 C836 1.398 . S
C835 C841 1.491 1_665 S
C836 H827 0.950 . S
C836 C835 1.398 . S
C836 C837 1.391 . S
C837 H825 0.950 . S
C837 C833 1.393 . S
C837 C836 1.391 . S
C838 H828 0.950 . S
C838 C839 1.386 . S
C838 C840 1.391 1_545 S
C839 C838 1.386 . S
C839 C843 1.393 . S
C840 H829 0.950 . S
C840 C838 1.391 1_565 S
C840 C841 1.400 1_565 S
C841 C835 1.491 1_445 S
C841 C840 1.400 1_545 S
C841 C842 1.398 . S
C842 H830 0.950 . S
C842 C841 1.398 . S
C842 C843 1.391 . S
C843 H831 0.950 . S
C843 C839 1.393 . S
C843 C842 1.391 . S
H844 C852 0.950 . S
H845 C857 0.950 . S
H846 C854 0.950 . S
H847 C856 0.950 . S
H848 C858 0.950 . S
H849 C860 0.950 . S
H850 C862 0.950 . S
H851 C863 0.950 . S
C852 H844 0.950 . S
C852 C853 1.386 . S
C852 C854 1.391 1_655 S
C853 C852 1.386 . S
C853 C857 1.393 . S
C854 H846 0.950 . S
C854 C852 1.391 1_455 S
C854 C855 1.400 1_455 S
C855 C854 1.400 1_655 S
C855 C856 1.398 . S
C855 C861 1.491 1_655 S
C856 H847 0.950 . S
C856 C855 1.398 . S
C856 C857 1.391 . S
C857 H845 0.950 . S
C857 C853 1.393 . S
C857 C856 1.391 . S
C858 H848 0.950 . S
C858 C859 1.386 . S
C858 C860 1.391 1_455 S
C859 C858 1.386 . S
C859 C863 1.393 . S
C860 H849 0.950 . S
C860 C858 1.391 1_655 S
C860 C861 1.400 1_655 S
C861 C855 1.491 1_455 S
C861 C860 1.400 1_455 S
C861 C862 1.398 . S
C862 H850 0.950 . S
C862 C861 1.398 . S
C862 C863 1.391 . S
C863 H851 0.950 . S
C863 C859 1.393 . S
C863 C862 1.391 . S
C233 C69 1.119 . S
C239 C13 1.087 . S
C253 C27 1.102 . S
C259 C83 1.099 . S
C273 C97 1.094 . S
C279 C41 1.107 . S
C293 C111 1.087 . S
C299 C55 1.119 . S
C313 C181 1.122 . S
C319 C125 1.097 . S
C333 C139 1.116 . S
C339 C195 1.106 . S
C353 C209 1.113 . S
C359 C153 1.090 . S
C373 C167 1.100 . S
C379 C223 1.100 . S
C393 C7 1.214 . S
C399 C217 1.208 . S
C413 C21 1.211 . S
C419 C175 1.212 . S
C433 C35 1.208 . S
C439 C189 1.215 . S
C453 C203 1.215 . S
C459 C49 1.208 . S
C473 C63 1.215 . S
C479 C133 1.207 . S
C493 C77 1.207 . S
C499 C147 1.216 . S
C513 C161 1.209 . S
C519 C91 1.214 . S
C533 C119 1.213 . S
C539 C105 1.211 . S
C553 C11 1.463 . S
C559 C151 1.461 . S
C573 C165 1.470 . S
C579 C25 1.461 . S
C593 C39 1.460 . S
C599 C123 1.467 . S
C613 C137 1.475 . S
C619 C53 1.469 . S
C633 C67 1.465 . S
C639 C207 1.460 . S
C653 C81 1.474 . S
C659 C221 1.471 . S
C673 C179 1.462 . S
C679 C95 1.462 . S
C693 C193 1.474 . S
C699 C109 1.471 . S
C713 C148 1.476 . S
C719 C8 1.467 . S
C733 C22 1.470 . S
C739 C162 1.478 . S
C753 C36 1.484 . S
C759 C120 1.483 . S
C773 C134 1.458 . S
C779 C50 1.456 . S
C793 C204 1.460 . S
C799 C64 1.468 . S
C813 C218 1.478 . S
C819 C78 1.469 . S
C833 C176 1.456 . S
C839 C92 1.461 . S
C853 C106 1.456 . S
C859 C190 1.461 . S
