# Generated by pormake.
# Topology wjt, (5)-cn, num edge types: 1
# Building blocks:
#     Node 0, Type 0, BuildingBlock: BEQFEK_clean_sbu_0, # of connection points: 5
#     Node 1, Type 0, BuildingBlock: BEQFEK_clean_sbu_0, # of connection points: 5
#     Node 2, Type 0, BuildingBlock: BEQFEK_clean_sbu_0, # of connection points: 5
#     Node 3, Type 0, BuildingBlock: BEQFEK_clean_sbu_0, # of connection points: 5
#     Node 4, Type 0, BuildingBlock: BEQFEK_clean_sbu_0, # of connection points: 5
#     Node 5, Type 0, BuildingBlock: BEQFEK_clean_sbu_0, # of connection points: 5
#     Node 6, Type 0, BuildingBlock: BEQFEK_clean_sbu_0, # of connection points: 5
#     Node 7, Type 0, BuildingBlock: BEQFEK_clean_sbu_0, # of connection points: 5
#     Node 8, Type 0, BuildingBlock: BEQFEK_clean_sbu_0, # of connection points: 5
#     Node 9, Type 0, BuildingBlock: BEQFEK_clean_sbu_0, # of connection points: 5
#     Node 10, Type 0, BuildingBlock: BEQFEK_clean_sbu_0, # of connection points: 5
#     Node 11, Type 0, BuildingBlock: BEQFEK_clean_sbu_0, # of connection points: 5
#     Edge 12, Type (0, 0), BuildingBlock: XIVTED_clean_linker_0, # of connection points: 2
#     Edge 13, Type (0, 0), BuildingBlock: XIVTED_clean_linker_0, # of connection points: 2
#     Edge 14, Type (0, 0), BuildingBlock: XIVTED_clean_linker_0, # of connection points: 2
#     Edge 15, Type (0, 0), BuildingBlock: XIVTED_clean_linker_0, # of connection points: 2
#     Edge 16, Type (0, 0), BuildingBlock: XIVTED_clean_linker_0, # of connection points: 2
#     Edge 17, Type (0, 0), BuildingBlock: XIVTED_clean_linker_0, # of connection points: 2
#     Edge 18, Type (0, 0), BuildingBlock: XIVTED_clean_linker_0, # of connection points: 2
#     Edge 19, Type (0, 0), BuildingBlock: XIVTED_clean_linker_0, # of connection points: 2
#     Edge 20, Type (0, 0), BuildingBlock: XIVTED_clean_linker_0, # of connection points: 2
#     Edge 21, Type (0, 0), BuildingBlock: XIVTED_clean_linker_0, # of connection points: 2
#     Edge 22, Type (0, 0), BuildingBlock: XIVTED_clean_linker_0, # of connection points: 2
#     Edge 23, Type (0, 0), BuildingBlock: XIVTED_clean_linker_0, # of connection points: 2
#     Edge 24, Type (0, 0), BuildingBlock: XIVTED_clean_linker_0, # of connection points: 2
#     Edge 25, Type (0, 0), BuildingBlock: XIVTED_clean_linker_0, # of connection points: 2
#     Edge 26, Type (0, 0), BuildingBlock: XIVTED_clean_linker_0, # of connection points: 2
#     Edge 27, Type (0, 0), BuildingBlock: XIVTED_clean_linker_0, # of connection points: 2
#     Edge 28, Type (0, 0), BuildingBlock: XIVTED_clean_linker_0, # of connection points: 2
#     Edge 29, Type (0, 0), BuildingBlock: XIVTED_clean_linker_0, # of connection points: 2
#     Edge 30, Type (0, 0), BuildingBlock: XIVTED_clean_linker_0, # of connection points: 2
#     Edge 31, Type (0, 0), BuildingBlock: XIVTED_clean_linker_0, # of connection points: 2
#     Edge 32, Type (0, 0), BuildingBlock: XIVTED_clean_linker_0, # of connection points: 2
#     Edge 33, Type (0, 0), BuildingBlock: XIVTED_clean_linker_0, # of connection points: 2
#     Edge 34, Type (0, 0), BuildingBlock: XIVTED_clean_linker_0, # of connection points: 2
#     Edge 35, Type (0, 0), BuildingBlock: XIVTED_clean_linker_0, # of connection points: 2
#     Edge 36, Type (0, 0), BuildingBlock: XIVTED_clean_linker_0, # of connection points: 2
#     Edge 37, Type (0, 0), BuildingBlock: XIVTED_clean_linker_0, # of connection points: 2
#     Edge 38, Type (0, 0), BuildingBlock: XIVTED_clean_linker_0, # of connection points: 2
#     Edge 39, Type (0, 0), BuildingBlock: XIVTED_clean_linker_0, # of connection points: 2
#     Edge 40, Type (0, 0), BuildingBlock: XIVTED_clean_linker_0, # of connection points: 2
#     Edge 41, Type (0, 0), BuildingBlock: XIVTED_clean_linker_0, # of connection points: 2
# Relax obj value: 0.296
# Max RMSD: 0.184
# Mean RMSD: 0.184
data_MOF--net-wjt--node1-BEQFEK_clean_sbu_0--edge1-XIVTED_clean_linker_0
_symmetry_space_group_name_H-M    P1
_symmetry_Int_Tables_number       1
_symmetry_cell_setting            triclinic
loop_
_symmetry_equiv_pos_as_xyz
'x, y, z'
_cell_length_a     69.981955
_cell_length_b     69.996879
_cell_length_c     18.364165
_cell_angle_alpha  89.984296
_cell_angle_beta   90.040646
_cell_angle_gamma 120.01044
loop_
_atom_site_label
_atom_site_type_symbol
_atom_site_fract_x
_atom_site_fract_y
_atom_site_fract_z
_atom_type_partial_charge
Co0 Co 0.32091 0.4477 0.29034 0.0
Co1 Co 0.3425 0.45303 0.13782 0.0
C2 C 0.33792 0.41819 0.24174 0.0
O3 O 0.32911 0.42466 0.28873 0.0
O4 O 0.34364 0.42738 0.17957 0.0
C5 C 0.29543 0.42531 0.41444 0.0
O6 O 0.29263 0.40775 0.37935 0.0
C7 C 0.34059 0.44116 0.9857 0.0
C8 C 0.36472 0.47311 0.93695 0.0
C9 C 0.34834 0.45185 0.91952 0.0
N10 N 0.35134 0.45572 0.03921 0.0
N11 N 0.3663 0.47455 0.00989 0.0
C12 C 0.32131 0.41855 -0.00143 0.0
H13 H 0.31554 0.41673 0.05574 0.0
H14 H 0.30757 0.41504 0.96074 0.0
H15 H 0.3265 0.4062 0.98806 0.0
C16 C 0.28414 0.44424 0.20031 0.0
N17 N 0.30423 0.44629 0.20778 0.0
N18 N 0.31377 0.44987 0.14352 0.0
C19 C 0.30025 0.45102 0.09344 0.0
C20 C 0.28092 0.44691 0.1274 0.0
C21 C 0.26867 0.44016 0.26214 0.0
H22 H 0.27604 0.45468 0.29898 0.0
H23 H 0.26646 0.42572 0.29395 0.0
H24 H 0.25238 0.43714 0.24267 0.0
O25 O 0.34841 0.47685 0.29652 0.0
O26 O 0.36401 0.48027 0.18847 0.0
H27 H 0.32471 0.47094 0.01367 0.0
H28 H 0.29811 0.46835 -0.00054 0.0
C29 C 0.30672 0.45946 0.01725 0.0
H30 H 0.30178 0.44544 0.97947 0.0
H31 H 0.37631 0.48887 0.0395 0.0
O32 O 0.30499 0.4439 0.38242 0.0
C33 C 0.36415 0.48765 0.25192 0.0
Co34 Co 0.87055 0.32391 0.62427 0.0
Co35 Co 0.88668 0.3451 0.47127 0.0
C36 C 0.91725 0.3414 0.57602 0.0
O37 O 0.90193 0.33267 0.62289 0.0
O38 O 0.91372 0.34672 0.51326 0.0
C39 C 0.86803 0.29854 0.74802 0.0
O40 O 0.88275 0.29584 0.71217 0.0
C41 C 0.89736 0.34395 0.3191 0.0
C42 C 0.88826 0.36719 0.27058 0.0
C43 C 0.89408 0.35149 0.25296 0.0
N44 N 0.89277 0.35408 0.3727 0.0
N45 N 0.88818 0.36856 0.34353 0.0
C46 C 0.90184 0.32541 0.3318 0.0
H47 H 0.89742 0.31909 0.38831 0.0
H48 H 0.89266 0.31181 0.29241 0.0
H49 H 0.91971 0.33163 0.32366 0.0
C50 C 0.83693 0.28709 0.53598 0.0
N51 N 0.8553 0.30697 0.54215 0.0
N52 N 0.86103 0.3163 0.47755 0.0
C53 C 0.84579 0.30294 0.42848 0.0
C54 C 0.83026 0.2839 0.46375 0.0
C55 C 0.82512 0.27243 0.59923 0.0
H56 H 0.82114 0.28174 0.63952 0.0
H57 H 0.8362 0.26753 0.62634 0.0
H58 H 0.80968 0.25746 0.58218 0.0
O59 O 0.86815 0.35098 0.62947 0.0
O60 O 0.88052 0.36641 0.52128 0.0
H61 H 0.85126 0.3264 0.3441 0.0
H62 H 0.82886 0.29925 0.32548 0.0
C63 C 0.84548 0.3086 0.34991 0.0
H64 H 0.85628 0.30433 0.31843 0.0
H65 H 0.88321 0.37804 0.37319 0.0
O66 O 0.85883 0.30805 0.71669 0.0
C67 C 0.87295 0.36652 0.58417 0.0
Co68 Co 0.54158 0.8708 0.96605 0.0
Co69 Co 0.53643 0.8856 0.81037 0.0
C70 C 0.56923 0.91747 0.91648 0.0
O71 O 0.56304 0.90241 0.96399 0.0
O72 O 0.56064 0.91332 0.85333 0.0
C73 C 0.56665 0.87098 0.08392 0.0
O74 O 0.58265 0.88363 0.03906 0.0
C75 C 0.55222 0.89521 0.66212 0.0
C76 C 0.52419 0.89367 0.60184 0.0
C77 C 0.54504 0.89631 0.59293 0.0
N78 N 0.53625 0.89171 0.70976 0.0
N79 N 0.51965 0.89119 0.67369 0.0
C80 C 0.57404 0.89767 0.68293 0.0
H81 H 0.57715 0.90107 0.74203 0.0
H82 H 0.57429 0.88232 0.67039 0.0
H83 H 0.58743 0.9112 0.65096 0.0
C84 C 0.54723 0.83796 0.88083 0.0
N85 N 0.54473 0.8558 0.88603 0.0
N86 N 0.54064 0.86085 0.82104 0.0
C87 C 0.53924 0.84563 0.7731 0.0
C88 C 0.54413 0.83118 0.80869 0.0
C89 C 0.55164 0.82731 0.94422 0.0
H90 H 0.53713 0.82018 0.98106 0.0
H91 H 0.56597 0.83997 0.97535 0.0
H92 H 0.55504 0.81414 0.92654 0.0
O93 O 0.51158 0.86741 0.96651 0.0
O94 O 0.50813 0.87865 0.85628 0.0
H95 H 0.5181 0.82387 0.68919 0.0
H96 H 0.54188 0.8481 0.65726 0.0
C97 C 0.52887 0.84182 0.69925 0.0
H98 H 0.51877 0.84987 0.69408 0.0
H99 H 0.50493 0.8883 0.69771 0.0
O100 O 0.5469 0.86086 0.0605 0.0
C101 C 0.50051 0.87139 0.91968 0.0
Co102 Co 0.66613 0.54403 0.28839 0.0
Co103 Co 0.6448 0.54056 0.13687 0.0
C104 C 0.64962 0.57448 0.24468 0.0
O105 O 0.65841 0.56746 0.28995 0.0
O106 O 0.64369 0.56584 0.18179 0.0
C107 C 0.69106 0.5647 0.41499 0.0
O108 O 0.69622 0.58306 0.38021 0.0
C109 C 0.64278 0.55317 0.98645 0.0
C110 C 0.62287 0.52034 0.93594 0.0
C111 C 0.6356 0.54261 0.91963 0.0
N112 N 0.63548 0.53769 0.03879 0.0
N113 N 0.623 0.51819 0.00853 0.0
C114 C 0.65618 0.57744 0.00127 0.0
H115 H 0.64931 0.58162 0.04907 0.0
H116 H 0.67338 0.58204 0.0149 0.0
H117 H 0.65612 0.5872 0.95373 0.0
C118 C 0.70236 0.54688 0.19777 0.0
N119 N 0.68271 0.54577 0.20553 0.0
N120 N 0.67361 0.54371 0.1411 0.0
C121 C 0.68714 0.54301 0.09008 0.0
C122 C 0.7058 0.54509 0.12432 0.0
C123 C 0.71657 0.5479 0.26024 0.0
H124 H 0.70645 0.53477 0.30009 0.0
H125 H 0.72301 0.564 0.2883 0.0
H126 H 0.73058 0.54589 0.24211 0.0
O127 O 0.63866 0.51508 0.29292 0.0
O128 O 0.62316 0.51285 0.18564 0.0
H129 H 0.66574 0.52579 0.00057 0.0
H130 H 0.69464 0.53828 0.97859 0.0
C131 C 0.68229 0.54029 0.01008 0.0
H132 H 0.68252 0.55517 0.98896 0.0
H133 H 0.61578 0.50328 0.03694 0.0
O134 O 0.68142 0.54655 0.38046 0.0
C135 C 0.62293 0.50479 0.24795 0.0
Co136 Co 0.11595 0.66849 0.61219 0.0
Co137 Co 0.10067 0.64688 0.45937 0.0
C138 C 0.06938 0.65027 0.56176 0.0
O139 O 0.08455 0.65946 0.60906 0.0
O140 O 0.07322 0.6447 0.49985 0.0
C141 C 0.11796 0.6936 0.73623 0.0
O142 O 0.1029 0.69588 0.70083 0.0
C143 C 0.09123 0.64852 0.30659 0.0
C144 C 0.10044 0.62525 0.25912 0.0
C145 C 0.09493 0.64113 0.24093 0.0
N146 N 0.09519 0.63805 0.36068 0.0
N147 N 0.09989 0.62358 0.33207 0.0
C148 C 0.0871 0.66732 0.31857 0.0
H149 H 0.09059 0.67308 0.37588 0.0
H150 H 0.09724 0.68119 0.28112 0.0
H151 H 0.0695 0.66162 0.30675 0.0
C152 C 0.14881 0.70589 0.5237 0.0
N153 N 0.13114 0.68551 0.53033 0.0
N154 N 0.1257 0.67602 0.4659 0.0
C155 C 0.14041 0.68986 0.41653 0.0
C156 C 0.15508 0.70936 0.45113 0.0
C157 C 0.15941 0.72145 0.58598 0.0
H158 H 0.14656 0.72244 0.61831 0.0
H159 H 0.17178 0.73819 0.56698 0.0
H160 H 0.16755 0.71493 0.62213 0.0
O161 O 0.11863 0.64156 0.61875 0.0
O162 O 0.10711 0.62594 0.51037 0.0
H163 H 0.16064 0.69262 0.32406 0.0
H164 H 0.13382 0.68808 0.30206 0.0
C165 C 0.14304 0.68357 0.34078 0.0
H166 H 0.13705 0.66567 0.33742 0.0
H167 H 0.10452 0.61392 0.36228 0.0
O168 O 0.12744 0.68444 0.70455 0.0
C169 C 0.11431 0.626 0.57405 0.0
Co170 Co 0.44792 0.12048 0.94132 0.0
Co171 Co 0.45308 0.10398 0.7896 0.0
C172 C 0.4192 0.07344 0.89496 0.0
O173 O 0.42529 0.08892 0.94118 0.0
O174 O 0.42833 0.07688 0.83271 0.0
C175 C 0.42636 0.12362 0.06769 0.0
O176 O 0.40828 0.10917 0.03404 0.0
C177 C 0.44155 0.08935 0.63895 0.0
C178 C 0.47462 0.10565 0.58852 0.0
C179 C 0.45227 0.09434 0.57205 0.0
N180 N 0.4569 0.09842 0.69148 0.0
N181 N 0.47662 0.10743 0.66124 0.0
C182 C 0.41725 0.07641 0.65371 0.0
H183 H 0.41406 0.06525 0.70064 0.0
H184 H 0.41109 0.08773 0.66854 0.0
H185 H 0.40805 0.06637 0.60575 0.0
C186 C 0.44424 0.15356 0.85157 0.0
N187 N 0.44599 0.13536 0.85882 0.0
N188 N 0.4484 0.1287 0.79422 0.0
C189 C 0.44841 0.14269 0.74354 0.0
C190 C 0.4458 0.15887 0.77821 0.0
C191 C 0.44293 0.16644 0.91446 0.0
H192 H 0.45597 0.1694 0.95466 0.0
H193 H 0.42675 0.15657 0.94187 0.0
H194 H 0.44488 0.18248 0.89694 0.0
O195 O 0.47737 0.12321 0.94752 0.0
O196 O 0.48092 0.11108 0.83979 0.0
H197 H 0.46619 0.14048 0.65213 0.0
H198 H 0.45054 0.15393 0.63157 0.0
C199 C 0.45067 0.14055 0.66329 0.0
H200 H 0.43659 0.12487 0.64406 0.0
H201 H 0.49143 0.11619 0.68984 0.0
O202 O 0.44447 0.13273 0.03295 0.0
C203 C 0.48842 0.1187 0.90279 0.0
Co204 Co 0.5411 0.66665 0.37528 0.0
Co205 Co 0.5374 0.64496 0.52641 0.0
C206 C 0.57167 0.65026 0.41946 0.0
O207 O 0.56466 0.65909 0.37427 0.0
O208 O 0.56288 0.64411 0.48207 0.0
C209 C 0.56175 0.69139 0.24829 0.0
O210 O 0.58015 0.69639 0.28262 0.0
C211 C 0.54951 0.64227 0.6771 0.0
C212 C 0.51648 0.62296 0.72668 0.0
C213 C 0.53875 0.63524 0.74365 0.0
N214 N 0.53417 0.63537 0.62431 0.0
N215 N 0.51453 0.62321 0.65403 0.0
C216 C 0.57385 0.6552 0.66296 0.0
H217 H 0.5779 0.64808 0.61553 0.0
H218 H 0.57887 0.67249 0.64905 0.0
H219 H 0.58337 0.65492 0.7109 0.0
C220 C 0.5436 0.70257 0.46691 0.0
N221 N 0.54251 0.68295 0.45858 0.0
N222 N 0.54048 0.67376 0.52279 0.0
C223 C 0.53987 0.68723 0.57424 0.0
C224 C 0.54188 0.70591 0.54053 0.0
C225 C 0.54469 0.71693 0.40484 0.0
H226 H 0.53189 0.70684 0.364 0.0
H227 H 0.56101 0.72378 0.37788 0.0
H228 H 0.54226 0.73066 0.42321 0.0
O229 O 0.51226 0.63913 0.3696 0.0
O230 O 0.50984 0.62339 0.47652 0.0
H231 H 0.52285 0.66608 0.66438 0.0
H232 H 0.53624 0.69503 0.68653 0.0
C233 C 0.53759 0.68242 0.65426 0.0
H234 H 0.55238 0.68219 0.67392 0.0
H235 H 0.4997 0.61634 0.62521 0.0
O236 O 0.54369 0.68204 0.28332 0.0
C237 C 0.50191 0.62328 0.41406 0.0
Co238 Co 0.86686 0.54217 0.68822 0.0
Co239 Co 0.8852 0.53931 0.8393 0.0
C240 C 0.91414 0.57197 0.72739 0.0
O241 O 0.89817 0.56504 0.68282 0.0
O242 O 0.91149 0.56373 0.79089 0.0
C243 C 0.86167 0.56233 0.56232 0.0
O244 O 0.87519 0.5807 0.59651 0.0
C245 C 0.89844 0.55379 0.98831 0.0
C246 C 0.89006 0.52231 0.04196 0.0
C247 C 0.89634 0.54416 0.0563 0.0
N248 N 0.89261 0.53806 0.9374 0.0
N249 N 0.8883 0.51946 0.96949 0.0
C250 C 0.90578 0.57736 0.97069 0.0
H251 H 0.91518 0.58211 0.91891 0.0
H252 H 0.89122 0.57945 0.96296 0.0
H253 H 0.91632 0.5885 0.01479 0.0
C254 C 0.83504 0.54753 0.78003 0.0
N255 N 0.85299 0.54538 0.77146 0.0
N256 N 0.85994 0.54302 0.83565 0.0
C257 C 0.84609 0.54286 0.88709 0.0
C258 C 0.83023 0.5462 0.85374 0.0
C259 C 0.82269 0.55038 0.71847 0.0
H260 H 0.83448 0.56359 0.68169 0.0
H261 H 0.81033 0.55467 0.73823 0.0
H262 H 0.81425 0.53485 0.68658 0.0
O263 O 0.86472 0.5128 0.68668 0.0
O264 O 0.87821 0.51098 0.7941 0.0
H265 H 0.82853 0.52826 0.98707 0.0
H266 H 0.85613 0.55062 -0.00157 0.0
C267 C 0.84552 0.53597 0.9647 0.0
H268 H 0.85128 0.5239 0.96881 0.0
H269 H 0.8827 0.50449 0.94239 0.0
O270 O 0.85353 0.54418 0.59673 0.0
C271 C 0.87001 0.50258 0.73249 0.0
Co272 Co 0.32253 0.87217 0.03208 0.0
Co273 Co 0.34424 0.88991 0.1833 0.0
C274 C 0.3407 0.91957 0.07485 0.0
O275 O 0.3313 0.90362 0.03032 0.0
O276 O 0.34662 0.91681 0.13774 0.0
C277 C 0.29792 0.8687 0.90528 0.0
O278 O 0.29379 0.88276 0.93923 0.0
C279 C 0.34719 0.90492 0.33368 0.0
C280 C 0.36492 0.88965 0.38446 0.0
C281 C 0.3534 0.90048 0.40072 0.0
N282 N 0.35372 0.89603 0.28136 0.0
N283 N 0.36499 0.88764 0.31181 0.0
C284 C 0.33528 0.9173 0.31859 0.0
H285 H 0.34268 0.9281 0.27048 0.0
H286 H 0.31775 0.9056 0.30541 0.0
H287 H 0.33624 0.92762 0.36589 0.0
C288 C 0.28598 0.8395 0.12304 0.0
N289 N 0.3058 0.85783 0.11512 0.0
N290 N 0.31487 0.86496 0.17951 0.0
C291 C 0.30106 0.85108 0.23075 0.0
C292 C 0.28233 0.83456 0.19665 0.0
C293 C 0.27191 0.82612 0.06062 0.0
H294 H 0.28215 0.82318 0.02111 0.0
H295 H 0.26533 0.8356 0.03212 0.0
H296 H 0.25799 0.81005 0.07886 0.0
O297 O 0.34932 0.86952 0.02741 0.0
O298 O 0.365 0.88256 0.13462 0.0
H299 H 0.32155 0.85409 0.32172 0.0
H300 H 0.29248 0.83987 0.34294 0.0
C301 C 0.30567 0.85345 0.31089 0.0
H302 H 0.30678 0.86891 0.33009 0.0
H303 H 0.37135 0.87913 0.28346 0.0
O304 O 0.30692 0.85963 0.94029 0.0
C305 C 0.36491 0.87446 0.07253 0.0
Co306 Co 0.4449 0.32372 0.35554 0.0
Co307 Co 0.45084 0.34516 0.50843 0.0
C308 C 0.41576 0.34092 0.40614 0.0
O309 O 0.42202 0.33208 0.35855 0.0
O310 O 0.42516 0.34657 0.46806 0.0
C311 C 0.42211 0.29832 0.23149 0.0
O312 O 0.40462 0.29566 0.26675 0.0
C313 C 0.43965 0.34322 0.66112 0.0
C314 C 0.47191 0.36708 0.7088 0.0
C315 C 0.45065 0.35082 0.72685 0.0
N316 N 0.454 0.35394 0.60713 0.0
N317 N 0.47302 0.36875 0.63584 0.0
C318 C 0.41692 0.32404 0.64901 0.0
H319 H 0.41478 0.31831 0.59169 0.0
H320 H 0.41353 0.31025 0.68644 0.0
H321 H 0.4047 0.32931 0.66078 0.0
C322 C 0.44124 0.28666 0.44411 0.0
N323 N 0.44351 0.30685 0.43744 0.0
N324 N 0.44745 0.31633 0.50186 0.0
C325 C 0.44869 0.30271 0.55123 0.0
C326 C 0.44423 0.28332 0.51667 0.0
C327 C 0.4365 0.27114 0.38188 0.0
H328 H 0.42255 0.26991 0.34945 0.0
H329 H 0.43235 0.25446 0.40095 0.0
H330 H 0.45116 0.27782 0.34581 0.0
O331 O 0.47422 0.35106 0.34896 0.0
O332 O 0.47801 0.36654 0.45741 0.0
H333 H 0.46654 0.30046 0.64359 0.0
H334 H 0.44388 0.30436 0.66573 0.0
C335 C 0.45764 0.30917 0.62694 0.0
H336 H 0.46924 0.32714 0.63025 0.0
H337 H 0.48725 0.37868 0.60572 0.0
O338 O 0.44076 0.30785 0.26324 0.0
C339 C 0.48523 0.36669 0.39373 0.0
Co340 Co 0.11828 0.44999 0.69953 0.0
Co341 Co 0.10196 0.45512 0.85212 0.0
C342 C 0.07185 0.42007 0.74825 0.0
O343 O 0.08716 0.42674 0.70132 0.0
O344 O 0.07525 0.4292 0.81052 0.0
C345 C 0.12146 0.4276 0.57548 0.0
O346 O 0.10692 0.40999 0.61094 0.0
C347 C 0.09166 0.44317 0.00424 0.0
C348 C 0.09961 0.47516 0.05292 0.0
C349 C 0.09456 0.45385 0.07043 0.0
N350 N 0.09571 0.45778 0.9507 0.0
N351 N 0.09962 0.47663 0.97997 0.0
C352 C 0.08811 0.42048 0.99142 0.0
H353 H 0.09258 0.4188 0.93476 0.0
H354 H 0.0978 0.41662 0.03047 0.0
H355 H 0.0704 0.40829 2e-05 0.0
C356 C 0.15244 0.44792 0.78837 0.0
N357 N 0.13385 0.44901 0.78184 0.0
N358 N 0.12809 0.45279 0.84612 0.0
C359 C 0.14355 0.45525 0.89524 0.0
C360 C 0.15922 0.45188 0.86044 0.0
C361 C 0.16427 0.44492 0.72551 0.0
H362 H 0.16821 0.45809 0.68474 0.0
H363 H 0.15322 0.42887 0.69883 0.0
H364 H 0.17973 0.4455 0.74288 0.0
O365 O 0.11973 0.47902 0.69356 0.0
O366 O 0.10731 0.48225 0.80142 0.0
H367 H 0.13746 0.47313 0.97842 0.0
H368 H 0.16073 0.46977 -0.00324 0.0
C369 C 0.14394 0.46166 0.97334 0.0
H370 H 0.13379 0.44668 0.00618 0.0
H371 H 0.10409 0.49099 0.95036 0.0
O372 O 0.13033 0.44623 0.60721 0.0
C373 C 0.11464 0.48972 0.73811 0.0
Co374 Co 0.66692 0.12023 0.03229 0.0
Co375 Co 0.64495 0.10488 0.18475 0.0
C376 C 0.64756 0.07341 0.08121 0.0
O377 O 0.65708 0.0886 0.03423 0.0
O378 O 0.6422 0.07734 0.14329 0.0
C379 C 0.69171 0.12178 0.90814 0.0
O380 O 0.69346 0.10636 0.94319 0.0
C381 C 0.6462 0.09463 0.33693 0.0
C382 C 0.62322 0.10404 0.38552 0.0
C383 C 0.63883 0.09809 0.40305 0.0
N384 N 0.63599 0.09914 0.28334 0.0
N385 N 0.6217 0.10398 0.31255 0.0
C386 C 0.66475 0.09016 0.3242 0.0
H387 H 0.67052 0.0938 0.26695 0.0
H388 H 0.67868 0.10001 0.36183 0.0
H389 H 0.65878 0.07247 0.33514 0.0
C390 C 0.70435 0.15256 0.12211 0.0
N391 N 0.68393 0.135 0.11483 0.0
N392 N 0.67433 0.12946 0.17907 0.0
C393 C 0.68818 0.14392 0.22898 0.0
C394 C 0.70775 0.15857 0.1949 0.0
C395 C 0.71989 0.16354 0.0601 0.0
H396 H 0.71312 0.17147 0.02411 0.0
H397 H 0.72124 0.15093 0.02746 0.0
H398 H 0.73651 0.17615 0.07948 0.0
O399 O 0.6404 0.12356 0.02576 0.0
O400 O 0.62448 0.11204 0.13375 0.0
H401 H 0.69111 0.16393 0.32238 0.0
H402 H 0.68605 0.13687 0.34314 0.0
C403 C 0.68184 0.14642 0.30482 0.0
H404 H 0.664 0.14071 0.30787 0.0
H405 H 0.61225 0.10899 0.28286 0.0
O406 O 0.68308 0.13171 0.94023 0.0
C407 C 0.62484 0.11946 0.07018 0.0
H408 H 0.25652 0.41991 0.01781 0.0
H409 H 0.19411 0.48592 0.93005 0.0
H410 H 0.26279 0.47291 0.1537 0.0
H411 H 0.16792 0.41816 0.86551 0.0
H412 H 0.22333 0.48416 -0.0016 0.0
H413 H 0.22714 0.4212 0.94894 0.0
C414 C 0.25144 0.43163 0.03346 0.0
C415 C 0.26174 0.44616 0.09162 0.0
C416 C 0.21118 0.46968 0.96932 0.0
C417 C 0.22882 0.44817 0.01245 0.0
C418 C 0.19459 0.47068 0.93043 0.0
C419 C 0.17844 0.45199 0.89382 0.0
C420 C 0.21184 0.44998 0.97004 0.0
C421 C 0.18006 0.43285 0.8937 0.0
C422 C 0.2348 0.4324 -0.00577 0.0
C423 C 0.25493 0.46126 0.10967 0.0
N424 N 0.19648 0.43229 0.93149 0.0
N425 N 0.23896 0.46203 0.06969 0.0
H426 H 0.72669 0.20249 0.1641 0.0
H427 H 0.82175 0.24151 0.46171 0.0
H428 H 0.73171 0.15635 0.30696 0.0
H429 H 0.79546 0.28255 0.39192 0.0
H430 H 0.79208 0.21038 0.39475 0.0
H431 H 0.75629 0.23306 0.23333 0.0
C432 C 0.73433 0.19889 0.20934 0.0
C433 C 0.72706 0.17707 0.22995 0.0
C434 C 0.79281 0.22621 0.39429 0.0
C435 C 0.76045 0.21157 0.30916 0.0
C436 C 0.8096 0.24385 0.43261 0.0
C437 C 0.81115 0.26457 0.43082 0.0
C438 C 0.77772 0.22952 0.35347 0.0
C439 C 0.79506 0.26689 0.39281 0.0
C440 C 0.75097 0.21623 0.24918 0.0
C441 C 0.73707 0.17307 0.28957 0.0
N442 N 0.77914 0.24963 0.35471 0.0
N443 N 0.75337 0.19018 0.32708 0.0
H444 H 0.57313 0.74935 0.52989 0.0
H445 H 0.52066 0.78741 0.8452 0.0
H446 H 0.51069 0.70531 0.63083 0.0
H447 H 0.56893 0.83294 0.69349 0.0
H448 H 0.51988 0.75664 0.77799 0.0
H449 H 0.57443 0.78023 0.59753 0.0
C450 C 0.55964 0.74629 0.56597 0.0
C451 C 0.54192 0.72487 0.57579 0.0
C452 C 0.53073 0.77339 0.75972 0.0
C453 C 0.54341 0.75975 0.65392 0.0
C454 C 0.53132 0.79086 0.79843 0.0
C455 C 0.54499 0.81256 0.77479 0.0
C456 C 0.54404 0.77781 0.69757 0.0
C457 C 0.55822 0.81633 0.71321 0.0
C458 C 0.56042 0.76381 0.60474 0.0
C459 C 0.52482 0.72161 0.623 0.0
N460 N 0.55747 0.79911 0.67671 0.0
N461 N 0.52607 0.73885 0.66096 0.0
H462 H 0.78616 0.52084 0.82496 0.0
H463 H 0.74927 0.57642 0.13317 0.0
H464 H 0.83258 0.57229 0.9665 0.0
H465 H 0.70502 0.51313 0.03767 0.0
H466 H 0.78003 0.57714 0.06647 0.0
H467 H 0.75575 0.52019 0.89359 0.0
C468 C 0.78987 0.53218 0.86993 0.0
C469 C 0.81174 0.54674 0.89013 0.0
C470 C 0.7636 0.56306 0.0603 0.0
C471 C 0.77734 0.54595 0.96913 0.0
C472 C 0.74614 0.56263 0.09849 0.0
C473 C 0.7247 0.54484 0.08981 0.0
C474 C 0.75943 0.54562 0.01292 0.0
C475 C 0.72135 0.52732 0.04453 0.0
C476 C 0.7726 0.53167 0.90948 0.0
C477 C 0.81584 0.56086 0.94947 0.0
N478 N 0.73851 0.52823 0.00713 0.0
N479 N 0.79878 0.56017 0.98689 0.0
H480 H 0.15299 0.73211 0.3351 0.0
H481 H 0.28344 0.80414 0.28633 0.0
H482 H 0.19884 0.73011 0.48735 0.0
H483 H 0.23862 0.82139 0.1845 0.0
H484 H 0.25232 0.77409 0.35113 0.0
H485 H 0.18392 0.76253 0.27076 0.0
C486 C 0.16963 0.73829 0.35515 0.0
C487 C 0.17352 0.72887 0.41662 0.0
C488 C 0.24928 0.78446 0.31472 0.0
C489 C 0.20884 0.7632 0.34305 0.0
C490 C 0.26698 0.80153 0.2778 0.0
C491 C 0.26349 0.81535 0.23119 0.0
C492 C 0.22792 0.78097 0.30385 0.0
C493 C 0.2419 0.81107 0.22036 0.0
C494 C 0.18721 0.75558 0.31856 0.0
C495 C 0.19526 0.73722 0.44058 0.0
N496 N 0.22486 0.79423 0.25658 0.0
N497 N 0.21219 0.75387 0.40336 0.0
H498 H 0.46767 0.2631 0.47992 0.0
H499 H 0.41469 0.17126 0.79089 0.0
H500 H 0.41977 0.26041 0.63313 0.0
H501 H 0.477 0.18973 0.68882 0.0
H502 H 0.41373 0.20145 0.72591 0.0
H503 H 0.46828 0.23285 0.54577 0.0
C504 C 0.45709 0.25589 0.52689 0.0
C505 C 0.44357 0.26401 0.55125 0.0
C506 C 0.42763 0.19892 0.71791 0.0
C507 C 0.44428 0.22983 0.62688 0.0
C508 C 0.42821 0.18181 0.75512 0.0
C509 C 0.44581 0.17798 0.74423 0.0
C510 C 0.44471 0.21207 0.6692 0.0
C511 C 0.46296 0.19201 0.69746 0.0
C512 C 0.45758 0.23884 0.56479 0.0
C513 C 0.4304 0.25448 0.61294 0.0
N514 N 0.4619 0.20833 0.66104 0.0
N515 N 0.43102 0.23782 0.64865 0.0
H516 H 0.47164 0.58969 0.49982 0.0
H517 H 0.39691 0.51884 0.16633 0.0
H518 H 0.48359 0.61316 0.27777 0.0
H519 H 0.37539 0.50453 0.39007 0.0
H520 H 0.42964 0.55268 0.20616 0.0
H521 H 0.43714 0.55748 0.46082 0.0
C522 C 0.46699 0.58811 0.44292 0.0
C523 C 0.48057 0.60413 0.39195 0.0
C524 C 0.41768 0.5422 0.24648 0.0
C525 C 0.44118 0.56726 0.347 0.0
C526 C 0.39901 0.52285 0.22383 0.0
C527 C 0.38339 0.50878 0.27497 0.0
C528 C 0.42093 0.54743 0.32092 0.0
C529 C 0.38697 0.51489 0.34872 0.0
C530 C 0.44726 0.56976 0.42077 0.0
C531 C 0.47365 0.60125 0.31899 0.0
N532 N 0.40546 0.53368 0.36956 0.0
N533 N 0.45452 0.58309 0.29863 0.0
H534 H 0.87289 0.47277 0.82184 0.0
H535 H 0.87355 0.39828 0.4957 0.0
H536 H 0.86187 0.4833 0.59764 0.0
H537 H 0.86598 0.37775 0.72066 0.0
H538 H 0.8705 0.43018 0.53211 0.0
H539 H 0.87146 0.43845 0.7862 0.0
C540 C 0.87005 0.46782 0.76518 0.0
C541 C 0.8676 0.481 0.71258 0.0
C542 C 0.86936 0.41862 0.57344 0.0
C543 C 0.86612 0.44182 0.67144 0.0
C544 C 0.87119 0.40044 0.55276 0.0
C545 C 0.87012 0.38536 0.60527 0.0
C546 C 0.86672 0.42194 0.64729 0.0
C547 C 0.8669 0.38895 0.67834 0.0
C548 C 0.86918 0.44819 0.74493 0.0
C549 C 0.86385 0.47368 0.64004 0.0
N550 N 0.8655 0.40698 0.69727 0.0
N551 N 0.86343 0.45468 0.62152 0.0
H552 H 0.46923 0.87193 0.83122 0.0
H553 H 0.39753 0.87639 0.16019 0.0
H554 H 0.48262 0.86498 0.05632 0.0
H555 H 0.37496 0.8656 0.93707 0.0
H556 H 0.42928 0.87311 0.12312 0.0
H557 H 0.43496 0.87035 0.86858 0.0
C558 C 0.46491 0.86994 0.88845 0.0
C559 C 0.4789 0.8687 0.94074 0.0
C560 C 0.4173 0.87131 0.08238 0.0
C561 C 0.43978 0.86707 0.98387 0.0
C562 C 0.3992 0.87326 0.10345 0.0
C563 C 0.3836 0.87138 0.0516 0.0
C564 C 0.41998 0.86772 0.0088 0.0
C565 C 0.38657 0.86718 0.97891 0.0
C566 C 0.44532 0.86899 0.90971 0.0
C567 C 0.47237 0.86601 0.01409 0.0
N568 N 0.40451 0.86568 0.95958 0.0
N569 N 0.45339 0.86549 0.03353 0.0
H570 H 0.61273 0.48594 0.38344 0.0
H571 H 0.50221 0.37794 0.25564 0.0
H572 H 0.58935 0.47485 0.16122 0.0
H573 H 0.51675 0.39899 0.47982 0.0
H574 H 0.53666 0.41071 0.21916 0.0
H575 H 0.58011 0.45133 0.41853 0.0
C576 C 0.60082 0.47618 0.3419 0.0
C577 C 0.60375 0.48338 0.26929 0.0
C578 C 0.5323 0.40808 0.27632 0.0
C579 C 0.56639 0.44371 0.30921 0.0
C580 C 0.5127 0.38935 0.29724 0.0
C581 C 0.50652 0.38576 0.3709 0.0
C582 C 0.54593 0.4232 0.32948 0.0
C583 C 0.52076 0.40115 0.42238 0.0
C584 C 0.58216 0.45646 0.36207 0.0
C585 C 0.58771 0.47002 0.2179 0.0
N586 N 0.53979 0.41918 0.40069 0.0
N587 N 0.56972 0.45082 0.23886 0.0
H588 H 0.11196 0.52039 0.8234 0.0
H589 H 0.11371 0.59366 0.48863 0.0
H590 H 0.12212 0.5075 0.60097 0.0
H591 H 0.12058 0.61527 0.71222 0.0
H592 H 0.11573 0.56145 0.52866 0.0
H593 H 0.11396 0.55466 0.7838 0.0
C594 C 0.11467 0.52478 0.76625 0.0
C595 C 0.11678 0.51098 0.71537 0.0
C596 C 0.11694 0.57331 0.5689 0.0
C597 C 0.11898 0.55016 0.66971 0.0
C598 C 0.11574 0.59169 0.54614 0.0
C599 C 0.11688 0.60716 0.59719 0.0
C600 C 0.11905 0.57021 0.64337 0.0
C601 C 0.11963 0.60378 0.67094 0.0
C602 C 0.11588 0.5444 0.74375 0.0
C603 C 0.12039 0.5176 0.64211 0.0
N604 N 0.12043 0.58557 0.69188 0.0
N605 N 0.12121 0.53664 0.62141 0.0
H606 H 0.59258 0.11937 0.15468 0.0
H607 H 0.51956 0.11666 0.81785 0.0
H608 H 0.61457 0.12597 0.93167 0.0
H609 H 0.50642 0.12717 0.0396 0.0
H610 H 0.55412 0.11935 0.85817 0.0
H611 H 0.56056 0.12158 0.11352 0.0
C612 C 0.59075 0.1214 0.09708 0.0
C613 C 0.60624 0.12237 0.04651 0.0
C614 C 0.54374 0.12123 0.89787 0.0
C615 C 0.56951 0.12474 -0.001 0.0
C616 C 0.52397 0.11963 0.87495 0.0
C617 C 0.50999 0.12158 0.92548 0.0
C618 C 0.54946 0.12454 0.97196 0.0
C619 C 0.51665 0.12554 -0.00129 0.0
C620 C 0.57248 0.12271 0.07364 0.0
C621 C 0.60305 0.12513 0.97259 0.0
N622 N 0.5358 0.1267 0.01983 0.0
N623 N 0.58493 0.12602 0.95099 0.0
H624 H 0.3541 0.39739 0.1558 0.0
H625 H 0.39606 0.35819 0.49262 0.0
H626 H 0.33515 0.40075 0.37718 0.0
H627 H 0.39704 0.33707 0.27231 0.0
H628 H 0.37221 0.3724 0.45224 0.0
H629 H 0.36843 0.37374 0.197 0.0
C630 C 0.35269 0.39294 0.21284 0.0
C631 C 0.34368 0.40132 0.26319 0.0
C632 C 0.37741 0.36437 0.41301 0.0
C633 C 0.36028 0.37452 0.31083 0.0
C634 C 0.39105 0.35628 0.43603 0.0
C635 C 0.39883 0.3467 0.38566 0.0
C636 C 0.37179 0.36314 0.33897 0.0
C637 C 0.39164 0.34452 0.31304 0.0
C638 C 0.36084 0.37941 0.23635 0.0
C639 C 0.34213 0.39485 0.33643 0.0
N640 N 0.37881 0.35299 0.29169 0.0
N641 N 0.35067 0.38213 0.35821 0.0
H642 H 0.03447 0.39961 0.83277 0.0
H643 H 0.95469 0.35857 0.49173 0.0
H644 H 0.05768 0.40203 0.61319 0.0
H645 H 0.9316 0.33843 0.71182 0.0
H646 H 0.9926 0.37327 0.53462 0.0
H647 H -0.00337 0.3758 0.7902 0.0
C648 C 0.03166 0.39492 0.77588 0.0
C649 C 0.04927 0.40309 0.7264 0.0
C650 C 0.97919 0.36535 0.5733 0.0
C651 C 0.00603 0.3761 0.67717 0.0
C652 C 0.95755 0.35698 0.54882 0.0
C653 C 0.93994 0.34751 0.59831 0.0
C654 C 0.98325 0.36452 0.64789 0.0
C655 C 0.94464 0.34577 0.67168 0.0
C656 C 0.01005 0.3813 0.75159 0.0
C657 C 0.04463 0.39632 0.6533 0.0
N658 N 0.96585 0.3545 0.6944 0.0
N659 N 0.02345 0.38351 0.63073 0.0
H660 H 0.62951 0.03633 0.16723 0.0
H661 H 0.58886 0.95455 0.83034 0.0
H662 H 0.6498 0.0582 0.94621 0.0
H663 H 0.58595 0.93269 0.05216 0.0
H664 H 0.61192 0.99271 0.87118 0.0
H665 H 0.61414 -0.00184 0.12651 0.0
C666 C 0.63096 0.03314 0.11037 0.0
C667 C 0.64075 0.05049 0.06 0.0
C668 C 0.60644 0.97951 0.91069 0.0
C669 C 0.62298 0.00688 0.01292 0.0
C670 C 0.59324 0.95773 0.8874 0.0
C671 C 0.58525 0.9404 0.93793 0.0
C672 C 0.61141 0.98396 0.9851 0.0
C673 C 0.59158 0.94551 0.01123 0.0
C674 C 0.62221 0.01135 0.08715 0.0
C675 C 0.64228 0.04536 0.98699 0.0
N676 N 0.60404 0.96683 0.03272 0.0
N677 N 0.63321 0.02402 0.96549 0.0
H678 H 0.5895 0.65544 0.28336 0.0
H679 H 0.65423 0.59189 0.38125 0.0
H680 H 0.59268 0.6331 0.5 0.0
H681 H 0.63235 0.59539 0.16414 0.0
H682 H 0.64001 0.6153 0.42489 0.0
H683 H 0.61343 0.64182 0.23994 0.0
C684 C 0.59546 0.64796 0.32215 0.0
C685 C 0.58876 0.6451 0.39539 0.0
C686 C 0.63857 0.61114 0.36758 0.0
C687 C 0.6162 0.62952 0.34564 0.0
C688 C 0.64674 0.59783 0.34242 0.0
C689 C 0.64417 0.59135 0.26897 0.0
C690 C 0.6279 0.61819 0.31896 0.0
C691 C 0.63445 0.59973 0.22133 0.0
C692 C 0.60908 0.64014 0.29711 0.0
C693 C 0.59719 0.63542 0.44298 0.0
N694 N 0.62649 0.61258 0.2473 0.0
N695 N 0.61034 0.6278 0.41712 0.0
H696 H 0.055 0.65609 0.69379 0.0
H697 H 0.92737 0.58671 0.58832 0.0
H698 H 0.0317 0.63016 0.47814 0.0
H699 H 0.95195 0.59452 0.80853 0.0
H700 H 0.96514 0.61009 0.54523 0.0
H701 H 0.01692 0.64121 0.73317 0.0
C702 C 0.04192 0.64752 0.65431 0.0
C703 C 0.04659 0.64409 0.58265 0.0
C704 C 0.96221 0.60685 0.60302 0.0
C705 C 0.00291 0.62702 0.62785 0.0
C706 C 0.94066 0.59357 0.62782 0.0
C707 C 0.93651 0.5884 0.70219 0.0
C708 C 0.97972 0.6152 0.65293 0.0
C709 C 0.9544 0.59786 0.75069 0.0
C710 C 0.02017 0.63898 0.67707 0.0
C711 C 0.02889 0.633 0.53405 0.0
N712 N 0.97524 0.61071 0.72514 0.0
N713 N 0.00778 0.62469 0.55773 0.0
H714 H 0.39961 0.03619 0.81018 0.0
H715 H 0.33085 0.93129 0.94396 0.0
H716 H 0.40149 0.05879 0.0303 0.0
H717 H 0.36435 0.959 0.14743 0.0
H718 H 0.34525 0.96842 0.89605 0.0
H719 H 0.37621 -0.00167 0.85131 0.0
C720 C 0.39475 0.03323 0.86689 0.0
C721 C 0.40264 0.05072 0.91683 0.0
C722 C 0.34959 0.96642 0.95096 0.0
C723 C 0.37554 0.00733 0.96443 0.0
C724 C 0.34117 0.94518 0.97879 0.0
C725 C 0.34676 0.94197 0.04948 0.0
C726 C 0.36384 0.98463 -0.00609 0.0
C727 C 0.35986 0.96066 0.09233 0.0
C728 C 0.38119 0.01156 0.89035 0.0
C729 C 0.39585 0.04585 0.9898 0.0
N730 N 0.3681 0.9812 0.06362 0.0
N731 N 0.38297 0.02459 0.01158 0.0
H732 H 0.29625 0.45691 0.50343 0.0
H733 H 0.33051 0.41171 0.84962 0.0
H734 H 0.29249 0.39346 0.5079 0.0
H735 H 0.33979 0.47723 0.82943 0.0
H736 H 0.31068 0.40185 0.73289 0.0
H737 H 0.30471 0.46105 0.63314 0.0
C738 C 0.29672 0.44362 0.53211 0.0
C739 C 0.29413 0.42504 0.49459 0.0
C740 C 0.31696 0.41833 0.7544 0.0
C741 C 0.30438 0.42989 0.64259 0.0
C742 C 0.32828 0.42394 0.82078 0.0
C743 C 0.33692 0.44533 0.84868 0.0
C744 C 0.31427 0.43425 0.71624 0.0
C745 C 0.33372 0.46065 0.80919 0.0
C746 C 0.30172 0.44605 0.60609 0.0
C747 C 0.29462 0.40819 0.5346 0.0
N748 N 0.3227 0.45482 0.74502 0.0
N749 N 0.30015 0.41121 0.60632 0.0
H750 H 0.91766 0.33529 0.18169 0.0
H751 H 0.83691 0.29817 0.83816 0.0
H752 H 0.85943 0.34135 0.16441 0.0
H753 H 0.89793 0.29687 0.84021 0.0
H754 H 0.84136 0.30665 0.96784 0.0
H755 H 0.90807 0.31549 0.06485 0.0
C756 C 0.90285 0.33237 0.15342 0.0
C757 C 0.88942 0.34011 0.18213 0.0
C758 C 0.85364 0.30419 0.94029 0.0
C759 C 0.87827 0.31747 0.04972 0.0
C760 C 0.851 0.29918 0.86633 0.0
C761 C 0.86729 0.29726 0.82816 0.0
C762 C 0.87284 0.30756 0.9761 0.0
C763 C 0.88508 0.29845 0.86747 0.0
C764 C 0.89735 0.32106 0.08703 0.0
C765 C 0.87046 0.33601 0.1435 0.0
N766 N 0.88764 0.30399 0.93918 0.0
N767 N 0.86549 0.32502 0.07933 0.0
H768 H 0.59449 0.90929 0.15259 0.0
H769 H 0.55818 0.86708 0.55429 0.0
H770 H 0.546 0.84119 0.19337 0.0
H771 H 0.55236 0.92163 0.47199 0.0
H772 H 0.56847 0.86125 0.4326 0.0
H773 H 0.5939 0.91732 0.2823 0.0
C774 C 0.5843 0.89589 0.18927 0.0
C775 C 0.57023 0.87452 0.16269 0.0
C776 C 0.5654 0.87477 0.4419 0.0
C777 C 0.56978 0.88361 0.3098 0.0
C778 C 0.55966 0.87821 0.5112 0.0
C779 C 0.55454 0.89494 0.52305 0.0
C780 C 0.56653 0.8885 0.38483 0.0
C781 C 0.55626 0.90861 0.46475 0.0
C782 C 0.58386 0.90055 0.26277 0.0
C783 C 0.55705 0.85783 0.2121 0.0
N784 N 0.5622 0.90513 0.39775 0.0
N785 N 0.55711 0.86273 0.2837 0.0
H786 H 0.6144 0.52637 0.79178 0.0
H787 H 0.70579 0.59939 0.51135 0.0
H788 H 0.67706 0.57618 0.8793 0.0
H789 H 0.67041 0.52814 0.5009 0.0
H790 H 0.69322 0.59697 0.63796 0.0
H791 H 0.63107 0.53352 0.67075 0.0
C792 C 0.63146 0.53924 0.78537 0.0
C793 C 0.64421 0.55083 0.84586 0.0
C794 C 0.68859 0.58199 0.60771 0.0
C795 C 0.66329 0.55893 0.70803 0.0
C796 C 0.69582 0.5833 0.53593 0.0
C797 C 0.68888 0.56394 0.49506 0.0
C798 C 0.67399 0.56126 0.63733 0.0
C799 C 0.67599 0.54353 0.52975 0.0
C800 C 0.64095 0.54315 0.71659 0.0
C801 C 0.66633 0.56726 0.83434 0.0
N802 N 0.66855 0.54274 0.59832 0.0
N803 N 0.67525 0.57082 0.76649 0.0
H804 H 0.13039 0.65205 0.15571 0.0
H805 H 0.08906 0.69675 0.82931 0.0
H806 H 0.07145 0.65698 0.16735 0.0
H807 H 0.14883 0.69308 0.82563 0.0
H808 H 0.0854 0.68834 0.95944 0.0
H809 H 0.13966 0.67167 0.04028 0.0
C810 C 0.11931 0.65717 0.13353 0.0
C811 C 0.09999 0.65268 0.17043 0.0
C812 C 0.09954 0.68981 0.93043 0.0
C813 C 0.11058 0.67537 0.03834 0.0
C814 C 0.10176 0.6948 0.85622 0.0
C815 C 0.11903 0.69512 0.81633 0.0
C816 C 0.1147 0.68513 0.96452 0.0
C817 C 0.13502 0.69256 0.85405 0.0
C818 C 0.12473 0.6686 0.06797 0.0
C819 C 0.08649 0.66013 0.14029 0.0
N820 N 0.13226 0.6873 0.92579 0.0
N821 N 0.09193 0.67096 0.0754 0.0
H822 H 0.41558 0.0977 0.53527 0.0
H823 H 0.46279 0.14605 0.15338 0.0
H824 H 0.47054 0.09435 0.44223 0.0
H825 H 0.39261 0.10032 0.16495 0.0
H826 H 0.4664 0.13726 0.27913 0.0
H827 H 0.4067 0.10574 0.41468 0.0
C828 C 0.4253 0.09774 0.48959 0.0
C829 C 0.4436 0.09475 0.49897 0.0
C830 C 0.4502 0.12946 0.25419 0.0
C831 C 0.43438 0.10566 0.36257 0.0
C832 C 0.44803 0.13457 0.18274 0.0
C833 C 0.42741 0.12348 0.14794 0.0
C834 C 0.4316 0.11355 0.2916 0.0
C835 C 0.40886 0.109 0.1894 0.0
C836 C 0.42039 0.10278 0.421 0.0
C837 C 0.45625 0.09641 0.43758 0.0
N838 N 0.4114 0.10423 0.25934 0.0
N839 N 0.45162 0.10212 0.37219 0.0
H840 H 0.59616 0.70569 0.15102 0.0
H841 H 0.52178 0.61429 0.87132 0.0
H842 H 0.52494 0.67061 0.16339 0.0
H843 H 0.57286 0.67636 0.78453 0.0
H844 H 0.52901 0.63102 -0.00771 0.0
H845 H 0.59335 0.69283 0.02461 0.0
C846 C 0.57999 0.69572 0.1269 0.0
C847 C 0.56076 0.68897 0.16826 0.0
C848 C 0.53888 0.64076 0.94665 0.0
C849 C 0.55762 0.67374 0.02615 0.0
C850 C 0.53493 0.63122 0.87789 0.0
C851 C 0.54688 0.64379 0.8176 0.0
C852 C 0.55507 0.66295 0.95541 0.0
C853 C 0.56366 0.66575 0.82933 0.0
C854 C 0.57846 0.68832 0.05523 0.0
C855 C 0.54023 0.67606 0.13415 0.0
N856 N 0.56726 0.67471 0.89715 0.0
N857 N 0.53922 0.66847 0.06565 0.0
H858 H 0.88528 0.57604 0.09311 0.0
H859 H 0.8435 0.52584 0.47545 0.0
H860 H 0.90109 0.52892 0.18659 0.0
H861 H 0.88132 0.59706 0.46624 0.0
H862 H 0.8533 0.52436 0.34915 0.0
H863 H 0.87559 0.58282 0.21404 0.0
C864 C 0.88755 0.56767 0.1387 0.0
C865 C 0.89449 0.55209 0.12925 0.0
C866 C 0.8591 0.54028 0.37475 0.0
C867 C 0.88183 0.55879 0.26643 0.0
C868 C 0.85339 0.5412 0.44652 0.0
C869 C 0.86204 0.56163 0.48205 0.0
C870 C 0.87308 0.55986 0.33779 0.0
C871 C 0.87457 0.58097 0.44116 0.0
C872 C 0.8816 0.57135 0.20763 0.0
C873 C 0.89586 0.54105 0.19104 0.0
N874 N 0.87995 0.57964 0.37087 0.0
N875 N 0.8892 0.54431 0.2568 0.0
H876 H 0.31306 0.89627 0.43869 0.0
H877 H 0.31432 0.84843 0.81965 0.0
H878 H 0.37238 0.90141 0.53009 0.0
H879 H 0.28652 0.89132 0.80822 0.0
H880 H 0.32703 0.85815 0.69455 0.0
H881 H 0.29642 0.88782 0.55969 0.0
C882 C 0.32299 0.89652 0.48409 0.0
C883 C 0.34447 0.90007 0.47406 0.0
C884 C 0.31786 0.86514 0.71938 0.0
C885 C 0.32472 0.88876 0.61103 0.0
C886 C 0.31039 0.85948 0.79046 0.0
C887 C 0.29974 0.86947 0.82511 0.0
C888 C 0.31424 0.88049 0.68209 0.0
C889 C 0.29492 0.88347 0.78386 0.0
C890 C 0.31323 0.89127 0.55294 0.0
C891 C 0.35586 0.89887 0.53518 0.0
N892 N 0.3024 0.88877 0.71424 0.0
N893 N 0.34571 0.89294 0.60082 0.0
H894 H 0.47584 0.34082 0.81253 0.0
H895 H 0.38972 0.29428 0.13813 0.0
H896 H 0.41118 0.33404 0.80001 0.0
H897 H 0.45391 0.29964 0.14239 0.0
H898 H 0.39433 0.30268 0.00799 0.0
H899 H 0.46584 0.32118 0.92793 0.0
C900 C 0.45953 0.33528 0.83451 0.0
C901 C 0.44437 0.33926 0.79736 0.0
C902 C 0.40721 0.30159 0.03713 0.0
C903 C 0.43268 0.31654 0.92941 0.0
C904 C 0.40452 0.29661 0.11134 0.0
C905 C 0.4217 0.29677 0.1514 0.0
C906 C 0.4272 0.30675 0.0032 0.0
C907 C 0.44044 0.29979 0.11384 0.0
C908 C 0.45373 0.32384 0.90005 0.0
C909 C 0.42331 0.33129 0.82725 0.0
N910 N 0.44285 0.30503 0.0421 0.0
N911 N 0.41812 0.32045 0.89213 0.0
H912 H 0.15212 0.45906 0.48588 0.0
H913 H 0.07204 0.41381 0.14092 0.0
H914 H 0.09225 0.39572 0.48262 0.0
H915 H 0.12867 0.47915 0.15999 0.0
H916 H 0.08203 0.404 0.25777 0.0
H917 H 0.14757 0.4631 0.35627 0.0
C918 C 0.13827 0.44577 0.45748 0.0
C919 C 0.12231 0.42725 0.49531 0.0
C920 C 0.09231 0.42043 0.23599 0.0
C921 C 0.11664 0.43199 0.34742 0.0
C922 C 0.08659 0.42602 0.16957 0.0
C923 C 0.09945 0.44735 0.14132 0.0
C924 C 0.11104 0.43631 0.2738 0.0
C925 C 0.11807 0.46262 0.1805 0.0
C926 C 0.13557 0.44814 0.38355 0.0
C927 C 0.10483 0.4104 0.45565 0.0
N928 N 0.12327 0.45681 0.24468 0.0
N929 N 0.1022 0.41337 0.38399 0.0
H930 H 0.65467 0.07398 0.47283 0.0
H931 H 0.69287 0.15357 0.81923 0.0
H932 H 0.64906 0.13238 0.49346 0.0
H933 H 0.69262 0.09178 0.8146 0.0
H934 H 0.68433 0.14965 0.68958 0.0
H935 H 0.67445 0.08296 0.58958 0.0
C936 C 0.6577 0.08871 0.50178 0.0
C937 C 0.65012 0.10238 0.47398 0.0
C938 C 0.68646 0.13709 0.71659 0.0
C939 C 0.67272 0.11281 0.60645 0.0
C940 C 0.6915 0.13941 0.79053 0.0
C941 C 0.69299 0.12276 0.82799 0.0
C942 C 0.68265 0.11786 0.68007 0.0
C943 C 0.69136 0.10491 0.78795 0.0
C944 C 0.66899 0.09385 0.56817 0.0
C945 C 0.6543 0.12119 0.51363 0.0
N946 N 0.68582 0.10268 0.71627 0.0
N947 N 0.66528 0.12582 0.57781 0.0
loop_
_geom_bond_atom_site_label_1
_geom_bond_atom_site_label_2
_geom_bond_distance
_geom_bond_site_symmetry_2
_ccdc_geom_bond_type
Co0 O3 1.970 . S
Co0 N17 1.989 . S
Co0 O25 1.967 . S
Co0 O32 1.920 . S
Co1 O4 1.966 . S
Co1 N10 2.022 . S
Co1 N18 1.993 . S
Co1 O26 1.941 . S
C2 O3 1.258 . S
C2 O4 1.263 . S
O3 Co0 1.970 . S
O3 C2 1.258 . S
O4 Co1 1.966 . S
O4 C2 1.263 . S
C5 O6 1.235 . S
C5 O32 1.289 . S
O6 C5 1.235 . S
C7 C9 1.400 . S
C7 N10 1.351 1_556 S
C7 C12 1.497 1_556 S
C8 C9 1.387 . S
C8 N11 1.341 . S
C9 C7 1.400 . S
C9 C8 1.387 . S
N10 Co1 2.022 . S
N10 C7 1.351 1_554 S
N10 N11 1.365 1_554 S
N11 C8 1.341 . S
N11 N10 1.365 1_556 S
N11 H31 0.862 . S
C12 C7 1.497 1_554 S
C12 H13 0.972 . S
C12 H14 0.959 1_554 S
C12 H15 0.955 1_554 S
H13 C12 0.972 . S
H14 C12 0.959 1_556 S
H15 C12 0.955 1_556 S
C16 N17 1.342 . S
C16 C20 1.401 . S
C16 C21 1.499 . S
N17 Co0 1.989 . S
N17 C16 1.342 . S
N17 N18 1.388 . S
N18 Co1 1.993 . S
N18 N17 1.388 . S
N18 C19 1.346 . S
C19 N18 1.346 . S
C19 C20 1.396 . S
C19 C29 1.510 . S
C20 C16 1.401 . S
C20 C19 1.396 . S
C21 C16 1.499 . S
C21 H22 0.959 . S
C21 H23 0.960 . S
C21 H24 0.961 . S
H22 C21 0.959 . S
H23 C21 0.960 . S
H24 C21 0.961 . S
O25 Co0 1.967 . S
O25 C33 1.258 . S
O26 Co1 1.941 . S
O26 C33 1.266 . S
H27 C29 0.959 . S
H28 C29 0.961 . S
C29 C19 1.510 . S
C29 H27 0.959 . S
C29 H28 0.961 . S
C29 H30 0.960 . S
H30 C29 0.960 . S
H31 N11 0.862 . S
O32 Co0 1.920 . S
O32 C5 1.289 . S
C33 O25 1.258 . S
C33 O26 1.266 . S
Co34 O37 1.970 . S
Co34 N51 1.989 . S
Co34 O59 1.967 . S
Co34 O66 1.920 . S
Co35 O38 1.966 . S
Co35 N44 2.022 . S
Co35 N52 1.993 . S
Co35 O60 1.941 . S
C36 O37 1.258 . S
C36 O38 1.263 . S
O37 Co34 1.970 . S
O37 C36 1.258 . S
O38 Co35 1.966 . S
O38 C36 1.263 . S
C39 O40 1.235 . S
C39 O66 1.289 . S
O40 C39 1.235 . S
C41 C43 1.400 . S
C41 N44 1.351 . S
C41 C46 1.501 . S
C42 C43 1.387 . S
C42 N45 1.341 . S
C43 C41 1.400 . S
C43 C42 1.387 . S
N44 Co35 2.022 . S
N44 C41 1.351 . S
N44 N45 1.365 . S
N45 C42 1.341 . S
N45 N44 1.365 . S
N45 H65 0.862 . S
C46 C41 1.501 . S
C46 H47 0.961 . S
C46 H48 0.961 . S
C46 H49 0.960 . S
H47 C46 0.961 . S
H48 C46 0.961 . S
H49 C46 0.960 . S
C50 N51 1.342 . S
C50 C54 1.401 . S
C50 C55 1.499 . S
N51 Co34 1.989 . S
N51 C50 1.342 . S
N51 N52 1.388 . S
N52 Co35 1.993 . S
N52 N51 1.388 . S
N52 C53 1.346 . S
C53 N52 1.346 . S
C53 C54 1.396 . S
C53 C63 1.510 . S
C54 C50 1.401 . S
C54 C53 1.396 . S
C55 C50 1.499 . S
C55 H56 0.959 . S
C55 H57 0.960 . S
C55 H58 0.961 . S
H56 C55 0.959 . S
H57 C55 0.960 . S
H58 C55 0.961 . S
O59 Co34 1.967 . S
O59 C67 1.258 . S
O60 Co35 1.941 . S
O60 C67 1.266 . S
H61 C63 0.959 . S
H62 C63 0.961 . S
C63 C53 1.510 . S
C63 H61 0.959 . S
C63 H62 0.961 . S
C63 H64 0.960 . S
H64 C63 0.960 . S
H65 N45 0.862 . S
O66 Co34 1.920 . S
O66 C39 1.289 . S
C67 O59 1.258 . S
C67 O60 1.266 . S
Co68 O71 1.970 . S
Co68 N85 1.989 . S
Co68 O93 1.967 . S
Co68 O100 1.920 1_556 S
Co69 O72 1.966 . S
Co69 N78 2.022 . S
Co69 N86 1.993 . S
Co69 O94 1.941 . S
C70 O71 1.258 . S
C70 O72 1.263 . S
O71 Co68 1.970 . S
O71 C70 1.258 . S
O72 Co69 1.966 . S
O72 C70 1.263 . S
C73 O74 1.235 . S
C73 O100 1.289 . S
O74 C73 1.235 . S
C75 C77 1.400 . S
C75 N78 1.351 . S
C75 C80 1.501 . S
C76 C77 1.387 . S
C76 N79 1.341 . S
C77 C75 1.400 . S
C77 C76 1.387 . S
N78 Co69 2.022 . S
N78 C75 1.351 . S
N78 N79 1.365 . S
N79 C76 1.341 . S
N79 N78 1.365 . S
N79 H99 0.862 . S
C80 C75 1.501 . S
C80 H81 0.961 . S
C80 H82 0.961 . S
C80 H83 0.960 . S
H81 C80 0.961 . S
H82 C80 0.961 . S
H83 C80 0.960 . S
C84 N85 1.342 . S
C84 C88 1.401 . S
C84 C89 1.499 . S
N85 Co68 1.989 . S
N85 C84 1.342 . S
N85 N86 1.388 . S
N86 Co69 1.993 . S
N86 N85 1.388 . S
N86 C87 1.346 . S
C87 N86 1.346 . S
C87 C88 1.396 . S
C87 C97 1.510 . S
C88 C84 1.401 . S
C88 C87 1.396 . S
C89 C84 1.499 . S
C89 H90 0.959 1_556 S
C89 H91 0.960 . S
C89 H92 0.961 . S
H90 C89 0.959 1_554 S
H91 C89 0.960 . S
H92 C89 0.961 . S
O93 Co68 1.967 . S
O93 C101 1.258 . S
O94 Co69 1.941 . S
O94 C101 1.266 . S
H95 C97 0.959 . S
H96 C97 0.961 . S
C97 C87 1.510 . S
C97 H95 0.959 . S
C97 H96 0.961 . S
C97 H98 0.960 . S
H98 C97 0.960 . S
H99 N79 0.862 . S
O100 Co68 1.920 1_554 S
O100 C73 1.289 . S
C101 O93 1.258 . S
C101 O94 1.266 . S
Co102 O105 1.970 . S
Co102 N119 1.989 . S
Co102 O127 1.967 . S
Co102 O134 1.920 . S
Co103 O106 1.966 . S
Co103 N112 2.022 . S
Co103 N120 1.993 . S
Co103 O128 1.941 . S
C104 O105 1.258 . S
C104 O106 1.263 . S
O105 Co102 1.970 . S
O105 C104 1.258 . S
O106 Co103 1.966 . S
O106 C104 1.263 . S
C107 O108 1.235 . S
C107 O134 1.289 . S
O108 C107 1.235 . S
C109 C111 1.400 . S
C109 N112 1.351 1_556 S
C109 C114 1.497 1_556 S
C110 C111 1.387 . S
C110 N113 1.341 . S
C111 C109 1.400 . S
C111 C110 1.387 . S
N112 Co103 2.022 . S
N112 C109 1.351 1_554 S
N112 N113 1.365 1_554 S
N113 C110 1.341 . S
N113 N112 1.365 1_556 S
N113 H133 0.862 . S
C114 C109 1.497 1_554 S
C114 H115 0.972 . S
C114 H116 0.959 1_554 S
C114 H117 0.955 1_554 S
H115 C114 0.972 . S
H116 C114 0.959 1_556 S
H117 C114 0.955 1_556 S
C118 N119 1.342 . S
C118 C122 1.401 . S
C118 C123 1.499 . S
N119 Co102 1.989 . S
N119 C118 1.342 . S
N119 N120 1.388 . S
N120 Co103 1.993 . S
N120 N119 1.388 . S
N120 C121 1.346 . S
C121 N120 1.346 . S
C121 C122 1.396 . S
C121 C131 1.510 . S
C122 C118 1.401 . S
C122 C121 1.396 . S
C123 C118 1.499 . S
C123 H124 0.959 . S
C123 H125 0.960 . S
C123 H126 0.961 . S
H124 C123 0.959 . S
H125 C123 0.960 . S
H126 C123 0.961 . S
O127 Co102 1.967 . S
O127 C135 1.258 . S
O128 Co103 1.941 . S
O128 C135 1.266 . S
H129 C131 0.959 . S
H130 C131 0.961 . S
C131 C121 1.510 . S
C131 H129 0.959 . S
C131 H130 0.961 . S
C131 H132 0.960 . S
H132 C131 0.960 . S
H133 N113 0.862 . S
O134 Co102 1.920 . S
O134 C107 1.289 . S
C135 O127 1.258 . S
C135 O128 1.266 . S
Co136 O139 1.970 . S
Co136 N153 1.989 . S
Co136 O161 1.967 . S
Co136 O168 1.920 . S
Co137 O140 1.966 . S
Co137 N146 2.022 . S
Co137 N154 1.993 . S
Co137 O162 1.941 . S
C138 O139 1.258 . S
C138 O140 1.263 . S
O139 Co136 1.970 . S
O139 C138 1.258 . S
O140 Co137 1.966 . S
O140 C138 1.263 . S
C141 O142 1.235 . S
C141 O168 1.289 . S
O142 C141 1.235 . S
C143 C145 1.400 . S
C143 N146 1.351 . S
C143 C148 1.501 . S
C144 C145 1.387 . S
C144 N147 1.341 . S
C145 C143 1.400 . S
C145 C144 1.387 . S
N146 Co137 2.022 . S
N146 C143 1.351 . S
N146 N147 1.365 . S
N147 C144 1.341 . S
N147 N146 1.365 . S
N147 H167 0.862 . S
C148 C143 1.501 . S
C148 H149 0.961 . S
C148 H150 0.961 . S
C148 H151 0.960 . S
H149 C148 0.961 . S
H150 C148 0.961 . S
H151 C148 0.960 . S
C152 N153 1.342 . S
C152 C156 1.401 . S
C152 C157 1.499 . S
N153 Co136 1.989 . S
N153 C152 1.342 . S
N153 N154 1.388 . S
N154 Co137 1.993 . S
N154 N153 1.388 . S
N154 C155 1.346 . S
C155 N154 1.346 . S
C155 C156 1.396 . S
C155 C165 1.510 . S
C156 C152 1.401 . S
C156 C155 1.396 . S
C157 C152 1.499 . S
C157 H158 0.959 . S
C157 H159 0.960 . S
C157 H160 0.961 . S
H158 C157 0.959 . S
H159 C157 0.960 . S
H160 C157 0.961 . S
O161 Co136 1.967 . S
O161 C169 1.258 . S
O162 Co137 1.941 . S
O162 C169 1.266 . S
H163 C165 0.959 . S
H164 C165 0.961 . S
C165 C155 1.510 . S
C165 H163 0.959 . S
C165 H164 0.961 . S
C165 H166 0.960 . S
H166 C165 0.960 . S
H167 N147 0.862 . S
O168 Co136 1.920 . S
O168 C141 1.289 . S
C169 O161 1.258 . S
C169 O162 1.266 . S
Co170 O173 1.970 . S
Co170 N187 1.989 . S
Co170 O195 1.967 . S
Co170 O202 1.920 1_556 S
Co171 O174 1.966 . S
Co171 N180 2.022 . S
Co171 N188 1.993 . S
Co171 O196 1.941 . S
C172 O173 1.258 . S
C172 O174 1.263 . S
O173 Co170 1.970 . S
O173 C172 1.258 . S
O174 Co171 1.966 . S
O174 C172 1.263 . S
C175 O176 1.235 . S
C175 O202 1.289 . S
O176 C175 1.235 . S
C177 C179 1.400 . S
C177 N180 1.351 . S
C177 C182 1.501 . S
C178 C179 1.387 . S
C178 N181 1.341 . S
C179 C177 1.400 . S
C179 C178 1.387 . S
N180 Co171 2.022 . S
N180 C177 1.351 . S
N180 N181 1.365 . S
N181 C178 1.341 . S
N181 N180 1.365 . S
N181 H201 0.862 . S
C182 C177 1.501 . S
C182 H183 0.961 . S
C182 H184 0.961 . S
C182 H185 0.960 . S
H183 C182 0.961 . S
H184 C182 0.961 . S
H185 C182 0.960 . S
C186 N187 1.342 . S
C186 C190 1.401 . S
C186 C191 1.499 . S
N187 Co170 1.989 . S
N187 C186 1.342 . S
N187 N188 1.388 . S
N188 Co171 1.993 . S
N188 N187 1.388 . S
N188 C189 1.346 . S
C189 N188 1.346 . S
C189 C190 1.396 . S
C189 C199 1.510 . S
C190 C186 1.401 . S
C190 C189 1.396 . S
C191 C186 1.499 . S
C191 H192 0.959 1_556 S
C191 H193 0.960 . S
C191 H194 0.961 . S
H192 C191 0.959 1_554 S
H193 C191 0.960 . S
H194 C191 0.961 . S
O195 Co170 1.967 . S
O195 C203 1.258 . S
O196 Co171 1.941 . S
O196 C203 1.266 . S
H197 C199 0.959 . S
H198 C199 0.961 . S
C199 C189 1.510 . S
C199 H197 0.959 . S
C199 H198 0.961 . S
C199 H200 0.960 . S
H200 C199 0.960 . S
H201 N181 0.862 . S
O202 Co170 1.920 1_554 S
O202 C175 1.289 . S
C203 O195 1.258 . S
C203 O196 1.266 . S
Co204 O207 1.970 . S
Co204 N221 1.989 . S
Co204 O229 1.967 . S
Co204 O236 1.920 . S
Co205 O208 1.966 . S
Co205 N214 2.022 . S
Co205 N222 1.993 . S
Co205 O230 1.941 . S
C206 O207 1.258 . S
C206 O208 1.263 . S
O207 Co204 1.970 . S
O207 C206 1.258 . S
O208 Co205 1.966 . S
O208 C206 1.263 . S
C209 O210 1.235 . S
C209 O236 1.289 . S
O210 C209 1.235 . S
C211 C213 1.400 . S
C211 N214 1.351 . S
C211 C216 1.501 . S
C212 C213 1.387 . S
C212 N215 1.341 . S
C213 C211 1.400 . S
C213 C212 1.387 . S
N214 Co205 2.022 . S
N214 C211 1.351 . S
N214 N215 1.365 . S
N215 C212 1.341 . S
N215 N214 1.365 . S
N215 H235 0.862 . S
C216 C211 1.501 . S
C216 H217 0.961 . S
C216 H218 0.961 . S
C216 H219 0.960 . S
H217 C216 0.961 . S
H218 C216 0.961 . S
H219 C216 0.960 . S
C220 N221 1.342 . S
C220 C224 1.401 . S
C220 C225 1.499 . S
N221 Co204 1.989 . S
N221 C220 1.342 . S
N221 N222 1.388 . S
N222 Co205 1.993 . S
N222 N221 1.388 . S
N222 C223 1.346 . S
C223 N222 1.346 . S
C223 C224 1.396 . S
C223 C233 1.510 . S
C224 C220 1.401 . S
C224 C223 1.396 . S
C225 C220 1.499 . S
C225 H226 0.959 . S
C225 H227 0.960 . S
C225 H228 0.961 . S
H226 C225 0.959 . S
H227 C225 0.960 . S
H228 C225 0.961 . S
O229 Co204 1.967 . S
O229 C237 1.258 . S
O230 Co205 1.941 . S
O230 C237 1.266 . S
H231 C233 0.959 . S
H232 C233 0.961 . S
C233 C223 1.510 . S
C233 H231 0.959 . S
C233 H232 0.961 . S
C233 H234 0.960 . S
H234 C233 0.960 . S
H235 N215 0.862 . S
O236 Co204 1.920 . S
O236 C209 1.289 . S
C237 O229 1.258 . S
C237 O230 1.266 . S
Co238 O241 1.970 . S
Co238 N255 1.989 . S
Co238 O263 1.967 . S
Co238 O270 1.920 . S
Co239 O242 1.966 . S
Co239 N248 2.022 . S
Co239 N256 1.993 . S
Co239 O264 1.941 . S
C240 O241 1.258 . S
C240 O242 1.263 . S
O241 Co238 1.970 . S
O241 C240 1.258 . S
O242 Co239 1.966 . S
O242 C240 1.263 . S
C243 O244 1.235 . S
C243 O270 1.289 . S
O244 C243 1.235 . S
C245 C247 1.400 . S
C245 N248 1.351 1_554 S
C245 C250 1.497 1_554 S
C246 C247 1.387 . S
C246 N249 1.341 . S
C247 C245 1.400 . S
C247 C246 1.387 . S
N248 Co239 2.022 . S
N248 C245 1.351 1_556 S
N248 N249 1.365 1_556 S
N249 C246 1.341 . S
N249 N248 1.365 1_554 S
N249 H269 0.862 . S
C250 C245 1.497 1_556 S
C250 H251 0.972 . S
C250 H252 0.959 1_556 S
C250 H253 0.955 1_556 S
H251 C250 0.972 . S
H252 C250 0.959 1_554 S
H253 C250 0.955 1_554 S
C254 N255 1.342 . S
C254 C258 1.401 . S
C254 C259 1.499 . S
N255 Co238 1.989 . S
N255 C254 1.342 . S
N255 N256 1.388 . S
N256 Co239 1.993 . S
N256 N255 1.388 . S
N256 C257 1.346 . S
C257 N256 1.346 . S
C257 C258 1.396 . S
C257 C267 1.510 . S
C258 C254 1.401 . S
C258 C257 1.396 . S
C259 C254 1.499 . S
C259 H260 0.959 . S
C259 H261 0.960 . S
C259 H262 0.961 . S
H260 C259 0.959 . S
H261 C259 0.960 . S
H262 C259 0.961 . S
O263 Co238 1.967 . S
O263 C271 1.258 . S
O264 Co239 1.941 . S
O264 C271 1.266 . S
H265 C267 0.959 . S
H266 C267 0.961 . S
C267 C257 1.510 . S
C267 H265 0.959 . S
C267 H266 0.961 . S
C267 H268 0.960 . S
H268 C267 0.960 . S
H269 N249 0.862 . S
O270 Co238 1.920 . S
O270 C243 1.289 . S
C271 O263 1.258 . S
C271 O264 1.266 . S
Co272 O275 1.970 . S
Co272 N289 1.989 . S
Co272 O297 1.967 . S
Co272 O304 1.920 1_554 S
Co273 O276 1.966 . S
Co273 N282 2.022 . S
Co273 N290 1.993 . S
Co273 O298 1.941 . S
C274 O275 1.258 . S
C274 O276 1.263 . S
O275 Co272 1.970 . S
O275 C274 1.258 . S
O276 Co273 1.966 . S
O276 C274 1.263 . S
C277 O278 1.235 . S
C277 O304 1.289 . S
O278 C277 1.235 . S
C279 C281 1.400 . S
C279 N282 1.351 . S
C279 C284 1.501 . S
C280 C281 1.387 . S
C280 N283 1.341 . S
C281 C279 1.400 . S
C281 C280 1.387 . S
N282 Co273 2.022 . S
N282 C279 1.351 . S
N282 N283 1.365 . S
N283 C280 1.341 . S
N283 N282 1.365 . S
N283 H303 0.862 . S
C284 C279 1.501 . S
C284 H285 0.961 . S
C284 H286 0.961 . S
C284 H287 0.960 . S
H285 C284 0.961 . S
H286 C284 0.961 . S
H287 C284 0.960 . S
C288 N289 1.342 . S
C288 C292 1.401 . S
C288 C293 1.499 . S
N289 Co272 1.989 . S
N289 C288 1.342 . S
N289 N290 1.388 . S
N290 Co273 1.993 . S
N290 N289 1.388 . S
N290 C291 1.346 . S
C291 N290 1.346 . S
C291 C292 1.396 . S
C291 C301 1.510 . S
C292 C288 1.401 . S
C292 C291 1.396 . S
C293 C288 1.499 . S
C293 H294 0.959 1_554 S
C293 H295 0.960 . S
C293 H296 0.961 . S
H294 C293 0.959 1_556 S
H295 C293 0.960 . S
H296 C293 0.961 . S
O297 Co272 1.967 . S
O297 C305 1.258 . S
O298 Co273 1.941 . S
O298 C305 1.266 . S
H299 C301 0.959 . S
H300 C301 0.961 . S
C301 C291 1.510 . S
C301 H299 0.959 . S
C301 H300 0.961 . S
C301 H302 0.960 . S
H302 C301 0.960 . S
H303 N283 0.862 . S
O304 Co272 1.920 1_556 S
O304 C277 1.289 . S
C305 O297 1.258 . S
C305 O298 1.266 . S
Co306 O309 1.970 . S
Co306 N323 1.989 . S
Co306 O331 1.967 . S
Co306 O338 1.920 . S
Co307 O310 1.966 . S
Co307 N316 2.022 . S
Co307 N324 1.993 . S
Co307 O332 1.941 . S
C308 O309 1.258 . S
C308 O310 1.263 . S
O309 Co306 1.970 . S
O309 C308 1.258 . S
O310 Co307 1.966 . S
O310 C308 1.263 . S
C311 O312 1.235 . S
C311 O338 1.289 . S
O312 C311 1.235 . S
C313 C315 1.400 . S
C313 N316 1.351 . S
C313 C318 1.501 . S
C314 C315 1.387 . S
C314 N317 1.341 . S
C315 C313 1.400 . S
C315 C314 1.387 . S
N316 Co307 2.022 . S
N316 C313 1.351 . S
N316 N317 1.365 . S
N317 C314 1.341 . S
N317 N316 1.365 . S
N317 H337 0.862 . S
C318 C313 1.501 . S
C318 H319 0.961 . S
C318 H320 0.961 . S
C318 H321 0.960 . S
H319 C318 0.961 . S
H320 C318 0.961 . S
H321 C318 0.960 . S
C322 N323 1.342 . S
C322 C326 1.401 . S
C322 C327 1.499 . S
N323 Co306 1.989 . S
N323 C322 1.342 . S
N323 N324 1.388 . S
N324 Co307 1.993 . S
N324 N323 1.388 . S
N324 C325 1.346 . S
C325 N324 1.346 . S
C325 C326 1.396 . S
C325 C335 1.510 . S
C326 C322 1.401 . S
C326 C325 1.396 . S
C327 C322 1.499 . S
C327 H328 0.959 . S
C327 H329 0.960 . S
C327 H330 0.961 . S
H328 C327 0.959 . S
H329 C327 0.960 . S
H330 C327 0.961 . S
O331 Co306 1.967 . S
O331 C339 1.258 . S
O332 Co307 1.941 . S
O332 C339 1.266 . S
H333 C335 0.959 . S
H334 C335 0.961 . S
C335 C325 1.510 . S
C335 H333 0.959 . S
C335 H334 0.961 . S
C335 H336 0.960 . S
H336 C335 0.960 . S
H337 N317 0.862 . S
O338 Co306 1.920 . S
O338 C311 1.289 . S
C339 O331 1.258 . S
C339 O332 1.266 . S
Co340 O343 1.970 . S
Co340 N357 1.989 . S
Co340 O365 1.967 . S
Co340 O372 1.920 . S
Co341 O344 1.966 . S
Co341 N350 2.022 . S
Co341 N358 1.993 . S
Co341 O366 1.941 . S
C342 O343 1.258 . S
C342 O344 1.263 . S
O343 Co340 1.970 . S
O343 C342 1.258 . S
O344 Co341 1.966 . S
O344 C342 1.263 . S
C345 O346 1.235 . S
C345 O372 1.289 . S
O346 C345 1.235 . S
C347 C349 1.400 . S
C347 N350 1.351 1_554 S
C347 C352 1.497 1_554 S
C348 C349 1.387 . S
C348 N351 1.341 . S
C349 C347 1.400 . S
C349 C348 1.387 . S
N350 Co341 2.022 . S
N350 C347 1.351 1_556 S
N350 N351 1.365 1_556 S
N351 C348 1.341 . S
N351 N350 1.365 1_554 S
N351 H371 0.862 . S
C352 C347 1.497 1_556 S
C352 H353 0.972 . S
C352 H354 0.959 1_556 S
C352 H355 0.955 1_556 S
H353 C352 0.972 . S
H354 C352 0.959 1_554 S
H355 C352 0.955 1_554 S
C356 N357 1.342 . S
C356 C360 1.401 . S
C356 C361 1.499 . S
N357 Co340 1.989 . S
N357 C356 1.342 . S
N357 N358 1.388 . S
N358 Co341 1.993 . S
N358 N357 1.388 . S
N358 C359 1.346 . S
C359 N358 1.346 . S
C359 C360 1.396 . S
C359 C369 1.510 . S
C360 C356 1.401 . S
C360 C359 1.396 . S
C361 C356 1.499 . S
C361 H362 0.959 . S
C361 H363 0.960 . S
C361 H364 0.961 . S
H362 C361 0.959 . S
H363 C361 0.960 . S
H364 C361 0.961 . S
O365 Co340 1.967 . S
O365 C373 1.258 . S
O366 Co341 1.941 . S
O366 C373 1.266 . S
H367 C369 0.959 . S
H368 C369 0.961 . S
C369 C359 1.510 . S
C369 H367 0.959 . S
C369 H368 0.961 . S
C369 H370 0.960 . S
H370 C369 0.960 . S
H371 N351 0.862 . S
O372 Co340 1.920 . S
O372 C345 1.289 . S
C373 O365 1.258 . S
C373 O366 1.266 . S
Co374 O377 1.970 . S
Co374 N391 1.989 . S
Co374 O399 1.967 . S
Co374 O406 1.920 1_554 S
Co375 O378 1.966 . S
Co375 N384 2.022 . S
Co375 N392 1.993 . S
Co375 O400 1.941 . S
C376 O377 1.258 . S
C376 O378 1.263 . S
O377 Co374 1.970 . S
O377 C376 1.258 . S
O378 Co375 1.966 . S
O378 C376 1.263 . S
C379 O380 1.235 . S
C379 O406 1.289 . S
O380 C379 1.235 . S
C381 C383 1.400 . S
C381 N384 1.351 . S
C381 C386 1.501 . S
C382 C383 1.387 . S
C382 N385 1.341 . S
C383 C381 1.400 . S
C383 C382 1.387 . S
N384 Co375 2.022 . S
N384 C381 1.351 . S
N384 N385 1.365 . S
N385 C382 1.341 . S
N385 N384 1.365 . S
N385 H405 0.862 . S
C386 C381 1.501 . S
C386 H387 0.961 . S
C386 H388 0.961 . S
C386 H389 0.960 . S
H387 C386 0.961 . S
H388 C386 0.961 . S
H389 C386 0.960 . S
C390 N391 1.342 . S
C390 C394 1.401 . S
C390 C395 1.499 . S
N391 Co374 1.989 . S
N391 C390 1.342 . S
N391 N392 1.388 . S
N392 Co375 1.993 . S
N392 N391 1.388 . S
N392 C393 1.346 . S
C393 N392 1.346 . S
C393 C394 1.396 . S
C393 C403 1.510 . S
C394 C390 1.401 . S
C394 C393 1.396 . S
C395 C390 1.499 . S
C395 H396 0.959 1_554 S
C395 H397 0.960 . S
C395 H398 0.961 . S
H396 C395 0.959 1_556 S
H397 C395 0.960 . S
H398 C395 0.961 . S
O399 Co374 1.967 . S
O399 C407 1.258 . S
O400 Co375 1.941 . S
O400 C407 1.266 . S
H401 C403 0.959 . S
H402 C403 0.961 . S
C403 C393 1.510 . S
C403 H401 0.959 . S
C403 H402 0.961 . S
C403 H404 0.960 . S
H404 C403 0.960 . S
H405 N385 0.862 . S
O406 Co374 1.920 1_556 S
O406 C379 1.289 . S
C407 O399 1.258 . S
C407 O400 1.266 . S
H408 C414 0.930 . S
H409 C418 0.930 . S
H410 C423 0.929 . S
H411 C421 0.929 . S
H412 C416 0.931 . S
H413 C422 0.931 . S
C414 H408 0.930 . S
C414 C415 1.367 . S
C414 C422 1.378 . S
C415 C414 1.367 . S
C415 C423 1.433 . S
C416 H412 0.931 . S
C416 C418 1.378 . S
C416 C420 1.350 . S
C417 C420 1.463 1_554 S
C417 C422 1.350 . S
C417 N425 1.427 . S
C418 H409 0.930 . S
C418 C416 1.378 . S
C418 C419 1.367 . S
C419 C418 1.367 . S
C419 C421 1.433 . S
C420 C416 1.350 . S
C420 C417 1.463 1_556 S
C420 N424 1.427 . S
C421 H411 0.929 . S
C421 C419 1.433 . S
C421 N424 1.384 . S
C422 H413 0.931 . S
C422 C414 1.378 . S
C422 C417 1.350 . S
C423 H410 0.929 . S
C423 C415 1.433 . S
C423 N425 1.384 . S
N424 C420 1.427 . S
N424 C421 1.384 . S
N425 C417 1.427 . S
N425 C423 1.384 . S
H426 C432 0.930 . S
H427 C436 0.930 . S
H428 C441 0.929 . S
H429 C439 0.929 . S
H430 C434 0.929 . S
H431 C440 0.929 . S
C432 H426 0.930 . S
C432 C433 1.367 . S
C432 C440 1.378 . S
C433 C432 1.367 . S
C433 C441 1.433 . S
C434 H430 0.929 . S
C434 C436 1.378 . S
C434 C438 1.350 . S
C435 C438 1.463 . S
C435 C440 1.350 . S
C435 N443 1.427 . S
C436 H427 0.930 . S
C436 C434 1.378 . S
C436 C437 1.367 . S
C437 C436 1.367 . S
C437 C439 1.433 . S
C438 C434 1.350 . S
C438 C435 1.463 . S
C438 N442 1.427 . S
C439 H429 0.929 . S
C439 C437 1.433 . S
C439 N442 1.384 . S
C440 H431 0.929 . S
C440 C432 1.378 . S
C440 C435 1.350 . S
C441 H428 0.929 . S
C441 C433 1.433 . S
C441 N443 1.384 . S
N442 C438 1.427 . S
N442 C439 1.384 . S
N443 C435 1.427 . S
N443 C441 1.384 . S
H444 C450 0.930 . S
H445 C454 0.930 . S
H446 C459 0.929 . S
H447 C457 0.929 . S
H448 C452 0.929 . S
H449 C458 0.929 . S
C450 H444 0.930 . S
C450 C451 1.367 . S
C450 C458 1.378 . S
C451 C450 1.367 . S
C451 C459 1.433 . S
C452 H448 0.929 . S
C452 C454 1.378 . S
C452 C456 1.350 . S
C453 C456 1.463 . S
C453 C458 1.350 . S
C453 N461 1.427 . S
C454 H445 0.930 . S
C454 C452 1.378 . S
C454 C455 1.367 . S
C455 C454 1.367 . S
C455 C457 1.433 . S
C456 C452 1.350 . S
C456 C453 1.463 . S
C456 N460 1.427 . S
C457 H447 0.929 . S
C457 C455 1.433 . S
C457 N460 1.384 . S
C458 H449 0.929 . S
C458 C450 1.378 . S
C458 C453 1.350 . S
C459 H446 0.929 . S
C459 C451 1.433 . S
C459 N461 1.384 . S
N460 C456 1.427 . S
N460 C457 1.384 . S
N461 C453 1.427 . S
N461 C459 1.384 . S
H462 C468 0.930 . S
H463 C472 0.930 . S
H464 C477 0.929 . S
H465 C475 0.929 . S
H466 C470 0.929 . S
H467 C476 0.929 . S
C468 H462 0.930 . S
C468 C469 1.367 . S
C468 C476 1.378 . S
C469 C468 1.367 . S
C469 C477 1.433 . S
C470 H466 0.929 . S
C470 C472 1.378 . S
C470 C474 1.350 . S
C471 C474 1.463 1_556 S
C471 C476 1.350 . S
C471 N479 1.427 1_556 S
C472 H463 0.930 . S
C472 C470 1.378 . S
C472 C473 1.367 . S
C473 C472 1.367 . S
C473 C475 1.433 . S
C474 C470 1.350 . S
C474 C471 1.463 1_554 S
C474 N478 1.427 1_554 S
C475 H465 0.929 . S
C475 C473 1.433 . S
C475 N478 1.384 1_554 S
C476 H467 0.929 . S
C476 C468 1.378 . S
C476 C471 1.350 . S
C477 H464 0.929 . S
C477 C469 1.433 . S
C477 N479 1.384 1_556 S
N478 C474 1.427 1_556 S
N478 C475 1.384 1_556 S
N479 C471 1.427 1_554 S
N479 C477 1.384 1_554 S
H480 C486 0.930 . S
H481 C490 0.930 . S
H482 C495 0.929 . S
H483 C493 0.929 . S
H484 C488 0.929 . S
H485 C494 0.929 . S
C486 H480 0.930 . S
C486 C487 1.367 . S
C486 C494 1.378 . S
C487 C486 1.367 . S
C487 C495 1.433 . S
C488 H484 0.929 . S
C488 C490 1.378 . S
C488 C492 1.350 . S
C489 C492 1.463 . S
C489 C494 1.350 . S
C489 N497 1.427 . S
C490 H481 0.930 . S
C490 C488 1.378 . S
C490 C491 1.367 . S
C491 C490 1.367 . S
C491 C493 1.433 . S
C492 C488 1.350 . S
C492 C489 1.463 . S
C492 N496 1.427 . S
C493 H483 0.929 . S
C493 C491 1.433 . S
C493 N496 1.384 . S
C494 H485 0.929 . S
C494 C486 1.378 . S
C494 C489 1.350 . S
C495 H482 0.929 . S
C495 C487 1.433 . S
C495 N497 1.384 . S
N496 C492 1.427 . S
N496 C493 1.384 . S
N497 C489 1.427 . S
N497 C495 1.384 . S
H498 C504 0.930 . S
H499 C508 0.930 . S
H500 C513 0.929 . S
H501 C511 0.929 . S
H502 C506 0.929 . S
H503 C512 0.929 . S
C504 H498 0.930 . S
C504 C505 1.367 . S
C504 C512 1.378 . S
C505 C504 1.367 . S
C505 C513 1.433 . S
C506 H502 0.929 . S
C506 C508 1.378 . S
C506 C510 1.350 . S
C507 C510 1.463 . S
C507 C512 1.350 . S
C507 N515 1.427 . S
C508 H499 0.930 . S
C508 C506 1.378 . S
C508 C509 1.367 . S
C509 C508 1.367 . S
C509 C511 1.433 . S
C510 C506 1.350 . S
C510 C507 1.463 . S
C510 N514 1.427 . S
C511 H501 0.929 . S
C511 C509 1.433 . S
C511 N514 1.384 . S
C512 H503 0.929 . S
C512 C504 1.378 . S
C512 C507 1.350 . S
C513 H500 0.929 . S
C513 C505 1.433 . S
C513 N515 1.384 . S
N514 C510 1.427 . S
N514 C511 1.384 . S
N515 C507 1.427 . S
N515 C513 1.384 . S
H516 C522 0.930 . S
H517 C526 0.930 . S
H518 C531 0.929 . S
H519 C529 0.929 . S
H520 C524 0.929 . S
H521 C530 0.929 . S
C522 H516 0.930 . S
C522 C523 1.367 . S
C522 C530 1.378 . S
C523 C522 1.367 . S
C523 C531 1.433 . S
C524 H520 0.929 . S
C524 C526 1.378 . S
C524 C528 1.350 . S
C525 C528 1.463 . S
C525 C530 1.350 . S
C525 N533 1.427 . S
C526 H517 0.930 . S
C526 C524 1.378 . S
C526 C527 1.367 . S
C527 C526 1.367 . S
C527 C529 1.433 . S
C528 C524 1.350 . S
C528 C525 1.463 . S
C528 N532 1.427 . S
C529 H519 0.929 . S
C529 C527 1.433 . S
C529 N532 1.384 . S
C530 H521 0.929 . S
C530 C522 1.378 . S
C530 C525 1.350 . S
C531 H518 0.929 . S
C531 C523 1.433 . S
C531 N533 1.384 . S
N532 C528 1.427 . S
N532 C529 1.384 . S
N533 C525 1.427 . S
N533 C531 1.384 . S
H534 C540 0.930 . S
H535 C544 0.930 . S
H536 C549 0.929 . S
H537 C547 0.929 . S
H538 C542 0.929 . S
H539 C548 0.929 . S
C540 H534 0.930 . S
C540 C541 1.367 . S
C540 C548 1.378 . S
C541 C540 1.367 . S
C541 C549 1.433 . S
C542 H538 0.929 . S
C542 C544 1.378 . S
C542 C546 1.350 . S
C543 C546 1.463 . S
C543 C548 1.350 . S
C543 N551 1.427 . S
C544 H535 0.930 . S
C544 C542 1.378 . S
C544 C545 1.367 . S
C545 C544 1.367 . S
C545 C547 1.433 . S
C546 C542 1.350 . S
C546 C543 1.463 . S
C546 N550 1.427 . S
C547 H537 0.929 . S
C547 C545 1.433 . S
C547 N550 1.384 . S
C548 H539 0.929 . S
C548 C540 1.378 . S
C548 C543 1.350 . S
C549 H536 0.929 . S
C549 C541 1.433 . S
C549 N551 1.384 . S
N550 C546 1.427 . S
N550 C547 1.384 . S
N551 C543 1.427 . S
N551 C549 1.384 . S
H552 C558 0.930 . S
H553 C562 0.930 . S
H554 C567 0.929 . S
H555 C565 0.929 . S
H556 C560 0.929 . S
H557 C566 0.929 . S
C558 H552 0.930 . S
C558 C559 1.367 . S
C558 C566 1.378 . S
C559 C558 1.367 . S
C559 C567 1.433 . S
C560 H556 0.929 . S
C560 C562 1.378 . S
C560 C564 1.350 . S
C561 C564 1.463 1_556 S
C561 C566 1.350 . S
C561 N569 1.427 1_556 S
C562 H553 0.930 . S
C562 C560 1.378 . S
C562 C563 1.367 . S
C563 C562 1.367 . S
C563 C565 1.433 . S
C564 C560 1.350 . S
C564 C561 1.463 1_554 S
C564 N568 1.427 1_554 S
C565 H555 0.929 . S
C565 C563 1.433 . S
C565 N568 1.384 1_554 S
C566 H557 0.929 . S
C566 C558 1.378 . S
C566 C561 1.350 . S
C567 H554 0.929 . S
C567 C559 1.433 . S
C567 N569 1.384 1_556 S
N568 C564 1.427 1_556 S
N568 C565 1.384 1_556 S
N569 C561 1.427 1_554 S
N569 C567 1.384 1_554 S
H570 C576 0.930 . S
H571 C580 0.930 . S
H572 C585 0.929 . S
H573 C583 0.929 . S
H574 C578 0.929 . S
H575 C584 0.929 . S
C576 H570 0.930 . S
C576 C577 1.367 . S
C576 C584 1.378 . S
C577 C576 1.367 . S
C577 C585 1.433 . S
C578 H574 0.929 . S
C578 C580 1.378 . S
C578 C582 1.350 . S
C579 C582 1.463 . S
C579 C584 1.350 . S
C579 N587 1.427 . S
C580 H571 0.930 . S
C580 C578 1.378 . S
C580 C581 1.367 . S
C581 C580 1.367 . S
C581 C583 1.433 . S
C582 C578 1.350 . S
C582 C579 1.463 . S
C582 N586 1.427 . S
C583 H573 0.929 . S
C583 C581 1.433 . S
C583 N586 1.384 . S
C584 H575 0.929 . S
C584 C576 1.378 . S
C584 C579 1.350 . S
C585 H572 0.929 . S
C585 C577 1.433 . S
C585 N587 1.384 . S
N586 C582 1.427 . S
N586 C583 1.384 . S
N587 C579 1.427 . S
N587 C585 1.384 . S
H588 C594 0.930 . S
H589 C598 0.930 . S
H590 C603 0.929 . S
H591 C601 0.929 . S
H592 C596 0.929 . S
H593 C602 0.929 . S
C594 H588 0.930 . S
C594 C595 1.367 . S
C594 C602 1.378 . S
C595 C594 1.367 . S
C595 C603 1.433 . S
C596 H592 0.929 . S
C596 C598 1.378 . S
C596 C600 1.350 . S
C597 C600 1.463 . S
C597 C602 1.350 . S
C597 N605 1.427 . S
C598 H589 0.930 . S
C598 C596 1.378 . S
C598 C599 1.367 . S
C599 C598 1.367 . S
C599 C601 1.433 . S
C600 C596 1.350 . S
C600 C597 1.463 . S
C600 N604 1.427 . S
C601 H591 0.929 . S
C601 C599 1.433 . S
C601 N604 1.384 . S
C602 H593 0.929 . S
C602 C594 1.378 . S
C602 C597 1.350 . S
C603 H590 0.929 . S
C603 C595 1.433 . S
C603 N605 1.384 . S
N604 C600 1.427 . S
N604 C601 1.384 . S
N605 C597 1.427 . S
N605 C603 1.384 . S
H606 C612 0.930 . S
H607 C616 0.930 . S
H608 C621 0.929 . S
H609 C619 0.929 . S
H610 C614 0.929 . S
H611 C620 0.929 . S
C612 H606 0.930 . S
C612 C613 1.367 . S
C612 C620 1.378 . S
C613 C612 1.367 . S
C613 C621 1.433 1_554 S
C614 H610 0.929 . S
C614 C616 1.378 . S
C614 C618 1.350 . S
C615 C618 1.463 1_554 S
C615 C620 1.350 . S
C615 N623 1.427 1_554 S
C616 H607 0.930 . S
C616 C614 1.378 . S
C616 C617 1.367 . S
C617 C616 1.367 . S
C617 C619 1.433 1_556 S
C618 C614 1.350 . S
C618 C615 1.463 1_556 S
C618 N622 1.427 1_556 S
C619 H609 0.929 . S
C619 C617 1.433 1_554 S
C619 N622 1.384 . S
C620 H611 0.929 . S
C620 C612 1.378 . S
C620 C615 1.350 . S
C621 H608 0.929 . S
C621 C613 1.433 1_556 S
C621 N623 1.384 . S
N622 C618 1.427 1_554 S
N622 C619 1.384 . S
N623 C615 1.427 1_556 S
N623 C621 1.384 . S
H624 C630 0.930 . S
H625 C634 0.930 . S
H626 C639 0.929 . S
H627 C637 0.929 . S
H628 C632 0.929 . S
H629 C638 0.929 . S
C630 H624 0.930 . S
C630 C631 1.367 . S
C630 C638 1.378 . S
C631 C630 1.367 . S
C631 C639 1.433 . S
C632 H628 0.929 . S
C632 C634 1.378 . S
C632 C636 1.350 . S
C633 C636 1.463 . S
C633 C638 1.350 . S
C633 N641 1.427 . S
C634 H625 0.930 . S
C634 C632 1.378 . S
C634 C635 1.367 . S
C635 C634 1.367 . S
C635 C637 1.433 . S
C636 C632 1.350 . S
C636 C633 1.463 . S
C636 N640 1.427 . S
C637 H627 0.929 . S
C637 C635 1.433 . S
C637 N640 1.384 . S
C638 H629 0.929 . S
C638 C630 1.378 . S
C638 C633 1.350 . S
C639 H626 0.929 . S
C639 C631 1.433 . S
C639 N641 1.384 . S
N640 C636 1.427 . S
N640 C637 1.384 . S
N641 C633 1.427 . S
N641 C639 1.384 . S
H642 C648 0.930 . S
H643 C652 0.930 . S
H644 C657 0.929 . S
H645 C655 0.929 . S
H646 C650 0.929 . S
H647 C656 0.929 . S
C648 H642 0.930 . S
C648 C649 1.367 . S
C648 C656 1.378 . S
C649 C648 1.367 . S
C649 C657 1.433 . S
C650 H646 0.929 . S
C650 C652 1.378 . S
C650 C654 1.350 . S
C651 C654 1.463 1_455 S
C651 C656 1.350 . S
C651 N659 1.427 . S
C652 H643 0.930 . S
C652 C650 1.378 . S
C652 C653 1.367 . S
C653 C652 1.367 . S
C653 C655 1.433 . S
C654 C650 1.350 . S
C654 C651 1.463 1_655 S
C654 N658 1.427 . S
C655 H645 0.929 . S
C655 C653 1.433 . S
C655 N658 1.384 . S
C656 H647 0.929 . S
C656 C648 1.378 . S
C656 C651 1.350 . S
C657 H644 0.929 . S
C657 C649 1.433 . S
C657 N659 1.384 . S
N658 C654 1.427 . S
N658 C655 1.384 . S
N659 C651 1.427 . S
N659 C657 1.384 . S
H660 C666 0.930 . S
H661 C670 0.930 . S
H662 C675 0.929 . S
H663 C673 0.929 . S
H664 C668 0.929 . S
H665 C674 0.929 . S
C666 H660 0.930 . S
C666 C667 1.367 . S
C666 C674 1.378 . S
C667 C666 1.367 . S
C667 C675 1.433 . S
C668 H664 0.929 . S
C668 C670 1.378 . S
C668 C672 1.350 . S
C669 C672 1.463 1_544 S
C669 C674 1.350 . S
C669 N677 1.427 1_554 S
C670 H661 0.930 . S
C670 C668 1.378 . S
C670 C671 1.367 . S
C671 C670 1.367 . S
C671 C673 1.433 . S
C672 C668 1.350 . S
C672 C669 1.463 1_566 S
C672 N676 1.427 1_556 S
C673 H663 0.929 . S
C673 C671 1.433 . S
C673 N676 1.384 1_556 S
C674 H665 0.929 . S
C674 C666 1.378 . S
C674 C669 1.350 . S
C675 H662 0.929 . S
C675 C667 1.433 . S
C675 N677 1.384 1_554 S
N676 C672 1.427 1_554 S
N676 C673 1.384 1_554 S
N677 C669 1.427 1_556 S
N677 C675 1.384 1_556 S
H678 C684 0.930 . S
H679 C688 0.930 . S
H680 C693 0.929 . S
H681 C691 0.929 . S
H682 C686 0.929 . S
H683 C692 0.929 . S
C684 H678 0.930 . S
C684 C685 1.367 . S
C684 C692 1.378 . S
C685 C684 1.367 . S
C685 C693 1.433 . S
C686 H682 0.929 . S
C686 C688 1.378 . S
C686 C690 1.350 . S
C687 C690 1.463 . S
C687 C692 1.350 . S
C687 N695 1.427 . S
C688 H679 0.930 . S
C688 C686 1.378 . S
C688 C689 1.367 . S
C689 C688 1.367 . S
C689 C691 1.433 . S
C690 C686 1.350 . S
C690 C687 1.463 . S
C690 N694 1.427 . S
C691 H681 0.929 . S
C691 C689 1.433 . S
C691 N694 1.384 . S
C692 H683 0.929 . S
C692 C684 1.378 . S
C692 C687 1.350 . S
C693 H680 0.929 . S
C693 C685 1.433 . S
C693 N695 1.384 . S
N694 C690 1.427 . S
N694 C691 1.384 . S
N695 C687 1.427 . S
N695 C693 1.384 . S
H696 C702 0.930 . S
H697 C706 0.930 . S
H698 C711 0.929 . S
H699 C709 0.929 . S
H700 C704 0.929 . S
H701 C710 0.929 . S
C702 H696 0.930 . S
C702 C703 1.367 . S
C702 C710 1.378 . S
C703 C702 1.367 . S
C703 C711 1.433 . S
C704 H700 0.929 . S
C704 C706 1.378 . S
C704 C708 1.350 . S
C705 C708 1.463 1_455 S
C705 C710 1.350 . S
C705 N713 1.427 . S
C706 H697 0.930 . S
C706 C704 1.378 . S
C706 C707 1.367 . S
C707 C706 1.367 . S
C707 C709 1.433 . S
C708 C704 1.350 . S
C708 C705 1.463 1_655 S
C708 N712 1.427 . S
C709 H699 0.929 . S
C709 C707 1.433 . S
C709 N712 1.384 . S
C710 H701 0.929 . S
C710 C702 1.378 . S
C710 C705 1.350 . S
C711 H698 0.929 . S
C711 C703 1.433 . S
C711 N713 1.384 . S
N712 C708 1.427 . S
N712 C709 1.384 . S
N713 C705 1.427 . S
N713 C711 1.384 . S
H714 C720 0.930 . S
H715 C724 0.930 . S
H716 C729 0.929 . S
H717 C727 0.929 . S
H718 C722 0.929 . S
H719 C728 0.929 . S
C720 H714 0.930 . S
C720 C721 1.367 . S
C720 C728 1.378 . S
C721 C720 1.367 . S
C721 C729 1.433 . S
C722 H718 0.929 . S
C722 C724 1.378 . S
C722 C726 1.350 . S
C723 C726 1.463 1_546 S
C723 C728 1.350 . S
C723 N731 1.427 . S
C724 H715 0.930 . S
C724 C722 1.378 . S
C724 C725 1.367 . S
C725 C724 1.367 . S
C725 C727 1.433 . S
C726 C722 1.350 . S
C726 C723 1.463 1_564 S
C726 N730 1.427 . S
C727 H717 0.929 . S
C727 C725 1.433 . S
C727 N730 1.384 . S
C728 H719 0.929 . S
C728 C720 1.378 . S
C728 C723 1.350 . S
C729 H716 0.929 . S
C729 C721 1.433 . S
C729 N731 1.384 . S
N730 C726 1.427 . S
N730 C727 1.384 . S
N731 C723 1.427 . S
N731 C729 1.384 . S
H732 C738 0.930 . S
H733 C742 0.930 . S
H734 C747 0.929 . S
H735 C745 0.929 . S
H736 C740 0.929 . S
H737 C746 0.929 . S
C738 H732 0.930 . S
C738 C739 1.367 . S
C738 C746 1.378 . S
C739 C738 1.367 . S
C739 C747 1.433 . S
C740 H736 0.929 . S
C740 C742 1.378 . S
C740 C744 1.350 . S
C741 C744 1.463 . S
C741 C746 1.350 . S
C741 N749 1.427 . S
C742 H733 0.930 . S
C742 C740 1.378 . S
C742 C743 1.367 . S
C743 C742 1.367 . S
C743 C745 1.433 . S
C744 C740 1.350 . S
C744 C741 1.463 . S
C744 N748 1.427 . S
C745 H735 0.929 . S
C745 C743 1.433 . S
C745 N748 1.384 . S
C746 H737 0.929 . S
C746 C738 1.378 . S
C746 C741 1.350 . S
C747 H734 0.929 . S
C747 C739 1.433 . S
C747 N749 1.384 . S
N748 C744 1.427 . S
N748 C745 1.384 . S
N749 C741 1.427 . S
N749 C747 1.384 . S
H750 C756 0.930 . S
H751 C760 0.930 . S
H752 C765 0.929 . S
H753 C763 0.929 . S
H754 C758 0.929 . S
H755 C764 0.929 . S
C756 H750 0.930 . S
C756 C757 1.367 . S
C756 C764 1.378 . S
C757 C756 1.367 . S
C757 C765 1.433 . S
C758 H754 0.929 . S
C758 C760 1.378 . S
C758 C762 1.350 . S
C759 C762 1.463 1_554 S
C759 C764 1.350 . S
C759 N767 1.427 . S
C760 H751 0.930 . S
C760 C758 1.378 . S
C760 C761 1.367 . S
C761 C760 1.367 . S
C761 C763 1.433 . S
C762 C758 1.350 . S
C762 C759 1.463 1_556 S
C762 N766 1.427 . S
C763 H753 0.929 . S
C763 C761 1.433 . S
C763 N766 1.384 . S
C764 H755 0.929 . S
C764 C756 1.378 . S
C764 C759 1.350 . S
C765 H752 0.929 . S
C765 C757 1.433 . S
C765 N767 1.384 . S
N766 C762 1.427 . S
N766 C763 1.384 . S
N767 C759 1.427 . S
N767 C765 1.384 . S
H768 C774 0.930 . S
H769 C778 0.930 . S
H770 C783 0.929 . S
H771 C781 0.929 . S
H772 C776 0.929 . S
H773 C782 0.929 . S
C774 H768 0.930 . S
C774 C775 1.367 . S
C774 C782 1.378 . S
C775 C774 1.367 . S
C775 C783 1.433 . S
C776 H772 0.929 . S
C776 C778 1.378 . S
C776 C780 1.350 . S
C777 C780 1.463 . S
C777 C782 1.350 . S
C777 N785 1.427 . S
C778 H769 0.930 . S
C778 C776 1.378 . S
C778 C779 1.367 . S
C779 C778 1.367 . S
C779 C781 1.433 . S
C780 C776 1.350 . S
C780 C777 1.463 . S
C780 N784 1.427 . S
C781 H771 0.929 . S
C781 C779 1.433 . S
C781 N784 1.384 . S
C782 H773 0.929 . S
C782 C774 1.378 . S
C782 C777 1.350 . S
C783 H770 0.929 . S
C783 C775 1.433 . S
C783 N785 1.384 . S
N784 C780 1.427 . S
N784 C781 1.384 . S
N785 C777 1.427 . S
N785 C783 1.384 . S
H786 C792 0.930 . S
H787 C796 0.930 . S
H788 C801 0.929 . S
H789 C799 0.929 . S
H790 C794 0.929 . S
H791 C800 0.929 . S
C792 H786 0.930 . S
C792 C793 1.367 . S
C792 C800 1.378 . S
C793 C792 1.367 . S
C793 C801 1.433 . S
C794 H790 0.929 . S
C794 C796 1.378 . S
C794 C798 1.350 . S
C795 C798 1.463 . S
C795 C800 1.350 . S
C795 N803 1.427 . S
C796 H787 0.930 . S
C796 C794 1.378 . S
C796 C797 1.367 . S
C797 C796 1.367 . S
C797 C799 1.433 . S
C798 C794 1.350 . S
C798 C795 1.463 . S
C798 N802 1.427 . S
C799 H789 0.929 . S
C799 C797 1.433 . S
C799 N802 1.384 . S
C800 H791 0.929 . S
C800 C792 1.378 . S
C800 C795 1.350 . S
C801 H788 0.929 . S
C801 C793 1.433 . S
C801 N803 1.384 . S
N802 C798 1.427 . S
N802 C799 1.384 . S
N803 C795 1.427 . S
N803 C801 1.384 . S
H804 C810 0.930 . S
H805 C814 0.930 . S
H806 C819 0.929 . S
H807 C817 0.929 . S
H808 C812 0.929 . S
H809 C818 0.929 . S
C810 H804 0.930 . S
C810 C811 1.367 . S
C810 C818 1.378 . S
C811 C810 1.367 . S
C811 C819 1.433 . S
C812 H808 0.929 . S
C812 C814 1.378 . S
C812 C816 1.350 . S
C813 C816 1.463 1_554 S
C813 C818 1.350 . S
C813 N821 1.427 . S
C814 H805 0.930 . S
C814 C812 1.378 . S
C814 C815 1.367 . S
C815 C814 1.367 . S
C815 C817 1.433 . S
C816 C812 1.350 . S
C816 C813 1.463 1_556 S
C816 N820 1.427 . S
C817 H807 0.929 . S
C817 C815 1.433 . S
C817 N820 1.384 . S
C818 H809 0.929 . S
C818 C810 1.378 . S
C818 C813 1.350 . S
C819 H806 0.929 . S
C819 C811 1.433 . S
C819 N821 1.384 . S
N820 C816 1.427 . S
N820 C817 1.384 . S
N821 C813 1.427 . S
N821 C819 1.384 . S
H822 C828 0.930 . S
H823 C832 0.930 . S
H824 C837 0.929 . S
H825 C835 0.929 . S
H826 C830 0.929 . S
H827 C836 0.929 . S
C828 H822 0.930 . S
C828 C829 1.367 . S
C828 C836 1.378 . S
C829 C828 1.367 . S
C829 C837 1.433 . S
C830 H826 0.929 . S
C830 C832 1.378 . S
C830 C834 1.350 . S
C831 C834 1.463 . S
C831 C836 1.350 . S
C831 N839 1.427 . S
C832 H823 0.930 . S
C832 C830 1.378 . S
C832 C833 1.367 . S
C833 C832 1.367 . S
C833 C835 1.433 . S
C834 C830 1.350 . S
C834 C831 1.463 . S
C834 N838 1.427 . S
C835 H825 0.929 . S
C835 C833 1.433 . S
C835 N838 1.384 . S
C836 H827 0.929 . S
C836 C828 1.378 . S
C836 C831 1.350 . S
C837 H824 0.929 . S
C837 C829 1.433 . S
C837 N839 1.384 . S
N838 C834 1.427 . S
N838 C835 1.384 . S
N839 C831 1.427 . S
N839 C837 1.384 . S
H840 C846 0.930 . S
H841 C850 0.930 . S
H842 C855 0.929 . S
H843 C853 0.929 . S
H844 C848 0.929 . S
H845 C854 0.929 . S
C846 H840 0.930 . S
C846 C847 1.367 . S
C846 C854 1.378 . S
C847 C846 1.367 . S
C847 C855 1.433 . S
C848 H844 0.929 . S
C848 C850 1.378 . S
C848 C852 1.350 . S
C849 C852 1.463 1_554 S
C849 C854 1.350 . S
C849 N857 1.427 . S
C850 H841 0.930 . S
C850 C848 1.378 . S
C850 C851 1.367 . S
C851 C850 1.367 . S
C851 C853 1.433 . S
C852 C848 1.350 . S
C852 C849 1.463 1_556 S
C852 N856 1.427 . S
C853 H843 0.929 . S
C853 C851 1.433 . S
C853 N856 1.384 . S
C854 H845 0.929 . S
C854 C846 1.378 . S
C854 C849 1.350 . S
C855 H842 0.929 . S
C855 C847 1.433 . S
C855 N857 1.384 . S
N856 C852 1.427 . S
N856 C853 1.384 . S
N857 C849 1.427 . S
N857 C855 1.384 . S
H858 C864 0.930 . S
H859 C868 0.930 . S
H860 C873 0.929 . S
H861 C871 0.929 . S
H862 C866 0.929 . S
H863 C872 0.929 . S
C864 H858 0.930 . S
C864 C865 1.367 . S
C864 C872 1.378 . S
C865 C864 1.367 . S
C865 C873 1.433 . S
C866 H862 0.929 . S
C866 C868 1.378 . S
C866 C870 1.350 . S
C867 C870 1.463 . S
C867 C872 1.350 . S
C867 N875 1.427 . S
C868 H859 0.930 . S
C868 C866 1.378 . S
C868 C869 1.367 . S
C869 C868 1.367 . S
C869 C871 1.433 . S
C870 C866 1.350 . S
C870 C867 1.463 . S
C870 N874 1.427 . S
C871 H861 0.929 . S
C871 C869 1.433 . S
C871 N874 1.384 . S
C872 H863 0.929 . S
C872 C864 1.378 . S
C872 C867 1.350 . S
C873 H860 0.929 . S
C873 C865 1.433 . S
C873 N875 1.384 . S
N874 C870 1.427 . S
N874 C871 1.384 . S
N875 C867 1.427 . S
N875 C873 1.384 . S
H876 C882 0.930 . S
H877 C886 0.930 . S
H878 C891 0.929 . S
H879 C889 0.929 . S
H880 C884 0.929 . S
H881 C890 0.929 . S
C882 H876 0.930 . S
C882 C883 1.367 . S
C882 C890 1.378 . S
C883 C882 1.367 . S
C883 C891 1.433 . S
C884 H880 0.929 . S
C884 C886 1.378 . S
C884 C888 1.350 . S
C885 C888 1.463 . S
C885 C890 1.350 . S
C885 N893 1.427 . S
C886 H877 0.930 . S
C886 C884 1.378 . S
C886 C887 1.367 . S
C887 C886 1.367 . S
C887 C889 1.433 . S
C888 C884 1.350 . S
C888 C885 1.463 . S
C888 N892 1.427 . S
C889 H879 0.929 . S
C889 C887 1.433 . S
C889 N892 1.384 . S
C890 H881 0.929 . S
C890 C882 1.378 . S
C890 C885 1.350 . S
C891 H878 0.929 . S
C891 C883 1.433 . S
C891 N893 1.384 . S
N892 C888 1.427 . S
N892 C889 1.384 . S
N893 C885 1.427 . S
N893 C891 1.384 . S
H894 C900 0.930 . S
H895 C904 0.930 . S
H896 C909 0.929 . S
H897 C907 0.929 . S
H898 C902 0.929 . S
H899 C908 0.929 . S
C900 H894 0.930 . S
C900 C901 1.367 . S
C900 C908 1.378 . S
C901 C900 1.367 . S
C901 C909 1.433 . S
C902 H898 0.929 . S
C902 C904 1.378 . S
C902 C906 1.350 . S
C903 C906 1.463 1_556 S
C903 C908 1.350 . S
C903 N911 1.427 . S
C904 H895 0.930 . S
C904 C902 1.378 . S
C904 C905 1.367 . S
C905 C904 1.367 . S
C905 C907 1.433 . S
C906 C902 1.350 . S
C906 C903 1.463 1_554 S
C906 N910 1.427 . S
C907 H897 0.929 . S
C907 C905 1.433 . S
C907 N910 1.384 . S
C908 H899 0.929 . S
C908 C900 1.378 . S
C908 C903 1.350 . S
C909 H896 0.929 . S
C909 C901 1.433 . S
C909 N911 1.384 . S
N910 C906 1.427 . S
N910 C907 1.384 . S
N911 C903 1.427 . S
N911 C909 1.384 . S
H912 C918 0.930 . S
H913 C922 0.930 . S
H914 C927 0.929 . S
H915 C925 0.929 . S
H916 C920 0.929 . S
H917 C926 0.929 . S
C918 H912 0.930 . S
C918 C919 1.367 . S
C918 C926 1.378 . S
C919 C918 1.367 . S
C919 C927 1.433 . S
C920 H916 0.929 . S
C920 C922 1.378 . S
C920 C924 1.350 . S
C921 C924 1.463 . S
C921 C926 1.350 . S
C921 N929 1.427 . S
C922 H913 0.930 . S
C922 C920 1.378 . S
C922 C923 1.367 . S
C923 C922 1.367 . S
C923 C925 1.433 . S
C924 C920 1.350 . S
C924 C921 1.463 . S
C924 N928 1.427 . S
C925 H915 0.929 . S
C925 C923 1.433 . S
C925 N928 1.384 . S
C926 H917 0.929 . S
C926 C918 1.378 . S
C926 C921 1.350 . S
C927 H914 0.929 . S
C927 C919 1.433 . S
C927 N929 1.384 . S
N928 C924 1.427 . S
N928 C925 1.384 . S
N929 C921 1.427 . S
N929 C927 1.384 . S
H930 C936 0.930 . S
H931 C940 0.930 . S
H932 C945 0.929 . S
H933 C943 0.929 . S
H934 C938 0.929 . S
H935 C944 0.929 . S
C936 H930 0.930 . S
C936 C937 1.367 . S
C936 C944 1.378 . S
C937 C936 1.367 . S
C937 C945 1.433 . S
C938 H934 0.929 . S
C938 C940 1.378 . S
C938 C942 1.350 . S
C939 C942 1.463 . S
C939 C944 1.350 . S
C939 N947 1.427 . S
C940 H931 0.930 . S
C940 C938 1.378 . S
C940 C941 1.367 . S
C941 C940 1.367 . S
C941 C943 1.433 . S
C942 C938 1.350 . S
C942 C939 1.463 . S
C942 N946 1.427 . S
C943 H933 0.929 . S
C943 C941 1.433 . S
C943 N946 1.384 . S
C944 H935 0.929 . S
C944 C936 1.378 . S
C944 C939 1.350 . S
C945 H932 0.929 . S
C945 C937 1.433 . S
C945 N947 1.384 . S
N946 C942 1.427 . S
N946 C943 1.384 . S
N947 C939 1.427 . S
N947 C945 1.384 . S
C415 C20 1.630 . S
C419 C360 1.631 . S
C433 C394 1.637 . S
C437 C54 1.635 . S
C451 C224 1.636 . S
C455 C88 1.637 . S
C469 C258 1.638 . S
C473 C122 1.638 . S
C487 C156 1.627 . S
C491 C292 1.628 . S
C505 C326 1.638 . S
C509 C190 1.637 . S
C523 C237 1.449 . S
C527 C33 1.448 . S
C541 C271 1.449 . S
C545 C67 1.446 . S
C559 C101 1.449 . S
C563 C305 1.446 . S
C577 C135 1.448 . S
C581 C339 1.444 . S
C595 C373 1.447 . S
C599 C169 1.449 . S
C613 C407 1.448 . S
C617 C203 1.449 . S
C631 C2 1.489 . S
C635 C308 1.489 . S
C649 C342 1.489 . S
C653 C36 1.487 . S
C667 C376 1.486 . S
C671 C70 1.489 . S
C685 C206 1.480 . S
C689 C104 1.480 . S
C703 C138 1.483 . S
C707 C240 1.481 . S
C721 C172 1.484 . S
C725 C274 1.487 . S
C739 C5 0.973 . S
C743 C9 0.940 . S
C757 C43 0.946 . S
C761 C39 0.973 . S
C775 C73 0.953 . S
C779 C77 0.928 . S
C793 C111 0.929 . S
C797 C107 0.969 . S
C811 C145 0.922 . S
C815 C141 0.952 . S
C829 C179 0.947 . S
C833 C175 0.968 . S
C847 C209 0.963 . S
C851 C213 0.922 . S
C865 C247 0.940 . S
C869 C243 0.960 . S
C883 C281 0.947 . S
C887 C277 0.967 . S
C901 C315 0.923 . S
C905 C311 0.952 . S
C919 C345 0.973 . S
C923 C349 0.946 . S
C937 C383 0.948 . S
C941 C379 0.970 . S
