# Generated by pormake.
# Topology lcy-a, (4)-cn, num edge types: 1
# Building blocks:
#     Node 0, Type 0, BuildingBlock: GALJAG_clean_sbu_0, # of connection points: 4
#     Node 1, Type 0, BuildingBlock: GALJAG_clean_sbu_0, # of connection points: 4
#     Node 2, Type 0, BuildingBlock: GALJAG_clean_sbu_0, # of connection points: 4
#     Node 3, Type 0, BuildingBlock: GALJAG_clean_sbu_0, # of connection points: 4
#     Node 4, Type 0, BuildingBlock: GALJAG_clean_sbu_0, # of connection points: 4
#     Node 5, Type 0, BuildingBlock: GALJAG_clean_sbu_0, # of connection points: 4
#     Node 6, Type 0, BuildingBlock: GALJAG_clean_sbu_0, # of connection points: 4
#     Node 7, Type 0, BuildingBlock: GALJAG_clean_sbu_0, # of connection points: 4
#     Node 8, Type 0, BuildingBlock: GALJAG_clean_sbu_0, # of connection points: 4
#     Node 9, Type 0, BuildingBlock: GALJAG_clean_sbu_0, # of connection points: 4
#     Node 10, Type 0, BuildingBlock: GALJAG_clean_sbu_0, # of connection points: 4
#     Node 11, Type 0, BuildingBlock: GALJAG_clean_sbu_0, # of connection points: 4
#     Node 12, Type 0, BuildingBlock: GALJAG_clean_sbu_0, # of connection points: 4
#     Node 13, Type 0, BuildingBlock: GALJAG_clean_sbu_0, # of connection points: 4
#     Node 14, Type 0, BuildingBlock: GALJAG_clean_sbu_0, # of connection points: 4
#     Node 15, Type 0, BuildingBlock: GALJAG_clean_sbu_0, # of connection points: 4
#     Node 16, Type 0, BuildingBlock: GALJAG_clean_sbu_0, # of connection points: 4
#     Node 17, Type 0, BuildingBlock: GALJAG_clean_sbu_0, # of connection points: 4
#     Node 18, Type 0, BuildingBlock: GALJAG_clean_sbu_0, # of connection points: 4
#     Node 19, Type 0, BuildingBlock: GALJAG_clean_sbu_0, # of connection points: 4
#     Node 20, Type 0, BuildingBlock: GALJAG_clean_sbu_0, # of connection points: 4
#     Node 21, Type 0, BuildingBlock: GALJAG_clean_sbu_0, # of connection points: 4
#     Node 22, Type 0, BuildingBlock: GALJAG_clean_sbu_0, # of connection points: 4
#     Node 23, Type 0, BuildingBlock: GALJAG_clean_sbu_0, # of connection points: 4
#     Edge 24, Type (0, 0), None
#     Edge 25, Type (0, 0), None
#     Edge 26, Type (0, 0), None
#     Edge 27, Type (0, 0), None
#     Edge 28, Type (0, 0), None
#     Edge 29, Type (0, 0), None
#     Edge 30, Type (0, 0), None
#     Edge 31, Type (0, 0), None
#     Edge 32, Type (0, 0), None
#     Edge 33, Type (0, 0), None
#     Edge 34, Type (0, 0), None
#     Edge 35, Type (0, 0), None
#     Edge 36, Type (0, 0), None
#     Edge 37, Type (0, 0), None
#     Edge 38, Type (0, 0), None
#     Edge 39, Type (0, 0), None
#     Edge 40, Type (0, 0), None
#     Edge 41, Type (0, 0), None
#     Edge 42, Type (0, 0), None
#     Edge 43, Type (0, 0), None
#     Edge 44, Type (0, 0), None
#     Edge 45, Type (0, 0), None
#     Edge 46, Type (0, 0), None
#     Edge 47, Type (0, 0), None
#     Edge 48, Type (0, 0), None
#     Edge 49, Type (0, 0), None
#     Edge 50, Type (0, 0), None
#     Edge 51, Type (0, 0), None
#     Edge 52, Type (0, 0), None
#     Edge 53, Type (0, 0), None
#     Edge 54, Type (0, 0), None
#     Edge 55, Type (0, 0), None
#     Edge 56, Type (0, 0), None
#     Edge 57, Type (0, 0), None
#     Edge 58, Type (0, 0), None
#     Edge 59, Type (0, 0), None
#     Edge 60, Type (0, 0), None
#     Edge 61, Type (0, 0), None
#     Edge 62, Type (0, 0), None
#     Edge 63, Type (0, 0), None
#     Edge 64, Type (0, 0), None
#     Edge 65, Type (0, 0), None
#     Edge 66, Type (0, 0), None
#     Edge 67, Type (0, 0), None
#     Edge 68, Type (0, 0), None
#     Edge 69, Type (0, 0), None
#     Edge 70, Type (0, 0), None
#     Edge 71, Type (0, 0), None
# Relax obj value: 0.436
# Max RMSD: 0.151
# Mean RMSD: 0.151
data_MOF--net-lcy-a--node1-GALJAG_clean_sbu_0--edge1-none
_symmetry_space_group_name_H-M    P1
_symmetry_Int_Tables_number       1
_symmetry_cell_setting            triclinic
loop_
_symmetry_equiv_pos_as_xyz
'x, y, z'
_cell_length_a     26.789925
_cell_length_b     26.789252
_cell_length_c     26.7867
_cell_angle_alpha  89.999723
_cell_angle_beta   89.999726
_cell_angle_gamma 90.000003
loop_
_atom_site_label
_atom_site_type_symbol
_atom_site_fract_x
_atom_site_fract_y
_atom_site_fract_z
_atom_type_partial_charge
In0 In 0.18455 0.25352 0.38259 0.0
O1 O 0.2265 0.27868 0.45172 0.0
O2 O 0.16937 0.32631 0.42331 0.0
C3 C 0.26005 0.19916 0.34476 0.0
C4 C 0.11112 0.19839 0.42214 0.0
C5 C 0.18436 0.31616 0.30404 0.0
O6 O 0.26433 0.22577 0.38336 0.0
O7 O 0.21671 0.19732 0.32662 0.0
O8 O 0.16257 0.27428 0.30196 0.0
O9 O 0.203 0.32679 0.3457 0.0
C10 C 0.20393 0.32006 0.45474 0.0
O11 O 0.1025 0.23281 0.39111 0.0
O12 O 0.15635 0.1912 0.43227 0.0
In13 In 0.92911 0.93455 0.63258 0.0
O14 O 0.94982 0.8525 0.6411 0.0
O15 O -0.00857 0.90636 0.68226 0.0
C16 C 0.86646 0.93437 0.55403 0.0
C17 C 0.86258 0.95394 0.70473 0.0
C18 C -0.01652 0.01004 0.59474 0.0
O19 O 0.90834 0.91257 0.55195 0.0
O20 O 0.85585 0.95301 0.5957 0.0
O21 O 0.95688 0.01433 0.63335 0.0
O22 O -0.0147 -0.0333 0.5766 0.0
C23 C -0.01576 0.86113 0.67213 0.0
O24 O 0.90395 -0.02349 0.7017 0.0
O25 O 0.85632 0.91936 0.6733 0.0
In26 In 0.24808 0.67914 0.88259 0.0
O27 O 0.33013 0.69986 0.8911 0.0
O28 O 0.27627 0.74146 0.93226 0.0
C29 C 0.24826 0.61648 0.80405 0.0
C30 C 0.22871 0.61261 0.95475 0.0
C31 C 0.17259 0.73351 0.84475 0.0
O32 O 0.27007 0.65835 0.80196 0.0
O33 O 0.2296 0.60588 0.84571 0.0
O34 O 0.16831 0.70692 0.88336 0.0
O35 O 0.21593 0.73533 0.8266 0.0
C36 C 0.3215 0.73428 0.92213 0.0
O37 O 0.20613 0.65398 0.95171 0.0
O38 O 0.26328 0.60636 0.92331 0.0
In39 In 0.50352 -0.0019 0.13259 0.0
O40 O 0.48281 0.08015 0.14111 0.0
O41 O 0.4412 0.02629 0.18227 0.0
C42 C 0.56617 -0.00173 0.05404 0.0
C43 C 0.57005 -0.02129 0.20475 0.0
C44 C 0.44915 0.92261 0.09475 0.0
O45 O 0.52431 0.02009 0.05196 0.0
O46 O 0.57678 -0.02038 0.09571 0.0
O47 O 0.47574 0.91832 0.13336 0.0
O48 O 0.44733 0.96595 0.07661 0.0
C49 C 0.44839 0.07152 0.17214 0.0
O50 O 0.52868 0.95614 0.20171 0.0
O51 O 0.57631 0.01328 0.17331 0.0
In52 In 0.68454 0.17913 0.55015 0.0
O53 O 0.7265 0.15397 0.48102 0.0
O54 O 0.66935 0.10634 0.50942 0.0
C55 C 0.76003 0.2335 0.58799 0.0
C56 C 0.61112 0.23427 0.5106 0.0
C57 C 0.68437 0.11648 0.62869 0.0
O58 O 0.76432 0.20691 0.54937 0.0
O59 O 0.71669 0.23532 0.60613 0.0
O60 O 0.66255 0.15835 0.63077 0.0
O61 O 0.70302 0.10587 0.58703 0.0
C62 C 0.70392 0.1126 0.47799 0.0
O63 O 0.60249 0.19984 0.54163 0.0
O64 O 0.65635 0.24146 0.50047 0.0
In65 In 0.00352 0.43455 0.80016 0.0
O66 O 0.02867 0.4765 0.73103 0.0
O67 O 0.0763 0.41935 0.75943 0.0
C68 C 0.94913 0.51003 0.838 0.0
C69 C 0.94838 0.36112 0.76061 0.0
C70 C 0.06618 0.43438 0.87869 0.0
O71 O -0.02428 0.51431 0.79938 0.0
O72 O 0.94734 0.46668 0.85615 0.0
O73 O 0.02431 0.41255 0.88078 0.0
O74 O 0.07677 0.45304 0.83703 0.0
C75 C 0.07005 0.45393 0.728 0.0
O76 O -0.0172 0.35249 0.79163 0.0
O77 O 0.94119 0.40635 0.75048 0.0
In78 In 0.74809 0.75352 0.05016 0.0
O79 O 0.83013 0.7328 0.04164 0.0
O80 O 0.77628 0.69119 0.00048 0.0
C81 C 0.74826 0.81617 0.1287 0.0
C82 C 0.7287 0.82005 -0.022 0.0
C83 C 0.67259 0.69915 0.08799 0.0
O84 O 0.77007 0.77429 0.13079 0.0
O85 O 0.72962 0.82678 0.08704 0.0
O86 O 0.66831 0.72575 0.04938 0.0
O87 O 0.71593 0.69733 0.10614 0.0
C88 C 0.82151 0.69838 0.01061 0.0
O89 O 0.70613 0.77868 -0.01897 0.0
O90 O 0.76327 0.82631 0.00943 0.0
In91 In 0.42909 0.4981 0.30015 0.0
O92 O 0.44981 0.58015 0.29162 0.0
O93 O 0.49142 0.52629 0.25048 0.0
C94 C 0.36646 0.49828 0.37871 0.0
C95 C 0.36256 0.47871 0.228 0.0
C96 C 0.48347 0.42261 0.33799 0.0
O97 O 0.40833 0.52009 0.38078 0.0
O98 O 0.35584 0.47964 0.33704 0.0
O99 O 0.45687 0.41833 0.29938 0.0
O100 O 0.48529 0.46595 0.35613 0.0
C101 C 0.48423 0.57153 0.2606 0.0
O102 O 0.40394 0.45614 0.23103 0.0
O103 O 0.35631 0.51328 0.25943 0.0
In104 In 0.38259 0.18458 0.25356 0.0
O105 O 0.45173 0.22649 0.27874 0.0
O106 O 0.4233 0.16934 0.32635 0.0
C107 C 0.34473 0.26001 0.19912 0.0
C108 C 0.42214 0.11115 0.19842 0.0
C109 C 0.30408 0.18448 0.31622 0.0
O110 O 0.38338 0.26431 0.22567 0.0
O111 O 0.32657 0.21667 0.19738 0.0
O112 O 0.30204 0.16246 0.27445 0.0
O113 O 0.34569 0.20329 0.32674 0.0
C114 C 0.45474 0.20391 0.32012 0.0
O115 O 0.39111 0.10253 0.23284 0.0
O116 O 0.43226 0.15639 0.19123 0.0
In117 In -0.00193 0.1326 0.50356 0.0
O118 O 0.95616 0.20173 0.52874 0.0
O119 O 0.0133 0.1733 0.57635 0.0
C120 C 0.92262 0.09475 0.44913 0.0
C121 C 0.07149 0.17214 0.44842 0.0
C122 C -0.00184 0.05407 0.56621 0.0
O123 O 0.91832 0.13338 0.4757 0.0
O124 O 0.96595 0.0766 0.44737 0.0
O125 O 0.02016 0.05202 0.52442 0.0
O126 O -0.02061 0.09569 0.57675 0.0
C127 C -0.02126 0.20474 0.57011 0.0
O128 O 0.08012 0.14111 0.48284 0.0
O129 O 0.02626 0.18226 0.44122 0.0
In130 In 0.05004 0.74808 0.75356 0.0
O131 O 0.04152 0.83013 0.73284 0.0
O132 O 0.00037 0.77626 0.69123 0.0
C133 C 0.12856 0.7482 0.81621 0.0
C134 C -0.02211 0.72874 0.82012 0.0
C135 C 0.08788 0.67262 0.69914 0.0
O136 O 0.13061 0.77017 0.77442 0.0
O137 O 0.08694 0.72943 0.82676 0.0
O138 O 0.04926 0.66833 0.72572 0.0
O139 O 0.10604 0.71596 0.69737 0.0
C140 C 0.01049 0.8215 0.69842 0.0
O141 O -0.01909 0.70616 0.77874 0.0
O142 O 0.00933 0.76331 0.82636 0.0
In143 In 0.43456 0.80006 0.00356 0.0
O144 O 0.47647 0.73093 0.02873 0.0
O145 O 0.41932 0.75935 0.07635 0.0
C146 C 0.51001 0.83791 0.94913 0.0
C147 C 0.36114 0.76053 0.94841 0.0
C148 C 0.43446 0.87858 0.06621 0.0
O149 O 0.5143 0.79927 -0.02431 0.0
O150 O 0.46667 0.85607 0.94737 0.0
O151 O 0.41247 0.88063 0.02443 0.0
O152 O 0.45324 0.83696 0.07675 0.0
C153 C 0.45389 0.72791 0.07011 0.0
O154 O 0.35251 0.79156 -0.01717 0.0
O155 O 0.40637 0.75041 0.94122 0.0
In156 In 0.88258 0.24808 0.67917 0.0
O157 O 0.8911 0.33012 0.69991 0.0
O158 O 0.93225 0.27626 0.74151 0.0
C159 C 0.80406 0.24818 0.61652 0.0
C160 C 0.9547 0.22874 0.61262 0.0
C161 C 0.84473 0.17264 0.73361 0.0
O162 O 0.80201 0.27017 0.65831 0.0
O163 O 0.84568 0.2294 0.60598 0.0
O164 O 0.88337 0.16834 0.70705 0.0
O165 O 0.82657 0.21598 0.73536 0.0
C166 C 0.92213 0.32149 0.73432 0.0
O167 O 0.9517 0.20614 0.65399 0.0
O168 O 0.92329 0.26333 0.60638 0.0
In169 In 0.93456 0.63259 0.92918 0.0
O170 O 0.85251 0.6411 0.94991 0.0
O171 O 0.90637 0.68226 -0.00849 0.0
C172 C 0.93445 0.55405 0.86654 0.0
C173 C 0.9539 0.7047 0.86262 0.0
C174 C 0.01001 0.59475 -0.0164 0.0
O175 O 0.91249 0.552 0.90834 0.0
O176 O 0.9532 0.59568 0.85597 0.0
O177 O 0.0143 0.63338 0.95702 0.0
O178 O -0.03332 0.57659 -0.01463 0.0
C179 C 0.86114 0.67213 -0.01568 0.0
O180 O -0.02351 0.70171 0.90399 0.0
O181 O 0.91931 0.67329 0.85638 0.0
In182 In 0.55003 0.68457 0.17917 0.0
O183 O 0.48092 0.72651 0.15398 0.0
O184 O 0.50933 0.66932 0.10638 0.0
C185 C 0.58789 0.76001 0.23361 0.0
C186 C 0.51048 0.61116 0.23431 0.0
C187 C 0.62856 0.68447 0.11653 0.0
O188 O 0.54925 0.76431 0.20704 0.0
O189 O 0.60604 0.71667 0.23536 0.0
O190 O 0.6306 0.66248 0.15831 0.0
O191 O 0.58694 0.70325 0.10598 0.0
C192 C 0.47792 0.70392 0.11261 0.0
O193 O 0.54152 0.60253 0.1999 0.0
O194 O 0.50036 0.65639 0.2415 0.0
In195 In 0.49807 0.30006 0.42918 0.0
O196 O 0.45613 0.23094 0.40399 0.0
O197 O 0.51332 0.25935 0.35639 0.0
C198 C 0.42263 0.33791 0.48362 0.0
C199 C 0.57149 0.26052 0.48432 0.0
C200 C 0.49815 0.37858 0.36653 0.0
O201 O 0.41833 0.29927 0.45707 0.0
O202 O 0.46597 0.35607 0.48536 0.0
O203 O 0.52016 0.38063 0.4083 0.0
O204 O 0.47936 0.33696 0.35599 0.0
C205 C 0.47873 0.22794 0.36262 0.0
O206 O 0.58011 0.29155 0.4499 0.0
O207 O 0.52626 0.25039 0.49151 0.0
In208 In 0.25355 0.38255 0.18458 0.0
O209 O 0.27871 0.45164 0.22658 0.0
O210 O 0.32633 0.42328 0.16938 0.0
C211 C 0.19915 0.34466 0.26001 0.0
C212 C 0.19841 0.42214 0.11117 0.0
C213 C 0.31619 0.30403 0.18442 0.0
O214 O 0.22567 0.38332 0.26433 0.0
O215 O 0.19738 0.32651 0.21667 0.0
O216 O 0.27437 0.30196 0.16251 0.0
O217 O 0.32677 0.34567 0.20315 0.0
C218 C 0.32008 0.45466 0.20399 0.0
O219 O 0.23283 0.39111 0.10252 0.0
O220 O 0.19123 0.43224 0.15641 0.0
In221 In 0.75355 0.05009 0.74815 0.0
O222 O 0.77872 -0.019 0.70615 0.0
O223 O 0.82634 0.00937 0.76335 0.0
C224 C 0.69915 0.08797 0.67271 0.0
C225 C 0.69841 0.01051 0.82156 0.0
C226 C 0.81619 0.12861 0.7483 0.0
O227 O 0.72568 0.04932 0.6684 0.0
O228 O 0.69738 0.10612 0.71606 0.0
O229 O 0.77438 0.13068 0.77022 0.0
O230 O 0.82677 0.08698 0.72957 0.0
C231 C 0.82009 -0.02201 0.72874 0.0
O232 O 0.73283 0.04153 0.8302 0.0
O233 O 0.69123 0.0004 0.77632 0.0
In234 In 0.13256 0.50357 -0.00186 0.0
O235 O 0.20166 0.52875 0.95616 0.0
O236 O 0.17327 0.57636 0.01336 0.0
C237 C 0.09468 0.44916 0.92271 0.0
C238 C 0.17215 0.44843 0.07155 0.0
C239 C 0.05404 0.56621 -0.00172 0.0
O240 O 0.13333 0.47569 0.91839 0.0
O241 O 0.07653 0.44739 0.96606 0.0
O242 O 0.05199 0.52441 0.02024 0.0
O243 O 0.09567 0.57677 -0.02048 0.0
C244 C 0.20466 0.57012 -0.02125 0.0
O245 O 0.14112 0.48284 0.08019 0.0
O246 O 0.18225 0.44125 0.02631 0.0
In247 In 0.67908 0.88256 0.24815 0.0
O248 O 0.65391 0.95165 0.20616 0.0
O249 O 0.60629 0.92328 0.26337 0.0
C250 C 0.73348 0.84467 0.17273 0.0
C251 C 0.73422 0.92214 0.32156 0.0
C252 C 0.61643 0.80404 0.2483 0.0
O253 O 0.70695 0.88332 0.16841 0.0
O254 O 0.73524 0.82652 0.21607 0.0
O255 O 0.65823 0.80197 0.27023 0.0
O256 O 0.60586 0.84567 0.22956 0.0
C257 C 0.61254 0.95466 0.22875 0.0
O258 O 0.6998 0.89112 0.33021 0.0
O259 O 0.7414 0.93225 0.27632 0.0
In260 In 0.30008 0.42909 0.49817 0.0
O261 O 0.29152 0.44981 0.58022 0.0
O262 O 0.25039 0.49141 0.52633 0.0
C263 C 0.37861 0.36645 0.49832 0.0
C264 C 0.22798 0.36255 0.47875 0.0
C265 C 0.33796 0.48349 0.42273 0.0
O266 O 0.38067 0.40827 0.52023 0.0
O267 O 0.33697 0.35586 0.4796 0.0
O268 O 0.29931 0.45696 0.41842 0.0
O269 O 0.35611 0.48526 0.46607 0.0
C270 C 0.2605 0.48423 0.57158 0.0
O271 O 0.231 0.40392 0.45616 0.0
O272 O 0.25937 0.3563 0.51337 0.0
In273 In 0.17907 0.55008 0.6846 0.0
O274 O 0.1998 0.54153 0.60255 0.0
O275 O 0.2414 0.50039 0.65644 0.0
C276 C 0.11642 0.6286 0.68446 0.0
C277 C 0.11254 0.47797 0.704 0.0
C278 C 0.23348 0.58797 0.76003 0.0
O279 O 0.15822 0.63066 0.6625 0.0
O280 O 0.10587 0.58697 0.70322 0.0
O281 O 0.20695 0.54932 0.76435 0.0
O282 O 0.23524 0.60612 0.71668 0.0
C283 C 0.23421 0.51049 0.6112 0.0
O284 O 0.1539 0.48099 0.72659 0.0
O285 O 0.10629 0.50936 0.66938 0.0
In286 In 0.63256 0.92909 0.93459 0.0
O287 O 0.70165 0.90391 -0.02342 0.0
O288 O 0.67327 0.8563 0.91938 0.0
C289 C 0.59468 -0.01651 0.01002 0.0
C290 C 0.67215 -0.01578 0.86118 0.0
C291 C 0.55403 0.86645 0.93444 0.0
O292 O 0.63333 0.95696 0.01434 0.0
O293 O 0.57653 -0.01474 -0.03332 0.0
O294 O 0.55198 0.90826 0.91251 0.0
O295 O 0.59566 0.85587 0.95318 0.0
C296 C 0.70466 0.86254 0.954 0.0
O297 O 0.64111 0.94981 0.85254 0.0
O298 O 0.68225 -0.00859 0.90642 0.0
In299 In 0.80007 0.00357 0.43458 0.0
O300 O 0.79152 -0.01716 0.35253 0.0
O301 O 0.75038 0.94124 0.40642 0.0
C302 C 0.87859 0.06621 0.43444 0.0
C303 C 0.72797 0.07011 0.45398 0.0
C304 C 0.83796 0.94916 0.51001 0.0
O305 O 0.88065 0.02441 0.41249 0.0
O306 O 0.83697 0.07678 0.4532 0.0
O307 O 0.7993 -0.02432 0.51433 0.0
O308 O 0.85611 0.9474 0.46667 0.0
C309 C 0.76049 0.94843 0.36118 0.0
O310 O 0.73098 0.02874 0.47658 0.0
O311 O 0.75936 0.07635 0.41937 0.0
loop_
_geom_bond_atom_site_label_1
_geom_bond_atom_site_label_2
_geom_bond_distance
_geom_bond_site_symmetry_2
_ccdc_geom_bond_type
In0 O1 2.294 . S
In0 O2 2.326 . S
In0 O6 2.266 . S
In0 O7 2.326 . S
In0 O8 2.266 . S
In0 O9 2.326 . S
In0 O11 2.294 . S
In0 O12 2.326 . S
O1 In0 2.294 . S
O1 C10 1.240 . S
O2 In0 2.326 . S
O2 C10 1.252 . S
C3 O6 1.252 . S
C3 O7 1.260 . S
C4 O11 1.240 . S
C4 O12 1.252 . S
C5 O8 1.252 . S
C5 O9 1.260 . S
O6 In0 2.266 . S
O6 C3 1.252 . S
O7 In0 2.326 . S
O7 C3 1.260 . S
O8 In0 2.266 . S
O8 C5 1.252 . S
O9 In0 2.326 . S
O9 C5 1.260 . S
C10 O1 1.240 . S
C10 O2 1.252 . S
O11 In0 2.294 . S
O11 C4 1.240 . S
O12 In0 2.326 . S
O12 C4 1.252 . S
In13 O14 2.294 . S
In13 O15 2.326 . S
In13 O19 2.266 . S
In13 O20 2.326 . S
In13 O21 2.266 1_565 S
In13 O22 2.326 1_655 S
In13 O24 2.294 . S
In13 O25 2.326 . S
O14 In13 2.294 . S
O14 C23 1.240 . S
O15 In13 2.326 . S
O15 C23 1.252 . S
C16 O19 1.252 . S
C16 O20 1.260 . S
C17 O24 1.240 . S
C17 O25 1.252 . S
C18 O21 1.252 1_465 S
C18 O22 1.260 . S
O19 In13 2.266 . S
O19 C16 1.252 . S
O20 In13 2.326 . S
O20 C16 1.260 . S
O21 In13 2.266 1_545 S
O21 C18 1.252 1_645 S
O22 In13 2.326 1_455 S
O22 C18 1.260 . S
C23 O14 1.240 . S
C23 O15 1.252 . S
O24 In13 2.294 . S
O24 C17 1.240 . S
O25 In13 2.326 . S
O25 C17 1.252 . S
In26 O27 2.294 . S
In26 O28 2.326 . S
In26 O32 2.266 . S
In26 O33 2.326 . S
In26 O34 2.266 . S
In26 O35 2.326 . S
In26 O37 2.294 . S
In26 O38 2.326 . S
O27 In26 2.294 . S
O27 C36 1.240 . S
O28 In26 2.326 . S
O28 C36 1.252 . S
C29 O32 1.252 . S
C29 O33 1.260 . S
C30 O37 1.240 . S
C30 O38 1.252 . S
C31 O34 1.252 . S
C31 O35 1.260 . S
O32 In26 2.266 . S
O32 C29 1.252 . S
O33 In26 2.326 . S
O33 C29 1.260 . S
O34 In26 2.266 . S
O34 C31 1.252 . S
O35 In26 2.326 . S
O35 C31 1.260 . S
C36 O27 1.240 . S
C36 O28 1.252 . S
O37 In26 2.294 . S
O37 C30 1.240 . S
O38 In26 2.326 . S
O38 C30 1.252 . S
In39 O40 2.294 . S
In39 O41 2.326 . S
In39 O45 2.266 . S
In39 O46 2.326 . S
In39 O47 2.266 1_545 S
In39 O48 2.326 . S
In39 O50 2.294 . S
In39 O51 2.326 . S
O40 In39 2.294 . S
O40 C49 1.240 . S
O41 In39 2.326 . S
O41 C49 1.252 . S
C42 O45 1.252 . S
C42 O46 1.260 . S
C43 O50 1.240 . S
C43 O51 1.252 . S
C44 O47 1.252 1_545 S
C44 O48 1.260 . S
O45 In39 2.266 . S
O45 C42 1.252 . S
O46 In39 2.326 . S
O46 C42 1.260 . S
O47 In39 2.266 1_565 S
O47 C44 1.252 1_565 S
O48 In39 2.326 . S
O48 C44 1.260 . S
C49 O40 1.240 . S
C49 O41 1.252 . S
O50 In39 2.294 . S
O50 C43 1.240 . S
O51 In39 2.326 . S
O51 C43 1.252 . S
In52 O53 2.294 . S
In52 O54 2.326 . S
In52 O58 2.266 . S
In52 O59 2.326 . S
In52 O60 2.266 . S
In52 O61 2.326 . S
In52 O63 2.294 . S
In52 O64 2.326 . S
O53 In52 2.294 . S
O53 C62 1.240 . S
O54 In52 2.326 . S
O54 C62 1.252 . S
C55 O58 1.252 . S
C55 O59 1.260 . S
C56 O63 1.240 . S
C56 O64 1.252 . S
C57 O60 1.252 . S
C57 O61 1.260 . S
O58 In52 2.266 . S
O58 C55 1.252 . S
O59 In52 2.326 . S
O59 C55 1.260 . S
O60 In52 2.266 . S
O60 C57 1.252 . S
O61 In52 2.326 . S
O61 C57 1.260 . S
C62 O53 1.240 . S
C62 O54 1.252 . S
O63 In52 2.294 . S
O63 C56 1.240 . S
O64 In52 2.326 . S
O64 C56 1.252 . S
In65 O66 2.294 . S
In65 O67 2.326 . S
In65 O71 2.266 . S
In65 O72 2.326 1_455 S
In65 O73 2.266 . S
In65 O74 2.326 . S
In65 O76 2.294 . S
In65 O77 2.326 . S
O66 In65 2.294 . S
O66 C75 1.240 . S
O67 In65 2.326 . S
O67 C75 1.252 . S
C68 O71 1.252 1_655 S
C68 O72 1.260 . S
C69 O76 1.240 . S
C69 O77 1.252 . S
C70 O73 1.252 . S
C70 O74 1.260 . S
O71 In65 2.266 . S
O71 C68 1.252 1_455 S
O72 In65 2.326 1_655 S
O72 C68 1.260 . S
O73 In65 2.266 . S
O73 C70 1.252 . S
O74 In65 2.326 . S
O74 C70 1.260 . S
C75 O66 1.240 . S
C75 O67 1.252 . S
O76 In65 2.294 . S
O76 C69 1.240 . S
O77 In65 2.326 . S
O77 C69 1.252 . S
In78 O79 2.294 . S
In78 O80 2.326 . S
In78 O84 2.266 . S
In78 O85 2.326 . S
In78 O86 2.266 . S
In78 O87 2.326 . S
In78 O89 2.294 . S
In78 O90 2.326 . S
O79 In78 2.294 . S
O79 C88 1.240 . S
O80 In78 2.326 . S
O80 C88 1.252 . S
C81 O84 1.252 . S
C81 O85 1.260 . S
C82 O89 1.240 . S
C82 O90 1.252 . S
C83 O86 1.252 . S
C83 O87 1.260 . S
O84 In78 2.266 . S
O84 C81 1.252 . S
O85 In78 2.326 . S
O85 C81 1.260 . S
O86 In78 2.266 . S
O86 C83 1.252 . S
O87 In78 2.326 . S
O87 C83 1.260 . S
C88 O79 1.240 . S
C88 O80 1.252 . S
O89 In78 2.294 . S
O89 C82 1.240 . S
O90 In78 2.326 . S
O90 C82 1.252 . S
In91 O92 2.294 . S
In91 O93 2.326 . S
In91 O97 2.266 . S
In91 O98 2.326 . S
In91 O99 2.266 . S
In91 O100 2.326 . S
In91 O102 2.294 . S
In91 O103 2.326 . S
O92 In91 2.294 . S
O92 C101 1.240 . S
O93 In91 2.326 . S
O93 C101 1.252 . S
C94 O97 1.252 . S
C94 O98 1.260 . S
C95 O102 1.240 . S
C95 O103 1.252 . S
C96 O99 1.252 . S
C96 O100 1.260 . S
O97 In91 2.266 . S
O97 C94 1.252 . S
O98 In91 2.326 . S
O98 C94 1.260 . S
O99 In91 2.266 . S
O99 C96 1.252 . S
O100 In91 2.326 . S
O100 C96 1.260 . S
C101 O92 1.240 . S
C101 O93 1.252 . S
O102 In91 2.294 . S
O102 C95 1.240 . S
O103 In91 2.326 . S
O103 C95 1.252 . S
In104 O105 2.294 . S
In104 O106 2.326 . S
In104 O110 2.266 . S
In104 O111 2.326 . S
In104 O112 2.266 . S
In104 O113 2.326 . S
In104 O115 2.294 . S
In104 O116 2.326 . S
O105 In104 2.294 . S
O105 C114 1.240 . S
O106 In104 2.326 . S
O106 C114 1.252 . S
C107 O110 1.252 . S
C107 O111 1.260 . S
C108 O115 1.240 . S
C108 O116 1.252 . S
C109 O112 1.252 . S
C109 O113 1.260 . S
O110 In104 2.266 . S
O110 C107 1.252 . S
O111 In104 2.326 . S
O111 C107 1.260 . S
O112 In104 2.266 . S
O112 C109 1.252 . S
O113 In104 2.326 . S
O113 C109 1.260 . S
C114 O105 1.240 . S
C114 O106 1.252 . S
O115 In104 2.294 . S
O115 C108 1.240 . S
O116 In104 2.326 . S
O116 C108 1.252 . S
In117 O118 2.294 . S
In117 O119 2.326 . S
In117 O123 2.266 1_455 S
In117 O124 2.326 . S
In117 O125 2.266 . S
In117 O126 2.326 . S
In117 O128 2.294 . S
In117 O129 2.326 . S
O118 In117 2.294 . S
O118 C127 1.240 . S
O119 In117 2.326 . S
O119 C127 1.252 . S
C120 O123 1.252 1_455 S
C120 O124 1.260 . S
C121 O128 1.240 . S
C121 O129 1.252 . S
C122 O125 1.252 . S
C122 O126 1.260 . S
O123 In117 2.266 1_655 S
O123 C120 1.252 1_655 S
O124 In117 2.326 . S
O124 C120 1.260 . S
O125 In117 2.266 . S
O125 C122 1.252 . S
O126 In117 2.326 . S
O126 C122 1.260 . S
C127 O118 1.240 . S
C127 O119 1.252 . S
O128 In117 2.294 . S
O128 C121 1.240 . S
O129 In117 2.326 . S
O129 C121 1.252 . S
In130 O131 2.294 . S
In130 O132 2.326 . S
In130 O136 2.266 . S
In130 O137 2.326 . S
In130 O138 2.266 . S
In130 O139 2.326 . S
In130 O141 2.294 . S
In130 O142 2.326 . S
O131 In130 2.294 . S
O131 C140 1.240 . S
O132 In130 2.326 . S
O132 C140 1.252 . S
C133 O136 1.252 . S
C133 O137 1.260 . S
C134 O141 1.240 . S
C134 O142 1.252 . S
C135 O138 1.252 . S
C135 O139 1.260 . S
O136 In130 2.266 . S
O136 C133 1.252 . S
O137 In130 2.326 . S
O137 C133 1.260 . S
O138 In130 2.266 . S
O138 C135 1.252 . S
O139 In130 2.326 . S
O139 C135 1.260 . S
C140 O131 1.240 . S
C140 O132 1.252 . S
O141 In130 2.294 . S
O141 C134 1.240 . S
O142 In130 2.326 . S
O142 C134 1.252 . S
In143 O144 2.294 . S
In143 O145 2.326 . S
In143 O149 2.266 . S
In143 O150 2.326 1_554 S
In143 O151 2.266 . S
In143 O152 2.326 . S
In143 O154 2.294 . S
In143 O155 2.326 . S
O144 In143 2.294 . S
O144 C153 1.240 . S
O145 In143 2.326 . S
O145 C153 1.252 . S
C146 O149 1.252 1_556 S
C146 O150 1.260 . S
C147 O154 1.240 . S
C147 O155 1.252 . S
C148 O151 1.252 . S
C148 O152 1.260 . S
O149 In143 2.266 . S
O149 C146 1.252 1_554 S
O150 In143 2.326 1_556 S
O150 C146 1.260 . S
O151 In143 2.266 . S
O151 C148 1.252 . S
O152 In143 2.326 . S
O152 C148 1.260 . S
C153 O144 1.240 . S
C153 O145 1.252 . S
O154 In143 2.294 . S
O154 C147 1.240 . S
O155 In143 2.326 . S
O155 C147 1.252 . S
In156 O157 2.294 . S
In156 O158 2.326 . S
In156 O162 2.266 . S
In156 O163 2.326 . S
In156 O164 2.266 . S
In156 O165 2.326 . S
In156 O167 2.294 . S
In156 O168 2.326 . S
O157 In156 2.294 . S
O157 C166 1.240 . S
O158 In156 2.326 . S
O158 C166 1.252 . S
C159 O162 1.252 . S
C159 O163 1.260 . S
C160 O167 1.240 . S
C160 O168 1.252 . S
C161 O164 1.252 . S
C161 O165 1.260 . S
O162 In156 2.266 . S
O162 C159 1.252 . S
O163 In156 2.326 . S
O163 C159 1.260 . S
O164 In156 2.266 . S
O164 C161 1.252 . S
O165 In156 2.326 . S
O165 C161 1.260 . S
C166 O157 1.240 . S
C166 O158 1.252 . S
O167 In156 2.294 . S
O167 C160 1.240 . S
O168 In156 2.326 . S
O168 C160 1.252 . S
In169 O170 2.294 . S
In169 O171 2.326 . S
In169 O175 2.266 . S
In169 O176 2.326 . S
In169 O177 2.266 1_655 S
In169 O178 2.326 1_556 S
In169 O180 2.294 . S
In169 O181 2.326 . S
O170 In169 2.294 . S
O170 C179 1.240 . S
O171 In169 2.326 . S
O171 C179 1.252 . S
C172 O175 1.252 . S
C172 O176 1.260 . S
C173 O180 1.240 . S
C173 O181 1.252 . S
C174 O177 1.252 1_654 S
C174 O178 1.260 . S
O175 In169 2.266 . S
O175 C172 1.252 . S
O176 In169 2.326 . S
O176 C172 1.260 . S
O177 In169 2.266 1_455 S
O177 C174 1.252 1_456 S
O178 In169 2.326 1_554 S
O178 C174 1.260 . S
C179 O170 1.240 . S
C179 O171 1.252 . S
O180 In169 2.294 . S
O180 C173 1.240 . S
O181 In169 2.326 . S
O181 C173 1.252 . S
In182 O183 2.294 . S
In182 O184 2.326 . S
In182 O188 2.266 . S
In182 O189 2.326 . S
In182 O190 2.266 . S
In182 O191 2.326 . S
In182 O193 2.294 . S
In182 O194 2.326 . S
O183 In182 2.294 . S
O183 C192 1.240 . S
O184 In182 2.326 . S
O184 C192 1.252 . S
C185 O188 1.252 . S
C185 O189 1.260 . S
C186 O193 1.240 . S
C186 O194 1.252 . S
C187 O190 1.252 . S
C187 O191 1.260 . S
O188 In182 2.266 . S
O188 C185 1.252 . S
O189 In182 2.326 . S
O189 C185 1.260 . S
O190 In182 2.266 . S
O190 C187 1.252 . S
O191 In182 2.326 . S
O191 C187 1.260 . S
C192 O183 1.240 . S
C192 O184 1.252 . S
O193 In182 2.294 . S
O193 C186 1.240 . S
O194 In182 2.326 . S
O194 C186 1.252 . S
In195 O196 2.294 . S
In195 O197 2.326 . S
In195 O201 2.266 . S
In195 O202 2.326 . S
In195 O203 2.266 . S
In195 O204 2.326 . S
In195 O206 2.294 . S
In195 O207 2.326 . S
O196 In195 2.294 . S
O196 C205 1.240 . S
O197 In195 2.326 . S
O197 C205 1.252 . S
C198 O201 1.252 . S
C198 O202 1.260 . S
C199 O206 1.240 . S
C199 O207 1.252 . S
C200 O203 1.252 . S
C200 O204 1.260 . S
O201 In195 2.266 . S
O201 C198 1.252 . S
O202 In195 2.326 . S
O202 C198 1.260 . S
O203 In195 2.266 . S
O203 C200 1.252 . S
O204 In195 2.326 . S
O204 C200 1.260 . S
C205 O196 1.240 . S
C205 O197 1.252 . S
O206 In195 2.294 . S
O206 C199 1.240 . S
O207 In195 2.326 . S
O207 C199 1.252 . S
In208 O209 2.294 . S
In208 O210 2.326 . S
In208 O214 2.266 . S
In208 O215 2.326 . S
In208 O216 2.266 . S
In208 O217 2.326 . S
In208 O219 2.294 . S
In208 O220 2.326 . S
O209 In208 2.294 . S
O209 C218 1.240 . S
O210 In208 2.326 . S
O210 C218 1.252 . S
C211 O214 1.252 . S
C211 O215 1.260 . S
C212 O219 1.240 . S
C212 O220 1.252 . S
C213 O216 1.252 . S
C213 O217 1.260 . S
O214 In208 2.266 . S
O214 C211 1.252 . S
O215 In208 2.326 . S
O215 C211 1.260 . S
O216 In208 2.266 . S
O216 C213 1.252 . S
O217 In208 2.326 . S
O217 C213 1.260 . S
C218 O209 1.240 . S
C218 O210 1.252 . S
O219 In208 2.294 . S
O219 C212 1.240 . S
O220 In208 2.326 . S
O220 C212 1.252 . S
In221 O222 2.294 . S
In221 O223 2.326 . S
In221 O227 2.266 . S
In221 O228 2.326 . S
In221 O229 2.266 . S
In221 O230 2.326 . S
In221 O232 2.294 . S
In221 O233 2.326 . S
O222 In221 2.294 . S
O222 C231 1.240 . S
O223 In221 2.326 . S
O223 C231 1.252 . S
C224 O227 1.252 . S
C224 O228 1.260 . S
C225 O232 1.240 . S
C225 O233 1.252 . S
C226 O229 1.252 . S
C226 O230 1.260 . S
O227 In221 2.266 . S
O227 C224 1.252 . S
O228 In221 2.326 . S
O228 C224 1.260 . S
O229 In221 2.266 . S
O229 C226 1.252 . S
O230 In221 2.326 . S
O230 C226 1.260 . S
C231 O222 1.240 . S
C231 O223 1.252 . S
O232 In221 2.294 . S
O232 C225 1.240 . S
O233 In221 2.326 . S
O233 C225 1.252 . S
In234 O235 2.294 . S
In234 O236 2.326 . S
In234 O240 2.266 1_554 S
In234 O241 2.326 . S
In234 O242 2.266 . S
In234 O243 2.326 . S
In234 O245 2.294 . S
In234 O246 2.326 . S
O235 In234 2.294 . S
O235 C244 1.240 . S
O236 In234 2.326 . S
O236 C244 1.252 . S
C237 O240 1.252 1_554 S
C237 O241 1.260 . S
C238 O245 1.240 . S
C238 O246 1.252 . S
C239 O242 1.252 . S
C239 O243 1.260 . S
O240 In234 2.266 1_556 S
O240 C237 1.252 1_556 S
O241 In234 2.326 . S
O241 C237 1.260 . S
O242 In234 2.266 . S
O242 C239 1.252 . S
O243 In234 2.326 . S
O243 C239 1.260 . S
C244 O235 1.240 . S
C244 O236 1.252 . S
O245 In234 2.294 . S
O245 C238 1.240 . S
O246 In234 2.326 . S
O246 C238 1.252 . S
In247 O248 2.294 . S
In247 O249 2.326 . S
In247 O253 2.266 . S
In247 O254 2.326 . S
In247 O255 2.266 . S
In247 O256 2.326 . S
In247 O258 2.294 . S
In247 O259 2.326 . S
O248 In247 2.294 . S
O248 C257 1.240 . S
O249 In247 2.326 . S
O249 C257 1.252 . S
C250 O253 1.252 . S
C250 O254 1.260 . S
C251 O258 1.240 . S
C251 O259 1.252 . S
C252 O255 1.252 . S
C252 O256 1.260 . S
O253 In247 2.266 . S
O253 C250 1.252 . S
O254 In247 2.326 . S
O254 C250 1.260 . S
O255 In247 2.266 . S
O255 C252 1.252 . S
O256 In247 2.326 . S
O256 C252 1.260 . S
C257 O248 1.240 . S
C257 O249 1.252 . S
O258 In247 2.294 . S
O258 C251 1.240 . S
O259 In247 2.326 . S
O259 C251 1.252 . S
In260 O261 2.294 . S
In260 O262 2.326 . S
In260 O266 2.266 . S
In260 O267 2.326 . S
In260 O268 2.266 . S
In260 O269 2.326 . S
In260 O271 2.294 . S
In260 O272 2.326 . S
O261 In260 2.294 . S
O261 C270 1.240 . S
O262 In260 2.326 . S
O262 C270 1.252 . S
C263 O266 1.252 . S
C263 O267 1.260 . S
C264 O271 1.240 . S
C264 O272 1.252 . S
C265 O268 1.252 . S
C265 O269 1.260 . S
O266 In260 2.266 . S
O266 C263 1.252 . S
O267 In260 2.326 . S
O267 C263 1.260 . S
O268 In260 2.266 . S
O268 C265 1.252 . S
O269 In260 2.326 . S
O269 C265 1.260 . S
C270 O261 1.240 . S
C270 O262 1.252 . S
O271 In260 2.294 . S
O271 C264 1.240 . S
O272 In260 2.326 . S
O272 C264 1.252 . S
In273 O274 2.294 . S
In273 O275 2.326 . S
In273 O279 2.266 . S
In273 O280 2.326 . S
In273 O281 2.266 . S
In273 O282 2.326 . S
In273 O284 2.294 . S
In273 O285 2.326 . S
O274 In273 2.294 . S
O274 C283 1.240 . S
O275 In273 2.326 . S
O275 C283 1.252 . S
C276 O279 1.252 . S
C276 O280 1.260 . S
C277 O284 1.240 . S
C277 O285 1.252 . S
C278 O281 1.252 . S
C278 O282 1.260 . S
O279 In273 2.266 . S
O279 C276 1.252 . S
O280 In273 2.326 . S
O280 C276 1.260 . S
O281 In273 2.266 . S
O281 C278 1.252 . S
O282 In273 2.326 . S
O282 C278 1.260 . S
C283 O274 1.240 . S
C283 O275 1.252 . S
O284 In273 2.294 . S
O284 C277 1.240 . S
O285 In273 2.326 . S
O285 C277 1.252 . S
In286 O287 2.294 . S
In286 O288 2.326 . S
In286 O292 2.266 1_556 S
In286 O293 2.326 1_565 S
In286 O294 2.266 . S
In286 O295 2.326 . S
In286 O297 2.294 . S
In286 O298 2.326 . S
O287 In286 2.294 . S
O287 C296 1.240 . S
O288 In286 2.326 . S
O288 C296 1.252 . S
C289 O292 1.252 1_546 S
C289 O293 1.260 . S
C290 O297 1.240 . S
C290 O298 1.252 . S
C291 O294 1.252 . S
C291 O295 1.260 . S
O292 In286 2.266 1_554 S
O292 C289 1.252 1_564 S
O293 In286 2.326 1_545 S
O293 C289 1.260 . S
O294 In286 2.266 . S
O294 C291 1.252 . S
O295 In286 2.326 . S
O295 C291 1.260 . S
C296 O287 1.240 . S
C296 O288 1.252 . S
O297 In286 2.294 . S
O297 C290 1.240 . S
O298 In286 2.326 . S
O298 C290 1.252 . S
In299 O300 2.294 . S
In299 O301 2.326 . S
In299 O305 2.266 . S
In299 O306 2.326 . S
In299 O307 2.266 . S
In299 O308 2.326 1_545 S
In299 O310 2.294 . S
In299 O311 2.326 . S
O300 In299 2.294 . S
O300 C309 1.240 . S
O301 In299 2.326 . S
O301 C309 1.252 . S
C302 O305 1.252 . S
C302 O306 1.260 . S
C303 O310 1.240 . S
C303 O311 1.252 . S
C304 O307 1.252 1_565 S
C304 O308 1.260 . S
O305 In299 2.266 . S
O305 C302 1.252 . S
O306 In299 2.326 . S
O306 C302 1.260 . S
O307 In299 2.266 . S
O307 C304 1.252 1_545 S
O308 In299 2.326 1_565 S
O308 C304 1.260 . S
C309 O300 1.240 . S
C309 O301 1.252 . S
O310 In299 2.294 . S
O310 C303 1.240 . S
O311 In299 2.326 . S
O311 C303 1.252 . S
C121 C4 1.771 . S
C23 C140 1.771 1_655 S
C36 C147 1.771 1_556 S
C49 C108 1.771 . S
C56 C199 1.771 . S
C166 C69 1.771 1_655 S
C88 C179 1.771 1_554 S
C186 C101 1.771 . S
C212 C238 1.771 . S
C290 C225 1.771 1_565 S
C251 C309 1.771 1_565 S
C283 C270 1.771 . S
C264 C10 2.378 . S
C17 C231 2.378 1_565 S
C30 C244 2.378 1_556 S
C43 C257 2.378 1_545 S
C62 C303 2.378 . S
C277 C75 2.378 . S
C296 C82 2.378 1_556 S
C218 C95 2.378 . S
C205 C114 2.378 . S
C127 C160 2.378 1_455 S
C173 C134 2.378 1_655 S
C192 C153 2.378 . S
C5 C211 1.773 . S
C304 C16 1.773 . S
C278 C29 1.773 . S
C42 C289 1.773 1_554 S
C57 C224 1.773 . S
C237 C70 1.773 1_554 S
C250 C81 1.773 . S
C265 C94 1.773 . S
C3 C109 1.773 . S
C18 C122 1.773 1_565 S
C31 C133 1.773 . S
C44 C148 1.773 1_545 S
C55 C159 1.773 . S
C68 C172 1.773 . S
C187 C83 1.773 . S
C96 C200 1.773 . S
C107 C213 1.773 . S
C226 C161 1.773 . S
C174 C239 1.773 1_655 S
C252 C185 1.773 . S
C263 C198 1.773 . S
C276 C135 1.773 . S
C146 C291 1.773 . S
C302 C120 1.773 1_655 S
