# Generated by pormake.
# Topology umz, (4)-cn, num edge types: 1
# Building blocks:
#     Node 0, Type 0, BuildingBlock: GALJAG_clean_sbu_0, # of connection points: 4
#     Node 1, Type 0, BuildingBlock: GALJAG_clean_sbu_0, # of connection points: 4
#     Node 2, Type 0, BuildingBlock: GALJAG_clean_sbu_0, # of connection points: 4
#     Node 3, Type 0, BuildingBlock: GALJAG_clean_sbu_0, # of connection points: 4
#     Node 4, Type 0, BuildingBlock: GALJAG_clean_sbu_0, # of connection points: 4
#     Node 5, Type 0, BuildingBlock: GALJAG_clean_sbu_0, # of connection points: 4
#     Node 6, Type 0, BuildingBlock: GALJAG_clean_sbu_0, # of connection points: 4
#     Node 7, Type 0, BuildingBlock: GALJAG_clean_sbu_0, # of connection points: 4
#     Node 8, Type 0, BuildingBlock: GALJAG_clean_sbu_0, # of connection points: 4
#     Node 9, Type 0, BuildingBlock: GALJAG_clean_sbu_0, # of connection points: 4
#     Node 10, Type 0, BuildingBlock: GALJAG_clean_sbu_0, # of connection points: 4
#     Node 11, Type 0, BuildingBlock: GALJAG_clean_sbu_0, # of connection points: 4
#     Node 12, Type 0, BuildingBlock: GALJAG_clean_sbu_0, # of connection points: 4
#     Node 13, Type 0, BuildingBlock: GALJAG_clean_sbu_0, # of connection points: 4
#     Node 14, Type 0, BuildingBlock: GALJAG_clean_sbu_0, # of connection points: 4
#     Node 15, Type 0, BuildingBlock: GALJAG_clean_sbu_0, # of connection points: 4
#     Edge 16, Type (0, 0), BuildingBlock: XIVTED_clean_linker_0, # of connection points: 2
#     Edge 17, Type (0, 0), BuildingBlock: XIVTED_clean_linker_0, # of connection points: 2
#     Edge 18, Type (0, 0), BuildingBlock: XIVTED_clean_linker_0, # of connection points: 2
#     Edge 19, Type (0, 0), BuildingBlock: XIVTED_clean_linker_0, # of connection points: 2
#     Edge 20, Type (0, 0), BuildingBlock: XIVTED_clean_linker_0, # of connection points: 2
#     Edge 21, Type (0, 0), BuildingBlock: XIVTED_clean_linker_0, # of connection points: 2
#     Edge 22, Type (0, 0), BuildingBlock: XIVTED_clean_linker_0, # of connection points: 2
#     Edge 23, Type (0, 0), BuildingBlock: XIVTED_clean_linker_0, # of connection points: 2
#     Edge 24, Type (0, 0), BuildingBlock: XIVTED_clean_linker_0, # of connection points: 2
#     Edge 25, Type (0, 0), BuildingBlock: XIVTED_clean_linker_0, # of connection points: 2
#     Edge 26, Type (0, 0), BuildingBlock: XIVTED_clean_linker_0, # of connection points: 2
#     Edge 27, Type (0, 0), BuildingBlock: XIVTED_clean_linker_0, # of connection points: 2
#     Edge 28, Type (0, 0), BuildingBlock: XIVTED_clean_linker_0, # of connection points: 2
#     Edge 29, Type (0, 0), BuildingBlock: XIVTED_clean_linker_0, # of connection points: 2
#     Edge 30, Type (0, 0), BuildingBlock: XIVTED_clean_linker_0, # of connection points: 2
#     Edge 31, Type (0, 0), BuildingBlock: XIVTED_clean_linker_0, # of connection points: 2
#     Edge 32, Type (0, 0), BuildingBlock: XIVTED_clean_linker_0, # of connection points: 2
#     Edge 33, Type (0, 0), BuildingBlock: XIVTED_clean_linker_0, # of connection points: 2
#     Edge 34, Type (0, 0), BuildingBlock: XIVTED_clean_linker_0, # of connection points: 2
#     Edge 35, Type (0, 0), BuildingBlock: XIVTED_clean_linker_0, # of connection points: 2
#     Edge 36, Type (0, 0), BuildingBlock: XIVTED_clean_linker_0, # of connection points: 2
#     Edge 37, Type (0, 0), BuildingBlock: XIVTED_clean_linker_0, # of connection points: 2
#     Edge 38, Type (0, 0), BuildingBlock: XIVTED_clean_linker_0, # of connection points: 2
#     Edge 39, Type (0, 0), BuildingBlock: XIVTED_clean_linker_0, # of connection points: 2
#     Edge 40, Type (0, 0), BuildingBlock: XIVTED_clean_linker_0, # of connection points: 2
#     Edge 41, Type (0, 0), BuildingBlock: XIVTED_clean_linker_0, # of connection points: 2
#     Edge 42, Type (0, 0), BuildingBlock: XIVTED_clean_linker_0, # of connection points: 2
#     Edge 43, Type (0, 0), BuildingBlock: XIVTED_clean_linker_0, # of connection points: 2
#     Edge 44, Type (0, 0), BuildingBlock: XIVTED_clean_linker_0, # of connection points: 2
#     Edge 45, Type (0, 0), BuildingBlock: XIVTED_clean_linker_0, # of connection points: 2
#     Edge 46, Type (0, 0), BuildingBlock: XIVTED_clean_linker_0, # of connection points: 2
#     Edge 47, Type (0, 0), BuildingBlock: XIVTED_clean_linker_0, # of connection points: 2
# Relax obj value: 0.183
# Max RMSD: 0.169
# Mean RMSD: 0.169
data_MOF--net-umz--node1-GALJAG_clean_sbu_0--edge1-XIVTED_clean_linker_0
_symmetry_space_group_name_H-M    P1
_symmetry_Int_Tables_number       1
_symmetry_cell_setting            triclinic
loop_
_symmetry_equiv_pos_as_xyz
'x, y, z'
_cell_length_a     57.029234
_cell_length_b     56.78344
_cell_length_c     25.180363
_cell_angle_alpha  90.001342
_cell_angle_beta   90.064617
_cell_angle_gamma 90.116604
loop_
_atom_site_label
_atom_site_type_symbol
_atom_site_fract_x
_atom_site_fract_y
_atom_site_fract_z
_atom_type_partial_charge
In0 In 0.02477 0.63511 0.18596 0.0
O1 O 0.0458 0.60885 0.13701 0.0
O2 O 0.05501 0.64524 0.13222 0.0
C3 C 0.98724 0.60768 0.20718 0.0
C4 C 0.00609 0.6724 0.13592 0.0
C5 C 0.04828 0.63616 0.27874 0.0
O6 O 0.00057 0.60378 0.16821 0.0
O7 O -0.00694 0.62504 0.23534 0.0
O8 O 0.03139 0.64985 0.26925 0.0
O9 O 0.05346 0.62236 0.24139 0.0
C10 C 0.0589 0.62445 0.11673 0.0
O11 O 0.0177 0.67451 0.17842 0.0
O12 O 0.00368 0.65158 0.11946 0.0
In13 In 0.85989 0.03098 0.59062 0.0
O14 O 0.82566 0.05166 0.58285 0.0
O15 O 0.82743 0.01728 0.54948 0.0
C16 C 0.88202 0.05197 0.67227 0.0
C17 C 0.88224 0.04611 0.50294 0.0
C18 C 0.8614 0.98766 0.63322 0.0
O19 O 0.86014 0.05378 0.66542 0.0
O20 O 0.89262 0.04037 0.637 0.0
O21 O 0.87214 0.99282 0.59086 0.0
O22 O 0.84946 0.00417 0.65298 0.0
C23 C 0.8154 0.03554 0.55716 0.0
O24 O 0.88178 0.02467 0.51624 0.0
O25 O 0.87172 0.05984 0.53422 0.0
In26 In 0.49299 0.86635 0.07225 0.0
O27 O 0.49239 0.82624 0.07762 0.0
O28 O 0.5117 0.84212 0.01484 0.0
C29 C 0.46436 0.87887 0.15233 0.0
C30 C 0.46905 0.88156 0.98689 0.0
C31 C 0.53313 0.8841 0.112 0.0
O32 O 0.46911 0.85758 0.14254 0.0
O33 O 0.47343 0.89354 0.1208 0.0
O34 O 0.52392 0.89171 0.06979 0.0
O35 O 0.52256 0.86696 0.13299 0.0
C36 C 0.50484 0.82339 0.03669 0.0
O37 O 0.48874 0.88991 0.00012 0.0
O38 O 0.46113 0.86583 0.01751 0.0
In39 In 0.63615 0.41759 0.6858 0.0
O40 O 0.67413 0.41083 0.66156 0.0
O41 O 0.65745 0.4417 0.63265 0.0
C42 C 0.63591 0.3946 0.77956 0.0
C43 C 0.6149 0.38979 0.61401 0.0
C44 C 0.61491 0.45856 0.70905 0.0
O45 O 0.65018 0.41102 0.76974 0.0
O46 O 0.62256 0.38923 0.74156 0.0
O47 O 0.60956 0.44658 0.66854 0.0
O48 O 0.63081 0.44981 0.73767 0.0
C49 C 0.67545 0.42891 0.63253 0.0
O50 O 0.60359 0.40414 0.64253 0.0
O51 O 0.63667 0.38912 0.62283 0.0
In52 In 0.98438 0.86128 0.89011 0.0
O53 O 0.98725 0.8856 0.96174 0.0
O54 O 0.01671 0.86426 0.94257 0.0
C55 C 0.94261 0.87408 0.8498 0.0
C56 C 0.97727 0.81807 0.93029 0.0
C57 C 0.01095 0.87557 0.80797 0.0
O58 O 0.95135 0.88373 0.89047 0.0
O59 O 0.95455 0.85743 0.83082 0.0
O60 O 0.00754 0.85402 0.81795 0.0
O61 O 0.00151 0.88967 0.84019 0.0
C62 C 0.00781 0.87921 0.97364 0.0
O63 O 0.99025 0.82154 0.89043 0.0
O64 O 0.96733 0.83619 0.94825 0.0
In65 In 0.60964 0.04879 0.37051 0.0
O66 O 0.58766 0.04253 0.44453 0.0
O67 O 0.6001 0.07732 0.42994 0.0
C68 C 0.60662 0.00642 0.32387 0.0
C69 C 0.65423 0.04882 0.40442 0.0
C70 C 0.58764 0.07184 0.29166 0.0
O71 O 0.59512 0.01149 0.36524 0.0
O72 O 0.61981 0.02261 0.30678 0.0
O73 O 0.60962 0.07316 0.29791 0.0
O74 O 0.57704 0.0598 0.32622 0.0
C75 C 0.58871 0.06368 0.45997 0.0
O76 O 0.64585 0.06608 0.379 0.0
O77 O 0.64021 0.03198 0.41196 0.0
In78 In 0.48158 0.62247 0.84703 0.0
O79 O 0.48533 0.66234 0.83614 0.0
O80 O 0.5042 0.64603 0.89871 0.0
C81 C 0.4528 0.61217 0.76589 0.0
C82 C 0.45412 0.61391 0.93151 0.0
C83 C 0.51829 0.59528 0.81973 0.0
O84 O 0.46306 0.63185 0.76968 0.0
O85 O 0.45685 0.59797 0.80334 0.0
O86 O 0.50753 0.59311 0.86309 0.0
O87 O 0.51091 0.6116 0.79017 0.0
C88 C 0.49886 0.66485 0.87539 0.0
O89 O 0.47367 0.6041 0.92451 0.0
O90 O 0.44799 0.62793 0.89517 0.0
In91 In 0.84873 0.45049 0.33925 0.0
O92 O 0.8155 0.42943 0.35429 0.0
O93 O 0.81352 0.46651 0.36248 0.0
C94 C 0.86607 0.42853 0.25365 0.0
C95 C 0.86866 0.43277 0.42747 0.0
C96 C 0.8644 0.49369 0.31349 0.0
O97 O 0.84446 0.43317 0.25776 0.0
O98 O 0.87843 0.43435 0.29313 0.0
O99 O 0.86819 0.48432 0.35805 0.0
O100 O 0.85167 0.48174 0.28248 0.0
C101 C 0.80331 0.44694 0.36737 0.0
O102 O 0.863 0.45413 0.42299 0.0
O103 O 0.86453 0.42028 0.38707 0.0
In104 In 0.97399 0.36342 0.84083 0.0
O105 O 0.9665 0.38868 0.90795 0.0
O106 O 0.9414 0.36161 0.8934 0.0
C107 C 0.01473 0.38381 0.81187 0.0
C108 C 0.98552 0.32031 0.87669 0.0
C109 C 0.94644 0.37511 0.75849 0.0
O110 O 0.00589 0.38626 0.85732 0.0
O111 O 0.00335 0.37052 0.78109 0.0
O112 O 0.95467 0.35458 0.7638 0.0
O113 O 0.95187 0.38935 0.79495 0.0
C114 C 0.94745 0.37905 0.92139 0.0
O115 O 0.97341 0.32312 0.83519 0.0
O116 O -0.0078 0.33907 0.89858 0.0
In117 In 0.10909 0.95293 0.39029 0.0
O118 O 0.14582 0.93768 0.38031 0.0
O119 O 0.13886 0.95872 0.44844 0.0
C120 C 0.08583 0.93235 0.30959 0.0
C121 C 0.08602 0.93631 0.47551 0.0
C122 C 0.1099 -0.00287 0.35139 0.0
O123 O 0.1066 0.92673 0.32161 0.0
O124 O 0.0767 0.94765 0.33936 0.0
O125 O 0.09802 0.99156 0.39177 0.0
O126 O 0.12194 0.98064 0.33211 0.0
C127 C 0.15348 0.94659 0.42288 0.0
O128 O 0.08701 0.958 0.46448 0.0
O129 O 0.09631 0.92296 0.44292 0.0
In130 In 0.48092 0.13227 0.87079 0.0
O131 O 0.48339 0.17239 0.86939 0.0
O132 O 0.46085 0.15628 0.92609 0.0
C133 C 0.5094 0.11965 0.79087 0.0
C134 C 0.50542 0.1178 0.95612 0.0
C135 C 0.44117 0.11481 0.8286 0.0
O136 O 0.50419 0.14093 0.79965 0.0
O137 O 0.5007 0.10504 0.82309 0.0
O138 O 0.45042 0.1063 0.86994 0.0
O139 O 0.45149 0.13263 0.8099 0.0
C140 C 0.46956 0.17506 0.90806 0.0
O141 O 0.48508 0.1102 0.94578 0.0
O142 O 0.51356 0.13222 0.92275 0.0
In143 In 0.35284 0.54468 0.34298 0.0
O144 O 0.36693 0.53936 0.42646 0.0
O145 O 0.36682 0.57422 0.39552 0.0
C146 C 0.37123 0.50307 0.31362 0.0
C147 C 0.30713 0.54491 0.37006 0.0
C148 C 0.3695 0.57023 0.2617 0.0
O149 O 0.37384 0.51162 0.35944 0.0
O150 O 0.35858 0.51511 0.28276 0.0
O151 O 0.34866 0.56258 0.26203 0.0
O152 O 0.38135 0.56541 0.30258 0.0
C153 C 0.3715 0.56084 0.43409 0.0
O154 O 0.31862 0.56344 0.36117 0.0
O155 O 0.31821 0.52615 0.36128 0.0
In156 In 0.98634 0.11979 0.09021 0.0
O157 O 0.98333 0.09608 0.0176 0.0
O158 O 0.95341 0.11612 0.04024 0.0
C159 C 0.02835 0.10779 0.13064 0.0
C160 C -0.00675 0.16302 0.05012 0.0
C161 C 0.9598 0.10514 0.17195 0.0
O162 O 0.01959 0.09754 0.09073 0.0
O163 O 0.01631 0.12457 0.14867 0.0
O164 O 0.9619 0.1267 0.16023 0.0
O165 O 0.97061 0.09117 0.14173 0.0
C166 C 0.96237 0.10182 0.00772 0.0
O167 O 0.98197 0.1597 0.09263 0.0
O168 O 0.00149 0.1447 0.02906 0.0
In169 In 0.36477 0.95148 0.57229 0.0
O170 O 0.38658 0.95714 0.49796 0.0
O171 O 0.37724 0.92192 0.51807 0.0
C172 C 0.36489 -0.00453 0.61269 0.0
C173 C 0.32014 0.94576 0.54052 0.0
C174 C 0.38806 0.92997 0.65149 0.0
O175 O 0.3762 0.99007 0.5714 0.0
O176 O 0.35295 0.97892 0.63226 0.0
O177 O 0.36722 0.92453 0.63952 0.0
O178 O 0.39721 0.94553 0.62235 0.0
C179 C 0.38746 0.93557 0.48591 0.0
O180 O 0.32778 0.93673 0.58292 0.0
O181 O 0.33488 0.9577 0.51476 0.0
In182 In 0.52035 0.34966 0.18047 0.0
O183 O 0.50893 0.31134 0.17148 0.0
O184 O 0.49748 0.33602 0.11346 0.0
C185 C 0.54365 0.34505 0.27292 0.0
C186 C 0.55567 0.35734 0.11216 0.0
C187 C 0.48637 0.38102 0.20352 0.0
O188 O 0.52534 0.33336 0.26283 0.0
O189 O 0.55029 0.35863 0.23632 0.0
O190 O 0.49959 0.38341 0.16374 0.0
O191 O 0.4905 0.36313 0.23145 0.0
C192 C 0.49761 0.31496 0.12913 0.0
O193 O 0.54424 0.37401 0.13305 0.0
O194 O 0.54947 0.33693 0.12644 0.0
In195 In 0.13873 0.55688 0.68946 0.0
O196 O 0.17688 0.56546 0.67015 0.0
O197 O 0.16143 0.53547 0.63358 0.0
C198 C 0.13665 0.57829 0.78509 0.0
C199 C 0.11782 0.58514 0.61824 0.0
C200 C 0.11853 0.51469 0.70642 0.0
O201 O 0.15084 0.56184 0.77552 0.0
O202 O 0.12419 0.58439 0.74617 0.0
O203 O 0.1123 0.52808 0.66898 0.0
O204 O 0.13485 0.52261 0.73515 0.0
C205 C 0.1791 0.5487 0.6376 0.0
O206 O 0.10637 0.57041 0.6456 0.0
O207 O 0.1395 0.58597 0.62804 0.0
H208 H -0.00649 0.67342 0.03168 0.0
H209 H 0.96142 0.8098 0.03038 0.0
H210 H -0.00055 0.71745 0.17077 0.0
H211 H 0.99105 0.77485 0.89389 0.0
H212 H 0.96479 0.77313 0.08078 0.0
H213 H 0.98238 0.70806 0.97947 0.0
C214 C -0.00783 0.69034 0.05133 0.0
C215 C -0.00249 0.69271 0.10546 0.0
C216 C 0.97028 0.77348 0.03961 0.0
C217 C 0.9846 0.73207 0.04634 0.0
C218 C 0.96824 0.79429 0.01074 0.0
C219 C 0.97613 0.79531 0.95805 0.0
C220 C 0.97991 0.75353 0.0153 0.0
C221 C 0.98491 0.77477 0.93456 0.0
C222 C 0.98593 0.71002 0.02151 0.0
C223 C -0.00439 0.71497 0.12902 0.0
N224 N 0.98663 0.75464 0.96346 0.0
N225 N 0.98927 0.73386 0.09926 0.0
H226 H 0.68573 0.08522 0.41565 0.0
H227 H 0.78786 0.00075 0.51745 0.0
H228 H 0.67749 0.01042 0.43994 0.0
H229 H 0.78885 0.07557 0.54766 0.0
H230 H 0.74892 0.00461 0.47869 0.0
H231 H 0.72541 0.08271 0.45376 0.0
C232 C 0.69233 0.06831 0.42871 0.0
C233 C 0.6784 0.048 0.42479 0.0
C234 C 0.75758 0.0202 0.49396 0.0
C235 C 0.72338 0.04501 0.46786 0.0
C236 C 0.77981 0.01801 0.51604 0.0
C237 C 0.79149 0.03787 0.5359 0.0
C238 C 0.74701 0.04246 0.49114 0.0
C239 C 0.7803 0.05981 0.53302 0.0
C240 C 0.71482 0.06691 0.45065 0.0
C241 C 0.68763 0.02652 0.44243 0.0
N242 N 0.75863 0.06158 0.51071 0.0
N243 N 0.70955 0.02559 0.46302 0.0
H244 H 0.518 0.81369 0.9352 0.0
H245 H 0.51665 0.67451 0.97322 0.0
H246 H 0.50126 0.78033 0.08444 0.0
H247 H 0.49578 0.70782 0.82655 0.0
H248 H 0.52247 0.71341 0.0129 0.0
H249 H 0.52106 0.77476 0.89385 0.0
C250 C 0.51534 0.79815 0.95942 0.0
C251 C 0.50922 0.80011 0.01319 0.0
C252 C 0.51691 0.71214 0.97185 0.0
C253 C 0.51293 0.75584 0.9664 0.0
C254 C 0.5137 0.69002 0.94907 0.0
C255 C 0.50555 0.68804 0.89667 0.0
C256 C 0.5123 0.73234 0.94169 0.0
C257 C 0.50193 0.70865 0.8672 0.0
C258 C 0.51698 0.77603 0.93575 0.0
C259 C 0.50585 0.7795 0.04278 0.0
N260 N 0.50528 0.73004 0.89021 0.0
N261 N 0.50775 0.75813 0.01894 0.0
H262 H 0.68452 0.46867 0.57522 0.0
H263 H 0.78215 0.40614 0.39814 0.0
H264 H 0.7098 0.39818 0.60342 0.0
H265 H 0.77462 0.48171 0.40506 0.0
H266 H 0.75045 0.40214 0.46257 0.0
H267 H 0.71373 0.47329 0.50475 0.0
C268 C 0.69641 0.45428 0.56695 0.0
C269 C 0.69487 0.43304 0.59523 0.0
C270 C 0.7556 0.41959 0.44961 0.0
C271 C 0.72776 0.438 0.51409 0.0
C272 C 0.77349 0.42188 0.4124 0.0
C273 C 0.78111 0.44431 0.39659 0.0
C274 C 0.74515 0.43985 0.47085 0.0
C275 C 0.76931 0.4641 0.41641 0.0
C276 C 0.71296 0.45689 0.52664 0.0
C277 C 0.71055 0.4149 0.58282 0.0
N278 N 0.75197 0.46142 0.45289 0.0
N279 N 0.72625 0.41772 0.54282 0.0
H280 H -0.0 0.31143 0.97746 0.0
H281 H 0.0039 0.17225 0.94691 0.0
H282 H 0.98056 0.27671 0.83136 0.0
H283 H 0.98661 0.20632 0.09495 0.0
H284 H 0.00424 0.21076 0.90309 0.0
H285 H 0.00414 0.27298 0.02008 0.0
C286 C -0.00313 0.29568 0.95419 0.0
C287 C 0.98986 0.29716 0.90088 0.0
C288 C 0.00051 0.20975 0.9452 0.0
C289 C -0.00529 0.25333 0.94928 0.0
C290 C 0.00044 0.18788 0.97028 0.0
C291 C -0.00483 0.18621 0.02456 0.0
C292 C -0.00427 0.23004 0.97491 0.0
C293 C 0.99066 0.20692 0.05298 0.0
C294 C -0.00089 0.27382 0.97863 0.0
C295 C 0.98591 0.27626 0.87261 0.0
N296 N 0.99113 0.22806 0.0278 0.0
N297 N 0.98845 0.2551 0.89718 0.0
H298 H 0.30331 0.95173 0.4404 0.0
H299 H 0.17029 0.9526 0.52309 0.0
H300 H 0.28177 0.93371 0.59953 0.0
H301 H 0.1917 0.93389 0.36431 0.0
H302 H 0.21113 0.94954 0.55232 0.0
H303 H 0.26242 0.94908 0.4114 0.0
C304 C 0.28994 0.94714 0.46915 0.0
C305 C 0.29578 0.94301 0.52242 0.0
C306 C 0.20682 0.9459 0.51122 0.0
C307 C 0.24919 0.94023 0.48975 0.0
C308 C 0.18361 0.94776 0.49448 0.0
C309 C 0.17775 0.94357 0.44123 0.0
C310 C 0.22428 0.94033 0.47414 0.0
C311 C 0.19557 0.93724 0.40574 0.0
C312 C 0.2667 0.94551 0.45254 0.0
C313 C 0.2779 0.93699 0.55809 0.0
N314 N 0.21816 0.9361 0.4227 0.0
N315 N 0.25528 0.93607 0.54124 0.0
H316 H 0.4826 0.21889 0.87367 0.0
H317 H 0.48729 0.27022 0.16129 0.0
H318 H 0.4506 0.18257 0.00567 0.0
H319 H 0.48503 0.31612 0.02482 0.0
H320 H 0.47443 0.23748 0.10498 0.0
H321 H 0.48399 0.25491 0.92724 0.0
C322 C 0.47548 0.21863 0.91354 0.0
C323 C 0.46666 0.19775 0.93551 0.0
C324 C 0.47639 0.25481 0.08759 0.0
C325 C 0.46865 0.2385 0.99702 0.0
C326 C 0.48381 0.27342 0.11961 0.0
C327 C 0.48732 0.29578 0.09749 0.0
C328 C 0.47304 0.25854 0.03296 0.0
C329 C 0.48253 0.29909 0.04333 0.0
C330 C 0.47626 0.23914 0.94402 0.0
C331 C 0.45763 0.19831 0.98731 0.0
N332 N 0.47601 0.28055 0.01261 0.0
N333 N 0.45927 0.21826 0.01673 0.0
H334 H 0.2793 0.50745 0.39701 0.0
H335 H 0.2135 0.58116 0.62 0.0
H336 H 0.28511 0.58294 0.41269 0.0
H337 H 0.18931 0.51258 0.56997 0.0
H338 H 0.24288 0.58037 0.54946 0.0
H339 H 0.24764 0.50767 0.46269 0.0
C340 C 0.27358 0.52411 0.41343 0.0
C341 C 0.28489 0.5452 0.39966 0.0
C342 C 0.23118 0.56547 0.55403 0.0
C343 C 0.24934 0.54547 0.47559 0.0
C344 C 0.21462 0.56578 0.59466 0.0
C345 C 0.19901 0.5469 0.60074 0.0
C346 C 0.23226 0.54603 0.51964 0.0
C347 C 0.20106 0.5275 0.56653 0.0
C348 C 0.25565 0.5242 0.45112 0.0
C349 C 0.27689 0.56627 0.42225 0.0
N350 N 0.21741 0.52754 0.52735 0.0
N351 N 0.25982 0.56584 0.4597 0.0
H352 H 0.08043 0.65546 0.05008 0.0
H353 H 0.14524 0.55648 0.87972 0.0
H354 H 0.0764 0.58144 0.08798 0.0
H355 H 0.11772 0.62056 0.81222 0.0
H356 H 0.13111 0.56905 0.96736 0.0
H357 H 0.10522 0.646 0.97372 0.0
C358 C 0.08508 0.63725 0.04283 0.0
C359 C 0.07615 0.61914 0.0749 0.0
C360 C 0.12859 0.58049 0.93342 0.0
C361 C 0.10458 0.60833 0.98822 0.0
C362 C 0.13676 0.57345 0.88364 0.0
C363 C 0.13244 0.58748 0.83886 0.0
C364 C 0.11647 0.60186 0.93829 0.0
C365 C 0.12122 0.60919 0.84583 0.0
C366 C 0.09915 0.6319 -0.00075 0.0
C367 C 0.08273 0.59587 0.0638 0.0
N368 N 0.11352 0.6157 0.89465 0.0
N369 N 0.0965 0.59109 0.02112 0.0
H370 H 0.93618 0.13146 0.24561 0.0
H371 H 0.90505 0.02002 0.42787 0.0
H372 H 0.95429 0.05986 0.20569 0.0
H373 H 0.88518 0.09129 0.46645 0.0
H374 H 0.92309 0.03434 0.34595 0.0
H375 H 0.91686 0.11714 0.32617 0.0
C376 C 0.93596 0.11272 0.25366 0.0
C377 C 0.94685 0.09682 0.21902 0.0
C378 C 0.91478 0.04686 0.37231 0.0
C379 C 0.92497 0.08032 0.31109 0.0
C380 C 0.90453 0.03869 0.41911 0.0
C381 C 0.89365 0.05451 0.45394 0.0
C382 C 0.91414 0.07103 0.36031 0.0
C383 C 0.89342 0.07851 0.44066 0.0
C384 C 0.92499 0.10455 0.29967 0.0
C385 C 0.9461 0.07273 0.23135 0.0
N386 N 0.90353 0.08604 0.39489 0.0
N387 N 0.93542 0.06523 0.27644 0.0
H388 H 0.48385 0.91341 0.91321 0.0
H389 H 0.37157 0.89836 0.72495 0.0
H390 H 0.42676 0.86599 0.94881 0.0
H391 H 0.43207 0.94069 0.6858 0.0
H392 H 0.39115 0.88605 0.80707 0.0
H393 H 0.46448 0.92402 0.83025 0.0
C394 C 0.46717 0.9053 0.90362 0.0
C395 C 0.45687 0.88881 0.93789 0.0
C396 C 0.40017 0.89791 0.78031 0.0
C397 C 0.43461 0.90076 0.84277 0.0
C398 C 0.38905 0.90487 0.7334 0.0
C399 C 0.40023 0.92057 0.69862 0.0
C400 C 0.42255 0.90683 0.79245 0.0
C401 C 0.42281 0.92856 0.71152 0.0
C402 C 0.45614 0.91129 0.85614 0.0
C403 C 0.43527 0.87881 0.92346 0.0
N404 N 0.43317 0.92169 0.75748 0.0
N405 N 0.42483 0.88494 0.87692 0.0
H406 H 0.58926 0.35502 0.29425 0.0
H407 H 0.56815 0.3835 0.59309 0.0
H408 H 0.52428 0.33516 0.36955 0.0
H409 H 0.63713 0.36672 0.53394 0.0
H410 H 0.55106 0.36646 0.51228 0.0
H411 H 0.60711 0.36012 0.38183 0.0
C412 C 0.57889 0.35141 0.32935 0.0
C413 C 0.55531 0.34475 0.32497 0.0
C414 C 0.5699 0.36614 0.51757 0.0
C415 C 0.57535 0.35105 0.42492 0.0
C416 C 0.57965 0.37591 0.56347 0.0
C417 C 0.60407 0.37669 0.56982 0.0
C418 C 0.58475 0.35763 0.47753 0.0
C419 C 0.61821 0.36657 0.53044 0.0
C420 C 0.58907 0.35425 0.37923 0.0
C421 C 0.54256 0.34026 0.37149 0.0
N422 N 0.60836 0.35783 0.48547 0.0
N423 N 0.55263 0.34395 0.41978 0.0
H424 H 0.04166 0.94285 0.27573 0.0
H425 H 0.05159 0.86719 0.00841 0.0
H426 H 0.1025 0.90159 0.23485 0.0
H427 H 0.99157 0.90969 0.04902 0.0
H428 H 0.07055 0.87935 0.09115 0.0
H429 H 0.02277 0.93011 0.19362 0.0
C430 C 0.05098 0.93095 0.24961 0.0
C431 C 0.07368 0.92324 0.26208 0.0
C432 C 0.05326 0.88606 0.08192 0.0
C433 C 0.05222 0.90874 0.16771 0.0
C434 C 0.04246 0.87919 0.03463 0.0
C435 C 0.01999 0.88747 0.02189 0.0
C436 C 0.04147 0.9013 0.11675 0.0
C437 C 0.00893 0.90292 0.05731 0.0
C438 C 0.04021 0.92375 0.20261 0.0
C439 C 0.08496 0.9079 0.22675 0.0
N440 N 0.01977 0.90929 0.10318 0.0
N441 N 0.07413 0.9012 0.18104 0.0
H442 H 0.53023 0.14723 0.71497 0.0
H443 H 0.56638 0.0371 0.53483 0.0
H444 H 0.51972 0.07476 0.76099 0.0
H445 H 0.58625 0.10865 0.49825 0.0
H446 H 0.54852 0.05083 0.61728 0.0
H447 H 0.5506 0.13375 0.63497 0.0
C448 C 0.53237 0.1285 0.70841 0.0
C449 C 0.52325 0.11207 0.74451 0.0
C450 C 0.55683 0.06354 0.59132 0.0
C451 C 0.54627 0.09655 0.65313 0.0
C452 C 0.56696 0.05571 0.54417 0.0
C453 C 0.57775 0.07178 0.50969 0.0
C454 C 0.55737 0.08764 0.60393 0.0
C455 C 0.57807 0.09569 0.52378 0.0
C456 C 0.54396 0.12082 0.66277 0.0
C457 C 0.52646 0.08802 0.73414 0.0
N458 N 0.56796 0.10292 0.56979 0.0
N459 N 0.53759 0.08099 0.68927 0.0
H460 H 0.41439 0.58554 0.2527 0.0
H461 H 0.4075 0.62344 0.94844 0.0
H462 H 0.34948 0.58047 0.16494 0.0
H463 H 0.46933 0.59546 0.02441 0.0
H464 H 0.38527 0.61619 0.03074 0.0
H465 H 0.43406 0.59904 0.17254 0.0
C466 C 0.40419 0.58755 0.21666 0.0
C467 C 0.38033 0.5816 0.21521 0.0
C468 C 0.40372 0.61173 0.0291 0.0
C469 C 0.40282 0.59696 0.12332 0.0
C470 C 0.41636 0.61586 0.98243 0.0
C471 C 0.4402 0.6099 0.97979 0.0
C472 C 0.41525 0.60211 0.07332 0.0
C473 C 0.45093 0.60014 0.02471 0.0
C474 C 0.41547 0.59515 0.1709 0.0
C475 C 0.36796 0.58473 0.16751 0.0
N476 N 0.43841 0.59666 0.06968 0.0
N477 N 0.37941 0.59208 0.12308 0.0
H478 H 0.92629 0.4178 0.74162 0.0
H479 H 0.88317 0.38762 0.44681 0.0
H480 H 0.93556 0.34953 0.66934 0.0
H481 H 0.87762 0.4562 0.5196 0.0
H482 H 0.90047 0.37244 0.52904 0.0
H483 H 0.90607 0.43118 0.662 0.0
C484 C 0.92393 0.40556 0.70902 0.0
C485 C 0.93269 0.38256 0.71191 0.0
C486 C 0.89543 0.39079 0.52699 0.0
C487 C 0.90968 0.39782 0.62032 0.0
C488 C 0.88559 0.39946 0.48011 0.0
C489 C 0.87906 0.42321 0.47646 0.0
C490 C 0.89869 0.40602 0.57036 0.0
C491 C 0.88249 0.43779 0.5207 0.0
C492 C 0.91242 0.41323 0.66348 0.0
C493 C 0.92909 0.36743 0.6686 0.0
N494 N 0.89209 0.42896 0.56577 0.0
N495 N 0.91793 0.37538 0.62435 0.0
H496 H 0.9616 0.41031 0.99639 0.0
H497 H 0.84406 0.41064 0.16512 0.0
H498 H 0.9034 0.36549 0.95314 0.0
H499 H 0.9124 0.42563 0.23099 0.0
H500 H 0.86302 0.39823 0.08193 0.0
H501 H 0.94089 0.42152 0.07705 0.0
C502 C 0.94437 0.40294 0.00374 0.0
C503 C 0.93421 0.38687 0.96828 0.0
C504 C 0.87375 0.40409 0.1149 0.0
C505 C 0.91045 0.39963 0.0605 0.0
C506 C 0.863 0.41115 0.16219 0.0
C507 C 0.87672 0.41916 0.20484 0.0
C508 C 0.89824 0.40556 0.11033 0.0
C509 C 0.90116 0.41954 0.19913 0.0
C510 C 0.93263 0.40924 0.04992 0.0
C511 C 0.91184 0.37786 0.97975 0.0
N512 N 0.91112 0.41305 0.15259 0.0
N513 N 0.9006 0.38442 0.02502 0.0
H514 H 0.03169 0.84914 0.73002 0.0
H515 H 0.06445 0.96178 0.55322 0.0
H516 H 0.01858 0.92095 0.7774 0.0
H517 H 0.08193 0.89058 0.50849 0.0
H518 H 0.04702 0.94686 0.63511 0.0
H519 H 0.0502 0.86369 0.64858 0.0
C520 C 0.03286 0.86796 0.72344 0.0
C521 C 0.0236 0.88387 0.76043 0.0
C522 C 0.05465 0.93447 0.60742 0.0
C523 C 0.04449 0.90061 0.66739 0.0
C524 C 0.06454 0.94298 0.56058 0.0
C525 C 0.07463 0.92738 0.52406 0.0
C526 C 0.05481 0.91016 0.61784 0.0
C527 C 0.07431 0.90321 0.53563 0.0
C528 C 0.04335 0.87625 0.67693 0.0
C529 C 0.0255 0.90806 0.74993 0.0
N530 N 0.06456 0.89532 0.58156 0.0
N531 N 0.03565 0.91568 0.70432 0.0
H532 H 0.54097 0.06933 0.2702 0.0
H533 H 0.55024 0.12982 0.98415 0.0
H534 H 0.60619 0.09548 0.20618 0.0
H535 H 0.4896 0.09145 0.03941 0.0
H536 H 0.57044 0.12037 0.06735 0.0
H537 H 0.52107 0.08111 0.18884 0.0
C538 C 0.55108 0.07778 0.23916 0.0
C539 C 0.57529 0.08138 0.24486 0.0
C540 C 0.55274 0.11399 0.06117 0.0
C541 C 0.5526 0.09473 0.15121 0.0
C542 C 0.54122 0.11933 0.01372 0.0
C543 C 0.51824 0.11134 0.00491 0.0
C544 C 0.5411 0.10073 0.10017 0.0
C545 C 0.50734 0.09788 0.04452 0.0
C546 C 0.53972 0.08439 0.19255 0.0
C547 C 0.58749 0.0924 0.20334 0.0
N548 N 0.51885 0.09307 0.09048 0.0
N549 N 0.57601 0.09862 0.15807 0.0
H550 H 0.38543 0.60571 0.45813 0.0
H551 H 0.43016 0.57058 0.74882 0.0
H552 H 0.38066 0.53567 0.52383 0.0
H553 H 0.44253 0.63873 0.67817 0.0
H554 H 0.40849 0.55877 0.6696 0.0
H555 H 0.40323 0.61934 0.54118 0.0
C556 C 0.38807 0.59324 0.49011 0.0
C557 C 0.3817 0.56952 0.48414 0.0
C558 C 0.41585 0.57635 0.67144 0.0
C559 C 0.40192 0.58494 0.57899 0.0
C560 C 0.42817 0.58312 0.71671 0.0
C561 C 0.43825 0.60561 0.71984 0.0
C562 C 0.41358 0.59219 0.62893 0.0
C563 C 0.43509 0.62118 0.6772 0.0
C564 C 0.39822 0.60101 0.53744 0.0
C565 C 0.38543 0.55408 0.52674 0.0
N566 N 0.4231 0.61413 0.6333 0.0
N567 N 0.39534 0.56206 0.57234 0.0
H568 H 0.92829 0.04751 0.69715 0.0
H569 H 0.91699 0.11091 0.97965 0.0
H570 H 0.8633 0.07602 0.7565 0.0
H571 H 0.9792 0.07474 0.92665 0.0
H572 H 0.89723 0.09954 0.89729 0.0
H573 H 0.94767 0.0593 0.77936 0.0
C574 C 0.91813 0.05644 0.72737 0.0
C575 C 0.89415 0.06082 0.72004 0.0
C576 C 0.91517 0.09402 0.90376 0.0
C577 C 0.91619 0.07418 0.81451 0.0
C578 C 0.92644 0.10045 0.95079 0.0
C579 C 0.94976 0.09374 0.9599 0.0
C580 C 0.92737 0.08089 0.86549 0.0
C581 C 0.96119 0.08025 0.92121 0.0
C582 C 0.92919 0.06305 0.77443 0.0
C583 C 0.88183 0.07235 0.76056 0.0
N584 N 0.94991 0.07434 0.87559 0.0
N585 N 0.893 0.07862 0.80618 0.0
H586 H 0.40821 0.9619 0.4085 0.0
H587 H 0.44453 0.85124 0.22965 0.0
H588 H 0.39209 0.89009 0.45133 0.0
H589 H 0.45402 0.92371 0.1825 0.0
H590 H 0.42521 0.86472 0.31106 0.0
H591 H 0.42564 0.94787 0.32596 0.0
C592 C 0.40841 0.94315 0.40057 0.0
C593 C 0.39873 0.92712 0.43679 0.0
C594 C 0.4314 0.87765 0.28271 0.0
C595 C 0.41857 0.9109 0.34221 0.0
C596 C 0.44236 0.86996 0.23622 0.0
C597 C 0.4509 0.88639 0.19937 0.0
C598 C 0.42911 0.90191 0.29238 0.0
C599 C 0.44771 0.91043 0.20986 0.0
C600 C 0.41829 0.93514 0.35333 0.0
C601 C 0.3994 0.90303 0.42444 0.0
N602 N 0.43718 0.91745 0.25547 0.0
N603 N 0.40919 0.89563 0.37815 0.0
H604 H 0.57713 0.39874 0.08485 0.0
H605 H 0.61593 0.35275 0.80669 0.0
H606 H 0.57487 0.32478 0.04572 0.0
H607 H 0.64623 0.41566 0.87415 0.0
H608 H 0.60192 0.34143 0.89482 0.0
H609 H 0.60331 0.40536 0.00922 0.0
C610 C 0.58239 0.38387 0.06072 0.0
C611 C 0.57365 0.36124 0.07107 0.0
C612 C 0.61207 0.35746 0.8906 0.0
C613 C 0.60327 0.36869 0.9845 0.0
C614 C 0.62006 0.3639 0.84036 0.0
C615 C 0.63209 0.3852 0.83331 0.0
C616 C 0.6156 0.37277 0.93368 0.0
C617 C 0.63701 0.39906 0.87808 0.0
C618 C 0.59741 0.38762 0.01779 0.0
C619 C 0.58111 0.34254 0.03886 0.0
N620 N 0.62827 0.39287 0.92632 0.0
N621 N 0.59517 0.34674 0.99642 0.0
H622 H 0.07122 0.59208 0.59667 0.0
H623 H 0.09291 0.62231 0.29913 0.0
H624 H 0.14066 0.6082 0.53903 0.0
H625 H 0.0297 0.64605 0.37611 0.0
H626 H 0.11043 0.61503 0.38632 0.0
H627 H 0.05467 0.61003 0.51624 0.0
C628 C 0.08293 0.59968 0.56747 0.0
C629 C 0.10731 0.59853 0.57417 0.0
C630 C 0.09286 0.62219 0.38414 0.0
C631 C 0.08863 0.61858 0.48236 0.0
C632 C 0.08287 0.62627 0.33453 0.0
C633 C 0.05989 0.63474 0.33075 0.0
C634 C 0.07951 0.62597 0.43012 0.0
C635 C 0.04754 0.63959 0.37762 0.0
C636 C 0.0735 0.60997 0.52182 0.0
C637 C 0.12175 0.60867 0.53529 0.0
N638 N 0.05736 0.63469 0.42561 0.0
N639 N 0.11221 0.6179 0.49054 0.0
H640 H 0.88498 0.52688 0.37619 0.0
H641 H 0.96687 0.57343 0.14585 0.0
H642 H 0.87351 0.50813 0.21216 0.0
H643 H 0.96037 0.60917 0.29636 0.0
H644 H 0.93292 0.54895 0.16905 0.0
H645 H 0.91236 0.55751 0.34775 0.0
C646 C 0.88792 0.52954 0.33411 0.0
C647 C 0.8771 0.51496 0.29643 0.0
C648 C 0.93882 0.56232 0.19673 0.0
C649 C 0.90879 0.54946 0.26369 0.0
C650 C 0.95825 0.57615 0.18367 0.0
C651 C 0.9665 0.59317 0.21945 0.0
C652 C 0.92785 0.56536 0.24619 0.0
C653 C 0.95463 0.59614 0.26774 0.0
C654 C 0.90357 0.54697 0.31789 0.0
C655 C 0.88149 0.51908 0.24242 0.0
N656 N 0.93605 0.58221 0.27994 0.0
N657 N 0.89736 0.53572 0.22763 0.0
H658 H 0.88381 0.94823 0.59729 0.0
H659 H 0.91154 0.90693 0.88587 0.0
H660 H 0.8478 0.97636 0.73384 0.0
H661 H 0.92814 0.86456 0.74878 0.0
H662 H 0.88416 0.92966 0.83172 0.0
H663 H 0.89641 0.91467 0.65091 0.0
C664 C 0.87819 0.94709 0.63829 0.0
C665 C 0.86512 0.96525 0.66147 0.0
C666 C 0.89338 0.91505 0.8137 0.0
C667 C 0.87973 0.92721 0.7232 0.0
C668 C 0.90901 0.90209 0.84463 0.0
C669 C 0.92237 0.88414 0.82148 0.0
C670 C 0.89153 0.91031 0.75908 0.0
C671 C 0.91833 0.87845 0.76802 0.0
C672 C 0.88533 0.92792 0.66888 0.0
C673 C 0.85811 0.96284 0.7146 0.0
N674 N 0.90364 0.89185 0.73826 0.0
N675 N 0.86592 0.94442 0.74402 0.0
H676 H 0.56092 0.91903 0.07218 0.0
H677 H 0.62636 0.99348 0.22956 0.0
H678 H 0.54792 0.87864 0.2143 0.0
H679 H 0.57927 0.9688 0.35164 0.0
H680 H 0.61604 0.95926 0.17545 0.0
H681 H 0.58582 0.9456 0.12329 0.0
C682 C 0.56388 0.91538 0.11389 0.0
C683 C 0.55221 0.89679 0.13921 0.0
C684 C 0.60796 0.96133 0.21403 0.0
C685 C 0.58069 0.92705 0.19811 0.0
C686 C 0.61398 0.98074 0.24515 0.0
C687 C 0.60322 0.9842 0.29461 0.0
C688 C 0.59098 0.94541 0.23254 0.0
C689 C 0.58765 0.96699 0.3133 0.0
C690 C 0.57825 0.93048 0.14309 0.0
C691 C 0.55656 0.89285 0.19332 0.0
N692 N 0.5818 0.94841 0.28197 0.0
N693 N 0.57004 0.90821 0.22129 0.0
H694 H 0.58561 0.4849 0.64693 0.0
H695 H 0.54393 0.56629 0.88299 0.0
H696 H 0.61777 0.48286 0.80209 0.0
H697 H 0.53343 0.58578 0.71908 0.0
H698 H 0.57032 0.53492 0.85445 0.0
H699 H 0.56514 0.52109 0.67238 0.0
C700 C 0.58841 0.49214 0.68624 0.0
C701 C 0.60324 0.48086 0.72264 0.0
C702 C 0.5625 0.54625 0.82474 0.0
C703 C 0.57991 0.52197 0.75196 0.0
C704 C 0.54743 0.56411 0.841 0.0
C705 C 0.53648 0.57851 0.80325 0.0
C706 C 0.56623 0.54248 0.77032 0.0
C707 C 0.54161 0.57503 0.74937 0.0
C708 C 0.57686 0.51282 0.70061 0.0
C709 C 0.60642 0.49099 0.77292 0.0
N710 N 0.55588 0.55708 0.73437 0.0
N711 N 0.59464 0.51086 0.78633 0.0
H712 H 0.08718 0.49101 0.64383 0.0
H713 H 0.04681 0.40626 0.87399 0.0
H714 H 0.1237 0.48679 0.79373 0.0
H715 H 0.02816 0.3938 0.71028 0.0
H716 H 0.07609 0.43494 0.84499 0.0
H717 H 0.06593 0.45487 0.66629 0.0
C718 C 0.09084 0.48236 0.68126 0.0
C719 C 0.107 0.49198 0.71726 0.0
C720 C 0.06589 0.42566 0.81532 0.0
C721 C 0.08275 0.45086 0.74328 0.0
C722 C 0.04918 0.40931 0.83186 0.0
C723 C 0.03499 0.39786 0.79443 0.0
C724 C 0.06802 0.43091 0.76105 0.0
C725 C 0.03877 0.40234 0.74035 0.0
C726 C 0.07882 0.46169 0.69393 0.0
C727 C 0.11125 0.48001 0.76502 0.0
N728 N 0.05468 0.41887 0.72524 0.0
N729 N 0.09896 0.46023 0.77698 0.0
H730 H 0.05975 0.07479 0.09661 0.0
H731 H 0.08686 0.03643 0.38607 0.0
H732 H 0.04293 0.1189 0.23072 0.0
H733 H 0.12534 0.00888 0.25243 0.0
H734 H 0.07432 0.06964 0.33126 0.0
H735 H 0.0876 0.05325 0.15206 0.0
C736 C 0.06232 0.08026 0.13742 0.0
C737 C 0.04877 0.09835 0.15942 0.0
C738 C 0.08596 0.05663 0.31425 0.0
C739 C 0.08015 0.07355 0.22332 0.0
C740 C 0.0931 0.03767 0.34555 0.0
C741 C 0.10678 0.01971 0.32341 0.0
C742 C 0.09217 0.05728 0.26026 0.0
C743 C 0.11453 0.02223 0.27084 0.0
C744 C 0.07824 0.068 0.16909 0.0
C745 C 0.05288 0.10488 0.21238 0.0
N746 N 0.10667 0.04038 0.24063 0.0
N747 N 0.06782 0.09212 0.24294 0.0
H748 H 0.38698 0.03512 0.5764 0.0
H749 H 0.41286 0.07932 0.86433 0.0
H750 H 0.35092 0.0069 0.71294 0.0
H751 H 0.42681 0.12235 0.72667 0.0
H752 H 0.38725 0.05442 0.81022 0.0
H753 H 0.39898 0.06912 0.62961 0.0
C754 C 0.38121 0.03632 0.61729 0.0
C755 C 0.36824 0.01806 0.64056 0.0
C756 C 0.39551 0.06959 0.79207 0.0
C757 C 0.38221 0.05658 0.70183 0.0
C758 C 0.41015 0.08378 0.82296 0.0
C759 C 0.42217 0.10269 0.79972 0.0
C760 C 0.39334 0.07409 0.73741 0.0
C761 C 0.41797 0.10781 0.74602 0.0
C762 C 0.38803 0.05573 0.64764 0.0
C763 C 0.3611 0.02052 0.69359 0.0
N764 N 0.40427 0.09328 0.71636 0.0
N765 N 0.36859 0.03919 0.72278 0.0
H766 H 0.46919 0.41725 0.14309 0.0
H767 H 0.39158 0.46968 0.3758 0.0
H768 H 0.4606 0.38251 0.29428 0.0
H769 H 0.38108 0.48936 0.21201 0.0
H770 H 0.41774 0.43818 0.34703 0.0
H771 H 0.43809 0.44496 0.16771 0.0
C772 C 0.46074 0.41546 0.18138 0.0
C773 C 0.46752 0.3977 0.21686 0.0
C774 C 0.4095 0.44918 0.3173 0.0
C775 C 0.43214 0.42918 0.2452 0.0
C776 C 0.39457 0.46714 0.3337 0.0
C777 C 0.38425 0.48211 0.29618 0.0
C778 C 0.41448 0.44648 0.26305 0.0
C779 C 0.38867 0.47811 0.24214 0.0
C780 C 0.44293 0.43115 0.19526 0.0
C781 C 0.45594 0.39601 0.26583 0.0
N782 N 0.40376 0.46084 0.22715 0.0
N783 N 0.43895 0.41168 0.27874 0.0
loop_
_geom_bond_atom_site_label_1
_geom_bond_atom_site_label_2
_geom_bond_distance
_geom_bond_site_symmetry_2
_ccdc_geom_bond_type
In0 O1 2.294 . S
In0 O2 2.326 . S
In0 O6 2.266 1_455 S
In0 O7 2.326 1_455 S
In0 O8 2.266 . S
In0 O9 2.326 . S
In0 O11 2.294 . S
In0 O12 2.326 . S
O1 In0 2.294 . S
O1 C10 1.240 . S
O2 In0 2.326 . S
O2 C10 1.252 . S
C3 O6 1.252 . S
C3 O7 1.260 . S
C4 O11 1.240 . S
C4 O12 1.252 . S
C5 O8 1.252 . S
C5 O9 1.260 . S
O6 In0 2.266 1_655 S
O6 C3 1.252 . S
O7 In0 2.326 1_655 S
O7 C3 1.260 . S
O8 In0 2.266 . S
O8 C5 1.252 . S
O9 In0 2.326 . S
O9 C5 1.260 . S
C10 O1 1.240 . S
C10 O2 1.252 . S
O11 In0 2.294 . S
O11 C4 1.240 . S
O12 In0 2.326 . S
O12 C4 1.252 . S
In13 O14 2.294 . S
In13 O15 2.326 . S
In13 O19 2.266 . S
In13 O20 2.326 . S
In13 O21 2.266 1_545 S
In13 O22 2.326 1_545 S
In13 O24 2.294 . S
In13 O25 2.326 . S
O14 In13 2.294 . S
O14 C23 1.240 . S
O15 In13 2.326 . S
O15 C23 1.252 . S
C16 O19 1.252 . S
C16 O20 1.260 . S
C17 O24 1.240 . S
C17 O25 1.252 . S
C18 O21 1.252 . S
C18 O22 1.260 . S
O19 In13 2.266 . S
O19 C16 1.252 . S
O20 In13 2.326 . S
O20 C16 1.260 . S
O21 In13 2.266 1_565 S
O21 C18 1.252 . S
O22 In13 2.326 1_565 S
O22 C18 1.260 . S
C23 O14 1.240 . S
C23 O15 1.252 . S
O24 In13 2.294 . S
O24 C17 1.240 . S
O25 In13 2.326 . S
O25 C17 1.252 . S
In26 O27 2.294 . S
In26 O28 2.326 . S
In26 O32 2.266 . S
In26 O33 2.326 . S
In26 O34 2.266 . S
In26 O35 2.326 . S
In26 O37 2.294 . S
In26 O38 2.326 . S
O27 In26 2.294 . S
O27 C36 1.240 . S
O28 In26 2.326 . S
O28 C36 1.252 . S
C29 O32 1.252 . S
C29 O33 1.260 . S
C30 O37 1.240 . S
C30 O38 1.252 . S
C31 O34 1.252 . S
C31 O35 1.260 . S
O32 In26 2.266 . S
O32 C29 1.252 . S
O33 In26 2.326 . S
O33 C29 1.260 . S
O34 In26 2.266 . S
O34 C31 1.252 . S
O35 In26 2.326 . S
O35 C31 1.260 . S
C36 O27 1.240 . S
C36 O28 1.252 . S
O37 In26 2.294 . S
O37 C30 1.240 . S
O38 In26 2.326 . S
O38 C30 1.252 . S
In39 O40 2.294 . S
In39 O41 2.326 . S
In39 O45 2.266 . S
In39 O46 2.326 . S
In39 O47 2.266 . S
In39 O48 2.326 . S
In39 O50 2.294 . S
In39 O51 2.326 . S
O40 In39 2.294 . S
O40 C49 1.240 . S
O41 In39 2.326 . S
O41 C49 1.252 . S
C42 O45 1.252 . S
C42 O46 1.260 . S
C43 O50 1.240 . S
C43 O51 1.252 . S
C44 O47 1.252 . S
C44 O48 1.260 . S
O45 In39 2.266 . S
O45 C42 1.252 . S
O46 In39 2.326 . S
O46 C42 1.260 . S
O47 In39 2.266 . S
O47 C44 1.252 . S
O48 In39 2.326 . S
O48 C44 1.260 . S
C49 O40 1.240 . S
C49 O41 1.252 . S
O50 In39 2.294 . S
O50 C43 1.240 . S
O51 In39 2.326 . S
O51 C43 1.252 . S
In52 O53 2.294 . S
In52 O54 2.326 . S
In52 O58 2.266 1_455 S
In52 O59 2.326 1_455 S
In52 O60 2.266 . S
In52 O61 2.326 . S
In52 O63 2.294 . S
In52 O64 2.326 . S
O53 In52 2.294 . S
O53 C62 1.240 . S
O54 In52 2.326 . S
O54 C62 1.252 . S
C55 O58 1.252 . S
C55 O59 1.260 . S
C56 O63 1.240 . S
C56 O64 1.252 . S
C57 O60 1.252 . S
C57 O61 1.260 . S
O58 In52 2.266 1_655 S
O58 C55 1.252 . S
O59 In52 2.326 1_655 S
O59 C55 1.260 . S
O60 In52 2.266 . S
O60 C57 1.252 . S
O61 In52 2.326 . S
O61 C57 1.260 . S
C62 O53 1.240 . S
C62 O54 1.252 . S
O63 In52 2.294 . S
O63 C56 1.240 . S
O64 In52 2.326 . S
O64 C56 1.252 . S
In65 O66 2.294 . S
In65 O67 2.326 . S
In65 O71 2.266 1_545 S
In65 O72 2.326 1_545 S
In65 O73 2.266 . S
In65 O74 2.326 . S
In65 O76 2.294 . S
In65 O77 2.326 . S
O66 In65 2.294 . S
O66 C75 1.240 . S
O67 In65 2.326 . S
O67 C75 1.252 . S
C68 O71 1.252 . S
C68 O72 1.260 . S
C69 O76 1.240 . S
C69 O77 1.252 . S
C70 O73 1.252 . S
C70 O74 1.260 . S
O71 In65 2.266 1_565 S
O71 C68 1.252 . S
O72 In65 2.326 1_565 S
O72 C68 1.260 . S
O73 In65 2.266 . S
O73 C70 1.252 . S
O74 In65 2.326 . S
O74 C70 1.260 . S
C75 O66 1.240 . S
C75 O67 1.252 . S
O76 In65 2.294 . S
O76 C69 1.240 . S
O77 In65 2.326 . S
O77 C69 1.252 . S
In78 O79 2.294 . S
In78 O80 2.326 . S
In78 O84 2.266 . S
In78 O85 2.326 . S
In78 O86 2.266 . S
In78 O87 2.326 . S
In78 O89 2.294 . S
In78 O90 2.326 . S
O79 In78 2.294 . S
O79 C88 1.240 . S
O80 In78 2.326 . S
O80 C88 1.252 . S
C81 O84 1.252 . S
C81 O85 1.260 . S
C82 O89 1.240 . S
C82 O90 1.252 . S
C83 O86 1.252 . S
C83 O87 1.260 . S
O84 In78 2.266 . S
O84 C81 1.252 . S
O85 In78 2.326 . S
O85 C81 1.260 . S
O86 In78 2.266 . S
O86 C83 1.252 . S
O87 In78 2.326 . S
O87 C83 1.260 . S
C88 O79 1.240 . S
C88 O80 1.252 . S
O89 In78 2.294 . S
O89 C82 1.240 . S
O90 In78 2.326 . S
O90 C82 1.252 . S
In91 O92 2.294 . S
In91 O93 2.326 . S
In91 O97 2.266 . S
In91 O98 2.326 . S
In91 O99 2.266 . S
In91 O100 2.326 . S
In91 O102 2.294 . S
In91 O103 2.326 . S
O92 In91 2.294 . S
O92 C101 1.240 . S
O93 In91 2.326 . S
O93 C101 1.252 . S
C94 O97 1.252 . S
C94 O98 1.260 . S
C95 O102 1.240 . S
C95 O103 1.252 . S
C96 O99 1.252 . S
C96 O100 1.260 . S
O97 In91 2.266 . S
O97 C94 1.252 . S
O98 In91 2.326 . S
O98 C94 1.260 . S
O99 In91 2.266 . S
O99 C96 1.252 . S
O100 In91 2.326 . S
O100 C96 1.260 . S
C101 O92 1.240 . S
C101 O93 1.252 . S
O102 In91 2.294 . S
O102 C95 1.240 . S
O103 In91 2.326 . S
O103 C95 1.252 . S
In104 O105 2.294 . S
In104 O106 2.326 . S
In104 O110 2.266 1_655 S
In104 O111 2.326 1_655 S
In104 O112 2.266 . S
In104 O113 2.326 . S
In104 O115 2.294 . S
In104 O116 2.326 . S
O105 In104 2.294 . S
O105 C114 1.240 . S
O106 In104 2.326 . S
O106 C114 1.252 . S
C107 O110 1.252 . S
C107 O111 1.260 . S
C108 O115 1.240 . S
C108 O116 1.252 . S
C109 O112 1.252 . S
C109 O113 1.260 . S
O110 In104 2.266 1_455 S
O110 C107 1.252 . S
O111 In104 2.326 1_455 S
O111 C107 1.260 . S
O112 In104 2.266 . S
O112 C109 1.252 . S
O113 In104 2.326 . S
O113 C109 1.260 . S
C114 O105 1.240 . S
C114 O106 1.252 . S
O115 In104 2.294 . S
O115 C108 1.240 . S
O116 In104 2.326 . S
O116 C108 1.252 . S
In117 O118 2.294 . S
In117 O119 2.326 . S
In117 O123 2.266 . S
In117 O124 2.326 . S
In117 O125 2.266 1_565 S
In117 O126 2.326 1_565 S
In117 O128 2.294 . S
In117 O129 2.326 . S
O118 In117 2.294 . S
O118 C127 1.240 . S
O119 In117 2.326 . S
O119 C127 1.252 . S
C120 O123 1.252 . S
C120 O124 1.260 . S
C121 O128 1.240 . S
C121 O129 1.252 . S
C122 O125 1.252 . S
C122 O126 1.260 . S
O123 In117 2.266 . S
O123 C120 1.252 . S
O124 In117 2.326 . S
O124 C120 1.260 . S
O125 In117 2.266 1_545 S
O125 C122 1.252 . S
O126 In117 2.326 1_545 S
O126 C122 1.260 . S
C127 O118 1.240 . S
C127 O119 1.252 . S
O128 In117 2.294 . S
O128 C121 1.240 . S
O129 In117 2.326 . S
O129 C121 1.252 . S
In130 O131 2.294 . S
In130 O132 2.326 . S
In130 O136 2.266 . S
In130 O137 2.326 . S
In130 O138 2.266 . S
In130 O139 2.326 . S
In130 O141 2.294 . S
In130 O142 2.326 . S
O131 In130 2.294 . S
O131 C140 1.240 . S
O132 In130 2.326 . S
O132 C140 1.252 . S
C133 O136 1.252 . S
C133 O137 1.260 . S
C134 O141 1.240 . S
C134 O142 1.252 . S
C135 O138 1.252 . S
C135 O139 1.260 . S
O136 In130 2.266 . S
O136 C133 1.252 . S
O137 In130 2.326 . S
O137 C133 1.260 . S
O138 In130 2.266 . S
O138 C135 1.252 . S
O139 In130 2.326 . S
O139 C135 1.260 . S
C140 O131 1.240 . S
C140 O132 1.252 . S
O141 In130 2.294 . S
O141 C134 1.240 . S
O142 In130 2.326 . S
O142 C134 1.252 . S
In143 O144 2.294 . S
In143 O145 2.326 . S
In143 O149 2.266 . S
In143 O150 2.326 . S
In143 O151 2.266 . S
In143 O152 2.326 . S
In143 O154 2.294 . S
In143 O155 2.326 . S
O144 In143 2.294 . S
O144 C153 1.240 . S
O145 In143 2.326 . S
O145 C153 1.252 . S
C146 O149 1.252 . S
C146 O150 1.260 . S
C147 O154 1.240 . S
C147 O155 1.252 . S
C148 O151 1.252 . S
C148 O152 1.260 . S
O149 In143 2.266 . S
O149 C146 1.252 . S
O150 In143 2.326 . S
O150 C146 1.260 . S
O151 In143 2.266 . S
O151 C148 1.252 . S
O152 In143 2.326 . S
O152 C148 1.260 . S
C153 O144 1.240 . S
C153 O145 1.252 . S
O154 In143 2.294 . S
O154 C147 1.240 . S
O155 In143 2.326 . S
O155 C147 1.252 . S
In156 O157 2.294 . S
In156 O158 2.326 . S
In156 O162 2.266 1_655 S
In156 O163 2.326 1_655 S
In156 O164 2.266 . S
In156 O165 2.326 . S
In156 O167 2.294 . S
In156 O168 2.326 . S
O157 In156 2.294 . S
O157 C166 1.240 . S
O158 In156 2.326 . S
O158 C166 1.252 . S
C159 O162 1.252 . S
C159 O163 1.260 . S
C160 O167 1.240 . S
C160 O168 1.252 . S
C161 O164 1.252 . S
C161 O165 1.260 . S
O162 In156 2.266 1_455 S
O162 C159 1.252 . S
O163 In156 2.326 1_455 S
O163 C159 1.260 . S
O164 In156 2.266 . S
O164 C161 1.252 . S
O165 In156 2.326 . S
O165 C161 1.260 . S
C166 O157 1.240 . S
C166 O158 1.252 . S
O167 In156 2.294 . S
O167 C160 1.240 . S
O168 In156 2.326 . S
O168 C160 1.252 . S
In169 O170 2.294 . S
In169 O171 2.326 . S
In169 O175 2.266 1_565 S
In169 O176 2.326 1_565 S
In169 O177 2.266 . S
In169 O178 2.326 . S
In169 O180 2.294 . S
In169 O181 2.326 . S
O170 In169 2.294 . S
O170 C179 1.240 . S
O171 In169 2.326 . S
O171 C179 1.252 . S
C172 O175 1.252 . S
C172 O176 1.260 . S
C173 O180 1.240 . S
C173 O181 1.252 . S
C174 O177 1.252 . S
C174 O178 1.260 . S
O175 In169 2.266 1_545 S
O175 C172 1.252 . S
O176 In169 2.326 1_545 S
O176 C172 1.260 . S
O177 In169 2.266 . S
O177 C174 1.252 . S
O178 In169 2.326 . S
O178 C174 1.260 . S
C179 O170 1.240 . S
C179 O171 1.252 . S
O180 In169 2.294 . S
O180 C173 1.240 . S
O181 In169 2.326 . S
O181 C173 1.252 . S
In182 O183 2.294 . S
In182 O184 2.326 . S
In182 O188 2.266 . S
In182 O189 2.326 . S
In182 O190 2.266 . S
In182 O191 2.326 . S
In182 O193 2.294 . S
In182 O194 2.326 . S
O183 In182 2.294 . S
O183 C192 1.240 . S
O184 In182 2.326 . S
O184 C192 1.252 . S
C185 O188 1.252 . S
C185 O189 1.260 . S
C186 O193 1.240 . S
C186 O194 1.252 . S
C187 O190 1.252 . S
C187 O191 1.260 . S
O188 In182 2.266 . S
O188 C185 1.252 . S
O189 In182 2.326 . S
O189 C185 1.260 . S
O190 In182 2.266 . S
O190 C187 1.252 . S
O191 In182 2.326 . S
O191 C187 1.260 . S
C192 O183 1.240 . S
C192 O184 1.252 . S
O193 In182 2.294 . S
O193 C186 1.240 . S
O194 In182 2.326 . S
O194 C186 1.252 . S
In195 O196 2.294 . S
In195 O197 2.326 . S
In195 O201 2.266 . S
In195 O202 2.326 . S
In195 O203 2.266 . S
In195 O204 2.326 . S
In195 O206 2.294 . S
In195 O207 2.326 . S
O196 In195 2.294 . S
O196 C205 1.240 . S
O197 In195 2.326 . S
O197 C205 1.252 . S
C198 O201 1.252 . S
C198 O202 1.260 . S
C199 O206 1.240 . S
C199 O207 1.252 . S
C200 O203 1.252 . S
C200 O204 1.260 . S
O201 In195 2.266 . S
O201 C198 1.252 . S
O202 In195 2.326 . S
O202 C198 1.260 . S
O203 In195 2.266 . S
O203 C200 1.252 . S
O204 In195 2.326 . S
O204 C200 1.260 . S
C205 O196 1.240 . S
C205 O197 1.252 . S
O206 In195 2.294 . S
O206 C199 1.240 . S
O207 In195 2.326 . S
O207 C199 1.252 . S
H208 C214 0.930 1_556 S
H209 C218 0.930 1_554 S
H210 C223 0.929 . S
H211 C221 0.943 . S
H212 C216 0.929 . S
H213 C222 0.929 . S
C214 H208 0.930 1_554 S
C214 C215 1.367 . S
C214 C222 1.378 1_554 S
C215 C214 1.367 . S
C215 C223 1.433 . S
C216 H212 0.929 . S
C216 C218 1.378 1_554 S
C216 C220 1.350 1_554 S
C217 C220 1.463 1_554 S
C217 C222 1.350 1_554 S
C217 N225 1.427 . S
C218 H209 0.930 1_556 S
C218 C216 1.378 1_556 S
C218 C219 1.367 . S
C219 C218 1.367 . S
C219 C221 1.433 . S
C220 C216 1.350 1_556 S
C220 C217 1.463 1_556 S
C220 N224 1.427 . S
C221 H211 0.943 . S
C221 C219 1.433 . S
C221 N224 1.384 . S
C222 H213 0.929 . S
C222 C214 1.378 1_556 S
C222 C217 1.350 1_556 S
C223 H210 0.929 . S
C223 C215 1.433 . S
C223 N225 1.384 . S
N224 C220 1.427 . S
N224 C221 1.384 . S
N225 C217 1.427 . S
N225 C223 1.384 . S
H226 C232 0.930 . S
H227 C236 0.930 . S
H228 C241 0.929 . S
H229 C239 0.929 . S
H230 C234 0.929 . S
H231 C240 0.929 . S
C232 H226 0.930 . S
C232 C233 1.367 . S
C232 C240 1.378 . S
C233 C232 1.367 . S
C233 C241 1.433 1_545 S
C234 H230 0.929 . S
C234 C236 1.378 . S
C234 C238 1.350 1_565 S
C235 C238 1.463 . S
C235 C240 1.350 . S
C235 N243 1.427 1_545 S
C236 H227 0.930 . S
C236 C234 1.378 . S
C236 C237 1.367 1_565 S
C237 C236 1.367 1_545 S
C237 C239 1.433 . S
C238 C234 1.350 1_545 S
C238 C235 1.463 . S
C238 N242 1.427 . S
C239 H229 0.929 . S
C239 C237 1.433 . S
C239 N242 1.384 . S
C240 H231 0.929 . S
C240 C232 1.378 . S
C240 C235 1.350 . S
C241 H228 0.929 . S
C241 C233 1.433 1_565 S
C241 N243 1.384 . S
N242 C238 1.427 . S
N242 C239 1.384 . S
N243 C235 1.427 1_565 S
N243 C241 1.384 . S
H244 C250 0.930 1_556 S
H245 C254 0.930 1_554 S
H246 C259 0.929 . S
H247 C257 0.929 . S
H248 C252 0.929 . S
H249 C258 0.929 . S
C250 H244 0.930 1_554 S
C250 C251 1.367 . S
C250 C258 1.378 1_554 S
C251 C250 1.367 . S
C251 C259 1.433 . S
C252 H248 0.929 . S
C252 C254 1.378 1_554 S
C252 C256 1.350 1_554 S
C253 C256 1.463 1_554 S
C253 C258 1.350 1_554 S
C253 N261 1.427 . S
C254 H245 0.930 1_556 S
C254 C252 1.378 1_556 S
C254 C255 1.367 . S
C255 C254 1.367 . S
C255 C257 1.433 . S
C256 C252 1.350 1_556 S
C256 C253 1.463 1_556 S
C256 N260 1.427 . S
C257 H247 0.929 . S
C257 C255 1.433 . S
C257 N260 1.384 . S
C258 H249 0.929 . S
C258 C250 1.378 1_556 S
C258 C253 1.350 1_556 S
C259 H246 0.929 . S
C259 C251 1.433 . S
C259 N261 1.384 . S
N260 C256 1.427 . S
N260 C257 1.384 . S
N261 C253 1.427 . S
N261 C259 1.384 . S
H262 C268 0.930 . S
H263 C272 0.930 . S
H264 C277 0.929 . S
H265 C275 0.929 . S
H266 C270 0.929 . S
H267 C276 0.929 . S
C268 H262 0.930 . S
C268 C269 1.367 . S
C268 C276 1.378 . S
C269 C268 1.367 . S
C269 C277 1.433 . S
C270 H266 0.929 . S
C270 C272 1.378 . S
C270 C274 1.350 . S
C271 C274 1.463 . S
C271 C276 1.350 . S
C271 N279 1.427 . S
C272 H263 0.930 . S
C272 C270 1.378 . S
C272 C273 1.367 . S
C273 C272 1.367 . S
C273 C275 1.433 . S
C274 C270 1.350 . S
C274 C271 1.463 . S
C274 N278 1.427 . S
C275 H265 0.929 . S
C275 C273 1.433 . S
C275 N278 1.384 . S
C276 H267 0.929 . S
C276 C268 1.378 . S
C276 C271 1.350 . S
C277 H264 0.929 . S
C277 C269 1.433 . S
C277 N279 1.384 . S
N278 C274 1.427 . S
N278 C275 1.384 . S
N279 C271 1.427 . S
N279 C277 1.384 . S
H280 C286 0.930 1_554 S
H281 C290 0.930 1_556 S
H282 C295 0.929 . S
H283 C293 0.929 . S
H284 C288 0.929 . S
H285 C294 0.929 . S
C286 H280 0.930 1_556 S
C286 C287 1.367 . S
C286 C294 1.378 1_556 S
C287 C286 1.367 . S
C287 C295 1.433 . S
C288 H284 0.929 . S
C288 C290 1.378 1_556 S
C288 C292 1.350 1_556 S
C289 C292 1.463 1_556 S
C289 C294 1.350 1_556 S
C289 N297 1.427 . S
C290 H281 0.930 1_554 S
C290 C288 1.378 1_554 S
C290 C291 1.367 . S
C291 C290 1.367 . S
C291 C293 1.433 . S
C292 C288 1.350 1_554 S
C292 C289 1.463 1_554 S
C292 N296 1.427 . S
C293 H283 0.929 . S
C293 C291 1.433 . S
C293 N296 1.384 . S
C294 H285 0.929 . S
C294 C286 1.378 1_554 S
C294 C289 1.350 1_554 S
C295 H282 0.929 . S
C295 C287 1.433 . S
C295 N297 1.384 . S
N296 C292 1.427 . S
N296 C293 1.384 . S
N297 C289 1.427 . S
N297 C295 1.384 . S
H298 C304 0.930 . S
H299 C308 0.930 . S
H300 C313 0.929 . S
H301 C311 0.929 . S
H302 C306 0.929 . S
H303 C312 0.929 . S
C304 H298 0.930 . S
C304 C305 1.367 . S
C304 C312 1.378 . S
C305 C304 1.367 . S
C305 C313 1.433 . S
C306 H302 0.929 . S
C306 C308 1.378 . S
C306 C310 1.350 . S
C307 C310 1.463 . S
C307 C312 1.350 . S
C307 N315 1.427 . S
C308 H299 0.930 . S
C308 C306 1.378 . S
C308 C309 1.367 . S
C309 C308 1.367 . S
C309 C311 1.433 . S
C310 C306 1.350 . S
C310 C307 1.463 . S
C310 N314 1.427 . S
C311 H301 0.929 . S
C311 C309 1.433 . S
C311 N314 1.384 . S
C312 H303 0.929 . S
C312 C304 1.378 . S
C312 C307 1.350 . S
C313 H300 0.929 . S
C313 C305 1.433 . S
C313 N315 1.384 . S
N314 C310 1.427 . S
N314 C311 1.384 . S
N315 C307 1.427 . S
N315 C313 1.384 . S
H316 C322 0.930 . S
H317 C326 0.930 . S
H318 C331 0.929 1_554 S
H319 C329 0.929 1_556 S
H320 C324 0.929 . S
H321 C330 0.929 . S
C322 H316 0.930 . S
C322 C323 1.367 . S
C322 C330 1.378 . S
C323 C322 1.367 . S
C323 C331 1.433 . S
C324 H320 0.929 . S
C324 C326 1.378 . S
C324 C328 1.350 . S
C325 C328 1.463 1_556 S
C325 C330 1.350 . S
C325 N333 1.427 1_556 S
C326 H317 0.930 . S
C326 C324 1.378 . S
C326 C327 1.367 . S
C327 C326 1.367 . S
C327 C329 1.433 . S
C328 C324 1.350 . S
C328 C325 1.463 1_554 S
C328 N332 1.427 1_554 S
C329 H319 0.929 1_554 S
C329 C327 1.433 . S
C329 N332 1.384 1_554 S
C330 H321 0.929 . S
C330 C322 1.378 . S
C330 C325 1.350 . S
C331 H318 0.929 1_556 S
C331 C323 1.433 . S
C331 N333 1.384 1_556 S
N332 C328 1.427 1_556 S
N332 C329 1.384 1_556 S
N333 C325 1.427 1_554 S
N333 C331 1.384 1_554 S
H334 C340 0.930 . S
H335 C344 0.930 . S
H336 C349 0.929 . S
H337 C347 0.929 . S
H338 C342 0.929 . S
H339 C348 0.929 . S
C340 H334 0.930 . S
C340 C341 1.367 . S
C340 C348 1.378 . S
C341 C340 1.367 . S
C341 C349 1.433 . S
C342 H338 0.929 . S
C342 C344 1.378 . S
C342 C346 1.350 . S
C343 C346 1.463 . S
C343 C348 1.350 . S
C343 N351 1.427 . S
C344 H335 0.930 . S
C344 C342 1.378 . S
C344 C345 1.367 . S
C345 C344 1.367 . S
C345 C347 1.433 . S
C346 C342 1.350 . S
C346 C343 1.463 . S
C346 N350 1.427 . S
C347 H337 0.929 . S
C347 C345 1.433 . S
C347 N350 1.384 . S
C348 H339 0.929 . S
C348 C340 1.378 . S
C348 C343 1.350 . S
C349 H336 0.929 . S
C349 C341 1.433 . S
C349 N351 1.384 . S
N350 C346 1.427 . S
N350 C347 1.384 . S
N351 C343 1.427 . S
N351 C349 1.384 . S
H352 C358 0.930 . S
H353 C362 0.930 . S
H354 C367 0.929 1_554 S
H355 C365 0.929 . S
H356 C360 0.929 . S
H357 C366 0.929 . S
C358 H352 0.930 . S
C358 C359 1.367 . S
C358 C366 1.378 . S
C359 C358 1.367 . S
C359 C367 1.433 . S
C360 H356 0.929 . S
C360 C362 1.378 . S
C360 C364 1.350 . S
C361 C364 1.463 . S
C361 C366 1.350 . S
C361 N369 1.427 . S
C362 H353 0.930 . S
C362 C360 1.378 . S
C362 C363 1.367 . S
C363 C362 1.367 . S
C363 C365 1.433 . S
C364 C360 1.350 . S
C364 C361 1.463 . S
C364 N368 1.427 . S
C365 H355 0.929 . S
C365 C363 1.433 . S
C365 N368 1.384 . S
C366 H357 0.929 . S
C366 C358 1.378 . S
C366 C361 1.350 . S
C367 H354 0.929 1_556 S
C367 C359 1.433 . S
C367 N369 1.384 . S
N368 C364 1.427 . S
N368 C365 1.384 . S
N369 C361 1.427 . S
N369 C367 1.384 . S
H370 C376 0.930 . S
H371 C380 0.930 . S
H372 C385 0.929 . S
H373 C383 0.929 . S
H374 C378 0.929 . S
H375 C384 0.929 . S
C376 H370 0.930 . S
C376 C377 1.367 . S
C376 C384 1.378 . S
C377 C376 1.367 . S
C377 C385 1.433 . S
C378 H374 0.929 . S
C378 C380 1.378 . S
C378 C382 1.350 . S
C379 C382 1.463 . S
C379 C384 1.350 . S
C379 N387 1.427 . S
C380 H371 0.930 . S
C380 C378 1.378 . S
C380 C381 1.367 . S
C381 C380 1.367 . S
C381 C383 1.433 . S
C382 C378 1.350 . S
C382 C379 1.463 . S
C382 N386 1.427 . S
C383 H373 0.929 . S
C383 C381 1.433 . S
C383 N386 1.384 . S
C384 H375 0.929 . S
C384 C376 1.378 . S
C384 C379 1.350 . S
C385 H372 0.929 . S
C385 C377 1.433 . S
C385 N387 1.384 . S
N386 C382 1.427 . S
N386 C383 1.384 . S
N387 C379 1.427 . S
N387 C385 1.384 . S
H388 C394 0.930 . S
H389 C398 0.930 . S
H390 C403 0.929 1_554 S
H391 C401 0.929 . S
H392 C396 0.929 . S
H393 C402 0.929 . S
C394 H388 0.930 . S
C394 C395 1.367 . S
C394 C402 1.378 . S
C395 C394 1.367 . S
C395 C403 1.433 . S
C396 H392 0.929 . S
C396 C398 1.378 . S
C396 C400 1.350 . S
C397 C400 1.463 . S
C397 C402 1.350 . S
C397 N405 1.427 . S
C398 H389 0.930 . S
C398 C396 1.378 . S
C398 C399 1.367 . S
C399 C398 1.367 . S
C399 C401 1.433 . S
C400 C396 1.350 . S
C400 C397 1.463 . S
C400 N404 1.427 . S
C401 H391 0.929 . S
C401 C399 1.433 . S
C401 N404 1.384 . S
C402 H393 0.929 . S
C402 C394 1.378 . S
C402 C397 1.350 . S
C403 H390 0.929 1_556 S
C403 C395 1.433 . S
C403 N405 1.384 . S
N404 C400 1.427 . S
N404 C401 1.384 . S
N405 C397 1.427 . S
N405 C403 1.384 . S
H406 C412 0.930 . S
H407 C416 0.930 . S
H408 C421 0.929 . S
H409 C419 0.929 . S
H410 C414 0.929 . S
H411 C420 0.929 . S
C412 H406 0.930 . S
C412 C413 1.367 . S
C412 C420 1.378 . S
C413 C412 1.367 . S
C413 C421 1.433 . S
C414 H410 0.929 . S
C414 C416 1.378 . S
C414 C418 1.350 . S
C415 C418 1.463 . S
C415 C420 1.350 . S
C415 N423 1.427 . S
C416 H407 0.930 . S
C416 C414 1.378 . S
C416 C417 1.367 . S
C417 C416 1.367 . S
C417 C419 1.433 . S
C418 C414 1.350 . S
C418 C415 1.463 . S
C418 N422 1.427 . S
C419 H409 0.929 . S
C419 C417 1.433 . S
C419 N422 1.384 . S
C420 H411 0.929 . S
C420 C412 1.378 . S
C420 C415 1.350 . S
C421 H408 0.929 . S
C421 C413 1.433 . S
C421 N423 1.384 . S
N422 C418 1.427 . S
N422 C419 1.384 . S
N423 C415 1.427 . S
N423 C421 1.384 . S
H424 C430 0.930 . S
H425 C434 0.930 . S
H426 C439 0.929 . S
H427 C437 0.929 . S
H428 C432 0.929 . S
H429 C438 0.929 . S
C430 H424 0.930 . S
C430 C431 1.367 . S
C430 C438 1.378 . S
C431 C430 1.367 . S
C431 C439 1.433 . S
C432 H428 0.929 . S
C432 C434 1.378 . S
C432 C436 1.350 . S
C433 C436 1.463 . S
C433 C438 1.350 . S
C433 N441 1.427 . S
C434 H425 0.930 . S
C434 C432 1.378 . S
C434 C435 1.367 . S
C435 C434 1.367 . S
C435 C437 1.433 . S
C436 C432 1.350 . S
C436 C433 1.463 . S
C436 N440 1.427 . S
C437 H427 0.929 . S
C437 C435 1.433 . S
C437 N440 1.384 . S
C438 H429 0.929 . S
C438 C430 1.378 . S
C438 C433 1.350 . S
C439 H426 0.929 . S
C439 C431 1.433 . S
C439 N441 1.384 . S
N440 C436 1.427 . S
N440 C437 1.384 . S
N441 C433 1.427 . S
N441 C439 1.384 . S
H442 C448 0.930 . S
H443 C452 0.930 . S
H444 C457 0.929 . S
H445 C455 0.929 . S
H446 C450 0.929 . S
H447 C456 0.929 . S
C448 H442 0.930 . S
C448 C449 1.367 . S
C448 C456 1.378 . S
C449 C448 1.367 . S
C449 C457 1.433 . S
C450 H446 0.929 . S
C450 C452 1.378 . S
C450 C454 1.350 . S
C451 C454 1.463 . S
C451 C456 1.350 . S
C451 N459 1.427 . S
C452 H443 0.930 . S
C452 C450 1.378 . S
C452 C453 1.367 . S
C453 C452 1.367 . S
C453 C455 1.433 . S
C454 C450 1.350 . S
C454 C451 1.463 . S
C454 N458 1.427 . S
C455 H445 0.929 . S
C455 C453 1.433 . S
C455 N458 1.384 . S
C456 H447 0.929 . S
C456 C448 1.378 . S
C456 C451 1.350 . S
C457 H444 0.929 . S
C457 C449 1.433 . S
C457 N459 1.384 . S
N458 C454 1.427 . S
N458 C455 1.384 . S
N459 C451 1.427 . S
N459 C457 1.384 . S
H460 C466 0.930 . S
H461 C470 0.930 . S
H462 C475 0.929 . S
H463 C473 0.929 1_556 S
H464 C468 0.929 . S
H465 C474 0.929 . S
C466 H460 0.930 . S
C466 C467 1.367 . S
C466 C474 1.378 . S
C467 C466 1.367 . S
C467 C475 1.433 . S
C468 H464 0.929 . S
C468 C470 1.378 . S
C468 C472 1.350 . S
C469 C472 1.463 . S
C469 C474 1.350 . S
C469 N477 1.427 . S
C470 H461 0.930 . S
C470 C468 1.378 . S
C470 C471 1.367 . S
C471 C470 1.367 . S
C471 C473 1.433 . S
C472 C468 1.350 . S
C472 C469 1.463 . S
C472 N476 1.427 . S
C473 H463 0.929 1_554 S
C473 C471 1.433 . S
C473 N476 1.384 . S
C474 H465 0.929 . S
C474 C466 1.378 . S
C474 C469 1.350 . S
C475 H462 0.929 . S
C475 C467 1.433 . S
C475 N477 1.384 . S
N476 C472 1.427 . S
N476 C473 1.384 . S
N477 C469 1.427 . S
N477 C475 1.384 . S
H478 C484 0.930 . S
H479 C488 0.930 . S
H480 C493 0.929 . S
H481 C491 0.929 . S
H482 C486 0.929 . S
H483 C492 0.929 . S
C484 H478 0.930 . S
C484 C485 1.367 . S
C484 C492 1.378 . S
C485 C484 1.367 . S
C485 C493 1.433 . S
C486 H482 0.929 . S
C486 C488 1.378 . S
C486 C490 1.350 . S
C487 C490 1.463 . S
C487 C492 1.350 . S
C487 N495 1.427 . S
C488 H479 0.930 . S
C488 C486 1.378 . S
C488 C489 1.367 . S
C489 C488 1.367 . S
C489 C491 1.433 . S
C490 C486 1.350 . S
C490 C487 1.463 . S
C490 N494 1.427 . S
C491 H481 0.929 . S
C491 C489 1.433 . S
C491 N494 1.384 . S
C492 H483 0.929 . S
C492 C484 1.378 . S
C492 C487 1.350 . S
C493 H480 0.929 . S
C493 C485 1.433 . S
C493 N495 1.384 . S
N494 C490 1.427 . S
N494 C491 1.384 . S
N495 C487 1.427 . S
N495 C493 1.384 . S
H496 C502 0.930 . S
H497 C506 0.930 . S
H498 C511 0.929 1_556 S
H499 C509 0.929 . S
H500 C504 0.929 . S
H501 C510 0.929 . S
C502 H496 0.930 . S
C502 C503 1.367 . S
C502 C510 1.378 . S
C503 C502 1.367 . S
C503 C511 1.433 . S
C504 H500 0.929 . S
C504 C506 1.378 . S
C504 C508 1.350 . S
C505 C508 1.463 . S
C505 C510 1.350 . S
C505 N513 1.427 . S
C506 H497 0.930 . S
C506 C504 1.378 . S
C506 C507 1.367 . S
C507 C506 1.367 . S
C507 C509 1.433 . S
C508 C504 1.350 . S
C508 C505 1.463 . S
C508 N512 1.427 . S
C509 H499 0.929 . S
C509 C507 1.433 . S
C509 N512 1.384 . S
C510 H501 0.929 . S
C510 C502 1.378 . S
C510 C505 1.350 . S
C511 H498 0.929 1_554 S
C511 C503 1.433 . S
C511 N513 1.384 . S
N512 C508 1.427 . S
N512 C509 1.384 . S
N513 C505 1.427 . S
N513 C511 1.384 . S
H514 C520 0.930 . S
H515 C524 0.930 . S
H516 C529 0.929 . S
H517 C527 0.929 . S
H518 C522 0.929 . S
H519 C528 0.929 . S
C520 H514 0.930 . S
C520 C521 1.367 . S
C520 C528 1.378 . S
C521 C520 1.367 . S
C521 C529 1.433 . S
C522 H518 0.929 . S
C522 C524 1.378 . S
C522 C526 1.350 . S
C523 C526 1.463 . S
C523 C528 1.350 . S
C523 N531 1.427 . S
C524 H515 0.930 . S
C524 C522 1.378 . S
C524 C525 1.367 . S
C525 C524 1.367 . S
C525 C527 1.433 . S
C526 C522 1.350 . S
C526 C523 1.463 . S
C526 N530 1.427 . S
C527 H517 0.929 . S
C527 C525 1.433 . S
C527 N530 1.384 . S
C528 H519 0.929 . S
C528 C520 1.378 . S
C528 C523 1.350 . S
C529 H516 0.929 . S
C529 C521 1.433 . S
C529 N531 1.384 . S
N530 C526 1.427 . S
N530 C527 1.384 . S
N531 C523 1.427 . S
N531 C529 1.384 . S
H532 C538 0.930 . S
H533 C542 0.930 1_556 S
H534 C547 0.929 . S
H535 C545 0.929 . S
H536 C540 0.929 . S
H537 C546 0.929 . S
C538 H532 0.930 . S
C538 C539 1.367 . S
C538 C546 1.378 . S
C539 C538 1.367 . S
C539 C547 1.433 . S
C540 H536 0.929 . S
C540 C542 1.378 . S
C540 C544 1.350 . S
C541 C544 1.463 . S
C541 C546 1.350 . S
C541 N549 1.427 . S
C542 H533 0.930 1_554 S
C542 C540 1.378 . S
C542 C543 1.367 . S
C543 C542 1.367 . S
C543 C545 1.433 . S
C544 C540 1.350 . S
C544 C541 1.463 . S
C544 N548 1.427 . S
C545 H535 0.929 . S
C545 C543 1.433 . S
C545 N548 1.384 . S
C546 H537 0.929 . S
C546 C538 1.378 . S
C546 C541 1.350 . S
C547 H534 0.929 . S
C547 C539 1.433 . S
C547 N549 1.384 . S
N548 C544 1.427 . S
N548 C545 1.384 . S
N549 C541 1.427 . S
N549 C547 1.384 . S
H550 C556 0.930 . S
H551 C560 0.930 . S
H552 C565 0.929 . S
H553 C563 0.929 . S
H554 C558 0.929 . S
H555 C564 0.929 . S
C556 H550 0.930 . S
C556 C557 1.367 . S
C556 C564 1.378 . S
C557 C556 1.367 . S
C557 C565 1.433 . S
C558 H554 0.929 . S
C558 C560 1.378 . S
C558 C562 1.350 . S
C559 C562 1.463 . S
C559 C564 1.350 . S
C559 N567 1.427 . S
C560 H551 0.930 . S
C560 C558 1.378 . S
C560 C561 1.367 . S
C561 C560 1.367 . S
C561 C563 1.433 . S
C562 C558 1.350 . S
C562 C559 1.463 . S
C562 N566 1.427 . S
C563 H553 0.929 . S
C563 C561 1.433 . S
C563 N566 1.384 . S
C564 H555 0.929 . S
C564 C556 1.378 . S
C564 C559 1.350 . S
C565 H552 0.929 . S
C565 C557 1.433 . S
C565 N567 1.384 . S
N566 C562 1.427 . S
N566 C563 1.384 . S
N567 C559 1.427 . S
N567 C565 1.384 . S
H568 C574 0.930 . S
H569 C578 0.930 . S
H570 C583 0.929 . S
H571 C581 0.929 . S
H572 C576 0.929 . S
H573 C582 0.929 . S
C574 H568 0.930 . S
C574 C575 1.367 . S
C574 C582 1.378 . S
C575 C574 1.367 . S
C575 C583 1.433 . S
C576 H572 0.929 . S
C576 C578 1.378 . S
C576 C580 1.350 . S
C577 C580 1.463 . S
C577 C582 1.350 . S
C577 N585 1.427 . S
C578 H569 0.930 . S
C578 C576 1.378 . S
C578 C579 1.367 . S
C579 C578 1.367 . S
C579 C581 1.433 . S
C580 C576 1.350 . S
C580 C577 1.463 . S
C580 N584 1.427 . S
C581 H571 0.929 . S
C581 C579 1.433 . S
C581 N584 1.384 . S
C582 H573 0.929 . S
C582 C574 1.378 . S
C582 C577 1.350 . S
C583 H570 0.929 . S
C583 C575 1.433 . S
C583 N585 1.384 . S
N584 C580 1.427 . S
N584 C581 1.384 . S
N585 C577 1.427 . S
N585 C583 1.384 . S
H586 C592 0.930 . S
H587 C596 0.930 . S
H588 C601 0.929 . S
H589 C599 0.929 . S
H590 C594 0.929 . S
H591 C600 0.929 . S
C592 H586 0.930 . S
C592 C593 1.367 . S
C592 C600 1.378 . S
C593 C592 1.367 . S
C593 C601 1.433 . S
C594 H590 0.929 . S
C594 C596 1.378 . S
C594 C598 1.350 . S
C595 C598 1.463 . S
C595 C600 1.350 . S
C595 N603 1.427 . S
C596 H587 0.930 . S
C596 C594 1.378 . S
C596 C597 1.367 . S
C597 C596 1.367 . S
C597 C599 1.433 . S
C598 C594 1.350 . S
C598 C595 1.463 . S
C598 N602 1.427 . S
C599 H589 0.929 . S
C599 C597 1.433 . S
C599 N602 1.384 . S
C600 H591 0.929 . S
C600 C592 1.378 . S
C600 C595 1.350 . S
C601 H588 0.929 . S
C601 C593 1.433 . S
C601 N603 1.384 . S
N602 C598 1.427 . S
N602 C599 1.384 . S
N603 C595 1.427 . S
N603 C601 1.384 . S
H604 C610 0.930 1_554 S
H605 C614 0.930 . S
H606 C619 0.929 . S
H607 C617 0.929 . S
H608 C612 0.929 . S
H609 C618 0.929 . S
C610 H604 0.930 1_556 S
C610 C611 1.367 . S
C610 C618 1.378 . S
C611 C610 1.367 . S
C611 C619 1.433 . S
C612 H608 0.929 . S
C612 C614 1.378 . S
C612 C616 1.350 . S
C613 C616 1.463 . S
C613 C618 1.350 . S
C613 N621 1.427 . S
C614 H605 0.930 . S
C614 C612 1.378 . S
C614 C615 1.367 . S
C615 C614 1.367 . S
C615 C617 1.433 . S
C616 C612 1.350 . S
C616 C613 1.463 . S
C616 N620 1.427 . S
C617 H607 0.929 . S
C617 C615 1.433 . S
C617 N620 1.384 . S
C618 H609 0.929 . S
C618 C610 1.378 . S
C618 C613 1.350 . S
C619 H606 0.929 . S
C619 C611 1.433 . S
C619 N621 1.384 . S
N620 C616 1.427 . S
N620 C617 1.384 . S
N621 C613 1.427 . S
N621 C619 1.384 . S
H622 C628 0.930 . S
H623 C632 0.930 . S
H624 C637 0.929 . S
H625 C635 0.929 . S
H626 C630 0.929 . S
H627 C636 0.929 . S
C628 H622 0.930 . S
C628 C629 1.367 . S
C628 C636 1.378 . S
C629 C628 1.367 . S
C629 C637 1.433 . S
C630 H626 0.929 . S
C630 C632 1.378 . S
C630 C634 1.350 . S
C631 C634 1.463 . S
C631 C636 1.350 . S
C631 N639 1.427 . S
C632 H623 0.930 . S
C632 C630 1.378 . S
C632 C633 1.367 . S
C633 C632 1.367 . S
C633 C635 1.433 . S
C634 C630 1.350 . S
C634 C631 1.463 . S
C634 N638 1.427 . S
C635 H625 0.929 . S
C635 C633 1.433 . S
C635 N638 1.384 . S
C636 H627 0.929 . S
C636 C628 1.378 . S
C636 C631 1.350 . S
C637 H624 0.929 . S
C637 C629 1.433 . S
C637 N639 1.384 . S
N638 C634 1.427 . S
N638 C635 1.384 . S
N639 C631 1.427 . S
N639 C637 1.384 . S
H640 C646 0.930 . S
H641 C650 0.930 . S
H642 C655 0.929 . S
H643 C653 0.929 . S
H644 C648 0.929 . S
H645 C654 0.929 . S
C646 H640 0.930 . S
C646 C647 1.367 . S
C646 C654 1.378 . S
C647 C646 1.367 . S
C647 C655 1.433 . S
C648 H644 0.929 . S
C648 C650 1.378 . S
C648 C652 1.350 . S
C649 C652 1.463 . S
C649 C654 1.350 . S
C649 N657 1.427 . S
C650 H641 0.930 . S
C650 C648 1.378 . S
C650 C651 1.367 . S
C651 C650 1.367 . S
C651 C653 1.433 . S
C652 C648 1.350 . S
C652 C649 1.463 . S
C652 N656 1.427 . S
C653 H643 0.929 . S
C653 C651 1.433 . S
C653 N656 1.384 . S
C654 H645 0.929 . S
C654 C646 1.378 . S
C654 C649 1.350 . S
C655 H642 0.929 . S
C655 C647 1.433 . S
C655 N657 1.384 . S
N656 C652 1.427 . S
N656 C653 1.384 . S
N657 C649 1.427 . S
N657 C655 1.384 . S
H658 C664 0.930 . S
H659 C668 0.930 . S
H660 C673 0.929 . S
H661 C671 0.929 . S
H662 C666 0.929 . S
H663 C672 0.929 . S
C664 H658 0.930 . S
C664 C665 1.367 . S
C664 C672 1.378 . S
C665 C664 1.367 . S
C665 C673 1.433 . S
C666 H662 0.929 . S
C666 C668 1.378 . S
C666 C670 1.350 . S
C667 C670 1.463 . S
C667 C672 1.350 . S
C667 N675 1.427 . S
C668 H659 0.930 . S
C668 C666 1.378 . S
C668 C669 1.367 . S
C669 C668 1.367 . S
C669 C671 1.433 . S
C670 C666 1.350 . S
C670 C667 1.463 . S
C670 N674 1.427 . S
C671 H661 0.929 . S
C671 C669 1.433 . S
C671 N674 1.384 . S
C672 H663 0.929 . S
C672 C664 1.378 . S
C672 C667 1.350 . S
C673 H660 0.929 . S
C673 C665 1.433 . S
C673 N675 1.384 . S
N674 C670 1.427 . S
N674 C671 1.384 . S
N675 C667 1.427 . S
N675 C673 1.384 . S
H676 C682 0.930 . S
H677 C686 0.930 . S
H678 C691 0.929 . S
H679 C689 0.929 . S
H680 C684 0.929 . S
H681 C690 0.929 . S
C682 H676 0.930 . S
C682 C683 1.367 . S
C682 C690 1.378 . S
C683 C682 1.367 . S
C683 C691 1.433 . S
C684 H680 0.929 . S
C684 C686 1.378 . S
C684 C688 1.350 . S
C685 C688 1.463 . S
C685 C690 1.350 . S
C685 N693 1.427 . S
C686 H677 0.930 . S
C686 C684 1.378 . S
C686 C687 1.367 . S
C687 C686 1.367 . S
C687 C689 1.433 . S
C688 C684 1.350 . S
C688 C685 1.463 . S
C688 N692 1.427 . S
C689 H679 0.929 . S
C689 C687 1.433 . S
C689 N692 1.384 . S
C690 H681 0.929 . S
C690 C682 1.378 . S
C690 C685 1.350 . S
C691 H678 0.929 . S
C691 C683 1.433 . S
C691 N693 1.384 . S
N692 C688 1.427 . S
N692 C689 1.384 . S
N693 C685 1.427 . S
N693 C691 1.384 . S
H694 C700 0.930 . S
H695 C704 0.930 . S
H696 C709 0.929 . S
H697 C707 0.929 . S
H698 C702 0.929 . S
H699 C708 0.929 . S
C700 H694 0.930 . S
C700 C701 1.367 . S
C700 C708 1.378 . S
C701 C700 1.367 . S
C701 C709 1.433 . S
C702 H698 0.929 . S
C702 C704 1.378 . S
C702 C706 1.350 . S
C703 C706 1.463 . S
C703 C708 1.350 . S
C703 N711 1.427 . S
C704 H695 0.930 . S
C704 C702 1.378 . S
C704 C705 1.367 . S
C705 C704 1.367 . S
C705 C707 1.433 . S
C706 C702 1.350 . S
C706 C703 1.463 . S
C706 N710 1.427 . S
C707 H697 0.929 . S
C707 C705 1.433 . S
C707 N710 1.384 . S
C708 H699 0.929 . S
C708 C700 1.378 . S
C708 C703 1.350 . S
C709 H696 0.929 . S
C709 C701 1.433 . S
C709 N711 1.384 . S
N710 C706 1.427 . S
N710 C707 1.384 . S
N711 C703 1.427 . S
N711 C709 1.384 . S
H712 C718 0.930 . S
H713 C722 0.930 . S
H714 C727 0.929 . S
H715 C725 0.929 . S
H716 C720 0.929 . S
H717 C726 0.929 . S
C718 H712 0.930 . S
C718 C719 1.367 . S
C718 C726 1.378 . S
C719 C718 1.367 . S
C719 C727 1.433 . S
C720 H716 0.929 . S
C720 C722 1.378 . S
C720 C724 1.350 . S
C721 C724 1.463 . S
C721 C726 1.350 . S
C721 N729 1.427 . S
C722 H713 0.930 . S
C722 C720 1.378 . S
C722 C723 1.367 . S
C723 C722 1.367 . S
C723 C725 1.433 . S
C724 C720 1.350 . S
C724 C721 1.463 . S
C724 N728 1.427 . S
C725 H715 0.929 . S
C725 C723 1.433 . S
C725 N728 1.384 . S
C726 H717 0.929 . S
C726 C718 1.378 . S
C726 C721 1.350 . S
C727 H714 0.929 . S
C727 C719 1.433 . S
C727 N729 1.384 . S
N728 C724 1.427 . S
N728 C725 1.384 . S
N729 C721 1.427 . S
N729 C727 1.384 . S
H730 C736 0.930 . S
H731 C740 0.930 . S
H732 C745 0.929 . S
H733 C743 0.929 . S
H734 C738 0.929 . S
H735 C744 0.929 . S
C736 H730 0.930 . S
C736 C737 1.367 . S
C736 C744 1.378 . S
C737 C736 1.367 . S
C737 C745 1.433 . S
C738 H734 0.929 . S
C738 C740 1.378 . S
C738 C742 1.350 . S
C739 C742 1.463 . S
C739 C744 1.350 . S
C739 N747 1.427 . S
C740 H731 0.930 . S
C740 C738 1.378 . S
C740 C741 1.367 . S
C741 C740 1.367 . S
C741 C743 1.433 . S
C742 C738 1.350 . S
C742 C739 1.463 . S
C742 N746 1.427 . S
C743 H733 0.929 . S
C743 C741 1.433 . S
C743 N746 1.384 . S
C744 H735 0.929 . S
C744 C736 1.378 . S
C744 C739 1.350 . S
C745 H732 0.929 . S
C745 C737 1.433 . S
C745 N747 1.384 . S
N746 C742 1.427 . S
N746 C743 1.384 . S
N747 C739 1.427 . S
N747 C745 1.384 . S
H748 C754 0.930 . S
H749 C758 0.930 . S
H750 C763 0.929 . S
H751 C761 0.929 . S
H752 C756 0.929 . S
H753 C762 0.929 . S
C754 H748 0.930 . S
C754 C755 1.367 . S
C754 C762 1.378 . S
C755 C754 1.367 . S
C755 C763 1.433 . S
C756 H752 0.929 . S
C756 C758 1.378 . S
C756 C760 1.350 . S
C757 C760 1.463 . S
C757 C762 1.350 . S
C757 N765 1.427 . S
C758 H749 0.930 . S
C758 C756 1.378 . S
C758 C759 1.367 . S
C759 C758 1.367 . S
C759 C761 1.433 . S
C760 C756 1.350 . S
C760 C757 1.463 . S
C760 N764 1.427 . S
C761 H751 0.929 . S
C761 C759 1.433 . S
C761 N764 1.384 . S
C762 H753 0.929 . S
C762 C754 1.378 . S
C762 C757 1.350 . S
C763 H750 0.929 . S
C763 C755 1.433 . S
C763 N765 1.384 . S
N764 C760 1.427 . S
N764 C761 1.384 . S
N765 C757 1.427 . S
N765 C763 1.384 . S
H766 C772 0.930 . S
H767 C776 0.930 . S
H768 C781 0.929 . S
H769 C779 0.929 . S
H770 C774 0.929 . S
H771 C780 0.929 . S
C772 H766 0.930 . S
C772 C773 1.367 . S
C772 C780 1.378 . S
C773 C772 1.367 . S
C773 C781 1.433 . S
C774 H770 0.929 . S
C774 C776 1.378 . S
C774 C778 1.350 . S
C775 C778 1.463 . S
C775 C780 1.350 . S
C775 N783 1.427 . S
C776 H767 0.930 . S
C776 C774 1.378 . S
C776 C777 1.367 . S
C777 C776 1.367 . S
C777 C779 1.433 . S
C778 C774 1.350 . S
C778 C775 1.463 . S
C778 N782 1.427 . S
C779 H769 0.929 . S
C779 C777 1.433 . S
C779 N782 1.384 . S
C780 H771 0.929 . S
C780 C772 1.378 . S
C780 C775 1.350 . S
C781 H768 0.929 . S
C781 C773 1.433 . S
C781 N783 1.384 . S
N782 C778 1.427 . S
N782 C779 1.384 . S
N783 C775 1.427 . S
N783 C781 1.384 . S
C215 C4 1.069 . S
C219 C56 1.066 . S
C233 C69 1.064 . S
C237 C23 1.072 . S
C251 C36 1.067 . S
C255 C88 1.066 . S
C269 C49 1.073 . S
C273 C101 1.066 . S
C287 C108 1.066 . S
C291 C160 1.068 . S
C305 C173 1.068 . S
C309 C127 1.066 . S
C323 C140 1.072 . S
C327 C192 1.069 . S
C341 C147 1.073 . S
C345 C205 1.065 . S
C359 C10 1.591 1_556 S
C363 C198 1.593 . S
C377 C161 1.596 . S
C381 C17 1.587 . S
C395 C30 1.588 1_556 S
C399 C174 1.595 . S
C413 C185 1.595 . S
C417 C43 1.589 . S
C431 C120 1.592 . S
C435 C62 1.592 1_554 S
C449 C133 1.596 . S
C453 C75 1.587 . S
C467 C148 1.592 . S
C471 C82 1.592 1_554 S
C485 C109 1.592 . S
C489 C95 1.592 . S
C503 C114 1.589 1_554 S
C507 C94 1.594 . S
C521 C57 1.594 . S
C525 C121 1.590 . S
C539 C70 1.593 . S
C543 C134 1.591 1_554 S
C557 C153 1.592 . S
C561 C81 1.593 . S
C575 C16 1.592 . S
C579 C166 1.592 1_556 S
C593 C179 1.588 . S
C597 C29 1.595 . S
C611 C186 1.588 1_556 S
C615 C42 1.595 . S
C629 C199 1.589 . S
C633 C5 1.595 . S
C647 C96 1.218 . S
C651 C3 1.222 . S
C665 C18 1.216 . S
C669 C55 1.225 . S
C683 C31 1.214 . S
C687 C68 1.227 . S
C701 C44 1.216 . S
C705 C83 1.224 . S
C719 C200 1.215 . S
C723 C107 1.226 . S
C737 C159 1.220 . S
C741 C122 1.220 . S
C755 C172 1.217 . S
C759 C135 1.224 . S
C773 C187 1.219 . S
C777 C146 1.222 . S
