# Generated by pormake.
# Topology smc, (6)-cn, num edge types: 1
# Building blocks:
#     Node 0, Type 0, BuildingBlock: NUHQIS_clean_sbu_0, # of connection points: 6
#     Node 1, Type 0, BuildingBlock: NUHQIS_clean_sbu_0, # of connection points: 6
#     Node 2, Type 0, BuildingBlock: NUHQIS_clean_sbu_0, # of connection points: 6
#     Node 3, Type 0, BuildingBlock: NUHQIS_clean_sbu_0, # of connection points: 6
#     Node 4, Type 0, BuildingBlock: NUHQIS_clean_sbu_0, # of connection points: 6
#     Node 5, Type 0, BuildingBlock: NUHQIS_clean_sbu_0, # of connection points: 6
#     Node 6, Type 0, BuildingBlock: NUHQIS_clean_sbu_0, # of connection points: 6
#     Node 7, Type 0, BuildingBlock: NUHQIS_clean_sbu_0, # of connection points: 6
#     Node 8, Type 0, BuildingBlock: NUHQIS_clean_sbu_0, # of connection points: 6
#     Edge 9, Type (0, 0), BuildingBlock: EZIPEK_clean_linker_0, # of connection points: 2
#     Edge 10, Type (0, 0), BuildingBlock: EZIPEK_clean_linker_0, # of connection points: 2
#     Edge 11, Type (0, 0), BuildingBlock: EZIPEK_clean_linker_0, # of connection points: 2
#     Edge 12, Type (0, 0), BuildingBlock: EZIPEK_clean_linker_0, # of connection points: 2
#     Edge 13, Type (0, 0), BuildingBlock: EZIPEK_clean_linker_0, # of connection points: 2
#     Edge 14, Type (0, 0), BuildingBlock: EZIPEK_clean_linker_0, # of connection points: 2
#     Edge 15, Type (0, 0), BuildingBlock: EZIPEK_clean_linker_0, # of connection points: 2
#     Edge 16, Type (0, 0), BuildingBlock: EZIPEK_clean_linker_0, # of connection points: 2
#     Edge 17, Type (0, 0), BuildingBlock: EZIPEK_clean_linker_0, # of connection points: 2
#     Edge 18, Type (0, 0), BuildingBlock: EZIPEK_clean_linker_0, # of connection points: 2
#     Edge 19, Type (0, 0), BuildingBlock: EZIPEK_clean_linker_0, # of connection points: 2
#     Edge 20, Type (0, 0), BuildingBlock: EZIPEK_clean_linker_0, # of connection points: 2
#     Edge 21, Type (0, 0), BuildingBlock: EZIPEK_clean_linker_0, # of connection points: 2
#     Edge 22, Type (0, 0), BuildingBlock: EZIPEK_clean_linker_0, # of connection points: 2
#     Edge 23, Type (0, 0), BuildingBlock: EZIPEK_clean_linker_0, # of connection points: 2
#     Edge 24, Type (0, 0), BuildingBlock: EZIPEK_clean_linker_0, # of connection points: 2
#     Edge 25, Type (0, 0), BuildingBlock: EZIPEK_clean_linker_0, # of connection points: 2
#     Edge 26, Type (0, 0), BuildingBlock: EZIPEK_clean_linker_0, # of connection points: 2
#     Edge 27, Type (0, 0), BuildingBlock: EZIPEK_clean_linker_0, # of connection points: 2
#     Edge 28, Type (0, 0), BuildingBlock: EZIPEK_clean_linker_0, # of connection points: 2
#     Edge 29, Type (0, 0), BuildingBlock: EZIPEK_clean_linker_0, # of connection points: 2
#     Edge 30, Type (0, 0), BuildingBlock: EZIPEK_clean_linker_0, # of connection points: 2
#     Edge 31, Type (0, 0), BuildingBlock: EZIPEK_clean_linker_0, # of connection points: 2
#     Edge 32, Type (0, 0), BuildingBlock: EZIPEK_clean_linker_0, # of connection points: 2
#     Edge 33, Type (0, 0), BuildingBlock: EZIPEK_clean_linker_0, # of connection points: 2
#     Edge 34, Type (0, 0), BuildingBlock: EZIPEK_clean_linker_0, # of connection points: 2
#     Edge 35, Type (0, 0), BuildingBlock: EZIPEK_clean_linker_0, # of connection points: 2
# Relax obj value: 0.423
# Max RMSD: 0.414
# Mean RMSD: 0.352
data_MOF--net-smc--node1-NUHQIS_clean_sbu_0--edge1-EZIPEK_clean_linker_0
_symmetry_space_group_name_H-M    P1
_symmetry_Int_Tables_number       1
_symmetry_cell_setting            triclinic
loop_
_symmetry_equiv_pos_as_xyz
'x, y, z'
_cell_length_a     34.060795
_cell_length_b     24.48848
_cell_length_c     29.418624
_cell_angle_alpha  92.583043
_cell_angle_beta   90.557731
_cell_angle_gamma 118.89299
loop_
_atom_site_label
_atom_site_type_symbol
_atom_site_fract_x
_atom_site_fract_y
_atom_site_fract_z
_atom_type_partial_charge
Tb0 Tb 1.0834 0.49844 0.03751 0.0
Eu1 Eu 0.10908 0.39566 0.00264 0.0
C2 C 0.13956 0.45869 0.10386 0.0
C3 C 0.17696 0.54538 0.99674 0.0
C4 C 1.02174 0.57369 0.08866 0.0
C5 C 0.96908 0.61254 0.0972 0.0
C6 C 1.00733 0.61629 0.07791 0.0
C7 C 0.99772 0.52746 0.1195 0.0
C8 C 0.95955 0.52421 0.13933 0.0
C9 C 0.94486 0.56638 0.12773 0.0
C10 C 1.06139 0.57782 0.06675 0.0
O11 O 1.03298 0.44338 0.98107 0.0
O12 O 1.0735 0.40712 0.94124 0.0
O13 O 1.03652 0.34464 0.02211 0.0
O14 O 1.03892 0.41761 0.07376 0.0
C15 C 1.0388 0.41672 0.94333 0.0
O16 O 0.13746 0.35764 0.95279 0.0
O17 O 0.10374 0.30416 0.01042 0.0
O18 O 0.12696 0.40745 0.07814 0.0
O19 O 0.13381 0.50461 0.08891 0.0
O20 O 0.14029 0.55006 0.99537 0.0
O21 O 0.17423 0.49077 0.00421 0.0
C22 C 1.01973 0.35972 0.05728 0.0
O23 O 1.08518 0.55993 0.09024 0.0
O24 O 1.05565 0.55677 0.02443 0.0
C25 C 0.17054 0.30636 0.98816 0.0
C26 C 0.26285 0.3702 0.00067 0.0
C27 C 0.24375 0.3397 0.95832 0.0
C28 C 0.19732 0.30707 0.95213 0.0
C29 C 0.18979 0.32508 0.03255 0.0
C30 C 0.23628 0.35705 0.0388 0.0
C31 C 0.13008 0.31024 0.97692 0.0
H32 H 0.958 0.64541 0.08795 0.0
H33 H 1.02541 0.65205 0.05421 0.0
H34 H 1.0083 0.49386 0.12805 0.0
H35 H 0.94119 0.48855 0.16296 0.0
H36 H 0.26433 0.34883 0.92877 0.0
H37 H 0.18297 0.29199 0.91784 0.0
H38 H 0.16971 0.32384 0.06122 0.0
H39 H 0.25108 0.37928 0.0718 0.0
Tb40 Tb 0.61464 0.63995 0.96596 0.0
Eu41 Eu 0.69803 0.68921 1.00002 0.0
C42 C 0.69028 0.6883 0.88293 0.0
C43 C 0.63184 0.52717 0.99565 0.0
C44 C 0.50787 0.60176 0.90882 0.0
C45 C 0.4287 0.52904 0.90501 0.0
C46 C 0.47106 0.54966 0.88769 0.0
C47 C 0.50096 0.63938 0.94173 0.0
C48 C 0.45861 0.61858 0.9593 0.0
C49 C 0.42345 0.5607 0.94335 0.0
C50 C 0.55089 0.60267 0.90823 0.0
O51 O 0.60822 0.66241 0.04128 0.0
O52 O 0.66797 0.65423 0.06433 0.0
O53 O 0.68022 0.77736 0.00176 0.0
O54 O 0.60618 0.72187 0.98567 0.0
C55 C 0.63472 0.66255 0.07529 0.0
O56 O 0.75908 0.76148 0.03491 0.0
O57 O 0.76233 0.69364 0.9869 0.0
O58 O 0.67731 0.67733 0.92523 0.0
O59 O 0.68046 0.67914 0.92724 0.0
O60 O 0.60133 0.54286 0.98276 0.0
O61 O 0.67327 0.57718 0.00337 0.0
C62 C 0.64037 0.77771 0.99546 0.0
O63 O 0.58681 0.65719 0.90775 0.0
O64 O 0.55451 0.5674 0.93819 0.0
C65 C 0.80348 0.7164 0.05545 0.0
C66 C 0.83298 0.65351 0.11191 0.0
C67 C 0.85828 0.68469 0.07484 0.0
C68 C 0.84355 0.71588 0.04666 0.0
C69 C 0.77961 0.68851 0.09432 0.0
C70 C 0.79434 0.65716 0.1225 0.0
C71 C 0.78272 0.73565 0.02029 0.0
H72 H 0.40136 0.48444 0.89223 0.0
H73 H 0.47588 0.52029 0.86218 0.0
H74 H 0.52877 0.6804 0.9579 0.0
H75 H 0.45461 0.64358 0.98865 0.0
H76 H 0.88823 0.68201 0.06636 0.0
H77 H 0.86201 0.73643 0.01662 0.0
H78 H 0.74834 0.688 0.10154 0.0
H79 H 0.77451 0.63317 0.15095 0.0
Tb80 Tb 0.61854 0.14431 0.02344 0.0
Eu81 Eu 0.52251 0.06921 0.00728 0.0
C82 C 0.55205 0.10373 0.11637 0.0
C83 C 0.58931 0.99706 0.00558 0.0
C84 C 0.74451 0.22845 0.07059 0.0
C85 C 0.80392 0.21979 0.1103 0.0
C86 C 0.75836 0.20124 0.10373 0.0
C87 C 0.77688 0.27816 0.04705 0.0
C88 C 0.82238 0.29726 0.05407 0.0
C89 C 0.83592 0.26632 0.08425 0.0
C90 C 0.69759 0.1965 0.05372 0.0
O91 O 0.60605 0.15624 0.94929 0.0
O92 O 0.54007 0.06664 0.93655 0.0
O93 O 0.54202 0.18243 1.00062 0.0
O94 O 0.61512 0.23227 0.02567 0.0
C95 C 0.57231 0.11676 0.92088 0.0
O96 O 0.45278 1.02683 0.98015 0.0
O97 O 0.46564 1.0094 0.0483 0.0
O98 O 0.56271 0.10726 0.07336 0.0
O99 O 0.56014 0.10511 0.07171 0.0
O100 O 0.62224 1.05561 0.00938 0.0
O101 O 0.54742 0.99058 0.00411 0.0
C102 C 0.58106 0.23848 0.01038 0.0
O103 O 0.66347 0.17277 0.08061 0.0
O104 O 0.68701 0.19291 0.01044 0.0
C105 C 0.40071 0.92672 0.00923 0.0
C106 C 0.33276 0.79793 0.99919 0.0
C107 C 0.36498 0.82535 0.9657 0.0
C108 C 0.39844 0.88888 0.97059 0.0
C109 C 0.36887 0.89897 0.04283 0.0
C110 C 0.33548 0.83574 0.03791 0.0
C111 C 0.43544 0.99462 0.01583 0.0
H112 H 0.81396 0.19546 0.13366 0.0
H113 H 0.73386 0.16223 0.12175 0.0
H114 H 0.76685 0.29955 0.02118 0.0
H115 H 0.84678 0.33336 0.03382 0.0
H116 H 0.36408 0.79758 0.9356 0.0
H117 H 0.42251 0.90834 0.94415 0.0
H118 H 0.3697 0.92648 0.0731 0.0
H119 H 0.31148 0.8163 0.06442 0.0
Tb120 Tb 0.72378 0.85136 0.35591 0.0
Eu121 Eu 0.79545 0.7898 0.32396 0.0
C122 C 0.79222 0.83517 0.42795 0.0
C123 C 0.82305 0.93627 0.32957 0.0
C124 C 0.6393 0.92143 0.36052 0.0
C125 C 0.59291 0.96668 0.39029 0.0
C126 C 0.62717 0.95027 0.3962 0.0
C127 C 0.6153 0.9093 0.31842 0.0
C128 C 0.58049 0.92515 0.31261 0.0
C129 C 0.56875 0.95463 0.3484 0.0
C130 C 0.68014 0.91214 0.36726 0.0
O131 O 0.70242 0.80326 0.28527 0.0
O132 O 0.75308 0.77113 0.25988 0.0
O133 O 0.71788 0.70707 0.34129 0.0
O134 O 0.67677 0.75715 0.36562 0.0
C135 C 0.71625 0.77548 0.25371 0.0
O136 O 0.84778 0.7931 0.27695 0.0
O137 O 0.84564 0.75816 0.34239 0.0
O138 O 0.81666 0.83509 0.3941 0.0
O139 O 0.75315 0.83527 0.42085 0.0
O140 O 0.79228 0.92671 0.35897 0.0
O141 O 0.82311 0.89036 0.30488 0.0
C142 C 0.6788 0.70606 0.35605 0.0
O143 O 0.68002 0.87242 0.39564 0.0
O144 O 0.70536 0.9168 0.33284 0.0
C145 C 0.92262 0.80732 0.30571 0.0
C146 C 1.02289 0.85468 0.30099 0.0
C147 C 0.996 0.85731 0.26445 0.0
C148 C 0.94813 0.83471 0.26673 0.0
C149 C 0.94945 0.80471 0.34235 0.0
C150 C 0.99748 0.82775 0.34019 0.0
C151 C 0.86904 0.77618 0.30548 0.0
H152 H 0.58529 0.98917 0.41875 0.0
H153 H 0.64507 0.96158 0.42886 0.0
H154 H 0.62374 0.88816 0.28973 0.0
H155 H 0.56288 0.91475 0.27985 0.0
H156 H 1.01213 0.87683 0.23319 0.0
H157 H 0.9307 0.83772 0.23678 0.0
H158 H 0.93311 0.78374 0.37318 0.0
H159 H 1.01484 0.82343 0.36966 0.0
Tb160 Tb 0.31065 0.91424 0.29322 0.0
Eu161 Eu 0.3419 1.05369 0.29914 0.0
C162 C 0.32817 0.98964 0.39312 0.0
C163 C 0.22872 0.94452 0.29057 0.0
C164 C 0.33098 0.78642 0.28457 0.0
C165 C 0.38627 0.77536 0.32945 0.0
C166 C 0.35989 0.80388 0.32343 0.0
C167 C 0.33776 0.75296 0.24831 0.0
C168 C 0.36516 0.72593 0.25619 0.0
C169 C 0.37535 0.72098 0.30198 0.0
C170 C 0.29607 0.80503 0.28178 0.0
O171 O 0.35605 0.94982 0.23331 0.0
O172 O 0.3797 1.05374 0.2366 0.0
O173 O 0.40861 1.04988 0.31355 0.0
O174 O 0.37792 0.94496 0.32127 0.0
C175 C 0.3827 1.0062 0.21853 0.0
O176 O 0.37033 0.14648 0.33303 0.0
O177 O 0.34055 0.12974 0.26477 0.0
O178 O 0.34559 1.04203 0.37285 0.0
O179 O 0.30934 0.93542 0.36853 0.0
O180 O 0.24189 0.90272 0.28153 0.0
O181 O 0.26144 1.00335 0.29891 0.0
C182 C 0.41344 1.00039 0.32226 0.0
O183 O 0.28816 0.82667 0.31991 0.0
O184 O 0.29843 0.8385 0.24767 0.0
C185 C 0.31976 0.1823 0.31828 0.0
C186 C 0.24555 0.19826 0.33691 0.0
C187 C 0.28313 0.24545 0.31642 0.0
C188 C 0.31996 0.23705 0.30647 0.0
C189 C 0.28327 0.13706 0.34096 0.0
C190 C 0.24584 0.14398 0.34894 0.0
C191 C 0.35333 0.16619 0.30194 0.0
H192 H 0.40442 0.78474 0.36169 0.0
H193 H 0.35995 0.83561 0.35031 0.0
H194 H 0.32055 0.74518 0.21556 0.0
H195 H 0.36856 0.69734 0.22913 0.0
H196 H 0.28318 0.28765 0.30673 0.0
H197 H 0.3477 0.27206 0.28855 0.0
H198 H 0.28307 0.0951 0.35094 0.0
H199 H 0.21705 0.10704 0.36431 0.0
Tb200 Tb 0.24324 0.45533 0.39205 0.0
Eu201 Eu 0.13356 0.42872 0.38035 0.0
C202 C 0.16928 0.42867 0.47449 0.0
C203 C 0.16308 0.32257 0.3672 0.0
C204 C 0.38076 0.51535 0.3894 0.0
C205 C 0.45252 0.51478 0.40915 0.0
C206 C 0.40506 0.49172 0.41381 0.0
C207 C 0.40719 0.56309 0.3598 0.0
C208 C 0.45451 0.58642 0.35543 0.0
C209 C 0.47905 0.56332 0.37996 0.0
C210 C 0.32888 0.49049 0.3929 0.0
O211 O 0.22677 0.47242 0.32009 0.0
O212 O 0.15074 0.40643 0.31213 0.0
O213 O 0.18452 0.53185 0.37295 0.0
O214 O 0.23391 0.52921 0.4224 0.0
C215 C 0.18868 0.44338 0.29414 0.0
O216 O 1.07575 0.42499 0.34403 0.0
O217 O 1.06859 0.39095 0.41188 0.0
O218 O 0.15667 0.46148 0.45107 0.0
O219 O 0.20094 0.41564 0.45672 0.0
O220 O 0.20502 0.36328 0.35959 0.0
O221 O 0.13483 0.33783 0.3866 0.0
C222 C 0.22388 0.56137 0.39508 0.0
O223 O 0.29925 0.44078 0.41275 0.0
O224 O 0.30963 0.51969 0.37503 0.0
C225 C 1.01124 0.32818 0.35825 0.0
C226 C 0.94958 0.20048 0.33868 0.0
C227 C 0.98577 0.23232 0.31037 0.0
C228 C 1.01653 0.29553 0.32023 0.0
C229 C 0.9739 0.29678 0.38534 0.0
C230 C 0.94338 0.23344 0.37568 0.0
C231 C 1.04785 0.39063 0.37425 0.0
H232 H 0.46864 0.49424 0.42871 0.0
H233 H 0.38729 0.4548 0.43672 0.0
H234 H 0.39109 0.5827 0.33926 0.0
H235 H 0.47212 0.62311 0.33231 0.0
H236 H 0.99116 0.20759 0.28176 0.0
H237 H 1.04546 0.31803 0.29924 0.0
H238 H 0.9695 0.32052 0.41522 0.0
H239 H 0.91567 0.20959 0.39793 0.0
Tb240 Tb 0.42984 0.15358 0.67485 0.0
Eu241 Eu 0.45063 1.04376 0.65145 0.0
C242 C 0.48438 0.11851 0.74951 0.0
C243 C 0.52645 0.19222 0.64917 0.0
C244 C 0.36653 0.23443 0.67651 0.0
C245 C 0.31858 0.28097 0.67627 0.0
C246 C 0.36036 0.28612 0.68534 0.0
C247 C 0.33094 0.17751 0.65862 0.0
C248 C 0.28923 0.17245 0.6493 0.0
C249 C 0.28308 0.22423 0.65826 0.0
C250 C 0.40999 0.23914 0.68497 0.0
O251 O 0.38853 0.09815 0.6125 0.0
O252 O 0.43776 0.0702 0.58356 0.0
O253 O 0.37409 0.99793 0.66385 0.0
O254 O 0.37146 0.07881 0.70261 0.0
C255 C 0.40198 0.07574 0.57768 0.0
O256 O 0.47697 0.99666 0.60684 0.0
O257 O 0.4422 0.95207 0.66684 0.0
O258 O 0.47722 0.07029 0.72282 0.0
O259 O 0.47097 0.15828 0.73644 0.0
O260 O 0.49213 0.20019 0.64081 0.0
O261 O 0.51929 0.13582 0.65881 0.0
C262 C 0.35156 1.02056 0.68733 0.0
O263 O 0.41161 0.20706 0.71836 0.0
O264 O 0.42806 0.23029 0.64857 0.0
C265 C 0.5133 0.96071 0.65452 0.0
C266 C 0.59802 1.06373 0.66435 0.0
C267 C 0.58844 1.01989 0.62759 0.0
C268 C 0.54563 0.96779 0.62262 0.0
C269 C 0.52843 0.99258 0.69746 0.0
C270 C 0.56975 1.04678 0.70139 0.0
C271 C 0.47101 0.95541 0.63654 0.0
H272 H 0.31377 0.32114 0.68329 0.0
H273 H 0.38768 0.33009 0.69908 0.0
H274 H 0.3355 0.13718 0.65176 0.0
H275 H 0.26187 0.12854 0.63551 0.0
H276 H 0.6108 1.03121 0.59939 0.0
H277 H 0.53543 0.94184 0.58994 0.0
H278 H 0.50512 0.98455 0.72437 0.0
H279 H 0.57713 0.07863 0.73099 0.0
Tb280 Tb 0.92849 0.30768 0.65807 0.0
Eu281 Eu 1.00665 0.36338 0.68986 0.0
C282 C 1.00969 0.31568 0.59144 0.0
C283 C 0.94519 0.19813 0.68366 0.0
C284 C 0.82367 0.27842 0.59803 0.0
C285 C 0.74322 0.22006 0.59181 0.0
C286 C 0.78457 0.22556 0.58181 0.0
C287 C 0.82129 0.32973 0.61853 0.0
C288 C 0.77962 0.32427 0.6286 0.0
C289 C 0.74063 0.26747 0.61825 0.0
C290 C 0.86437 0.27308 0.60127 0.0
O291 O 0.9224 0.30553 0.73632 0.0
O292 O 0.98685 0.39356 0.75145 0.0
O293 O 0.98992 0.4498 0.68668 0.0
O294 O 0.91653 0.38776 0.67801 0.0
C295 C 0.95044 0.35077 0.7667 0.0
O296 O 1.06514 0.38136 0.73149 0.0
O297 O 1.07393 0.42369 0.6665 0.0
O298 O 0.99304 0.34664 0.61405 0.0
O299 O 0.99218 0.34651 0.61535 0.0
O300 O 0.91659 0.21034 0.66247 0.0
O301 O 0.98263 0.25097 0.69963 0.0
C302 C 0.94906 0.44611 0.68335 0.0
O303 O 0.90246 0.32444 0.59859 0.0
O304 O 0.86499 0.23903 0.63397 0.0
C305 C 0.11767 0.37821 0.68426 0.0
C306 C 0.16036 0.30907 0.66179 0.0
C307 C 0.18481 0.36866 0.68382 0.0
C308 C 0.16342 0.40352 0.69493 0.0
C309 C 0.09377 0.31906 0.66168 0.0
C310 C 0.11516 0.28506 0.64963 0.0
C311 C 0.09275 0.40937 0.69932 0.0
H312 H 0.71345 0.17583 0.58313 0.0
H313 H 0.78592 0.18596 0.56546 0.0
H314 H 0.85129 0.37206 0.6297 0.0
H315 H 0.77813 0.36212 0.64757 0.0
H316 H 0.22 0.38734 0.69318 0.0
H317 H 0.18203 0.44888 0.71283 0.0
H318 H 1.05817 0.29839 0.65466 0.0
H319 H 0.09619 0.23905 0.63273 0.0
Tb320 Tb 0.93234 0.81757 0.69342 0.0
Eu321 Eu 0.83691 0.73975 0.68335 0.0
C322 C 0.87039 0.79536 0.79081 0.0
C323 C 0.90259 0.66888 0.68197 0.0
C324 C 1.06627 0.89701 0.70988 0.0
C325 C 0.13183 0.89288 0.74095 0.0
C326 C 1.08594 0.8758 0.74207 0.0
C327 C 0.09425 0.93802 0.67782 0.0
C328 C 0.14032 0.95626 0.67736 0.0
C329 C 0.15963 0.93272 0.70817 0.0
C330 C 1.01625 0.86699 0.70418 0.0
O331 O 0.91159 0.83096 0.62104 0.0
O332 O 0.84341 0.74455 0.60966 0.0
O333 O 0.8568 0.85458 0.6789 0.0
O334 O 0.92964 0.90458 0.70543 0.0
C335 C 0.87457 0.79575 0.5942 0.0
O336 O 0.76394 0.69334 0.66639 0.0
O337 O 0.78834 0.6676 0.72517 0.0
O338 O 0.87872 0.78626 0.74814 0.0
O339 O 0.87653 0.784 0.74668 0.0
O340 O 0.93448 0.72653 0.69285 0.0
O341 O 0.86229 0.66367 0.67248 0.0
C342 C 0.89537 0.91071 0.69098 0.0
O343 O 0.98957 0.85753 0.73852 0.0
O344 O 0.99569 0.85295 0.66403 0.0
C345 C 0.72469 0.58396 0.68517 0.0
C346 C 0.66892 0.45102 0.66947 0.0
C347 C 0.71573 0.47978 0.66434 0.0
C348 C 0.74316 0.54513 0.6722 0.0
C349 C 0.67786 0.55517 0.6898 0.0
C350 C 0.65046 0.4899 0.68203 0.0
C351 C 0.75388 0.65281 0.69782 0.0
H352 H 0.14544 0.87364 0.76502 0.0
H353 H 1.06525 0.84303 0.76652 0.0
H354 H 1.08016 0.95447 0.65208 0.0
H355 H 0.16067 0.98713 0.65178 0.0
H356 H 0.73113 0.45153 0.65451 0.0
H357 H 0.779 0.56517 0.66864 0.0
H358 H 0.66237 0.58312 0.70011 0.0
H359 H 0.61462 0.46957 0.68606 0.0
C360 C 0.34593 0.52956 0.96714 0.0
C361 C 0.38554 0.52536 0.97228 0.0
C362 C 0.34618 0.42767 0.01052 0.0
C363 C 0.30582 0.4284 0.00099 0.0
N364 N 0.26733 0.48641 0.98398 0.0
N365 N 0.42749 0.48418 0.01098 0.0
C366 C 0.30586 0.48206 0.98429 0.0
C367 C 0.38702 0.4791 0.99855 0.0
N368 N 0.34645 0.57693 0.9438 0.0
N369 N 0.345 0.37643 0.02851 0.0
H370 H 0.45799 0.52154 0.00236 0.0
H371 H 0.43114 0.45464 0.03292 0.0
H372 H 0.31534 0.33922 0.03907 0.0
H373 H 0.37276 0.36958 0.03149 0.0
H374 H 0.31785 0.57933 0.93427 0.0
H375 H 0.37606 0.61352 0.93256 0.0
H376 H 0.26566 0.52577 0.97486 0.0
H377 H 0.23735 0.45214 0.99631 0.0
C378 C 0.63373 0.93707 0.03548 0.0
C379 C 0.60185 0.9398 0.00352 0.0
C380 C 0.59985 0.84182 0.96486 0.0
C381 C 0.63053 0.83757 0.99751 0.0
N382 N 0.68142 0.89261 0.06077 0.0
N383 N 0.55094 0.88415 0.94032 0.0
C384 C 0.64862 0.88879 0.03171 0.0
C385 C 0.58401 0.88873 0.96936 0.0
N386 N 0.64775 0.97872 0.07237 0.0
N387 N 0.58866 0.80401 0.926 0.0
H388 H 0.541 0.91822 0.93975 0.0
H389 H 0.53106 0.84469 0.91921 0.0
H390 H 0.60196 0.77431 0.91892 0.0
H391 H 0.57103 0.80735 0.89816 0.0
H392 H 0.66644 0.97738 0.10001 0.0
H393 H 0.63705 1.01176 0.07762 0.0
H394 H 0.70088 0.93089 0.08298 0.0
H395 H 0.69142 0.85858 0.06052 0.0
C396 C 0.2957 0.68601 0.02451 0.0
C397 C 0.29609 0.73001 0.9943 0.0
C398 C 0.22575 0.64571 0.95767 0.0
C399 C 0.22139 0.60494 0.99265 0.0
N400 N 0.25129 0.59138 0.06358 0.0
N401 N 0.25789 0.75247 0.93462 0.0
C402 C 0.25642 0.62617 0.02691 0.0
C403 C 0.26029 0.70984 0.96127 0.0
N404 N 0.33329 0.70104 0.05065 0.0
N405 N 0.19734 0.62265 0.92018 0.0
H406 H 0.28204 0.79958 0.93624 0.0
H407 H 0.23007 0.74223 0.9137 0.0
H408 H 0.17282 0.5758 0.91575 0.0
H409 H 0.20123 0.64802 0.89151 0.0
H410 H 0.337 0.66886 0.0697 0.0
H411 H 0.36251 0.74397 0.04966 0.0
H412 H 0.27308 0.60769 0.0921 0.0
H413 H 0.22325 0.54833 0.0675 0.0
C414 C 0.56257 0.33719 0.0172 0.0
C415 C 0.59141 0.31149 0.00357 0.0
C416 C 0.64546 0.42599 0.98238 0.0
C417 C 0.61853 0.45267 0.99977 0.0
N418 N 0.55161 0.42694 0.04077 0.0
N419 N 0.66573 0.34278 0.97581 0.0
C420 C 0.57699 0.40569 0.01851 0.0
C421 C 0.63421 0.35968 0.98737 0.0
N422 N 0.52036 0.29581 0.02941 0.0
N423 N 0.68141 0.46327 0.95754 0.0
H424 H 0.6589 0.29672 0.97073 0.0
H425 H 0.6995 0.37497 0.97272 0.0
H426 H 0.69063 0.50968 0.95238 0.0
H427 H 0.69933 0.44685 0.93812 0.0
H428 H 0.49502 0.30745 0.03428 0.0
H429 H 0.50966 0.24828 0.03112 0.0
H430 H 0.52415 0.39913 0.05984 0.0
H431 H 0.56082 0.4742 0.04417 0.0
C432 C 0.91428 0.31687 0.11853 0.0
C433 C 0.88271 0.2774 0.08401 0.0
C434 C 0.94192 0.26662 0.04442 0.0
C435 C 0.97405 0.31609 0.07343 0.0
N436 N 0.9903 0.36047 0.15005 0.0
N437 N 0.86468 0.20975 0.01584 0.0
C438 C 0.95998 0.33255 0.11448 0.0
C439 C 0.89591 0.25 0.04778 0.0
N440 N 0.90104 0.34196 0.15365 0.0
N441 N 0.95493 0.23281 0.01637 0.0
H442 H 0.83033 0.19346 0.01864 0.0
H443 H 0.87289 0.1948 0.98549 0.0
H444 H 0.98717 0.23816 0.01848 0.0
H445 H 0.93277 0.19377 0.99606 0.0
H446 H 0.92335 0.37635 0.17715 0.0
H447 H 0.86767 0.33082 0.15786 0.0
H448 H 0.98213 0.37041 0.18225 0.0
H449 H 1.02272 0.3664 0.14837 0.0
C450 C 0.86324 0.52778 0.11956 0.0
C451 C 0.90363 0.56351 0.1456 0.0
C452 C 0.87957 0.63857 0.17006 0.0
C453 C 0.8455 0.61205 0.1356 0.0
N454 N 0.79569 0.52342 0.08672 0.0
N455 N 0.94371 0.64161 0.20628 0.0
C456 C 0.83358 0.55279 0.1142 0.0
C457 C 0.90876 0.61364 0.17535 0.0
N458 N 0.85541 0.47275 0.09789 0.0
N459 N 0.88607 0.69024 0.19566 0.0
H460 H 0.9667 0.62557 0.2115 0.0
H461 H 0.9667 0.62557 0.2115 0.0
H462 H 0.86482 0.70957 0.19246 0.0
H463 H 0.91173 0.71182 0.22064 0.0
H464 H 0.82723 0.44414 0.07727 0.0
H465 H 0.87702 0.45429 0.10236 0.0
H466 H 0.7852 0.48111 0.0684 0.0
H467 H 0.77365 0.54141 0.08335 0.0
C468 C 0.09448 0.85382 0.26427 0.0
C469 C 1.07606 0.87879 0.29796 0.0
C470 C 0.15699 0.94417 0.3286 0.0
C471 C 0.17593 0.92376 0.29231 0.0
N472 N 0.15846 0.86526 0.22011 0.0
N473 N 0.09536 0.95944 0.35718 0.0
C474 C 0.14319 0.88011 0.2589 0.0
C475 C 0.10915 0.92715 0.32857 0.0
N476 N 1.06531 0.80229 0.23799 0.0
N477 N 0.18418 0.97741 0.36532 0.0
H478 H 1.06199 0.94961 0.35814 0.0
H479 H 0.11752 0.9997 0.37646 0.0
H480 H 0.21783 0.98882 0.36787 0.0
H481 H 0.17238 0.98801 0.39511 0.0
H482 H 1.07551 0.77673 0.21667 0.0
H483 H 1.03062 0.78129 0.24095 0.0
H484 H 0.13763 0.83981 0.19213 0.0
H485 H 0.19251 0.88419 0.21386 0.0
C486 C 0.15798 0.24384 0.31085 0.0
C487 C 0.14973 0.25707 0.35566 0.0
C488 C 0.18937 0.20779 0.38725 0.0
C489 C 0.20506 0.20471 0.34307 0.0
N490 N 0.19002 0.19438 0.26183 0.0
N491 N 0.13185 0.21741 0.42932 0.0
C492 C 0.18404 0.21352 0.30425 0.0
C493 C 0.15592 0.22579 0.39125 0.0
N494 N 0.1448 0.26641 0.27572 0.0
N495 N 0.20873 0.19957 0.42532 0.0
H496 H 0.10727 0.23126 0.43109 0.0
H497 H 0.1331 0.1914 0.45585 0.0
H498 H 0.23533 0.18994 0.42448 0.0
H499 H 0.20055 0.2074 0.45815 0.0
H500 H 0.15426 0.26551 0.24226 0.0
H501 H 0.1249 0.28765 0.28131 0.0
H502 H 0.17362 0.19675 0.23255 0.0
H503 H 0.20852 0.171 0.25672 0.0
C504 C 0.87805 0.10855 0.3065 0.0
C505 C 0.91949 0.13172 0.33135 0.0
C506 C 0.90027 1.02485 0.34987 0.0
C507 C 0.85883 1.00177 0.3251 0.0
N508 N 0.81129 1.01839 0.27299 0.0
N509 N 0.97386 0.11247 0.37031 0.0
C510 C 0.84872 1.04278 0.30123 0.0
C511 C 0.93182 0.08989 0.35092 0.0
N512 N 0.8663 0.14968 0.28905 0.0
N513 N 0.90857 0.98487 0.37402 0.0
H514 H 0.99725 0.15992 0.37329 0.0
H515 H 0.98689 0.08423 0.38075 0.0
H516 H 0.88749 0.93668 0.37194 0.0
H517 H 0.93508 0.9993 0.3977 0.0
H518 H 0.83465 0.13683 0.27506 0.0
H519 H 0.88772 0.19785 0.29067 0.0
H520 H 0.80368 1.04461 0.25128 0.0
H521 H 0.78936 0.97046 0.2685 0.0
C522 C 0.34578 0.66109 0.37245 0.0
C523 C 0.34335 0.66165 0.32431 0.0
C524 C 0.26236 0.61325 0.32549 0.0
C525 C 0.26332 0.61185 0.37327 0.0
N526 N 0.30716 0.64819 0.44361 0.0
N527 N 0.2977 0.59808 0.25957 0.0
C528 C 0.30567 0.63975 0.39731 0.0
C529 C 0.30099 0.62398 0.30227 0.0
N530 N 0.38657 0.68048 0.39351 0.0
N531 N 0.22587 0.60805 0.30233 0.0
H532 H 0.32554 0.59887 0.24441 0.0
H533 H 0.2669 0.5702 0.24248 0.0
H534 H 0.19958 0.60945 0.31929 0.0
H535 H 0.22544 0.61193 0.26715 0.0
H536 H 0.39121 0.67759 0.42815 0.0
H537 H 0.41544 0.69499 0.37461 0.0
H538 H 0.33676 0.67156 0.46336 0.0
H539 H 0.27818 0.6365 0.46172 0.0
C540 C 0.54999 0.58858 0.33117 0.0
C541 C 0.53138 0.5896 0.37453 0.0
C542 C 0.61146 0.64128 0.40623 0.0
C543 C 0.63049 0.64895 0.36212 0.0
N544 N 0.61399 0.63266 0.28201 0.0
N545 N 0.54844 0.62556 0.45342 0.0
C546 C 0.59829 0.62252 0.32471 0.0
C547 C 0.56339 0.61751 0.41209 0.0
N548 N 0.52147 0.55349 0.2957 0.0
N549 N 0.64009 0.65777 0.44327 0.0
H550 H 0.51478 0.6113 0.45901 0.0
H551 H 0.56967 0.65147 0.48101 0.0
H552 H 0.6745 0.67504 0.43991 0.0
H553 H 0.62948 0.64849 0.47648 0.0
H554 H 0.53237 0.54523 0.26448 0.0
H555 H 0.48685 0.52742 0.299 0.0
H556 H 0.59387 0.62341 0.2527 0.0
H557 H 0.64817 0.65395 0.27725 0.0
C558 C 0.49724 1.0311 0.30665 0.0
C559 C 0.4586 1.00257 0.33392 0.0
C560 C 0.49235 0.94396 0.37004 0.0
C561 C 0.53092 0.97176 0.34296 0.0
N562 N 0.57394 1.05253 0.29224 0.0
N563 N 0.43029 0.95194 0.40325 0.0
C564 C 0.53439 1.0185 0.31319 0.0
C565 C 0.45963 0.96496 0.369 0.0
N566 N 0.49838 0.06952 0.27392 0.0
N567 N 0.48578 0.89543 0.39585 0.0
H568 H 0.40875 0.97091 0.405 0.0
H569 H 0.43168 0.93026 0.43242 0.0
H570 H 0.50758 0.8768 0.39639 0.0
H571 H 0.45659 0.86977 0.41337 0.0
H572 H 0.52258 0.08641 0.24936 0.0
H573 H 0.47371 0.08251 0.26988 0.0
H574 H 0.58109 0.09128 0.27374 0.0
H575 H 0.6014 1.0451 0.29643 0.0
C576 C 0.65966 0.22317 0.61439 0.0
C577 C 0.69878 0.24951 0.64234 0.0
C578 C 0.66691 0.16297 0.69185 0.0
C579 C 0.63076 0.13047 0.65955 0.0
N580 N 0.58555 0.13581 0.59728 0.0
N581 N 0.72823 0.26375 0.71872 0.0
C582 C 0.62448 0.16287 0.62325 0.0
C583 C 0.69788 0.22622 0.68539 0.0
N584 N 0.65907 0.25406 0.57716 0.0
N585 N 0.67367 0.13264 0.7264 0.0
H586 H 0.75065 0.31054 0.71389 0.0
H587 H 0.72757 0.25061 0.75202 0.0
H588 H 0.65295 0.0853 0.73104 0.0
H589 H 0.70204 0.1532 0.74814 0.0
H590 H 0.63377 0.23645 0.5519 0.0
H591 H 0.68543 0.2987 0.57197 0.0
H592 H 0.57855 0.15734 0.57116 0.0
H593 H 0.55831 0.09294 0.60386 0.0
C594 C 0.89739 0.50106 0.70298 0.0
C595 C 0.93814 0.50485 0.68443 0.0
C596 C 0.95253 0.61302 0.66015 0.0
C597 C 0.91352 0.61058 0.68122 0.0
N598 N 0.85309 0.55066 0.72964 0.0
N599 N 1.00644 0.57443 0.64844 0.0
C600 C 0.88715 0.55362 0.70391 0.0
C601 C 0.96605 0.564 0.66435 0.0
N602 N 0.86737 0.44646 0.72083 0.0
N603 N 0.97592 0.66124 0.63279 0.0
H604 H 1.0161 0.54017 0.64587 0.0
H605 H 1.03169 0.61824 0.64029 0.0
H606 H 0.96713 0.69581 0.62756 0.0
H607 H 1.00092 0.66377 0.61154 0.0
H608 H 0.83418 0.43481 0.72659 0.0
H609 H 0.87488 0.41151 0.72864 0.0
H610 H 0.83579 0.51592 0.75214 0.0
H611 H 0.84465 0.58629 0.73173 0.0
C612 C 0.63441 0.33824 0.69442 0.0
C613 C 0.63887 0.38073 0.66062 0.0
C614 C 0.58045 0.29181 0.61297 0.0
C615 C 0.57214 0.25089 0.64892 0.0
N616 N 0.60093 0.23084 0.71748 0.0
N617 N 0.61757 0.39758 0.58657 0.0
C618 C 0.60227 0.27276 0.68766 0.0
C619 C 0.61267 0.35701 0.61928 0.0
N620 N 0.65917 0.36126 0.73433 0.0
N621 N 0.55835 0.26706 0.57189 0.0
H622 H 0.64236 0.44439 0.58882 0.0
H623 H 0.59624 0.38608 0.55803 0.0
H624 H 0.53624 0.21938 0.566 0.0
H625 H 0.56469 0.29171 0.54255 0.0
H626 H 0.65433 0.3353 0.76278 0.0
H627 H 0.68333 0.40806 0.74007 0.0
H628 H 0.6245 0.24172 0.74389 0.0
H629 H 0.57849 0.18329 0.71347 0.0
C630 C 0.87658 1.00842 0.7011 0.0
C631 C 0.90562 0.98371 0.68636 0.0
C632 C 0.96092 0.09951 0.66994 0.0
C633 C 0.93332 0.12468 0.6877 0.0
N634 N 0.86444 0.09707 0.72517 0.0
N635 N 0.97918 1.01485 0.65696 0.0
C636 C 0.89092 0.07676 0.70406 0.0
C637 C 0.94871 1.03242 0.6713 0.0
N638 N 0.83427 0.96612 0.71241 0.0
N639 N 0.99855 0.13958 0.64841 0.0
H640 H 0.97081 0.96875 0.64828 0.0
H641 H 1.0132 1.046 0.65435 0.0
H642 H 1.00871 0.18698 0.6472 0.0
H643 H 1.01771 0.12566 0.6287 0.0
H644 H 0.80876 0.97712 0.71827 0.0
H645 H 0.82366 0.91846 0.71259 0.0
H646 H 0.83591 0.06857 0.7426 0.0
H647 H 0.8734 0.14427 0.72885 0.0
C648 C 0.24006 0.97962 0.741 0.0
C649 C 0.2082 0.94762 0.70451 0.0
C650 C 0.26986 0.95512 0.65681 0.0
C651 C 0.30145 0.98415 0.69413 0.0
N652 N 0.31283 1.00672 0.77517 0.0
N653 N 0.19195 0.88918 0.63221 0.0
C654 C 0.28514 0.99061 0.73732 0.0
C655 C 0.2229 0.93042 0.66388 0.0
N656 N 0.22818 1.00278 0.77833 0.0
N657 N 0.28435 0.95434 0.61385 0.0
H658 H 0.15746 0.86882 0.63657 0.0
H659 H 0.20053 0.8702 0.60411 0.0
H660 H 0.31789 0.97158 0.60667 0.0
H661 H 0.26328 0.94115 0.58485 0.0
H662 H 0.25123 1.03216 0.8037 0.0
H663 H 0.19619 0.99776 0.78185 0.0
H664 H 0.3019 1.00682 0.80812 0.0
H665 H 0.3454 1.01313 0.77382 0.0
C666 C 0.2354 0.25091 0.61167 0.0
C667 C 0.23959 0.22075 0.64965 0.0
C668 C 0.17828 0.22765 0.68613 0.0
C669 C 0.18184 0.27052 0.65344 0.0
N670 N 0.21073 0.32113 0.58359 0.0
N671 N 0.21289 0.1723 0.72039 0.0
C672 C 0.20873 0.28052 0.61503 0.0
C673 C 0.20937 0.20494 0.68553 0.0
N674 N 0.25824 0.25256 0.57339 0.0
N675 N 0.14623 0.2104 0.7182 0.0
H676 H 0.2343 0.15299 0.71958 0.0
H677 H 0.19581 0.16572 0.75052 0.0
H678 H 0.12403 0.22826 0.7207 0.0
H679 H 0.13939 0.17518 0.74036 0.0
H680 H 0.25432 0.26999 0.54305 0.0
H681 H 0.27811 0.23085 0.57102 0.0
H682 H 0.23315 0.33528 0.55727 0.0
H683 H 0.19122 0.34336 0.58519 0.0
C684 C 0.20498 0.44512 0.20835 0.0
C685 C 0.18395 0.45883 0.24531 0.0
C686 C 0.13501 0.47359 0.18941 0.0
C687 C 0.15712 0.46255 0.15235 0.0
N688 N 0.21913 0.44898 0.12718 0.0
N689 N 0.13532 0.50022 0.26916 0.0
C690 C 0.1939 0.4516 0.16208 0.0
C691 C 0.15112 0.47747 0.23504 0.0
N692 N 0.23403 0.42305 0.21719 0.0
N693 N 0.09635 0.47634 0.18168 0.0
H694 H 0.14465 0.50235 0.30299 0.0
H695 H 0.11672 0.52296 0.26362 0.0
H696 H 1.08271 0.47397 0.14945 0.0
H697 H 1.07503 0.47471 0.20737 0.0
H698 H 0.24654 0.405 0.19201 0.0
H699 H 0.24346 0.41923 0.25024 0.0
H700 H 0.24951 0.44923 0.13222 0.0
H701 H 0.21165 0.45201 0.09325 0.0
C702 C 0.6692 0.77321 0.18215 0.0
C703 C 0.68727 0.74305 0.20983 0.0
C704 C 0.649 0.64951 0.15591 0.0
C705 C 0.63633 0.68189 0.12558 0.0
N706 N 0.62304 0.76788 0.11555 0.0
N707 N 0.69822 0.65212 0.21607 0.0
C708 C 0.64292 0.74181 0.14061 0.0
C709 C 0.67825 0.68127 0.19462 0.0
N710 N 0.68053 0.83397 0.19325 0.0
N711 N 0.63209 0.58665 0.14752 0.0
H712 H 0.71431 0.66604 0.24798 0.0
H713 H 0.69938 0.61343 0.20132 0.0
H714 H 0.61015 0.56253 0.11976 0.0
H715 H 0.63559 0.55787 0.17038 0.0
H716 H 0.67217 0.86107 0.17331 0.0
H717 H 0.70163 0.85965 0.221 0.0
H718 H 0.6226 0.80891 0.12528 0.0
H719 H 0.60282 0.74453 0.0867 0.0
C720 C 0.47551 0.09851 0.13287 0.0
C721 C 0.50386 0.07075 0.13406 0.0
C722 C 0.44894 0.99185 0.18483 0.0
C723 C 0.42025 1.01981 0.18373 0.0
N724 N 0.40103 0.08707 0.14279 0.0
N725 N 0.5111 0.98156 0.15249 0.0
C726 C 0.43217 0.06933 0.1535 0.0
C727 C 0.48831 1.01445 0.15728 0.0
N728 N 0.49048 0.15427 0.1132 0.0
N729 N 0.44101 0.94649 0.21442 0.0
H730 H 0.53975 0.99672 0.13327 0.0
H731 H 0.49932 0.93668 0.16359 0.0
H732 H 0.4134 0.92704 0.23481 0.0
H733 H 0.46394 0.93117 0.22169 0.0
H734 H 0.47424 0.18097 0.11577 0.0
H735 H 0.52098 0.17603 0.097 0.0
H736 H 0.40553 0.11848 0.11803 0.0
H737 H 0.36849 1.06456 0.15466 0.0
C738 C 0.56346 0.18375 0.85945 0.0
C739 C 0.56356 0.12813 0.87227 0.0
C740 C 0.50623 0.06986 0.81204 0.0
C741 C 0.50942 0.12524 0.79469 0.0
N742 N 0.54997 0.23863 0.79955 0.0
N743 N 0.54691 1.02409 0.84712 0.0
C744 C 0.54069 0.18349 0.8176 0.0
C745 C 0.53955 0.07375 0.84325 0.0
N746 N 0.58358 0.2364 0.88754 0.0
N747 N 0.46936 1.01314 0.80182 0.0
H748 H 0.57164 1.02598 0.86944 0.0
H749 H 0.53181 0.98453 0.82479 0.0
H750 H 0.44092 1.00843 0.7845 0.0
H751 H 0.46471 0.97233 0.81619 0.0
H752 H 0.57942 0.27535 0.88333 0.0
H753 H 0.60288 0.23993 0.91613 0.0
H754 H 0.5758 0.28159 0.81234 0.0
H755 H 0.53515 0.24156 0.76939 0.0
C756 C 0.98949 0.43072 0.88229 0.0
C757 C 1.0043 0.39209 0.90321 0.0
C758 C 0.96458 0.31113 0.8401 0.0
C759 C 0.95155 0.35086 0.81838 0.0
N760 N 0.93999 0.43962 0.82602 0.0
N761 N 0.99301 0.28739 0.90831 0.0
C762 C 0.95981 0.40732 0.84251 0.0
C763 C 0.9877 0.32973 0.88402 0.0
N764 N 1.00628 0.49145 0.89813 0.0
N765 N 0.95725 0.25694 0.81751 0.0
H766 H 1.00867 0.29844 0.94053 0.0
H767 H 0.97798 0.23996 0.89871 0.0
H768 H 0.93801 0.24018 0.78723 0.0
H769 H 0.97149 0.23004 0.82781 0.0
H770 H 1.00087 0.524 0.88152 0.0
H771 H 1.02878 0.51106 0.92595 0.0
H772 H 0.94091 0.47838 0.84318 0.0
H773 H 0.91871 0.42314 0.79703 0.0
C774 C 0.82169 0.76971 0.86297 0.0
C775 C 0.82356 0.76909 0.81407 0.0
C776 C 0.73978 0.71786 0.81348 0.0
C777 C 0.7379 0.71887 0.8622 0.0
N778 N 0.78193 0.78298 0.92703 0.0
N779 N 0.78199 0.77709 0.75092 0.0
C780 C 0.78021 0.75471 0.88572 0.0
C781 C 0.78183 0.75246 0.7913 0.0
N782 N 0.85982 0.78659 0.88855 0.0
N783 N 0.70102 0.68633 0.78749 0.0
H784 H 0.81182 0.8101 0.73827 0.0
H785 H 0.75306 0.77236 0.73468 0.0
H786 H 0.66941 0.66131 0.80109 0.0
H787 H 0.7008 0.68221 0.75208 0.0
H788 H 0.85946 0.78348 0.92383 0.0
H789 H 0.89075 0.79928 0.87422 0.0
H790 H 0.81216 0.81542 0.94339 0.0
H791 H 0.75321 0.77974 0.94174 0.0
C792 C 0.80758 0.76863 0.48157 0.0
C793 C 0.80977 0.82714 0.47413 0.0
C794 C 0.8626 0.87169 0.54223 0.0
C795 C 0.86168 0.81328 0.54845 0.0
N796 N 0.84265 0.71234 0.51391 0.0
N797 N 0.84694 0.93746 0.49307 0.0
C798 C 0.83679 0.76379 0.51499 0.0
C799 C 0.83948 0.87948 0.50336 0.0
N800 N 0.7769 0.71667 0.45661 0.0
N801 N 0.88477 0.91985 0.57383 0.0
H802 H 0.82952 0.94426 0.46649 0.0
H803 H 0.87203 0.9787 0.50896 0.0
H804 H 0.90555 0.91858 0.59925 0.0
H805 H 0.88168 0.96017 0.57544 0.0
H806 H 0.76979 0.67148 0.46338 0.0
H807 H 0.75541 0.71829 0.43185 0.0
H808 H 0.82928 0.67705 0.48811 0.0
H809 H 0.86533 0.70867 0.53601 0.0
C810 C 0.34534 0.96122 0.47237 0.0
C811 C 0.33214 0.99665 0.44518 0.0
C812 C 0.35664 0.07825 0.50836 0.0
C813 C 0.37338 1.04592 0.53424 0.0
N814 N 0.37019 0.94695 0.54667 0.0
N815 N 0.30585 0.07181 0.44738 0.0
C816 C 0.36364 0.98439 0.51791 0.0
C817 C 0.33167 1.04975 0.46661 0.0
N818 N 0.34108 0.90593 0.45491 0.0
N819 N 0.36648 0.13769 0.52203 0.0
H820 H 0.28494 1.04897 0.4188 0.0
H821 H 0.30082 0.10698 0.46278 0.0
H822 H 0.38501 0.16079 0.55181 0.0
H823 H 0.35945 0.16599 0.50183 0.0
H824 H 0.35566 0.88209 0.46994 0.0
H825 H 0.32394 0.88417 0.42436 0.0
H826 H 0.35991 0.89996 0.53916 0.0
H827 H 0.38177 0.96076 0.58032 0.0
C828 C 1.07249 0.30904 0.54655 0.0
C829 C 1.05396 0.34723 0.56442 0.0
C830 C 0.12298 0.43899 0.53848 0.0
C831 C 0.13857 0.40082 0.51553 0.0
N832 N 0.13405 0.30043 0.51023 0.0
N833 N 1.05917 0.44954 0.56232 0.0
C834 C 0.11481 0.33593 0.5231 0.0
C835 C 1.07882 0.41261 0.5569 0.0
N836 N 1.04818 0.24579 0.54991 0.0
N837 N 0.15116 0.50193 0.54291 0.0
H838 H 1.02525 0.43229 0.5678 0.0
H839 H 1.07466 0.49604 0.55382 0.0
H840 H 0.1837 0.52227 0.53089 0.0
H841 H 0.14432 0.53222 0.56307 0.0
H842 H 1.05603 0.21377 0.53388 0.0
H843 H 1.01799 0.22428 0.56666 0.0
H844 H 0.12259 0.25483 0.51942 0.0
H845 H 0.16489 0.31928 0.4947 0.0
loop_
_geom_bond_atom_site_label_1
_geom_bond_atom_site_label_2
_geom_bond_distance
_geom_bond_site_symmetry_2
_ccdc_geom_bond_type
Tb0 C10 2.825 . S
Tb0 O11 2.347 1_554 S
Tb0 O14 2.366 . S
Tb0 O19 2.418 1_655 S
Tb0 O20 2.384 1_655 S
Tb0 O23 2.479 . S
Tb0 O24 2.471 1_554 S
Eu1 O12 2.418 1_554 S
Eu1 O13 2.384 1_455 S
Eu1 O16 2.479 1_554 S
Eu1 O17 2.471 . S
Eu1 O18 2.347 . S
Eu1 O21 2.366 1_554 S
Eu1 C31 2.825 . S
C2 O18 1.259 . S
C2 O19 1.265 . S
C3 O20 1.255 . S
C3 O21 1.265 1_554 S
C4 C6 1.380 . S
C4 C7 1.374 1_554 S
C4 C10 1.507 . S
C5 C6 1.384 . S
C5 C9 1.387 . S
C5 H32 0.930 . S
C6 C4 1.380 . S
C6 C5 1.384 . S
C6 H33 0.931 . S
C7 C4 1.374 1_556 S
C7 C8 1.390 . S
C7 H34 0.930 . S
C8 C7 1.390 . S
C8 C9 1.391 1_556 S
C8 H35 0.930 . S
C9 C5 1.387 . S
C9 C8 1.391 1_554 S
C10 Tb0 2.825 . S
C10 C4 1.507 . S
C10 O23 1.238 . S
C10 O24 1.247 1_554 S
O11 Tb0 2.347 1_556 S
O11 C15 1.259 . S
O12 Eu1 2.418 1_556 S
O12 C15 1.265 1_455 S
O13 Eu1 2.384 1_655 S
O13 C22 1.255 . S
O14 Tb0 2.366 . S
O14 C22 1.265 . S
C15 O11 1.259 . S
C15 O12 1.265 1_655 S
O16 Eu1 2.479 1_556 S
O16 C31 1.238 1_556 S
O17 Eu1 2.471 . S
O17 C31 1.247 . S
O18 Eu1 2.347 . S
O18 C2 1.259 . S
O19 Tb0 2.418 1_455 S
O19 C2 1.265 . S
O20 Tb0 2.384 1_455 S
O20 C3 1.255 . S
O21 Eu1 2.366 1_556 S
O21 C3 1.265 1_556 S
C22 O13 1.255 . S
C22 O14 1.265 . S
O23 Tb0 2.479 . S
O23 C10 1.238 . S
O24 Tb0 2.471 1_556 S
O24 C10 1.247 1_556 S
C25 C28 1.380 1_554 S
C25 C29 1.374 . S
C25 C31 1.507 . S
C26 C27 1.387 1_554 S
C26 C30 1.391 . S
C27 C26 1.387 1_556 S
C27 C28 1.384 . S
C27 H36 0.930 . S
C28 C25 1.380 1_556 S
C28 C27 1.384 . S
C28 H37 0.931 . S
C29 C25 1.374 . S
C29 C30 1.390 . S
C29 H38 0.930 . S
C30 C26 1.391 . S
C30 C29 1.390 . S
C30 H39 0.930 . S
C31 Eu1 2.825 . S
C31 O16 1.238 1_554 S
C31 O17 1.247 . S
C31 C25 1.507 . S
H32 C5 0.930 . S
H33 C6 0.931 . S
H34 C7 0.930 . S
H35 C8 0.930 . S
H36 C27 0.930 . S
H37 C28 0.931 . S
H38 C29 0.930 . S
H39 C30 0.930 . S
Tb40 C50 2.825 . S
Tb40 O51 2.347 1_556 S
Tb40 O54 2.366 . S
Tb40 O59 2.418 . S
Tb40 O60 2.384 . S
Tb40 O63 2.479 . S
Tb40 O64 2.471 1_556 S
Eu41 O52 2.418 . S
Eu41 O53 2.384 . S
Eu41 O56 2.479 . S
Eu41 O57 2.471 1_554 S
Eu41 O58 2.347 1_554 S
Eu41 O61 2.366 . S
Eu41 C71 2.825 . S
C42 O58 1.259 . S
C42 O59 1.265 . S
C43 O60 1.255 1_554 S
C43 O61 1.265 . S
C44 C46 1.380 . S
C44 C47 1.374 1_556 S
C44 C50 1.507 . S
C45 C46 1.384 . S
C45 C49 1.387 . S
C45 H72 0.930 . S
C46 C44 1.380 . S
C46 C45 1.384 . S
C46 H73 0.931 . S
C47 C44 1.374 1_554 S
C47 C48 1.390 . S
C47 H74 0.930 . S
C48 C47 1.390 . S
C48 C49 1.391 1_554 S
C48 H75 0.930 . S
C49 C45 1.387 . S
C49 C48 1.391 1_556 S
C50 Tb40 2.825 . S
C50 C44 1.507 . S
C50 O63 1.238 . S
C50 O64 1.247 1_556 S
O51 Tb40 2.347 1_554 S
O51 C55 1.259 . S
O52 Eu41 2.418 . S
O52 C55 1.265 . S
O53 Eu41 2.384 . S
O53 C62 1.255 1_554 S
O54 Tb40 2.366 . S
O54 C62 1.265 . S
C55 O51 1.259 . S
C55 O52 1.265 . S
O56 Eu41 2.479 . S
O56 C71 1.238 . S
O57 Eu41 2.471 1_556 S
O57 C71 1.247 1_556 S
O58 Eu41 2.347 1_556 S
O58 C42 1.259 . S
O59 Tb40 2.418 . S
O59 C42 1.265 . S
O60 Tb40 2.384 . S
O60 C43 1.255 1_556 S
O61 Eu41 2.366 . S
O61 C43 1.265 . S
C62 O53 1.255 1_556 S
C62 O54 1.265 . S
O63 Tb40 2.479 . S
O63 C50 1.238 . S
O64 Tb40 2.471 1_554 S
O64 C50 1.247 1_554 S
C65 C68 1.380 . S
C65 C69 1.374 1_554 S
C65 C71 1.507 . S
C66 C67 1.387 . S
C66 C70 1.391 1_554 S
C67 C66 1.387 . S
C67 C68 1.384 . S
C67 H76 0.930 . S
C68 C65 1.380 . S
C68 C67 1.384 . S
C68 H77 0.931 . S
C69 C65 1.374 1_556 S
C69 C70 1.390 . S
C69 H78 0.930 . S
C70 C66 1.391 1_556 S
C70 C69 1.390 . S
C70 H79 0.930 . S
C71 Eu41 2.825 . S
C71 O56 1.238 . S
C71 O57 1.247 1_554 S
C71 C65 1.507 . S
H72 C45 0.930 . S
H73 C46 0.931 . S
H74 C47 0.930 . S
H75 C48 0.930 . S
H76 C67 0.930 . S
H77 C68 0.931 . S
H78 C69 0.930 . S
H79 C70 0.930 . S
Tb80 C90 2.825 . S
Tb80 O91 2.347 1_554 S
Tb80 O94 2.366 . S
Tb80 O99 2.418 . S
Tb80 O100 2.384 1_545 S
Tb80 O103 2.479 . S
Tb80 O104 2.471 1_554 S
Eu81 O92 2.442 . S
Eu81 O93 2.383 1_566 S
Eu81 O96 2.488 . S
Eu81 O97 2.459 1_556 S
Eu81 O98 2.327 1_556 S
Eu81 O101 2.369 . S
Eu81 C111 2.823 . S
C82 O98 1.259 . S
C82 O99 1.265 1_565 S
C83 O100 1.255 . S
C83 O101 1.265 1_554 S
C84 C86 1.380 . S
C84 C87 1.374 1_554 S
C84 C90 1.507 . S
C85 C86 1.384 . S
C85 C89 1.387 . S
C85 H112 0.930 . S
C86 C84 1.380 . S
C86 C85 1.384 . S
C86 H113 0.931 . S
C87 C84 1.374 1_556 S
C87 C88 1.390 . S
C87 H114 0.930 . S
C88 C87 1.390 . S
C88 C89 1.391 1_556 S
C88 H115 0.930 . S
C89 C85 1.387 . S
C89 C88 1.391 1_554 S
C90 Tb80 2.825 . S
C90 C84 1.507 . S
C90 O103 1.238 . S
C90 O104 1.247 1_554 S
O91 Tb80 2.347 1_556 S
O91 C95 1.259 . S
O92 Eu81 2.442 . S
O92 C95 1.265 1_565 S
O93 Eu81 2.383 1_544 S
O93 C102 1.255 . S
O94 Tb80 2.366 . S
O94 C102 1.265 . S
C95 O91 1.259 . S
C95 O92 1.265 1_545 S
O96 Eu81 2.488 . S
O96 C111 1.238 . S
O97 Eu81 2.459 1_554 S
O97 C111 1.247 1_554 S
O98 Eu81 2.327 1_554 S
O98 C82 1.259 . S
O99 Tb80 2.418 . S
O99 C82 1.265 1_545 S
O100 Tb80 2.384 1_565 S
O100 C83 1.255 . S
O101 Eu81 2.369 . S
O101 C83 1.265 1_556 S
C102 O93 1.255 . S
C102 O94 1.265 . S
O103 Tb80 2.479 . S
O103 C90 1.238 . S
O104 Tb80 2.471 1_556 S
O104 C90 1.247 1_556 S
C105 C108 1.380 . S
C105 C109 1.374 1_556 S
C105 C111 1.507 . S
C106 C107 1.387 . S
C106 C110 1.391 1_556 S
C107 C106 1.387 . S
C107 C108 1.384 . S
C107 H116 0.930 . S
C108 C105 1.380 . S
C108 C107 1.384 . S
C108 H117 0.931 . S
C109 C105 1.374 1_554 S
C109 C110 1.390 . S
C109 H118 0.930 . S
C110 C106 1.391 1_554 S
C110 C109 1.390 . S
C110 H119 0.930 . S
C111 Eu81 2.823 . S
C111 O96 1.238 . S
C111 O97 1.247 1_556 S
C111 C105 1.507 . S
H112 C85 0.930 . S
H113 C86 0.931 . S
H114 C87 0.930 . S
H115 C88 0.930 . S
H116 C107 0.930 . S
H117 C108 0.931 . S
H118 C109 0.930 . S
H119 C110 0.930 . S
Tb120 C130 2.825 . S
Tb120 O131 2.347 . S
Tb120 O134 2.366 . S
Tb120 O139 2.418 . S
Tb120 O140 2.384 . S
Tb120 O143 2.479 . S
Tb120 O144 2.471 . S
Eu121 O132 2.418 . S
Eu121 O133 2.384 . S
Eu121 O136 2.479 . S
Eu121 O137 2.471 . S
Eu121 O138 2.347 . S
Eu121 O141 2.366 . S
Eu121 C151 2.825 . S
C122 O138 1.259 . S
C122 O139 1.265 . S
C123 O140 1.255 . S
C123 O141 1.265 . S
C124 C126 1.380 . S
C124 C127 1.374 . S
C124 C130 1.507 . S
C125 C126 1.384 . S
C125 C129 1.387 . S
C125 H152 0.930 . S
C126 C124 1.380 . S
C126 C125 1.384 . S
C126 H153 0.931 . S
C127 C124 1.374 . S
C127 C128 1.390 . S
C127 H154 0.930 . S
C128 C127 1.390 . S
C128 C129 1.391 . S
C128 H155 0.930 . S
C129 C125 1.387 . S
C129 C128 1.391 . S
C130 Tb120 2.825 . S
C130 C124 1.507 . S
C130 O143 1.238 . S
C130 O144 1.247 . S
O131 Tb120 2.347 . S
O131 C135 1.259 . S
O132 Eu121 2.418 . S
O132 C135 1.265 . S
O133 Eu121 2.384 . S
O133 C142 1.255 . S
O134 Tb120 2.366 . S
O134 C142 1.265 . S
C135 O131 1.259 . S
C135 O132 1.265 . S
O136 Eu121 2.479 . S
O136 C151 1.238 . S
O137 Eu121 2.471 . S
O137 C151 1.247 . S
O138 Eu121 2.347 . S
O138 C122 1.259 . S
O139 Tb120 2.418 . S
O139 C122 1.265 . S
O140 Tb120 2.384 . S
O140 C123 1.255 . S
O141 Eu121 2.366 . S
O141 C123 1.265 . S
C142 O133 1.255 . S
C142 O134 1.265 . S
O143 Tb120 2.479 . S
O143 C130 1.238 . S
O144 Tb120 2.471 . S
O144 C130 1.247 . S
C145 C148 1.380 . S
C145 C149 1.374 . S
C145 C151 1.507 . S
C146 C147 1.387 . S
C146 C150 1.391 . S
C147 C146 1.387 . S
C147 C148 1.384 . S
C147 H156 0.930 . S
C148 C145 1.380 . S
C148 C147 1.384 . S
C148 H157 0.931 . S
C149 C145 1.374 . S
C149 C150 1.390 . S
C149 H158 0.930 . S
C150 C146 1.391 . S
C150 C149 1.390 . S
C150 H159 0.930 . S
C151 Eu121 2.825 . S
C151 O136 1.238 . S
C151 O137 1.247 . S
C151 C145 1.507 . S
H152 C125 0.930 . S
H153 C126 0.931 . S
H154 C127 0.930 . S
H155 C128 0.930 . S
H156 C147 0.930 . S
H157 C148 0.931 . S
H158 C149 0.930 . S
H159 C150 0.930 . S
Tb160 C170 2.825 . S
Tb160 O171 2.347 . S
Tb160 O174 2.366 . S
Tb160 O179 2.418 . S
Tb160 O180 2.384 . S
Tb160 O183 2.479 . S
Tb160 O184 2.471 . S
Eu161 O172 2.418 . S
Eu161 O173 2.384 . S
Eu161 O176 2.479 1_565 S
Eu161 O177 2.471 1_565 S
Eu161 O178 2.347 . S
Eu161 O181 2.366 . S
Eu161 C191 2.825 1_565 S
C162 O178 1.259 . S
C162 O179 1.265 . S
C163 O180 1.255 . S
C163 O181 1.265 . S
C164 C166 1.380 . S
C164 C167 1.374 . S
C164 C170 1.507 . S
C165 C166 1.384 . S
C165 C169 1.387 . S
C165 H192 0.930 . S
C166 C164 1.380 . S
C166 C165 1.384 . S
C166 H193 0.931 . S
C167 C164 1.374 . S
C167 C168 1.390 . S
C167 H194 0.930 . S
C168 C167 1.390 . S
C168 C169 1.391 . S
C168 H195 0.930 . S
C169 C165 1.387 . S
C169 C168 1.391 . S
C170 Tb160 2.825 . S
C170 C164 1.507 . S
C170 O183 1.238 . S
C170 O184 1.247 . S
O171 Tb160 2.347 . S
O171 C175 1.259 . S
O172 Eu161 2.418 . S
O172 C175 1.265 . S
O173 Eu161 2.384 . S
O173 C182 1.255 . S
O174 Tb160 2.366 . S
O174 C182 1.265 . S
C175 O171 1.259 . S
C175 O172 1.265 . S
O176 Eu161 2.479 1_545 S
O176 C191 1.238 . S
O177 Eu161 2.471 1_545 S
O177 C191 1.247 . S
O178 Eu161 2.347 . S
O178 C162 1.259 . S
O179 Tb160 2.418 . S
O179 C162 1.265 . S
O180 Tb160 2.384 . S
O180 C163 1.255 . S
O181 Eu161 2.366 . S
O181 C163 1.265 . S
C182 O173 1.255 . S
C182 O174 1.265 . S
O183 Tb160 2.479 . S
O183 C170 1.238 . S
O184 Tb160 2.471 . S
O184 C170 1.247 . S
C185 C188 1.380 . S
C185 C189 1.374 . S
C185 C191 1.507 . S
C186 C187 1.387 . S
C186 C190 1.391 . S
C187 C186 1.387 . S
C187 C188 1.384 . S
C187 H196 0.930 . S
C188 C185 1.380 . S
C188 C187 1.384 . S
C188 H197 0.931 . S
C189 C185 1.374 . S
C189 C190 1.390 . S
C189 H198 0.930 . S
C190 C186 1.391 . S
C190 C189 1.390 . S
C190 H199 0.930 . S
C191 Eu161 2.825 1_545 S
C191 O176 1.238 . S
C191 O177 1.247 . S
C191 C185 1.507 . S
H192 C165 0.930 . S
H193 C166 0.931 . S
H194 C167 0.930 . S
H195 C168 0.930 . S
H196 C187 0.930 . S
H197 C188 0.931 . S
H198 C189 0.930 . S
H199 C190 0.930 . S
Tb200 C210 2.825 . S
Tb200 O211 2.347 . S
Tb200 O214 2.366 . S
Tb200 O219 2.418 . S
Tb200 O220 2.384 . S
Tb200 O223 2.479 . S
Tb200 O224 2.471 . S
Eu201 O212 2.418 . S
Eu201 O213 2.384 . S
Eu201 O216 2.479 . S
Eu201 O217 2.471 . S
Eu201 O218 2.347 . S
Eu201 O221 2.366 . S
Eu201 C231 2.825 1_455 S
C202 O218 1.259 . S
C202 O219 1.265 . S
C203 O220 1.255 . S
C203 O221 1.265 . S
C204 C206 1.380 . S
C204 C207 1.374 . S
C204 C210 1.507 . S
C205 C206 1.384 . S
C205 C209 1.387 . S
C205 H232 0.930 . S
C206 C204 1.380 . S
C206 C205 1.384 . S
C206 H233 0.931 . S
C207 C204 1.374 . S
C207 C208 1.390 . S
C207 H234 0.930 . S
C208 C207 1.390 . S
C208 C209 1.391 . S
C208 H235 0.930 . S
C209 C205 1.387 . S
C209 C208 1.391 . S
C210 Tb200 2.825 . S
C210 C204 1.507 . S
C210 O223 1.238 . S
C210 O224 1.247 . S
O211 Tb200 2.347 . S
O211 C215 1.259 . S
O212 Eu201 2.418 . S
O212 C215 1.265 . S
O213 Eu201 2.384 . S
O213 C222 1.255 . S
O214 Tb200 2.366 . S
O214 C222 1.265 . S
C215 O211 1.259 . S
C215 O212 1.265 . S
O216 Eu201 2.479 . S
O216 C231 1.238 1_455 S
O217 Eu201 2.471 . S
O217 C231 1.247 1_455 S
O218 Eu201 2.347 . S
O218 C202 1.259 . S
O219 Tb200 2.418 . S
O219 C202 1.265 . S
O220 Tb200 2.384 . S
O220 C203 1.255 . S
O221 Eu201 2.366 . S
O221 C203 1.265 . S
C222 O213 1.255 . S
C222 O214 1.265 . S
O223 Tb200 2.479 . S
O223 C210 1.238 . S
O224 Tb200 2.471 . S
O224 C210 1.247 . S
C225 C228 1.380 . S
C225 C229 1.374 . S
C225 C231 1.507 . S
C226 C227 1.387 . S
C226 C230 1.391 . S
C227 C226 1.387 . S
C227 C228 1.384 . S
C227 H236 0.930 . S
C228 C225 1.380 . S
C228 C227 1.384 . S
C228 H237 0.931 . S
C229 C225 1.374 . S
C229 C230 1.390 . S
C229 H238 0.930 . S
C230 C226 1.391 . S
C230 C229 1.390 . S
C230 H239 0.930 . S
C231 Eu201 2.825 1_655 S
C231 O216 1.238 1_655 S
C231 O217 1.247 1_655 S
C231 C225 1.507 . S
H232 C205 0.930 . S
H233 C206 0.931 . S
H234 C207 0.930 . S
H235 C208 0.930 . S
H236 C227 0.930 . S
H237 C228 0.931 . S
H238 C229 0.930 . S
H239 C230 0.930 . S
Tb240 C250 2.825 . S
Tb240 O251 2.347 . S
Tb240 O254 2.366 . S
Tb240 O259 2.418 . S
Tb240 O260 2.384 . S
Tb240 O263 2.479 . S
Tb240 O264 2.471 . S
Eu241 O252 2.418 . S
Eu241 O253 2.384 . S
Eu241 O256 2.479 . S
Eu241 O257 2.471 . S
Eu241 O258 2.347 . S
Eu241 O261 2.366 . S
Eu241 C271 2.825 . S
C242 O258 1.259 . S
C242 O259 1.265 . S
C243 O260 1.255 . S
C243 O261 1.265 . S
C244 C246 1.380 . S
C244 C247 1.374 . S
C244 C250 1.507 . S
C245 C246 1.384 . S
C245 C249 1.387 . S
C245 H272 0.930 . S
C246 C244 1.380 . S
C246 C245 1.384 . S
C246 H273 0.931 . S
C247 C244 1.374 . S
C247 C248 1.390 . S
C247 H274 0.930 . S
C248 C247 1.390 . S
C248 C249 1.391 . S
C248 H275 0.930 . S
C249 C245 1.387 . S
C249 C248 1.391 . S
C250 Tb240 2.825 . S
C250 C244 1.507 . S
C250 O263 1.238 . S
C250 O264 1.247 . S
O251 Tb240 2.347 . S
O251 C255 1.259 . S
O252 Eu241 2.418 . S
O252 C255 1.265 . S
O253 Eu241 2.384 . S
O253 C262 1.255 . S
O254 Tb240 2.366 . S
O254 C262 1.265 . S
C255 O251 1.259 . S
C255 O252 1.265 . S
O256 Eu241 2.479 . S
O256 C271 1.238 . S
O257 Eu241 2.471 . S
O257 C271 1.247 . S
O258 Eu241 2.347 . S
O258 C242 1.259 . S
O259 Tb240 2.418 . S
O259 C242 1.265 . S
O260 Tb240 2.384 . S
O260 C243 1.255 . S
O261 Eu241 2.366 . S
O261 C243 1.265 . S
C262 O253 1.255 . S
C262 O254 1.265 . S
O263 Tb240 2.479 . S
O263 C250 1.238 . S
O264 Tb240 2.471 . S
O264 C250 1.247 . S
C265 C268 1.380 . S
C265 C269 1.374 . S
C265 C271 1.507 . S
C266 C267 1.387 . S
C266 C270 1.391 . S
C267 C266 1.387 . S
C267 C268 1.384 . S
C267 H276 0.930 . S
C268 C265 1.380 . S
C268 C267 1.384 . S
C268 H277 0.931 . S
C269 C265 1.374 . S
C269 C270 1.390 . S
C269 H278 0.930 . S
C270 C266 1.391 . S
C270 C269 1.390 . S
C270 H279 0.930 . S
C271 Eu241 2.825 . S
C271 O256 1.238 . S
C271 O257 1.247 . S
C271 C265 1.507 . S
H272 C245 0.930 . S
H273 C246 0.931 . S
H274 C247 0.930 . S
H275 C248 0.930 . S
H276 C267 0.930 . S
H277 C268 0.931 . S
H278 C269 0.930 . S
H279 C270 0.930 . S
Tb280 C290 2.825 . S
Tb280 O291 2.347 . S
Tb280 O294 2.366 . S
Tb280 O299 2.418 . S
Tb280 O300 2.384 . S
Tb280 O303 2.479 . S
Tb280 O304 2.471 . S
Eu281 O292 2.418 . S
Eu281 O293 2.384 . S
Eu281 O296 2.479 1_655 S
Eu281 O297 2.471 1_655 S
Eu281 O298 2.347 . S
Eu281 O301 2.366 . S
Eu281 C311 2.825 1_655 S
C282 O298 1.259 . S
C282 O299 1.265 . S
C283 O300 1.255 . S
C283 O301 1.265 . S
C284 C286 1.380 . S
C284 C287 1.374 . S
C284 C290 1.507 . S
C285 C286 1.384 . S
C285 C289 1.387 . S
C285 H312 0.930 . S
C286 C284 1.380 . S
C286 C285 1.384 . S
C286 H313 0.931 . S
C287 C284 1.374 . S
C287 C288 1.390 . S
C287 H314 0.930 . S
C288 C287 1.390 . S
C288 C289 1.391 . S
C288 H315 0.930 . S
C289 C285 1.387 . S
C289 C288 1.391 . S
C290 Tb280 2.825 . S
C290 C284 1.507 . S
C290 O303 1.238 . S
C290 O304 1.247 . S
O291 Tb280 2.347 . S
O291 C295 1.259 . S
O292 Eu281 2.418 . S
O292 C295 1.265 . S
O293 Eu281 2.384 . S
O293 C302 1.255 . S
O294 Tb280 2.366 . S
O294 C302 1.265 . S
C295 O291 1.259 . S
C295 O292 1.265 . S
O296 Eu281 2.479 1_455 S
O296 C311 1.238 . S
O297 Eu281 2.471 1_455 S
O297 C311 1.247 . S
O298 Eu281 2.347 . S
O298 C282 1.259 . S
O299 Tb280 2.418 . S
O299 C282 1.265 . S
O300 Tb280 2.384 . S
O300 C283 1.255 . S
O301 Eu281 2.366 . S
O301 C283 1.265 . S
C302 O293 1.255 . S
C302 O294 1.265 . S
O303 Tb280 2.479 . S
O303 C290 1.238 . S
O304 Tb280 2.471 . S
O304 C290 1.247 . S
C305 C308 1.380 . S
C305 C309 1.374 . S
C305 C311 1.507 . S
C306 C307 1.387 . S
C306 C310 1.391 . S
C307 C306 1.387 . S
C307 C308 1.384 . S
C307 H316 0.930 . S
C308 C305 1.380 . S
C308 C307 1.384 . S
C308 H317 0.931 . S
C309 C305 1.374 . S
C309 C310 1.390 . S
C309 H318 0.930 . S
C310 C306 1.391 . S
C310 C309 1.390 . S
C310 H319 0.930 . S
C311 Eu281 2.825 1_455 S
C311 O296 1.238 . S
C311 O297 1.247 . S
C311 C305 1.507 . S
H312 C285 0.930 . S
H313 C286 0.931 . S
H314 C287 0.930 . S
H315 C288 0.930 . S
H316 C307 0.930 . S
H317 C308 0.931 . S
H318 C309 0.930 . S
H319 C310 0.930 . S
Tb320 C330 2.825 . S
Tb320 O331 2.347 . S
Tb320 O334 2.366 . S
Tb320 O339 2.418 . S
Tb320 O340 2.384 . S
Tb320 O343 2.479 . S
Tb320 O344 2.471 . S
Eu321 O332 2.418 . S
Eu321 O333 2.384 . S
Eu321 O336 2.479 . S
Eu321 O337 2.471 . S
Eu321 O338 2.347 . S
Eu321 O341 2.366 . S
Eu321 C351 2.825 . S
C322 O338 1.259 . S
C322 O339 1.265 . S
C323 O340 1.255 . S
C323 O341 1.265 . S
C324 C326 1.380 1_655 S
C324 C327 1.374 . S
C324 C330 1.507 . S
C325 C326 1.384 . S
C325 C329 1.387 . S
C325 H352 0.930 . S
C326 C324 1.380 1_455 S
C326 C325 1.384 . S
C326 H353 0.932 1_455 S
C327 C324 1.374 . S
C327 C328 1.390 1_655 S
C327 H354 0.930 . S
C328 C327 1.390 1_455 S
C328 C329 1.391 . S
C328 H355 0.930 . S
C329 C325 1.387 . S
C329 C328 1.391 . S
C330 Tb320 2.825 . S
C330 C324 1.507 . S
C330 O343 1.238 . S
C330 O344 1.247 . S
O331 Tb320 2.347 . S
O331 C335 1.259 . S
O332 Eu321 2.418 . S
O332 C335 1.265 . S
O333 Eu321 2.384 . S
O333 C342 1.255 . S
O334 Tb320 2.366 . S
O334 C342 1.265 . S
C335 O331 1.259 . S
C335 O332 1.265 . S
O336 Eu321 2.479 . S
O336 C351 1.238 . S
O337 Eu321 2.471 . S
O337 C351 1.247 . S
O338 Eu321 2.347 . S
O338 C322 1.259 . S
O339 Tb320 2.418 . S
O339 C322 1.265 . S
O340 Tb320 2.384 . S
O340 C323 1.255 . S
O341 Eu321 2.366 . S
O341 C323 1.265 . S
C342 O333 1.255 . S
C342 O334 1.265 . S
O343 Tb320 2.479 . S
O343 C330 1.238 . S
O344 Tb320 2.471 . S
O344 C330 1.247 . S
C345 C348 1.380 . S
C345 C349 1.374 . S
C345 C351 1.507 . S
C346 C347 1.387 . S
C346 C350 1.391 . S
C347 C346 1.387 . S
C347 C348 1.384 . S
C347 H356 0.930 . S
C348 C345 1.380 . S
C348 C347 1.384 . S
C348 H357 0.931 . S
C349 C345 1.374 . S
C349 C350 1.390 . S
C349 H358 0.930 . S
C350 C346 1.391 . S
C350 C349 1.390 . S
C350 H359 0.930 . S
C351 Eu321 2.825 . S
C351 O336 1.238 . S
C351 O337 1.247 . S
C351 C345 1.507 . S
H352 C325 0.930 . S
H353 C326 0.932 1_655 S
H354 C327 0.930 . S
H355 C328 0.930 . S
H356 C347 0.930 . S
H357 C348 0.931 . S
H358 C349 0.930 . S
H359 C350 0.930 . S
C360 C361 1.363 . S
C360 C366 1.379 . S
C360 N368 1.356 . S
C361 C360 1.363 . S
C361 C367 1.363 1_556 S
C362 C363 1.375 . S
C362 C367 1.379 . S
C362 N369 1.356 . S
C363 C362 1.375 . S
C363 C366 1.346 1_554 S
N364 C366 1.356 . S
N364 H376 0.984 . S
N364 H377 0.985 . S
N365 C367 1.356 . S
N365 H370 0.984 . S
N365 H371 0.985 . S
C366 C360 1.379 . S
C366 C363 1.346 1_556 S
C366 N364 1.356 . S
C367 C361 1.363 1_554 S
C367 C362 1.379 . S
C367 N365 1.356 . S
N368 C360 1.356 . S
N368 H374 0.984 . S
N368 H375 0.984 . S
N369 C362 1.356 . S
N369 H372 0.984 . S
N369 H373 0.985 . S
H370 N365 0.984 . S
H371 N365 0.985 . S
H372 N369 0.984 . S
H373 N369 0.985 . S
H374 N368 0.984 . S
H375 N368 0.984 . S
H376 N364 0.984 . S
H377 N364 0.985 . S
C378 C379 1.363 1_554 S
C378 C384 1.379 . S
C378 N386 1.356 . S
C379 C378 1.363 1_556 S
C379 C385 1.363 . S
C380 C381 1.363 . S
C380 C385 1.379 . S
C380 N387 1.356 . S
C381 C380 1.363 . S
C381 C384 1.363 1_556 S
N382 C384 1.356 . S
N382 H394 0.984 . S
N382 H395 0.985 . S
N383 C385 1.356 . S
N383 H388 0.984 . S
N383 H389 0.985 . S
C384 C378 1.379 . S
C384 C381 1.363 1_554 S
C384 N382 1.356 . S
C385 C379 1.363 . S
C385 C380 1.379 . S
C385 N383 1.356 . S
N386 C378 1.356 . S
N386 H392 0.984 . S
N386 H393 0.984 . S
N387 C380 1.356 . S
N387 H390 0.984 . S
N387 H391 0.985 . S
H388 N383 0.984 . S
H389 N383 0.985 . S
H390 N387 0.984 . S
H391 N387 0.985 . S
H392 N386 0.984 . S
H393 N386 0.984 . S
H394 N382 0.984 . S
H395 N382 0.985 . S
C396 C397 1.363 1_554 S
C396 C402 1.379 . S
C396 N404 1.356 . S
C397 C396 1.363 1_556 S
C397 C403 1.363 . S
C398 C399 1.363 1_556 S
C398 C403 1.379 . S
C398 N405 1.356 . S
C399 C398 1.363 1_554 S
C399 C402 1.363 . S
N400 C402 1.356 . S
N400 H412 0.984 . S
N400 H413 0.985 . S
N401 C403 1.356 . S
N401 H406 0.984 . S
N401 H407 0.985 . S
C402 C396 1.379 . S
C402 C399 1.363 . S
C402 N400 1.356 . S
C403 C397 1.363 . S
C403 C398 1.379 . S
C403 N401 1.356 . S
N404 C396 1.356 . S
N404 H410 0.984 . S
N404 H411 0.984 . S
N405 C398 1.356 . S
N405 H408 0.984 . S
N405 H409 0.985 . S
H406 N401 0.984 . S
H407 N401 0.985 . S
H408 N405 0.984 . S
H409 N405 0.985 . S
H410 N404 0.984 . S
H411 N404 0.984 . S
H412 N400 0.984 . S
H413 N400 0.985 . S
C414 C415 1.363 . S
C414 C420 1.379 . S
C414 N422 1.356 . S
C415 C414 1.363 . S
C415 C421 1.363 1_554 S
C416 C417 1.363 1_556 S
C416 C421 1.379 . S
C416 N423 1.356 . S
C417 C416 1.363 1_554 S
C417 C420 1.363 . S
N418 C420 1.356 . S
N418 H430 0.984 . S
N418 H431 0.985 . S
N419 C421 1.356 . S
N419 H424 0.984 . S
N419 H425 0.985 . S
C420 C414 1.379 . S
C420 C417 1.363 . S
C420 N418 1.356 . S
C421 C415 1.363 1_556 S
C421 C416 1.379 . S
C421 N419 1.356 . S
N422 C414 1.356 . S
N422 H428 0.984 . S
N422 H429 0.984 . S
N423 C416 1.356 . S
N423 H426 0.984 . S
N423 H427 0.985 . S
H424 N419 0.984 . S
H425 N419 0.985 . S
H426 N423 0.984 . S
H427 N423 0.985 . S
H428 N422 0.984 . S
H429 N422 0.984 . S
H430 N418 0.984 . S
H431 N418 0.985 . S
C432 C433 1.363 . S
C432 C438 1.379 . S
C432 N440 1.356 . S
C433 C432 1.363 . S
C433 C439 1.363 1_554 S
C434 C435 1.363 1_556 S
C434 C439 1.379 . S
C434 N441 1.356 . S
C435 C434 1.363 1_554 S
C435 C438 1.363 . S
N436 C438 1.356 . S
N436 H448 0.984 . S
N436 H449 0.985 . S
N437 C439 1.356 . S
N437 H442 0.984 . S
N437 H443 0.985 . S
C438 C432 1.379 . S
C438 C435 1.363 . S
C438 N436 1.356 . S
C439 C433 1.363 1_556 S
C439 C434 1.379 . S
C439 N437 1.356 . S
N440 C432 1.356 . S
N440 H446 0.984 . S
N440 H447 0.984 . S
N441 C434 1.356 . S
N441 H444 0.984 . S
N441 H445 0.985 . S
H442 N437 0.984 . S
H443 N437 0.985 . S
H444 N441 0.984 . S
H445 N441 0.985 . S
H446 N440 0.984 . S
H447 N440 0.984 . S
H448 N436 0.984 . S
H449 N436 0.985 . S
C450 C451 1.349 1_556 S
C450 C456 1.383 . S
C450 N458 1.362 . S
C451 C450 1.349 1_554 S
C451 C457 1.363 . S
C452 C453 1.363 . S
C452 C457 1.379 . S
C452 N459 1.356 . S
C453 C452 1.363 . S
C453 C456 1.363 1_554 S
N454 C456 1.356 . S
N454 H466 0.984 . S
N454 H467 0.985 . S
N455 C457 1.356 . S
N455 H460 0.984 . S
N455 H461 0.985 . S
C456 C450 1.383 . S
C456 C453 1.363 1_556 S
C456 N454 1.356 . S
C457 C451 1.363 . S
C457 C452 1.379 . S
C457 N455 1.356 . S
N458 C450 1.362 . S
N458 H464 0.984 . S
N458 H465 0.984 . S
N459 C452 1.356 . S
N459 H462 0.984 . S
N459 H463 0.985 . S
H460 N455 0.984 . S
H461 N455 0.985 . S
H462 N459 0.984 . S
H463 N459 0.985 . S
H464 N458 0.984 . S
H465 N458 0.984 . S
H466 N454 0.984 . S
H467 N454 0.985 . S
C468 C469 1.352 1_455 S
C468 C474 1.393 . S
C468 N476 1.349 1_455 S
C469 C468 1.352 1_655 S
C469 C475 1.363 1_655 S
C470 C471 1.363 . S
C470 C475 1.379 . S
C470 N477 1.356 . S
C471 C470 1.363 . S
C471 C474 1.363 . S
N472 C474 1.356 . S
N472 H484 0.984 . S
N472 H485 0.985 . S
N473 C475 1.356 1_655 S
N473 H478 0.984 . S
N473 H479 0.985 . S
C474 C468 1.393 . S
C474 C471 1.363 . S
C474 N472 1.356 . S
C475 C469 1.363 1_455 S
C475 C470 1.379 . S
C475 N473 1.356 1_455 S
N476 C468 1.349 1_655 S
N476 H482 0.984 . S
N476 H483 0.984 . S
N477 C470 1.356 . S
N477 H480 0.984 . S
N477 H481 0.985 . S
H478 N473 0.984 . S
H479 N473 0.985 . S
H480 N477 0.984 . S
H481 N477 0.985 . S
H482 N476 0.984 . S
H483 N476 0.984 . S
H484 N472 0.984 . S
H485 N472 0.985 . S
C486 C487 1.363 . S
C486 C492 1.379 . S
C486 N494 1.356 . S
C487 C486 1.363 . S
C487 C493 1.363 . S
C488 C489 1.363 . S
C488 C493 1.379 . S
C488 N495 1.356 . S
C489 C488 1.363 . S
C489 C492 1.363 . S
N490 C492 1.356 . S
N490 H502 0.984 . S
N490 H503 0.985 . S
N491 C493 1.356 . S
N491 H496 0.984 . S
N491 H497 0.985 . S
C492 C486 1.379 . S
C492 C489 1.363 . S
C492 N490 1.356 . S
C493 C487 1.363 . S
C493 C488 1.379 . S
C493 N491 1.356 . S
N494 C486 1.356 . S
N494 H500 0.984 . S
N494 H501 0.984 . S
N495 C488 1.356 . S
N495 H498 0.984 . S
N495 H499 0.985 . S
H496 N491 0.984 . S
H497 N491 0.985 . S
H498 N495 0.984 . S
H499 N495 0.985 . S
H500 N494 0.984 . S
H501 N494 0.984 . S
H502 N490 0.984 . S
H503 N490 0.985 . S
C504 C505 1.364 1_565 S
C504 C510 1.379 . S
C504 N512 1.356 1_565 S
C505 C504 1.364 1_545 S
C505 C511 1.359 1_545 S
C506 C507 1.363 . S
C506 C511 1.379 . S
C506 N513 1.356 . S
C507 C506 1.363 . S
C507 C510 1.363 . S
N508 C510 1.356 . S
N508 H520 0.984 . S
N508 H521 0.985 . S
N509 C511 1.356 . S
N509 H514 0.984 1_565 S
N509 H515 0.985 . S
C510 C504 1.379 . S
C510 C507 1.363 . S
C510 N508 1.356 . S
C511 C505 1.359 1_565 S
C511 C506 1.379 . S
C511 N509 1.356 . S
N512 C504 1.356 1_545 S
N512 H518 0.984 . S
N512 H519 0.984 . S
N513 C506 1.356 . S
N513 H516 0.984 . S
N513 H517 0.985 . S
H514 N509 0.984 1_545 S
H515 N509 0.985 . S
H516 N513 0.984 . S
H517 N513 0.985 . S
H518 N512 0.984 . S
H519 N512 0.984 . S
H520 N508 0.984 . S
H521 N508 0.985 . S
C522 C523 1.363 . S
C522 C528 1.379 . S
C522 N530 1.356 . S
C523 C522 1.363 . S
C523 C529 1.363 . S
C524 C525 1.363 . S
C524 C529 1.379 . S
C524 N531 1.356 . S
C525 C524 1.363 . S
C525 C528 1.363 . S
N526 C528 1.356 . S
N526 H538 0.984 . S
N526 H539 0.985 . S
N527 C529 1.356 . S
N527 H532 0.984 . S
N527 H533 0.985 . S
C528 C522 1.379 . S
C528 C525 1.363 . S
C528 N526 1.356 . S
C529 C523 1.363 . S
C529 C524 1.379 . S
C529 N527 1.356 . S
N530 C522 1.356 . S
N530 H536 0.984 . S
N530 H537 0.984 . S
N531 C524 1.356 . S
N531 H534 0.984 . S
N531 H535 0.985 . S
H532 N527 0.984 . S
H533 N527 0.985 . S
H534 N531 0.984 . S
H535 N531 0.985 . S
H536 N530 0.984 . S
H537 N530 0.984 . S
H538 N526 0.984 . S
H539 N526 0.985 . S
C540 C541 1.363 . S
C540 C546 1.379 . S
C540 N548 1.356 . S
C541 C540 1.363 . S
C541 C547 1.363 . S
C542 C543 1.363 . S
C542 C547 1.379 . S
C542 N549 1.356 . S
C543 C542 1.363 . S
C543 C546 1.363 . S
N544 C546 1.356 . S
N544 H556 0.984 . S
N544 H557 0.985 . S
N545 C547 1.356 . S
N545 H550 0.984 . S
N545 H551 0.985 . S
C546 C540 1.379 . S
C546 C543 1.363 . S
C546 N544 1.356 . S
C547 C541 1.363 . S
C547 C542 1.379 . S
C547 N545 1.356 . S
N548 C540 1.356 . S
N548 H554 0.984 . S
N548 H555 0.984 . S
N549 C542 1.356 . S
N549 H552 0.984 . S
N549 H553 0.985 . S
H550 N545 0.984 . S
H551 N545 0.985 . S
H552 N549 0.984 . S
H553 N549 0.985 . S
H554 N548 0.984 . S
H555 N548 0.984 . S
H556 N544 0.984 . S
H557 N544 0.985 . S
C558 C559 1.363 . S
C558 C564 1.379 . S
C558 N566 1.356 . S
C559 C558 1.363 . S
C559 C565 1.363 . S
C560 C561 1.363 . S
C560 C565 1.379 . S
C560 N567 1.356 . S
C561 C560 1.363 . S
C561 C564 1.363 . S
N562 C564 1.356 . S
N562 H574 0.984 . S
N562 H575 0.985 . S
N563 C565 1.356 . S
N563 H568 0.984 . S
N563 H569 0.985 . S
C564 C558 1.379 . S
C564 C561 1.363 . S
C564 N562 1.356 . S
C565 C559 1.363 . S
C565 C560 1.379 . S
C565 N563 1.356 . S
N566 C558 1.356 . S
N566 H572 0.984 . S
N566 H573 0.984 . S
N567 C560 1.356 . S
N567 H570 0.984 . S
N567 H571 0.985 . S
H568 N563 0.984 . S
H569 N563 0.985 . S
H570 N567 0.984 . S
H571 N567 0.985 . S
H572 N566 0.984 . S
H573 N566 0.984 . S
H574 N562 0.984 . S
H575 N562 0.985 . S
C576 C577 1.363 . S
C576 C582 1.379 . S
C576 N584 1.356 . S
C577 C576 1.363 . S
C577 C583 1.363 . S
C578 C579 1.363 . S
C578 C583 1.379 . S
C578 N585 1.356 . S
C579 C578 1.363 . S
C579 C582 1.363 . S
N580 C582 1.356 . S
N580 H592 0.984 . S
N580 H593 0.985 . S
N581 C583 1.356 . S
N581 H586 0.984 . S
N581 H587 0.985 . S
C582 C576 1.379 . S
C582 C579 1.363 . S
C582 N580 1.356 . S
C583 C577 1.363 . S
C583 C578 1.379 . S
C583 N581 1.356 . S
N584 C576 1.356 . S
N584 H590 0.984 . S
N584 H591 0.984 . S
N585 C578 1.356 . S
N585 H588 0.984 . S
N585 H589 0.985 . S
H586 N581 0.984 . S
H587 N581 0.985 . S
H588 N585 0.984 . S
H589 N585 0.985 . S
H590 N584 0.984 . S
H591 N584 0.984 . S
H592 N580 0.984 . S
H593 N580 0.985 . S
C594 C595 1.363 . S
C594 C600 1.379 . S
C594 N602 1.356 . S
C595 C594 1.363 . S
C595 C601 1.363 . S
C596 C597 1.363 . S
C596 C601 1.379 . S
C596 N603 1.356 . S
C597 C596 1.363 . S
C597 C600 1.363 . S
N598 C600 1.356 . S
N598 H610 0.984 . S
N598 H611 0.985 . S
N599 C601 1.356 . S
N599 H604 0.984 . S
N599 H605 0.985 . S
C600 C594 1.379 . S
C600 C597 1.363 . S
C600 N598 1.356 . S
C601 C595 1.363 . S
C601 C596 1.379 . S
C601 N599 1.356 . S
N602 C594 1.356 . S
N602 H608 0.984 . S
N602 H609 0.984 . S
N603 C596 1.356 . S
N603 H606 0.984 . S
N603 H607 0.985 . S
H604 N599 0.984 . S
H605 N599 0.985 . S
H606 N603 0.984 . S
H607 N603 0.985 . S
H608 N602 0.984 . S
H609 N602 0.984 . S
H610 N598 0.984 . S
H611 N598 0.985 . S
C612 C613 1.363 . S
C612 C618 1.379 . S
C612 N620 1.356 . S
C613 C612 1.363 . S
C613 C619 1.363 . S
C614 C615 1.363 . S
C614 C619 1.379 . S
C614 N621 1.356 . S
C615 C614 1.363 . S
C615 C618 1.363 . S
N616 C618 1.356 . S
N616 H628 0.984 . S
N616 H629 0.985 . S
N617 C619 1.356 . S
N617 H622 0.984 . S
N617 H623 0.985 . S
C618 C612 1.379 . S
C618 C615 1.363 . S
C618 N616 1.356 . S
C619 C613 1.363 . S
C619 C614 1.379 . S
C619 N617 1.356 . S
N620 C612 1.356 . S
N620 H626 0.984 . S
N620 H627 0.984 . S
N621 C614 1.356 . S
N621 H624 0.984 . S
N621 H625 0.985 . S
H622 N617 0.984 . S
H623 N617 0.985 . S
H624 N621 0.984 . S
H625 N621 0.985 . S
H626 N620 0.984 . S
H627 N620 0.984 . S
H628 N616 0.984 . S
H629 N616 0.985 . S
C630 C631 1.363 . S
C630 C636 1.379 . S
C630 N638 1.356 . S
C631 C630 1.363 . S
C631 C637 1.363 . S
C632 C633 1.363 1_565 S
C632 C637 1.379 . S
C632 N639 1.356 1_565 S
C633 C632 1.363 1_545 S
C633 C636 1.363 1_545 S
N634 C636 1.356 1_545 S
N634 H646 0.984 . S
N634 H647 0.985 . S
N635 C637 1.356 . S
N635 H640 0.984 . S
N635 H641 0.985 . S
C636 C630 1.379 . S
C636 C633 1.363 1_565 S
C636 N634 1.356 1_565 S
C637 C631 1.363 . S
C637 C632 1.379 . S
C637 N635 1.356 . S
N638 C630 1.356 . S
N638 H644 0.984 . S
N638 H645 0.984 . S
N639 C632 1.356 1_545 S
N639 H642 0.984 . S
N639 H643 0.985 . S
H640 N635 0.984 . S
H641 N635 0.985 . S
H642 N639 0.984 . S
H643 N639 0.985 . S
H644 N638 0.984 . S
H645 N638 0.984 . S
H646 N634 0.984 . S
H647 N634 0.985 . S
C648 C649 1.363 . S
C648 C654 1.379 . S
C648 N656 1.356 . S
C649 C648 1.363 . S
C649 C655 1.363 1_545 S
C650 C651 1.363 . S
C650 C655 1.379 . S
C650 N657 1.356 . S
C651 C650 1.363 . S
C651 C654 1.363 1_565 S
N652 C654 1.356 . S
N652 H664 0.984 . S
N652 H665 0.985 . S
N653 C655 1.356 . S
N653 H658 0.984 . S
N653 H659 0.985 . S
C654 C648 1.379 . S
C654 C651 1.363 1_545 S
C654 N652 1.356 . S
C655 C649 1.363 1_565 S
C655 C650 1.379 . S
C655 N653 1.356 . S
N656 C648 1.356 . S
N656 H662 0.984 . S
N656 H663 0.984 . S
N657 C650 1.356 . S
N657 H660 0.984 . S
N657 H661 0.985 . S
H658 N653 0.984 . S
H659 N653 0.985 . S
H660 N657 0.984 . S
H661 N657 0.985 . S
H662 N656 0.984 . S
H663 N656 0.984 . S
H664 N652 0.984 . S
H665 N652 0.985 . S
C666 C667 1.363 . S
C666 C672 1.379 . S
C666 N674 1.356 . S
C667 C666 1.363 . S
C667 C673 1.363 . S
C668 C669 1.363 . S
C668 C673 1.379 . S
C668 N675 1.356 . S
C669 C668 1.363 . S
C669 C672 1.363 . S
N670 C672 1.356 . S
N670 H682 0.984 . S
N670 H683 0.985 . S
N671 C673 1.356 . S
N671 H676 0.984 . S
N671 H677 0.985 . S
C672 C666 1.379 . S
C672 C669 1.363 . S
C672 N670 1.356 . S
C673 C667 1.363 . S
C673 C668 1.379 . S
C673 N671 1.356 . S
N674 C666 1.356 . S
N674 H680 0.984 . S
N674 H681 0.984 . S
N675 C668 1.356 . S
N675 H678 0.984 . S
N675 H679 0.985 . S
H676 N671 0.984 . S
H677 N671 0.985 . S
H678 N675 0.984 . S
H679 N675 0.985 . S
H680 N674 0.984 . S
H681 N674 0.984 . S
H682 N670 0.984 . S
H683 N670 0.985 . S
C684 C685 1.363 . S
C684 C690 1.379 . S
C684 N692 1.356 . S
C685 C684 1.363 . S
C685 C691 1.363 . S
C686 C687 1.363 . S
C686 C691 1.379 . S
C686 N693 1.356 . S
C687 C686 1.363 . S
C687 C690 1.363 . S
N688 C690 1.356 . S
N688 H700 0.984 . S
N688 H701 0.985 . S
N689 C691 1.356 . S
N689 H694 0.984 . S
N689 H695 0.985 . S
C690 C684 1.379 . S
C690 C687 1.363 . S
C690 N688 1.356 . S
C691 C685 1.363 . S
C691 C686 1.379 . S
C691 N689 1.356 . S
N692 C684 1.356 . S
N692 H698 0.984 . S
N692 H699 0.984 . S
N693 C686 1.356 . S
N693 H696 0.984 . S
N693 H697 0.985 1_455 S
H694 N689 0.984 . S
H695 N689 0.985 . S
H696 N693 0.984 . S
H697 N693 0.985 1_655 S
H698 N692 0.984 . S
H699 N692 0.984 . S
H700 N688 0.984 . S
H701 N688 0.985 . S
C702 C703 1.363 . S
C702 C708 1.379 . S
C702 N710 1.356 . S
C703 C702 1.363 . S
C703 C709 1.363 . S
C704 C705 1.363 . S
C704 C709 1.379 . S
C704 N711 1.356 . S
C705 C704 1.363 . S
C705 C708 1.363 . S
N706 C708 1.356 . S
N706 H718 0.984 . S
N706 H719 0.985 . S
N707 C709 1.356 . S
N707 H712 0.984 . S
N707 H713 0.985 . S
C708 C702 1.379 . S
C708 C705 1.363 . S
C708 N706 1.356 . S
C709 C703 1.363 . S
C709 C704 1.379 . S
C709 N707 1.356 . S
N710 C702 1.356 . S
N710 H716 0.984 . S
N710 H717 0.984 . S
N711 C704 1.356 . S
N711 H714 0.984 . S
N711 H715 0.985 . S
H712 N707 0.984 . S
H713 N707 0.985 . S
H714 N711 0.984 . S
H715 N711 0.985 . S
H716 N710 0.984 . S
H717 N710 0.984 . S
H718 N706 0.984 . S
H719 N706 0.985 . S
C720 C721 1.363 . S
C720 C726 1.379 . S
C720 N728 1.356 . S
C721 C720 1.363 . S
C721 C727 1.363 . S
C722 C723 1.363 . S
C722 C727 1.379 . S
C722 N729 1.356 . S
C723 C722 1.363 . S
C723 C726 1.363 . S
N724 C726 1.356 . S
N724 H736 0.984 . S
N724 H737 0.985 . S
N725 C727 1.356 . S
N725 H730 0.984 . S
N725 H731 0.985 . S
C726 C720 1.379 . S
C726 C723 1.363 . S
C726 N724 1.356 . S
C727 C721 1.363 . S
C727 C722 1.379 . S
C727 N725 1.356 . S
N728 C720 1.356 . S
N728 H734 0.984 . S
N728 H735 0.984 . S
N729 C722 1.356 . S
N729 H732 0.984 . S
N729 H733 0.985 . S
H730 N725 0.984 . S
H731 N725 0.985 . S
H732 N729 0.984 . S
H733 N729 0.985 . S
H734 N728 0.984 . S
H735 N728 0.984 . S
H736 N724 0.984 . S
H737 N724 0.985 . S
C738 C739 1.363 . S
C738 C744 1.379 . S
C738 N746 1.356 . S
C739 C738 1.363 . S
C739 C745 1.363 . S
C740 C741 1.363 . S
C740 C745 1.379 . S
C740 N747 1.356 . S
C741 C740 1.363 . S
C741 C744 1.363 . S
N742 C744 1.356 . S
N742 H754 0.984 . S
N742 H755 0.985 . S
N743 C745 1.356 . S
N743 H748 0.984 . S
N743 H749 0.985 . S
C744 C738 1.379 . S
C744 C741 1.363 . S
C744 N742 1.356 . S
C745 C739 1.363 . S
C745 C740 1.379 . S
C745 N743 1.356 . S
N746 C738 1.356 . S
N746 H752 0.984 . S
N746 H753 0.984 . S
N747 C740 1.356 . S
N747 H750 0.984 . S
N747 H751 0.985 . S
H748 N743 0.984 . S
H749 N743 0.985 . S
H750 N747 0.984 . S
H751 N747 0.985 . S
H752 N746 0.984 . S
H753 N746 0.984 . S
H754 N742 0.984 . S
H755 N742 0.985 . S
C756 C757 1.363 . S
C756 C762 1.379 . S
C756 N764 1.356 . S
C757 C756 1.363 . S
C757 C763 1.363 . S
C758 C759 1.363 . S
C758 C763 1.379 . S
C758 N765 1.356 . S
C759 C758 1.363 . S
C759 C762 1.363 . S
N760 C762 1.356 . S
N760 H772 0.984 . S
N760 H773 0.985 . S
N761 C763 1.356 . S
N761 H766 0.984 . S
N761 H767 0.985 . S
C762 C756 1.379 . S
C762 C759 1.363 . S
C762 N760 1.356 . S
C763 C757 1.363 . S
C763 C758 1.379 . S
C763 N761 1.356 . S
N764 C756 1.356 . S
N764 H770 0.984 . S
N764 H771 0.984 . S
N765 C758 1.356 . S
N765 H768 0.984 . S
N765 H769 0.985 . S
H766 N761 0.984 . S
H767 N761 0.985 . S
H768 N765 0.984 . S
H769 N765 0.985 . S
H770 N764 0.984 . S
H771 N764 0.984 . S
H772 N760 0.984 . S
H773 N760 0.985 . S
C774 C775 1.363 . S
C774 C780 1.379 . S
C774 N782 1.356 . S
C775 C774 1.363 . S
C775 C781 1.363 . S
C776 C777 1.363 . S
C776 C781 1.379 . S
C776 N783 1.356 . S
C777 C776 1.363 . S
C777 C780 1.363 . S
N778 C780 1.356 . S
N778 H790 0.984 . S
N778 H791 0.985 . S
N779 C781 1.356 . S
N779 H784 0.984 . S
N779 H785 0.985 . S
C780 C774 1.379 . S
C780 C777 1.363 . S
C780 N778 1.356 . S
C781 C775 1.363 . S
C781 C776 1.379 . S
C781 N779 1.356 . S
N782 C774 1.356 . S
N782 H788 0.984 . S
N782 H789 0.984 . S
N783 C776 1.356 . S
N783 H786 0.984 . S
N783 H787 0.985 . S
H784 N779 0.984 . S
H785 N779 0.985 . S
H786 N783 0.984 . S
H787 N783 0.985 . S
H788 N782 0.984 . S
H789 N782 0.984 . S
H790 N778 0.984 . S
H791 N778 0.985 . S
C792 C793 1.363 . S
C792 C798 1.379 . S
C792 N800 1.356 . S
C793 C792 1.363 . S
C793 C799 1.363 . S
C794 C795 1.363 . S
C794 C799 1.379 . S
C794 N801 1.356 . S
C795 C794 1.363 . S
C795 C798 1.363 . S
N796 C798 1.356 . S
N796 H808 0.984 . S
N796 H809 0.985 . S
N797 C799 1.356 . S
N797 H802 0.984 . S
N797 H803 0.985 . S
C798 C792 1.379 . S
C798 C795 1.363 . S
C798 N796 1.356 . S
C799 C793 1.363 . S
C799 C794 1.379 . S
C799 N797 1.356 . S
N800 C792 1.356 . S
N800 H806 0.984 . S
N800 H807 0.984 . S
N801 C794 1.356 . S
N801 H804 0.984 . S
N801 H805 0.985 . S
H802 N797 0.984 . S
H803 N797 0.985 . S
H804 N801 0.984 . S
H805 N801 0.985 . S
H806 N800 0.984 . S
H807 N800 0.984 . S
H808 N796 0.984 . S
H809 N796 0.985 . S
C810 C811 1.363 . S
C810 C816 1.379 . S
C810 N818 1.356 . S
C811 C810 1.363 . S
C811 C817 1.363 1_565 S
C812 C813 1.363 . S
C812 C817 1.379 . S
C812 N819 1.356 . S
C813 C812 1.363 . S
C813 C816 1.363 1_545 S
N814 C816 1.356 1_545 S
N814 H826 0.984 1_545 S
N814 H827 0.985 . S
N815 C817 1.357 1_565 S
N815 H820 0.997 . S
N815 H821 0.971 1_565 S
C816 C810 1.379 . S
C816 C813 1.363 1_565 S
C816 N814 1.356 1_565 S
C817 C811 1.363 1_545 S
C817 C812 1.379 . S
C817 N815 1.357 1_545 S
N818 C810 1.356 . S
N818 H824 0.984 . S
N818 H825 0.984 . S
N819 C812 1.356 . S
N819 H822 0.984 . S
N819 H823 0.985 . S
H820 N815 0.997 . S
H821 N815 0.971 1_545 S
H822 N819 0.984 . S
H823 N819 0.985 . S
H824 N818 0.984 . S
H825 N818 0.984 . S
H826 N814 0.984 1_565 S
H827 N814 0.985 . S
C828 C829 1.363 . S
C828 C834 1.379 1_655 S
C828 N836 1.356 . S
C829 C828 1.363 . S
C829 C835 1.363 1_655 S
C830 C831 1.363 . S
C830 C835 1.379 . S
C830 N837 1.356 . S
C831 C830 1.363 . S
C831 C834 1.363 . S
N832 C834 1.356 . S
N832 H844 0.984 . S
N832 H845 0.985 . S
N833 C835 1.356 1_655 S
N833 H838 0.984 . S
N833 H839 0.985 1_655 S
C834 C828 1.379 1_455 S
C834 C831 1.363 . S
C834 N832 1.356 . S
C835 C829 1.363 1_455 S
C835 C830 1.379 . S
C835 N833 1.356 1_455 S
N836 C828 1.356 . S
N836 H842 0.984 . S
N836 H843 0.984 . S
N837 C830 1.356 . S
N837 H840 0.984 . S
N837 H841 0.985 . S
H838 N833 0.984 . S
H839 N833 0.985 1_455 S
H840 N837 0.984 . S
H841 N837 0.985 . S
H842 N836 0.984 . S
H843 N836 0.984 . S
H844 N832 0.984 . S
H845 N832 0.985 . S
C361 C49 1.049 . S
C363 C26 1.217 . S
C379 C83 3.505 1_556 S
C381 C62 3.584 . S
C397 C106 1.147 . S
C399 C3 1.140 . S
C415 C102 3.197 . S
C417 C43 3.165 . S
C433 C89 2.471 . S
C435 C22 2.642 . S
C451 C9 0.779 . S
C453 C66 0.716 . S
C469 C146 3.053 . S
C471 C163 2.997 . S
C487 C203 1.133 . S
C489 C186 1.283 . S
C505 C226 0.973 . S
C507 C123 0.967 . S
C523 C169 0.797 . S
C525 C222 0.861 . S
C541 C209 2.499 . S
C543 C142 2.661 . S
C559 C182 2.508 . S
C561 C129 2.478 . S
C577 C289 0.999 . S
C579 C266 1.158 . S
C595 C302 3.602 . S
C597 C323 3.524 . S
C613 C346 1.157 . S
C615 C243 1.148 . S
C631 C342 3.128 . S
C633 C283 3.098 . S
C649 C329 2.481 1_545 S
C651 C262 2.654 1_565 S
C667 C249 0.789 . S
C669 C306 0.705 . S
C685 C215 2.327 . S
C687 C2 2.775 . S
C703 C135 1.988 . S
C705 C55 1.925 . S
C721 C82 3.254 . S
C723 C175 2.902 . S
C739 C95 2.337 . S
C741 C242 2.774 . S
C757 C15 1.882 . S
C759 C295 1.814 . S
C775 C322 3.175 . S
C777 C42 3.186 . S
C793 C122 2.862 . S
C795 C335 2.417 . S
C811 C162 2.110 . S
C813 C255 1.854 . S
C829 C282 3.097 . S
C831 C202 3.081 . S
