# Generated by pormake.
# Topology fny, (5)-cn, num edge types: 1
# Building blocks:
#     Node 0, Type 0, BuildingBlock: BEQFEK_clean_sbu_0, # of connection points: 5
#     Node 1, Type 0, BuildingBlock: BEQFEK_clean_sbu_0, # of connection points: 5
#     Node 2, Type 0, BuildingBlock: BEQFEK_clean_sbu_0, # of connection points: 5
#     Node 3, Type 0, BuildingBlock: BEQFEK_clean_sbu_0, # of connection points: 5
#     Node 4, Type 0, BuildingBlock: BEQFEK_clean_sbu_0, # of connection points: 5
#     Node 5, Type 0, BuildingBlock: BEQFEK_clean_sbu_0, # of connection points: 5
#     Node 6, Type 0, BuildingBlock: BEQFEK_clean_sbu_0, # of connection points: 5
#     Node 7, Type 0, BuildingBlock: BEQFEK_clean_sbu_0, # of connection points: 5
#     Node 8, Type 0, BuildingBlock: BEQFEK_clean_sbu_0, # of connection points: 5
#     Node 9, Type 0, BuildingBlock: BEQFEK_clean_sbu_0, # of connection points: 5
#     Node 10, Type 0, BuildingBlock: BEQFEK_clean_sbu_0, # of connection points: 5
#     Node 11, Type 0, BuildingBlock: BEQFEK_clean_sbu_0, # of connection points: 5
#     Edge 12, Type (0, 0), BuildingBlock: CIFDUS_clean_linker_0, # of connection points: 2
#     Edge 13, Type (0, 0), BuildingBlock: CIFDUS_clean_linker_0, # of connection points: 2
#     Edge 14, Type (0, 0), BuildingBlock: CIFDUS_clean_linker_0, # of connection points: 2
#     Edge 15, Type (0, 0), BuildingBlock: CIFDUS_clean_linker_0, # of connection points: 2
#     Edge 16, Type (0, 0), BuildingBlock: CIFDUS_clean_linker_0, # of connection points: 2
#     Edge 17, Type (0, 0), BuildingBlock: CIFDUS_clean_linker_0, # of connection points: 2
#     Edge 18, Type (0, 0), BuildingBlock: CIFDUS_clean_linker_0, # of connection points: 2
#     Edge 19, Type (0, 0), BuildingBlock: CIFDUS_clean_linker_0, # of connection points: 2
#     Edge 20, Type (0, 0), BuildingBlock: CIFDUS_clean_linker_0, # of connection points: 2
#     Edge 21, Type (0, 0), BuildingBlock: CIFDUS_clean_linker_0, # of connection points: 2
#     Edge 22, Type (0, 0), BuildingBlock: CIFDUS_clean_linker_0, # of connection points: 2
#     Edge 23, Type (0, 0), BuildingBlock: CIFDUS_clean_linker_0, # of connection points: 2
#     Edge 24, Type (0, 0), BuildingBlock: CIFDUS_clean_linker_0, # of connection points: 2
#     Edge 25, Type (0, 0), BuildingBlock: CIFDUS_clean_linker_0, # of connection points: 2
#     Edge 26, Type (0, 0), BuildingBlock: CIFDUS_clean_linker_0, # of connection points: 2
#     Edge 27, Type (0, 0), BuildingBlock: CIFDUS_clean_linker_0, # of connection points: 2
#     Edge 28, Type (0, 0), BuildingBlock: CIFDUS_clean_linker_0, # of connection points: 2
#     Edge 29, Type (0, 0), BuildingBlock: CIFDUS_clean_linker_0, # of connection points: 2
#     Edge 30, Type (0, 0), BuildingBlock: CIFDUS_clean_linker_0, # of connection points: 2
#     Edge 31, Type (0, 0), BuildingBlock: CIFDUS_clean_linker_0, # of connection points: 2
#     Edge 32, Type (0, 0), BuildingBlock: CIFDUS_clean_linker_0, # of connection points: 2
#     Edge 33, Type (0, 0), BuildingBlock: CIFDUS_clean_linker_0, # of connection points: 2
#     Edge 34, Type (0, 0), BuildingBlock: CIFDUS_clean_linker_0, # of connection points: 2
#     Edge 35, Type (0, 0), BuildingBlock: CIFDUS_clean_linker_0, # of connection points: 2
#     Edge 36, Type (0, 0), BuildingBlock: CIFDUS_clean_linker_0, # of connection points: 2
#     Edge 37, Type (0, 0), BuildingBlock: CIFDUS_clean_linker_0, # of connection points: 2
#     Edge 38, Type (0, 0), BuildingBlock: CIFDUS_clean_linker_0, # of connection points: 2
#     Edge 39, Type (0, 0), BuildingBlock: CIFDUS_clean_linker_0, # of connection points: 2
#     Edge 40, Type (0, 0), BuildingBlock: CIFDUS_clean_linker_0, # of connection points: 2
#     Edge 41, Type (0, 0), BuildingBlock: CIFDUS_clean_linker_0, # of connection points: 2
# Relax obj value: 0.296
# Max RMSD: 0.110
# Mean RMSD: 0.110
data_MOF--net-fny--node1-BEQFEK_clean_sbu_0--edge1-CIFDUS_clean_linker_0
_symmetry_space_group_name_H-M    P1
_symmetry_Int_Tables_number       1
_symmetry_cell_setting            triclinic
loop_
_symmetry_equiv_pos_as_xyz
'x, y, z'
_cell_length_a     54.054814
_cell_length_b     54.067037
_cell_length_c     21.129235
_cell_angle_alpha  90.047619
_cell_angle_beta   89.996213
_cell_angle_gamma 119.89796
loop_
_atom_site_label
_atom_site_type_symbol
_atom_site_fract_x
_atom_site_fract_y
_atom_site_fract_z
_atom_type_partial_charge
Co0 Co 0.42459 0.5398 0.31069 0.0
Co1 Co 0.38275 0.4935 0.22215 0.0
C2 C 0.42564 0.55422 0.17437 0.0
O3 O 0.43557 0.56254 0.22999 0.0
O4 O 0.40523 0.52863 0.16524 0.0
C5 C 0.44217 0.54951 0.43219 0.0
O6 O 0.43128 0.52178 0.42734 0.0
C7 C 0.33922 0.46532 0.12512 0.0
C8 C 0.32171 0.41972 0.14873 0.0
C9 C 0.31941 0.43796 0.10647 0.0
N10 N 0.35312 0.46348 0.17567 0.0
N11 N 0.34275 0.43619 0.1894 0.0
C12 C 0.34355 0.49279 0.09824 0.0
H13 H 0.35127 0.50947 0.1355 0.0
H14 H 0.32345 0.48999 0.0775 0.0
H15 H 0.35983 0.4999 0.06022 0.0
C16 C 0.36982 0.52731 0.37787 0.0
N17 N 0.38438 0.5228 0.33114 0.0
N18 N 0.36619 0.50142 0.29598 0.0
C19 C 0.33956 0.49116 0.32069 0.0
C20 C 0.34093 0.50703 0.37466 0.0
C21 C 0.38228 0.55272 0.42048 0.0
H22 H 0.40149 0.57057 0.39861 0.0
H23 H 0.36655 0.55979 0.42982 0.0
H24 H 0.38759 0.54672 0.4665 0.0
O25 O 0.43889 0.5117 0.30769 0.0
O26 O 0.40852 0.47803 0.24353 0.0
H27 H 0.29451 0.45978 0.3243 0.0
H28 H 0.30925 0.4719 0.24595 0.0
C29 C 0.31343 0.46627 0.29371 0.0
H30 H 0.31717 0.448 0.28831 0.0
H31 H 0.34979 0.42885 0.22712 0.0
O32 O 0.44422 0.56385 0.38288 0.0
C33 C 0.43051 0.48826 0.2786 0.0
Co34 Co 0.90836 0.41179 0.78323 0.0
Co35 Co 0.91043 0.36717 0.70358 0.0
C36 C 0.90203 0.41074 0.63904 0.0
O37 O 0.90555 0.4205 0.69466 0.0
O38 O 0.901 0.38688 0.63016 0.0
C39 C 0.87231 0.43354 0.79643 0.0
O40 O 0.85667 0.41336 0.75572 0.0
C41 C 0.89895 0.31981 0.62196 0.0
C42 C 0.92673 0.3043 0.66118 0.0
C43 C 0.90741 0.29974 0.61342 0.0
N44 N 0.91307 0.33602 0.67158 0.0
N45 N 0.92972 0.32679 0.69497 0.0
C46 C 0.87608 0.32219 0.58722 0.0
H47 H 0.86616 0.33125 0.61872 0.0
H48 H 0.85937 0.30104 0.56955 0.0
H49 H 0.88571 0.33667 0.54616 0.0
C50 C 0.86685 0.36241 0.86069 0.0
N51 N 0.88345 0.37362 0.80894 0.0
N52 N 0.88326 0.35326 0.77496 0.0
C53 C 0.86598 0.32795 0.80451 0.0
C54 C 0.85479 0.33277 0.86047 0.0
C55 C 0.86313 0.38021 0.90999 0.0
H56 H 0.84974 0.38847 0.89002 0.0
H57 H 0.85249 0.36794 0.95322 0.0
H58 H 0.88418 0.3988 0.92225 0.0
O59 O 0.94904 0.42438 0.80236 0.0
O60 O 0.951 0.39471 0.73265 0.0
H61 H 0.88304 0.30037 0.7891 0.0
H62 H 0.84565 0.28198 0.81029 0.0
C63 C 0.8625 0.30005 0.78297 0.0
H64 H 0.85714 0.29709 0.73182 0.0
H65 H 0.94293 0.33571 0.7343 0.0
O66 O 0.89496 0.43537 0.81959 0.0
C67 C 0.96332 0.41528 0.77199 0.0
Co68 Co 0.52644 0.89342 0.28994 0.0
Co69 Co 0.57968 0.898 0.22992 0.0
C70 C 0.52535 0.88034 0.15292 0.0
O71 O 0.51287 0.88118 0.20304 0.0
O72 O 0.55135 0.88599 0.15515 0.0
C73 C 0.4868 0.90918 0.3157 0.0
O74 O 0.49772 0.92362 0.26334 0.0
C75 C 0.61619 0.87886 0.17203 0.0
C76 C 0.65898 0.91727 0.17995 0.0
C77 C 0.64473 0.88955 0.15769 0.0
N78 N 0.61362 0.89918 0.20242 0.0
N79 N 0.63927 0.92203 0.20757 0.0
C80 C 0.59143 0.85086 0.15208 0.0
H81 H 0.57098 0.84903 0.16765 0.0
H82 H 0.5934 0.83311 0.17296 0.0
H83 H 0.59151 0.84878 0.09981 0.0
C84 C 0.53474 0.85495 0.38315 0.0
N85 N 0.54168 0.87184 0.33105 0.0
N86 N 0.5648 0.87394 0.30528 0.0
C87 C 0.57336 0.85858 0.34063 0.0
C88 C 0.55455 0.84566 0.39147 0.0
C89 C 0.50917 0.84732 0.42338 0.0
H90 H 0.49179 0.84669 0.39428 0.0
H91 H 0.50157 0.8264 0.44689 0.0
H92 H 0.51506 0.8639 0.46041 0.0
O93 O 0.55405 0.93553 0.28999 0.0
O94 O 0.59303 0.93886 0.24901 0.0
H95 H 0.60739 0.85141 0.37181 0.0
H96 H 0.59643 0.84219 0.29058 0.0
C97 C 0.60025 0.8578 0.3287 0.0
H98 H 0.61743 0.87908 0.31333 0.0
H99 H 0.64328 0.94113 0.22861 0.0
O100 O 0.49398 0.89117 0.33366 0.0
C101 C 0.5798 0.95066 0.27206 0.0
Co102 Co 0.66723 0.52801 0.82307 0.0
Co103 Co 0.70894 0.56555 0.72373 0.0
C104 C 0.66135 0.50662 0.68882 0.0
O105 O 0.65263 0.50412 0.74557 0.0
O106 O 0.68426 0.52905 0.67187 0.0
C107 C 0.63776 0.47782 0.89561 0.0
O108 O 0.64049 0.46471 0.84599 0.0
C109 C 0.75737 0.58866 0.63794 0.0
C110 C 0.77104 0.63467 0.63843 0.0
C111 C 0.77827 0.61506 0.61616 0.0
N112 N 0.73899 0.59257 0.67302 0.0
N113 N 0.74698 0.62001 0.67254 0.0
C114 C 0.75437 0.56003 0.62481 0.0
H115 H 0.73161 0.54391 0.6179 0.0
H116 H 0.76226 0.55325 0.66593 0.0
H117 H 0.76654 0.5606 0.58202 0.0
C118 C 0.72126 0.53952 0.89263 0.0
N119 N 0.70711 0.5421 0.84219 0.0
N120 N 0.72573 0.55944 0.80068 0.0
C121 C 0.75243 0.56879 0.82443 0.0
C122 C 0.75066 0.55646 0.88404 0.0
C123 C 0.70685 0.51963 0.94639 0.0
H124 H 0.69337 0.52653 0.97164 0.0
H125 H 0.6934 0.49792 0.92709 0.0
H126 H 0.72202 0.5187 0.98013 0.0
O127 O 0.65788 0.5591 0.8212 0.0
O128 O 0.68555 0.58449 0.74189 0.0
H129 H 0.77585 0.60689 0.76929 0.0
H130 H 0.79687 0.60138 0.82806 0.0
C131 C 0.77934 0.59065 0.7931 0.0
H132 H 0.7859 0.58011 0.7572 0.0
H133 H 0.73656 0.62889 0.69721 0.0
O134 O 0.64536 0.50403 0.89169 0.0
C135 C 0.66652 0.5799 0.78301 0.0
Co136 Co 0.18456 0.65234 0.29705 0.0
Co137 Co 0.1966 0.69837 0.20304 0.0
C138 C 0.20103 0.64801 0.16147 0.0
O139 O 0.19376 0.6395 0.21797 0.0
O140 O 0.20464 0.67237 0.14446 0.0
C141 C 0.20543 0.62366 0.36778 0.0
O142 O 0.22607 0.63386 0.32572 0.0
C143 C 0.21571 0.74671 0.11452 0.0
C144 C 0.19624 0.7697 0.16095 0.0
C145 C 0.21274 0.77072 0.11005 0.0
N146 N 0.20125 0.73198 0.1656 0.0
N147 N 0.18952 0.74568 0.19282 0.0
C148 C 0.23402 0.7392 0.07505 0.0
H149 H 0.24021 0.72562 0.10236 0.0
H150 H 0.25345 0.75876 0.05883 0.0
H151 H 0.22175 0.72709 0.03281 0.0
C152 C 0.22848 0.70207 0.37496 0.0
N153 N 0.21242 0.69051 0.32242 0.0
N154 N 0.22001 0.7104 0.27937 0.0
C155 C 0.24214 0.73509 0.30249 0.0
C156 C 0.24865 0.73068 0.36439 0.0
C157 C 0.2227 0.68709 0.4371 0.0
H158 H 0.19989 0.67051 0.44014 0.0
H159 H 0.23634 0.67729 0.44171 0.0
H160 H 0.22793 0.70238 0.47679 0.0
O161 O 0.14536 0.64506 0.29174 0.0
O162 O 0.15384 0.67808 0.2204 0.0
H163 H 0.24548 0.77382 0.269 0.0
H164 H 0.27937 0.77592 0.28335 0.0
C165 C 0.2574 0.76209 0.26519 0.0
H166 H 0.25821 0.75713 0.21455 0.0
H167 H 0.17737 0.73887 0.23416 0.0
O168 O 0.18402 0.62686 0.35925 0.0
C169 C 0.13648 0.65765 0.25561 0.0
Co170 Co 0.57278 0.16975 0.79424 0.0
Co171 Co 0.52671 0.17579 0.7259 0.0
C172 C 0.58296 0.18849 0.66021 0.0
O173 O 0.59234 0.18408 0.71172 0.0
O174 O 0.55818 0.18625 0.65848 0.0
C175 C 0.59874 0.14195 0.84848 0.0
O176 O 0.58987 0.12591 0.79758 0.0
C177 C 0.49873 0.20433 0.66636 0.0
C178 C 0.45331 0.17391 0.6874 0.0
C179 C 0.47145 0.20039 0.66176 0.0
N180 N 0.497 0.18153 0.69548 0.0
N181 N 0.46979 0.16328 0.70728 0.0
C182 C 0.52592 0.22918 0.64283 0.0
H183 H 0.54308 0.22369 0.63996 0.0
H184 H 0.53293 0.24753 0.6755 0.0
H185 H 0.52244 0.23592 0.59562 0.0
C186 C 0.5661 0.20804 0.89118 0.0
N187 N 0.56028 0.19386 0.83508 0.0
N188 N 0.54021 0.19631 0.80576 0.0
C189 C 0.53249 0.212 0.84251 0.0
C190 C 0.5486 0.22021 0.89849 0.0
C191 C 0.58645 0.20788 0.93892 0.0
H192 H 0.57985 0.18553 0.9514 0.0
H193 H 0.60806 0.21752 0.91769 0.0
H194 H 0.58721 0.21962 0.9826 0.0
O195 O 0.5412 0.12929 0.78298 0.0
O196 O 0.50671 0.13362 0.73871 0.0
H197 H 0.4896 0.19961 0.81614 0.0
H198 H 0.50753 0.23289 0.85958 0.0
C199 C 0.51026 0.21944 0.8239 0.0
H200 H 0.51673 0.23157 0.77915 0.0
H201 H 0.4625 0.14389 0.73069 0.0
O202 O 0.59825 0.16519 0.8505 0.0
C203 C 0.51606 0.11802 0.76081 0.0
Co204 Co 0.52568 0.66646 0.76154 0.0
Co205 Co 0.57548 0.71124 0.83593 0.0
C206 C 0.52222 0.66771 0.90414 0.0
O207 O 0.51176 0.6573 0.85034 0.0
O208 O 0.54696 0.68989 0.90755 0.0
C209 C 0.46764 0.63989 0.72232 0.0
O210 O 0.46423 0.65705 0.76074 0.0
C211 C 0.61035 0.75533 0.92577 0.0
C212 C 0.65382 0.77329 0.88602 0.0
C213 C 0.63871 0.77484 0.93722 0.0
N214 N 0.60864 0.74213 0.87106 0.0
N215 N 0.63465 0.75284 0.8474 0.0
C216 C 0.58501 0.75043 0.96413 0.0
H217 H 0.56619 0.74367 0.93297 0.0
H218 H 0.58937 0.77004 0.99016 0.0
H219 H 0.58007 0.73327 0.99907 0.0
C220 C 0.53447 0.71714 0.68397 0.0
N221 N 0.54009 0.70511 0.73417 0.0
N222 N 0.56138 0.72501 0.76677 0.0
C223 C 0.56964 0.75061 0.73873 0.0
C224 C 0.55294 0.74665 0.6845 0.0
C225 C 0.51111 0.70058 0.63735 0.0
H226 H 0.51093 0.68062 0.62423 0.0
H227 H 0.49045 0.69483 0.65998 0.0
H228 H 0.51313 0.71299 0.59411 0.0
O229 O 0.5538 0.65327 0.74588 0.0
O230 O 0.58917 0.68508 0.805 0.0
H231 H 0.61428 0.77703 0.75517 0.0
H232 H 0.59649 0.7966 0.73414 0.0
C233 C 0.59442 0.77806 0.76104 0.0
H234 H 0.59195 0.78089 0.81224 0.0
H235 H 0.63932 0.74609 0.80502 0.0
O236 O 0.49193 0.64203 0.71472 0.0
C237 C 0.57862 0.66308 0.76963 0.0
Co238 Co 0.90729 0.51983 0.20473 0.0
Co239 Co 0.91394 0.56344 0.30108 0.0
C240 C 0.89786 0.50057 0.3352 0.0
O241 O 0.89579 0.49343 0.27715 0.0
O242 O 0.9046 0.52623 0.35031 0.0
C243 C 0.91481 0.51875 0.08062 0.0
O244 O 0.92969 0.54612 0.09366 0.0
C245 C 0.89498 0.584 0.40566 0.0
C246 C 0.92436 0.63065 0.40196 0.0
C247 C 0.90151 0.60941 0.43483 0.0
N248 N 0.91342 0.58978 0.35826 0.0
N249 N 0.93117 0.61762 0.35645 0.0
C250 C 0.87011 0.55498 0.41847 0.0
H251 H 0.86467 0.5414 0.37554 0.0
H252 H 0.85126 0.55648 0.43387 0.0
H253 H 0.87585 0.54482 0.457 0.0
C254 C 0.86402 0.53347 0.14948 0.0
N255 N 0.88372 0.53697 0.19358 0.0
N256 N 0.88803 0.55792 0.23142 0.0
C257 C 0.87209 0.56939 0.21032 0.0
C258 C 0.85648 0.55448 0.15628 0.0
C259 C 0.84924 0.50804 0.10723 0.0
H260 H 0.852 0.49031 0.12512 0.0
H261 H 0.82609 0.50077 0.1047 0.0
H262 H 0.85791 0.51408 0.05877 0.0
O263 O 0.94962 0.54664 0.21309 0.0
O264 O 0.95448 0.58202 0.27337 0.0
H265 H 0.86451 0.60502 0.20733 0.0
H266 H 0.85874 0.58748 0.28314 0.0
C267 C 0.87247 0.59461 0.24036 0.0
H268 H 0.89447 0.61025 0.25552 0.0
H269 H 0.94745 0.62778 0.32319 0.0
O270 O 0.90382 0.50088 0.12548 0.0
C271 C 0.96546 0.57059 0.23961 0.0
Co272 Co 0.43979 0.89015 0.71765 0.0
Co273 Co 0.39175 0.89378 0.7822 0.0
C274 C 0.4315 0.87757 0.85383 0.0
O275 O 0.44391 0.87782 0.80266 0.0
O276 O 0.41105 0.88312 0.85311 0.0
C277 C 0.49114 0.9134 0.65921 0.0
O278 O 0.50243 0.93008 0.70859 0.0
C279 C 0.33658 0.86755 0.84117 0.0
C280 C 0.32465 0.90118 0.837 0.0
C281 C 0.31488 0.87317 0.85451 0.0
N282 N 0.35803 0.89085 0.81493 0.0
N283 N 0.35094 0.91098 0.81253 0.0
C284 C 0.33753 0.8409 0.8554 0.0
H285 H 0.33572 0.83718 0.90727 0.0
H286 H 0.35766 0.84259 0.83795 0.0
H287 H 0.31924 0.82222 0.83283 0.0
C288 C 0.39141 0.85066 0.62701 0.0
N289 N 0.40224 0.86746 0.67926 0.0
N290 N 0.38186 0.8704 0.70583 0.0
C291 C 0.3578 0.85638 0.67021 0.0
C292 C 0.36276 0.84307 0.61877 0.0
C293 C 0.40834 0.8431 0.58312 0.0
H294 H 0.40862 0.85167 0.53527 0.0
H295 H 0.43043 0.85154 0.60032 0.0
H296 H 0.39797 0.81957 0.57881 0.0
O297 O 0.45234 0.93217 0.72137 0.0
O298 O 0.41651 0.935 0.76322 0.0
H299 H 0.33456 0.87707 0.69918 0.0
H300 H 0.3151 0.84762 0.64538 0.0
C301 C 0.33032 0.85551 0.68539 0.0
H302 H 0.31994 0.84076 0.72549 0.0
H303 H 0.36393 0.93131 0.79383 0.0
O304 O 0.46899 0.88917 0.66656 0.0
C305 C 0.44145 0.94708 0.73983 0.0
Co306 Co 0.57621 0.40716 0.25345 0.0
Co307 Co 0.52744 0.36065 0.32656 0.0
C308 C 0.57994 0.40162 0.39609 0.0
O309 O 0.58862 0.41299 0.34235 0.0
O310 O 0.5556 0.37905 0.40105 0.0
C311 C 0.63576 0.44882 0.23477 0.0
O312 O 0.63815 0.45611 0.29462 0.0
C313 C 0.48355 0.32364 0.41507 0.0
C314 C 0.45333 0.28828 0.35427 0.0
C315 C 0.45871 0.29695 0.4172 0.0
N316 N 0.49286 0.32909 0.35517 0.0
N317 N 0.474 0.3086 0.31856 0.0
C318 C 0.49654 0.34577 0.466 0.0
H319 H 0.50747 0.36741 0.44481 0.0
H320 H 0.51258 0.3428 0.49261 0.0
H321 H 0.47988 0.34453 0.49864 0.0
C322 C 0.56997 0.35935 0.17214 0.0
N323 N 0.56239 0.36944 0.22268 0.0
N324 N 0.54271 0.34817 0.25557 0.0
C325 C 0.53811 0.3234 0.22765 0.0
C326 C 0.55514 0.32954 0.173 0.0
C327 C 0.58993 0.37822 0.12176 0.0
H328 H 0.5881 0.39765 0.11626 0.0
H329 H 0.61215 0.38486 0.13582 0.0
H330 H 0.58533 0.36697 0.0756 0.0
O331 O 0.54862 0.42087 0.23853 0.0
O332 O 0.51471 0.38857 0.29979 0.0
H333 H 0.49901 0.28365 0.23078 0.0
H334 H 0.5301 0.28113 0.24807 0.0
C335 C 0.51993 0.29438 0.25534 0.0
H336 H 0.51655 0.29589 0.30666 0.0
H337 H 0.47555 0.30821 0.26935 0.0
O338 O 0.61168 0.43105 0.21112 0.0
C339 C 0.52431 0.41071 0.26498 0.0
Co340 Co 0.19221 0.54087 0.73897 0.0
Co341 Co 0.1866 0.49276 0.82006 0.0
C342 C 0.2051 0.54979 0.87873 0.0
O343 O 0.20287 0.55713 0.82337 0.0
O344 O 0.19972 0.52431 0.88888 0.0
C345 C 0.20602 0.59762 0.71418 0.0
O346 O 0.19588 0.59792 0.77044 0.0
C347 C 0.20578 0.45953 0.88919 0.0
C348 C 0.16832 0.41593 0.88759 0.0
C349 C 0.19631 0.43172 0.90795 0.0
N350 N 0.1846 0.46019 0.85798 0.0
N351 N 0.16221 0.43413 0.85702 0.0
C352 C 0.23376 0.48553 0.90436 0.0
H353 H 0.23482 0.50493 0.8841 0.0
H354 H 0.25168 0.48347 0.885 0.0
H355 H 0.23654 0.48779 0.95649 0.0
C356 C 0.22984 0.52791 0.65852 0.0
N357 N 0.2132 0.52362 0.70994 0.0
N358 N 0.21137 0.50247 0.7439 0.0
C359 C 0.2269 0.49236 0.71394 0.0
C360 C 0.23932 0.50816 0.65846 0.0
C361 C 0.2376 0.55167 0.61237 0.0
H362 H 0.24695 0.5722 0.63843 0.0
H363 H 0.25318 0.553 0.57654 0.0
H364 H 0.21799 0.5486 0.58841 0.0
O365 O 0.15004 0.51487 0.73162 0.0
O366 O 0.14574 0.48096 0.79722 0.0
H367 H 0.23439 0.45735 0.6954 0.0
H368 H 0.24507 0.47339 0.77246 0.0
C369 C 0.22854 0.46684 0.73522 0.0
H370 H 0.20776 0.45054 0.75505 0.0
H371 H 0.14279 0.42876 0.83553 0.0
O372 O 0.20376 0.57478 0.69154 0.0
C373 C 0.13453 0.49157 0.76105 0.0
Co374 Co 0.67081 0.17442 0.2342 0.0
Co375 Co 0.72316 0.17848 0.29583 0.0
C376 C 0.68095 0.19111 0.36881 0.0
O377 O 0.66696 0.18783 0.31824 0.0
O378 O 0.70322 0.18836 0.36788 0.0
C379 C 0.6149 0.14926 0.19731 0.0
O380 O 0.61119 0.13555 0.25084 0.0
C381 C 0.78086 0.2079 0.34613 0.0
C382 C 0.79216 0.17377 0.34616 0.0
C383 C 0.80272 0.20236 0.3593 0.0
N384 N 0.75853 0.18382 0.3247 0.0
N385 N 0.76538 0.16349 0.32451 0.0
C386 C 0.7803 0.23494 0.35769 0.0
H387 H 0.75839 0.23143 0.35175 0.0
H388 H 0.79462 0.2515 0.32364 0.0
H389 H 0.78824 0.24297 0.4061 0.0
C390 C 0.71429 0.2137 0.13706 0.0
N391 N 0.70678 0.19871 0.19196 0.0
N392 N 0.72948 0.19975 0.21711 0.0
C393 C 0.75206 0.21476 0.17776 0.0
C394 C 0.74354 0.22467 0.12532 0.0
C395 C 0.69362 0.21755 0.09705 0.0
H396 H 0.67701 0.21789 0.12727 0.0
H397 H 0.70467 0.23764 0.06942 0.0
H398 H 0.68292 0.19928 0.06386 0.0
O399 O 0.66163 0.13356 0.24086 0.0
O400 O 0.70076 0.1367 0.28043 0.0
H401 H 0.7911 0.21911 0.13939 0.0
H402 H 0.79433 0.23521 0.21575 0.0
C403 C 0.78043 0.21655 0.18573 0.0
H404 H 0.77779 0.19699 0.20875 0.0
H405 H 0.75176 0.14256 0.30978 0.0
O406 O 0.63922 0.17045 0.18431 0.0
C407 C 0.67554 0.12169 0.2595 0.0
H408 H 0.47402 0.60777 0.17162 0.0
H409 H 0.40798 0.54539 0.05066 0.0
H410 H 0.43085 0.57543 0.95868 0.0
H411 H 0.47061 0.61824 0.91085 0.0
H412 H 0.53763 0.68054 0.02987 0.0
H413 H 0.51332 0.65195 0.12351 0.0
C414 C 0.46443 0.60078 0.12527 0.0
C415 C 0.43907 0.57402 0.11883 0.0
C416 C 0.47799 0.61823 0.07174 0.0
C417 C 0.42732 0.56562 0.05782 0.0
C418 C 0.44047 0.58287 1.00484 0.0
C419 C 0.47992 0.62586 0.95723 0.0
C420 C 0.50616 0.6518 0.96259 0.0
C421 C 0.46597 0.60906 1.011 0.0
C422 C 0.51758 0.6609 0.02364 0.0
C423 C 0.50366 0.64441 0.07743 0.0
H424 H 0.89363 0.40108 0.50772 0.0
H425 H 0.9053 0.46215 0.65343 0.0
H426 H 0.90398 0.49401 0.57537 0.0
H427 H 0.90123 0.50651 0.46505 0.0
H428 H 0.88864 0.44622 0.31743 0.0
H429 H 0.88839 0.41291 0.39571 0.0
C430 C 0.89577 0.42127 0.52241 0.0
C431 C 0.89978 0.4288 0.58725 0.0
C432 C 0.89484 0.44011 0.47646 0.0
C433 C 0.90234 0.45529 0.60448 0.0
C434 C 0.90158 0.47385 0.55958 0.0
C435 C 0.89817 0.48601 0.44983 0.0
C436 C 0.89502 0.47925 0.38482 0.0
C437 C 0.89807 0.46671 0.49534 0.0
C438 C 0.8911 0.45234 0.36683 0.0
C439 C 0.89105 0.43313 0.4118 0.0
H440 H 0.47231 0.87371 0.13363 0.0
H441 H 0.54333 0.87719 0.03231 0.0
H442 H 0.51959 0.87456 0.93168 0.0
H443 H 0.48012 0.8744 0.87227 0.0
H444 H 0.41013 0.87283 0.97423 0.0
H445 H 0.43201 0.87143 0.07454 0.0
C446 C 0.48261 0.87358 0.0897 0.0
C447 C 0.50981 0.87567 0.09117 0.0
C448 C 0.46901 0.87256 0.03186 0.0
C449 C 0.52254 0.87557 0.03319 0.0
C450 C 0.50895 0.87416 0.97546 0.0
C451 C 0.46936 0.8734 0.9163 0.0
C452 C 0.44329 0.87373 0.9151 0.0
C453 C 0.48238 0.87309 0.97415 0.0
C454 C 0.43005 0.87261 0.97315 0.0
C455 C 0.44265 0.87188 0.03072 0.0
H456 H 0.56484 0.4091 0.5171 0.0
H457 H 0.63769 0.42973 0.39933 0.0
H458 H 0.66942 0.46428 0.47717 0.0
H459 H 0.67663 0.4917 0.57608 0.0
H460 H 0.60425 0.4693 0.69712 0.0
H461 H 0.57281 0.43295 0.62186 0.0
C462 C 0.58771 0.4206 0.50926 0.0
C463 C 0.59867 0.41694 0.45162 0.0
C464 C 0.60616 0.44073 0.5548 0.0
C465 C 0.62847 0.43238 0.4425 0.0
C466 C 0.64675 0.45227 0.48713 0.0
C467 C 0.65401 0.47881 0.58609 0.0
C468 C 0.64301 0.48367 0.6423 0.0
C469 C 0.63584 0.45728 0.54282 0.0
C470 C 0.61356 0.46628 0.65445 0.0
C471 C 0.5954 0.44534 0.61125 0.0
H472 H 0.22501 0.6571 0.04078 0.0
H473 H 0.18048 0.59137 0.18062 0.0
H474 H 0.1801 0.55582 0.11012 0.0
H475 H 0.18942 0.54183 1.00521 0.0
H476 H 0.2353 0.60739 0.8663 0.0
H477 H 0.23836 0.64371 0.93918 0.0
C478 C 0.21536 0.63506 0.05593 0.0
C479 C 0.20266 0.62731 0.11631 0.0
C480 C 0.21541 0.61423 1.01495 0.0
C481 C 0.19049 0.59842 0.13473 0.0
C482 C 0.1902 0.57778 0.09425 0.0
C483 C 0.20069 0.56411 0.99146 0.0
C484 C 0.21185 0.57156 0.9298 0.0
C485 C 0.20231 0.58525 0.03387 0.0
C486 C 0.22615 0.60074 0.91307 0.0
C487 C 0.22788 0.6217 0.95479 0.0
H488 H 0.63428 0.19786 0.38461 0.0
H489 H 0.6995 0.19245 0.49131 0.0
H490 H 0.67603 0.19295 0.59014 0.0
H491 H 0.63515 0.19161 0.64638 0.0
H492 H 0.5697 0.19628 0.53881 0.0
H493 H 0.59518 0.19949 0.44081 0.0
C494 C 0.64369 0.19711 0.42938 0.0
C495 C 0.66884 0.19505 0.42979 0.0
C496 C 0.62984 0.19708 0.48624 0.0
C497 C 0.68038 0.19412 0.48886 0.0
C498 C 0.66682 0.19427 0.54562 0.0
C499 C 0.62651 0.19365 0.60165 0.0
C500 C 0.60023 0.1936 0.6007 0.0
C501 C 0.64125 0.19526 0.54494 0.0
C502 C 0.58968 0.19624 0.54171 0.0
C503 C 0.60428 0.19801 0.48536 0.0
H504 H 0.65858 0.43038 0.14701 0.0
H505 H 0.66086 0.50593 0.21852 0.0
H506 H 0.65635 0.51992 0.11136 0.0
H507 H 0.63941 0.50402 1.00473 0.0
H508 H 0.63739 0.42863 0.92957 0.0
H509 H 0.64994 0.41859 0.03403 0.0
C510 C 0.65963 0.45067 0.13826 0.0
C511 C 0.65778 0.46614 0.18952 0.0
C512 C 0.65391 0.45671 0.07766 0.0
C513 C 0.66106 0.49317 0.17913 0.0
C514 C 0.65723 0.50051 0.1183 0.0
C515 C 0.64163 0.48529 1.01081 0.0
C516 C 0.6375 0.46709 0.95948 0.0
C517 C 0.65114 0.48109 0.06862 0.0
C518 C 0.64019 0.44281 0.96857 0.0
C519 C 0.64816 0.43753 0.02761 0.0
H520 H 0.17289 0.61805 0.46843 0.0
H521 H 0.25154 0.6211 0.41426 0.0
H522 H 0.26471 0.62395 0.52623 0.0
H523 H 0.25136 0.62206 0.63802 0.0
H524 H 0.17385 0.62157 0.68765 0.0
H525 H 0.16488 0.62621 0.57651 0.0
C526 C 0.19306 0.61945 0.4805 0.0
C527 C 0.21121 0.61924 0.43318 0.0
C528 C 0.20156 0.62373 0.54319 0.0
C529 C 0.2371 0.62089 0.45008 0.0
C530 C 0.24494 0.62326 0.51366 0.0
C531 C 0.23338 0.62458 0.62428 0.0
C532 C 0.21246 0.62011 0.66916 0.0
C533 C 0.2273 0.6248 0.56037 0.0
C534 C 0.18981 0.62439 0.65291 0.0
C535 C 0.18416 0.62595 0.5894 0.0
H536 H 0.62859 0.12135 0.11529 0.0
H537 H 0.56474 0.14439 0.15771 0.0
H538 H 0.54809 0.13485 0.04772 0.0
H539 H 0.56104 0.13329 0.93788 0.0
H540 H 0.63187 0.12082 0.89371 0.0
H541 H 0.63634 0.11191 1.00597 0.0
C542 C 0.61025 0.12307 0.10053 0.0
C543 C 0.59785 0.13369 0.14299 0.0
C544 C 0.6027 0.12 0.03682 0.0
C545 C 0.57431 0.13615 0.12497 0.0
C546 C 0.56513 0.13103 0.06222 0.0
C547 C 0.57703 0.12799 0.9531 0.0
C548 C 0.59679 0.12856 0.9093 0.0
C549 C 0.5806 0.12504 0.01729 0.0
C550 C 0.61687 0.12086 0.92766 0.0
C551 C 0.61945 0.11599 0.99155 0.0
H552 H 0.44442 0.58376 0.71553 0.0
H553 H 0.44435 0.65553 0.62793 0.0
H554 H 0.43805 0.63339 0.52389 0.0
H555 H 0.44376 0.59924 0.45854 0.0
H556 H 0.44335 0.52684 0.54606 0.0
H557 H 0.44083 0.54477 0.65053 0.0
C558 C 0.44136 0.59367 0.67383 0.0
C559 C 0.44567 0.62137 0.67814 0.0
C560 C 0.43982 0.58176 0.61445 0.0
C561 C 0.44142 0.63423 0.62494 0.0
C562 C 0.43869 0.62198 0.56544 0.0
C563 C 0.44299 0.58728 0.50037 0.0
C564 C 0.44408 0.56196 0.49483 0.0
C565 C 0.44005 0.59684 0.55966 0.0
C566 C 0.4429 0.54661 0.54939 0.0
C567 C 0.44097 0.55654 0.60891 0.0
H568 H 0.86762 0.47093 0.0437 0.0
H569 H 0.94099 0.54698 0.97255 0.0
H570 H 0.92584 0.53086 0.86386 0.0
H571 H 0.89736 0.49029 0.79379 0.0
H572 H 0.82444 0.41512 0.8667 0.0
H573 H 0.83162 0.43743 0.97052 0.0
C574 C 0.88006 0.48429 1.00454 0.0
C575 C 0.90575 0.50964 1.0156 0.0
C576 C 0.87059 0.47565 0.94306 0.0
C577 C 0.92144 0.527 0.96463 0.0
C578 C 0.91259 0.51805 0.90278 0.0
C579 C 0.88204 0.47968 0.83159 0.0
C580 C 0.86175 0.45075 0.8254 0.0
C581 C 0.88779 0.49186 0.89173 0.0
C582 C 0.84099 0.4372 0.87223 0.0
C583 C 0.84562 0.4496 0.93193 0.0
H584 H 0.52457 0.95219 0.38393 0.0
H585 H 0.43442 0.89428 0.36313 0.0
H586 H 0.42734 0.89834 0.47617 0.0
H587 H 0.4489 0.90519 0.58034 0.0
H588 H 0.54038 0.95277 0.60158 0.0
H589 H 0.54542 0.9663 0.48947 0.0
C590 C 0.50324 0.94173 0.40404 0.0
C591 C 0.48001 0.92277 0.36665 0.0
C592 C 0.50007 0.94126 0.46958 0.0
C593 C 0.45243 0.90898 0.39181 0.0
C594 C 0.44858 0.91083 0.45646 0.0
C595 C 0.46994 0.91864 0.56038 0.0
C596 C 0.49441 0.92673 0.59731 0.0
C597 C 0.47257 0.92466 0.49598 0.0
C598 C 0.52143 0.94561 0.57279 0.0
C599 C 0.52423 0.9533 0.50902 0.0
H600 H 0.24757 0.43868 0.87793 0.0
H601 H 0.18103 0.40172 0.01805 0.0
H602 H 0.21298 0.39513 0.08976 0.0
H603 H 0.26233 0.40852 0.119 0.0
H604 H 0.32984 0.45109 0.98255 0.0
H605 H 0.29533 0.44722 0.90265 0.0
C606 C 0.24015 0.42907 0.92413 0.0
C607 C 0.21259 0.42154 0.9441 0.0
C608 C 0.25895 0.42674 0.96568 0.0
C609 C 0.20244 0.40791 1.00248 0.0
C610 C 0.22074 0.40439 0.04347 0.0
C611 C 0.26917 0.41616 0.07116 0.0
C612 C 0.29828 0.43018 0.05605 0.0
C613 C 0.24941 0.41498 0.02665 0.0
C614 C 0.30736 0.44036 0.99458 0.0
C615 C 0.28772 0.43822 0.94921 0.0
H616 H 0.90425 0.30606 0.48868 0.0
H617 H 0.88532 0.24288 0.63297 0.0
H618 H 0.85431 0.20494 0.55925 0.0
H619 H 0.82514 0.19175 0.46228 0.0
H620 H 0.84132 0.25606 0.32237 0.0
H621 H 0.88095 0.2918 0.38549 0.0
C622 C 0.89379 0.28387 0.5032 0.0
C623 C 0.89621 0.27701 0.56591 0.0
C624 C 0.87514 0.26262 0.46179 0.0
C625 C 0.88337 0.24839 0.58466 0.0
C626 C 0.86548 0.22683 0.54281 0.0
C627 C 0.83793 0.21344 0.44508 0.0
C628 C 0.8301 0.22175 0.38921 0.0
C629 C 0.86002 0.23393 0.48253 0.0
C630 C 0.84665 0.24967 0.36653 0.0
C631 C 0.8693 0.26999 0.40236 0.0
H632 H 0.64113 0.83905 0.17976 0.0
H633 H 0.67437 0.9091 0.04818 0.0
H634 H 0.68201 0.88031 0.96936 0.0
H635 H 0.66886 0.83214 0.93143 0.0
H636 H 0.63193 0.76142 0.06141 0.0
H637 H 0.63647 0.7934 0.14802 0.0
C638 C 0.65062 0.84806 0.13422 0.0
C639 C 0.65654 0.8756 0.11851 0.0
C640 C 0.65398 0.83113 0.08894 0.0
C641 C 0.6695 0.88769 0.06051 0.0
C642 C 0.67364 0.8712 1.01546 0.0
C643 C 0.66289 0.82409 0.97931 0.0
C644 C 0.6497 0.7947 0.99058 0.0
C645 C 0.66449 0.84243 0.02804 0.0
C646 C 0.64185 0.78411 0.05226 0.0
C647 C 0.64428 0.8023 0.10148 0.0
H648 H 0.81351 0.59477 0.64226 0.0
H649 H 0.80241 0.65139 0.51712 0.0
H650 H 0.84363 0.65849 0.45439 0.0
H651 H 0.87845 0.64329 0.42794 0.0
H652 H 0.8864 0.58348 0.54891 0.0
H653 H 0.85062 0.58272 0.62108 0.0
C654 C 0.82004 0.60848 0.60095 0.0
C655 C 0.80456 0.62171 0.58245 0.0
C656 C 0.84307 0.61179 0.56472 0.0
C657 C 0.8139 0.64061 0.53108 0.0
C658 C 0.83733 0.6446 0.49535 0.0
C659 C 0.87275 0.6307 0.47099 0.0
C660 C 0.8846 0.61333 0.48354 0.0
C661 C 0.85149 0.62959 0.51066 0.0
C662 C 0.87716 0.59681 0.53874 0.0
C663 C 0.85674 0.59631 0.57964 0.0
H664 H 0.21633 0.76724 0.98358 0.0
H665 H 0.24005 0.82718 0.13756 0.0
H666 H 0.27044 0.86645 0.06655 0.0
H667 H 0.29637 0.88185 0.96551 0.0
H668 H 0.27421 0.8213 0.81342 0.0
H669 H 0.23674 0.78399 0.8783 0.0
C670 C 0.22803 0.78897 1.00118 0.0
C671 C 0.2269 0.79446 0.0655 0.0
C672 C 0.24573 0.81115 0.96054 0.0
C673 C 0.2411 0.82263 0.08799 0.0
C674 C 0.25849 0.845 0.04759 0.0
C675 C 0.28264 0.86069 0.94627 0.0
C676 C 0.28804 0.85382 0.88594 0.0
C677 C 0.26185 0.8393 0.98443 0.0
C678 C 0.27044 0.82657 0.86062 0.0
C679 C 0.24918 0.80533 0.8976 0.0
H680 H 0.43132 0.19043 0.57376 0.0
H681 H 0.49321 0.25545 0.69681 0.0
H682 H 0.48827 0.29202 0.64006 0.0
H683 H 0.47438 0.30546 0.54444 0.0
H684 H 0.4152 0.2415 0.41463 0.0
H685 H 0.40965 0.20429 0.4876 0.0
C686 C 0.4431 0.21255 0.58882 0.0
C687 C 0.46343 0.22071 0.63721 0.0
C688 C 0.44071 0.23352 0.55484 0.0
C689 C 0.4783 0.24913 0.65773 0.0
C690 C 0.47532 0.26993 0.62565 0.0
C691 C 0.45997 0.28378 0.53117 0.0
C692 C 0.44684 0.27668 0.47134 0.0
C693 C 0.45791 0.2625 0.57183 0.0
C694 C 0.42668 0.24785 0.45909 0.0
C695 C 0.42358 0.22641 0.50066 0.0
H696 H 0.75769 0.56591 1.01397 0.0
H697 H 0.79743 0.5522 0.8512 0.0
H698 H 0.83398 0.55206 0.91937 0.0
H699 H 0.85385 0.5537 0.02598 0.0
H700 H 0.81313 0.56506 0.1899 0.0
H701 H 0.77829 0.5684 0.12125 0.0
C702 C 0.77429 0.56279 0.99331 0.0
C703 C 0.77437 0.5588 0.92682 0.0
C704 C 0.79523 0.56226 0.03342 0.0
C705 C 0.79663 0.55546 0.90156 0.0
C706 C 0.81753 0.55518 0.94084 0.0
C707 C 0.83726 0.5567 0.04701 0.0
C708 C 0.8363 0.55891 0.11382 0.0
C709 C 0.8169 0.55818 1.00695 0.0
C710 C 0.81487 0.56356 0.13916 0.0
C711 C 0.7947 0.56526 0.09967 0.0
H712 H 0.26907 0.78773 0.39809 0.0
H713 H 0.28368 0.71734 0.43061 0.0
H714 H 0.31961 0.74498 0.51015 0.0
H715 H 0.34614 0.78873 0.5752 0.0
H716 H 0.33405 0.86039 0.53966 0.0
H717 H 0.29865 0.83319 0.45782 0.0
C718 C 0.28035 0.77855 0.42196 0.0
C719 C 0.2729 0.74997 0.40853 0.0
C720 C 0.30162 0.79493 0.46808 0.0
C721 C 0.28805 0.73879 0.4406 0.0
C722 C 0.30892 0.75475 0.48616 0.0
C723 C 0.33607 0.79857 0.54904 0.0
C724 C 0.34264 0.82661 0.56493 0.0
C725 C 0.31573 0.78275 0.50111 0.0
C726 C 0.3291 0.83872 0.52997 0.0
C727 C 0.30885 0.82314 0.48268 0.0
H728 H 0.51344 0.27863 0.11854 0.0
H729 H 0.60447 0.33521 0.1229 0.0
H730 H 0.61078 0.3072 0.04055 0.0
H731 H 0.59052 0.26743 0.96244 0.0
H732 H 0.49992 0.20897 0.96233 0.0
H733 H 0.49357 0.23635 0.04671 0.0
C734 C 0.53471 0.28466 0.10225 0.0
C735 C 0.55836 0.3097 0.12682 0.0
C736 C 0.53834 0.268 0.0546 0.0
C737 C 0.58567 0.31677 0.10425 0.0
C738 C 0.58938 0.30054 0.05706 0.0
C739 C 0.56941 0.26045 0.98134 0.0
C740 C 0.54569 0.2362 0.95459 0.0
C741 C 0.56588 0.27628 0.03102 0.0
C742 C 0.51857 0.22775 0.98045 0.0
C743 C 0.51491 0.24342 0.02921 0.0
H744 H 0.34024 0.50579 0.50487 0.0
H745 H 0.28935 0.50314 0.34543 0.0
H746 H 0.25354 0.50274 0.41753 0.0
H747 H 0.23706 0.50475 0.5271 0.0
H748 H 0.28798 0.50672 0.68593 0.0
H749 H 0.32294 0.50574 0.61376 0.0
C750 C 0.32126 0.50502 0.48576 0.0
C751 C 0.31767 0.50438 0.41918 0.0
C752 C 0.30062 0.50478 0.52789 0.0
C753 C 0.2927 0.50322 0.39598 0.0
C754 C 0.27223 0.50321 0.43745 0.0
C755 C 0.25581 0.50496 0.54595 0.0
C756 C 0.25976 0.50597 0.61253 0.0
C757 C 0.27599 0.50422 0.50364 0.0
C758 C 0.28412 0.50581 0.63546 0.0
C759 C 0.30427 0.50538 0.59396 0.0
H760 H 0.79932 0.26955 0.12129 0.0
H761 H 0.72822 0.21756 0.99897 0.0
H762 H 0.75567 0.24505 0.90726 0.0
H763 H 0.80021 0.28512 0.86026 0.0
H764 H 0.87187 0.33511 0.98261 0.0
H765 H 0.84452 0.30705 0.07398 0.0
C766 C 0.78982 0.2639 0.07459 0.0
C767 C 0.76121 0.24145 0.06829 0.0
C768 C 0.80614 0.27958 0.02112 0.0
C769 C 0.74966 0.23503 1.00663 0.0
C770 C 0.76559 0.25067 0.95356 0.0
C771 C 0.80995 0.28961 0.90678 0.0
C772 C 0.83823 0.31257 0.91407 0.0
C773 C 0.79387 0.27317 0.95997 0.0
C774 C 0.85023 0.31788 0.97518 0.0
C775 C 0.8345 0.3018 0.02776 0.0
H776 H 0.54865 0.84495 0.52267 0.0
H777 H 0.5609 0.7994 0.36964 0.0
H778 H 0.56242 0.76589 0.4449 0.0
H779 H 0.56015 0.74881 0.55487 0.0
H780 H 0.54799 0.79388 0.70876 0.0
H781 H 0.54691 0.82799 0.63371 0.0
C782 C 0.55151 0.82761 0.50574 0.0
C783 C 0.55476 0.825 0.43985 0.0
C784 C 0.55256 0.8082 0.54995 0.0
C785 C 0.55868 0.80236 0.41959 0.0
C786 C 0.55947 0.78302 0.46284 0.0
C787 C 0.55719 0.76606 0.57205 0.0
C788 C 0.55402 0.76851 0.63791 0.0
C789 C 0.55647 0.78565 0.52822 0.0
C790 C 0.55064 0.79138 0.65878 0.0
C791 C 0.54985 0.81087 0.6156 0.0
H792 H 0.45582 0.4733 0.18632 0.0
H793 H 0.4418 0.46917 0.38761 0.0
H794 H 0.46813 0.44343 0.401 0.0
H795 H 0.49572 0.42242 0.35538 0.0
H796 H 0.51486 0.43183 0.15598 0.0
H797 H 0.48619 0.45508 0.14163 0.0
C798 C 0.4585 0.46663 0.23299 0.0
C799 C 0.44659 0.47276 0.2859 0.0
C800 C 0.47468 0.45282 0.24054 0.0
C801 C 0.45066 0.46455 0.34627 0.0
C802 C 0.46571 0.44983 0.35387 0.0
C803 C 0.4935 0.42951 0.30879 0.0
C804 C 0.50714 0.42511 0.25664 0.0
C805 C 0.47787 0.44386 0.30139 0.0
C806 C 0.50455 0.4349 0.19678 0.0
C807 C 0.48812 0.44817 0.18859 0.0
H808 H 0.09383 0.47389 0.85318 0.0
H809 H 0.10458 0.47643 0.65086 0.0
H810 H 0.05268 0.45173 0.63635 0.0
H811 H 1.00399 0.42972 0.68126 0.0
H812 H 0.99337 0.43249 0.88273 0.0
H813 H 1.04513 0.45473 0.89778 0.0
C814 C 0.08471 0.4689 0.806 0.0
C815 C 0.10299 0.47664 0.7531 0.0
C816 C 0.05481 0.45569 0.79799 0.0
C817 C 0.09096 0.47059 0.69221 0.0
C818 C 0.06128 0.45646 0.68396 0.0
C819 C 1.01305 0.43514 0.72845 0.0
C820 C 0.99481 0.42916 0.78092 0.0
C821 C 1.04296 0.44892 0.73645 0.0
C822 C 1.00691 0.43681 0.84165 0.0
C823 C 1.03652 0.44949 0.85023 0.0
H824 H 0.61882 0.08248 0.26831 0.0
H825 H 0.70168 0.08965 0.25218 0.0
H826 H 0.67965 0.03766 0.25481 0.0
H827 H 0.63672 0.98992 0.26177 0.0
H828 H 0.55419 0.98305 0.285 0.0
H829 H 0.57617 0.03489 0.28027 0.0
C830 C 0.63204 0.07265 0.265 0.0
C831 C 0.66187 0.09 0.2594 0.0
C832 C 0.61927 0.04269 0.26838 0.0
C833 C 0.67869 0.07687 0.25632 0.0
C834 C 0.66609 0.0471 0.25791 0.0
C835 C 0.62354 0.99975 0.26608 0.0
C836 C 0.59377 0.98242 0.27365 0.0
C837 C 0.63639 1.02976 0.26408 0.0
C838 C 0.57713 0.99569 0.27953 0.0
C839 C 0.58968 1.02542 0.27647 0.0
H840 H 0.61702 0.66086 0.84916 0.0
H841 H 0.57598 0.63011 0.66838 0.0
H842 H 0.60124 0.60338 0.65418 0.0
H843 H 0.63387 0.58722 0.69527 0.0
H844 H 0.6707 0.61419 0.88074 0.0
H845 H 0.6485 0.64399 0.89105 0.0
C846 C 0.6138 0.64853 0.80635 0.0
C847 C 0.59479 0.64772 0.75962 0.0
C848 C 0.62768 0.63246 0.79951 0.0
C849 C 0.59049 0.63116 0.70502 0.0
C850 C 0.60495 0.61587 0.69689 0.0
C851 C 0.63718 0.59989 0.73755 0.0
C852 C 0.65415 0.59889 0.78693 0.0
C853 C 0.62344 0.61616 0.74403 0.0
C854 C 0.65787 0.61485 0.84208 0.0
C855 C 0.64514 0.63182 0.84796 0.0
H856 H 0.09506 0.60267 0.2451 0.0
H857 H 0.10815 0.68795 0.25416 0.0
H858 H 0.05628 0.66885 0.25031 0.0
H859 H 1.00683 0.62725 0.24697 0.0
H860 H 0.99514 0.54265 0.22691 0.0
H861 H 1.04661 0.56201 0.23187 0.0
C862 C 0.08651 0.61705 0.24625 0.0
C863 C 0.1053 0.64662 0.25093 0.0
C864 C 0.05685 0.60597 0.24177 0.0
C865 C 0.09405 0.66509 0.25093 0.0
C866 C 0.06441 0.65415 0.24877 0.0
C867 C 1.01562 0.61314 0.24322 0.0
C868 C 0.99705 0.58347 0.23686 0.0
C869 C 1.04553 0.62456 0.24453 0.0
C870 C 1.00883 0.56552 0.23147 0.0
C871 C 1.03832 0.57657 0.23465 0.0
H872 H 0.42337 0.98619 0.75153 0.0
H873 H 0.49925 0.97981 0.72673 0.0
H874 H 0.52881 1.03155 0.73367 0.0
H875 H 0.53352 0.07891 0.74865 0.0
H876 H 0.45782 0.08601 0.76544 0.0
H877 H 0.42797 0.03399 0.76014 0.0
C878 C 0.44636 0.99612 0.74729 0.0
C879 C 0.45895 0.9789 0.73888 0.0
C880 C 0.46337 1.02614 0.75039 0.0
C881 C 0.48883 0.99232 0.73303 0.0
C882 C 0.50584 1.02201 0.7373 0.0
C883 C 0.51049 0.06906 0.75147 0.0
C884 C 0.49796 0.08637 0.75823 0.0
C885 C 0.4934 0.03915 0.74647 0.0
C886 C 0.46804 0.07323 0.76049 0.0
C887 C 0.45095 0.04345 0.75741 0.0
loop_
_geom_bond_atom_site_label_1
_geom_bond_atom_site_label_2
_geom_bond_distance
_geom_bond_site_symmetry_2
_ccdc_geom_bond_type
Co0 O3 1.970 . S
Co0 N17 1.989 . S
Co0 O25 1.967 . S
Co0 O32 1.920 . S
Co1 O4 1.966 . S
Co1 N10 2.022 . S
Co1 N18 1.993 . S
Co1 O26 1.941 . S
C2 O3 1.258 . S
C2 O4 1.263 . S
O3 Co0 1.970 . S
O3 C2 1.258 . S
O4 Co1 1.966 . S
O4 C2 1.263 . S
C5 O6 1.235 . S
C5 O32 1.289 . S
O6 C5 1.235 . S
C7 C9 1.400 . S
C7 N10 1.351 . S
C7 C12 1.501 . S
C8 C9 1.387 . S
C8 N11 1.341 . S
C9 C7 1.400 . S
C9 C8 1.387 . S
N10 Co1 2.022 . S
N10 C7 1.351 . S
N10 N11 1.365 . S
N11 C8 1.341 . S
N11 N10 1.365 . S
N11 H31 0.862 . S
C12 C7 1.501 . S
C12 H13 0.961 . S
C12 H14 0.961 . S
C12 H15 0.960 . S
H13 C12 0.961 . S
H14 C12 0.961 . S
H15 C12 0.960 . S
C16 N17 1.342 . S
C16 C20 1.401 . S
C16 C21 1.499 . S
N17 Co0 1.989 . S
N17 C16 1.342 . S
N17 N18 1.388 . S
N18 Co1 1.993 . S
N18 N17 1.388 . S
N18 C19 1.346 . S
C19 N18 1.346 . S
C19 C20 1.396 . S
C19 C29 1.510 . S
C20 C16 1.401 . S
C20 C19 1.396 . S
C21 C16 1.499 . S
C21 H22 0.959 . S
C21 H23 0.960 . S
C21 H24 0.961 . S
H22 C21 0.959 . S
H23 C21 0.960 . S
H24 C21 0.961 . S
O25 Co0 1.967 . S
O25 C33 1.258 . S
O26 Co1 1.941 . S
O26 C33 1.266 . S
H27 C29 0.959 . S
H28 C29 0.961 . S
C29 C19 1.510 . S
C29 H27 0.959 . S
C29 H28 0.961 . S
C29 H30 0.960 . S
H30 C29 0.960 . S
H31 N11 0.862 . S
O32 Co0 1.920 . S
O32 C5 1.289 . S
C33 O25 1.258 . S
C33 O26 1.266 . S
Co34 O37 1.970 . S
Co34 N51 1.989 . S
Co34 O59 1.967 . S
Co34 O66 1.920 . S
Co35 O38 1.966 . S
Co35 N44 2.022 . S
Co35 N52 1.993 . S
Co35 O60 1.941 . S
C36 O37 1.258 . S
C36 O38 1.263 . S
O37 Co34 1.970 . S
O37 C36 1.258 . S
O38 Co35 1.966 . S
O38 C36 1.263 . S
C39 O40 1.235 . S
C39 O66 1.289 . S
O40 C39 1.235 . S
C41 C43 1.400 . S
C41 N44 1.351 . S
C41 C46 1.501 . S
C42 C43 1.387 . S
C42 N45 1.341 . S
C43 C41 1.400 . S
C43 C42 1.387 . S
N44 Co35 2.022 . S
N44 C41 1.351 . S
N44 N45 1.365 . S
N45 C42 1.341 . S
N45 N44 1.365 . S
N45 H65 0.862 . S
C46 C41 1.501 . S
C46 H47 0.961 . S
C46 H48 0.961 . S
C46 H49 0.960 . S
H47 C46 0.961 . S
H48 C46 0.961 . S
H49 C46 0.960 . S
C50 N51 1.342 . S
C50 C54 1.401 . S
C50 C55 1.499 . S
N51 Co34 1.989 . S
N51 C50 1.342 . S
N51 N52 1.388 . S
N52 Co35 1.993 . S
N52 N51 1.388 . S
N52 C53 1.346 . S
C53 N52 1.346 . S
C53 C54 1.396 . S
C53 C63 1.510 . S
C54 C50 1.401 . S
C54 C53 1.396 . S
C55 C50 1.499 . S
C55 H56 0.959 . S
C55 H57 0.960 . S
C55 H58 0.961 . S
H56 C55 0.959 . S
H57 C55 0.960 . S
H58 C55 0.961 . S
O59 Co34 1.967 . S
O59 C67 1.258 . S
O60 Co35 1.941 . S
O60 C67 1.266 . S
H61 C63 0.959 . S
H62 C63 0.961 . S
C63 C53 1.510 . S
C63 H61 0.959 . S
C63 H62 0.961 . S
C63 H64 0.960 . S
H64 C63 0.960 . S
H65 N45 0.862 . S
O66 Co34 1.920 . S
O66 C39 1.289 . S
C67 O59 1.258 . S
C67 O60 1.266 . S
Co68 O71 1.970 . S
Co68 N85 1.989 . S
Co68 O93 1.967 . S
Co68 O100 1.920 . S
Co69 O72 1.966 . S
Co69 N78 2.022 . S
Co69 N86 1.993 . S
Co69 O94 1.941 . S
C70 O71 1.258 . S
C70 O72 1.263 . S
O71 Co68 1.970 . S
O71 C70 1.258 . S
O72 Co69 1.966 . S
O72 C70 1.263 . S
C73 O74 1.235 . S
C73 O100 1.289 . S
O74 C73 1.235 . S
C75 C77 1.400 . S
C75 N78 1.351 . S
C75 C80 1.501 . S
C76 C77 1.387 . S
C76 N79 1.341 . S
C77 C75 1.400 . S
C77 C76 1.387 . S
N78 Co69 2.022 . S
N78 C75 1.351 . S
N78 N79 1.365 . S
N79 C76 1.341 . S
N79 N78 1.365 . S
N79 H99 0.862 . S
C80 C75 1.501 . S
C80 H81 0.961 . S
C80 H82 0.961 . S
C80 H83 0.960 . S
H81 C80 0.961 . S
H82 C80 0.961 . S
H83 C80 0.960 . S
C84 N85 1.342 . S
C84 C88 1.401 . S
C84 C89 1.499 . S
N85 Co68 1.989 . S
N85 C84 1.342 . S
N85 N86 1.388 . S
N86 Co69 1.993 . S
N86 N85 1.388 . S
N86 C87 1.346 . S
C87 N86 1.346 . S
C87 C88 1.396 . S
C87 C97 1.510 . S
C88 C84 1.401 . S
C88 C87 1.396 . S
C89 C84 1.499 . S
C89 H90 0.959 . S
C89 H91 0.960 . S
C89 H92 0.961 . S
H90 C89 0.959 . S
H91 C89 0.960 . S
H92 C89 0.961 . S
O93 Co68 1.967 . S
O93 C101 1.258 . S
O94 Co69 1.941 . S
O94 C101 1.266 . S
H95 C97 0.959 . S
H96 C97 0.961 . S
C97 C87 1.510 . S
C97 H95 0.959 . S
C97 H96 0.961 . S
C97 H98 0.960 . S
H98 C97 0.960 . S
H99 N79 0.862 . S
O100 Co68 1.920 . S
O100 C73 1.289 . S
C101 O93 1.258 . S
C101 O94 1.266 . S
Co102 O105 1.970 . S
Co102 N119 1.989 . S
Co102 O127 1.967 . S
Co102 O134 1.920 . S
Co103 O106 1.966 . S
Co103 N112 2.022 . S
Co103 N120 1.993 . S
Co103 O128 1.941 . S
C104 O105 1.258 . S
C104 O106 1.263 . S
O105 Co102 1.970 . S
O105 C104 1.258 . S
O106 Co103 1.966 . S
O106 C104 1.263 . S
C107 O108 1.235 . S
C107 O134 1.289 . S
O108 C107 1.235 . S
C109 C111 1.400 . S
C109 N112 1.351 . S
C109 C114 1.501 . S
C110 C111 1.387 . S
C110 N113 1.341 . S
C111 C109 1.400 . S
C111 C110 1.387 . S
N112 Co103 2.022 . S
N112 C109 1.351 . S
N112 N113 1.365 . S
N113 C110 1.341 . S
N113 N112 1.365 . S
N113 H133 0.862 . S
C114 C109 1.501 . S
C114 H115 0.961 . S
C114 H116 0.961 . S
C114 H117 0.960 . S
H115 C114 0.961 . S
H116 C114 0.961 . S
H117 C114 0.960 . S
C118 N119 1.342 . S
C118 C122 1.401 . S
C118 C123 1.499 . S
N119 Co102 1.989 . S
N119 C118 1.342 . S
N119 N120 1.388 . S
N120 Co103 1.993 . S
N120 N119 1.388 . S
N120 C121 1.346 . S
C121 N120 1.346 . S
C121 C122 1.396 . S
C121 C131 1.510 . S
C122 C118 1.401 . S
C122 C121 1.396 . S
C123 C118 1.499 . S
C123 H124 0.959 . S
C123 H125 0.960 . S
C123 H126 0.961 . S
H124 C123 0.959 . S
H125 C123 0.960 . S
H126 C123 0.961 . S
O127 Co102 1.967 . S
O127 C135 1.258 . S
O128 Co103 1.941 . S
O128 C135 1.266 . S
H129 C131 0.959 . S
H130 C131 0.961 . S
C131 C121 1.510 . S
C131 H129 0.959 . S
C131 H130 0.961 . S
C131 H132 0.960 . S
H132 C131 0.960 . S
H133 N113 0.862 . S
O134 Co102 1.920 . S
O134 C107 1.289 . S
C135 O127 1.258 . S
C135 O128 1.266 . S
Co136 O139 1.970 . S
Co136 N153 1.989 . S
Co136 O161 1.967 . S
Co136 O168 1.920 . S
Co137 O140 1.966 . S
Co137 N146 2.022 . S
Co137 N154 1.993 . S
Co137 O162 1.941 . S
C138 O139 1.258 . S
C138 O140 1.263 . S
O139 Co136 1.970 . S
O139 C138 1.258 . S
O140 Co137 1.966 . S
O140 C138 1.263 . S
C141 O142 1.235 . S
C141 O168 1.289 . S
O142 C141 1.235 . S
C143 C145 1.400 . S
C143 N146 1.351 . S
C143 C148 1.501 . S
C144 C145 1.387 . S
C144 N147 1.341 . S
C145 C143 1.400 . S
C145 C144 1.387 . S
N146 Co137 2.022 . S
N146 C143 1.351 . S
N146 N147 1.365 . S
N147 C144 1.341 . S
N147 N146 1.365 . S
N147 H167 0.862 . S
C148 C143 1.501 . S
C148 H149 0.961 . S
C148 H150 0.961 . S
C148 H151 0.960 . S
H149 C148 0.961 . S
H150 C148 0.961 . S
H151 C148 0.960 . S
C152 N153 1.342 . S
C152 C156 1.401 . S
C152 C157 1.499 . S
N153 Co136 1.989 . S
N153 C152 1.342 . S
N153 N154 1.388 . S
N154 Co137 1.993 . S
N154 N153 1.388 . S
N154 C155 1.346 . S
C155 N154 1.346 . S
C155 C156 1.396 . S
C155 C165 1.510 . S
C156 C152 1.401 . S
C156 C155 1.396 . S
C157 C152 1.499 . S
C157 H158 0.959 . S
C157 H159 0.960 . S
C157 H160 0.961 . S
H158 C157 0.959 . S
H159 C157 0.960 . S
H160 C157 0.961 . S
O161 Co136 1.967 . S
O161 C169 1.258 . S
O162 Co137 1.941 . S
O162 C169 1.266 . S
H163 C165 0.959 . S
H164 C165 0.961 . S
C165 C155 1.510 . S
C165 H163 0.959 . S
C165 H164 0.961 . S
C165 H166 0.960 . S
H166 C165 0.960 . S
H167 N147 0.862 . S
O168 Co136 1.920 . S
O168 C141 1.289 . S
C169 O161 1.258 . S
C169 O162 1.266 . S
Co170 O173 1.970 . S
Co170 N187 1.989 . S
Co170 O195 1.967 . S
Co170 O202 1.920 . S
Co171 O174 1.966 . S
Co171 N180 2.022 . S
Co171 N188 1.993 . S
Co171 O196 1.941 . S
C172 O173 1.258 . S
C172 O174 1.263 . S
O173 Co170 1.970 . S
O173 C172 1.258 . S
O174 Co171 1.966 . S
O174 C172 1.263 . S
C175 O176 1.235 . S
C175 O202 1.289 . S
O176 C175 1.235 . S
C177 C179 1.400 . S
C177 N180 1.351 . S
C177 C182 1.501 . S
C178 C179 1.387 . S
C178 N181 1.341 . S
C179 C177 1.400 . S
C179 C178 1.387 . S
N180 Co171 2.022 . S
N180 C177 1.351 . S
N180 N181 1.365 . S
N181 C178 1.341 . S
N181 N180 1.365 . S
N181 H201 0.862 . S
C182 C177 1.501 . S
C182 H183 0.961 . S
C182 H184 0.961 . S
C182 H185 0.960 . S
H183 C182 0.961 . S
H184 C182 0.961 . S
H185 C182 0.960 . S
C186 N187 1.342 . S
C186 C190 1.401 . S
C186 C191 1.499 . S
N187 Co170 1.989 . S
N187 C186 1.342 . S
N187 N188 1.388 . S
N188 Co171 1.993 . S
N188 N187 1.388 . S
N188 C189 1.346 . S
C189 N188 1.346 . S
C189 C190 1.396 . S
C189 C199 1.510 . S
C190 C186 1.401 . S
C190 C189 1.396 . S
C191 C186 1.499 . S
C191 H192 0.959 . S
C191 H193 0.960 . S
C191 H194 0.961 . S
H192 C191 0.959 . S
H193 C191 0.960 . S
H194 C191 0.961 . S
O195 Co170 1.967 . S
O195 C203 1.258 . S
O196 Co171 1.941 . S
O196 C203 1.266 . S
H197 C199 0.959 . S
H198 C199 0.961 . S
C199 C189 1.510 . S
C199 H197 0.959 . S
C199 H198 0.961 . S
C199 H200 0.960 . S
H200 C199 0.960 . S
H201 N181 0.862 . S
O202 Co170 1.920 . S
O202 C175 1.289 . S
C203 O195 1.258 . S
C203 O196 1.266 . S
Co204 O207 1.970 . S
Co204 N221 1.989 . S
Co204 O229 1.967 . S
Co204 O236 1.920 . S
Co205 O208 1.966 . S
Co205 N214 2.022 . S
Co205 N222 1.993 . S
Co205 O230 1.941 . S
C206 O207 1.258 . S
C206 O208 1.263 . S
O207 Co204 1.970 . S
O207 C206 1.258 . S
O208 Co205 1.966 . S
O208 C206 1.263 . S
C209 O210 1.235 . S
C209 O236 1.289 . S
O210 C209 1.235 . S
C211 C213 1.400 . S
C211 N214 1.351 . S
C211 C216 1.501 . S
C212 C213 1.387 . S
C212 N215 1.341 . S
C213 C211 1.400 . S
C213 C212 1.387 . S
N214 Co205 2.022 . S
N214 C211 1.351 . S
N214 N215 1.365 . S
N215 C212 1.341 . S
N215 N214 1.365 . S
N215 H235 0.862 . S
C216 C211 1.501 . S
C216 H217 0.961 . S
C216 H218 0.961 . S
C216 H219 0.960 . S
H217 C216 0.961 . S
H218 C216 0.961 . S
H219 C216 0.960 . S
C220 N221 1.342 . S
C220 C224 1.401 . S
C220 C225 1.499 . S
N221 Co204 1.989 . S
N221 C220 1.342 . S
N221 N222 1.388 . S
N222 Co205 1.993 . S
N222 N221 1.388 . S
N222 C223 1.346 . S
C223 N222 1.346 . S
C223 C224 1.396 . S
C223 C233 1.510 . S
C224 C220 1.401 . S
C224 C223 1.396 . S
C225 C220 1.499 . S
C225 H226 0.959 . S
C225 H227 0.960 . S
C225 H228 0.961 . S
H226 C225 0.959 . S
H227 C225 0.960 . S
H228 C225 0.961 . S
O229 Co204 1.967 . S
O229 C237 1.258 . S
O230 Co205 1.941 . S
O230 C237 1.266 . S
H231 C233 0.959 . S
H232 C233 0.961 . S
C233 C223 1.510 . S
C233 H231 0.959 . S
C233 H232 0.961 . S
C233 H234 0.960 . S
H234 C233 0.960 . S
H235 N215 0.862 . S
O236 Co204 1.920 . S
O236 C209 1.289 . S
C237 O229 1.258 . S
C237 O230 1.266 . S
Co238 O241 1.970 . S
Co238 N255 1.989 . S
Co238 O263 1.967 . S
Co238 O270 1.920 . S
Co239 O242 1.966 . S
Co239 N248 2.022 . S
Co239 N256 1.993 . S
Co239 O264 1.941 . S
C240 O241 1.258 . S
C240 O242 1.263 . S
O241 Co238 1.970 . S
O241 C240 1.258 . S
O242 Co239 1.966 . S
O242 C240 1.263 . S
C243 O244 1.235 . S
C243 O270 1.289 . S
O244 C243 1.235 . S
C245 C247 1.400 . S
C245 N248 1.351 . S
C245 C250 1.501 . S
C246 C247 1.387 . S
C246 N249 1.341 . S
C247 C245 1.400 . S
C247 C246 1.387 . S
N248 Co239 2.022 . S
N248 C245 1.351 . S
N248 N249 1.365 . S
N249 C246 1.341 . S
N249 N248 1.365 . S
N249 H269 0.862 . S
C250 C245 1.501 . S
C250 H251 0.961 . S
C250 H252 0.961 . S
C250 H253 0.960 . S
H251 C250 0.961 . S
H252 C250 0.961 . S
H253 C250 0.960 . S
C254 N255 1.342 . S
C254 C258 1.401 . S
C254 C259 1.499 . S
N255 Co238 1.989 . S
N255 C254 1.342 . S
N255 N256 1.388 . S
N256 Co239 1.993 . S
N256 N255 1.388 . S
N256 C257 1.346 . S
C257 N256 1.346 . S
C257 C258 1.396 . S
C257 C267 1.510 . S
C258 C254 1.401 . S
C258 C257 1.396 . S
C259 C254 1.499 . S
C259 H260 0.959 . S
C259 H261 0.960 . S
C259 H262 0.961 . S
H260 C259 0.959 . S
H261 C259 0.960 . S
H262 C259 0.961 . S
O263 Co238 1.967 . S
O263 C271 1.258 . S
O264 Co239 1.941 . S
O264 C271 1.266 . S
H265 C267 0.959 . S
H266 C267 0.961 . S
C267 C257 1.510 . S
C267 H265 0.959 . S
C267 H266 0.961 . S
C267 H268 0.960 . S
H268 C267 0.960 . S
H269 N249 0.862 . S
O270 Co238 1.920 . S
O270 C243 1.289 . S
C271 O263 1.258 . S
C271 O264 1.266 . S
Co272 O275 1.970 . S
Co272 N289 1.989 . S
Co272 O297 1.967 . S
Co272 O304 1.920 . S
Co273 O276 1.966 . S
Co273 N282 2.022 . S
Co273 N290 1.993 . S
Co273 O298 1.941 . S
C274 O275 1.258 . S
C274 O276 1.263 . S
O275 Co272 1.970 . S
O275 C274 1.258 . S
O276 Co273 1.966 . S
O276 C274 1.263 . S
C277 O278 1.235 . S
C277 O304 1.289 . S
O278 C277 1.235 . S
C279 C281 1.400 . S
C279 N282 1.351 . S
C279 C284 1.501 . S
C280 C281 1.387 . S
C280 N283 1.341 . S
C281 C279 1.400 . S
C281 C280 1.387 . S
N282 Co273 2.022 . S
N282 C279 1.351 . S
N282 N283 1.365 . S
N283 C280 1.341 . S
N283 N282 1.365 . S
N283 H303 0.862 . S
C284 C279 1.501 . S
C284 H285 0.961 . S
C284 H286 0.961 . S
C284 H287 0.960 . S
H285 C284 0.961 . S
H286 C284 0.961 . S
H287 C284 0.960 . S
C288 N289 1.342 . S
C288 C292 1.401 . S
C288 C293 1.499 . S
N289 Co272 1.989 . S
N289 C288 1.342 . S
N289 N290 1.388 . S
N290 Co273 1.993 . S
N290 N289 1.388 . S
N290 C291 1.346 . S
C291 N290 1.346 . S
C291 C292 1.396 . S
C291 C301 1.510 . S
C292 C288 1.401 . S
C292 C291 1.396 . S
C293 C288 1.499 . S
C293 H294 0.959 . S
C293 H295 0.960 . S
C293 H296 0.961 . S
H294 C293 0.959 . S
H295 C293 0.960 . S
H296 C293 0.961 . S
O297 Co272 1.967 . S
O297 C305 1.258 . S
O298 Co273 1.941 . S
O298 C305 1.266 . S
H299 C301 0.959 . S
H300 C301 0.961 . S
C301 C291 1.510 . S
C301 H299 0.959 . S
C301 H300 0.961 . S
C301 H302 0.960 . S
H302 C301 0.960 . S
H303 N283 0.862 . S
O304 Co272 1.920 . S
O304 C277 1.289 . S
C305 O297 1.258 . S
C305 O298 1.266 . S
Co306 O309 1.970 . S
Co306 N323 1.989 . S
Co306 O331 1.967 . S
Co306 O338 1.920 . S
Co307 O310 1.966 . S
Co307 N316 2.022 . S
Co307 N324 1.993 . S
Co307 O332 1.941 . S
C308 O309 1.258 . S
C308 O310 1.263 . S
O309 Co306 1.970 . S
O309 C308 1.258 . S
O310 Co307 1.966 . S
O310 C308 1.263 . S
C311 O312 1.235 . S
C311 O338 1.289 . S
O312 C311 1.235 . S
C313 C315 1.400 . S
C313 N316 1.351 . S
C313 C318 1.501 . S
C314 C315 1.387 . S
C314 N317 1.341 . S
C315 C313 1.400 . S
C315 C314 1.387 . S
N316 Co307 2.022 . S
N316 C313 1.351 . S
N316 N317 1.365 . S
N317 C314 1.341 . S
N317 N316 1.365 . S
N317 H337 0.862 . S
C318 C313 1.501 . S
C318 H319 0.961 . S
C318 H320 0.961 . S
C318 H321 0.960 . S
H319 C318 0.961 . S
H320 C318 0.961 . S
H321 C318 0.960 . S
C322 N323 1.342 . S
C322 C326 1.401 . S
C322 C327 1.499 . S
N323 Co306 1.989 . S
N323 C322 1.342 . S
N323 N324 1.388 . S
N324 Co307 1.993 . S
N324 N323 1.388 . S
N324 C325 1.346 . S
C325 N324 1.346 . S
C325 C326 1.396 . S
C325 C335 1.510 . S
C326 C322 1.401 . S
C326 C325 1.396 . S
C327 C322 1.499 . S
C327 H328 0.959 . S
C327 H329 0.960 . S
C327 H330 0.961 . S
H328 C327 0.959 . S
H329 C327 0.960 . S
H330 C327 0.961 . S
O331 Co306 1.967 . S
O331 C339 1.258 . S
O332 Co307 1.941 . S
O332 C339 1.266 . S
H333 C335 0.959 . S
H334 C335 0.961 . S
C335 C325 1.510 . S
C335 H333 0.959 . S
C335 H334 0.961 . S
C335 H336 0.960 . S
H336 C335 0.960 . S
H337 N317 0.862 . S
O338 Co306 1.920 . S
O338 C311 1.289 . S
C339 O331 1.258 . S
C339 O332 1.266 . S
Co340 O343 1.970 . S
Co340 N357 1.989 . S
Co340 O365 1.967 . S
Co340 O372 1.920 . S
Co341 O344 1.966 . S
Co341 N350 2.022 . S
Co341 N358 1.993 . S
Co341 O366 1.941 . S
C342 O343 1.258 . S
C342 O344 1.263 . S
O343 Co340 1.970 . S
O343 C342 1.258 . S
O344 Co341 1.966 . S
O344 C342 1.263 . S
C345 O346 1.235 . S
C345 O372 1.289 . S
O346 C345 1.235 . S
C347 C349 1.400 . S
C347 N350 1.351 . S
C347 C352 1.501 . S
C348 C349 1.387 . S
C348 N351 1.341 . S
C349 C347 1.400 . S
C349 C348 1.387 . S
N350 Co341 2.022 . S
N350 C347 1.351 . S
N350 N351 1.365 . S
N351 C348 1.341 . S
N351 N350 1.365 . S
N351 H371 0.862 . S
C352 C347 1.501 . S
C352 H353 0.961 . S
C352 H354 0.961 . S
C352 H355 0.960 . S
H353 C352 0.961 . S
H354 C352 0.961 . S
H355 C352 0.960 . S
C356 N357 1.342 . S
C356 C360 1.401 . S
C356 C361 1.499 . S
N357 Co340 1.989 . S
N357 C356 1.342 . S
N357 N358 1.388 . S
N358 Co341 1.993 . S
N358 N357 1.388 . S
N358 C359 1.346 . S
C359 N358 1.346 . S
C359 C360 1.396 . S
C359 C369 1.510 . S
C360 C356 1.401 . S
C360 C359 1.396 . S
C361 C356 1.499 . S
C361 H362 0.959 . S
C361 H363 0.960 . S
C361 H364 0.961 . S
H362 C361 0.959 . S
H363 C361 0.960 . S
H364 C361 0.961 . S
O365 Co340 1.967 . S
O365 C373 1.258 . S
O366 Co341 1.941 . S
O366 C373 1.266 . S
H367 C369 0.959 . S
H368 C369 0.961 . S
C369 C359 1.510 . S
C369 H367 0.959 . S
C369 H368 0.961 . S
C369 H370 0.960 . S
H370 C369 0.960 . S
H371 N351 0.862 . S
O372 Co340 1.920 . S
O372 C345 1.289 . S
C373 O365 1.258 . S
C373 O366 1.266 . S
Co374 O377 1.970 . S
Co374 N391 1.989 . S
Co374 O399 1.967 . S
Co374 O406 1.920 . S
Co375 O378 1.966 . S
Co375 N384 2.022 . S
Co375 N392 1.993 . S
Co375 O400 1.941 . S
C376 O377 1.258 . S
C376 O378 1.263 . S
O377 Co374 1.970 . S
O377 C376 1.258 . S
O378 Co375 1.966 . S
O378 C376 1.263 . S
C379 O380 1.235 . S
C379 O406 1.289 . S
O380 C379 1.235 . S
C381 C383 1.400 . S
C381 N384 1.351 . S
C381 C386 1.501 . S
C382 C383 1.387 . S
C382 N385 1.341 . S
C383 C381 1.400 . S
C383 C382 1.387 . S
N384 Co375 2.022 . S
N384 C381 1.351 . S
N384 N385 1.365 . S
N385 C382 1.341 . S
N385 N384 1.365 . S
N385 H405 0.862 . S
C386 C381 1.501 . S
C386 H387 0.961 . S
C386 H388 0.961 . S
C386 H389 0.960 . S
H387 C386 0.961 . S
H388 C386 0.961 . S
H389 C386 0.960 . S
C390 N391 1.342 . S
C390 C394 1.401 . S
C390 C395 1.499 . S
N391 Co374 1.989 . S
N391 C390 1.342 . S
N391 N392 1.388 . S
N392 Co375 1.993 . S
N392 N391 1.388 . S
N392 C393 1.346 . S
C393 N392 1.346 . S
C393 C394 1.396 . S
C393 C403 1.510 . S
C394 C390 1.401 . S
C394 C393 1.396 . S
C395 C390 1.499 . S
C395 H396 0.959 . S
C395 H397 0.960 . S
C395 H398 0.961 . S
H396 C395 0.959 . S
H397 C395 0.960 . S
H398 C395 0.961 . S
O399 Co374 1.967 . S
O399 C407 1.258 . S
O400 Co375 1.941 . S
O400 C407 1.266 . S
H401 C403 0.959 . S
H402 C403 0.961 . S
C403 C393 1.510 . S
C403 H401 0.959 . S
C403 H402 0.961 . S
C403 H404 0.960 . S
H404 C403 0.960 . S
H405 N385 0.862 . S
O406 Co374 1.920 . S
O406 C379 1.289 . S
C407 O399 1.258 . S
C407 O400 1.266 . S
H408 C414 0.930 . S
H409 C417 0.930 . S
H410 C418 0.930 . S
H411 C419 0.930 . S
H412 C422 0.930 . S
H413 C423 0.930 . S
C414 H408 0.930 . S
C414 C415 1.355 . S
C414 C416 1.415 . S
C415 C414 1.355 . S
C415 C417 1.419 . S
C416 C414 1.415 . S
C416 C421 1.425 1_554 S
C416 C423 1.409 1_554 S
C417 H409 0.930 . S
C417 C415 1.419 . S
C417 C418 1.362 . S
C418 H410 0.930 . S
C418 C417 1.362 . S
C418 C421 1.409 1_554 S
C419 H411 0.930 . S
C419 C420 1.355 . S
C419 C421 1.415 . S
C420 C419 1.355 . S
C420 C422 1.419 . S
C421 C416 1.425 1_556 S
C421 C418 1.409 1_556 S
C421 C419 1.415 . S
C422 H412 0.930 . S
C422 C420 1.419 . S
C422 C423 1.362 . S
C423 H413 0.930 . S
C423 C416 1.409 1_556 S
C423 C422 1.362 . S
H424 C430 0.930 . S
H425 C433 0.930 . S
H426 C434 0.930 . S
H427 C435 0.930 . S
H428 C438 0.930 . S
H429 C439 0.930 . S
C430 H424 0.930 . S
C430 C431 1.355 . S
C430 C432 1.415 . S
C431 C430 1.355 . S
C431 C433 1.419 . S
C432 C430 1.415 . S
C432 C437 1.425 . S
C432 C439 1.409 . S
C433 H425 0.930 . S
C433 C431 1.419 . S
C433 C434 1.362 . S
C434 H426 0.930 . S
C434 C433 1.362 . S
C434 C437 1.409 . S
C435 H427 0.930 . S
C435 C436 1.355 . S
C435 C437 1.415 . S
C436 C435 1.355 . S
C436 C438 1.419 . S
C437 C432 1.425 . S
C437 C434 1.409 . S
C437 C435 1.415 . S
C438 H428 0.930 . S
C438 C436 1.419 . S
C438 C439 1.362 . S
C439 H429 0.930 . S
C439 C432 1.409 . S
C439 C438 1.362 . S
H440 C446 0.930 . S
H441 C449 0.930 . S
H442 C450 0.930 . S
H443 C451 0.930 . S
H444 C454 0.930 . S
H445 C455 0.930 . S
C446 H440 0.930 . S
C446 C447 1.355 . S
C446 C448 1.415 . S
C447 C446 1.355 . S
C447 C449 1.419 . S
C448 C446 1.415 . S
C448 C453 1.425 1_554 S
C448 C455 1.409 . S
C449 H441 0.930 . S
C449 C447 1.419 . S
C449 C450 1.362 1_554 S
C450 H442 0.930 . S
C450 C449 1.362 1_556 S
C450 C453 1.409 . S
C451 H443 0.930 . S
C451 C452 1.355 . S
C451 C453 1.415 . S
C452 C451 1.355 . S
C452 C454 1.419 . S
C453 C448 1.425 1_556 S
C453 C450 1.409 . S
C453 C451 1.415 . S
C454 H444 0.930 . S
C454 C452 1.419 . S
C454 C455 1.362 1_556 S
C455 H445 0.930 . S
C455 C448 1.409 . S
C455 C454 1.362 1_554 S
H456 C462 0.930 . S
H457 C465 0.930 . S
H458 C466 0.930 . S
H459 C467 0.930 . S
H460 C470 0.930 . S
H461 C471 0.930 . S
C462 H456 0.930 . S
C462 C463 1.355 . S
C462 C464 1.415 . S
C463 C462 1.355 . S
C463 C465 1.419 . S
C464 C462 1.415 . S
C464 C469 1.425 . S
C464 C471 1.409 . S
C465 H457 0.930 . S
C465 C463 1.419 . S
C465 C466 1.362 . S
C466 H458 0.930 . S
C466 C465 1.362 . S
C466 C469 1.409 . S
C467 H459 0.930 . S
C467 C468 1.355 . S
C467 C469 1.415 . S
C468 C467 1.355 . S
C468 C470 1.419 . S
C469 C464 1.425 . S
C469 C466 1.409 . S
C469 C467 1.415 . S
C470 H460 0.930 . S
C470 C468 1.419 . S
C470 C471 1.362 . S
C471 H461 0.930 . S
C471 C464 1.409 . S
C471 C470 1.362 . S
H472 C478 0.930 . S
H473 C481 0.930 . S
H474 C482 0.930 . S
H475 C483 0.930 . S
H476 C486 0.930 . S
H477 C487 0.930 . S
C478 H472 0.930 . S
C478 C479 1.355 . S
C478 C480 1.415 . S
C479 C478 1.355 . S
C479 C481 1.419 . S
C480 C478 1.415 . S
C480 C485 1.425 1_554 S
C480 C487 1.409 1_554 S
C481 H473 0.930 . S
C481 C479 1.419 . S
C481 C482 1.362 . S
C482 H474 0.930 . S
C482 C481 1.362 . S
C482 C485 1.409 1_554 S
C483 H475 0.930 . S
C483 C484 1.355 . S
C483 C485 1.415 . S
C484 C483 1.355 . S
C484 C486 1.419 . S
C485 C480 1.425 1_556 S
C485 C482 1.409 1_556 S
C485 C483 1.415 . S
C486 H476 0.930 . S
C486 C484 1.419 . S
C486 C487 1.362 . S
C487 H477 0.930 . S
C487 C480 1.409 1_556 S
C487 C486 1.362 . S
H488 C494 0.930 . S
H489 C497 0.930 . S
H490 C498 0.930 . S
H491 C499 0.930 . S
H492 C502 0.930 . S
H493 C503 0.930 . S
C494 H488 0.930 . S
C494 C495 1.355 . S
C494 C496 1.415 . S
C495 C494 1.355 . S
C495 C497 1.419 . S
C496 C494 1.415 . S
C496 C501 1.425 . S
C496 C503 1.409 . S
C497 H489 0.930 . S
C497 C495 1.419 . S
C497 C498 1.362 . S
C498 H490 0.930 . S
C498 C497 1.362 . S
C498 C501 1.409 . S
C499 H491 0.930 . S
C499 C500 1.355 . S
C499 C501 1.415 . S
C500 C499 1.355 . S
C500 C502 1.419 . S
C501 C496 1.425 . S
C501 C498 1.409 . S
C501 C499 1.415 . S
C502 H492 0.930 . S
C502 C500 1.419 . S
C502 C503 1.362 . S
C503 H493 0.930 . S
C503 C496 1.409 . S
C503 C502 1.362 . S
H504 C510 0.930 . S
H505 C513 0.930 . S
H506 C514 0.930 . S
H507 C515 0.930 . S
H508 C518 0.930 . S
H509 C519 0.930 . S
C510 H504 0.930 . S
C510 C511 1.355 . S
C510 C512 1.415 . S
C511 C510 1.355 . S
C511 C513 1.419 . S
C512 C510 1.415 . S
C512 C517 1.425 1_554 S
C512 C519 1.409 . S
C513 H505 0.930 . S
C513 C511 1.419 . S
C513 C514 1.362 1_554 S
C514 H506 0.930 . S
C514 C513 1.362 1_556 S
C514 C517 1.409 . S
C515 H507 0.930 . S
C515 C516 1.355 . S
C515 C517 1.415 . S
C516 C515 1.355 . S
C516 C518 1.419 . S
C517 C512 1.425 1_556 S
C517 C514 1.409 . S
C517 C515 1.415 . S
C518 H508 0.930 . S
C518 C516 1.419 . S
C518 C519 1.362 1_556 S
C519 H509 0.930 . S
C519 C512 1.409 . S
C519 C518 1.362 1_554 S
H520 C526 0.930 . S
H521 C529 0.930 . S
H522 C530 0.930 . S
H523 C531 0.930 . S
H524 C534 0.930 . S
H525 C535 0.930 . S
C526 H520 0.930 . S
C526 C527 1.355 . S
C526 C528 1.415 . S
C527 C526 1.355 . S
C527 C529 1.419 . S
C528 C526 1.415 . S
C528 C533 1.425 . S
C528 C535 1.409 . S
C529 H521 0.930 . S
C529 C527 1.419 . S
C529 C530 1.362 . S
C530 H522 0.930 . S
C530 C529 1.362 . S
C530 C533 1.409 . S
C531 H523 0.930 . S
C531 C532 1.355 . S
C531 C533 1.415 . S
C532 C531 1.355 . S
C532 C534 1.419 . S
C533 C528 1.425 . S
C533 C530 1.409 . S
C533 C531 1.415 . S
C534 H524 0.930 . S
C534 C532 1.419 . S
C534 C535 1.362 . S
C535 H525 0.930 . S
C535 C528 1.409 . S
C535 C534 1.362 . S
H536 C542 0.930 1_556 S
H537 C545 0.930 . S
H538 C546 0.930 . S
H539 C547 0.930 1_554 S
H540 C550 0.930 . S
H541 C551 0.930 . S
C542 H536 0.930 1_554 S
C542 C543 1.355 . S
C542 C544 1.415 1_554 S
C543 C542 1.355 . S
C543 C545 1.419 . S
C544 C542 1.415 1_556 S
C544 C549 1.425 1_556 S
C544 C551 1.409 . S
C545 H537 0.930 . S
C545 C543 1.419 . S
C545 C546 1.362 . S
C546 H538 0.930 . S
C546 C545 1.362 . S
C546 C549 1.409 . S
C547 H539 0.930 1_556 S
C547 C548 1.355 . S
C547 C549 1.415 1_556 S
C548 C547 1.355 . S
C548 C550 1.419 . S
C549 C544 1.425 1_554 S
C549 C546 1.409 . S
C549 C547 1.415 1_554 S
C550 H540 0.930 . S
C550 C548 1.419 . S
C550 C551 1.362 . S
C551 H541 0.930 . S
C551 C544 1.409 . S
C551 C550 1.362 . S
H552 C558 0.930 . S
H553 C561 0.930 . S
H554 C562 0.930 . S
H555 C563 0.930 . S
H556 C566 0.930 . S
H557 C567 0.930 . S
C558 H552 0.930 . S
C558 C559 1.355 . S
C558 C560 1.415 . S
C559 C558 1.355 . S
C559 C561 1.419 . S
C560 C558 1.415 . S
C560 C565 1.425 . S
C560 C567 1.409 . S
C561 H553 0.930 . S
C561 C559 1.419 . S
C561 C562 1.362 . S
C562 H554 0.930 . S
C562 C561 1.362 . S
C562 C565 1.409 . S
C563 H555 0.930 . S
C563 C564 1.355 . S
C563 C565 1.415 . S
C564 C563 1.355 . S
C564 C566 1.419 . S
C565 C560 1.425 . S
C565 C562 1.409 . S
C565 C563 1.415 . S
C566 H556 0.930 . S
C566 C564 1.419 . S
C566 C567 1.362 . S
C567 H557 0.930 . S
C567 C560 1.409 . S
C567 C566 1.362 . S
H568 C574 0.930 . S
H569 C577 0.930 . S
H570 C578 0.939 . S
H571 C579 0.930 . S
H572 C582 0.930 . S
H573 C583 0.939 . S
C574 H568 0.930 . S
C574 C575 1.355 . S
C574 C576 1.415 . S
C575 C574 1.355 . S
C575 C577 1.419 . S
C576 C574 1.415 . S
C576 C581 1.425 1_554 S
C576 C583 1.413 . S
C577 H569 0.930 . S
C577 C575 1.419 . S
C577 C578 1.350 1_554 S
C578 H570 0.939 . S
C578 C577 1.350 1_556 S
C578 C581 1.413 . S
C579 H571 0.930 . S
C579 C580 1.355 . S
C579 C581 1.415 . S
C580 C579 1.355 . S
C580 C582 1.419 . S
C581 C576 1.425 1_556 S
C581 C578 1.413 . S
C581 C579 1.415 . S
C582 H572 0.930 . S
C582 C580 1.419 . S
C582 C583 1.350 1_556 S
C583 H573 0.939 . S
C583 C576 1.413 . S
C583 C582 1.350 1_554 S
H584 C590 0.930 . S
H585 C593 0.930 . S
H586 C594 0.930 . S
H587 C595 0.930 . S
H588 C598 0.930 . S
H589 C599 0.930 . S
C590 H584 0.930 . S
C590 C591 1.355 . S
C590 C592 1.415 . S
C591 C590 1.355 . S
C591 C593 1.419 . S
C592 C590 1.415 . S
C592 C597 1.425 . S
C592 C599 1.409 . S
C593 H585 0.930 . S
C593 C591 1.419 . S
C593 C594 1.362 . S
C594 H586 0.930 . S
C594 C593 1.362 . S
C594 C597 1.409 . S
C595 H587 0.930 . S
C595 C596 1.355 . S
C595 C597 1.415 . S
C596 C595 1.355 . S
C596 C598 1.419 . S
C597 C592 1.425 . S
C597 C594 1.409 . S
C597 C595 1.415 . S
C598 H588 0.930 . S
C598 C596 1.419 . S
C598 C599 1.362 . S
C599 H589 0.930 . S
C599 C592 1.409 . S
C599 C598 1.362 . S
H600 C606 0.930 . S
H601 C609 0.930 . S
H602 C610 0.930 . S
H603 C611 0.930 . S
H604 C614 0.930 . S
H605 C615 0.930 . S
C606 H600 0.930 . S
C606 C607 1.355 . S
C606 C608 1.415 . S
C607 C606 1.355 . S
C607 C609 1.419 1_556 S
C608 C606 1.415 . S
C608 C613 1.425 1_556 S
C608 C615 1.409 . S
C609 H601 0.930 . S
C609 C607 1.419 1_554 S
C609 C610 1.362 . S
C610 H602 0.930 . S
C610 C609 1.362 . S
C610 C613 1.409 . S
C611 H603 0.930 . S
C611 C612 1.355 . S
C611 C613 1.415 . S
C612 C611 1.355 . S
C612 C614 1.419 1_554 S
C613 C608 1.425 1_554 S
C613 C610 1.409 . S
C613 C611 1.415 . S
C614 H604 0.930 . S
C614 C612 1.419 1_556 S
C614 C615 1.362 . S
C615 H605 0.930 . S
C615 C608 1.409 . S
C615 C614 1.362 . S
H616 C622 0.930 . S
H617 C625 0.930 . S
H618 C626 0.930 . S
H619 C627 0.930 . S
H620 C630 0.930 . S
H621 C631 0.930 . S
C622 H616 0.930 . S
C622 C623 1.355 . S
C622 C624 1.415 . S
C623 C622 1.355 . S
C623 C625 1.419 . S
C624 C622 1.415 . S
C624 C629 1.425 . S
C624 C631 1.409 . S
C625 H617 0.930 . S
C625 C623 1.419 . S
C625 C626 1.362 . S
C626 H618 0.930 . S
C626 C625 1.362 . S
C626 C629 1.409 . S
C627 H619 0.930 . S
C627 C628 1.355 . S
C627 C629 1.415 . S
C628 C627 1.355 . S
C628 C630 1.419 . S
C629 C624 1.425 . S
C629 C626 1.409 . S
C629 C627 1.415 . S
C630 H620 0.930 . S
C630 C628 1.419 . S
C630 C631 1.362 . S
C631 H621 0.930 . S
C631 C624 1.409 . S
C631 C630 1.362 . S
H632 C638 0.930 . S
H633 C641 0.930 . S
H634 C642 0.930 . S
H635 C643 0.930 . S
H636 C646 0.930 . S
H637 C647 0.930 . S
C638 H632 0.930 . S
C638 C639 1.355 . S
C638 C640 1.415 . S
C639 C638 1.355 . S
C639 C641 1.419 1_554 S
C640 C638 1.415 . S
C640 C645 1.425 1_554 S
C640 C647 1.409 . S
C641 H633 0.930 . S
C641 C639 1.419 1_556 S
C641 C642 1.362 . S
C642 H634 0.930 . S
C642 C641 1.362 . S
C642 C645 1.409 . S
C643 H635 0.930 . S
C643 C644 1.355 . S
C643 C645 1.415 . S
C644 C643 1.355 . S
C644 C646 1.419 1_556 S
C645 C640 1.425 1_556 S
C645 C642 1.409 . S
C645 C643 1.415 . S
C646 H636 0.930 . S
C646 C644 1.419 1_554 S
C646 C647 1.363 . S
C647 H637 0.930 . S
C647 C640 1.409 . S
C647 C646 1.363 . S
H648 C654 0.930 . S
H649 C657 0.930 . S
H650 C658 0.930 . S
H651 C659 0.930 . S
H652 C662 0.930 . S
H653 C663 0.930 . S
C654 H648 0.930 . S
C654 C655 1.355 . S
C654 C656 1.415 . S
C655 C654 1.355 . S
C655 C657 1.419 . S
C656 C654 1.415 . S
C656 C661 1.425 . S
C656 C663 1.409 . S
C657 H649 0.930 . S
C657 C655 1.419 . S
C657 C658 1.362 . S
C658 H650 0.930 . S
C658 C657 1.362 . S
C658 C661 1.409 . S
C659 H651 0.930 . S
C659 C660 1.355 . S
C659 C661 1.415 . S
C660 C659 1.355 . S
C660 C662 1.419 . S
C661 C656 1.425 . S
C661 C658 1.409 . S
C661 C659 1.415 . S
C662 H652 0.930 . S
C662 C660 1.419 . S
C662 C663 1.362 . S
C663 H653 0.930 . S
C663 C656 1.409 . S
C663 C662 1.362 . S
H664 C670 0.932 . S
H665 C673 0.930 . S
H666 C674 0.930 . S
H667 C675 0.932 . S
H668 C678 0.930 . S
H669 C679 0.930 . S
C670 H664 0.932 . S
C670 C671 1.355 . S
C670 C672 1.415 1_554 S
C671 C670 1.355 . S
C671 C673 1.419 . S
C672 C670 1.415 1_556 S
C672 C677 1.425 1_556 S
C672 C679 1.409 . S
C673 H665 0.930 . S
C673 C671 1.419 . S
C673 C674 1.362 . S
C674 H666 0.930 . S
C674 C673 1.362 . S
C674 C677 1.409 . S
C675 H667 0.932 . S
C675 C676 1.355 . S
C675 C677 1.415 1_556 S
C676 C675 1.355 . S
C676 C678 1.419 . S
C677 C672 1.425 1_554 S
C677 C674 1.409 . S
C677 C675 1.415 1_554 S
C678 H668 0.930 . S
C678 C676 1.419 . S
C678 C679 1.362 . S
C679 H669 0.930 . S
C679 C672 1.409 . S
C679 C678 1.362 . S
H680 C686 0.930 . S
H681 C689 0.930 . S
H682 C690 0.930 . S
H683 C691 0.930 . S
H684 C694 0.930 . S
H685 C695 0.930 . S
C686 H680 0.930 . S
C686 C687 1.355 . S
C686 C688 1.415 . S
C687 C686 1.355 . S
C687 C689 1.419 . S
C688 C686 1.415 . S
C688 C693 1.425 . S
C688 C695 1.409 . S
C689 H681 0.930 . S
C689 C687 1.419 . S
C689 C690 1.362 . S
C690 H682 0.930 . S
C690 C689 1.362 . S
C690 C693 1.409 . S
C691 H683 0.930 . S
C691 C692 1.355 . S
C691 C693 1.415 . S
C692 C691 1.355 . S
C692 C694 1.419 . S
C693 C688 1.425 . S
C693 C690 1.409 . S
C693 C691 1.415 . S
C694 H684 0.930 . S
C694 C692 1.419 . S
C694 C695 1.362 . S
C695 H685 0.930 . S
C695 C688 1.409 . S
C695 C694 1.362 . S
H696 C702 0.930 . S
H697 C705 0.930 . S
H698 C706 0.930 . S
H699 C707 0.930 . S
H700 C710 0.930 . S
H701 C711 0.930 . S
C702 H696 0.930 . S
C702 C703 1.355 . S
C702 C704 1.415 1_556 S
C703 C702 1.355 . S
C703 C705 1.419 . S
C704 C702 1.415 1_554 S
C704 C709 1.425 1_554 S
C704 C711 1.409 . S
C705 H697 0.930 . S
C705 C703 1.419 . S
C705 C706 1.362 . S
C706 H698 0.930 . S
C706 C705 1.362 . S
C706 C709 1.409 . S
C707 H699 0.930 . S
C707 C708 1.355 . S
C707 C709 1.415 1_554 S
C708 C707 1.355 . S
C708 C710 1.419 . S
C709 C704 1.425 1_556 S
C709 C706 1.409 . S
C709 C707 1.415 1_556 S
C710 H700 0.930 . S
C710 C708 1.419 . S
C710 C711 1.362 . S
C711 H701 0.930 . S
C711 C704 1.409 . S
C711 C710 1.362 . S
H712 C718 0.930 . S
H713 C721 0.930 . S
H714 C722 0.930 . S
H715 C723 0.930 . S
H716 C726 0.930 . S
H717 C727 0.930 . S
C718 H712 0.930 . S
C718 C719 1.355 . S
C718 C720 1.415 . S
C719 C718 1.355 . S
C719 C721 1.419 . S
C720 C718 1.415 . S
C720 C725 1.425 . S
C720 C727 1.409 . S
C721 H713 0.930 . S
C721 C719 1.419 . S
C721 C722 1.362 . S
C722 H714 0.930 . S
C722 C721 1.362 . S
C722 C725 1.409 . S
C723 H715 0.930 . S
C723 C724 1.355 . S
C723 C725 1.415 . S
C724 C723 1.355 . S
C724 C726 1.419 . S
C725 C720 1.425 . S
C725 C722 1.409 . S
C725 C723 1.415 . S
C726 H716 0.930 . S
C726 C724 1.419 . S
C726 C727 1.362 . S
C727 H717 0.930 . S
C727 C720 1.409 . S
C727 C726 1.362 . S
H728 C734 0.930 . S
H729 C737 0.930 . S
H730 C738 0.930 1_556 S
H731 C739 0.930 . S
H732 C742 0.930 . S
H733 C743 0.930 1_554 S
C734 H728 0.930 . S
C734 C735 1.355 . S
C734 C736 1.415 . S
C735 C734 1.355 . S
C735 C737 1.419 . S
C736 C734 1.415 . S
C736 C741 1.425 1_554 S
C736 C743 1.409 1_554 S
C737 H729 0.930 . S
C737 C735 1.419 . S
C737 C738 1.362 . S
C738 H730 0.930 1_554 S
C738 C737 1.362 . S
C738 C741 1.409 1_554 S
C739 H731 0.930 . S
C739 C740 1.355 . S
C739 C741 1.415 . S
C740 C739 1.355 . S
C740 C742 1.419 . S
C741 C736 1.425 1_556 S
C741 C738 1.409 1_556 S
C741 C739 1.415 . S
C742 H732 0.930 . S
C742 C740 1.419 . S
C742 C743 1.362 . S
C743 H733 0.930 1_556 S
C743 C736 1.409 1_556 S
C743 C742 1.362 . S
H744 C750 0.930 . S
H745 C753 0.930 . S
H746 C754 0.930 . S
H747 C755 0.930 . S
H748 C758 0.930 . S
H749 C759 0.930 . S
C750 H744 0.930 . S
C750 C751 1.355 . S
C750 C752 1.415 . S
C751 C750 1.355 . S
C751 C753 1.419 . S
C752 C750 1.415 . S
C752 C757 1.425 . S
C752 C759 1.409 . S
C753 H745 0.930 . S
C753 C751 1.419 . S
C753 C754 1.362 . S
C754 H746 0.930 . S
C754 C753 1.362 . S
C754 C757 1.409 . S
C755 H747 0.930 . S
C755 C756 1.355 . S
C755 C757 1.415 . S
C756 C755 1.355 . S
C756 C758 1.419 . S
C757 C752 1.425 . S
C757 C754 1.409 . S
C757 C755 1.415 . S
C758 H748 0.930 . S
C758 C756 1.419 . S
C758 C759 1.362 . S
C759 H749 0.930 . S
C759 C752 1.409 . S
C759 C758 1.362 . S
H760 C766 0.930 . S
H761 C769 0.931 . S
H762 C770 0.930 . S
H763 C771 0.930 . S
H764 C774 0.931 . S
H765 C775 0.930 . S
C766 H760 0.930 . S
C766 C767 1.355 . S
C766 C768 1.415 . S
C767 C766 1.355 . S
C767 C769 1.419 . S
C768 C766 1.415 . S
C768 C773 1.425 1_554 S
C768 C775 1.409 . S
C769 H761 0.931 . S
C769 C767 1.419 . S
C769 C770 1.362 1_554 S
C770 H762 0.930 . S
C770 C769 1.362 1_556 S
C770 C773 1.409 . S
C771 H763 0.930 . S
C771 C772 1.355 . S
C771 C773 1.415 . S
C772 C771 1.355 . S
C772 C774 1.419 . S
C773 C768 1.425 1_556 S
C773 C770 1.409 . S
C773 C771 1.415 . S
C774 H764 0.931 . S
C774 C772 1.419 . S
C774 C775 1.362 1_556 S
C775 H765 0.930 . S
C775 C768 1.409 . S
C775 C774 1.362 1_554 S
H776 C782 0.930 . S
H777 C785 0.930 . S
H778 C786 0.930 . S
H779 C787 0.930 . S
H780 C790 0.930 . S
H781 C791 0.930 . S
C782 H776 0.930 . S
C782 C783 1.355 . S
C782 C784 1.415 . S
C783 C782 1.355 . S
C783 C785 1.419 . S
C784 C782 1.415 . S
C784 C789 1.425 . S
C784 C791 1.409 . S
C785 H777 0.930 . S
C785 C783 1.419 . S
C785 C786 1.362 . S
C786 H778 0.930 . S
C786 C785 1.362 . S
C786 C789 1.409 . S
C787 H779 0.930 . S
C787 C788 1.355 . S
C787 C789 1.415 . S
C788 C787 1.355 . S
C788 C790 1.419 . S
C789 C784 1.425 . S
C789 C786 1.409 . S
C789 C787 1.415 . S
C790 H780 0.930 . S
C790 C788 1.419 . S
C790 C791 1.362 . S
C791 H781 0.930 . S
C791 C784 1.409 . S
C791 C790 1.362 . S
H792 C798 0.930 . S
H793 C801 0.930 . S
H794 C802 0.930 . S
H795 C803 0.930 . S
H796 C806 0.930 . S
H797 C807 0.930 . S
C798 H792 0.930 . S
C798 C799 1.355 . S
C798 C800 1.415 . S
C799 C798 1.355 . S
C799 C801 1.419 . S
C800 C798 1.415 . S
C800 C805 1.425 . S
C800 C807 1.409 . S
C801 H793 0.930 . S
C801 C799 1.419 . S
C801 C802 1.362 . S
C802 H794 0.930 . S
C802 C801 1.362 . S
C802 C805 1.409 . S
C803 H795 0.930 . S
C803 C804 1.355 . S
C803 C805 1.415 . S
C804 C803 1.355 . S
C804 C806 1.419 . S
C805 C800 1.425 . S
C805 C802 1.409 . S
C805 C803 1.415 . S
C806 H796 0.930 . S
C806 C804 1.419 . S
C806 C807 1.362 . S
C807 H797 0.930 . S
C807 C800 1.409 . S
C807 C806 1.362 . S
H808 C814 0.930 . S
H809 C817 0.930 . S
H810 C818 0.930 . S
H811 C819 0.930 . S
H812 C822 0.930 . S
H813 C823 0.930 . S
C814 H808 0.930 . S
C814 C815 1.355 . S
C814 C816 1.415 . S
C815 C814 1.355 . S
C815 C817 1.419 . S
C816 C814 1.415 . S
C816 C821 1.425 1_455 S
C816 C823 1.409 1_455 S
C817 H809 0.930 . S
C817 C815 1.419 . S
C817 C818 1.362 . S
C818 H810 0.930 . S
C818 C817 1.362 . S
C818 C821 1.409 1_455 S
C819 H811 0.930 . S
C819 C820 1.355 . S
C819 C821 1.415 . S
C820 C819 1.355 . S
C820 C822 1.419 . S
C821 C816 1.425 1_655 S
C821 C818 1.409 1_655 S
C821 C819 1.415 . S
C822 H812 0.930 . S
C822 C820 1.419 . S
C822 C823 1.362 . S
C823 H813 0.930 . S
C823 C816 1.409 1_655 S
C823 C822 1.362 . S
H824 C830 0.930 . S
H825 C833 0.930 . S
H826 C834 0.930 . S
H827 C835 0.930 . S
H828 C838 0.930 . S
H829 C839 0.930 . S
C830 H824 0.930 . S
C830 C831 1.355 . S
C830 C832 1.415 . S
C831 C830 1.355 . S
C831 C833 1.419 . S
C832 C830 1.415 . S
C832 C837 1.425 1_545 S
C832 C839 1.409 1_545 S
C833 H825 0.930 . S
C833 C831 1.419 . S
C833 C834 1.362 . S
C834 H826 0.930 . S
C834 C833 1.362 . S
C834 C837 1.409 1_545 S
C835 H827 0.930 . S
C835 C836 1.355 . S
C835 C837 1.415 . S
C836 C835 1.355 . S
C836 C838 1.419 . S
C837 C832 1.425 1_565 S
C837 C834 1.409 1_565 S
C837 C835 1.415 . S
C838 H828 0.930 . S
C838 C836 1.419 . S
C838 C839 1.362 . S
C839 H829 0.930 . S
C839 C832 1.409 1_565 S
C839 C838 1.362 . S
H840 C846 0.930 . S
H841 C849 0.930 . S
H842 C850 0.930 . S
H843 C851 0.930 . S
H844 C854 0.930 . S
H845 C855 0.930 . S
C846 H840 0.930 . S
C846 C847 1.355 . S
C846 C848 1.415 . S
C847 C846 1.355 . S
C847 C849 1.419 . S
C848 C846 1.415 . S
C848 C853 1.425 . S
C848 C855 1.409 . S
C849 H841 0.930 . S
C849 C847 1.419 . S
C849 C850 1.362 . S
C850 H842 0.930 . S
C850 C849 1.362 . S
C850 C853 1.409 . S
C851 H843 0.930 . S
C851 C852 1.355 . S
C851 C853 1.415 . S
C852 C851 1.355 . S
C852 C854 1.419 . S
C853 C848 1.425 . S
C853 C850 1.409 . S
C853 C851 1.415 . S
C854 H844 0.930 . S
C854 C852 1.419 . S
C854 C855 1.362 . S
C855 H845 0.930 . S
C855 C848 1.409 . S
C855 C854 1.362 . S
H856 C862 0.930 . S
H857 C865 0.930 . S
H858 C866 0.930 . S
H859 C867 0.930 . S
H860 C870 0.930 . S
H861 C871 0.930 . S
C862 H856 0.930 . S
C862 C863 1.355 . S
C862 C864 1.415 . S
C863 C862 1.355 . S
C863 C865 1.419 . S
C864 C862 1.415 . S
C864 C869 1.425 1_455 S
C864 C871 1.409 1_455 S
C865 H857 0.930 . S
C865 C863 1.419 . S
C865 C866 1.362 . S
C866 H858 0.930 . S
C866 C865 1.362 . S
C866 C869 1.409 1_455 S
C867 H859 0.930 . S
C867 C868 1.355 . S
C867 C869 1.415 . S
C868 C867 1.355 . S
C868 C870 1.419 . S
C869 C864 1.425 1_655 S
C869 C866 1.409 1_655 S
C869 C867 1.415 . S
C870 H860 0.930 . S
C870 C868 1.419 . S
C870 C871 1.362 . S
C871 H861 0.930 . S
C871 C864 1.409 1_655 S
C871 C870 1.362 . S
H872 C878 0.930 . S
H873 C881 0.930 . S
H874 C882 0.930 . S
H875 C883 0.930 . S
H876 C886 0.930 . S
H877 C887 0.930 . S
C878 H872 0.930 . S
C878 C879 1.355 . S
C878 C880 1.415 . S
C879 C878 1.355 . S
C879 C881 1.419 . S
C880 C878 1.415 . S
C880 C885 1.425 1_565 S
C880 C887 1.409 1_565 S
C881 H873 0.930 . S
C881 C879 1.419 . S
C881 C882 1.362 . S
C882 H874 0.930 . S
C882 C881 1.362 . S
C882 C885 1.409 1_565 S
C883 H875 0.930 . S
C883 C884 1.355 . S
C883 C885 1.415 . S
C884 C883 1.355 . S
C884 C886 1.419 . S
C885 C880 1.425 1_545 S
C885 C882 1.409 1_545 S
C885 C883 1.415 . S
C886 H876 0.930 . S
C886 C884 1.419 . S
C886 C887 1.362 . S
C887 H877 0.930 . S
C887 C880 1.409 1_545 S
C887 C886 1.362 . S
C415 C2 2.928 . S
C420 C206 2.928 . S
C431 C36 2.927 . S
C436 C240 2.927 . S
C447 C70 2.930 . S
C452 C274 2.929 . S
C463 C308 2.927 . S
C468 C104 2.927 . S
C479 C138 2.929 . S
C484 C342 2.928 . S
C495 C376 2.929 . S
C500 C172 2.930 . S
C511 C311 1.119 . S
C516 C107 1.046 . S
C527 C141 1.045 . S
C532 C345 1.119 . S
C543 C379 1.051 . S
C548 C175 1.063 . S
C559 C209 1.039 . S
C564 C5 1.116 . S
C575 C243 1.116 . S
C580 C39 1.039 . S
C591 C73 1.037 . S
C596 C277 1.084 . S
C607 C349 0.799 . S
C612 C9 0.846 . S
C623 C43 0.764 . S
C628 C383 0.777 . S
C639 C77 0.793 . S
C644 C213 0.845 . S
C655 C111 0.785 . S
C660 C247 0.842 . S
C671 C145 0.758 . S
C676 C281 0.791 . S
C687 C179 0.838 . S
C692 C315 0.776 . S
C703 C122 2.266 . S
C708 C258 2.272 . S
C719 C156 2.262 . S
C724 C292 2.278 . S
C735 C326 2.261 . S
C740 C190 2.279 . S
C751 C20 2.274 . S
C756 C360 2.264 . S
C767 C394 2.268 . S
C772 C54 2.275 . S
C783 C88 2.277 . S
C788 C224 2.262 . S
C799 C33 0.804 . S
C804 C339 0.793 . S
C815 C373 0.794 . S
C820 C67 0.803 . S
C831 C407 0.826 . S
C836 C101 0.779 . S
C847 C237 0.793 . S
C852 C135 0.804 . S
C863 C169 0.831 . S
C868 C271 0.771 . S
C879 C305 0.774 . S
C884 C203 0.830 . S
