# Generated by pormake.
# Topology wft, (7)-cn, num edge types: 1
# Building blocks:
#     Node 0, Type 0, BuildingBlock: HICVOG_clean_sbu_0, # of connection points: 7
#     Node 1, Type 0, BuildingBlock: HICVOG_clean_sbu_0, # of connection points: 7
#     Node 2, Type 0, BuildingBlock: HICVOG_clean_sbu_0, # of connection points: 7
#     Node 3, Type 0, BuildingBlock: HICVOG_clean_sbu_0, # of connection points: 7
#     Node 4, Type 0, BuildingBlock: HICVOG_clean_sbu_0, # of connection points: 7
#     Node 5, Type 0, BuildingBlock: HICVOG_clean_sbu_0, # of connection points: 7
#     Node 6, Type 0, BuildingBlock: HICVOG_clean_sbu_0, # of connection points: 7
#     Node 7, Type 0, BuildingBlock: HICVOG_clean_sbu_0, # of connection points: 7
#     Edge 8, Type (0, 0), BuildingBlock: MIFKUJ_clean_linker_0, # of connection points: 2
#     Edge 9, Type (0, 0), BuildingBlock: MIFKUJ_clean_linker_0, # of connection points: 2
#     Edge 10, Type (0, 0), BuildingBlock: MIFKUJ_clean_linker_0, # of connection points: 2
#     Edge 11, Type (0, 0), BuildingBlock: MIFKUJ_clean_linker_0, # of connection points: 2
#     Edge 12, Type (0, 0), BuildingBlock: MIFKUJ_clean_linker_0, # of connection points: 2
#     Edge 13, Type (0, 0), BuildingBlock: MIFKUJ_clean_linker_0, # of connection points: 2
#     Edge 14, Type (0, 0), BuildingBlock: MIFKUJ_clean_linker_0, # of connection points: 2
#     Edge 15, Type (0, 0), BuildingBlock: MIFKUJ_clean_linker_0, # of connection points: 2
#     Edge 16, Type (0, 0), BuildingBlock: MIFKUJ_clean_linker_0, # of connection points: 2
#     Edge 17, Type (0, 0), BuildingBlock: MIFKUJ_clean_linker_0, # of connection points: 2
#     Edge 18, Type (0, 0), BuildingBlock: MIFKUJ_clean_linker_0, # of connection points: 2
#     Edge 19, Type (0, 0), BuildingBlock: MIFKUJ_clean_linker_0, # of connection points: 2
#     Edge 20, Type (0, 0), BuildingBlock: MIFKUJ_clean_linker_0, # of connection points: 2
#     Edge 21, Type (0, 0), BuildingBlock: MIFKUJ_clean_linker_0, # of connection points: 2
#     Edge 22, Type (0, 0), BuildingBlock: MIFKUJ_clean_linker_0, # of connection points: 2
#     Edge 23, Type (0, 0), BuildingBlock: MIFKUJ_clean_linker_0, # of connection points: 2
#     Edge 24, Type (0, 0), BuildingBlock: MIFKUJ_clean_linker_0, # of connection points: 2
#     Edge 25, Type (0, 0), BuildingBlock: MIFKUJ_clean_linker_0, # of connection points: 2
#     Edge 26, Type (0, 0), BuildingBlock: MIFKUJ_clean_linker_0, # of connection points: 2
#     Edge 27, Type (0, 0), BuildingBlock: MIFKUJ_clean_linker_0, # of connection points: 2
#     Edge 28, Type (0, 0), BuildingBlock: MIFKUJ_clean_linker_0, # of connection points: 2
#     Edge 29, Type (0, 0), BuildingBlock: MIFKUJ_clean_linker_0, # of connection points: 2
#     Edge 30, Type (0, 0), BuildingBlock: MIFKUJ_clean_linker_0, # of connection points: 2
#     Edge 31, Type (0, 0), BuildingBlock: MIFKUJ_clean_linker_0, # of connection points: 2
#     Edge 32, Type (0, 0), BuildingBlock: MIFKUJ_clean_linker_0, # of connection points: 2
#     Edge 33, Type (0, 0), BuildingBlock: MIFKUJ_clean_linker_0, # of connection points: 2
#     Edge 34, Type (0, 0), BuildingBlock: MIFKUJ_clean_linker_0, # of connection points: 2
#     Edge 35, Type (0, 0), BuildingBlock: MIFKUJ_clean_linker_0, # of connection points: 2
# Relax obj value: 0.189
# Max RMSD: 0.216
# Mean RMSD: 0.216
data_MOF--net-wft--node1-HICVOG_clean_sbu_0--edge1-MIFKUJ_clean_linker_0
_symmetry_space_group_name_H-M    P1
_symmetry_Int_Tables_number       1
_symmetry_cell_setting            triclinic
loop_
_symmetry_equiv_pos_as_xyz
'x, y, z'
_cell_length_a     41.016814
_cell_length_b     41.05906
_cell_length_c     38.381305
_cell_angle_alpha  89.951197
_cell_angle_beta   89.896923
_cell_angle_gamma 89.755145
loop_
_atom_site_label
_atom_site_type_symbol
_atom_site_fract_x
_atom_site_fract_y
_atom_site_fract_z
_atom_type_partial_charge
Zn0 Zn 0.34226 0.29364 0.34403 0.0
C1 C 0.34043 0.26312 0.24272 0.0
N2 N 0.30806 0.26667 0.24685 0.0
C3 C 0.30516 0.27585 0.28023 0.0
N4 N 0.33466 0.27759 0.29618 0.0
N5 N 0.35705 0.26936 0.27236 0.0
C6 C 0.4594 0.27872 0.24519 0.0
O7 O 0.45343 0.30353 0.26587 0.0
O8 O 0.31948 0.26919 0.38332 0.0
Zn9 Zn 0.40223 0.25364 0.28121 0.0
N10 N 0.32926 0.33899 0.34688 0.0
C11 C 0.31833 0.3896 0.31902 0.0
C12 C 0.32454 0.35627 0.31711 0.0
C13 C 0.32887 0.35389 0.37861 0.0
N14 N 0.31819 0.40451 0.35057 0.0
C15 C 0.32343 0.38774 0.3807 0.0
O16 O 0.42431 0.27374 0.32227 0.0
C17 C 0.41814 0.28817 0.3507 0.0
O18 O 0.38911 0.29509 0.35958 0.0
H19 H 0.3262 0.34439 0.29205 0.0
H20 H 0.33431 0.33965 0.40162 0.0
C21 C 0.42423 0.18767 0.28673 0.0
C22 C 0.42248 0.15528 0.29824 0.0
C23 C 0.36953 0.16562 0.32082 0.0
C24 C 0.37146 0.1978 0.30952 0.0
N25 N 0.39878 0.20822 0.29296 0.0
N26 N 0.39512 0.14522 0.31519 0.0
H27 H 0.44598 0.19679 0.2741 0.0
C28 C 0.30722 0.241 0.38739 0.0
O29 O 0.30539 0.22106 0.36077 0.0
O30 O 0.43785 0.25643 0.24276 0.0
H31 H 0.35161 0.21452 0.3144 0.0
H32 H 0.31437 0.40367 0.29556 0.0
H33 H 0.34806 0.15702 0.33434 0.0
Zn34 Zn 0.25168 0.62821 0.72845 0.0
C35 C 0.27586 0.72449 0.73388 0.0
N36 N 0.26706 0.72063 0.76731 0.0
C37 C 0.26263 0.68832 0.77005 0.0
N38 N 0.26795 0.67262 0.73961 0.0
N39 N 0.27663 0.6955 0.71664 0.0
C40 C 0.23971 0.72226 0.62461 0.0
O41 O 0.22423 0.73341 0.65208 0.0
O42 O 0.24893 0.5928 0.76724 0.0
Zn43 Zn 0.29289 0.68765 0.66871 0.0
N44 N 0.20826 0.63447 0.7106 0.0
C45 C 0.17102 0.66759 0.67885 0.0
C46 C 0.20218 0.66186 0.69182 0.0
C47 C 0.18458 0.61203 0.71638 0.0
N48 N 0.14723 0.64545 0.68493 0.0
C49 C 0.1531 0.61758 0.70319 0.0
O50 O 0.298 0.64054 0.65492 0.0
C51 C 0.29199 0.61129 0.66339 0.0
O52 O 0.27576 0.60469 0.69059 0.0
H53 H 0.2214 0.67908 0.687 0.0
H54 H 0.19017 0.59046 0.73149 0.0
C55 C 0.35268 0.70286 0.63384 0.0
C56 C 0.38648 0.7085 0.63213 0.0
C57 C 0.38745 0.71503 0.69361 0.0
C58 C 0.35425 0.7083 0.69524 0.0
N59 N 0.33738 0.70292 0.66538 0.0
N60 N 0.4028 0.71462 0.66228 0.0
H61 H 0.33895 0.69656 0.61078 0.0
C62 C 0.27212 0.57204 0.7699 0.0
O63 O 0.29975 0.57824 0.75389 0.0
O64 O 0.26588 0.70588 0.62841 0.0
H65 H 0.34227 0.70638 0.72023 0.0
H66 H 0.16575 0.68941 0.66404 0.0
H67 H 0.40115 0.71952 0.71716 0.0
Zn68 Zn 0.62821 0.77871 0.28893 0.0
C69 C 0.72537 0.7596 0.28207 0.0
N70 N 0.72071 0.76671 0.2483 0.0
C71 C 0.68815 0.76967 0.24595 0.0
N72 N 0.67314 0.76502 0.2769 0.0
N73 N 0.69664 0.75784 0.2997 0.0
C74 C 0.72183 0.79166 0.38855 0.0
O75 O 0.71903 0.81101 0.36146 0.0
O76 O 0.59291 0.78087 0.25017 0.0
Zn77 Zn 0.6903 0.73851 0.34638 0.0
N78 N 0.63206 0.82075 0.31138 0.0
C79 C 0.64876 0.84768 0.36309 0.0
C80 C 0.64637 0.81954 0.3432 0.0
C81 C 0.61993 0.84922 0.29836 0.0
N82 N 0.63614 0.87589 0.35058 0.0
C83 C 0.62156 0.87771 0.31877 0.0
O84 O 0.64344 0.73316 0.36246 0.0
C85 C 0.61391 0.73651 0.35301 0.0
O86 O 0.60649 0.75081 0.32479 0.0
H87 H 0.65546 0.79667 0.35318 0.0
H88 H 0.60794 0.84919 0.2733 0.0
C89 C 0.70764 0.6763 0.3755 0.0
C90 C 0.71405 0.64254 0.37426 0.0
C91 C 0.71566 0.64556 0.3124 0.0
C92 C 0.70832 0.67865 0.31381 0.0
N93 N 0.70511 0.69355 0.34523 0.0
N94 N 0.71807 0.62834 0.34246 0.0
H95 H 0.70302 0.68857 0.39994 0.0
C96 C 0.56552 0.79148 0.26165 0.0
O97 O 0.5635 0.8009 0.29427 0.0
O98 O 0.71327 0.762 0.386 0.0
H99 H 0.70483 0.69227 0.29 0.0
H100 H 0.65997 0.84703 0.38856 0.0
H101 H 0.71862 0.63345 0.28757 0.0
Zn102 Zn 0.77685 0.40186 0.72615 0.0
C103 C 0.74594 0.30924 0.74103 0.0
N104 N 0.74975 0.31673 0.77481 0.0
C105 C 0.75637 0.34869 0.77418 0.0
N106 N 0.75678 0.36073 0.74139 0.0
N107 N 0.7491 0.33602 0.72038 0.0
C108 C 0.78704 0.33876 0.61841 0.0
O109 O 0.78849 0.36958 0.62728 0.0
O110 O 0.77956 0.44019 0.76108 0.0
Zn111 Zn 0.73584 0.33995 0.6707 0.0
N112 N 0.82089 0.39063 0.71243 0.0
C113 C 0.85775 0.35243 0.68731 0.0
C114 C 0.82632 0.3612 0.69728 0.0
C115 C 0.84581 0.4116 0.71848 0.0
N116 N 0.88258 0.37344 0.69299 0.0
C117 C 0.87777 0.40301 0.70832 0.0
O118 O 0.72885 0.38611 0.65349 0.0
C119 C 0.73702 0.41544 0.65924 0.0
O120 O 0.75494 0.42284 0.68494 0.0
H121 H 0.80641 0.34465 0.69288 0.0
H122 H 0.8405 0.43434 0.73145 0.0
C123 C 0.67864 0.32101 0.63254 0.0
C124 C 0.64596 0.31106 0.62875 0.0
C125 C 0.64378 0.2997 0.68939 0.0
C126 C 0.67556 0.31077 0.69318 0.0
N127 N 0.69273 0.32062 0.66472 0.0
N128 N 0.62969 0.30041 0.65751 0.0
H129 H 0.69222 0.33064 0.61067 0.0
C130 C 0.75641 0.46103 0.76312 0.0
O131 O 0.7284 0.45416 0.74835 0.0
O132 O 0.76772 0.32004 0.63504 0.0
H133 H 0.68576 0.31253 0.7189 0.0
H134 H 0.86241 0.32914 0.67509 0.0
H135 H 0.62999 0.29162 0.71181 0.0
Zn136 Zn 0.90139 0.27716 0.22743 0.0
C137 C 0.8065 0.25201 0.24184 0.0
N138 N 0.81411 0.25864 0.27514 0.0
C139 C 0.84637 0.26337 0.27418 0.0
N140 N 0.85868 0.25985 0.24181 0.0
N141 N 0.83368 0.25201 0.22117 0.0
C142 C 0.83782 0.28629 0.11874 0.0
O143 O 0.86794 0.28912 0.12978 0.0
O144 O 0.93916 0.27827 0.26369 0.0
Zn145 Zn 0.83799 0.23631 0.17223 0.0
N146 N 0.89295 0.32162 0.21377 0.0
C147 C 0.85629 0.36141 0.19123 0.0
C148 C 0.86355 0.32918 0.19953 0.0
C149 C 0.91558 0.34501 0.21988 0.0
N150 N 0.87868 0.38484 0.19771 0.0
C151 C 0.90831 0.3776 0.21175 0.0
O152 O 0.8843 0.22901 0.15533 0.0
C153 C 0.9138 0.23668 0.161 0.0
O154 O 0.92161 0.25456 0.18655 0.0
H155 H 0.84574 0.31041 0.1949 0.0
H156 H 0.93852 0.33831 0.23182 0.0
C157 C 0.82163 0.17606 0.13813 0.0
C158 C 0.81248 0.14302 0.13695 0.0
C159 C 0.79738 0.14578 0.1966 0.0
C160 C 0.8076 0.17799 0.19797 0.0
N161 N 0.81908 0.19281 0.16872 0.0
N162 N 0.80038 0.12902 0.16639 0.0
H163 H 0.83234 0.18785 0.11565 0.0
C164 C 0.9608 0.25573 0.26391 0.0
O165 O 0.95525 0.22916 0.24587 0.0
O166 O 0.8188 0.26668 0.13456 0.0
H167 H 0.80744 0.19044 0.22261 0.0
H168 H 0.83296 0.36781 0.17998 0.0
H169 H 0.78814 0.13381 0.21969 0.0
Zn170 Zn 0.279 0.1294 0.78659 0.0
C171 C 0.25613 0.2259 0.78142 0.0
N172 N 0.26664 0.22256 0.74853 0.0
C173 C 0.27041 0.19019 0.74501 0.0
N174 N 0.26303 0.1739 0.77465 0.0
N175 N 0.2536 0.19651 0.7977 0.0
C176 C 0.2855 0.22346 0.88903 0.0
O177 O 0.30206 0.23187 0.86119 0.0
O178 O 0.28367 0.09273 0.74926 0.0
Zn179 Zn 0.23423 0.18853 0.84448 0.0
N180 N 0.32073 0.13577 0.80838 0.0
C181 C 0.3489 0.16101 0.85513 0.0
C182 C 0.3204 0.15596 0.83636 0.0
C183 C 0.34847 0.12005 0.79834 0.0
N184 N 0.37651 0.14513 0.8455 0.0
C185 C 0.37729 0.12466 0.81758 0.0
O186 O 0.22845 0.14127 0.85873 0.0
C187 C 0.23551 0.11233 0.84967 0.0
O188 O 0.25307 0.10671 0.82317 0.0
H189 H 0.29789 0.16749 0.84428 0.0
H190 H 0.34767 0.10333 0.77659 0.0
C191 C 0.17282 0.20742 0.87505 0.0
C192 C 0.13929 0.21535 0.87435 0.0
C193 C 0.1418 0.21744 0.81245 0.0
C194 C 0.17456 0.20861 0.81337 0.0
N195 N 0.18966 0.20455 0.84454 0.0
N196 N 0.125 0.22036 0.84276 0.0
H197 H 0.18521 0.20196 0.8992 0.0
C198 C 0.25993 0.07286 0.74588 0.0
O199 O 0.2316 0.08105 0.75935 0.0
O200 O 0.25891 0.20788 0.88573 0.0
H201 H 0.1878 0.20471 0.78935 0.0
H202 H 0.34898 0.17697 0.87755 0.0
H203 H 0.12956 0.22119 0.78782 0.0
Zn204 Zn 0.18967 0.79164 0.16834 0.0
C205 C 0.18819 0.76854 0.27139 0.0
N206 N 0.22012 0.77554 0.2689 0.0
C207 C 0.22381 0.78243 0.23496 0.0
N208 N 0.1954 0.7796 0.21732 0.0
N209 N 0.17279 0.77062 0.24034 0.0
C210 C 0.07258 0.77472 0.25888 0.0
O211 O 0.08025 0.79792 0.23678 0.0
O212 O 0.21727 0.7649 0.13481 0.0
Zn213 Zn 0.13214 0.74729 0.2297 0.0
N214 N 0.19999 0.83751 0.16309 0.0
C215 C 0.20829 0.88915 0.1896 0.0
C216 C 0.2035 0.85574 0.19238 0.0
C217 C 0.20039 0.85159 0.1309 0.0
N218 N 0.20834 0.90325 0.15766 0.0
C219 C 0.20437 0.88556 0.12798 0.0
O220 O 0.11125 0.75944 0.18405 0.0
C221 C 0.11653 0.77495 0.15599 0.0
O222 O 0.1441 0.78758 0.14956 0.0
H223 H 0.20184 0.84463 0.21781 0.0
H224 H 0.19619 0.83665 0.10814 0.0
C225 C 0.12136 0.67827 0.23124 0.0
C226 C 0.13084 0.64521 0.23077 0.0
C227 C 0.18588 0.66152 0.22244 0.0
C228 C 0.17632 0.69403 0.22297 0.0
N229 N 0.14434 0.7018 0.22755 0.0
N230 N 0.16305 0.63803 0.22633 0.0
H231 H 0.09617 0.68562 0.23395 0.0
C232 C 0.2062 0.73738 0.12531 0.0
O233 O 0.18059 0.72564 0.14158 0.0
O234 O 0.09323 0.75182 0.26403 0.0
H235 H 0.19435 0.71286 0.21973 0.0
H236 H 0.21121 0.90393 0.2127 0.0
H237 H 0.21123 0.65496 0.21889 0.0
Zn238 Zn 0.754 0.90357 0.7878 0.0
C239 C 0.77878 0.80833 0.77626 0.0
N240 N 0.77437 0.81469 0.74229 0.0
C241 C 0.76939 0.8471 0.74191 0.0
N242 N 0.77076 0.86031 0.77409 0.0
N243 N 0.77748 0.83583 0.7958 0.0
C244 C 0.74316 0.83703 0.89534 0.0
O245 O 0.73976 0.86685 0.88351 0.0
O246 O 0.75563 0.94167 0.75206 0.0
Zn247 Zn 0.79359 0.83912 0.84403 0.0
N248 N 0.70877 0.89729 0.8 0.0
C249 C 0.66783 0.86427 0.82597 0.0
C250 C 0.6999 0.86865 0.81501 0.0
C251 C 0.68659 0.92148 0.79456 0.0
N252 N 0.64582 0.88862 0.82122 0.0
C253 C 0.65423 0.91712 0.80551 0.0
O254 O 0.80098 0.8848 0.86182 0.0
C255 C 0.79328 0.91433 0.85615 0.0
O256 O 0.77578 0.92236 0.83025 0.0
H257 H 0.71767 0.84955 0.819 0.0
H258 H 0.69431 0.94414 0.78277 0.0
C259 C 0.85267 0.81465 0.87649 0.0
C260 C 0.88569 0.80487 0.87634 0.0
C261 C 0.88505 0.80484 0.81446 0.0
C262 C 0.85296 0.8158 0.81478 0.0
N263 N 0.83705 0.81983 0.84561 0.0
N264 N 0.90068 0.79999 0.84508 0.0
H265 H 0.84005 0.81985 0.90065 0.0
C266 C 0.77779 0.96315 0.75593 0.0
O267 O 0.80241 0.95634 0.77657 0.0
O268 O 0.76379 0.81823 0.88054 0.0
H269 H 0.84126 0.82196 0.79051 0.0
H270 H 0.66052 0.84179 0.83841 0.0
H271 H 0.89783 0.80126 0.79008 0.0
H272 H 0.32183 0.21092 0.20587 0.0
H273 H 0.32877 0.20314 0.14348 0.0
H274 H 0.3944 0.28496 0.13978 0.0
H275 H 0.38699 0.29293 0.20289 0.0
H276 H 0.34659 0.29318 0.09458 0.0
H277 H 0.42025 0.20745 0.11606 0.0
H278 H 0.44252 0.15823 0.14423 0.0
H279 H 0.36166 0.10235 0.10668 0.0
H280 H 0.33852 0.15134 0.0788 0.0
H281 H 0.33745 0.26169 0.90793 0.0
H282 H 0.36087 0.26824 0.96641 0.0
H283 H 0.28903 0.20245 0.00806 0.0
H284 H 0.26515 0.19633 0.95025 0.0
H285 H 0.3551 0.18902 0.02978 0.0
H286 H 0.27737 0.27889 0.02121 0.0
H287 H 0.25459 0.32907 0.99538 0.0
H288 H 0.3465 0.37712 0.00869 0.0
H289 H 0.36989 0.32708 0.0344 0.0
C290 C 0.33889 0.22633 0.19202 0.0
C291 C 0.35419 0.25224 0.20917 0.0
C292 C 0.34285 0.22192 0.15623 0.0
C293 C 0.3622 0.24339 0.13667 0.0
C294 C 0.37942 0.26801 0.15425 0.0
C295 C 0.37556 0.2723 0.19036 0.0
C296 C 0.36031 0.2425 0.09784 0.0
C297 C 0.34949 0.27058 0.08025 0.0
C298 C 0.36361 0.21299 0.07899 0.0
C299 C 0.37756 0.18321 0.09538 0.0
C300 C 0.40708 0.18473 0.11395 0.0
C301 C 0.41988 0.15684 0.12988 0.0
C302 C 0.40351 0.12718 0.12726 0.0
C303 C 0.37433 0.12534 0.10866 0.0
C304 C 0.36138 0.15317 0.09273 0.0
C305 C 0.32655 0.24877 0.9296 0.0
C306 C 0.2993 0.22864 0.92438 0.0
C307 C 0.34001 0.25248 0.96296 0.0
C308 C 0.32678 0.23569 0.99156 0.0
C309 C 0.29975 0.21548 0.98635 0.0
C310 C 0.28598 0.21221 0.95325 0.0
C311 C 0.34044 0.23934 0.02723 0.0
C312 C 0.35331 0.21175 0.04405 0.0
C313 C 0.33934 0.26932 0.0453 0.0
C314 C 0.32547 0.29916 0.02932 0.0
C315 C 0.2928 0.30006 0.01833 0.0
C316 C 0.27973 0.32852 1.00388 0.0
C317 C 0.29907 0.35627 1.00043 0.0
C318 C 0.33153 0.35562 0.01143 0.0
C319 C 0.3447 0.32723 0.02595 0.0
H320 H 0.28894 0.37824 0.98913 0.0
H321 H 0.41345 0.10562 0.13963 0.0
H322 H 0.25456 0.75801 0.08091 0.0
H323 H 0.26501 0.73879 0.02157 0.0
H324 H 0.19246 0.66405 0.03459 0.0
H325 H 0.18224 0.68269 0.09402 0.0
H326 H 0.24298 0.6423 0.99382 0.0
H327 H 0.17158 0.73439 1.00048 0.0
H328 H 0.15468 0.78979 0.01754 0.0
H329 H 0.23415 0.82992 0.95875 0.0
H330 H 0.25162 0.77461 0.94153 0.0
H331 H 0.20307 0.69451 0.79897 0.0
H332 H 0.19146 0.69144 0.86144 0.0
H333 H 0.28769 0.65196 0.87923 0.0
H334 H 0.29873 0.65413 0.81652 0.0
H335 H 0.22162 0.7279 0.90537 0.0
H336 H 0.29159 0.61517 0.95934 0.0
H337 H 0.30417 0.55889 0.94113 0.0
H338 H 0.21847 0.55766 0.87709 0.0
H339 H 0.20498 0.61365 0.89546 0.0
C340 C 0.24135 0.73701 0.07147 0.0
C341 C 0.21723 0.72221 0.09213 0.0
C342 C 0.2473 0.72608 0.03747 0.0
C343 C 0.2291 0.7003 0.02338 0.0
C344 C 0.20677 0.68398 0.04482 0.0
C345 C 0.20087 0.69481 0.07883 0.0
C346 C 0.23068 0.69275 0.98543 0.0
C347 C 0.23846 0.66099 0.97442 0.0
C348 C 0.22376 0.71689 0.96009 0.0
C349 C 0.21303 0.75029 0.96992 0.0
C350 C 0.18548 0.755 0.99125 0.0
C351 C 0.17581 0.78639 1.00096 0.0
C352 C 0.1934 0.81337 0.98932 0.0
C353 C 0.22058 0.80899 0.96778 0.0
C354 C 0.23034 0.77761 0.95799 0.0
C355 C 0.22097 0.68347 0.81609 0.0
C356 C 0.25149 0.6739 0.803 0.0
C357 C 0.21457 0.68222 0.85185 0.0
C358 C 0.23877 0.67178 0.87528 0.0
C359 C 0.26841 0.65975 0.86184 0.0
C360 C 0.27465 0.66068 0.82592 0.0
C361 C 0.23456 0.67748 0.91344 0.0
C362 C 0.22622 0.70905 0.9246 0.0
C363 C 0.24025 0.65296 0.93874 0.0
C364 C 0.24746 0.61878 0.92857 0.0
C365 C 0.27528 0.60281 0.9416 0.0
C366 C 0.28259 0.57096 0.93122 0.0
C367 C 0.26219 0.55475 0.90789 0.0
C368 C 0.2343 0.57027 0.89509 0.0
C369 C 0.22682 0.60207 0.90548 0.0
H370 H 0.26797 0.53015 0.89976 0.0
H371 H 0.18595 0.83767 0.99694 0.0
H372 H 0.74573 0.77847 0.93056 0.0
H373 H 0.7234 0.76665 0.98865 0.0
H374 H 0.68181 0.86312 0.99323 0.0
H375 H 0.70364 0.87509 0.93555 0.0
H376 H 0.72263 0.84569 0.0511 0.0
H377 H 0.63178 0.80458 0.98553 0.0
H378 H 0.60567 0.77042 0.94084 0.0
H379 H 0.64061 0.68415 0.99219 0.0
H380 H 0.66734 0.71783 0.03693 0.0
H381 H 0.66069 0.82539 0.21969 0.0
H382 H 0.6558 0.83766 0.15714 0.0
H383 H 0.68034 0.73785 0.13299 0.0
H384 H 0.68416 0.72566 0.19499 0.0
H385 H 0.64325 0.76004 0.08357 0.0
H386 H 0.73687 0.79895 0.14629 0.0
H387 H 0.7655 0.83128 0.19073 0.0
H388 H 0.73156 0.91967 0.14298 0.0
H389 H 0.70135 0.8879 0.09923 0.0
C390 C 0.7314 0.79697 0.94371 0.0
C391 C 0.72665 0.82777 0.92839 0.0
C392 C 0.71864 0.79018 0.97689 0.0
C393 C 0.70111 0.81411 0.99532 0.0
C394 C 0.69544 0.8444 0.97958 0.0
C395 C 0.70789 0.85111 0.94646 0.0
C396 C 0.69055 0.80854 0.03191 0.0
C397 C 0.70476 0.82744 0.0582 0.0
C398 C 0.66801 0.78405 0.04116 0.0
C399 C 0.65182 0.76375 0.0144 0.0
C400 C 0.63414 0.77833 0.98713 0.0
C401 C 0.61917 0.75905 0.96182 0.0
C402 C 0.62154 0.72514 0.96363 0.0
C403 C 0.63882 0.71043 0.9908 0.0
C404 C 0.65385 0.7296 0.01616 0.0
C405 C 0.66324 0.80583 0.20094 0.0
C406 C 0.67244 0.77453 0.21194 0.0
C407 C 0.66095 0.81289 0.1652 0.0
C408 C 0.66862 0.78888 0.1402 0.0
C409 C 0.67444 0.75687 0.15154 0.0
C410 C 0.67644 0.74983 0.18705 0.0
C411 C 0.67518 0.7974 0.10303 0.0
C412 C 0.66059 0.77883 0.07655 0.0
C413 C 0.69789 0.82191 0.09358 0.0
C414 C 0.71628 0.84099 0.11984 0.0
C415 C 0.73513 0.82527 0.14549 0.0
C416 C 0.75167 0.8435 0.17057 0.0
C417 C 0.75039 0.87749 0.16965 0.0
C418 C 0.73244 0.89333 0.14374 0.0
C419 C 0.71542 0.87522 0.11893 0.0
H420 H 0.76336 0.89154 0.18899 0.0
H421 H 0.60994 0.71025 0.94401 0.0
H422 H 0.81451 0.3734 0.79662 0.0
H423 H 0.82966 0.37727 0.85839 0.0
H424 H 0.72932 0.3616 0.88765 0.0
H425 H 0.71431 0.35887 0.82637 0.0
H426 H 0.75677 0.39374 0.93775 0.0
H427 H 0.7822 0.29758 0.87257 0.0
H428 H 0.80693 0.26619 0.82448 0.0
H429 H 0.90239 0.29524 0.85774 0.0
H430 H 0.87813 0.32731 0.9057 0.0
H431 H 0.7771 0.28897 0.08791 0.0
H432 H 0.76345 0.31189 0.03055 0.0
H433 H 0.86314 0.34232 0.0171 0.0
H434 H 0.87689 0.31998 0.07409 0.0
H435 H 0.83847 0.30682 0.96034 0.0
H436 H 0.80691 0.39838 0.03273 0.0
H437 H 0.77673 0.42281 0.08189 0.0
H438 H 0.68606 0.39373 0.03592 0.0
H439 H 0.71573 0.36878 0.98666 0.0
C440 C 0.79553 0.37284 0.81627 0.0
C441 C 0.76323 0.36607 0.80685 0.0
C442 C 0.80421 0.37446 0.85162 0.0
C443 C 0.78079 0.36862 0.87785 0.0
C444 C 0.74794 0.36596 0.86817 0.0
C445 C 0.7393 0.36463 0.83302 0.0
C446 C 0.7906 0.35992 0.91421 0.0
C447 C 0.7747 0.3748 0.94261 0.0
C448 C 0.81362 0.33479 0.9209 0.0
C449 C 0.82835 0.31516 0.89244 0.0
C450 C 0.80846 0.29742 0.8695 0.0
C451 C 0.82238 0.27952 0.84227 0.0
C452 C 0.85621 0.27879 0.838 0.0
C453 C 0.87618 0.2959 0.86103 0.0
C454 C 0.86237 0.31396 0.88823 0.0
C455 C 0.796 0.30089 0.07291 0.0
C456 C 0.82809 0.30255 0.08567 0.0
C457 C 0.78817 0.31401 0.04014 0.0
C458 C 0.81231 0.32884 0.01949 0.0
C459 C 0.84414 0.33098 0.03249 0.0
C460 C 0.85189 0.31825 0.06524 0.0
C461 C 0.80495 0.34088 0.98371 0.0
C462 C 0.82109 0.32628 0.95544 0.0
C463 C 0.78146 0.36547 0.97721 0.0
C464 C 0.76356 0.38155 1.00611 0.0
C465 C 0.78054 0.39711 0.03315 0.0
C466 C 0.76352 0.41106 0.06104 0.0
C467 C 0.7295 0.40977 0.06206 0.0
C468 C 0.71241 0.39471 0.03509 0.0
C469 C 0.72931 0.38072 0.00714 0.0
H470 H 0.71638 0.42047 0.08373 0.0
H471 H 0.86695 0.26492 0.8169 0.0
H472 H 0.86845 0.22007 0.32094 0.0
H473 H 0.87271 0.23083 0.38343 0.0
H474 H 0.8647 0.33389 0.36369 0.0
H475 H 0.85996 0.323 0.30098 0.0
H476 H 0.90584 0.31182 0.42722 0.0
H477 H 0.79839 0.30415 0.37309 0.0
H478 H 0.75746 0.27748 0.33592 0.0
H479 H 0.76423 0.1907 0.39809 0.0
H480 H 0.80552 0.21684 0.43543 0.0
H481 H 0.82183 0.37583 0.57282 0.0
H482 H 0.84488 0.35982 0.51706 0.0
H483 H 0.81594 0.26039 0.53571 0.0
H484 H 0.79144 0.27668 0.59142 0.0
H485 H 0.79879 0.2763 0.47398 0.0
H486 H 0.89906 0.28703 0.53481 0.0
H487 H 0.93997 0.31318 0.57241 0.0
H488 H 0.94869 0.39205 0.4995 0.0
H489 H 0.90747 0.36662 0.46168 0.0
C490 C 0.86965 0.2451 0.32976 0.0
C491 C 0.86444 0.27075 0.30621 0.0
C492 C 0.87175 0.25122 0.36551 0.0
C493 C 0.86869 0.28312 0.37822 0.0
C494 C 0.86733 0.30911 0.35441 0.0
C495 C 0.86491 0.30292 0.31856 0.0
C496 C 0.86033 0.28858 0.41547 0.0
C497 C 0.88243 0.30429 0.43756 0.0
C498 C 0.83009 0.27799 0.42908 0.0
C499 C 0.80527 0.26228 0.40675 0.0
C500 C 0.79136 0.27928 0.37861 0.0
C501 C 0.76806 0.26429 0.35757 0.0
C502 C 0.75832 0.23237 0.36457 0.0
C503 C 0.77184 0.2154 0.39267 0.0
C504 C 0.79516 0.2303 0.4138 0.0
C505 C 0.8207 0.35041 0.56543 0.0
C506 C 0.80462 0.32755 0.58667 0.0
C507 C 0.83422 0.34121 0.53346 0.0
C508 C 0.83268 0.30875 0.5221 0.0
C509 C 0.81755 0.2856 0.5438 0.0
C510 C 0.80361 0.2949 0.57573 0.0
C511 C 0.84424 0.29981 0.48638 0.0
C512 C 0.82254 0.2835 0.46423 0.0
C513 C 0.87496 0.30972 0.47298 0.0
C514 C 0.89998 0.325 0.49551 0.0
C515 C 0.90954 0.31006 0.52689 0.0
C516 C 0.93281 0.32474 0.54824 0.0
C517 C 0.94688 0.35429 0.53838 0.0
C518 C 0.93777 0.36917 0.50711 0.0
C519 C 0.91448 0.3546 0.48568 0.0
H520 H 0.96488 0.36563 0.55495 0.0
H521 H 0.74023 0.22081 0.34829 0.0
H522 H 0.2402 0.14352 0.70579 0.0
H523 H 0.24469 0.13978 0.64184 0.0
H524 H 0.32636 0.2054 0.64397 0.0
H525 H 0.32217 0.20888 0.70727 0.0
H526 H 0.25782 0.22366 0.60845 0.0
H527 H 0.34877 0.14633 0.61734 0.0
H528 H 0.37221 0.09342 0.63482 0.0
H529 H 0.30186 0.04373 0.57171 0.0
H530 H 0.2775 0.09637 0.55456 0.0
H531 H 0.3196 0.27216 0.4486 0.0
H532 H 0.31083 0.25253 0.50754 0.0
H533 H 0.2677 0.16462 0.46739 0.0
H534 H 0.27755 0.18382 0.40762 0.0
H535 H 0.30704 0.14987 0.52043 0.0
H536 H 0.21965 0.22493 0.5055 0.0
H537 H 0.19301 0.27647 0.48842 0.0
H538 H 0.25134 0.32856 0.56239 0.0
H539 H 0.27846 0.27737 0.57982 0.0
C540 C 0.26025 0.15553 0.69271 0.0
C541 C 0.28101 0.1763 0.7114 0.0
C542 C 0.26256 0.15372 0.65618 0.0
C543 C 0.28572 0.17254 0.63822 0.0
C544 C 0.30839 0.19064 0.65731 0.0
C545 C 0.30616 0.19237 0.69353 0.0
C546 C 0.28316 0.17835 0.60013 0.0
C547 C 0.26858 0.20755 0.58915 0.0
C548 C 0.29615 0.15679 0.57499 0.0
C549 C 0.31097 0.12525 0.58514 0.0
C550 C 0.33799 0.12411 0.6076 0.0
C551 C 0.35151 0.09417 0.61739 0.0
C552 C 0.33841 0.06521 0.60458 0.0
C553 C 0.31187 0.06615 0.58181 0.0
C554 C 0.2982 0.09603 0.57205 0.0
C555 C 0.30797 0.24874 0.45209 0.0
C556 C 0.29916 0.22966 0.42321 0.0
C557 C 0.30287 0.23754 0.48599 0.0
C558 C 0.2881 0.20725 0.49214 0.0
C559 C 0.2791 0.18808 0.46341 0.0
C560 C 0.28457 0.19917 0.42925 0.0
C561 C 0.28276 0.19596 0.52872 0.0
C562 C 0.29569 0.16577 0.53951 0.0
C563 C 0.26781 0.21646 0.55384 0.0
C564 C 0.25118 0.24729 0.54387 0.0
C565 C 0.22688 0.24739 0.51804 0.0
C566 C 0.21169 0.27654 0.5083 0.0
C567 C 0.22055 0.30578 0.52423 0.0
C568 C 0.24449 0.30589 0.55008 0.0
C569 C 0.25971 0.27679 0.55998 0.0
H570 H 0.20882 0.32833 0.51659 0.0
H571 H 0.34894 0.0421 0.61219 0.0
H572 H 0.20838 0.71529 0.30587 0.0
H573 H 0.20088 0.70462 0.36779 0.0
H574 H 0.13198 0.78417 0.3741 0.0
H575 H 0.13988 0.79498 0.31155 0.0
H576 H 0.1796 0.79217 0.41966 0.0
H577 H 0.1089 0.70541 0.39407 0.0
H578 H 0.08896 0.65661 0.3636 0.0
H579 H 0.1712 0.60174 0.40071 0.0
H580 H 0.19201 0.65035 0.43091 0.0
H581 H 0.18804 0.76079 0.60441 0.0
H582 H 0.16485 0.76633 0.54576 0.0
H583 H 0.23577 0.69779 0.50634 0.0
H584 H 0.25913 0.69228 0.56448 0.0
H585 H 0.17283 0.68607 0.48107 0.0
H586 H 0.24758 0.77682 0.49493 0.0
H587 H 0.26809 0.82625 0.52389 0.0
H588 H 0.17576 0.87363 0.50804 0.0
H589 H 0.15457 0.82426 0.47938 0.0
C590 C 0.19052 0.72953 0.32017 0.0
C591 C 0.17443 0.75569 0.30403 0.0
C592 C 0.18624 0.72347 0.35565 0.0
C593 C 0.16581 0.74354 0.37583 0.0
C594 C 0.14781 0.76829 0.35911 0.0
C595 C 0.15199 0.77423 0.32334 0.0
C596 C 0.16738 0.74137 0.41459 0.0
C597 C 0.1771 0.76913 0.43323 0.0
C598 C 0.16471 0.71125 0.43239 0.0
C599 C 0.15211 0.68167 0.4147 0.0
C600 C 0.12287 0.68301 0.3956 0.0
C601 C 0.11139 0.65535 0.37836 0.0
C602 C 0.12882 0.6261 0.38019 0.0
C603 C 0.15772 0.62442 0.39934 0.0
C604 C 0.16934 0.65202 0.41658 0.0
C605 C 0.1987 0.74692 0.58324 0.0
C606 C 0.22561 0.72627 0.58918 0.0
C607 C 0.18538 0.75006 0.54975 0.0
C608 C 0.19855 0.73244 0.52163 0.0
C609 C 0.22507 0.71149 0.52764 0.0
C610 C 0.23857 0.70858 0.56092 0.0
C611 C 0.18588 0.73662 0.48555 0.0
C612 C 0.17428 0.70923 0.46755 0.0
C613 C 0.18661 0.76708 0.46832 0.0
C614 C 0.19936 0.79674 0.48545 0.0
C615 C 0.23157 0.79768 0.49791 0.0
C616 C 0.24333 0.8257 0.51421 0.0
C617 C 0.2232 0.85302 0.51792 0.0
C618 C 0.19129 0.85242 0.50523 0.0
C619 C 0.1794 0.82443 0.48895 0.0
H620 H 0.23236 0.87469 0.53053 0.0
H621 H 0.11991 0.60473 0.3668 0.0
H622 H 0.71209 0.86893 0.71435 0.0
H623 H 0.70191 0.87406 0.65151 0.0
H624 H 0.80508 0.86443 0.63166 0.0
H625 H 0.81508 0.86018 0.6941 0.0
H626 H 0.77817 0.89808 0.58026 0.0
H627 H 0.75624 0.79836 0.64265 0.0
H628 H 0.72888 0.7659 0.68813 0.0
H629 H 0.63588 0.78672 0.64185 0.0
H630 H 0.66258 0.82037 0.59684 0.0
H631 H 0.74141 0.75802 0.44625 0.0
H632 H 0.74948 0.77893 0.5051 0.0
H633 H 0.72646 0.87602 0.46932 0.0
H634 H 0.71987 0.85535 0.41 0.0
H635 H 0.70962 0.80355 0.54809 0.0
H636 H 0.75956 0.93299 0.52308 0.0
H637 H 0.79304 0.96229 0.47982 0.0
H638 H 0.84094 0.87286 0.45175 0.0
H639 H 0.80804 0.84313 0.49511 0.0
C640 C 0.73263 0.86993 0.69659 0.0
C641 C 0.76437 0.86447 0.70887 0.0
C642 C 0.72682 0.87241 0.66066 0.0
C643 C 0.75267 0.86872 0.63672 0.0
C644 C 0.78471 0.86724 0.64943 0.0
C645 C 0.79046 0.86499 0.6852 0.0
C646 C 0.74651 0.86042 0.59948 0.0
C647 C 0.76281 0.8777 0.57313 0.0
C648 C 0.72733 0.83314 0.59014 0.0
C649 C 0.71136 0.81221 0.61663 0.0
C650 C 0.72994 0.79618 0.64229 0.0
C651 C 0.71456 0.77759 0.66799 0.0
C652 C 0.68068 0.77419 0.66782 0.0
C653 C 0.66211 0.78942 0.64197 0.0
C654 C 0.67734 0.80836 0.61644 0.0
C655 C 0.73859 0.78392 0.45079 0.0
C656 C 0.73007 0.80501 0.42338 0.0
C657 C 0.74299 0.79586 0.48456 0.0
C658 C 0.73863 0.82914 0.49193 0.0
C659 C 0.73056 0.85036 0.46443 0.0
C660 C 0.72672 0.83848 0.43044 0.0
C661 C 0.74145 0.84108 0.5286 0.0
C662 C 0.72452 0.82434 0.55493 0.0
C663 C 0.76093 0.86816 0.53796 0.0
C664 C 0.78106 0.88581 0.51204 0.0
C665 C 0.7773 0.91961 0.50773 0.0
C666 C 0.79617 0.93629 0.48319 0.0
C667 C 0.81901 0.91943 0.46296 0.0
C668 C 0.82314 0.88587 0.46733 0.0
C669 C 0.80436 0.86909 0.49185 0.0
H670 H 0.83357 0.93238 0.44397 0.0
H671 H 0.66883 0.75974 0.6877 0.0
H672 H 0.45979 0.14481 0.23976 0.0
H673 H 0.5021 0.10271 0.23188 0.0
H674 H 0.48915 0.07244 0.3386 0.0
H675 H 0.44653 0.11363 0.34634 0.0
H676 H 0.55814 0.07991 0.31186 0.0
H677 H 0.45091 0.03077 0.28603 0.0
H678 H 0.39993 0.02911 0.25206 0.0
H679 H 0.45509 0.02116 0.15721 0.0
H680 H 0.50642 0.02317 0.19069 0.0
H681 H 0.59736 0.92416 0.36167 0.0
H682 H 0.57224 0.97581 0.34659 0.0
H683 H 0.58525 0.95487 0.23732 0.0
H684 H 0.61059 0.90246 0.25226 0.0
H685 H 0.52574 0.97941 0.24922 0.0
H686 H 0.63227 1.01283 0.27601 0.0
H687 H 0.68418 0.0158 0.30808 0.0
H688 H 0.63438 0.05625 0.39661 0.0
H689 H 0.58206 0.05306 0.36533 0.0
C690 C 0.46634 0.12939 0.26159 0.0
C691 C 0.4499 0.13227 0.29365 0.0
C692 C 0.49036 0.1054 0.25702 0.0
C693 C 0.49859 0.08458 0.28468 0.0
C694 C 0.48313 0.08839 0.31702 0.0
C695 C 0.45872 0.11175 0.32135 0.0
C696 C 0.52171 0.05725 0.27997 0.0
C697 C 0.5513 0.05794 0.29806 0.0
C698 C 0.51321 0.02923 0.26073 0.0
C699 C 0.48242 0.02751 0.24077 0.0
C700 C 0.45213 0.02892 0.25791 0.0
C701 C 0.4232 0.02786 0.23876 0.0
C702 C 0.42427 0.02514 0.20248 0.0
C703 C 0.4543 0.02333 0.1853 0.0
C704 C 0.48331 0.02441 0.20435 0.0
C705 C 0.59523 0.93048 0.33436 0.0
C706 C 0.6061 0.90901 0.30825 0.0
C707 C 0.58092 0.9602 0.32577 0.0
C708 C 0.57749 0.96961 0.29084 0.0
C709 C 0.58787 0.94819 0.26448 0.0
C710 C 0.60218 0.91813 0.27309 0.0
C711 C 0.56173 1.00134 0.28263 0.0
C712 C 0.53341 1.00158 0.26213 0.0
C713 C 0.57173 0.03046 0.29924 0.0
C714 C 0.60317 0.03258 0.31829 0.0
C715 C 0.63233 0.02217 0.3024 0.0
C716 C 0.66185 0.02391 0.32044 0.0
C717 C 0.66257 0.03618 0.35437 0.0
C718 C 0.63378 0.04677 0.37031 0.0
C719 C 0.60419 0.04506 0.3524 0.0
H720 H 0.68545 0.03751 0.36829 0.0
H721 H 0.40185 0.02436 0.1877 0.0
H722 H 0.87875 0.47011 0.71909 0.0
H723 H 0.92622 0.50479 0.72408 0.0
H724 H 0.98939 0.42142 0.71134 0.0
H725 H 0.94206 0.38595 0.70824 0.0
H726 H 1.01428 0.46193 0.75822 0.0
H727 H 0.97074 0.47162 0.64231 0.0
H728 H 0.92785 0.48172 0.59861 0.0
H729 H 0.91451 0.57881 0.63777 0.0
H730 H 0.95706 0.56915 0.682 0.0
H731 H 0.15575 0.55056 0.70356 0.0
H732 H 0.10983 0.51301 0.7087 0.0
H733 H 0.04392 0.59459 0.72019 0.0
H734 H 0.08953 0.63214 0.71424 0.0
H735 H 0.0211 0.55379 0.67452 0.0
H736 H 0.06822 0.54428 0.78888 0.0
H737 H 0.1125 0.53344 0.83071 0.0
H738 H 0.11997 0.43496 0.79404 0.0
H739 H 0.07655 0.4455 0.7511 0.0
C740 C 0.90253 0.45871 0.71823 0.0
C741 C 0.90626 0.42488 0.71337 0.0
C742 C 0.9298 0.47883 0.72066 0.0
C743 C 0.96136 0.46577 0.71752 0.0
C744 C 0.96527 0.43205 0.71376 0.0
C745 C 0.93806 0.41184 0.7117 0.0
C746 C 0.9902 0.48741 0.71638 0.0
C747 C 1.01597 0.48186 0.73973 0.0
C748 C 0.99222 0.51358 0.69248 0.0
C749 C 0.96687 0.51956 0.66565 0.0
C750 C 0.95852 0.49506 0.64173 0.0
C751 C 0.93429 0.50071 0.61685 0.0
C752 C 0.91841 0.53086 0.61546 0.0
C753 C 0.9268 0.55546 0.63889 0.0
C754 C 0.951 0.54992 0.66384 0.0
C755 C 0.13154 0.56045 0.70776 0.0
C756 C 0.1262 0.59431 0.70874 0.0
C757 C 0.1053 0.53896 0.71066 0.0
C758 C 0.07344 0.55099 0.71516 0.0
C759 C 0.06826 0.58476 0.71666 0.0
C760 C 0.09433 0.60619 0.7133 0.0
C761 C 0.04511 0.52871 0.71671 0.0
C762 C 0.01945 0.53401 0.6932 0.0
C763 C 0.04339 0.50226 0.74035 0.0
C764 C 0.06933 0.49582 0.76645 0.0
C765 C 0.07955 0.52041 0.78944 0.0
C766 C 0.10456 0.51433 0.81331 0.0
C767 C 0.11924 0.4836 0.81483 0.0
C768 C 0.10881 0.45884 0.79261 0.0
C769 C 0.08401 0.46486 0.76847 0.0
H770 H 0.13859 0.47892 0.83333 0.0
H771 H 0.89964 0.53519 0.5962 0.0
H772 H 0.89388 0.4387 0.2337 0.0
H773 H 0.93126 0.48401 0.24269 0.0
H774 H 1.01235 0.42249 0.2133 0.0
H775 H 0.9751 0.37677 0.20513 0.0
H776 H 0.02905 0.46005 0.26604 0.0
H777 H 0.97712 0.47733 0.15557 0.0
H778 H 0.93079 0.48337 0.11518 0.0
H779 H 0.89641 0.56628 0.17286 0.0
H780 H 0.94232 0.56047 0.21389 0.0
H781 H 0.14042 0.58197 0.21197 0.0
H782 H 0.1023 0.53688 0.21532 0.0
H783 H 0.0294 0.60053 0.25952 0.0
H784 H 0.0675 0.64579 0.25749 0.0
H785 H 1.00742 0.56329 0.20265 0.0
H786 H 0.06389 0.54758 0.31037 0.0
H787 H 0.11188 0.54111 0.34834 0.0
H788 H 0.13983 0.45458 0.29289 0.0
H789 H 0.0923 0.46081 0.25415 0.0
C790 C 0.9197 0.43481 0.22929 0.0
C791 C 0.93154 0.40423 0.2187 0.0
C792 C 0.94102 0.46072 0.23437 0.0
C793 C 0.97453 0.45682 0.22806 0.0
C794 C 0.98658 0.42606 0.21831 0.0
C795 C 0.96527 0.39994 0.2137 0.0
C796 C 0.9968 0.48506 0.23065 0.0
C797 C 0.02452 0.4825 0.25189 0.0
C798 C 0.99051 0.51461 0.21273 0.0
C799 C 0.96297 0.51825 0.188 0.0
C800 C 0.95955 0.49671 0.15979 0.0
C801 C 0.93338 0.50011 0.13676 0.0
C802 C 0.91062 0.52514 0.14151 0.0
C803 C 0.91403 0.54688 0.16924 0.0
C804 C 0.94013 0.54355 0.19238 0.0
C805 C 0.11642 0.58656 0.22274 0.0
C806 C 0.10714 0.61797 0.23384 0.0
C807 C 0.09468 0.56062 0.22465 0.0
C808 C 0.06313 0.56541 0.23772 0.0
C809 C 0.05367 0.59646 0.24918 0.0
C810 C 0.07554 0.62246 0.24762 0.0
C811 C 0.03967 0.53817 0.23787 0.0
C812 C 1.01178 0.54092 0.21702 0.0
C813 C 0.04605 0.50872 0.25579 0.0
C814 C 0.07467 0.50487 0.2791 0.0
C815 C 0.08043 0.52734 0.30603 0.0
C816 C 0.10753 0.52369 0.32774 0.0
C817 C 0.12894 0.49751 0.32297 0.0
C818 C 0.12325 0.47488 0.29652 0.0
C819 C 0.09622 0.47845 0.27469 0.0
H820 H 0.14989 0.49471 0.33983 0.0
H821 H 0.89038 0.52773 0.12365 0.0
H822 H 0.42128 0.10236 0.86431 0.0
H823 H 0.47171 0.07279 0.85336 0.0
H824 H 0.45378 0.07715 0.74267 0.0
H825 H 0.40239 0.10622 0.75364 0.0
H826 H 0.4748 0.01949 0.75828 0.0
H827 H 0.5142 0.1246 0.78184 0.0
H828 H 0.51997 0.17736 0.81175 0.0
H829 H 0.55498 0.12856 0.90341 0.0
H830 H 0.54898 0.07545 0.87426 0.0
H831 H 0.64072 0.95361 0.74744 0.0
H832 H 0.5966 0.99395 0.7406 0.0
H833 H 0.56844 0.97913 0.84773 0.0
H834 H 0.61155 0.93815 0.85432 0.0
H835 H 0.57592 0.04855 0.82167 0.0
H836 H 0.52581 0.94271 0.79585 0.0
H837 H 0.52181 0.89183 0.76205 0.0
H838 H 0.51054 0.947 0.66769 0.0
H839 H 0.51498 0.99824 0.70095 0.0
C840 C 0.42809 0.09722 0.83759 0.0
C841 C 0.4078 0.10661 0.80988 0.0
C842 C 0.4571 0.08046 0.83132 0.0
C843 C 0.46703 0.07337 0.79713 0.0
C844 C 0.44673 0.0825 0.76928 0.0
C845 C 0.41731 0.09897 0.77559 0.0
C846 C 0.49794 0.05518 0.79113 0.0
C847 C 0.49712 0.02637 0.77144 0.0
C848 C 0.52727 0.06408 0.80808 0.0
C849 C 0.53096 0.09598 0.82587 0.0
C850 C 0.52292 0.12508 0.80846 0.0
C851 C 0.52626 0.15507 0.82528 0.0
C852 C 0.53779 0.15631 0.85947 0.0
C853 C 0.54605 0.12756 0.87691 0.0
C854 C 0.54274 0.0975 0.86023 0.0
C855 C 0.6252 0.95922 0.76951 0.0
C856 C 0.62942 0.94293 0.80144 0.0
C857 C 0.60004 0.98206 0.76554 0.0
C858 C 0.57943 0.9894 0.7937 0.0
C859 C 0.58423 0.97378 0.82578 0.0
C860 C 0.60871 0.95039 0.82948 0.0
C861 C 0.55213 1.01269 0.78998 0.0
C862 C 0.55377 0.04237 0.80782 0.0
C863 C 0.52392 1.00502 0.77066 0.0
C864 C 0.52119 0.97425 0.75079 0.0
C865 C 0.52284 0.94398 0.76785 0.0
C866 C 0.52041 0.91508 0.74881 0.0
C867 C 0.51605 0.91618 0.71272 0.0
C868 C 0.514 0.94619 0.69563 0.0
C869 C 0.51647 0.97515 0.71456 0.0
H870 H 0.51415 0.89379 0.69802 0.0
H871 H 0.54036 0.17955 0.87245 0.0
H872 H 0.48672 0.22449 0.21325 0.0
H873 H 0.54462 0.21482 0.20033 0.0
H874 H 0.56733 0.31176 0.2357 0.0
H875 H 0.50986 0.32184 0.24748 0.0
H876 H 0.60615 0.29871 0.18466 0.0
H877 H 0.57397 0.2413 0.28879 0.0
H878 H 0.5407 0.20241 0.32233 0.0
H879 H 0.57371 0.12421 0.2568 0.0
H880 H 0.60671 0.16284 0.22234 0.0
H881 H 0.75724 0.23594 0.28521 0.0
H882 H 0.69923 0.23571 0.27455 0.0
H883 H 0.71674 0.2528 0.16518 0.0
H884 H 0.77564 0.25518 0.17665 0.0
H885 H 0.65692 0.204 0.24396 0.0
H886 H 0.65192 0.29306 0.1293 0.0
H887 H 0.68509 0.33635 0.10221 0.0
H888 H 0.72741 0.35859 0.20158 0.0
H889 H 0.69428 0.31568 0.22927 0.0
C890 C 0.50394 0.24401 0.21751 0.0
C891 C 0.49338 0.27394 0.2316 0.0
C892 C 0.53722 0.23835 0.2104 0.0
C893 C 0.56084 0.26231 0.2176 0.0
C894 C 0.54996 0.29273 0.22985 0.0
C895 C 0.51685 0.29845 0.23672 0.0
C896 C 0.5969 0.25546 0.21489 0.0
C897 C 0.61715 0.27779 0.19738 0.0
C898 C 0.61177 0.22842 0.23168 0.0
C899 C 0.59252 0.20501 0.25275 0.0
C900 C 0.57402 0.21584 0.28143 0.0
C901 C 0.55522 0.19384 0.30061 0.0
C902 C 0.55511 0.16085 0.29173 0.0
C903 C 0.57382 0.14978 0.26364 0.0
C904 C 0.59256 0.17172 0.24424 0.0
C905 C 0.74902 0.23976 0.25875 0.0
C906 C 0.77155 0.24631 0.23189 0.0
C907 C 0.71546 0.23927 0.25259 0.0
C908 C 0.70288 0.24487 0.21912 0.0
C909 C 0.72538 0.24925 0.19155 0.0
C910 C 0.75931 0.25024 0.19795 0.0
C911 C 0.66641 0.24772 0.21445 0.0
C912 C 0.64598 0.2246 0.2306 0.0
C913 C 0.65146 0.2746 0.19739 0.0
C914 C 0.67091 0.30094 0.18122 0.0
C915 C 0.66823 0.30729 0.14535 0.0
C916 C 0.68703 0.33172 0.1299 0.0
C917 C 0.70843 0.35012 0.15014 0.0
C918 C 0.71092 0.34425 0.18591 0.0
C919 C 0.69214 0.31989 0.20149 0.0
H920 H 0.72302 0.36895 0.13811 0.0
H921 H 0.54055 0.14389 0.30665 0.0
H922 H 0.30513 0.26543 0.80059 0.0
H923 H 0.30312 0.32431 0.80862 0.0
H924 H 0.19841 0.32233 0.7993 0.0
H925 H 0.20086 0.26355 0.78938 0.0
H926 H 0.21909 0.36887 0.76129 0.0
H927 H 0.24241 0.33987 0.87875 0.0
H928 H 0.27164 0.3117 0.92615 0.0
H929 H 0.35943 0.36269 0.89979 0.0
H930 H 0.33106 0.39046 0.85152 0.0
H931 H 0.21396 0.54144 0.78637 0.0
H932 H 0.20593 0.48346 0.79968 0.0
H933 H 0.30999 0.46825 0.79769 0.0
H934 H 0.31811 0.52586 0.78494 0.0
H935 H 0.28318 0.43121 0.84779 0.0
H936 H 0.26067 0.45372 0.72583 0.0
H937 H 0.23123 0.48267 0.67904 0.0
H938 H 0.14042 0.44435 0.71647 0.0
H939 H 0.16939 0.41533 0.76364 0.0
C940 C 0.28151 0.27728 0.80208 0.0
C941 C 0.25294 0.25908 0.79691 0.0
C942 C 0.28036 0.31123 0.80636 0.0
C943 C 0.25051 0.32829 0.80549 0.0
C944 C 0.22181 0.31007 0.80073 0.0
C945 C 0.22307 0.27605 0.79606 0.0
C946 C 0.2497 0.36508 0.80676 0.0
C947 C 0.2326 0.38234 0.78075 0.0
C948 C 0.26762 0.38326 0.83169 0.0
C949 C 0.2846 0.36713 0.86128 0.0
C950 C 0.268 0.34495 0.88288 0.0
C951 C 0.28443 0.32901 0.9099 0.0
C952 C 0.31736 0.33541 0.91594 0.0
C953 C 0.33392 0.35776 0.89503 0.0
C954 C 0.31768 0.37358 0.86781 0.0
C955 C 0.23516 0.52592 0.78956 0.0
C956 C 0.26671 0.53851 0.78432 0.0
C957 C 0.23054 0.49258 0.7969 0.0
C958 C 0.25734 0.471 0.79911 0.0
C959 C 0.28883 0.48405 0.79603 0.0
C960 C 0.29344 0.51719 0.78863 0.0
C961 C 0.253 0.43467 0.80215 0.0
C962 C 0.26926 0.41756 0.8288 0.0
C963 C 0.23422 0.41661 0.77796 0.0
C964 C 0.2171 0.43277 0.74858 0.0
C965 C 0.23441 0.45155 0.72414 0.0
C966 C 0.21782 0.46796 0.69754 0.0
C967 C 0.18394 0.4655 0.69492 0.0
C968 C 0.16664 0.44634 0.71864 0.0
C969 C 0.18313 0.42988 0.74527 0.0
H970 H 0.1711 0.47836 0.67447 0.0
H971 H 0.33005 0.32311 0.93689 0.0
H972 H 0.52872 0.84413 0.24548 0.0
H973 H 0.47173 0.84439 0.22676 0.0
H974 H 0.47462 0.73984 0.21656 0.0
H975 H 0.5324 0.73983 0.23387 0.0
H976 H 0.4316 0.76773 0.16848 0.0
H977 H 0.45077 0.77551 0.29338 0.0
H978 H 0.47738 0.80115 0.34399 0.0
H979 H 0.43157 0.89248 0.31912 0.0
H980 H 0.40504 0.86748 0.26814 0.0
H981 H 0.26243 0.73715 0.20407 0.0
H982 H 0.32169 0.73988 0.19721 0.0
H983 H 0.31938 0.84112 0.22741 0.0
H984 H 0.26051 0.83741 0.2367 0.0
H985 H 0.36303 0.81513 0.26234 0.0
H986 H 0.34082 0.80921 0.14027 0.0
H987 H 0.31554 0.78655 0.08737 0.0
H988 H 0.36634 0.69613 0.10335 0.0
H989 H 0.39155 0.71808 0.15668 0.0
C990 C 0.5176 0.82135 0.23779 0.0
C991 C 0.53515 0.79203 0.24067 0.0
C992 C 0.48484 0.82144 0.22744 0.0
C993 C 0.46838 0.79205 0.22101 0.0
C994 C 0.48657 0.76287 0.22139 0.0
C995 C 0.51969 0.76286 0.23111 0.0
C996 C 0.43181 0.79161 0.21837 0.0
C997 C 0.41655 0.77786 0.18908 0.0
C998 C 0.4119 0.80533 0.24486 0.0
C999 C 0.42613 0.8197 0.27683 0.0
C1000 C 0.44634 0.80104 0.29878 0.0
C1001 C 0.46146 0.81547 0.32747 0.0
C1002 C 0.45628 0.84847 0.33464 0.0
C1003 C 0.43561 0.86696 0.31347 0.0
C1004 C 0.42049 0.85266 0.28472 0.0
C1005 C 0.27451 0.76029 0.20787 0.0
C1006 C 0.25667 0.78737 0.21978 0.0
C1007 C 0.30856 0.76189 0.20404 0.0
C1008 C 0.32557 0.79085 0.21141 0.0
C1009 C 0.30726 0.8184 0.22152 0.0
C1010 C 0.27337 0.81652 0.22619 0.0
C1011 C 0.36232 0.79171 0.21205 0.0
C1012 C 0.37777 0.80526 0.24134 0.0
C1013 C 0.38221 0.77817 0.1853 0.0
C1014 C 0.36789 0.76522 0.15265 0.0
C1015 C 0.34651 0.78445 0.13259 0.0
C1016 C 0.33218 0.77173 0.10253 0.0
C1017 C 0.33926 0.73989 0.09206 0.0
C1018 C 0.36085 0.72078 0.11152 0.0
C1019 C 0.37521 0.73336 0.14164 0.0
H1020 H 0.32805 0.73006 0.06885 0.0
H1021 H 0.46834 0.85978 0.35652 0.0
H1022 H 0.82916 0.76719 0.76232 0.0
H1023 H 0.83027 0.70815 0.76973 0.0
H1024 H 0.73594 0.7124 0.8196 0.0
H1025 H 0.73653 0.77206 0.81508 0.0
H1026 H 0.76384 0.66401 0.84546 0.0
H1027 H 0.7511 0.69456 0.72538 0.0
H1028 H 0.76488 0.72107 0.66953 0.0
H1029 H 0.85602 0.66943 0.6664 0.0
H1030 H 0.84286 0.64261 0.72221 0.0
H1031 H 0.71135 0.50581 0.78525 0.0
H1032 H 0.7195 0.56393 0.79651 0.0
H1033 H 0.82251 0.55238 0.7778 0.0
H1034 H 0.81462 0.49395 0.76717 0.0
H1035 H 0.79217 0.603 0.73804 0.0
H1036 H 0.79836 0.56795 0.85744 0.0
H1037 H 0.77894 0.53978 0.91025 0.0
H1038 H 0.69268 0.5994 0.91114 0.0
H1039 H 0.71135 0.62761 0.858 0.0
C1040 C 0.80936 0.75564 0.77628 0.0
C1041 C 0.78315 0.77438 0.7889 0.0
C1042 C 0.80956 0.72163 0.77975 0.0
C1043 C 0.78257 0.70513 0.79397 0.0
C1044 C 0.75708 0.72409 0.80827 0.0
C1045 C 0.75747 0.75833 0.80593 0.0
C1046 C 0.78023 0.66845 0.79226 0.0
C1047 C 0.76974 0.65088 0.82175 0.0
C1048 C 0.78813 0.65059 0.76159 0.0
C1049 C 0.79615 0.66686 0.72815 0.0
C1050 C 0.77417 0.68902 0.71289 0.0
C1051 C 0.78184 0.70408 0.68124 0.0
C1052 C 0.81135 0.69709 0.66457 0.0
C1053 C 0.8332 0.67489 0.6794 0.0
C1054 C 0.82563 0.6597 0.71098 0.0
C1055 C 0.73588 0.51545 0.78428 0.0
C1056 C 0.76234 0.49503 0.77549 0.0
C1057 C 0.7405 0.54878 0.79073 0.0
C1058 C 0.77163 0.56274 0.78805 0.0
C1059 C 0.79825 0.54228 0.78012 0.0
C1060 C 0.79373 0.50876 0.7743 0.0
C1061 C 0.77592 0.5989 0.7911 0.0
C1062 C 0.78655 0.61629 0.76174 0.0
C1063 C 0.76732 0.61654 0.82151 0.0
C1064 C 0.75613 0.59969 0.85354 0.0
C1065 C 0.77511 0.57487 0.86871 0.0
C1066 C 0.76427 0.55893 0.89875 0.0
C1067 C 0.73456 0.56774 0.914 0.0
C1068 C 0.71567 0.59257 0.89928 0.0
C1069 C 0.72639 0.60856 0.86922 0.0
H1070 H 0.7262 0.55538 0.93725 0.0
H1071 H 0.81724 0.7088 0.64008 0.0
H1072 H 0.98976 0.31338 0.28438 0.0
H1073 H 0.04726 0.32198 0.29957 0.0
H1074 H 0.06531 0.21882 0.29095 0.0
H1075 H 1.00815 0.21008 0.27604 0.0
H1076 H 0.10018 0.24554 0.34564 0.0
H1077 H 0.0807 0.2708 0.22262 0.0
H1078 H 0.05181 0.30128 0.17658 0.0
H1079 H 0.08519 0.39157 0.21995 0.0
H1080 H 0.11391 0.36157 0.26656 0.0
H1081 H 0.26676 0.22667 0.30166 0.0
H1082 H 0.20779 0.2282 0.30992 0.0
H1083 H 0.20878 0.33278 0.29907 0.0
H1084 H 0.26771 0.33078 0.28893 0.0
H1085 H 0.16296 0.31238 0.26155 0.0
H1086 H 0.18979 0.28996 0.37842 0.0
H1087 H 0.21772 0.2626 0.4272 0.0
H1088 H 0.16968 0.17296 0.40219 0.0
H1089 H 0.14221 0.19947 0.35252 0.0
C1090 C 1.00579 0.29244 0.28647 0.0
C1091 C 0.99414 0.26101 0.27881 0.0
C1092 C 0.03882 0.29741 0.29495 0.0
C1093 C 0.06103 0.2711 0.29603 0.0
C1094 C 0.04895 0.23959 0.29032 0.0
C1095 C 1.01609 0.23464 0.28166 0.0
C1096 C 0.09712 0.27625 0.3003 0.0
C1097 C 0.11396 0.26003 0.32719 0.0
C1098 C 0.11524 0.2961 0.2771 0.0
C1099 C 0.09923 0.31398 0.24819 0.0
C1100 C 0.08184 0.29715 0.22233 0.0
C1101 C 0.06549 0.31434 0.19615 0.0
C1102 C 0.06664 0.34835 0.19536 0.0
C1103 C 0.08432 0.36523 0.22061 0.0
C1104 C 0.10066 0.34815 0.24689 0.0
C1105 C 0.25462 0.25014 0.30275 0.0
C1106 C 0.27237 0.27877 0.29655 0.0
C1107 C 0.22065 0.25103 0.30722 0.0
C1108 C 0.20329 0.2807 0.30578 0.0
C1109 C 0.22124 0.30952 0.30066 0.0
C1110 C 0.25526 0.30851 0.29572 0.0
C1111 C 0.16648 0.2811 0.30661 0.0
C1112 C 0.14941 0.29827 0.28052 0.0
C1113 C 0.14815 0.2627 0.3311 0.0
C1114 C 0.16403 0.24672 0.36151 0.0
C1115 C 0.1853 0.26435 0.38314 0.0
C1116 C 0.20108 0.24899 0.41097 0.0
C1117 C 0.19542 0.21609 0.41784 0.0
C1118 C 0.17401 0.19847 0.39685 0.0
C1119 C 0.15834 0.21365 0.36881 0.0
H1120 H 0.20759 0.20426 0.43944 0.0
H1121 H 0.05385 0.36165 0.17519 0.0
H1122 H 0.31764 0.03877 0.73463 0.0
H1123 H 0.32396 0.97995 0.72455 0.0
H1124 H 0.21945 0.9699 0.72034 0.0
H1125 H 0.21307 0.02811 0.7307 0.0
H1126 H 0.24246 0.9259 0.76234 0.0
H1127 H 0.27094 0.96017 0.6464 0.0
H1128 H 0.30144 0.98959 0.60093 0.0
H1129 H 0.39061 0.94493 0.63533 0.0
H1130 H 0.3606 0.91528 0.68114 0.0
H1131 H 0.22671 0.76317 0.71204 0.0
H1132 H 0.22743 0.82242 0.7055 0.0
H1133 H 0.33115 0.8224 0.72295 0.0
H1134 H 0.3303 0.76306 0.72952 0.0
H1135 H 0.31193 0.87095 0.67413 0.0
H1136 H 0.28315 0.83578 0.78897 0.0
H1137 H 0.25227 0.80444 0.8327 0.0
H1138 H 0.16355 0.85125 0.80028 0.0
H1139 H 0.19384 0.88248 0.75591 0.0
C1140 C 0.29603 0.02415 0.73078 0.0
C1141 C 0.26482 0.03845 0.73357 0.0
C1142 C 0.29966 0.99035 0.72503 0.0
C1143 C 0.27218 0.97001 0.72172 0.0
C1144 C 0.24114 0.98464 0.72305 0.0
C1145 C 0.23753 0.0182 0.72883 0.0
C1146 C 0.27519 0.93343 0.71913 0.0
C1147 C 0.25734 0.91407 0.74264 0.0
C1148 C 0.29537 0.91742 0.69432 0.0
C1149 C 0.31358 0.9358 0.66742 0.0
C1150 C 0.2971 0.95688 0.6445 0.0
C1151 C 0.31429 0.97352 0.61859 0.0
C1152 C 0.34797 0.96922 0.6153 0.0
C1153 C 0.36453 0.94826 0.63793 0.0
C1154 C 0.34743 0.93149 0.66383 0.0
C1155 C 0.24998 0.77553 0.71231 0.0
C1156 C 0.27876 0.75786 0.71895 0.0
C1157 C 0.25029 0.80962 0.70932 0.0
C1158 C 0.27935 0.82722 0.71377 0.0
C1159 C 0.30845 0.80958 0.71888 0.0
C1160 C 0.30806 0.77538 0.72203 0.0
C1161 C 0.27862 0.86377 0.71677 0.0
C1162 C 0.29703 0.88297 0.69368 0.0
C1163 C 0.25899 0.87976 0.74201 0.0
C1164 C 0.24073 0.86124 0.76887 0.0
C1165 C 0.25702 0.83921 0.79097 0.0
C1166 C 0.23963 0.82148 0.8159 0.0
C1167 C 0.20596 0.82579 0.81921 0.0
C1168 C 0.18963 0.8479 0.79765 0.0
C1169 C 0.2069 0.86563 0.77261 0.0
H1170 H 0.19254 0.81206 0.83854 0.0
H1171 H 0.36122 0.98205 0.59514 0.0
H1172 H 0.76317 0.81158 0.29473 0.0
H1173 H 0.82278 0.81225 0.29875 0.0
H1174 H 0.82428 0.70741 0.30226 0.0
H1175 H 0.76481 0.70674 0.29659 0.0
H1176 H 0.87338 0.7416 0.34824 0.0
H1177 H 0.83598 0.73421 0.23045 0.0
H1178 H 0.80516 0.7488 0.17759 0.0
H1179 H 0.84953 0.8433 0.17676 0.0
H1180 H 0.8801 0.82955 0.23017 0.0
H1181 H 0.0405 0.72238 0.2887 0.0
H1182 H 0.98195 0.71794 0.30135 0.0
H1183 H 0.96824 0.81819 0.27097 0.0
H1184 H 0.02622 0.82256 0.25784 0.0
H1185 H 0.92475 0.78291 0.23989 0.0
H1186 H 0.96241 0.7903 0.3581 0.0
H1187 H 0.99516 0.77441 0.40923 0.0
H1188 H 0.95178 0.67942 0.40833 0.0
H1189 H 0.91908 0.6946 0.35687 0.0
C1190 C 0.77608 0.78869 0.29791 0.0
C1191 C 0.75891 0.75913 0.29678 0.0
C1192 C 0.81025 0.78909 0.29982 0.0
C1193 C 0.8282 0.75988 0.30079 0.0
C1194 C 0.81106 0.7303 0.30196 0.0
C1195 C 0.77681 0.72992 0.29932 0.0
C1196 C 0.86456 0.76037 0.29675 0.0
C1197 C 0.88465 0.7503 0.32443 0.0
C1198 C 0.87945 0.77208 0.26586 0.0
C1199 C 0.86003 0.78098 0.23463 0.0
C1200 C 0.83877 0.7583 0.21938 0.0
C1201 C 0.82146 0.76637 0.18921 0.0
C1202 C 0.82547 0.79692 0.17379 0.0
C1203 C 0.84651 0.81962 0.18872 0.0
C1204 C 0.86379 0.81172 0.21898 0.0
C1205 C 0.02512 0.74367 0.2854 0.0
C1206 C 0.03828 0.77285 0.2722 0.0
C1207 C 0.99151 0.7411 0.29264 0.0
C1208 C 0.97028 0.76774 0.28717 0.0
C1209 C 0.98375 0.79715 0.27525 0.0
C1210 C 0.01714 0.79967 0.2679 0.0
C1211 C 0.93392 0.76483 0.29166 0.0
C1212 C 0.91367 0.77434 0.26387 0.0
C1213 C 0.91903 0.75261 0.32241 0.0
C1214 C 0.93856 0.74348 0.3534 0.0
C1215 C 0.96005 0.76593 0.36863 0.0
C1216 C 0.97857 0.75707 0.39771 0.0
C1217 C 0.97563 0.7259 0.41195 0.0
C1218 C 0.95408 0.70355 0.39722 0.0
C1219 C 0.93552 0.71227 0.36812 0.0
H1220 H 0.98999 0.71908 0.43446 0.0
H1221 H 0.81228 0.803 0.15025 0.0
H1222 H 0.71575 0.2624 0.77826 0.0
H1223 H 0.71744 0.20389 0.76942 0.0
H1224 H 0.76613 0.21806 0.67084 0.0
H1225 H 0.76616 0.27715 0.68099 0.0
H1226 H 0.69709 0.15966 0.73049 0.0
H1227 H 0.81891 0.15595 0.65562 0.0
H1228 H 0.86793 0.18983 0.64736 0.0
H1229 H 0.85331 0.23279 0.74822 0.0
H1230 H 0.80449 0.19891 0.75718 0.0
H1231 H 0.72985 0.98912 0.7129 0.0
H1232 H 0.72099 0.04676 0.69823 0.0
H1233 H 0.80579 0.07262 0.75839 0.0
H1234 H 0.81558 1.01562 0.77136 0.0
H1235 H 0.80576 0.11054 0.70854 0.0
H1236 H 0.72109 0.0784 0.78789 0.0
H1237 H 0.67368 0.04749 0.80942 0.0
H1238 H 0.61767 0.07859 0.72098 0.0
H1239 H 0.66492 0.10933 0.69862 0.0
C1240 C 0.7264 0.25321 0.75434 0.0
C1241 C 0.74076 0.27469 0.73023 0.0
C1242 C 0.72723 0.2195 0.74922 0.0
C1243 C 0.7424 0.206 0.71971 0.0
C1244 C 0.75476 0.22754 0.69423 0.0
C1245 C 0.75423 0.26153 0.69962 0.0
C1246 C 0.7472 0.16964 0.71767 0.0
C1247 C 0.72083 0.14896 0.72528 0.0
C1248 C 0.77821 0.15523 0.71171 0.0
C1249 C 0.80787 0.1752 0.70683 0.0
C1250 C 0.82625 0.17256 0.67604 0.0
C1251 C 0.85398 0.19177 0.67124 0.0
C1252 C 0.86365 0.21354 0.69719 0.0
C1253 C 0.84574 0.21601 0.72808 0.0
C1254 C 0.81804 0.19682 0.73302 0.0
C1255 C 0.74689 1.00708 0.72246 0.0
C1256 C 0.77345 0.99746 0.74335 0.0
C1257 C 0.74163 0.04021 0.71435 0.0
C1258 C 0.76235 0.06462 0.72762 0.0
C1259 C 0.78936 0.05472 0.74755 0.0
C1260 C 0.79491 0.0218 0.7551 0.0
C1261 C 0.75577 0.10046 0.72222 0.0
C1262 C 0.78184 0.12107 0.7131 0.0
C1263 C 0.7248 0.11492 0.7285 0.0
C1264 C 0.69666 0.09579 0.74136 0.0
C1265 C 0.69878 0.07836 0.77284 0.0
C1266 C 0.67193 0.06093 0.78522 0.0
C1267 C 0.64274 0.06107 0.76654 0.0
C1268 C 0.64034 0.07849 0.73536 0.0
C1269 C 0.66714 0.09589 0.72281 0.0
H1270 H 0.62193 0.04784 0.77631 0.0
H1271 H 0.88508 0.22843 0.69338 0.0
H1272 H 0.3428 0.45031 0.39026 0.0
H1273 H 0.3434 0.48188 0.444 0.0
H1274 H 0.30776 0.39873 0.501 0.0
H1275 H 0.30663 0.36692 0.44704 0.0
H1276 H 0.27378 0.45263 0.51706 0.0
H1277 H 0.38543 0.424 0.5122 0.0
H1278 H 0.44099 0.41673 0.48879 0.0
H1279 H 0.44907 0.51997 0.47333 0.0
H1280 H 0.39338 0.52787 0.49614 0.0
H1281 H 0.28397 0.54552 0.67283 0.0
H1282 H 0.29497 0.50203 0.63094 0.0
H1283 H 0.33219 0.57258 0.55779 0.0
H1284 H 0.32194 0.61612 0.59972 0.0
H1285 H 0.36825 0.51802 0.55635 0.0
H1286 H 0.2524 0.54388 0.55423 0.0
H1287 H 0.19822 0.5503 0.58145 0.0
H1288 H 0.1999 0.44993 0.61295 0.0
H1289 H 0.25432 0.44304 0.58632 0.0
C1290 C 0.33521 0.43859 0.41421 0.0
C1291 C 0.32486 0.40595 0.41421 0.0
C1292 C 0.33587 0.45664 0.44504 0.0
C1293 C 0.32608 0.4426 0.4767 0.0
C1294 C 0.31572 0.41001 0.47693 0.0
C1295 C 0.31529 0.39178 0.44604 0.0
C1296 C 0.32471 0.46284 0.50886 0.0
C1297 C 0.29466 0.46639 0.52606 0.0
C1298 C 0.35182 0.48117 0.52046 0.0
C1299 C 0.38499 0.47648 0.50557 0.0
C1300 C 0.39885 0.44513 0.50338 0.0
C1301 C 0.43044 0.4409 0.49031 0.0
C1302 C 0.4485 0.46786 0.47948 0.0
C1303 C 0.43502 0.4991 0.48166 0.0
C1304 C 0.40344 0.50347 0.49468 0.0
C1305 C 0.29485 0.55179 0.64799 0.0
C1306 C 0.30175 0.58444 0.63955 0.0
C1307 C 0.301 0.52686 0.62399 0.0
C1308 C 0.31384 0.53406 0.59092 0.0
C1309 C 0.32215 0.5664 0.58307 0.0
C1310 C 0.31618 0.59132 0.60709 0.0
C1311 C 0.31719 0.5084 0.56374 0.0
C1312 C 0.34757 0.50389 0.54751 0.0
C1313 C 0.29048 0.48904 0.55314 0.0
C1314 C 0.25753 0.49303 0.56857 0.0
C1315 C 0.24127 0.52323 0.56711 0.0
C1316 C 0.21053 0.52695 0.58243 0.0
C1317 C 0.19567 0.50056 0.59899 0.0
C1318 C 0.21146 0.47036 0.60014 0.0
C1319 C 0.24224 0.46653 0.58494 0.0
H1320 H 0.17188 0.50351 0.61085 0.0
H1321 H 0.47299 0.46453 0.46949 0.0
H1322 H 0.54806 0.74424 0.34387 0.0
H1323 H 0.50473 0.73323 0.38587 0.0
H1324 H 0.5755 0.69486 0.45819 0.0
H1325 H 0.61914 0.70559 0.41624 0.0
H1326 H 0.51812 0.65914 0.45799 0.0
H1327 H 0.5509 0.77211 0.46198 0.0
H1328 H 0.55989 0.82713 0.43818 0.0
H1329 H 0.45801 0.8355 0.41403 0.0
H1330 H 0.44868 0.78003 0.4362 0.0
H1331 H 0.44832 0.68596 0.62406 0.0
H1332 H 0.48104 0.68387 0.57096 0.0
H1333 H 0.40047 0.72336 0.51229 0.0
H1334 H 0.36742 0.72565 0.56557 0.0
H1335 H 0.45716 0.75597 0.5004 0.0
H1336 H 0.42214 0.64649 0.49863 0.0
H1337 H 0.41085 0.59117 0.52043 0.0
H1338 H 0.51286 0.57607 0.53974 0.0
H1339 H 0.52476 0.63149 0.51852 0.0
C1340 C 0.55448 0.73304 0.3685 0.0
C1341 C 0.58724 0.72614 0.37678 0.0
C1342 C 0.52961 0.72682 0.39252 0.0
C1343 C 0.53692 0.71365 0.42536 0.0
C1344 C 0.56932 0.70511 0.43302 0.0
C1345 C 0.59426 0.71138 0.40903 0.0
C1346 C 0.5113 0.71091 0.45262 0.0
C1347 C 0.50494 0.68031 0.46747 0.0
C1348 C 0.49331 0.73842 0.46416 0.0
C1349 C 0.49918 0.77165 0.45027 0.0
C1350 C 0.53051 0.78545 0.45104 0.0
C1351 C 0.53568 0.81674 0.43779 0.0
C1352 C 0.5096 0.83472 0.42429 0.0
C1353 C 0.47829 0.82146 0.42409 0.0
C1354 C 0.47307 0.79004 0.43687 0.0
C1355 C 0.43742 0.69402 0.59984 0.0
C1356 C 0.40522 0.70591 0.59908 0.0
C1357 C 0.45609 0.69252 0.56943 0.0
C1358 C 0.4431 0.7031 0.53757 0.0
C1359 C 0.41087 0.7148 0.53657 0.0
C1360 C 0.39197 0.71597 0.56701 0.0
C1361 C 0.46425 0.70429 0.50614 0.0
C1362 C 0.46994 0.73466 0.49061 0.0
C1363 C 0.48134 0.67654 0.49381 0.0
C1364 C 0.47431 0.64334 0.50724 0.0
C1365 C 0.44215 0.63154 0.50788 0.0
C1366 C 0.43564 0.60011 0.52004 0.0
C1367 C 0.46111 0.58015 0.53152 0.0
C1368 C 0.49315 0.59158 0.53086 0.0
C1369 C 0.4998 0.62299 0.51872 0.0
H1370 H 0.45603 0.5558 0.54085 0.0
H1371 H 0.51362 0.85899 0.41417 0.0
H1372 H 0.74673 0.4814 0.66387 0.0
H1373 H 0.73961 0.52208 0.61787 0.0
H1374 H 0.7024 0.44803 0.54918 0.0
H1375 H 0.70945 0.40717 0.59489 0.0
H1376 H 0.75154 0.48334 0.5193 0.0
H1377 H 0.65194 0.50538 0.58128 0.0
H1378 H 0.61846 0.51857 0.63283 0.0
H1379 H 0.66997 0.6086 0.64548 0.0
H1380 H 0.70406 0.59576 0.59423 0.0
H1381 H 0.69891 0.57829 0.37825 0.0
H1382 H 0.7007 0.5425 0.42876 0.0
H1383 H 0.73251 0.62243 0.49288 0.0
H1384 H 0.73067 0.65874 0.44226 0.0
H1385 H 0.68763 0.58597 0.52677 0.0
H1386 H 0.78661 0.56504 0.465 0.0
H1387 H 0.82123 0.55216 0.41423 0.0
H1388 H 0.77288 0.4603 0.4024 0.0
H1389 H 0.73761 0.47283 0.45282 0.0
C1390 C 0.73658 0.4738 0.63915 0.0
C1391 C 0.72879 0.44092 0.6331 0.0
C1392 C 0.73245 0.49715 0.61289 0.0
C1393 C 0.72048 0.48812 0.58005 0.0
C1394 C 0.71175 0.45554 0.57429 0.0
C1395 C 0.71566 0.43222 0.60057 0.0
C1396 C 0.71904 0.51209 0.55099 0.0
C1397 C 0.73717 0.50555 0.52074 0.0
C1398 C 0.70127 0.54165 0.55336 0.0
C1399 C 0.68078 0.54945 0.58413 0.0
C1400 C 0.65633 0.52786 0.59523 0.0
C1401 C 0.63719 0.5353 0.62436 0.0
C1402 C 0.64215 0.56436 0.64248 0.0
C1403 C 0.66619 0.58608 0.63145 0.0
C1404 C 0.6854 0.57875 0.60234 0.0
C1405 C 0.70639 0.58841 0.40302 0.0
C1406 C 0.71464 0.62153 0.40597 0.0
C1407 C 0.7074 0.56781 0.43195 0.0
C1408 C 0.71719 0.57959 0.46459 0.0
C1409 C 0.72487 0.61277 0.46796 0.0
C1410 C 0.7237 0.63355 0.43893 0.0
C1411 C 0.71975 0.55695 0.49483 0.0
C1412 C 0.702 0.56378 0.52533 0.0
C1413 C 0.73808 0.52767 0.49285 0.0
C1414 C 0.75926 0.52002 0.46251 0.0
C1415 C 0.78318 0.54221 0.45141 0.0
C1416 C 0.80295 0.53495 0.42272 0.0
C1417 C 0.7992 0.50547 0.40505 0.0
C1418 C 0.77572 0.48315 0.41609 0.0
C1419 C 0.75585 0.4903 0.44474 0.0
H1420 H 0.81454 0.49989 0.38285 0.0
H1421 H 0.62731 0.57008 0.66502 0.0
H1422 H 0.48379 0.28353 0.3378 0.0
H1423 H 0.52849 0.2935 0.37837 0.0
H1424 H 0.45912 0.31957 0.45838 0.0
H1425 H 0.41435 0.31056 0.41776 0.0
H1426 H 0.50972 0.35925 0.46031 0.0
H1427 H 0.49563 0.24169 0.45291 0.0
H1428 H 0.49314 0.18964 0.42095 0.0
H1429 H 0.59081 0.20389 0.38365 0.0
H1430 H 0.59376 0.25619 0.4152 0.0
H1431 H 0.5815 0.32357 0.62092 0.0
H1432 H 0.54983 0.32587 0.56746 0.0
H1433 H 0.6367 0.30707 0.50717 0.0
H1434 H 0.66886 0.30433 0.56104 0.0
H1435 H 0.58571 0.26839 0.48737 0.0
H1436 H 0.60293 0.38093 0.50547 0.0
H1437 H 0.60485 0.43335 0.53658 0.0
H1438 H 0.50128 0.43008 0.55255 0.0
H1439 H 0.49878 0.37724 0.52232 0.0
C1440 C 0.47801 0.29158 0.36398 0.0
C1441 C 0.44541 0.29596 0.37461 0.0
C1442 C 0.50364 0.29716 0.38719 0.0
C1443 C 0.49719 0.30675 0.42165 0.0
C1444 C 0.46473 0.31212 0.43196 0.0
C1445 C 0.43912 0.30684 0.4087 0.0
C1446 C 0.52393 0.31019 0.44752 0.0
C1447 C 0.5262 0.33933 0.46644 0.0
C1448 C 0.54634 0.28466 0.45452 0.0
C1449 C 0.54481 0.25294 0.43616 0.0
C1450 C 0.51653 0.23376 0.4378 0.0
C1451 C 0.51505 0.20421 0.41979 0.0
C1452 C 0.5418 0.19347 0.40028 0.0
C1453 C 0.57013 0.21222 0.39882 0.0
C1454 C 0.57173 0.24179 0.41678 0.0
C1455 C 0.59404 0.32002 0.59634 0.0
C1456 C 0.6278 0.31387 0.59537 0.0
C1457 C 0.57588 0.32164 0.56572 0.0
C1458 C 0.59092 0.31709 0.53325 0.0
C1459 C 0.62465 0.31093 0.53197 0.0
C1460 C 0.64302 0.30958 0.56277 0.0
C1461 C 0.57066 0.31705 0.50116 0.0
C1462 C 0.56962 0.28856 0.48098 0.0
C1463 C 0.54932 0.34321 0.49306 0.0
C1464 C 0.55074 0.37485 0.51183 0.0
C1465 C 0.5806 0.39114 0.51597 0.0
C1466 C 0.58178 0.42099 0.53342 0.0
C1467 C 0.55322 0.43499 0.54662 0.0
C1468 C 0.5234 0.41917 0.54239 0.0
C1469 C 0.5221 0.38925 0.5251 0.0
H1470 H 0.55419 0.45814 0.56004 0.0
H1471 H 0.54058 0.17064 0.38628 0.0
H1472 H 0.8246 0.90568 0.91855 0.0
H1473 H 0.83418 0.94634 0.96377 0.0
H1474 H 0.79205 0.02068 0.89821 0.0
H1475 H 0.78258 0.98027 0.8526 0.0
H1476 H 0.84664 0.04262 0.93488 0.0
H1477 H 0.74651 0.98393 0.95857 0.0
H1478 H 0.71339 0.93492 0.96938 0.0
H1479 H 0.77229 0.91127 0.0583 0.0
H1480 H 0.80621 0.95978 0.04761 0.0
H1481 H 0.80469 0.15908 0.06745 0.0
H1482 H 0.80787 0.122 0.01745 0.0
H1483 H 0.83482 0.04317 0.08621 0.0
H1484 H 0.83081 0.07968 0.13598 0.0
H1485 H 0.78926 0.02356 0.04685 0.0
H1486 H 0.88951 0.07881 0.02648 0.0
H1487 H 0.92635 0.12541 0.01743 0.0
H1488 H 0.873 0.15294 0.92581 0.0
H1489 H 0.83561 0.1067 0.9345 0.0
C1490 C 0.81773 0.93074 0.91347 0.0
C1491 C 0.80246 0.93958 0.88201 0.0
C1492 C 0.82318 0.95395 0.93943 0.0
C1493 C 0.81339 0.98646 0.93456 0.0
C1494 C 0.7997 0.99572 0.90255 0.0
C1495 C 0.79418 0.97251 0.87656 0.0
C1496 C 0.81539 1.01024 0.96364 0.0
C1497 C 0.83387 0.0387 0.9593 0.0
C1498 C 0.79944 1.00463 0.9958 0.0
C1499 C 0.77909 0.97536 1.00208 0.0
C1500 C 0.7526 0.96812 0.98022 0.0
C1501 C 0.73368 0.94045 0.98635 0.0
C1502 C 0.74079 0.92 0.01447 0.0
C1503 C 0.76687 0.92712 0.0365 0.0
C1504 C 0.78595 0.95469 0.03041 0.0
C1505 C 0.8118 0.13397 0.07176 0.0
C1506 C 0.81735 0.12227 0.1057 0.0
C1507 C 0.81368 0.11277 0.04314 0.0
C1508 C 0.82168 0.07968 0.04794 0.0
C1509 C 0.82835 0.06844 0.08174 0.0
C1510 C 0.82604 0.08938 0.11022 0.0
C1511 C 0.82083 0.05606 0.01848 0.0
C1512 C 0.8023 0.02761 0.02262 0.0
C1513 C 0.8373 0.06142 0.98651 0.0
C1514 C 0.85952 0.08948 0.98137 0.0
C1515 C 0.88544 0.09498 1.00459 0.0
C1516 C 0.90647 0.12128 0.99947 0.0
C1517 C 0.90195 0.14217 0.97113 0.0
C1518 C 0.87644 0.13676 0.94779 0.0
C1519 C 0.85534 0.11049 0.95277 0.0
H1520 H 0.91825 0.16251 0.96722 0.0
H1521 H 0.72601 0.89874 0.01931 0.0
H1522 H 0.98012 0.24129 0.16765 0.0
H1523 H 0.02123 0.23389 0.12218 0.0
H1524 H 0.94601 0.20704 0.04931 0.0
H1525 H 0.9049 0.21338 0.09489 0.0
H1526 H 0.99699 0.17128 0.03791 0.0
H1527 H 0.97874 0.2855 0.05392 0.0
H1528 H 0.97529 0.33706 0.08662 0.0
H1529 H 0.07678 0.32941 0.11277 0.0
H1530 H 0.08068 0.27742 0.0808 0.0
H1531 H 0.07348 0.20762 0.87801 0.0
H1532 H 0.03844 0.20844 0.92915 0.0
H1533 H 0.12183 0.22569 0.99468 0.0
H1534 H 0.15725 0.22608 0.9434 0.0
H1535 H 0.07025 0.26422 0.01253 0.0
H1536 H 0.08702 0.15056 0.9879 0.0
H1537 H 0.08704 0.1016 0.95087 0.0
H1538 H 0.98352 0.11064 0.93689 0.0
H1539 H 0.98304 0.16028 0.97292 0.0
C1540 C 0.97235 0.23337 0.14207 0.0
C1541 C 0.93914 0.22816 0.13487 0.0
C1542 C 0.9959 0.22937 0.11601 0.0
C1543 C 0.9867 0.22066 0.08203 0.0
C1544 C 0.95375 0.21394 0.07524 0.0
C1545 C 0.93023 0.21756 0.10138 0.0
C1546 C 1.01108 0.21963 0.05322 0.0
C1547 C 1.01282 0.19172 0.03222 0.0
C1548 C 0.03216 0.2461 0.04603 0.0
C1549 C 0.02991 0.27736 0.06529 0.0
C1550 C 1.00026 0.29466 0.0669 0.0
C1551 C 0.99822 0.32397 0.0853 0.0
C1552 C 0.02578 0.33645 0.10185 0.0
C1553 C 0.05544 0.31968 0.09999 0.0
C1554 C 0.05757 0.29026 0.08177 0.0
C1555 C 0.08458 0.21173 0.90319 0.0
C1556 C 0.11848 0.21628 0.90631 0.0
C1557 C 0.06441 0.21193 0.93253 0.0
C1558 C 0.07754 0.21645 0.96587 0.0
C1559 C 0.1112 0.22177 0.96921 0.0
C1560 C 0.13151 0.22163 0.93977 0.0
C1561 C 0.0559 0.21599 0.99705 0.0
C1562 C 0.05467 0.24365 0.01849 0.0
C1563 C 0.0348 0.18954 1.00419 0.0
C1564 C 0.03506 0.15937 0.98288 0.0
C1565 C 0.0643 0.14229 0.97669 0.0
C1566 C 0.06439 0.11438 0.95586 0.0
C1567 C 0.03529 0.10301 0.94151 0.0
C1568 C 1.00605 0.1195 0.94797 0.0
C1569 C 1.00587 0.14756 0.96855 0.0
H1570 H 0.03536 0.08141 0.92541 0.0
H1571 H 0.02415 0.35919 0.11601 0.0
H1572 H 0.22567 0.86516 0.06298 0.0
H1573 H 0.22614 0.89716 0.0089 0.0
H1574 H 0.18052 0.97754 0.06266 0.0
H1575 H 0.17988 0.94596 0.11646 0.0
H1576 H 0.15439 0.9666 0.99601 0.0
H1577 H 0.26013 0.9779 0.05245 0.0
H1578 H 0.31141 0.95629 0.07696 0.0
H1579 H 0.33509 0.91253 0.97848 0.0
H1580 H 0.2837 0.93357 0.95353 0.0
H1581 H 0.19718 0.11319 0.90855 0.0
H1582 H 0.18675 0.06803 0.94867 0.0
H1583 H 0.24201 1.00339 0.88237 0.0
H1584 H 0.25246 0.04818 0.84212 0.0
H1585 H 0.2621 0.99903 0.9487 0.0
H1586 H 0.16225 0.99489 0.88881 0.0
H1587 H 0.11038 1.01296 0.86284 0.0
H1588 H 0.07398 0.03863 0.96415 0.0
H1589 H 0.12607 0.0218 0.99066 0.0
C1590 C 0.21526 0.88944 0.06314 0.0
C1591 C 0.20282 0.90306 0.09411 0.0
C1592 C 0.21571 0.90775 0.03226 0.0
C1593 C 0.20349 0.9398 0.03184 0.0
C1594 C 0.19 0.95287 0.06237 0.0
C1595 C 0.18989 0.93483 0.09317 0.0
C1596 C 0.20635 0.9608 1.00047 0.0
C1597 C 0.17789 0.9739 0.98569 0.0
C1598 C 0.237 0.96938 0.98635 0.0
C1599 C 0.26795 0.95696 1.00127 0.0
C1600 C 0.27617 0.96345 0.03612 0.0
C1601 C 0.30526 0.95135 0.05007 0.0
C1602 C 0.32645 0.93296 0.02932 0.0
C1603 C 0.31863 0.92672 0.99454 0.0
C1604 C 0.28954 0.93874 0.98048 0.0
C1605 C 0.20672 0.08928 0.90222 0.0
C1606 C 0.22583 0.08446 0.87216 0.0
C1607 C 0.20066 0.06343 0.92515 0.0
C1608 C 0.21361 0.03228 0.91854 0.0
C1609 C 0.23185 0.0272 0.88806 0.0
C1610 C 0.23771 0.05291 0.86502 0.0
C1611 C 0.21007 1.00568 0.94462 0.0
C1612 C 0.23847 0.99153 0.95851 0.0
C1613 C 0.17929 0.99593 0.95764 0.0
C1614 C 0.14831 1.00739 0.94171 0.0
C1615 C 0.14344 1.00493 0.90553 0.0
C1616 C 0.11395 1.01491 0.89069 0.0
C1617 C 0.08895 0.02707 0.9118 0.0
C1618 C 0.09343 0.02937 0.94779 0.0
C1619 C 0.12298 0.01968 0.96273 0.0
H1620 H 0.06606 0.03453 0.90025 0.0
H1621 H 0.34896 0.92361 0.04016 0.0
H1622 H 0.86707 0.78438 0.94232 0.0
H1623 H 0.90234 0.77769 0.99349 0.0
H1624 H 0.98433 0.81278 0.93391 0.0
H1625 H 0.9497 0.81886 0.88302 0.0
H1626 H 1.0012 0.76029 0.96728 0.0
H1627 H 0.94251 0.85919 0.9973 0.0
H1628 H 0.89336 0.89208 0.0096 0.0
H1629 H 0.86837 0.82811 0.09401 0.0
H1630 H 0.9171 0.79452 0.08183 0.0
H1631 H 0.12045 0.80033 0.09016 0.0
H1632 H 0.07737 0.80388 0.04657 0.0
H1633 H 1.00959 0.75994 0.11844 0.0
H1634 H 0.05254 0.75655 0.16255 0.0
H1635 H 0.98174 0.81106 0.08272 0.0
H1636 H 0.04129 0.71423 0.05524 0.0
H1637 H 0.09024 0.68087 0.04362 0.0
H1638 H 0.11324 0.74057 0.95511 0.0
H1639 H 0.06461 0.77458 0.96646 0.0
C1640 C 0.89252 0.79101 0.94031 0.0
C1641 C 0.90557 0.80214 0.90854 0.0
C1642 C 0.91268 0.78716 0.96958 0.0
C1643 C 0.94605 0.79483 0.96765 0.0
C1644 C 0.95878 0.80645 0.93608 0.0
C1645 C 0.93888 0.80993 0.90694 0.0
C1646 C 0.96841 0.79002 0.99776 0.0
C1647 C 0.997 0.77169 0.99239 0.0
C1648 C 0.9625 0.80384 0.03101 0.0
C1649 C 0.93324 0.8241 0.03836 0.0
C1650 C 0.92638 0.85197 0.01828 0.0
C1651 C 0.89862 0.87076 0.02526 0.0
C1652 C 0.87769 0.86212 0.05248 0.0
C1653 C 0.88454 0.83472 0.07286 0.0
C1654 C 0.91223 0.8158 0.06593 0.0
C1655 C 0.09638 0.79152 0.09686 0.0
C1656 C 0.09007 0.77794 0.12984 0.0
C1657 C 0.07177 0.79349 0.07182 0.0
C1658 C 0.04034 0.78182 0.07911 0.0
C1659 C 0.03368 0.76901 0.11225 0.0
C1660 C 0.05833 0.76695 0.13735 0.0
C1661 C 1.01485 0.78235 0.05166 0.0
C1662 C 0.98571 0.79958 0.05762 0.0
C1663 C 0.02015 0.76751 0.01888 0.0
C1664 C 0.04937 0.74705 0.01182 0.0
C1665 C 0.05688 0.72037 0.03342 0.0
C1666 C 0.08455 0.70132 0.02685 0.0
C1667 C 0.10479 0.70855 0.9986 0.0
C1668 C 0.09746 0.73493 0.97691 0.0
C1669 C 0.06983 0.75409 0.98338 0.0
H1670 H 0.12613 0.6937 0.99352 0.0
H1671 H 0.85622 0.87671 0.05784 0.0
loop_
_geom_bond_atom_site_label_1
_geom_bond_atom_site_label_2
_geom_bond_distance
_geom_bond_site_symmetry_2
_ccdc_geom_bond_type
Zn0 N4 2.020 . S
Zn0 O8 2.019 . S
Zn0 N10 2.119 . S
Zn0 O18 1.975 . S
C1 N2 1.334 . S
C1 N5 1.336 . S
N2 C1 1.334 . S
N2 C3 1.334 . S
C3 N2 1.334 . S
C3 N4 1.336 . S
N4 Zn0 2.020 . S
N4 C3 1.336 . S
N4 N5 1.354 . S
N5 C1 1.336 . S
N5 N4 1.354 . S
N5 Zn9 2.020 . S
C6 O7 1.244 . S
C6 O30 1.257 . S
O7 C6 1.244 . S
O8 Zn0 2.019 . S
O8 C28 1.257 . S
Zn9 N5 2.020 . S
Zn9 O16 1.975 . S
Zn9 N25 2.119 . S
Zn9 O30 2.019 . S
N10 Zn0 2.119 . S
N10 C12 1.334 . S
N10 C13 1.328 . S
C11 C12 1.391 . S
C11 N14 1.329 . S
C11 H32 0.930 . S
C12 N10 1.334 . S
C12 C11 1.391 . S
C12 H19 0.930 . S
C13 N10 1.328 . S
C13 C15 1.392 . S
C13 H20 0.930 . S
N14 C11 1.329 . S
N14 C15 1.331 . S
C15 C13 1.392 . S
C15 N14 1.331 . S
O16 Zn9 1.975 . S
O16 C17 1.252 . S
C17 O16 1.252 . S
C17 O18 1.252 . S
O18 Zn0 1.975 . S
O18 C17 1.252 . S
H19 C12 0.930 . S
H20 C13 0.930 . S
C21 C22 1.392 . S
C21 N25 1.328 . S
C21 H27 0.930 . S
C22 C21 1.392 . S
C22 N26 1.331 . S
C23 C24 1.391 . S
C23 N26 1.329 . S
C23 H33 0.930 . S
C24 C23 1.391 . S
C24 N25 1.334 . S
C24 H31 0.930 . S
N25 Zn9 2.119 . S
N25 C21 1.328 . S
N25 C24 1.334 . S
N26 C22 1.331 . S
N26 C23 1.329 . S
H27 C21 0.930 . S
C28 O8 1.257 . S
C28 O29 1.244 . S
O29 C28 1.244 . S
O30 C6 1.257 . S
O30 Zn9 2.019 . S
H31 C24 0.930 . S
H32 C11 0.930 . S
H33 C23 0.930 . S
Zn34 N38 2.020 . S
Zn34 O42 2.019 . S
Zn34 N44 2.119 . S
Zn34 O52 1.975 . S
C35 N36 1.334 . S
C35 N39 1.336 . S
N36 C35 1.334 . S
N36 C37 1.334 . S
C37 N36 1.334 . S
C37 N38 1.336 . S
N38 Zn34 2.020 . S
N38 C37 1.336 . S
N38 N39 1.354 . S
N39 C35 1.336 . S
N39 N38 1.354 . S
N39 Zn43 2.020 . S
C40 O41 1.244 . S
C40 O64 1.257 . S
O41 C40 1.244 . S
O42 Zn34 2.019 . S
O42 C62 1.257 . S
Zn43 N39 2.020 . S
Zn43 O50 1.975 . S
Zn43 N59 2.119 . S
Zn43 O64 2.019 . S
N44 Zn34 2.119 . S
N44 C46 1.334 . S
N44 C47 1.328 . S
C45 C46 1.391 . S
C45 N48 1.329 . S
C45 H66 0.930 . S
C46 N44 1.334 . S
C46 C45 1.391 . S
C46 H53 0.930 . S
C47 N44 1.328 . S
C47 C49 1.392 . S
C47 H54 0.930 . S
N48 C45 1.329 . S
N48 C49 1.331 . S
C49 C47 1.392 . S
C49 N48 1.331 . S
O50 Zn43 1.975 . S
O50 C51 1.252 . S
C51 O50 1.252 . S
C51 O52 1.252 . S
O52 Zn34 1.975 . S
O52 C51 1.252 . S
H53 C46 0.930 . S
H54 C47 0.930 . S
C55 C56 1.392 . S
C55 N59 1.328 . S
C55 H61 0.930 . S
C56 C55 1.392 . S
C56 N60 1.331 . S
C57 C58 1.391 . S
C57 N60 1.329 . S
C57 H67 0.930 . S
C58 C57 1.391 . S
C58 N59 1.334 . S
C58 H65 0.930 . S
N59 Zn43 2.119 . S
N59 C55 1.328 . S
N59 C58 1.334 . S
N60 C56 1.331 . S
N60 C57 1.329 . S
H61 C55 0.930 . S
C62 O42 1.257 . S
C62 O63 1.244 . S
O63 C62 1.244 . S
O64 C40 1.257 . S
O64 Zn43 2.019 . S
H65 C58 0.930 . S
H66 C45 0.930 . S
H67 C57 0.930 . S
Zn68 N72 2.020 . S
Zn68 O76 2.019 . S
Zn68 N78 2.119 . S
Zn68 O86 1.975 . S
C69 N70 1.334 . S
C69 N73 1.336 . S
N70 C69 1.334 . S
N70 C71 1.334 . S
C71 N70 1.334 . S
C71 N72 1.336 . S
N72 Zn68 2.020 . S
N72 C71 1.336 . S
N72 N73 1.354 . S
N73 C69 1.336 . S
N73 N72 1.354 . S
N73 Zn77 2.020 . S
C74 O75 1.244 . S
C74 O98 1.257 . S
O75 C74 1.244 . S
O76 Zn68 2.019 . S
O76 C96 1.257 . S
Zn77 N73 2.020 . S
Zn77 O84 1.975 . S
Zn77 N93 2.119 . S
Zn77 O98 2.019 . S
N78 Zn68 2.119 . S
N78 C80 1.334 . S
N78 C81 1.328 . S
C79 C80 1.391 . S
C79 N82 1.329 . S
C79 H100 0.930 . S
C80 N78 1.334 . S
C80 C79 1.391 . S
C80 H87 0.930 . S
C81 N78 1.328 . S
C81 C83 1.392 . S
C81 H88 0.930 . S
N82 C79 1.329 . S
N82 C83 1.331 . S
C83 C81 1.392 . S
C83 N82 1.331 . S
O84 Zn77 1.975 . S
O84 C85 1.252 . S
C85 O84 1.252 . S
C85 O86 1.252 . S
O86 Zn68 1.975 . S
O86 C85 1.252 . S
H87 C80 0.930 . S
H88 C81 0.930 . S
C89 C90 1.392 . S
C89 N93 1.328 . S
C89 H95 0.930 . S
C90 C89 1.392 . S
C90 N94 1.331 . S
C91 C92 1.391 . S
C91 N94 1.329 . S
C91 H101 0.930 . S
C92 C91 1.391 . S
C92 N93 1.334 . S
C92 H99 0.930 . S
N93 Zn77 2.119 . S
N93 C89 1.328 . S
N93 C92 1.334 . S
N94 C90 1.331 . S
N94 C91 1.329 . S
H95 C89 0.930 . S
C96 O76 1.257 . S
C96 O97 1.244 . S
O97 C96 1.244 . S
O98 C74 1.257 . S
O98 Zn77 2.019 . S
H99 C92 0.930 . S
H100 C79 0.930 . S
H101 C91 0.930 . S
Zn102 N106 2.020 . S
Zn102 O110 2.019 . S
Zn102 N112 2.119 . S
Zn102 O120 1.975 . S
C103 N104 1.334 . S
C103 N107 1.336 . S
N104 C103 1.334 . S
N104 C105 1.334 . S
C105 N104 1.334 . S
C105 N106 1.336 . S
N106 Zn102 2.020 . S
N106 C105 1.336 . S
N106 N107 1.354 . S
N107 C103 1.336 . S
N107 N106 1.354 . S
N107 Zn111 2.020 . S
C108 O109 1.244 . S
C108 O132 1.257 . S
O109 C108 1.244 . S
O110 Zn102 2.019 . S
O110 C130 1.257 . S
Zn111 N107 2.020 . S
Zn111 O118 1.975 . S
Zn111 N127 2.119 . S
Zn111 O132 2.019 . S
N112 Zn102 2.119 . S
N112 C114 1.334 . S
N112 C115 1.328 . S
C113 C114 1.391 . S
C113 N116 1.329 . S
C113 H134 0.930 . S
C114 N112 1.334 . S
C114 C113 1.391 . S
C114 H121 0.930 . S
C115 N112 1.328 . S
C115 C117 1.392 . S
C115 H122 0.930 . S
N116 C113 1.329 . S
N116 C117 1.331 . S
C117 C115 1.392 . S
C117 N116 1.331 . S
O118 Zn111 1.975 . S
O118 C119 1.252 . S
C119 O118 1.252 . S
C119 O120 1.252 . S
O120 Zn102 1.975 . S
O120 C119 1.252 . S
H121 C114 0.930 . S
H122 C115 0.930 . S
C123 C124 1.392 . S
C123 N127 1.328 . S
C123 H129 0.930 . S
C124 C123 1.392 . S
C124 N128 1.331 . S
C125 C126 1.391 . S
C125 N128 1.329 . S
C125 H135 0.930 . S
C126 C125 1.391 . S
C126 N127 1.334 . S
C126 H133 0.930 . S
N127 Zn111 2.119 . S
N127 C123 1.328 . S
N127 C126 1.334 . S
N128 C124 1.331 . S
N128 C125 1.329 . S
H129 C123 0.930 . S
C130 O110 1.257 . S
C130 O131 1.244 . S
O131 C130 1.244 . S
O132 C108 1.257 . S
O132 Zn111 2.019 . S
H133 C126 0.930 . S
H134 C113 0.930 . S
H135 C125 0.930 . S
Zn136 N140 2.020 . S
Zn136 O144 2.019 . S
Zn136 N146 2.119 . S
Zn136 O154 1.975 . S
C137 N138 1.334 . S
C137 N141 1.336 . S
N138 C137 1.334 . S
N138 C139 1.334 . S
C139 N138 1.334 . S
C139 N140 1.336 . S
N140 Zn136 2.020 . S
N140 C139 1.336 . S
N140 N141 1.354 . S
N141 C137 1.336 . S
N141 N140 1.354 . S
N141 Zn145 2.020 . S
C142 O143 1.244 . S
C142 O166 1.257 . S
O143 C142 1.244 . S
O144 Zn136 2.019 . S
O144 C164 1.257 . S
Zn145 N141 2.020 . S
Zn145 O152 1.975 . S
Zn145 N161 2.119 . S
Zn145 O166 2.019 . S
N146 Zn136 2.119 . S
N146 C148 1.334 . S
N146 C149 1.328 . S
C147 C148 1.391 . S
C147 N150 1.329 . S
C147 H168 0.930 . S
C148 N146 1.334 . S
C148 C147 1.391 . S
C148 H155 0.930 . S
C149 N146 1.328 . S
C149 C151 1.392 . S
C149 H156 0.930 . S
N150 C147 1.329 . S
N150 C151 1.331 . S
C151 C149 1.392 . S
C151 N150 1.331 . S
O152 Zn145 1.975 . S
O152 C153 1.252 . S
C153 O152 1.252 . S
C153 O154 1.252 . S
O154 Zn136 1.975 . S
O154 C153 1.252 . S
H155 C148 0.930 . S
H156 C149 0.930 . S
C157 C158 1.392 . S
C157 N161 1.328 . S
C157 H163 0.930 . S
C158 C157 1.392 . S
C158 N162 1.331 . S
C159 C160 1.391 . S
C159 N162 1.329 . S
C159 H169 0.930 . S
C160 C159 1.391 . S
C160 N161 1.334 . S
C160 H167 0.930 . S
N161 Zn145 2.119 . S
N161 C157 1.328 . S
N161 C160 1.334 . S
N162 C158 1.331 . S
N162 C159 1.329 . S
H163 C157 0.930 . S
C164 O144 1.257 . S
C164 O165 1.244 . S
O165 C164 1.244 . S
O166 C142 1.257 . S
O166 Zn145 2.019 . S
H167 C160 0.930 . S
H168 C147 0.930 . S
H169 C159 0.930 . S
Zn170 N174 2.020 . S
Zn170 O178 2.019 . S
Zn170 N180 2.119 . S
Zn170 O188 1.975 . S
C171 N172 1.334 . S
C171 N175 1.336 . S
N172 C171 1.334 . S
N172 C173 1.334 . S
C173 N172 1.334 . S
C173 N174 1.336 . S
N174 Zn170 2.020 . S
N174 C173 1.336 . S
N174 N175 1.354 . S
N175 C171 1.336 . S
N175 N174 1.354 . S
N175 Zn179 2.020 . S
C176 O177 1.244 . S
C176 O200 1.257 . S
O177 C176 1.244 . S
O178 Zn170 2.019 . S
O178 C198 1.257 . S
Zn179 N175 2.020 . S
Zn179 O186 1.975 . S
Zn179 N195 2.119 . S
Zn179 O200 2.019 . S
N180 Zn170 2.119 . S
N180 C182 1.334 . S
N180 C183 1.328 . S
C181 C182 1.391 . S
C181 N184 1.329 . S
C181 H202 0.930 . S
C182 N180 1.334 . S
C182 C181 1.391 . S
C182 H189 0.930 . S
C183 N180 1.328 . S
C183 C185 1.392 . S
C183 H190 0.930 . S
N184 C181 1.329 . S
N184 C185 1.331 . S
C185 C183 1.392 . S
C185 N184 1.331 . S
O186 Zn179 1.975 . S
O186 C187 1.252 . S
C187 O186 1.252 . S
C187 O188 1.252 . S
O188 Zn170 1.975 . S
O188 C187 1.252 . S
H189 C182 0.930 . S
H190 C183 0.930 . S
C191 C192 1.392 . S
C191 N195 1.328 . S
C191 H197 0.930 . S
C192 C191 1.392 . S
C192 N196 1.331 . S
C193 C194 1.391 . S
C193 N196 1.329 . S
C193 H203 0.930 . S
C194 C193 1.391 . S
C194 N195 1.334 . S
C194 H201 0.930 . S
N195 Zn179 2.119 . S
N195 C191 1.328 . S
N195 C194 1.334 . S
N196 C192 1.331 . S
N196 C193 1.329 . S
H197 C191 0.930 . S
C198 O178 1.257 . S
C198 O199 1.244 . S
O199 C198 1.244 . S
O200 C176 1.257 . S
O200 Zn179 2.019 . S
H201 C194 0.930 . S
H202 C181 0.930 . S
H203 C193 0.930 . S
Zn204 N208 2.020 . S
Zn204 O212 2.019 . S
Zn204 N214 2.119 . S
Zn204 O222 1.975 . S
C205 N206 1.334 . S
C205 N209 1.336 . S
N206 C205 1.334 . S
N206 C207 1.334 . S
C207 N206 1.334 . S
C207 N208 1.336 . S
N208 Zn204 2.020 . S
N208 C207 1.336 . S
N208 N209 1.354 . S
N209 C205 1.336 . S
N209 N208 1.354 . S
N209 Zn213 2.020 . S
C210 O211 1.244 . S
C210 O234 1.257 . S
O211 C210 1.244 . S
O212 Zn204 2.019 . S
O212 C232 1.257 . S
Zn213 N209 2.020 . S
Zn213 O220 1.975 . S
Zn213 N229 2.119 . S
Zn213 O234 2.019 . S
N214 Zn204 2.119 . S
N214 C216 1.334 . S
N214 C217 1.328 . S
C215 C216 1.391 . S
C215 N218 1.329 . S
C215 H236 0.930 . S
C216 N214 1.334 . S
C216 C215 1.391 . S
C216 H223 0.930 . S
C217 N214 1.328 . S
C217 C219 1.392 . S
C217 H224 0.930 . S
N218 C215 1.329 . S
N218 C219 1.331 . S
C219 C217 1.392 . S
C219 N218 1.331 . S
O220 Zn213 1.975 . S
O220 C221 1.252 . S
C221 O220 1.252 . S
C221 O222 1.252 . S
O222 Zn204 1.975 . S
O222 C221 1.252 . S
H223 C216 0.930 . S
H224 C217 0.930 . S
C225 C226 1.392 . S
C225 N229 1.328 . S
C225 H231 0.930 . S
C226 C225 1.392 . S
C226 N230 1.331 . S
C227 C228 1.391 . S
C227 N230 1.329 . S
C227 H237 0.930 . S
C228 C227 1.391 . S
C228 N229 1.334 . S
C228 H235 0.930 . S
N229 Zn213 2.119 . S
N229 C225 1.328 . S
N229 C228 1.334 . S
N230 C226 1.331 . S
N230 C227 1.329 . S
H231 C225 0.930 . S
C232 O212 1.257 . S
C232 O233 1.244 . S
O233 C232 1.244 . S
O234 C210 1.257 . S
O234 Zn213 2.019 . S
H235 C228 0.930 . S
H236 C215 0.930 . S
H237 C227 0.930 . S
Zn238 N242 2.020 . S
Zn238 O246 2.019 . S
Zn238 N248 2.119 . S
Zn238 O256 1.975 . S
C239 N240 1.334 . S
C239 N243 1.336 . S
N240 C239 1.334 . S
N240 C241 1.334 . S
C241 N240 1.334 . S
C241 N242 1.336 . S
N242 Zn238 2.020 . S
N242 C241 1.336 . S
N242 N243 1.354 . S
N243 C239 1.336 . S
N243 N242 1.354 . S
N243 Zn247 2.020 . S
C244 O245 1.244 . S
C244 O268 1.257 . S
O245 C244 1.244 . S
O246 Zn238 2.019 . S
O246 C266 1.257 . S
Zn247 N243 2.020 . S
Zn247 O254 1.975 . S
Zn247 N263 2.119 . S
Zn247 O268 2.019 . S
N248 Zn238 2.119 . S
N248 C250 1.334 . S
N248 C251 1.328 . S
C249 C250 1.391 . S
C249 N252 1.329 . S
C249 H270 0.930 . S
C250 N248 1.334 . S
C250 C249 1.391 . S
C250 H257 0.930 . S
C251 N248 1.328 . S
C251 C253 1.392 . S
C251 H258 0.930 . S
N252 C249 1.329 . S
N252 C253 1.331 . S
C253 C251 1.392 . S
C253 N252 1.331 . S
O254 Zn247 1.975 . S
O254 C255 1.252 . S
C255 O254 1.252 . S
C255 O256 1.252 . S
O256 Zn238 1.975 . S
O256 C255 1.252 . S
H257 C250 0.930 . S
H258 C251 0.930 . S
C259 C260 1.392 . S
C259 N263 1.328 . S
C259 H265 0.930 . S
C260 C259 1.392 . S
C260 N264 1.331 . S
C261 C262 1.391 . S
C261 N264 1.329 . S
C261 H271 0.930 . S
C262 C261 1.391 . S
C262 N263 1.334 . S
C262 H269 0.930 . S
N263 Zn247 2.119 . S
N263 C259 1.328 . S
N263 C262 1.334 . S
N264 C260 1.331 . S
N264 C261 1.329 . S
H265 C259 0.930 . S
C266 O246 1.257 . S
C266 O267 1.244 . S
O267 C266 1.244 . S
O268 C244 1.257 . S
O268 Zn247 2.019 . S
H269 C262 0.930 . S
H270 C249 0.930 . S
H271 C261 0.930 . S
H272 C290 0.951 . S
H273 C292 0.951 . S
H274 C294 0.950 . S
H275 C295 0.950 . S
H276 C297 0.950 . S
H277 C300 0.950 . S
H278 C301 0.950 . S
H279 C303 0.950 . S
H280 C304 0.950 . S
H281 C305 0.951 . S
H282 C307 0.951 . S
H283 C309 0.950 . S
H284 C310 0.945 1_556 S
H285 C312 0.950 . S
H286 C315 0.950 . S
H287 C316 0.950 . S
H288 C318 0.950 . S
H289 C319 0.950 . S
C290 H272 0.951 . S
C290 C291 1.366 . S
C290 C292 1.388 . S
C291 C290 1.366 . S
C291 C295 1.385 . S
C292 H273 0.951 . S
C292 C290 1.388 . S
C292 C293 1.366 . S
C293 C292 1.366 . S
C293 C294 1.414 . S
C293 C296 1.499 . S
C294 H274 0.950 . S
C294 C293 1.414 . S
C294 C295 1.374 . S
C295 H275 0.950 . S
C295 C291 1.385 . S
C295 C294 1.374 . S
C296 C293 1.499 . S
C296 C297 1.373 . S
C296 C298 1.389 . S
C297 H276 0.950 . S
C297 C296 1.373 . S
C297 C313 1.377 . S
C298 C296 1.389 . S
C298 C299 1.524 . S
C298 C312 1.377 . S
C299 C298 1.524 . S
C299 C300 1.397 . S
C299 C304 1.363 . S
C300 H277 0.950 . S
C300 C299 1.397 . S
C300 C301 1.334 . S
C301 H278 0.950 . S
C301 C300 1.334 . S
C301 C302 1.287 . S
C302 C301 1.287 . S
C302 C303 1.524 . S
C302 H321 0.913 . S
C303 H279 0.950 . S
C303 C302 1.524 . S
C303 C304 1.415 . S
C304 H280 0.950 . S
C304 C299 1.363 . S
C304 C303 1.415 . S
C305 H281 0.951 . S
C305 C306 1.366 . S
C305 C307 1.388 1_556 S
C306 C305 1.366 . S
C306 C310 1.363 1_556 S
C307 H282 0.951 . S
C307 C305 1.388 1_554 S
C307 C308 1.366 . S
C308 C307 1.366 . S
C308 C309 1.414 . S
C308 C311 1.499 . S
C309 H283 0.950 . S
C309 C308 1.414 . S
C309 C310 1.400 . S
C310 H284 0.945 1_554 S
C310 C306 1.363 1_554 S
C310 C309 1.400 . S
C311 C308 1.499 . S
C311 C312 1.373 . S
C311 C313 1.389 . S
C312 H285 0.950 . S
C312 C298 1.377 . S
C312 C311 1.373 . S
C313 C297 1.377 . S
C313 C311 1.389 . S
C313 C314 1.524 . S
C314 C313 1.524 . S
C314 C315 1.397 . S
C314 C319 1.363 . S
C315 H286 0.950 . S
C315 C314 1.397 . S
C315 C316 1.334 . S
C316 H287 0.950 . S
C316 C315 1.334 . S
C316 C317 1.287 . S
C317 C316 1.287 . S
C317 C318 1.524 . S
C317 H320 0.999 . S
C318 H288 0.950 . S
C318 C317 1.524 . S
C318 C319 1.415 . S
C319 H289 0.950 . S
C319 C314 1.363 . S
C319 C318 1.415 . S
H320 C317 0.999 . S
H321 C302 0.913 . S
H322 C340 0.951 . S
H323 C342 0.951 . S
H324 C344 0.950 . S
H325 C345 0.950 . S
H326 C347 0.950 . S
H327 C350 0.950 . S
H328 C351 0.950 . S
H329 C353 0.950 . S
H330 C354 0.950 . S
H331 C355 0.951 . S
H332 C357 0.951 . S
H333 C359 0.950 . S
H334 C360 0.950 . S
H335 C362 0.950 . S
H336 C365 0.950 . S
H337 C366 0.950 . S
H338 C368 0.950 . S
H339 C369 0.950 . S
C340 H322 0.951 . S
C340 C341 1.366 . S
C340 C342 1.388 1_554 S
C341 C340 1.366 . S
C341 C345 1.385 . S
C342 H323 0.951 . S
C342 C340 1.388 1_556 S
C342 C343 1.366 . S
C343 C342 1.366 . S
C343 C344 1.414 . S
C343 C346 1.499 . S
C344 H324 0.950 . S
C344 C343 1.414 . S
C344 C345 1.374 1_556 S
C345 H325 0.950 . S
C345 C341 1.385 . S
C345 C344 1.374 1_554 S
C346 C343 1.499 . S
C346 C347 1.373 . S
C346 C348 1.389 . S
C347 H326 0.950 . S
C347 C346 1.373 . S
C347 C363 1.377 . S
C348 C346 1.389 . S
C348 C349 1.524 . S
C348 C362 1.377 . S
C349 C348 1.524 . S
C349 C350 1.397 . S
C349 C354 1.363 . S
C350 H327 0.950 . S
C350 C349 1.397 . S
C350 C351 1.334 . S
C351 H328 0.950 . S
C351 C350 1.334 . S
C351 C352 1.287 . S
C352 C351 1.287 . S
C352 C353 1.524 . S
C352 H371 0.913 . S
C353 H329 0.950 . S
C353 C352 1.524 . S
C353 C354 1.415 . S
C354 H330 0.950 . S
C354 C349 1.363 . S
C354 C353 1.415 . S
C355 H331 0.951 . S
C355 C356 1.366 . S
C355 C357 1.388 . S
C356 C355 1.366 . S
C356 C360 1.385 . S
C357 H332 0.951 . S
C357 C355 1.388 . S
C357 C358 1.366 . S
C358 C357 1.366 . S
C358 C359 1.414 . S
C358 C361 1.499 . S
C359 H333 0.950 . S
C359 C358 1.414 . S
C359 C360 1.374 . S
C360 H334 0.950 . S
C360 C356 1.385 . S
C360 C359 1.374 . S
C361 C358 1.499 . S
C361 C362 1.373 . S
C361 C363 1.389 . S
C362 H335 0.950 . S
C362 C348 1.377 . S
C362 C361 1.373 . S
C363 C347 1.377 . S
C363 C361 1.389 . S
C363 C364 1.524 . S
C364 C363 1.524 . S
C364 C365 1.397 . S
C364 C369 1.363 . S
C365 H336 0.950 . S
C365 C364 1.397 . S
C365 C366 1.334 . S
C366 H337 0.950 . S
C366 C365 1.334 . S
C366 C367 1.287 . S
C367 C366 1.287 . S
C367 C368 1.524 . S
C367 H370 0.999 . S
C368 H338 0.950 . S
C368 C367 1.524 . S
C368 C369 1.415 . S
C369 H339 0.950 . S
C369 C364 1.363 . S
C369 C368 1.415 . S
H370 C367 0.999 . S
H371 C352 0.913 . S
H372 C390 0.951 . S
H373 C392 0.951 . S
H374 C394 0.950 . S
H375 C395 0.950 . S
H376 C397 0.950 . S
H377 C400 0.950 . S
H378 C401 0.950 . S
H379 C403 0.950 . S
H380 C404 0.950 . S
H381 C405 0.951 . S
H382 C407 0.951 . S
H383 C409 0.950 . S
H384 C410 0.950 . S
H385 C412 0.950 . S
H386 C415 0.950 . S
H387 C416 0.950 . S
H388 C418 0.950 . S
H389 C419 0.950 . S
C390 H372 0.951 . S
C390 C391 1.366 . S
C390 C392 1.388 1_556 S
C391 C390 1.366 . S
C391 C395 1.385 . S
C392 H373 0.951 . S
C392 C390 1.388 1_554 S
C392 C393 1.366 . S
C393 C392 1.366 . S
C393 C394 1.414 . S
C393 C396 1.499 . S
C394 H374 0.950 . S
C394 C393 1.414 . S
C394 C395 1.374 1_554 S
C395 H375 0.950 . S
C395 C391 1.385 . S
C395 C394 1.374 1_556 S
C396 C393 1.499 . S
C396 C397 1.373 . S
C396 C398 1.389 . S
C397 H376 0.950 . S
C397 C396 1.373 . S
C397 C413 1.377 . S
C398 C396 1.389 . S
C398 C399 1.524 . S
C398 C412 1.377 . S
C399 C398 1.524 . S
C399 C400 1.397 . S
C399 C404 1.363 . S
C400 H377 0.950 . S
C400 C399 1.397 . S
C400 C401 1.334 . S
C401 H378 0.950 . S
C401 C400 1.334 . S
C401 C402 1.287 . S
C402 C401 1.287 . S
C402 C403 1.524 . S
C402 H421 0.913 . S
C403 H379 0.950 . S
C403 C402 1.524 . S
C403 C404 1.415 . S
C404 H380 0.950 . S
C404 C399 1.363 . S
C404 C403 1.415 . S
C405 H381 0.951 . S
C405 C406 1.366 . S
C405 C407 1.388 . S
C406 C405 1.366 . S
C406 C410 1.385 . S
C407 H382 0.951 . S
C407 C405 1.388 . S
C407 C408 1.366 . S
C408 C407 1.366 . S
C408 C409 1.414 . S
C408 C411 1.499 . S
C409 H383 0.950 . S
C409 C408 1.414 . S
C409 C410 1.374 . S
C410 H384 0.950 . S
C410 C406 1.385 . S
C410 C409 1.374 . S
C411 C408 1.499 . S
C411 C412 1.373 . S
C411 C413 1.389 . S
C412 H385 0.950 . S
C412 C398 1.377 . S
C412 C411 1.373 . S
C413 C397 1.377 . S
C413 C411 1.389 . S
C413 C414 1.524 . S
C414 C413 1.524 . S
C414 C415 1.397 . S
C414 C419 1.363 . S
C415 H386 0.950 . S
C415 C414 1.397 . S
C415 C416 1.334 . S
C416 H387 0.950 . S
C416 C415 1.334 . S
C416 C417 1.287 . S
C417 C416 1.287 . S
C417 C418 1.524 . S
C417 H420 0.999 . S
C418 H388 0.950 . S
C418 C417 1.524 . S
C418 C419 1.415 . S
C419 H389 0.950 . S
C419 C414 1.363 . S
C419 C418 1.415 . S
H420 C417 0.999 . S
H421 C402 0.913 . S
H422 C440 0.951 . S
H423 C442 0.951 . S
H424 C444 0.950 . S
H425 C445 0.950 . S
H426 C447 0.950 . S
H427 C450 0.950 . S
H428 C451 0.950 . S
H429 C453 0.950 . S
H430 C454 0.950 . S
H431 C455 0.951 . S
H432 C457 0.951 . S
H433 C459 0.950 . S
H434 C460 0.950 . S
H435 C462 0.950 . S
H436 C465 0.950 . S
H437 C466 0.950 1_554 S
H438 C468 0.950 . S
H439 C469 0.950 . S
C440 H422 0.951 . S
C440 C441 1.366 . S
C440 C442 1.388 . S
C441 C440 1.366 . S
C441 C445 1.385 . S
C442 H423 0.951 . S
C442 C440 1.388 . S
C442 C443 1.366 . S
C443 C442 1.366 . S
C443 C444 1.414 . S
C443 C446 1.499 . S
C444 H424 0.950 . S
C444 C443 1.414 . S
C444 C445 1.374 . S
C445 H425 0.950 . S
C445 C441 1.385 . S
C445 C444 1.374 . S
C446 C443 1.499 . S
C446 C447 1.373 . S
C446 C448 1.389 . S
C447 H426 0.950 . S
C447 C446 1.373 . S
C447 C463 1.377 . S
C448 C446 1.389 . S
C448 C449 1.524 . S
C448 C462 1.377 . S
C449 C448 1.524 . S
C449 C450 1.397 . S
C449 C454 1.363 . S
C450 H427 0.950 . S
C450 C449 1.397 . S
C450 C451 1.334 . S
C451 H428 0.950 . S
C451 C450 1.334 . S
C451 C452 1.287 . S
C452 C451 1.287 . S
C452 C453 1.524 . S
C452 H471 0.913 . S
C453 H429 0.950 . S
C453 C452 1.524 . S
C453 C454 1.415 . S
C454 H430 0.950 . S
C454 C449 1.363 . S
C454 C453 1.415 . S
C455 H431 0.951 . S
C455 C456 1.366 . S
C455 C457 1.388 1_554 S
C456 C455 1.366 . S
C456 C460 1.385 . S
C457 H432 0.951 . S
C457 C455 1.388 1_556 S
C457 C458 1.366 . S
C458 C457 1.366 . S
C458 C459 1.414 . S
C458 C461 1.499 . S
C459 H433 0.950 . S
C459 C458 1.414 . S
C459 C460 1.374 1_556 S
C460 H434 0.950 . S
C460 C456 1.385 . S
C460 C459 1.374 1_554 S
C461 C458 1.499 . S
C461 C462 1.373 . S
C461 C463 1.389 . S
C462 H435 0.950 . S
C462 C448 1.377 . S
C462 C461 1.373 . S
C463 C447 1.377 . S
C463 C461 1.389 . S
C463 C464 1.524 . S
C464 C463 1.524 . S
C464 C465 1.397 . S
C464 C469 1.363 . S
C465 H436 0.950 . S
C465 C464 1.397 . S
C465 C466 1.334 . S
C466 H437 0.950 1_556 S
C466 C465 1.334 . S
C466 C467 1.287 . S
C467 C466 1.287 . S
C467 C468 1.524 . S
C467 H470 0.999 1_556 S
C468 H438 0.950 . S
C468 C467 1.524 . S
C468 C469 1.415 . S
C469 H439 0.950 . S
C469 C464 1.363 . S
C469 C468 1.415 . S
H470 C467 0.999 1_554 S
H471 C452 0.913 . S
H472 C490 0.951 . S
H473 C492 0.951 . S
H474 C494 0.950 . S
H475 C495 0.950 . S
H476 C497 0.950 . S
H477 C500 0.950 . S
H478 C501 0.950 . S
H479 C503 0.950 . S
H480 C504 0.950 . S
H481 C505 0.951 . S
H482 C507 0.951 . S
H483 C509 0.950 . S
H484 C510 0.950 . S
H485 C512 0.950 . S
H486 C515 0.950 . S
H487 C516 0.950 . S
H488 C518 0.950 . S
H489 C519 0.950 . S
C490 H472 0.951 . S
C490 C491 1.366 . S
C490 C492 1.388 . S
C491 C490 1.366 . S
C491 C495 1.385 . S
C492 H473 0.951 . S
C492 C490 1.388 . S
C492 C493 1.366 . S
C493 C492 1.366 . S
C493 C494 1.414 . S
C493 C496 1.499 . S
C494 H474 0.950 . S
C494 C493 1.414 . S
C494 C495 1.374 . S
C495 H475 0.950 . S
C495 C491 1.385 . S
C495 C494 1.374 . S
C496 C493 1.499 . S
C496 C497 1.373 . S
C496 C498 1.389 . S
C497 H476 0.950 . S
C497 C496 1.373 . S
C497 C513 1.377 . S
C498 C496 1.389 . S
C498 C499 1.524 . S
C498 C512 1.377 . S
C499 C498 1.524 . S
C499 C500 1.397 . S
C499 C504 1.363 . S
C500 H477 0.950 . S
C500 C499 1.397 . S
C500 C501 1.334 . S
C501 H478 0.950 . S
C501 C500 1.334 . S
C501 C502 1.287 . S
C502 C501 1.287 . S
C502 C503 1.524 . S
C502 H521 0.913 . S
C503 H479 0.950 . S
C503 C502 1.524 . S
C503 C504 1.415 . S
C504 H480 0.950 . S
C504 C499 1.363 . S
C504 C503 1.415 . S
C505 H481 0.951 . S
C505 C506 1.366 . S
C505 C507 1.388 . S
C506 C505 1.366 . S
C506 C510 1.385 . S
C507 H482 0.951 . S
C507 C505 1.388 . S
C507 C508 1.366 . S
C508 C507 1.366 . S
C508 C509 1.414 . S
C508 C511 1.499 . S
C509 H483 0.950 . S
C509 C508 1.414 . S
C509 C510 1.374 . S
C510 H484 0.950 . S
C510 C506 1.385 . S
C510 C509 1.374 . S
C511 C508 1.499 . S
C511 C512 1.373 . S
C511 C513 1.389 . S
C512 H485 0.950 . S
C512 C498 1.377 . S
C512 C511 1.373 . S
C513 C497 1.377 . S
C513 C511 1.389 . S
C513 C514 1.524 . S
C514 C513 1.524 . S
C514 C515 1.397 . S
C514 C519 1.363 . S
C515 H486 0.950 . S
C515 C514 1.397 . S
C515 C516 1.334 . S
C516 H487 0.950 . S
C516 C515 1.334 . S
C516 C517 1.287 . S
C517 C516 1.287 . S
C517 C518 1.524 . S
C517 H520 0.999 . S
C518 H488 0.950 . S
C518 C517 1.524 . S
C518 C519 1.415 . S
C519 H489 0.950 . S
C519 C514 1.363 . S
C519 C518 1.415 . S
H520 C517 0.999 . S
H521 C502 0.913 . S
H522 C540 0.951 . S
H523 C542 0.951 . S
H524 C544 0.950 . S
H525 C545 0.950 . S
H526 C547 0.950 . S
H527 C550 0.950 . S
H528 C551 0.950 . S
H529 C553 0.950 . S
H530 C554 0.950 . S
H531 C555 0.951 . S
H532 C557 0.951 . S
H533 C559 0.950 . S
H534 C560 0.950 . S
H535 C562 0.950 . S
H536 C565 0.950 . S
H537 C566 0.950 . S
H538 C568 0.950 . S
H539 C569 0.950 . S
C540 H522 0.951 . S
C540 C541 1.366 . S
C540 C542 1.388 . S
C541 C540 1.366 . S
C541 C545 1.385 . S
C542 H523 0.951 . S
C542 C540 1.388 . S
C542 C543 1.366 . S
C543 C542 1.366 . S
C543 C544 1.414 . S
C543 C546 1.499 . S
C544 H524 0.950 . S
C544 C543 1.414 . S
C544 C545 1.374 . S
C545 H525 0.950 . S
C545 C541 1.385 . S
C545 C544 1.374 . S
C546 C543 1.499 . S
C546 C547 1.373 . S
C546 C548 1.389 . S
C547 H526 0.950 . S
C547 C546 1.373 . S
C547 C563 1.377 . S
C548 C546 1.389 . S
C548 C549 1.524 . S
C548 C562 1.377 . S
C549 C548 1.524 . S
C549 C550 1.397 . S
C549 C554 1.363 . S
C550 H527 0.950 . S
C550 C549 1.397 . S
C550 C551 1.334 . S
C551 H528 0.950 . S
C551 C550 1.334 . S
C551 C552 1.287 . S
C552 C551 1.287 . S
C552 C553 1.524 . S
C552 H571 0.913 . S
C553 H529 0.950 . S
C553 C552 1.524 . S
C553 C554 1.415 . S
C554 H530 0.950 . S
C554 C549 1.363 . S
C554 C553 1.415 . S
C555 H531 0.951 . S
C555 C556 1.366 . S
C555 C557 1.388 . S
C556 C555 1.366 . S
C556 C560 1.385 . S
C557 H532 0.951 . S
C557 C555 1.388 . S
C557 C558 1.366 . S
C558 C557 1.366 . S
C558 C559 1.414 . S
C558 C561 1.499 . S
C559 H533 0.950 . S
C559 C558 1.414 . S
C559 C560 1.374 . S
C560 H534 0.950 . S
C560 C556 1.385 . S
C560 C559 1.374 . S
C561 C558 1.499 . S
C561 C562 1.373 . S
C561 C563 1.389 . S
C562 H535 0.950 . S
C562 C548 1.377 . S
C562 C561 1.373 . S
C563 C547 1.377 . S
C563 C561 1.389 . S
C563 C564 1.524 . S
C564 C563 1.524 . S
C564 C565 1.397 . S
C564 C569 1.363 . S
C565 H536 0.950 . S
C565 C564 1.397 . S
C565 C566 1.334 . S
C566 H537 0.950 . S
C566 C565 1.334 . S
C566 C567 1.287 . S
C567 C566 1.287 . S
C567 C568 1.524 . S
C567 H570 0.999 . S
C568 H538 0.950 . S
C568 C567 1.524 . S
C568 C569 1.415 . S
C569 H539 0.950 . S
C569 C564 1.363 . S
C569 C568 1.415 . S
H570 C567 0.999 . S
H571 C552 0.913 . S
H572 C590 0.951 . S
H573 C592 0.951 . S
H574 C594 0.950 . S
H575 C595 0.950 . S
H576 C597 0.950 . S
H577 C600 0.950 . S
H578 C601 0.950 . S
H579 C603 0.950 . S
H580 C604 0.950 . S
H581 C605 0.951 . S
H582 C607 0.951 . S
H583 C609 0.950 . S
H584 C610 0.950 . S
H585 C612 0.950 . S
H586 C615 0.950 . S
H587 C616 0.950 . S
H588 C618 0.950 . S
H589 C619 0.950 . S
C590 H572 0.951 . S
C590 C591 1.366 . S
C590 C592 1.388 . S
C591 C590 1.366 . S
C591 C595 1.385 . S
C592 H573 0.951 . S
C592 C590 1.388 . S
C592 C593 1.366 . S
C593 C592 1.366 . S
C593 C594 1.414 . S
C593 C596 1.499 . S
C594 H574 0.950 . S
C594 C593 1.414 . S
C594 C595 1.374 . S
C595 H575 0.950 . S
C595 C591 1.385 . S
C595 C594 1.374 . S
C596 C593 1.499 . S
C596 C597 1.373 . S
C596 C598 1.389 . S
C597 H576 0.950 . S
C597 C596 1.373 . S
C597 C613 1.377 . S
C598 C596 1.389 . S
C598 C599 1.524 . S
C598 C612 1.377 . S
C599 C598 1.524 . S
C599 C600 1.397 . S
C599 C604 1.363 . S
C600 H577 0.950 . S
C600 C599 1.397 . S
C600 C601 1.334 . S
C601 H578 0.950 . S
C601 C600 1.334 . S
C601 C602 1.287 . S
C602 C601 1.287 . S
C602 C603 1.524 . S
C602 H621 0.913 . S
C603 H579 0.950 . S
C603 C602 1.524 . S
C603 C604 1.415 . S
C604 H580 0.950 . S
C604 C599 1.363 . S
C604 C603 1.415 . S
C605 H581 0.951 . S
C605 C606 1.366 . S
C605 C607 1.388 . S
C606 C605 1.366 . S
C606 C610 1.385 . S
C607 H582 0.951 . S
C607 C605 1.388 . S
C607 C608 1.366 . S
C608 C607 1.366 . S
C608 C609 1.414 . S
C608 C611 1.499 . S
C609 H583 0.950 . S
C609 C608 1.414 . S
C609 C610 1.374 . S
C610 H584 0.950 . S
C610 C606 1.385 . S
C610 C609 1.374 . S
C611 C608 1.499 . S
C611 C612 1.373 . S
C611 C613 1.389 . S
C612 H585 0.950 . S
C612 C598 1.377 . S
C612 C611 1.373 . S
C613 C597 1.377 . S
C613 C611 1.389 . S
C613 C614 1.524 . S
C614 C613 1.524 . S
C614 C615 1.397 . S
C614 C619 1.363 . S
C615 H586 0.950 . S
C615 C614 1.397 . S
C615 C616 1.334 . S
C616 H587 0.950 . S
C616 C615 1.334 . S
C616 C617 1.287 . S
C617 C616 1.287 . S
C617 C618 1.524 . S
C617 H620 0.999 . S
C618 H588 0.950 . S
C618 C617 1.524 . S
C618 C619 1.415 . S
C619 H589 0.950 . S
C619 C614 1.363 . S
C619 C618 1.415 . S
H620 C617 0.999 . S
H621 C602 0.913 . S
H622 C640 0.951 . S
H623 C642 0.951 . S
H624 C644 0.950 . S
H625 C645 0.950 . S
H626 C647 0.950 . S
H627 C650 0.950 . S
H628 C651 0.950 . S
H629 C653 0.950 . S
H630 C654 0.950 . S
H631 C655 0.951 . S
H632 C657 0.951 . S
H633 C659 0.950 . S
H634 C660 0.950 . S
H635 C662 0.950 . S
H636 C665 0.950 . S
H637 C666 0.950 . S
H638 C668 0.950 . S
H639 C669 0.950 . S
C640 H622 0.951 . S
C640 C641 1.366 . S
C640 C642 1.388 . S
C641 C640 1.366 . S
C641 C645 1.385 . S
C642 H623 0.951 . S
C642 C640 1.388 . S
C642 C643 1.366 . S
C643 C642 1.366 . S
C643 C644 1.414 . S
C643 C646 1.499 . S
C644 H624 0.950 . S
C644 C643 1.414 . S
C644 C645 1.374 . S
C645 H625 0.950 . S
C645 C641 1.385 . S
C645 C644 1.374 . S
C646 C643 1.499 . S
C646 C647 1.373 . S
C646 C648 1.389 . S
C647 H626 0.950 . S
C647 C646 1.373 . S
C647 C663 1.377 . S
C648 C646 1.389 . S
C648 C649 1.524 . S
C648 C662 1.377 . S
C649 C648 1.524 . S
C649 C650 1.397 . S
C649 C654 1.363 . S
C650 H627 0.950 . S
C650 C649 1.397 . S
C650 C651 1.334 . S
C651 H628 0.950 . S
C651 C650 1.334 . S
C651 C652 1.287 . S
C652 C651 1.287 . S
C652 C653 1.524 . S
C652 H671 0.913 . S
C653 H629 0.950 . S
C653 C652 1.524 . S
C653 C654 1.415 . S
C654 H630 0.950 . S
C654 C649 1.363 . S
C654 C653 1.415 . S
C655 H631 0.951 . S
C655 C656 1.366 . S
C655 C657 1.388 . S
C656 C655 1.366 . S
C656 C660 1.385 . S
C657 H632 0.951 . S
C657 C655 1.388 . S
C657 C658 1.366 . S
C658 C657 1.366 . S
C658 C659 1.414 . S
C658 C661 1.499 . S
C659 H633 0.950 . S
C659 C658 1.414 . S
C659 C660 1.374 . S
C660 H634 0.950 . S
C660 C656 1.385 . S
C660 C659 1.374 . S
C661 C658 1.499 . S
C661 C662 1.373 . S
C661 C663 1.389 . S
C662 H635 0.950 . S
C662 C648 1.377 . S
C662 C661 1.373 . S
C663 C647 1.377 . S
C663 C661 1.389 . S
C663 C664 1.524 . S
C664 C663 1.524 . S
C664 C665 1.397 . S
C664 C669 1.363 . S
C665 H636 0.950 . S
C665 C664 1.397 . S
C665 C666 1.334 . S
C666 H637 0.950 . S
C666 C665 1.334 . S
C666 C667 1.287 . S
C667 C666 1.287 . S
C667 C668 1.524 . S
C667 H670 0.999 . S
C668 H638 0.950 . S
C668 C667 1.524 . S
C668 C669 1.415 . S
C669 H639 0.950 . S
C669 C664 1.363 . S
C669 C668 1.415 . S
H670 C667 0.999 . S
H671 C652 0.913 . S
H672 C690 0.951 . S
H673 C692 0.951 . S
H674 C694 0.950 . S
H675 C695 0.950 . S
H676 C697 0.950 . S
H677 C700 0.950 . S
H678 C701 0.950 . S
H679 C703 0.955 . S
H680 C704 0.950 . S
H681 C705 0.951 . S
H682 C707 0.951 . S
H683 C709 0.950 . S
H684 C710 0.950 . S
H685 C712 0.950 . S
H686 C715 0.950 . S
H687 C716 0.950 . S
H688 C718 0.955 . S
H689 C719 0.950 . S
C690 H672 0.951 . S
C690 C691 1.366 . S
C690 C692 1.388 . S
C691 C690 1.366 . S
C691 C695 1.385 . S
C692 H673 0.951 . S
C692 C690 1.388 . S
C692 C693 1.366 . S
C693 C692 1.366 . S
C693 C694 1.414 . S
C693 C696 1.499 . S
C694 H674 0.950 . S
C694 C693 1.414 . S
C694 C695 1.374 . S
C695 H675 0.950 . S
C695 C691 1.385 . S
C695 C694 1.374 . S
C696 C693 1.499 . S
C696 C697 1.373 . S
C696 C698 1.389 . S
C697 H676 0.950 . S
C697 C696 1.373 . S
C697 C713 1.377 1_545 S
C698 C696 1.389 . S
C698 C699 1.524 . S
C698 C712 1.377 1_545 S
C699 C698 1.524 . S
C699 C700 1.397 . S
C699 C704 1.363 1_545 S
C700 H677 0.950 . S
C700 C699 1.397 . S
C700 C701 1.334 . S
C701 H678 0.950 . S
C701 C700 1.334 . S
C701 C702 1.287 . S
C702 C701 1.287 . S
C702 C703 1.518 1_545 S
C702 H721 0.913 . S
C703 H679 0.955 . S
C703 C702 1.518 1_565 S
C703 C704 1.416 . S
C704 H680 0.950 . S
C704 C699 1.363 1_565 S
C704 C703 1.416 . S
C705 H681 0.951 . S
C705 C706 1.366 . S
C705 C707 1.388 . S
C706 C705 1.366 . S
C706 C710 1.385 . S
C707 H682 0.951 . S
C707 C705 1.388 . S
C707 C708 1.366 . S
C708 C707 1.366 . S
C708 C709 1.414 . S
C708 C711 1.499 . S
C709 H683 0.950 . S
C709 C708 1.414 . S
C709 C710 1.374 . S
C710 H684 0.950 . S
C710 C706 1.385 . S
C710 C709 1.374 . S
C711 C708 1.499 . S
C711 C712 1.373 . S
C711 C713 1.389 . S
C712 H685 0.950 . S
C712 C698 1.377 1_565 S
C712 C711 1.373 . S
C713 C697 1.377 1_565 S
C713 C711 1.389 . S
C713 C714 1.524 . S
C714 C713 1.524 . S
C714 C715 1.397 . S
C714 C719 1.363 1_565 S
C715 H686 0.950 . S
C715 C714 1.397 . S
C715 C716 1.334 . S
C716 H687 0.950 . S
C716 C715 1.334 . S
C716 C717 1.287 . S
C717 C716 1.287 . S
C717 C718 1.518 1_565 S
C717 H720 0.999 . S
C718 H688 0.955 . S
C718 C717 1.518 1_545 S
C718 C719 1.416 . S
C719 H689 0.950 . S
C719 C714 1.363 1_545 S
C719 C718 1.416 . S
H720 C717 0.999 . S
H721 C702 0.913 . S
H722 C740 0.951 . S
H723 C742 0.951 . S
H724 C744 0.950 . S
H725 C745 0.950 . S
H726 C747 0.950 . S
H727 C750 0.950 . S
H728 C751 0.950 . S
H729 C753 0.950 . S
H730 C754 0.950 . S
H731 C755 0.951 . S
H732 C757 0.951 . S
H733 C759 0.950 . S
H734 C760 0.950 . S
H735 C762 0.950 . S
H736 C765 0.950 . S
H737 C766 0.950 . S
H738 C768 0.950 . S
H739 C769 0.950 . S
C740 H722 0.951 . S
C740 C741 1.366 . S
C740 C742 1.388 . S
C741 C740 1.366 . S
C741 C745 1.385 . S
C742 H723 0.951 . S
C742 C740 1.388 . S
C742 C743 1.366 . S
C743 C742 1.366 . S
C743 C744 1.414 . S
C743 C746 1.499 . S
C744 H724 0.950 . S
C744 C743 1.414 . S
C744 C745 1.374 . S
C745 H725 0.950 . S
C745 C741 1.385 . S
C745 C744 1.374 . S
C746 C743 1.499 . S
C746 C747 1.373 . S
C746 C748 1.389 . S
C747 H726 0.950 . S
C747 C746 1.373 . S
C747 C763 1.377 1_655 S
C748 C746 1.389 . S
C748 C749 1.524 . S
C748 C762 1.377 1_655 S
C749 C748 1.524 . S
C749 C750 1.397 . S
C749 C754 1.363 . S
C750 H727 0.950 . S
C750 C749 1.397 . S
C750 C751 1.334 . S
C751 H728 0.950 . S
C751 C750 1.334 . S
C751 C752 1.287 . S
C752 C751 1.287 . S
C752 C753 1.524 . S
C752 H771 0.913 . S
C753 H729 0.950 . S
C753 C752 1.524 . S
C753 C754 1.415 . S
C754 H730 0.950 . S
C754 C749 1.363 . S
C754 C753 1.415 . S
C755 H731 0.951 . S
C755 C756 1.366 . S
C755 C757 1.388 . S
C756 C755 1.366 . S
C756 C760 1.385 . S
C757 H732 0.951 . S
C757 C755 1.388 . S
C757 C758 1.366 . S
C758 C757 1.366 . S
C758 C759 1.414 . S
C758 C761 1.499 . S
C759 H733 0.950 . S
C759 C758 1.414 . S
C759 C760 1.374 . S
C760 H734 0.950 . S
C760 C756 1.385 . S
C760 C759 1.374 . S
C761 C758 1.499 . S
C761 C762 1.373 . S
C761 C763 1.389 . S
C762 H735 0.950 . S
C762 C748 1.377 1_455 S
C762 C761 1.373 . S
C763 C747 1.377 1_455 S
C763 C761 1.389 . S
C763 C764 1.524 . S
C764 C763 1.524 . S
C764 C765 1.397 . S
C764 C769 1.363 . S
C765 H736 0.950 . S
C765 C764 1.397 . S
C765 C766 1.334 . S
C766 H737 0.950 . S
C766 C765 1.334 . S
C766 C767 1.287 . S
C767 C766 1.287 . S
C767 C768 1.524 . S
C767 H770 0.999 . S
C768 H738 0.950 . S
C768 C767 1.524 . S
C768 C769 1.415 . S
C769 H739 0.950 . S
C769 C764 1.363 . S
C769 C768 1.415 . S
H770 C767 0.999 . S
H771 C752 0.913 . S
H772 C790 0.951 . S
H773 C792 0.951 . S
H774 C794 0.950 1_455 S
H775 C795 0.950 . S
H776 C797 0.950 . S
H777 C800 0.950 . S
H778 C801 0.950 . S
H779 C803 0.950 . S
H780 C804 0.950 . S
H781 C805 0.951 . S
H782 C807 0.951 . S
H783 C809 0.950 1_655 S
H784 C810 0.950 . S
H785 C812 0.950 . S
H786 C815 0.950 . S
H787 C816 0.950 . S
H788 C818 0.950 . S
H789 C819 0.950 . S
C790 H772 0.951 . S
C790 C791 1.366 . S
C790 C792 1.388 . S
C791 C790 1.366 . S
C791 C795 1.385 . S
C792 H773 0.951 . S
C792 C790 1.388 . S
C792 C793 1.366 . S
C793 C792 1.366 . S
C793 C794 1.414 . S
C793 C796 1.499 . S
C794 H774 0.950 1_655 S
C794 C793 1.414 . S
C794 C795 1.374 . S
C795 H775 0.950 . S
C795 C791 1.385 . S
C795 C794 1.374 . S
C796 C793 1.499 . S
C796 C797 1.373 1_655 S
C796 C798 1.389 . S
C797 H776 0.950 . S
C797 C796 1.373 1_455 S
C797 C813 1.377 . S
C798 C796 1.389 . S
C798 C799 1.524 . S
C798 C812 1.377 . S
C799 C798 1.524 . S
C799 C800 1.397 . S
C799 C804 1.363 . S
C800 H777 0.950 . S
C800 C799 1.397 . S
C800 C801 1.334 . S
C801 H778 0.950 . S
C801 C800 1.334 . S
C801 C802 1.287 . S
C802 C801 1.287 . S
C802 C803 1.524 . S
C802 H821 0.913 . S
C803 H779 0.950 . S
C803 C802 1.524 . S
C803 C804 1.415 . S
C804 H780 0.950 . S
C804 C799 1.363 . S
C804 C803 1.415 . S
C805 H781 0.951 . S
C805 C806 1.366 . S
C805 C807 1.388 . S
C806 C805 1.366 . S
C806 C810 1.385 . S
C807 H782 0.951 . S
C807 C805 1.388 . S
C807 C808 1.366 . S
C808 C807 1.366 . S
C808 C809 1.414 . S
C808 C811 1.499 . S
C809 H783 0.950 1_455 S
C809 C808 1.414 . S
C809 C810 1.374 . S
C810 H784 0.950 . S
C810 C806 1.385 . S
C810 C809 1.374 . S
C811 C808 1.499 . S
C811 C812 1.373 1_455 S
C811 C813 1.389 . S
C812 H785 0.950 . S
C812 C798 1.377 . S
C812 C811 1.373 1_655 S
C813 C797 1.377 . S
C813 C811 1.389 . S
C813 C814 1.524 . S
C814 C813 1.524 . S
C814 C815 1.397 . S
C814 C819 1.363 . S
C815 H786 0.950 . S
C815 C814 1.397 . S
C815 C816 1.334 . S
C816 H787 0.950 . S
C816 C815 1.334 . S
C816 C817 1.287 . S
C817 C816 1.287 . S
C817 C818 1.524 . S
C817 H820 0.999 . S
C818 H788 0.950 . S
C818 C817 1.524 . S
C818 C819 1.415 . S
C819 H789 0.950 . S
C819 C814 1.363 . S
C819 C818 1.415 . S
H820 C817 0.999 . S
H821 C802 0.913 . S
H822 C840 0.951 . S
H823 C842 0.951 . S
H824 C844 0.950 . S
H825 C845 0.950 . S
H826 C847 0.950 . S
H827 C850 0.950 . S
H828 C851 0.950 . S
H829 C853 0.950 . S
H830 C854 0.950 . S
H831 C855 0.951 . S
H832 C857 0.951 . S
H833 C859 0.950 . S
H834 C860 0.950 . S
H835 C862 0.950 . S
H836 C865 0.950 . S
H837 C866 0.950 . S
H838 C868 0.950 . S
H839 C869 0.950 . S
C840 H822 0.951 . S
C840 C841 1.366 . S
C840 C842 1.388 . S
C841 C840 1.366 . S
C841 C845 1.385 . S
C842 H823 0.951 . S
C842 C840 1.388 . S
C842 C843 1.366 . S
C843 C842 1.366 . S
C843 C844 1.414 . S
C843 C846 1.499 . S
C844 H824 0.950 . S
C844 C843 1.414 . S
C844 C845 1.374 . S
C845 H825 0.950 . S
C845 C841 1.385 . S
C845 C844 1.374 . S
C846 C843 1.499 . S
C846 C847 1.373 1_545 S
C846 C848 1.389 . S
C847 H826 0.950 . S
C847 C846 1.373 1_565 S
C847 C863 1.377 . S
C848 C846 1.389 . S
C848 C849 1.524 . S
C848 C862 1.377 . S
C849 C848 1.524 . S
C849 C850 1.397 . S
C849 C854 1.363 . S
C850 H827 0.950 . S
C850 C849 1.397 . S
C850 C851 1.334 . S
C851 H828 0.950 . S
C851 C850 1.334 . S
C851 C852 1.287 . S
C852 C851 1.287 . S
C852 C853 1.524 . S
C852 H871 0.913 . S
C853 H829 0.950 . S
C853 C852 1.524 . S
C853 C854 1.415 . S
C854 H830 0.950 . S
C854 C849 1.363 . S
C854 C853 1.415 . S
C855 H831 0.951 . S
C855 C856 1.366 . S
C855 C857 1.388 . S
C856 C855 1.366 . S
C856 C860 1.385 . S
C857 H832 0.951 . S
C857 C855 1.388 . S
C857 C858 1.366 . S
C858 C857 1.366 . S
C858 C859 1.414 . S
C858 C861 1.499 . S
C859 H833 0.950 . S
C859 C858 1.414 . S
C859 C860 1.374 . S
C860 H834 0.950 . S
C860 C856 1.385 . S
C860 C859 1.374 . S
C861 C858 1.499 . S
C861 C862 1.373 1_565 S
C861 C863 1.389 . S
C862 H835 0.950 . S
C862 C848 1.377 . S
C862 C861 1.373 1_545 S
C863 C847 1.377 . S
C863 C861 1.389 . S
C863 C864 1.524 . S
C864 C863 1.524 . S
C864 C865 1.397 . S
C864 C869 1.363 . S
C865 H836 0.950 . S
C865 C864 1.397 . S
C865 C866 1.334 . S
C866 H837 0.950 . S
C866 C865 1.334 . S
C866 C867 1.287 . S
C867 C866 1.287 . S
C867 C868 1.524 . S
C867 H870 0.999 . S
C868 H838 0.950 . S
C868 C867 1.524 . S
C868 C869 1.415 . S
C869 H839 0.950 . S
C869 C864 1.363 . S
C869 C868 1.415 . S
H870 C867 0.999 . S
H871 C852 0.913 . S
H872 C890 0.951 . S
H873 C892 0.951 . S
H874 C894 0.950 . S
H875 C895 0.950 . S
H876 C897 0.950 . S
H877 C900 0.950 . S
H878 C901 0.950 . S
H879 C903 0.950 . S
H880 C904 0.950 . S
H881 C905 0.951 . S
H882 C907 0.951 . S
H883 C909 0.950 . S
H884 C910 0.950 . S
H885 C912 0.950 . S
H886 C915 0.950 . S
H887 C916 0.950 . S
H888 C918 0.950 . S
H889 C919 0.950 . S
C890 H872 0.951 . S
C890 C891 1.366 . S
C890 C892 1.388 . S
C891 C890 1.366 . S
C891 C895 1.385 . S
C892 H873 0.951 . S
C892 C890 1.388 . S
C892 C893 1.366 . S
C893 C892 1.366 . S
C893 C894 1.414 . S
C893 C896 1.499 . S
C894 H874 0.950 . S
C894 C893 1.414 . S
C894 C895 1.374 . S
C895 H875 0.950 . S
C895 C891 1.385 . S
C895 C894 1.374 . S
C896 C893 1.499 . S
C896 C897 1.373 . S
C896 C898 1.389 . S
C897 H876 0.950 . S
C897 C896 1.373 . S
C897 C913 1.377 . S
C898 C896 1.389 . S
C898 C899 1.524 . S
C898 C912 1.377 . S
C899 C898 1.524 . S
C899 C900 1.397 . S
C899 C904 1.363 . S
C900 H877 0.950 . S
C900 C899 1.397 . S
C900 C901 1.334 . S
C901 H878 0.950 . S
C901 C900 1.334 . S
C901 C902 1.287 . S
C902 C901 1.287 . S
C902 C903 1.524 . S
C902 H921 0.913 . S
C903 H879 0.950 . S
C903 C902 1.524 . S
C903 C904 1.415 . S
C904 H880 0.950 . S
C904 C899 1.363 . S
C904 C903 1.415 . S
C905 H881 0.951 . S
C905 C906 1.366 . S
C905 C907 1.388 . S
C906 C905 1.366 . S
C906 C910 1.385 . S
C907 H882 0.951 . S
C907 C905 1.388 . S
C907 C908 1.366 . S
C908 C907 1.366 . S
C908 C909 1.414 . S
C908 C911 1.499 . S
C909 H883 0.950 . S
C909 C908 1.414 . S
C909 C910 1.374 . S
C910 H884 0.950 . S
C910 C906 1.385 . S
C910 C909 1.374 . S
C911 C908 1.499 . S
C911 C912 1.373 . S
C911 C913 1.389 . S
C912 H885 0.950 . S
C912 C898 1.377 . S
C912 C911 1.373 . S
C913 C897 1.377 . S
C913 C911 1.389 . S
C913 C914 1.524 . S
C914 C913 1.524 . S
C914 C915 1.397 . S
C914 C919 1.363 . S
C915 H886 0.950 . S
C915 C914 1.397 . S
C915 C916 1.334 . S
C916 H887 0.950 . S
C916 C915 1.334 . S
C916 C917 1.287 . S
C917 C916 1.287 . S
C917 C918 1.524 . S
C917 H920 0.999 . S
C918 H888 0.950 . S
C918 C917 1.524 . S
C918 C919 1.415 . S
C919 H889 0.950 . S
C919 C914 1.363 . S
C919 C918 1.415 . S
H920 C917 0.999 . S
H921 C902 0.913 . S
H922 C940 0.951 . S
H923 C942 0.951 . S
H924 C944 0.950 . S
H925 C945 0.950 . S
H926 C947 0.950 . S
H927 C950 0.950 . S
H928 C951 0.950 . S
H929 C953 0.950 . S
H930 C954 0.950 . S
H931 C955 0.951 . S
H932 C957 0.951 . S
H933 C959 0.950 . S
H934 C960 0.950 . S
H935 C962 0.950 . S
H936 C965 0.950 . S
H937 C966 0.950 . S
H938 C968 0.950 . S
H939 C969 0.950 . S
C940 H922 0.951 . S
C940 C941 1.366 . S
C940 C942 1.388 . S
C941 C940 1.366 . S
C941 C945 1.385 . S
C942 H923 0.951 . S
C942 C940 1.388 . S
C942 C943 1.366 . S
C943 C942 1.366 . S
C943 C944 1.414 . S
C943 C946 1.499 . S
C944 H924 0.950 . S
C944 C943 1.414 . S
C944 C945 1.374 . S
C945 H925 0.950 . S
C945 C941 1.385 . S
C945 C944 1.374 . S
C946 C943 1.499 . S
C946 C947 1.373 . S
C946 C948 1.389 . S
C947 H926 0.950 . S
C947 C946 1.373 . S
C947 C963 1.377 . S
C948 C946 1.389 . S
C948 C949 1.524 . S
C948 C962 1.377 . S
C949 C948 1.524 . S
C949 C950 1.397 . S
C949 C954 1.363 . S
C950 H927 0.950 . S
C950 C949 1.397 . S
C950 C951 1.334 . S
C951 H928 0.950 . S
C951 C950 1.334 . S
C951 C952 1.287 . S
C952 C951 1.287 . S
C952 C953 1.524 . S
C952 H971 0.913 . S
C953 H929 0.950 . S
C953 C952 1.524 . S
C953 C954 1.415 . S
C954 H930 0.950 . S
C954 C949 1.363 . S
C954 C953 1.415 . S
C955 H931 0.951 . S
C955 C956 1.366 . S
C955 C957 1.388 . S
C956 C955 1.366 . S
C956 C960 1.385 . S
C957 H932 0.951 . S
C957 C955 1.388 . S
C957 C958 1.366 . S
C958 C957 1.366 . S
C958 C959 1.414 . S
C958 C961 1.499 . S
C959 H933 0.950 . S
C959 C958 1.414 . S
C959 C960 1.374 . S
C960 H934 0.950 . S
C960 C956 1.385 . S
C960 C959 1.374 . S
C961 C958 1.499 . S
C961 C962 1.373 . S
C961 C963 1.389 . S
C962 H935 0.950 . S
C962 C948 1.377 . S
C962 C961 1.373 . S
C963 C947 1.377 . S
C963 C961 1.389 . S
C963 C964 1.524 . S
C964 C963 1.524 . S
C964 C965 1.397 . S
C964 C969 1.363 . S
C965 H936 0.950 . S
C965 C964 1.397 . S
C965 C966 1.334 . S
C966 H937 0.950 . S
C966 C965 1.334 . S
C966 C967 1.287 . S
C967 C966 1.287 . S
C967 C968 1.524 . S
C967 H970 0.999 . S
C968 H938 0.950 . S
C968 C967 1.524 . S
C968 C969 1.415 . S
C969 H939 0.950 . S
C969 C964 1.363 . S
C969 C968 1.415 . S
H970 C967 0.999 . S
H971 C952 0.913 . S
H972 C990 0.951 . S
H973 C992 0.951 . S
H974 C994 0.950 . S
H975 C995 0.950 . S
H976 C997 0.950 . S
H977 C1000 0.950 . S
H978 C1001 0.950 . S
H979 C1003 0.950 . S
H980 C1004 0.950 . S
H981 C1005 0.951 . S
H982 C1007 0.951 . S
H983 C1009 0.950 . S
H984 C1010 0.950 . S
H985 C1012 0.950 . S
H986 C1015 0.950 . S
H987 C1016 0.950 . S
H988 C1018 0.950 . S
H989 C1019 0.950 . S
C990 H972 0.951 . S
C990 C991 1.366 . S
C990 C992 1.388 . S
C991 C990 1.366 . S
C991 C995 1.385 . S
C992 H973 0.951 . S
C992 C990 1.388 . S
C992 C993 1.366 . S
C993 C992 1.366 . S
C993 C994 1.414 . S
C993 C996 1.499 . S
C994 H974 0.950 . S
C994 C993 1.414 . S
C994 C995 1.374 . S
C995 H975 0.950 . S
C995 C991 1.385 . S
C995 C994 1.374 . S
C996 C993 1.499 . S
C996 C997 1.373 . S
C996 C998 1.389 . S
C997 H976 0.950 . S
C997 C996 1.373 . S
C997 C1013 1.377 . S
C998 C996 1.389 . S
C998 C999 1.524 . S
C998 C1012 1.377 . S
C999 C998 1.524 . S
C999 C1000 1.397 . S
C999 C1004 1.363 . S
C1000 H977 0.950 . S
C1000 C999 1.397 . S
C1000 C1001 1.334 . S
C1001 H978 0.950 . S
C1001 C1000 1.334 . S
C1001 C1002 1.287 . S
C1002 C1001 1.287 . S
C1002 C1003 1.524 . S
C1002 H1021 0.913 . S
C1003 H979 0.950 . S
C1003 C1002 1.524 . S
C1003 C1004 1.415 . S
C1004 H980 0.950 . S
C1004 C999 1.363 . S
C1004 C1003 1.415 . S
C1005 H981 0.951 . S
C1005 C1006 1.366 . S
C1005 C1007 1.388 . S
C1006 C1005 1.366 . S
C1006 C1010 1.385 . S
C1007 H982 0.951 . S
C1007 C1005 1.388 . S
C1007 C1008 1.366 . S
C1008 C1007 1.366 . S
C1008 C1009 1.414 . S
C1008 C1011 1.499 . S
C1009 H983 0.950 . S
C1009 C1008 1.414 . S
C1009 C1010 1.374 . S
C1010 H984 0.950 . S
C1010 C1006 1.385 . S
C1010 C1009 1.374 . S
C1011 C1008 1.499 . S
C1011 C1012 1.373 . S
C1011 C1013 1.389 . S
C1012 H985 0.950 . S
C1012 C998 1.377 . S
C1012 C1011 1.373 . S
C1013 C997 1.377 . S
C1013 C1011 1.389 . S
C1013 C1014 1.524 . S
C1014 C1013 1.524 . S
C1014 C1015 1.397 . S
C1014 C1019 1.363 . S
C1015 H986 0.950 . S
C1015 C1014 1.397 . S
C1015 C1016 1.334 . S
C1016 H987 0.950 . S
C1016 C1015 1.334 . S
C1016 C1017 1.287 . S
C1017 C1016 1.287 . S
C1017 C1018 1.524 . S
C1017 H1020 0.999 . S
C1018 H988 0.950 . S
C1018 C1017 1.524 . S
C1018 C1019 1.415 . S
C1019 H989 0.950 . S
C1019 C1014 1.363 . S
C1019 C1018 1.415 . S
H1020 C1017 0.999 . S
H1021 C1002 0.913 . S
H1022 C1040 0.951 . S
H1023 C1042 0.951 . S
H1024 C1044 0.950 . S
H1025 C1045 0.950 . S
H1026 C1047 0.950 . S
H1027 C1050 0.950 . S
H1028 C1051 0.950 . S
H1029 C1053 0.950 . S
H1030 C1054 0.950 . S
H1031 C1055 0.951 . S
H1032 C1057 0.951 . S
H1033 C1059 0.950 . S
H1034 C1060 0.950 . S
H1035 C1062 0.950 . S
H1036 C1065 0.950 . S
H1037 C1066 0.950 . S
H1038 C1068 0.950 . S
H1039 C1069 0.950 . S
C1040 H1022 0.951 . S
C1040 C1041 1.366 . S
C1040 C1042 1.388 . S
C1041 C1040 1.366 . S
C1041 C1045 1.385 . S
C1042 H1023 0.951 . S
C1042 C1040 1.388 . S
C1042 C1043 1.366 . S
C1043 C1042 1.366 . S
C1043 C1044 1.414 . S
C1043 C1046 1.499 . S
C1044 H1024 0.950 . S
C1044 C1043 1.414 . S
C1044 C1045 1.374 . S
C1045 H1025 0.950 . S
C1045 C1041 1.385 . S
C1045 C1044 1.374 . S
C1046 C1043 1.499 . S
C1046 C1047 1.373 . S
C1046 C1048 1.389 . S
C1047 H1026 0.950 . S
C1047 C1046 1.373 . S
C1047 C1063 1.377 . S
C1048 C1046 1.389 . S
C1048 C1049 1.524 . S
C1048 C1062 1.377 . S
C1049 C1048 1.524 . S
C1049 C1050 1.397 . S
C1049 C1054 1.363 . S
C1050 H1027 0.950 . S
C1050 C1049 1.397 . S
C1050 C1051 1.334 . S
C1051 H1028 0.950 . S
C1051 C1050 1.334 . S
C1051 C1052 1.287 . S
C1052 C1051 1.287 . S
C1052 C1053 1.524 . S
C1052 H1071 0.913 . S
C1053 H1029 0.950 . S
C1053 C1052 1.524 . S
C1053 C1054 1.415 . S
C1054 H1030 0.950 . S
C1054 C1049 1.363 . S
C1054 C1053 1.415 . S
C1055 H1031 0.951 . S
C1055 C1056 1.366 . S
C1055 C1057 1.388 . S
C1056 C1055 1.366 . S
C1056 C1060 1.385 . S
C1057 H1032 0.951 . S
C1057 C1055 1.388 . S
C1057 C1058 1.366 . S
C1058 C1057 1.366 . S
C1058 C1059 1.414 . S
C1058 C1061 1.499 . S
C1059 H1033 0.950 . S
C1059 C1058 1.414 . S
C1059 C1060 1.374 . S
C1060 H1034 0.950 . S
C1060 C1056 1.385 . S
C1060 C1059 1.374 . S
C1061 C1058 1.499 . S
C1061 C1062 1.373 . S
C1061 C1063 1.389 . S
C1062 H1035 0.950 . S
C1062 C1048 1.377 . S
C1062 C1061 1.373 . S
C1063 C1047 1.377 . S
C1063 C1061 1.389 . S
C1063 C1064 1.524 . S
C1064 C1063 1.524 . S
C1064 C1065 1.397 . S
C1064 C1069 1.363 . S
C1065 H1036 0.950 . S
C1065 C1064 1.397 . S
C1065 C1066 1.334 . S
C1066 H1037 0.950 . S
C1066 C1065 1.334 . S
C1066 C1067 1.287 . S
C1067 C1066 1.287 . S
C1067 C1068 1.524 . S
C1067 H1070 0.999 . S
C1068 H1038 0.950 . S
C1068 C1067 1.524 . S
C1068 C1069 1.415 . S
C1069 H1039 0.950 . S
C1069 C1064 1.363 . S
C1069 C1068 1.415 . S
H1070 C1067 0.999 . S
H1071 C1052 0.913 . S
H1072 C1090 0.951 1_655 S
H1073 C1092 0.951 . S
H1074 C1094 0.950 . S
H1075 C1095 0.950 . S
H1076 C1097 0.950 . S
H1077 C1100 0.950 . S
H1078 C1101 0.950 . S
H1079 C1103 0.950 . S
H1080 C1104 0.950 . S
H1081 C1105 0.951 . S
H1082 C1107 0.951 . S
H1083 C1109 0.950 . S
H1084 C1110 0.950 . S
H1085 C1112 0.950 . S
H1086 C1115 0.950 . S
H1087 C1116 0.950 . S
H1088 C1118 0.950 . S
H1089 C1119 0.950 . S
C1090 H1072 0.951 1_455 S
C1090 C1091 1.366 . S
C1090 C1092 1.388 . S
C1091 C1090 1.366 . S
C1091 C1095 1.385 . S
C1092 H1073 0.951 . S
C1092 C1090 1.388 . S
C1092 C1093 1.366 . S
C1093 C1092 1.366 . S
C1093 C1094 1.414 . S
C1093 C1096 1.499 . S
C1094 H1074 0.950 . S
C1094 C1093 1.414 . S
C1094 C1095 1.374 . S
C1095 H1075 0.950 . S
C1095 C1091 1.385 . S
C1095 C1094 1.374 . S
C1096 C1093 1.499 . S
C1096 C1097 1.373 . S
C1096 C1098 1.389 . S
C1097 H1076 0.950 . S
C1097 C1096 1.373 . S
C1097 C1113 1.377 . S
C1098 C1096 1.389 . S
C1098 C1099 1.524 . S
C1098 C1112 1.377 . S
C1099 C1098 1.524 . S
C1099 C1100 1.397 . S
C1099 C1104 1.363 . S
C1100 H1077 0.950 . S
C1100 C1099 1.397 . S
C1100 C1101 1.334 . S
C1101 H1078 0.950 . S
C1101 C1100 1.334 . S
C1101 C1102 1.287 . S
C1102 C1101 1.287 . S
C1102 C1103 1.524 . S
C1102 H1121 0.913 . S
C1103 H1079 0.950 . S
C1103 C1102 1.524 . S
C1103 C1104 1.415 . S
C1104 H1080 0.950 . S
C1104 C1099 1.363 . S
C1104 C1103 1.415 . S
C1105 H1081 0.951 . S
C1105 C1106 1.366 . S
C1105 C1107 1.388 . S
C1106 C1105 1.366 . S
C1106 C1110 1.385 . S
C1107 H1082 0.951 . S
C1107 C1105 1.388 . S
C1107 C1108 1.366 . S
C1108 C1107 1.366 . S
C1108 C1109 1.414 . S
C1108 C1111 1.499 . S
C1109 H1083 0.950 . S
C1109 C1108 1.414 . S
C1109 C1110 1.374 . S
C1110 H1084 0.950 . S
C1110 C1106 1.385 . S
C1110 C1109 1.374 . S
C1111 C1108 1.499 . S
C1111 C1112 1.373 . S
C1111 C1113 1.389 . S
C1112 H1085 0.950 . S
C1112 C1098 1.377 . S
C1112 C1111 1.373 . S
C1113 C1097 1.377 . S
C1113 C1111 1.389 . S
C1113 C1114 1.524 . S
C1114 C1113 1.524 . S
C1114 C1115 1.397 . S
C1114 C1119 1.363 . S
C1115 H1086 0.950 . S
C1115 C1114 1.397 . S
C1115 C1116 1.334 . S
C1116 H1087 0.950 . S
C1116 C1115 1.334 . S
C1116 C1117 1.287 . S
C1117 C1116 1.287 . S
C1117 C1118 1.524 . S
C1117 H1120 0.999 . S
C1118 H1088 0.950 . S
C1118 C1117 1.524 . S
C1118 C1119 1.415 . S
C1119 H1089 0.950 . S
C1119 C1114 1.363 . S
C1119 C1118 1.415 . S
H1120 C1117 0.999 . S
H1121 C1102 0.913 . S
H1122 C1140 0.951 . S
H1123 C1142 0.951 . S
H1124 C1144 0.950 . S
H1125 C1145 0.950 . S
H1126 C1147 0.950 . S
H1127 C1150 0.950 . S
H1128 C1151 0.950 . S
H1129 C1153 0.950 . S
H1130 C1154 0.950 . S
H1131 C1155 0.951 . S
H1132 C1157 0.951 . S
H1133 C1159 0.950 . S
H1134 C1160 0.950 . S
H1135 C1162 0.950 . S
H1136 C1165 0.950 . S
H1137 C1166 0.950 . S
H1138 C1168 0.950 . S
H1139 C1169 0.950 . S
C1140 H1122 0.951 . S
C1140 C1141 1.366 . S
C1140 C1142 1.388 . S
C1141 C1140 1.366 . S
C1141 C1145 1.385 . S
C1142 H1123 0.951 . S
C1142 C1140 1.388 . S
C1142 C1143 1.366 . S
C1143 C1142 1.366 . S
C1143 C1144 1.414 . S
C1143 C1146 1.499 . S
C1144 H1124 0.950 . S
C1144 C1143 1.414 . S
C1144 C1145 1.374 . S
C1145 H1125 0.950 . S
C1145 C1141 1.385 . S
C1145 C1144 1.374 . S
C1146 C1143 1.499 . S
C1146 C1147 1.373 . S
C1146 C1148 1.389 . S
C1147 H1126 0.950 . S
C1147 C1146 1.373 . S
C1147 C1163 1.377 . S
C1148 C1146 1.389 . S
C1148 C1149 1.524 . S
C1148 C1162 1.377 . S
C1149 C1148 1.524 . S
C1149 C1150 1.397 . S
C1149 C1154 1.363 . S
C1150 H1127 0.950 . S
C1150 C1149 1.397 . S
C1150 C1151 1.334 . S
C1151 H1128 0.950 . S
C1151 C1150 1.334 . S
C1151 C1152 1.287 . S
C1152 C1151 1.287 . S
C1152 C1153 1.524 . S
C1152 H1171 0.913 . S
C1153 H1129 0.950 . S
C1153 C1152 1.524 . S
C1153 C1154 1.415 . S
C1154 H1130 0.950 . S
C1154 C1149 1.363 . S
C1154 C1153 1.415 . S
C1155 H1131 0.951 . S
C1155 C1156 1.366 . S
C1155 C1157 1.388 . S
C1156 C1155 1.366 . S
C1156 C1160 1.385 . S
C1157 H1132 0.951 . S
C1157 C1155 1.388 . S
C1157 C1158 1.366 . S
C1158 C1157 1.366 . S
C1158 C1159 1.414 . S
C1158 C1161 1.499 . S
C1159 H1133 0.950 . S
C1159 C1158 1.414 . S
C1159 C1160 1.374 . S
C1160 H1134 0.950 . S
C1160 C1156 1.385 . S
C1160 C1159 1.374 . S
C1161 C1158 1.499 . S
C1161 C1162 1.373 . S
C1161 C1163 1.389 . S
C1162 H1135 0.950 . S
C1162 C1148 1.377 . S
C1162 C1161 1.373 . S
C1163 C1147 1.377 . S
C1163 C1161 1.389 . S
C1163 C1164 1.524 . S
C1164 C1163 1.524 . S
C1164 C1165 1.397 . S
C1164 C1169 1.363 . S
C1165 H1136 0.950 . S
C1165 C1164 1.397 . S
C1165 C1166 1.334 . S
C1166 H1137 0.950 . S
C1166 C1165 1.334 . S
C1166 C1167 1.287 . S
C1167 C1166 1.287 . S
C1167 C1168 1.524 . S
C1167 H1170 0.999 . S
C1168 H1138 0.950 . S
C1168 C1167 1.524 . S
C1168 C1169 1.415 . S
C1169 H1139 0.950 . S
C1169 C1164 1.363 . S
C1169 C1168 1.415 . S
H1170 C1167 0.999 . S
H1171 C1152 0.913 . S
H1172 C1190 0.951 . S
H1173 C1192 0.951 . S
H1174 C1194 0.950 . S
H1175 C1195 0.950 . S
H1176 C1197 0.950 . S
H1177 C1200 0.950 . S
H1178 C1201 0.950 . S
H1179 C1203 0.950 . S
H1180 C1204 0.950 . S
H1181 C1205 0.951 1_455 S
H1182 C1207 0.951 . S
H1183 C1209 0.950 . S
H1184 C1210 0.950 . S
H1185 C1212 0.950 . S
H1186 C1215 0.950 . S
H1187 C1216 0.950 . S
H1188 C1218 0.950 . S
H1189 C1219 0.950 . S
C1190 H1172 0.951 . S
C1190 C1191 1.366 . S
C1190 C1192 1.388 . S
C1191 C1190 1.366 . S
C1191 C1195 1.385 . S
C1192 H1173 0.951 . S
C1192 C1190 1.388 . S
C1192 C1193 1.366 . S
C1193 C1192 1.366 . S
C1193 C1194 1.414 . S
C1193 C1196 1.499 . S
C1194 H1174 0.950 . S
C1194 C1193 1.414 . S
C1194 C1195 1.374 . S
C1195 H1175 0.950 . S
C1195 C1191 1.385 . S
C1195 C1194 1.374 . S
C1196 C1193 1.499 . S
C1196 C1197 1.373 . S
C1196 C1198 1.389 . S
C1197 H1176 0.950 . S
C1197 C1196 1.373 . S
C1197 C1213 1.377 . S
C1198 C1196 1.389 . S
C1198 C1199 1.524 . S
C1198 C1212 1.377 . S
C1199 C1198 1.524 . S
C1199 C1200 1.397 . S
C1199 C1204 1.363 . S
C1200 H1177 0.950 . S
C1200 C1199 1.397 . S
C1200 C1201 1.334 . S
C1201 H1178 0.950 . S
C1201 C1200 1.334 . S
C1201 C1202 1.287 . S
C1202 C1201 1.287 . S
C1202 C1203 1.524 . S
C1202 H1221 0.913 . S
C1203 H1179 0.950 . S
C1203 C1202 1.524 . S
C1203 C1204 1.415 . S
C1204 H1180 0.950 . S
C1204 C1199 1.363 . S
C1204 C1203 1.415 . S
C1205 H1181 0.951 1_655 S
C1205 C1206 1.366 . S
C1205 C1207 1.388 . S
C1206 C1205 1.366 . S
C1206 C1210 1.385 . S
C1207 H1182 0.951 . S
C1207 C1205 1.388 . S
C1207 C1208 1.366 . S
C1208 C1207 1.366 . S
C1208 C1209 1.414 . S
C1208 C1211 1.499 . S
C1209 H1183 0.950 . S
C1209 C1208 1.414 . S
C1209 C1210 1.374 . S
C1210 H1184 0.950 . S
C1210 C1206 1.385 . S
C1210 C1209 1.374 . S
C1211 C1208 1.499 . S
C1211 C1212 1.373 . S
C1211 C1213 1.389 . S
C1212 H1185 0.950 . S
C1212 C1198 1.377 . S
C1212 C1211 1.373 . S
C1213 C1197 1.377 . S
C1213 C1211 1.389 . S
C1213 C1214 1.524 . S
C1214 C1213 1.524 . S
C1214 C1215 1.397 . S
C1214 C1219 1.363 . S
C1215 H1186 0.950 . S
C1215 C1214 1.397 . S
C1215 C1216 1.334 . S
C1216 H1187 0.950 . S
C1216 C1215 1.334 . S
C1216 C1217 1.287 . S
C1217 C1216 1.287 . S
C1217 C1218 1.524 . S
C1217 H1220 0.999 . S
C1218 H1188 0.950 . S
C1218 C1217 1.524 . S
C1218 C1219 1.415 . S
C1219 H1189 0.950 . S
C1219 C1214 1.363 . S
C1219 C1218 1.415 . S
H1220 C1217 0.999 . S
H1221 C1202 0.913 . S
H1222 C1240 0.951 . S
H1223 C1242 0.951 . S
H1224 C1244 0.950 . S
H1225 C1245 0.950 . S
H1226 C1247 0.950 . S
H1227 C1250 0.950 . S
H1228 C1251 0.950 . S
H1229 C1253 0.950 . S
H1230 C1254 0.950 . S
H1231 C1255 0.951 1_565 S
H1232 C1257 0.951 . S
H1233 C1259 0.950 . S
H1234 C1260 0.950 . S
H1235 C1262 0.950 . S
H1236 C1265 0.950 . S
H1237 C1266 0.950 . S
H1238 C1268 0.950 . S
H1239 C1269 0.950 . S
C1240 H1222 0.951 . S
C1240 C1241 1.366 . S
C1240 C1242 1.388 . S
C1241 C1240 1.366 . S
C1241 C1245 1.385 . S
C1242 H1223 0.951 . S
C1242 C1240 1.388 . S
C1242 C1243 1.366 . S
C1243 C1242 1.366 . S
C1243 C1244 1.414 . S
C1243 C1246 1.499 . S
C1244 H1224 0.950 . S
C1244 C1243 1.414 . S
C1244 C1245 1.374 . S
C1245 H1225 0.950 . S
C1245 C1241 1.385 . S
C1245 C1244 1.374 . S
C1246 C1243 1.499 . S
C1246 C1247 1.373 . S
C1246 C1248 1.389 . S
C1247 H1226 0.950 . S
C1247 C1246 1.373 . S
C1247 C1263 1.377 . S
C1248 C1246 1.389 . S
C1248 C1249 1.524 . S
C1248 C1262 1.377 . S
C1249 C1248 1.524 . S
C1249 C1250 1.397 . S
C1249 C1254 1.363 . S
C1250 H1227 0.950 . S
C1250 C1249 1.397 . S
C1250 C1251 1.334 . S
C1251 H1228 0.950 . S
C1251 C1250 1.334 . S
C1251 C1252 1.287 . S
C1252 C1251 1.287 . S
C1252 C1253 1.524 . S
C1252 H1271 0.913 . S
C1253 H1229 0.950 . S
C1253 C1252 1.524 . S
C1253 C1254 1.415 . S
C1254 H1230 0.950 . S
C1254 C1249 1.363 . S
C1254 C1253 1.415 . S
C1255 H1231 0.951 1_545 S
C1255 C1256 1.366 . S
C1255 C1257 1.388 . S
C1256 C1255 1.366 . S
C1256 C1260 1.385 . S
C1257 H1232 0.951 . S
C1257 C1255 1.388 . S
C1257 C1258 1.366 . S
C1258 C1257 1.366 . S
C1258 C1259 1.414 . S
C1258 C1261 1.499 . S
C1259 H1233 0.950 . S
C1259 C1258 1.414 . S
C1259 C1260 1.374 . S
C1260 H1234 0.950 . S
C1260 C1256 1.385 . S
C1260 C1259 1.374 . S
C1261 C1258 1.499 . S
C1261 C1262 1.373 . S
C1261 C1263 1.389 . S
C1262 H1235 0.950 . S
C1262 C1248 1.377 . S
C1262 C1261 1.373 . S
C1263 C1247 1.377 . S
C1263 C1261 1.389 . S
C1263 C1264 1.524 . S
C1264 C1263 1.524 . S
C1264 C1265 1.397 . S
C1264 C1269 1.363 . S
C1265 H1236 0.950 . S
C1265 C1264 1.397 . S
C1265 C1266 1.334 . S
C1266 H1237 0.950 . S
C1266 C1265 1.334 . S
C1266 C1267 1.287 . S
C1267 C1266 1.287 . S
C1267 C1268 1.524 . S
C1267 H1270 0.999 . S
C1268 H1238 0.950 . S
C1268 C1267 1.524 . S
C1268 C1269 1.415 . S
C1269 H1239 0.950 . S
C1269 C1264 1.363 . S
C1269 C1268 1.415 . S
H1270 C1267 0.999 . S
H1271 C1252 0.913 . S
H1272 C1290 0.951 . S
H1273 C1292 0.951 . S
H1274 C1294 0.950 . S
H1275 C1295 0.950 . S
H1276 C1297 0.950 . S
H1277 C1300 0.950 . S
H1278 C1301 0.950 . S
H1279 C1303 0.950 . S
H1280 C1304 0.950 . S
H1281 C1305 0.951 . S
H1282 C1307 0.951 . S
H1283 C1309 0.950 . S
H1284 C1310 0.950 . S
H1285 C1312 0.950 . S
H1286 C1315 0.950 . S
H1287 C1316 0.950 . S
H1288 C1318 0.950 . S
H1289 C1319 0.950 . S
C1290 H1272 0.951 . S
C1290 C1291 1.366 . S
C1290 C1292 1.388 . S
C1291 C1290 1.366 . S
C1291 C1295 1.385 . S
C1292 H1273 0.951 . S
C1292 C1290 1.388 . S
C1292 C1293 1.366 . S
C1293 C1292 1.366 . S
C1293 C1294 1.414 . S
C1293 C1296 1.499 . S
C1294 H1274 0.950 . S
C1294 C1293 1.414 . S
C1294 C1295 1.374 . S
C1295 H1275 0.950 . S
C1295 C1291 1.385 . S
C1295 C1294 1.374 . S
C1296 C1293 1.499 . S
C1296 C1297 1.373 . S
C1296 C1298 1.389 . S
C1297 H1276 0.950 . S
C1297 C1296 1.373 . S
C1297 C1313 1.377 . S
C1298 C1296 1.389 . S
C1298 C1299 1.524 . S
C1298 C1312 1.377 . S
C1299 C1298 1.524 . S
C1299 C1300 1.397 . S
C1299 C1304 1.363 . S
C1300 H1277 0.950 . S
C1300 C1299 1.397 . S
C1300 C1301 1.334 . S
C1301 H1278 0.950 . S
C1301 C1300 1.334 . S
C1301 C1302 1.287 . S
C1302 C1301 1.287 . S
C1302 C1303 1.524 . S
C1302 H1321 0.913 . S
C1303 H1279 0.950 . S
C1303 C1302 1.524 . S
C1303 C1304 1.415 . S
C1304 H1280 0.950 . S
C1304 C1299 1.363 . S
C1304 C1303 1.415 . S
C1305 H1281 0.951 . S
C1305 C1306 1.366 . S
C1305 C1307 1.388 . S
C1306 C1305 1.366 . S
C1306 C1310 1.385 . S
C1307 H1282 0.951 . S
C1307 C1305 1.388 . S
C1307 C1308 1.366 . S
C1308 C1307 1.366 . S
C1308 C1309 1.414 . S
C1308 C1311 1.499 . S
C1309 H1283 0.950 . S
C1309 C1308 1.414 . S
C1309 C1310 1.374 . S
C1310 H1284 0.950 . S
C1310 C1306 1.385 . S
C1310 C1309 1.374 . S
C1311 C1308 1.499 . S
C1311 C1312 1.373 . S
C1311 C1313 1.389 . S
C1312 H1285 0.950 . S
C1312 C1298 1.377 . S
C1312 C1311 1.373 . S
C1313 C1297 1.377 . S
C1313 C1311 1.389 . S
C1313 C1314 1.524 . S
C1314 C1313 1.524 . S
C1314 C1315 1.397 . S
C1314 C1319 1.363 . S
C1315 H1286 0.950 . S
C1315 C1314 1.397 . S
C1315 C1316 1.334 . S
C1316 H1287 0.950 . S
C1316 C1315 1.334 . S
C1316 C1317 1.287 . S
C1317 C1316 1.287 . S
C1317 C1318 1.524 . S
C1317 H1320 0.999 . S
C1318 H1288 0.950 . S
C1318 C1317 1.524 . S
C1318 C1319 1.415 . S
C1319 H1289 0.950 . S
C1319 C1314 1.363 . S
C1319 C1318 1.415 . S
H1320 C1317 0.999 . S
H1321 C1302 0.913 . S
H1322 C1340 0.951 . S
H1323 C1342 0.951 . S
H1324 C1344 0.950 . S
H1325 C1345 0.950 . S
H1326 C1347 0.950 . S
H1327 C1350 0.950 . S
H1328 C1351 0.950 . S
H1329 C1353 0.950 . S
H1330 C1354 0.950 . S
H1331 C1355 0.951 . S
H1332 C1357 0.951 . S
H1333 C1359 0.950 . S
H1334 C1360 0.950 . S
H1335 C1362 0.950 . S
H1336 C1365 0.950 . S
H1337 C1366 0.950 . S
H1338 C1368 0.950 . S
H1339 C1369 0.950 . S
C1340 H1322 0.951 . S
C1340 C1341 1.366 . S
C1340 C1342 1.388 . S
C1341 C1340 1.366 . S
C1341 C1345 1.385 . S
C1342 H1323 0.951 . S
C1342 C1340 1.388 . S
C1342 C1343 1.366 . S
C1343 C1342 1.366 . S
C1343 C1344 1.414 . S
C1343 C1346 1.499 . S
C1344 H1324 0.950 . S
C1344 C1343 1.414 . S
C1344 C1345 1.374 . S
C1345 H1325 0.950 . S
C1345 C1341 1.385 . S
C1345 C1344 1.374 . S
C1346 C1343 1.499 . S
C1346 C1347 1.373 . S
C1346 C1348 1.389 . S
C1347 H1326 0.950 . S
C1347 C1346 1.373 . S
C1347 C1363 1.377 . S
C1348 C1346 1.389 . S
C1348 C1349 1.524 . S
C1348 C1362 1.377 . S
C1349 C1348 1.524 . S
C1349 C1350 1.397 . S
C1349 C1354 1.363 . S
C1350 H1327 0.950 . S
C1350 C1349 1.397 . S
C1350 C1351 1.334 . S
C1351 H1328 0.950 . S
C1351 C1350 1.334 . S
C1351 C1352 1.287 . S
C1352 C1351 1.287 . S
C1352 C1353 1.524 . S
C1352 H1371 0.913 . S
C1353 H1329 0.950 . S
C1353 C1352 1.524 . S
C1353 C1354 1.415 . S
C1354 H1330 0.950 . S
C1354 C1349 1.363 . S
C1354 C1353 1.415 . S
C1355 H1331 0.951 . S
C1355 C1356 1.366 . S
C1355 C1357 1.388 . S
C1356 C1355 1.366 . S
C1356 C1360 1.385 . S
C1357 H1332 0.951 . S
C1357 C1355 1.388 . S
C1357 C1358 1.366 . S
C1358 C1357 1.366 . S
C1358 C1359 1.414 . S
C1358 C1361 1.499 . S
C1359 H1333 0.950 . S
C1359 C1358 1.414 . S
C1359 C1360 1.374 . S
C1360 H1334 0.950 . S
C1360 C1356 1.385 . S
C1360 C1359 1.374 . S
C1361 C1358 1.499 . S
C1361 C1362 1.373 . S
C1361 C1363 1.389 . S
C1362 H1335 0.950 . S
C1362 C1348 1.377 . S
C1362 C1361 1.373 . S
C1363 C1347 1.377 . S
C1363 C1361 1.389 . S
C1363 C1364 1.524 . S
C1364 C1363 1.524 . S
C1364 C1365 1.397 . S
C1364 C1369 1.363 . S
C1365 H1336 0.950 . S
C1365 C1364 1.397 . S
C1365 C1366 1.334 . S
C1366 H1337 0.950 . S
C1366 C1365 1.334 . S
C1366 C1367 1.287 . S
C1367 C1366 1.287 . S
C1367 C1368 1.524 . S
C1367 H1370 0.999 . S
C1368 H1338 0.950 . S
C1368 C1367 1.524 . S
C1368 C1369 1.415 . S
C1369 H1339 0.950 . S
C1369 C1364 1.363 . S
C1369 C1368 1.415 . S
H1370 C1367 0.999 . S
H1371 C1352 0.913 . S
H1372 C1390 0.951 . S
H1373 C1392 0.951 . S
H1374 C1394 0.950 . S
H1375 C1395 0.950 . S
H1376 C1397 0.950 . S
H1377 C1400 0.950 . S
H1378 C1401 0.950 . S
H1379 C1403 0.950 . S
H1380 C1404 0.950 . S
H1381 C1405 0.951 . S
H1382 C1407 0.951 . S
H1383 C1409 0.950 . S
H1384 C1410 0.950 . S
H1385 C1412 0.950 . S
H1386 C1415 0.950 . S
H1387 C1416 0.950 . S
H1388 C1418 0.950 . S
H1389 C1419 0.950 . S
C1390 H1372 0.951 . S
C1390 C1391 1.366 . S
C1390 C1392 1.388 . S
C1391 C1390 1.366 . S
C1391 C1395 1.385 . S
C1392 H1373 0.951 . S
C1392 C1390 1.388 . S
C1392 C1393 1.366 . S
C1393 C1392 1.366 . S
C1393 C1394 1.414 . S
C1393 C1396 1.499 . S
C1394 H1374 0.950 . S
C1394 C1393 1.414 . S
C1394 C1395 1.374 . S
C1395 H1375 0.950 . S
C1395 C1391 1.385 . S
C1395 C1394 1.374 . S
C1396 C1393 1.499 . S
C1396 C1397 1.373 . S
C1396 C1398 1.389 . S
C1397 H1376 0.950 . S
C1397 C1396 1.373 . S
C1397 C1413 1.377 . S
C1398 C1396 1.389 . S
C1398 C1399 1.524 . S
C1398 C1412 1.377 . S
C1399 C1398 1.524 . S
C1399 C1400 1.397 . S
C1399 C1404 1.363 . S
C1400 H1377 0.950 . S
C1400 C1399 1.397 . S
C1400 C1401 1.334 . S
C1401 H1378 0.950 . S
C1401 C1400 1.334 . S
C1401 C1402 1.287 . S
C1402 C1401 1.287 . S
C1402 C1403 1.524 . S
C1402 H1421 0.913 . S
C1403 H1379 0.950 . S
C1403 C1402 1.524 . S
C1403 C1404 1.415 . S
C1404 H1380 0.950 . S
C1404 C1399 1.363 . S
C1404 C1403 1.415 . S
C1405 H1381 0.951 . S
C1405 C1406 1.366 . S
C1405 C1407 1.388 . S
C1406 C1405 1.366 . S
C1406 C1410 1.385 . S
C1407 H1382 0.951 . S
C1407 C1405 1.388 . S
C1407 C1408 1.366 . S
C1408 C1407 1.366 . S
C1408 C1409 1.414 . S
C1408 C1411 1.499 . S
C1409 H1383 0.950 . S
C1409 C1408 1.414 . S
C1409 C1410 1.374 . S
C1410 H1384 0.950 . S
C1410 C1406 1.385 . S
C1410 C1409 1.374 . S
C1411 C1408 1.499 . S
C1411 C1412 1.373 . S
C1411 C1413 1.389 . S
C1412 H1385 0.950 . S
C1412 C1398 1.377 . S
C1412 C1411 1.373 . S
C1413 C1397 1.377 . S
C1413 C1411 1.389 . S
C1413 C1414 1.524 . S
C1414 C1413 1.524 . S
C1414 C1415 1.397 . S
C1414 C1419 1.363 . S
C1415 H1386 0.950 . S
C1415 C1414 1.397 . S
C1415 C1416 1.334 . S
C1416 H1387 0.950 . S
C1416 C1415 1.334 . S
C1416 C1417 1.287 . S
C1417 C1416 1.287 . S
C1417 C1418 1.524 . S
C1417 H1420 0.999 . S
C1418 H1388 0.950 . S
C1418 C1417 1.524 . S
C1418 C1419 1.415 . S
C1419 H1389 0.950 . S
C1419 C1414 1.363 . S
C1419 C1418 1.415 . S
H1420 C1417 0.999 . S
H1421 C1402 0.913 . S
H1422 C1440 0.951 . S
H1423 C1442 0.951 . S
H1424 C1444 0.950 . S
H1425 C1445 0.950 . S
H1426 C1447 0.950 . S
H1427 C1450 0.950 . S
H1428 C1451 0.950 . S
H1429 C1453 0.950 . S
H1430 C1454 0.950 . S
H1431 C1455 0.951 . S
H1432 C1457 0.951 . S
H1433 C1459 0.950 . S
H1434 C1460 0.950 . S
H1435 C1462 0.950 . S
H1436 C1465 0.950 . S
H1437 C1466 0.950 . S
H1438 C1468 0.950 . S
H1439 C1469 0.950 . S
C1440 H1422 0.951 . S
C1440 C1441 1.366 . S
C1440 C1442 1.388 . S
C1441 C1440 1.366 . S
C1441 C1445 1.385 . S
C1442 H1423 0.951 . S
C1442 C1440 1.388 . S
C1442 C1443 1.366 . S
C1443 C1442 1.366 . S
C1443 C1444 1.414 . S
C1443 C1446 1.499 . S
C1444 H1424 0.950 . S
C1444 C1443 1.414 . S
C1444 C1445 1.374 . S
C1445 H1425 0.950 . S
C1445 C1441 1.385 . S
C1445 C1444 1.374 . S
C1446 C1443 1.499 . S
C1446 C1447 1.373 . S
C1446 C1448 1.389 . S
C1447 H1426 0.950 . S
C1447 C1446 1.373 . S
C1447 C1463 1.377 . S
C1448 C1446 1.389 . S
C1448 C1449 1.524 . S
C1448 C1462 1.377 . S
C1449 C1448 1.524 . S
C1449 C1450 1.397 . S
C1449 C1454 1.363 . S
C1450 H1427 0.950 . S
C1450 C1449 1.397 . S
C1450 C1451 1.334 . S
C1451 H1428 0.950 . S
C1451 C1450 1.334 . S
C1451 C1452 1.287 . S
C1452 C1451 1.287 . S
C1452 C1453 1.524 . S
C1452 H1471 0.913 . S
C1453 H1429 0.950 . S
C1453 C1452 1.524 . S
C1453 C1454 1.415 . S
C1454 H1430 0.950 . S
C1454 C1449 1.363 . S
C1454 C1453 1.415 . S
C1455 H1431 0.951 . S
C1455 C1456 1.366 . S
C1455 C1457 1.388 . S
C1456 C1455 1.366 . S
C1456 C1460 1.385 . S
C1457 H1432 0.951 . S
C1457 C1455 1.388 . S
C1457 C1458 1.366 . S
C1458 C1457 1.366 . S
C1458 C1459 1.414 . S
C1458 C1461 1.499 . S
C1459 H1433 0.950 . S
C1459 C1458 1.414 . S
C1459 C1460 1.374 . S
C1460 H1434 0.950 . S
C1460 C1456 1.385 . S
C1460 C1459 1.374 . S
C1461 C1458 1.499 . S
C1461 C1462 1.373 . S
C1461 C1463 1.389 . S
C1462 H1435 0.950 . S
C1462 C1448 1.377 . S
C1462 C1461 1.373 . S
C1463 C1447 1.377 . S
C1463 C1461 1.389 . S
C1463 C1464 1.524 . S
C1464 C1463 1.524 . S
C1464 C1465 1.397 . S
C1464 C1469 1.363 . S
C1465 H1436 0.950 . S
C1465 C1464 1.397 . S
C1465 C1466 1.334 . S
C1466 H1437 0.950 . S
C1466 C1465 1.334 . S
C1466 C1467 1.287 . S
C1467 C1466 1.287 . S
C1467 C1468 1.524 . S
C1467 H1470 0.999 . S
C1468 H1438 0.950 . S
C1468 C1467 1.524 . S
C1468 C1469 1.415 . S
C1469 H1439 0.950 . S
C1469 C1464 1.363 . S
C1469 C1468 1.415 . S
H1470 C1467 0.999 . S
H1471 C1452 0.913 . S
H1472 C1490 0.951 . S
H1473 C1492 0.951 . S
H1474 C1494 0.950 1_545 S
H1475 C1495 0.950 . S
H1476 C1497 0.950 . S
H1477 C1500 0.950 . S
H1478 C1501 0.950 1_556 S
H1479 C1503 0.950 . S
H1480 C1504 0.950 . S
H1481 C1505 0.951 . S
H1482 C1507 0.951 . S
H1483 C1509 0.950 . S
H1484 C1510 0.950 . S
H1485 C1512 0.950 . S
H1486 C1515 0.953 1_554 S
H1487 C1516 0.950 1_554 S
H1488 C1518 0.950 . S
H1489 C1519 0.950 . S
C1490 H1472 0.951 . S
C1490 C1491 1.366 . S
C1490 C1492 1.388 . S
C1491 C1490 1.366 . S
C1491 C1495 1.385 . S
C1492 H1473 0.951 . S
C1492 C1490 1.388 . S
C1492 C1493 1.366 . S
C1493 C1492 1.366 . S
C1493 C1494 1.414 . S
C1493 C1496 1.499 1_565 S
C1494 H1474 0.950 1_565 S
C1494 C1493 1.414 . S
C1494 C1495 1.374 . S
C1495 H1475 0.950 . S
C1495 C1491 1.385 . S
C1495 C1494 1.374 . S
C1496 C1493 1.499 1_545 S
C1496 C1497 1.373 . S
C1496 C1498 1.389 1_556 S
C1497 H1476 0.950 . S
C1497 C1496 1.373 . S
C1497 C1513 1.377 . S
C1498 C1496 1.389 1_554 S
C1498 C1499 1.524 1_545 S
C1498 C1512 1.377 . S
C1499 C1498 1.524 1_565 S
C1499 C1500 1.397 1_554 S
C1499 C1504 1.363 . S
C1500 H1477 0.950 . S
C1500 C1499 1.397 1_556 S
C1500 C1501 1.334 1_556 S
C1501 H1478 0.950 1_554 S
C1501 C1500 1.334 1_554 S
C1501 C1502 1.287 . S
C1502 C1501 1.287 . S
C1502 C1503 1.524 . S
C1502 H1521 0.913 . S
C1503 H1479 0.950 . S
C1503 C1502 1.524 . S
C1503 C1504 1.415 . S
C1504 H1480 0.950 . S
C1504 C1499 1.363 . S
C1504 C1503 1.415 . S
C1505 H1481 0.951 . S
C1505 C1506 1.366 . S
C1505 C1507 1.388 . S
C1506 C1505 1.366 . S
C1506 C1510 1.385 . S
C1507 H1482 0.951 . S
C1507 C1505 1.388 . S
C1507 C1508 1.366 . S
C1508 C1507 1.366 . S
C1508 C1509 1.414 . S
C1508 C1511 1.499 . S
C1509 H1483 0.950 . S
C1509 C1508 1.414 . S
C1509 C1510 1.374 . S
C1510 H1484 0.950 . S
C1510 C1506 1.385 . S
C1510 C1509 1.374 . S
C1511 C1508 1.499 . S
C1511 C1512 1.373 . S
C1511 C1513 1.389 1_554 S
C1512 H1485 0.950 . S
C1512 C1498 1.377 . S
C1512 C1511 1.373 . S
C1513 C1497 1.377 . S
C1513 C1511 1.389 1_556 S
C1513 C1514 1.524 . S
C1514 C1513 1.524 . S
C1514 C1515 1.395 . S
C1514 C1519 1.363 . S
C1515 H1486 0.953 1_556 S
C1515 C1514 1.395 . S
C1515 C1516 1.333 . S
C1516 H1487 0.950 1_556 S
C1516 C1515 1.333 . S
C1516 C1517 1.287 . S
C1517 C1516 1.287 . S
C1517 C1518 1.524 . S
C1517 H1520 0.999 . S
C1518 H1488 0.950 . S
C1518 C1517 1.524 . S
C1518 C1519 1.415 . S
C1519 H1489 0.950 . S
C1519 C1514 1.363 . S
C1519 C1518 1.415 . S
H1520 C1517 0.999 . S
H1521 C1502 0.913 . S
H1522 C1540 0.951 . S
H1523 C1542 0.951 1_455 S
H1524 C1544 0.950 . S
H1525 C1545 0.950 . S
H1526 C1547 0.973 . S
H1527 C1550 0.948 1_655 S
H1528 C1551 0.960 . S
H1529 C1553 0.950 . S
H1530 C1554 0.950 . S
H1531 C1555 0.951 . S
H1532 C1557 0.951 . S
H1533 C1559 0.950 . S
H1534 C1560 0.950 . S
H1535 C1562 0.950 . S
H1536 C1565 0.950 . S
H1537 C1566 0.950 . S
H1538 C1568 0.950 . S
H1539 C1569 0.950 . S
C1540 H1522 0.951 . S
C1540 C1541 1.366 . S
C1540 C1542 1.388 . S
C1541 C1540 1.366 . S
C1541 C1545 1.385 . S
C1542 H1523 0.951 1_655 S
C1542 C1540 1.388 . S
C1542 C1543 1.366 . S
C1543 C1542 1.366 . S
C1543 C1544 1.414 . S
C1543 C1546 1.508 . S
C1544 H1524 0.950 . S
C1544 C1543 1.414 . S
C1544 C1545 1.374 . S
C1545 H1525 0.950 . S
C1545 C1541 1.385 . S
C1545 C1544 1.374 . S
C1546 C1543 1.508 . S
C1546 C1547 1.373 . S
C1546 C1548 1.380 1_655 S
C1547 H1526 0.973 . S
C1547 C1546 1.373 . S
C1547 C1563 1.355 1_654 S
C1548 C1546 1.380 1_455 S
C1548 C1549 1.524 . S
C1548 C1562 1.377 1_554 S
C1549 C1548 1.524 . S
C1549 C1550 1.398 . S
C1549 C1554 1.363 . S
C1550 H1527 0.948 1_455 S
C1550 C1549 1.398 . S
C1550 C1551 1.334 1_455 S
C1551 H1528 0.960 . S
C1551 C1550 1.334 1_655 S
C1551 C1552 1.277 1_655 S
C1552 C1551 1.277 1_455 S
C1552 C1553 1.524 . S
C1552 H1571 0.913 . S
C1553 H1529 0.950 . S
C1553 C1552 1.524 . S
C1553 C1554 1.415 . S
C1554 H1530 0.950 . S
C1554 C1549 1.363 . S
C1554 C1553 1.415 . S
C1555 H1531 0.951 . S
C1555 C1556 1.366 . S
C1555 C1557 1.388 . S
C1556 C1555 1.366 . S
C1556 C1560 1.385 . S
C1557 H1532 0.951 . S
C1557 C1555 1.388 . S
C1557 C1558 1.366 . S
C1558 C1557 1.366 . S
C1558 C1559 1.414 . S
C1558 C1561 1.499 . S
C1559 H1533 0.950 . S
C1559 C1558 1.414 . S
C1559 C1560 1.374 . S
C1560 H1534 0.950 . S
C1560 C1556 1.385 . S
C1560 C1559 1.374 . S
C1561 C1558 1.499 . S
C1561 C1562 1.373 . S
C1561 C1563 1.389 . S
C1562 H1535 0.950 . S
C1562 C1548 1.377 1_556 S
C1562 C1561 1.373 . S
C1563 C1547 1.355 1_456 S
C1563 C1561 1.389 . S
C1563 C1564 1.524 . S
C1564 C1563 1.524 . S
C1564 C1565 1.397 . S
C1564 C1569 1.363 1_455 S
C1565 H1536 0.950 . S
C1565 C1564 1.397 . S
C1565 C1566 1.334 . S
C1566 H1537 0.950 . S
C1566 C1565 1.334 . S
C1566 C1567 1.287 . S
C1567 C1566 1.287 . S
C1567 C1568 1.524 1_455 S
C1567 H1570 0.999 . S
C1568 H1538 0.950 . S
C1568 C1567 1.524 1_655 S
C1568 C1569 1.415 . S
C1569 H1539 0.950 . S
C1569 C1564 1.363 1_655 S
C1569 C1568 1.415 . S
H1570 C1567 0.999 . S
H1571 C1552 0.913 . S
H1572 C1590 0.951 . S
H1573 C1592 0.951 . S
H1574 C1594 0.950 . S
H1575 C1595 0.950 . S
H1576 C1597 0.950 1_554 S
H1577 C1600 0.950 . S
H1578 C1601 0.950 . S
H1579 C1603 0.950 . S
H1580 C1604 0.950 . S
H1581 C1605 0.951 . S
H1582 C1607 0.951 . S
H1583 C1609 0.950 . S
H1584 C1610 0.950 . S
H1585 C1612 0.950 . S
H1586 C1615 0.950 . S
H1587 C1616 0.950 . S
H1588 C1618 0.950 . S
H1589 C1619 0.950 . S
C1590 H1572 0.951 . S
C1590 C1591 1.366 . S
C1590 C1592 1.388 . S
C1591 C1590 1.366 . S
C1591 C1595 1.385 . S
C1592 H1573 0.951 . S
C1592 C1590 1.388 . S
C1592 C1593 1.366 . S
C1593 C1592 1.366 . S
C1593 C1594 1.414 . S
C1593 C1596 1.499 . S
C1594 H1574 0.950 . S
C1594 C1593 1.414 . S
C1594 C1595 1.374 . S
C1595 H1575 0.950 . S
C1595 C1591 1.385 . S
C1595 C1594 1.374 . S
C1596 C1593 1.499 . S
C1596 C1597 1.374 1_554 S
C1596 C1598 1.389 . S
C1597 H1576 0.950 1_556 S
C1597 C1596 1.374 1_556 S
C1597 C1613 1.376 . S
C1598 C1596 1.389 . S
C1598 C1599 1.524 . S
C1598 C1612 1.377 1_554 S
C1599 C1598 1.524 . S
C1599 C1600 1.397 . S
C1599 C1604 1.363 . S
C1600 H1577 0.950 . S
C1600 C1599 1.397 . S
C1600 C1601 1.334 . S
C1601 H1578 0.950 . S
C1601 C1600 1.334 . S
C1601 C1602 1.287 . S
C1602 C1601 1.287 . S
C1602 C1603 1.524 . S
C1602 H1621 0.913 . S
C1603 H1579 0.950 . S
C1603 C1602 1.524 . S
C1603 C1604 1.415 . S
C1604 H1580 0.950 . S
C1604 C1599 1.363 . S
C1604 C1603 1.415 . S
C1605 H1581 0.951 . S
C1605 C1606 1.366 . S
C1605 C1607 1.388 . S
C1606 C1605 1.366 . S
C1606 C1610 1.385 . S
C1607 H1582 0.951 . S
C1607 C1605 1.388 . S
C1607 C1608 1.366 . S
C1608 C1607 1.366 . S
C1608 C1609 1.414 . S
C1608 C1611 1.499 1_545 S
C1609 H1583 0.950 . S
C1609 C1608 1.414 . S
C1609 C1610 1.374 . S
C1610 H1584 0.950 . S
C1610 C1606 1.385 . S
C1610 C1609 1.374 . S
C1611 C1608 1.499 1_565 S
C1611 C1612 1.373 . S
C1611 C1613 1.389 . S
C1612 H1585 0.950 . S
C1612 C1598 1.377 1_556 S
C1612 C1611 1.373 . S
C1613 C1597 1.376 . S
C1613 C1611 1.389 . S
C1613 C1614 1.524 . S
C1614 C1613 1.524 . S
C1614 C1615 1.397 . S
C1614 C1619 1.363 . S
C1615 H1586 0.950 . S
C1615 C1614 1.397 . S
C1615 C1616 1.334 . S
C1616 H1587 0.950 . S
C1616 C1615 1.334 . S
C1616 C1617 1.287 . S
C1617 C1616 1.287 . S
C1617 C1618 1.524 1_565 S
C1617 H1620 0.999 . S
C1618 H1588 0.950 . S
C1618 C1617 1.524 1_545 S
C1618 C1619 1.415 1_545 S
C1619 H1589 0.950 . S
C1619 C1614 1.363 . S
C1619 C1618 1.415 1_565 S
H1620 C1617 0.999 . S
H1621 C1602 0.913 . S
H1622 C1640 0.951 . S
H1623 C1642 0.951 . S
H1624 C1644 0.950 . S
H1625 C1645 0.950 . S
H1626 C1647 0.950 . S
H1627 C1650 0.950 . S
H1628 C1651 0.950 . S
H1629 C1653 0.950 . S
H1630 C1654 0.950 . S
H1631 C1655 0.951 . S
H1632 C1657 0.951 . S
H1633 C1659 0.950 1_655 S
H1634 C1660 0.950 . S
H1635 C1662 0.950 . S
H1636 C1665 0.945 1_554 S
H1637 C1666 0.950 . S
H1638 C1668 0.950 . S
H1639 C1669 0.950 . S
C1640 H1622 0.951 . S
C1640 C1641 1.366 . S
C1640 C1642 1.388 . S
C1641 C1640 1.366 . S
C1641 C1645 1.385 . S
C1642 H1623 0.951 . S
C1642 C1640 1.388 . S
C1642 C1643 1.366 . S
C1643 C1642 1.366 . S
C1643 C1644 1.414 . S
C1643 C1646 1.499 . S
C1644 H1624 0.950 . S
C1644 C1643 1.414 . S
C1644 C1645 1.374 . S
C1645 H1625 0.950 . S
C1645 C1641 1.385 . S
C1645 C1644 1.374 . S
C1646 C1643 1.499 . S
C1646 C1647 1.373 . S
C1646 C1648 1.389 1_556 S
C1647 H1626 0.950 . S
C1647 C1646 1.373 . S
C1647 C1663 1.377 1_655 S
C1648 C1646 1.389 1_554 S
C1648 C1649 1.524 . S
C1648 C1662 1.377 . S
C1649 C1648 1.524 . S
C1649 C1650 1.397 . S
C1649 C1654 1.363 . S
C1650 H1627 0.950 . S
C1650 C1649 1.397 . S
C1650 C1651 1.334 . S
C1651 H1628 0.950 . S
C1651 C1650 1.334 . S
C1651 C1652 1.287 . S
C1652 C1651 1.287 . S
C1652 C1653 1.524 . S
C1652 H1671 0.913 . S
C1653 H1629 0.950 . S
C1653 C1652 1.524 . S
C1653 C1654 1.415 . S
C1654 H1630 0.950 . S
C1654 C1649 1.363 . S
C1654 C1653 1.415 . S
C1655 H1631 0.951 . S
C1655 C1656 1.366 . S
C1655 C1657 1.388 . S
C1656 C1655 1.366 . S
C1656 C1660 1.385 . S
C1657 H1632 0.951 . S
C1657 C1655 1.388 . S
C1657 C1658 1.366 . S
C1658 C1657 1.366 . S
C1658 C1659 1.414 . S
C1658 C1661 1.482 1_455 S
C1659 H1633 0.950 1_455 S
C1659 C1658 1.414 . S
C1659 C1660 1.374 . S
C1660 H1634 0.950 . S
C1660 C1656 1.385 . S
C1660 C1659 1.374 . S
C1661 C1658 1.482 1_655 S
C1661 C1662 1.392 . S
C1661 C1663 1.387 1_654 S
C1662 H1635 0.950 . S
C1662 C1648 1.377 . S
C1662 C1661 1.392 . S
C1663 C1647 1.377 1_455 S
C1663 C1661 1.387 1_456 S
C1663 C1664 1.524 . S
C1664 C1663 1.524 . S
C1664 C1665 1.397 . S
C1664 C1669 1.363 . S
C1665 H1636 0.945 1_556 S
C1665 C1664 1.397 . S
C1665 C1666 1.334 . S
C1666 H1637 0.950 . S
C1666 C1665 1.334 . S
C1666 C1667 1.287 . S
C1667 C1666 1.287 . S
C1667 C1668 1.524 . S
C1667 H1670 0.999 . S
C1668 H1638 0.950 . S
C1668 C1667 1.524 . S
C1668 C1669 1.415 . S
C1669 H1639 0.950 . S
C1669 C1664 1.363 . S
C1669 C1668 1.415 . S
H1670 C1667 0.999 . S
H1671 C1652 0.913 . S
C291 C1 1.477 . S
C306 C176 1.561 . S
C341 C232 1.562 . S
C356 C37 1.477 . S
C391 C244 1.561 . S
C406 C71 1.477 . S
C441 C105 1.478 . S
C456 C142 1.562 . S
C491 C139 1.478 . S
C506 C108 1.562 . S
C541 C173 1.477 . S
C556 C28 1.561 . S
C591 C205 1.477 . S
C606 C40 1.561 . S
C641 C241 1.478 . S
C656 C74 1.561 . S
C691 C22 0.984 . S
C706 C83 0.985 . S
C741 C117 0.985 . S
C756 C49 0.983 . S
C791 C151 0.985 . S
C806 C226 0.984 . S
C841 C185 0.985 . S
C856 C253 0.984 . S
C891 C6 2.323 . S
C906 C137 2.244 . S
C941 C171 2.243 . S
C956 C62 2.324 . S
C991 C96 2.324 . S
C1006 C207 2.243 . S
C1041 C239 2.244 . S
C1056 C130 2.323 . S
C1091 C164 2.323 1_455 S
C1106 C3 2.244 . S
C1141 C198 2.323 1_565 S
C1156 C35 2.244 . S
C1191 C69 2.244 . S
C1206 C210 2.323 1_655 S
C1241 C103 2.244 . S
C1256 C266 2.323 1_545 S
C1291 C15 0.716 . S
C1306 C51 0.712 . S
C1341 C85 0.712 . S
C1356 C56 0.716 . S
C1391 C119 0.713 . S
C1406 C90 0.715 . S
C1441 C17 0.712 . S
C1456 C124 0.716 . S
C1491 C255 0.712 . S
C1506 C158 0.716 . S
C1541 C153 0.712 . S
C1556 C192 0.716 . S
C1591 C219 0.715 . S
C1606 C187 0.713 . S
C1641 C260 0.716 . S
C1656 C221 0.712 . S
