# Generated by pormake.
# Topology smw, (6)-cn, num edge types: 1
# Building blocks:
#     Node 0, Type 0, BuildingBlock: OJICUG_clean_sbu_0, # of connection points: 6
#     Node 1, Type 0, BuildingBlock: OJICUG_clean_sbu_0, # of connection points: 6
#     Node 2, Type 0, BuildingBlock: OJICUG_clean_sbu_0, # of connection points: 6
#     Node 3, Type 0, BuildingBlock: OJICUG_clean_sbu_0, # of connection points: 6
#     Node 4, Type 0, BuildingBlock: OJICUG_clean_sbu_0, # of connection points: 6
#     Node 5, Type 0, BuildingBlock: OJICUG_clean_sbu_0, # of connection points: 6
#     Node 6, Type 0, BuildingBlock: OJICUG_clean_sbu_0, # of connection points: 6
#     Node 7, Type 0, BuildingBlock: OJICUG_clean_sbu_0, # of connection points: 6
#     Node 8, Type 0, BuildingBlock: OJICUG_clean_sbu_0, # of connection points: 6
#     Node 9, Type 0, BuildingBlock: OJICUG_clean_sbu_0, # of connection points: 6
#     Node 10, Type 0, BuildingBlock: OJICUG_clean_sbu_0, # of connection points: 6
#     Node 11, Type 0, BuildingBlock: OJICUG_clean_sbu_0, # of connection points: 6
#     Edge 12, Type (0, 0), BuildingBlock: UVAHIK_clean_linker_0, # of connection points: 2
#     Edge 13, Type (0, 0), BuildingBlock: UVAHIK_clean_linker_0, # of connection points: 2
#     Edge 14, Type (0, 0), BuildingBlock: UVAHIK_clean_linker_0, # of connection points: 2
#     Edge 15, Type (0, 0), BuildingBlock: UVAHIK_clean_linker_0, # of connection points: 2
#     Edge 16, Type (0, 0), BuildingBlock: UVAHIK_clean_linker_0, # of connection points: 2
#     Edge 17, Type (0, 0), BuildingBlock: UVAHIK_clean_linker_0, # of connection points: 2
#     Edge 18, Type (0, 0), BuildingBlock: UVAHIK_clean_linker_0, # of connection points: 2
#     Edge 19, Type (0, 0), BuildingBlock: UVAHIK_clean_linker_0, # of connection points: 2
#     Edge 20, Type (0, 0), BuildingBlock: UVAHIK_clean_linker_0, # of connection points: 2
#     Edge 21, Type (0, 0), BuildingBlock: UVAHIK_clean_linker_0, # of connection points: 2
#     Edge 22, Type (0, 0), BuildingBlock: UVAHIK_clean_linker_0, # of connection points: 2
#     Edge 23, Type (0, 0), BuildingBlock: UVAHIK_clean_linker_0, # of connection points: 2
#     Edge 24, Type (0, 0), BuildingBlock: UVAHIK_clean_linker_0, # of connection points: 2
#     Edge 25, Type (0, 0), BuildingBlock: UVAHIK_clean_linker_0, # of connection points: 2
#     Edge 26, Type (0, 0), BuildingBlock: UVAHIK_clean_linker_0, # of connection points: 2
#     Edge 27, Type (0, 0), BuildingBlock: UVAHIK_clean_linker_0, # of connection points: 2
#     Edge 28, Type (0, 0), BuildingBlock: UVAHIK_clean_linker_0, # of connection points: 2
#     Edge 29, Type (0, 0), BuildingBlock: UVAHIK_clean_linker_0, # of connection points: 2
#     Edge 30, Type (0, 0), BuildingBlock: UVAHIK_clean_linker_0, # of connection points: 2
#     Edge 31, Type (0, 0), BuildingBlock: UVAHIK_clean_linker_0, # of connection points: 2
#     Edge 32, Type (0, 0), BuildingBlock: UVAHIK_clean_linker_0, # of connection points: 2
#     Edge 33, Type (0, 0), BuildingBlock: UVAHIK_clean_linker_0, # of connection points: 2
#     Edge 34, Type (0, 0), BuildingBlock: UVAHIK_clean_linker_0, # of connection points: 2
#     Edge 35, Type (0, 0), BuildingBlock: UVAHIK_clean_linker_0, # of connection points: 2
#     Edge 36, Type (0, 0), BuildingBlock: UVAHIK_clean_linker_0, # of connection points: 2
#     Edge 37, Type (0, 0), BuildingBlock: UVAHIK_clean_linker_0, # of connection points: 2
#     Edge 38, Type (0, 0), BuildingBlock: UVAHIK_clean_linker_0, # of connection points: 2
#     Edge 39, Type (0, 0), BuildingBlock: UVAHIK_clean_linker_0, # of connection points: 2
#     Edge 40, Type (0, 0), BuildingBlock: UVAHIK_clean_linker_0, # of connection points: 2
#     Edge 41, Type (0, 0), BuildingBlock: UVAHIK_clean_linker_0, # of connection points: 2
#     Edge 42, Type (0, 0), BuildingBlock: UVAHIK_clean_linker_0, # of connection points: 2
#     Edge 43, Type (0, 0), BuildingBlock: UVAHIK_clean_linker_0, # of connection points: 2
#     Edge 44, Type (0, 0), BuildingBlock: UVAHIK_clean_linker_0, # of connection points: 2
#     Edge 45, Type (0, 0), BuildingBlock: UVAHIK_clean_linker_0, # of connection points: 2
#     Edge 46, Type (0, 0), BuildingBlock: UVAHIK_clean_linker_0, # of connection points: 2
#     Edge 47, Type (0, 0), BuildingBlock: UVAHIK_clean_linker_0, # of connection points: 2
# Relax obj value: 0.103
# Max RMSD: 0.108
# Mean RMSD: 0.108
data_MOF--net-smw--node1-OJICUG_clean_sbu_0--edge1-UVAHIK_clean_linker_0
_symmetry_space_group_name_H-M    P1
_symmetry_Int_Tables_number       1
_symmetry_cell_setting            triclinic
loop_
_symmetry_equiv_pos_as_xyz
'x, y, z'
_cell_length_a     69.794877
_cell_length_b     69.756284
_cell_length_c     28.47369
_cell_angle_alpha  89.783208
_cell_angle_beta   89.924257
_cell_angle_gamma 120.00587
loop_
_atom_site_label
_atom_site_type_symbol
_atom_site_fract_x
_atom_site_fract_y
_atom_site_fract_z
_atom_type_partial_charge
Sc0 Sc 0.46552 0.13694 -0.00844 0.0
Sc1 Sc 0.4072 0.10963 -0.01183 0.0
Sc2 Sc 0.43482 0.07893 -0.01238 0.0
O3 O 0.43584 0.10851 -0.01066 0.0
C4 C 0.4773 0.10824 0.92368 0.0
C5 C 0.43844 0.14869 0.91813 0.0
C6 C 0.3974 0.07135 0.91497 0.0
C7 C 0.43655 0.14907 0.05813 0.0
C8 C 0.47217 0.10545 0.06367 0.0
C9 C 0.39316 0.06809 0.05349 0.0
O10 O 0.48021 0.12658 0.93872 0.0
O11 O 0.41949 0.13404 0.93303 0.0
O12 O 0.41308 0.06835 0.9283 0.0
O13 O 0.45484 0.15133 0.04427 0.0
O14 O 0.45682 0.08739 0.0468 0.0
O15 O 0.39199 0.08515 0.04262 0.0
O16 O 0.47729 0.12437 0.04684 0.0
O17 O 0.41806 0.13478 0.04112 0.0
O18 O 0.40721 0.06375 0.03538 0.0
O19 O 0.45644 0.1519 0.93628 0.0
O20 O 0.46194 0.08976 0.93884 0.0
O21 O 0.39256 0.08465 0.93487 0.0
Sc22 Sc 0.32805 0.47197 0.97187 0.0
Sc23 Sc 0.29805 0.41349 0.97837 0.0
Sc24 Sc 0.35596 0.44256 -0.00873 0.0
O25 O 0.32731 0.44265 0.98042 0.0
C26 C 0.36962 0.4785 0.91064 0.0
C27 C 0.29243 0.44109 0.8958 0.0
C28 C 0.32934 0.39878 0.92956 0.0
C29 C 0.28456 0.44483 0.03367 0.0
C30 C 0.36541 0.48576 0.04856 0.0
C31 C 0.32302 0.40728 0.0654 0.0
O32 O 0.35535 0.48382 0.92307 0.0
O33 O 0.28789 0.42283 0.91515 0.0
O34 O 0.34675 0.41415 0.94811 0.0
O35 O 0.30081 0.46304 0.01951 0.0
O36 O 0.36964 0.47078 0.03655 0.0
O37 O 0.30554 0.40143 0.04166 0.0
O38 O 0.35 0.48779 0.02997 0.0
O39 O 0.28162 0.4261 0.0212 0.0
O40 O 0.34222 0.42224 0.05253 0.0
O41 O 0.30621 0.45981 0.91278 0.0
O42 O 0.37153 0.46322 0.93076 0.0
O43 O 0.31046 0.39688 0.93542 0.0
Sc44 Sc 0.85825 0.33586 0.98233 0.0
Sc45 Sc 0.88296 0.30243 0.98134 0.0
Sc46 Sc 0.91563 0.35982 -0.00183 0.0
O47 O 0.88558 0.33269 -0.01289 0.0
C48 C 0.89473 0.37754 0.92313 0.0
C49 C 0.84893 0.29996 0.90359 0.0
C50 C 0.92837 0.33167 0.92951 0.0
C51 C 0.84032 0.29143 0.04229 0.0
C52 C 0.88466 0.37126 0.06104 0.0
C53 C 0.91678 0.32445 0.0661 0.0
O54 O 0.87503 0.36422 0.93675 0.0
O55 O 0.86127 0.29348 0.92211 0.0
O56 O 0.93289 0.34898 0.9525 0.0
O57 O 0.83892 0.30794 0.02771 0.0
O58 O 0.9033 0.3747 0.04643 0.0
O59 O 0.90454 0.30802 0.04016 0.0
O60 O 0.86652 0.35667 0.04329 0.0
O61 O 0.85553 0.28765 0.02925 0.0
O62 O 0.92131 0.34417 0.05723 0.0
O63 O 0.84645 0.31537 0.92079 0.0
O64 O 0.91158 0.37738 0.93991 0.0
O65 O 0.91 0.3138 0.93275 0.0
Sc66 Sc 0.52675 0.85887 0.98385 0.0
Sc67 Sc 0.58517 0.88649 0.98556 0.0
Sc68 Sc 0.55721 0.91691 -0.01258 0.0
O69 O 0.5564 0.88742 0.98545 0.0
C70 C 0.51926 0.89011 0.91258 0.0
C71 C 0.5558 0.84771 0.91464 0.0
C72 C 0.59885 0.92855 0.92131 0.0
C73 C 0.5543 0.84663 0.05462 0.0
C74 C 0.51521 0.88752 0.05244 0.0
C75 C 0.59475 0.92417 0.06009 0.0
O76 O 0.51454 0.87124 0.92901 0.0
O77 O 0.57437 0.86242 0.93053 0.0
O78 O 0.58426 0.93229 0.93859 0.0
O79 O 0.53614 0.84408 0.03893 0.0
O80 O 0.53059 0.90597 0.03723 0.0
O81 O 0.59931 0.91052 0.04085 0.0
O82 O 0.5121 0.86914 0.03712 0.0
O83 O 0.57311 0.86091 0.03838 0.0
O84 O 0.57953 0.9277 0.04581 0.0
O85 O 0.53746 0.84462 0.93055 0.0
O86 O 0.53459 0.90824 0.92929 0.0
O87 O 0.60067 0.91195 0.93296 0.0
Sc88 Sc 0.6659 0.52348 0.00111 0.0
Sc89 Sc 0.69512 0.58191 -0.00607 0.0
Sc90 Sc 0.63719 0.55212 0.98202 0.0
O91 O 0.66611 0.55253 -0.00754 0.0
C92 C 0.62855 0.50919 0.92454 0.0
C93 C 0.70895 0.55119 0.93781 0.0
C94 C 0.66921 0.58811 0.9081 0.0
C95 C 0.70182 0.55455 0.07602 0.0
C96 C 0.62391 0.51604 0.06211 0.0
C97 C 0.66365 0.59573 0.04458 0.0
O98 O 0.64431 0.50769 0.94279 0.0
O99 O 0.7113 0.56984 0.94903 0.0
O100 O 0.65026 0.57253 0.92066 0.0
O101 O 0.68749 0.53577 0.06035 0.0
O102 O 0.622 0.53144 0.04259 0.0
O103 O 0.68256 0.59768 0.03884 0.0
O104 O 0.63829 0.51092 0.04942 0.0
O105 O 0.7065 0.57269 0.05581 0.0
O106 O 0.6463 0.58054 0.02534 0.0
O107 O 0.69341 0.53295 0.9538 0.0
O108 O 0.62375 0.52376 0.9368 0.0
O109 O 0.68673 0.59422 0.932 0.0
Sc110 Sc 0.13582 0.65994 -0.00898 0.0
Sc111 Sc 0.11077 0.69305 -0.00945 0.0
Sc112 Sc 0.07799 0.6352 0.97929 0.0
O113 O 0.10818 0.66272 0.98693 0.0
C114 C 0.10798 0.62413 0.91259 0.0
C115 C 0.15338 0.70357 0.92952 0.0
C116 C 0.07466 0.67004 0.91135 0.0
C117 C 0.14503 0.69668 0.06832 0.0
C118 C 0.10121 0.61841 0.05187 0.0
C119 C 0.06611 0.66362 0.04793 0.0
O120 O 0.12605 0.63724 0.93299 0.0
O121 O 0.13905 0.70809 0.94509 0.0
O122 O 0.06844 0.65049 0.9257 0.0
O123 O 0.14878 0.68234 0.04962 0.0
O124 O 0.08411 0.61705 0.03285 0.0
O125 O 0.08264 0.68207 0.03612 0.0
O126 O 0.12076 0.63309 0.04052 0.0
O127 O 0.13132 0.70183 0.05162 0.0
O128 O 0.06279 0.64525 0.03183 0.0
O129 O 0.15401 0.68638 0.94179 0.0
O130 O 0.08947 0.62185 0.92519 0.0
O131 O 0.09039 0.68724 0.92988 0.0
Sc132 Sc 0.91973 0.5594 0.48524 0.0
Sc133 Sc 0.88812 0.58583 0.49507 0.0
Sc134 Sc 0.8618 0.52756 0.49767 0.0
O135 O 0.8899 0.55761 0.49262 0.0
C136 C 0.88904 0.51793 0.42055 0.0
C137 C 0.92417 0.59737 0.41543 0.0
C138 C 0.84549 0.55418 0.43434 0.0
C139 C 0.93251 0.60059 0.55194 0.0
C140 C 0.89578 0.52049 0.56037 0.0
C141 C 0.85321 0.55608 0.57347 0.0
O142 O 0.90776 0.53389 0.43268 0.0
O143 O 0.90893 0.59972 0.43411 0.0
O144 O 0.84413 0.5361 0.44748 0.0
O145 O 0.93555 0.58531 0.53611 0.0
O146 O 0.87633 0.51576 0.54863 0.0
O147 O 0.86721 0.57482 0.55635 0.0
O148 O 0.91305 0.53573 0.54049 0.0
O149 O 0.91609 0.60268 0.5405 0.0
O150 O 0.84926 0.53785 0.55531 0.0
O151 O 0.9297 0.58359 0.43015 0.0
O152 O 0.87109 0.51372 0.44071 0.0
O153 O 0.86016 0.5729 0.44949 0.0
Sc154 Sc 0.35886 0.91384 0.48299 0.0
Sc155 Sc 0.30074 0.8825 0.49004 0.0
Sc156 Sc 0.33233 0.85572 0.48778 0.0
O157 O 0.33063 0.88402 0.48686 0.0
C158 C 0.36935 0.88501 0.41208 0.0
C159 C 0.32627 0.92129 0.41617 0.0
C160 C 0.28989 0.84135 0.42414 0.0
C161 C 0.33028 0.92454 0.55385 0.0
C162 C 0.37342 0.8874 0.55228 0.0
C163 C 0.29478 0.84548 0.56378 0.0
O164 O 0.37219 0.90337 0.42715 0.0
O165 O 0.30843 0.90536 0.43259 0.0
O166 O 0.30631 0.83954 0.43721 0.0
O167 O 0.3486 0.92769 0.53771 0.0
O168 O 0.35852 0.86841 0.53867 0.0
O169 O 0.29014 0.85974 0.54805 0.0
O170 O 0.37562 0.90527 0.5353 0.0
O171 O 0.31169 0.90902 0.5399 0.0
O172 O 0.30928 0.84193 0.54519 0.0
O173 O 0.34532 0.9261 0.4311 0.0
O174 O 0.35561 0.8665 0.43047 0.0
O175 O 0.28586 0.85589 0.44045 0.0
Sc176 Sc 0.44367 0.36105 0.50784 0.0
Sc177 Sc 0.41346 0.30363 0.48716 0.0
Sc178 Sc 0.4719 0.33226 0.48487 0.0
O179 O 0.44299 0.33229 0.49316 0.0
C180 C 0.48134 0.37642 0.43032 0.0
C181 C 0.40172 0.33751 0.43989 0.0
C182 C 0.44186 0.29887 0.40514 0.0
C183 C 0.40562 0.3268 0.57554 0.0
C184 C 0.48473 0.36657 0.56797 0.0
C185 C 0.4427 0.28762 0.54249 0.0
O186 O 0.46604 0.37835 0.45023 0.0
O187 O 0.39926 0.31824 0.44279 0.0
O188 O 0.46051 0.31263 0.42245 0.0
O189 O 0.42164 0.34607 0.56642 0.0
O190 O 0.48681 0.3518 0.54653 0.0
O191 O 0.42422 0.28572 0.53111 0.0
O192 O 0.47054 0.37199 0.55636 0.0
O193 O 0.39999 0.31022 0.54902 0.0
O194 O 0.46114 0.30336 0.52802 0.0
O195 O 0.41655 0.35396 0.4622 0.0
O196 O 0.48556 0.36117 0.44078 0.0
O197 O 0.42359 0.29384 0.42481 0.0
Sc198 Sc 0.07496 0.4362 0.49022 0.0
Sc199 Sc 0.10631 0.40966 0.47694 0.0
Sc200 Sc 0.13286 0.4679 0.47738 0.0
O201 O 0.10469 0.43791 0.48161 0.0
C202 C 0.09899 0.47559 0.41612 0.0
C203 C 0.06141 0.39543 0.42213 0.0
C204 C 0.14068 0.43982 0.3987 0.0
C205 C 0.07133 0.39808 0.5587 0.0
C206 C 0.10582 0.47722 0.55577 0.0
C207 C 0.14957 0.44076 0.53686 0.0
O208 O 0.08167 0.46041 0.43601 0.0
O209 O 0.07755 0.39279 0.43319 0.0
O210 O 0.14532 0.45785 0.41891 0.0
O211 O 0.06514 0.41142 0.54433 0.0
O212 O 0.12373 0.4816 0.53515 0.0
O213 O 0.13512 0.42228 0.52019 0.0
O214 O 0.08711 0.46123 0.54371 0.0
O215 O 0.08665 0.39605 0.53942 0.0
O216 O 0.15038 0.45888 0.52659 0.0
O217 O 0.05894 0.41096 0.43842 0.0
O218 O 0.11839 0.48003 0.42742 0.0
O219 O 0.1262 0.42094 0.41432 0.0
Sc220 Sc 0.63358 0.0833 0.49166 0.0
Sc221 Sc 0.69166 0.11443 0.48377 0.0
Sc222 Sc 0.66023 0.14142 0.48562 0.0
O223 O 0.66184 0.11306 0.48707 0.0
C224 C 0.61871 0.10951 0.42249 0.0
C225 C 0.66179 0.07228 0.4204 0.0
C226 C 0.69764 0.1513 0.40938 0.0
C227 C 0.66625 0.07585 0.55814 0.0
C228 C 0.62349 0.1125 0.56231 0.0
C229 C 0.70281 0.15587 0.54895 0.0
O230 O 0.61661 0.09174 0.43977 0.0
O231 O 0.68046 0.08776 0.43412 0.0
O232 O 0.68311 0.15491 0.42767 0.0
O233 O 0.6472 0.07107 0.54336 0.0
O234 O 0.63714 0.13093 0.54342 0.0
O235 O 0.70667 0.14114 0.53308 0.0
O236 O 0.62061 0.09406 0.54761 0.0
O237 O 0.68408 0.09172 0.5415 0.0
O238 O 0.68649 0.15779 0.53565 0.0
O239 O 0.64355 0.06925 0.4368 0.0
O240 O 0.63377 0.12858 0.43533 0.0
O241 O 0.70226 0.13709 0.42557 0.0
Sc242 Sc 0.55122 0.63489 0.4703 0.0
Sc243 Sc 0.58033 0.69275 0.48645 0.0
Sc244 Sc 0.52185 0.66298 0.48828 0.0
O245 O 0.55115 0.66355 0.48184 0.0
C246 C 0.51005 0.62727 0.40795 0.0
C247 C 0.58932 0.66876 0.40159 0.0
C248 C 0.55024 0.70644 0.42689 0.0
C249 C 0.59255 0.66012 0.53934 0.0
C250 C 0.51289 0.61999 0.5466 0.0
C251 C 0.55148 0.69845 0.56569 0.0
O252 O 0.52513 0.62306 0.4194 0.0
O253 O 0.59402 0.68591 0.42542 0.0
O254 O 0.53192 0.69021 0.44045 0.0
O255 O 0.57753 0.64295 0.51921 0.0
O256 O 0.50883 0.63535 0.53614 0.0
O257 O 0.56989 0.70282 0.54771 0.0
O258 O 0.52797 0.61778 0.52649 0.0
O259 O 0.59532 0.67933 0.53212 0.0
O260 O 0.53296 0.68465 0.54794 0.0
O261 O 0.57411 0.6494 0.41293 0.0
O262 O 0.50699 0.64146 0.42927 0.0
O263 O 0.5689 0.70972 0.4411 0.0
C264 C 0.41728 0.16306 0.11021 0.0
C265 C 0.43701 0.16461 0.09375 0.0
C266 C 0.41792 0.17867 0.14164 0.0
C267 C 0.45418 0.2204 0.22726 0.0
H268 H 0.41465 0.24386 0.20971 0.0
C269 C 0.46138 0.29096 0.34097 0.0
C270 C 0.44148 0.28702 0.36198 0.0
C271 C 0.46111 0.27782 0.30395 0.0
C272 C 0.42572 0.23738 0.21503 0.0
H273 H 0.47289 0.18368 0.0979 0.0
H274 H 0.47394 0.21091 0.15217 0.0
H275 H 0.41336 0.21634 0.15496 0.0
H276 H 0.40565 0.26715 0.35845 0.0
H277 H 0.40526 0.24414 0.29403 0.0
H278 H 0.46646 0.24128 0.28736 0.0
C279 C 0.45798 0.1975 0.14122 0.0
C280 C 0.42492 0.22159 0.18391 0.0
C281 C 0.45736 0.1819 0.10996 0.0
C282 C 0.42128 0.27053 0.34333 0.0
C283 C 0.42103 0.25742 0.30623 0.0
C284 C 0.45502 0.2362 0.2582 0.0
C285 C 0.43829 0.19612 0.15716 0.0
C286 C 0.43909 0.2129 0.18988 0.0
C287 C 0.44095 0.26056 0.28713 0.0
C288 C 0.44076 0.24478 0.25248 0.0
H289 H 0.40132 0.14992 0.09853 0.0
H290 H 0.40247 0.17702 0.15394 0.0
H291 H 0.46506 0.21374 0.23317 0.0
H292 H 0.47724 0.30369 0.35408 0.0
H293 H 0.47669 0.28081 0.28923 0.0
C294 C 0.17073 0.46124 0.3398 0.0
C295 C 0.15328 0.44085 0.35602 0.0
C296 C 0.18359 0.46205 0.30146 0.0
C297 C 0.20074 0.42721 0.23934 0.0
H298 H 0.22209 0.47339 0.14425 0.0
C299 C 0.2492 0.42533 0.07912 0.0
C300 C 0.26837 0.4452 0.06668 0.0
C301 C 0.23429 0.42526 0.11173 0.0
C302 C 0.21638 0.46052 0.17081 0.0
H303 H 0.13509 0.40544 0.34322 0.0
H304 H 0.15742 0.40695 0.2761 0.0
H305 H 0.19697 0.47219 0.20566 0.0
H306 H 0.28659 0.48071 0.07799 0.0
H307 H 0.26052 0.48051 0.13562 0.0
H308 H 0.22021 0.41561 0.20503 0.0
C309 C 0.16137 0.42224 0.29365 0.0
C310 C 0.20201 0.45981 0.20587 0.0
C311 C 0.14853 0.4214 0.33201 0.0
C312 C 0.272 0.46512 0.08683 0.0
C313 C 0.25703 0.46503 0.11964 0.0
C314 C 0.21505 0.42791 0.20441 0.0
C315 C 0.17927 0.44252 0.2785 0.0
C316 C 0.19403 0.44312 0.24044 0.0
C317 C 0.2382 0.44504 0.13284 0.0
C318 C 0.22299 0.44453 0.16973 0.0
H319 H 0.17483 0.47656 0.35736 0.0
H320 H 0.19739 0.4779 0.29082 0.0
H321 H 0.19527 0.41444 0.26609 0.0
H322 H 0.24571 0.40969 0.06396 0.0
H323 H 0.21971 0.40966 0.12058 0.0
C324 C 0.82432 0.25719 0.09184 0.0
C325 C 0.82382 0.27613 0.07668 0.0
C326 C 0.80942 0.24319 0.1257 0.0
C327 C 0.75624 0.22716 0.18322 0.0
H328 H 0.78023 0.20732 0.28271 0.0
C329 C 0.70762 0.18219 0.3517 0.0
C330 C 0.71018 0.16455 0.36807 0.0
C331 C 0.72042 0.19537 0.31423 0.0
C332 C 0.77323 0.2125 0.25487 0.0
H333 H 0.80689 0.29494 0.0846 0.0
H334 H 0.78097 0.27049 0.14423 0.0
H335 H 0.80455 0.2312 0.22072 0.0
H336 H 0.72761 0.14643 0.3566 0.0
H337 H 0.74968 0.16927 0.2912 0.0
H338 H 0.72487 0.20844 0.21776 0.0
C339 C 0.79282 0.26645 0.12946 0.0
C340 C 0.78715 0.22618 0.21939 0.0
C341 C 0.80774 0.28049 0.09549 0.0
C342 C 0.72536 0.16002 0.34531 0.0
C343 C 0.73809 0.17316 0.30791 0.0
C344 C 0.74227 0.21344 0.21883 0.0
C345 C 0.7937 0.24781 0.14526 0.0
C346 C 0.77879 0.23353 0.18306 0.0
C347 C 0.736 0.19115 0.29246 0.0
C348 C 0.75063 0.20587 0.25481 0.0
H349 H 0.83634 0.2532 0.07787 0.0
H350 H 0.81023 0.22872 0.13665 0.0
H351 H 0.74933 0.23246 0.15541 0.0
H352 H 0.69606 0.18612 0.36839 0.0
H353 H 0.71857 0.20923 0.30321 0.0
C354 C 0.56719 0.74364 0.38815 0.0
C355 C 0.54981 0.72162 0.39135 0.0
C356 C 0.56707 0.75768 0.3532 0.0
C357 C 0.55011 0.75762 0.23505 0.0
H358 H 0.55202 0.81303 0.26237 0.0
C359 C 0.57032 0.82703 0.09887 0.0
C360 C 0.55356 0.83244 0.0938 0.0
C361 C 0.56954 0.81347 0.13583 0.0
C362 C 0.55149 0.79759 0.25447 0.0
H363 H 0.51874 0.69697 0.36064 0.0
H364 H 0.51896 0.72143 0.29862 0.0
H365 H 0.55131 0.78932 0.32723 0.0
H366 H 0.52312 0.82835 0.12369 0.0
H367 H 0.52219 0.8051 0.18936 0.0
H368 H 0.55088 0.76612 0.16237 0.0
C369 C 0.53242 0.7278 0.32364 0.0
C370 C 0.55117 0.78416 0.29133 0.0
C371 C 0.53227 0.71391 0.35917 0.0
C372 C 0.53616 0.8243 0.12666 0.0
C373 C 0.53568 0.81115 0.16424 0.0
C374 C 0.55094 0.77127 0.19825 0.0
C375 C 0.54984 0.74973 0.32038 0.0
C376 C 0.55035 0.76405 0.28177 0.0
C377 C 0.55229 0.80555 0.16883 0.0
C378 C 0.55153 0.79127 0.20775 0.0
H379 H 0.58086 0.74999 0.41263 0.0
H380 H 0.58069 0.77456 0.35102 0.0
H381 H 0.54958 0.74218 0.22709 0.0
H382 H 0.58386 0.83303 0.07392 0.0
H383 H 0.58253 0.80933 0.13896 0.0
C384 C 0.73138 0.57519 0.1359 0.0
C385 C 0.7143 0.55506 0.11837 0.0
C386 C 0.74431 0.57533 0.17339 0.0
C387 C 0.74695 0.54081 0.26949 0.0
H388 H 0.8103 0.57916 0.25466 0.0
C389 C 0.81178 0.53368 0.38369 0.0
C390 C 0.82949 0.55377 0.39982 0.0
C391 C 0.79687 0.53369 0.35097 0.0
C392 C 0.79263 0.56851 0.2595 0.0
H393 H 0.69683 0.51932 0.12793 0.0
H394 H 0.71957 0.51964 0.1926 0.0
H395 H 0.78539 0.5801 0.19618 0.0
H396 H 0.84529 0.58962 0.39435 0.0
H397 H 0.81934 0.58951 0.33775 0.0
H398 H 0.75436 0.52904 0.33264 0.0
C399 C 0.72285 0.53531 0.1777 0.0
C400 C 0.77837 0.56912 0.22615 0.0
C401 C 0.70991 0.53516 0.14034 0.0
C402 C 0.8319 0.5738 0.38268 0.0
C403 C 0.81709 0.57379 0.35001 0.0
C404 C 0.76126 0.54016 0.30285 0.0
C405 C 0.74043 0.55536 0.19407 0.0
C406 C 0.75538 0.55529 0.23077 0.0
C407 C 0.79951 0.55377 0.33367 0.0
C408 C 0.78423 0.55404 0.29815 0.0
H409 H 0.7351 0.59083 0.12007 0.0
H410 H 0.75754 0.59107 0.18583 0.0
H411 H 0.72929 0.53009 0.27416 0.0
H412 H 0.80945 0.51797 0.39622 0.0
H413 H 0.78351 0.51801 0.33861 0.0
C414 C 0.27853 0.80951 0.36903 0.0
C415 C 0.27455 0.82561 0.38901 0.0
C416 C 0.26384 0.79451 0.33634 0.0
C417 C 0.22335 0.7572 0.28883 0.0
H418 H 0.20009 0.77915 0.19207 0.0
C419 C 0.17586 0.70658 0.12555 0.0
C420 C 0.15792 0.70878 0.11008 0.0
C421 C 0.18919 0.71957 0.16236 0.0
C422 C 0.2062 0.7727 0.21926 0.0
H423 H 0.25187 0.83842 0.39042 0.0
H424 H 0.22625 0.81217 0.33379 0.0
H425 H 0.22549 0.80461 0.25019 0.0
H426 H 0.13922 0.72549 0.12294 0.0
H427 H 0.16231 0.74789 0.18726 0.0
H428 H 0.20411 0.72527 0.25743 0.0
C429 C 0.24088 0.81134 0.34297 0.0
C430 C 0.22077 0.78729 0.25251 0.0
C431 C 0.25554 0.82634 0.37559 0.0
C432 C 0.15306 0.72356 0.1335 0.0
C433 C 0.16634 0.73648 0.17026 0.0
C434 C 0.20876 0.74258 0.25547 0.0
C435 C 0.24489 0.79531 0.32294 0.0
C436 C 0.22947 0.7797 0.28768 0.0
C437 C 0.1848 0.73496 0.18441 0.0
C438 C 0.20001 0.7502 0.22042 0.0
H439 H 0.29302 0.80849 0.3785 0.0
H440 H 0.2675 0.7825 0.32104 0.0
H441 H 0.22961 0.75084 0.3159 0.0
H442 H 0.18005 0.69534 0.10835 0.0
H443 H 0.20339 0.71814 0.17236 0.0
C444 C 0.57191 0.72665 0.62771 0.0
C445 C 0.55171 0.71114 0.60729 0.0
C446 C 0.57238 0.74041 0.66356 0.0
C447 C 0.53812 0.7481 0.75148 0.0
H448 H 0.58147 0.81036 0.73562 0.0
C449 C 0.53524 0.81615 0.85932 0.0
C450 C 0.55546 0.8328 0.87757 0.0
C451 C 0.53483 0.80113 0.82661 0.0
C452 C 0.56944 0.79301 0.7408 0.0
H453 H 0.51607 0.69717 0.61025 0.0
H454 H 0.51698 0.72135 0.67267 0.0
H455 H 0.58077 0.78346 0.68036 0.0
H456 H 0.59114 0.84699 0.87494 0.0
H457 H 0.59034 0.82067 0.8181 0.0
H458 H 0.52673 0.75772 0.81186 0.0
C459 C 0.53241 0.72276 0.66097 0.0
C460 C 0.56907 0.77761 0.70927 0.0
C461 C 0.53192 0.70898 0.62507 0.0
C462 C 0.57528 0.8344 0.86158 0.0
C463 C 0.57484 0.81937 0.82889 0.0
C464 C 0.5385 0.76352 0.78309 0.0
C465 C 0.55268 0.73893 0.67977 0.0
C466 C 0.5534 0.75502 0.71429 0.0
C467 C 0.55461 0.80247 0.81146 0.0
C468 C 0.55415 0.78612 0.77796 0.0
H469 H 0.58746 0.72861 0.61524 0.0
H470 H 0.5882 0.75247 0.6781 0.0
H471 H 0.526 0.73076 0.75638 0.0
H472 H 0.51966 0.8145 0.87067 0.0
H473 H 0.51902 0.78848 0.81315 0.0
C474 C 0.74313 0.57105 0.88875 0.0
C475 C 0.72499 0.55097 0.90418 0.0
C476 C 0.75792 0.57118 0.85576 0.0
C477 C 0.77819 0.53693 0.80155 0.0
H478 H 0.79528 0.57977 0.70016 0.0
C479 C 0.82401 0.53495 0.63408 0.0
C480 C 0.84042 0.55536 0.61554 0.0
C481 C 0.81099 0.53425 0.67198 0.0
C482 C 0.79093 0.56793 0.72859 0.0
H483 H 0.7085 0.51521 0.89769 0.0
H484 H 0.73438 0.51551 0.83942 0.0
H485 H 0.77018 0.57849 0.76102 0.0
H486 H 0.85659 0.59104 0.62362 0.0
H487 H 0.83396 0.58976 0.69 0.0
H488 H 0.79891 0.5263 0.76869 0.0
C489 C 0.73714 0.53111 0.85335 0.0
C490 C 0.77653 0.56716 0.76339 0.0
C491 C 0.72228 0.53096 0.88652 0.0
C492 C 0.84397 0.57504 0.6367 0.0
C493 C 0.83095 0.57432 0.67461 0.0
C494 C 0.79265 0.5377 0.76664 0.0
C495 C 0.75494 0.55126 0.83728 0.0
C496 C 0.77006 0.55172 0.8003 0.0
C497 C 0.81411 0.55394 0.69215 0.0
C498 C 0.79919 0.55326 0.72988 0.0
H499 H 0.7459 0.58679 0.90188 0.0
H500 H 0.77172 0.58694 0.84464 0.0
H501 H 0.77364 0.52499 0.82986 0.0
H502 H 0.82085 0.51945 0.61876 0.0
H503 H 0.79801 0.5183 0.68449 0.0
C504 C 0.26779 0.83699 0.62925 0.0
C505 C 0.28239 0.83213 0.60506 0.0
C506 C 0.25527 0.8238 0.6668 0.0
C507 C 0.25089 0.78228 0.753 0.0
H508 H 0.18897 0.76592 0.75471 0.0
C509 C 0.18515 0.71419 0.87414 0.0
C510 C 0.16978 0.71897 0.89517 0.0
C511 C 0.20005 0.7285 0.84046 0.0
C512 C 0.20628 0.77055 0.75499 0.0
H513 H 0.29576 0.80993 0.60222 0.0
H514 H 0.27359 0.7867 0.6675 0.0
H515 H 0.2131 0.79027 0.69305 0.0
H516 H 0.15849 0.74288 0.89829 0.0
H517 H 0.18452 0.76776 0.83996 0.0
H518 H 0.24387 0.76231 0.81496 0.0
C519 C 0.27204 0.80088 0.6576 0.0
C520 C 0.2201 0.7845 0.71975 0.0
C521 C 0.28464 0.81412 0.62005 0.0
C522 C 0.16995 0.73856 0.88254 0.0
C523 C 0.18481 0.7528 0.84897 0.0
C524 C 0.23701 0.76825 0.78834 0.0
C525 C 0.25702 0.80543 0.68088 0.0
C526 C 0.24255 0.7906 0.71852 0.0
C527 C 0.19981 0.74779 0.82721 0.0
C528 C 0.21461 0.76238 0.78973 0.0
H529 H 0.26584 0.85089 0.61901 0.0
H530 H 0.24411 0.82793 0.6847 0.0
H531 H 0.26819 0.78687 0.75306 0.0
H532 H 0.18547 0.69925 0.88312 0.0
H533 H 0.21137 0.72419 0.82393 0.0
C534 C 0.46297 0.27317 0.58993 0.0
C535 C 0.44284 0.27128 0.57544 0.0
C536 C 0.46321 0.25866 0.62341 0.0
C537 C 0.4283 0.20493 0.68211 0.0
H538 H 0.46996 0.23176 0.78433 0.0
C539 C 0.42012 0.15968 0.85663 0.0
C540 C 0.43959 0.16228 0.87713 0.0
C541 C 0.42119 0.17223 0.81746 0.0
C542 C 0.45845 0.22397 0.7557 0.0
H543 H 0.40712 0.25216 0.58375 0.0
H544 H 0.40762 0.227 0.64251 0.0
H545 H 0.47069 0.25465 0.7188 0.0
H546 H 0.47548 0.18003 0.87217 0.0
H547 H 0.47725 0.20181 0.80363 0.0
H548 H 0.41588 0.17428 0.7194 0.0
C549 C 0.42319 0.2396 0.62761 0.0
C550 C 0.45888 0.23707 0.71818 0.0
C551 C 0.42292 0.25412 0.59414 0.0
C552 C 0.46015 0.17769 0.85749 0.0
C553 C 0.4612 0.19023 0.81828 0.0
C554 C 0.42788 0.19182 0.71964 0.0
C555 C 0.44334 0.24195 0.64305 0.0
C556 C 0.44368 0.22772 0.68125 0.0
C557 C 0.44173 0.18763 0.79792 0.0
C558 C 0.44282 0.20126 0.75702 0.0
H559 H 0.47862 0.28609 0.57604 0.0
H560 H 0.47897 0.26064 0.63424 0.0
H561 H 0.41658 0.19726 0.65378 0.0
H562 H 0.404 0.14799 0.87085 0.0
H563 H 0.40592 0.17012 0.80291 0.0
C564 C 0.16511 0.42091 0.5819 0.0
C565 C 0.16603 0.4409 0.56963 0.0
C566 C 0.1803 0.42075 0.61327 0.0
C567 C 0.2348 0.45563 0.66627 0.0
H568 H 0.21127 0.41166 0.76599 0.0
C569 C 0.28356 0.46052 0.83292 0.0
C570 C 0.28057 0.44067 0.85255 0.0
C571 C 0.27115 0.46014 0.79429 0.0
C572 C 0.21817 0.42378 0.73789 0.0
H573 H 0.18391 0.47648 0.5802 0.0
H574 H 0.21041 0.4761 0.63555 0.0
H575 H 0.18645 0.41209 0.70668 0.0
H576 H 0.26299 0.40489 0.84541 0.0
H577 H 0.2415 0.4043 0.77753 0.0
H578 H 0.26653 0.46745 0.6979 0.0
C579 C 0.19798 0.46061 0.62039 0.0
C580 C 0.20395 0.42407 0.70404 0.0
C581 C 0.18272 0.46079 0.58897 0.0
C582 C 0.26553 0.42048 0.8315 0.0
C583 C 0.25316 0.42011 0.79273 0.0
C584 C 0.24907 0.4553 0.70013 0.0
C585 C 0.19675 0.44055 0.63308 0.0
C586 C 0.21209 0.44007 0.6681 0.0
C587 C 0.25555 0.43992 0.77433 0.0
C588 C 0.24085 0.43946 0.73646 0.0
H589 H 0.15258 0.40527 0.56751 0.0
H590 H 0.17917 0.40508 0.622 0.0
H591 H 0.24152 0.46796 0.63856 0.0
H592 H 0.29505 0.47639 0.84813 0.0
H593 H 0.2732 0.47566 0.78121 0.0
C594 C 0.84015 0.27265 0.83908 0.0
C595 C 0.83607 0.28816 0.86159 0.0
C596 C 0.82669 0.25984 0.80243 0.0
C597 C 0.78513 0.25481 0.71605 0.0
H598 H 0.76609 0.19226 0.72438 0.0
C599 C 0.7147 0.18827 0.60272 0.0
C600 C 0.71823 0.17166 0.58391 0.0
C601 C 0.72944 0.20327 0.63534 0.0
C602 C 0.77145 0.20971 0.72124 0.0
H603 H 0.81522 0.30308 0.86173 0.0
H604 H 0.79153 0.28045 0.79788 0.0
H605 H 0.79179 0.21765 0.78215 0.0
H606 H 0.74016 0.15796 0.58449 0.0
H607 H 0.76585 0.18419 0.64101 0.0
H608 H 0.76459 0.24671 0.65511 0.0
C609 C 0.80527 0.27835 0.80853 0.0
C610 C 0.78619 0.22426 0.75428 0.0
C611 C 0.8188 0.29125 0.84521 0.0
C612 C 0.73684 0.17044 0.59839 0.0
C613 C 0.75154 0.18543 0.63095 0.0
C614 C 0.77034 0.2402 0.68289 0.0
C615 C 0.80881 0.26219 0.78752 0.0
C616 C 0.79326 0.24696 0.75193 0.0
C617 C 0.74797 0.20195 0.64986 0.0
C618 C 0.76343 0.21752 0.68511 0.0
H619 H 0.8535 0.27004 0.85034 0.0
H620 H 0.8301 0.24783 0.7862 0.0
H621 H 0.79043 0.27225 0.71322 0.0
H622 H 0.70053 0.18969 0.59238 0.0
H623 H 0.72615 0.2157 0.64973 0.0
C624 C 0.30549 0.92907 0.35399 0.0
C625 C 0.32497 0.93575 0.37987 0.0
C626 C 0.30463 0.9431 0.31984 0.0
C627 C 0.33345 0.00143 0.27956 0.0
H628 H 0.32033 0.97713 0.15388 0.0
C629 C 0.3646 0.05795 0.117 0.0
C630 C 0.37724 0.05221 0.08791 0.0
C631 C 0.3503 0.04298 0.15073 0.0
C632 C 0.3237 0.98411 0.18885 0.0
H633 H 0.35852 0.96262 0.39126 0.0
H634 H 0.35701 0.98683 0.33201 0.0
H635 H 0.30982 0.9522 0.22143 0.0
H636 H 0.3839 0.02587 0.06974 0.0
H637 H 0.35932 9e-05 0.12851 0.0
H638 H 0.34898 0.03337 0.247 0.0
C639 C 0.34236 0.97089 0.33821 0.0
C640 C 0.31752 0.96984 0.22749 0.0
C641 C 0.34332 0.95685 0.37171 0.0
C642 C 0.37461 0.03094 0.09191 0.0
C643 C 0.36023 0.016 0.12516 0.0
C644 C 0.3396 0.01569 0.24097 0.0
C645 C 0.32309 0.96414 0.31174 0.0
C646 C 0.3235 0.97847 0.27296 0.0
C647 C 0.3482 0.02195 0.15544 0.0
C648 C 0.33592 0.00716 0.19522 0.0
H649 H 0.29106 0.91291 0.35961 0.0
H650 H 0.28964 0.9375 0.29963 0.0
H651 H 0.33791 0.00844 0.31443 0.0
H652 H 0.36617 0.07418 0.11456 0.0
H653 H 0.34121 0.04798 0.17371 0.0
C654 C 0.37468 0.32632 0.37342 0.0
C655 C 0.38686 0.34125 0.40931 0.0
C656 C 0.36217 0.33114 0.34229 0.0
C657 C 0.36331 0.37978 0.29294 0.0
H658 H 0.30639 0.33846 0.23905 0.0
C659 C 0.32854 0.41003 0.15103 0.0
C660 C 0.32123 0.3968 0.11089 0.0
C661 C 0.33086 0.40129 0.19321 0.0
C662 C 0.3223 0.35014 0.25382 0.0
H663 H 0.39404 0.37199 0.4431 0.0
H664 H 0.37213 0.38021 0.38928 0.0
H665 H 0.32145 0.32628 0.30294 0.0
H666 H 0.30934 0.364 0.08291 0.0
H667 H 0.31441 0.34876 0.15649 0.0
H668 H 0.36491 0.40336 0.2433 0.0
C669 C 0.37267 0.36509 0.38443 0.0
C670 C 0.33088 0.34318 0.29026 0.0
C671 C 0.38525 0.36039 0.41517 0.0
C672 C 0.31494 0.37436 0.11385 0.0
C673 C 0.31774 0.36568 0.15594 0.0
C674 C 0.35486 0.38666 0.25667 0.0
C675 C 0.36157 0.35089 0.34683 0.0
C676 C 0.35151 0.35798 0.31001 0.0
C677 C 0.32661 0.37936 0.1955 0.0
C678 C 0.3343 0.37196 0.23655 0.0
H679 H 0.37551 0.31137 0.36825 0.0
H680 H 0.35386 0.31998 0.31342 0.0
H681 H 0.37951 0.3914 0.30661 0.0
H682 H 0.33327 0.42738 0.14925 0.0
H683 H 0.33714 0.41207 0.22341 0.0
C684 C 0.04672 0.3627 0.36807 0.0
C685 C 0.04411 0.37915 0.39079 0.0
C686 C 0.03002 0.34724 0.33904 0.0
C687 C 0.97085 0.32462 0.30914 0.0
H688 H 0.98945 0.32329 0.18141 0.0
C689 C 0.92923 0.33338 0.14865 0.0
C690 C 0.92626 0.32057 0.10862 0.0
C691 C 0.93962 0.33102 0.18808 0.0
C692 C 0.98393 0.32285 0.21719 0.0
H693 H 0.02173 0.39193 0.40151 0.0
H694 H 0.99302 0.36538 0.35076 0.0
H695 H 0.01687 0.33746 0.24404 0.0
H696 H 0.9311 0.2948 0.07846 0.0
H697 H 0.95036 0.29139 0.14744 0.0
H698 H 0.93826 0.31198 0.28135 0.0
C699 C 0.00774 0.36413 0.35586 0.0
C700 C -0.00038 0.33098 0.25305 0.0
C701 C 0.02439 0.37959 0.38446 0.0
C702 C 0.93322 0.30483 0.1091 0.0
C703 C 0.94415 0.30284 0.14834 0.0
C704 C 0.95524 0.31668 0.27328 0.0
C705 C 0.01038 0.34784 0.33272 0.0
C706 C 0.99338 0.33319 0.29875 0.0
C707 C 0.94759 0.31611 0.1879 0.0
C708 C 0.96192 0.31697 0.2267 0.0
H709 H 0.0617 0.36187 0.37238 0.0
H710 H 0.03249 0.33492 0.32139 0.0
H711 H 0.96555 0.32567 0.34435 0.0
H712 H 0.92383 0.3455 0.14919 0.0
H713 H 0.94242 0.3417 0.21792 0.0
C714 C 0.63002 0.94316 0.10566 0.0
C715 C 0.60741 0.93629 0.10158 0.0
C716 C 0.64209 0.95573 0.14425 0.0
C717 C 0.63658 0.9688 0.26491 0.0
H718 H 0.67745 0.03065 0.23679 0.0
C719 C 0.64082 0.03703 0.3762 0.0
C720 C 0.66108 0.05613 0.38603 0.0
C721 C 0.63994 0.02105 0.34594 0.0
C722 C 0.66664 0.01335 0.24544 0.0
H723 H 0.57944 0.93619 0.13499 0.0
H724 H 0.60035 0.95758 0.20284 0.0
H725 H 0.66557 0.0032 0.17404 0.0
H726 H 0.69637 0.07349 0.37122 0.0
H727 H 0.69464 0.0454 0.31715 0.0
H728 H 0.63651 0.97898 0.33555 0.0
C729 C 0.60877 0.95347 0.17613 0.0
C730 C 0.65988 0.99768 0.2096 0.0
C731 C 0.59689 0.94144 0.13723 0.0
C732 C 0.68048 0.05895 0.36436 0.0
C733 C 0.67955 0.04291 0.33358 0.0
C734 C 0.64345 0.98437 0.3007 0.0
C735 C 0.63147 0.96091 0.17966 0.0
C736 C 0.64387 0.97556 0.21874 0.0
C737 C 0.65926 0.02372 0.32455 0.0
C738 C 0.65746 0.00694 0.29063 0.0
H739 H 0.63846 0.9394 0.0784 0.0
H740 H 0.65965 0.96153 0.14633 0.0
H741 H 0.62431 0.95175 0.27258 0.0
H742 H 0.62553 0.03426 0.39216 0.0
H743 H 0.62396 0.00669 0.33864 0.0
C744 C 0.64107 0.61074 0.07959 0.0
C745 C 0.6617 0.61206 0.07407 0.0
C746 C 0.63897 0.62586 0.10766 0.0
C747 C 0.66354 0.66024 0.20996 0.0
H748 H 0.61822 0.6755 0.18406 0.0
C749 C 0.62437 0.68754 0.35475 0.0
C750 C 0.60187 0.67136 0.35829 0.0
C751 C 0.63649 0.68871 0.31461 0.0
C752 C 0.63127 0.6718 0.1914 0.0
H753 H 0.69648 0.6308 0.09276 0.0
H754 H 0.69268 0.65724 0.14224 0.0
H755 H 0.63197 0.66211 0.12059 0.0
H756 H 0.57403 0.6447 0.32216 0.0
H757 H 0.59504 0.64704 0.25188 0.0
H758 H 0.66192 0.66885 0.28136 0.0
C759 C 0.67818 0.64439 0.12479 0.0
C760 C 0.63902 0.66402 0.1553 0.0
C761 C 0.68031 0.62921 0.09655 0.0
C762 C 0.59142 0.65716 0.3204 0.0
C763 C 0.60335 0.65868 0.28005 0.0
C764 C 0.65594 0.66826 0.246 0.0
C765 C 0.65743 0.64274 0.13088 0.0
C766 C 0.65422 0.65688 0.16491 0.0
C767 C 0.62605 0.67416 0.27718 0.0
C768 C 0.63884 0.67285 0.23743 0.0
H769 H 0.62639 0.59781 0.06276 0.0
H770 H 0.62264 0.62379 0.11248 0.0
H771 H 0.67524 0.65485 0.21849 0.0
H772 H 0.63276 0.69866 0.38364 0.0
H773 H 0.65403 0.70063 0.31313 0.0
C774 C 0.95908 0.61741 0.36999 0.0
C775 C 0.93702 0.61207 0.37635 0.0
C776 C 0.97149 0.63087 0.33283 0.0
C777 C 0.9657 0.64228 0.21385 0.0
H778 H 0.02856 0.6834 0.22735 0.0
C779 C 0.0529 0.68336 0.10079 0.0
C780 C 0.04956 0.66358 0.0804 0.0
C781 C 0.03717 0.68317 0.13148 0.0
C782 C 0.01096 0.67244 0.22263 0.0
H783 H 0.9107 0.61699 0.34966 0.0
H784 H 0.93245 0.64014 0.28283 0.0
H785 H 0.00439 0.67342 0.29571 0.0
H786 H 0.02672 0.62821 0.07514 0.0
H787 H -0.00033 0.62786 0.12917 0.0
H788 H 0.97251 0.64022 0.14131 0.0
C789 C 0.94008 0.63409 0.30737 0.0
C790 C -0.00284 0.66666 0.26182 0.0
C791 C 0.9277 0.62086 0.34535 0.0
C792 C 0.02993 0.64374 0.09042 0.0
C793 C 0.01423 0.64358 0.12087 0.0
C794 C 0.97952 0.64804 0.1746 0.0
C795 C 0.96206 0.6391 0.30082 0.0
C796 C 0.97469 0.65055 0.25821 0.0
C797 C 0.01778 0.66324 0.14211 0.0
C798 C 0.00246 0.66217 0.17929 0.0
H799 H 0.96678 0.61108 0.39367 0.0
H800 H 0.98826 0.63411 0.32808 0.0
H801 H 0.94841 0.62983 0.21019 0.0
H802 H 0.06776 0.69898 0.09353 0.0
H803 H 0.04032 0.69856 0.14739 0.0
C804 C 0.68681 0.06839 0.6214 0.0
C805 C 0.66755 0.06145 0.59461 0.0
C806 C 0.68757 0.05447 0.65597 0.0
C807 C 0.6592 0.99613 0.6961 0.0
H808 H 0.67045 0.02029 0.82193 0.0
C809 C 0.61658 0.9656 0.8825 0.0
C810 C 0.61466 0.94465 0.88703 0.0
C811 C 0.63089 0.98075 0.84945 0.0
C812 C 0.66761 0.01336 0.78694 0.0
H813 H 0.63431 0.03425 0.58189 0.0
H814 H 0.63566 0.0102 0.6418 0.0
H815 H 0.68125 0.04525 0.75438 0.0
H816 H 0.6269 0.92346 0.86149 0.0
H817 H 0.65174 0.95001 0.80267 0.0
H818 H 0.64393 0.96417 0.72855 0.0
C819 C 0.65021 0.02627 0.63607 0.0
C820 C 0.67395 0.02765 0.74832 0.0
C821 C 0.64934 0.0402 0.60218 0.0
C822 C 0.62792 0.93943 0.85864 0.0
C823 C 0.64215 0.9546 0.8251 0.0
C824 C 0.65289 0.98185 0.73468 0.0
C825 C 0.66924 0.03328 0.66353 0.0
C826 C 0.66865 0.01905 0.70271 0.0
C827 C 0.64357 0.97532 0.8199 0.0
C828 C 0.65592 0.9903 0.78043 0.0
H829 H 0.70112 0.08468 0.61623 0.0
H830 H 0.70238 0.06027 0.67694 0.0
H831 H 0.65524 0.98915 0.66114 0.0
H832 H 0.60679 0.97026 0.90411 0.0
H833 H 0.63128 0.9964 0.8457 0.0
C834 C 0.6562 0.58794 0.82696 0.0
C835 C 0.67061 0.59968 0.8638 0.0
C836 C 0.65578 0.59894 0.78646 0.0
C837 C 0.66462 0.62547 0.69656 0.0
H838 H 0.64726 0.66922 0.7225 0.0
C839 C 0.62431 0.67568 0.59628 0.0
C840 C 0.60757 0.65747 0.57199 0.0
C841 C 0.63825 0.67283 0.62725 0.0
C842 C 0.65264 0.65749 0.71435 0.0
H843 H 0.69635 0.63195 0.88692 0.0
H844 H 0.69504 0.65148 0.81604 0.0
H845 H 0.6621 0.6567 0.78557 0.0
H846 H 0.59261 0.62205 0.5609 0.0
H847 H 0.6165 0.61711 0.61505 0.0
H848 H 0.65437 0.62552 0.62588 0.0
C849 C 0.68438 0.6337 0.81853 0.0
C850 C 0.66114 0.65035 0.75048 0.0
C851 C 0.68515 0.62255 0.85884 0.0
C852 C 0.6053 0.63647 0.57891 0.0
C853 C 0.6192 0.63366 0.60965 0.0
C854 C 0.65631 0.63273 0.66041 0.0
C855 C 0.66948 0.62197 0.78229 0.0
C856 C 0.66622 0.63355 0.74228 0.0
C857 C 0.63579 0.65176 0.63429 0.0
C858 C 0.64921 0.648 0.66948 0.0
H859 H 0.64493 0.57027 0.82984 0.0
H860 H 0.64394 0.58956 0.75929 0.0
H861 H 0.66869 0.61268 0.68936 0.0
H862 H 0.62657 0.6921 0.59165 0.0
H863 H 0.65092 0.68709 0.64572 0.0
C864 C 0.94598 0.63355 0.60462 0.0
C865 C 0.94931 0.61724 0.58351 0.0
C866 C 0.96191 0.64919 0.63457 0.0
C867 C 0.01986 0.6719 0.67492 0.0
H868 H 0.99531 0.66998 0.79819 0.0
C869 C 0.07162 0.69173 0.84419 0.0
C870 C 0.06207 0.67278 0.87311 0.0
C871 C 0.0594 0.69379 0.80759 0.0
C872 C 0.00245 0.67116 0.76374 0.0
H873 H 0.97239 0.60512 0.57591 0.0
H874 H -0.00018 0.63198 0.62868 0.0
H875 H 0.97098 0.65722 0.7303 0.0
H876 H 0.03209 0.64172 0.888 0.0
H877 H 0.01091 0.64534 0.82469 0.0
H878 H 0.05101 0.68393 0.70934 0.0
C879 C 0.98509 0.63296 0.62155 0.0
C880 C 0.98856 0.66397 0.72482 0.0
C881 C 0.96917 0.61731 0.59187 0.0
C882 C 0.03998 0.65637 0.86594 0.0
C883 C 0.02773 0.65861 0.83015 0.0
C884 C 0.03377 0.67912 0.71391 0.0
C885 C 0.98151 0.64888 0.64367 0.0
C886 C -0.00307 0.66294 0.68062 0.0
C887 C 0.03736 0.67719 0.80036 0.0
C888 C 0.02485 0.67741 0.75893 0.0
H889 H 0.93093 0.63408 0.5986 0.0
H890 H 0.95874 0.66127 0.65125 0.0
H891 H 0.02676 0.67166 0.64097 0.0
H892 H 0.08864 0.70465 0.84914 0.0
H893 H 0.06718 0.70814 0.78469 0.0
C894 C 0.35088 0.95989 0.59782 0.0
C895 C 0.33076 0.9406 0.58817 0.0
C896 C 0.35154 0.97575 0.62815 0.0
C897 C 0.32478 0.98261 0.72937 0.0
H898 H 0.36666 0.04443 0.70314 0.0
C899 C 0.36188 0.05227 0.87033 0.0
C900 C 0.3845 0.05909 0.87383 0.0
C901 C 0.34962 0.03982 0.83182 0.0
C902 C 0.3545 0.02732 0.71057 0.0
H903 H 0.2955 0.92278 0.60322 0.0
H904 H 0.29685 0.95063 0.65745 0.0
H905 H 0.35435 0.01753 0.63951 0.0
H906 H 0.41227 0.05915 0.8395 0.0
H907 H 0.39101 0.03795 0.77178 0.0
H908 H 0.32609 0.99237 0.80115 0.0
C909 C 0.31199 0.95338 0.64083 0.0
C910 C 0.34756 0.01194 0.67439 0.0
C911 C 0.31128 0.93747 0.60998 0.0
C912 C 0.39483 0.05394 0.83774 0.0
C913 C 0.38275 0.04203 0.79892 0.0
C914 C 0.33159 -0.00191 0.76559 0.0
C915 C 0.33214 0.97274 0.64978 0.0
C916 C 0.33376 0.98929 0.6841 0.0
C917 C 0.36005 0.03471 0.7959 0.0
C918 C 0.34747 0.02028 0.75674 0.0
H919 H 0.36622 0.96291 0.58171 0.0
H920 H 0.36742 0.99024 0.63538 0.0
H921 H 0.31413 0.96525 0.73774 0.0
H922 H 0.35359 0.05603 0.89793 0.0
H923 H 0.33207 0.0341 0.83014 0.0
C924 C 0.35177 0.38324 0.89633 0.0
C925 C 0.33124 0.38223 0.9007 0.0
C926 C 0.35393 0.36805 0.86861 0.0
C927 C 0.33024 0.33439 0.76511 0.0
H928 H 0.37489 0.31842 0.793 0.0
C929 C 0.40321 0.33704 0.65793 0.0
C930 C 0.39286 0.32366 0.61885 0.0
C931 C 0.39097 0.33527 0.69798 0.0
C932 C 0.36205 0.32235 0.78505 0.0
H933 H 0.29665 0.36394 0.88042 0.0
H934 H 0.30055 0.33737 0.83147 0.0
H935 H 0.36063 0.33158 0.8559 0.0
H936 H 0.36183 0.29744 0.59127 0.0
H937 H 0.34013 0.295 0.66125 0.0
H938 H 0.33258 0.32623 0.69375 0.0
C939 C 0.31495 0.35004 0.84959 0.0
C940 C 0.35399 0.32998 0.82086 0.0
C941 C 0.31275 0.36528 0.87753 0.0
C942 C 0.37017 0.30794 0.62105 0.0
C943 C 0.35779 0.30651 0.6609 0.0
C944 C 0.33816 0.32653 0.72937 0.0
C945 C 0.33563 0.35142 0.84455 0.0
C946 C 0.33903 0.33736 0.81062 0.0
C947 C 0.3681 0.32036 0.69941 0.0
C948 C 0.35503 0.32168 0.73865 0.0
H949 H 0.36636 0.39599 0.91376 0.0
H950 H 0.37022 0.36992 0.86464 0.0
H951 H 0.31875 0.33997 0.75607 0.0
H952 H 0.42072 0.34914 0.65726 0.0
H953 H 0.39923 0.34638 0.72699 0.0
C954 C 0.96778 0.34413 0.9117 0.0
C955 C 0.94547 0.33233 0.89839 0.0
C956 C 0.98419 0.34548 0.88162 0.0
C957 C 0.99277 0.32463 0.76644 0.0
H958 H 0.04423 0.38351 0.76032 0.0
C959 C 0.03661 0.3739 0.60189 0.0
C960 C 0.05971 0.38404 0.59925 0.0
C961 C 0.02542 0.36203 0.64189 0.0
C962 C 0.03025 0.36682 0.76233 0.0
H963 H 0.92259 0.31217 0.84425 0.0
H964 H 0.9512 0.31576 0.79014 0.0
H965 H 0.01889 0.37351 0.82614 0.0
H966 H 0.08935 0.38937 0.635 0.0
H967 H 0.06965 0.36946 0.70683 0.0
H968 H 0.00327 0.31913 0.69945 0.0
C969 C 0.95619 0.32325 0.82445 0.0
C970 C 0.01566 0.36098 0.80015 0.0
C971 C 0.93973 0.32138 0.85515 0.0
C972 C 0.07148 0.38158 0.63649 0.0
C973 C 0.0603 0.37021 0.67724 0.0
C974 C 0.00712 0.33071 0.72801 0.0
C975 C 0.97869 0.33562 0.83697 0.0
C976 C 0.99626 0.34009 0.80182 0.0
C977 C 0.03723 0.36061 0.68026 0.0
C978 C 0.02553 0.35208 0.72511 0.0
H979 H 0.97252 0.35231 0.94543 0.0
H980 H 0.00123 0.35463 0.89312 0.0
H981 H 0.9784 0.30818 0.76717 0.0
H982 H 0.02725 0.37551 0.57333 0.0
H983 H 0.00764 0.35502 0.6439 0.0
C984 C 0.48143 0.08414 0.12185 0.0
C985 C 0.48508 0.10454 0.10402 0.0
C986 C 0.49433 0.08347 0.15863 0.0
C987 C 0.53155 0.11732 0.25422 0.0
H988 H 0.55534 0.07777 0.2437 0.0
C989 C 0.60391 0.12725 0.36791 0.0
C990 C 0.60268 0.10797 0.38653 0.0
C991 C 0.58848 0.12584 0.33493 0.0
C992 C 0.5486 0.0887 0.24745 0.0
H993 H 0.50497 0.14023 0.11166 0.0
H994 H 0.52747 0.139 0.17526 0.0
H995 H 0.52975 0.07687 0.18425 0.0
H996 H 0.58428 0.07203 0.38461 0.0
H997 H 0.55733 0.06963 0.32714 0.0
H998 H 0.55059 0.12935 0.31706 0.0
C999 C 0.5145 0.12352 0.16115 0.0
C1000 C 0.53392 0.08816 0.21345 0.0
C1001 C 0.50166 0.12421 0.1244 0.0
C1002 C 0.58576 0.08723 0.37101 0.0
C1003 C 0.57035 0.08583 0.33792 0.0
C1004 C 0.54622 0.11787 0.28816 0.0
C1005 C 0.51109 0.10317 0.17847 0.0
C1006 C 0.52546 0.10266 0.21619 0.0
C1007 C 0.57149 0.10513 0.31973 0.0
C1008 C 0.5551 0.10375 0.28484 0.0
H1009 H 0.46876 0.06866 0.10711 0.0
H1010 H 0.49117 0.06753 0.1716 0.0
H1011 H 0.525 0.12843 0.25772 0.0
H1012 H 0.61674 0.14351 0.37887 0.0
H1013 H 0.59001 0.14101 0.32098 0.0
C1014 C 0.39784 0.50084 0.10265 0.0
C1015 C 0.37954 0.50175 0.08477 0.0
C1016 C 0.41177 0.51625 0.13546 0.0
C1017 C 0.41448 0.55471 0.22543 0.0
H1018 H 0.47781 0.57966 0.21016 0.0
C1019 C 0.47816 0.61873 0.35456 0.0
C1020 C 0.49534 0.61494 0.36836 0.0
C1021 C 0.46409 0.60673 0.31771 0.0
C1022 C 0.46017 0.57274 0.21506 0.0
H1023 H 0.36135 0.51946 0.08813 0.0
H1024 H 0.38582 0.54645 0.14592 0.0
H1025 H 0.45277 0.55519 0.15013 0.0
H1026 H 0.51125 0.59561 0.35386 0.0
H1027 H 0.48662 0.57461 0.29022 0.0
H1028 H 0.42188 0.57191 0.29094 0.0
C1029 C 0.38926 0.53371 0.13428 0.0
C1030 C 0.44585 0.55876 0.18069 0.0
C1031 C 0.37532 0.5183 0.10112 0.0
C1032 C 0.49823 0.59902 0.3442 0.0
C1033 C 0.4842 0.58707 0.30743 0.0
C1034 C 0.42883 0.56869 0.25997 0.0
C1035 C 0.40773 0.53293 0.15138 0.0
C1036 C 0.42285 0.54928 0.18594 0.0
C1037 C 0.46696 0.59075 0.29383 0.0
C1038 C 0.4518 0.57751 0.25551 0.0
H1039 H 0.40159 0.4883 0.09107 0.0
H1040 H 0.42566 0.51501 0.14867 0.0
H1041 H 0.39681 0.54751 0.2305 0.0
H1042 H 0.4755 0.63092 0.37227 0.0
H1043 H 0.45107 0.61006 0.30771 0.0
C1044 C 0.86761 0.48612 0.36593 0.0
C1045 C 0.88809 0.50325 0.38205 0.0
C1046 C 0.8667 0.47182 0.33072 0.0
C1047 C 0.89982 0.46671 0.23544 0.0
H1048 H 0.85798 0.40386 0.24767 0.0
C1049 C 0.90428 0.40226 0.11815 0.0
C1050 C 0.88431 0.38539 0.09938 0.0
C1051 C 0.9042 0.41632 0.15272 0.0
C1052 C 0.86958 0.42139 0.24354 0.0
H1053 H 0.9237 0.5188 0.37338 0.0
H1054 H 0.92209 0.4937 0.31243 0.0
H1055 H 0.85895 0.42933 0.3074 0.0
H1056 H 0.84853 0.36985 0.10315 0.0
H1057 H 0.84844 0.39451 0.16366 0.0
H1058 H 0.91058 0.45874 0.17183 0.0
C1059 C 0.90672 0.49152 0.32661 0.0
C1060 C 0.87013 0.43599 0.27769 0.0
C1061 C 0.90763 0.50586 0.36175 0.0
C1062 C 0.86421 0.38266 0.11676 0.0
C1063 C 0.86415 0.39673 0.15156 0.0
C1064 C 0.89931 0.45212 0.20141 0.0
C1065 C 0.88625 0.47428 0.31084 0.0
C1066 C 0.88533 0.4588 0.2741 0.0
C1067 C 0.88415 0.41384 0.16951 0.0
C1068 C 0.88427 0.4293 0.20522 0.0
H1069 H 0.8522 0.48367 0.38057 0.0
H1070 H 0.85067 0.45891 0.31885 0.0
H1071 H 0.91145 0.48423 0.2312 0.0
H1072 H 0.92009 0.40482 0.10586 0.0
H1073 H 0.91986 0.42911 0.16645 0.0
C1074 C 0.38087 0.86546 0.35469 0.0
C1075 C 0.3831 0.8853 0.3722 0.0
C1076 C 0.39457 0.86586 0.3185 0.0
C1077 C 0.44873 0.90214 0.26444 0.0
H1078 H 0.42592 0.85983 0.16255 0.0
C1079 C 0.50223 0.90742 0.10526 0.0
C1080 C 0.50009 0.88743 0.08899 0.0
C1081 C 0.4877 0.9073 0.13911 0.0
C1082 C 0.43256 0.8716 0.19106 0.0
H1083 H 0.40115 0.92111 0.3644 0.0
H1084 H 0.4249 0.9217 0.30112 0.0
H1085 H 0.4006 0.85936 0.22233 0.0
H1086 H 0.48106 0.85163 0.09602 0.0
H1087 H 0.45591 0.8515 0.15545 0.0
H1088 H 0.4807 0.91428 0.23346 0.0
C1089 C 0.41275 0.90589 0.3159 0.0
C1090 C 0.41807 0.87134 0.22521 0.0
C1091 C 0.39904 0.9055 0.35202 0.0
C1092 C 0.48315 0.86733 0.10757 0.0
C1093 C 0.46863 0.86723 0.14144 0.0
C1094 C 0.46322 0.90238 0.23035 0.0
C1095 C 0.41079 0.88609 0.29909 0.0
C1096 C 0.42602 0.88659 0.26228 0.0
C1097 C 0.47073 0.88721 0.15747 0.0
C1098 C 0.45529 0.88708 0.19337 0.0
H1099 H 0.36876 0.8496 0.36935 0.0
H1100 H 0.39282 0.85035 0.30651 0.0
H1101 H 0.45539 0.91386 0.29304 0.0
H1102 H 0.51504 0.9232 0.09164 0.0
H1103 H 0.48957 0.92295 0.15041 0.0
C1104 C 0.60881 0.48478 0.12014 0.0
C1105 C 0.6084 0.5031 0.10054 0.0
C1106 C 0.59368 0.47196 0.15496 0.0
C1107 C 0.55651 0.47219 0.24588 0.0
H1108 H 0.52954 0.40845 0.23551 0.0
C1109 C 0.49111 0.40944 0.37831 0.0
C1110 C 0.49473 0.39217 0.39256 0.0
C1111 C 0.50359 0.42374 0.34165 0.0
C1112 C 0.53701 0.42622 0.23902 0.0
H1113 H 0.592 0.52258 0.1032 0.0
H1114 H 0.56554 0.50006 0.16424 0.0
H1115 H 0.55417 0.43217 0.17363 0.0
H1116 H 0.51466 0.37673 0.37976 0.0
H1117 H 0.53626 0.40154 0.3167 0.0
H1118 H 0.53952 0.4661 0.3119 0.0
C1119 C 0.57764 0.49573 0.15248 0.0
C1120 C 0.55112 0.4398 0.20362 0.0
C1121 C 0.59275 0.50854 0.11738 0.0
C1122 C 0.51125 0.38971 0.36972 0.0
C1123 C 0.52359 0.40387 0.33323 0.0
C1124 C 0.54235 0.45855 0.28149 0.0
C1125 C 0.5778 0.47715 0.17118 0.0
C1126 C 0.5614 0.46292 0.20712 0.0
C1127 C 0.51979 0.4209 0.31846 0.0
C1128 C 0.53287 0.43544 0.27885 0.0
H1129 H 0.62067 0.48013 0.1083 0.0
H1130 H 0.59446 0.45796 0.16933 0.0
H1131 H 0.56426 0.48998 0.24952 0.0
H1132 H 0.47854 0.41183 0.39517 0.0
H1133 H 0.5003 0.43672 0.33089 0.0
C1134 C 0.11537 0.50406 0.35235 0.0
C1135 C 0.0966 0.48843 0.37737 0.0
C1136 C 0.1133 0.51588 0.31512 0.0
C1137 C 0.07745 0.53518 0.26638 0.0
H1138 H 0.11336 0.54511 0.15496 0.0
C1139 C 0.07722 0.58638 0.10507 0.0
C1140 C 0.09836 0.60193 0.08811 0.0
C1141 C 0.07474 0.5706 0.13864 0.0
C1142 C 0.10328 0.54252 0.18591 0.0
H1143 H 0.06087 0.47311 0.38293 0.0
H1144 H 0.05732 0.49393 0.31758 0.0
H1145 H 0.11295 0.52071 0.21688 0.0
H1146 H 0.13346 0.61313 0.09347 0.0
H1147 H 0.12908 0.58577 0.15182 0.0
H1148 H 0.06814 0.5574 0.23553 0.0
C1149 C 0.07362 0.49698 0.32713 0.0
C1150 C 0.10305 0.52858 0.22132 0.0
C1151 C 0.07568 0.48503 0.36442 0.0
C1152 C 0.11693 0.60141 0.1056 0.0
C1153 C 0.11442 0.58561 0.13881 0.0
C1154 C 0.07767 0.54916 0.23081 0.0
C1155 C 0.09242 0.5124 0.30197 0.0
C1156 C 0.09058 0.5252 0.26241 0.0
C1157 C 0.09332 0.56999 0.1555 0.0
C1158 C 0.09103 0.55336 0.1908 0.0
H1159 H 0.13176 0.50716 0.36131 0.0
H1160 H 0.12813 0.52796 0.2969 0.0
H1161 H 0.06777 0.53295 0.29779 0.0
H1162 H 0.06257 0.58634 0.0924 0.0
H1163 H 0.05828 0.55869 0.15087 0.0
C1164 C 0.48863 0.87114 0.85426 0.0
C1165 C 0.50569 0.89089 0.87338 0.0
C1166 C 0.47496 0.8717 0.81924 0.0
C1167 C 0.47085 0.90729 0.72866 0.0
H1168 H 0.40794 0.86566 0.73974 0.0
C1169 C 0.40579 0.90928 0.60562 0.0
C1170 C 0.38888 0.88869 0.58942 0.0
C1171 C 0.42035 0.91036 0.64057 0.0
C1172 C 0.42548 0.87725 0.73589 0.0
H1173 H 0.52204 0.92676 0.86964 0.0
H1174 H 0.49801 0.92765 0.80852 0.0
H1175 H 0.43308 0.86609 0.79946 0.0
H1176 H 0.37413 0.85307 0.59736 0.0
H1177 H 0.39957 0.85501 0.65779 0.0
H1178 H 0.46318 0.91836 0.66485 0.0
C1179 C 0.49536 0.91176 0.82061 0.0
C1180 C 0.43988 0.87749 0.77009 0.0
C1181 C 0.50906 0.91122 0.85576 0.0
C1182 C 0.38689 0.86923 0.60901 0.0
C1183 C 0.40141 0.87032 0.64391 0.0
C1184 C 0.45641 0.90704 0.69435 0.0
C1185 C 0.47799 0.89199 0.80242 0.0
C1186 C 0.46274 0.89236 0.76665 0.0
C1187 C 0.41827 0.89088 0.66015 0.0
C1188 C 0.43359 0.89186 0.69739 0.0
H1189 H 0.48562 0.85517 0.86664 0.0
H1190 H 0.46198 0.85618 0.80531 0.0
H1191 H 0.4884 0.91881 0.72486 0.0
H1192 H 0.40781 0.92461 0.59141 0.0
H1193 H 0.43305 0.92645 0.65269 0.0
C1194 C 0.62001 0.47722 0.87149 0.0
C1195 C 0.61463 0.49283 0.88875 0.0
C1196 C 0.60626 0.46126 0.83909 0.0
C1197 C 0.5489 0.43255 0.7971 0.0
H1198 H 0.57296 0.42217 0.68341 0.0
C1199 C 0.49604 0.39316 0.63465 0.0
C1200 C 0.49941 0.37816 0.60806 0.0
C1201 C 0.51003 0.4046 0.67176 0.0
C1202 C 0.56603 0.42458 0.7154 0.0
H1203 H 0.59068 0.50403 0.88489 0.0
H1204 H 0.56687 0.47631 0.82848 0.0
H1205 H 0.59803 0.44735 0.74295 0.0
H1206 H 0.52004 0.3632 0.6002 0.0
H1207 H 0.54457 0.38332 0.66547 0.0
H1208 H 0.51694 0.41014 0.76944 0.0
C1209 C 0.58158 0.47626 0.84043 0.0
C1210 C 0.58037 0.43901 0.74937 0.0
C1211 C 0.59534 0.49226 0.87249 0.0
C1212 C 0.51701 0.37468 0.6199 0.0
C1213 C 0.5311 0.38624 0.65711 0.0
C1214 C 0.53461 0.41811 0.7633 0.0
C1215 C 0.5868 0.46052 0.82368 0.0
C1216 C 0.57189 0.44353 0.78997 0.0
C1217 C 0.52775 0.40135 0.68331 0.0
C1218 C 0.543 0.41441 0.72157 0.0
H1219 H 0.63476 0.47721 0.88322 0.0
H1220 H 0.61062 0.44927 0.82674 0.0
H1221 H 0.54195 0.43539 0.82857 0.0
H1222 H 0.48265 0.39626 0.62665 0.0
H1223 H 0.50723 0.41641 0.69079 0.0
C1224 C 0.12699 0.50931 0.61011 0.0
C1225 C 0.10663 0.49193 0.59411 0.0
C1226 C 0.12763 0.52389 0.64444 0.0
C1227 C 0.09387 0.54566 0.69492 0.0
H1228 H 0.13539 0.56387 0.79823 0.0
C1229 C 0.08853 0.59376 0.85376 0.0
C1230 C 0.10838 0.61032 0.87354 0.0
C1231 C 0.0888 0.58 0.81862 0.0
C1232 C 0.12391 0.55921 0.76923 0.0
H1233 H 0.07096 0.47606 0.60256 0.0
H1234 H 0.07216 0.50144 0.66244 0.0
H1235 H 0.13497 0.5382 0.73974 0.0
H1236 H 0.14417 0.62569 0.87084 0.0
H1237 H 0.14463 0.6019 0.80899 0.0
H1238 H 0.08285 0.5667 0.72411 0.0
C1239 C 0.08761 0.50391 0.648 0.0
C1240 C 0.12364 0.54446 0.73581 0.0
C1241 C 0.08695 0.48927 0.61388 0.0
C1242 C 0.12855 0.61304 0.85664 0.0
C1243 C 0.12882 0.5993 0.82136 0.0
C1244 C 0.09419 0.56047 0.72819 0.0
C1245 C 0.10793 0.52148 0.66335 0.0
C1246 C 0.10852 0.53742 0.69848 0.0
C1247 C 0.10894 0.58249 0.80221 0.0
C1248 C 0.10912 0.56732 0.76591 0.0
H1249 H 0.14247 0.51187 0.59573 0.0
H1250 H 0.14354 0.53737 0.65538 0.0
H1251 H 0.08228 0.54083 0.66607 0.0
H1252 H 0.07267 0.59111 0.86597 0.0
H1253 H 0.07317 0.56704 0.8051 0.0
C1254 C 0.59387 0.0922 0.62267 0.0
C1255 C 0.60983 0.11235 0.60227 0.0
C1256 C 0.58023 0.09192 0.65884 0.0
C1257 C 0.55785 0.12517 0.70886 0.0
H1258 H 0.54276 0.08503 0.81492 0.0
C1259 C 0.50937 0.1288 0.86885 0.0
C1260 C 0.49257 0.10855 0.88718 0.0
C1261 C 0.5239 0.12923 0.83466 0.0
C1262 C 0.54665 0.09616 0.78526 0.0
H1263 H 0.62429 0.14806 0.60491 0.0
H1264 H 0.6006 0.14752 0.66842 0.0
H1265 H 0.56837 0.08618 0.75506 0.0
H1266 H 0.47789 0.07283 0.88371 0.0
H1267 H 0.50325 0.07364 0.82368 0.0
H1268 H 0.53613 0.13514 0.73898 0.0
C1269 C 0.59845 0.13193 0.65581 0.0
C1270 C 0.56133 0.09684 0.75104 0.0
C1271 C 0.61211 0.13223 0.61959 0.0
C1272 C 0.49066 0.08872 0.87044 0.0
C1273 C 0.50525 0.08917 0.83626 0.0
C1274 C 0.54322 0.12451 0.74309 0.0
C1275 C 0.58224 0.11176 0.67551 0.0
C1276 C 0.56706 0.11134 0.71246 0.0
C1277 C 0.522 0.10943 0.81801 0.0
C1278 C 0.53746 0.11 0.78162 0.0
H1279 H 0.59163 0.07655 0.61025 0.0
H1280 H 0.56774 0.07609 0.67295 0.0
H1281 H 0.56164 0.13623 0.67912 0.0
H1282 H 0.51138 0.1444 0.88094 0.0
H1283 H 0.53681 0.1451 0.82168 0.0
C1284 C 0.48037 0.60402 0.60112 0.0
C1285 C 0.49893 0.60366 0.58291 0.0
C1286 C 0.46667 0.58832 0.63414 0.0
C1287 C 0.46497 0.55015 0.72443 0.0
H1288 H 0.4015 0.52432 0.71071 0.0
C1289 C 0.40158 0.48665 0.85723 0.0
C1290 C 0.38453 0.49069 0.87084 0.0
C1291 C 0.41564 0.49837 0.81977 0.0
C1292 C 0.41918 0.53146 0.71514 0.0
H1293 H 0.51778 0.58662 0.58589 0.0
H1294 H 0.49373 0.55916 0.64409 0.0
H1295 H 0.42617 0.54874 0.64956 0.0
H1296 H 0.36891 0.51023 0.85543 0.0
H1297 H 0.39343 0.53066 0.79077 0.0
H1298 H 0.45794 0.53323 0.79066 0.0
C1299 C 0.4899 0.57167 0.63251 0.0
C1300 C 0.43329 0.54542 0.68014 0.0
C1301 C 0.5036 0.58735 0.59911 0.0
C1302 C 0.38182 0.50662 0.846 0.0
C1303 C 0.39578 0.51825 0.80861 0.0
C1304 C 0.45081 0.53618 0.75961 0.0
C1305 C 0.47119 0.57191 0.64998 0.0
C1306 C 0.45634 0.55531 0.68491 0.0
C1307 C 0.41283 0.51426 0.79504 0.0
C1308 C 0.4278 0.52711 0.75577 0.0
H1309 H 0.47625 0.61633 0.58963 0.0
H1310 H 0.45258 0.58915 0.64761 0.0
H1311 H 0.48268 0.55764 0.72909 0.0
H1312 H 0.40413 0.47447 0.87554 0.0
H1313 H 0.42856 0.49487 0.8099 0.0
C1314 C 0.87996 0.49289 0.62605 0.0
C1315 C 0.89841 0.50787 0.59931 0.0
C1316 C 0.88237 0.48115 0.6631 0.0
C1317 C 0.91791 0.4606 0.70803 0.0
H1318 H 0.88494 0.45287 0.82307 0.0
C1319 C 0.91896 0.40887 0.86819 0.0
C1320 C 0.89791 0.3942 0.88693 0.0
C1321 C 0.92162 0.42481 0.83477 0.0
C1322 C 0.89421 0.45485 0.79112 0.0
H1323 H 0.93391 0.52214 0.59058 0.0
H1324 H 0.93802 0.50149 0.65545 0.0
H1325 H 0.88478 0.47709 0.7614 0.0
H1326 H 0.86314 0.38474 0.8847 0.0
H1327 H 0.8678 0.41225 0.82679 0.0
H1328 H 0.92689 0.43788 0.73757 0.0
C1329 C 0.92171 0.49887 0.64745 0.0
C1330 C 0.8941 0.46868 0.75583 0.0
C1331 C 0.91934 0.51075 0.61045 0.0
C1332 C 0.87962 0.39575 0.87129 0.0
C1333 C 0.8823 0.41167 0.83828 0.0
C1334 C 0.918 0.4467 0.74345 0.0
C1335 C 0.90325 0.48404 0.67427 0.0
C1336 C 0.90547 0.47127 0.71346 0.0
C1337 C 0.9033 0.42647 0.81988 0.0
C1338 C 0.90566 0.44325 0.7848 0.0
H1339 H 0.8636 0.49023 0.61853 0.0
H1340 H 0.86778 0.46956 0.68269 0.0
H1341 H 0.92676 0.46223 0.67563 0.0
H1342 H 0.93339 0.40811 0.8794 0.0
H1343 H 0.938 0.43605 0.82114 0.0
loop_
_geom_bond_atom_site_label_1
_geom_bond_atom_site_label_2
_geom_bond_distance
_geom_bond_site_symmetry_2
_ccdc_geom_bond_type
Sc0 O3 2.025 . S
Sc0 O10 2.105 1_554 S
Sc0 O13 2.105 . S
Sc0 O16 2.105 . S
Sc0 O19 2.105 1_554 S
Sc1 O3 2.025 . S
Sc1 O11 2.105 1_554 S
Sc1 O15 2.105 . S
Sc1 O17 2.105 . S
Sc1 O21 2.105 1_554 S
Sc2 O3 2.025 . S
Sc2 O12 2.105 1_554 S
Sc2 O14 2.105 . S
Sc2 O18 2.105 . S
Sc2 O20 2.105 1_554 S
O3 Sc0 2.025 . S
O3 Sc1 2.025 . S
O3 Sc2 2.025 . S
C4 O10 1.268 . S
C4 O20 1.268 . S
C5 O11 1.268 . S
C5 O19 1.268 . S
C6 O12 1.268 . S
C6 O21 1.268 . S
C7 O13 1.268 . S
C7 O17 1.268 . S
C8 O14 1.268 . S
C8 O16 1.268 . S
C9 O15 1.268 . S
C9 O18 1.268 . S
O10 Sc0 2.105 1_556 S
O10 C4 1.268 . S
O11 Sc1 2.105 1_556 S
O11 C5 1.268 . S
O12 Sc2 2.105 1_556 S
O12 C6 1.268 . S
O13 Sc0 2.105 . S
O13 C7 1.268 . S
O14 Sc2 2.105 . S
O14 C8 1.268 . S
O15 Sc1 2.105 . S
O15 C9 1.268 . S
O16 Sc0 2.105 . S
O16 C8 1.268 . S
O17 Sc1 2.105 . S
O17 C7 1.268 . S
O18 Sc2 2.105 . S
O18 C9 1.268 . S
O19 Sc0 2.105 1_556 S
O19 C5 1.268 . S
O20 Sc2 2.105 1_556 S
O20 C4 1.268 . S
O21 Sc1 2.105 1_556 S
O21 C6 1.268 . S
Sc22 O25 2.025 . S
Sc22 O32 2.105 1_554 S
Sc22 O35 2.105 . S
Sc22 O38 2.105 . S
Sc22 O41 2.105 1_554 S
Sc23 O25 2.025 . S
Sc23 O33 2.105 1_554 S
Sc23 O37 2.105 . S
Sc23 O39 2.105 . S
Sc23 O43 2.105 1_554 S
Sc24 O25 2.025 . S
Sc24 O34 2.105 1_554 S
Sc24 O36 2.105 . S
Sc24 O40 2.105 . S
Sc24 O42 2.105 1_554 S
O25 Sc22 2.025 . S
O25 Sc23 2.025 . S
O25 Sc24 2.025 . S
C26 O32 1.268 . S
C26 O42 1.268 . S
C27 O33 1.268 . S
C27 O41 1.268 . S
C28 O34 1.268 . S
C28 O43 1.268 . S
C29 O35 1.268 . S
C29 O39 1.268 . S
C30 O36 1.268 . S
C30 O38 1.268 . S
C31 O37 1.268 . S
C31 O40 1.268 . S
O32 Sc22 2.105 1_556 S
O32 C26 1.268 . S
O33 Sc23 2.105 1_556 S
O33 C27 1.268 . S
O34 Sc24 2.105 1_556 S
O34 C28 1.268 . S
O35 Sc22 2.105 . S
O35 C29 1.268 . S
O36 Sc24 2.105 . S
O36 C30 1.268 . S
O37 Sc23 2.105 . S
O37 C31 1.268 . S
O38 Sc22 2.105 . S
O38 C30 1.268 . S
O39 Sc23 2.105 . S
O39 C29 1.268 . S
O40 Sc24 2.105 . S
O40 C31 1.268 . S
O41 Sc22 2.105 1_556 S
O41 C27 1.268 . S
O42 Sc24 2.105 1_556 S
O42 C26 1.268 . S
O43 Sc23 2.105 1_556 S
O43 C28 1.268 . S
Sc44 O47 2.025 . S
Sc44 O54 2.105 1_554 S
Sc44 O57 2.105 . S
Sc44 O60 2.105 . S
Sc44 O63 2.105 1_554 S
Sc45 O47 2.025 . S
Sc45 O55 2.105 1_554 S
Sc45 O59 2.105 . S
Sc45 O61 2.105 . S
Sc45 O65 2.105 1_554 S
Sc46 O47 2.025 . S
Sc46 O56 2.105 1_554 S
Sc46 O58 2.105 . S
Sc46 O62 2.105 . S
Sc46 O64 2.105 1_554 S
O47 Sc44 2.025 . S
O47 Sc45 2.025 . S
O47 Sc46 2.025 . S
C48 O54 1.268 . S
C48 O64 1.268 . S
C49 O55 1.268 . S
C49 O63 1.268 . S
C50 O56 1.268 . S
C50 O65 1.268 . S
C51 O57 1.268 . S
C51 O61 1.268 . S
C52 O58 1.268 . S
C52 O60 1.268 . S
C53 O59 1.268 . S
C53 O62 1.268 . S
O54 Sc44 2.105 1_556 S
O54 C48 1.268 . S
O55 Sc45 2.105 1_556 S
O55 C49 1.268 . S
O56 Sc46 2.105 1_556 S
O56 C50 1.268 . S
O57 Sc44 2.105 . S
O57 C51 1.268 . S
O58 Sc46 2.105 . S
O58 C52 1.268 . S
O59 Sc45 2.105 . S
O59 C53 1.268 . S
O60 Sc44 2.105 . S
O60 C52 1.268 . S
O61 Sc45 2.105 . S
O61 C51 1.268 . S
O62 Sc46 2.105 . S
O62 C53 1.268 . S
O63 Sc44 2.105 1_556 S
O63 C49 1.268 . S
O64 Sc46 2.105 1_556 S
O64 C48 1.268 . S
O65 Sc45 2.105 1_556 S
O65 C50 1.268 . S
Sc66 O69 2.025 . S
Sc66 O76 2.105 1_554 S
Sc66 O79 2.105 . S
Sc66 O82 2.105 . S
Sc66 O85 2.105 1_554 S
Sc67 O69 2.025 . S
Sc67 O77 2.105 1_554 S
Sc67 O81 2.105 . S
Sc67 O83 2.105 . S
Sc67 O87 2.105 1_554 S
Sc68 O69 2.025 . S
Sc68 O78 2.105 1_554 S
Sc68 O80 2.105 . S
Sc68 O84 2.105 . S
Sc68 O86 2.105 1_554 S
O69 Sc66 2.025 . S
O69 Sc67 2.025 . S
O69 Sc68 2.025 . S
C70 O76 1.268 . S
C70 O86 1.268 . S
C71 O77 1.268 . S
C71 O85 1.268 . S
C72 O78 1.268 . S
C72 O87 1.268 . S
C73 O79 1.268 . S
C73 O83 1.268 . S
C74 O80 1.268 . S
C74 O82 1.268 . S
C75 O81 1.268 . S
C75 O84 1.268 . S
O76 Sc66 2.105 1_556 S
O76 C70 1.268 . S
O77 Sc67 2.105 1_556 S
O77 C71 1.268 . S
O78 Sc68 2.105 1_556 S
O78 C72 1.268 . S
O79 Sc66 2.105 . S
O79 C73 1.268 . S
O80 Sc68 2.105 . S
O80 C74 1.268 . S
O81 Sc67 2.105 . S
O81 C75 1.268 . S
O82 Sc66 2.105 . S
O82 C74 1.268 . S
O83 Sc67 2.105 . S
O83 C73 1.268 . S
O84 Sc68 2.105 . S
O84 C75 1.268 . S
O85 Sc66 2.105 1_556 S
O85 C71 1.268 . S
O86 Sc68 2.105 1_556 S
O86 C70 1.268 . S
O87 Sc67 2.105 1_556 S
O87 C72 1.268 . S
Sc88 O91 2.025 . S
Sc88 O98 2.105 1_554 S
Sc88 O101 2.105 . S
Sc88 O104 2.105 . S
Sc88 O107 2.105 1_554 S
Sc89 O91 2.025 . S
Sc89 O99 2.105 1_554 S
Sc89 O103 2.105 . S
Sc89 O105 2.105 . S
Sc89 O109 2.105 1_554 S
Sc90 O91 2.025 . S
Sc90 O100 2.105 1_554 S
Sc90 O102 2.105 . S
Sc90 O106 2.105 . S
Sc90 O108 2.105 1_554 S
O91 Sc88 2.025 . S
O91 Sc89 2.025 . S
O91 Sc90 2.025 . S
C92 O98 1.268 . S
C92 O108 1.268 . S
C93 O99 1.268 . S
C93 O107 1.268 . S
C94 O100 1.268 . S
C94 O109 1.268 . S
C95 O101 1.268 . S
C95 O105 1.268 . S
C96 O102 1.268 . S
C96 O104 1.268 . S
C97 O103 1.268 . S
C97 O106 1.268 . S
O98 Sc88 2.105 1_556 S
O98 C92 1.268 . S
O99 Sc89 2.105 1_556 S
O99 C93 1.268 . S
O100 Sc90 2.105 1_556 S
O100 C94 1.268 . S
O101 Sc88 2.105 . S
O101 C95 1.268 . S
O102 Sc90 2.105 . S
O102 C96 1.268 . S
O103 Sc89 2.105 . S
O103 C97 1.268 . S
O104 Sc88 2.105 . S
O104 C96 1.268 . S
O105 Sc89 2.105 . S
O105 C95 1.268 . S
O106 Sc90 2.105 . S
O106 C97 1.268 . S
O107 Sc88 2.105 1_556 S
O107 C93 1.268 . S
O108 Sc90 2.105 1_556 S
O108 C92 1.268 . S
O109 Sc89 2.105 1_556 S
O109 C94 1.268 . S
Sc110 O113 2.025 . S
Sc110 O120 2.105 1_554 S
Sc110 O123 2.105 . S
Sc110 O126 2.105 . S
Sc110 O129 2.105 1_554 S
Sc111 O113 2.025 . S
Sc111 O121 2.105 1_554 S
Sc111 O125 2.105 . S
Sc111 O127 2.105 . S
Sc111 O131 2.105 1_554 S
Sc112 O113 2.025 . S
Sc112 O122 2.105 1_554 S
Sc112 O124 2.105 . S
Sc112 O128 2.105 . S
Sc112 O130 2.105 1_554 S
O113 Sc110 2.025 . S
O113 Sc111 2.025 . S
O113 Sc112 2.025 . S
C114 O120 1.268 . S
C114 O130 1.268 . S
C115 O121 1.268 . S
C115 O129 1.268 . S
C116 O122 1.268 . S
C116 O131 1.268 . S
C117 O123 1.268 . S
C117 O127 1.268 . S
C118 O124 1.268 . S
C118 O126 1.268 . S
C119 O125 1.268 . S
C119 O128 1.268 . S
O120 Sc110 2.105 1_556 S
O120 C114 1.268 . S
O121 Sc111 2.105 1_556 S
O121 C115 1.268 . S
O122 Sc112 2.105 1_556 S
O122 C116 1.268 . S
O123 Sc110 2.105 . S
O123 C117 1.268 . S
O124 Sc112 2.105 . S
O124 C118 1.268 . S
O125 Sc111 2.105 . S
O125 C119 1.268 . S
O126 Sc110 2.105 . S
O126 C118 1.268 . S
O127 Sc111 2.105 . S
O127 C117 1.268 . S
O128 Sc112 2.105 . S
O128 C119 1.268 . S
O129 Sc110 2.105 1_556 S
O129 C115 1.268 . S
O130 Sc112 2.105 1_556 S
O130 C114 1.268 . S
O131 Sc111 2.105 1_556 S
O131 C116 1.268 . S
Sc132 O135 2.025 . S
Sc132 O142 2.105 . S
Sc132 O145 2.105 . S
Sc132 O148 2.105 . S
Sc132 O151 2.105 . S
Sc133 O135 2.025 . S
Sc133 O143 2.105 . S
Sc133 O147 2.105 . S
Sc133 O149 2.105 . S
Sc133 O153 2.105 . S
Sc134 O135 2.025 . S
Sc134 O144 2.105 . S
Sc134 O146 2.105 . S
Sc134 O150 2.105 . S
Sc134 O152 2.105 . S
O135 Sc132 2.025 . S
O135 Sc133 2.025 . S
O135 Sc134 2.025 . S
C136 O142 1.268 . S
C136 O152 1.268 . S
C137 O143 1.268 . S
C137 O151 1.268 . S
C138 O144 1.268 . S
C138 O153 1.268 . S
C139 O145 1.268 . S
C139 O149 1.268 . S
C140 O146 1.268 . S
C140 O148 1.268 . S
C141 O147 1.268 . S
C141 O150 1.268 . S
O142 Sc132 2.105 . S
O142 C136 1.268 . S
O143 Sc133 2.105 . S
O143 C137 1.268 . S
O144 Sc134 2.105 . S
O144 C138 1.268 . S
O145 Sc132 2.105 . S
O145 C139 1.268 . S
O146 Sc134 2.105 . S
O146 C140 1.268 . S
O147 Sc133 2.105 . S
O147 C141 1.268 . S
O148 Sc132 2.105 . S
O148 C140 1.268 . S
O149 Sc133 2.105 . S
O149 C139 1.268 . S
O150 Sc134 2.105 . S
O150 C141 1.268 . S
O151 Sc132 2.105 . S
O151 C137 1.268 . S
O152 Sc134 2.105 . S
O152 C136 1.268 . S
O153 Sc133 2.105 . S
O153 C138 1.268 . S
Sc154 O157 2.025 . S
Sc154 O164 2.105 . S
Sc154 O167 2.105 . S
Sc154 O170 2.105 . S
Sc154 O173 2.105 . S
Sc155 O157 2.025 . S
Sc155 O165 2.105 . S
Sc155 O169 2.105 . S
Sc155 O171 2.105 . S
Sc155 O175 2.105 . S
Sc156 O157 2.025 . S
Sc156 O166 2.105 . S
Sc156 O168 2.105 . S
Sc156 O172 2.105 . S
Sc156 O174 2.105 . S
O157 Sc154 2.025 . S
O157 Sc155 2.025 . S
O157 Sc156 2.025 . S
C158 O164 1.268 . S
C158 O174 1.268 . S
C159 O165 1.268 . S
C159 O173 1.268 . S
C160 O166 1.268 . S
C160 O175 1.268 . S
C161 O167 1.268 . S
C161 O171 1.268 . S
C162 O168 1.268 . S
C162 O170 1.268 . S
C163 O169 1.268 . S
C163 O172 1.268 . S
O164 Sc154 2.105 . S
O164 C158 1.268 . S
O165 Sc155 2.105 . S
O165 C159 1.268 . S
O166 Sc156 2.105 . S
O166 C160 1.268 . S
O167 Sc154 2.105 . S
O167 C161 1.268 . S
O168 Sc156 2.105 . S
O168 C162 1.268 . S
O169 Sc155 2.105 . S
O169 C163 1.268 . S
O170 Sc154 2.105 . S
O170 C162 1.268 . S
O171 Sc155 2.105 . S
O171 C161 1.268 . S
O172 Sc156 2.105 . S
O172 C163 1.268 . S
O173 Sc154 2.105 . S
O173 C159 1.268 . S
O174 Sc156 2.105 . S
O174 C158 1.268 . S
O175 Sc155 2.105 . S
O175 C160 1.268 . S
Sc176 O179 2.025 . S
Sc176 O186 2.105 . S
Sc176 O189 2.105 . S
Sc176 O192 2.105 . S
Sc176 O195 2.105 . S
Sc177 O179 2.025 . S
Sc177 O187 2.105 . S
Sc177 O191 2.105 . S
Sc177 O193 2.105 . S
Sc177 O197 2.105 . S
Sc178 O179 2.025 . S
Sc178 O188 2.105 . S
Sc178 O190 2.105 . S
Sc178 O194 2.105 . S
Sc178 O196 2.105 . S
O179 Sc176 2.025 . S
O179 Sc177 2.025 . S
O179 Sc178 2.025 . S
C180 O186 1.268 . S
C180 O196 1.268 . S
C181 O187 1.268 . S
C181 O195 1.268 . S
C182 O188 1.268 . S
C182 O197 1.268 . S
C183 O189 1.268 . S
C183 O193 1.268 . S
C184 O190 1.268 . S
C184 O192 1.268 . S
C185 O191 1.268 . S
C185 O194 1.268 . S
O186 Sc176 2.105 . S
O186 C180 1.268 . S
O187 Sc177 2.105 . S
O187 C181 1.268 . S
O188 Sc178 2.105 . S
O188 C182 1.268 . S
O189 Sc176 2.105 . S
O189 C183 1.268 . S
O190 Sc178 2.105 . S
O190 C184 1.268 . S
O191 Sc177 2.105 . S
O191 C185 1.268 . S
O192 Sc176 2.105 . S
O192 C184 1.268 . S
O193 Sc177 2.105 . S
O193 C183 1.268 . S
O194 Sc178 2.105 . S
O194 C185 1.268 . S
O195 Sc176 2.105 . S
O195 C181 1.268 . S
O196 Sc178 2.105 . S
O196 C180 1.268 . S
O197 Sc177 2.105 . S
O197 C182 1.268 . S
Sc198 O201 2.025 . S
Sc198 O208 2.105 . S
Sc198 O211 2.105 . S
Sc198 O214 2.105 . S
Sc198 O217 2.105 . S
Sc199 O201 2.025 . S
Sc199 O209 2.105 . S
Sc199 O213 2.105 . S
Sc199 O215 2.105 . S
Sc199 O219 2.105 . S
Sc200 O201 2.025 . S
Sc200 O210 2.105 . S
Sc200 O212 2.105 . S
Sc200 O216 2.105 . S
Sc200 O218 2.105 . S
O201 Sc198 2.025 . S
O201 Sc199 2.025 . S
O201 Sc200 2.025 . S
C202 O208 1.268 . S
C202 O218 1.268 . S
C203 O209 1.268 . S
C203 O217 1.268 . S
C204 O210 1.268 . S
C204 O219 1.268 . S
C205 O211 1.268 . S
C205 O215 1.268 . S
C206 O212 1.268 . S
C206 O214 1.268 . S
C207 O213 1.268 . S
C207 O216 1.268 . S
O208 Sc198 2.105 . S
O208 C202 1.268 . S
O209 Sc199 2.105 . S
O209 C203 1.268 . S
O210 Sc200 2.105 . S
O210 C204 1.268 . S
O211 Sc198 2.105 . S
O211 C205 1.268 . S
O212 Sc200 2.105 . S
O212 C206 1.268 . S
O213 Sc199 2.105 . S
O213 C207 1.268 . S
O214 Sc198 2.105 . S
O214 C206 1.268 . S
O215 Sc199 2.105 . S
O215 C205 1.268 . S
O216 Sc200 2.105 . S
O216 C207 1.268 . S
O217 Sc198 2.105 . S
O217 C203 1.268 . S
O218 Sc200 2.105 . S
O218 C202 1.268 . S
O219 Sc199 2.105 . S
O219 C204 1.268 . S
Sc220 O223 2.025 . S
Sc220 O230 2.105 . S
Sc220 O233 2.105 . S
Sc220 O236 2.105 . S
Sc220 O239 2.105 . S
Sc221 O223 2.025 . S
Sc221 O231 2.105 . S
Sc221 O235 2.105 . S
Sc221 O237 2.105 . S
Sc221 O241 2.105 . S
Sc222 O223 2.025 . S
Sc222 O232 2.105 . S
Sc222 O234 2.105 . S
Sc222 O238 2.105 . S
Sc222 O240 2.105 . S
O223 Sc220 2.025 . S
O223 Sc221 2.025 . S
O223 Sc222 2.025 . S
C224 O230 1.268 . S
C224 O240 1.268 . S
C225 O231 1.268 . S
C225 O239 1.268 . S
C226 O232 1.268 . S
C226 O241 1.268 . S
C227 O233 1.268 . S
C227 O237 1.268 . S
C228 O234 1.268 . S
C228 O236 1.268 . S
C229 O235 1.268 . S
C229 O238 1.268 . S
O230 Sc220 2.105 . S
O230 C224 1.268 . S
O231 Sc221 2.105 . S
O231 C225 1.268 . S
O232 Sc222 2.105 . S
O232 C226 1.268 . S
O233 Sc220 2.105 . S
O233 C227 1.268 . S
O234 Sc222 2.105 . S
O234 C228 1.268 . S
O235 Sc221 2.105 . S
O235 C229 1.268 . S
O236 Sc220 2.105 . S
O236 C228 1.268 . S
O237 Sc221 2.105 . S
O237 C227 1.268 . S
O238 Sc222 2.105 . S
O238 C229 1.268 . S
O239 Sc220 2.105 . S
O239 C225 1.268 . S
O240 Sc222 2.105 . S
O240 C224 1.268 . S
O241 Sc221 2.105 . S
O241 C226 1.268 . S
Sc242 O245 2.025 . S
Sc242 O252 2.105 . S
Sc242 O255 2.105 . S
Sc242 O258 2.105 . S
Sc242 O261 2.105 . S
Sc243 O245 2.025 . S
Sc243 O253 2.105 . S
Sc243 O257 2.105 . S
Sc243 O259 2.105 . S
Sc243 O263 2.105 . S
Sc244 O245 2.025 . S
Sc244 O254 2.105 . S
Sc244 O256 2.105 . S
Sc244 O260 2.105 . S
Sc244 O262 2.105 . S
O245 Sc242 2.025 . S
O245 Sc243 2.025 . S
O245 Sc244 2.025 . S
C246 O252 1.268 . S
C246 O262 1.268 . S
C247 O253 1.268 . S
C247 O261 1.268 . S
C248 O254 1.268 . S
C248 O263 1.268 . S
C249 O255 1.268 . S
C249 O259 1.268 . S
C250 O256 1.268 . S
C250 O258 1.268 . S
C251 O257 1.268 . S
C251 O260 1.268 . S
O252 Sc242 2.105 . S
O252 C246 1.268 . S
O253 Sc243 2.105 . S
O253 C247 1.268 . S
O254 Sc244 2.105 . S
O254 C248 1.268 . S
O255 Sc242 2.105 . S
O255 C249 1.268 . S
O256 Sc244 2.105 . S
O256 C250 1.268 . S
O257 Sc243 2.105 . S
O257 C251 1.268 . S
O258 Sc242 2.105 . S
O258 C250 1.268 . S
O259 Sc243 2.105 . S
O259 C249 1.268 . S
O260 Sc244 2.105 . S
O260 C251 1.268 . S
O261 Sc242 2.105 . S
O261 C247 1.268 . S
O262 Sc244 2.105 . S
O262 C246 1.268 . S
O263 Sc243 2.105 . S
O263 C248 1.268 . S
C264 C265 1.349 . S
C264 C266 1.327 . S
C264 H289 0.950 . S
C265 C264 1.349 . S
C265 C281 1.349 . S
C266 C264 1.327 . S
C266 C285 1.429 . S
C266 H290 0.950 . S
C267 C284 1.574 . S
C267 C286 1.368 . S
C267 H291 0.949 . S
H268 C272 0.949 . S
C269 C270 1.349 . S
C269 C271 1.327 . S
C269 H292 0.950 . S
C270 C269 1.349 . S
C270 C282 1.349 . S
C271 C269 1.327 . S
C271 C287 1.429 . S
C271 H293 0.950 . S
C272 H268 0.949 . S
C272 C280 1.574 . S
C272 C288 1.368 . S
H273 C281 0.950 . S
H274 C279 0.950 . S
H275 C280 0.949 . S
H276 C282 0.950 . S
H277 C283 0.950 . S
H278 C284 0.949 . S
C279 H274 0.950 . S
C279 C281 1.327 . S
C279 C285 1.429 . S
C280 C272 1.574 . S
C280 H275 0.949 . S
C280 C286 1.368 . S
C281 C265 1.349 . S
C281 H273 0.950 . S
C281 C279 1.327 . S
C282 C270 1.349 . S
C282 H276 0.950 . S
C282 C283 1.327 . S
C283 H277 0.950 . S
C283 C282 1.327 . S
C283 C287 1.429 . S
C284 C267 1.574 . S
C284 H278 0.949 . S
C284 C288 1.368 . S
C285 C266 1.429 . S
C285 C279 1.429 . S
C285 C286 1.523 . S
C286 C267 1.368 . S
C286 C280 1.368 . S
C286 C285 1.523 . S
C287 C271 1.429 . S
C287 C283 1.429 . S
C287 C288 1.523 . S
C288 C272 1.368 . S
C288 C284 1.368 . S
C288 C287 1.523 . S
H289 C264 0.950 . S
H290 C266 0.950 . S
H291 C267 0.949 . S
H292 C269 0.950 . S
H293 C271 0.950 . S
C294 C295 1.349 . S
C294 C296 1.327 . S
C294 H319 0.950 . S
C295 C294 1.349 . S
C295 C311 1.349 . S
C296 C294 1.327 . S
C296 C315 1.429 . S
C296 H320 0.950 . S
C297 C314 1.574 . S
C297 C316 1.368 . S
C297 H321 0.949 . S
H298 C302 0.949 . S
C299 C300 1.349 . S
C299 C301 1.327 . S
C299 H322 0.950 . S
C300 C299 1.349 . S
C300 C312 1.349 . S
C301 C299 1.327 . S
C301 C317 1.429 . S
C301 H323 0.950 . S
C302 H298 0.949 . S
C302 C310 1.574 . S
C302 C318 1.368 . S
H303 C311 0.950 . S
H304 C309 0.950 . S
H305 C310 0.949 . S
H306 C312 0.950 . S
H307 C313 0.950 . S
H308 C314 0.949 . S
C309 H304 0.950 . S
C309 C311 1.327 . S
C309 C315 1.429 . S
C310 C302 1.574 . S
C310 H305 0.949 . S
C310 C316 1.368 . S
C311 C295 1.349 . S
C311 H303 0.950 . S
C311 C309 1.327 . S
C312 C300 1.349 . S
C312 H306 0.950 . S
C312 C313 1.327 . S
C313 H307 0.950 . S
C313 C312 1.327 . S
C313 C317 1.429 . S
C314 C297 1.574 . S
C314 H308 0.949 . S
C314 C318 1.368 . S
C315 C296 1.429 . S
C315 C309 1.429 . S
C315 C316 1.523 . S
C316 C297 1.368 . S
C316 C310 1.368 . S
C316 C315 1.523 . S
C317 C301 1.429 . S
C317 C313 1.429 . S
C317 C318 1.523 . S
C318 C302 1.368 . S
C318 C314 1.368 . S
C318 C317 1.523 . S
H319 C294 0.950 . S
H320 C296 0.950 . S
H321 C297 0.949 . S
H322 C299 0.950 . S
H323 C301 0.950 . S
C324 C325 1.349 . S
C324 C326 1.327 . S
C324 H349 0.950 . S
C325 C324 1.349 . S
C325 C341 1.349 . S
C326 C324 1.327 . S
C326 C345 1.429 . S
C326 H350 0.950 . S
C327 C344 1.574 . S
C327 C346 1.368 . S
C327 H351 0.949 . S
H328 C332 0.949 . S
C329 C330 1.349 . S
C329 C331 1.327 . S
C329 H352 0.950 . S
C330 C329 1.349 . S
C330 C342 1.349 . S
C331 C329 1.327 . S
C331 C347 1.429 . S
C331 H353 0.950 . S
C332 H328 0.949 . S
C332 C340 1.574 . S
C332 C348 1.368 . S
H333 C341 0.950 . S
H334 C339 0.950 . S
H335 C340 0.949 . S
H336 C342 0.950 . S
H337 C343 0.950 . S
H338 C344 0.949 . S
C339 H334 0.950 . S
C339 C341 1.327 . S
C339 C345 1.429 . S
C340 C332 1.574 . S
C340 H335 0.949 . S
C340 C346 1.368 . S
C341 C325 1.349 . S
C341 H333 0.950 . S
C341 C339 1.327 . S
C342 C330 1.349 . S
C342 H336 0.950 . S
C342 C343 1.327 . S
C343 H337 0.950 . S
C343 C342 1.327 . S
C343 C347 1.429 . S
C344 C327 1.574 . S
C344 H338 0.949 . S
C344 C348 1.368 . S
C345 C326 1.429 . S
C345 C339 1.429 . S
C345 C346 1.523 . S
C346 C327 1.368 . S
C346 C340 1.368 . S
C346 C345 1.523 . S
C347 C331 1.429 . S
C347 C343 1.429 . S
C347 C348 1.523 . S
C348 C332 1.368 . S
C348 C344 1.368 . S
C348 C347 1.523 . S
H349 C324 0.950 . S
H350 C326 0.950 . S
H351 C327 0.949 . S
H352 C329 0.950 . S
H353 C331 0.950 . S
C354 C355 1.349 . S
C354 C356 1.327 . S
C354 H379 0.950 . S
C355 C354 1.349 . S
C355 C371 1.349 . S
C356 C354 1.327 . S
C356 C375 1.429 . S
C356 H380 0.950 . S
C357 C374 1.574 . S
C357 C376 1.368 . S
C357 H381 0.949 . S
H358 C362 0.949 . S
C359 C360 1.349 . S
C359 C361 1.327 . S
C359 H382 0.950 . S
C360 C359 1.349 . S
C360 C372 1.349 . S
C361 C359 1.327 . S
C361 C377 1.429 . S
C361 H383 0.950 . S
C362 H358 0.949 . S
C362 C370 1.574 . S
C362 C378 1.368 . S
H363 C371 0.950 . S
H364 C369 0.950 . S
H365 C370 0.949 . S
H366 C372 0.950 . S
H367 C373 0.950 . S
H368 C374 0.949 . S
C369 H364 0.950 . S
C369 C371 1.327 . S
C369 C375 1.429 . S
C370 C362 1.574 . S
C370 H365 0.949 . S
C370 C376 1.368 . S
C371 C355 1.349 . S
C371 H363 0.950 . S
C371 C369 1.327 . S
C372 C360 1.349 . S
C372 H366 0.950 . S
C372 C373 1.327 . S
C373 H367 0.950 . S
C373 C372 1.327 . S
C373 C377 1.429 . S
C374 C357 1.574 . S
C374 H368 0.949 . S
C374 C378 1.368 . S
C375 C356 1.429 . S
C375 C369 1.429 . S
C375 C376 1.523 . S
C376 C357 1.368 . S
C376 C370 1.368 . S
C376 C375 1.523 . S
C377 C361 1.429 . S
C377 C373 1.429 . S
C377 C378 1.523 . S
C378 C362 1.368 . S
C378 C374 1.368 . S
C378 C377 1.523 . S
H379 C354 0.950 . S
H380 C356 0.950 . S
H381 C357 0.949 . S
H382 C359 0.950 . S
H383 C361 0.950 . S
C384 C385 1.349 . S
C384 C386 1.327 . S
C384 H409 0.950 . S
C385 C384 1.349 . S
C385 C401 1.349 . S
C386 C384 1.327 . S
C386 C405 1.429 . S
C386 H410 0.950 . S
C387 C404 1.574 . S
C387 C406 1.368 . S
C387 H411 0.949 . S
H388 C392 0.949 . S
C389 C390 1.349 . S
C389 C391 1.327 . S
C389 H412 0.950 . S
C390 C389 1.349 . S
C390 C402 1.349 . S
C391 C389 1.327 . S
C391 C407 1.429 . S
C391 H413 0.950 . S
C392 H388 0.949 . S
C392 C400 1.574 . S
C392 C408 1.368 . S
H393 C401 0.950 . S
H394 C399 0.950 . S
H395 C400 0.949 . S
H396 C402 0.950 . S
H397 C403 0.950 . S
H398 C404 0.949 . S
C399 H394 0.950 . S
C399 C401 1.327 . S
C399 C405 1.429 . S
C400 C392 1.574 . S
C400 H395 0.949 . S
C400 C406 1.368 . S
C401 C385 1.349 . S
C401 H393 0.950 . S
C401 C399 1.327 . S
C402 C390 1.349 . S
C402 H396 0.950 . S
C402 C403 1.327 . S
C403 H397 0.950 . S
C403 C402 1.327 . S
C403 C407 1.429 . S
C404 C387 1.574 . S
C404 H398 0.949 . S
C404 C408 1.368 . S
C405 C386 1.429 . S
C405 C399 1.429 . S
C405 C406 1.523 . S
C406 C387 1.368 . S
C406 C400 1.368 . S
C406 C405 1.523 . S
C407 C391 1.429 . S
C407 C403 1.429 . S
C407 C408 1.523 . S
C408 C392 1.368 . S
C408 C404 1.368 . S
C408 C407 1.523 . S
H409 C384 0.950 . S
H410 C386 0.950 . S
H411 C387 0.949 . S
H412 C389 0.950 . S
H413 C391 0.950 . S
C414 C415 1.349 . S
C414 C416 1.327 . S
C414 H439 0.950 . S
C415 C414 1.349 . S
C415 C431 1.349 . S
C416 C414 1.327 . S
C416 C435 1.429 . S
C416 H440 0.950 . S
C417 C434 1.574 . S
C417 C436 1.368 . S
C417 H441 0.949 . S
H418 C422 0.949 . S
C419 C420 1.349 . S
C419 C421 1.327 . S
C419 H442 0.950 . S
C420 C419 1.349 . S
C420 C432 1.349 . S
C421 C419 1.327 . S
C421 C437 1.429 . S
C421 H443 0.950 . S
C422 H418 0.949 . S
C422 C430 1.574 . S
C422 C438 1.368 . S
H423 C431 0.950 . S
H424 C429 0.950 . S
H425 C430 0.949 . S
H426 C432 0.950 . S
H427 C433 0.950 . S
H428 C434 0.949 . S
C429 H424 0.950 . S
C429 C431 1.327 . S
C429 C435 1.429 . S
C430 C422 1.574 . S
C430 H425 0.949 . S
C430 C436 1.368 . S
C431 C415 1.349 . S
C431 H423 0.950 . S
C431 C429 1.327 . S
C432 C420 1.349 . S
C432 H426 0.950 . S
C432 C433 1.327 . S
C433 H427 0.950 . S
C433 C432 1.327 . S
C433 C437 1.429 . S
C434 C417 1.574 . S
C434 H428 0.949 . S
C434 C438 1.368 . S
C435 C416 1.429 . S
C435 C429 1.429 . S
C435 C436 1.523 . S
C436 C417 1.368 . S
C436 C430 1.368 . S
C436 C435 1.523 . S
C437 C421 1.429 . S
C437 C433 1.429 . S
C437 C438 1.523 . S
C438 C422 1.368 . S
C438 C434 1.368 . S
C438 C437 1.523 . S
H439 C414 0.950 . S
H440 C416 0.950 . S
H441 C417 0.949 . S
H442 C419 0.950 . S
H443 C421 0.950 . S
C444 C445 1.349 . S
C444 C446 1.327 . S
C444 H469 0.950 . S
C445 C444 1.349 . S
C445 C461 1.349 . S
C446 C444 1.327 . S
C446 C465 1.429 . S
C446 H470 0.950 . S
C447 C464 1.574 . S
C447 C466 1.368 . S
C447 H471 0.949 . S
H448 C452 0.949 . S
C449 C450 1.349 . S
C449 C451 1.327 . S
C449 H472 0.950 . S
C450 C449 1.349 . S
C450 C462 1.349 . S
C451 C449 1.327 . S
C451 C467 1.429 . S
C451 H473 0.950 . S
C452 H448 0.949 . S
C452 C460 1.574 . S
C452 C468 1.368 . S
H453 C461 0.950 . S
H454 C459 0.950 . S
H455 C460 0.949 . S
H456 C462 0.950 . S
H457 C463 0.950 . S
H458 C464 0.949 . S
C459 H454 0.950 . S
C459 C461 1.327 . S
C459 C465 1.429 . S
C460 C452 1.574 . S
C460 H455 0.949 . S
C460 C466 1.368 . S
C461 C445 1.349 . S
C461 H453 0.950 . S
C461 C459 1.327 . S
C462 C450 1.349 . S
C462 H456 0.950 . S
C462 C463 1.327 . S
C463 H457 0.950 . S
C463 C462 1.327 . S
C463 C467 1.429 . S
C464 C447 1.574 . S
C464 H458 0.949 . S
C464 C468 1.368 . S
C465 C446 1.429 . S
C465 C459 1.429 . S
C465 C466 1.523 . S
C466 C447 1.368 . S
C466 C460 1.368 . S
C466 C465 1.523 . S
C467 C451 1.429 . S
C467 C463 1.429 . S
C467 C468 1.523 . S
C468 C452 1.368 . S
C468 C464 1.368 . S
C468 C467 1.523 . S
H469 C444 0.950 . S
H470 C446 0.950 . S
H471 C447 0.949 . S
H472 C449 0.950 . S
H473 C451 0.950 . S
C474 C475 1.349 . S
C474 C476 1.327 . S
C474 H499 0.950 . S
C475 C474 1.349 . S
C475 C491 1.349 . S
C476 C474 1.327 . S
C476 C495 1.429 . S
C476 H500 0.950 . S
C477 C494 1.574 . S
C477 C496 1.368 . S
C477 H501 0.949 . S
H478 C482 0.949 . S
C479 C480 1.349 . S
C479 C481 1.327 . S
C479 H502 0.950 . S
C480 C479 1.349 . S
C480 C492 1.349 . S
C481 C479 1.327 . S
C481 C497 1.429 . S
C481 H503 0.950 . S
C482 H478 0.949 . S
C482 C490 1.574 . S
C482 C498 1.368 . S
H483 C491 0.950 . S
H484 C489 0.950 . S
H485 C490 0.949 . S
H486 C492 0.950 . S
H487 C493 0.950 . S
H488 C494 0.949 . S
C489 H484 0.950 . S
C489 C491 1.327 . S
C489 C495 1.429 . S
C490 C482 1.574 . S
C490 H485 0.949 . S
C490 C496 1.368 . S
C491 C475 1.349 . S
C491 H483 0.950 . S
C491 C489 1.327 . S
C492 C480 1.349 . S
C492 H486 0.950 . S
C492 C493 1.327 . S
C493 H487 0.950 . S
C493 C492 1.327 . S
C493 C497 1.429 . S
C494 C477 1.574 . S
C494 H488 0.949 . S
C494 C498 1.368 . S
C495 C476 1.429 . S
C495 C489 1.429 . S
C495 C496 1.523 . S
C496 C477 1.368 . S
C496 C490 1.368 . S
C496 C495 1.523 . S
C497 C481 1.429 . S
C497 C493 1.429 . S
C497 C498 1.523 . S
C498 C482 1.368 . S
C498 C494 1.368 . S
C498 C497 1.523 . S
H499 C474 0.950 . S
H500 C476 0.950 . S
H501 C477 0.949 . S
H502 C479 0.950 . S
H503 C481 0.950 . S
C504 C505 1.349 . S
C504 C506 1.327 . S
C504 H529 0.950 . S
C505 C504 1.349 . S
C505 C521 1.349 . S
C506 C504 1.327 . S
C506 C525 1.429 . S
C506 H530 0.950 . S
C507 C524 1.574 . S
C507 C526 1.368 . S
C507 H531 0.949 . S
H508 C512 0.949 . S
C509 C510 1.349 . S
C509 C511 1.327 . S
C509 H532 0.950 . S
C510 C509 1.349 . S
C510 C522 1.349 . S
C511 C509 1.327 . S
C511 C527 1.429 . S
C511 H533 0.950 . S
C512 H508 0.949 . S
C512 C520 1.574 . S
C512 C528 1.368 . S
H513 C521 0.950 . S
H514 C519 0.950 . S
H515 C520 0.949 . S
H516 C522 0.950 . S
H517 C523 0.950 . S
H518 C524 0.949 . S
C519 H514 0.950 . S
C519 C521 1.327 . S
C519 C525 1.429 . S
C520 C512 1.574 . S
C520 H515 0.949 . S
C520 C526 1.368 . S
C521 C505 1.349 . S
C521 H513 0.950 . S
C521 C519 1.327 . S
C522 C510 1.349 . S
C522 H516 0.950 . S
C522 C523 1.327 . S
C523 H517 0.950 . S
C523 C522 1.327 . S
C523 C527 1.429 . S
C524 C507 1.574 . S
C524 H518 0.949 . S
C524 C528 1.368 . S
C525 C506 1.429 . S
C525 C519 1.429 . S
C525 C526 1.523 . S
C526 C507 1.368 . S
C526 C520 1.368 . S
C526 C525 1.523 . S
C527 C511 1.429 . S
C527 C523 1.429 . S
C527 C528 1.523 . S
C528 C512 1.368 . S
C528 C524 1.368 . S
C528 C527 1.523 . S
H529 C504 0.950 . S
H530 C506 0.950 . S
H531 C507 0.949 . S
H532 C509 0.950 . S
H533 C511 0.950 . S
C534 C535 1.349 . S
C534 C536 1.327 . S
C534 H559 0.950 . S
C535 C534 1.349 . S
C535 C551 1.349 . S
C536 C534 1.327 . S
C536 C555 1.429 . S
C536 H560 0.950 . S
C537 C554 1.574 . S
C537 C556 1.368 . S
C537 H561 0.949 . S
H538 C542 0.949 . S
C539 C540 1.349 . S
C539 C541 1.327 . S
C539 H562 0.950 . S
C540 C539 1.349 . S
C540 C552 1.349 . S
C541 C539 1.327 . S
C541 C557 1.429 . S
C541 H563 0.950 . S
C542 H538 0.949 . S
C542 C550 1.574 . S
C542 C558 1.368 . S
H543 C551 0.950 . S
H544 C549 0.950 . S
H545 C550 0.949 . S
H546 C552 0.950 . S
H547 C553 0.950 . S
H548 C554 0.949 . S
C549 H544 0.950 . S
C549 C551 1.327 . S
C549 C555 1.429 . S
C550 C542 1.574 . S
C550 H545 0.949 . S
C550 C556 1.368 . S
C551 C535 1.349 . S
C551 H543 0.950 . S
C551 C549 1.327 . S
C552 C540 1.349 . S
C552 H546 0.950 . S
C552 C553 1.327 . S
C553 H547 0.950 . S
C553 C552 1.327 . S
C553 C557 1.429 . S
C554 C537 1.574 . S
C554 H548 0.949 . S
C554 C558 1.368 . S
C555 C536 1.429 . S
C555 C549 1.429 . S
C555 C556 1.523 . S
C556 C537 1.368 . S
C556 C550 1.368 . S
C556 C555 1.523 . S
C557 C541 1.429 . S
C557 C553 1.429 . S
C557 C558 1.523 . S
C558 C542 1.368 . S
C558 C554 1.368 . S
C558 C557 1.523 . S
H559 C534 0.950 . S
H560 C536 0.950 . S
H561 C537 0.949 . S
H562 C539 0.950 . S
H563 C541 0.950 . S
C564 C565 1.349 . S
C564 C566 1.327 . S
C564 H589 0.950 . S
C565 C564 1.349 . S
C565 C581 1.349 . S
C566 C564 1.327 . S
C566 C585 1.429 . S
C566 H590 0.950 . S
C567 C584 1.574 . S
C567 C586 1.368 . S
C567 H591 0.949 . S
H568 C572 0.949 . S
C569 C570 1.349 . S
C569 C571 1.327 . S
C569 H592 0.950 . S
C570 C569 1.349 . S
C570 C582 1.349 . S
C571 C569 1.327 . S
C571 C587 1.429 . S
C571 H593 0.950 . S
C572 H568 0.949 . S
C572 C580 1.574 . S
C572 C588 1.368 . S
H573 C581 0.950 . S
H574 C579 0.950 . S
H575 C580 0.949 . S
H576 C582 0.950 . S
H577 C583 0.950 . S
H578 C584 0.949 . S
C579 H574 0.950 . S
C579 C581 1.327 . S
C579 C585 1.429 . S
C580 C572 1.574 . S
C580 H575 0.949 . S
C580 C586 1.368 . S
C581 C565 1.349 . S
C581 H573 0.950 . S
C581 C579 1.327 . S
C582 C570 1.349 . S
C582 H576 0.950 . S
C582 C583 1.327 . S
C583 H577 0.950 . S
C583 C582 1.327 . S
C583 C587 1.429 . S
C584 C567 1.574 . S
C584 H578 0.949 . S
C584 C588 1.368 . S
C585 C566 1.429 . S
C585 C579 1.429 . S
C585 C586 1.523 . S
C586 C567 1.368 . S
C586 C580 1.368 . S
C586 C585 1.523 . S
C587 C571 1.429 . S
C587 C583 1.429 . S
C587 C588 1.523 . S
C588 C572 1.368 . S
C588 C584 1.368 . S
C588 C587 1.523 . S
H589 C564 0.950 . S
H590 C566 0.950 . S
H591 C567 0.949 . S
H592 C569 0.950 . S
H593 C571 0.950 . S
C594 C595 1.349 . S
C594 C596 1.327 . S
C594 H619 0.950 . S
C595 C594 1.349 . S
C595 C611 1.349 . S
C596 C594 1.327 . S
C596 C615 1.429 . S
C596 H620 0.950 . S
C597 C614 1.574 . S
C597 C616 1.368 . S
C597 H621 0.949 . S
H598 C602 0.949 . S
C599 C600 1.349 . S
C599 C601 1.327 . S
C599 H622 0.950 . S
C600 C599 1.349 . S
C600 C612 1.349 . S
C601 C599 1.327 . S
C601 C617 1.429 . S
C601 H623 0.950 . S
C602 H598 0.949 . S
C602 C610 1.574 . S
C602 C618 1.368 . S
H603 C611 0.950 . S
H604 C609 0.950 . S
H605 C610 0.949 . S
H606 C612 0.950 . S
H607 C613 0.950 . S
H608 C614 0.949 . S
C609 H604 0.950 . S
C609 C611 1.327 . S
C609 C615 1.429 . S
C610 C602 1.574 . S
C610 H605 0.949 . S
C610 C616 1.368 . S
C611 C595 1.349 . S
C611 H603 0.950 . S
C611 C609 1.327 . S
C612 C600 1.349 . S
C612 H606 0.950 . S
C612 C613 1.327 . S
C613 H607 0.950 . S
C613 C612 1.327 . S
C613 C617 1.429 . S
C614 C597 1.574 . S
C614 H608 0.949 . S
C614 C618 1.368 . S
C615 C596 1.429 . S
C615 C609 1.429 . S
C615 C616 1.523 . S
C616 C597 1.368 . S
C616 C610 1.368 . S
C616 C615 1.523 . S
C617 C601 1.429 . S
C617 C613 1.429 . S
C617 C618 1.523 . S
C618 C602 1.368 . S
C618 C614 1.368 . S
C618 C617 1.523 . S
H619 C594 0.950 . S
H620 C596 0.950 . S
H621 C597 0.949 . S
H622 C599 0.950 . S
H623 C601 0.950 . S
C624 C625 1.349 . S
C624 C626 1.327 . S
C624 H649 0.950 . S
C625 C624 1.349 . S
C625 C641 1.349 . S
C626 C624 1.327 . S
C626 C645 1.429 . S
C626 H650 0.950 . S
C627 C644 1.574 1_565 S
C627 C646 1.368 . S
C627 H651 0.949 . S
H628 C632 0.949 . S
C629 C630 1.349 . S
C629 C631 1.327 . S
C629 H652 0.950 . S
C630 C629 1.349 . S
C630 C642 1.349 . S
C631 C629 1.327 . S
C631 C647 1.429 . S
C631 H653 0.950 . S
C632 H628 0.949 . S
C632 C640 1.574 1_545 S
C632 C648 1.368 . S
H633 C641 0.950 . S
H634 C639 0.950 . S
H635 C640 0.949 . S
H636 C642 0.950 . S
H637 C643 0.950 . S
H638 C644 0.949 . S
C639 H634 0.950 . S
C639 C641 1.327 . S
C639 C645 1.429 . S
C640 C632 1.574 1_565 S
C640 H635 0.949 . S
C640 C646 1.368 . S
C641 C625 1.349 . S
C641 H633 0.950 . S
C641 C639 1.327 . S
C642 C630 1.349 . S
C642 H636 0.950 . S
C642 C643 1.327 . S
C643 H637 0.950 . S
C643 C642 1.327 . S
C643 C647 1.429 . S
C644 C627 1.574 1_545 S
C644 H638 0.949 . S
C644 C648 1.368 . S
C645 C626 1.429 . S
C645 C639 1.429 . S
C645 C646 1.523 . S
C646 C627 1.368 . S
C646 C640 1.368 . S
C646 C645 1.523 . S
C647 C631 1.429 . S
C647 C643 1.429 . S
C647 C648 1.523 . S
C648 C632 1.368 . S
C648 C644 1.368 . S
C648 C647 1.523 . S
H649 C624 0.950 . S
H650 C626 0.950 . S
H651 C627 0.949 . S
H652 C629 0.950 . S
H653 C631 0.950 . S
C654 C655 1.349 . S
C654 C656 1.327 . S
C654 H679 0.950 . S
C655 C654 1.349 . S
C655 C671 1.349 . S
C656 C654 1.327 . S
C656 C675 1.429 . S
C656 H680 0.950 . S
C657 C674 1.574 . S
C657 C676 1.368 . S
C657 H681 0.949 . S
H658 C662 0.949 . S
C659 C660 1.349 . S
C659 C661 1.327 . S
C659 H682 0.950 . S
C660 C659 1.349 . S
C660 C672 1.349 . S
C661 C659 1.327 . S
C661 C677 1.429 . S
C661 H683 0.950 . S
C662 H658 0.949 . S
C662 C670 1.574 . S
C662 C678 1.368 . S
H663 C671 0.950 . S
H664 C669 0.950 . S
H665 C670 0.949 . S
H666 C672 0.950 . S
H667 C673 0.950 . S
H668 C674 0.949 . S
C669 H664 0.950 . S
C669 C671 1.327 . S
C669 C675 1.429 . S
C670 C662 1.574 . S
C670 H665 0.949 . S
C670 C676 1.368 . S
C671 C655 1.349 . S
C671 H663 0.950 . S
C671 C669 1.327 . S
C672 C660 1.349 . S
C672 H666 0.950 . S
C672 C673 1.327 . S
C673 H667 0.950 . S
C673 C672 1.327 . S
C673 C677 1.429 . S
C674 C657 1.574 . S
C674 H668 0.949 . S
C674 C678 1.368 . S
C675 C656 1.429 . S
C675 C669 1.429 . S
C675 C676 1.523 . S
C676 C657 1.368 . S
C676 C670 1.368 . S
C676 C675 1.523 . S
C677 C661 1.429 . S
C677 C673 1.429 . S
C677 C678 1.523 . S
C678 C662 1.368 . S
C678 C674 1.368 . S
C678 C677 1.523 . S
H679 C654 0.950 . S
H680 C656 0.950 . S
H681 C657 0.949 . S
H682 C659 0.950 . S
H683 C661 0.950 . S
C684 C685 1.349 . S
C684 C686 1.327 . S
C684 H709 0.950 . S
C685 C684 1.349 . S
C685 C701 1.349 . S
C686 C684 1.327 . S
C686 C705 1.429 . S
C686 H710 0.950 . S
C687 C704 1.574 . S
C687 C706 1.368 1_655 S
C687 H711 0.949 . S
H688 C692 0.949 . S
C689 C690 1.349 . S
C689 C691 1.327 . S
C689 H712 0.950 . S
C690 C689 1.349 . S
C690 C702 1.349 . S
C691 C689 1.327 . S
C691 C707 1.429 . S
C691 H713 0.950 . S
C692 H688 0.949 . S
C692 C700 1.574 . S
C692 C708 1.368 1_455 S
H693 C701 0.950 . S
H694 C699 0.950 . S
H695 C700 0.949 . S
H696 C702 0.950 . S
H697 C703 0.950 . S
H698 C704 0.949 . S
C699 H694 0.950 . S
C699 C701 1.327 . S
C699 C705 1.429 . S
C700 C692 1.574 . S
C700 H695 0.949 . S
C700 C706 1.368 . S
C701 C685 1.349 . S
C701 H693 0.950 . S
C701 C699 1.327 . S
C702 C690 1.349 . S
C702 H696 0.950 . S
C702 C703 1.327 . S
C703 H697 0.950 . S
C703 C702 1.327 . S
C703 C707 1.429 . S
C704 C687 1.574 . S
C704 H698 0.949 . S
C704 C708 1.368 . S
C705 C686 1.429 . S
C705 C699 1.429 . S
C705 C706 1.523 . S
C706 C687 1.368 1_455 S
C706 C700 1.368 . S
C706 C705 1.523 . S
C707 C691 1.429 . S
C707 C703 1.429 . S
C707 C708 1.523 . S
C708 C692 1.368 1_655 S
C708 C704 1.368 . S
C708 C707 1.523 . S
H709 C684 0.950 . S
H710 C686 0.950 . S
H711 C687 0.949 . S
H712 C689 0.950 . S
H713 C691 0.950 . S
C714 C715 1.349 . S
C714 C716 1.327 . S
C714 H739 0.950 . S
C715 C714 1.349 . S
C715 C731 1.349 . S
C716 C714 1.327 . S
C716 C735 1.429 . S
C716 H740 0.950 . S
C717 C734 1.574 . S
C717 C736 1.368 . S
C717 H741 0.949 . S
H718 C722 0.949 . S
C719 C720 1.349 . S
C719 C721 1.327 . S
C719 H742 0.950 . S
C720 C719 1.349 . S
C720 C732 1.349 . S
C721 C719 1.327 . S
C721 C737 1.429 . S
C721 H743 0.950 . S
C722 H718 0.949 . S
C722 C730 1.574 . S
C722 C738 1.368 . S
H723 C731 0.950 . S
H724 C729 0.950 . S
H725 C730 0.949 . S
H726 C732 0.950 . S
H727 C733 0.950 . S
H728 C734 0.949 . S
C729 H724 0.950 . S
C729 C731 1.327 . S
C729 C735 1.429 . S
C730 C722 1.574 . S
C730 H725 0.949 . S
C730 C736 1.368 1_545 S
C731 C715 1.349 . S
C731 H723 0.950 . S
C731 C729 1.327 . S
C732 C720 1.349 . S
C732 H726 0.950 . S
C732 C733 1.327 . S
C733 H727 0.950 . S
C733 C732 1.327 . S
C733 C737 1.429 . S
C734 C717 1.574 . S
C734 H728 0.949 . S
C734 C738 1.368 1_565 S
C735 C716 1.429 . S
C735 C729 1.429 . S
C735 C736 1.523 . S
C736 C717 1.368 . S
C736 C730 1.368 1_565 S
C736 C735 1.523 . S
C737 C721 1.429 . S
C737 C733 1.429 . S
C737 C738 1.523 . S
C738 C722 1.368 . S
C738 C734 1.368 1_545 S
C738 C737 1.523 . S
H739 C714 0.950 . S
H740 C716 0.950 . S
H741 C717 0.949 . S
H742 C719 0.950 . S
H743 C721 0.950 . S
C744 C745 1.349 . S
C744 C746 1.327 . S
C744 H769 0.950 . S
C745 C744 1.349 . S
C745 C761 1.349 . S
C746 C744 1.327 . S
C746 C765 1.429 . S
C746 H770 0.950 . S
C747 C764 1.574 . S
C747 C766 1.368 . S
C747 H771 0.949 . S
H748 C752 0.949 . S
C749 C750 1.349 . S
C749 C751 1.327 . S
C749 H772 0.950 . S
C750 C749 1.349 . S
C750 C762 1.349 . S
C751 C749 1.327 . S
C751 C767 1.429 . S
C751 H773 0.950 . S
C752 H748 0.949 . S
C752 C760 1.574 . S
C752 C768 1.368 . S
H753 C761 0.950 . S
H754 C759 0.950 . S
H755 C760 0.949 . S
H756 C762 0.950 . S
H757 C763 0.950 . S
H758 C764 0.949 . S
C759 H754 0.950 . S
C759 C761 1.327 . S
C759 C765 1.429 . S
C760 C752 1.574 . S
C760 H755 0.949 . S
C760 C766 1.368 . S
C761 C745 1.349 . S
C761 H753 0.950 . S
C761 C759 1.327 . S
C762 C750 1.349 . S
C762 H756 0.950 . S
C762 C763 1.327 . S
C763 H757 0.950 . S
C763 C762 1.327 . S
C763 C767 1.429 . S
C764 C747 1.574 . S
C764 H758 0.949 . S
C764 C768 1.368 . S
C765 C746 1.429 . S
C765 C759 1.429 . S
C765 C766 1.523 . S
C766 C747 1.368 . S
C766 C760 1.368 . S
C766 C765 1.523 . S
C767 C751 1.429 . S
C767 C763 1.429 . S
C767 C768 1.523 . S
C768 C752 1.368 . S
C768 C764 1.368 . S
C768 C767 1.523 . S
H769 C744 0.950 . S
H770 C746 0.950 . S
H771 C747 0.949 . S
H772 C749 0.950 . S
H773 C751 0.950 . S
C774 C775 1.349 . S
C774 C776 1.327 . S
C774 H799 0.950 . S
C775 C774 1.349 . S
C775 C791 1.349 . S
C776 C774 1.327 . S
C776 C795 1.429 . S
C776 H800 0.950 . S
C777 C794 1.574 . S
C777 C796 1.368 . S
C777 H801 0.949 . S
H778 C782 0.949 . S
C779 C780 1.349 . S
C779 C781 1.327 . S
C779 H802 0.950 . S
C780 C779 1.349 . S
C780 C792 1.349 . S
C781 C779 1.327 . S
C781 C797 1.429 . S
C781 H803 0.950 . S
C782 H778 0.949 . S
C782 C790 1.574 . S
C782 C798 1.368 . S
H783 C791 0.950 . S
H784 C789 0.950 . S
H785 C790 0.949 . S
H786 C792 0.950 . S
H787 C793 0.950 . S
H788 C794 0.949 . S
C789 H784 0.950 . S
C789 C791 1.327 . S
C789 C795 1.429 . S
C790 C782 1.574 . S
C790 H785 0.949 . S
C790 C796 1.368 1_455 S
C791 C775 1.349 . S
C791 H783 0.950 . S
C791 C789 1.327 . S
C792 C780 1.349 . S
C792 H786 0.950 . S
C792 C793 1.327 . S
C793 H787 0.950 . S
C793 C792 1.327 . S
C793 C797 1.429 . S
C794 C777 1.574 . S
C794 H788 0.949 . S
C794 C798 1.368 1_655 S
C795 C776 1.429 . S
C795 C789 1.429 . S
C795 C796 1.523 . S
C796 C777 1.368 . S
C796 C790 1.368 1_655 S
C796 C795 1.523 . S
C797 C781 1.429 . S
C797 C793 1.429 . S
C797 C798 1.523 . S
C798 C782 1.368 . S
C798 C794 1.368 1_455 S
C798 C797 1.523 . S
H799 C774 0.950 . S
H800 C776 0.950 . S
H801 C777 0.949 . S
H802 C779 0.950 . S
H803 C781 0.950 . S
C804 C805 1.349 . S
C804 C806 1.327 . S
C804 H829 0.950 . S
C805 C804 1.349 . S
C805 C821 1.349 . S
C806 C804 1.327 . S
C806 C825 1.429 . S
C806 H830 0.950 . S
C807 C824 1.574 . S
C807 C826 1.368 1_565 S
C807 H831 0.949 . S
H808 C812 0.949 . S
C809 C810 1.349 . S
C809 C811 1.327 . S
C809 H832 0.950 . S
C810 C809 1.349 . S
C810 C822 1.349 . S
C811 C809 1.327 . S
C811 C827 1.429 . S
C811 H833 0.950 . S
C812 H808 0.949 . S
C812 C820 1.574 . S
C812 C828 1.368 1_545 S
H813 C821 0.950 . S
H814 C819 0.950 . S
H815 C820 0.949 . S
H816 C822 0.950 . S
H817 C823 0.950 . S
H818 C824 0.949 . S
C819 H814 0.950 . S
C819 C821 1.327 . S
C819 C825 1.429 . S
C820 C812 1.574 . S
C820 H815 0.949 . S
C820 C826 1.368 . S
C821 C805 1.349 . S
C821 H813 0.950 . S
C821 C819 1.327 . S
C822 C810 1.349 . S
C822 H816 0.950 . S
C822 C823 1.327 . S
C823 H817 0.950 . S
C823 C822 1.327 . S
C823 C827 1.429 . S
C824 C807 1.574 . S
C824 H818 0.949 . S
C824 C828 1.368 . S
C825 C806 1.429 . S
C825 C819 1.429 . S
C825 C826 1.523 . S
C826 C807 1.368 1_545 S
C826 C820 1.368 . S
C826 C825 1.523 . S
C827 C811 1.429 . S
C827 C823 1.429 . S
C827 C828 1.523 . S
C828 C812 1.368 1_565 S
C828 C824 1.368 . S
C828 C827 1.523 . S
H829 C804 0.950 . S
H830 C806 0.950 . S
H831 C807 0.949 . S
H832 C809 0.950 . S
H833 C811 0.950 . S
C834 C835 1.349 . S
C834 C836 1.327 . S
C834 H859 0.950 . S
C835 C834 1.349 . S
C835 C851 1.349 . S
C836 C834 1.327 . S
C836 C855 1.429 . S
C836 H860 0.950 . S
C837 C854 1.574 . S
C837 C856 1.368 . S
C837 H861 0.949 . S
H838 C842 0.949 . S
C839 C840 1.349 . S
C839 C841 1.327 . S
C839 H862 0.950 . S
C840 C839 1.349 . S
C840 C852 1.349 . S
C841 C839 1.327 . S
C841 C857 1.429 . S
C841 H863 0.950 . S
C842 H838 0.949 . S
C842 C850 1.574 . S
C842 C858 1.368 . S
H843 C851 0.950 . S
H844 C849 0.950 . S
H845 C850 0.949 . S
H846 C852 0.950 . S
H847 C853 0.950 . S
H848 C854 0.949 . S
C849 H844 0.950 . S
C849 C851 1.327 . S
C849 C855 1.429 . S
C850 C842 1.574 . S
C850 H845 0.949 . S
C850 C856 1.368 . S
C851 C835 1.349 . S
C851 H843 0.950 . S
C851 C849 1.327 . S
C852 C840 1.349 . S
C852 H846 0.950 . S
C852 C853 1.327 . S
C853 H847 0.950 . S
C853 C852 1.327 . S
C853 C857 1.429 . S
C854 C837 1.574 . S
C854 H848 0.949 . S
C854 C858 1.368 . S
C855 C836 1.429 . S
C855 C849 1.429 . S
C855 C856 1.523 . S
C856 C837 1.368 . S
C856 C850 1.368 . S
C856 C855 1.523 . S
C857 C841 1.429 . S
C857 C853 1.429 . S
C857 C858 1.523 . S
C858 C842 1.368 . S
C858 C854 1.368 . S
C858 C857 1.523 . S
H859 C834 0.950 . S
H860 C836 0.950 . S
H861 C837 0.949 . S
H862 C839 0.950 . S
H863 C841 0.950 . S
C864 C865 1.349 . S
C864 C866 1.327 . S
C864 H889 0.950 . S
C865 C864 1.349 . S
C865 C881 1.349 . S
C866 C864 1.327 . S
C866 C885 1.429 . S
C866 H890 0.950 . S
C867 C884 1.574 1_655 S
C867 C886 1.368 . S
C867 H891 0.949 . S
H868 C872 0.949 . S
C869 C870 1.349 . S
C869 C871 1.327 . S
C869 H892 0.950 . S
C870 C869 1.349 . S
C870 C882 1.349 . S
C871 C869 1.327 . S
C871 C887 1.429 . S
C871 H893 0.950 . S
C872 H868 0.949 . S
C872 C880 1.574 1_455 S
C872 C888 1.368 . S
H873 C881 0.950 . S
H874 C879 0.950 . S
H875 C880 0.949 . S
H876 C882 0.950 . S
H877 C883 0.950 . S
H878 C884 0.949 . S
C879 H874 0.950 . S
C879 C881 1.327 . S
C879 C885 1.429 . S
C880 C872 1.574 1_655 S
C880 H875 0.949 . S
C880 C886 1.368 . S
C881 C865 1.349 . S
C881 H873 0.950 . S
C881 C879 1.327 . S
C882 C870 1.349 . S
C882 H876 0.950 . S
C882 C883 1.327 . S
C883 H877 0.950 . S
C883 C882 1.327 . S
C883 C887 1.429 . S
C884 C867 1.574 1_455 S
C884 H878 0.949 . S
C884 C888 1.368 . S
C885 C866 1.429 . S
C885 C879 1.429 . S
C885 C886 1.523 . S
C886 C867 1.368 . S
C886 C880 1.368 . S
C886 C885 1.523 . S
C887 C871 1.429 . S
C887 C883 1.429 . S
C887 C888 1.523 . S
C888 C872 1.368 . S
C888 C884 1.368 . S
C888 C887 1.523 . S
H889 C864 0.950 . S
H890 C866 0.950 . S
H891 C867 0.949 . S
H892 C869 0.950 . S
H893 C871 0.950 . S
C894 C895 1.349 . S
C894 C896 1.327 . S
C894 H919 0.950 . S
C895 C894 1.349 . S
C895 C911 1.349 . S
C896 C894 1.327 . S
C896 C915 1.429 . S
C896 H920 0.950 . S
C897 C914 1.574 . S
C897 C916 1.368 1_545 S
C897 H921 0.949 . S
H898 C902 0.949 . S
C899 C900 1.349 . S
C899 C901 1.327 . S
C899 H922 0.950 . S
C900 C899 1.349 . S
C900 C912 1.349 . S
C901 C899 1.327 . S
C901 C917 1.429 . S
C901 H923 0.950 . S
C902 H898 0.949 . S
C902 C910 1.574 . S
C902 C918 1.368 1_565 S
H903 C911 0.950 . S
H904 C909 0.950 . S
H905 C910 0.949 . S
H906 C912 0.950 . S
H907 C913 0.950 . S
H908 C914 0.949 . S
C909 H904 0.950 . S
C909 C911 1.327 . S
C909 C915 1.429 . S
C910 C902 1.574 . S
C910 H905 0.949 . S
C910 C916 1.368 . S
C911 C895 1.349 . S
C911 H903 0.950 . S
C911 C909 1.327 . S
C912 C900 1.349 . S
C912 H906 0.950 . S
C912 C913 1.327 . S
C913 H907 0.950 . S
C913 C912 1.327 . S
C913 C917 1.429 . S
C914 C897 1.574 . S
C914 H908 0.949 . S
C914 C918 1.368 . S
C915 C896 1.429 . S
C915 C909 1.429 . S
C915 C916 1.523 . S
C916 C897 1.368 1_565 S
C916 C910 1.368 . S
C916 C915 1.523 . S
C917 C901 1.429 . S
C917 C913 1.429 . S
C917 C918 1.523 . S
C918 C902 1.368 1_545 S
C918 C914 1.368 . S
C918 C917 1.523 . S
H919 C894 0.950 . S
H920 C896 0.950 . S
H921 C897 0.949 . S
H922 C899 0.950 . S
H923 C901 0.950 . S
C924 C925 1.349 . S
C924 C926 1.327 . S
C924 H949 0.950 . S
C925 C924 1.349 . S
C925 C941 1.349 . S
C926 C924 1.327 . S
C926 C945 1.429 . S
C926 H950 0.950 . S
C927 C944 1.574 . S
C927 C946 1.368 . S
C927 H951 0.949 . S
H928 C932 0.949 . S
C929 C930 1.349 . S
C929 C931 1.327 . S
C929 H952 0.950 . S
C930 C929 1.349 . S
C930 C942 1.349 . S
C931 C929 1.327 . S
C931 C947 1.429 . S
C931 H953 0.950 . S
C932 H928 0.949 . S
C932 C940 1.574 . S
C932 C948 1.368 . S
H933 C941 0.950 . S
H934 C939 0.950 . S
H935 C940 0.949 . S
H936 C942 0.950 . S
H937 C943 0.950 . S
H938 C944 0.949 . S
C939 H934 0.950 . S
C939 C941 1.327 . S
C939 C945 1.429 . S
C940 C932 1.574 . S
C940 H935 0.949 . S
C940 C946 1.368 . S
C941 C925 1.349 . S
C941 H933 0.950 . S
C941 C939 1.327 . S
C942 C930 1.349 . S
C942 H936 0.950 . S
C942 C943 1.327 . S
C943 H937 0.950 . S
C943 C942 1.327 . S
C943 C947 1.429 . S
C944 C927 1.574 . S
C944 H938 0.949 . S
C944 C948 1.368 . S
C945 C926 1.429 . S
C945 C939 1.429 . S
C945 C946 1.523 . S
C946 C927 1.368 . S
C946 C940 1.368 . S
C946 C945 1.523 . S
C947 C931 1.429 . S
C947 C943 1.429 . S
C947 C948 1.523 . S
C948 C932 1.368 . S
C948 C944 1.368 . S
C948 C947 1.523 . S
H949 C924 0.950 . S
H950 C926 0.950 . S
H951 C927 0.949 . S
H952 C929 0.950 . S
H953 C931 0.950 . S
C954 C955 1.349 . S
C954 C956 1.327 . S
C954 H979 0.950 . S
C955 C954 1.349 . S
C955 C971 1.349 . S
C956 C954 1.327 . S
C956 C975 1.429 . S
C956 H980 0.950 . S
C957 C974 1.574 . S
C957 C976 1.368 . S
C957 H981 0.949 . S
H958 C962 0.949 . S
C959 C960 1.349 . S
C959 C961 1.327 . S
C959 H982 0.950 . S
C960 C959 1.349 . S
C960 C972 1.349 . S
C961 C959 1.327 . S
C961 C977 1.429 . S
C961 H983 0.950 . S
C962 H958 0.949 . S
C962 C970 1.574 . S
C962 C978 1.368 . S
H963 C971 0.950 . S
H964 C969 0.950 . S
H965 C970 0.949 . S
H966 C972 0.950 . S
H967 C973 0.950 . S
H968 C974 0.949 . S
C969 H964 0.950 . S
C969 C971 1.327 . S
C969 C975 1.429 . S
C970 C962 1.574 . S
C970 H965 0.949 . S
C970 C976 1.368 1_455 S
C971 C955 1.349 . S
C971 H963 0.950 . S
C971 C969 1.327 . S
C972 C960 1.349 . S
C972 H966 0.950 . S
C972 C973 1.327 . S
C973 H967 0.950 . S
C973 C972 1.327 . S
C973 C977 1.429 . S
C974 C957 1.574 . S
C974 H968 0.949 . S
C974 C978 1.368 1_655 S
C975 C956 1.429 . S
C975 C969 1.429 . S
C975 C976 1.523 . S
C976 C957 1.368 . S
C976 C970 1.368 1_655 S
C976 C975 1.523 . S
C977 C961 1.429 . S
C977 C973 1.429 . S
C977 C978 1.523 . S
C978 C962 1.368 . S
C978 C974 1.368 1_455 S
C978 C977 1.523 . S
H979 C954 0.950 . S
H980 C956 0.950 . S
H981 C957 0.949 . S
H982 C959 0.950 . S
H983 C961 0.950 . S
C984 C985 1.349 . S
C984 C986 1.327 . S
C984 H1009 0.950 . S
C985 C984 1.349 . S
C985 C1001 1.349 . S
C986 C984 1.327 . S
C986 C1005 1.429 . S
C986 H1010 0.950 . S
C987 C1004 1.574 . S
C987 C1006 1.368 . S
C987 H1011 0.949 . S
H988 C992 0.949 . S
C989 C990 1.349 . S
C989 C991 1.327 . S
C989 H1012 0.950 . S
C990 C989 1.349 . S
C990 C1002 1.349 . S
C991 C989 1.327 . S
C991 C1007 1.429 . S
C991 H1013 0.950 . S
C992 H988 0.949 . S
C992 C1000 1.574 . S
C992 C1008 1.368 . S
H993 C1001 0.950 . S
H994 C999 0.950 . S
H995 C1000 0.949 . S
H996 C1002 0.950 . S
H997 C1003 0.950 . S
H998 C1004 0.949 . S
C999 H994 0.950 . S
C999 C1001 1.327 . S
C999 C1005 1.429 . S
C1000 C992 1.574 . S
C1000 H995 0.949 . S
C1000 C1006 1.368 . S
C1001 C985 1.349 . S
C1001 H993 0.950 . S
C1001 C999 1.327 . S
C1002 C990 1.349 . S
C1002 H996 0.950 . S
C1002 C1003 1.327 . S
C1003 H997 0.950 . S
C1003 C1002 1.327 . S
C1003 C1007 1.429 . S
C1004 C987 1.574 . S
C1004 H998 0.949 . S
C1004 C1008 1.368 . S
C1005 C986 1.429 . S
C1005 C999 1.429 . S
C1005 C1006 1.523 . S
C1006 C987 1.368 . S
C1006 C1000 1.368 . S
C1006 C1005 1.523 . S
C1007 C991 1.429 . S
C1007 C1003 1.429 . S
C1007 C1008 1.523 . S
C1008 C992 1.368 . S
C1008 C1004 1.368 . S
C1008 C1007 1.523 . S
H1009 C984 0.950 . S
H1010 C986 0.950 . S
H1011 C987 0.949 . S
H1012 C989 0.950 . S
H1013 C991 0.950 . S
C1014 C1015 1.349 . S
C1014 C1016 1.327 . S
C1014 H1039 0.950 . S
C1015 C1014 1.349 . S
C1015 C1031 1.349 . S
C1016 C1014 1.327 . S
C1016 C1035 1.429 . S
C1016 H1040 0.950 . S
C1017 C1034 1.574 . S
C1017 C1036 1.368 . S
C1017 H1041 0.949 . S
H1018 C1022 0.949 . S
C1019 C1020 1.349 . S
C1019 C1021 1.327 . S
C1019 H1042 0.950 . S
C1020 C1019 1.349 . S
C1020 C1032 1.349 . S
C1021 C1019 1.327 . S
C1021 C1037 1.429 . S
C1021 H1043 0.950 . S
C1022 H1018 0.949 . S
C1022 C1030 1.574 . S
C1022 C1038 1.368 . S
H1023 C1031 0.950 . S
H1024 C1029 0.950 . S
H1025 C1030 0.949 . S
H1026 C1032 0.950 . S
H1027 C1033 0.950 . S
H1028 C1034 0.949 . S
C1029 H1024 0.950 . S
C1029 C1031 1.327 . S
C1029 C1035 1.429 . S
C1030 C1022 1.574 . S
C1030 H1025 0.949 . S
C1030 C1036 1.368 . S
C1031 C1015 1.349 . S
C1031 H1023 0.950 . S
C1031 C1029 1.327 . S
C1032 C1020 1.349 . S
C1032 H1026 0.950 . S
C1032 C1033 1.327 . S
C1033 H1027 0.950 . S
C1033 C1032 1.327 . S
C1033 C1037 1.429 . S
C1034 C1017 1.574 . S
C1034 H1028 0.949 . S
C1034 C1038 1.368 . S
C1035 C1016 1.429 . S
C1035 C1029 1.429 . S
C1035 C1036 1.523 . S
C1036 C1017 1.368 . S
C1036 C1030 1.368 . S
C1036 C1035 1.523 . S
C1037 C1021 1.429 . S
C1037 C1033 1.429 . S
C1037 C1038 1.523 . S
C1038 C1022 1.368 . S
C1038 C1034 1.368 . S
C1038 C1037 1.523 . S
H1039 C1014 0.950 . S
H1040 C1016 0.950 . S
H1041 C1017 0.949 . S
H1042 C1019 0.950 . S
H1043 C1021 0.950 . S
C1044 C1045 1.349 . S
C1044 C1046 1.327 . S
C1044 H1069 0.950 . S
C1045 C1044 1.349 . S
C1045 C1061 1.349 . S
C1046 C1044 1.327 . S
C1046 C1065 1.429 . S
C1046 H1070 0.950 . S
C1047 C1064 1.574 . S
C1047 C1066 1.368 . S
C1047 H1071 0.949 . S
H1048 C1052 0.949 . S
C1049 C1050 1.349 . S
C1049 C1051 1.327 . S
C1049 H1072 0.950 . S
C1050 C1049 1.349 . S
C1050 C1062 1.349 . S
C1051 C1049 1.327 . S
C1051 C1067 1.429 . S
C1051 H1073 0.950 . S
C1052 H1048 0.949 . S
C1052 C1060 1.574 . S
C1052 C1068 1.368 . S
H1053 C1061 0.950 . S
H1054 C1059 0.950 . S
H1055 C1060 0.949 . S
H1056 C1062 0.950 . S
H1057 C1063 0.950 . S
H1058 C1064 0.949 . S
C1059 H1054 0.950 . S
C1059 C1061 1.327 . S
C1059 C1065 1.429 . S
C1060 C1052 1.574 . S
C1060 H1055 0.949 . S
C1060 C1066 1.368 . S
C1061 C1045 1.349 . S
C1061 H1053 0.950 . S
C1061 C1059 1.327 . S
C1062 C1050 1.349 . S
C1062 H1056 0.950 . S
C1062 C1063 1.327 . S
C1063 H1057 0.950 . S
C1063 C1062 1.327 . S
C1063 C1067 1.429 . S
C1064 C1047 1.574 . S
C1064 H1058 0.949 . S
C1064 C1068 1.368 . S
C1065 C1046 1.429 . S
C1065 C1059 1.429 . S
C1065 C1066 1.523 . S
C1066 C1047 1.368 . S
C1066 C1060 1.368 . S
C1066 C1065 1.523 . S
C1067 C1051 1.429 . S
C1067 C1063 1.429 . S
C1067 C1068 1.523 . S
C1068 C1052 1.368 . S
C1068 C1064 1.368 . S
C1068 C1067 1.523 . S
H1069 C1044 0.950 . S
H1070 C1046 0.950 . S
H1071 C1047 0.949 . S
H1072 C1049 0.950 . S
H1073 C1051 0.950 . S
C1074 C1075 1.349 . S
C1074 C1076 1.327 . S
C1074 H1099 0.950 . S
C1075 C1074 1.349 . S
C1075 C1091 1.349 . S
C1076 C1074 1.327 . S
C1076 C1095 1.429 . S
C1076 H1100 0.950 . S
C1077 C1094 1.574 . S
C1077 C1096 1.368 . S
C1077 H1101 0.949 . S
H1078 C1082 0.949 . S
C1079 C1080 1.349 . S
C1079 C1081 1.327 . S
C1079 H1102 0.950 . S
C1080 C1079 1.349 . S
C1080 C1092 1.349 . S
C1081 C1079 1.327 . S
C1081 C1097 1.429 . S
C1081 H1103 0.950 . S
C1082 H1078 0.949 . S
C1082 C1090 1.574 . S
C1082 C1098 1.368 . S
H1083 C1091 0.950 . S
H1084 C1089 0.950 . S
H1085 C1090 0.949 . S
H1086 C1092 0.950 . S
H1087 C1093 0.950 . S
H1088 C1094 0.949 . S
C1089 H1084 0.950 . S
C1089 C1091 1.327 . S
C1089 C1095 1.429 . S
C1090 C1082 1.574 . S
C1090 H1085 0.949 . S
C1090 C1096 1.368 . S
C1091 C1075 1.349 . S
C1091 H1083 0.950 . S
C1091 C1089 1.327 . S
C1092 C1080 1.349 . S
C1092 H1086 0.950 . S
C1092 C1093 1.327 . S
C1093 H1087 0.950 . S
C1093 C1092 1.327 . S
C1093 C1097 1.429 . S
C1094 C1077 1.574 . S
C1094 H1088 0.949 . S
C1094 C1098 1.368 . S
C1095 C1076 1.429 . S
C1095 C1089 1.429 . S
C1095 C1096 1.523 . S
C1096 C1077 1.368 . S
C1096 C1090 1.368 . S
C1096 C1095 1.523 . S
C1097 C1081 1.429 . S
C1097 C1093 1.429 . S
C1097 C1098 1.523 . S
C1098 C1082 1.368 . S
C1098 C1094 1.368 . S
C1098 C1097 1.523 . S
H1099 C1074 0.950 . S
H1100 C1076 0.950 . S
H1101 C1077 0.949 . S
H1102 C1079 0.950 . S
H1103 C1081 0.950 . S
C1104 C1105 1.349 . S
C1104 C1106 1.327 . S
C1104 H1129 0.950 . S
C1105 C1104 1.349 . S
C1105 C1121 1.349 . S
C1106 C1104 1.327 . S
C1106 C1125 1.429 . S
C1106 H1130 0.950 . S
C1107 C1124 1.574 . S
C1107 C1126 1.368 . S
C1107 H1131 0.949 . S
H1108 C1112 0.949 . S
C1109 C1110 1.349 . S
C1109 C1111 1.327 . S
C1109 H1132 0.950 . S
C1110 C1109 1.349 . S
C1110 C1122 1.349 . S
C1111 C1109 1.327 . S
C1111 C1127 1.429 . S
C1111 H1133 0.950 . S
C1112 H1108 0.949 . S
C1112 C1120 1.574 . S
C1112 C1128 1.368 . S
H1113 C1121 0.950 . S
H1114 C1119 0.950 . S
H1115 C1120 0.949 . S
H1116 C1122 0.950 . S
H1117 C1123 0.950 . S
H1118 C1124 0.949 . S
C1119 H1114 0.950 . S
C1119 C1121 1.327 . S
C1119 C1125 1.429 . S
C1120 C1112 1.574 . S
C1120 H1115 0.949 . S
C1120 C1126 1.368 . S
C1121 C1105 1.349 . S
C1121 H1113 0.950 . S
C1121 C1119 1.327 . S
C1122 C1110 1.349 . S
C1122 H1116 0.950 . S
C1122 C1123 1.327 . S
C1123 H1117 0.950 . S
C1123 C1122 1.327 . S
C1123 C1127 1.429 . S
C1124 C1107 1.574 . S
C1124 H1118 0.949 . S
C1124 C1128 1.368 . S
C1125 C1106 1.429 . S
C1125 C1119 1.429 . S
C1125 C1126 1.523 . S
C1126 C1107 1.368 . S
C1126 C1120 1.368 . S
C1126 C1125 1.523 . S
C1127 C1111 1.429 . S
C1127 C1123 1.429 . S
C1127 C1128 1.523 . S
C1128 C1112 1.368 . S
C1128 C1124 1.368 . S
C1128 C1127 1.523 . S
H1129 C1104 0.950 . S
H1130 C1106 0.950 . S
H1131 C1107 0.949 . S
H1132 C1109 0.950 . S
H1133 C1111 0.950 . S
C1134 C1135 1.349 . S
C1134 C1136 1.327 . S
C1134 H1159 0.950 . S
C1135 C1134 1.349 . S
C1135 C1151 1.349 . S
C1136 C1134 1.327 . S
C1136 C1155 1.429 . S
C1136 H1160 0.950 . S
C1137 C1154 1.574 . S
C1137 C1156 1.368 . S
C1137 H1161 0.949 . S
H1138 C1142 0.949 . S
C1139 C1140 1.349 . S
C1139 C1141 1.327 . S
C1139 H1162 0.950 . S
C1140 C1139 1.349 . S
C1140 C1152 1.349 . S
C1141 C1139 1.327 . S
C1141 C1157 1.429 . S
C1141 H1163 0.950 . S
C1142 H1138 0.949 . S
C1142 C1150 1.574 . S
C1142 C1158 1.368 . S
H1143 C1151 0.950 . S
H1144 C1149 0.950 . S
H1145 C1150 0.949 . S
H1146 C1152 0.950 . S
H1147 C1153 0.950 . S
H1148 C1154 0.949 . S
C1149 H1144 0.950 . S
C1149 C1151 1.327 . S
C1149 C1155 1.429 . S
C1150 C1142 1.574 . S
C1150 H1145 0.949 . S
C1150 C1156 1.368 . S
C1151 C1135 1.349 . S
C1151 H1143 0.950 . S
C1151 C1149 1.327 . S
C1152 C1140 1.349 . S
C1152 H1146 0.950 . S
C1152 C1153 1.327 . S
C1153 H1147 0.950 . S
C1153 C1152 1.327 . S
C1153 C1157 1.429 . S
C1154 C1137 1.574 . S
C1154 H1148 0.949 . S
C1154 C1158 1.368 . S
C1155 C1136 1.429 . S
C1155 C1149 1.429 . S
C1155 C1156 1.523 . S
C1156 C1137 1.368 . S
C1156 C1150 1.368 . S
C1156 C1155 1.523 . S
C1157 C1141 1.429 . S
C1157 C1153 1.429 . S
C1157 C1158 1.523 . S
C1158 C1142 1.368 . S
C1158 C1154 1.368 . S
C1158 C1157 1.523 . S
H1159 C1134 0.950 . S
H1160 C1136 0.950 . S
H1161 C1137 0.949 . S
H1162 C1139 0.950 . S
H1163 C1141 0.950 . S
C1164 C1165 1.349 . S
C1164 C1166 1.327 . S
C1164 H1189 0.950 . S
C1165 C1164 1.349 . S
C1165 C1181 1.349 . S
C1166 C1164 1.327 . S
C1166 C1185 1.429 . S
C1166 H1190 0.950 . S
C1167 C1184 1.574 . S
C1167 C1186 1.368 . S
C1167 H1191 0.949 . S
H1168 C1172 0.949 . S
C1169 C1170 1.349 . S
C1169 C1171 1.327 . S
C1169 H1192 0.950 . S
C1170 C1169 1.349 . S
C1170 C1182 1.349 . S
C1171 C1169 1.327 . S
C1171 C1187 1.429 . S
C1171 H1193 0.950 . S
C1172 H1168 0.949 . S
C1172 C1180 1.574 . S
C1172 C1188 1.368 . S
H1173 C1181 0.950 . S
H1174 C1179 0.950 . S
H1175 C1180 0.949 . S
H1176 C1182 0.950 . S
H1177 C1183 0.950 . S
H1178 C1184 0.949 . S
C1179 H1174 0.950 . S
C1179 C1181 1.327 . S
C1179 C1185 1.429 . S
C1180 C1172 1.574 . S
C1180 H1175 0.949 . S
C1180 C1186 1.368 . S
C1181 C1165 1.349 . S
C1181 H1173 0.950 . S
C1181 C1179 1.327 . S
C1182 C1170 1.349 . S
C1182 H1176 0.950 . S
C1182 C1183 1.327 . S
C1183 H1177 0.950 . S
C1183 C1182 1.327 . S
C1183 C1187 1.429 . S
C1184 C1167 1.574 . S
C1184 H1178 0.949 . S
C1184 C1188 1.368 . S
C1185 C1166 1.429 . S
C1185 C1179 1.429 . S
C1185 C1186 1.523 . S
C1186 C1167 1.368 . S
C1186 C1180 1.368 . S
C1186 C1185 1.523 . S
C1187 C1171 1.429 . S
C1187 C1183 1.429 . S
C1187 C1188 1.523 . S
C1188 C1172 1.368 . S
C1188 C1184 1.368 . S
C1188 C1187 1.523 . S
H1189 C1164 0.950 . S
H1190 C1166 0.950 . S
H1191 C1167 0.949 . S
H1192 C1169 0.950 . S
H1193 C1171 0.950 . S
C1194 C1195 1.349 . S
C1194 C1196 1.327 . S
C1194 H1219 0.950 . S
C1195 C1194 1.349 . S
C1195 C1211 1.349 . S
C1196 C1194 1.327 . S
C1196 C1215 1.429 . S
C1196 H1220 0.950 . S
C1197 C1214 1.574 . S
C1197 C1216 1.368 . S
C1197 H1221 0.949 . S
H1198 C1202 0.949 . S
C1199 C1200 1.349 . S
C1199 C1201 1.327 . S
C1199 H1222 0.950 . S
C1200 C1199 1.349 . S
C1200 C1212 1.349 . S
C1201 C1199 1.327 . S
C1201 C1217 1.429 . S
C1201 H1223 0.950 . S
C1202 H1198 0.949 . S
C1202 C1210 1.574 . S
C1202 C1218 1.368 . S
H1203 C1211 0.950 . S
H1204 C1209 0.950 . S
H1205 C1210 0.949 . S
H1206 C1212 0.950 . S
H1207 C1213 0.950 . S
H1208 C1214 0.949 . S
C1209 H1204 0.950 . S
C1209 C1211 1.327 . S
C1209 C1215 1.429 . S
C1210 C1202 1.574 . S
C1210 H1205 0.949 . S
C1210 C1216 1.368 . S
C1211 C1195 1.349 . S
C1211 H1203 0.950 . S
C1211 C1209 1.327 . S
C1212 C1200 1.349 . S
C1212 H1206 0.950 . S
C1212 C1213 1.327 . S
C1213 H1207 0.950 . S
C1213 C1212 1.327 . S
C1213 C1217 1.429 . S
C1214 C1197 1.574 . S
C1214 H1208 0.949 . S
C1214 C1218 1.368 . S
C1215 C1196 1.429 . S
C1215 C1209 1.429 . S
C1215 C1216 1.523 . S
C1216 C1197 1.368 . S
C1216 C1210 1.368 . S
C1216 C1215 1.523 . S
C1217 C1201 1.429 . S
C1217 C1213 1.429 . S
C1217 C1218 1.523 . S
C1218 C1202 1.368 . S
C1218 C1214 1.368 . S
C1218 C1217 1.523 . S
H1219 C1194 0.950 . S
H1220 C1196 0.950 . S
H1221 C1197 0.949 . S
H1222 C1199 0.950 . S
H1223 C1201 0.950 . S
C1224 C1225 1.349 . S
C1224 C1226 1.327 . S
C1224 H1249 0.950 . S
C1225 C1224 1.349 . S
C1225 C1241 1.349 . S
C1226 C1224 1.327 . S
C1226 C1245 1.429 . S
C1226 H1250 0.950 . S
C1227 C1244 1.574 . S
C1227 C1246 1.368 . S
C1227 H1251 0.949 . S
H1228 C1232 0.949 . S
C1229 C1230 1.349 . S
C1229 C1231 1.327 . S
C1229 H1252 0.950 . S
C1230 C1229 1.349 . S
C1230 C1242 1.349 . S
C1231 C1229 1.327 . S
C1231 C1247 1.429 . S
C1231 H1253 0.950 . S
C1232 H1228 0.949 . S
C1232 C1240 1.574 . S
C1232 C1248 1.368 . S
H1233 C1241 0.950 . S
H1234 C1239 0.950 . S
H1235 C1240 0.949 . S
H1236 C1242 0.950 . S
H1237 C1243 0.950 . S
H1238 C1244 0.949 . S
C1239 H1234 0.950 . S
C1239 C1241 1.327 . S
C1239 C1245 1.429 . S
C1240 C1232 1.574 . S
C1240 H1235 0.949 . S
C1240 C1246 1.368 . S
C1241 C1225 1.349 . S
C1241 H1233 0.950 . S
C1241 C1239 1.327 . S
C1242 C1230 1.349 . S
C1242 H1236 0.950 . S
C1242 C1243 1.327 . S
C1243 H1237 0.950 . S
C1243 C1242 1.327 . S
C1243 C1247 1.429 . S
C1244 C1227 1.574 . S
C1244 H1238 0.949 . S
C1244 C1248 1.368 . S
C1245 C1226 1.429 . S
C1245 C1239 1.429 . S
C1245 C1246 1.523 . S
C1246 C1227 1.368 . S
C1246 C1240 1.368 . S
C1246 C1245 1.523 . S
C1247 C1231 1.429 . S
C1247 C1243 1.429 . S
C1247 C1248 1.523 . S
C1248 C1232 1.368 . S
C1248 C1244 1.368 . S
C1248 C1247 1.523 . S
H1249 C1224 0.950 . S
H1250 C1226 0.950 . S
H1251 C1227 0.949 . S
H1252 C1229 0.950 . S
H1253 C1231 0.950 . S
C1254 C1255 1.349 . S
C1254 C1256 1.327 . S
C1254 H1279 0.950 . S
C1255 C1254 1.349 . S
C1255 C1271 1.349 . S
C1256 C1254 1.327 . S
C1256 C1275 1.429 . S
C1256 H1280 0.950 . S
C1257 C1274 1.574 . S
C1257 C1276 1.368 . S
C1257 H1281 0.949 . S
H1258 C1262 0.949 . S
C1259 C1260 1.349 . S
C1259 C1261 1.327 . S
C1259 H1282 0.950 . S
C1260 C1259 1.349 . S
C1260 C1272 1.349 . S
C1261 C1259 1.327 . S
C1261 C1277 1.429 . S
C1261 H1283 0.950 . S
C1262 H1258 0.949 . S
C1262 C1270 1.574 . S
C1262 C1278 1.368 . S
H1263 C1271 0.950 . S
H1264 C1269 0.950 . S
H1265 C1270 0.949 . S
H1266 C1272 0.950 . S
H1267 C1273 0.950 . S
H1268 C1274 0.949 . S
C1269 H1264 0.950 . S
C1269 C1271 1.327 . S
C1269 C1275 1.429 . S
C1270 C1262 1.574 . S
C1270 H1265 0.949 . S
C1270 C1276 1.368 . S
C1271 C1255 1.349 . S
C1271 H1263 0.950 . S
C1271 C1269 1.327 . S
C1272 C1260 1.349 . S
C1272 H1266 0.950 . S
C1272 C1273 1.327 . S
C1273 H1267 0.950 . S
C1273 C1272 1.327 . S
C1273 C1277 1.429 . S
C1274 C1257 1.574 . S
C1274 H1268 0.949 . S
C1274 C1278 1.368 . S
C1275 C1256 1.429 . S
C1275 C1269 1.429 . S
C1275 C1276 1.523 . S
C1276 C1257 1.368 . S
C1276 C1270 1.368 . S
C1276 C1275 1.523 . S
C1277 C1261 1.429 . S
C1277 C1273 1.429 . S
C1277 C1278 1.523 . S
C1278 C1262 1.368 . S
C1278 C1274 1.368 . S
C1278 C1277 1.523 . S
H1279 C1254 0.950 . S
H1280 C1256 0.950 . S
H1281 C1257 0.949 . S
H1282 C1259 0.950 . S
H1283 C1261 0.950 . S
C1284 C1285 1.349 . S
C1284 C1286 1.327 . S
C1284 H1309 0.950 . S
C1285 C1284 1.349 . S
C1285 C1301 1.349 . S
C1286 C1284 1.327 . S
C1286 C1305 1.429 . S
C1286 H1310 0.950 . S
C1287 C1304 1.574 . S
C1287 C1306 1.368 . S
C1287 H1311 0.949 . S
H1288 C1292 0.949 . S
C1289 C1290 1.349 . S
C1289 C1291 1.327 . S
C1289 H1312 0.950 . S
C1290 C1289 1.349 . S
C1290 C1302 1.349 . S
C1291 C1289 1.327 . S
C1291 C1307 1.429 . S
C1291 H1313 0.950 . S
C1292 H1288 0.949 . S
C1292 C1300 1.574 . S
C1292 C1308 1.368 . S
H1293 C1301 0.950 . S
H1294 C1299 0.950 . S
H1295 C1300 0.949 . S
H1296 C1302 0.950 . S
H1297 C1303 0.950 . S
H1298 C1304 0.949 . S
C1299 H1294 0.950 . S
C1299 C1301 1.327 . S
C1299 C1305 1.429 . S
C1300 C1292 1.574 . S
C1300 H1295 0.949 . S
C1300 C1306 1.368 . S
C1301 C1285 1.349 . S
C1301 H1293 0.950 . S
C1301 C1299 1.327 . S
C1302 C1290 1.349 . S
C1302 H1296 0.950 . S
C1302 C1303 1.327 . S
C1303 H1297 0.950 . S
C1303 C1302 1.327 . S
C1303 C1307 1.429 . S
C1304 C1287 1.574 . S
C1304 H1298 0.949 . S
C1304 C1308 1.368 . S
C1305 C1286 1.429 . S
C1305 C1299 1.429 . S
C1305 C1306 1.523 . S
C1306 C1287 1.368 . S
C1306 C1300 1.368 . S
C1306 C1305 1.523 . S
C1307 C1291 1.429 . S
C1307 C1303 1.429 . S
C1307 C1308 1.523 . S
C1308 C1292 1.368 . S
C1308 C1304 1.368 . S
C1308 C1307 1.523 . S
H1309 C1284 0.950 . S
H1310 C1286 0.950 . S
H1311 C1287 0.949 . S
H1312 C1289 0.950 . S
H1313 C1291 0.950 . S
C1314 C1315 1.349 . S
C1314 C1316 1.327 . S
C1314 H1339 0.950 . S
C1315 C1314 1.349 . S
C1315 C1331 1.349 . S
C1316 C1314 1.327 . S
C1316 C1335 1.429 . S
C1316 H1340 0.950 . S
C1317 C1334 1.574 . S
C1317 C1336 1.368 . S
C1317 H1341 0.949 . S
H1318 C1322 0.949 . S
C1319 C1320 1.349 . S
C1319 C1321 1.327 . S
C1319 H1342 0.950 . S
C1320 C1319 1.349 . S
C1320 C1332 1.349 . S
C1321 C1319 1.327 . S
C1321 C1337 1.429 . S
C1321 H1343 0.950 . S
C1322 H1318 0.949 . S
C1322 C1330 1.574 . S
C1322 C1338 1.368 . S
H1323 C1331 0.950 . S
H1324 C1329 0.950 . S
H1325 C1330 0.949 . S
H1326 C1332 0.950 . S
H1327 C1333 0.950 . S
H1328 C1334 0.949 . S
C1329 H1324 0.950 . S
C1329 C1331 1.327 . S
C1329 C1335 1.429 . S
C1330 C1322 1.574 . S
C1330 H1325 0.949 . S
C1330 C1336 1.368 . S
C1331 C1315 1.349 . S
C1331 H1323 0.950 . S
C1331 C1329 1.327 . S
C1332 C1320 1.349 . S
C1332 H1326 0.950 . S
C1332 C1333 1.327 . S
C1333 H1327 0.950 . S
C1333 C1332 1.327 . S
C1333 C1337 1.429 . S
C1334 C1317 1.574 . S
C1334 H1328 0.949 . S
C1334 C1338 1.368 . S
C1335 C1316 1.429 . S
C1335 C1329 1.429 . S
C1335 C1336 1.523 . S
C1336 C1317 1.368 . S
C1336 C1330 1.368 . S
C1336 C1335 1.523 . S
C1337 C1321 1.429 . S
C1337 C1333 1.429 . S
C1337 C1338 1.523 . S
C1338 C1322 1.368 . S
C1338 C1334 1.368 . S
C1338 C1337 1.523 . S
H1339 C1314 0.950 . S
H1340 C1316 0.950 . S
H1341 C1317 0.949 . S
H1342 C1319 0.950 . S
H1343 C1321 0.950 . S
C265 C7 1.169 . S
C270 C182 1.167 . S
C295 C204 1.169 . S
C300 C29 1.167 . S
C325 C51 1.169 . S
C330 C226 1.167 . S
C355 C248 1.169 . S
C360 C73 1.167 . S
C385 C95 1.169 . S
C390 C138 1.167 . S
C415 C160 1.169 . S
C420 C117 1.167 . S
C445 C251 1.169 . S
C450 C71 1.171 . S
C475 C93 1.169 . S
C480 C141 1.171 . S
C505 C163 1.169 . S
C510 C115 1.171 . S
C535 C185 1.169 . S
C540 C5 1.171 . S
C565 C207 1.169 . S
C570 C27 1.171 . S
C595 C49 1.169 . S
C600 C229 1.171 . S
C625 C159 1.225 . S
C630 C9 1.222 . S
C655 C181 1.224 . S
C660 C31 1.222 . S
C685 C203 1.225 . S
C690 C53 1.222 . S
C715 C75 1.225 . S
C720 C225 1.222 . S
C745 C97 1.224 . S
C750 C247 1.222 . S
C775 C137 1.225 . S
C780 C119 1.222 . S
C805 C227 1.225 . S
C810 C72 1.227 . S
C835 C94 1.224 . S
C840 C249 1.227 . S
C865 C139 1.225 . S
C870 C116 1.227 . S
C895 C161 1.225 . S
C900 C6 1.227 . S
C925 C28 1.224 . S
C930 C183 1.227 . S
C955 C50 1.225 . S
C960 C205 1.227 . S
C985 C8 1.563 . S
C990 C224 1.561 . S
C1015 C30 1.563 . S
C1020 C246 1.561 . S
C1045 C136 1.563 . S
C1050 C52 1.561 . S
C1075 C158 1.563 . S
C1080 C74 1.561 . S
C1105 C96 1.563 . S
C1110 C180 1.561 . S
C1135 C202 1.563 . S
C1140 C118 1.561 . S
C1165 C70 1.563 . S
C1170 C162 1.565 . S
C1195 C92 1.563 . S
C1200 C184 1.565 . S
C1225 C206 1.563 . S
C1230 C114 1.565 . S
C1255 C228 1.563 . S
C1260 C4 1.565 . S
C1285 C250 1.563 . S
C1290 C26 1.565 . S
C1315 C140 1.563 . S
C1320 C48 1.565 . S
