# Generated by pormake.
# Topology snl, (6)-cn, num edge types: 1
# Building blocks:
#     Node 0, Type 0, BuildingBlock: CUKXOW_clean_sbu_0, # of connection points: 6
#     Node 1, Type 0, BuildingBlock: CUKXOW_clean_sbu_0, # of connection points: 6
#     Node 2, Type 0, BuildingBlock: CUKXOW_clean_sbu_0, # of connection points: 6
#     Node 3, Type 0, BuildingBlock: CUKXOW_clean_sbu_0, # of connection points: 6
#     Node 4, Type 0, BuildingBlock: CUKXOW_clean_sbu_0, # of connection points: 6
#     Node 5, Type 0, BuildingBlock: CUKXOW_clean_sbu_0, # of connection points: 6
#     Node 6, Type 0, BuildingBlock: CUKXOW_clean_sbu_0, # of connection points: 6
#     Node 7, Type 0, BuildingBlock: CUKXOW_clean_sbu_0, # of connection points: 6
#     Node 8, Type 0, BuildingBlock: CUKXOW_clean_sbu_0, # of connection points: 6
#     Node 9, Type 0, BuildingBlock: CUKXOW_clean_sbu_0, # of connection points: 6
#     Node 10, Type 0, BuildingBlock: CUKXOW_clean_sbu_0, # of connection points: 6
#     Node 11, Type 0, BuildingBlock: CUKXOW_clean_sbu_0, # of connection points: 6
#     Node 12, Type 0, BuildingBlock: CUKXOW_clean_sbu_0, # of connection points: 6
#     Node 13, Type 0, BuildingBlock: CUKXOW_clean_sbu_0, # of connection points: 6
#     Node 14, Type 0, BuildingBlock: CUKXOW_clean_sbu_0, # of connection points: 6
#     Node 15, Type 0, BuildingBlock: CUKXOW_clean_sbu_0, # of connection points: 6
#     Edge 16, Type (0, 0), BuildingBlock: TEMPAE_clean_linker_10, # of connection points: 2
#     Edge 17, Type (0, 0), BuildingBlock: TEMPAE_clean_linker_10, # of connection points: 2
#     Edge 18, Type (0, 0), BuildingBlock: TEMPAE_clean_linker_10, # of connection points: 2
#     Edge 19, Type (0, 0), BuildingBlock: TEMPAE_clean_linker_10, # of connection points: 2
#     Edge 20, Type (0, 0), BuildingBlock: TEMPAE_clean_linker_10, # of connection points: 2
#     Edge 21, Type (0, 0), BuildingBlock: TEMPAE_clean_linker_10, # of connection points: 2
#     Edge 22, Type (0, 0), BuildingBlock: TEMPAE_clean_linker_10, # of connection points: 2
#     Edge 23, Type (0, 0), BuildingBlock: TEMPAE_clean_linker_10, # of connection points: 2
#     Edge 24, Type (0, 0), BuildingBlock: TEMPAE_clean_linker_10, # of connection points: 2
#     Edge 25, Type (0, 0), BuildingBlock: TEMPAE_clean_linker_10, # of connection points: 2
#     Edge 26, Type (0, 0), BuildingBlock: TEMPAE_clean_linker_10, # of connection points: 2
#     Edge 27, Type (0, 0), BuildingBlock: TEMPAE_clean_linker_10, # of connection points: 2
#     Edge 28, Type (0, 0), BuildingBlock: TEMPAE_clean_linker_10, # of connection points: 2
#     Edge 29, Type (0, 0), BuildingBlock: TEMPAE_clean_linker_10, # of connection points: 2
#     Edge 30, Type (0, 0), BuildingBlock: TEMPAE_clean_linker_10, # of connection points: 2
#     Edge 31, Type (0, 0), BuildingBlock: TEMPAE_clean_linker_10, # of connection points: 2
#     Edge 32, Type (0, 0), BuildingBlock: TEMPAE_clean_linker_10, # of connection points: 2
#     Edge 33, Type (0, 0), BuildingBlock: TEMPAE_clean_linker_10, # of connection points: 2
#     Edge 34, Type (0, 0), BuildingBlock: TEMPAE_clean_linker_10, # of connection points: 2
#     Edge 35, Type (0, 0), BuildingBlock: TEMPAE_clean_linker_10, # of connection points: 2
#     Edge 36, Type (0, 0), BuildingBlock: TEMPAE_clean_linker_10, # of connection points: 2
#     Edge 37, Type (0, 0), BuildingBlock: TEMPAE_clean_linker_10, # of connection points: 2
#     Edge 38, Type (0, 0), BuildingBlock: TEMPAE_clean_linker_10, # of connection points: 2
#     Edge 39, Type (0, 0), BuildingBlock: TEMPAE_clean_linker_10, # of connection points: 2
#     Edge 40, Type (0, 0), BuildingBlock: TEMPAE_clean_linker_10, # of connection points: 2
#     Edge 41, Type (0, 0), BuildingBlock: TEMPAE_clean_linker_10, # of connection points: 2
#     Edge 42, Type (0, 0), BuildingBlock: TEMPAE_clean_linker_10, # of connection points: 2
#     Edge 43, Type (0, 0), BuildingBlock: TEMPAE_clean_linker_10, # of connection points: 2
#     Edge 44, Type (0, 0), BuildingBlock: TEMPAE_clean_linker_10, # of connection points: 2
#     Edge 45, Type (0, 0), BuildingBlock: TEMPAE_clean_linker_10, # of connection points: 2
#     Edge 46, Type (0, 0), BuildingBlock: TEMPAE_clean_linker_10, # of connection points: 2
#     Edge 47, Type (0, 0), BuildingBlock: TEMPAE_clean_linker_10, # of connection points: 2
#     Edge 48, Type (0, 0), BuildingBlock: TEMPAE_clean_linker_10, # of connection points: 2
#     Edge 49, Type (0, 0), BuildingBlock: TEMPAE_clean_linker_10, # of connection points: 2
#     Edge 50, Type (0, 0), BuildingBlock: TEMPAE_clean_linker_10, # of connection points: 2
#     Edge 51, Type (0, 0), BuildingBlock: TEMPAE_clean_linker_10, # of connection points: 2
#     Edge 52, Type (0, 0), BuildingBlock: TEMPAE_clean_linker_10, # of connection points: 2
#     Edge 53, Type (0, 0), BuildingBlock: TEMPAE_clean_linker_10, # of connection points: 2
#     Edge 54, Type (0, 0), BuildingBlock: TEMPAE_clean_linker_10, # of connection points: 2
#     Edge 55, Type (0, 0), BuildingBlock: TEMPAE_clean_linker_10, # of connection points: 2
#     Edge 56, Type (0, 0), BuildingBlock: TEMPAE_clean_linker_10, # of connection points: 2
#     Edge 57, Type (0, 0), BuildingBlock: TEMPAE_clean_linker_10, # of connection points: 2
#     Edge 58, Type (0, 0), BuildingBlock: TEMPAE_clean_linker_10, # of connection points: 2
#     Edge 59, Type (0, 0), BuildingBlock: TEMPAE_clean_linker_10, # of connection points: 2
#     Edge 60, Type (0, 0), BuildingBlock: TEMPAE_clean_linker_10, # of connection points: 2
#     Edge 61, Type (0, 0), BuildingBlock: TEMPAE_clean_linker_10, # of connection points: 2
#     Edge 62, Type (0, 0), BuildingBlock: TEMPAE_clean_linker_10, # of connection points: 2
#     Edge 63, Type (0, 0), BuildingBlock: TEMPAE_clean_linker_10, # of connection points: 2
# Relax obj value: 0.193
# Max RMSD: 0.285
# Mean RMSD: 0.225
data_MOF--net-snl--node1-CUKXOW_clean_sbu_0--edge1-TEMPAE_clean_linker_10
_symmetry_space_group_name_H-M    P1
_symmetry_Int_Tables_number       1
_symmetry_cell_setting            triclinic
loop_
_symmetry_equiv_pos_as_xyz
'x, y, z'
_cell_length_a     67.912843
_cell_length_b     65.522102
_cell_length_c     14.796395
_cell_angle_alpha  94.486373
_cell_angle_beta   94.57222
_cell_angle_gamma 90.09654
loop_
_atom_site_label
_atom_site_type_symbol
_atom_site_fract_x
_atom_site_fract_y
_atom_site_fract_z
_atom_type_partial_charge
Tb0 Tb 0.11283 0.6182 0.18242 0.0
C1 C 0.136 0.65883 0.24984 0.0
Tb2 Tb 0.15809 0.61601 0.22667 0.0
O3 O 0.10351 0.61637 0.32195 0.0
O4 O 0.13264 0.61553 0.29724 0.0
O5 O 0.1188 0.65051 0.21669 0.0
C6 C 0.19492 0.61601 0.3026 0.0
O7 O 0.15269 0.64839 0.26116 0.0
C8 C 0.14614 0.61235 0.0506 0.0
C9 C 0.13454 0.57584 0.17617 0.0
O10 O 0.18933 0.62407 0.22739 0.0
O11 O 0.17974 0.60819 0.33569 0.0
O12 O 0.16188 0.60396 0.08663 0.0
O13 O 0.13863 0.62354 0.11257 0.0
O14 O 0.14956 0.58427 0.22845 0.0
O15 O 0.1202 0.58683 0.13852 0.0
C16 C 0.07701 0.61867 0.09445 0.0
O17 O 0.08286 0.60616 0.15449 0.0
O18 O 0.09137 0.63117 0.08378 0.0
C19 C 0.12128 0.61506 0.36043 0.0
Tb20 Tb 0.5999 0.87732 0.42782 0.0
C21 C 0.62141 0.83383 0.42341 0.0
Tb22 Tb 0.64547 0.87561 0.42512 0.0
O23 O 0.59963 0.89328 0.30348 0.0
O24 O 0.62075 0.87103 0.32662 0.0
O25 O 0.60496 0.84429 0.4379 0.0
C26 C 0.68198 0.87521 0.36524 0.0
O27 O 0.63827 0.84283 0.40794 0.0
C28 C 0.63596 0.8778 0.59629 0.0
C29 C 0.62423 0.91847 0.46679 0.0
O30 O 0.6753 0.86274 0.41987 0.0
O31 O 0.66796 0.88786 0.34342 0.0
O32 O 0.65393 0.87761 0.57208 0.0
O33 O 0.62462 0.87714 0.52396 0.0
O34 O 0.63956 0.90883 0.43221 0.0
O35 O 0.60783 0.90856 0.4822 0.0
C36 C 0.56022 0.87517 0.43137 0.0
O37 O 0.5703 0.87039 0.36213 0.0
O38 O 0.57262 0.88071 0.50084 0.0
C39 C 0.61464 0.88389 0.2715 0.0
Tb40 Tb 0.40774 0.36225 0.6579 0.0
C41 C 0.38062 0.32246 0.65391 0.0
Tb42 Tb 0.36102 0.36664 0.67062 0.0
O43 O 0.41581 0.36216 0.80619 0.0
O44 O 0.38709 0.36488 0.75677 0.0
O45 O 0.3986 0.33003 0.64512 0.0
C46 C 0.3254 0.37034 0.73169 0.0
O47 O 0.36463 0.3337 0.66673 0.0
C48 C 0.37093 0.36555 0.49882 0.0
C49 C 0.38745 0.40546 0.67557 0.0
O50 O 0.33808 0.3563 0.75263 0.0
O51 O 0.33284 0.38228 0.67706 0.0
O52 O 0.35298 0.36754 0.52264 0.0
O53 O 0.38165 0.36417 0.57164 0.0
O54 O 0.37226 0.39722 0.71084 0.0
O55 O 0.40125 0.39423 0.63708 0.0
C56 C 0.44401 0.36349 0.602 0.0
O57 O 0.43767 0.3745 0.67013 0.0
O58 O 0.42987 0.35138 0.56475 0.0
C59 C 0.39787 0.36421 0.82989 0.0
Tb60 Tb 0.87816 0.15027 0.90691 0.0
C61 C 0.9209 0.1296 0.91287 0.0
Tb62 Tb 0.88161 0.10277 0.9176 0.0
O63 O 0.86753 0.15288 0.04297 0.0
O64 O 0.88652 0.12947 1.01038 0.0
O65 O 0.91014 0.14621 0.89702 0.0
C66 C 0.88335 0.06464 0.97671 0.0
O67 O 0.91301 0.11194 0.93256 0.0
C68 C 0.87769 0.11206 0.7443 0.0
C69 C 0.83978 0.12293 0.87471 0.0
O70 O 0.8918 0.07082 0.90788 0.0
O71 O 0.8741 0.08016 1.0138 0.0
O72 O 0.87902 0.09359 0.77011 0.0
O73 O 0.87808 0.12386 0.81615 0.0
O74 O 0.84957 0.10825 0.91652 0.0
O75 O 0.84911 0.13909 0.84834 0.0
C76 C 0.87539 0.19111 0.88568 0.0
O77 O 0.86388 0.18019 0.92848 0.0
O78 O 0.8886 0.17887 0.85251 0.0
C79 C 0.87571 0.13655 0.071 0.0
Tb80 Tb 0.10616 0.38299 0.99647 0.0
C81 C 0.12536 0.34096 0.95455 0.0
Tb82 Tb 0.15111 0.38143 0.98263 0.0
O83 O 0.10108 0.37221 0.8528 0.0
O84 O 0.12607 0.38996 0.89628 0.0
O85 O 0.11088 0.3503 0.99586 0.0
C86 C 0.18693 0.38057 0.92215 0.0
O87 O 0.14139 0.35058 0.93392 0.0
C88 C 0.14263 0.37675 0.15394 0.0
C89 C 0.13144 0.42368 0.02591 0.0
O90 O 0.17214 0.36906 0.88845 0.0
O91 O 0.1815 0.39262 0.98926 0.0
O92 O 0.16029 0.37589 0.12638 0.0
O93 O 0.13136 0.37923 0.08397 0.0
O94 O 0.14626 0.41423 0.9876 0.0
O95 O 0.11537 0.41393 0.04496 0.0
C96 C 0.06969 0.38912 0.04501 0.0
O97 O 0.07711 0.39671 0.97669 0.0
O98 O 0.08276 0.37781 0.0858 0.0
C99 C 0.11738 0.37964 0.82825 0.0
Tb100 Tb 0.90686 0.87224 0.13037 0.0
C101 C 0.88392 0.82991 0.12567 0.0
Tb102 Tb 0.86087 0.87161 0.13494 0.0
O103 O 0.91439 0.86935 0.27724 0.0
O104 O 0.88585 0.87128 0.2276 0.0
O105 O 0.89925 0.83963 0.09698 0.0
C106 C 0.8233 0.87455 0.18239 0.0
O107 O 0.86877 0.83992 0.15989 0.0
C108 C 0.87416 0.86477 0.97144 0.0
C109 C 0.88286 0.91454 0.12077 0.0
O110 O 0.82871 0.86869 0.10238 0.0
O111 O 0.8391 0.87893 0.23585 0.0
O112 O 0.85785 0.85732 0.99614 0.0
O113 O 0.88172 0.87681 0.03641 0.0
O114 O 0.86601 0.90485 0.13226 0.0
O115 O 0.89994 0.90468 0.1133 0.0
C116 C 0.94554 0.87445 0.10265 0.0
O117 O 0.93602 0.88676 0.15626 0.0
O118 O 0.93299 0.86106 0.06095 0.0
C119 C 0.89646 0.8698 0.30051 0.0
Tb120 Tb 0.37695 0.63899 0.49603 0.0
C121 C 0.41948 0.62018 0.5288 0.0
Tb122 Tb 0.38138 0.59244 0.51035 0.0
O123 O 0.37879 0.64921 0.64294 0.0
O124 O 0.37997 0.61877 0.59952 0.0
O125 O 0.40879 0.63563 0.4998 0.0
C126 C 0.38173 0.55412 0.55799 0.0
O127 O 0.41173 0.60244 0.5463 0.0
C128 C 0.38523 0.60543 0.347 0.0
C129 C 0.33864 0.61216 0.49743 0.0
O130 O 0.37439 0.55994 0.48054 0.0
O131 O 0.3888 0.5699 0.60882 0.0
O132 O 0.39445 0.58985 0.37888 0.0
O133 O 0.37347 0.6121 0.40458 0.0
O134 O 0.34947 0.596 0.51761 0.0
O135 O 0.34627 0.62977 0.4781 0.0
C136 C 0.37416 0.67362 0.41437 0.0
O137 O 0.36467 0.66948 0.48368 0.0
O138 O 0.3855 0.65843 0.3922 0.0
C139 C 0.38008 0.63083 0.67056 0.0
Tb140 Tb 0.60611 0.11594 0.62607 0.0
C141 C 0.62956 0.15837 0.65348 0.0
Tb142 Tb 0.65219 0.11613 0.66066 0.0
O143 O 0.59906 0.11807 0.76949 0.0
O144 O 0.62759 0.11654 0.73816 0.0
O145 O 0.61331 0.14838 0.61767 0.0
C146 C 0.69072 0.11339 0.71974 0.0
O147 O 0.64559 0.14879 0.68624 0.0
C148 C 0.63846 0.123 0.49306 0.0
C149 C 0.62899 0.07362 0.61469 0.0
O150 O 0.68264 0.10633 0.64091 0.0
O151 O 0.67692 0.12167 0.7665 0.0
O152 O 0.655 0.13011 0.53346 0.0
O153 O 0.6309 0.11111 0.54475 0.0
O154 O 0.64518 0.08306 0.65523 0.0
O155 O 0.61298 0.0839 0.58727 0.0
C156 C 0.56704 0.11428 0.57504 0.0
O157 O 0.57727 0.10043 0.61539 0.0
O158 O 0.57912 0.12882 0.55884 0.0
C159 C 0.61706 0.11775 0.80453 0.0
Tb160 Tb 0.84296 0.38911 0.89857 0.0
C161 C 0.86593 0.43209 0.94361 0.0
Tb162 Tb 0.88956 0.38974 0.94853 0.0
O163 O 0.83435 0.38888 0.04057 0.0
O164 O 0.86329 0.38974 1.01391 0.0
O165 O 0.84933 0.42231 0.90938 0.0
C166 C 0.92522 0.388 0.03584 0.0
O167 O 0.88252 0.42243 0.96937 0.0
C168 C 0.88031 0.38912 0.76857 0.0
C169 C 0.86641 0.34744 0.9142 0.0
O170 O 0.91361 0.40374 0.04055 0.0
O171 O 0.91671 0.37346 0.98213 0.0
O172 O 0.89827 0.38943 0.80629 0.0
O173 O 0.86939 0.38925 0.8335 0.0
O174 O 0.88101 0.35791 0.96262 0.0
O175 O 0.85126 0.35677 0.87189 0.0
C176 C 0.80771 0.38808 0.80521 0.0
O177 O 0.81183 0.38014 0.88198 0.0
O178 O 0.82346 0.39668 0.78062 0.0
C179 C 0.8523 0.38929 0.07849 0.0
Tb180 Tb 0.33686 0.12935 0.68617 0.0
C181 C 0.35816 0.08683 0.68028 0.0
Tb182 Tb 0.38144 0.12901 0.68496 0.0
O183 O 0.33329 0.11643 0.54518 0.0
O184 O 0.35759 0.13481 0.5876 0.0
O185 O 0.34174 0.09679 0.6981 0.0
C186 C 0.41991 0.12513 0.64989 0.0
O187 O 0.37494 0.09627 0.668 0.0
C188 C 0.36786 0.13467 0.84868 0.0
C189 C 0.36044 0.17099 0.67944 0.0
O190 O 0.41332 0.1328 0.72504 0.0
O191 O 0.40477 0.11946 0.59437 0.0
O192 O 0.38393 0.14278 0.82535 0.0
O193 O 0.36074 0.12289 0.78226 0.0
O194 O 0.37557 0.1601 0.65213 0.0
O195 O 0.34445 0.16229 0.7069 0.0
C196 C 0.29841 0.13261 0.72391 0.0
O197 O 0.31356 0.13254 0.78343 0.0
O198 O 0.30504 0.13125 0.64391 0.0
C199 C 0.34986 0.12333 0.52125 0.0
Tb200 Tb 0.64677 0.63582 0.4269 0.0
C201 C 0.62435 0.59294 0.43358 0.0
Tb202 Tb 0.60174 0.63501 0.43619 0.0
O203 O 0.6561 0.63487 0.57338 0.0
O204 O 0.62683 0.63521 0.5283 0.0
O205 O 0.64037 0.6026 0.41139 0.0
C206 C 0.56437 0.63764 0.47776 0.0
O207 O 0.60815 0.60291 0.45534 0.0
C208 C 0.61443 0.62866 0.2709 0.0
C209 C 0.62369 0.67811 0.43926 0.0
O210 O 0.57086 0.64243 0.402 0.0
O211 O 0.57898 0.63159 0.53083 0.0
O212 O 0.59869 0.62034 0.29694 0.0
O213 O 0.62163 0.6408 0.3358 0.0
O214 O 0.60773 0.66816 0.45997 0.0
O215 O 0.6399 0.66836 0.41515 0.0
C216 C 0.68186 0.63495 0.35899 0.0
O217 O 0.6771 0.64699 0.42767 0.0
O218 O 0.66685 0.62337 0.32853 0.0
C219 C 0.63829 0.63475 0.59958 0.0
Tb220 Tb 0.13675 0.89513 0.19244 0.0
C221 C 0.17755 0.87259 0.21798 0.0
Tb222 Tb 0.13652 0.84862 0.20383 0.0
O223 O 0.14839 0.8998 0.3346 0.0
O224 O 0.13006 0.87469 0.29313 0.0
O225 O 0.16822 0.88864 0.18545 0.0
C226 C 0.1339 0.81051 0.25164 0.0
O227 O 0.16787 0.85622 0.24012 0.0
C228 C 0.1401 0.8576 0.03224 0.0
C229 C 0.09583 0.87099 0.16784 0.0
O230 O 0.14527 0.82469 0.29495 0.0
O231 O 0.1241 0.81795 0.18325 0.0
O232 O 0.1406 0.83923 0.05886 0.0
O233 O 0.13843 0.86919 0.10298 0.0
O234 O 0.10484 0.85505 0.20267 0.0
O235 O 0.10582 0.88735 0.14879 0.0
C236 C 0.13227 0.9329 0.14139 0.0
O237 O 0.12375 0.92553 0.20737 0.0
O238 O 0.14355 0.91911 0.10505 0.0
C239 C 0.14085 0.88313 0.35974 0.0
Tb240 Tb 0.84987 0.63239 0.03487 0.0
C241 C 0.87148 0.58899 1.00612 0.0
Tb242 Tb 0.89651 0.63091 0.02218 0.0
O243 O 0.84137 0.63288 0.88714 0.0
O244 O 0.87043 0.63186 0.93538 0.0
O245 O 0.85517 0.59918 0.02642 0.0
C246 C 0.93313 0.63294 0.97007 0.0
O247 O 0.88862 0.59823 0.99513 0.0
C248 C 0.88674 0.63084 0.19403 0.0
C249 C 0.8747 0.67368 0.0454 0.0
O250 O 0.92065 0.61807 0.94534 0.0
O251 O 0.92483 0.6465 0.02272 0.0
O252 O 0.90473 0.62992 0.17028 0.0
O253 O 0.87597 0.63139 0.121 0.0
O254 O 0.88954 0.66337 1.0101 0.0
O255 O 0.85886 0.6644 0.07147 0.0
C256 C 0.81483 0.63278 0.10381 0.0
O257 O 0.82034 0.64509 0.0458 0.0
O258 O 0.82906 0.62023 0.12295 0.0
C259 C 0.85938 0.63243 0.86294 0.0
Tb260 Tb 0.11119 0.10807 0.84319 0.0
C261 C 0.15128 0.13127 0.8274 0.0
Tb262 Tb 0.11009 0.15441 0.83191 0.0
O263 O 0.12143 0.1029 0.70725 0.0
O264 O 0.1038 0.12825 0.73745 0.0
O265 O 0.14296 0.11501 0.85749 0.0
C266 C 0.11122 0.19224 0.77787 0.0
O267 O 0.14061 0.14714 0.80234 0.0
C268 C 0.11442 0.14583 1.006 0.0
C269 C 0.06955 0.13107 0.8451 0.0
O270 O 0.12617 0.1802 0.78835 0.0
O271 O 0.09538 0.18275 0.79587 0.0
O272 O 0.11387 0.16422 0.97957 0.0
O273 O 0.11305 0.1341 0.93433 0.0
O274 O 0.07824 0.14837 0.82699 0.0
O275 O 0.07956 0.11387 0.85711 0.0
C276 C 0.11168 0.07161 0.90959 0.0
O277 O 0.10219 0.07579 0.83345 0.0
O278 O 0.12074 0.08787 0.94753 0.0
C279 C 0.11412 0.11967 0.67751 0.0
Tb280 Tb 0.62706 0.39814 0.51108 0.0
C281 C 0.66869 0.37705 0.52907 0.0
Tb282 Tb 0.62978 0.35016 0.51907 0.0
O283 O 0.63995 0.40191 0.65144 0.0
O284 O 0.62279 0.37608 0.60926 0.0
O285 O 0.65843 0.39281 0.49922 0.0
C286 C 0.62991 0.31099 0.56443 0.0
O287 O 0.66042 0.35982 0.55029 0.0
C288 C 0.63186 0.36093 0.34893 0.0
C289 C 0.58782 0.37121 0.49842 0.0
O290 O 0.62097 0.31785 0.49229 0.0
O291 O 0.63876 0.32636 0.61261 0.0
O292 O 0.63357 0.3424 0.37332 0.0
O293 O 0.62958 0.37199 0.42104 0.0
O294 O 0.59829 0.3552 0.5236 0.0
O295 O 0.596 0.38889 0.48155 0.0
C296 C 0.623 0.43809 0.47875 0.0
O297 O 0.61822 0.42969 0.55068 0.0
O298 O 0.62962 0.42376 0.42318 0.0
C299 C 0.63354 0.38466 0.67566 0.0
Tb300 Tb 0.36838 0.90295 0.37385 0.0
C301 C 0.328 0.87827 0.32126 0.0
Tb302 Tb 0.36913 0.85654 0.33432 0.0
O303 O 0.36635 0.91241 0.23332 0.0
O304 O 0.3682 0.8821 0.25771 0.0
O305 O 0.33674 0.89478 0.36555 0.0
C306 C 0.37607 0.81746 0.28449 0.0
O307 O 0.33826 0.86222 0.2913 0.0
C308 C 0.3627 0.86963 0.50372 0.0
C309 C 0.40979 0.8811 0.36579 0.0
O310 O 0.36355 0.82894 0.2413 0.0
O311 O 0.38442 0.82798 0.3549 0.0
O312 O 0.35514 0.85307 0.46092 0.0
O313 O 0.37423 0.87742 0.45267 0.0
O314 O 0.4003 0.86449 0.32726 0.0
O315 O 0.40022 0.89756 0.39701 0.0
C316 C 0.36662 0.93979 0.46174 0.0
O317 O 0.37689 0.93518 0.39285 0.0
O318 O 0.35734 0.92361 0.48183 0.0
C319 C 0.36712 0.894 0.19452 0.0
C320 C 0.13219 0.62927 0.91085 0.0
C321 C 0.14162 0.61265 0.94987 0.0
C322 C 0.12969 0.63014 0.81517 0.0
C323 C 0.13624 0.61375 0.75641 0.0
C324 C 0.14531 0.59672 0.79598 0.0
C325 C 0.14812 0.59654 0.89154 0.0
C326 C 0.12027 0.64879 0.77689 0.0
C327 C 0.15193 0.57854 0.73728 0.0
C328 C 0.11157 0.60692 0.51329 0.0
C329 C 0.12611 0.61395 0.46052 0.0
C330 C 0.11479 0.60653 0.60851 0.0
C331 C 0.13287 0.61392 0.65396 0.0
C332 C 0.14767 0.6211 0.60095 0.0
C333 C 0.14422 0.62081 0.50497 0.0
C334 C 0.09876 0.59808 0.6605 0.0
C335 C 0.16703 0.62951 0.64586 0.0
H336 H 0.12729 0.64189 0.95514 0.0
H337 H 0.15538 0.5836 0.92091 0.0
H338 H 0.13027 0.65556 0.73132 0.0
H339 H 0.10639 0.64436 0.73534 0.0
H340 H 0.11683 0.66066 0.83104 0.0
H341 H 0.15832 0.56629 0.77819 0.0
H342 H 0.13923 0.57205 0.69224 0.0
H343 H 0.16318 0.58341 0.69282 0.0
H344 H 0.09753 0.60155 0.4797 0.0
H345 H 0.15543 0.62655 0.46513 0.0
H346 H 0.09357 0.61017 0.70951 0.0
H347 H 0.10471 0.58549 0.70041 0.0
H348 H 0.08588 0.59215 0.61501 0.0
H349 H 0.16422 0.64267 0.69494 0.0
H350 H 0.17697 0.63463 0.59582 0.0
H351 H 0.17474 0.6177 0.68494 0.0
C352 C 0.62706 0.86634 0.12881 0.0
C353 C 0.61838 0.88334 0.17323 0.0
C354 C 0.62876 0.86512 0.03389 0.0
C355 C 0.62201 0.88147 0.982 0.0
C356 C 0.61359 0.89881 0.02721 0.0
C357 C 0.61171 0.89943 0.12162 0.0
C358 C 0.63765 0.84624 0.9889 0.0
C359 C 0.6067 0.91687 0.97595 0.0
C360 C 0.64574 0.88739 0.75983 0.0
C361 C 0.63107 0.87988 0.69314 0.0
C362 C 0.64282 0.88827 0.85309 0.0
C363 C 0.62486 0.88103 0.88181 0.0
C364 C 0.60983 0.87358 0.81471 0.0
C365 C 0.61303 0.87328 0.72107 0.0
C366 C 0.6591 0.89686 0.92104 0.0
C367 C 0.59057 0.86545 0.84199 0.0
H368 H 0.63206 0.85374 0.16786 0.0
H369 H 0.60498 0.91262 0.15534 0.0
H370 H 0.62725 0.8395 0.93278 0.0
H371 H 0.65137 0.8504 0.95848 0.0
H372 H 0.64124 0.83443 0.03745 0.0
H373 H 0.60041 0.92917 1.02074 0.0
H374 H 0.61925 0.92334 0.94359 0.0
H375 H 0.59532 0.91186 0.92069 0.0
H376 H 0.65972 0.8926 0.73896 0.0
H377 H 0.60171 0.86728 0.67009 0.0
H378 H 0.66443 0.88488 0.96582 0.0
H379 H 0.65337 0.9096 0.9652 0.0
H380 H 0.67186 0.90263 0.88766 0.0
H381 H 0.59347 0.85235 0.88429 0.0
H382 H 0.58033 0.86031 0.7822 0.0
H383 H 0.58318 0.87742 0.8841 0.0
C384 C 0.3665 0.37994 0.34729 0.0
C385 C 0.37659 0.36647 0.40371 0.0
C386 C 0.36975 0.38011 0.25438 0.0
C387 C 0.38281 0.36579 0.21473 0.0
C388 C 0.39305 0.35206 0.27159 0.0
C389 C 0.3901 0.35281 0.36561 0.0
C390 C 0.35918 0.39571 0.19869 0.0
C391 C 0.40669 0.33614 0.23251 0.0
C392 C 0.37626 0.35527 0.95364 0.0
C393 C 0.39247 0.3658 0.92612 0.0
C394 C 0.37312 0.35479 0.04709 0.0
C395 C 0.38608 0.36567 0.11467 0.0
C396 C 0.40202 0.37691 0.08621 0.0
C397 C 0.40523 0.37645 0.99308 0.0
C398 C 0.35627 0.3421 0.07367 0.0
C399 C 0.41573 0.38953 0.15419 0.0
H400 H 0.356 0.39051 0.37623 0.0
H401 H 0.39766 0.3421 0.40835 0.0
H402 H 0.37002 0.40457 0.16489 0.0
H403 H 0.34904 0.38788 0.14439 0.0
H404 H 0.35046 0.40659 0.24066 0.0
H405 H 0.413 0.32612 0.2845 0.0
H406 H 0.39854 0.32647 0.17677 0.0
H407 H 0.41901 0.34366 0.20268 0.0
H408 H 0.36658 0.34668 0.90252 0.0
H409 H 0.41783 0.38458 0.97233 0.0
H410 H 0.34599 0.35195 0.11181 0.0
H411 H 0.36207 0.33051 0.11953 0.0
H412 H 0.34782 0.33413 1.01371 0.0
H413 H 0.40707 0.40037 0.19646 0.0
H414 H 0.42666 0.39839 0.12085 0.0
H415 H 0.42385 0.37943 0.20079 0.0
C416 C 0.86878 0.10221 0.57986 0.0
C417 C 0.87658 0.11699 0.64716 0.0
C418 C 0.86885 0.1051 0.48652 0.0
C419 C 0.8775 0.12301 0.45844 0.0
C420 C 0.88548 0.13804 0.52627 0.0
C421 C 0.88468 0.13499 0.61976 0.0
C422 C 0.85955 0.08892 0.41784 0.0
C423 C 0.8952 0.15718 0.5 0.0
C424 C 0.89167 0.12083 0.21053 0.0
C425 C 0.87615 0.13162 0.16819 0.0
C426 C 0.89254 0.11823 0.30503 0.0
C427 C 0.87737 0.12624 0.35834 0.0
C428 C 0.86148 0.1367 0.31488 0.0
C429 C 0.86119 0.13939 0.22125 0.0
C430 C 0.90988 0.10717 0.34818 0.0
C431 C 0.84466 0.14502 0.36728 0.0
H432 H 0.86251 0.08823 0.60042 0.0
H433 H 0.89103 0.14632 0.67123 0.0
H434 H 0.84777 0.09582 0.37389 0.0
H435 H 0.87076 0.08262 0.37294 0.0
H436 H 0.85303 0.0761 0.45058 0.0
H437 H 0.90129 0.16706 0.56023 0.0
H438 H 0.90736 0.153 0.45636 0.0
H439 H 0.88438 0.16616 0.45959 0.0
H440 H 0.90338 0.11493 0.17043 0.0
H441 H 0.8491 0.14772 0.18921 0.0
H442 H 0.90466 0.0933 0.37782 0.0
H443 H 0.91736 0.11716 0.40469 0.0
H444 H 0.92081 0.1025 0.29869 0.0
H445 H 0.83754 0.13244 0.39919 0.0
H446 H 0.83324 0.15251 0.32343 0.0
H447 H 0.85035 0.15633 0.42293 0.0
C448 C 0.1518 0.36828 0.3143 0.0
C449 C 0.13786 0.37618 0.25105 0.0
C450 C 0.14871 0.36864 0.4077 0.0
C451 C 0.1314 0.37762 0.44054 0.0
C452 C 0.1172 0.38562 0.3768 0.0
C453 C 0.1205 0.38464 0.28302 0.0
C454 C 0.16406 0.35936 0.47138 0.0
C455 C 0.09866 0.39561 0.40798 0.0
C456 C 0.11462 0.36293 0.66922 0.0
C457 C 0.12226 0.37894 0.7309 0.0
C458 C 0.11766 0.36221 0.57568 0.0
C459 C 0.12813 0.37824 0.54101 0.0
C460 C 0.13593 0.3945 0.60317 0.0
C461 C 0.13315 0.39451 0.69724 0.0
C462 C 0.10964 0.34416 0.51391 0.0
C463 C 0.14693 0.4121 0.56998 0.0
H464 H 0.16528 0.36173 0.29055 0.0
H465 H 0.10977 0.39106 0.2352 0.0
H466 H 0.1703 0.37127 0.52321 0.0
H467 H 0.15714 0.34745 0.50818 0.0
H468 H 0.17637 0.35231 0.43506 0.0
H469 H 0.08912 0.40122 0.35071 0.0
H470 H 0.09003 0.3846 0.44252 0.0
H471 H 0.10263 0.40872 0.45829 0.0
H472 H 0.10624 0.35077 0.69441 0.0
H473 H 0.13897 0.40704 0.74396 0.0
H474 H 0.12173 0.33676 0.47748 0.0
H475 H 0.09859 0.34944 0.46171 0.0
H476 H 0.10257 0.33251 0.55172 0.0
H477 H 0.16028 0.40641 0.53786 0.0
H478 H 0.15152 0.42389 0.62579 0.0
H479 H 0.13746 0.41942 0.5172 0.0
C480 C 0.88852 0.88107 0.84134 0.0
C481 C 0.87805 0.86502 0.87352 0.0
C482 C 0.89037 0.88213 0.74721 0.0
C483 C 0.88187 0.86658 0.68343 0.0
C484 C 0.8716 0.85018 0.71618 0.0
C485 C 0.86968 0.8497 0.81021 0.0
C486 C 0.90131 0.90001 0.71587 0.0
C487 C 0.86269 0.83299 0.65182 0.0
C488 C 0.87394 0.87612 0.42916 0.0
C489 C 0.89104 0.86759 0.39519 0.0
C490 C 0.87066 0.87591 0.52257 0.0
C491 C 0.88472 0.86677 0.58331 0.0
C492 C 0.90169 0.85765 0.54817 0.0
C493 C 0.90469 0.85834 0.45543 0.0
C494 C 0.85244 0.88599 0.55676 0.0
C495 C 0.91691 0.84733 0.60886 0.0
H496 H 0.89484 0.8931 0.88952 0.0
H497 H 0.86154 0.83725 0.83442 0.0
H498 H 0.91444 0.89447 0.68146 0.0
H499 H 0.89168 0.90786 0.66548 0.0
H500 H 0.90627 0.91131 0.77308 0.0
H501 H 0.85506 0.82139 0.68775 0.0
H502 H 0.85192 0.8392 0.60085 0.0
H503 H 0.87441 0.82526 0.61404 0.0
H504 H 0.86355 0.88368 0.38381 0.0
H505 H 0.91799 0.85173 0.42996 0.0
H506 H 0.85683 0.89902 0.60681 0.0
H507 H 0.844 0.87502 0.59247 0.0
H508 H 0.84257 0.89174 0.50092 0.0
H509 H 0.92361 0.85864 0.66226 0.0
H510 H 0.9289 0.84025 0.57051 0.0
H511 H 0.90977 0.83525 0.64384 0.0
C512 C 0.38783 0.64155 0.83624 0.0
C513 C 0.38174 0.62606 0.76854 0.0
C514 C 0.38863 0.63831 0.92974 0.0
C515 C 0.38267 0.61919 0.95788 0.0
C516 C 0.37647 0.60344 0.88967 0.0
C517 C 0.37629 0.60697 0.79613 0.0
C518 C 0.39594 0.65543 0.99858 0.0
C519 C 0.36958 0.58295 0.91556 0.0
C520 C 0.40053 0.60427 0.19721 0.0
C521 C 0.38467 0.61002 0.24892 0.0
C522 C 0.40014 0.60729 0.10348 0.0
C523 C 0.38319 0.61576 0.05835 0.0
C524 C 0.36707 0.62154 0.11035 0.0
C525 C 0.36811 0.61889 0.20484 0.0
C526 C 0.418 0.60152 0.05281 0.0
C527 C 0.34853 0.63026 0.0658 0.0
H528 H 0.3921 0.65637 0.81594 0.0
H529 H 0.37129 0.595 0.74472 0.0
H530 H 0.38408 0.66012 0.04306 0.0
H531 H 0.40851 0.65007 0.04297 0.0
H532 H 0.4008 0.66909 0.96596 0.0
H533 H 0.36509 0.57234 0.85514 0.0
H534 H 0.3815 0.5757 0.95726 0.0
H535 H 0.35684 0.58512 0.9578 0.0
H536 H 0.41343 0.59745 0.23045 0.0
H537 H 0.3557 0.62324 0.24371 0.0
H538 H 0.42345 0.61504 0.02122 0.0
H539 H 0.41392 0.58961 0.99703 0.0
H540 H 0.43022 0.59565 0.09782 0.0
H541 H 0.35197 0.64492 0.03754 0.0
H542 H 0.33692 0.63306 0.11405 0.0
H543 H 0.34254 0.61959 1.00815 0.0
C544 C 0.63993 0.11192 0.9445 0.0
C545 C 0.62252 0.1199 0.90429 0.0
C546 C 0.64313 0.11199 0.04038 0.0
C547 C 0.62874 0.12052 0.09698 0.0
C548 C 0.61152 0.12918 0.056 0.0
C549 C 0.60858 0.12859 0.96083 0.0
C550 C 0.66163 0.10244 0.08108 0.0
C551 C 0.59598 0.13892 0.11269 0.0
C552 C 0.62476 0.10616 0.34149 0.0
C553 C 0.6346 0.1226 0.39245 0.0
C554 C 0.62329 0.10493 0.24536 0.0
C555 C 0.63152 0.12071 0.19897 0.0
C556 C 0.64115 0.13749 0.25063 0.0
C557 C 0.6427 0.13812 0.34626 0.0
C558 C 0.61302 0.08669 0.19334 0.0
C559 C 0.64968 0.15493 0.20491 0.0
H560 H 0.65063 0.10497 0.90124 0.0
H561 H 0.59509 0.13484 0.93031 0.0
H562 H 0.66984 0.11369 0.13001 0.0
H563 H 0.6576 0.08937 0.11956 0.0
H564 H 0.67156 0.09685 0.02849 0.0
H565 H 0.58377 0.14565 0.07048 0.0
H566 H 0.58963 0.12733 0.15306 0.0
H567 H 0.60274 0.15116 0.1615 0.0
H568 H 0.61872 0.09397 0.37665 0.0
H569 H 0.65038 0.15085 0.38528 0.0
H570 H 0.62297 0.07923 0.14492 0.0
H571 H 0.59974 0.09176 0.15272 0.0
H572 H 0.6084 0.07518 0.23892 0.0
H573 H 0.66063 0.14904 0.1578 0.0
H574 H 0.65698 0.16671 0.25461 0.0
H575 H 0.63779 0.16236 0.16364 0.0
C576 C 0.84592 0.37652 0.22881 0.0
C577 C 0.85767 0.3883 0.1783 0.0
C578 C 0.84938 0.37616 0.32409 0.0
C579 C 0.86446 0.38866 0.37207 0.0
C580 C 0.87631 0.40077 0.32127 0.0
C581 C 0.87305 0.40013 0.22509 0.0
C582 C 0.83691 0.36224 0.37331 0.0
C583 C 0.8921 0.41488 0.36883 0.0
C584 C 0.86013 0.40058 0.6298 0.0
C585 C 0.87485 0.38816 0.66815 0.0
C586 C 0.85682 0.40122 0.53411 0.0
C587 C 0.86803 0.38862 0.47469 0.0
C588 C 0.88246 0.37558 0.51377 0.0
C589 C 0.88597 0.37588 0.60929 0.0
C590 C 0.84168 0.41583 0.49668 0.0
C591 C 0.89417 0.36114 0.45461 0.0
H592 H 0.83398 0.36735 0.19329 0.0
H593 H 0.88199 0.40954 0.18694 0.0
H594 H 0.84654 0.35226 0.41473 0.0
H595 H 0.82795 0.37147 0.42063 0.0
H596 H 0.82677 0.35241 0.32579 0.0
H597 H 0.89945 0.42399 0.32067 0.0
H598 H 0.88552 0.42555 0.41994 0.0
H599 H 0.90348 0.40591 0.40594 0.0
H600 H 0.85178 0.41047 0.67459 0.0
H601 H 0.89742 0.36628 0.63829 0.0
H602 H 0.82972 0.40719 0.45472 0.0
H603 H 0.84865 0.42604 0.45173 0.0
H604 H 0.83498 0.4254 0.55132 0.0
H605 H 0.884 0.35138 0.40704 0.0
H606 H 0.90394 0.35107 0.49514 0.0
H607 H 0.90344 0.36996 0.41282 0.0
C608 C 0.33686 0.13114 0.36435 0.0
C609 C 0.35287 0.12585 0.42379 0.0
C610 C 0.33894 0.13305 0.27126 0.0
C611 C 0.35736 0.12889 0.23503 0.0
C612 C 0.37358 0.12338 0.29486 0.0
C613 C 0.37122 0.12225 0.38857 0.0
C614 C 0.32138 0.13967 0.21172 0.0
C615 C 0.39336 0.11826 0.25955 0.0
C616 C 0.35645 0.11543 0.97685 0.0
C617 C 0.36378 0.13344 0.94591 0.0
C618 C 0.35461 0.1136 0.07048 0.0
C619 C 0.35959 0.13042 0.13494 0.0
C620 C 0.3664 0.14885 0.10326 0.0
C621 C 0.36875 0.14999 1.0098 0.0
C622 C 0.34778 0.09348 0.10067 0.0
C623 C 0.37121 0.16745 0.16814 0.0
H624 H 0.32264 0.13405 0.39109 0.0
H625 H 0.38358 0.11792 0.43372 0.0
H626 H 0.3253 0.15342 0.17746 0.0
H627 H 0.31715 0.1274 0.15771 0.0
H628 H 0.30836 0.14327 0.25087 0.0
H629 H 0.40437 0.11381 0.31401 0.0
H630 H 0.39161 0.10547 0.20566 0.0
H631 H 0.39925 0.13159 0.22825 0.0
H632 H 0.35282 0.10247 0.92819 0.0
H633 H 0.37443 0.16396 0.98643 0.0
H634 H 0.33392 0.09566 0.135 0.0
H635 H 0.35903 0.08772 0.15087 0.0
H636 H 0.34513 0.08166 0.04293 0.0
H637 H 0.35828 0.17154 0.20703 0.0
H638 H 0.37542 0.18091 0.13248 0.0
H639 H 0.38357 0.16401 0.21812 0.0
C640 C 0.61153 0.61334 0.10897 0.0
C641 C 0.6184 0.62925 0.17294 0.0
C642 C 0.61413 0.61394 1.01537 0.0
C643 C 0.62335 0.63116 0.98351 0.0
C644 C 0.6302 0.64736 0.04798 0.0
C645 C 0.6279 0.64608 0.14166 0.0
C646 C 0.60716 0.59597 0.95058 0.0
C647 C 0.63978 0.66621 1.01787 0.0
C648 C 0.6479 0.62568 0.75825 0.0
C649 C 0.63348 0.63313 0.69589 0.0
C650 C 0.64465 0.62465 0.85076 0.0
C651 C 0.62665 0.63176 0.8837 0.0
C652 C 0.61197 0.63933 0.82096 0.0
C653 C 0.61546 0.63971 0.72781 0.0
C654 C 0.66057 0.6159 0.91337 0.0
C655 C 0.59272 0.64746 0.85265 0.0
H656 H 0.60419 0.60027 0.13238 0.0
H657 H 0.63309 0.65855 0.19024 0.0
H658 H 0.59604 0.60106 0.89822 0.0
H659 H 0.61976 0.58955 0.91452 0.0
H660 H 0.60052 0.58361 0.98587 0.0
H661 H 0.64324 0.67798 0.07517 0.0
H662 H 0.65367 0.66199 0.98668 0.0
H663 H 0.62988 0.67303 0.96515 0.0
H664 H 0.66187 0.62049 0.73442 0.0
H665 H 0.60434 0.64573 0.68062 0.0
H666 H 0.65445 0.60311 0.94766 0.0
H667 H 0.66597 0.62776 0.96726 0.0
H668 H 0.67335 0.61016 0.87666 0.0
H669 H 0.58495 0.63547 0.88539 0.0
H670 H 0.58276 0.65271 0.79595 0.0
H671 H 0.59569 0.66049 0.9046 0.0
C672 C 0.15622 0.88644 0.52013 0.0
C673 C 0.1409 0.87863 0.45749 0.0
C674 C 0.15636 0.88363 0.61382 0.0
C675 C 0.14048 0.87318 0.64731 0.0
C676 C 0.12488 0.86532 0.58424 0.0
C677 C 0.1254 0.86788 0.49022 0.0
C678 C 0.17365 0.89172 0.67697 0.0
C679 C 0.10746 0.85441 0.61633 0.0
C680 C 0.14874 0.84821 0.87312 0.0
C681 C 0.1412 0.86276 0.93596 0.0
C682 C 0.14884 0.85156 0.78015 0.0
C683 C 0.1407 0.86975 0.7474 0.0
C684 C 0.13309 0.88459 0.81074 0.0
C685 C 0.13361 0.88102 0.90424 0.0
C686 C 0.15769 0.83552 0.71683 0.0
C687 C 0.12396 0.90404 0.7794 0.0
H688 H 0.16829 0.89472 0.49558 0.0
H689 H 0.11339 0.86196 0.44267 0.0
H690 H 0.16848 0.90299 0.72962 0.0
H691 H 0.18067 0.87902 0.7128 0.0
H692 H 0.185 0.8992 0.64038 0.0
H693 H 0.09609 0.85003 0.55993 0.0
H694 H 0.11248 0.84036 0.6483 0.0
H695 H 0.10055 0.86437 0.66894 0.0
H696 H 0.15464 0.83404 0.89685 0.0
H697 H 0.1275 0.89221 0.95192 0.0
H698 H 0.16942 0.8425 0.68087 0.0
H699 H 0.14621 0.82932 0.66431 0.0
H700 H 0.16414 0.82261 0.75328 0.0
H701 H 0.13483 0.91272 0.74506 0.0
H702 H 0.11873 0.91407 0.83655 0.0
H703 H 0.11126 0.90025 0.72887 0.0
C704 C 0.87915 0.62037 0.73079 0.0
C705 C 0.86474 0.63316 0.76724 0.0
C706 C 0.88215 0.61944 0.63679 0.0
C707 C 0.87105 0.63219 0.57823 0.0
C708 C 0.85699 0.64562 0.6161 0.0
C709 C 0.85372 0.64557 0.70906 0.0
C710 C 0.89683 0.60439 0.59963 0.0
C711 C 0.84542 0.66021 0.55852 0.0
C712 C 0.89318 0.64375 0.35697 0.0
C713 C 0.88124 0.6321 0.29011 0.0
C714 C 0.88975 0.64425 0.44989 0.0
C715 C 0.87449 0.63203 0.47832 0.0
C716 C 0.86239 0.62011 0.41083 0.0
C717 C 0.86569 0.62056 0.31753 0.0
C718 C 0.90248 0.65798 0.51767 0.0
C719 C 0.84631 0.60638 0.43736 0.0
H720 H 0.88746 0.61046 0.77492 0.0
H721 H 0.84251 0.65546 0.73673 0.0
H722 H 0.88942 0.59415 0.54376 0.0
H723 H 0.90878 0.61265 0.57047 0.0
H724 H 0.90358 0.59486 0.6526 0.0
H725 H 0.83589 0.6705 0.59912 0.0
H726 H 0.85569 0.66975 0.52462 0.0
H727 H 0.83594 0.65152 0.50425 0.0
H728 H 0.90526 0.65269 0.33629 0.0
H729 H 0.85666 0.61119 0.26654 0.0
H730 H 0.91116 0.64863 0.56563 0.0
H731 H 0.89303 0.66829 0.55846 0.0
H732 H 0.91288 0.66749 0.48424 0.0
H733 H 0.85278 0.59531 0.48427 0.0
H734 H 0.83847 0.59774 0.37747 0.0
H735 H 0.83536 0.61556 0.47433 0.0
C736 C 0.09928 0.13572 0.53706 0.0
C737 C 0.11429 0.1244 0.5802 0.0
C738 C 0.09888 0.13851 0.4429 0.0
C739 C 0.11413 0.13026 0.39068 0.0
C740 C 0.12953 0.11924 0.43491 0.0
C741 C 0.12927 0.11626 0.52822 0.0
C742 C 0.08197 0.15004 0.3989 0.0
C743 C 0.14644 0.11068 0.38378 0.0
C744 C 0.10696 0.12267 0.1289 0.0
C745 C 0.1153 0.14071 0.10298 0.0
C746 C 0.10623 0.11914 0.2219 0.0
C747 C 0.11445 0.13376 0.29093 0.0
C748 C 0.12335 0.15171 0.2644 0.0
C749 C 0.12338 0.15507 0.17142 0.0
C750 C 0.09624 0.09998 0.24631 0.0
C751 C 0.13293 0.16743 0.33438 0.0
H752 H 0.08755 0.14192 0.57631 0.0
H753 H 0.14098 0.10755 0.56095 0.0
H754 H 0.08763 0.16392 0.3708 0.0
H755 H 0.07455 0.14035 0.34119 0.0
H756 H 0.07086 0.15478 0.44745 0.0
H757 H 0.15752 0.1029 0.42825 0.0
H758 H 0.14077 0.09955 0.32734 0.0
H759 H 0.15394 0.12319 0.35303 0.0
H760 H 0.10038 0.11166 0.07665 0.0
H761 H 0.12985 0.16907 0.15206 0.0
H762 H 0.08385 0.10415 0.28858 0.0
H763 H 0.10678 0.09086 0.2875 0.0
H764 H 0.0904 0.09022 0.18522 0.0
H765 H 0.12176 0.17396 0.37895 0.0
H766 H 0.13993 0.18015 0.30281 0.0
H767 H 0.14438 0.16007 0.37845 0.0
C768 C 0.64211 0.35253 0.19235 0.0
C769 C 0.63318 0.36647 0.25334 0.0
C770 C 0.64224 0.35561 0.09927 0.0
C771 C 0.63283 0.37294 0.06434 0.0
C772 C 0.62392 0.38727 0.12576 0.0
C773 C 0.62434 0.38397 0.21961 0.0
C774 C 0.65241 0.34015 0.03807 0.0
C775 C 0.61351 0.40584 0.09187 0.0
C776 C 0.64822 0.38941 0.83671 0.0
C777 C 0.63363 0.3803 0.77352 0.0
C778 C 0.64807 0.38723 0.93077 0.0
C779 C 0.63269 0.37599 0.96396 0.0
C780 C 0.61787 0.36672 0.90031 0.0
C781 C 0.61863 0.3688 0.80602 0.0
C782 C 0.66453 0.39689 0.99468 0.0
C783 C 0.60107 0.35477 0.932 0.0
H784 H 0.64899 0.33894 0.21755 0.0
H785 H 0.61717 0.39467 0.26578 0.0
H786 H 0.64154 0.33294 0.98516 0.0
H787 H 0.66374 0.34788 1.00248 0.0
H788 H 0.65968 0.32789 0.07615 0.0
H789 H 0.60748 0.41564 0.14772 0.0
H790 H 0.62383 0.41514 0.05723 0.0
H791 H 0.60119 0.40092 0.04096 0.0
H792 H 0.65988 0.39833 0.81234 0.0
H793 H 0.60716 0.36191 0.75802 0.0
H794 H 0.67235 0.38493 0.03252 0.0
H795 H 0.65835 0.40788 0.04564 0.0
H796 H 0.67545 0.40508 0.95839 0.0
H797 H 0.6069 0.34131 0.96618 0.0
H798 H 0.59021 0.34934 0.87501 0.0
H799 H 0.5933 0.36444 0.98269 0.0
C800 C 0.35794 0.90374 0.03689 0.0
C801 C 0.36562 0.88901 0.09392 0.0
C802 C 0.35716 0.90045 0.94145 0.0
C803 C 0.36475 0.88213 0.90073 0.0
C804 C 0.37252 0.86711 0.95802 0.0
C805 C 0.37263 0.87061 0.05384 0.0
C806 C 0.3482 0.91668 0.88412 0.0
C807 C 0.38114 0.84754 0.91811 0.0
C808 C 0.3478 0.86611 0.65165 0.0
C809 C 0.36299 0.87381 0.6046 0.0
C810 C 0.34816 0.86872 0.74737 0.0
C811 C 0.36441 0.87883 0.79843 0.0
C812 C 0.37987 0.88657 0.75109 0.0
C813 C 0.37885 0.88422 0.65497 0.0
C814 C 0.33102 0.86081 0.79383 0.0
C815 C 0.39763 0.89714 0.80213 0.0
H816 H 0.35242 0.91799 0.06716 0.0
H817 H 0.37875 0.85924 0.09733 0.0
H818 H 0.35951 0.92278 0.84304 0.0
H819 H 0.33615 0.90992 0.8359 0.0
H820 H 0.34213 0.92965 0.92594 0.0
H821 H 0.38675 0.83748 0.97131 0.0
H822 H 0.36981 0.83899 0.87179 0.0
H823 H 0.39346 0.85117 0.87694 0.0
H824 H 0.33549 0.85807 0.61327 0.0
H825 H 0.39074 0.89006 0.61936 0.0
H826 H 0.32434 0.87357 0.83442 0.0
H827 H 0.33626 0.84941 0.84169 0.0
H828 H 0.31938 0.85355 0.74464 0.0
H829 H 0.393 0.91127 0.84077 0.0
H830 H 0.40888 0.90132 0.75608 0.0
H831 H 0.40457 0.88704 0.85223 0.0
C832 C 0.15362 0.69225 0.25658 0.0
C833 C 0.1368 0.68109 0.27231 0.0
C834 C 0.15376 0.71369 0.26717 0.0
C835 C 0.13687 0.72407 0.29667 0.0
C836 C 0.12044 0.71276 0.31936 0.0
C837 C 0.12045 0.69135 0.30533 0.0
C838 C 0.17137 0.72519 0.23997 0.0
C839 C 0.10241 0.72329 0.35366 0.0
C840 C 0.14206 0.78168 0.34946 0.0
C841 C 0.13379 0.78869 0.26799 0.0
C842 C 0.14258 0.7606 0.36165 0.0
C843 C 0.1352 0.74645 0.28952 0.0
C844 C 0.12671 0.75361 0.20754 0.0
C845 C 0.12586 0.77464 0.19841 0.0
C846 C 0.15117 0.75347 0.45088 0.0
C847 C 0.11902 0.73904 0.12821 0.0
H848 H 0.16626 0.68427 0.23095 0.0
H849 H 0.10757 0.68265 0.31898 0.0
H850 H 0.16712 0.7328 0.17693 0.0
H851 H 0.17627 0.73733 0.29346 0.0
H852 H 0.18404 0.71494 0.22722 0.0
H853 H 0.09254 0.71247 0.38304 0.0
H854 H 0.10679 0.73587 0.40609 0.0
H855 H 0.09392 0.73018 0.29667 0.0
H856 H 0.14809 0.79262 0.40337 0.0
H857 H 0.11953 0.78008 0.13517 0.0
H858 H 0.16496 0.74488 0.44036 0.0
H859 H 0.14071 0.74287 0.4777 0.0
H860 H 0.1546 0.76644 0.50277 0.0
H861 H 0.13103 0.72873 0.1067 0.0
H862 H 0.11317 0.74716 0.06873 0.0
H863 H 0.10705 0.72928 0.14875 0.0
C864 C 0.52746 0.87608 0.34162 0.0
C865 C 0.53821 0.87614 0.42674 0.0
C866 C 0.50672 0.87755 0.33381 0.0
C867 C 0.49619 0.87858 0.41298 0.0
C868 C 0.50696 0.87844 0.49933 0.0
C869 C 0.52784 0.8775 0.50525 0.0
C870 C 0.49606 0.87809 0.24047 0.0
C871 C 0.49641 0.87903 0.5854 0.0
C872 C 0.44311 0.89881 0.39494 0.0
C873 C 0.43189 0.88067 0.37831 0.0
C874 C 0.46395 0.89839 0.40699 0.0
C875 C 0.47395 0.87936 0.40451 0.0
C876 C 0.46265 0.86101 0.38958 0.0
C877 C 0.4419 0.8619 0.37576 0.0
C878 C 0.47531 0.91835 0.42066 0.0
C879 C 0.47251 0.84037 0.38797 0.0
H880 H 0.53534 0.87521 0.28055 0.0
H881 H 0.53603 0.87754 0.57122 0.0
H882 H 0.48607 0.86463 0.22609 0.0
H883 H 0.48677 0.89198 0.23777 0.0
H884 H 0.50641 0.87808 0.18597 0.0
H885 H 0.50681 0.87859 0.64709 0.0
H886 H 0.48745 0.89313 0.59202 0.0
H887 H 0.48607 0.86581 0.58236 0.0
H888 H 0.4356 0.9134 0.39707 0.0
H889 H 0.43346 0.84775 0.36416 0.0
H890 H 0.4852 0.91942 0.36497 0.0
H891 H 0.48481 0.91897 0.48537 0.0
H892 H 0.46543 0.93184 0.42204 0.0
H893 H 0.482 0.83857 0.33025 0.0
H894 H 0.46165 0.82753 0.38113 0.0
H895 H 0.48223 0.83921 0.45128 0.0
C896 C 0.39254 0.28777 0.69076 0.0
C897 C 0.37789 0.30009 0.65173 0.0
C898 C 0.3891 0.26678 0.69688 0.0
C899 C 0.37078 0.25792 0.66093 0.0
C900 C 0.35617 0.27025 0.61926 0.0
C901 C 0.35982 0.29123 0.61619 0.0
C902 C 0.4049 0.25415 0.74311 0.0
C903 C 0.33671 0.26128 0.57772 0.0
C904 C 0.37044 0.20071 0.5996 0.0
C905 C 0.36132 0.19325 0.67222 0.0
C906 C 0.37318 0.22174 0.59413 0.0
C907 C 0.36711 0.23563 0.66434 0.0
C908 C 0.35765 0.2282 0.73746 0.0
C909 C 0.35461 0.20701 0.73989 0.0
C910 C 0.38277 0.22905 0.51368 0.0
C911 C 0.35128 0.24257 0.81429 0.0
H912 H 0.40641 0.29466 0.71932 0.0
H913 H 0.3485 0.30075 0.58554 0.0
H914 H 0.39888 0.24677 0.80015 0.0
H915 H 0.40968 0.24174 0.69453 0.0
H916 H 0.41806 0.26348 0.77008 0.0
H917 H 0.32708 0.27291 0.54618 0.0
H918 H 0.33936 0.24883 0.52495 0.0
H919 H 0.32868 0.25443 0.63047 0.0
H920 H 0.3755 0.19001 0.54683 0.0
H921 H 0.34774 0.20117 0.79644 0.0
H922 H 0.397 0.23683 0.53701 0.0
H923 H 0.37319 0.2404 0.4801 0.0
H924 H 0.38565 0.2163 0.46251 0.0
H925 H 0.36431 0.25112 0.8482 0.0
H926 H 0.34409 0.23436 0.86592 0.0
H927 H 0.34082 0.25402 0.78738 0.0
C928 C 0.95041 0.14009 0.83401 0.0
C929 C 0.94274 0.1306 0.90565 0.0
C930 C 0.97087 0.14003 0.82237 0.0
C931 C 0.98427 0.131 0.88599 0.0
C932 C 0.97659 0.12188 0.95995 0.0
C933 C 0.95597 0.12138 0.96767 0.0
C934 C 0.97809 0.14924 0.74056 0.0
C935 C 0.99018 0.11275 0.03155 0.0
C936 C 0.03591 0.11404 0.82202 0.0
C937 C 0.04773 0.13109 0.85411 0.0
C938 C 0.0153 0.11397 0.83011 0.0
C939 C 0.00623 0.13102 0.87495 0.0
C940 C 0.01823 0.14812 0.90908 0.0
C941 C 0.03866 0.14811 0.89665 0.0
C942 C 0.00316 0.09571 0.78949 0.0
C943 C 0.00956 0.16632 0.96036 0.0
H944 H 0.94028 0.147 0.78502 0.0
H945 H 0.95019 0.11406 0.02335 0.0
H946 H 0.98834 0.16218 0.76269 0.0
H947 H 0.98646 0.13765 0.70073 0.0
H948 H 0.96578 0.15489 0.69532 0.0
H949 H 0.98209 0.10746 0.08786 0.0
H950 H 0.99815 0.09956 1.00059 0.0
H951 H 0.00148 0.12424 0.06038 0.0
H952 H 0.04274 0.10086 0.78867 0.0
H953 H 0.04768 0.16126 0.92265 0.0
H954 H 0.99104 0.10076 0.74167 0.0
H955 H 0.99623 0.08823 0.84381 0.0
H956 H 0.01216 0.08418 0.75247 0.0
H957 H 0.99827 0.17367 0.91556 0.0
H958 H 0.02095 0.17797 0.98642 0.0
H959 H 0.00203 0.16123 1.01868 0.0
C960 C 0.12607 0.31406 0.82825 0.0
C961 C 0.12237 0.31965 0.91857 0.0
C962 C 0.12289 0.29393 0.79087 0.0
C963 C 0.11666 0.27898 0.84663 0.0
C964 C 0.11275 0.28466 0.9379 0.0
C965 C 0.11528 0.30512 0.97232 0.0
C966 C 0.12643 0.28864 0.69233 0.0
C967 C 0.10653 0.26903 1.00004 0.0
C968 C 0.09625 0.22657 0.7618 0.0
C969 C 0.11303 0.2145 0.77583 0.0
C970 C 0.09746 0.24794 0.77814 0.0
C971 C 0.11571 0.25713 0.81239 0.0
C972 C 0.13288 0.24504 0.82182 0.0
C973 C 0.13138 0.22386 0.80174 0.0
C974 C 0.07906 0.26051 0.76339 0.0
C975 C 0.15254 0.25421 0.85988 0.0
H976 H 0.13116 0.32555 0.78635 0.0
H977 H 0.11232 0.30965 0.04198 0.0
H978 H 0.13989 0.27918 0.68796 0.0
H979 H 0.11389 0.27948 0.65743 0.0
H980 H 0.1284 0.30252 0.65528 0.0
H981 H 0.10399 0.27601 0.06896 0.0
H982 H 0.09276 0.26114 0.97057 0.0
H983 H 0.11811 0.25719 1.00682 0.0
H984 H 0.08209 0.21927 0.74124 0.0
H985 H 0.14436 0.21449 0.81286 0.0
H986 H 0.08231 0.2744 0.72867 0.0
H987 H 0.07361 0.26566 0.83004 0.0
H988 H 0.06707 0.25163 0.7223 0.0
H989 H 0.15661 0.26709 0.82058 0.0
H990 H 0.16462 0.24281 0.85903 0.0
H991 H 0.1514 0.26047 0.93117 0.0
C992 C 0.06419 0.88437 0.09377 0.0
C993 C 0.07379 0.87074 0.15117 0.0
C994 C 0.04341 0.88457 0.07858 0.0
C995 C 0.03175 0.87109 0.12305 0.0
C996 C 0.04137 0.8572 0.18054 0.0
C997 C 0.06219 0.85706 0.19318 0.0
C998 C 0.03392 0.89943 1.01565 0.0
C999 C 0.02963 0.84281 0.23079 0.0
C1000 C 0.97898 0.88699 0.1665 0.0
C1001 C 0.96751 0.87419 0.10212 0.0
C1002 C 0.99976 0.88614 0.17365 0.0
C1003 C 0.00955 0.87237 0.11392 0.0
C1004 C 0.99806 0.85974 0.04707 0.0
C1005 C 0.97719 0.86065 0.04251 0.0
C1006 C 0.01122 0.89972 0.24678 0.0
C1007 C 0.00782 0.84511 0.98091 0.0
H1008 H 0.07293 0.8949 0.06021 0.0
H1009 H 0.06936 0.8465 0.23789 0.0
H1010 H 0.02366 0.89116 0.96306 0.0
H1011 H 0.02507 0.91071 0.05464 0.0
H1012 H 0.045 0.90787 0.98125 0.0
H1013 H 0.03925 0.83253 0.2709 0.0
H1014 H 0.02034 0.85176 0.27771 0.0
H1015 H 0.01953 0.83327 0.18209 0.0
H1016 H 0.97167 0.89743 0.21328 0.0
H1017 H 0.96846 0.85069 0.9927 0.0
H1018 H 0.0216 0.90968 0.21576 0.0
H1019 H 0.0202 0.89017 0.29296 0.0
H1020 H 0.00144 0.90959 0.28792 0.0
H1021 H 0.01853 0.85349 0.94436 0.0
H1022 H 0.99694 0.83708 0.93017 0.0
H1023 H 0.01624 0.83349 1.01836 0.0
C1024 C 0.36224 0.70923 0.40852 0.0
C1025 C 0.37295 0.69298 0.3706 0.0
C1026 C 0.36252 0.72846 0.37377 0.0
C1027 C 0.37367 0.73137 0.29875 0.0
C1028 C 0.38343 0.7146 0.25628 0.0
C1029 C 0.38308 0.69555 0.29333 0.0
C1030 C 0.35188 0.74596 0.42106 0.0
C1031 C 0.39509 0.71698 0.17504 0.0
C1032 C 0.36383 0.78352 0.21337 0.0
C1033 C 0.37808 0.79519 0.26847 0.0
C1034 C 0.36323 0.76214 0.21554 0.0
C1035 C 0.37715 0.75252 0.27441 0.0
C1036 C 0.39271 0.76414 0.32291 0.0
C1037 C 0.39297 0.78538 0.31923 0.0
C1038 C 0.34676 0.75013 0.16102 0.0
C1039 C 0.40798 0.75447 0.38576 0.0
H1040 H 0.35424 0.70714 0.46774 0.0
H1041 H 0.39115 0.68282 0.2632 0.0
H1042 H 0.36284 0.75734 0.45414 0.0
H1043 H 0.34224 0.75387 0.37104 0.0
H1044 H 0.34268 0.74077 0.47383 0.0
H1045 H 0.39784 0.70197 0.13806 0.0
H1046 H 0.38731 0.72704 0.12713 0.0
H1047 H 0.40958 0.72423 0.1982 0.0
H1048 H 0.3524 0.79115 0.17346 0.0
H1049 H 0.40418 0.79444 0.36078 0.0
H1050 H 0.33512 0.74673 0.20632 0.0
H1051 H 0.35221 0.73529 0.13164 0.0
H1052 H 0.33995 0.75881 0.10514 0.0
H1053 H 0.40091 0.74968 0.44589 0.0
H1054 H 0.42033 0.76518 0.41001 0.0
H1055 H 0.41417 0.74059 0.35114 0.0
C1056 C 0.53408 0.09876 0.59574 0.0
C1057 C 0.54499 0.1151 0.56829 0.0
C1058 C 0.51352 0.10009 0.6023 0.0
C1059 C 0.5034 0.11823 0.58098 0.0
C1060 C 0.51423 0.1345 0.54983 0.0
C1061 C 0.53485 0.13275 0.54393 0.0
C1062 C 0.50275 0.08231 0.63561 0.0
C1063 C 0.50415 0.15408 0.52593 0.0
C1064 C 0.44675 0.11578 0.54574 0.0
C1065 C 0.44116 0.12353 0.63103 0.0
C1066 C 0.46686 0.11425 0.52786 0.0
C1067 C 0.48184 0.12055 0.59692 0.0
C1068 C 0.47619 0.1285 0.68296 0.0
C1069 C 0.45601 0.12991 0.69881 0.0
C1070 C 0.47208 0.10573 0.4352 0.0
C1071 C 0.4915 0.13536 0.7589 0.0
H1072 H 0.54175 0.08507 0.61494 0.0
H1073 H 0.54314 0.1455 0.52315 0.0
H1074 H 0.49703 0.087 0.70224 0.0
H1075 H 0.48985 0.0777 0.58755 0.0
H1076 H 0.51241 0.0688 0.64373 0.0
H1077 H 0.5142 0.16462 0.49598 0.0
H1078 H 0.49111 0.15067 0.47696 0.0
H1079 H 0.49872 0.16205 0.58799 0.0
H1080 H 0.43538 0.11088 0.49284 0.0
H1081 H 0.45185 0.13595 0.76484 0.0
H1082 H 0.48079 0.09153 0.44162 0.0
H1083 H 0.48147 0.11684 0.40502 0.0
H1084 H 0.45879 0.10216 0.38783 0.0
H1085 H 0.50103 0.12227 0.77646 0.0
H1086 H 0.48476 0.14159 0.82116 0.0
H1087 H 0.5012 0.14731 0.73646 0.0
C1088 C 0.88681 0.22509 0.83493 0.0
C1089 C 0.87398 0.21391 0.88267 0.0
C1090 C 0.88562 0.24671 0.83549 0.0
C1091 C 0.87139 0.25755 0.88568 0.0
C1092 C 0.85835 0.24622 0.93333 0.0
C1093 C 0.85975 0.2247 0.93088 0.0
C1094 C 0.89971 0.25799 0.7829 0.0
C1095 C 0.84307 0.25687 0.98853 0.0
C1096 C 0.88035 0.3142 0.96682 0.0
C1097 C 0.86744 0.32443 0.9067 0.0
C1098 C 0.88185 0.29264 0.96034 0.0
C1099 C 0.87041 0.28069 0.89101 0.0
C1100 C 0.85749 0.29091 0.82943 0.0
C1101 C 0.85604 0.31252 0.83842 0.0
C1102 C 0.89555 0.28261 0.02874 0.0
C1103 C 0.84517 0.27899 0.75374 0.0
H1104 H 0.89785 0.21696 0.79745 0.0
H1105 H 0.84976 0.21628 0.96821 0.0
H1106 H 0.89134 0.26756 0.73472 0.0
H1107 H 0.90923 0.26846 0.83026 0.0
H1108 H 0.90932 0.24742 0.74411 0.0
H1109 H 0.83387 0.24593 0.02091 0.0
H1110 H 0.85047 0.26758 0.04258 0.0
H1111 H 0.83321 0.2661 0.94458 0.0
H1112 H 0.88924 0.32307 1.0201 0.0
H1113 H 0.84614 0.32012 0.79091 0.0
H1114 H 0.90653 0.27313 0.99324 0.0
H1115 H 0.887 0.27222 0.06694 0.0
H1116 H 0.90358 0.29396 0.07812 0.0
H1117 H 0.85483 0.26926 0.71156 0.0
H1118 H 0.83647 0.28913 0.70912 0.0
H1119 H 0.83483 0.26862 0.78274 0.0
C1120 C 0.60486 0.79914 0.38919 0.0
C1121 C 0.62119 0.81103 0.42631 0.0
C1122 C 0.6049 0.77755 0.38968 0.0
C1123 C 0.62133 0.7675 0.43171 0.0
C1124 C 0.63763 0.77957 0.47138 0.0
C1125 C 0.63752 0.80102 0.46655 0.0
C1126 C 0.58751 0.76543 0.34348 0.0
C1127 C 0.65517 0.76984 0.51992 0.0
C1128 C 0.61346 0.71305 0.50329 0.0
C1129 C 0.62303 0.70093 0.43786 0.0
C1130 C 0.61302 0.73463 0.50294 0.0
C1131 C 0.62165 0.74445 0.43325 0.0
C1132 C 0.63091 0.73216 0.36574 0.0
C1133 C 0.63183 0.71071 0.36993 0.0
C1134 C 0.60364 0.74696 0.57831 0.0
C1135 C 0.63969 0.74167 0.28823 0.0
H1136 H 0.59223 0.8067 0.35744 0.0
H1137 H 0.65013 0.81007 0.49626 0.0
H1138 H 0.59262 0.75417 0.29057 0.0
H1139 H 0.58045 0.75666 0.39346 0.0
H1140 H 0.57621 0.77537 0.3111 0.0
H1141 H 0.66608 0.78138 0.55218 0.0
H1142 H 0.65015 0.76048 0.57324 0.0
H1143 H 0.66269 0.75939 0.4713 0.0
H1144 H 0.60671 0.70566 0.55627 0.0
H1145 H 0.63905 0.70148 0.3184 0.0
H1146 H 0.59105 0.75582 0.54969 0.0
H1147 H 0.61451 0.75816 0.61352 0.0
H1148 H 0.59821 0.73717 0.62922 0.0
H1149 H 0.62847 0.75115 0.25272 0.0
H1150 H 0.64518 0.72998 0.23798 0.0
H1151 H 0.65215 0.75195 0.31486 0.0
C1152 C 0.89423 0.70636 0.08522 0.0
C1153 C 0.8761 0.69657 0.05734 0.0
C1154 C 0.89577 0.72791 0.09903 0.0
C1155 C 0.87895 0.74024 0.081 0.0
C1156 C 0.86067 0.73039 0.05105 0.0
C1157 C 0.85938 0.70876 0.0415 0.0
C1158 C 0.9154 0.73749 0.13435 0.0
C1159 C 0.84248 0.74271 0.02762 0.0
C1160 C 0.87672 0.7958 0.18485 0.0
C1161 C 0.8832 0.80701 0.11562 0.0
C1162 C 0.87574 0.77417 0.17548 0.0
C1163 C 0.8805 0.76334 0.09317 0.0
C1164 C 0.88672 0.7747 0.02244 0.0
C1165 C 0.88838 0.79626 0.03523 0.0
C1166 C 0.86979 0.76288 0.25423 0.0
C1167 C 0.89123 0.7641 0.93227 0.0
H1168 H 0.90719 0.69708 0.09853 0.0
H1169 H 0.84534 0.70137 1.01936 0.0
H1170 H 0.9208 0.74728 0.0836 0.0
H1171 H 0.91362 0.74749 0.19722 0.0
H1172 H 0.9268 0.72584 0.14962 0.0
H1173 H 0.82966 0.73286 1.0009 0.0
H1174 H 0.83835 0.75211 0.08872 0.0
H1175 H 0.84559 0.75341 0.97584 0.0
H1176 H 0.87276 0.80397 0.2473 0.0
H1177 H 0.89314 0.80481 0.98091 0.0
H1178 H 0.8812 0.75145 0.2722 0.0
H1179 H 0.85578 0.75437 0.23468 0.0
H1180 H 0.86775 0.77336 0.31544 0.0
H1181 H 0.90379 0.7535 0.94212 0.0
H1182 H 0.89498 0.7751 0.8827 0.0
H1183 H 0.8783 0.75476 0.90271 0.0
C1184 C 0.61278 0.19271 0.65439 0.0
C1185 C 0.63016 0.18118 0.65165 0.0
C1186 C 0.61297 0.21409 0.6477 0.0
C1187 C 0.63088 0.22428 0.63487 0.0
C1188 C 0.64852 0.2127 0.63273 0.0
C1189 C 0.64799 0.19143 0.64244 0.0
C1190 C 0.59389 0.22574 0.65294 0.0
C1191 C 0.66785 0.22264 0.61658 0.0
C1192 C 0.62617 0.27373 0.51318 0.0
C1193 C 0.63047 0.28897 0.58413 0.0
C1194 C 0.62663 0.25277 0.5286 0.0
C1195 C 0.63092 0.24669 0.61792 0.0
C1196 C 0.63507 0.26206 0.69021 0.0
C1197 C 0.6351 0.28297 0.67227 0.0
C1198 C 0.62263 0.2371 0.44881 0.0
C1199 C 0.63919 0.25643 0.78679 0.0
H1200 H 0.59894 0.18499 0.66198 0.0
H1201 H 0.66148 0.18267 0.63923 0.0
H1202 H 0.59592 0.23911 0.70375 0.0
H1203 H 0.5895 0.23171 0.58623 0.0
H1204 H 0.58165 0.21604 0.67167 0.0
H1205 H 0.68036 0.21174 0.61954 0.0
H1206 H 0.66667 0.22886 0.54873 0.0
H1207 H 0.67126 0.23569 0.66781 0.0
H1208 H 0.6227 0.2782 0.44475 0.0
H1209 H 0.63834 0.29464 0.72753 0.0
H1210 H 0.60921 0.22805 0.45776 0.0
H1211 H 0.63512 0.22623 0.44529 0.0
H1212 H 0.62048 0.24423 0.38309 0.0
H1213 H 0.62655 0.24753 0.80696 0.0
H1214 H 0.64173 0.27011 0.83566 0.0
H1215 H 0.65238 0.24651 0.79204 0.0
C1216 C 0.95757 0.37079 0.04691 0.0
C1217 C 0.94606 0.38776 0.07086 0.0
C1218 C 0.97814 0.37163 0.06206 0.0
C1219 C 0.98732 0.38979 0.10349 0.0
C1220 C 0.97563 0.40621 0.13613 0.0
C1221 C 0.95501 0.40508 0.11859 0.0
C1222 C 0.99006 0.35378 0.02582 0.0
C1223 C 0.9849 0.42554 0.18327 0.0
C1224 C 0.04274 0.38459 0.14704 0.0
C1225 C 0.04911 0.39161 0.06715 0.0
C1226 C 0.02267 0.38527 0.16368 0.0
C1227 C 0.00882 0.39266 0.09763 0.0
C1228 C 0.0154 0.40063 1.01894 0.0
C1229 C 0.03553 0.40018 1.00518 0.0
C1230 C 0.01624 0.37724 0.24961 0.0
C1231 C 0.00109 0.40847 0.94631 0.0
H1232 H 0.9506 0.35729 1.01087 0.0
H1233 H 0.94604 0.41812 0.13813 0.0
H1234 H 0.99765 0.35825 0.96653 0.0
H1235 H 0.00161 0.34953 0.07809 0.0
H1236 H 0.9807 0.34009 1.00385 0.0
H1237 H 0.97409 0.43474 0.22138 0.0
H1238 H 0.99763 0.42194 0.23099 0.0
H1239 H 0.99051 0.43505 0.13189 0.0
H1240 H 0.05335 0.3782 0.19555 0.0
H1241 H 0.04051 0.40572 0.94364 0.0
H1242 H 0.00948 0.36183 0.23357 0.0
H1243 H 0.00492 0.38732 0.27935 0.0
H1244 H 0.02888 0.37596 0.30132 0.0
H1245 H 0.9914 0.39574 0.91505 0.0
H1246 H 0.00873 0.41511 0.89165 0.0
H1247 H 0.99144 0.42035 0.97659 0.0
C1248 C 0.44943 0.64247 0.55504 0.0
C1249 C 0.44111 0.6228 0.53858 0.0
C1250 C 0.46986 0.64552 0.55593 0.0
C1251 C 0.48217 0.62853 0.53791 0.0
C1252 C 0.47393 0.60855 0.52448 0.0
C1253 C 0.45346 0.6059 0.52591 0.0
C1254 C 0.47817 0.667 0.57249 0.0
C1255 C 0.48658 0.5901 0.50367 0.0
C1256 C 0.52888 0.6383 0.42404 0.0
C1257 C 0.54342 0.63675 0.4956 0.0
C1258 C 0.50887 0.6357 0.43721 0.0
C1259 C 0.50332 0.63186 0.52457 0.0
C1260 C 0.51794 0.63092 0.59787 0.0
C1261 C 0.53791 0.63318 0.58224 0.0
C1262 C 0.49373 0.63658 0.35707 0.0
C1263 C 0.51249 0.62729 0.69227 0.0
H1264 H 0.43991 0.65555 0.56602 0.0
H1265 H 0.44704 0.59069 0.5128 0.0
H1266 H 0.49096 0.66748 0.62419 0.0
H1267 H 0.48357 0.67193 0.50875 0.0
H1268 H 0.46699 0.67815 0.59579 0.0
H1269 H 0.47813 0.57551 0.50131 0.0
H1270 H 0.4927 0.59123 0.43689 0.0
H1271 H 0.49926 0.58962 0.5555 0.0
H1272 H 0.53318 0.64096 0.3569 0.0
H1273 H 0.54922 0.63204 0.6376 0.0
H1274 H 0.48285 0.64877 0.37148 0.0
H1275 H 0.48545 0.62186 0.34546 0.0
H1276 H 0.50053 0.6396 0.29357 0.0
H1277 H 0.50153 0.63877 0.71461 0.0
H1278 H 0.52553 0.62813 0.7428 0.0
H1279 H 0.50547 0.61198 0.69183 0.0
C1280 C 0.4696 0.35507 0.49187 0.0
C1281 C 0.4643 0.36477 0.57403 0.0
C1282 C 0.4891 0.35636 0.46681 0.0
C1283 C 0.50355 0.36728 0.52628 0.0
C1284 C 0.4981 0.3773 0.60869 0.0
C1285 C 0.47852 0.37604 0.6311 0.0
C1286 C 0.49433 0.34577 0.37774 0.0
C1287 C 0.51308 0.38881 0.6748 0.0
C1288 C 0.55751 0.3528 0.53377 0.0
C1289 C 0.566 0.36943 0.49626 0.0
C1290 C 0.53709 0.35147 0.54008 0.0
C1291 C 0.52472 0.36703 0.507 0.0
C1292 C 0.53302 0.38335 0.46487 0.0
C1293 C 0.55362 0.38446 0.46063 0.0
C1294 C 0.52891 0.33397 0.58676 0.0
C1295 C 0.52023 0.40003 0.42745 0.0
H1296 H 0.45853 0.34651 0.44732 0.0
H1297 H 0.47443 0.3836 0.69467 0.0
H1298 H 0.50213 0.35657 0.33845 0.0
H1299 H 0.50453 0.33295 0.39092 0.0
H1300 H 0.48108 0.33959 0.33548 0.0
H1301 H 0.50628 0.39628 0.73463 0.0
H1302 H 0.52462 0.37814 0.69935 0.0
H1303 H 0.52056 0.40074 0.64042 0.0
H1304 H 0.56687 0.34105 0.56152 0.0
H1305 H 0.56001 0.39725 0.43069 0.0
H1306 H 0.51656 0.3263 0.54344 0.0
H1307 H 0.52292 0.33997 0.65116 0.0
H1308 H 0.5403 0.32236 0.60284 0.0
H1309 H 0.50735 0.3933 0.38439 0.0
H1310 H 0.52852 0.41011 0.38656 0.0
H1311 H 0.5144 0.4096 0.48438 0.0
C1312 C 0.04168 0.60907 0.09024 0.0
C1313 C 0.05663 0.61958 0.0529 0.0
C1314 C 0.02185 0.61123 0.05918 0.0
C1315 C 0.0169 0.62381 0.98725 0.0
C1316 C 0.03208 0.63341 0.9452 0.0
C1317 C 0.05184 0.63144 0.9796 0.0
C1318 C 0.00614 0.60098 0.10714 0.0
C1319 C 0.02743 0.64634 0.86636 0.0
C1320 C 0.96287 0.617 0.90449 0.0
C1321 C 0.95445 0.63275 0.95782 0.0
C1322 C 0.98351 0.61496 0.90638 0.0
C1323 C 0.99578 0.62865 0.96488 0.0
C1324 C 0.98728 0.64538 1.01379 0.0
C1325 C 0.96672 0.64735 1.00869 0.0
C1326 C 0.99209 0.59742 0.85047 0.0
C1327 C 0.99974 0.66018 0.07803 0.0
H1328 H 0.0454 0.59984 0.14677 0.0
H1329 H 0.06348 0.63937 0.95001 0.0
H1330 H 0.99687 0.6128 0.14058 0.0
H1331 H 0.99629 0.59143 0.05743 0.0
H1332 H 0.01253 0.59112 0.15965 0.0
H1333 H 0.04076 0.64932 0.83037 0.0
H1334 H 0.016 0.6388 0.81703 0.0
H1335 H 0.02145 0.66128 0.89157 0.0
H1336 H 0.95337 0.60582 0.86427 0.0
H1337 H 0.96023 0.65964 0.04952 0.0
H1338 H 0.99642 0.58503 0.89487 0.0
H1339 H 0.00555 0.60239 0.82009 0.0
H1340 H 0.98127 0.591 0.79519 0.0
H1341 H 0.00622 0.65205 0.13628 0.0
H1342 H 0.99103 0.67329 0.10506 0.0
H1343 H 0.01215 0.66623 0.04347 0.0
C1344 C 0.12238 0.54479 0.07994 0.0
C1345 C 0.13445 0.55353 0.15427 0.0
C1346 C 0.12248 0.52366 0.05686 0.0
C1347 C 0.13476 0.51104 0.11007 0.0
C1348 C 0.147 0.51975 0.18508 0.0
C1349 C 0.14677 0.54096 0.20606 0.0
C1350 C 0.10937 0.51485 0.97584 0.0
C1351 C 0.16013 0.50665 0.24376 0.0
C1352 C 0.11963 0.45547 0.10691 0.0
C1353 C 0.13262 0.44599 0.0479 0.0
C1354 C 0.12033 0.47663 0.1284 0.0
C1355 C 0.13424 0.48859 0.08922 0.0
C1356 C 0.14743 0.47916 0.02971 0.0
C1357 C 0.14654 0.45789 1.01008 0.0
C1358 C 0.10616 0.4862 0.19286 0.0
C1359 C 0.16232 0.49156 0.98617 0.0
H1360 H 0.113 0.55447 0.03902 0.0
H1361 H 0.1561 0.54765 0.26366 0.0
H1362 H 0.11835 0.50599 0.92726 0.0
H1363 H 0.09845 0.5041 0.99827 0.0
H1364 H 0.10127 0.52689 0.93952 0.0
H1365 H 0.16903 0.51589 0.2986 0.0
H1366 H 0.15099 0.49554 0.27535 0.0
H1367 H 0.17032 0.49767 0.20142 0.0
H1368 H 0.10894 0.44633 0.13702 0.0
H1369 H 0.15655 0.45063 0.96415 0.0
H1370 H 0.09664 0.49739 0.15792 0.0
H1371 H 0.1145 0.49472 0.25157 0.0
H1372 H 0.09654 0.47464 0.21898 0.0
H1373 H 0.15459 0.50298 0.94483 0.0
H1374 H 0.17158 0.48185 0.94171 0.0
H1375 H 0.17215 0.50018 0.03942 0.0
C1376 C 0.71553 0.85949 0.35698 0.0
C1377 C 0.70249 0.87536 0.33619 0.0
C1378 C 0.73511 0.85949 0.33169 0.0
C1379 C 0.74204 0.87591 0.28544 0.0
C1380 C 0.72891 0.89202 0.26455 0.0
C1381 C 0.7093 0.89148 0.28955 0.0
C1382 C 0.74839 0.84183 0.35429 0.0
C1383 C 0.73564 0.90994 0.21633 0.0
C1384 C 0.79809 0.88408 0.29398 0.0
C1385 C 0.80255 0.87536 0.20845 0.0
C1386 C 0.77848 0.88468 0.31933 0.0
C1387 C 0.76292 0.87608 0.25832 0.0
C1388 C 0.76742 0.86723 0.17188 0.0
C1389 C 0.78709 0.86713 0.14784 0.0
C1390 C 0.77442 0.8945 0.4116 0.0
C1391 C 0.75145 0.8576 0.10511 0.0
H1392 H 0.71039 0.84696 0.39289 0.0
H1393 H 0.69934 0.90384 0.27359 0.0
H1394 H 0.75387 0.83445 0.29113 0.0
H1395 H 0.76148 0.84752 0.39879 0.0
H1396 H 0.74072 0.83008 0.38918 0.0
H1397 H 0.72379 0.9214 0.20626 0.0
H1398 H 0.74851 0.91759 0.25608 0.0
H1399 H 0.74055 0.90449 0.14894 0.0
H1400 H 0.80994 0.8905 0.34112 0.0
H1401 H 0.79042 0.8603 0.08175 0.0
H1402 H 0.768 0.88302 0.45231 0.0
H1403 H 0.7634 0.90686 0.40387 0.0
H1404 H 0.78798 0.90108 0.45003 0.0
H1405 H 0.74415 0.84497 0.13585 0.0
H1406 H 0.75732 0.85138 0.04066 0.0
H1407 H 0.73995 0.86904 0.08899 0.0
C1408 C 0.37228 0.43995 0.70102 0.0
C1409 C 0.38807 0.42796 0.67239 0.0
C1410 C 0.37161 0.46097 0.68948 0.0
C1411 C 0.38714 0.47022 0.64877 0.0
C1412 C 0.40355 0.45843 0.62345 0.0
C1413 C 0.4038 0.43741 0.63542 0.0
C1414 C 0.35386 0.47308 0.71728 0.0
C1415 C 0.42046 0.46784 0.58042 0.0
C1416 C 0.37514 0.517 0.52032 0.0
C1417 C 0.38269 0.53281 0.58257 0.0
C1418 C 0.37645 0.49655 0.54133 0.0
C1419 C 0.38555 0.49188 0.62664 0.0
C1420 C 0.39306 0.50783 0.69011 0.0
C1421 C 0.39152 0.52818 0.66725 0.0
C1422 C 0.36821 0.47992 0.47202 0.0
C1423 C 0.40282 0.50339 0.78168 0.0
H1424 H 0.36007 0.43284 0.72993 0.0
H1425 H 0.41613 0.42831 0.61366 0.0
H1426 H 0.35864 0.48698 0.76125 0.0
H1427 H 0.34546 0.47825 0.65591 0.0
H1428 H 0.34379 0.46397 0.75429 0.0
H1429 H 0.43282 0.45698 0.57148 0.0
H1430 H 0.41516 0.4728 0.51276 0.0
H1431 H 0.42617 0.48165 0.6226 0.0
H1432 H 0.36831 0.52061 0.4548 0.0
H1433 H 0.39735 0.54046 0.7154 0.0
H1434 H 0.35685 0.47088 0.50162 0.0
H1435 H 0.38013 0.46924 0.45315 0.0
H1436 H 0.36144 0.48617 0.40922 0.0
H1437 H 0.39246 0.49487 0.81954 0.0
H1438 H 0.40768 0.51757 0.82369 0.0
H1439 H 0.41587 0.49351 0.77241 0.0
C1440 C 0.8073 0.10413 0.87971 0.0
C1441 C 0.81778 0.1211 0.85504 0.0
C1442 C 0.78661 0.10228 0.86118 0.0
C1443 C 0.77594 0.11775 0.81681 0.0
C1444 C 0.78642 0.13495 0.7922 0.0
C1445 C 0.80709 0.1364 0.81146 0.0
C1446 C 0.77616 0.08366 0.88867 0.0
C1447 C 0.77579 0.15183 0.74486 0.0
C1448 C 0.72572 0.10514 0.68721 0.0
C1449 C 0.71238 0.11355 0.74741 0.0
C1450 C 0.74631 0.10613 0.70943 0.0
C1451 C 0.75393 0.11578 0.7942 0.0
C1452 C 0.74048 0.12401 0.85596 0.0
C1453 C 0.71993 0.12281 0.83186 0.0
C1454 C 0.75994 0.09713 0.6413 0.0
C1455 C 0.74783 0.13439 0.94704 0.0
H1456 H 0.81526 0.09218 0.91345 0.0
H1457 H 0.81487 0.14963 0.79202 0.0
H1458 H 0.76453 0.08842 0.93431 0.0
H1459 H 0.76874 0.07513 0.82761 0.0
H1460 H 0.78644 0.07316 0.92403 0.0
H1461 H 0.78594 0.16437 0.73152 0.0
H1462 H 0.76833 0.14554 0.67911 0.0
H1463 H 0.76416 0.15837 0.78687 0.0
H1464 H 0.72005 0.09798 0.62175 0.0
H1465 H 0.70975 0.12938 0.87878 0.0
H1466 H 0.76978 0.08571 0.67279 0.0
H1467 H 0.76951 0.10935 0.62023 0.0
H1468 H 0.75174 0.0896 0.57962 0.0
H1469 H 0.75748 0.12388 0.9855 0.0
H1470 H 0.73556 0.13936 0.98877 0.0
H1471 H 0.7569 0.14801 0.93694 0.0
C1472 C 0.85655 0.55529 0.04025 0.0
C1473 C 0.87045 0.56598 0.99595 0.0
C1474 C 0.85557 0.53366 0.03288 0.0
C1475 C 0.86844 0.52215 0.97783 0.0
C1476 C 0.8823 0.53287 0.93178 0.0
C1477 C 0.88332 0.55452 0.94233 0.0
C1478 C 0.84091 0.52309 0.08529 0.0
C1479 C 0.89603 0.52146 0.87065 0.0
C1480 C 0.87933 0.46585 1.01856 0.0
C1481 C 0.86616 0.45511 0.9534 0.0
C1482 C 0.87999 0.48749 0.02806 0.0
C1483 C 0.86758 0.49896 0.96944 0.0
C1484 C 0.85436 0.4882 0.90299 0.0
C1485 C 0.85363 0.46653 0.89662 0.0
C1486 C 0.89396 0.49809 0.10151 0.0
C1487 C 0.84116 0.49958 0.83747 0.0
H1488 H 0.84662 0.56387 0.08249 0.0
H1489 H 0.89402 0.5625 0.90716 0.0
H1490 H 0.83054 0.51358 0.03775 0.0
H1491 H 0.84877 0.51266 0.13128 0.0
H1492 H 0.8322 0.53412 0.12657 0.0
H1493 H 0.90539 0.53195 0.83658 0.0
H1494 H 0.90581 0.51137 0.91075 0.0
H1495 H 0.88734 0.51149 0.81777 0.0
H1496 H 0.88901 0.4573 0.06334 0.0
H1497 H 0.84352 0.4585 0.84547 0.0
H1498 H 0.88562 0.50866 0.14646 0.0
H1499 H 0.90484 0.50746 0.07054 0.0
H1500 H 0.9021 0.48709 0.14383 0.0
H1501 H 0.83116 0.50981 0.87542 0.0
H1502 H 0.83206 0.48908 0.78828 0.0
H1503 H 0.85026 0.50941 0.799 0.0
C1504 C 0.18286 0.14981 0.80266 0.0
C1505 C 0.17315 0.13155 0.81778 0.0
C1506 C 0.2033 0.15033 0.79104 0.0
C1507 C 0.21452 0.1321 0.79313 0.0
C1508 C 0.20484 0.11363 0.80876 0.0
C1509 C 0.18441 0.1136 0.82147 0.0
C1510 C 0.21287 0.17045 0.77578 0.0
C1511 C 0.216 0.09375 0.81039 0.0
C1512 C 0.26231 0.12987 0.6705 0.0
C1513 C 0.27704 0.13285 0.74256 0.0
C1514 C 0.24207 0.12943 0.68606 0.0
C1515 C 0.23618 0.13228 0.77605 0.0
C1516 C 0.25103 0.13545 0.84913 0.0
C1517 C 0.27121 0.13557 0.83162 0.0
C1518 C 0.22695 0.12579 0.60587 0.0
C1519 C 0.24557 0.13879 0.94602 0.0
H1520 H 0.17448 0.16384 0.80001 0.0
H1521 H 0.17718 0.09935 0.83257 0.0
H1522 H 0.22555 0.17375 0.82697 0.0
H1523 H 0.21876 0.16951 0.70779 0.0
H1524 H 0.20239 0.18343 0.78001 0.0
H1525 H 0.20651 0.08075 0.82479 0.0
H1526 H 0.22215 0.09009 0.74382 0.0
H1527 H 0.22864 0.09524 0.86282 0.0
H1528 H 0.26662 0.12765 0.60146 0.0
H1529 H 0.28245 0.13786 0.88779 0.0
H1530 H 0.21682 0.13901 0.60244 0.0
H1531 H 0.21784 0.1121 0.61432 0.0
H1532 H 0.23387 0.12346 0.54032 0.0
H1533 H 0.23581 0.15229 0.95312 0.0
H1534 H 0.25875 0.14126 0.99522 0.0
H1535 H 0.23718 0.12537 0.96418 0.0
C1536 C 0.64211 0.55917 0.44582 0.0
C1537 C 0.62439 0.57004 0.43436 0.0
C1538 C 0.64214 0.53769 0.4506 0.0
C1539 C 0.62403 0.52654 0.44147 0.0
C1540 C 0.60614 0.53741 0.42747 0.0
C1541 C 0.60652 0.55892 0.42523 0.0
C1542 C 0.66157 0.52696 0.46766 0.0
C1543 C 0.5865 0.52632 0.41532 0.0
C1544 C 0.62519 0.46827 0.38298 0.0
C1545 C 0.62281 0.4606 0.46745 0.0
C1546 C 0.62541 0.48959 0.37318 0.0
C1547 C 0.62371 0.50371 0.45007 0.0
C1548 C 0.62149 0.49595 0.5356 0.0
C1549 C 0.62084 0.47461 0.54293 0.0
C1550 C 0.62733 0.49701 0.28029 0.0
C1551 C 0.62001 0.51022 0.61994 0.0
H1552 H 0.65601 0.56753 0.45349 0.0
H1553 H 0.59271 0.56704 0.41551 0.0
H1554 H 0.66167 0.51932 0.53204 0.0
H1555 H 0.66346 0.51487 0.41233 0.0
H1556 H 0.67438 0.53766 0.47233 0.0
H1557 H 0.57402 0.53673 0.39937 0.0
H1558 H 0.58667 0.51396 0.35965 0.0
H1559 H 0.58379 0.51898 0.47829 0.0
H1560 H 0.62671 0.45759 0.32426 0.0
H1561 H 0.61915 0.46887 0.60866 0.0
H1562 H 0.64089 0.50651 0.2812 0.0
H1563 H 0.6146 0.50686 0.26164 0.0
H1564 H 0.62799 0.48418 0.22691 0.0
H1565 H 0.63312 0.52052 0.63047 0.0
H1566 H 0.61899 0.50184 0.68185 0.0
H1567 H 0.60681 0.52003 0.61152 0.0
C1568 C 0.29411 0.89076 0.35729 0.0
C1569 C 0.30594 0.87761 0.30541 0.0
C1570 C 0.27329 0.88994 0.34426 0.0
C1571 C 0.26389 0.87589 0.27641 0.0
C1572 C 0.27577 0.86274 0.22312 0.0
C1573 C 0.29654 0.86362 0.23877 0.0
C1574 C 0.26132 0.90402 0.40382 0.0
C1575 C 0.26653 0.84777 0.14901 0.0
C1576 C 0.20982 0.86032 0.29101 0.0
C1577 C 0.19965 0.87319 0.23192 0.0
C1578 C 0.2306 0.86116 0.30672 0.0
C1579 C 0.24169 0.87495 0.26107 0.0
C1580 C 0.23151 0.88781 0.2005 0.0
C1581 C 0.2107 0.88692 0.1874 0.0
C1582 C 0.24069 0.84741 0.37304 0.0
C1583 C 0.24262 0.90249 0.14903 0.0
H1584 H 0.30112 0.90154 0.40939 0.0
H1585 H 0.30545 0.85344 0.1978 0.0
H1586 H 0.25202 0.91406 0.36132 0.0
H1587 H 0.2512 0.89488 0.4404 0.0
H1588 H 0.27077 0.9138 0.45463 0.0
H1589 H 0.27776 0.83891 0.11213 0.0
H1590 H 0.2568 0.83687 0.17851 0.0
H1591 H 0.25715 0.85607 0.09931 0.0
H1592 H 0.20151 0.84976 0.32647 0.0
H1593 H 0.20308 0.89689 0.14128 0.0
H1594 H 0.24942 0.85678 0.4279 0.0
H1595 H 0.25117 0.83718 0.33797 0.0
H1596 H 0.23002 0.83782 0.40444 0.0
H1597 H 0.25117 0.91358 0.19748 0.0
H1598 H 0.23263 0.91114 0.10295 0.0
H1599 H 0.25337 0.89397 0.108 0.0
C1600 C 0.63896 0.95335 0.45001 0.0
C1601 C 0.62552 0.94117 0.48998 0.0
C1602 C 0.64005 0.97479 0.47032 0.0
C1603 C 0.62775 0.98443 0.53387 0.0
C1604 C 0.61443 0.97214 0.57569 0.0
C1605 C 0.61333 0.95082 0.55262 0.0
C1606 C 0.65418 0.98718 0.42245 0.0
C1607 C 0.60129 0.98154 0.64505 0.0
C1608 C 0.64208 0.03823 0.64262 0.0
C1609 C 0.62895 0.05081 0.59448 0.0
C1610 C 0.64179 0.0167 0.62426 0.0
C1611 C 0.62835 0.00739 0.55456 0.0
C1612 C 0.6153 0.02007 0.50486 0.0
C1613 C 0.61561 0.04146 0.52594 0.0
C1614 C 0.65572 0.00388 0.68032 0.0
C1615 C 0.60099 0.01105 0.4288 0.0
H1616 H 0.6484 0.94617 0.40128 0.0
H1617 H 0.60303 0.94163 0.58476 0.0
H1618 H 0.64587 0.99863 0.38345 0.0
H1619 H 0.66466 0.99576 0.47301 0.0
H1620 H 0.66277 0.97748 0.37499 0.0
H1621 H 0.59244 0.96985 0.6748 0.0
H1622 H 0.61036 0.99026 0.70084 0.0
H1623 H 0.59102 0.99252 0.61302 0.0
H1624 H 0.6524 0.04518 0.6959 0.0
H1625 H 0.6055 0.05093 0.48745 0.0
H1626 H 0.66548 0.99495 0.63559 0.0
H1627 H 0.64718 0.99272 0.71462 0.0
H1628 H 0.66509 0.01331 0.73278 0.0
H1629 H 0.60913 0.00202 0.37743 0.0
H1630 H 0.59229 0.02298 0.39443 0.0
H1631 H 0.5906 0.00043 0.45582 0.0
C1632 C 0.21129 0.36617 0.81787 0.0
C1633 C 0.20707 0.37939 0.89269 0.0
C1634 C 0.2306 0.36451 0.79102 0.0
C1635 C 0.24593 0.37627 0.84072 0.0
C1636 C 0.24168 0.38968 0.9162 0.0
C1637 C 0.22223 0.39113 0.94113 0.0
C1638 C 0.2346 0.35017 0.7097 0.0
C1639 C 0.25767 0.40242 0.97082 0.0
C1640 C 0.2988 0.35885 0.82299 0.0
C1641 C 0.30529 0.37201 0.76126 0.0
C1642 C 0.27945 0.36008 0.84973 0.0
C1643 C 0.26641 0.37473 0.81323 0.0
C1644 C 0.27296 0.38807 0.75095 0.0
C1645 C 0.29239 0.38658 0.72591 0.0
C1646 C 0.27297 0.34572 0.91684 0.0
C1647 C 0.25943 0.40383 0.71047 0.0
H1648 H 0.19951 0.35711 0.78045 0.0
H1649 H 0.21893 0.40132 0.99919 0.0
H1650 H 0.24114 0.3588 0.65772 0.0
H1651 H 0.24549 0.33847 0.73033 0.0
H1652 H 0.221 0.34224 0.67805 0.0
H1653 H 0.2519 0.41199 0.02803 0.0
H1654 H 0.26935 0.39231 0.99881 0.0
H1655 H 0.26475 0.41262 0.92624 0.0
H1656 H 0.30883 0.3476 0.85031 0.0
H1657 H 0.29744 0.39674 0.67794 0.0
H1658 H 0.26022 0.33631 0.88581 0.0
H1659 H 0.26797 0.35464 0.97757 0.0
H1660 H 0.28498 0.33532 0.93931 0.0
H1661 H 0.24621 0.39618 0.6737 0.0
H1662 H 0.26682 0.41294 0.66247 0.0
H1663 H 0.25416 0.41445 0.76536 0.0
C1664 C 0.89973 0.94908 0.12452 0.0
C1665 C 0.88244 0.93708 0.10821 0.0
C1666 C 0.89981 0.9701 0.10905 0.0
C1667 C 0.88231 0.97948 0.07388 0.0
C1668 C 0.86478 0.96746 0.05778 0.0
C1669 C 0.86499 0.94659 0.07613 0.0
C1670 C 0.91876 0.98225 0.12953 0.0
C1671 C 0.84586 0.9765 1.01836 0.0
C1672 C 0.87768 0.03825 0.08855 0.0
C1673 C 0.88324 0.04303 1.00323 0.0
C1674 C 0.87756 0.01778 0.11304 0.0
C1675 C 0.88259 0.00151 0.04993 0.0
C1676 C 0.88799 0.00634 0.9633 0.0
C1677 C 0.88849 0.02694 0.94166 0.0
C1678 C 0.87221 0.01358 0.20686 0.0
C1679 C 0.89304 0.98968 0.89274 0.0
H1680 H 0.91329 0.94203 0.14977 0.0
H1681 H 0.85157 0.93753 0.06242 0.0
H1682 H 0.92392 0.98732 0.06558 0.0
H1683 H 0.91619 0.99622 0.17431 0.0
H1684 H 0.93069 0.97323 0.16305 0.0
H1685 H 0.83339 0.96534 1.01131 0.0
H1686 H 0.84173 0.9901 0.06201 0.0
H1687 H 0.84809 0.98173 0.95032 0.0
H1688 H 0.87366 0.05056 0.13673 0.0
H1689 H 0.89269 0.03042 0.87535 0.0
H1690 H 0.88437 0.00522 0.24209 0.0
H1691 H 0.85887 0.00364 0.20178 0.0
H1692 H 0.86929 0.02786 0.24914 0.0
H1693 H 0.9061 0.9811 0.9185 0.0
H1694 H 0.89627 0.99583 0.82758 0.0
H1695 H 0.88058 0.97859 0.87919 0.0
C1696 C 0.23092 0.61945 0.28873 0.0
C1697 C 0.21549 0.61457 0.34063 0.0
C1698 C 0.25064 0.61749 0.3222 0.0
C1699 C 0.25497 0.61081 0.41033 0.0
C1700 C 0.2394 0.60596 0.46329 0.0
C1701 C 0.21977 0.60776 0.4274 0.0
C1702 C 0.26686 0.62266 0.26334 0.0
C1703 C 0.24348 0.59912 0.55802 0.0
C1704 C 0.30746 0.59229 0.45457 0.0
C1705 C 0.31696 0.61048 0.49013 0.0
C1706 C 0.28696 0.59181 0.43222 0.0
C1707 C 0.27585 0.60987 0.44763 0.0
C1708 C 0.28525 0.62781 0.48994 0.0
C1709 C 0.30574 0.62795 0.50981 0.0
C1710 C 0.27746 0.57246 0.38634 0.0
C1711 C 0.27386 0.64724 0.50919 0.0
H1712 H 0.22758 0.62458 0.22133 0.0
H1713 H 0.20777 0.60399 0.46747 0.0
H1714 H 0.27575 0.63577 0.29665 0.0
H1715 H 0.27697 0.60948 0.25502 0.0
H1716 H 0.26098 0.6267 0.19485 0.0
H1717 H 0.2297 0.59562 0.58972 0.0
H1718 H 0.25288 0.58529 0.55625 0.0
H1719 H 0.25177 0.61128 0.60185 0.0
H1720 H 0.31617 0.5788 0.43898 0.0
H1721 H 0.31309 0.64198 0.53838 0.0
H1722 H 0.27313 0.57478 0.31397 0.0
H1723 H 0.26383 0.56874 0.41846 0.0
H1724 H 0.28759 0.55918 0.38897 0.0
H1725 H 0.26908 0.6538 0.44417 0.0
H1726 H 0.28286 0.65895 0.5527 0.0
H1727 H 0.26036 0.64397 0.54326 0.0
C1728 C 0.37009 0.97735 0.45966 0.0
C1729 C 0.36484 0.96054 0.50557 0.0
C1730 C 0.36796 0.99735 0.49794 0.0
C1731 C 0.36091 0.00056 0.58542 0.0
C1732 C 0.35591 0.98359 0.63294 0.0
C1733 C 0.35768 0.96368 0.59171 0.0
C1734 C 0.37312 0.01505 0.44429 0.0
C1735 C 0.34886 0.98645 0.72725 0.0
C1736 C 0.37504 0.05335 0.69168 0.0
C1737 C 0.3578 0.0643 0.67078 0.0
C1738 C 0.37575 0.03214 0.67108 0.0
C1739 C 0.35898 0.02182 0.6261 0.0
C1740 C 0.3412 0.03266 0.60926 0.0
C1741 C 0.34076 0.0538 0.63292 0.0
C1742 C 0.3948 0.02102 0.69245 0.0
C1743 C 0.32312 0.02228 0.55986 0.0
H1744 H 0.37551 0.97487 0.39273 0.0
H1745 H 0.35372 0.9506 0.62722 0.0
H1746 H 0.36025 0.02534 0.43614 0.0
H1747 H 0.38539 0.02419 0.48155 0.0
H1748 H 0.37764 0.00989 0.37573 0.0
H1749 H 0.34613 0.97163 0.75598 0.0
H1750 H 0.35999 0.99533 0.77345 0.0
H1751 H 0.335 0.99539 0.72582 0.0
H1752 H 0.38816 0.06146 0.72211 0.0
H1753 H 0.32744 0.0623 0.61642 0.0
H1754 H 0.402 0.01712 0.62868 0.0
H1755 H 0.39187 0.00646 0.72278 0.0
H1756 H 0.40529 0.03044 0.73999 0.0
H1757 H 0.32598 0.01829 0.48781 0.0
H1758 H 0.3099 0.03222 0.56135 0.0
H1759 H 0.31982 0.00782 0.59002 0.0
C1760 C 0.79141 0.61956 0.20702 0.0
C1761 C 0.79542 0.63298 0.14153 0.0
C1762 C 0.77294 0.61957 0.24327 0.0
C1763 C 0.75821 0.63329 0.21293 0.0
C1764 C 0.76224 0.64688 0.14673 0.0
C1765 C 0.78085 0.64657 0.11188 0.0
C1766 C 0.76919 0.60493 0.31403 0.0
C1767 C 0.74689 0.66173 0.11278 0.0
C1768 C 0.70458 0.62147 0.24474 0.0
C1769 C 0.70133 0.63446 0.32175 0.0
C1770 C 0.72307 0.62089 0.20859 0.0
C1771 C 0.73861 0.63357 0.25084 0.0
C1772 C 0.73537 0.64669 0.32882 0.0
C1773 C 0.71672 0.64699 0.3633 0.0
C1774 C 0.72596 0.60677 0.12511 0.0
C1775 C 0.7516 0.66042 0.37568 0.0
H1776 H 0.80273 0.60908 0.2301 0.0
H1777 H 0.78397 0.65695 0.06117 0.0
H1778 H 0.76525 0.61359 0.37743 0.0
H1779 H 0.75649 0.59475 0.28953 0.0
H1780 H 0.78224 0.59529 0.3305 0.0
H1781 H 0.75235 0.67118 0.06073 0.0
H1782 H 0.73347 0.65325 0.08279 0.0
H1783 H 0.74241 0.67208 0.17039 0.0
H1784 H 0.69264 0.6118 0.21253 0.0
H1785 H 0.7142 0.65704 0.42295 0.0
H1786 H 0.73805 0.59588 0.14025 0.0
H1787 H 0.73041 0.61577 0.0695 0.0
H1788 H 0.71237 0.5979 0.10049 0.0
H1789 H 0.76448 0.6511 0.39759 0.0
H1790 H 0.74671 0.66957 0.43615 0.0
H1791 H 0.75671 0.67107 0.32754 0.0
C1792 C 0.12609 0.04873 0.02243 0.0
C1793 C 0.11315 0.0514 0.94581 0.0
C1794 C 0.12869 0.02944 0.0557 0.0
C1795 C 0.11787 0.01251 1.01175 0.0
C1796 C 0.10436 0.01523 0.93576 0.0
C1797 C 0.10224 0.03471 0.90318 0.0
C1798 C 0.14335 0.02708 0.13646 0.0
C1799 C 0.09238 0.99752 0.88824 0.0
C1800 C 0.13941 0.95992 0.03968 0.0
C1801 C 0.1287 0.95327 0.10897 0.0
C1802 C 0.13592 0.97917 1.00688 0.0
C1803 C 0.12124 0.99187 0.04387 0.0
C1804 C 0.11026 0.98511 0.11337 0.0
C1805 C 0.11421 0.96586 0.14551 0.0
C1806 C 0.14806 0.986 0.93336 0.0
C1807 C 0.09439 0.99822 0.15377 0.0
H1808 H 0.13452 0.06169 0.05546 0.0
H1809 H 0.09217 0.03685 0.84411 0.0
H1810 H 0.13598 0.02032 0.19148 0.0
H1811 H 0.15522 0.01644 0.11646 0.0
H1812 H 0.15023 0.0419 0.16403 0.0
H1813 H 0.08182 0.00241 0.83298 0.0
H1814 H 0.10239 0.9859 0.85863 0.0
H1815 H 0.08399 0.98997 0.93786 0.0
H1816 H 0.15058 0.9501 1.01133 0.0
H1817 H 0.10585 0.96061 0.19878 0.0
H1818 H 0.15632 1.00023 0.95826 0.0
H1819 H 0.13823 0.98958 0.87324 0.0
H1820 H 0.15878 0.9742 0.91141 0.0
H1821 H 0.10095 0.01275 0.18637 0.0
H1822 H 0.08678 0.99041 0.20536 0.0
H1823 H 0.08324 0.00227 0.09929 0.0
C1824 C 0.69844 0.39889 0.57495 0.0
C1825 C 0.69026 0.3795 0.54793 0.0
C1826 C 0.71836 0.40111 0.60755 0.0
C1827 C 0.73044 0.38356 0.61119 0.0
C1828 C 0.72258 0.36414 0.5778 0.0
C1829 C 0.70249 0.3623 0.5477 0.0
C1830 C 0.72606 0.42202 0.64418 0.0
C1831 C 0.73511 0.34513 0.57844 0.0
C1832 C 0.78594 0.39085 0.66248 0.0
C1833 C 0.78811 0.38737 0.75494 0.0
C1834 C 0.76725 0.3895 0.61405 0.0
C1835 C 0.75043 0.38509 0.66013 0.0
C1836 C 0.7526 0.38196 0.75403 0.0
C1837 C 0.77147 0.38288 0.79996 0.0
C1838 C 0.76554 0.39246 0.5136 0.0
C1839 C 0.735 0.37764 0.80616 0.0
H1840 H 0.68899 0.41222 0.57586 0.0
H1841 H 0.69624 0.34731 0.526 0.0
H1842 H 0.7288 0.42236 0.71924 0.0
H1843 H 0.74032 0.42534 0.61654 0.0
H1844 H 0.71548 0.43436 0.62764 0.0
H1845 H 0.72764 0.33185 0.53846 0.0
H1846 H 0.74946 0.34792 0.55041 0.0
H1847 H 0.73833 0.34106 0.64947 0.0
H1848 H 0.79889 0.39421 0.62768 0.0
H1849 H 0.77317 0.38029 0.87164 0.0
H1850 H 0.75547 0.40534 0.49939 0.0
H1851 H 0.75902 0.37853 0.47506 0.0
H1852 H 0.78007 0.39565 0.48783 0.0
H1853 H 0.72394 0.38998 0.79902 0.0
H1854 H 0.73915 0.37645 0.8797 0.0
H1855 H 0.72775 0.3631 0.77778 0.0
loop_
_geom_bond_atom_site_label_1
_geom_bond_atom_site_label_2
_geom_bond_distance
_geom_bond_site_symmetry_2
_ccdc_geom_bond_type
Tb0 O3 2.453 . S
Tb0 O4 2.596 . S
Tb0 O5 2.374 . S
Tb0 O13 2.343 . S
Tb0 O15 2.353 . S
Tb0 O17 2.427 . S
Tb0 O18 2.513 . S
C1 O5 1.251 . S
C1 O7 1.263 . S
Tb2 O4 2.343 . S
Tb2 O7 2.353 . S
Tb2 O10 2.427 . S
Tb2 O11 2.513 . S
Tb2 O12 2.453 1_554 S
Tb2 O13 2.596 . S
Tb2 O14 2.374 . S
O3 Tb0 2.453 . S
O3 C19 1.245 . S
O4 Tb0 2.596 . S
O4 Tb2 2.343 . S
O4 C19 1.259 . S
O5 Tb0 2.374 . S
O5 C1 1.251 . S
C6 O10 1.275 . S
C6 O11 1.246 . S
O7 C1 1.263 . S
O7 Tb2 2.353 . S
C8 O12 1.245 . S
C8 O13 1.259 1_556 S
C9 O14 1.250 . S
C9 O15 1.263 . S
O10 Tb2 2.427 . S
O10 C6 1.275 . S
O11 Tb2 2.513 . S
O11 C6 1.246 . S
O12 Tb2 2.453 1_556 S
O12 C8 1.245 . S
O13 Tb0 2.343 . S
O13 Tb2 2.596 . S
O13 C8 1.259 1_554 S
O14 Tb2 2.374 . S
O14 C9 1.250 . S
O15 Tb0 2.353 . S
O15 C9 1.263 . S
C16 O17 1.275 . S
C16 O18 1.246 . S
O17 Tb0 2.427 . S
O17 C16 1.275 . S
O18 Tb0 2.513 . S
O18 C16 1.246 . S
C19 O3 1.245 . S
C19 O4 1.259 . S
Tb20 O23 2.453 . S
Tb20 O24 2.596 . S
Tb20 O25 2.374 . S
Tb20 O33 2.343 . S
Tb20 O35 2.353 . S
Tb20 O37 2.427 . S
Tb20 O38 2.513 . S
C21 O25 1.251 . S
C21 O27 1.263 . S
Tb22 O24 2.343 . S
Tb22 O27 2.353 . S
Tb22 O30 2.427 . S
Tb22 O31 2.513 . S
Tb22 O32 2.453 . S
Tb22 O33 2.596 . S
Tb22 O34 2.374 . S
O23 Tb20 2.453 . S
O23 C39 1.245 . S
O24 Tb20 2.596 . S
O24 Tb22 2.343 . S
O24 C39 1.259 . S
O25 Tb20 2.374 . S
O25 C21 1.251 . S
C26 O30 1.275 . S
C26 O31 1.246 . S
O27 C21 1.263 . S
O27 Tb22 2.353 . S
C28 O32 1.245 . S
C28 O33 1.259 . S
C29 O34 1.250 . S
C29 O35 1.263 . S
O30 Tb22 2.427 . S
O30 C26 1.275 . S
O31 Tb22 2.513 . S
O31 C26 1.246 . S
O32 Tb22 2.453 . S
O32 C28 1.245 . S
O33 Tb20 2.343 . S
O33 Tb22 2.596 . S
O33 C28 1.259 . S
O34 Tb22 2.374 . S
O34 C29 1.250 . S
O35 Tb20 2.353 . S
O35 C29 1.263 . S
C36 O37 1.275 . S
C36 O38 1.246 . S
O37 Tb20 2.427 . S
O37 C36 1.275 . S
O38 Tb20 2.513 . S
O38 C36 1.246 . S
C39 O23 1.245 . S
C39 O24 1.259 . S
Tb40 O43 2.453 . S
Tb40 O44 2.596 . S
Tb40 O45 2.374 . S
Tb40 O53 2.343 . S
Tb40 O55 2.353 . S
Tb40 O57 2.427 . S
Tb40 O58 2.513 . S
C41 O45 1.251 . S
C41 O47 1.263 . S
Tb42 O44 2.343 . S
Tb42 O47 2.353 . S
Tb42 O50 2.427 . S
Tb42 O51 2.513 . S
Tb42 O52 2.453 . S
Tb42 O53 2.596 . S
Tb42 O54 2.374 . S
O43 Tb40 2.453 . S
O43 C59 1.245 . S
O44 Tb40 2.596 . S
O44 Tb42 2.343 . S
O44 C59 1.259 . S
O45 Tb40 2.374 . S
O45 C41 1.251 . S
C46 O50 1.275 . S
C46 O51 1.246 . S
O47 C41 1.263 . S
O47 Tb42 2.353 . S
C48 O52 1.245 . S
C48 O53 1.259 . S
C49 O54 1.250 . S
C49 O55 1.263 . S
O50 Tb42 2.427 . S
O50 C46 1.275 . S
O51 Tb42 2.513 . S
O51 C46 1.246 . S
O52 Tb42 2.453 . S
O52 C48 1.245 . S
O53 Tb40 2.343 . S
O53 Tb42 2.596 . S
O53 C48 1.259 . S
O54 Tb42 2.374 . S
O54 C49 1.250 . S
O55 Tb40 2.353 . S
O55 C49 1.263 . S
C56 O57 1.275 . S
C56 O58 1.246 . S
O57 Tb40 2.427 . S
O57 C56 1.275 . S
O58 Tb40 2.513 . S
O58 C56 1.246 . S
C59 O43 1.245 . S
C59 O44 1.259 . S
Tb60 O63 2.453 1_556 S
Tb60 O64 2.597 . S
Tb60 O65 2.374 . S
Tb60 O73 2.343 . S
Tb60 O75 2.353 . S
Tb60 O77 2.427 . S
Tb60 O78 2.513 . S
C61 O65 1.251 . S
C61 O67 1.263 . S
Tb62 O64 2.345 . S
Tb62 O67 2.353 . S
Tb62 O70 2.427 . S
Tb62 O71 2.513 . S
Tb62 O72 2.453 . S
Tb62 O73 2.596 . S
Tb62 O74 2.374 . S
O63 Tb60 2.453 1_554 S
O63 C79 1.245 . S
O64 Tb60 2.597 . S
O64 Tb62 2.345 . S
O64 C79 1.257 1_556 S
O65 Tb60 2.374 . S
O65 C61 1.251 . S
C66 O70 1.275 . S
C66 O71 1.246 . S
O67 C61 1.263 . S
O67 Tb62 2.353 . S
C68 O72 1.245 . S
C68 O73 1.259 . S
C69 O74 1.250 . S
C69 O75 1.263 . S
O70 Tb62 2.427 . S
O70 C66 1.275 . S
O71 Tb62 2.513 . S
O71 C66 1.246 . S
O72 Tb62 2.453 . S
O72 C68 1.245 . S
O73 Tb60 2.343 . S
O73 Tb62 2.596 . S
O73 C68 1.259 . S
O74 Tb62 2.374 . S
O74 C69 1.250 . S
O75 Tb60 2.353 . S
O75 C69 1.263 . S
C76 O77 1.275 . S
C76 O78 1.246 . S
O77 Tb60 2.427 . S
O77 C76 1.275 . S
O78 Tb60 2.513 . S
O78 C76 1.246 . S
C79 O63 1.245 . S
C79 O64 1.257 1_554 S
Tb80 O83 2.453 . S
Tb80 O84 2.596 . S
Tb80 O85 2.374 . S
Tb80 O93 2.343 1_556 S
Tb80 O95 2.353 . S
Tb80 O97 2.427 . S
Tb80 O98 2.513 . S
C81 O85 1.251 . S
C81 O87 1.263 . S
Tb82 O84 2.343 . S
Tb82 O87 2.353 . S
Tb82 O90 2.427 . S
Tb82 O91 2.513 . S
Tb82 O92 2.453 1_556 S
Tb82 O93 2.596 1_556 S
Tb82 O94 2.374 . S
O83 Tb80 2.453 . S
O83 C99 1.245 . S
O84 Tb80 2.596 . S
O84 Tb82 2.343 . S
O84 C99 1.259 . S
O85 Tb80 2.374 . S
O85 C81 1.251 . S
C86 O90 1.275 . S
C86 O91 1.246 . S
O87 C81 1.263 . S
O87 Tb82 2.353 . S
C88 O92 1.245 . S
C88 O93 1.259 . S
C89 O94 1.250 . S
C89 O95 1.263 . S
O90 Tb82 2.427 . S
O90 C86 1.275 . S
O91 Tb82 2.513 . S
O91 C86 1.246 . S
O92 Tb82 2.453 1_554 S
O92 C88 1.245 . S
O93 Tb80 2.343 1_554 S
O93 Tb82 2.596 1_554 S
O93 C88 1.259 . S
O94 Tb82 2.374 . S
O94 C89 1.250 . S
O95 Tb80 2.353 . S
O95 C89 1.263 . S
C96 O97 1.275 1_554 S
C96 O98 1.246 1_554 S
O97 Tb80 2.427 . S
O97 C96 1.275 1_556 S
O98 Tb80 2.513 . S
O98 C96 1.246 1_556 S
C99 O83 1.245 . S
C99 O84 1.259 . S
Tb100 O103 2.453 . S
Tb100 O104 2.596 . S
Tb100 O105 2.374 . S
Tb100 O113 2.343 . S
Tb100 O115 2.353 . S
Tb100 O117 2.427 . S
Tb100 O118 2.513 . S
C101 O105 1.251 . S
C101 O107 1.263 . S
Tb102 O104 2.343 . S
Tb102 O107 2.353 . S
Tb102 O110 2.427 . S
Tb102 O111 2.513 . S
Tb102 O112 2.453 1_554 S
Tb102 O113 2.596 . S
Tb102 O114 2.374 . S
O103 Tb100 2.453 . S
O103 C119 1.245 . S
O104 Tb100 2.596 . S
O104 Tb102 2.343 . S
O104 C119 1.259 . S
O105 Tb100 2.374 . S
O105 C101 1.251 . S
C106 O110 1.275 . S
C106 O111 1.246 . S
O107 C101 1.263 . S
O107 Tb102 2.353 . S
C108 O112 1.245 . S
C108 O113 1.259 1_556 S
C109 O114 1.250 . S
C109 O115 1.263 . S
O110 Tb102 2.427 . S
O110 C106 1.275 . S
O111 Tb102 2.513 . S
O111 C106 1.246 . S
O112 Tb102 2.453 1_556 S
O112 C108 1.245 . S
O113 Tb100 2.343 . S
O113 Tb102 2.596 . S
O113 C108 1.259 1_554 S
O114 Tb102 2.374 . S
O114 C109 1.250 . S
O115 Tb100 2.353 . S
O115 C109 1.263 . S
C116 O117 1.275 . S
C116 O118 1.246 . S
O117 Tb100 2.427 . S
O117 C116 1.275 . S
O118 Tb100 2.513 . S
O118 C116 1.246 . S
C119 O103 1.245 . S
C119 O104 1.259 . S
Tb120 O123 2.453 . S
Tb120 O124 2.596 . S
Tb120 O125 2.374 . S
Tb120 O133 2.343 . S
Tb120 O135 2.353 . S
Tb120 O137 2.427 . S
Tb120 O138 2.513 . S
C121 O125 1.251 . S
C121 O127 1.263 . S
Tb122 O124 2.343 . S
Tb122 O127 2.353 . S
Tb122 O130 2.427 . S
Tb122 O131 2.513 . S
Tb122 O132 2.453 . S
Tb122 O133 2.596 . S
Tb122 O134 2.374 . S
O123 Tb120 2.453 . S
O123 C139 1.245 . S
O124 Tb120 2.596 . S
O124 Tb122 2.343 . S
O124 C139 1.259 . S
O125 Tb120 2.374 . S
O125 C121 1.251 . S
C126 O130 1.275 . S
C126 O131 1.246 . S
O127 C121 1.263 . S
O127 Tb122 2.353 . S
C128 O132 1.245 . S
C128 O133 1.259 . S
C129 O134 1.250 . S
C129 O135 1.263 . S
O130 Tb122 2.427 . S
O130 C126 1.275 . S
O131 Tb122 2.513 . S
O131 C126 1.246 . S
O132 Tb122 2.453 . S
O132 C128 1.245 . S
O133 Tb120 2.343 . S
O133 Tb122 2.596 . S
O133 C128 1.259 . S
O134 Tb122 2.374 . S
O134 C129 1.250 . S
O135 Tb120 2.353 . S
O135 C129 1.263 . S
C136 O137 1.275 . S
C136 O138 1.246 . S
O137 Tb120 2.427 . S
O137 C136 1.275 . S
O138 Tb120 2.513 . S
O138 C136 1.246 . S
C139 O123 1.245 . S
C139 O124 1.259 . S
Tb140 O143 2.453 . S
Tb140 O144 2.596 . S
Tb140 O145 2.374 . S
Tb140 O153 2.343 . S
Tb140 O155 2.353 . S
Tb140 O157 2.427 . S
Tb140 O158 2.513 . S
C141 O145 1.251 . S
C141 O147 1.263 . S
Tb142 O144 2.343 . S
Tb142 O147 2.353 . S
Tb142 O150 2.427 . S
Tb142 O151 2.513 . S
Tb142 O152 2.453 . S
Tb142 O153 2.596 . S
Tb142 O154 2.374 . S
O143 Tb140 2.453 . S
O143 C159 1.245 . S
O144 Tb140 2.596 . S
O144 Tb142 2.343 . S
O144 C159 1.259 . S
O145 Tb140 2.374 . S
O145 C141 1.251 . S
C146 O150 1.275 . S
C146 O151 1.246 . S
O147 C141 1.263 . S
O147 Tb142 2.353 . S
C148 O152 1.245 . S
C148 O153 1.259 . S
C149 O154 1.250 . S
C149 O155 1.263 . S
O150 Tb142 2.427 . S
O150 C146 1.275 . S
O151 Tb142 2.513 . S
O151 C146 1.246 . S
O152 Tb142 2.453 . S
O152 C148 1.245 . S
O153 Tb140 2.343 . S
O153 Tb142 2.596 . S
O153 C148 1.259 . S
O154 Tb142 2.374 . S
O154 C149 1.250 . S
O155 Tb140 2.353 . S
O155 C149 1.263 . S
C156 O157 1.275 . S
C156 O158 1.246 . S
O157 Tb140 2.427 . S
O157 C156 1.275 . S
O158 Tb140 2.513 . S
O158 C156 1.246 . S
C159 O143 1.245 . S
C159 O144 1.259 . S
Tb160 O163 2.453 1_556 S
Tb160 O164 2.596 . S
Tb160 O165 2.374 . S
Tb160 O173 2.343 . S
Tb160 O175 2.353 . S
Tb160 O177 2.427 . S
Tb160 O178 2.513 . S
C161 O165 1.251 . S
C161 O167 1.263 . S
Tb162 O164 2.343 . S
Tb162 O167 2.353 . S
Tb162 O170 2.427 . S
Tb162 O171 2.513 . S
Tb162 O172 2.453 . S
Tb162 O173 2.596 . S
Tb162 O174 2.374 . S
O163 Tb160 2.453 1_554 S
O163 C179 1.245 . S
O164 Tb160 2.596 . S
O164 Tb162 2.343 . S
O164 C179 1.259 1_556 S
O165 Tb160 2.374 . S
O165 C161 1.251 . S
C166 O170 1.275 . S
C166 O171 1.246 . S
O167 C161 1.263 . S
O167 Tb162 2.353 . S
C168 O172 1.245 . S
C168 O173 1.259 . S
C169 O174 1.250 . S
C169 O175 1.263 . S
O170 Tb162 2.427 . S
O170 C166 1.275 . S
O171 Tb162 2.513 . S
O171 C166 1.246 . S
O172 Tb162 2.453 . S
O172 C168 1.245 . S
O173 Tb160 2.343 . S
O173 Tb162 2.596 . S
O173 C168 1.259 . S
O174 Tb162 2.374 . S
O174 C169 1.250 . S
O175 Tb160 2.353 . S
O175 C169 1.263 . S
C176 O177 1.275 . S
C176 O178 1.246 . S
O177 Tb160 2.427 . S
O177 C176 1.275 . S
O178 Tb160 2.513 . S
O178 C176 1.246 . S
C179 O163 1.245 . S
C179 O164 1.259 1_554 S
Tb180 O183 2.453 . S
Tb180 O184 2.596 . S
Tb180 O185 2.374 . S
Tb180 O193 2.343 . S
Tb180 O195 2.353 . S
Tb180 O197 2.427 . S
Tb180 O198 2.513 . S
C181 O185 1.251 . S
C181 O187 1.263 . S
Tb182 O184 2.343 . S
Tb182 O187 2.353 . S
Tb182 O190 2.427 . S
Tb182 O191 2.513 . S
Tb182 O192 2.453 . S
Tb182 O193 2.596 . S
Tb182 O194 2.374 . S
O183 Tb180 2.453 . S
O183 C199 1.245 . S
O184 Tb180 2.596 . S
O184 Tb182 2.343 . S
O184 C199 1.259 . S
O185 Tb180 2.374 . S
O185 C181 1.251 . S
C186 O190 1.275 . S
C186 O191 1.246 . S
O187 C181 1.263 . S
O187 Tb182 2.353 . S
C188 O192 1.245 . S
C188 O193 1.259 . S
C189 O194 1.250 . S
C189 O195 1.263 . S
O190 Tb182 2.427 . S
O190 C186 1.275 . S
O191 Tb182 2.513 . S
O191 C186 1.246 . S
O192 Tb182 2.453 . S
O192 C188 1.245 . S
O193 Tb180 2.343 . S
O193 Tb182 2.596 . S
O193 C188 1.259 . S
O194 Tb182 2.374 . S
O194 C189 1.250 . S
O195 Tb180 2.353 . S
O195 C189 1.263 . S
C196 O197 1.275 . S
C196 O198 1.246 . S
O197 Tb180 2.427 . S
O197 C196 1.275 . S
O198 Tb180 2.513 . S
O198 C196 1.246 . S
C199 O183 1.245 . S
C199 O184 1.259 . S
Tb200 O203 2.453 . S
Tb200 O204 2.596 . S
Tb200 O205 2.374 . S
Tb200 O213 2.343 . S
Tb200 O215 2.353 . S
Tb200 O217 2.427 . S
Tb200 O218 2.513 . S
C201 O205 1.251 . S
C201 O207 1.263 . S
Tb202 O204 2.343 . S
Tb202 O207 2.353 . S
Tb202 O210 2.427 . S
Tb202 O211 2.513 . S
Tb202 O212 2.453 . S
Tb202 O213 2.596 . S
Tb202 O214 2.374 . S
O203 Tb200 2.453 . S
O203 C219 1.245 . S
O204 Tb200 2.596 . S
O204 Tb202 2.343 . S
O204 C219 1.259 . S
O205 Tb200 2.374 . S
O205 C201 1.251 . S
C206 O210 1.275 . S
C206 O211 1.246 . S
O207 C201 1.263 . S
O207 Tb202 2.353 . S
C208 O212 1.245 . S
C208 O213 1.259 . S
C209 O214 1.250 . S
C209 O215 1.263 . S
O210 Tb202 2.427 . S
O210 C206 1.275 . S
O211 Tb202 2.513 . S
O211 C206 1.246 . S
O212 Tb202 2.453 . S
O212 C208 1.245 . S
O213 Tb200 2.343 . S
O213 Tb202 2.596 . S
O213 C208 1.259 . S
O214 Tb202 2.374 . S
O214 C209 1.250 . S
O215 Tb200 2.353 . S
O215 C209 1.263 . S
C216 O217 1.275 . S
C216 O218 1.246 . S
O217 Tb200 2.427 . S
O217 C216 1.275 . S
O218 Tb200 2.513 . S
O218 C216 1.246 . S
C219 O203 1.245 . S
C219 O204 1.259 . S
Tb220 O223 2.453 . S
Tb220 O224 2.596 . S
Tb220 O225 2.374 . S
Tb220 O233 2.343 . S
Tb220 O235 2.353 . S
Tb220 O237 2.427 . S
Tb220 O238 2.513 . S
C221 O225 1.251 . S
C221 O227 1.263 . S
Tb222 O224 2.343 . S
Tb222 O227 2.353 . S
Tb222 O230 2.427 . S
Tb222 O231 2.513 . S
Tb222 O232 2.453 1_554 S
Tb222 O233 2.596 . S
Tb222 O234 2.374 . S
O223 Tb220 2.453 . S
O223 C239 1.245 . S
O224 Tb220 2.596 . S
O224 Tb222 2.343 . S
O224 C239 1.259 . S
O225 Tb220 2.374 . S
O225 C221 1.251 . S
C226 O230 1.275 . S
C226 O231 1.246 . S
O227 C221 1.263 . S
O227 Tb222 2.353 . S
C228 O232 1.245 . S
C228 O233 1.259 1_556 S
C229 O234 1.250 . S
C229 O235 1.263 . S
O230 Tb222 2.427 . S
O230 C226 1.275 . S
O231 Tb222 2.513 . S
O231 C226 1.246 . S
O232 Tb222 2.453 1_556 S
O232 C228 1.245 . S
O233 Tb220 2.343 . S
O233 Tb222 2.596 . S
O233 C228 1.259 1_554 S
O234 Tb222 2.374 . S
O234 C229 1.250 . S
O235 Tb220 2.353 . S
O235 C229 1.263 . S
C236 O237 1.275 . S
C236 O238 1.246 . S
O237 Tb220 2.427 . S
O237 C236 1.275 . S
O238 Tb220 2.513 . S
O238 C236 1.246 . S
C239 O223 1.245 . S
C239 O224 1.259 . S
Tb240 O243 2.453 . S
Tb240 O244 2.596 . S
Tb240 O245 2.374 . S
Tb240 O253 2.343 1_556 S
Tb240 O255 2.353 1_556 S
Tb240 O257 2.427 1_556 S
Tb240 O258 2.513 1_556 S
C241 O245 1.251 . S
C241 O247 1.263 1_556 S
Tb242 O244 2.343 1_554 S
Tb242 O247 2.353 . S
Tb242 O250 2.427 1_554 S
Tb242 O251 2.513 1_554 S
Tb242 O252 2.453 . S
Tb242 O253 2.596 . S
Tb242 O254 2.374 . S
O243 Tb240 2.453 . S
O243 C259 1.245 . S
O244 Tb240 2.596 . S
O244 Tb242 2.343 1_556 S
O244 C259 1.259 . S
O245 Tb240 2.374 . S
O245 C241 1.251 . S
C246 O250 1.275 . S
C246 O251 1.246 . S
O247 C241 1.263 1_554 S
O247 Tb242 2.353 . S
C248 O252 1.245 . S
C248 O253 1.259 . S
C249 O254 1.250 . S
C249 O255 1.263 . S
O250 Tb242 2.427 1_556 S
O250 C246 1.275 . S
O251 Tb242 2.513 1_556 S
O251 C246 1.246 . S
O252 Tb242 2.453 . S
O252 C248 1.245 . S
O253 Tb240 2.343 1_554 S
O253 Tb242 2.596 . S
O253 C248 1.259 . S
O254 Tb242 2.374 . S
O254 C249 1.250 . S
O255 Tb240 2.353 1_554 S
O255 C249 1.263 . S
C256 O257 1.275 . S
C256 O258 1.246 . S
O257 Tb240 2.427 1_554 S
O257 C256 1.275 . S
O258 Tb240 2.513 1_554 S
O258 C256 1.246 . S
C259 O243 1.245 . S
C259 O244 1.259 . S
Tb260 O263 2.453 . S
Tb260 O264 2.596 . S
Tb260 O265 2.374 . S
Tb260 O273 2.343 . S
Tb260 O275 2.353 . S
Tb260 O277 2.427 . S
Tb260 O278 2.513 . S
C261 O265 1.251 . S
C261 O267 1.263 . S
Tb262 O264 2.343 . S
Tb262 O267 2.353 . S
Tb262 O270 2.427 . S
Tb262 O271 2.513 . S
Tb262 O272 2.453 1_556 S
Tb262 O273 2.596 . S
Tb262 O274 2.374 . S
O263 Tb260 2.453 . S
O263 C279 1.245 . S
O264 Tb260 2.596 . S
O264 Tb262 2.343 . S
O264 C279 1.259 . S
O265 Tb260 2.374 . S
O265 C261 1.251 . S
C266 O270 1.275 . S
C266 O271 1.246 . S
O267 C261 1.263 . S
O267 Tb262 2.353 . S
C268 O272 1.245 . S
C268 O273 1.259 1_554 S
C269 O274 1.250 . S
C269 O275 1.263 . S
O270 Tb262 2.427 . S
O270 C266 1.275 . S
O271 Tb262 2.513 . S
O271 C266 1.246 . S
O272 Tb262 2.453 1_554 S
O272 C268 1.245 . S
O273 Tb260 2.343 . S
O273 Tb262 2.596 . S
O273 C268 1.259 1_556 S
O274 Tb262 2.374 . S
O274 C269 1.250 . S
O275 Tb260 2.353 . S
O275 C269 1.263 . S
C276 O277 1.275 . S
C276 O278 1.246 . S
O277 Tb260 2.427 . S
O277 C276 1.275 . S
O278 Tb260 2.513 . S
O278 C276 1.246 . S
C279 O263 1.245 . S
C279 O264 1.259 . S
Tb280 O283 2.453 . S
Tb280 O284 2.596 . S
Tb280 O285 2.374 . S
Tb280 O293 2.343 . S
Tb280 O295 2.353 . S
Tb280 O297 2.427 . S
Tb280 O298 2.513 . S
C281 O285 1.251 . S
C281 O287 1.263 . S
Tb282 O284 2.343 . S
Tb282 O287 2.353 . S
Tb282 O290 2.427 . S
Tb282 O291 2.513 . S
Tb282 O292 2.453 . S
Tb282 O293 2.596 . S
Tb282 O294 2.374 . S
O283 Tb280 2.453 . S
O283 C299 1.245 . S
O284 Tb280 2.596 . S
O284 Tb282 2.343 . S
O284 C299 1.259 . S
O285 Tb280 2.374 . S
O285 C281 1.251 . S
C286 O290 1.275 . S
C286 O291 1.246 . S
O287 C281 1.263 . S
O287 Tb282 2.353 . S
C288 O292 1.245 . S
C288 O293 1.259 . S
C289 O294 1.250 . S
C289 O295 1.263 . S
O290 Tb282 2.427 . S
O290 C286 1.275 . S
O291 Tb282 2.513 . S
O291 C286 1.246 . S
O292 Tb282 2.453 . S
O292 C288 1.245 . S
O293 Tb280 2.343 . S
O293 Tb282 2.596 . S
O293 C288 1.259 . S
O294 Tb282 2.374 . S
O294 C289 1.250 . S
O295 Tb280 2.353 . S
O295 C289 1.263 . S
C296 O297 1.275 . S
C296 O298 1.246 . S
O297 Tb280 2.427 . S
O297 C296 1.275 . S
O298 Tb280 2.513 . S
O298 C296 1.246 . S
C299 O283 1.245 . S
C299 O284 1.259 . S
Tb300 O303 2.453 . S
Tb300 O304 2.596 . S
Tb300 O305 2.374 . S
Tb300 O313 2.343 . S
Tb300 O315 2.353 . S
Tb300 O317 2.427 . S
Tb300 O318 2.513 . S
C301 O305 1.251 . S
C301 O307 1.263 . S
Tb302 O304 2.343 . S
Tb302 O307 2.353 . S
Tb302 O310 2.427 . S
Tb302 O311 2.513 . S
Tb302 O312 2.453 . S
Tb302 O313 2.596 . S
Tb302 O314 2.374 . S
O303 Tb300 2.453 . S
O303 C319 1.245 . S
O304 Tb300 2.596 . S
O304 Tb302 2.343 . S
O304 C319 1.259 . S
O305 Tb300 2.374 . S
O305 C301 1.251 . S
C306 O310 1.275 . S
C306 O311 1.246 . S
O307 C301 1.263 . S
O307 Tb302 2.353 . S
C308 O312 1.245 . S
C308 O313 1.259 . S
C309 O314 1.250 . S
C309 O315 1.263 . S
O310 Tb302 2.427 . S
O310 C306 1.275 . S
O311 Tb302 2.513 . S
O311 C306 1.246 . S
O312 Tb302 2.453 . S
O312 C308 1.245 . S
O313 Tb300 2.343 . S
O313 Tb302 2.596 . S
O313 C308 1.259 . S
O314 Tb302 2.374 . S
O314 C309 1.250 . S
O315 Tb300 2.353 . S
O315 C309 1.263 . S
C316 O317 1.275 . S
C316 O318 1.246 . S
O317 Tb300 2.427 . S
O317 C316 1.275 . S
O318 Tb300 2.513 . S
O318 C316 1.246 . S
C319 O303 1.245 . S
C319 O304 1.259 . S
C320 C321 1.391 . S
C320 C322 1.394 . S
C320 H336 0.931 . S
C321 C320 1.391 . S
C321 C325 1.376 . S
C322 C320 1.394 . S
C322 C323 1.369 . S
C322 C326 1.531 . S
C323 C322 1.369 . S
C323 C324 1.410 . S
C323 C331 1.503 . S
C324 C323 1.410 . S
C324 C325 1.392 . S
C324 C327 1.511 . S
C325 C321 1.376 . S
C325 C324 1.392 . S
C325 H337 0.929 . S
C326 C322 1.531 . S
C326 H338 0.960 . S
C326 H339 0.962 . S
C326 H340 0.960 . S
C327 C324 1.511 . S
C327 H341 0.961 . S
C327 H342 0.961 . S
C327 H343 0.961 . S
C328 C329 1.370 . S
C328 C330 1.363 . S
C328 H344 0.931 . S
C329 C328 1.370 . S
C329 C333 1.408 . S
C330 C328 1.363 . S
C330 C331 1.370 . S
C330 C334 1.524 . S
C331 C323 1.503 . S
C331 C330 1.370 . S
C331 C332 1.403 . S
C332 C331 1.403 . S
C332 C333 1.404 . S
C332 C335 1.539 . S
C333 C329 1.408 . S
C333 C332 1.404 . S
C333 H345 0.930 . S
C334 C330 1.524 . S
C334 H346 0.956 . S
C334 H347 0.961 . S
C334 H348 0.961 . S
C335 C332 1.539 . S
C335 H349 0.958 . S
C335 H350 0.961 . S
C335 H351 0.960 . S
H336 C320 0.931 . S
H337 C325 0.929 . S
H338 C326 0.960 . S
H339 C326 0.962 . S
H340 C326 0.960 . S
H341 C327 0.961 . S
H342 C327 0.961 . S
H343 C327 0.961 . S
H344 C328 0.931 . S
H345 C333 0.930 . S
H346 C334 0.956 . S
H347 C334 0.961 . S
H348 C334 0.961 . S
H349 C335 0.958 . S
H350 C335 0.961 . S
H351 C335 0.960 . S
C352 C353 1.391 . S
C352 C354 1.394 . S
C352 H368 0.931 . S
C353 C352 1.391 . S
C353 C357 1.376 . S
C354 C352 1.394 . S
C354 C355 1.369 1_554 S
C354 C358 1.531 1_554 S
C355 C354 1.369 1_556 S
C355 C356 1.410 1_556 S
C355 C363 1.503 . S
C356 C355 1.410 1_554 S
C356 C357 1.392 . S
C356 C359 1.511 . S
C357 C353 1.376 . S
C357 C356 1.392 . S
C357 H369 0.929 . S
C358 C354 1.531 1_556 S
C358 H370 0.960 . S
C358 H371 0.962 . S
C358 H372 0.960 . S
C359 C356 1.511 . S
C359 H373 0.961 . S
C359 H374 0.961 1_554 S
C359 H375 0.961 1_554 S
C360 C361 1.370 . S
C360 C362 1.363 . S
C360 H376 0.931 . S
C361 C360 1.370 . S
C361 C365 1.408 . S
C362 C360 1.363 . S
C362 C363 1.370 . S
C362 C366 1.524 . S
C363 C355 1.503 . S
C363 C362 1.370 . S
C363 C364 1.403 . S
C364 C363 1.403 . S
C364 C365 1.404 . S
C364 C367 1.539 . S
C365 C361 1.408 . S
C365 C364 1.404 . S
C365 H377 0.930 . S
C366 C362 1.524 . S
C366 H378 0.956 . S
C366 H379 0.961 . S
C366 H380 0.961 . S
C367 C364 1.539 . S
C367 H381 0.958 . S
C367 H382 0.961 . S
C367 H383 0.960 . S
H368 C352 0.931 . S
H369 C357 0.929 . S
H370 C358 0.960 . S
H371 C358 0.962 . S
H372 C358 0.960 . S
H373 C359 0.961 . S
H374 C359 0.961 1_556 S
H375 C359 0.961 1_556 S
H376 C360 0.931 . S
H377 C365 0.930 . S
H378 C366 0.956 . S
H379 C366 0.961 . S
H380 C366 0.961 . S
H381 C367 0.958 . S
H382 C367 0.961 . S
H383 C367 0.960 . S
C384 C385 1.391 . S
C384 C386 1.394 . S
C384 H400 0.931 . S
C385 C384 1.391 . S
C385 C389 1.376 . S
C386 C384 1.394 . S
C386 C387 1.369 . S
C386 C390 1.531 . S
C387 C386 1.369 . S
C387 C388 1.410 . S
C387 C395 1.503 . S
C388 C387 1.410 . S
C388 C389 1.392 . S
C388 C391 1.511 . S
C389 C385 1.376 . S
C389 C388 1.392 . S
C389 H401 0.929 . S
C390 C386 1.531 . S
C390 H402 0.960 . S
C390 H403 0.962 . S
C390 H404 0.960 . S
C391 C388 1.511 . S
C391 H405 0.961 . S
C391 H406 0.961 . S
C391 H407 0.961 . S
C392 C393 1.370 . S
C392 C394 1.363 1_556 S
C392 H408 0.931 . S
C393 C392 1.370 . S
C393 C397 1.408 . S
C394 C392 1.363 1_554 S
C394 C395 1.370 . S
C394 C398 1.524 . S
C395 C387 1.503 . S
C395 C394 1.370 . S
C395 C396 1.403 . S
C396 C395 1.403 . S
C396 C397 1.404 1_554 S
C396 C399 1.539 . S
C397 C393 1.408 . S
C397 C396 1.404 1_556 S
C397 H409 0.930 . S
C398 C394 1.524 . S
C398 H410 0.956 . S
C398 H411 0.961 . S
C398 H412 0.961 . S
C399 C396 1.539 . S
C399 H413 0.958 . S
C399 H414 0.961 . S
C399 H415 0.960 . S
H400 C384 0.931 . S
H401 C389 0.929 . S
H402 C390 0.960 . S
H403 C390 0.962 . S
H404 C390 0.960 . S
H405 C391 0.961 . S
H406 C391 0.961 . S
H407 C391 0.961 . S
H408 C392 0.931 . S
H409 C397 0.930 . S
H410 C398 0.956 . S
H411 C398 0.961 . S
H412 C398 0.961 . S
H413 C399 0.958 . S
H414 C399 0.961 . S
H415 C399 0.960 . S
C416 C417 1.391 . S
C416 C418 1.394 . S
C416 H432 0.931 . S
C417 C416 1.391 . S
C417 C421 1.376 . S
C418 C416 1.394 . S
C418 C419 1.369 . S
C418 C422 1.531 . S
C419 C418 1.369 . S
C419 C420 1.410 . S
C419 C427 1.503 . S
C420 C419 1.410 . S
C420 C421 1.392 . S
C420 C423 1.511 . S
C421 C417 1.376 . S
C421 C420 1.392 . S
C421 H433 0.929 . S
C422 C418 1.531 . S
C422 H434 0.960 . S
C422 H435 0.962 . S
C422 H436 0.960 . S
C423 C420 1.511 . S
C423 H437 0.961 . S
C423 H438 0.961 . S
C423 H439 0.961 . S
C424 C425 1.370 . S
C424 C426 1.363 . S
C424 H440 0.931 . S
C425 C424 1.370 . S
C425 C429 1.408 . S
C426 C424 1.363 . S
C426 C427 1.370 . S
C426 C430 1.524 . S
C427 C419 1.503 . S
C427 C426 1.370 . S
C427 C428 1.403 . S
C428 C427 1.403 . S
C428 C429 1.404 . S
C428 C431 1.539 . S
C429 C425 1.408 . S
C429 C428 1.404 . S
C429 H441 0.930 . S
C430 C426 1.524 . S
C430 H442 0.956 . S
C430 H443 0.961 . S
C430 H444 0.961 . S
C431 C428 1.539 . S
C431 H445 0.958 . S
C431 H446 0.961 . S
C431 H447 0.960 . S
H432 C416 0.931 . S
H433 C421 0.929 . S
H434 C422 0.960 . S
H435 C422 0.962 . S
H436 C422 0.960 . S
H437 C423 0.961 . S
H438 C423 0.961 . S
H439 C423 0.961 . S
H440 C424 0.931 . S
H441 C429 0.930 . S
H442 C430 0.956 . S
H443 C430 0.961 . S
H444 C430 0.961 . S
H445 C431 0.958 . S
H446 C431 0.961 . S
H447 C431 0.960 . S
C448 C449 1.391 . S
C448 C450 1.394 . S
C448 H464 0.931 . S
C449 C448 1.391 . S
C449 C453 1.376 . S
C450 C448 1.394 . S
C450 C451 1.369 . S
C450 C454 1.531 . S
C451 C450 1.369 . S
C451 C452 1.410 . S
C451 C459 1.503 . S
C452 C451 1.410 . S
C452 C453 1.392 . S
C452 C455 1.511 . S
C453 C449 1.376 . S
C453 C452 1.392 . S
C453 H465 0.929 . S
C454 C450 1.531 . S
C454 H466 0.960 . S
C454 H467 0.962 . S
C454 H468 0.960 . S
C455 C452 1.511 . S
C455 H469 0.961 . S
C455 H470 0.961 . S
C455 H471 0.961 . S
C456 C457 1.370 . S
C456 C458 1.363 . S
C456 H472 0.931 . S
C457 C456 1.370 . S
C457 C461 1.408 . S
C458 C456 1.363 . S
C458 C459 1.370 . S
C458 C462 1.524 . S
C459 C451 1.503 . S
C459 C458 1.370 . S
C459 C460 1.403 . S
C460 C459 1.403 . S
C460 C461 1.404 . S
C460 C463 1.539 . S
C461 C457 1.408 . S
C461 C460 1.404 . S
C461 H473 0.930 . S
C462 C458 1.524 . S
C462 H474 0.956 . S
C462 H475 0.961 . S
C462 H476 0.961 . S
C463 C460 1.539 . S
C463 H477 0.958 . S
C463 H478 0.961 . S
C463 H479 0.960 . S
H464 C448 0.931 . S
H465 C453 0.929 . S
H466 C454 0.960 . S
H467 C454 0.962 . S
H468 C454 0.960 . S
H469 C455 0.961 . S
H470 C455 0.961 . S
H471 C455 0.961 . S
H472 C456 0.931 . S
H473 C461 0.930 . S
H474 C462 0.956 . S
H475 C462 0.961 . S
H476 C462 0.961 . S
H477 C463 0.958 . S
H478 C463 0.961 . S
H479 C463 0.960 . S
C480 C481 1.391 . S
C480 C482 1.394 . S
C480 H496 0.931 . S
C481 C480 1.391 . S
C481 C485 1.376 . S
C482 C480 1.394 . S
C482 C483 1.369 . S
C482 C486 1.531 . S
C483 C482 1.369 . S
C483 C484 1.410 . S
C483 C491 1.503 . S
C484 C483 1.410 . S
C484 C485 1.392 . S
C484 C487 1.511 . S
C485 C481 1.376 . S
C485 C484 1.392 . S
C485 H497 0.929 . S
C486 C482 1.531 . S
C486 H498 0.960 . S
C486 H499 0.962 . S
C486 H500 0.960 . S
C487 C484 1.511 . S
C487 H501 0.961 . S
C487 H502 0.961 . S
C487 H503 0.961 . S
C488 C489 1.370 . S
C488 C490 1.363 . S
C488 H504 0.931 . S
C489 C488 1.370 . S
C489 C493 1.408 . S
C490 C488 1.363 . S
C490 C491 1.370 . S
C490 C494 1.524 . S
C491 C483 1.503 . S
C491 C490 1.370 . S
C491 C492 1.403 . S
C492 C491 1.403 . S
C492 C493 1.404 . S
C492 C495 1.539 . S
C493 C489 1.408 . S
C493 C492 1.404 . S
C493 H505 0.930 . S
C494 C490 1.524 . S
C494 H506 0.956 . S
C494 H507 0.961 . S
C494 H508 0.961 . S
C495 C492 1.539 . S
C495 H509 0.958 . S
C495 H510 0.961 . S
C495 H511 0.960 . S
H496 C480 0.931 . S
H497 C485 0.929 . S
H498 C486 0.960 . S
H499 C486 0.962 . S
H500 C486 0.960 . S
H501 C487 0.961 . S
H502 C487 0.961 . S
H503 C487 0.961 . S
H504 C488 0.931 . S
H505 C493 0.930 . S
H506 C494 0.956 . S
H507 C494 0.961 . S
H508 C494 0.961 . S
H509 C495 0.958 . S
H510 C495 0.961 . S
H511 C495 0.960 . S
C512 C513 1.391 . S
C512 C514 1.394 . S
C512 H528 0.931 . S
C513 C512 1.391 . S
C513 C517 1.376 . S
C514 C512 1.394 . S
C514 C515 1.369 . S
C514 C518 1.531 . S
C515 C514 1.369 . S
C515 C516 1.410 . S
C515 C523 1.503 . S
C516 C515 1.410 . S
C516 C517 1.392 . S
C516 C519 1.511 . S
C517 C513 1.376 . S
C517 C516 1.392 . S
C517 H529 0.929 . S
C518 C514 1.531 . S
C518 H530 0.960 . S
C518 H531 0.962 . S
C518 H532 0.960 . S
C519 C516 1.511 . S
C519 H533 0.961 . S
C519 H534 0.961 . S
C519 H535 0.961 . S
C520 C521 1.370 . S
C520 C522 1.363 . S
C520 H536 0.931 . S
C521 C520 1.370 . S
C521 C525 1.408 . S
C522 C520 1.363 . S
C522 C523 1.370 1_554 S
C522 C526 1.524 1_554 S
C523 C515 1.503 . S
C523 C522 1.370 1_556 S
C523 C524 1.403 . S
C524 C523 1.403 . S
C524 C525 1.404 1_556 S
C524 C527 1.539 . S
C525 C521 1.408 . S
C525 C524 1.404 1_554 S
C525 H537 0.930 . S
C526 C522 1.524 1_556 S
C526 H538 0.956 . S
C526 H539 0.961 . S
C526 H540 0.961 1_556 S
C527 C524 1.539 . S
C527 H541 0.958 . S
C527 H542 0.961 . S
C527 H543 0.960 . S
H528 C512 0.931 . S
H529 C517 0.929 . S
H530 C518 0.960 . S
H531 C518 0.962 . S
H532 C518 0.960 . S
H533 C519 0.961 . S
H534 C519 0.961 . S
H535 C519 0.961 . S
H536 C520 0.931 . S
H537 C525 0.930 . S
H538 C526 0.956 . S
H539 C526 0.961 . S
H540 C526 0.961 1_554 S
H541 C527 0.958 . S
H542 C527 0.961 . S
H543 C527 0.960 . S
C544 C545 1.391 . S
C544 C546 1.394 1_556 S
C544 H560 0.931 . S
C545 C544 1.391 . S
C545 C549 1.376 . S
C546 C544 1.394 1_554 S
C546 C547 1.369 . S
C546 C550 1.531 . S
C547 C546 1.369 . S
C547 C548 1.410 . S
C547 C555 1.503 . S
C548 C547 1.410 . S
C548 C549 1.392 1_554 S
C548 C551 1.511 . S
C549 C545 1.376 . S
C549 C548 1.392 1_556 S
C549 H561 0.929 . S
C550 C546 1.531 . S
C550 H562 0.960 . S
C550 H563 0.962 . S
C550 H564 0.960 . S
C551 C548 1.511 . S
C551 H565 0.961 . S
C551 H566 0.961 . S
C551 H567 0.961 . S
C552 C553 1.370 . S
C552 C554 1.363 . S
C552 H568 0.931 . S
C553 C552 1.370 . S
C553 C557 1.408 . S
C554 C552 1.363 . S
C554 C555 1.370 . S
C554 C558 1.524 . S
C555 C547 1.503 . S
C555 C554 1.370 . S
C555 C556 1.403 . S
C556 C555 1.403 . S
C556 C557 1.404 . S
C556 C559 1.539 . S
C557 C553 1.408 . S
C557 C556 1.404 . S
C557 H569 0.930 . S
C558 C554 1.524 . S
C558 H570 0.956 . S
C558 H571 0.961 . S
C558 H572 0.961 . S
C559 C556 1.539 . S
C559 H573 0.958 . S
C559 H574 0.961 . S
C559 H575 0.960 . S
H560 C544 0.931 . S
H561 C549 0.929 . S
H562 C550 0.960 . S
H563 C550 0.962 . S
H564 C550 0.960 . S
H565 C551 0.961 . S
H566 C551 0.961 . S
H567 C551 0.961 . S
H568 C552 0.931 . S
H569 C557 0.930 . S
H570 C558 0.956 . S
H571 C558 0.961 . S
H572 C558 0.961 . S
H573 C559 0.958 . S
H574 C559 0.961 . S
H575 C559 0.960 . S
C576 C577 1.391 . S
C576 C578 1.394 . S
C576 H592 0.931 . S
C577 C576 1.391 . S
C577 C581 1.376 . S
C578 C576 1.394 . S
C578 C579 1.369 . S
C578 C582 1.531 . S
C579 C578 1.369 . S
C579 C580 1.410 . S
C579 C587 1.503 . S
C580 C579 1.410 . S
C580 C581 1.392 . S
C580 C583 1.511 . S
C581 C577 1.376 . S
C581 C580 1.392 . S
C581 H593 0.929 . S
C582 C578 1.531 . S
C582 H594 0.960 . S
C582 H595 0.962 . S
C582 H596 0.960 . S
C583 C580 1.511 . S
C583 H597 0.961 . S
C583 H598 0.961 . S
C583 H599 0.961 . S
C584 C585 1.370 . S
C584 C586 1.363 . S
C584 H600 0.931 . S
C585 C584 1.370 . S
C585 C589 1.408 . S
C586 C584 1.363 . S
C586 C587 1.370 . S
C586 C590 1.524 . S
C587 C579 1.503 . S
C587 C586 1.370 . S
C587 C588 1.403 . S
C588 C587 1.403 . S
C588 C589 1.404 . S
C588 C591 1.539 . S
C589 C585 1.408 . S
C589 C588 1.404 . S
C589 H601 0.930 . S
C590 C586 1.524 . S
C590 H602 0.956 . S
C590 H603 0.961 . S
C590 H604 0.961 . S
C591 C588 1.539 . S
C591 H605 0.958 . S
C591 H606 0.961 . S
C591 H607 0.960 . S
H592 C576 0.931 . S
H593 C581 0.929 . S
H594 C582 0.960 . S
H595 C582 0.962 . S
H596 C582 0.960 . S
H597 C583 0.961 . S
H598 C583 0.961 . S
H599 C583 0.961 . S
H600 C584 0.931 . S
H601 C589 0.930 . S
H602 C590 0.956 . S
H603 C590 0.961 . S
H604 C590 0.961 . S
H605 C591 0.958 . S
H606 C591 0.961 . S
H607 C591 0.960 . S
C608 C609 1.391 . S
C608 C610 1.394 . S
C608 H624 0.931 . S
C609 C608 1.391 . S
C609 C613 1.376 . S
C610 C608 1.394 . S
C610 C611 1.369 . S
C610 C614 1.531 . S
C611 C610 1.369 . S
C611 C612 1.410 . S
C611 C619 1.503 . S
C612 C611 1.410 . S
C612 C613 1.392 . S
C612 C615 1.511 . S
C613 C609 1.376 . S
C613 C612 1.392 . S
C613 H625 0.929 . S
C614 C610 1.531 . S
C614 H626 0.960 . S
C614 H627 0.962 . S
C614 H628 0.960 . S
C615 C612 1.511 . S
C615 H629 0.961 . S
C615 H630 0.961 . S
C615 H631 0.961 . S
C616 C617 1.370 . S
C616 C618 1.363 1_556 S
C616 H632 0.931 . S
C617 C616 1.370 . S
C617 C621 1.408 . S
C618 C616 1.363 1_554 S
C618 C619 1.370 . S
C618 C622 1.524 . S
C619 C611 1.503 . S
C619 C618 1.370 . S
C619 C620 1.403 . S
C620 C619 1.403 . S
C620 C621 1.404 1_554 S
C620 C623 1.539 . S
C621 C617 1.408 . S
C621 C620 1.404 1_556 S
C621 H633 0.930 . S
C622 C618 1.524 . S
C622 H634 0.956 . S
C622 H635 0.961 . S
C622 H636 0.961 . S
C623 C620 1.539 . S
C623 H637 0.958 . S
C623 H638 0.961 . S
C623 H639 0.960 . S
H624 C608 0.931 . S
H625 C613 0.929 . S
H626 C614 0.960 . S
H627 C614 0.962 . S
H628 C614 0.960 . S
H629 C615 0.961 . S
H630 C615 0.961 . S
H631 C615 0.961 . S
H632 C616 0.931 . S
H633 C621 0.930 . S
H634 C622 0.956 . S
H635 C622 0.961 . S
H636 C622 0.961 . S
H637 C623 0.958 . S
H638 C623 0.961 . S
H639 C623 0.960 . S
C640 C641 1.391 . S
C640 C642 1.394 1_554 S
C640 H656 0.931 . S
C641 C640 1.391 . S
C641 C645 1.376 . S
C642 C640 1.394 1_556 S
C642 C643 1.369 . S
C642 C646 1.531 . S
C643 C642 1.369 . S
C643 C644 1.410 . S
C643 C651 1.503 . S
C644 C643 1.410 . S
C644 C645 1.392 1_556 S
C644 C647 1.511 . S
C645 C641 1.376 . S
C645 C644 1.392 1_554 S
C645 H657 0.929 . S
C646 C642 1.531 . S
C646 H658 0.960 . S
C646 H659 0.962 . S
C646 H660 0.960 . S
C647 C644 1.511 . S
C647 H661 0.961 . S
C647 H662 0.961 . S
C647 H663 0.961 . S
C648 C649 1.370 . S
C648 C650 1.363 . S
C648 H664 0.931 . S
C649 C648 1.370 . S
C649 C653 1.408 . S
C650 C648 1.363 . S
C650 C651 1.370 . S
C650 C654 1.524 . S
C651 C643 1.503 . S
C651 C650 1.370 . S
C651 C652 1.403 . S
C652 C651 1.403 . S
C652 C653 1.404 . S
C652 C655 1.539 . S
C653 C649 1.408 . S
C653 C652 1.404 . S
C653 H665 0.930 . S
C654 C650 1.524 . S
C654 H666 0.956 . S
C654 H667 0.961 . S
C654 H668 0.961 . S
C655 C652 1.539 . S
C655 H669 0.958 . S
C655 H670 0.961 . S
C655 H671 0.960 . S
H656 C640 0.931 . S
H657 C645 0.929 . S
H658 C646 0.960 . S
H659 C646 0.962 . S
H660 C646 0.960 . S
H661 C647 0.961 . S
H662 C647 0.961 . S
H663 C647 0.961 . S
H664 C648 0.931 . S
H665 C653 0.930 . S
H666 C654 0.956 . S
H667 C654 0.961 . S
H668 C654 0.961 . S
H669 C655 0.958 . S
H670 C655 0.961 . S
H671 C655 0.960 . S
C672 C673 1.391 . S
C672 C674 1.394 . S
C672 H688 0.931 . S
C673 C672 1.391 . S
C673 C677 1.376 . S
C674 C672 1.394 . S
C674 C675 1.369 . S
C674 C678 1.531 . S
C675 C674 1.369 . S
C675 C676 1.410 . S
C675 C683 1.503 . S
C676 C675 1.410 . S
C676 C677 1.392 . S
C676 C679 1.511 . S
C677 C673 1.376 . S
C677 C676 1.392 . S
C677 H689 0.929 . S
C678 C674 1.531 . S
C678 H690 0.960 . S
C678 H691 0.962 . S
C678 H692 0.960 . S
C679 C676 1.511 . S
C679 H693 0.961 . S
C679 H694 0.961 . S
C679 H695 0.961 . S
C680 C681 1.370 . S
C680 C682 1.363 . S
C680 H696 0.931 . S
C681 C680 1.370 . S
C681 C685 1.408 . S
C682 C680 1.363 . S
C682 C683 1.370 . S
C682 C686 1.524 . S
C683 C675 1.503 . S
C683 C682 1.370 . S
C683 C684 1.403 . S
C684 C683 1.403 . S
C684 C685 1.404 . S
C684 C687 1.539 . S
C685 C681 1.408 . S
C685 C684 1.404 . S
C685 H697 0.930 . S
C686 C682 1.524 . S
C686 H698 0.956 . S
C686 H699 0.961 . S
C686 H700 0.961 . S
C687 C684 1.539 . S
C687 H701 0.958 . S
C687 H702 0.961 . S
C687 H703 0.960 . S
H688 C672 0.931 . S
H689 C677 0.929 . S
H690 C678 0.960 . S
H691 C678 0.962 . S
H692 C678 0.960 . S
H693 C679 0.961 . S
H694 C679 0.961 . S
H695 C679 0.961 . S
H696 C680 0.931 . S
H697 C685 0.930 . S
H698 C686 0.956 . S
H699 C686 0.961 . S
H700 C686 0.961 . S
H701 C687 0.958 . S
H702 C687 0.961 . S
H703 C687 0.960 . S
C704 C705 1.391 . S
C704 C706 1.394 . S
C704 H720 0.931 . S
C705 C704 1.391 . S
C705 C709 1.376 . S
C706 C704 1.394 . S
C706 C707 1.369 . S
C706 C710 1.531 . S
C707 C706 1.369 . S
C707 C708 1.410 . S
C707 C715 1.503 . S
C708 C707 1.410 . S
C708 C709 1.392 . S
C708 C711 1.511 . S
C709 C705 1.376 . S
C709 C708 1.392 . S
C709 H721 0.929 . S
C710 C706 1.531 . S
C710 H722 0.960 . S
C710 H723 0.962 . S
C710 H724 0.960 . S
C711 C708 1.511 . S
C711 H725 0.961 . S
C711 H726 0.961 . S
C711 H727 0.961 . S
C712 C713 1.370 . S
C712 C714 1.363 . S
C712 H728 0.931 . S
C713 C712 1.370 . S
C713 C717 1.408 . S
C714 C712 1.363 . S
C714 C715 1.370 . S
C714 C718 1.524 . S
C715 C707 1.503 . S
C715 C714 1.370 . S
C715 C716 1.403 . S
C716 C715 1.403 . S
C716 C717 1.404 . S
C716 C719 1.539 . S
C717 C713 1.408 . S
C717 C716 1.404 . S
C717 H729 0.930 . S
C718 C714 1.524 . S
C718 H730 0.956 . S
C718 H731 0.961 . S
C718 H732 0.961 . S
C719 C716 1.539 . S
C719 H733 0.958 . S
C719 H734 0.961 . S
C719 H735 0.960 . S
H720 C704 0.931 . S
H721 C709 0.929 . S
H722 C710 0.960 . S
H723 C710 0.962 . S
H724 C710 0.960 . S
H725 C711 0.961 . S
H726 C711 0.961 . S
H727 C711 0.961 . S
H728 C712 0.931 . S
H729 C717 0.930 . S
H730 C718 0.956 . S
H731 C718 0.961 . S
H732 C718 0.961 . S
H733 C719 0.958 . S
H734 C719 0.961 . S
H735 C719 0.960 . S
C736 C737 1.391 . S
C736 C738 1.394 . S
C736 H752 0.931 . S
C737 C736 1.391 . S
C737 C741 1.376 . S
C738 C736 1.394 . S
C738 C739 1.369 . S
C738 C742 1.531 . S
C739 C738 1.369 . S
C739 C740 1.410 . S
C739 C747 1.503 . S
C740 C739 1.410 . S
C740 C741 1.392 . S
C740 C743 1.511 . S
C741 C737 1.376 . S
C741 C740 1.392 . S
C741 H753 0.929 . S
C742 C738 1.531 . S
C742 H754 0.960 . S
C742 H755 0.962 . S
C742 H756 0.960 . S
C743 C740 1.511 . S
C743 H757 0.961 . S
C743 H758 0.961 . S
C743 H759 0.961 . S
C744 C745 1.370 . S
C744 C746 1.363 . S
C744 H760 0.931 . S
C745 C744 1.370 . S
C745 C749 1.408 . S
C746 C744 1.363 . S
C746 C747 1.370 . S
C746 C750 1.524 . S
C747 C739 1.503 . S
C747 C746 1.370 . S
C747 C748 1.403 . S
C748 C747 1.403 . S
C748 C749 1.404 . S
C748 C751 1.539 . S
C749 C745 1.408 . S
C749 C748 1.404 . S
C749 H761 0.930 . S
C750 C746 1.524 . S
C750 H762 0.956 . S
C750 H763 0.961 . S
C750 H764 0.961 . S
C751 C748 1.539 . S
C751 H765 0.958 . S
C751 H766 0.961 . S
C751 H767 0.960 . S
H752 C736 0.931 . S
H753 C741 0.929 . S
H754 C742 0.960 . S
H755 C742 0.962 . S
H756 C742 0.960 . S
H757 C743 0.961 . S
H758 C743 0.961 . S
H759 C743 0.961 . S
H760 C744 0.931 . S
H761 C749 0.930 . S
H762 C750 0.956 . S
H763 C750 0.961 . S
H764 C750 0.961 . S
H765 C751 0.958 . S
H766 C751 0.961 . S
H767 C751 0.960 . S
C768 C769 1.391 . S
C768 C770 1.394 . S
C768 H784 0.931 . S
C769 C768 1.391 . S
C769 C773 1.376 . S
C770 C768 1.394 . S
C770 C771 1.369 . S
C770 C774 1.531 . S
C771 C770 1.369 . S
C771 C772 1.410 . S
C771 C779 1.503 1_554 S
C772 C771 1.410 . S
C772 C773 1.392 . S
C772 C775 1.511 . S
C773 C769 1.376 . S
C773 C772 1.392 . S
C773 H785 0.929 . S
C774 C770 1.531 . S
C774 H786 0.960 . S
C774 H787 0.962 . S
C774 H788 0.960 . S
C775 C772 1.511 . S
C775 H789 0.961 . S
C775 H790 0.961 . S
C775 H791 0.961 . S
C776 C777 1.370 . S
C776 C778 1.363 . S
C776 H792 0.931 . S
C777 C776 1.370 . S
C777 C781 1.408 . S
C778 C776 1.363 . S
C778 C779 1.370 . S
C778 C782 1.524 1_556 S
C779 C771 1.503 1_556 S
C779 C778 1.370 . S
C779 C780 1.403 . S
C780 C779 1.403 . S
C780 C781 1.404 . S
C780 C783 1.539 . S
C781 C777 1.408 . S
C781 C780 1.404 . S
C781 H793 0.930 . S
C782 C778 1.524 1_554 S
C782 H794 0.956 . S
C782 H795 0.961 . S
C782 H796 0.961 1_554 S
C783 C780 1.539 . S
C783 H797 0.958 . S
C783 H798 0.961 . S
C783 H799 0.960 1_556 S
H784 C768 0.931 . S
H785 C773 0.929 . S
H786 C774 0.960 . S
H787 C774 0.962 . S
H788 C774 0.960 . S
H789 C775 0.961 . S
H790 C775 0.961 . S
H791 C775 0.961 . S
H792 C776 0.931 . S
H793 C781 0.930 . S
H794 C782 0.956 . S
H795 C782 0.961 . S
H796 C782 0.961 1_556 S
H797 C783 0.958 . S
H798 C783 0.961 . S
H799 C783 0.960 1_554 S
C800 C801 1.391 . S
C800 C802 1.394 . S
C800 H816 0.931 . S
C801 C800 1.391 . S
C801 C805 1.376 . S
C802 C800 1.394 . S
C802 C803 1.369 1_554 S
C802 C806 1.531 1_554 S
C803 C802 1.369 1_556 S
C803 C804 1.410 . S
C803 C811 1.503 . S
C804 C803 1.410 . S
C804 C805 1.392 1_556 S
C804 C807 1.511 . S
C805 C801 1.376 . S
C805 C804 1.392 1_554 S
C805 H817 0.929 . S
C806 C802 1.531 1_556 S
C806 H818 0.960 . S
C806 H819 0.962 . S
C806 H820 0.960 1_556 S
C807 C804 1.511 . S
C807 H821 0.961 . S
C807 H822 0.961 . S
C807 H823 0.961 . S
C808 C809 1.370 . S
C808 C810 1.363 . S
C808 H824 0.931 . S
C809 C808 1.370 . S
C809 C813 1.408 . S
C810 C808 1.363 . S
C810 C811 1.370 . S
C810 C814 1.524 . S
C811 C803 1.503 . S
C811 C810 1.370 . S
C811 C812 1.403 . S
C812 C811 1.403 . S
C812 C813 1.404 . S
C812 C815 1.539 . S
C813 C809 1.408 . S
C813 C812 1.404 . S
C813 H825 0.930 . S
C814 C810 1.524 . S
C814 H826 0.956 . S
C814 H827 0.961 . S
C814 H828 0.961 . S
C815 C812 1.539 . S
C815 H829 0.958 . S
C815 H830 0.961 . S
C815 H831 0.960 . S
H816 C800 0.931 . S
H817 C805 0.929 . S
H818 C806 0.960 . S
H819 C806 0.962 . S
H820 C806 0.960 1_554 S
H821 C807 0.961 . S
H822 C807 0.961 . S
H823 C807 0.961 . S
H824 C808 0.931 . S
H825 C813 0.930 . S
H826 C814 0.956 . S
H827 C814 0.961 . S
H828 C814 0.961 . S
H829 C815 0.958 . S
H830 C815 0.961 . S
H831 C815 0.960 . S
C832 C833 1.391 . S
C832 C834 1.394 . S
C832 H848 0.931 . S
C833 C832 1.391 . S
C833 C837 1.376 . S
C834 C832 1.394 . S
C834 C835 1.369 . S
C834 C838 1.531 . S
C835 C834 1.369 . S
C835 C836 1.410 . S
C835 C843 1.503 . S
C836 C835 1.410 . S
C836 C837 1.392 . S
C836 C839 1.511 . S
C837 C833 1.376 . S
C837 C836 1.392 . S
C837 H849 0.929 . S
C838 C834 1.531 . S
C838 H850 0.960 . S
C838 H851 0.962 . S
C838 H852 0.960 . S
C839 C836 1.511 . S
C839 H853 0.961 . S
C839 H854 0.961 . S
C839 H855 0.961 . S
C840 C841 1.370 . S
C840 C842 1.363 . S
C840 H856 0.931 . S
C841 C840 1.370 . S
C841 C845 1.408 . S
C842 C840 1.363 . S
C842 C843 1.370 . S
C842 C846 1.524 . S
C843 C835 1.503 . S
C843 C842 1.370 . S
C843 C844 1.403 . S
C844 C843 1.403 . S
C844 C845 1.404 . S
C844 C847 1.539 . S
C845 C841 1.408 . S
C845 C844 1.404 . S
C845 H857 0.930 . S
C846 C842 1.524 . S
C846 H858 0.956 . S
C846 H859 0.961 . S
C846 H860 0.961 . S
C847 C844 1.539 . S
C847 H861 0.958 . S
C847 H862 0.961 . S
C847 H863 0.960 . S
H848 C832 0.931 . S
H849 C837 0.929 . S
H850 C838 0.960 . S
H851 C838 0.962 . S
H852 C838 0.960 . S
H853 C839 0.961 . S
H854 C839 0.961 . S
H855 C839 0.961 . S
H856 C840 0.931 . S
H857 C845 0.930 . S
H858 C846 0.956 . S
H859 C846 0.961 . S
H860 C846 0.961 . S
H861 C847 0.958 . S
H862 C847 0.961 . S
H863 C847 0.960 . S
C864 C865 1.391 . S
C864 C866 1.394 . S
C864 H880 0.931 . S
C865 C864 1.391 . S
C865 C869 1.376 . S
C866 C864 1.394 . S
C866 C867 1.369 . S
C866 C870 1.531 . S
C867 C866 1.369 . S
C867 C868 1.410 . S
C867 C875 1.503 . S
C868 C867 1.410 . S
C868 C869 1.392 . S
C868 C871 1.511 . S
C869 C865 1.376 . S
C869 C868 1.392 . S
C869 H881 0.929 . S
C870 C866 1.531 . S
C870 H882 0.960 . S
C870 H883 0.962 . S
C870 H884 0.960 . S
C871 C868 1.511 . S
C871 H885 0.961 . S
C871 H886 0.961 . S
C871 H887 0.961 . S
C872 C873 1.370 . S
C872 C874 1.363 . S
C872 H888 0.931 . S
C873 C872 1.370 . S
C873 C877 1.408 . S
C874 C872 1.363 . S
C874 C875 1.370 . S
C874 C878 1.524 . S
C875 C867 1.503 . S
C875 C874 1.370 . S
C875 C876 1.403 . S
C876 C875 1.403 . S
C876 C877 1.404 . S
C876 C879 1.539 . S
C877 C873 1.408 . S
C877 C876 1.404 . S
C877 H889 0.930 . S
C878 C874 1.524 . S
C878 H890 0.956 . S
C878 H891 0.961 . S
C878 H892 0.961 . S
C879 C876 1.539 . S
C879 H893 0.958 . S
C879 H894 0.961 . S
C879 H895 0.960 . S
H880 C864 0.931 . S
H881 C869 0.929 . S
H882 C870 0.960 . S
H883 C870 0.962 . S
H884 C870 0.960 . S
H885 C871 0.961 . S
H886 C871 0.961 . S
H887 C871 0.961 . S
H888 C872 0.931 . S
H889 C877 0.930 . S
H890 C878 0.956 . S
H891 C878 0.961 . S
H892 C878 0.961 . S
H893 C879 0.958 . S
H894 C879 0.961 . S
H895 C879 0.960 . S
C896 C897 1.391 . S
C896 C898 1.394 . S
C896 H912 0.931 . S
C897 C896 1.391 . S
C897 C901 1.376 . S
C898 C896 1.394 . S
C898 C899 1.369 . S
C898 C902 1.531 . S
C899 C898 1.369 . S
C899 C900 1.410 . S
C899 C907 1.503 . S
C900 C899 1.410 . S
C900 C901 1.392 . S
C900 C903 1.511 . S
C901 C897 1.376 . S
C901 C900 1.392 . S
C901 H913 0.929 . S
C902 C898 1.531 . S
C902 H914 0.960 . S
C902 H915 0.962 . S
C902 H916 0.960 . S
C903 C900 1.511 . S
C903 H917 0.961 . S
C903 H918 0.961 . S
C903 H919 0.961 . S
C904 C905 1.370 . S
C904 C906 1.363 . S
C904 H920 0.931 . S
C905 C904 1.370 . S
C905 C909 1.408 . S
C906 C904 1.363 . S
C906 C907 1.370 . S
C906 C910 1.524 . S
C907 C899 1.503 . S
C907 C906 1.370 . S
C907 C908 1.403 . S
C908 C907 1.403 . S
C908 C909 1.404 . S
C908 C911 1.539 . S
C909 C905 1.408 . S
C909 C908 1.404 . S
C909 H921 0.930 . S
C910 C906 1.524 . S
C910 H922 0.956 . S
C910 H923 0.961 . S
C910 H924 0.961 . S
C911 C908 1.539 . S
C911 H925 0.958 . S
C911 H926 0.961 . S
C911 H927 0.960 . S
H912 C896 0.931 . S
H913 C901 0.929 . S
H914 C902 0.960 . S
H915 C902 0.962 . S
H916 C902 0.960 . S
H917 C903 0.961 . S
H918 C903 0.961 . S
H919 C903 0.961 . S
H920 C904 0.931 . S
H921 C909 0.930 . S
H922 C910 0.956 . S
H923 C910 0.961 . S
H924 C910 0.961 . S
H925 C911 0.958 . S
H926 C911 0.961 . S
H927 C911 0.960 . S
C928 C929 1.391 . S
C928 C930 1.394 . S
C928 H944 0.931 . S
C929 C928 1.391 . S
C929 C933 1.376 1_556 S
C930 C928 1.394 . S
C930 C931 1.369 . S
C930 C934 1.531 . S
C931 C930 1.369 . S
C931 C932 1.410 1_556 S
C931 C939 1.503 1_655 S
C932 C931 1.410 1_554 S
C932 C933 1.392 . S
C932 C935 1.511 . S
C933 C929 1.376 1_554 S
C933 C932 1.392 . S
C933 H945 0.929 . S
C934 C930 1.531 . S
C934 H946 0.991 . S
C934 H947 0.962 . S
C934 H948 0.960 . S
C935 C932 1.511 . S
C935 H949 0.961 . S
C935 H950 0.961 1_655 S
C935 H951 0.961 . S
C936 C937 1.370 . S
C936 C938 1.363 . S
C936 H952 0.931 . S
C937 C936 1.370 . S
C937 C941 1.408 . S
C938 C936 1.363 . S
C938 C939 1.370 . S
C938 C942 1.524 . S
C939 C931 1.503 1_455 S
C939 C938 1.370 . S
C939 C940 1.403 . S
C940 C939 1.403 . S
C940 C941 1.404 . S
C940 C943 1.539 1_556 S
C941 C937 1.408 . S
C941 C940 1.404 . S
C941 H953 0.930 1_556 S
C942 C938 1.524 . S
C942 H954 0.936 1_455 S
C942 H955 0.981 . S
C942 H956 0.961 . S
C943 C940 1.539 1_554 S
C943 H957 0.958 . S
C943 H958 0.961 . S
C943 H959 0.960 . S
H944 C928 0.931 . S
H945 C933 0.929 . S
H946 C934 0.991 . S
H947 C934 0.962 . S
H948 C934 0.960 . S
H949 C935 0.961 . S
H950 C935 0.961 1_455 S
H951 C935 0.961 . S
H952 C936 0.931 . S
H953 C941 0.930 1_554 S
H954 C942 0.936 1_655 S
H955 C942 0.981 . S
H956 C942 0.961 . S
H957 C943 0.958 . S
H958 C943 0.961 . S
H959 C943 0.960 . S
C960 C961 1.391 . S
C960 C962 1.394 . S
C960 H976 0.931 . S
C961 C960 1.391 . S
C961 C965 1.376 . S
C962 C960 1.394 . S
C962 C963 1.369 . S
C962 C966 1.531 . S
C963 C962 1.369 . S
C963 C964 1.410 . S
C963 C971 1.503 . S
C964 C963 1.410 . S
C964 C965 1.392 . S
C964 C967 1.511 1_556 S
C965 C961 1.376 . S
C965 C964 1.392 . S
C965 H977 0.918 1_556 S
C966 C962 1.531 . S
C966 H978 0.960 . S
C966 H979 0.962 . S
C966 H980 0.960 . S
C967 C964 1.511 1_554 S
C967 H981 0.961 . S
C967 H982 0.961 1_554 S
C967 H983 0.961 . S
C968 C969 1.370 . S
C968 C970 1.363 . S
C968 H984 0.931 . S
C969 C968 1.370 . S
C969 C973 1.408 . S
C970 C968 1.363 . S
C970 C971 1.370 . S
C970 C974 1.524 . S
C971 C963 1.503 . S
C971 C970 1.370 . S
C971 C972 1.403 . S
C972 C971 1.403 . S
C972 C973 1.404 . S
C972 C975 1.539 . S
C973 C969 1.408 . S
C973 C972 1.404 . S
C973 H985 0.930 . S
C974 C970 1.524 . S
C974 H986 0.956 . S
C974 H987 0.961 . S
C974 H988 0.961 . S
C975 C972 1.539 . S
C975 H989 0.958 . S
C975 H990 0.961 . S
C975 H991 0.960 . S
H976 C960 0.931 . S
H977 C965 0.918 1_554 S
H978 C966 0.960 . S
H979 C966 0.962 . S
H980 C966 0.960 . S
H981 C967 0.961 . S
H982 C967 0.961 1_556 S
H983 C967 0.961 . S
H984 C968 0.931 . S
H985 C973 0.930 . S
H986 C974 0.956 . S
H987 C974 0.961 . S
H988 C974 0.961 . S
H989 C975 0.958 . S
H990 C975 0.961 . S
H991 C975 0.960 . S
C992 C993 1.391 . S
C992 C994 1.394 . S
C992 H1008 0.931 . S
C993 C992 1.391 . S
C993 C997 1.376 . S
C994 C992 1.394 . S
C994 C995 1.369 . S
C994 C998 1.531 1_554 S
C995 C994 1.369 . S
C995 C996 1.410 . S
C995 C1003 1.503 . S
C996 C995 1.410 . S
C996 C997 1.392 . S
C996 C999 1.511 . S
C997 C993 1.376 . S
C997 C996 1.392 . S
C997 H1009 0.929 . S
C998 C994 1.531 1_556 S
C998 H1010 0.960 . S
C998 H1011 0.962 . S
C998 H1012 0.960 . S
C999 C996 1.511 . S
C999 H1013 0.961 . S
C999 H1014 0.961 . S
C999 H1015 0.961 . S
C1000 C1001 1.370 . S
C1000 C1002 1.363 . S
C1000 H1016 0.931 . S
C1001 C1000 1.370 . S
C1001 C1005 1.408 1_554 S
C1002 C1000 1.363 . S
C1002 C1003 1.370 1_655 S
C1002 C1006 1.524 1_655 S
C1003 C995 1.503 . S
C1003 C1002 1.370 1_455 S
C1003 C1004 1.403 1_454 S
C1004 C1003 1.403 1_656 S
C1004 C1005 1.404 . S
C1004 C1007 1.539 1_655 S
C1005 C1001 1.408 1_556 S
C1005 C1004 1.404 . S
C1005 H1017 0.930 . S
C1006 C1002 1.524 1_455 S
C1006 H1018 0.956 . S
C1006 H1019 0.961 . S
C1006 H1020 0.961 1_455 S
C1007 C1004 1.539 1_455 S
C1007 H1021 0.958 . S
C1007 H1022 0.961 1_455 S
C1007 H1023 0.960 . S
H1008 C992 0.931 . S
H1009 C997 0.929 . S
H1010 C998 0.960 . S
H1011 C998 0.962 . S
H1012 C998 0.960 . S
H1013 C999 0.961 . S
H1014 C999 0.961 . S
H1015 C999 0.961 . S
H1016 C1000 0.931 . S
H1017 C1005 0.930 . S
H1018 C1006 0.956 . S
H1019 C1006 0.961 . S
H1020 C1006 0.961 1_655 S
H1021 C1007 0.958 . S
H1022 C1007 0.961 1_655 S
H1023 C1007 0.960 . S
C1024 C1025 1.391 . S
C1024 C1026 1.394 . S
C1024 H1040 0.931 . S
C1025 C1024 1.391 . S
C1025 C1029 1.376 . S
C1026 C1024 1.394 . S
C1026 C1027 1.369 . S
C1026 C1030 1.531 . S
C1027 C1026 1.369 . S
C1027 C1028 1.410 . S
C1027 C1035 1.503 . S
C1028 C1027 1.410 . S
C1028 C1029 1.392 . S
C1028 C1031 1.511 . S
C1029 C1025 1.376 . S
C1029 C1028 1.392 . S
C1029 H1041 0.929 . S
C1030 C1026 1.531 . S
C1030 H1042 0.960 . S
C1030 H1043 0.962 . S
C1030 H1044 0.960 . S
C1031 C1028 1.511 . S
C1031 H1045 0.961 . S
C1031 H1046 0.961 . S
C1031 H1047 0.961 . S
C1032 C1033 1.370 . S
C1032 C1034 1.363 . S
C1032 H1048 0.931 . S
C1033 C1032 1.370 . S
C1033 C1037 1.408 . S
C1034 C1032 1.363 . S
C1034 C1035 1.370 . S
C1034 C1038 1.524 . S
C1035 C1027 1.503 . S
C1035 C1034 1.370 . S
C1035 C1036 1.403 . S
C1036 C1035 1.403 . S
C1036 C1037 1.404 . S
C1036 C1039 1.539 . S
C1037 C1033 1.408 . S
C1037 C1036 1.404 . S
C1037 H1049 0.930 . S
C1038 C1034 1.524 . S
C1038 H1050 0.956 . S
C1038 H1051 0.961 . S
C1038 H1052 0.961 . S
C1039 C1036 1.539 . S
C1039 H1053 0.958 . S
C1039 H1054 0.961 . S
C1039 H1055 0.960 . S
H1040 C1024 0.931 . S
H1041 C1029 0.929 . S
H1042 C1030 0.960 . S
H1043 C1030 0.962 . S
H1044 C1030 0.960 . S
H1045 C1031 0.961 . S
H1046 C1031 0.961 . S
H1047 C1031 0.961 . S
H1048 C1032 0.931 . S
H1049 C1037 0.930 . S
H1050 C1038 0.956 . S
H1051 C1038 0.961 . S
H1052 C1038 0.961 . S
H1053 C1039 0.958 . S
H1054 C1039 0.961 . S
H1055 C1039 0.960 . S
C1056 C1057 1.391 . S
C1056 C1058 1.394 . S
C1056 H1072 0.931 . S
C1057 C1056 1.391 . S
C1057 C1061 1.376 . S
C1058 C1056 1.394 . S
C1058 C1059 1.369 . S
C1058 C1062 1.531 . S
C1059 C1058 1.369 . S
C1059 C1060 1.410 . S
C1059 C1067 1.503 . S
C1060 C1059 1.410 . S
C1060 C1061 1.392 . S
C1060 C1063 1.511 . S
C1061 C1057 1.376 . S
C1061 C1060 1.392 . S
C1061 H1073 0.929 . S
C1062 C1058 1.531 . S
C1062 H1074 0.960 . S
C1062 H1075 0.962 . S
C1062 H1076 0.960 . S
C1063 C1060 1.511 . S
C1063 H1077 0.961 . S
C1063 H1078 0.961 . S
C1063 H1079 0.961 . S
C1064 C1065 1.370 . S
C1064 C1066 1.363 . S
C1064 H1080 0.931 . S
C1065 C1064 1.370 . S
C1065 C1069 1.408 . S
C1066 C1064 1.363 . S
C1066 C1067 1.370 . S
C1066 C1070 1.524 . S
C1067 C1059 1.503 . S
C1067 C1066 1.370 . S
C1067 C1068 1.403 . S
C1068 C1067 1.403 . S
C1068 C1069 1.404 . S
C1068 C1071 1.539 . S
C1069 C1065 1.408 . S
C1069 C1068 1.404 . S
C1069 H1081 0.930 . S
C1070 C1066 1.524 . S
C1070 H1082 0.956 . S
C1070 H1083 0.961 . S
C1070 H1084 0.961 . S
C1071 C1068 1.539 . S
C1071 H1085 0.958 . S
C1071 H1086 0.961 . S
C1071 H1087 0.960 . S
H1072 C1056 0.931 . S
H1073 C1061 0.929 . S
H1074 C1062 0.960 . S
H1075 C1062 0.962 . S
H1076 C1062 0.960 . S
H1077 C1063 0.961 . S
H1078 C1063 0.961 . S
H1079 C1063 0.961 . S
H1080 C1064 0.931 . S
H1081 C1069 0.930 . S
H1082 C1070 0.956 . S
H1083 C1070 0.961 . S
H1084 C1070 0.961 . S
H1085 C1071 0.958 . S
H1086 C1071 0.961 . S
H1087 C1071 0.960 . S
C1088 C1089 1.391 . S
C1088 C1090 1.394 . S
C1088 H1104 0.931 . S
C1089 C1088 1.391 . S
C1089 C1093 1.376 . S
C1090 C1088 1.394 . S
C1090 C1091 1.369 . S
C1090 C1094 1.531 . S
C1091 C1090 1.369 . S
C1091 C1092 1.410 . S
C1091 C1099 1.503 . S
C1092 C1091 1.410 . S
C1092 C1093 1.392 . S
C1092 C1095 1.511 . S
C1093 C1089 1.376 . S
C1093 C1092 1.392 . S
C1093 H1105 0.929 . S
C1094 C1090 1.531 . S
C1094 H1106 0.960 . S
C1094 H1107 0.962 . S
C1094 H1108 0.960 . S
C1095 C1092 1.511 . S
C1095 H1109 0.961 . S
C1095 H1110 0.961 . S
C1095 H1111 0.961 . S
C1096 C1097 1.370 . S
C1096 C1098 1.363 . S
C1096 H1112 0.931 . S
C1097 C1096 1.370 . S
C1097 C1101 1.408 . S
C1098 C1096 1.363 . S
C1098 C1099 1.370 . S
C1098 C1102 1.524 . S
C1099 C1091 1.503 . S
C1099 C1098 1.370 . S
C1099 C1100 1.403 . S
C1100 C1099 1.403 . S
C1100 C1101 1.404 . S
C1100 C1103 1.539 . S
C1101 C1097 1.408 . S
C1101 C1100 1.404 . S
C1101 H1113 0.930 . S
C1102 C1098 1.524 . S
C1102 H1114 0.956 . S
C1102 H1115 0.961 . S
C1102 H1116 0.961 . S
C1103 C1100 1.539 . S
C1103 H1117 0.958 . S
C1103 H1118 0.961 . S
C1103 H1119 0.960 . S
H1104 C1088 0.931 . S
H1105 C1093 0.929 . S
H1106 C1094 0.960 . S
H1107 C1094 0.962 . S
H1108 C1094 0.960 . S
H1109 C1095 0.961 . S
H1110 C1095 0.961 . S
H1111 C1095 0.961 . S
H1112 C1096 0.931 . S
H1113 C1101 0.930 . S
H1114 C1102 0.956 . S
H1115 C1102 0.961 . S
H1116 C1102 0.961 . S
H1117 C1103 0.958 . S
H1118 C1103 0.961 . S
H1119 C1103 0.960 . S
C1120 C1121 1.391 . S
C1120 C1122 1.394 . S
C1120 H1136 0.931 . S
C1121 C1120 1.391 . S
C1121 C1125 1.376 . S
C1122 C1120 1.394 . S
C1122 C1123 1.369 . S
C1122 C1126 1.531 . S
C1123 C1122 1.369 . S
C1123 C1124 1.410 . S
C1123 C1131 1.503 . S
C1124 C1123 1.410 . S
C1124 C1125 1.392 . S
C1124 C1127 1.511 . S
C1125 C1121 1.376 . S
C1125 C1124 1.392 . S
C1125 H1137 0.929 . S
C1126 C1122 1.531 . S
C1126 H1138 0.960 . S
C1126 H1139 0.962 . S
C1126 H1140 0.960 . S
C1127 C1124 1.511 . S
C1127 H1141 0.961 . S
C1127 H1142 0.961 . S
C1127 H1143 0.961 . S
C1128 C1129 1.370 . S
C1128 C1130 1.363 . S
C1128 H1144 0.931 . S
C1129 C1128 1.370 . S
C1129 C1133 1.408 . S
C1130 C1128 1.363 . S
C1130 C1131 1.370 . S
C1130 C1134 1.524 . S
C1131 C1123 1.503 . S
C1131 C1130 1.370 . S
C1131 C1132 1.403 . S
C1132 C1131 1.403 . S
C1132 C1133 1.404 . S
C1132 C1135 1.539 . S
C1133 C1129 1.408 . S
C1133 C1132 1.404 . S
C1133 H1145 0.930 . S
C1134 C1130 1.524 . S
C1134 H1146 0.956 . S
C1134 H1147 0.961 . S
C1134 H1148 0.961 . S
C1135 C1132 1.539 . S
C1135 H1149 0.958 . S
C1135 H1150 0.961 . S
C1135 H1151 0.960 . S
H1136 C1120 0.931 . S
H1137 C1125 0.929 . S
H1138 C1126 0.960 . S
H1139 C1126 0.962 . S
H1140 C1126 0.960 . S
H1141 C1127 0.961 . S
H1142 C1127 0.961 . S
H1143 C1127 0.961 . S
H1144 C1128 0.931 . S
H1145 C1133 0.930 . S
H1146 C1134 0.956 . S
H1147 C1134 0.961 . S
H1148 C1134 0.961 . S
H1149 C1135 0.958 . S
H1150 C1135 0.961 . S
H1151 C1135 0.960 . S
C1152 C1153 1.391 . S
C1152 C1154 1.394 . S
C1152 H1168 0.931 . S
C1153 C1152 1.391 . S
C1153 C1157 1.376 . S
C1154 C1152 1.394 . S
C1154 C1155 1.369 . S
C1154 C1158 1.531 . S
C1155 C1154 1.369 . S
C1155 C1156 1.410 . S
C1155 C1163 1.503 . S
C1156 C1155 1.410 . S
C1156 C1157 1.392 . S
C1156 C1159 1.511 . S
C1157 C1153 1.376 . S
C1157 C1156 1.392 . S
C1157 H1169 0.929 . S
C1158 C1154 1.531 . S
C1158 H1170 0.960 . S
C1158 H1171 0.962 . S
C1158 H1172 0.960 1_554 S
C1159 C1156 1.511 . S
C1159 H1173 0.961 . S
C1159 H1174 0.961 . S
C1159 H1175 0.961 . S
C1160 C1161 1.370 . S
C1160 C1162 1.363 . S
C1160 H1176 0.931 . S
C1161 C1160 1.370 . S
C1161 C1165 1.408 . S
C1162 C1160 1.363 . S
C1162 C1163 1.370 . S
C1162 C1166 1.524 . S
C1163 C1155 1.503 . S
C1163 C1162 1.370 . S
C1163 C1164 1.403 . S
C1164 C1163 1.403 . S
C1164 C1165 1.404 . S
C1164 C1167 1.539 1_554 S
C1165 C1161 1.408 . S
C1165 C1164 1.404 . S
C1165 H1177 0.930 . S
C1166 C1162 1.524 . S
C1166 H1178 0.956 . S
C1166 H1179 0.961 . S
C1166 H1180 0.961 . S
C1167 C1164 1.539 1_556 S
C1167 H1181 0.958 . S
C1167 H1182 0.961 . S
C1167 H1183 0.960 . S
H1168 C1152 0.931 . S
H1169 C1157 0.929 . S
H1170 C1158 0.960 . S
H1171 C1158 0.962 . S
H1172 C1158 0.960 1_556 S
H1173 C1159 0.961 . S
H1174 C1159 0.961 . S
H1175 C1159 0.961 . S
H1176 C1160 0.931 . S
H1177 C1165 0.930 . S
H1178 C1166 0.956 . S
H1179 C1166 0.961 . S
H1180 C1166 0.961 . S
H1181 C1167 0.958 . S
H1182 C1167 0.961 . S
H1183 C1167 0.960 . S
C1184 C1185 1.391 . S
C1184 C1186 1.394 . S
C1184 H1200 0.931 . S
C1185 C1184 1.391 . S
C1185 C1189 1.376 . S
C1186 C1184 1.394 . S
C1186 C1187 1.369 . S
C1186 C1190 1.531 . S
C1187 C1186 1.369 . S
C1187 C1188 1.410 . S
C1187 C1195 1.503 . S
C1188 C1187 1.410 . S
C1188 C1189 1.392 . S
C1188 C1191 1.511 . S
C1189 C1185 1.376 . S
C1189 C1188 1.392 . S
C1189 H1201 0.929 . S
C1190 C1186 1.531 . S
C1190 H1202 0.960 . S
C1190 H1203 0.962 . S
C1190 H1204 0.960 . S
C1191 C1188 1.511 . S
C1191 H1205 0.961 . S
C1191 H1206 0.961 . S
C1191 H1207 0.961 . S
C1192 C1193 1.370 . S
C1192 C1194 1.363 . S
C1192 H1208 0.931 . S
C1193 C1192 1.370 . S
C1193 C1197 1.408 . S
C1194 C1192 1.363 . S
C1194 C1195 1.370 . S
C1194 C1198 1.524 . S
C1195 C1187 1.503 . S
C1195 C1194 1.370 . S
C1195 C1196 1.403 . S
C1196 C1195 1.403 . S
C1196 C1197 1.404 . S
C1196 C1199 1.539 . S
C1197 C1193 1.408 . S
C1197 C1196 1.404 . S
C1197 H1209 0.930 . S
C1198 C1194 1.524 . S
C1198 H1210 0.956 . S
C1198 H1211 0.961 . S
C1198 H1212 0.961 . S
C1199 C1196 1.539 . S
C1199 H1213 0.958 . S
C1199 H1214 0.961 . S
C1199 H1215 0.960 . S
H1200 C1184 0.931 . S
H1201 C1189 0.929 . S
H1202 C1190 0.960 . S
H1203 C1190 0.962 . S
H1204 C1190 0.960 . S
H1205 C1191 0.961 . S
H1206 C1191 0.961 . S
H1207 C1191 0.961 . S
H1208 C1192 0.931 . S
H1209 C1197 0.930 . S
H1210 C1198 0.956 . S
H1211 C1198 0.961 . S
H1212 C1198 0.961 . S
H1213 C1199 0.958 . S
H1214 C1199 0.961 . S
H1215 C1199 0.960 . S
C1216 C1217 1.391 . S
C1216 C1218 1.394 . S
C1216 H1232 0.931 . S
C1217 C1216 1.391 . S
C1217 C1221 1.376 1_556 S
C1218 C1216 1.394 . S
C1218 C1219 1.369 . S
C1218 C1222 1.531 . S
C1219 C1218 1.369 . S
C1219 C1220 1.410 1_556 S
C1219 C1227 1.503 1_656 S
C1220 C1219 1.410 1_554 S
C1220 C1221 1.392 . S
C1220 C1223 1.511 . S
C1221 C1217 1.376 1_554 S
C1221 C1220 1.392 . S
C1221 H1233 0.929 . S
C1222 C1218 1.531 . S
C1222 H1234 0.957 . S
C1222 H1235 0.962 1_556 S
C1222 H1236 0.960 . S
C1223 C1220 1.511 . S
C1223 H1237 0.961 . S
C1223 H1238 0.961 1_655 S
C1223 H1239 0.961 1_554 S
C1224 C1225 1.370 . S
C1224 C1226 1.363 . S
C1224 H1240 0.931 . S
C1225 C1224 1.370 . S
C1225 C1229 1.408 1_554 S
C1226 C1224 1.363 . S
C1226 C1227 1.370 . S
C1226 C1230 1.524 . S
C1227 C1219 1.503 1_454 S
C1227 C1226 1.370 . S
C1227 C1228 1.403 1_554 S
C1228 C1227 1.403 1_556 S
C1228 C1229 1.404 . S
C1228 C1231 1.539 . S
C1229 C1225 1.408 1_556 S
C1229 C1228 1.404 . S
C1229 H1241 0.930 . S
C1230 C1226 1.524 . S
C1230 H1242 0.959 1_455 S
C1230 H1243 0.961 1_455 S
C1230 H1244 0.961 . S
C1231 C1228 1.539 . S
C1231 H1245 0.958 . S
C1231 H1246 0.961 . S
C1231 H1247 0.960 1_455 S
H1232 C1216 0.931 . S
H1233 C1221 0.929 . S
H1234 C1222 0.957 . S
H1235 C1222 0.962 1_554 S
H1236 C1222 0.960 . S
H1237 C1223 0.961 . S
H1238 C1223 0.961 1_455 S
H1239 C1223 0.961 1_556 S
H1240 C1224 0.931 . S
H1241 C1229 0.930 . S
H1242 C1230 0.959 1_655 S
H1243 C1230 0.961 1_655 S
H1244 C1230 0.961 . S
H1245 C1231 0.958 . S
H1246 C1231 0.961 . S
H1247 C1231 0.960 1_655 S
C1248 C1249 1.391 . S
C1248 C1250 1.394 . S
C1248 H1264 0.931 . S
C1249 C1248 1.391 . S
C1249 C1253 1.376 . S
C1250 C1248 1.394 . S
C1250 C1251 1.369 . S
C1250 C1254 1.531 . S
C1251 C1250 1.369 . S
C1251 C1252 1.410 . S
C1251 C1259 1.503 . S
C1252 C1251 1.410 . S
C1252 C1253 1.392 . S
C1252 C1255 1.511 . S
C1253 C1249 1.376 . S
C1253 C1252 1.392 . S
C1253 H1265 0.929 . S
C1254 C1250 1.531 . S
C1254 H1266 0.960 . S
C1254 H1267 0.962 . S
C1254 H1268 0.960 . S
C1255 C1252 1.511 . S
C1255 H1269 0.961 . S
C1255 H1270 0.961 . S
C1255 H1271 0.961 . S
C1256 C1257 1.370 . S
C1256 C1258 1.363 . S
C1256 H1272 0.931 . S
C1257 C1256 1.370 . S
C1257 C1261 1.408 . S
C1258 C1256 1.363 . S
C1258 C1259 1.370 . S
C1258 C1262 1.524 . S
C1259 C1251 1.503 . S
C1259 C1258 1.370 . S
C1259 C1260 1.403 . S
C1260 C1259 1.403 . S
C1260 C1261 1.404 . S
C1260 C1263 1.539 . S
C1261 C1257 1.408 . S
C1261 C1260 1.404 . S
C1261 H1273 0.930 . S
C1262 C1258 1.524 . S
C1262 H1274 0.956 . S
C1262 H1275 0.961 . S
C1262 H1276 0.961 . S
C1263 C1260 1.539 . S
C1263 H1277 0.958 . S
C1263 H1278 0.961 . S
C1263 H1279 0.960 . S
H1264 C1248 0.931 . S
H1265 C1253 0.929 . S
H1266 C1254 0.960 . S
H1267 C1254 0.962 . S
H1268 C1254 0.960 . S
H1269 C1255 0.961 . S
H1270 C1255 0.961 . S
H1271 C1255 0.961 . S
H1272 C1256 0.931 . S
H1273 C1261 0.930 . S
H1274 C1262 0.956 . S
H1275 C1262 0.961 . S
H1276 C1262 0.961 . S
H1277 C1263 0.958 . S
H1278 C1263 0.961 . S
H1279 C1263 0.960 . S
C1280 C1281 1.391 . S
C1280 C1282 1.394 . S
C1280 H1296 0.931 . S
C1281 C1280 1.391 . S
C1281 C1285 1.376 . S
C1282 C1280 1.394 . S
C1282 C1283 1.369 . S
C1282 C1286 1.531 . S
C1283 C1282 1.369 . S
C1283 C1284 1.410 . S
C1283 C1291 1.503 . S
C1284 C1283 1.410 . S
C1284 C1285 1.392 . S
C1284 C1287 1.511 . S
C1285 C1281 1.376 . S
C1285 C1284 1.392 . S
C1285 H1297 0.929 . S
C1286 C1282 1.531 . S
C1286 H1298 0.960 . S
C1286 H1299 0.962 . S
C1286 H1300 0.960 . S
C1287 C1284 1.511 . S
C1287 H1301 0.961 . S
C1287 H1302 0.961 . S
C1287 H1303 0.961 . S
C1288 C1289 1.370 . S
C1288 C1290 1.363 . S
C1288 H1304 0.931 . S
C1289 C1288 1.370 . S
C1289 C1293 1.408 . S
C1290 C1288 1.363 . S
C1290 C1291 1.370 . S
C1290 C1294 1.524 . S
C1291 C1283 1.503 . S
C1291 C1290 1.370 . S
C1291 C1292 1.403 . S
C1292 C1291 1.403 . S
C1292 C1293 1.404 . S
C1292 C1295 1.539 . S
C1293 C1289 1.408 . S
C1293 C1292 1.404 . S
C1293 H1305 0.930 . S
C1294 C1290 1.524 . S
C1294 H1306 0.956 . S
C1294 H1307 0.961 . S
C1294 H1308 0.961 . S
C1295 C1292 1.539 . S
C1295 H1309 0.958 . S
C1295 H1310 0.961 . S
C1295 H1311 0.960 . S
H1296 C1280 0.931 . S
H1297 C1285 0.929 . S
H1298 C1286 0.960 . S
H1299 C1286 0.962 . S
H1300 C1286 0.960 . S
H1301 C1287 0.961 . S
H1302 C1287 0.961 . S
H1303 C1287 0.961 . S
H1304 C1288 0.931 . S
H1305 C1293 0.930 . S
H1306 C1294 0.956 . S
H1307 C1294 0.961 . S
H1308 C1294 0.961 . S
H1309 C1295 0.958 . S
H1310 C1295 0.961 . S
H1311 C1295 0.960 . S
C1312 C1313 1.391 1_554 S
C1312 C1314 1.394 . S
C1312 H1328 0.931 . S
C1313 C1312 1.391 1_556 S
C1313 C1317 1.376 . S
C1314 C1312 1.394 . S
C1314 C1315 1.369 1_554 S
C1314 C1318 1.531 . S
C1315 C1314 1.369 1_556 S
C1315 C1316 1.410 . S
C1315 C1323 1.503 1_455 S
C1316 C1315 1.410 . S
C1316 C1317 1.392 . S
C1316 C1319 1.511 . S
C1317 C1313 1.376 . S
C1317 C1316 1.392 . S
C1317 H1329 0.929 . S
C1318 C1314 1.531 . S
C1318 H1330 0.960 1_455 S
C1318 H1331 0.962 . S
C1318 H1332 0.960 . S
C1319 C1316 1.511 . S
C1319 H1333 0.961 . S
C1319 H1334 0.961 . S
C1319 H1335 0.961 . S
C1320 C1321 1.370 . S
C1320 C1322 1.363 . S
C1320 H1336 0.931 . S
C1321 C1320 1.370 . S
C1321 C1325 1.408 . S
C1322 C1320 1.363 . S
C1322 C1323 1.370 . S
C1322 C1326 1.524 . S
C1323 C1315 1.503 1_655 S
C1323 C1322 1.370 . S
C1323 C1324 1.403 . S
C1324 C1323 1.403 . S
C1324 C1325 1.404 . S
C1324 C1327 1.539 1_556 S
C1325 C1321 1.408 . S
C1325 C1324 1.404 . S
C1325 H1337 0.930 1_556 S
C1326 C1322 1.524 . S
C1326 H1338 0.956 . S
C1326 H1339 0.961 1_655 S
C1326 H1340 0.961 . S
C1327 C1324 1.539 1_554 S
C1327 H1341 0.958 . S
C1327 H1342 0.961 . S
C1327 H1343 0.960 1_655 S
H1328 C1312 0.931 . S
H1329 C1317 0.929 . S
H1330 C1318 0.960 1_655 S
H1331 C1318 0.962 . S
H1332 C1318 0.960 . S
H1333 C1319 0.961 . S
H1334 C1319 0.961 . S
H1335 C1319 0.961 . S
H1336 C1320 0.931 . S
H1337 C1325 0.930 1_554 S
H1338 C1326 0.956 . S
H1339 C1326 0.961 1_455 S
H1340 C1326 0.961 . S
H1341 C1327 0.958 . S
H1342 C1327 0.961 . S
H1343 C1327 0.960 1_455 S
C1344 C1345 1.391 . S
C1344 C1346 1.394 . S
C1344 H1360 0.931 . S
C1345 C1344 1.391 . S
C1345 C1349 1.376 . S
C1346 C1344 1.394 . S
C1346 C1347 1.369 . S
C1346 C1350 1.531 1_554 S
C1347 C1346 1.369 . S
C1347 C1348 1.410 . S
C1347 C1355 1.503 . S
C1348 C1347 1.410 . S
C1348 C1349 1.392 . S
C1348 C1351 1.511 . S
C1349 C1345 1.376 . S
C1349 C1348 1.392 . S
C1349 H1361 0.929 . S
C1350 C1346 1.531 1_556 S
C1350 H1362 0.960 . S
C1350 H1363 0.962 1_556 S
C1350 H1364 0.960 . S
C1351 C1348 1.511 . S
C1351 H1365 0.961 . S
C1351 H1366 0.961 . S
C1351 H1367 0.961 1_554 S
C1352 C1353 1.370 1_554 S
C1352 C1354 1.363 . S
C1352 H1368 0.931 . S
C1353 C1352 1.370 1_556 S
C1353 C1357 1.408 . S
C1354 C1352 1.363 . S
C1354 C1355 1.370 . S
C1354 C1358 1.524 . S
C1355 C1347 1.503 . S
C1355 C1354 1.370 . S
C1355 C1356 1.403 1_554 S
C1356 C1355 1.403 1_556 S
C1356 C1357 1.404 . S
C1356 C1359 1.539 . S
C1357 C1353 1.408 . S
C1357 C1356 1.404 . S
C1357 H1369 0.930 . S
C1358 C1354 1.524 . S
C1358 H1370 0.956 . S
C1358 H1371 0.961 . S
C1358 H1372 0.961 . S
C1359 C1356 1.539 . S
C1359 H1373 0.958 . S
C1359 H1374 0.961 . S
C1359 H1375 0.960 . S
H1360 C1344 0.931 . S
H1361 C1349 0.929 . S
H1362 C1350 0.960 . S
H1363 C1350 0.962 1_554 S
H1364 C1350 0.960 . S
H1365 C1351 0.961 . S
H1366 C1351 0.961 . S
H1367 C1351 0.961 1_556 S
H1368 C1352 0.931 . S
H1369 C1357 0.930 . S
H1370 C1358 0.956 . S
H1371 C1358 0.961 . S
H1372 C1358 0.961 . S
H1373 C1359 0.958 . S
H1374 C1359 0.961 . S
H1375 C1359 0.960 . S
C1376 C1377 1.391 . S
C1376 C1378 1.394 . S
C1376 H1392 0.931 . S
C1377 C1376 1.391 . S
C1377 C1381 1.376 . S
C1378 C1376 1.394 . S
C1378 C1379 1.369 . S
C1378 C1382 1.531 . S
C1379 C1378 1.369 . S
C1379 C1380 1.410 . S
C1379 C1387 1.503 . S
C1380 C1379 1.410 . S
C1380 C1381 1.392 . S
C1380 C1383 1.511 . S
C1381 C1377 1.376 . S
C1381 C1380 1.392 . S
C1381 H1393 0.929 . S
C1382 C1378 1.531 . S
C1382 H1394 0.960 . S
C1382 H1395 0.962 . S
C1382 H1396 0.960 . S
C1383 C1380 1.511 . S
C1383 H1397 0.961 . S
C1383 H1398 0.961 . S
C1383 H1399 0.961 . S
C1384 C1385 1.370 . S
C1384 C1386 1.363 . S
C1384 H1400 0.931 . S
C1385 C1384 1.370 . S
C1385 C1389 1.408 . S
C1386 C1384 1.363 . S
C1386 C1387 1.370 . S
C1386 C1390 1.524 . S
C1387 C1379 1.503 . S
C1387 C1386 1.370 . S
C1387 C1388 1.403 . S
C1388 C1387 1.403 . S
C1388 C1389 1.404 . S
C1388 C1391 1.539 . S
C1389 C1385 1.408 . S
C1389 C1388 1.404 . S
C1389 H1401 0.930 . S
C1390 C1386 1.524 . S
C1390 H1402 0.956 . S
C1390 H1403 0.961 . S
C1390 H1404 0.961 . S
C1391 C1388 1.539 . S
C1391 H1405 0.958 . S
C1391 H1406 0.961 . S
C1391 H1407 0.960 . S
H1392 C1376 0.931 . S
H1393 C1381 0.929 . S
H1394 C1382 0.960 . S
H1395 C1382 0.962 . S
H1396 C1382 0.960 . S
H1397 C1383 0.961 . S
H1398 C1383 0.961 . S
H1399 C1383 0.961 . S
H1400 C1384 0.931 . S
H1401 C1389 0.930 . S
H1402 C1390 0.956 . S
H1403 C1390 0.961 . S
H1404 C1390 0.961 . S
H1405 C1391 0.958 . S
H1406 C1391 0.961 . S
H1407 C1391 0.960 . S
C1408 C1409 1.391 . S
C1408 C1410 1.394 . S
C1408 H1424 0.931 . S
C1409 C1408 1.391 . S
C1409 C1413 1.376 . S
C1410 C1408 1.394 . S
C1410 C1411 1.369 . S
C1410 C1414 1.531 . S
C1411 C1410 1.369 . S
C1411 C1412 1.410 . S
C1411 C1419 1.503 . S
C1412 C1411 1.410 . S
C1412 C1413 1.392 . S
C1412 C1415 1.511 . S
C1413 C1409 1.376 . S
C1413 C1412 1.392 . S
C1413 H1425 0.929 . S
C1414 C1410 1.531 . S
C1414 H1426 0.960 . S
C1414 H1427 0.962 . S
C1414 H1428 0.960 . S
C1415 C1412 1.511 . S
C1415 H1429 0.961 . S
C1415 H1430 0.961 . S
C1415 H1431 0.961 . S
C1416 C1417 1.370 . S
C1416 C1418 1.363 . S
C1416 H1432 0.931 . S
C1417 C1416 1.370 . S
C1417 C1421 1.408 . S
C1418 C1416 1.363 . S
C1418 C1419 1.370 . S
C1418 C1422 1.524 . S
C1419 C1411 1.503 . S
C1419 C1418 1.370 . S
C1419 C1420 1.403 . S
C1420 C1419 1.403 . S
C1420 C1421 1.404 . S
C1420 C1423 1.539 . S
C1421 C1417 1.408 . S
C1421 C1420 1.404 . S
C1421 H1433 0.930 . S
C1422 C1418 1.524 . S
C1422 H1434 0.956 . S
C1422 H1435 0.961 . S
C1422 H1436 0.961 . S
C1423 C1420 1.539 . S
C1423 H1437 0.958 . S
C1423 H1438 0.961 . S
C1423 H1439 0.960 . S
H1424 C1408 0.931 . S
H1425 C1413 0.929 . S
H1426 C1414 0.960 . S
H1427 C1414 0.962 . S
H1428 C1414 0.960 . S
H1429 C1415 0.961 . S
H1430 C1415 0.961 . S
H1431 C1415 0.961 . S
H1432 C1416 0.931 . S
H1433 C1421 0.930 . S
H1434 C1422 0.956 . S
H1435 C1422 0.961 . S
H1436 C1422 0.961 . S
H1437 C1423 0.958 . S
H1438 C1423 0.961 . S
H1439 C1423 0.960 . S
C1440 C1441 1.391 . S
C1440 C1442 1.394 . S
C1440 H1456 0.931 . S
C1441 C1440 1.391 . S
C1441 C1445 1.376 . S
C1442 C1440 1.394 . S
C1442 C1443 1.369 . S
C1442 C1446 1.531 . S
C1443 C1442 1.369 . S
C1443 C1444 1.410 . S
C1443 C1451 1.503 . S
C1444 C1443 1.410 . S
C1444 C1445 1.392 . S
C1444 C1447 1.511 . S
C1445 C1441 1.376 . S
C1445 C1444 1.392 . S
C1445 H1457 0.929 . S
C1446 C1442 1.531 . S
C1446 H1458 0.960 . S
C1446 H1459 0.962 . S
C1446 H1460 0.960 . S
C1447 C1444 1.511 . S
C1447 H1461 0.961 . S
C1447 H1462 0.961 . S
C1447 H1463 0.961 . S
C1448 C1449 1.370 . S
C1448 C1450 1.363 . S
C1448 H1464 0.931 . S
C1449 C1448 1.370 . S
C1449 C1453 1.408 . S
C1450 C1448 1.363 . S
C1450 C1451 1.370 . S
C1450 C1454 1.524 . S
C1451 C1443 1.503 . S
C1451 C1450 1.370 . S
C1451 C1452 1.403 . S
C1452 C1451 1.403 . S
C1452 C1453 1.404 . S
C1452 C1455 1.539 . S
C1453 C1449 1.408 . S
C1453 C1452 1.404 . S
C1453 H1465 0.930 . S
C1454 C1450 1.524 . S
C1454 H1466 0.956 . S
C1454 H1467 0.961 . S
C1454 H1468 0.961 . S
C1455 C1452 1.539 . S
C1455 H1469 0.958 1_556 S
C1455 H1470 0.961 . S
C1455 H1471 0.960 . S
H1456 C1440 0.931 . S
H1457 C1445 0.929 . S
H1458 C1446 0.960 . S
H1459 C1446 0.962 . S
H1460 C1446 0.960 . S
H1461 C1447 0.961 . S
H1462 C1447 0.961 . S
H1463 C1447 0.961 . S
H1464 C1448 0.931 . S
H1465 C1453 0.930 . S
H1466 C1454 0.956 . S
H1467 C1454 0.961 . S
H1468 C1454 0.961 . S
H1469 C1455 0.958 1_554 S
H1470 C1455 0.961 . S
H1471 C1455 0.960 . S
C1472 C1473 1.391 . S
C1472 C1474 1.394 . S
C1472 H1488 0.931 . S
C1473 C1472 1.391 . S
C1473 C1477 1.376 . S
C1474 C1472 1.394 . S
C1474 C1475 1.369 . S
C1474 C1478 1.531 . S
C1475 C1474 1.369 . S
C1475 C1476 1.410 . S
C1475 C1483 1.503 . S
C1476 C1475 1.410 . S
C1476 C1477 1.392 . S
C1476 C1479 1.511 . S
C1477 C1473 1.376 . S
C1477 C1476 1.392 . S
C1477 H1489 0.929 1_556 S
C1478 C1474 1.531 . S
C1478 H1490 0.960 . S
C1478 H1491 0.962 . S
C1478 H1492 0.960 . S
C1479 C1476 1.511 . S
C1479 H1493 0.961 1_556 S
C1479 H1494 0.961 1_556 S
C1479 H1495 0.961 . S
C1480 C1481 1.370 . S
C1480 C1482 1.363 . S
C1480 H1496 0.931 1_556 S
C1481 C1480 1.370 . S
C1481 C1485 1.408 . S
C1482 C1480 1.363 . S
C1482 C1483 1.370 . S
C1482 C1486 1.524 1_556 S
C1483 C1475 1.503 . S
C1483 C1482 1.370 . S
C1483 C1484 1.403 . S
C1484 C1483 1.403 . S
C1484 C1485 1.404 . S
C1484 C1487 1.539 . S
C1485 C1481 1.408 . S
C1485 C1484 1.404 . S
C1485 H1497 0.930 . S
C1486 C1482 1.524 1_554 S
C1486 H1498 0.956 . S
C1486 H1499 0.961 . S
C1486 H1500 0.961 . S
C1487 C1484 1.539 . S
C1487 H1501 0.958 . S
C1487 H1502 0.961 . S
C1487 H1503 0.960 . S
H1488 C1472 0.931 . S
H1489 C1477 0.929 1_554 S
H1490 C1478 0.960 . S
H1491 C1478 0.962 . S
H1492 C1478 0.960 . S
H1493 C1479 0.961 1_554 S
H1494 C1479 0.961 1_554 S
H1495 C1479 0.961 . S
H1496 C1480 0.931 1_554 S
H1497 C1485 0.930 . S
H1498 C1486 0.956 . S
H1499 C1486 0.961 . S
H1500 C1486 0.961 . S
H1501 C1487 0.958 . S
H1502 C1487 0.961 . S
H1503 C1487 0.960 . S
C1504 C1505 1.391 . S
C1504 C1506 1.394 . S
C1504 H1520 0.931 . S
C1505 C1504 1.391 . S
C1505 C1509 1.376 . S
C1506 C1504 1.394 . S
C1506 C1507 1.369 . S
C1506 C1510 1.531 . S
C1507 C1506 1.369 . S
C1507 C1508 1.410 . S
C1507 C1515 1.503 . S
C1508 C1507 1.410 . S
C1508 C1509 1.392 . S
C1508 C1511 1.511 . S
C1509 C1505 1.376 . S
C1509 C1508 1.392 . S
C1509 H1521 0.929 . S
C1510 C1506 1.531 . S
C1510 H1522 0.960 . S
C1510 H1523 0.962 . S
C1510 H1524 0.960 . S
C1511 C1508 1.511 . S
C1511 H1525 0.961 . S
C1511 H1526 0.961 . S
C1511 H1527 0.961 . S
C1512 C1513 1.370 . S
C1512 C1514 1.363 . S
C1512 H1528 0.931 . S
C1513 C1512 1.370 . S
C1513 C1517 1.408 . S
C1514 C1512 1.363 . S
C1514 C1515 1.370 . S
C1514 C1518 1.524 . S
C1515 C1507 1.503 . S
C1515 C1514 1.370 . S
C1515 C1516 1.403 . S
C1516 C1515 1.403 . S
C1516 C1517 1.404 . S
C1516 C1519 1.539 . S
C1517 C1513 1.408 . S
C1517 C1516 1.404 . S
C1517 H1529 0.930 . S
C1518 C1514 1.524 . S
C1518 H1530 0.956 . S
C1518 H1531 0.961 . S
C1518 H1532 0.961 . S
C1519 C1516 1.539 . S
C1519 H1533 0.958 . S
C1519 H1534 0.961 . S
C1519 H1535 0.960 . S
H1520 C1504 0.931 . S
H1521 C1509 0.929 . S
H1522 C1510 0.960 . S
H1523 C1510 0.962 . S
H1524 C1510 0.960 . S
H1525 C1511 0.961 . S
H1526 C1511 0.961 . S
H1527 C1511 0.961 . S
H1528 C1512 0.931 . S
H1529 C1517 0.930 . S
H1530 C1518 0.956 . S
H1531 C1518 0.961 . S
H1532 C1518 0.961 . S
H1533 C1519 0.958 . S
H1534 C1519 0.961 . S
H1535 C1519 0.960 . S
C1536 C1537 1.391 . S
C1536 C1538 1.394 . S
C1536 H1552 0.931 . S
C1537 C1536 1.391 . S
C1537 C1541 1.376 . S
C1538 C1536 1.394 . S
C1538 C1539 1.369 . S
C1538 C1542 1.531 . S
C1539 C1538 1.369 . S
C1539 C1540 1.410 . S
C1539 C1547 1.503 . S
C1540 C1539 1.410 . S
C1540 C1541 1.392 . S
C1540 C1543 1.511 . S
C1541 C1537 1.376 . S
C1541 C1540 1.392 . S
C1541 H1553 0.929 . S
C1542 C1538 1.531 . S
C1542 H1554 0.960 . S
C1542 H1555 0.962 . S
C1542 H1556 0.960 . S
C1543 C1540 1.511 . S
C1543 H1557 0.961 . S
C1543 H1558 0.961 . S
C1543 H1559 0.961 . S
C1544 C1545 1.370 . S
C1544 C1546 1.363 . S
C1544 H1560 0.931 . S
C1545 C1544 1.370 . S
C1545 C1549 1.408 . S
C1546 C1544 1.363 . S
C1546 C1547 1.370 . S
C1546 C1550 1.524 . S
C1547 C1539 1.503 . S
C1547 C1546 1.370 . S
C1547 C1548 1.403 . S
C1548 C1547 1.403 . S
C1548 C1549 1.404 . S
C1548 C1551 1.539 . S
C1549 C1545 1.408 . S
C1549 C1548 1.404 . S
C1549 H1561 0.930 . S
C1550 C1546 1.524 . S
C1550 H1562 0.956 . S
C1550 H1563 0.961 . S
C1550 H1564 0.961 . S
C1551 C1548 1.539 . S
C1551 H1565 0.958 . S
C1551 H1566 0.961 . S
C1551 H1567 0.960 . S
H1552 C1536 0.931 . S
H1553 C1541 0.929 . S
H1554 C1542 0.960 . S
H1555 C1542 0.962 . S
H1556 C1542 0.960 . S
H1557 C1543 0.961 . S
H1558 C1543 0.961 . S
H1559 C1543 0.961 . S
H1560 C1544 0.931 . S
H1561 C1549 0.930 . S
H1562 C1550 0.956 . S
H1563 C1550 0.961 . S
H1564 C1550 0.961 . S
H1565 C1551 0.958 . S
H1566 C1551 0.961 . S
H1567 C1551 0.960 . S
C1568 C1569 1.391 . S
C1568 C1570 1.394 . S
C1568 H1584 0.931 . S
C1569 C1568 1.391 . S
C1569 C1573 1.376 . S
C1570 C1568 1.394 . S
C1570 C1571 1.369 . S
C1570 C1574 1.531 . S
C1571 C1570 1.369 . S
C1571 C1572 1.410 . S
C1571 C1579 1.503 . S
C1572 C1571 1.410 . S
C1572 C1573 1.392 . S
C1572 C1575 1.511 . S
C1573 C1569 1.376 . S
C1573 C1572 1.392 . S
C1573 H1585 0.929 . S
C1574 C1570 1.531 . S
C1574 H1586 0.960 . S
C1574 H1587 0.962 . S
C1574 H1588 0.960 . S
C1575 C1572 1.511 . S
C1575 H1589 0.961 . S
C1575 H1590 0.961 . S
C1575 H1591 0.961 . S
C1576 C1577 1.370 . S
C1576 C1578 1.363 . S
C1576 H1592 0.931 . S
C1577 C1576 1.370 . S
C1577 C1581 1.408 . S
C1578 C1576 1.363 . S
C1578 C1579 1.370 . S
C1578 C1582 1.524 . S
C1579 C1571 1.503 . S
C1579 C1578 1.370 . S
C1579 C1580 1.403 . S
C1580 C1579 1.403 . S
C1580 C1581 1.404 . S
C1580 C1583 1.539 . S
C1581 C1577 1.408 . S
C1581 C1580 1.404 . S
C1581 H1593 0.930 . S
C1582 C1578 1.524 . S
C1582 H1594 0.956 . S
C1582 H1595 0.961 . S
C1582 H1596 0.961 . S
C1583 C1580 1.539 . S
C1583 H1597 0.958 . S
C1583 H1598 0.961 . S
C1583 H1599 0.960 . S
H1584 C1568 0.931 . S
H1585 C1573 0.929 . S
H1586 C1574 0.960 . S
H1587 C1574 0.962 . S
H1588 C1574 0.960 . S
H1589 C1575 0.961 . S
H1590 C1575 0.961 . S
H1591 C1575 0.961 . S
H1592 C1576 0.931 . S
H1593 C1581 0.930 . S
H1594 C1582 0.956 . S
H1595 C1582 0.961 . S
H1596 C1582 0.961 . S
H1597 C1583 0.958 . S
H1598 C1583 0.961 . S
H1599 C1583 0.960 . S
C1600 C1601 1.391 . S
C1600 C1602 1.394 . S
C1600 H1616 0.931 . S
C1601 C1600 1.391 . S
C1601 C1605 1.376 . S
C1602 C1600 1.394 . S
C1602 C1603 1.369 . S
C1602 C1606 1.531 . S
C1603 C1602 1.369 . S
C1603 C1604 1.410 . S
C1603 C1611 1.503 1_565 S
C1604 C1603 1.410 . S
C1604 C1605 1.392 . S
C1604 C1607 1.511 . S
C1605 C1601 1.376 . S
C1605 C1604 1.392 . S
C1605 H1617 0.929 . S
C1606 C1602 1.531 . S
C1606 H1618 0.960 . S
C1606 H1619 0.962 . S
C1606 H1620 0.960 . S
C1607 C1604 1.511 . S
C1607 H1621 0.961 . S
C1607 H1622 0.961 1_565 S
C1607 H1623 0.961 . S
C1608 C1609 1.370 . S
C1608 C1610 1.363 . S
C1608 H1624 0.931 . S
C1609 C1608 1.370 . S
C1609 C1613 1.408 . S
C1610 C1608 1.363 . S
C1610 C1611 1.370 . S
C1610 C1614 1.524 . S
C1611 C1603 1.503 1_545 S
C1611 C1610 1.370 . S
C1611 C1612 1.403 . S
C1612 C1611 1.403 . S
C1612 C1613 1.404 . S
C1612 C1615 1.539 . S
C1613 C1609 1.408 . S
C1613 C1612 1.404 . S
C1613 H1625 0.930 . S
C1614 C1610 1.524 . S
C1614 H1626 0.956 1_545 S
C1614 H1627 0.961 1_545 S
C1614 H1628 0.961 . S
C1615 C1612 1.539 . S
C1615 H1629 0.958 . S
C1615 H1630 0.961 . S
C1615 H1631 0.944 1_545 S
H1616 C1600 0.931 . S
H1617 C1605 0.929 . S
H1618 C1606 0.960 . S
H1619 C1606 0.962 . S
H1620 C1606 0.960 . S
H1621 C1607 0.961 . S
H1622 C1607 0.961 1_545 S
H1623 C1607 0.961 . S
H1624 C1608 0.931 . S
H1625 C1613 0.930 . S
H1626 C1614 0.956 1_565 S
H1627 C1614 0.961 1_565 S
H1628 C1614 0.961 . S
H1629 C1615 0.958 . S
H1630 C1615 0.961 . S
H1631 C1615 0.944 1_565 S
C1632 C1633 1.391 . S
C1632 C1634 1.394 . S
C1632 H1648 0.931 . S
C1633 C1632 1.391 . S
C1633 C1637 1.376 . S
C1634 C1632 1.394 . S
C1634 C1635 1.369 . S
C1634 C1638 1.531 . S
C1635 C1634 1.369 . S
C1635 C1636 1.410 . S
C1635 C1643 1.503 . S
C1636 C1635 1.410 . S
C1636 C1637 1.392 . S
C1636 C1639 1.511 . S
C1637 C1633 1.376 . S
C1637 C1636 1.392 . S
C1637 H1649 0.929 . S
C1638 C1634 1.531 . S
C1638 H1650 0.960 . S
C1638 H1651 0.962 . S
C1638 H1652 0.960 . S
C1639 C1636 1.511 . S
C1639 H1653 0.961 . S
C1639 H1654 0.961 . S
C1639 H1655 0.961 . S
C1640 C1641 1.370 . S
C1640 C1642 1.363 . S
C1640 H1656 0.931 . S
C1641 C1640 1.370 . S
C1641 C1645 1.408 . S
C1642 C1640 1.363 . S
C1642 C1643 1.370 . S
C1642 C1646 1.524 . S
C1643 C1635 1.503 . S
C1643 C1642 1.370 . S
C1643 C1644 1.403 . S
C1644 C1643 1.403 . S
C1644 C1645 1.404 . S
C1644 C1647 1.539 . S
C1645 C1641 1.408 . S
C1645 C1644 1.404 . S
C1645 H1657 0.930 . S
C1646 C1642 1.524 . S
C1646 H1658 0.956 . S
C1646 H1659 0.961 . S
C1646 H1660 0.961 . S
C1647 C1644 1.539 . S
C1647 H1661 0.958 . S
C1647 H1662 0.961 . S
C1647 H1663 0.960 . S
H1648 C1632 0.931 . S
H1649 C1637 0.929 . S
H1650 C1638 0.960 . S
H1651 C1638 0.962 . S
H1652 C1638 0.960 . S
H1653 C1639 0.961 . S
H1654 C1639 0.961 . S
H1655 C1639 0.961 . S
H1656 C1640 0.931 . S
H1657 C1645 0.930 . S
H1658 C1646 0.956 . S
H1659 C1646 0.961 . S
H1660 C1646 0.961 . S
H1661 C1647 0.958 . S
H1662 C1647 0.961 . S
H1663 C1647 0.960 . S
C1664 C1665 1.391 . S
C1664 C1666 1.394 . S
C1664 H1680 0.931 . S
C1665 C1664 1.391 . S
C1665 C1669 1.376 . S
C1666 C1664 1.394 . S
C1666 C1667 1.369 . S
C1666 C1670 1.531 . S
C1667 C1666 1.369 . S
C1667 C1668 1.410 1_554 S
C1667 C1675 1.541 . S
C1668 C1667 1.410 1_556 S
C1668 C1669 1.392 1_556 S
C1668 C1671 1.511 . S
C1669 C1665 1.376 . S
C1669 C1668 1.392 1_554 S
C1669 H1681 0.929 1_554 S
C1670 C1666 1.531 . S
C1670 H1682 0.960 . S
C1670 H1683 0.962 . S
C1670 H1684 0.960 . S
C1671 C1668 1.511 . S
C1671 H1685 0.961 . S
C1671 H1686 0.961 . S
C1671 H1687 0.961 . S
C1672 C1673 1.370 . S
C1672 C1674 1.363 . S
C1672 H1688 0.931 . S
C1673 C1672 1.370 . S
C1673 C1677 1.408 1_554 S
C1674 C1672 1.363 . S
C1674 C1675 1.351 1_545 S
C1674 C1678 1.531 . S
C1675 C1667 1.541 . S
C1675 C1674 1.351 1_565 S
C1675 C1676 1.385 1_565 S
C1676 C1675 1.385 1_545 S
C1676 C1677 1.404 1_554 S
C1676 C1679 1.539 1_544 S
C1677 C1673 1.408 1_556 S
C1677 C1676 1.404 1_556 S
C1677 H1689 0.930 . S
C1678 C1674 1.531 . S
C1678 H1690 0.950 1_545 S
C1678 H1691 0.950 1_545 S
C1678 H1692 0.970 . S
C1679 C1676 1.539 1_566 S
C1679 H1693 0.958 1_556 S
C1679 H1694 0.961 1_565 S
C1679 H1695 0.960 . S
H1680 C1664 0.931 . S
H1681 C1669 0.929 1_556 S
H1682 C1670 0.960 . S
H1683 C1670 0.962 . S
H1684 C1670 0.960 . S
H1685 C1671 0.961 . S
H1686 C1671 0.961 . S
H1687 C1671 0.961 . S
H1688 C1672 0.931 . S
H1689 C1677 0.930 . S
H1690 C1678 0.950 1_565 S
H1691 C1678 0.950 1_565 S
H1692 C1678 0.970 . S
H1693 C1679 0.958 1_554 S
H1694 C1679 0.961 1_545 S
H1695 C1679 0.960 . S
C1696 C1697 1.391 . S
C1696 C1698 1.394 . S
C1696 H1712 0.931 . S
C1697 C1696 1.391 . S
C1697 C1701 1.376 . S
C1698 C1696 1.394 . S
C1698 C1699 1.369 . S
C1698 C1702 1.531 . S
C1699 C1698 1.369 . S
C1699 C1700 1.410 . S
C1699 C1707 1.503 . S
C1700 C1699 1.410 . S
C1700 C1701 1.392 . S
C1700 C1703 1.511 . S
C1701 C1697 1.376 . S
C1701 C1700 1.392 . S
C1701 H1713 0.929 . S
C1702 C1698 1.531 . S
C1702 H1714 0.960 . S
C1702 H1715 0.962 . S
C1702 H1716 0.960 . S
C1703 C1700 1.511 . S
C1703 H1717 0.961 . S
C1703 H1718 0.961 . S
C1703 H1719 0.961 . S
C1704 C1705 1.370 . S
C1704 C1706 1.363 . S
C1704 H1720 0.931 . S
C1705 C1704 1.370 . S
C1705 C1709 1.408 . S
C1706 C1704 1.363 . S
C1706 C1707 1.370 . S
C1706 C1710 1.524 . S
C1707 C1699 1.503 . S
C1707 C1706 1.370 . S
C1707 C1708 1.403 . S
C1708 C1707 1.403 . S
C1708 C1709 1.404 . S
C1708 C1711 1.539 . S
C1709 C1705 1.408 . S
C1709 C1708 1.404 . S
C1709 H1721 0.930 . S
C1710 C1706 1.524 . S
C1710 H1722 0.956 . S
C1710 H1723 0.961 . S
C1710 H1724 0.961 . S
C1711 C1708 1.539 . S
C1711 H1725 0.958 . S
C1711 H1726 0.961 . S
C1711 H1727 0.960 . S
H1712 C1696 0.931 . S
H1713 C1701 0.929 . S
H1714 C1702 0.960 . S
H1715 C1702 0.962 . S
H1716 C1702 0.960 . S
H1717 C1703 0.961 . S
H1718 C1703 0.961 . S
H1719 C1703 0.961 . S
H1720 C1704 0.931 . S
H1721 C1709 0.930 . S
H1722 C1710 0.956 . S
H1723 C1710 0.961 . S
H1724 C1710 0.961 . S
H1725 C1711 0.958 . S
H1726 C1711 0.961 . S
H1727 C1711 0.960 . S
C1728 C1729 1.391 . S
C1728 C1730 1.394 . S
C1728 H1744 0.931 . S
C1729 C1728 1.391 . S
C1729 C1733 1.376 . S
C1730 C1728 1.394 . S
C1730 C1731 1.369 1_565 S
C1730 C1734 1.531 1_565 S
C1731 C1730 1.369 1_545 S
C1731 C1732 1.410 1_545 S
C1731 C1739 1.503 . S
C1732 C1731 1.410 1_565 S
C1732 C1733 1.392 . S
C1732 C1735 1.511 1_565 S
C1733 C1729 1.376 . S
C1733 C1732 1.392 . S
C1733 H1745 0.929 . S
C1734 C1730 1.531 1_545 S
C1734 H1746 0.960 . S
C1734 H1747 0.962 . S
C1734 H1748 0.962 . S
C1735 C1732 1.511 1_545 S
C1735 H1749 0.961 1_545 S
C1735 H1750 0.961 . S
C1735 H1751 0.961 . S
C1736 C1737 1.370 . S
C1736 C1738 1.363 . S
C1736 H1752 0.931 . S
C1737 C1736 1.370 . S
C1737 C1741 1.408 . S
C1738 C1736 1.363 . S
C1738 C1739 1.370 . S
C1738 C1742 1.524 . S
C1739 C1731 1.503 . S
C1739 C1738 1.370 . S
C1739 C1740 1.403 . S
C1740 C1739 1.403 . S
C1740 C1741 1.404 . S
C1740 C1743 1.539 . S
C1741 C1737 1.408 . S
C1741 C1740 1.404 . S
C1741 H1753 0.930 . S
C1742 C1738 1.524 . S
C1742 H1754 0.956 . S
C1742 H1755 0.961 . S
C1742 H1756 0.961 . S
C1743 C1740 1.539 . S
C1743 H1757 0.958 . S
C1743 H1758 0.961 . S
C1743 H1759 0.960 . S
H1744 C1728 0.931 . S
H1745 C1733 0.929 . S
H1746 C1734 0.960 . S
H1747 C1734 0.962 . S
H1748 C1734 0.962 . S
H1749 C1735 0.961 1_565 S
H1750 C1735 0.961 . S
H1751 C1735 0.961 . S
H1752 C1736 0.931 . S
H1753 C1741 0.930 . S
H1754 C1742 0.956 . S
H1755 C1742 0.961 . S
H1756 C1742 0.961 . S
H1757 C1743 0.958 . S
H1758 C1743 0.961 . S
H1759 C1743 0.960 . S
C1760 C1761 1.391 . S
C1760 C1762 1.394 . S
C1760 H1776 0.931 . S
C1761 C1760 1.391 . S
C1761 C1765 1.376 . S
C1762 C1760 1.394 . S
C1762 C1763 1.369 . S
C1762 C1766 1.531 . S
C1763 C1762 1.369 . S
C1763 C1764 1.410 . S
C1763 C1771 1.503 . S
C1764 C1763 1.410 . S
C1764 C1765 1.392 . S
C1764 C1767 1.511 . S
C1765 C1761 1.376 . S
C1765 C1764 1.392 . S
C1765 H1777 0.929 . S
C1766 C1762 1.531 . S
C1766 H1778 0.960 . S
C1766 H1779 0.962 . S
C1766 H1780 0.960 . S
C1767 C1764 1.511 . S
C1767 H1781 0.961 1_554 S
C1767 H1782 0.961 . S
C1767 H1783 0.961 1_554 S
C1768 C1769 1.370 . S
C1768 C1770 1.363 . S
C1768 H1784 0.931 . S
C1769 C1768 1.370 . S
C1769 C1773 1.408 . S
C1770 C1768 1.363 . S
C1770 C1771 1.370 . S
C1770 C1774 1.524 . S
C1771 C1763 1.503 . S
C1771 C1770 1.370 . S
C1771 C1772 1.403 . S
C1772 C1771 1.403 . S
C1772 C1773 1.404 . S
C1772 C1775 1.539 . S
C1773 C1769 1.408 . S
C1773 C1772 1.404 . S
C1773 H1785 0.930 . S
C1774 C1770 1.524 . S
C1774 H1786 0.956 . S
C1774 H1787 0.961 . S
C1774 H1788 0.961 . S
C1775 C1772 1.539 . S
C1775 H1789 0.958 . S
C1775 H1790 0.961 . S
C1775 H1791 0.960 . S
H1776 C1760 0.931 . S
H1777 C1765 0.929 . S
H1778 C1766 0.960 . S
H1779 C1766 0.962 . S
H1780 C1766 0.960 . S
H1781 C1767 0.961 1_556 S
H1782 C1767 0.961 . S
H1783 C1767 0.961 1_556 S
H1784 C1768 0.931 . S
H1785 C1773 0.930 . S
H1786 C1774 0.956 . S
H1787 C1774 0.961 . S
H1788 C1774 0.961 . S
H1789 C1775 0.958 . S
H1790 C1775 0.961 . S
H1791 C1775 0.960 . S
C1792 C1793 1.391 . S
C1792 C1794 1.394 . S
C1792 H1808 0.931 . S
C1793 C1792 1.391 . S
C1793 C1797 1.376 1_554 S
C1794 C1792 1.394 . S
C1794 C1795 1.369 . S
C1794 C1798 1.531 . S
C1795 C1794 1.369 . S
C1795 C1796 1.410 . S
C1795 C1803 1.503 1_545 S
C1796 C1795 1.410 . S
C1796 C1797 1.392 1_554 S
C1796 C1799 1.511 . S
C1797 C1793 1.376 1_556 S
C1797 C1796 1.392 1_556 S
C1797 H1809 0.929 . S
C1798 C1794 1.531 . S
C1798 H1810 0.960 . S
C1798 H1811 0.962 . S
C1798 H1812 0.960 . S
C1799 C1796 1.511 . S
C1799 H1813 0.961 1_554 S
C1799 H1814 0.961 1_544 S
C1799 H1815 0.961 . S
C1800 C1801 1.370 1_556 S
C1800 C1802 1.363 . S
C1800 H1816 0.931 . S
C1801 C1800 1.370 1_554 S
C1801 C1805 1.408 . S
C1802 C1800 1.363 . S
C1802 C1803 1.370 1_556 S
C1802 C1806 1.524 . S
C1803 C1795 1.503 1_565 S
C1803 C1802 1.370 1_554 S
C1803 C1804 1.403 . S
C1804 C1803 1.403 . S
C1804 C1805 1.404 . S
C1804 C1807 1.539 . S
C1805 C1801 1.408 . S
C1805 C1804 1.404 . S
C1805 H1817 0.930 . S
C1806 C1802 1.524 . S
C1806 H1818 0.956 . S
C1806 H1819 0.961 . S
C1806 H1820 0.961 . S
C1807 C1804 1.539 . S
C1807 H1821 0.962 . S
C1807 H1822 0.961 . S
C1807 H1823 0.960 1_565 S
H1808 C1792 0.931 . S
H1809 C1797 0.929 . S
H1810 C1798 0.960 . S
H1811 C1798 0.962 . S
H1812 C1798 0.960 . S
H1813 C1799 0.961 1_556 S
H1814 C1799 0.961 1_566 S
H1815 C1799 0.961 . S
H1816 C1800 0.931 . S
H1817 C1805 0.930 . S
H1818 C1806 0.956 . S
H1819 C1806 0.961 . S
H1820 C1806 0.961 . S
H1821 C1807 0.962 . S
H1822 C1807 0.961 . S
H1823 C1807 0.960 1_545 S
C1824 C1825 1.391 . S
C1824 C1826 1.394 . S
C1824 H1840 0.931 . S
C1825 C1824 1.391 . S
C1825 C1829 1.376 . S
C1826 C1824 1.394 . S
C1826 C1827 1.369 . S
C1826 C1830 1.531 . S
C1827 C1826 1.369 . S
C1827 C1828 1.410 . S
C1827 C1835 1.503 . S
C1828 C1827 1.410 . S
C1828 C1829 1.392 . S
C1828 C1831 1.511 . S
C1829 C1825 1.376 . S
C1829 C1828 1.392 . S
C1829 H1841 0.929 . S
C1830 C1826 1.531 . S
C1830 H1842 0.960 . S
C1830 H1843 0.962 . S
C1830 H1844 0.960 . S
C1831 C1828 1.511 . S
C1831 H1845 0.961 . S
C1831 H1846 0.961 . S
C1831 H1847 0.961 . S
C1832 C1833 1.370 . S
C1832 C1834 1.363 . S
C1832 H1848 0.931 . S
C1833 C1832 1.370 . S
C1833 C1837 1.408 . S
C1834 C1832 1.363 . S
C1834 C1835 1.370 . S
C1834 C1838 1.524 . S
C1835 C1827 1.503 . S
C1835 C1834 1.370 . S
C1835 C1836 1.403 . S
C1836 C1835 1.403 . S
C1836 C1837 1.404 . S
C1836 C1839 1.539 . S
C1837 C1833 1.408 . S
C1837 C1836 1.404 . S
C1837 H1849 0.930 . S
C1838 C1834 1.524 . S
C1838 H1850 0.956 . S
C1838 H1851 0.961 . S
C1838 H1852 0.961 . S
C1839 C1836 1.539 . S
C1839 H1853 0.958 . S
C1839 H1854 0.961 . S
C1839 H1855 0.960 . S
H1840 C1824 0.931 . S
H1841 C1829 0.929 . S
H1842 C1830 0.960 . S
H1843 C1830 0.962 . S
H1844 C1830 0.960 . S
H1845 C1831 0.961 . S
H1846 C1831 0.961 . S
H1847 C1831 0.961 . S
H1848 C1832 0.931 . S
H1849 C1837 0.930 . S
H1850 C1838 0.956 . S
H1851 C1838 0.961 . S
H1852 C1838 0.961 . S
H1853 C1839 0.958 . S
H1854 C1839 0.961 . S
H1855 C1839 0.960 . S
C321 C8 1.708 . S
C329 C19 1.758 . S
C353 C39 1.699 . S
C361 C28 1.727 . S
C385 C48 1.732 . S
C393 C59 1.681 . S
C417 C68 1.754 . S
C425 C79 1.702 . S
C449 C88 1.687 . S
C457 C99 1.733 . S
C481 C108 1.741 . S
C489 C119 1.695 . S
C513 C139 1.678 . S
C521 C128 1.739 . S
C545 C159 1.803 . S
C553 C148 1.754 . S
C577 C179 1.748 . S
C585 C168 1.751 . S
C609 C199 1.735 . S
C617 C188 1.712 . S
C641 C208 1.667 . S
C649 C219 1.713 . S
C673 C239 1.675 . S
C681 C228 1.737 . S
C705 C259 1.723 . S
C713 C248 1.722 . S
C737 C279 1.749 . S
C745 C268 1.696 . S
C769 C288 1.700 . S
C777 C299 1.725 . S
C801 C319 1.722 . S
C809 C308 1.778 . S
C833 C1 1.544 . S
C841 C226 1.447 . S
C865 C36 1.757 . S
C873 C309 1.899 . S
C897 C41 1.637 . S
C905 C189 1.592 . S
C929 C61 1.956 . S
C937 C269 1.998 . S
C961 C81 1.560 . S
C969 C266 1.445 . S
C993 C229 1.908 . S
C1001 C116 1.791 . S
C1025 C136 1.393 . S
C1033 C306 1.356 . S
C1057 C156 1.644 . S
C1065 C186 1.735 . S
C1089 C76 1.728 . S
C1097 C169 1.775 . S
C1121 C21 1.906 . S
C1129 C209 1.900 . S
C1153 C249 1.773 . S
C1161 C101 1.766 . S
C1185 C141 1.642 . S
C1193 C286 1.607 . S
C1217 C166 1.453 . S
C1225 C96 1.475 . S
C1249 C121 1.601 . S
C1257 C206 1.540 . S
C1281 C56 1.671 . S
C1289 C289 1.695 . S
C1313 C16 1.616 1_556 S
C1321 C246 1.596 . S
C1345 C9 1.331 . S
C1353 C89 1.305 . S
C1377 C26 1.680 . S
C1385 C106 1.663 . S
C1409 C49 1.375 . S
C1417 C126 1.375 . S
C1441 C69 1.664 . S
C1449 C146 1.645 . S
C1473 C241 1.653 . S
C1481 C161 1.636 . S
C1505 C261 1.734 . S
C1513 C196 1.711 . S
C1537 C201 1.710 . S
C1545 C296 1.634 . S
C1569 C301 1.690 . S
C1577 C221 1.685 . S
C1601 C29 1.669 . S
C1609 C149 1.705 . S
C1633 C86 1.398 . S
C1641 C46 1.376 . S
C1665 C109 1.764 . S
C1673 C66 1.704 1_554 S
C1697 C6 1.346 . S
C1705 C129 1.378 . S
C1729 C316 1.307 . S
C1737 C181 1.380 . S
C1761 C256 1.454 . S
C1769 C216 1.460 . S
C1793 C276 1.418 1_554 S
C1801 C236 1.377 . S
C1825 C281 1.449 . S
C1833 C176 1.392 . S
