# Generated by pormake.
# Topology vme, (6)-cn, num edge types: 1
# Building blocks:
#     Node 0, Type 0, BuildingBlock: IZENUY_clean_sbu_0, # of connection points: 6
#     Node 1, Type 0, BuildingBlock: IZENUY_clean_sbu_0, # of connection points: 6
#     Node 2, Type 0, BuildingBlock: IZENUY_clean_sbu_0, # of connection points: 6
#     Node 3, Type 0, BuildingBlock: IZENUY_clean_sbu_0, # of connection points: 6
#     Edge 4, Type (0, 0), BuildingBlock: FUNLAD_clean_linker_1, # of connection points: 2
#     Edge 5, Type (0, 0), BuildingBlock: FUNLAD_clean_linker_1, # of connection points: 2
#     Edge 6, Type (0, 0), BuildingBlock: FUNLAD_clean_linker_1, # of connection points: 2
#     Edge 7, Type (0, 0), BuildingBlock: FUNLAD_clean_linker_1, # of connection points: 2
#     Edge 8, Type (0, 0), BuildingBlock: FUNLAD_clean_linker_1, # of connection points: 2
#     Edge 9, Type (0, 0), BuildingBlock: FUNLAD_clean_linker_1, # of connection points: 2
#     Edge 10, Type (0, 0), BuildingBlock: FUNLAD_clean_linker_1, # of connection points: 2
#     Edge 11, Type (0, 0), BuildingBlock: FUNLAD_clean_linker_1, # of connection points: 2
#     Edge 12, Type (0, 0), BuildingBlock: FUNLAD_clean_linker_1, # of connection points: 2
#     Edge 13, Type (0, 0), BuildingBlock: FUNLAD_clean_linker_1, # of connection points: 2
#     Edge 14, Type (0, 0), BuildingBlock: FUNLAD_clean_linker_1, # of connection points: 2
#     Edge 15, Type (0, 0), BuildingBlock: FUNLAD_clean_linker_1, # of connection points: 2
# Relax obj value: 0.240
# Max RMSD: 0.243
# Mean RMSD: 0.243
data_MOF--net-vme--node1-IZENUY_clean_sbu_0--edge1-FUNLAD_clean_linker_1
_symmetry_space_group_name_H-M    P1
_symmetry_Int_Tables_number       1
_symmetry_cell_setting            triclinic
loop_
_symmetry_equiv_pos_as_xyz
'x, y, z'
_cell_length_a     26.46337
_cell_length_b     26.165394
_cell_length_c     28.856966
_cell_angle_alpha  90.058255
_cell_angle_beta   116.63654
_cell_angle_gamma 90.501454
loop_
_atom_site_label
_atom_site_type_symbol
_atom_site_fract_x
_atom_site_fract_y
_atom_site_fract_z
_atom_type_partial_charge
Fe0 Fe 0.14753 0.38604 0.35131 0.0
Fe1 Fe 0.26969 0.34852 0.4094 0.0
O2 O 0.21535 0.39023 0.40487 0.0
Fe3 Fe 0.22838 0.43507 0.45473 0.0
O4 O 0.17438 0.40673 0.46835 0.0
O5 O 0.10842 0.40574 0.38793 0.0
O6 O 0.13875 0.32095 0.36686 0.0
C7 C 0.17087 0.28513 0.3683 0.0
C8 C 0.15786 0.48884 0.36219 0.0
O9 O 0.22105 0.29446 0.37529 0.0
C10 C 0.32722 0.44358 0.44818 0.0
O11 O 0.17454 0.36537 0.30513 0.0
O12 O 0.26701 0.373 0.34974 0.0
O13 O 0.18003 0.48365 0.4111 0.0
O14 O 0.15184 0.45116 0.3328 0.0
C15 C 0.28018 0.34596 0.50793 0.0
O16 O 0.32824 0.39511 0.44471 0.0
O17 O 0.2836 0.46572 0.44437 0.0
C18 C 0.22338 0.36903 0.30696 0.0
O19 O 0.27401 0.32121 0.46839 0.0
O20 O 0.27826 0.39437 0.50714 0.0
C21 C 0.12331 0.4034 0.43622 0.0
Fe22 Fe 0.77913 0.84241 0.12475 0.0
Fe23 Fe 0.82461 0.93391 0.08875 0.0
O24 O 0.83417 0.88699 0.13562 0.0
Fe25 Fe 0.89917 0.88396 0.19281 0.0
O26 O 0.91167 0.82043 0.1765 0.0
O27 O 0.82754 0.78941 0.15937 0.0
O28 O 0.7802 0.81833 0.06666 0.0
C29 C 0.77669 0.84513 0.02928 0.0
C30 C 0.81567 0.8593 0.22707 0.0
O31 O 0.77973 0.89349 0.03264 0.0
C32 C 0.88675 0.98675 0.18496 0.0
O33 O 0.72099 0.88754 0.08821 0.0
O34 O 0.76562 0.96049 0.09486 0.0
O35 O 0.86657 0.85899 0.23362 0.0
O36 O 0.77523 0.86346 0.1825 0.0
C37 C 0.93286 0.91109 0.11501 0.0
O38 O 0.86856 0.98277 0.13627 0.0
O39 O 0.89131 0.94793 0.21248 0.0
C40 C 0.72169 0.93613 0.08765 0.0
O41 O 0.8829 0.90989 0.08006 0.0
O42 O 0.94333 0.90832 0.16235 0.0
C43 C 0.87933 0.78284 0.17077 0.0
Fe44 Fe 0.82113 0.59896 0.58689 0.0
Fe45 Fe 0.91377 0.6379 0.6897 0.0
O46 O 0.84533 0.64378 0.63824 0.0
Fe47 Fe 0.80167 0.69486 0.63755 0.0
O48 O 0.79937 0.71856 0.57828 0.0
O49 O 0.77771 0.64531 0.53648 0.0
O50 O 0.87735 0.61593 0.57073 0.0
C51 C 0.92866 0.61068 0.60133 0.0
C52 C 0.72626 0.60948 0.59962 0.0
O53 O 0.94496 0.60842 0.64992 0.0
C54 C 0.84832 0.67297 0.73971 0.0
O55 O 0.8613 0.54475 0.62815 0.0
O56 O 0.89613 0.57666 0.70697 0.0
O57 O 0.73435 0.6577 0.60334 0.0
O58 O 0.76362 0.5798 0.60032 0.0
C59 C 0.91147 0.74007 0.67579 0.0
O60 O 0.89542 0.66651 0.73886 0.0
O61 O 0.80306 0.67467 0.69804 0.0
C62 C 0.88337 0.53862 0.67699 0.0
O63 O 0.93473 0.69872 0.6748 0.0
O64 O 0.86131 0.74066 0.67117 0.0
C65 C 0.78504 0.69339 0.53723 0.0
Fe66 Fe 0.27014 0.19574 0.92002 0.0
Fe67 Fe 0.22659 0.0952 0.94318 0.0
O68 O 0.21635 0.14837 0.90247 0.0
Fe69 Fe 0.1522 0.15444 0.84543 0.0
O70 O 0.13748 0.21415 0.86721 0.0
O71 O 0.221 0.24962 0.89082 0.0
O72 O 0.26528 0.20955 0.97914 0.0
C73 C 0.27017 0.17705 1.01293 0.0
C74 C 0.23676 0.18989 0.81647 0.0
O75 O 0.27151 0.12985 1.00383 0.0
C76 C 0.16458 0.05268 0.84175 0.0
O77 O 0.32904 0.14979 0.95198 0.0
O78 O 0.28576 0.07491 0.93354 0.0
O79 O 0.18547 0.18627 0.80846 0.0
O80 O 0.27689 0.18545 0.86131 0.0
C81 C 0.11817 0.11548 0.91955 0.0
O82 O 0.18225 0.05078 0.89047 0.0
O83 O 0.1624 0.09463 0.81984 0.0
C84 C 0.32951 0.10163 0.9455 0.0
O85 O 0.16809 0.11304 0.95459 0.0
O86 O 0.10779 0.12385 0.87276 0.0
C87 C 0.16847 0.25331 0.87737 0.0
H88 H 0.89756 0.07072 0.18956 0.0
C89 C 0.91427 0.03525 0.2101 0.0
H90 H 0.98192 0.99995 0.27257 0.0
H91 H 0.08957 0.22537 0.24943 0.0
H92 H 0.06844 0.19844 0.16235 0.0
H93 H 1.01724 0.11764 0.12628 0.0
H94 H 0.98776 0.0628 0.17734 0.0
C95 C 0.96436 0.03562 0.25286 0.0
C96 C 0.99798 0.08345 0.2748 0.0
C97 C 1.01856 0.11323 0.24548 0.0
C98 C 0.05002 0.15901 0.26697 0.0
C99 C 0.06705 0.18954 0.23579 0.0
C100 C 0.05503 0.17463 0.18556 0.0
C101 C 0.02619 0.12914 0.16527 0.0
C102 C 1.00875 0.09832 0.19487 0.0
H103 H 0.17241 0.20305 0.34941 0.0
C104 C 0.14631 0.23319 0.35292 0.0
H105 H 0.06521 0.2534 0.34403 0.0
H106 H 0.96638 0.03509 0.34208 0.0
H107 H 0.99004 0.06118 0.43011 0.0
H108 H 0.04778 0.13861 0.46828 0.0
H109 H 0.08211 0.19055 0.41851 0.0
C110 C 0.09131 0.22381 0.33961 0.0
C111 C 0.06306 0.17378 0.31847 0.0
C112 C 0.04404 0.1433 0.34821 0.0
C113 C 1.01141 0.09823 0.32639 0.0
C114 C 0.99204 0.06924 0.35683 0.0
C115 C 1.00516 0.08386 0.40743 0.0
C116 C 0.03758 0.1275 0.4289 0.0
C117 C 0.05688 0.15703 0.39984 0.0
H118 H 0.14517 0.57238 0.36138 0.0
C119 C 0.12951 0.53724 0.33921 0.0
H120 H 0.06544 0.50201 0.2729 0.0
H121 H 0.96416 0.73115 0.29369 0.0
H122 H 0.97958 0.70519 0.37961 0.0
H123 H 1.02001 0.62118 0.41414 0.0
H124 H 0.05025 0.56443 0.36505 0.0
C125 C 0.08154 0.53753 0.29428 0.0
C126 C 0.04929 0.58505 0.27114 0.0
C127 C 0.02795 0.61577 0.29897 0.0
C128 C 0.99975 0.66219 0.27709 0.0
C129 C 0.9837 0.69452 0.30754 0.0
C130 C 0.99239 0.68015 0.35698 0.0
C131 C 1.01562 0.63297 0.37662 0.0
C132 C 0.0332 0.60096 0.34814 0.0
H133 H 0.87815 0.70031 0.18775 0.0
C134 C 0.90466 0.73177 0.18662 0.0
H135 H 0.98733 0.75554 0.2016 0.0
H136 H 0.08281 0.53475 0.20616 0.0
H137 H 0.06174 0.55842 0.11827 0.0
H138 H 1.00622 0.63542 0.07821 0.0
H139 H 0.97203 0.68959 0.12622 0.0
C140 C 0.96048 0.72469 0.20335 0.0
C141 C 0.98849 0.67558 0.22579 0.0
C142 C 1.00728 0.64378 0.19705 0.0
C143 C 0.03824 0.5988 0.21986 0.0
C144 C 0.05806 0.56875 0.1906 0.0
C145 C 0.04645 0.58201 0.14007 0.0
C146 C 1.01529 0.6254 0.11755 0.0
C147 C 0.99598 0.65616 0.14555 0.0
H148 H 0.10073 0.01989 0.76901 0.0
C149 C 0.12979 1.01046 0.80881 0.0
H150 H 0.15506 0.95517 0.86743 0.0
H151 H 0.92561 0.83518 0.79211 0.0
H152 H 0.95162 0.85389 0.88211 0.0
H153 H 0.03455 0.90825 0.93393 0.0
H154 H 0.09137 0.94482 0.89604 0.0
C155 C 0.12653 0.96415 0.82744 0.0
C156 C 0.07868 0.92818 0.79697 0.0
C157 C 0.04376 0.90959 0.81919 0.0
C158 C 0.9952 0.87891 0.78903 0.0
C159 C 0.96258 0.85906 0.81284 0.0
C160 C 0.97705 0.86941 0.86461 0.0
C161 C 1.02374 0.9 0.89378 0.0
C162 C 0.05628 0.92059 0.87141 0.0
H163 H 0.99211 0.77989 0.6992 0.0
C164 C 0.94883 0.78521 0.69319 0.0
H165 H 0.89299 0.83505 0.70434 0.0
H166 H 0.14354 0.94478 0.74599 0.0
H167 H 0.11578 0.92843 0.65499 0.0
H168 H 1.02353 0.88819 0.59907 0.0
H169 H 0.95982 0.86199 0.63464 0.0
C170 C 0.9351 0.82965 0.70755 0.0
C171 C 0.98073 0.8679 0.7364 0.0
C172 C 1.01477 0.88758 0.71391 0.0
C173 C 0.06543 0.915 0.74495 0.0
C174 C 0.10236 0.9277 0.72314 0.0
C175 C 0.08728 0.91789 0.67109 0.0
C176 C 0.03553 0.89497 0.63971 0.0
C177 C 0.99958 0.87981 0.66068 0.0
H178 H 0.90238 0.45687 0.6732 0.0
C179 C 0.90833 0.48885 0.69929 0.0
H180 H 0.95128 0.51653 0.77649 0.0
H181 H 0.02913 0.30467 0.8873 0.0
H182 H 0.95461 0.32493 0.91121 0.0
H183 H 0.8911 0.39754 0.87113 0.0
H184 H 0.90195 0.45046 0.80707 0.0
C185 C 0.94502 0.48494 0.74991 0.0
C186 C 0.9814 0.43961 0.77161 0.0
C187 C 0.97412 0.40885 0.80853 0.0
C188 C 1.01019 0.36661 0.83104 0.0
C189 C 1.00234 0.33677 0.86831 0.0
C190 C 0.95985 0.34808 0.88255 0.0
C191 C 0.92418 0.38901 0.86007 0.0
C192 C 0.93096 0.41913 0.82343 0.0
H193 H 0.16649 0.33824 0.87643 0.0
C194 C 0.14076 0.30362 0.86453 0.0
H195 H 0.05886 0.2717 0.82261 0.0
H196 H 1.01322 0.49622 0.7089 0.0
H197 H 0.08833 0.47673 0.68566 0.0
H198 H 0.14736 0.40068 0.72076 0.0
H199 H 0.13067 0.34283 0.77778 0.0
C200 C 0.08452 0.3064 0.83438 0.0
C201 C 0.05331 0.35501 0.81638 0.0
C202 C 0.06154 0.38654 0.78026 0.0
C203 C 0.02626 0.42956 0.75871 0.0
C204 C 0.03724 0.46202 0.72491 0.0
C205 C 0.0805 0.4515 0.7115 0.0
C206 C 0.1137 0.40862 0.7312 0.0
C207 C 0.10404 0.376 0.76455 0.0
H208 H 0.95269 0.60688 0.5381 0.0
C209 C 0.96514 0.59492 0.57783 0.0
H210 H 1.01203 0.54178 0.6355 0.0
H211 H 0.98089 0.38702 0.4543 0.0
H212 H 0.92686 0.34556 0.4931 0.0
H213 H 0.91528 0.38691 0.56458 0.0
H214 H 0.95698 0.47013 0.59721 0.0
C215 C 1.00277 0.55731 0.59773 0.0
C216 C 1.01999 0.52828 0.56283 0.0
C217 C 0.99656 0.47892 0.54521 0.0
C218 C 1.00436 0.45449 0.50484 0.0
C219 C 0.97786 0.40652 0.486 0.0
C220 C 0.94639 0.38246 0.50769 0.0
C221 C 0.93978 0.40577 0.54786 0.0
C222 C 0.96403 0.45361 0.56625 0.0
H223 H 0.09313 0.39303 0.49435 0.0
C224 C 0.08302 0.41116 0.45745 0.0
H225 H 0.04365 0.47353 0.40957 0.0
H226 H 0.07598 0.61975 0.59248 0.0
H227 H 0.13671 0.65834 0.55906 0.0
H228 H 0.15458 0.61425 0.49231 0.0
H229 H 0.11128 0.53215 0.45797 0.0
C230 C 0.04963 0.45222 0.44397 0.0
C231 C 0.03778 0.47846 0.48388 0.0
C232 C 0.06416 0.52647 0.50394 0.0
C233 C 0.05469 0.5516 0.54302 0.0
C234 C 0.08131 0.59943 0.56232 0.0
C235 C 0.11661 0.62179 0.5438 0.0
C236 C 0.12672 0.59695 0.50627 0.0
C237 C 0.10117 0.54981 0.48662 0.0
H238 H 1.01712 0.91562 0.11534 0.0
C239 C 0.97521 0.93202 0.10017 0.0
H240 H 0.9181 0.98789 0.05369 0.0
H241 H 0.14977 0.08635 0.0571 0.0
H242 H 0.1886 0.0903 0.15067 0.0
H243 H 0.13862 0.04972 0.1957 0.0
H244 H 0.04962 1.00529 0.14746 0.0
C245 C 0.96004 0.97169 0.06705 0.0
C246 C 0.99391 0.99172 0.04173 0.0
C247 C 0.04619 0.01721 0.07091 0.0
C248 C 0.07493 0.04054 0.04494 0.0
C249 C 0.12659 0.06692 0.0748 0.0
C250 C 0.14925 0.06981 0.12858 0.0
C251 C 0.12117 0.04693 0.15392 0.0
C252 C 0.07012 0.02116 0.12564 0.0
H253 H 0.03299 0.11413 0.91733 0.0
C254 C 0.074 0.09591 0.93265 0.0
H255 H 0.12772 0.03792 0.97892 0.0
H256 H 0.8946 0.94495 0.9742 0.0
H257 H 0.85479 0.9432 0.88057 0.0
H258 H 0.90451 0.98417 0.83566 0.0
H259 H 0.99464 0.02676 0.88415 0.0
C260 C 0.08657 0.05586 0.9651 0.0
C261 C 0.05144 0.03819 0.99002 0.0
C262 C 0.99863 1.01365 0.96076 0.0
C263 C 0.96991 0.9902 0.98671 0.0
C264 C 0.91782 0.96455 0.95667 0.0
C265 C 0.89452 0.96292 0.9028 0.0
C266 C 0.92247 0.98609 0.87751 0.0
C267 C 0.97416 1.01078 0.90594 0.0
H268 H 0.26705 0.16476 0.08753 0.0
C269 C 0.26868 0.1938 0.06129 0.0
H270 H 0.26177 0.27218 0.04264 0.0
H271 H 0.1124 0.34458 0.14504 0.0
H272 H 0.04853 0.35246 0.0535 0.0
H273 H 0.07361 0.31742 0.98726 0.0
H274 H 0.16273 0.27468 1.01194 0.0
C275 C 0.26239 0.24341 0.07004 0.0
C276 C 0.24617 0.26034 0.1109 0.0
C277 C 0.19324 0.28447 0.09578 0.0
C278 C 0.1782 0.30378 0.134 0.0
C279 C 0.12566 0.32864 0.11768 0.0
C280 C 0.08858 0.33348 0.06524 0.0
C281 C 0.10273 0.31383 0.02794 0.0
C282 C 0.15428 0.28956 0.04273 0.0
H283 H 0.26974 0.37009 0.25975 0.0
C284 C 0.23175 0.35589 0.2612 0.0
H285 H 0.16285 0.30402 0.22913 0.0
H286 H 0.35246 0.21946 0.15368 0.0
H287 H 0.41259 0.205 0.24496 0.0
H288 H 0.38193 0.23001 0.3108 0.0
H289 H 0.29176 0.2709 0.28583 0.0
C290 C 0.20002 0.31971 0.22715 0.0
C291 C 0.21562 0.29831 0.18735 0.0
C292 C 0.26715 0.27158 0.20249 0.0
C293 C 0.28328 0.25413 0.1643 0.0
C294 C 0.33684 0.23123 0.18076 0.0
C295 C 0.372 0.22298 0.23313 0.0
C296 C 0.35486 0.23727 0.27021 0.0
C297 C 0.30313 0.26122 0.25532 0.0
H298 H 0.75644 0.84361 0.25958 0.0
C299 C 0.80087 0.84229 0.26822 0.0
H300 H 0.88079 0.81324 0.31841 0.0
H301 H 0.70586 0.78603 0.4309 0.0
H302 H 0.69207 0.87783 0.42243 0.0
H303 H 0.7393 0.93035 0.38202 0.0
H304 H 0.7981 0.89111 0.34759 0.0
C305 C 0.83709 0.81797 0.31112 0.0
C306 C 0.81601 0.78831 0.3434 0.0
C307 C 0.78614 0.81265 0.36751 0.0
C308 C 0.76339 0.78311 0.39525 0.0
C309 C 0.7277 0.80736 0.4131 0.0
C310 C 0.71894 0.85988 0.40798 0.0
C311 C 0.74524 0.88939 0.38495 0.0
C312 C 0.77851 0.86627 0.36492 0.0
H313 H 0.80425 0.7588 0.50102 0.0
C314 C 0.78431 0.72114 0.49256 0.0
H315 H 0.7463 0.66413 0.43571 0.0
H316 H 0.86138 0.7276 0.2943 0.0
H317 H 0.87667 0.63634 0.30482 0.0
H318 H 0.85112 0.58776 0.36448 0.0
H319 H 0.8066 0.62931 0.41128 0.0
C320 C 0.76529 0.70207 0.44438 0.0
C321 C 0.77659 0.73038 0.4047 0.0
C322 C 0.80555 0.70583 0.37983 0.0
C323 C 0.82363 0.73452 0.34789 0.0
C324 C 0.84874 0.70826 0.32061 0.0
C325 C 0.85773 0.65579 0.32619 0.0
C326 C 0.84308 0.62839 0.35959 0.0
C327 C 0.8174 0.65286 0.38625 0.0
H328 H 0.74839 0.78204 0.97239 0.0
C329 C 0.77047 0.81868 0.98193 0.0
H330 H 0.82369 0.86942 0.96693 0.0
H331 H 0.83959 0.64232 0.86598 0.0
H332 H 0.88009 0.61133 0.95435 0.0
H333 H 0.88918 0.66789 0.02618 0.0
H334 H 0.85624 0.75516 1.00985 0.0
C335 C 0.79997 0.83361 0.95655 0.0
C336 C 0.80255 0.80149 0.91482 0.0
C337 C 0.82533 0.7514 0.92559 0.0
C338 C 0.82369 0.71982 0.88467 0.0
C339 C 0.84242 0.66874 0.89588 0.0
C340 C 0.86545 0.65034 0.94643 0.0
C341 C 0.87032 0.6821 0.98683 0.0
C342 C 0.85064 0.73203 0.9768 0.0
H343 H 0.88922 0.69709 0.82192 0.0
C344 C 0.84853 0.69138 0.78832 0.0
H345 H 0.76076 0.70391 0.75586 0.0
H346 H 0.75896 0.89645 0.88141 0.0
H347 H 0.72849 0.93072 0.79512 0.0
H348 H 0.7334 0.87876 0.72593 0.0
H349 H 0.76776 0.79195 0.74229 0.0
C350 C 0.80125 0.70758 0.79007 0.0
C351 C 0.8033 0.73964 0.83376 0.0
C352 C 0.78413 0.79087 0.82383 0.0
C353 C 0.78295 0.82147 0.86415 0.0
C354 C 0.76175 0.87181 0.85254 0.0
C355 C 0.74405 0.892 0.80312 0.0
C356 C 0.74675 0.86272 0.76416 0.0
C357 C 0.76638 0.81277 0.7741 0.0
H358 H 0.2932 0.22673 0.7893 0.0
C359 C 0.25103 0.21041 0.77621 0.0
H360 H 0.17188 0.19702 0.71247 0.0
H361 H 0.18479 0.38125 0.57749 0.0
H362 H 0.09714 0.39562 0.58233 0.0
H363 H 0.06795 0.34009 0.63498 0.0
H364 H 0.12741 0.27115 0.68515 0.0
C365 C 0.21425 0.21277 0.72571 0.0
C366 C 0.22868 0.24218 0.68866 0.0
C367 C 0.19391 0.28335 0.66046 0.0
C368 C 0.2108 0.3155 0.62993 0.0
C369 C 0.17465 0.35579 0.60165 0.0
C370 C 0.12387 0.36439 0.60377 0.0
C371 C 0.10751 0.33318 0.63354 0.0
C372 C 0.14218 0.29353 0.66212 0.0
H373 H 0.28077 0.27536 0.54901 0.0
C374 C 0.28261 0.3168 0.55259 0.0
H375 H 0.27693 0.37987 0.59531 0.0
H376 H 0.29763 0.15912 0.72581 0.0
H377 H 0.38756 0.1464 0.72429 0.0
H378 H 0.42354 0.20913 0.6822 0.0
H379 H 0.3687 0.28375 0.63966 0.0
C380 C 0.27779 0.3385 0.59265 0.0
C381 C 0.26273 0.3068 0.62789 0.0
C382 C 0.29746 0.26567 0.65619 0.0
C383 C 0.27906 0.23191 0.68433 0.0
C384 C 0.31161 0.188 0.70721 0.0
C385 C 0.36299 0.17991 0.70609 0.0
C386 C 0.38307 0.21504 0.68213 0.0
C387 C 0.3509 0.25748 0.65743 0.0
H388 H 0.37312 0.51695 0.46485 0.0
C389 C 0.37848 0.47587 0.46353 0.0
H390 H 0.43808 0.41728 0.47771 0.0
H391 H 0.61667 0.5753 0.46354 0.0
H392 H 0.58641 0.52959 0.38215 0.0
H393 H 0.50726 0.46757 0.35272 0.0
H394 H 0.45799 0.45061 0.40471 0.0
C395 C 0.43096 0.45796 0.47908 0.0
C396 C 0.48041 0.49413 0.49809 0.0
C397 C 0.50864 0.50392 0.46727 0.0
C398 C 0.55404 0.54014 0.4841 0.0
C399 C 0.5817 0.5486 0.45258 0.0
C400 C 0.56479 0.52257 0.40574 0.0
C401 C 0.52023 0.48763 0.38917 0.0
C402 C 0.49231 0.47827 0.41938 0.0
H403 H 0.67268 0.54913 0.60739 0.0
C404 C 0.67139 0.58588 0.58931 0.0
H405 H 0.62085 0.63509 0.5288 0.0
H406 H 0.43931 0.48133 0.56922 0.0
H407 H 0.46857 0.52794 0.64999 0.0
H408 H 0.5441 0.59351 0.67704 0.0
H409 H 0.59128 0.61248 0.62368 0.0
C410 C 0.62205 0.60132 0.55114 0.0
C411 C 0.57147 0.56648 0.53197 0.0
C412 C 0.5431 0.5568 0.56275 0.0
C413 C 0.49817 0.52013 0.54622 0.0
C414 C 0.47234 0.50989 0.57893 0.0
C415 C 0.48898 0.53615 0.6256 0.0
C416 C 0.53162 0.57296 0.64091 0.0
C417 C 0.55853 0.58331 0.61004 0.0
H418 H 0.37746 0.0328 0.94919 0.0
C419 C 0.38199 0.07349 0.9583 0.0
H420 H 0.44033 0.13323 0.99601 0.0
H421 H 0.61878 0.9699 0.14044 0.0
H422 H 0.59794 1.01658 0.20243 0.0
H423 H 0.52457 0.08291 0.17328 0.0
H424 H 0.47172 0.10307 0.08204 0.0
C425 C 0.43416 0.09345 0.98366 0.0
C426 C 0.48371 0.05873 1.00154 0.0
C427 C 0.51486 0.04804 0.05514 0.0
C428 C 0.55745 1.01002 0.07201 0.0
C429 C 0.58681 0.99912 0.12563 0.0
C430 C 0.57502 0.0254 0.1616 0.0
C431 C 0.53366 0.06269 0.14517 0.0
C432 C 0.50365 0.07391 0.09263 0.0
H433 H 0.67631 1.00775 0.07926 0.0
C434 C 0.67049 0.96654 0.07411 0.0
H435 H 0.60995 0.90677 0.04462 0.0
H436 H 0.43667 0.07392 0.8967 0.0
H437 H 0.45758 0.02717 0.83479 0.0
H438 H 0.5295 0.95954 0.86387 0.0
H439 H 0.58112 0.93841 0.95507 0.0
C440 C 0.61781 0.94733 0.05313 0.0
C441 C 0.56932 0.98317 0.03534 0.0
C442 C 0.53849 0.99408 0.98182 0.0
C443 C 0.49624 0.03239 0.96495 0.0
C444 C 0.46787 0.04405 0.91145 0.0
C445 C 0.4798 0.01781 0.87555 0.0
C446 C 0.52037 0.9798 0.89193 0.0
C447 C 0.54967 0.96805 0.9444 0.0
loop_
_geom_bond_atom_site_label_1
_geom_bond_atom_site_label_2
_geom_bond_distance
_geom_bond_site_symmetry_2
_ccdc_geom_bond_type
Fe0 O2 1.918 . S
Fe0 O5 1.997 . S
Fe0 O6 2.002 . S
Fe0 O11 1.976 . S
Fe0 O14 1.996 . S
Fe1 O2 1.918 . S
Fe1 O9 1.997 . S
Fe1 O12 1.996 . S
Fe1 O16 1.976 . S
Fe1 O19 2.002 . S
O2 Fe0 1.918 . S
O2 Fe1 1.918 . S
O2 Fe3 1.918 . S
Fe3 O2 1.918 . S
Fe3 O4 2.002 . S
Fe3 O13 1.976 . S
Fe3 O17 1.996 . S
Fe3 O20 1.997 . S
O4 Fe3 2.002 . S
O4 C21 1.295 . S
O5 Fe0 1.997 . S
O5 C21 1.235 . S
O6 Fe0 2.002 . S
O6 C7 1.295 . S
C7 O6 1.295 . S
C7 O9 1.235 . S
C8 O13 1.287 . S
C8 O14 1.255 . S
O9 Fe1 1.997 . S
O9 C7 1.235 . S
C10 O16 1.287 . S
C10 O17 1.255 . S
O11 Fe0 1.976 . S
O11 C18 1.287 . S
O12 Fe1 1.996 . S
O12 C18 1.255 . S
O13 Fe3 1.976 . S
O13 C8 1.287 . S
O14 Fe0 1.996 . S
O14 C8 1.255 . S
C15 O19 1.295 . S
C15 O20 1.235 . S
O16 Fe1 1.976 . S
O16 C10 1.287 . S
O17 Fe3 1.996 . S
O17 C10 1.255 . S
C18 O11 1.287 . S
C18 O12 1.255 . S
O19 Fe1 2.002 . S
O19 C15 1.295 . S
O20 Fe3 1.997 . S
O20 C15 1.235 . S
C21 O4 1.295 . S
C21 O5 1.235 . S
Fe22 O24 1.918 . S
Fe22 O27 1.997 . S
Fe22 O28 2.002 . S
Fe22 O33 1.976 . S
Fe22 O36 1.996 . S
Fe23 O24 1.918 . S
Fe23 O31 1.997 . S
Fe23 O34 1.996 . S
Fe23 O38 1.976 . S
Fe23 O41 2.002 . S
O24 Fe22 1.918 . S
O24 Fe23 1.918 . S
O24 Fe25 1.918 . S
Fe25 O24 1.918 . S
Fe25 O26 2.002 . S
Fe25 O35 1.976 . S
Fe25 O39 1.996 . S
Fe25 O42 1.997 . S
O26 Fe25 2.002 . S
O26 C43 1.295 . S
O27 Fe22 1.997 . S
O27 C43 1.235 . S
O28 Fe22 2.002 . S
O28 C29 1.295 . S
C29 O28 1.295 . S
C29 O31 1.235 . S
C30 O35 1.287 . S
C30 O36 1.255 . S
O31 Fe23 1.997 . S
O31 C29 1.235 . S
C32 O38 1.287 . S
C32 O39 1.255 . S
O33 Fe22 1.976 . S
O33 C40 1.287 . S
O34 Fe23 1.996 . S
O34 C40 1.255 . S
O35 Fe25 1.976 . S
O35 C30 1.287 . S
O36 Fe22 1.996 . S
O36 C30 1.255 . S
C37 O41 1.295 . S
C37 O42 1.235 . S
O38 Fe23 1.976 . S
O38 C32 1.287 . S
O39 Fe25 1.996 . S
O39 C32 1.255 . S
C40 O33 1.287 . S
C40 O34 1.255 . S
O41 Fe23 2.002 . S
O41 C37 1.295 . S
O42 Fe25 1.997 . S
O42 C37 1.235 . S
C43 O26 1.295 . S
C43 O27 1.235 . S
Fe44 O46 1.918 . S
Fe44 O49 1.997 . S
Fe44 O50 2.002 . S
Fe44 O55 1.976 . S
Fe44 O58 1.996 . S
Fe45 O46 1.918 . S
Fe45 O53 1.997 . S
Fe45 O56 1.996 . S
Fe45 O60 1.976 . S
Fe45 O63 2.002 . S
O46 Fe44 1.918 . S
O46 Fe45 1.918 . S
O46 Fe47 1.918 . S
Fe47 O46 1.918 . S
Fe47 O48 2.002 . S
Fe47 O57 1.976 . S
Fe47 O61 1.996 . S
Fe47 O64 1.997 . S
O48 Fe47 2.002 . S
O48 C65 1.295 . S
O49 Fe44 1.997 . S
O49 C65 1.235 . S
O50 Fe44 2.002 . S
O50 C51 1.295 . S
C51 O50 1.295 . S
C51 O53 1.235 . S
C52 O57 1.287 . S
C52 O58 1.255 . S
O53 Fe45 1.997 . S
O53 C51 1.235 . S
C54 O60 1.287 . S
C54 O61 1.255 . S
O55 Fe44 1.976 . S
O55 C62 1.287 . S
O56 Fe45 1.996 . S
O56 C62 1.255 . S
O57 Fe47 1.976 . S
O57 C52 1.287 . S
O58 Fe44 1.996 . S
O58 C52 1.255 . S
C59 O63 1.295 . S
C59 O64 1.235 . S
O60 Fe45 1.976 . S
O60 C54 1.287 . S
O61 Fe47 1.996 . S
O61 C54 1.255 . S
C62 O55 1.287 . S
C62 O56 1.255 . S
O63 Fe45 2.002 . S
O63 C59 1.295 . S
O64 Fe47 1.997 . S
O64 C59 1.235 . S
C65 O48 1.295 . S
C65 O49 1.235 . S
Fe66 O68 1.918 . S
Fe66 O71 1.997 . S
Fe66 O72 2.002 . S
Fe66 O77 1.976 . S
Fe66 O80 1.996 . S
Fe67 O68 1.918 . S
Fe67 O75 1.997 . S
Fe67 O78 1.996 . S
Fe67 O82 1.976 . S
Fe67 O85 2.002 . S
O68 Fe66 1.918 . S
O68 Fe67 1.918 . S
O68 Fe69 1.918 . S
Fe69 O68 1.918 . S
Fe69 O70 2.002 . S
Fe69 O79 1.976 . S
Fe69 O83 1.996 . S
Fe69 O86 1.997 . S
O70 Fe69 2.002 . S
O70 C87 1.295 . S
O71 Fe66 1.997 . S
O71 C87 1.235 . S
O72 Fe66 2.002 . S
O72 C73 1.295 . S
C73 O72 1.295 . S
C73 O75 1.235 . S
C74 O79 1.287 . S
C74 O80 1.255 . S
O75 Fe67 1.997 . S
O75 C73 1.235 . S
C76 O82 1.287 . S
C76 O83 1.255 . S
O77 Fe66 1.976 . S
O77 C84 1.287 . S
O78 Fe67 1.996 . S
O78 C84 1.255 . S
O79 Fe69 1.976 . S
O79 C74 1.287 . S
O80 Fe66 1.996 . S
O80 C74 1.255 . S
C81 O85 1.295 . S
C81 O86 1.235 . S
O82 Fe67 1.976 . S
O82 C76 1.287 . S
O83 Fe69 1.996 . S
O83 C76 1.255 . S
C84 O77 1.287 . S
C84 O78 1.255 . S
O85 Fe67 2.002 . S
O85 C81 1.295 . S
O86 Fe69 1.997 . S
O86 C81 1.235 . S
C87 O70 1.295 . S
C87 O71 1.235 . S
H88 C89 0.951 . S
C89 H88 0.951 . S
C89 C95 1.265 . S
H90 C95 0.950 . S
H91 C99 0.949 . S
H92 C100 0.950 . S
H93 C101 0.951 . S
H94 C102 0.951 . S
C95 C89 1.265 . S
C95 H90 0.950 . S
C95 C96 1.478 . S
C96 C95 1.478 . S
C96 C97 1.397 . S
C96 C113 1.394 . S
C97 C96 1.397 . S
C97 C98 1.438 1_655 S
C97 C102 1.429 . S
C98 C97 1.438 1_455 S
C98 C99 1.428 . S
C98 C111 1.394 . S
C99 H91 0.949 . S
C99 C98 1.428 . S
C99 C100 1.345 . S
C100 H92 0.950 . S
C100 C99 1.345 . S
C100 C101 1.424 . S
C101 H93 0.951 . S
C101 C100 1.424 . S
C101 C102 1.347 1_455 S
C102 H94 0.951 . S
C102 C97 1.429 . S
C102 C101 1.347 1_655 S
H103 C104 0.951 . S
C104 H103 0.951 . S
C104 C110 1.265 . S
H105 C110 0.950 . S
H106 C114 0.949 . S
H107 C115 0.950 . S
H108 C116 0.951 . S
H109 C117 0.951 . S
C110 C104 1.265 . S
C110 H105 0.950 . S
C110 C111 1.478 . S
C111 C98 1.394 . S
C111 C110 1.478 . S
C111 C112 1.397 1_455 S
C112 C111 1.397 1_655 S
C112 C113 1.438 . S
C112 C117 1.429 . S
C113 C96 1.394 . S
C113 C112 1.438 . S
C113 C114 1.428 . S
C114 H106 0.949 . S
C114 C113 1.428 . S
C114 C115 1.345 . S
C115 H107 0.950 . S
C115 C114 1.345 . S
C115 C116 1.424 . S
C116 H108 0.951 . S
C116 C115 1.424 . S
C116 C117 1.347 . S
C117 H109 0.951 . S
C117 C112 1.429 . S
C117 C116 1.347 . S
H118 C119 0.951 . S
C119 H118 0.951 . S
C119 C125 1.265 . S
H120 C125 0.950 . S
H121 C129 0.949 . S
H122 C130 0.950 . S
H123 C131 0.951 . S
H124 C132 0.951 . S
C125 C119 1.265 . S
C125 H120 0.950 . S
C125 C126 1.478 . S
C126 C125 1.478 . S
C126 C127 1.397 . S
C126 C143 1.394 . S
C127 C126 1.397 . S
C127 C128 1.438 1_455 S
C127 C132 1.429 . S
C128 C127 1.438 1_655 S
C128 C129 1.428 . S
C128 C141 1.394 . S
C129 H121 0.949 . S
C129 C128 1.428 . S
C129 C130 1.345 . S
C130 H122 0.950 . S
C130 C129 1.345 . S
C130 C131 1.424 . S
C131 H123 0.951 . S
C131 C130 1.424 . S
C131 C132 1.347 1_655 S
C132 H124 0.951 . S
C132 C127 1.429 . S
C132 C131 1.347 1_455 S
H133 C134 0.951 . S
C134 H133 0.951 . S
C134 C140 1.265 . S
H135 C140 0.950 . S
H136 C144 0.949 . S
H137 C145 0.950 . S
H138 C146 0.951 . S
H139 C147 0.951 . S
C140 C134 1.265 . S
C140 H135 0.950 . S
C140 C141 1.478 . S
C141 C128 1.394 . S
C141 C140 1.478 . S
C141 C142 1.397 1_655 S
C142 C141 1.397 1_455 S
C142 C143 1.438 . S
C142 C147 1.429 . S
C143 C126 1.394 . S
C143 C142 1.438 . S
C143 C144 1.428 . S
C144 H136 0.949 . S
C144 C143 1.428 . S
C144 C145 1.345 . S
C145 H137 0.950 . S
C145 C144 1.345 . S
C145 C146 1.424 . S
C146 H138 0.951 . S
C146 C145 1.424 . S
C146 C147 1.347 . S
C147 H139 0.951 . S
C147 C142 1.429 . S
C147 C146 1.347 . S
H148 C149 0.951 . S
C149 H148 0.951 . S
C149 C155 1.265 . S
H150 C155 0.950 . S
H151 C159 0.949 . S
H152 C160 0.950 . S
H153 C161 0.951 . S
H154 C162 0.951 . S
C155 C149 1.265 . S
C155 H150 0.950 . S
C155 C156 1.478 . S
C156 C155 1.478 . S
C156 C157 1.397 . S
C156 C173 1.394 . S
C157 C156 1.397 . S
C157 C158 1.438 1_455 S
C157 C162 1.429 . S
C158 C157 1.438 1_655 S
C158 C159 1.428 . S
C158 C171 1.394 . S
C159 H151 0.949 . S
C159 C158 1.428 . S
C159 C160 1.345 . S
C160 H152 0.950 . S
C160 C159 1.345 . S
C160 C161 1.424 . S
C161 H153 0.951 . S
C161 C160 1.424 . S
C161 C162 1.347 1_655 S
C162 H154 0.951 . S
C162 C157 1.429 . S
C162 C161 1.347 1_455 S
H163 C164 0.951 . S
C164 H163 0.951 . S
C164 C170 1.265 . S
H165 C170 0.950 . S
H166 C174 0.949 . S
H167 C175 0.950 . S
H168 C176 0.951 . S
H169 C177 0.951 . S
C170 C164 1.265 . S
C170 H165 0.950 . S
C170 C171 1.478 . S
C171 C158 1.394 . S
C171 C170 1.478 . S
C171 C172 1.397 1_655 S
C172 C171 1.397 1_455 S
C172 C173 1.438 . S
C172 C177 1.429 . S
C173 C156 1.394 . S
C173 C172 1.438 . S
C173 C174 1.428 . S
C174 H166 0.949 . S
C174 C173 1.428 . S
C174 C175 1.345 . S
C175 H167 0.950 . S
C175 C174 1.345 . S
C175 C176 1.424 . S
C176 H168 0.951 . S
C176 C175 1.424 . S
C176 C177 1.347 . S
C177 H169 0.951 . S
C177 C172 1.429 . S
C177 C176 1.347 . S
H178 C179 0.951 . S
C179 H178 0.951 . S
C179 C185 1.265 . S
H180 C185 0.950 . S
H181 C189 0.949 1_455 S
H182 C190 0.950 . S
H183 C191 0.951 . S
H184 C192 0.951 . S
C185 C179 1.265 . S
C185 H180 0.950 . S
C185 C186 1.478 . S
C186 C185 1.478 . S
C186 C187 1.397 . S
C186 C203 1.394 . S
C187 C186 1.397 . S
C187 C188 1.438 . S
C187 C192 1.429 . S
C188 C187 1.438 . S
C188 C189 1.428 . S
C188 C201 1.394 1_655 S
C189 H181 0.949 1_655 S
C189 C188 1.428 . S
C189 C190 1.345 . S
C190 H182 0.950 . S
C190 C189 1.345 . S
C190 C191 1.424 . S
C191 H183 0.951 . S
C191 C190 1.424 . S
C191 C192 1.347 . S
C192 H184 0.951 . S
C192 C187 1.429 . S
C192 C191 1.347 . S
H193 C194 0.951 . S
C194 H193 0.951 . S
C194 C200 1.265 . S
H195 C200 0.950 . S
H196 C204 0.949 . S
H197 C205 0.950 . S
H198 C206 0.951 . S
H199 C207 0.951 . S
C200 C194 1.265 . S
C200 H195 0.950 . S
C200 C201 1.478 . S
C201 C188 1.394 1_455 S
C201 C200 1.478 . S
C201 C202 1.397 . S
C202 C201 1.397 . S
C202 C203 1.438 1_455 S
C202 C207 1.429 . S
C203 C186 1.394 . S
C203 C202 1.438 1_655 S
C203 C204 1.428 . S
C204 H196 0.949 . S
C204 C203 1.428 . S
C204 C205 1.345 . S
C205 H197 0.950 . S
C205 C204 1.345 . S
C205 C206 1.424 1_655 S
C206 H198 0.951 . S
C206 C205 1.424 1_455 S
C206 C207 1.347 . S
C207 H199 0.951 . S
C207 C202 1.429 . S
C207 C206 1.347 . S
H208 C209 0.951 . S
C209 H208 0.951 . S
C209 C215 1.265 . S
H210 C215 0.950 1_455 S
H211 C219 0.949 . S
H212 C220 0.950 . S
H213 C221 0.939 1_655 S
H214 C222 0.951 . S
C215 C209 1.265 . S
C215 H210 0.950 1_655 S
C215 C216 1.478 . S
C216 C215 1.478 . S
C216 C217 1.397 . S
C216 C233 1.394 . S
C217 C216 1.397 . S
C217 C218 1.438 1_655 S
C217 C222 1.429 . S
C218 C217 1.438 1_455 S
C218 C219 1.428 . S
C218 C231 1.394 . S
C219 H211 0.949 . S
C219 C218 1.428 . S
C219 C220 1.345 . S
C220 H212 0.950 . S
C220 C219 1.345 . S
C220 C221 1.432 . S
C221 H213 0.939 1_455 S
C221 C220 1.432 . S
C221 C222 1.345 1_455 S
C222 H214 0.951 . S
C222 C217 1.429 . S
C222 C221 1.345 1_655 S
H223 C224 0.951 . S
C224 H223 0.951 . S
C224 C230 1.265 . S
H225 C230 0.950 1_655 S
H226 C234 0.949 . S
H227 C235 0.950 . S
H228 C236 0.939 1_455 S
H229 C237 0.951 . S
C230 C224 1.265 . S
C230 H225 0.950 1_455 S
C230 C231 1.478 . S
C231 C218 1.394 . S
C231 C230 1.478 . S
C231 C232 1.397 . S
C232 C231 1.397 . S
C232 C233 1.438 1_455 S
C232 C237 1.429 . S
C233 C216 1.394 . S
C233 C232 1.438 1_655 S
C233 C234 1.428 . S
C234 H226 0.949 . S
C234 C233 1.428 . S
C234 C235 1.345 . S
C235 H227 0.950 . S
C235 C234 1.345 . S
C235 C236 1.432 . S
C236 H228 0.939 1_655 S
C236 C235 1.432 . S
C236 C237 1.345 1_655 S
C237 H229 0.951 . S
C237 C232 1.429 . S
C237 C236 1.345 1_455 S
H238 C239 0.951 . S
C239 H238 0.951 . S
C239 C245 1.265 . S
H240 C245 0.950 1_455 S
H241 C249 0.949 . S
H242 C250 0.950 . S
H243 C251 0.951 . S
H244 C252 0.951 . S
C245 C239 1.265 . S
C245 H240 0.950 1_655 S
C245 C246 1.478 . S
C246 C245 1.478 . S
C246 C247 1.397 1_655 S
C246 C263 1.394 1_565 S
C247 C246 1.397 1_455 S
C247 C248 1.438 1_554 S
C247 C252 1.429 . S
C248 C247 1.438 1_556 S
C248 C249 1.428 . S
C248 C261 1.394 1_565 S
C249 H241 0.949 . S
C249 C248 1.428 . S
C249 C250 1.345 . S
C250 H242 0.950 . S
C250 C249 1.345 . S
C250 C251 1.424 1_556 S
C251 H243 0.951 . S
C251 C250 1.424 1_554 S
C251 C252 1.347 . S
C252 H244 0.951 . S
C252 C247 1.429 . S
C252 C251 1.347 . S
H253 C254 0.951 . S
C254 H253 0.951 . S
C254 C260 1.265 . S
H255 C260 0.950 1_655 S
H256 C264 0.949 . S
H257 C265 0.950 . S
H258 C266 0.951 . S
H259 C267 0.951 . S
C260 C254 1.265 . S
C260 H255 0.950 1_455 S
C260 C261 1.478 . S
C261 C248 1.394 1_545 S
C261 C260 1.478 . S
C261 C262 1.397 1_455 S
C262 C261 1.397 1_655 S
C262 C263 1.438 1_556 S
C262 C267 1.429 . S
C263 C246 1.394 1_545 S
C263 C262 1.438 1_554 S
C263 C264 1.428 . S
C264 H256 0.949 . S
C264 C263 1.428 . S
C264 C265 1.345 . S
C265 H257 0.950 . S
C265 C264 1.345 . S
C265 C266 1.424 1_554 S
C266 H258 0.951 . S
C266 C265 1.424 1_556 S
C266 C267 1.347 . S
C267 H259 0.951 . S
C267 C262 1.429 . S
C267 C266 1.347 . S
H268 C269 0.951 . S
C269 H268 0.951 . S
C269 C275 1.265 . S
H270 C275 0.950 . S
H271 C279 0.949 . S
H272 C280 0.950 . S
H273 C281 0.951 . S
H274 C282 0.951 . S
C275 C269 1.265 . S
C275 H270 0.950 . S
C275 C276 1.478 . S
C276 C275 1.478 . S
C276 C277 1.397 . S
C276 C293 1.394 . S
C277 C276 1.397 . S
C277 C278 1.438 . S
C277 C282 1.429 . S
C278 C277 1.438 . S
C278 C279 1.428 . S
C278 C291 1.394 . S
C279 H271 0.949 . S
C279 C278 1.428 . S
C279 C280 1.345 . S
C280 H272 0.950 . S
C280 C279 1.345 . S
C280 C281 1.424 . S
C281 H273 0.951 . S
C281 C280 1.424 . S
C281 C282 1.347 . S
C282 H274 0.951 . S
C282 C277 1.429 . S
C282 C281 1.347 . S
H283 C284 0.951 . S
C284 H283 0.951 . S
C284 C290 1.265 . S
H285 C290 0.950 . S
H286 C294 0.949 . S
H287 C295 0.950 . S
H288 C296 0.951 . S
H289 C297 0.951 . S
C290 C284 1.265 . S
C290 H285 0.950 . S
C290 C291 1.478 . S
C291 C278 1.394 . S
C291 C290 1.478 . S
C291 C292 1.397 . S
C292 C291 1.397 . S
C292 C293 1.438 . S
C292 C297 1.429 . S
C293 C276 1.394 . S
C293 C292 1.438 . S
C293 C294 1.428 . S
C294 H286 0.949 . S
C294 C293 1.428 . S
C294 C295 1.345 . S
C295 H287 0.950 . S
C295 C294 1.345 . S
C295 C296 1.424 . S
C296 H288 0.951 . S
C296 C295 1.424 . S
C296 C297 1.347 . S
C297 H289 0.951 . S
C297 C292 1.429 . S
C297 C296 1.347 . S
H298 C299 0.951 . S
C299 H298 0.951 . S
C299 C305 1.265 . S
H300 C305 0.950 . S
H301 C309 0.949 . S
H302 C310 0.950 . S
H303 C311 0.951 . S
H304 C312 0.951 . S
C305 C299 1.265 . S
C305 H300 0.950 . S
C305 C306 1.478 . S
C306 C305 1.478 . S
C306 C307 1.397 . S
C306 C323 1.394 . S
C307 C306 1.397 . S
C307 C308 1.438 . S
C307 C312 1.429 . S
C308 C307 1.438 . S
C308 C309 1.428 . S
C308 C321 1.394 . S
C309 H301 0.949 . S
C309 C308 1.428 . S
C309 C310 1.345 . S
C310 H302 0.950 . S
C310 C309 1.345 . S
C310 C311 1.424 . S
C311 H303 0.951 . S
C311 C310 1.424 . S
C311 C312 1.347 . S
C312 H304 0.951 . S
C312 C307 1.429 . S
C312 C311 1.347 . S
H313 C314 0.951 . S
C314 H313 0.951 . S
C314 C320 1.265 . S
H315 C320 0.950 . S
H316 C324 0.949 . S
H317 C325 0.950 . S
H318 C326 0.951 . S
H319 C327 0.951 . S
C320 C314 1.265 . S
C320 H315 0.950 . S
C320 C321 1.478 . S
C321 C308 1.394 . S
C321 C320 1.478 . S
C321 C322 1.397 . S
C322 C321 1.397 . S
C322 C323 1.438 . S
C322 C327 1.429 . S
C323 C306 1.394 . S
C323 C322 1.438 . S
C323 C324 1.428 . S
C324 H316 0.949 . S
C324 C323 1.428 . S
C324 C325 1.345 . S
C325 H317 0.950 . S
C325 C324 1.345 . S
C325 C326 1.424 . S
C326 H318 0.951 . S
C326 C325 1.424 . S
C326 C327 1.347 . S
C327 H319 0.951 . S
C327 C322 1.429 . S
C327 C326 1.347 . S
H328 C329 0.951 . S
C329 H328 0.951 . S
C329 C335 1.265 . S
H330 C335 0.950 . S
H331 C339 0.949 . S
H332 C340 0.950 . S
H333 C341 0.951 . S
H334 C342 0.951 . S
C335 C329 1.265 . S
C335 H330 0.950 . S
C335 C336 1.478 . S
C336 C335 1.478 . S
C336 C337 1.397 . S
C336 C353 1.394 . S
C337 C336 1.397 . S
C337 C338 1.438 . S
C337 C342 1.429 . S
C338 C337 1.438 . S
C338 C339 1.428 . S
C338 C351 1.394 . S
C339 H331 0.949 . S
C339 C338 1.428 . S
C339 C340 1.345 . S
C340 H332 0.950 . S
C340 C339 1.345 . S
C340 C341 1.424 . S
C341 H333 0.951 . S
C341 C340 1.424 . S
C341 C342 1.347 . S
C342 H334 0.951 . S
C342 C337 1.429 . S
C342 C341 1.347 . S
H343 C344 0.951 . S
C344 H343 0.951 . S
C344 C350 1.265 . S
H345 C350 0.950 . S
H346 C354 0.949 . S
H347 C355 0.950 . S
H348 C356 0.951 . S
H349 C357 0.951 . S
C350 C344 1.265 . S
C350 H345 0.950 . S
C350 C351 1.478 . S
C351 C338 1.394 . S
C351 C350 1.478 . S
C351 C352 1.397 . S
C352 C351 1.397 . S
C352 C353 1.438 . S
C352 C357 1.429 . S
C353 C336 1.394 . S
C353 C352 1.438 . S
C353 C354 1.428 . S
C354 H346 0.949 . S
C354 C353 1.428 . S
C354 C355 1.345 . S
C355 H347 0.950 . S
C355 C354 1.345 . S
C355 C356 1.424 . S
C356 H348 0.951 . S
C356 C355 1.424 . S
C356 C357 1.347 . S
C357 H349 0.951 . S
C357 C352 1.429 . S
C357 C356 1.347 . S
H358 C359 0.951 . S
C359 H358 0.951 . S
C359 C365 1.265 . S
H360 C365 0.950 . S
H361 C369 0.949 . S
H362 C370 0.950 . S
H363 C371 0.951 . S
H364 C372 0.951 . S
C365 C359 1.265 . S
C365 H360 0.950 . S
C365 C366 1.478 . S
C366 C365 1.478 . S
C366 C367 1.397 . S
C366 C383 1.394 . S
C367 C366 1.397 . S
C367 C368 1.438 . S
C367 C372 1.429 . S
C368 C367 1.438 . S
C368 C369 1.428 . S
C368 C381 1.394 . S
C369 H361 0.949 . S
C369 C368 1.428 . S
C369 C370 1.345 . S
C370 H362 0.950 . S
C370 C369 1.345 . S
C370 C371 1.424 . S
C371 H363 0.951 . S
C371 C370 1.424 . S
C371 C372 1.347 . S
C372 H364 0.951 . S
C372 C367 1.429 . S
C372 C371 1.347 . S
H373 C374 0.951 . S
C374 H373 0.951 . S
C374 C380 1.265 . S
H375 C380 0.950 . S
H376 C384 0.949 . S
H377 C385 0.950 . S
H378 C386 0.951 . S
H379 C387 0.951 . S
C380 C374 1.265 . S
C380 H375 0.950 . S
C380 C381 1.478 . S
C381 C368 1.394 . S
C381 C380 1.478 . S
C381 C382 1.397 . S
C382 C381 1.397 . S
C382 C383 1.438 . S
C382 C387 1.429 . S
C383 C366 1.394 . S
C383 C382 1.438 . S
C383 C384 1.428 . S
C384 H376 0.949 . S
C384 C383 1.428 . S
C384 C385 1.345 . S
C385 H377 0.950 . S
C385 C384 1.345 . S
C385 C386 1.424 . S
C386 H378 0.951 . S
C386 C385 1.424 . S
C386 C387 1.347 . S
C387 H379 0.951 . S
C387 C382 1.429 . S
C387 C386 1.347 . S
H388 C389 0.951 . S
C389 H388 0.951 . S
C389 C395 1.265 . S
H390 C395 0.950 . S
H391 C399 0.949 . S
H392 C400 0.950 . S
H393 C401 0.951 . S
H394 C402 0.951 . S
C395 C389 1.265 . S
C395 H390 0.950 . S
C395 C396 1.478 . S
C396 C395 1.478 . S
C396 C397 1.397 . S
C396 C413 1.394 . S
C397 C396 1.397 . S
C397 C398 1.438 . S
C397 C402 1.429 . S
C398 C397 1.438 . S
C398 C399 1.428 . S
C398 C411 1.394 . S
C399 H391 0.949 . S
C399 C398 1.428 . S
C399 C400 1.345 . S
C400 H392 0.950 . S
C400 C399 1.345 . S
C400 C401 1.424 . S
C401 H393 0.951 . S
C401 C400 1.424 . S
C401 C402 1.347 . S
C402 H394 0.951 . S
C402 C397 1.429 . S
C402 C401 1.347 . S
H403 C404 0.951 . S
C404 H403 0.951 . S
C404 C410 1.265 . S
H405 C410 0.950 . S
H406 C414 0.949 . S
H407 C415 0.950 . S
H408 C416 0.951 . S
H409 C417 0.951 . S
C410 C404 1.265 . S
C410 H405 0.950 . S
C410 C411 1.478 . S
C411 C398 1.394 . S
C411 C410 1.478 . S
C411 C412 1.397 . S
C412 C411 1.397 . S
C412 C413 1.438 . S
C412 C417 1.429 . S
C413 C396 1.394 . S
C413 C412 1.438 . S
C413 C414 1.428 . S
C414 H406 0.949 . S
C414 C413 1.428 . S
C414 C415 1.345 . S
C415 H407 0.950 . S
C415 C414 1.345 . S
C415 C416 1.424 . S
C416 H408 0.951 . S
C416 C415 1.424 . S
C416 C417 1.347 . S
C417 H409 0.951 . S
C417 C412 1.429 . S
C417 C416 1.347 . S
H418 C419 0.951 . S
C419 H418 0.951 . S
C419 C425 1.265 . S
H420 C425 0.950 . S
H421 C429 0.949 1_565 S
H422 C430 0.950 . S
H423 C431 0.951 . S
H424 C432 0.951 . S
C425 C419 1.265 . S
C425 H420 0.950 . S
C425 C426 1.478 . S
C426 C425 1.478 . S
C426 C427 1.397 1_556 S
C426 C443 1.394 1_545 S
C427 C426 1.397 1_554 S
C427 C428 1.438 . S
C427 C432 1.429 . S
C428 C427 1.438 . S
C428 C429 1.428 . S
C428 C441 1.394 1_545 S
C429 H421 0.949 1_545 S
C429 C428 1.428 . S
C429 C430 1.345 . S
C430 H422 0.950 . S
C430 C429 1.345 . S
C430 C431 1.424 . S
C431 H423 0.951 . S
C431 C430 1.424 . S
C431 C432 1.347 . S
C432 H424 0.951 . S
C432 C427 1.429 . S
C432 C431 1.347 . S
H433 C434 0.951 . S
C434 H433 0.951 . S
C434 C440 1.265 . S
H435 C440 0.950 . S
H436 C444 0.949 1_545 S
H437 C445 0.950 . S
H438 C446 0.951 . S
H439 C447 0.951 . S
C440 C434 1.265 . S
C440 H435 0.950 . S
C440 C441 1.478 . S
C441 C428 1.394 1_565 S
C441 C440 1.478 . S
C441 C442 1.397 1_554 S
C442 C441 1.397 1_556 S
C442 C443 1.438 . S
C442 C447 1.429 . S
C443 C426 1.394 1_565 S
C443 C442 1.438 . S
C443 C444 1.428 . S
C444 H436 0.949 1_565 S
C444 C443 1.428 . S
C444 C445 1.345 . S
C445 H437 0.950 . S
C445 C444 1.345 . S
C445 C446 1.424 . S
C446 H438 0.951 . S
C446 C445 1.424 . S
C446 C447 1.347 . S
C447 H439 0.951 . S
C447 C442 1.429 . S
C447 C446 1.347 . S
C89 C32 1.514 1_545 S
C104 C7 1.496 . S
C119 C8 1.514 . S
C134 C43 1.500 . S
C149 C76 1.436 1_565 S
C164 C59 1.446 . S
C179 C62 1.410 . S
C194 C87 1.478 . S
C209 C51 0.902 . S
C224 C21 0.902 . S
C239 C37 0.886 . S
C254 C81 0.886 . S
C269 C73 1.519 1_554 S
C284 C18 1.536 . S
C299 C30 1.509 . S
C314 C65 1.511 . S
C329 C29 1.560 1_556 S
C344 C54 1.519 . S
C359 C74 1.491 . S
C374 C15 1.526 . S
C389 C10 1.528 . S
C404 C52 1.528 . S
C419 C84 1.527 . S
C434 C40 1.527 . S
