# Generated by pormake.
# Topology smm, (6)-cn, num edge types: 1
# Building blocks:
#     Node 0, Type 0, BuildingBlock: VOLQOD_clean_sbu_1, # of connection points: 6
#     Node 1, Type 0, BuildingBlock: VOLQOD_clean_sbu_1, # of connection points: 6
#     Node 2, Type 0, BuildingBlock: VOLQOD_clean_sbu_1, # of connection points: 6
#     Node 3, Type 0, BuildingBlock: VOLQOD_clean_sbu_1, # of connection points: 6
#     Node 4, Type 0, BuildingBlock: VOLQOD_clean_sbu_1, # of connection points: 6
#     Node 5, Type 0, BuildingBlock: VOLQOD_clean_sbu_1, # of connection points: 6
#     Node 6, Type 0, BuildingBlock: VOLQOD_clean_sbu_1, # of connection points: 6
#     Node 7, Type 0, BuildingBlock: VOLQOD_clean_sbu_1, # of connection points: 6
#     Node 8, Type 0, BuildingBlock: VOLQOD_clean_sbu_1, # of connection points: 6
#     Edge 9, Type (0, 0), BuildingBlock: XUDNAN_clean_linker_2, # of connection points: 2
#     Edge 10, Type (0, 0), BuildingBlock: XUDNAN_clean_linker_2, # of connection points: 2
#     Edge 11, Type (0, 0), BuildingBlock: XUDNAN_clean_linker_2, # of connection points: 2
#     Edge 12, Type (0, 0), BuildingBlock: XUDNAN_clean_linker_2, # of connection points: 2
#     Edge 13, Type (0, 0), BuildingBlock: XUDNAN_clean_linker_2, # of connection points: 2
#     Edge 14, Type (0, 0), BuildingBlock: XUDNAN_clean_linker_2, # of connection points: 2
#     Edge 15, Type (0, 0), BuildingBlock: XUDNAN_clean_linker_2, # of connection points: 2
#     Edge 16, Type (0, 0), BuildingBlock: XUDNAN_clean_linker_2, # of connection points: 2
#     Edge 17, Type (0, 0), BuildingBlock: XUDNAN_clean_linker_2, # of connection points: 2
#     Edge 18, Type (0, 0), BuildingBlock: XUDNAN_clean_linker_2, # of connection points: 2
#     Edge 19, Type (0, 0), BuildingBlock: XUDNAN_clean_linker_2, # of connection points: 2
#     Edge 20, Type (0, 0), BuildingBlock: XUDNAN_clean_linker_2, # of connection points: 2
#     Edge 21, Type (0, 0), BuildingBlock: XUDNAN_clean_linker_2, # of connection points: 2
#     Edge 22, Type (0, 0), BuildingBlock: XUDNAN_clean_linker_2, # of connection points: 2
#     Edge 23, Type (0, 0), BuildingBlock: XUDNAN_clean_linker_2, # of connection points: 2
#     Edge 24, Type (0, 0), BuildingBlock: XUDNAN_clean_linker_2, # of connection points: 2
#     Edge 25, Type (0, 0), BuildingBlock: XUDNAN_clean_linker_2, # of connection points: 2
#     Edge 26, Type (0, 0), BuildingBlock: XUDNAN_clean_linker_2, # of connection points: 2
#     Edge 27, Type (0, 0), BuildingBlock: XUDNAN_clean_linker_2, # of connection points: 2
#     Edge 28, Type (0, 0), BuildingBlock: XUDNAN_clean_linker_2, # of connection points: 2
#     Edge 29, Type (0, 0), BuildingBlock: XUDNAN_clean_linker_2, # of connection points: 2
#     Edge 30, Type (0, 0), BuildingBlock: XUDNAN_clean_linker_2, # of connection points: 2
#     Edge 31, Type (0, 0), BuildingBlock: XUDNAN_clean_linker_2, # of connection points: 2
#     Edge 32, Type (0, 0), BuildingBlock: XUDNAN_clean_linker_2, # of connection points: 2
#     Edge 33, Type (0, 0), BuildingBlock: XUDNAN_clean_linker_2, # of connection points: 2
#     Edge 34, Type (0, 0), BuildingBlock: XUDNAN_clean_linker_2, # of connection points: 2
#     Edge 35, Type (0, 0), BuildingBlock: XUDNAN_clean_linker_2, # of connection points: 2
# Relax obj value: 0.260
# Max RMSD: 0.218
# Mean RMSD: 0.217
data_MOF--net-smm--node1-VOLQOD_clean_sbu_1--edge1-XUDNAN_clean_linker_2
_symmetry_space_group_name_H-M    P1
_symmetry_Int_Tables_number       1
_symmetry_cell_setting            triclinic
loop_
_symmetry_equiv_pos_as_xyz
'x, y, z'
_cell_length_a     53.703399
_cell_length_b     54.001733
_cell_length_c     16.914285
_cell_angle_alpha  90.300395
_cell_angle_beta   89.726936
_cell_angle_gamma 120.06659
loop_
_atom_site_label
_atom_site_type_symbol
_atom_site_fract_x
_atom_site_fract_y
_atom_site_fract_z
_atom_type_partial_charge
O0 O 0.96434 0.17022 0.8181 0.0
Zn1 Zn 0.96079 0.16248 0.93541 0.0
O2 O -0.00166 0.17891 0.98507 0.0
Zn3 Zn 0.00606 0.21381 0.03941 0.0
Zn4 Zn 0.02655 0.18833 0.90346 0.0
Zn5 Zn -0.00031 0.15167 0.05796 0.0
O6 O 0.01156 0.21046 0.15432 0.0
O7 O 0.00301 0.16597 0.16983 0.0
O8 O 0.93722 0.17745 0.98773 0.0
O9 O 0.97097 0.21773 0.04232 0.0
O10 O 0.04009 0.2493 -0.00571 0.0
O11 O 0.05432 0.23025 0.90059 0.0
O12 O 0.0496 0.16969 0.92108 0.0
O13 O 0.9387 0.12012 0.95261 0.0
O14 O 0.03304 0.14491 0.03218 0.0
O15 O 0.96248 0.114 0.05115 0.0
C16 C 0.98449 0.17367 0.77135 0.0
C17 C 0.00798 0.1899 0.19834 0.0
C18 C 0.05735 0.25192 0.93872 0.0
C19 C 0.94466 0.20028 0.02689 0.0
C20 C 0.05065 0.1537 0.97417 0.0
C21 C 0.94104 0.10443 0.00449 0.0
O22 O 0.00856 0.1779 0.79681 0.0
O23 O 0.79764 0.83228 0.13189 0.0
Zn24 Zn 0.79732 0.83994 0.01636 0.0
O25 O 0.82806 0.83697 0.96747 0.0
Zn26 Zn 0.81327 0.80096 0.91474 0.0
Zn27 Zn 0.85507 0.84076 0.04775 0.0
Zn28 Zn 0.84662 0.86645 0.89128 0.0
O29 O 0.81675 0.8053 0.79643 0.0
O30 O 0.83331 0.85195 0.78251 0.0
O31 O 0.75883 0.81024 0.97137 0.0
O32 O 0.77142 0.7785 0.93336 0.0
O33 O 0.82882 0.77724 0.95864 0.0
O34 O 0.85184 0.80252 0.06483 0.0
O35 O 0.89575 0.86741 0.01255 0.0
O36 O 0.80502 0.88049 0.00678 0.0
O37 O 0.88837 0.87989 0.89355 0.0
O38 O 0.84017 0.89884 0.91723 0.0
C39 C 0.81887 0.84058 0.17877 0.0
C40 C 0.82328 0.82701 0.75333 0.0
C41 C 0.84182 0.77978 0.02352 0.0
C42 C 0.75235 0.78517 0.94851 0.0
C43 C 0.90511 0.87958 0.94594 0.0
C44 C 0.82312 0.90138 0.96474 0.0
O45 O 0.84451 0.85041 0.15324 0.0
O46 O 0.21361 0.04194 0.73704 0.0
Zn47 Zn 0.20841 0.04507 0.85477 0.0
O48 O 0.18899 0.00743 0.90268 0.0
Zn49 Zn 0.21727 0.00094 0.95357 0.0
Zn50 Zn 0.16943 0.97919 0.82122 0.0
Zn51 Zn 0.1613 0.00497 0.98016 0.0
O52 O 0.2098 -0.00517 0.07041 0.0
O53 O 0.17358 0.00293 0.09041 0.0
O54 O 0.24647 0.06945 0.90821 0.0
O55 O 0.25589 0.03632 0.95142 0.0
O56 O 0.21928 0.96828 0.90352 0.0
O57 O 0.18379 0.95137 0.8159 0.0
O58 O 0.12701 0.9578 0.83841 0.0
O59 O 0.1853 0.06459 0.87345 0.0
O60 O 0.12241 0.97134 0.9592 0.0
O61 O 0.15609 0.03902 0.97138 0.0
C62 C 0.19759 0.02167 0.68998 0.0
C63 C 0.19289 -0.00191 0.11674 0.0
C64 C 0.20424 0.95025 0.8502 0.0
C65 C 0.26325 0.06247 0.94162 0.0
C66 C 0.11159 0.95592 0.89787 0.0
C67 C 0.16601 0.06026 0.92455 0.0
O68 O 0.17791 -0.00248 0.71499 0.0
O69 O 0.7285 0.55227 0.50775 0.0
Zn70 Zn 0.72978 0.54773 0.38936 0.0
O71 O 0.69148 0.5273 0.34434 0.0
Zn72 Zn 0.68325 0.55083 0.27496 0.0
Zn73 Zn 0.66452 0.5136 0.42945 0.0
Zn74 Zn 0.68595 0.4945 0.28475 0.0
O75 O 0.68418 0.54039 0.16114 0.0
O76 O 0.69012 0.50265 0.16855 0.0
O77 O 0.75136 0.58652 0.33869 0.0
O78 O 0.71649 0.59102 0.28063 0.0
O79 O 0.64375 0.54636 0.29687 0.0
O80 O 0.6328 0.52048 0.40642 0.0
O81 O 0.64427 0.47141 0.43632 0.0
O82 O 0.75 0.52499 0.37441 0.0
O83 O 0.64795 0.45972 0.31251 0.0
O84 O 0.71664 0.48605 0.31265 0.0
C85 C 0.70779 0.54424 0.55668 0.0
C86 C 0.68843 0.52159 0.12835 0.0
C87 C 0.62622 0.53238 0.35246 0.0
C88 C 0.74276 0.60118 0.30067 0.0
C89 C 0.63598 0.45322 0.3804 0.0
C90 C 0.74111 0.50011 0.34557 0.0
O91 O 0.68174 0.52993 0.53445 0.0
O92 O 0.43439 0.18698 0.58426 0.0
Zn93 Zn 0.44083 0.19553 0.46695 0.0
O94 O 0.45973 0.17623 0.42252 0.0
Zn95 Zn 0.4301 0.14239 0.37294 0.0
Zn96 Zn 0.47861 0.16738 0.50377 0.0
Zn97 Zn 0.48688 0.19888 0.34447 0.0
O98 O 0.42915 0.14788 0.25486 0.0
O99 O 0.47074 0.18798 0.23568 0.0
O100 O 0.40396 0.18148 0.40491 0.0
O101 O 0.39326 0.13682 0.41685 0.0
O102 O 0.43514 0.10888 0.39719 0.0
O103 O 0.46332 0.12521 0.50343 0.0
O104 O 0.52117 0.1841 0.48067 0.0
O105 O 0.46655 0.23798 0.45151 0.0
O106 O 0.52143 0.19462 0.35359 0.0
O107 O 0.49828 0.23944 0.36369 0.0
C108 C 0.44969 0.18239 0.63314 0.0
C109 C 0.44733 0.16735 0.20937 0.0
C110 C 0.448 0.10521 0.45511 0.0
C111 C 0.38661 0.15498 0.3926 0.0
C112 C 0.53339 0.19059 0.41304 0.0
C113 C 0.48857 0.25196 0.40742 0.0
O114 O 0.46962 0.17768 0.61008 0.0
O115 O 0.79749 0.25821 0.58981 0.0
Zn116 Zn 0.79024 0.25654 0.47067 0.0
O117 O 0.80806 0.29497 0.42874 0.0
Zn118 Zn 0.84389 0.30301 0.38058 0.0
Zn119 Zn 0.81433 0.32104 0.51326 0.0
Zn120 Zn 0.78458 0.29901 0.35089 0.0
O121 O 0.84056 0.30086 0.26093 0.0
O122 O 0.79825 0.29784 0.24127 0.0
O123 O 0.80762 0.23573 0.4118 0.0
O124 O 0.85223 0.27224 0.4092 0.0
O125 O 0.87671 0.34061 0.41848 0.0
O126 O 0.85574 0.35018 0.51818 0.0
O127 O 0.79582 0.34443 0.49474 0.0
O128 O 0.74725 0.23681 0.45029 0.0
O129 O 0.78401 0.33569 0.36783 0.0
O130 O 0.74484 0.26607 0.36174 0.0
C131 C 0.80048 0.27735 0.63979 0.0
C132 C 0.82075 0.29841 0.21476 0.0
C133 C 0.8778 0.35627 0.47651 0.0
C134 C 0.83438 0.24584 0.3981 0.0
C135 C 0.78763 0.35026 0.43061 0.0
C136 C 0.73301 0.2434 0.40317 0.0
O137 O 0.80397 0.3014 0.61778 0.0
O138 O 0.34244 0.82831 0.46466 0.0
Zn139 Zn 0.33537 0.82791 0.58294 0.0
O140 O 0.37121 0.84409 0.64342 0.0
Zn141 Zn 0.37498 0.87451 0.71288 0.0
Zn142 Zn 0.40302 0.85957 0.57173 0.0
Zn143 Zn 0.37347 0.81506 0.70306 0.0
O144 O 0.38284 0.86867 0.82605 0.0
O145 O 0.38056 0.82657 0.81521 0.0
O146 O 0.31306 0.84782 0.61022 0.0
O147 O 0.33785 0.87423 0.71331 0.0
O148 O 0.40431 0.91332 0.67036 0.0
O149 O 0.42078 0.9015 0.56471 0.0
O150 O 0.43277 0.84955 0.59816 0.0
O151 O 0.30939 0.78718 0.6166 0.0
O152 O 0.40712 0.81054 0.67034 0.0
O153 O 0.33553 0.7784 0.70163 0.0
C154 C 0.36564 0.83386 0.42913 0.0
C155 C 0.38391 0.84771 0.8565 0.0
C156 C 0.41984 0.92026 0.60814 0.0
C157 C 0.31597 0.86417 0.66833 0.0
C158 C 0.43018 0.82776 0.63377 0.0
C159 C 0.31207 0.77074 0.66517 0.0
O160 O 0.38951 0.84426 0.46493 0.0
O161 O 0.1234 0.50661 0.86991 0.0
Zn162 Zn 0.12433 0.51878 0.75854 0.0
O163 O 0.14864 0.5089 0.69975 0.0
Zn164 Zn 0.12605 0.47252 0.64959 0.0
Zn165 Zn 0.17627 0.50857 0.77224 0.0
Zn166 Zn 0.16669 0.53699 0.61963 0.0
O167 O 0.13328 0.4743 0.53302 0.0
O168 O 0.15396 0.52108 0.51168 0.0
O169 O 0.08426 0.49829 0.71412 0.0
O170 O 0.08494 0.46158 0.65613 0.0
O171 O 0.13275 0.44294 0.69943 0.0
O172 O 0.16955 0.46843 0.78067 0.0
O173 O 0.21707 0.53512 0.73469 0.0
O174 O 0.14125 0.56162 0.75651 0.0
O175 O 0.20825 0.5509 0.62308 0.0
O176 O 0.1629 0.57135 0.63945 0.0
C177 C 0.14439 0.51021 0.91269 0.0
C178 C 0.1427 0.49551 0.48631 0.0
C179 C 0.15122 0.44475 0.74944 0.0
C180 C 0.07164 0.47451 0.67715 0.0
C181 C 0.2257 0.54963 0.67104 0.0
C182 C 0.15495 0.57917 0.70105 0.0
O183 O 0.16892 0.51716 0.88319 0.0
O184 O 0.54147 0.671 0.4284 0.0
Zn185 Zn 0.53957 0.6783 0.54579 0.0
O186 O 0.50732 0.64561 0.59449 0.0
Zn187 Zn 0.51945 0.62153 0.64543 0.0
Zn188 Zn 0.48129 0.62661 0.50871 0.0
Zn189 Zn 0.48919 0.65676 0.67307 0.0
O190 O 0.50875 0.61488 0.7617 0.0
O191 O 0.49629 0.64787 0.78239 0.0
O192 O 0.57538 0.68529 0.60009 0.0
O193 O 0.56236 0.64287 0.65258 0.0
O194 O 0.50633 0.58567 0.58162 0.0
O195 O 0.48084 0.59025 0.48502 0.0
O196 O 0.4421 0.61947 0.53374 0.0
O197 O 0.53589 0.71342 0.56326 0.0
O198 O 0.44663 0.63758 0.65479 0.0
O199 O 0.50482 0.69851 0.66359 0.0
C200 C 0.52023 0.66063 0.38088 0.0
C201 C 0.50268 0.62971 0.80851 0.0
C202 C 0.49159 0.5767 0.5183 0.0
C203 C 0.58133 0.66873 0.63854 0.0
C204 C 0.43141 0.62452 0.59475 0.0
C205 C 0.52201 0.71816 0.61694 0.0
O206 O 0.4945 0.64805 0.40659 0.0
H207 H 0.0685 0.3042 -0.00378 0.0
H208 H 0.09771 0.26454 0.82321 0.0
H209 H 0.13169 0.3119 0.76913 0.0
H210 H 0.06665 0.35249 0.87268 0.0
H211 H 0.07935 0.38172 0.94222 0.0
H212 H 0.06129 0.3455 0.97734 0.0
H213 H 0.10509 0.35693 0.06579 0.0
H214 H 0.1233 0.39335 0.03088 0.0
H215 H 0.14038 0.372 0.022 0.0
H216 H 0.15507 0.36139 0.71735 0.0
H217 H 0.16783 0.41039 0.67644 0.0
H218 H 0.12595 0.41881 0.88572 0.0
C219 C 0.08263 0.30554 0.94851 0.0
C220 C 0.08035 0.28063 0.91399 0.0
C221 C 0.09898 0.28329 0.85077 0.0
C222 C 0.11852 0.31014 0.81979 0.0
C223 C 0.11955 0.33421 0.85339 0.0
C224 C 0.10241 0.33225 0.9171 0.0
C225 C 0.10561 0.36106 0.93702 0.0
C226 C 0.07651 0.36011 0.93194 0.0
C227 C 0.11942 0.37145 0.01878 0.0
C228 C 0.12591 0.3791 0.87179 0.0
C229 C 0.13405 0.36331 0.8248 0.0
C230 C 0.14972 0.37431 0.75508 0.0
C231 C 0.15684 0.40201 0.73219 0.0
C232 C 0.14848 0.41822 0.77942 0.0
C233 C 0.1334 0.40694 0.85061 0.0
H234 H 0.71562 0.79412 0.85991 0.0
H235 H 0.72483 0.72863 0.981 0.0
H236 H 0.68198 0.6911 0.91186 0.0
H237 H 0.63527 0.75445 0.84925 0.0
H238 H 0.63593 0.76812 0.7518 0.0
H239 H 0.66421 0.78925 0.82097 0.0
H240 H 0.70165 0.79304 0.71718 0.0
H241 H 0.67348 0.77096 0.64889 0.0
H242 H 0.69935 0.76082 0.67826 0.0
H243 H 0.64204 0.66118 0.81946 0.0
H244 H 0.60257 0.64013 0.72243 0.0
H245 H 0.62106 0.72544 0.65696 0.0
C246 C 0.7077 0.77188 0.87449 0.0
C247 C 0.7229 0.76405 0.92663 0.0
C248 C 0.71293 0.73482 0.94204 0.0
C249 C 0.68885 0.71344 0.90263 0.0
C250 C 0.67528 0.7218 0.84785 0.0
C251 C 0.68396 0.75027 0.83468 0.0
C252 C 0.66691 0.75348 0.76866 0.0
C253 C 0.64954 0.76712 0.79953 0.0
C254 C 0.68653 0.77058 0.69917 0.0
C255 C 0.64753 0.72241 0.74648 0.0
C256 C 0.65274 0.70452 0.79274 0.0
C257 C 0.63753 0.67493 0.78324 0.0
C258 C 0.61535 0.66321 0.72747 0.0
C259 C 0.6087 0.68112 0.68209 0.0
C260 C 0.6257 0.71114 0.69013 0.0
H261 H 0.24901 0.94428 0.90209 0.0
H262 H 0.17938 0.91042 0.73133 0.0
H263 H 0.19843 0.88157 0.67069 0.0
H264 H 0.30231 0.95387 0.77163 0.0
H265 H 0.32166 0.94398 0.83931 0.0
H266 H 0.30029 0.95859 0.87662 0.0
H267 H 0.27143 0.914 0.96532 0.0
H268 H 0.29303 0.89939 0.92912 0.0
H269 H 0.25439 0.87881 0.92136 0.0
H270 H 0.22845 0.8607 0.61959 0.0
H271 H 0.2657 0.84803 0.58689 0.0
H272 H 0.31517 0.89659 0.79107 0.0
C273 C 0.23728 0.93028 0.85322 0.0
C274 C 0.21269 0.92961 0.82159 0.0
C275 C 0.19823 0.91122 0.75687 0.0
C276 C 0.20887 0.89475 0.72195 0.0
C277 C 0.23382 0.89678 0.75289 0.0
C278 C 0.24761 0.91384 0.81769 0.0
C279 C 0.27515 0.91401 0.83631 0.0
C280 C 0.30138 0.94441 0.83058 0.0
C281 C 0.27338 0.90075 0.91786 0.0
C282 C 0.27515 0.89502 0.77053 0.0
C283 C 0.25108 0.88502 0.72332 0.0
C284 C 0.24722 0.86811 0.65678 0.0
C285 C 0.26853 0.86115 0.63846 0.0
C286 C 0.29337 0.87132 0.68632 0.0
C287 C 0.29646 0.88837 0.7532 0.0
H288 H 0.35914 0.10303 0.31975 0.0
H289 H 0.36963 0.18811 0.31066 0.0
H290 H 0.34311 0.17558 0.18372 0.0
H291 H 0.3711 0.09755 0.11409 0.0
H292 H 0.34535 0.0599 0.11114 0.0
H293 H 0.36422 0.07613 0.20155 0.0
H294 H 0.31482 0.05655 0.27448 0.0
H295 H 0.29688 0.04034 0.18327 0.0
H296 H 0.28863 0.06468 0.23496 0.0
H297 H 0.31498 0.1528 0.05685 0.0
H298 H 0.28387 0.12057 0.95085 0.0
H299 H 0.29718 0.05297 0.04129 0.0
C300 C 0.35553 0.11902 0.29221 0.0
C301 C 0.36634 0.14653 0.32557 0.0
C302 C 0.36132 0.16679 0.28656 0.0
C303 C 0.34655 0.15997 0.21411 0.0
C304 C 0.33735 0.13299 0.18137 0.0
C305 C 0.34157 0.11286 0.21967 0.0
C306 C 0.33002 0.0855 0.1727 0.0
C307 C 0.35413 0.07946 0.14851 0.0
C308 C 0.30616 0.06028 0.2191 0.0
C309 C 0.3182 0.09311 0.10203 0.0
C310 C 0.32267 0.12059 0.10754 0.0
C311 C 0.31158 0.13134 0.05163 0.0
C312 C 0.29412 0.11294 0.99123 0.0
C313 C 0.28804 0.0842 0.98753 0.0
C314 C 0.30155 0.07485 0.0415 0.0
H315 H 0.88978 0.25915 0.37503 0.0
H316 H 0.80207 0.19685 0.31049 0.0
H317 H 0.82052 0.17802 0.2057 0.0
H318 H 0.91546 0.27712 0.18548 0.0
H319 H 0.95056 0.28183 0.20481 0.0
H320 H 0.93093 0.28731 0.28284 0.0
H321 H 0.93415 0.24973 0.37089 0.0
H322 H 0.95493 0.2452 0.2943 0.0
H323 H 0.92277 0.21459 0.33135 0.0
H324 H 0.84932 0.16944 0.09896 0.0
H325 H 0.88569 0.16856 0.01025 0.0
H326 H 0.95343 0.23903 0.14284 0.0
C327 C 0.87437 0.24095 0.34059 0.0
C328 C 0.84448 0.22939 0.35117 0.0
C329 C 0.82508 0.20579 0.3042 0.0
C330 C 0.83537 0.19516 0.24399 0.0
C331 C 0.86503 0.20833 0.23211 0.0
C332 C 0.88421 0.23039 0.28021 0.0
C333 C 0.91491 0.24222 0.25293 0.0
C334 C 0.92876 0.27399 0.23017 0.0
C335 C 0.93272 0.23764 0.31611 0.0
C336 C 0.91011 0.22368 0.18115 0.0
C337 C 0.88129 0.20412 0.17 0.0
C338 C 0.87195 0.18461 0.10744 0.0
C339 C 0.89274 0.18444 0.05694 0.0
C340 C 0.92244 0.20385 0.06905 0.0
C341 C 0.93095 0.22411 0.13097 0.0
H342 H 0.80278 0.72495 0.9864 0.0
H343 H 0.8725 0.77625 0.14827 0.0
H344 H 0.85766 0.73366 0.23192 0.0
H345 H 0.75328 0.69284 0.12686 0.0
H346 H 0.73304 0.65837 0.07966 0.0
H347 H 0.7534 0.68983 0.02065 0.0
H348 H 0.78155 0.66769 0.95533 0.0
H349 H 0.76058 0.63562 0.01227 0.0
H350 H 0.79931 0.65406 0.01671 0.0
H351 H 0.83057 0.68717 0.30772 0.0
H352 H 0.79409 0.64105 0.36702 0.0
H353 H 0.7402 0.62342 0.16035 0.0
C354 C 0.81587 0.727 0.03724 0.0
C355 C 0.83902 0.75381 0.06033 0.0
C356 C 0.85489 0.75579 0.12906 0.0
C357 C 0.84658 0.73173 0.17697 0.0
C358 C 0.82234 0.70602 0.15525 0.0
C359 C 0.8074 0.70351 0.08645 0.0
C360 C 0.77966 0.67518 0.082 0.0
C361 C 0.75332 0.67934 0.07705 0.0
C362 C 0.78033 0.65707 0.01247 0.0
C363 C 0.78076 0.66255 0.16028 0.0
C364 C 0.80579 0.68021 0.20106 0.0
C365 C 0.81102 0.67308 0.27594 0.0
C366 C 0.79019 0.64704 0.30937 0.0
C367 C 0.76426 0.6291 0.26867 0.0
C368 C 0.75963 0.63704 0.19336 0.0
H369 H 0.0434 0.43209 0.56935 0.0
H370 H 0.03211 0.48965 0.7264 0.0
H371 H 0.98179 0.46879 0.68046 0.0
H372 H -0.00023 0.43367 0.40766 0.0
H373 H 0.98579 0.39643 0.38401 0.0
H374 H 0.02125 0.41721 0.42579 0.0
H375 H 0.00712 0.38054 0.53972 0.0
H376 H 0.97179 0.35958 0.49797 0.0
H377 H 0.97579 0.37178 0.59898 0.0
H378 H 0.93201 0.43893 0.62502 0.0
H379 H 0.88622 0.40178 0.56715 0.0
H380 H 0.93151 0.36536 0.44372 0.0
C381 C 0.03046 0.44045 0.59424 0.0
C382 C 0.04155 0.46237 0.65185 0.0
C383 C 0.02395 0.47281 0.68227 0.0
C384 C -0.00453 0.46122 0.65627 0.0
C385 C 0.98529 0.4396 0.59925 0.0
C386 C 0.00232 0.42941 0.56855 0.0
C387 C 0.98609 0.40523 0.5106 0.0
C388 C -0.001 0.41366 0.42707 0.0
C389 C 0.98514 0.37766 0.53854 0.0
C390 C 0.95686 0.40271 0.51515 0.0
C391 C 0.95687 0.42288 0.566 0.0
C392 C 0.93181 0.42331 0.58426 0.0
C393 C 0.90595 0.40211 0.55126 0.0
C394 C 0.90545 0.38084 0.50072 0.0
C395 C 0.93135 0.38168 0.48091 0.0
H396 H 0.51907 0.58835 0.38097 0.0
H397 H 0.47628 0.52165 0.55503 0.0
H398 H 0.4977 0.49489 0.49466 0.0
H399 H 0.52841 0.54309 0.21292 0.0
H400 H 0.56414 0.57249 0.19428 0.0
H401 H 0.53584 0.57941 0.22349 0.0
H402 H 0.56741 0.61067 0.33902 0.0
H403 H 0.59545 0.60355 0.31175 0.0
H404 H 0.58068 0.59541 0.41042 0.0
H405 H 0.53276 0.4832 0.4463 0.0
H406 H 0.57996 0.48816 0.42181 0.0
H407 H 0.60596 0.56577 0.28829 0.0
C408 C 0.51279 0.56713 0.40244 0.0
C409 C 0.49538 0.55631 0.47036 0.0
C410 C 0.48888 0.52959 0.50133 0.0
C411 C 0.50096 0.51434 0.46715 0.0
C412 C 0.52001 0.52663 0.40369 0.0
C413 C 0.52592 0.55253 0.37135 0.0
C414 C 0.55265 0.56507 0.31964 0.0
C415 C 0.54478 0.56499 0.23239 0.0
C416 C 0.57536 0.59542 0.34697 0.0
C417 C 0.56247 0.54367 0.33417 0.0
C418 C 0.54249 0.52097 0.37936 0.0
C419 C 0.54821 0.50046 0.4095 0.0
C420 C 0.57532 0.50375 0.39612 0.0
C421 C 0.59671 0.52766 0.35402 0.0
C422 C 0.58982 0.54719 0.31982 0.0
H423 H 0.43963 0.07569 0.59142 0.0
H424 H 0.45387 0.07341 0.33962 0.0
H425 H 0.45541 0.0287 0.35673 0.0
H426 H 0.48265 0.04506 0.66052 0.0
H427 H 0.45715 0.02389 0.73616 0.0
H428 H 0.46032 0.05732 0.70604 0.0
H429 H 0.40579 0.03149 0.67395 0.0
H430 H 0.40242 -0.00184 0.70523 0.0
H431 H 0.3908 0.00118 0.60774 0.0
H432 H 0.45507 0.98478 0.40067 0.0
H433 H 0.4433 0.93908 0.46207 0.0
H434 H 0.42523 0.96778 0.6844 0.0
C435 C 0.44325 0.06576 0.54019 0.0
C436 C 0.44685 0.07777 0.46437 0.0
C437 C 0.45099 0.06422 0.39805 0.0
C438 C 0.45225 0.03914 0.4074 0.0
C439 C 0.4489 0.02789 0.48322 0.0
C440 C 0.44381 0.04036 0.5482 0.0
C441 C 0.43768 0.02222 0.62145 0.0
C442 C 0.46084 0.03808 0.68477 0.0
C443 C 0.40737 0.01269 0.65395 0.0
C444 C 0.43963 -0.00267 0.58714 0.0
C445 C 0.44697 0.0015 0.50791 0.0
C446 C 0.44931 0.98122 0.46266 0.0
C447 C 0.44267 0.95535 0.49836 0.0
C448 C 0.43314 0.94977 0.57806 0.0
C449 C 0.43253 0.97145 0.62355 0.0
H450 H 0.11973 0.05355 0.01122 0.0
H451 H 0.18554 0.11103 0.84655 0.0
H452 H 0.16481 0.14272 0.84977 0.0
H453 H 0.06265 0.05905 0.9284 0.0
H454 H 0.04558 0.05778 0.02151 0.0
H455 H 0.06684 0.04067 0.01145 0.0
H456 H 0.09834 0.07013 0.12996 0.0
H457 H 0.07716 0.08736 0.14048 0.0
H458 H 0.11562 0.10862 0.12816 0.0
H459 H 0.13578 0.16644 0.8641 0.0
H460 H 0.09965 0.18093 0.88685 0.0
H461 H 0.05227 0.10824 0.04279 0.0
C462 C 0.13005 0.07299 0.97657 0.0
C463 C 0.15435 0.07987 0.92877 0.0
C464 C 0.16694 0.10532 0.8836 0.0
C465 C 0.15539 0.1235 0.88526 0.0
C466 C 0.13132 0.11594 0.93245 0.0
C467 C 0.11876 0.09134 0.97734 0.0
C468 C 0.09212 0.08747 0.0198 0.0
C469 C 0.06521 0.0596 -0.00631 0.0
C470 C 0.09606 0.08847 0.10995 0.0
C471 C 0.09141 0.11356 0.99061 0.0
C472 C 0.11437 0.12973 0.94075 0.0
C473 C 0.11784 0.15412 0.90348 0.0
C474 C 0.0971 0.16208 0.91664 0.0
C475 C 0.07312 0.14569 0.96666 0.0
C476 C 0.07051 0.12134 0.00503 0.0
H477 H 0.8424 0.94555 0.86096 0.0
H478 H 0.81788 0.92282 0.10589 0.0
H479 H 0.84084 0.974 0.14111 0.0
H480 H 0.90847 -0.00109 0.89099 0.0
H481 H 0.90991 0.02298 0.81531 0.0
H482 H 0.88586 0.98518 0.80479 0.0
H483 H 0.84235 -0.00695 0.7903 0.0
H484 H 0.86637 0.03113 0.79846 0.0
H485 H 0.83596 0.01341 0.86425 0.0
H486 H 0.87701 0.02585 0.15434 0.0
H487 H 0.91623 0.07612 0.14075 0.0
H488 H 0.91417 0.06594 0.8862 0.0
C489 C 0.84071 0.95141 0.92127 0.0
C490 C 0.82836 0.93041 0.98071 0.0
C491 C 0.82688 0.93864 0.05934 0.0
C492 C 0.84002 0.96766 0.07993 0.0
C493 C 0.8537 0.98797 0.0207 0.0
C494 C 0.85322 0.98023 0.94239 0.0
C495 C 0.87164 0.00604 0.89126 0.0
C496 C 0.89536 0.00308 0.84813 0.0
C497 C 0.85296 0.01122 0.83261 0.0
C498 C 0.88412 0.02919 0.95378 0.0
C499 C 0.87346 0.01838 0.02807 0.0
C500 C 0.88472 0.03484 0.09628 0.0
C501 C 0.90716 0.06316 0.08817 0.0
C502 C 0.91773 0.0747 0.01244 0.0
C503 C 0.90585 0.05764 0.94452 0.0
H504 H 0.9514 0.89858 0.04531 0.0
H505 H 0.92666 0.88396 0.7979 0.0
H506 H 0.97619 0.89728 0.76078 0.0
H507 H 0.02029 0.96105 0.01081 0.0
H508 H 0.03794 0.95303 0.08865 0.0
H509 H 9e-05 0.94087 0.09587 0.0
H510 H -0.01034 0.88883 0.11385 0.0
H511 H 0.02748 0.90083 0.10522 0.0
H512 H 0.00209 0.87326 0.04016 0.0
H513 H 0.02755 0.91121 0.75008 0.0
H514 H 0.08 0.93271 0.76397 0.0
H515 H 0.07212 0.94058 0.01746 0.0
C516 C 0.95648 0.89825 0.98341 0.0
C517 C 0.9353 0.8902 0.92451 0.0
C518 C 0.94269 0.89027 0.84395 0.0
C519 C 0.97065 0.89748 0.82229 0.0
C520 C -0.00907 0.90485 0.88182 0.0
C521 C 0.98443 0.90588 0.96052 0.0
C522 C 0.01081 0.9165 0.01198 0.0
C523 C 0.01769 0.94453 0.05427 0.0
C524 C 0.00729 0.89348 0.0713 0.0
C525 C 0.03311 0.92143 0.94967 0.0
C526 C 0.02104 0.91401 0.87526 0.0
C527 C 0.03735 0.91714 0.80797 0.0
C528 C 0.06709 0.92922 0.81657 0.0
C529 C 0.0801 0.9384 0.89176 0.0
C530 C 0.06275 0.93374 0.95927 0.0
H531 H 0.73576 0.45404 0.26465 0.0
H532 H 0.78249 0.5122 0.45722 0.0
H533 H 0.80203 0.48117 0.49532 0.0
H534 H 0.71351 0.39192 0.36557 0.0
H535 H 0.71735 0.37196 0.28537 0.0
H536 H 0.71076 0.4008 0.26459 0.0
H537 H 0.7567 0.42569 0.17773 0.0
H538 H 0.76314 0.39655 0.19663 0.0
H539 H 0.79067 0.43281 0.21816 0.0
H540 H 0.80978 0.44023 0.5249 0.0
H541 H 0.81081 0.39522 0.53392 0.0
H542 H 0.75966 0.36429 0.31997 0.0
C543 C 0.75077 0.4607 0.31346 0.0
C544 C 0.75764 0.48547 0.35811 0.0
C545 C 0.77719 0.49343 0.42182 0.0
C546 C 0.78826 0.47587 0.44409 0.0
C547 C 0.77986 0.45082 0.40112 0.0
C548 C 0.76209 0.44358 0.33603 0.0
C549 C 0.75484 0.41467 0.30285 0.0
C550 C 0.72218 0.39361 0.30476 0.0
C551 C 0.76708 0.41762 0.21887 0.0
C552 C 0.77049 0.40627 0.36121 0.0
C553 C 0.78481 0.42742 0.41734 0.0
C554 C 0.79914 0.42375 0.48045 0.0
C555 C 0.79931 0.39798 0.48547 0.0
C556 C 0.78533 0.37629 0.42748 0.0
C557 C 0.77073 0.38058 0.36471 0.0
H558 H 0.6173 0.40477 0.29029 0.0
H559 H 0.59745 0.43764 0.50178 0.0
H560 H 0.55461 0.39051 0.52481 0.0
H561 H 0.54312 0.35721 0.22793 0.0
H562 H 0.55031 0.32961 0.19491 0.0
H563 H 0.57835 0.3666 0.19138 0.0
H564 H 0.61136 0.35491 0.27572 0.0
H565 H 0.58354 0.31792 0.27894 0.0
H566 H 0.59853 0.33732 0.36965 0.0
H567 H 0.5151 0.33955 0.52819 0.0
H568 H 0.48378 0.28713 0.5166 0.0
H569 H 0.52994 0.28778 0.30424 0.0
C570 C 0.60381 0.4021 0.34104 0.0
C571 C 0.61069 0.42481 0.39414 0.0
C572 C 0.59269 0.42044 0.46046 0.0
C573 C 0.56816 0.39384 0.47379 0.0
C574 C 0.56198 0.37188 0.42035 0.0
C575 C 0.57936 0.37564 0.35561 0.0
C576 C 0.56894 0.34806 0.31016 0.0
C577 C 0.55962 0.35053 0.22612 0.0
C578 C 0.59196 0.33903 0.30859 0.0
C579 C 0.54338 0.32815 0.36045 0.0
C580 C 0.53943 0.34235 0.42302 0.0
C581 C 0.5178 0.32816 0.47913 0.0
C582 C 0.5001 0.29845 0.47198 0.0
C583 C 0.50451 0.28343 0.40972 0.0
C584 C 0.52604 0.29865 0.35257 0.0
H585 H 0.57473 0.20013 0.52404 0.0
H586 H 0.55492 0.18419 0.27389 0.0
H587 H 0.60168 0.1876 0.24985 0.0
H588 H 0.64593 0.25304 0.49821 0.0
H589 H 0.65997 0.24333 0.58164 0.0
H590 H 0.62313 0.23508 0.5819 0.0
H591 H 0.60645 0.18164 0.60619 0.0
H592 H 0.64336 0.18975 0.60527 0.0
H593 H 0.61763 0.16302 0.53899 0.0
H594 H 0.6517 0.19877 0.24821 0.0
H595 H 0.70394 0.22001 0.26874 0.0
H596 H 0.69269 0.22832 0.51934 0.0
C597 C 0.58007 0.1968 0.4646 0.0
C598 C 0.56121 0.19186 0.40089 0.0
C599 C 0.56911 0.18815 0.32358 0.0
C600 C 0.59549 0.18973 0.30938 0.0
C601 C 0.61377 0.19497 0.37306 0.0
C602 C 0.60658 0.19857 0.44915 0.0
C603 C 0.63161 0.20724 0.50511 0.0
C604 C 0.64069 0.2364 0.54394 0.0
C605 C 0.62432 0.18402 0.56759 0.0
C606 C 0.65427 0.20909 0.44778 0.0
C607 C 0.64323 0.20133 0.37221 0.0
C608 C 0.66051 0.20419 0.3073 0.0
C609 C 0.69005 0.21621 0.3194 0.0
C610 C 0.70187 0.22497 0.39572 0.0
C611 C 0.68377 0.22066 0.46108 0.0
H612 H 0.501 0.73651 0.73495 0.0
H613 H 0.54325 0.7613 0.50638 0.0
H614 H 0.53256 0.80074 0.50051 0.0
H615 H 0.44388 0.73878 0.68395 0.0
H616 H 0.43754 0.75204 0.77542 0.0
H617 H 0.45677 0.73288 0.77621 0.0
H618 H 0.50011 0.77545 0.84548 0.0
H619 H 0.48072 0.79472 0.84666 0.0
H620 H 0.51609 0.8107 0.80294 0.0
H621 H 0.50778 0.82933 0.50507 0.0
H622 H 0.47132 0.84418 0.51884 0.0
H623 H 0.44244 0.79773 0.73971 0.0
C624 C 0.50905 0.75092 0.685 0.0
C625 C 0.52281 0.74582 0.62096 0.0
C626 C 0.53282 0.76496 0.55638 0.0
C627 C 0.52688 0.78745 0.55269 0.0
C628 C 0.51128 0.79054 0.61441 0.0
C629 C 0.50285 0.77296 0.68 0.0
C630 C 0.48192 0.77686 0.73123 0.0
C631 C 0.45336 0.74847 0.74221 0.0
C632 C 0.49554 0.79024 0.81132 0.0
C633 C 0.47803 0.79766 0.6811 0.0
C634 C 0.49593 0.80621 0.61558 0.0
C635 C 0.49419 0.82334 0.55708 0.0
C636 C 0.47334 0.83153 0.56519 0.0
C637 C 0.45409 0.8219 0.63021 0.0
C638 C 0.45695 0.80534 0.68953 0.0
H639 H 0.17255 0.62102 0.59011 0.0
H640 H 0.16943 0.60695 0.843 0.0
H641 H 0.20671 0.65738 0.86267 0.0
H642 H 0.2429 0.65898 0.57131 0.0
H643 H 0.24546 0.68469 0.49943 0.0
H644 H 0.21344 0.6502 0.50481 0.0
H645 H 0.18196 0.67356 0.52583 0.0
H646 H 0.21378 0.70834 0.51748 0.0
H647 H 0.19091 0.69972 0.60331 0.0
H648 H 0.25247 0.70376 0.85101 0.0
H649 H 0.29713 0.7476 0.81185 0.0
H650 H 0.26918 0.73319 0.56748 0.0
C651 C 0.17865 0.62899 0.64992 0.0
C652 C 0.16815 0.61018 0.715 0.0
C653 C 0.17691 0.6211 0.7924 0.0
C654 C 0.19828 0.64969 0.80409 0.0
C655 C 0.20993 0.66711 0.73795 0.0
C656 C 0.19968 0.65753 0.66254 0.0
C657 C 0.2177 0.67962 0.60084 0.0
C658 C 0.23063 0.66764 0.54062 0.0
C659 C 0.20004 0.69099 0.55944 0.0
C660 C 0.24073 0.7023 0.65283 0.0
C661 C 0.23585 0.69469 0.73174 0.0
C662 C 0.25602 0.71046 0.78983 0.0
C663 C 0.28147 0.73503 0.76693 0.0
C664 C 0.28633 0.74367 0.68684 0.0
C665 C 0.26565 0.72718 0.62926 0.0
H666 H 0.39365 0.60623 0.7191 0.0
H667 H 0.40087 0.62408 0.4675 0.0
H668 H 0.3496 0.61009 0.46335 0.0
H669 H 0.32518 0.5433 0.70783 0.0
H670 H 0.31208 0.54915 0.80034 0.0
H671 H 0.35006 0.56325 0.78592 0.0
H672 H 0.35976 0.61414 0.8205 0.0
H673 H 0.32176 0.60018 0.83501 0.0
H674 H 0.34148 0.62896 0.7662 0.0
H675 H 0.29853 0.59366 0.48452 0.0
H676 H 0.24817 0.57138 0.52671 0.0
H677 H 0.27236 0.56097 0.764 0.0
C678 C 0.3844 0.60746 0.66354 0.0
C679 C 0.40099 0.6163 0.59365 0.0
C680 C 0.3883 0.61723 0.52149 0.0
C681 C 0.35935 0.60955 0.51868 0.0
C682 C 0.34346 0.60072 0.58838 0.0
C683 C 0.35531 0.5993 0.65933 0.0
C684 C 0.33273 0.58688 0.72395 0.0
C685 C 0.32985 0.55899 0.75638 0.0
C686 C 0.33933 0.60886 0.79033 0.0
C687 C 0.30633 0.58124 0.6777 0.0
C688 C 0.31325 0.58991 0.60005 0.0
C689 C 0.29275 0.5868 0.54515 0.0
C690 C 0.26418 0.57412 0.56992 0.0
C691 C 0.25632 0.56436 0.64873 0.0
C692 C 0.27774 0.56817 0.70344 0.0
H693 H 0.00515 0.15383 0.65531 0.0
H694 H 0.95781 0.19838 0.69566 0.0
H695 H 0.95977 0.20832 0.55231 0.0
H696 H 0.05213 0.19864 0.50916 0.0
H697 H 0.0513 0.1705 0.44939 0.0
H698 H 0.04501 0.16554 0.55427 0.0
H699 H -0.00403 0.11955 0.52995 0.0
H700 H 0.00237 0.12401 0.42497 0.0
H701 H 0.96995 0.121 0.46611 0.0
H702 H 0.97187 0.21801 0.40861 0.0
H703 H 0.985 0.21919 0.26823 0.0
H704 H 0.02104 0.16487 0.31976 0.0
C705 C -0.00523 0.16524 0.63355 0.0
C706 C 0.98137 0.17544 0.68582 0.0
C707 C 0.96793 0.19022 0.65596 0.0
C708 C 0.96916 0.19614 0.575 0.0
C709 C 0.98336 0.18655 0.52523 0.0
C710 C -0.00479 0.17072 0.55294 0.0
C711 C 0.00881 0.16251 0.48685 0.0
C712 C 0.04123 0.17506 0.50079 0.0
C713 C -0.00666 0.12983 0.47635 0.0
C714 C 0.00331 0.17675 0.41777 0.0
C715 C -0.01102 0.19085 0.44147 0.0
C716 C 0.98272 0.20673 0.38907 0.0
C717 C -0.00942 0.20754 0.30976 0.0
C718 C 0.00409 0.19216 0.2836 0.0
C719 C 0.01069 0.17675 0.33842 0.0
H720 H 0.85697 0.86275 0.63704 0.0
H721 H 0.77757 0.78307 0.67859 0.0
H722 H 0.76663 0.77911 0.53543 0.0
H723 H 0.83187 0.89019 0.48509 0.0
H724 H 0.86449 0.90475 0.42743 0.0
H725 H 0.86585 0.90158 0.53306 0.0
H726 H 0.89103 0.87161 0.51506 0.0
H727 H 0.89008 0.87501 0.40943 0.0
H728 H 0.87451 0.84004 0.45357 0.0
H729 H 0.76324 0.78559 0.3899 0.0
H730 H 0.77085 0.79782 0.24805 0.0
H731 H 0.85443 0.87126 0.30077 0.0
C732 C 0.83736 0.84443 0.6157 0.0
C733 C 0.81799 0.82324 0.66805 0.0
C734 C 0.79268 0.79937 0.63871 0.0
C735 C 0.78623 0.79709 0.55789 0.0
C736 C 0.80562 0.81861 0.50776 0.0
C737 C 0.83095 0.84149 0.53523 0.0
C738 C 0.84877 0.86099 0.46861 0.0
C739 C 0.85298 0.89116 0.47921 0.0
C740 C 0.87781 0.86195 0.46123 0.0
C741 C 0.82939 0.84561 0.3993 0.0
C742 C 0.80439 0.8215 0.42333 0.0
C743 C 0.78282 0.80426 0.37021 0.0
C744 C 0.78725 0.8115 0.29 0.0
C745 C 0.81324 0.83543 0.2639 0.0
C746 C 0.83444 0.85279 0.31935 0.0
H747 H 0.15832 0.00543 0.57199 0.0
H748 H 0.24958 0.0428 0.61718 0.0
H749 H 0.25804 0.0387 0.47471 0.0
H750 H 0.15108 0.95536 0.42798 0.0
H751 H 0.1265 0.95998 0.36602 0.0
H752 H 0.12762 0.96676 0.47066 0.0
H753 H 0.13758 0.01819 0.44427 0.0
H754 H 0.13579 0.01134 0.33953 0.0
H755 H 0.16721 0.04159 0.3812 0.0
H756 H 0.25521 0.02497 0.33119 0.0
H757 H 0.24367 0.0133 0.18975 0.0
H758 H 0.15481 0.9889 0.23694 0.0
C759 C 0.18014 0.01328 0.55134 0.0
C760 C 0.20338 0.02449 0.60472 0.0
C761 C 0.23164 0.03451 0.57647 0.0
C762 C 0.23655 0.03196 0.49608 0.0
C763 C 0.21299 0.01992 0.44517 0.0
C764 C 0.18548 0.01159 0.47123 0.0
C765 C 0.16402 0.00013 0.40411 0.0
C766 C 0.14095 0.9687 0.41807 0.0
C767 C 0.15036 0.01894 0.39153 0.0
C768 C 0.18369 0.0029 0.3363 0.0
C769 C 0.21173 0.01382 0.36152 0.0
C770 C 0.23349 0.01702 0.31028 0.0
C771 C 0.22667 0.01005 0.23038 0.0
C772 C 0.19844 0.00047 0.2025 0.0
C773 C 0.17662 -0.00359 0.25656 0.0
H774 H 0.67679 0.5518 0.67337 0.0
H775 H 0.7511 0.54187 0.63205 0.0
H776 H 0.7548 0.53604 0.77546 0.0
H777 H 0.70413 0.59212 0.86501 0.0
H778 H 0.66837 0.57558 0.90634 0.0
H779 H 0.67361 0.58191 0.80146 0.0
H780 H 0.63778 0.52815 0.77585 0.0
H781 H 0.63299 0.52149 0.88048 0.0
H782 H 0.64447 0.50161 0.81928 0.0
H783 H 0.74516 0.52298 0.9182 0.0
H784 H 0.72922 0.51352 0.05756 0.0
H785 H 0.66412 0.5365 0.00925 0.0
C786 C 0.69433 0.54926 0.69497 0.0
C787 C 0.71371 0.54732 0.64208 0.0
C788 C 0.73629 0.54378 0.67191 0.0
C789 C 0.73841 0.54022 0.7531 0.0
C790 C 0.71825 0.54105 0.80346 0.0
C791 C 0.69723 0.54646 0.77604 0.0
C792 C 0.67806 0.54596 0.84276 0.0
C793 C 0.68125 0.57566 0.85459 0.0
C794 C 0.64647 0.52292 0.82871 0.0
C795 C 0.69082 0.53819 0.91132 0.0
C796 C 0.71381 0.53521 0.88714 0.0
C797 C 0.72764 0.5259 0.93833 0.0
C798 C 0.71823 0.52025 0.01696 0.0
C799 C 0.69555 0.52438 0.04367 0.0
C800 C 0.68168 0.53343 0.99016 0.0
H801 H 0.48722 0.19331 0.75357 0.0
H802 H 0.39818 0.16746 0.70526 0.0
H803 H 0.38727 0.1601 0.84865 0.0
H804 H 0.47472 0.14424 0.90632 0.0
H805 H 0.50518 0.16896 0.96477 0.0
H806 H 0.50597 0.17293 0.85904 0.0
H807 H 0.51653 0.22509 0.8754 0.0
H808 H 0.51613 0.22141 0.98122 0.0
H809 H 0.49281 0.23209 0.93507 0.0
H810 H 0.38584 0.15239 -0.00234 0.0
H811 H 0.39547 0.15056 0.14018 0.0
H812 H 0.48566 0.1835 0.08829 0.0
C813 C 0.46546 0.18633 0.77316 0.0
C814 C 0.4435 0.18084 0.71858 0.0
C815 C 0.41534 0.17194 0.7464 0.0
C816 C 0.40893 0.16755 0.82753 0.0
C817 C 0.43104 0.17261 0.87969 0.0
C818 C 0.45884 0.1823 0.85357 0.0
C819 C 0.4789 0.18655 0.92119 0.0
C820 C 0.49195 0.167 0.91226 0.0
C821 C 0.50248 0.21816 0.92865 0.0
C822 C 0.45802 0.17739 0.9896 0.0
C823 C 0.43044 0.16914 0.96471 0.0
C824 C 0.40742 0.15901 0.01767 0.0
C825 C 0.41294 0.15775 0.09818 0.0
C826 C 0.44116 0.16672 0.12455 0.0
C827 C 0.46389 0.17663 0.06949 0.0
H828 H 0.78335 0.29879 0.76056 0.0
H829 H 0.82347 0.24786 0.71129 0.0
H830 H 0.83418 0.24837 0.85401 0.0
H831 H 0.83148 0.34345 0.90542 0.0
H832 H 0.80456 0.34446 0.96721 0.0
H833 H 0.79873 0.33875 0.86238 0.0
H834 H 0.75078 0.2916 0.88712 0.0
H835 H 0.75616 0.29745 -0.0079 0.0
H836 H 0.75059 0.26445 0.94911 0.0
H837 H 0.84462 0.25894 0.00131 0.0
H838 H 0.84702 0.27189 0.14297 0.0
H839 H 0.79752 0.31348 0.09421 0.0
C840 C 0.79396 0.28732 0.78001 0.0
C841 C 0.8026 0.27327 0.72521 0.0
C842 C 0.81641 0.25848 0.75265 0.0
C843 C 0.82279 0.25889 0.83337 0.0
C844 C 0.81475 0.27377 0.88561 0.0
C845 C 0.80001 0.28712 0.8601 0.0
C846 C 0.79348 0.30144 0.92769 0.0
C847 C 0.80793 0.33395 0.91487 0.0
C848 C 0.76081 0.28792 0.93972 0.0
C849 C 0.80721 0.29448 -0.00468 0.0
C850 C 0.8197 0.27881 0.96997 0.0
C851 C 0.83461 0.27091 0.02185 0.0
C852 C 0.8361 0.27858 0.10196 0.0
C853 C 0.82241 0.29363 0.12932 0.0
C854 C 0.80804 0.30183 0.07496 0.0
H855 H 0.34511 0.85269 0.30985 0.0
H856 H 0.389 0.80551 0.35918 0.0
H857 H 0.39903 0.80476 0.21701 0.0
H858 H 0.31426 0.81858 0.11603 0.0
H859 H 0.32016 0.85166 0.07368 0.0
H860 H 0.31337 0.84536 0.17814 0.0
H861 H 0.36074 0.89266 0.20682 0.0
H862 H 0.36804 0.8987 0.10253 0.0
H863 H 0.39416 0.8977 0.16698 0.0
H864 H 0.40721 0.8117 0.07394 0.0
H865 H 0.40972 0.82254 0.93186 0.0
H866 H 0.36267 0.86741 0.97342 0.0
C867 C 0.35592 0.84139 0.28992 0.0
C868 C 0.36591 0.82868 0.34436 0.0
C869 C 0.38093 0.81497 0.31749 0.0
C870 C 0.38683 0.81458 0.23722 0.0
C871 C 0.37778 0.82828 0.18507 0.0
C872 C 0.36239 0.84117 0.20975 0.0
C873 C 0.35668 0.85567 0.14138 0.0
C874 C 0.32419 0.84199 0.12642 0.0
C875 C 0.37075 0.8881 0.1553 0.0
C876 C 0.37147 0.84904 0.07492 0.0
C877 C 0.38342 0.83317 0.10177 0.0
C878 C 0.3979 0.82404 0.05191 0.0
C879 C 0.39935 0.83042 0.97159 0.0
C880 C 0.38659 0.84596 0.94226 0.0
C881 C 0.37305 0.85596 -0.00521 0.0
H882 H 0.18109 0.53748 0.03516 0.0
H883 H 0.09626 0.46683 0.97856 0.0
H884 H 0.08815 0.45284 0.11932 0.0
H885 H 0.19856 0.50295 0.19082 0.0
H886 H 0.2158 0.5346 0.25184 0.0
H887 H 0.21586 0.53788 0.14588 0.0
H888 H 0.19257 0.56974 0.15942 0.0
H889 H 0.19271 0.56678 0.26532 0.0
H890 H 0.15953 0.55669 0.21446 0.0
H891 H 0.08962 0.44621 0.26509 0.0
H892 H 0.09775 0.45146 0.40965 0.0
H893 H 0.17984 0.52867 0.37163 0.0
C894 C 0.16089 0.51904 0.05269 0.0
C895 C 0.13929 0.50313 -0.0032 0.0
C896 C 0.11293 0.47934 0.02122 0.0
C897 C 0.10826 0.4711 0.10063 0.0
C898 C 0.13002 0.48717 0.15453 0.0
C899 C 0.1556 0.51094 0.13194 0.0
C900 C 0.17454 0.5258 0.2024 0.0
C901 C 0.20286 0.52526 0.19741 0.0
C902 C 0.18015 0.55657 0.21089 0.0
C903 C 0.15549 0.5068 0.26809 0.0
C904 C 0.1302 0.48427 0.23913 0.0
C905 C 0.10929 0.46378 0.28864 0.0
C906 C 0.11413 0.46683 0.37031 0.0
C907 C 0.13932 0.49049 0.40093 0.0
C908 C 0.16035 0.51048 0.34924 0.0
H909 H 0.48771 0.66244 0.26018 0.0
H910 H 0.56178 0.65322 0.30964 0.0
H911 H 0.56353 0.64107 0.16906 0.0
H912 H 0.45367 0.6061 0.12228 0.0
H913 H 0.44201 0.62475 0.05769 0.0
H914 H 0.4469 0.63329 0.16157 0.0
H915 H 0.48244 0.6866 0.12976 0.0
H916 H 0.47713 0.67835 0.02579 0.0
H917 H 0.51294 0.69577 0.06645 0.0
H918 H 0.55454 0.62638 0.02442 0.0
H919 H 0.5412 0.61873 0.88286 0.0
H920 H 0.47503 0.64076 0.92759 0.0
C921 C 0.50462 0.65838 0.24099 0.0
C922 C 0.52466 0.6588 0.2954 0.0
C923 C 0.54644 0.65331 0.26848 0.0
C924 C 0.54741 0.64613 0.18902 0.0
C925 C 0.52677 0.64512 0.13722 0.0
C926 C 0.50627 0.65183 0.16177 0.0
C927 C 0.48708 0.65004 0.09413 0.0
C928 C 0.45555 0.62718 0.1099 0.0
C929 C 0.49009 0.67944 0.07808 0.0
C930 C 0.49981 0.64104 0.02765 0.0
C931 C 0.52237 0.63782 0.05385 0.0
C932 C 0.53706 0.62906 0.00317 0.0
C933 C 0.52913 0.62446 0.9231 0.0
C934 C 0.50704 0.62908 0.89448 0.0
C935 C 0.49197 0.63703 0.94791 0.0
loop_
_geom_bond_atom_site_label_1
_geom_bond_atom_site_label_2
_geom_bond_distance
_geom_bond_site_symmetry_2
_ccdc_geom_bond_type
O0 Zn1 1.953 . S
O0 C16 1.226 1_655 S
Zn1 O0 1.953 . S
Zn1 O2 1.949 1_656 S
Zn1 O8 1.923 . S
Zn1 O13 1.924 . S
O2 Zn1 1.949 1_454 S
O2 Zn3 1.923 . S
O2 Zn4 1.950 1_554 S
O2 Zn5 1.945 . S
Zn3 O2 1.923 . S
Zn3 O6 1.933 . S
Zn3 O9 1.941 1_455 S
Zn3 O10 1.965 . S
Zn4 O2 1.950 1_556 S
Zn4 O11 1.938 . S
Zn4 O12 1.906 . S
Zn4 O22 1.953 . S
Zn5 O2 1.945 . S
Zn5 O7 1.932 . S
Zn5 O14 1.977 . S
Zn5 O15 1.910 1_455 S
O6 Zn3 1.933 . S
O6 C17 1.226 . S
O7 Zn5 1.932 . S
O7 C17 1.307 . S
O8 Zn1 1.923 . S
O8 C19 1.245 1_556 S
O9 Zn3 1.941 1_655 S
O9 C19 1.283 . S
O10 Zn3 1.965 . S
O10 C18 1.303 1_554 S
O11 Zn4 1.938 . S
O11 C18 1.247 . S
O12 Zn4 1.906 . S
O12 C20 1.304 1_556 S
O13 Zn1 1.924 . S
O13 C21 1.311 1_556 S
O14 Zn5 1.977 . S
O14 C20 1.272 . S
O15 Zn5 1.910 1_655 S
O15 C21 1.231 . S
C16 O0 1.226 1_455 S
C16 O22 1.298 . S
C17 O6 1.226 . S
C17 O7 1.307 . S
C18 O10 1.303 1_556 S
C18 O11 1.247 . S
C19 O8 1.245 1_554 S
C19 O9 1.283 . S
C20 O12 1.304 1_554 S
C20 O14 1.272 . S
C21 O13 1.311 1_554 S
C21 O15 1.231 . S
O22 Zn4 1.953 . S
O22 C16 1.298 . S
O23 Zn24 1.953 . S
O23 C39 1.225 . S
Zn24 O23 1.953 . S
Zn24 O25 1.949 . S
Zn24 O31 1.919 . S
Zn24 O36 1.924 . S
O25 Zn24 1.949 . S
O25 Zn26 1.923 1_554 S
O25 Zn27 1.950 . S
O25 Zn28 1.945 1_554 S
Zn26 O25 1.923 1_556 S
Zn26 O29 1.933 . S
Zn26 O32 1.941 . S
Zn26 O33 1.965 . S
Zn27 O25 1.950 . S
Zn27 O34 1.938 . S
Zn27 O35 1.906 . S
Zn27 O45 1.953 . S
Zn28 O25 1.945 1_556 S
Zn28 O30 1.932 . S
Zn28 O37 1.977 . S
Zn28 O38 1.910 . S
O29 Zn26 1.933 . S
O29 C40 1.226 . S
O30 Zn28 1.932 . S
O30 C40 1.307 . S
O31 Zn24 1.919 . S
O31 C42 1.253 1_554 S
O32 Zn26 1.941 . S
O32 C42 1.283 . S
O33 Zn26 1.965 . S
O33 C41 1.303 1_556 S
O34 Zn27 1.938 . S
O34 C41 1.247 . S
O35 Zn27 1.906 . S
O35 C43 1.304 1_554 S
O36 Zn24 1.924 . S
O36 C44 1.311 . S
O37 Zn28 1.977 . S
O37 C43 1.272 . S
O38 Zn28 1.910 . S
O38 C44 1.231 1_556 S
C39 O23 1.225 . S
C39 O45 1.298 . S
C40 O29 1.226 . S
C40 O30 1.307 . S
C41 O33 1.303 1_554 S
C41 O34 1.247 . S
C42 O31 1.253 1_556 S
C42 O32 1.283 . S
C43 O35 1.304 1_556 S
C43 O37 1.272 . S
C44 O36 1.311 . S
C44 O38 1.231 1_554 S
O45 Zn27 1.953 . S
O45 C39 1.298 . S
O46 Zn47 1.953 . S
O46 C62 1.225 . S
Zn47 O46 1.953 . S
Zn47 O48 1.949 1_556 S
Zn47 O54 1.919 . S
Zn47 O59 1.924 . S
O48 Zn47 1.949 1_554 S
O48 Zn49 1.923 . S
O48 Zn50 1.950 1_544 S
O48 Zn51 1.945 . S
Zn49 O48 1.923 . S
Zn49 O52 1.933 1_545 S
Zn49 O55 1.941 . S
Zn49 O56 1.965 1_545 S
Zn50 O48 1.950 1_566 S
Zn50 O57 1.938 . S
Zn50 O58 1.906 . S
Zn50 O68 1.958 . S
Zn51 O48 1.945 . S
Zn51 O53 1.932 . S
Zn51 O60 1.977 1_545 S
Zn51 O61 1.910 . S
O52 Zn49 1.933 1_565 S
O52 C63 1.226 1_565 S
O53 Zn51 1.932 . S
O53 C63 1.307 . S
O54 Zn47 1.919 . S
O54 C65 1.253 1_556 S
O55 Zn49 1.941 . S
O55 C65 1.283 . S
O56 Zn49 1.965 1_565 S
O56 C64 1.303 1_554 S
O57 Zn50 1.938 . S
O57 C64 1.247 . S
O58 Zn50 1.906 . S
O58 C66 1.304 1_556 S
O59 Zn47 1.924 . S
O59 C67 1.311 1_556 S
O60 Zn51 1.977 1_565 S
O60 C66 1.272 . S
O61 Zn51 1.910 . S
O61 C67 1.231 . S
C62 O46 1.225 . S
C62 O68 1.290 1_545 S
C63 O52 1.226 1_545 S
C63 O53 1.307 . S
C64 O56 1.303 1_556 S
C64 O57 1.247 . S
C65 O54 1.253 1_554 S
C65 O55 1.283 . S
C66 O58 1.304 1_554 S
C66 O60 1.272 . S
C67 O59 1.311 1_554 S
C67 O61 1.231 . S
O68 Zn50 1.958 . S
O68 C62 1.290 1_565 S
O69 Zn70 1.953 . S
O69 C85 1.225 . S
Zn70 O69 1.953 . S
Zn70 O71 1.949 . S
Zn70 O77 1.919 . S
Zn70 O82 1.924 . S
O71 Zn70 1.949 . S
O71 Zn72 1.923 . S
O71 Zn73 1.950 . S
O71 Zn74 1.945 . S
Zn72 O71 1.923 . S
Zn72 O75 1.933 . S
Zn72 O78 1.941 . S
Zn72 O79 1.965 . S
Zn73 O71 1.950 . S
Zn73 O80 1.938 . S
Zn73 O81 1.906 . S
Zn73 O91 1.953 . S
Zn74 O71 1.945 . S
Zn74 O76 1.932 . S
Zn74 O83 1.977 . S
Zn74 O84 1.910 . S
O75 Zn72 1.933 . S
O75 C86 1.226 . S
O76 Zn74 1.932 . S
O76 C86 1.307 . S
O77 Zn70 1.919 . S
O77 C88 1.253 . S
O78 Zn72 1.941 . S
O78 C88 1.283 . S
O79 Zn72 1.965 . S
O79 C87 1.303 . S
O80 Zn73 1.938 . S
O80 C87 1.247 . S
O81 Zn73 1.906 . S
O81 C89 1.304 . S
O82 Zn70 1.924 . S
O82 C90 1.311 . S
O83 Zn74 1.977 . S
O83 C89 1.272 . S
O84 Zn74 1.910 . S
O84 C90 1.231 . S
C85 O69 1.225 . S
C85 O91 1.298 . S
C86 O75 1.226 . S
C86 O76 1.307 . S
C87 O79 1.303 . S
C87 O80 1.247 . S
C88 O77 1.253 . S
C88 O78 1.283 . S
C89 O81 1.304 . S
C89 O83 1.272 . S
C90 O82 1.311 . S
C90 O84 1.231 . S
O91 Zn73 1.953 . S
O91 C85 1.298 . S
O92 Zn93 1.953 . S
O92 C108 1.225 . S
Zn93 O92 1.953 . S
Zn93 O94 1.949 . S
Zn93 O100 1.919 . S
Zn93 O105 1.924 . S
O94 Zn93 1.949 . S
O94 Zn95 1.923 . S
O94 Zn96 1.950 . S
O94 Zn97 1.945 . S
Zn95 O94 1.923 . S
Zn95 O98 1.933 . S
Zn95 O101 1.941 . S
Zn95 O102 1.965 . S
Zn96 O94 1.950 . S
Zn96 O103 1.938 . S
Zn96 O104 1.906 . S
Zn96 O114 1.953 . S
Zn97 O94 1.945 . S
Zn97 O99 1.932 . S
Zn97 O106 1.977 . S
Zn97 O107 1.910 . S
O98 Zn95 1.933 . S
O98 C109 1.226 . S
O99 Zn97 1.932 . S
O99 C109 1.307 . S
O100 Zn93 1.919 . S
O100 C111 1.253 . S
O101 Zn95 1.941 . S
O101 C111 1.283 . S
O102 Zn95 1.965 . S
O102 C110 1.303 . S
O103 Zn96 1.938 . S
O103 C110 1.247 . S
O104 Zn96 1.906 . S
O104 C112 1.304 . S
O105 Zn93 1.924 . S
O105 C113 1.311 . S
O106 Zn97 1.977 . S
O106 C112 1.272 . S
O107 Zn97 1.910 . S
O107 C113 1.231 . S
C108 O92 1.225 . S
C108 O114 1.298 . S
C109 O98 1.226 . S
C109 O99 1.307 . S
C110 O102 1.303 . S
C110 O103 1.247 . S
C111 O100 1.253 . S
C111 O101 1.283 . S
C112 O104 1.304 . S
C112 O106 1.272 . S
C113 O105 1.311 . S
C113 O107 1.231 . S
O114 Zn96 1.953 . S
O114 C108 1.298 . S
O115 Zn116 1.953 . S
O115 C131 1.225 . S
Zn116 O115 1.953 . S
Zn116 O117 1.949 . S
Zn116 O123 1.919 . S
Zn116 O128 1.924 . S
O117 Zn116 1.949 . S
O117 Zn118 1.923 . S
O117 Zn119 1.950 . S
O117 Zn120 1.945 . S
Zn118 O117 1.923 . S
Zn118 O121 1.933 . S
Zn118 O124 1.941 . S
Zn118 O125 1.965 . S
Zn119 O117 1.950 . S
Zn119 O126 1.938 . S
Zn119 O127 1.906 . S
Zn119 O137 1.953 . S
Zn120 O117 1.945 . S
Zn120 O122 1.932 . S
Zn120 O129 1.977 . S
Zn120 O130 1.910 . S
O121 Zn118 1.933 . S
O121 C132 1.226 . S
O122 Zn120 1.932 . S
O122 C132 1.307 . S
O123 Zn116 1.919 . S
O123 C134 1.253 . S
O124 Zn118 1.941 . S
O124 C134 1.283 . S
O125 Zn118 1.965 . S
O125 C133 1.303 . S
O126 Zn119 1.938 . S
O126 C133 1.247 . S
O127 Zn119 1.906 . S
O127 C135 1.304 . S
O128 Zn116 1.924 . S
O128 C136 1.311 . S
O129 Zn120 1.977 . S
O129 C135 1.272 . S
O130 Zn120 1.910 . S
O130 C136 1.231 . S
C131 O115 1.225 . S
C131 O137 1.298 . S
C132 O121 1.226 . S
C132 O122 1.307 . S
C133 O125 1.303 . S
C133 O126 1.247 . S
C134 O123 1.253 . S
C134 O124 1.283 . S
C135 O127 1.304 . S
C135 O129 1.272 . S
C136 O128 1.311 . S
C136 O130 1.231 . S
O137 Zn119 1.953 . S
O137 C131 1.298 . S
O138 Zn139 1.953 . S
O138 C154 1.225 . S
Zn139 O138 1.953 . S
Zn139 O140 1.949 . S
Zn139 O146 1.919 . S
Zn139 O151 1.924 . S
O140 Zn139 1.949 . S
O140 Zn141 1.923 . S
O140 Zn142 1.950 . S
O140 Zn143 1.945 . S
Zn141 O140 1.923 . S
Zn141 O144 1.933 . S
Zn141 O147 1.941 . S
Zn141 O148 1.965 . S
Zn142 O140 1.950 . S
Zn142 O149 1.938 . S
Zn142 O150 1.906 . S
Zn142 O160 1.953 . S
Zn143 O140 1.945 . S
Zn143 O145 1.932 . S
Zn143 O152 1.977 . S
Zn143 O153 1.910 . S
O144 Zn141 1.933 . S
O144 C155 1.226 . S
O145 Zn143 1.932 . S
O145 C155 1.307 . S
O146 Zn139 1.919 . S
O146 C157 1.253 . S
O147 Zn141 1.941 . S
O147 C157 1.283 . S
O148 Zn141 1.965 . S
O148 C156 1.303 . S
O149 Zn142 1.938 . S
O149 C156 1.247 . S
O150 Zn142 1.906 . S
O150 C158 1.304 . S
O151 Zn139 1.924 . S
O151 C159 1.311 . S
O152 Zn143 1.977 . S
O152 C158 1.272 . S
O153 Zn143 1.910 . S
O153 C159 1.231 . S
C154 O138 1.225 . S
C154 O160 1.298 . S
C155 O144 1.226 . S
C155 O145 1.307 . S
C156 O148 1.303 . S
C156 O149 1.247 . S
C157 O146 1.253 . S
C157 O147 1.283 . S
C158 O150 1.304 . S
C158 O152 1.272 . S
C159 O151 1.311 . S
C159 O153 1.231 . S
O160 Zn142 1.953 . S
O160 C154 1.298 . S
O161 Zn162 1.953 . S
O161 C177 1.225 . S
Zn162 O161 1.953 . S
Zn162 O163 1.949 . S
Zn162 O169 1.919 . S
Zn162 O174 1.924 . S
O163 Zn162 1.949 . S
O163 Zn164 1.923 . S
O163 Zn165 1.950 . S
O163 Zn166 1.945 . S
Zn164 O163 1.923 . S
Zn164 O167 1.933 . S
Zn164 O170 1.941 . S
Zn164 O171 1.965 . S
Zn165 O163 1.950 . S
Zn165 O172 1.938 . S
Zn165 O173 1.906 . S
Zn165 O183 1.953 . S
Zn166 O163 1.945 . S
Zn166 O168 1.932 . S
Zn166 O175 1.977 . S
Zn166 O176 1.910 . S
O167 Zn164 1.933 . S
O167 C178 1.226 . S
O168 Zn166 1.932 . S
O168 C178 1.307 . S
O169 Zn162 1.919 . S
O169 C180 1.253 . S
O170 Zn164 1.941 . S
O170 C180 1.283 . S
O171 Zn164 1.965 . S
O171 C179 1.303 . S
O172 Zn165 1.938 . S
O172 C179 1.247 . S
O173 Zn165 1.906 . S
O173 C181 1.304 . S
O174 Zn162 1.924 . S
O174 C182 1.311 . S
O175 Zn166 1.977 . S
O175 C181 1.272 . S
O176 Zn166 1.910 . S
O176 C182 1.231 . S
C177 O161 1.225 . S
C177 O183 1.298 . S
C178 O167 1.226 . S
C178 O168 1.307 . S
C179 O171 1.303 . S
C179 O172 1.247 . S
C180 O169 1.253 . S
C180 O170 1.283 . S
C181 O173 1.304 . S
C181 O175 1.272 . S
C182 O174 1.311 . S
C182 O176 1.231 . S
O183 Zn165 1.953 . S
O183 C177 1.298 . S
O184 Zn185 1.953 . S
O184 C200 1.225 . S
Zn185 O184 1.953 . S
Zn185 O186 1.949 . S
Zn185 O192 1.919 . S
Zn185 O197 1.924 . S
O186 Zn185 1.949 . S
O186 Zn187 1.923 . S
O186 Zn188 1.950 . S
O186 Zn189 1.945 . S
Zn187 O186 1.923 . S
Zn187 O190 1.933 . S
Zn187 O193 1.941 . S
Zn187 O194 1.965 . S
Zn188 O186 1.950 . S
Zn188 O195 1.938 . S
Zn188 O196 1.906 . S
Zn188 O206 1.953 . S
Zn189 O186 1.945 . S
Zn189 O191 1.932 . S
Zn189 O198 1.977 . S
Zn189 O199 1.910 . S
O190 Zn187 1.933 . S
O190 C201 1.226 . S
O191 Zn189 1.932 . S
O191 C201 1.307 . S
O192 Zn185 1.919 . S
O192 C203 1.253 . S
O193 Zn187 1.941 . S
O193 C203 1.283 . S
O194 Zn187 1.965 . S
O194 C202 1.303 . S
O195 Zn188 1.938 . S
O195 C202 1.247 . S
O196 Zn188 1.906 . S
O196 C204 1.304 . S
O197 Zn185 1.924 . S
O197 C205 1.311 . S
O198 Zn189 1.977 . S
O198 C204 1.272 . S
O199 Zn189 1.910 . S
O199 C205 1.231 . S
C200 O184 1.225 . S
C200 O206 1.298 . S
C201 O190 1.226 . S
C201 O191 1.307 . S
C202 O194 1.303 . S
C202 O195 1.247 . S
C203 O192 1.253 . S
C203 O193 1.283 . S
C204 O196 1.304 . S
C204 O198 1.272 . S
C205 O197 1.311 . S
C205 O199 1.231 . S
O206 Zn188 1.953 . S
O206 C200 1.298 . S
H207 C219 0.930 . S
H208 C221 0.930 . S
H209 C222 0.930 . S
H210 C226 0.959 . S
H211 C226 0.959 . S
H212 C226 0.961 . S
H213 C227 0.960 1_554 S
H214 C227 0.962 . S
H215 C227 0.959 . S
H216 C230 0.929 . S
H217 C231 0.931 . S
H218 C233 0.930 . S
C219 H207 0.930 . S
C219 C220 1.399 . S
C219 C224 1.399 . S
C220 C219 1.399 . S
C220 C221 1.376 . S
C221 H208 0.930 . S
C221 C220 1.376 . S
C221 C222 1.388 . S
C222 H209 0.930 . S
C222 C221 1.388 . S
C222 C223 1.390 . S
C223 C222 1.390 . S
C223 C224 1.394 . S
C223 C229 1.465 . S
C224 C219 1.399 . S
C224 C223 1.394 . S
C224 C225 1.516 . S
C225 C224 1.516 . S
C225 C226 1.502 . S
C225 C227 1.561 . S
C225 C228 1.526 . S
C226 H210 0.959 . S
C226 H211 0.959 . S
C226 H212 0.961 . S
C226 C225 1.502 . S
C227 H213 0.960 1_556 S
C227 H214 0.962 . S
C227 H215 0.959 . S
C227 C225 1.561 . S
C228 C225 1.526 . S
C228 C229 1.396 . S
C228 C233 1.390 . S
C229 C223 1.465 . S
C229 C228 1.396 . S
C229 C230 1.399 . S
C230 H216 0.929 . S
C230 C229 1.399 . S
C230 C231 1.385 . S
C231 H217 0.931 . S
C231 C230 1.385 . S
C231 C232 1.389 . S
C232 C231 1.389 . S
C232 C233 1.387 . S
C233 H218 0.930 . S
C233 C228 1.390 . S
C233 C232 1.387 . S
H234 C246 0.930 . S
H235 C248 0.930 . S
H236 C249 0.930 . S
H237 C253 0.959 . S
H238 C253 0.959 . S
H239 C253 0.961 . S
H240 C254 0.960 . S
H241 C254 0.961 . S
H242 C254 0.959 . S
H243 C257 0.929 . S
H244 C258 0.931 . S
H245 C260 0.930 . S
C246 H234 0.930 . S
C246 C247 1.399 . S
C246 C251 1.399 . S
C247 C246 1.399 . S
C247 C248 1.376 . S
C248 H235 0.930 . S
C248 C247 1.376 . S
C248 C249 1.388 . S
C249 H236 0.930 . S
C249 C248 1.388 . S
C249 C250 1.390 . S
C250 C249 1.390 . S
C250 C251 1.394 . S
C250 C256 1.465 . S
C251 C246 1.399 . S
C251 C250 1.394 . S
C251 C252 1.516 . S
C252 C251 1.516 . S
C252 C253 1.502 . S
C252 C254 1.561 . S
C252 C255 1.526 . S
C253 H237 0.959 . S
C253 H238 0.959 . S
C253 H239 0.961 . S
C253 C252 1.502 . S
C254 H240 0.960 . S
C254 H241 0.961 . S
C254 H242 0.959 . S
C254 C252 1.561 . S
C255 C252 1.526 . S
C255 C256 1.396 . S
C255 C260 1.390 . S
C256 C250 1.465 . S
C256 C255 1.396 . S
C256 C257 1.399 . S
C257 H243 0.929 . S
C257 C256 1.399 . S
C257 C258 1.385 . S
C258 H244 0.931 . S
C258 C257 1.385 . S
C258 C259 1.389 . S
C259 C258 1.389 . S
C259 C260 1.387 . S
C260 H245 0.930 . S
C260 C255 1.390 . S
C260 C259 1.387 . S
H261 C273 0.930 . S
H262 C275 0.930 . S
H263 C276 0.930 . S
H264 C280 0.959 . S
H265 C280 0.959 . S
H266 C280 0.961 1_554 S
H267 C281 0.960 . S
H268 C281 0.961 . S
H269 C281 0.959 . S
H270 C284 0.929 . S
H271 C285 0.931 . S
H272 C287 0.930 . S
C273 H261 0.930 . S
C273 C274 1.399 . S
C273 C278 1.399 . S
C274 C273 1.399 . S
C274 C275 1.376 . S
C275 H262 0.930 . S
C275 C274 1.376 . S
C275 C276 1.388 . S
C276 H263 0.930 . S
C276 C275 1.388 . S
C276 C277 1.390 . S
C277 C276 1.390 . S
C277 C278 1.394 . S
C277 C283 1.465 . S
C278 C273 1.399 . S
C278 C277 1.394 . S
C278 C279 1.516 . S
C279 C278 1.516 . S
C279 C280 1.502 . S
C279 C281 1.561 . S
C279 C282 1.526 . S
C280 H264 0.959 . S
C280 H265 0.959 . S
C280 H266 0.961 1_556 S
C280 C279 1.502 . S
C281 H267 0.960 . S
C281 H268 0.961 . S
C281 H269 0.959 . S
C281 C279 1.561 . S
C282 C279 1.526 . S
C282 C283 1.396 . S
C282 C287 1.390 . S
C283 C277 1.465 . S
C283 C282 1.396 . S
C283 C284 1.399 . S
C284 H270 0.929 . S
C284 C283 1.399 . S
C284 C285 1.385 . S
C285 H271 0.931 . S
C285 C284 1.385 . S
C285 C286 1.389 . S
C286 C285 1.389 . S
C286 C287 1.387 . S
C287 H272 0.930 . S
C287 C282 1.390 . S
C287 C286 1.387 . S
H288 C300 0.930 . S
H289 C302 0.930 . S
H290 C303 0.930 . S
H291 C307 0.959 . S
H292 C307 0.959 . S
H293 C307 0.961 . S
H294 C308 0.960 . S
H295 C308 0.961 . S
H296 C308 0.959 . S
H297 C311 0.929 . S
H298 C312 0.931 . S
H299 C314 0.930 . S
C300 H288 0.930 . S
C300 C301 1.399 . S
C300 C305 1.399 . S
C301 C300 1.399 . S
C301 C302 1.376 . S
C302 H289 0.930 . S
C302 C301 1.376 . S
C302 C303 1.388 . S
C303 H290 0.930 . S
C303 C302 1.388 . S
C303 C304 1.390 . S
C304 C303 1.390 . S
C304 C305 1.394 . S
C304 C310 1.465 . S
C305 C300 1.399 . S
C305 C304 1.394 . S
C305 C306 1.516 . S
C306 C305 1.516 . S
C306 C307 1.502 . S
C306 C308 1.561 . S
C306 C309 1.526 . S
C307 H291 0.959 . S
C307 H292 0.959 . S
C307 H293 0.961 . S
C307 C306 1.502 . S
C308 H294 0.960 . S
C308 H295 0.961 . S
C308 H296 0.959 . S
C308 C306 1.561 . S
C309 C306 1.526 . S
C309 C310 1.396 . S
C309 C314 1.390 . S
C310 C304 1.465 . S
C310 C309 1.396 . S
C310 C311 1.399 . S
C311 H297 0.929 . S
C311 C310 1.399 . S
C311 C312 1.385 . S
C312 H298 0.931 . S
C312 C311 1.385 . S
C312 C313 1.389 . S
C313 C312 1.389 . S
C313 C314 1.387 . S
C314 H299 0.930 . S
C314 C309 1.390 . S
C314 C313 1.387 . S
H315 C327 0.930 . S
H316 C329 0.930 . S
H317 C330 0.930 . S
H318 C334 0.959 . S
H319 C334 0.959 . S
H320 C334 0.961 . S
H321 C335 0.960 . S
H322 C335 0.961 . S
H323 C335 0.959 . S
H324 C338 0.929 . S
H325 C339 0.931 . S
H326 C341 0.930 . S
C327 H315 0.930 . S
C327 C328 1.399 . S
C327 C332 1.399 . S
C328 C327 1.399 . S
C328 C329 1.376 . S
C329 H316 0.930 . S
C329 C328 1.376 . S
C329 C330 1.388 . S
C330 H317 0.930 . S
C330 C329 1.388 . S
C330 C331 1.390 . S
C331 C330 1.390 . S
C331 C332 1.394 . S
C331 C337 1.465 . S
C332 C327 1.399 . S
C332 C331 1.394 . S
C332 C333 1.516 . S
C333 C332 1.516 . S
C333 C334 1.502 . S
C333 C335 1.561 . S
C333 C336 1.526 . S
C334 H318 0.959 . S
C334 H319 0.959 . S
C334 H320 0.961 . S
C334 C333 1.502 . S
C335 H321 0.960 . S
C335 H322 0.961 . S
C335 H323 0.959 . S
C335 C333 1.561 . S
C336 C333 1.526 . S
C336 C337 1.396 . S
C336 C341 1.390 . S
C337 C331 1.465 . S
C337 C336 1.396 . S
C337 C338 1.399 . S
C338 H324 0.929 . S
C338 C337 1.399 . S
C338 C339 1.385 . S
C339 H325 0.931 . S
C339 C338 1.385 . S
C339 C340 1.389 . S
C340 C339 1.389 . S
C340 C341 1.387 . S
C341 H326 0.930 . S
C341 C336 1.390 . S
C341 C340 1.387 . S
H342 C354 0.930 . S
H343 C356 0.930 . S
H344 C357 0.930 . S
H345 C361 0.959 . S
H346 C361 0.959 . S
H347 C361 0.961 . S
H348 C362 0.960 1_556 S
H349 C362 0.961 . S
H350 C362 0.959 . S
H351 C365 0.929 . S
H352 C366 0.931 . S
H353 C368 0.930 . S
C354 H342 0.930 . S
C354 C355 1.399 . S
C354 C359 1.399 . S
C355 C354 1.399 . S
C355 C356 1.376 . S
C356 H343 0.930 . S
C356 C355 1.376 . S
C356 C357 1.388 . S
C357 H344 0.930 . S
C357 C356 1.388 . S
C357 C358 1.390 . S
C358 C357 1.390 . S
C358 C359 1.394 . S
C358 C364 1.465 . S
C359 C354 1.399 . S
C359 C358 1.394 . S
C359 C360 1.516 . S
C360 C359 1.516 . S
C360 C361 1.502 . S
C360 C362 1.561 . S
C360 C363 1.526 . S
C361 H345 0.959 . S
C361 H346 0.959 . S
C361 H347 0.961 . S
C361 C360 1.502 . S
C362 H348 0.960 1_554 S
C362 H349 0.961 . S
C362 H350 0.959 . S
C362 C360 1.561 . S
C363 C360 1.526 . S
C363 C364 1.396 . S
C363 C368 1.390 . S
C364 C358 1.465 . S
C364 C363 1.396 . S
C364 C365 1.399 . S
C365 H351 0.929 . S
C365 C364 1.399 . S
C365 C366 1.385 . S
C366 H352 0.931 . S
C366 C365 1.385 . S
C366 C367 1.389 . S
C367 C366 1.389 . S
C367 C368 1.387 . S
C368 H353 0.930 . S
C368 C363 1.390 . S
C368 C367 1.387 . S
H369 C381 0.930 . S
H370 C383 0.930 . S
H371 C384 0.930 . S
H372 C388 0.959 1_455 S
H373 C388 0.959 . S
H374 C388 0.961 1_455 S
H375 C389 0.960 . S
H376 C389 0.961 . S
H377 C389 0.959 . S
H378 C392 0.929 1_455 S
H379 C393 0.931 . S
H380 C395 0.930 . S
C381 H369 0.930 . S
C381 C382 1.399 . S
C381 C386 1.399 . S
C382 C381 1.399 . S
C382 C383 1.376 . S
C383 H370 0.930 . S
C383 C382 1.376 . S
C383 C384 1.388 . S
C384 H371 0.930 . S
C384 C383 1.388 . S
C384 C385 1.390 . S
C385 C384 1.390 . S
C385 C386 1.394 . S
C385 C391 1.499 . S
C386 C381 1.399 . S
C386 C385 1.394 . S
C386 C387 1.492 1_455 S
C387 C386 1.492 1_655 S
C387 C388 1.483 . S
C387 C389 1.583 . S
C387 C390 1.551 . S
C388 H372 0.959 1_655 S
C388 H373 0.959 . S
C388 H374 0.961 1_655 S
C388 C387 1.483 . S
C389 H375 0.960 . S
C389 H376 0.961 . S
C389 H377 0.959 . S
C389 C387 1.583 . S
C390 C387 1.551 . S
C390 C391 1.388 1_655 S
C390 C395 1.390 . S
C391 C385 1.499 . S
C391 C390 1.388 1_455 S
C391 C392 1.375 1_455 S
C392 H378 0.929 1_655 S
C392 C391 1.375 1_655 S
C392 C393 1.385 . S
C393 H379 0.931 . S
C393 C392 1.385 . S
C393 C394 1.389 . S
C394 C393 1.389 . S
C394 C395 1.387 . S
C395 H380 0.930 . S
C395 C390 1.390 . S
C395 C394 1.387 . S
H396 C408 0.930 . S
H397 C410 0.930 . S
H398 C411 0.930 . S
H399 C415 0.959 . S
H400 C415 0.959 . S
H401 C415 0.961 . S
H402 C416 0.960 . S
H403 C416 0.961 . S
H404 C416 0.959 . S
H405 C419 0.929 . S
H406 C420 0.931 . S
H407 C422 0.930 . S
C408 H396 0.930 . S
C408 C409 1.399 . S
C408 C413 1.399 . S
C409 C408 1.399 . S
C409 C410 1.376 . S
C410 H397 0.930 . S
C410 C409 1.376 . S
C410 C411 1.388 . S
C411 H398 0.930 . S
C411 C410 1.388 . S
C411 C412 1.390 . S
C412 C411 1.390 . S
C412 C413 1.394 . S
C412 C418 1.465 . S
C413 C408 1.399 . S
C413 C412 1.394 . S
C413 C414 1.516 . S
C414 C413 1.516 . S
C414 C415 1.502 . S
C414 C416 1.561 . S
C414 C417 1.526 . S
C415 H399 0.959 . S
C415 H400 0.959 . S
C415 H401 0.961 . S
C415 C414 1.502 . S
C416 H402 0.960 . S
C416 H403 0.961 . S
C416 H404 0.959 . S
C416 C414 1.561 . S
C417 C414 1.526 . S
C417 C418 1.396 . S
C417 C422 1.390 . S
C418 C412 1.465 . S
C418 C417 1.396 . S
C418 C419 1.399 . S
C419 H405 0.929 . S
C419 C418 1.399 . S
C419 C420 1.385 . S
C420 H406 0.931 . S
C420 C419 1.385 . S
C420 C421 1.389 . S
C421 C420 1.389 . S
C421 C422 1.387 . S
C422 H407 0.930 . S
C422 C417 1.390 . S
C422 C421 1.387 . S
H423 C435 0.930 . S
H424 C437 0.930 . S
H425 C438 0.930 . S
H426 C442 0.959 . S
H427 C442 0.959 . S
H428 C442 0.961 . S
H429 C443 0.960 . S
H430 C443 0.961 . S
H431 C443 0.959 . S
H432 C446 0.929 . S
H433 C447 0.931 . S
H434 C449 0.930 . S
C435 H423 0.930 . S
C435 C436 1.399 . S
C435 C440 1.399 . S
C436 C435 1.399 . S
C436 C437 1.376 . S
C437 H424 0.930 . S
C437 C436 1.376 . S
C437 C438 1.388 . S
C438 H425 0.930 . S
C438 C437 1.388 . S
C438 C439 1.390 . S
C439 C438 1.390 . S
C439 C440 1.394 . S
C439 C445 1.465 1_545 S
C440 C435 1.399 . S
C440 C439 1.394 . S
C440 C441 1.516 . S
C441 C440 1.516 . S
C441 C442 1.502 . S
C441 C443 1.561 . S
C441 C444 1.526 1_545 S
C442 H426 0.959 . S
C442 H427 0.959 . S
C442 H428 0.961 . S
C442 C441 1.502 . S
C443 H429 0.960 . S
C443 H430 0.961 . S
C443 H431 0.959 . S
C443 C441 1.561 . S
C444 C441 1.526 1_565 S
C444 C445 1.396 . S
C444 C449 1.390 . S
C445 C439 1.465 1_565 S
C445 C444 1.396 . S
C445 C446 1.399 . S
C446 H432 0.929 . S
C446 C445 1.399 . S
C446 C447 1.385 . S
C447 H433 0.931 . S
C447 C446 1.385 . S
C447 C448 1.389 . S
C448 C447 1.389 . S
C448 C449 1.387 . S
C449 H434 0.930 . S
C449 C444 1.390 . S
C449 C448 1.387 . S
H450 C462 0.930 . S
H451 C464 0.930 . S
H452 C465 0.930 . S
H453 C469 0.959 . S
H454 C469 0.959 . S
H455 C469 0.961 . S
H456 C470 0.960 . S
H457 C470 0.961 . S
H458 C470 0.959 . S
H459 C473 0.929 . S
H460 C474 0.931 . S
H461 C476 0.930 . S
C462 H450 0.930 . S
C462 C463 1.399 1_554 S
C462 C467 1.399 . S
C463 C462 1.399 1_556 S
C463 C464 1.376 . S
C464 H451 0.930 . S
C464 C463 1.376 . S
C464 C465 1.388 . S
C465 H452 0.930 . S
C465 C464 1.388 . S
C465 C466 1.390 . S
C466 C465 1.390 . S
C466 C467 1.394 1_556 S
C466 C472 1.465 . S
C467 C462 1.399 . S
C467 C466 1.394 1_554 S
C467 C468 1.516 . S
C468 C467 1.516 . S
C468 C469 1.502 . S
C468 C470 1.561 . S
C468 C471 1.526 . S
C469 H453 0.959 . S
C469 H454 0.959 . S
C469 H455 0.961 . S
C469 C468 1.502 . S
C470 H456 0.960 . S
C470 H457 0.961 . S
C470 H458 0.959 . S
C470 C468 1.561 . S
C471 C468 1.526 . S
C471 C472 1.396 1_554 S
C471 C476 1.390 . S
C472 C466 1.465 . S
C472 C471 1.396 1_556 S
C472 C473 1.399 . S
C473 H459 0.929 . S
C473 C472 1.399 . S
C473 C474 1.385 . S
C474 H460 0.931 . S
C474 C473 1.385 . S
C474 C475 1.389 1_556 S
C475 C474 1.389 1_554 S
C475 C476 1.387 . S
C476 H461 0.930 . S
C476 C471 1.390 . S
C476 C475 1.387 . S
H477 C489 0.930 . S
H478 C491 0.930 . S
H479 C492 0.930 . S
H480 C496 0.959 . S
H481 C496 0.959 . S
H482 C496 0.961 1_565 S
H483 C497 0.960 1_565 S
H484 C497 0.961 . S
H485 C497 0.959 . S
H486 C500 0.929 . S
H487 C501 0.931 . S
H488 C503 0.930 . S
C489 H477 0.930 . S
C489 C490 1.399 1_556 S
C489 C494 1.399 . S
C490 C489 1.399 1_554 S
C490 C491 1.376 . S
C491 H478 0.930 . S
C491 C490 1.376 . S
C491 C492 1.388 . S
C492 H479 0.930 . S
C492 C491 1.388 . S
C492 C493 1.390 . S
C493 C492 1.390 . S
C493 C494 1.394 1_554 S
C493 C499 1.465 1_565 S
C494 C489 1.399 . S
C494 C493 1.394 1_556 S
C494 C495 1.516 1_565 S
C495 C494 1.516 1_545 S
C495 C496 1.502 . S
C495 C497 1.561 . S
C495 C498 1.526 . S
C496 H480 0.959 . S
C496 H481 0.959 . S
C496 H482 0.961 1_545 S
C496 C495 1.502 . S
C497 H483 0.960 1_545 S
C497 H484 0.961 . S
C497 H485 0.959 . S
C497 C495 1.561 . S
C498 C495 1.526 . S
C498 C499 1.396 1_556 S
C498 C503 1.390 . S
C499 C493 1.465 1_545 S
C499 C498 1.396 1_554 S
C499 C500 1.399 . S
C500 H486 0.929 . S
C500 C499 1.399 . S
C500 C501 1.385 . S
C501 H487 0.931 . S
C501 C500 1.385 . S
C501 C502 1.383 1_554 S
C502 C501 1.383 1_556 S
C502 C503 1.391 . S
C503 H488 0.930 . S
C503 C498 1.390 . S
C503 C502 1.391 . S
H504 C516 0.930 . S
H505 C518 0.930 . S
H506 C519 0.930 . S
H507 C523 0.959 . S
H508 C523 0.959 . S
H509 C523 0.961 1_655 S
H510 C524 0.960 1_655 S
H511 C524 0.961 . S
H512 C524 0.959 . S
H513 C527 0.929 . S
H514 C528 0.931 . S
H515 C530 0.930 . S
C516 H504 0.930 . S
C516 C517 1.399 1_554 S
C516 C521 1.399 . S
C517 C516 1.399 1_556 S
C517 C518 1.376 . S
C518 H505 0.930 . S
C518 C517 1.376 . S
C518 C519 1.388 . S
C519 H506 0.930 . S
C519 C518 1.388 . S
C519 C520 1.390 . S
C520 C519 1.390 . S
C520 C521 1.394 1_556 S
C520 C526 1.465 1_655 S
C521 C516 1.399 . S
C521 C520 1.394 1_554 S
C521 C522 1.516 1_655 S
C522 C521 1.516 1_455 S
C522 C523 1.502 . S
C522 C524 1.561 . S
C522 C525 1.526 . S
C523 H507 0.959 . S
C523 H508 0.959 . S
C523 H509 0.961 1_455 S
C523 C522 1.502 . S
C524 H510 0.960 1_455 S
C524 H511 0.961 . S
C524 H512 0.959 . S
C524 C522 1.561 . S
C525 C522 1.526 . S
C525 C526 1.396 1_554 S
C525 C530 1.390 . S
C526 C520 1.465 1_455 S
C526 C525 1.396 1_556 S
C526 C527 1.399 . S
C527 H513 0.929 . S
C527 C526 1.399 . S
C527 C528 1.385 . S
C528 H514 0.931 . S
C528 C527 1.385 . S
C528 C529 1.389 1_556 S
C529 C528 1.389 1_554 S
C529 C530 1.387 . S
C530 H515 0.930 . S
C530 C525 1.390 . S
C530 C529 1.387 . S
H531 C543 0.930 . S
H532 C545 0.930 . S
H533 C546 0.930 . S
H534 C550 0.959 . S
H535 C550 0.959 . S
H536 C550 0.961 . S
H537 C551 0.960 . S
H538 C551 0.961 . S
H539 C551 0.959 . S
H540 C554 0.929 . S
H541 C555 0.931 . S
H542 C557 0.930 . S
C543 H531 0.930 . S
C543 C544 1.399 . S
C543 C548 1.399 . S
C544 C543 1.399 . S
C544 C545 1.376 . S
C545 H532 0.930 . S
C545 C544 1.376 . S
C545 C546 1.388 . S
C546 H533 0.930 . S
C546 C545 1.388 . S
C546 C547 1.390 . S
C547 C546 1.390 . S
C547 C548 1.394 . S
C547 C553 1.465 . S
C548 C543 1.399 . S
C548 C547 1.394 . S
C548 C549 1.516 . S
C549 C548 1.516 . S
C549 C550 1.502 . S
C549 C551 1.561 . S
C549 C552 1.526 . S
C550 H534 0.959 . S
C550 H535 0.959 . S
C550 H536 0.961 . S
C550 C549 1.502 . S
C551 H537 0.960 . S
C551 H538 0.961 . S
C551 H539 0.959 . S
C551 C549 1.561 . S
C552 C549 1.526 . S
C552 C553 1.396 . S
C552 C557 1.390 . S
C553 C547 1.465 . S
C553 C552 1.396 . S
C553 C554 1.399 . S
C554 H540 0.929 . S
C554 C553 1.399 . S
C554 C555 1.385 . S
C555 H541 0.931 . S
C555 C554 1.385 . S
C555 C556 1.389 . S
C556 C555 1.389 . S
C556 C557 1.387 . S
C557 H542 0.930 . S
C557 C552 1.390 . S
C557 C556 1.387 . S
H558 C570 0.930 . S
H559 C572 0.930 . S
H560 C573 0.930 . S
H561 C577 0.959 . S
H562 C577 0.959 . S
H563 C577 0.961 . S
H564 C578 0.960 . S
H565 C578 0.961 . S
H566 C578 0.959 . S
H567 C581 0.929 . S
H568 C582 0.931 . S
H569 C584 0.930 . S
C570 H558 0.930 . S
C570 C571 1.399 . S
C570 C575 1.399 . S
C571 C570 1.399 . S
C571 C572 1.376 . S
C572 H559 0.930 . S
C572 C571 1.376 . S
C572 C573 1.388 . S
C573 H560 0.930 . S
C573 C572 1.388 . S
C573 C574 1.390 . S
C574 C573 1.390 . S
C574 C575 1.394 . S
C574 C580 1.465 . S
C575 C570 1.399 . S
C575 C574 1.394 . S
C575 C576 1.516 . S
C576 C575 1.516 . S
C576 C577 1.502 . S
C576 C578 1.561 . S
C576 C579 1.526 . S
C577 H561 0.959 . S
C577 H562 0.959 . S
C577 H563 0.961 . S
C577 C576 1.502 . S
C578 H564 0.960 . S
C578 H565 0.961 . S
C578 H566 0.959 . S
C578 C576 1.561 . S
C579 C576 1.526 . S
C579 C580 1.396 . S
C579 C584 1.390 . S
C580 C574 1.465 . S
C580 C579 1.396 . S
C580 C581 1.399 . S
C581 H567 0.929 . S
C581 C580 1.399 . S
C581 C582 1.385 . S
C582 H568 0.931 . S
C582 C581 1.385 . S
C582 C583 1.389 . S
C583 C582 1.389 . S
C583 C584 1.387 . S
C584 H569 0.930 . S
C584 C579 1.390 . S
C584 C583 1.387 . S
H585 C597 0.930 . S
H586 C599 0.930 . S
H587 C600 0.930 . S
H588 C604 0.959 . S
H589 C604 0.959 . S
H590 C604 0.961 . S
H591 C605 0.960 . S
H592 C605 0.961 . S
H593 C605 0.959 . S
H594 C608 0.929 . S
H595 C609 0.931 . S
H596 C611 0.930 . S
C597 H585 0.930 . S
C597 C598 1.399 . S
C597 C602 1.399 . S
C598 C597 1.399 . S
C598 C599 1.376 . S
C599 H586 0.930 . S
C599 C598 1.376 . S
C599 C600 1.388 . S
C600 H587 0.930 . S
C600 C599 1.388 . S
C600 C601 1.390 . S
C601 C600 1.390 . S
C601 C602 1.394 . S
C601 C607 1.465 . S
C602 C597 1.399 . S
C602 C601 1.394 . S
C602 C603 1.516 . S
C603 C602 1.516 . S
C603 C604 1.502 . S
C603 C605 1.561 . S
C603 C606 1.526 . S
C604 H588 0.959 . S
C604 H589 0.959 . S
C604 H590 0.961 . S
C604 C603 1.502 . S
C605 H591 0.960 . S
C605 H592 0.961 . S
C605 H593 0.959 . S
C605 C603 1.561 . S
C606 C603 1.526 . S
C606 C607 1.396 . S
C606 C611 1.390 . S
C607 C601 1.465 . S
C607 C606 1.396 . S
C607 C608 1.399 . S
C608 H594 0.929 . S
C608 C607 1.399 . S
C608 C609 1.385 . S
C609 H595 0.931 . S
C609 C608 1.385 . S
C609 C610 1.389 . S
C610 C609 1.389 . S
C610 C611 1.387 . S
C611 H596 0.930 . S
C611 C606 1.390 . S
C611 C610 1.387 . S
H612 C624 0.930 . S
H613 C626 0.930 . S
H614 C627 0.930 . S
H615 C631 0.959 . S
H616 C631 0.959 . S
H617 C631 0.961 . S
H618 C632 0.960 . S
H619 C632 0.961 . S
H620 C632 0.959 . S
H621 C635 0.929 . S
H622 C636 0.931 . S
H623 C638 0.930 . S
C624 H612 0.930 . S
C624 C625 1.399 . S
C624 C629 1.399 . S
C625 C624 1.399 . S
C625 C626 1.376 . S
C626 H613 0.930 . S
C626 C625 1.376 . S
C626 C627 1.388 . S
C627 H614 0.930 . S
C627 C626 1.388 . S
C627 C628 1.390 . S
C628 C627 1.390 . S
C628 C629 1.394 . S
C628 C634 1.465 . S
C629 C624 1.399 . S
C629 C628 1.394 . S
C629 C630 1.516 . S
C630 C629 1.516 . S
C630 C631 1.502 . S
C630 C632 1.561 . S
C630 C633 1.526 . S
C631 H615 0.959 . S
C631 H616 0.959 . S
C631 H617 0.961 . S
C631 C630 1.502 . S
C632 H618 0.960 . S
C632 H619 0.961 . S
C632 H620 0.959 . S
C632 C630 1.561 . S
C633 C630 1.526 . S
C633 C634 1.396 . S
C633 C638 1.390 . S
C634 C628 1.465 . S
C634 C633 1.396 . S
C634 C635 1.399 . S
C635 H621 0.929 . S
C635 C634 1.399 . S
C635 C636 1.385 . S
C636 H622 0.931 . S
C636 C635 1.385 . S
C636 C637 1.389 . S
C637 C636 1.389 . S
C637 C638 1.387 . S
C638 H623 0.930 . S
C638 C633 1.390 . S
C638 C637 1.387 . S
H639 C651 0.930 . S
H640 C653 0.930 . S
H641 C654 0.930 . S
H642 C658 0.959 . S
H643 C658 0.959 . S
H644 C658 0.961 . S
H645 C659 0.960 . S
H646 C659 0.961 . S
H647 C659 0.959 . S
H648 C662 0.929 . S
H649 C663 0.931 . S
H650 C665 0.930 . S
C651 H639 0.930 . S
C651 C652 1.399 . S
C651 C656 1.399 . S
C652 C651 1.399 . S
C652 C653 1.376 . S
C653 H640 0.930 . S
C653 C652 1.376 . S
C653 C654 1.388 . S
C654 H641 0.930 . S
C654 C653 1.388 . S
C654 C655 1.390 . S
C655 C654 1.390 . S
C655 C656 1.394 . S
C655 C661 1.465 . S
C656 C651 1.399 . S
C656 C655 1.394 . S
C656 C657 1.516 . S
C657 C656 1.516 . S
C657 C658 1.502 . S
C657 C659 1.561 . S
C657 C660 1.526 . S
C658 H642 0.959 . S
C658 H643 0.959 . S
C658 H644 0.961 . S
C658 C657 1.502 . S
C659 H645 0.960 . S
C659 H646 0.961 . S
C659 H647 0.959 . S
C659 C657 1.561 . S
C660 C657 1.526 . S
C660 C661 1.396 . S
C660 C665 1.390 . S
C661 C655 1.465 . S
C661 C660 1.396 . S
C661 C662 1.399 . S
C662 H648 0.929 . S
C662 C661 1.399 . S
C662 C663 1.385 . S
C663 H649 0.931 . S
C663 C662 1.385 . S
C663 C664 1.389 . S
C664 C663 1.389 . S
C664 C665 1.387 . S
C665 H650 0.930 . S
C665 C660 1.390 . S
C665 C664 1.387 . S
H666 C678 0.930 . S
H667 C680 0.930 . S
H668 C681 0.930 . S
H669 C685 0.959 . S
H670 C685 0.959 . S
H671 C685 0.961 . S
H672 C686 0.960 . S
H673 C686 0.961 . S
H674 C686 0.959 . S
H675 C689 0.929 . S
H676 C690 0.931 . S
H677 C692 0.930 . S
C678 H666 0.930 . S
C678 C679 1.399 . S
C678 C683 1.399 . S
C679 C678 1.399 . S
C679 C680 1.376 . S
C680 H667 0.930 . S
C680 C679 1.376 . S
C680 C681 1.388 . S
C681 H668 0.930 . S
C681 C680 1.388 . S
C681 C682 1.390 . S
C682 C681 1.390 . S
C682 C683 1.394 . S
C682 C688 1.465 . S
C683 C678 1.399 . S
C683 C682 1.394 . S
C683 C684 1.516 . S
C684 C683 1.516 . S
C684 C685 1.502 . S
C684 C686 1.561 . S
C684 C687 1.526 . S
C685 H669 0.959 . S
C685 H670 0.959 . S
C685 H671 0.961 . S
C685 C684 1.502 . S
C686 H672 0.960 . S
C686 H673 0.961 . S
C686 H674 0.959 . S
C686 C684 1.561 . S
C687 C684 1.526 . S
C687 C688 1.396 . S
C687 C692 1.390 . S
C688 C682 1.465 . S
C688 C687 1.396 . S
C688 C689 1.399 . S
C689 H675 0.929 . S
C689 C688 1.399 . S
C689 C690 1.385 . S
C690 H676 0.931 . S
C690 C689 1.385 . S
C690 C691 1.389 . S
C691 C690 1.389 . S
C691 C692 1.387 . S
C692 H677 0.930 . S
C692 C687 1.390 . S
C692 C691 1.387 . S
H693 C705 0.935 1_655 S
H694 C707 0.939 . S
H695 C708 0.930 . S
H696 C712 0.959 . S
H697 C712 0.959 . S
H698 C712 0.961 . S
H699 C713 0.960 . S
H700 C713 0.961 . S
H701 C713 0.959 . S
H702 C716 0.929 . S
H703 C717 0.931 . S
H704 C719 0.930 . S
C705 H693 0.935 1_455 S
C705 C706 1.382 1_455 S
C705 C710 1.399 . S
C706 C705 1.382 1_655 S
C706 C707 1.389 1_655 S
C707 H694 0.939 . S
C707 C706 1.389 1_455 S
C707 C708 1.388 . S
C708 H695 0.930 . S
C708 C707 1.388 . S
C708 C709 1.390 . S
C709 C708 1.390 . S
C709 C710 1.394 . S
C709 C715 1.465 . S
C710 C705 1.399 . S
C710 C709 1.394 . S
C710 C711 1.516 . S
C711 C710 1.516 . S
C711 C712 1.502 . S
C711 C713 1.561 1_455 S
C711 C714 1.526 . S
C712 H696 0.959 . S
C712 H697 0.959 . S
C712 H698 0.961 . S
C712 C711 1.502 . S
C713 H699 0.960 . S
C713 H700 0.961 . S
C713 H701 0.959 . S
C713 C711 1.561 1_655 S
C714 C711 1.526 . S
C714 C715 1.396 . S
C714 C719 1.390 . S
C715 C709 1.465 . S
C715 C714 1.396 . S
C715 C716 1.399 . S
C716 H702 0.929 . S
C716 C715 1.399 . S
C716 C717 1.385 . S
C717 H703 0.931 . S
C717 C716 1.385 . S
C717 C718 1.389 . S
C718 C717 1.389 . S
C718 C719 1.387 . S
C719 H704 0.930 . S
C719 C714 1.390 . S
C719 C718 1.387 . S
H720 C732 0.930 . S
H721 C734 0.930 . S
H722 C735 0.930 . S
H723 C739 0.959 . S
H724 C739 0.959 . S
H725 C739 0.961 . S
H726 C740 0.960 . S
H727 C740 0.961 . S
H728 C740 0.959 . S
H729 C743 0.929 . S
H730 C744 0.931 . S
H731 C746 0.930 . S
C732 H720 0.930 . S
C732 C733 1.399 . S
C732 C737 1.399 . S
C733 C732 1.399 . S
C733 C734 1.376 . S
C734 H721 0.930 . S
C734 C733 1.376 . S
C734 C735 1.388 . S
C735 H722 0.930 . S
C735 C734 1.388 . S
C735 C736 1.390 . S
C736 C735 1.390 . S
C736 C737 1.394 . S
C736 C742 1.465 . S
C737 C732 1.399 . S
C737 C736 1.394 . S
C737 C738 1.516 . S
C738 C737 1.516 . S
C738 C739 1.502 . S
C738 C740 1.561 . S
C738 C741 1.526 . S
C739 H723 0.959 . S
C739 H724 0.959 . S
C739 H725 0.961 . S
C739 C738 1.502 . S
C740 H726 0.960 . S
C740 H727 0.961 . S
C740 H728 0.959 . S
C740 C738 1.561 . S
C741 C738 1.526 . S
C741 C742 1.396 . S
C741 C746 1.390 . S
C742 C736 1.465 . S
C742 C741 1.396 . S
C742 C743 1.399 . S
C743 H729 0.929 . S
C743 C742 1.399 . S
C743 C744 1.385 . S
C744 H730 0.931 . S
C744 C743 1.385 . S
C744 C745 1.389 . S
C745 C744 1.389 . S
C745 C746 1.387 . S
C746 H731 0.930 . S
C746 C741 1.390 . S
C746 C745 1.387 . S
H747 C759 0.930 1_565 S
H748 C761 0.930 . S
H749 C762 0.930 . S
H750 C766 0.959 . S
H751 C766 0.959 . S
H752 C766 0.961 . S
H753 C767 0.960 . S
H754 C767 0.961 . S
H755 C767 0.959 . S
H756 C770 0.929 . S
H757 C771 0.931 . S
H758 C773 0.930 . S
C759 H747 0.930 1_545 S
C759 C760 1.399 . S
C759 C764 1.399 . S
C760 C759 1.399 . S
C760 C761 1.376 . S
C761 H748 0.930 . S
C761 C760 1.376 . S
C761 C762 1.388 . S
C762 H749 0.930 . S
C762 C761 1.388 . S
C762 C763 1.390 . S
C763 C762 1.390 . S
C763 C764 1.394 . S
C763 C769 1.465 . S
C764 C759 1.399 . S
C764 C763 1.394 . S
C764 C765 1.516 1_545 S
C765 C764 1.516 1_565 S
C765 C766 1.502 . S
C765 C767 1.561 . S
C765 C768 1.526 . S
C766 H750 0.959 . S
C766 H751 0.959 . S
C766 H752 0.961 . S
C766 C765 1.502 . S
C767 H753 0.960 . S
C767 H754 0.961 . S
C767 H755 0.959 . S
C767 C765 1.561 . S
C768 C765 1.526 . S
C768 C769 1.396 1_565 S
C768 C773 1.390 . S
C769 C763 1.465 . S
C769 C768 1.396 1_545 S
C769 C770 1.399 . S
C770 H756 0.929 . S
C770 C769 1.399 . S
C770 C771 1.385 . S
C771 H757 0.931 . S
C771 C770 1.385 . S
C771 C772 1.389 . S
C772 C771 1.389 . S
C772 C773 1.387 1_545 S
C773 H758 0.930 . S
C773 C768 1.390 . S
C773 C772 1.387 1_565 S
H774 C786 0.930 . S
H775 C788 0.930 . S
H776 C789 0.930 . S
H777 C793 0.959 . S
H778 C793 0.959 . S
H779 C793 0.961 . S
H780 C794 0.960 . S
H781 C794 0.961 . S
H782 C794 0.959 . S
H783 C797 0.929 . S
H784 C798 0.936 . S
H785 C800 0.930 1_554 S
C786 H774 0.930 . S
C786 C787 1.399 . S
C786 C791 1.399 . S
C787 C786 1.399 . S
C787 C788 1.376 . S
C788 H775 0.930 . S
C788 C787 1.376 . S
C788 C789 1.388 . S
C789 H776 0.930 . S
C789 C788 1.388 . S
C789 C790 1.390 . S
C790 C789 1.390 . S
C790 C791 1.394 . S
C790 C796 1.465 . S
C791 C786 1.399 . S
C791 C790 1.394 . S
C791 C792 1.516 . S
C792 C791 1.516 . S
C792 C793 1.502 . S
C792 C794 1.561 . S
C792 C795 1.526 . S
C793 H777 0.959 . S
C793 H778 0.959 . S
C793 H779 0.961 . S
C793 C792 1.502 . S
C794 H780 0.960 . S
C794 H781 0.961 . S
C794 H782 0.959 . S
C794 C792 1.561 . S
C795 C792 1.526 . S
C795 C796 1.396 . S
C795 C800 1.390 . S
C796 C790 1.465 . S
C796 C795 1.396 . S
C796 C797 1.399 . S
C797 H783 0.929 . S
C797 C796 1.399 . S
C797 C798 1.376 1_556 S
C798 H784 0.936 . S
C798 C797 1.376 1_554 S
C798 C799 1.393 . S
C799 C798 1.393 . S
C799 C800 1.387 1_554 S
C800 H785 0.930 1_556 S
C800 C795 1.390 . S
C800 C799 1.387 1_556 S
H801 C813 0.930 . S
H802 C815 0.930 . S
H803 C816 0.930 . S
H804 C820 0.959 . S
H805 C820 0.959 . S
H806 C820 0.961 . S
H807 C821 0.960 . S
H808 C821 0.961 . S
H809 C821 0.959 . S
H810 C824 0.929 . S
H811 C825 0.931 . S
H812 C827 0.930 1_554 S
C813 H801 0.930 . S
C813 C814 1.399 . S
C813 C818 1.399 . S
C814 C813 1.399 . S
C814 C815 1.376 . S
C815 H802 0.930 . S
C815 C814 1.376 . S
C815 C816 1.388 . S
C816 H803 0.930 . S
C816 C815 1.388 . S
C816 C817 1.390 . S
C817 C816 1.390 . S
C817 C818 1.394 . S
C817 C823 1.465 . S
C818 C813 1.399 . S
C818 C817 1.394 . S
C818 C819 1.516 . S
C819 C818 1.516 . S
C819 C820 1.502 . S
C819 C821 1.561 . S
C819 C822 1.526 . S
C820 H804 0.959 . S
C820 H805 0.959 . S
C820 H806 0.961 . S
C820 C819 1.502 . S
C821 H807 0.960 . S
C821 H808 0.961 . S
C821 H809 0.959 . S
C821 C819 1.561 . S
C822 C819 1.526 . S
C822 C823 1.396 . S
C822 C827 1.390 . S
C823 C817 1.465 . S
C823 C822 1.396 . S
C823 C824 1.399 . S
C824 H810 0.929 . S
C824 C823 1.399 . S
C824 C825 1.385 1_556 S
C825 H811 0.931 . S
C825 C824 1.385 1_554 S
C825 C826 1.389 . S
C826 C825 1.389 . S
C826 C827 1.387 1_554 S
C827 H812 0.930 1_556 S
C827 C822 1.390 . S
C827 C826 1.387 1_556 S
H828 C840 0.930 . S
H829 C842 0.930 . S
H830 C843 0.930 . S
H831 C847 0.959 . S
H832 C847 0.959 . S
H833 C847 0.961 . S
H834 C848 0.960 . S
H835 C848 0.961 . S
H836 C848 0.959 . S
H837 C851 0.929 . S
H838 C852 0.931 . S
H839 C854 0.930 1_554 S
C840 H828 0.930 . S
C840 C841 1.399 . S
C840 C845 1.399 . S
C841 C840 1.399 . S
C841 C842 1.376 . S
C842 H829 0.930 . S
C842 C841 1.376 . S
C842 C843 1.388 . S
C843 H830 0.930 . S
C843 C842 1.388 . S
C843 C844 1.390 . S
C844 C843 1.390 . S
C844 C845 1.394 . S
C844 C850 1.465 . S
C845 C840 1.399 . S
C845 C844 1.394 . S
C845 C846 1.516 . S
C846 C845 1.516 . S
C846 C847 1.502 . S
C846 C848 1.561 . S
C846 C849 1.526 . S
C847 H831 0.959 . S
C847 H832 0.959 . S
C847 H833 0.961 . S
C847 C846 1.502 . S
C848 H834 0.960 . S
C848 H835 0.961 . S
C848 H836 0.959 . S
C848 C846 1.561 . S
C849 C846 1.526 . S
C849 C850 1.396 . S
C849 C854 1.390 . S
C850 C844 1.465 . S
C850 C849 1.396 . S
C850 C851 1.399 . S
C851 H837 0.929 . S
C851 C850 1.399 . S
C851 C852 1.385 1_556 S
C852 H838 0.931 . S
C852 C851 1.385 1_554 S
C852 C853 1.389 . S
C853 C852 1.389 . S
C853 C854 1.387 1_554 S
C854 H839 0.930 1_556 S
C854 C849 1.390 . S
C854 C853 1.387 1_556 S
H855 C867 0.930 . S
H856 C869 0.930 . S
H857 C870 0.930 . S
H858 C874 0.959 . S
H859 C874 0.959 . S
H860 C874 0.961 . S
H861 C875 0.960 . S
H862 C875 0.961 . S
H863 C875 0.959 . S
H864 C878 0.929 . S
H865 C879 0.935 . S
H866 C881 0.930 . S
C867 H855 0.930 . S
C867 C868 1.399 . S
C867 C872 1.399 . S
C868 C867 1.399 . S
C868 C869 1.376 . S
C869 H856 0.930 . S
C869 C868 1.376 . S
C869 C870 1.388 . S
C870 H857 0.930 . S
C870 C869 1.388 . S
C870 C871 1.390 . S
C871 C870 1.390 . S
C871 C872 1.394 . S
C871 C877 1.465 . S
C872 C867 1.399 . S
C872 C871 1.394 . S
C872 C873 1.516 . S
C873 C872 1.516 . S
C873 C874 1.502 . S
C873 C875 1.561 . S
C873 C876 1.526 . S
C874 H858 0.959 . S
C874 H859 0.959 . S
C874 H860 0.961 . S
C874 C873 1.502 . S
C875 H861 0.960 . S
C875 H862 0.961 . S
C875 H863 0.959 . S
C875 C873 1.561 . S
C876 C873 1.526 . S
C876 C877 1.396 . S
C876 C881 1.390 . S
C877 C871 1.465 . S
C877 C876 1.396 . S
C877 C878 1.399 . S
C878 H864 0.929 . S
C878 C877 1.399 . S
C878 C879 1.379 1_554 S
C879 H865 0.935 . S
C879 C878 1.379 1_556 S
C879 C880 1.391 . S
C880 C879 1.391 . S
C880 C881 1.387 1_556 S
C881 H866 0.930 . S
C881 C876 1.390 . S
C881 C880 1.387 1_554 S
H882 C894 0.930 . S
H883 C896 0.930 . S
H884 C897 0.930 . S
H885 C901 0.959 . S
H886 C901 0.959 . S
H887 C901 0.961 . S
H888 C902 0.960 . S
H889 C902 0.961 . S
H890 C902 0.959 . S
H891 C905 0.929 . S
H892 C906 0.931 . S
H893 C908 0.930 . S
C894 H882 0.930 . S
C894 C895 1.399 1_554 S
C894 C899 1.399 . S
C895 C894 1.399 1_556 S
C895 C896 1.376 . S
C896 H883 0.930 . S
C896 C895 1.376 . S
C896 C897 1.388 1_556 S
C897 H884 0.930 . S
C897 C896 1.388 1_554 S
C897 C898 1.390 . S
C898 C897 1.390 . S
C898 C899 1.394 . S
C898 C904 1.465 . S
C899 C894 1.399 . S
C899 C898 1.394 . S
C899 C900 1.516 . S
C900 C899 1.516 . S
C900 C901 1.502 . S
C900 C902 1.561 . S
C900 C903 1.526 . S
C901 H885 0.959 . S
C901 H886 0.959 . S
C901 H887 0.961 . S
C901 C900 1.502 . S
C902 H888 0.960 . S
C902 H889 0.961 . S
C902 H890 0.959 . S
C902 C900 1.561 . S
C903 C900 1.526 . S
C903 C904 1.396 . S
C903 C908 1.390 . S
C904 C898 1.465 . S
C904 C903 1.396 . S
C904 C905 1.399 . S
C905 H891 0.929 . S
C905 C904 1.399 . S
C905 C906 1.385 . S
C906 H892 0.931 . S
C906 C905 1.385 . S
C906 C907 1.389 . S
C907 C906 1.389 . S
C907 C908 1.387 . S
C908 H893 0.930 . S
C908 C903 1.390 . S
C908 C907 1.387 . S
H909 C921 0.930 . S
H910 C923 0.930 . S
H911 C924 0.930 . S
H912 C928 0.959 . S
H913 C928 0.959 . S
H914 C928 0.961 . S
H915 C929 0.960 . S
H916 C929 0.961 . S
H917 C929 0.959 . S
H918 C932 0.929 . S
H919 C933 0.931 1_556 S
H920 C935 0.930 1_556 S
C921 H909 0.930 . S
C921 C922 1.399 . S
C921 C926 1.399 . S
C922 C921 1.399 . S
C922 C923 1.376 . S
C923 H910 0.930 . S
C923 C922 1.376 . S
C923 C924 1.388 . S
C924 H911 0.930 . S
C924 C923 1.388 . S
C924 C925 1.390 . S
C925 C924 1.390 . S
C925 C926 1.394 . S
C925 C931 1.465 . S
C926 C921 1.399 . S
C926 C925 1.394 . S
C926 C927 1.516 . S
C927 C926 1.516 . S
C927 C928 1.502 . S
C927 C929 1.561 . S
C927 C930 1.526 . S
C928 H912 0.959 . S
C928 H913 0.959 . S
C928 H914 0.961 . S
C928 C927 1.502 . S
C929 H915 0.960 . S
C929 H916 0.961 . S
C929 H917 0.959 . S
C929 C927 1.561 . S
C930 C927 1.526 . S
C930 C931 1.396 . S
C930 C935 1.390 . S
C931 C925 1.465 . S
C931 C930 1.396 . S
C931 C932 1.399 . S
C932 H918 0.929 . S
C932 C931 1.399 . S
C932 C933 1.385 . S
C933 H919 0.931 1_554 S
C933 C932 1.385 . S
C933 C934 1.389 1_554 S
C934 C933 1.389 1_556 S
C934 C935 1.387 1_556 S
C935 H920 0.930 1_554 S
C935 C930 1.390 . S
C935 C934 1.387 1_554 S
C220 C18 1.183 . S
C232 C179 1.186 . S
C247 C42 1.128 . S
C259 C203 1.132 . S
C274 C64 1.182 . S
C286 C157 1.146 . S
C301 C111 1.163 . S
C313 C65 1.166 . S
C328 C134 1.161 . S
C340 C19 1.176 . S
C355 C41 1.163 . S
C367 C88 1.177 . S
C382 C180 1.206 . S
C394 C133 1.181 . S
C409 C202 1.205 . S
C421 C87 1.200 . S
C436 C110 1.214 . S
C448 C156 1.208 . S
C463 C67 1.064 1_556 S
C475 C20 1.008 . S
C490 C44 1.069 . S
C502 C21 0.996 1_556 S
C517 C43 1.073 . S
C529 C66 1.019 . S
C544 C90 1.073 . S
C556 C135 1.015 . S
C571 C89 0.964 . S
C583 C113 1.067 . S
C598 C112 1.071 . S
C610 C136 0.998 . S
C625 C205 1.087 . S
C637 C158 0.997 . S
C652 C182 1.076 . S
C664 C159 1.012 . S
C679 C204 0.972 . S
C691 C181 1.052 . S
C706 C16 1.371 1_655 S
C718 C17 1.367 . S
C733 C40 1.351 . S
C745 C39 1.383 . S
C760 C62 1.377 . S
C772 C63 1.354 . S
C787 C85 1.349 . S
C799 C86 1.386 . S
C814 C108 1.369 . S
C826 C109 1.369 . S
C841 C131 1.355 . S
C853 C132 1.378 . S
C868 C154 1.359 . S
C880 C155 1.375 . S
C895 C177 1.375 . S
C907 C178 1.368 . S
C922 C200 1.355 . S
C934 C201 1.380 . S
