# Generated by pormake.
# Topology vdb, (5)-cn, num edge types: 1
# Building blocks:
#     Node 0, Type 0, BuildingBlock: BEQFEK_clean_sbu_0, # of connection points: 5
#     Node 1, Type 0, BuildingBlock: BEQFEK_clean_sbu_0, # of connection points: 5
#     Node 2, Type 0, BuildingBlock: BEQFEK_clean_sbu_0, # of connection points: 5
#     Node 3, Type 0, BuildingBlock: BEQFEK_clean_sbu_0, # of connection points: 5
#     Node 4, Type 0, BuildingBlock: BEQFEK_clean_sbu_0, # of connection points: 5
#     Node 5, Type 0, BuildingBlock: BEQFEK_clean_sbu_0, # of connection points: 5
#     Node 6, Type 0, BuildingBlock: BEQFEK_clean_sbu_0, # of connection points: 5
#     Node 7, Type 0, BuildingBlock: BEQFEK_clean_sbu_0, # of connection points: 5
#     Node 8, Type 0, BuildingBlock: BEQFEK_clean_sbu_0, # of connection points: 5
#     Node 9, Type 0, BuildingBlock: BEQFEK_clean_sbu_0, # of connection points: 5
#     Node 10, Type 0, BuildingBlock: BEQFEK_clean_sbu_0, # of connection points: 5
#     Node 11, Type 0, BuildingBlock: BEQFEK_clean_sbu_0, # of connection points: 5
#     Node 12, Type 0, BuildingBlock: BEQFEK_clean_sbu_0, # of connection points: 5
#     Node 13, Type 0, BuildingBlock: BEQFEK_clean_sbu_0, # of connection points: 5
#     Node 14, Type 0, BuildingBlock: BEQFEK_clean_sbu_0, # of connection points: 5
#     Node 15, Type 0, BuildingBlock: BEQFEK_clean_sbu_0, # of connection points: 5
#     Node 16, Type 0, BuildingBlock: BEQFEK_clean_sbu_0, # of connection points: 5
#     Node 17, Type 0, BuildingBlock: BEQFEK_clean_sbu_0, # of connection points: 5
#     Node 18, Type 0, BuildingBlock: BEQFEK_clean_sbu_0, # of connection points: 5
#     Node 19, Type 0, BuildingBlock: BEQFEK_clean_sbu_0, # of connection points: 5
#     Node 20, Type 0, BuildingBlock: BEQFEK_clean_sbu_0, # of connection points: 5
#     Node 21, Type 0, BuildingBlock: BEQFEK_clean_sbu_0, # of connection points: 5
#     Node 22, Type 0, BuildingBlock: BEQFEK_clean_sbu_0, # of connection points: 5
#     Node 23, Type 0, BuildingBlock: BEQFEK_clean_sbu_0, # of connection points: 5
#     Node 24, Type 0, BuildingBlock: BEQFEK_clean_sbu_0, # of connection points: 5
#     Node 25, Type 0, BuildingBlock: BEQFEK_clean_sbu_0, # of connection points: 5
#     Node 26, Type 0, BuildingBlock: BEQFEK_clean_sbu_0, # of connection points: 5
#     Node 27, Type 0, BuildingBlock: BEQFEK_clean_sbu_0, # of connection points: 5
#     Node 28, Type 0, BuildingBlock: BEQFEK_clean_sbu_0, # of connection points: 5
#     Node 29, Type 0, BuildingBlock: BEQFEK_clean_sbu_0, # of connection points: 5
#     Node 30, Type 0, BuildingBlock: BEQFEK_clean_sbu_0, # of connection points: 5
#     Node 31, Type 0, BuildingBlock: BEQFEK_clean_sbu_0, # of connection points: 5
#     Edge 32, Type (0, 0), BuildingBlock: XIVTED_clean_linker_0, # of connection points: 2
#     Edge 33, Type (0, 0), BuildingBlock: XIVTED_clean_linker_0, # of connection points: 2
#     Edge 34, Type (0, 0), BuildingBlock: XIVTED_clean_linker_0, # of connection points: 2
#     Edge 35, Type (0, 0), BuildingBlock: XIVTED_clean_linker_0, # of connection points: 2
#     Edge 36, Type (0, 0), BuildingBlock: XIVTED_clean_linker_0, # of connection points: 2
#     Edge 37, Type (0, 0), BuildingBlock: XIVTED_clean_linker_0, # of connection points: 2
#     Edge 38, Type (0, 0), BuildingBlock: XIVTED_clean_linker_0, # of connection points: 2
#     Edge 39, Type (0, 0), BuildingBlock: XIVTED_clean_linker_0, # of connection points: 2
#     Edge 40, Type (0, 0), BuildingBlock: XIVTED_clean_linker_0, # of connection points: 2
#     Edge 41, Type (0, 0), BuildingBlock: XIVTED_clean_linker_0, # of connection points: 2
#     Edge 42, Type (0, 0), BuildingBlock: XIVTED_clean_linker_0, # of connection points: 2
#     Edge 43, Type (0, 0), BuildingBlock: XIVTED_clean_linker_0, # of connection points: 2
#     Edge 44, Type (0, 0), BuildingBlock: XIVTED_clean_linker_0, # of connection points: 2
#     Edge 45, Type (0, 0), BuildingBlock: XIVTED_clean_linker_0, # of connection points: 2
#     Edge 46, Type (0, 0), BuildingBlock: XIVTED_clean_linker_0, # of connection points: 2
#     Edge 47, Type (0, 0), BuildingBlock: XIVTED_clean_linker_0, # of connection points: 2
#     Edge 48, Type (0, 0), BuildingBlock: XIVTED_clean_linker_0, # of connection points: 2
#     Edge 49, Type (0, 0), BuildingBlock: XIVTED_clean_linker_0, # of connection points: 2
#     Edge 50, Type (0, 0), BuildingBlock: XIVTED_clean_linker_0, # of connection points: 2
#     Edge 51, Type (0, 0), BuildingBlock: XIVTED_clean_linker_0, # of connection points: 2
#     Edge 52, Type (0, 0), BuildingBlock: XIVTED_clean_linker_0, # of connection points: 2
#     Edge 53, Type (0, 0), BuildingBlock: XIVTED_clean_linker_0, # of connection points: 2
#     Edge 54, Type (0, 0), BuildingBlock: XIVTED_clean_linker_0, # of connection points: 2
#     Edge 55, Type (0, 0), BuildingBlock: XIVTED_clean_linker_0, # of connection points: 2
#     Edge 56, Type (0, 0), BuildingBlock: XIVTED_clean_linker_0, # of connection points: 2
#     Edge 57, Type (0, 0), BuildingBlock: XIVTED_clean_linker_0, # of connection points: 2
#     Edge 58, Type (0, 0), BuildingBlock: XIVTED_clean_linker_0, # of connection points: 2
#     Edge 59, Type (0, 0), BuildingBlock: XIVTED_clean_linker_0, # of connection points: 2
#     Edge 60, Type (0, 0), BuildingBlock: XIVTED_clean_linker_0, # of connection points: 2
#     Edge 61, Type (0, 0), BuildingBlock: XIVTED_clean_linker_0, # of connection points: 2
#     Edge 62, Type (0, 0), BuildingBlock: XIVTED_clean_linker_0, # of connection points: 2
#     Edge 63, Type (0, 0), BuildingBlock: XIVTED_clean_linker_0, # of connection points: 2
#     Edge 64, Type (0, 0), BuildingBlock: XIVTED_clean_linker_0, # of connection points: 2
#     Edge 65, Type (0, 0), BuildingBlock: XIVTED_clean_linker_0, # of connection points: 2
#     Edge 66, Type (0, 0), BuildingBlock: XIVTED_clean_linker_0, # of connection points: 2
#     Edge 67, Type (0, 0), BuildingBlock: XIVTED_clean_linker_0, # of connection points: 2
#     Edge 68, Type (0, 0), BuildingBlock: XIVTED_clean_linker_0, # of connection points: 2
#     Edge 69, Type (0, 0), BuildingBlock: XIVTED_clean_linker_0, # of connection points: 2
#     Edge 70, Type (0, 0), BuildingBlock: XIVTED_clean_linker_0, # of connection points: 2
#     Edge 71, Type (0, 0), BuildingBlock: XIVTED_clean_linker_0, # of connection points: 2
#     Edge 72, Type (0, 0), BuildingBlock: XIVTED_clean_linker_0, # of connection points: 2
#     Edge 73, Type (0, 0), BuildingBlock: XIVTED_clean_linker_0, # of connection points: 2
#     Edge 74, Type (0, 0), BuildingBlock: XIVTED_clean_linker_0, # of connection points: 2
#     Edge 75, Type (0, 0), BuildingBlock: XIVTED_clean_linker_0, # of connection points: 2
#     Edge 76, Type (0, 0), BuildingBlock: XIVTED_clean_linker_0, # of connection points: 2
#     Edge 77, Type (0, 0), BuildingBlock: XIVTED_clean_linker_0, # of connection points: 2
#     Edge 78, Type (0, 0), BuildingBlock: XIVTED_clean_linker_0, # of connection points: 2
#     Edge 79, Type (0, 0), BuildingBlock: XIVTED_clean_linker_0, # of connection points: 2
#     Edge 80, Type (0, 0), BuildingBlock: XIVTED_clean_linker_0, # of connection points: 2
#     Edge 81, Type (0, 0), BuildingBlock: XIVTED_clean_linker_0, # of connection points: 2
#     Edge 82, Type (0, 0), BuildingBlock: XIVTED_clean_linker_0, # of connection points: 2
#     Edge 83, Type (0, 0), BuildingBlock: XIVTED_clean_linker_0, # of connection points: 2
#     Edge 84, Type (0, 0), BuildingBlock: XIVTED_clean_linker_0, # of connection points: 2
#     Edge 85, Type (0, 0), BuildingBlock: XIVTED_clean_linker_0, # of connection points: 2
#     Edge 86, Type (0, 0), BuildingBlock: XIVTED_clean_linker_0, # of connection points: 2
#     Edge 87, Type (0, 0), BuildingBlock: XIVTED_clean_linker_0, # of connection points: 2
#     Edge 88, Type (0, 0), BuildingBlock: XIVTED_clean_linker_0, # of connection points: 2
#     Edge 89, Type (0, 0), BuildingBlock: XIVTED_clean_linker_0, # of connection points: 2
#     Edge 90, Type (0, 0), BuildingBlock: XIVTED_clean_linker_0, # of connection points: 2
#     Edge 91, Type (0, 0), BuildingBlock: XIVTED_clean_linker_0, # of connection points: 2
#     Edge 92, Type (0, 0), BuildingBlock: XIVTED_clean_linker_0, # of connection points: 2
#     Edge 93, Type (0, 0), BuildingBlock: XIVTED_clean_linker_0, # of connection points: 2
#     Edge 94, Type (0, 0), BuildingBlock: XIVTED_clean_linker_0, # of connection points: 2
#     Edge 95, Type (0, 0), BuildingBlock: XIVTED_clean_linker_0, # of connection points: 2
#     Edge 96, Type (0, 0), BuildingBlock: XIVTED_clean_linker_0, # of connection points: 2
#     Edge 97, Type (0, 0), BuildingBlock: XIVTED_clean_linker_0, # of connection points: 2
#     Edge 98, Type (0, 0), BuildingBlock: XIVTED_clean_linker_0, # of connection points: 2
#     Edge 99, Type (0, 0), BuildingBlock: XIVTED_clean_linker_0, # of connection points: 2
#     Edge 100, Type (0, 0), BuildingBlock: XIVTED_clean_linker_0, # of connection points: 2
#     Edge 101, Type (0, 0), BuildingBlock: XIVTED_clean_linker_0, # of connection points: 2
#     Edge 102, Type (0, 0), BuildingBlock: XIVTED_clean_linker_0, # of connection points: 2
#     Edge 103, Type (0, 0), BuildingBlock: XIVTED_clean_linker_0, # of connection points: 2
#     Edge 104, Type (0, 0), BuildingBlock: XIVTED_clean_linker_0, # of connection points: 2
#     Edge 105, Type (0, 0), BuildingBlock: XIVTED_clean_linker_0, # of connection points: 2
#     Edge 106, Type (0, 0), BuildingBlock: XIVTED_clean_linker_0, # of connection points: 2
#     Edge 107, Type (0, 0), BuildingBlock: XIVTED_clean_linker_0, # of connection points: 2
#     Edge 108, Type (0, 0), BuildingBlock: XIVTED_clean_linker_0, # of connection points: 2
#     Edge 109, Type (0, 0), BuildingBlock: XIVTED_clean_linker_0, # of connection points: 2
#     Edge 110, Type (0, 0), BuildingBlock: XIVTED_clean_linker_0, # of connection points: 2
#     Edge 111, Type (0, 0), BuildingBlock: XIVTED_clean_linker_0, # of connection points: 2
# Relax obj value: 0.439
# Max RMSD: 0.209
# Mean RMSD: 0.209
data_MOF--net-vdb--node1-BEQFEK_clean_sbu_0--edge1-XIVTED_clean_linker_0
_symmetry_space_group_name_H-M    P1
_symmetry_Int_Tables_number       1
_symmetry_cell_setting            triclinic
loop_
_symmetry_equiv_pos_as_xyz
'x, y, z'
_cell_length_a     25.352615
_cell_length_b     50.24132
_cell_length_c     116.31611
_cell_angle_alpha  90.01518
_cell_angle_beta   90.008915
_cell_angle_gamma 89.974357
loop_
_atom_site_label
_atom_site_type_symbol
_atom_site_fract_x
_atom_site_fract_y
_atom_site_fract_z
_atom_type_partial_charge
Co0 Co 0.32001 0.03343 0.08539 0.0
Co1 Co 0.39376 0.05698 0.06668 0.0
C2 C 0.27828 0.07124 0.06783 0.0
O3 O 0.27201 0.05571 0.07632 0.0
O4 O 0.32352 0.07444 0.06324 0.0
C5 C 0.23273 0.00389 0.09305 0.0
O6 O 0.21735 0.00658 0.08232 0.0
C7 C 0.42692 0.05799 0.04287 0.0
C8 C 0.51279 0.06441 0.04423 0.0
C9 C 0.47336 0.05747 0.0365 0.0
N10 N 0.4388 0.0641 0.05383 0.0
N11 N 0.48996 0.06879 0.05452 0.0
C12 C 0.37339 0.04863 0.03916 0.0
H13 H 0.34985 0.04207 0.04668 0.0
H14 H 0.37623 0.03203 0.03291 0.0
H15 H 0.35242 0.06537 0.03494 0.0
C16 C 0.35355 0.98256 0.07548 0.0
N17 N 0.35585 0.00928 0.07603 0.0
N18 N 0.38759 0.01834 0.06798 0.0
C19 C 0.40668 0.99705 0.06207 0.0
C20 C 0.38424 0.97399 0.06645 0.0
C21 C 0.32453 0.96498 0.08373 0.0
H22 H 0.32753 0.97299 0.09258 0.0
H23 H 0.28255 0.9637 0.08114 0.0
H24 H 0.34103 0.9445 0.08369 0.0
O25 O 0.36958 0.0552 0.09427 0.0
O26 O 0.42305 0.07365 0.08138 0.0
H27 H 0.47511 0.01424 0.05418 0.0
H28 H 0.46834 0.97901 0.05195 0.0
C29 C 0.44648 0.99807 0.0526 0.0
H30 H 0.42621 1.00123 0.04429 0.0
H31 H 0.50991 0.07266 0.06219 0.0
O32 O 0.27593 0.01424 0.09627 0.0
C33 C 0.40815 0.07033 0.09181 0.0
Co34 Co 0.91943 0.2213 0.08547 0.0
Co35 Co 0.84464 0.19727 0.06703 0.0
C36 C 0.96122 0.18391 0.06792 0.0
O37 O 0.96795 0.19955 0.07636 0.0
O38 O 0.91562 0.18043 0.06351 0.0
C39 C 0.00655 0.25032 0.09402 0.0
O40 O 0.02519 0.24707 0.08357 0.0
C41 C 0.81127 0.19765 0.04326 0.0
C42 C 0.72608 0.18911 0.04446 0.0
C43 C 0.76483 0.19771 0.03688 0.0
N44 N 0.79998 0.19021 0.0541 0.0
N45 N 0.7493 0.18428 0.05468 0.0
C46 C 0.86386 0.20865 0.03976 0.0
H47 H 0.88762 0.21407 0.04741 0.0
H48 H 0.85932 0.22638 0.03418 0.0
H49 H 0.88555 0.19322 0.03484 0.0
C50 C 0.88488 0.27187 0.07548 0.0
N51 N 0.88294 0.24516 0.07615 0.0
N52 N 0.8494 0.23588 0.06849 0.0
C53 C 0.82806 0.25702 0.06286 0.0
C54 C 0.85131 0.28019 0.0669 0.0
C55 C 0.91664 0.28953 0.08321 0.0
H56 H 0.91337 0.28266 0.09223 0.0
H57 H 0.95852 0.28899 0.0805 0.0
H58 H 0.9028 0.31047 0.08279 0.0
O59 O 0.87048 0.19891 0.09428 0.0
O60 O 0.81612 0.18017 0.08165 0.0
H61 H 0.76111 0.2743 0.05424 0.0
H62 H 0.80207 0.25393 0.04542 0.0
C63 C 0.78486 0.25576 0.05413 0.0
H64 H 0.75847 0.23874 0.05591 0.0
H65 H 0.72972 0.17923 0.06226 0.0
O66 O 0.96191 0.24067 0.09663 0.0
C67 C 0.83199 0.18357 0.092 0.0
Co68 Co 0.32018 0.21833 0.16674 0.0
Co69 Co 0.39625 0.19544 0.18521 0.0
C70 C 0.28089 0.18 0.18419 0.0
O71 O 0.27321 0.19565 0.17579 0.0
O72 O 0.32659 0.17723 0.18863 0.0
C73 C 0.23123 0.24616 0.15845 0.0
O74 O 0.21321 0.24233 0.16891 0.0
C75 C 0.42891 0.19597 0.20902 0.0
C76 C 0.51478 0.18929 0.20792 0.0
C77 C 0.47507 0.19683 0.21548 0.0
N78 N 0.44116 0.18904 0.19817 0.0
N79 N 0.49232 0.18423 0.19764 0.0
C80 C 0.37538 0.20581 0.2125 0.0
H81 H 0.35158 0.21115 0.20484 0.0
H82 H 0.37836 0.22335 0.21825 0.0
H83 H 0.35465 0.18976 0.21724 0.0
C84 C 0.35155 0.26942 0.17674 0.0
N85 N 0.35498 0.24274 0.17612 0.0
N86 N 0.38877 0.23397 0.18383 0.0
C87 C 0.40866 0.25543 0.18949 0.0
C88 C 0.38431 0.27827 0.18537 0.0
C89 C 0.31941 0.28662 0.16889 0.0
H90 H 0.32318 0.27956 0.15991 0.0
H91 H 0.27747 0.28581 0.17156 0.0
H92 H 0.3325 0.30768 0.16923 0.0
O93 O 0.37067 0.19689 0.15789 0.0
O94 O 0.42602 0.17899 0.17055 0.0
H95 H 0.47923 0.23838 0.19654 0.0
H96 H 0.47354 0.27379 0.19845 0.0
C97 C 0.45135 0.25478 0.19835 0.0
H98 H 0.43371 0.25223 0.20698 0.0
H99 H 0.51255 0.17981 0.19007 0.0
O100 O 0.27624 0.23715 0.15569 0.0
C101 C 0.41012 0.18218 0.16019 0.0
Co102 Co 0.9207 0.02908 0.1656 0.0
Co103 Co 0.84898 0.05371 0.18444 0.0
C104 C 0.96599 0.06577 0.18301 0.0
O105 O 0.97148 0.05007 0.17454 0.0
O106 O 0.92088 0.06968 0.18758 0.0
C107 C 0.00509 0.9991 0.15634 0.0
O108 O 0.026 0.00238 0.16658 0.0
C109 C 0.81838 0.05469 0.20839 0.0
C110 C 0.73322 0.06352 0.20752 0.0
C111 C 0.77266 0.05525 0.215 0.0
N112 N 0.80601 0.06149 0.19754 0.0
N113 N 0.75537 0.06761 0.19714 0.0
C114 C 0.87123 0.04377 0.21177 0.0
H115 H 0.89358 0.03717 0.20409 0.0
H116 H 0.86723 0.02683 0.21782 0.0
H117 H 0.89407 0.05966 0.21614 0.0
C118 C 0.88564 0.97882 0.17584 0.0
N119 N 0.88387 0.00552 0.17506 0.0
N120 N 0.8522 0.0151 0.18301 0.0
C121 C 0.83226 0.99418 0.18902 0.0
C122 C 0.85407 0.97083 0.18481 0.0
C123 C 0.91724 0.96083 0.16822 0.0
H124 H 0.91305 0.96705 0.15914 0.0
H125 H 0.95929 0.96177 0.17078 0.0
H126 H 0.90396 0.93985 0.16899 0.0
O127 O 0.87254 0.0525 0.15709 0.0
O128 O 0.81963 0.07119 0.16998 0.0
H129 H 0.76849 0.97706 0.1987 0.0
H130 H 0.81177 0.99791 0.20678 0.0
C131 C 0.7919 0.99571 0.19836 0.0
H132 H 0.76481 0.0126 0.19685 0.0
H133 H 0.73507 0.0723 0.18961 0.0
O134 O 0.96037 0.00919 0.15413 0.0
C135 C 0.83478 0.06815 0.15956 0.0
Co136 Co 0.67596 0.97227 0.91591 0.0
Co137 Co 0.60015 0.94925 0.93441 0.0
C138 C 0.71529 0.9337 0.93337 0.0
O139 O 0.72262 0.9492 0.9249 0.0
O140 O 0.66973 0.93103 0.93788 0.0
C141 C 0.766 0.99946 0.90811 0.0
O142 O 0.78278 0.99472 0.9186 0.0
C143 C 0.56658 0.94882 0.95817 0.0
C144 C 0.48066 0.94258 0.9568 0.0
C145 C 0.52009 0.94955 0.96452 0.0
N146 N 0.55475 0.94254 0.94723 0.0
N147 N 0.50355 0.93796 0.94653 0.0
C148 C 0.62014 0.95814 0.96188 0.0
H149 H 0.6442 0.96406 0.95435 0.0
H150 H 0.61731 0.97517 0.96792 0.0
H151 H 0.64054 0.9416 0.96637 0.0
C152 C 0.64593 0.02319 0.92633 0.0
N153 N 0.64152 0.99658 0.92545 0.0
N154 N 0.60802 0.98773 0.9332 0.0
C155 C 0.5894 0.00906 0.93915 0.0
C156 C 0.61408 0.03185 0.93515 0.0
C157 C 0.67956 0.04048 0.91884 0.0
H158 H 0.72126 0.03877 0.9216 0.0
H159 H 0.66777 0.0617 0.91951 0.0
H160 H 0.67589 0.03423 0.90974 0.0
O161 O 0.62522 0.95116 0.90695 0.0
O162 O 0.57027 0.93328 0.91967 0.0
H163 H 0.52593 0.02777 0.9484 0.0
H164 H 0.56545 0.00554 0.9567 0.0
C165 C 0.54733 0.00849 0.94814 0.0
H166 H 0.51872 0.99243 0.94633 0.0
H167 H 0.48364 0.934 0.93887 0.0
O168 O 0.72076 0.9913 0.90505 0.0
C169 C 0.58572 0.93651 0.90929 0.0
Co170 Co 0.06907 0.78136 0.91664 0.0
Co171 Co 0.14704 0.80543 0.93445 0.0
C172 C 0.03152 0.82074 0.93386 0.0
O173 O 0.0232 0.80468 0.92565 0.0
O174 O 0.07764 0.82377 0.93806 0.0
C175 C 0.97873 0.75317 0.90959 0.0
O176 O 0.9639 0.7574 0.92026 0.0
C177 C 0.18218 0.80599 0.95806 0.0
C178 C 0.2676 0.81354 0.95653 0.0
C179 C 0.22897 0.80584 0.96432 0.0
N180 N 0.19309 0.81266 0.94712 0.0
N181 N 0.24396 0.818 0.94632 0.0
C182 C 0.1294 0.79574 0.96184 0.0
H183 H 0.10473 0.79035 0.95433 0.0
H184 H 0.13366 0.77814 0.96752 0.0
H185 H 0.10886 0.81157 0.96677 0.0
C186 C 0.1025 0.73091 0.92697 0.0
N187 N 0.105 0.75758 0.92613 0.0
N188 N 0.13982 0.76688 0.9335 0.0
C189 C 0.16143 0.74581 0.93912 0.0
C190 C 0.13707 0.72265 0.93538 0.0
C191 C 0.07008 0.71319 0.91939 0.0
H192 H 0.07228 0.7201 0.91037 0.0
H193 H 0.02849 0.71362 0.92232 0.0
H194 H 0.08414 0.69228 0.91972 0.0
O195 O 0.11892 0.80212 0.90728 0.0
O196 O 0.17559 0.82069 0.91948 0.0
H197 H 0.23277 0.76376 0.94535 0.0
H198 H 0.22899 0.72836 0.9475 0.0
C199 C 0.20601 0.74714 0.94753 0.0
H200 H 0.19018 0.74979 0.95632 0.0
H201 H 0.26325 0.82239 0.93863 0.0
O202 O 0.02298 0.76191 0.90617 0.0
C203 C 0.15881 0.81683 0.90923 0.0
Co204 Co 0.65699 0.7824 0.83815 0.0
Co205 Co 0.59775 0.80743 0.81736 0.0
C206 C 0.71123 0.82 0.82182 0.0
O207 O 0.70928 0.80533 0.8307 0.0
O208 O 0.6711 0.82261 0.8153 0.0
C209 C 0.73955 0.75243 0.84738 0.0
O210 O 0.75813 0.75525 0.8369 0.0
C211 C 0.57371 0.80833 0.79298 0.0
C212 C 0.4884 0.81704 0.79287 0.0
C213 C 0.52951 0.80856 0.78587 0.0
N214 N 0.55879 0.81537 0.80366 0.0
N215 N 0.50813 0.82147 0.80346 0.0
C216 C 0.6274 0.79753 0.79023 0.0
H217 H 0.64765 0.79078 0.79816 0.0
H218 H 0.62518 0.78075 0.78405 0.0
H219 H 0.65131 0.81356 0.78625 0.0
C220 C 0.62557 0.73229 0.82723 0.0
N221 N 0.62542 0.75905 0.82776 0.0
N222 N 0.59891 0.76879 0.81897 0.0
C223 C 0.58091 0.74791 0.81265 0.0
C224 C 0.5984 0.72445 0.81759 0.0
C225 C 0.65097 0.71409 0.83579 0.0
H226 H 0.64457 0.72162 0.84463 0.0
H227 H 0.69383 0.71288 0.83401 0.0
H228 H 0.63448 0.69367 0.83519 0.0
O229 O 0.60461 0.8046 0.84579 0.0
O230 O 0.56481 0.82579 0.83141 0.0
H231 H 0.51739 0.76638 0.80344 0.0
H232 H 0.5218 0.73087 0.80161 0.0
C233 C 0.54502 0.7495 0.80248 0.0
H234 H 0.56862 0.75171 0.79455 0.0
H235 H 0.48604 0.82627 0.81074 0.0
O236 O 0.69526 0.76261 0.84993 0.0
C237 C 0.5716 0.82172 0.84219 0.0
Co238 Co 0.08682 0.97108 0.83722 0.0
Co239 Co 0.1484 0.94535 0.81693 0.0
C240 C 0.03359 0.93376 0.8207 0.0
O241 O 0.03459 0.94881 0.82947 0.0
O242 O 0.07484 0.93037 0.81459 0.0
C243 C 0.00408 0.0017 0.84604 0.0
O244 O 0.98576 0.99858 0.83556 0.0
C245 C 0.17475 0.94413 0.79268 0.0
C246 C 0.25961 0.9344 0.79295 0.0
C247 C 0.21954 0.94332 0.78577 0.0
N248 N 0.18837 0.93697 0.80343 0.0
N249 N 0.23875 0.93027 0.80345 0.0
C250 C 0.12181 0.95554 0.7897 0.0
H251 H 0.10084 0.96221 0.79755 0.0
H252 H 0.12542 0.97248 0.78365 0.0
H253 H 0.09782 0.93988 0.78547 0.0
C254 C 0.12083 0.02074 0.82645 0.0
N255 N 0.12035 0.99401 0.82699 0.0
N256 N 0.14799 0.98405 0.81843 0.0
C257 C 0.16766 0.00476 0.81225 0.0
C258 C 0.14954 0.02839 0.81697 0.0
C259 C 0.096 0.03908 0.83504 0.0
H260 H 0.10177 0.03132 0.84386 0.0
H261 H 0.05326 0.04084 0.83319 0.0
H262 H 0.11352 0.0593 0.83455 0.0
O263 O 0.13737 0.94838 0.84517 0.0
O264 O 0.17993 0.92724 0.83116 0.0
H265 H 0.23159 0.98548 0.80348 0.0
H266 H 0.22942 0.021 0.80165 0.0
C267 C 0.20504 0.00274 0.80235 0.0
H268 H 0.18258 1.00085 0.79424 0.0
H269 H 0.25994 0.92524 0.81083 0.0
O270 O 0.04807 0.99139 0.84874 0.0
C271 C 0.17115 0.9313 0.84188 0.0
Co272 Co 0.33827 0.52898 0.58764 0.0
Co273 Co 0.39794 0.55572 0.56739 0.0
C274 C 0.28413 0.56794 0.57185 0.0
O275 O 0.28615 0.55244 0.58046 0.0
O276 O 0.32452 0.57135 0.56547 0.0
C277 C 0.25563 0.49794 0.59595 0.0
O278 O 0.23839 0.50149 0.58541 0.0
C279 C 0.42376 0.55838 0.54314 0.0
C280 C 0.50898 0.56724 0.5435 0.0
C281 C 0.4686 0.55908 0.53624 0.0
N282 N 0.43767 0.56481 0.55396 0.0
N283 N 0.48827 0.57104 0.55404 0.0
C284 C 0.37039 0.54768 0.54005 0.0
H285 H 0.34922 0.54077 0.54784 0.0
H286 H 0.37327 0.53107 0.53381 0.0
H287 H 0.34698 0.56382 0.53601 0.0
C288 C 0.37008 0.47977 0.57609 0.0
N289 N 0.36994 0.50648 0.57694 0.0
N290 N 0.3967 0.51687 0.56835 0.0
C291 C 0.41531 0.49645 0.56182 0.0
C292 C 0.39758 0.47262 0.56639 0.0
C293 C 0.34612 0.46092 0.58458 0.0
H294 H 0.35213 0.46829 0.59346 0.0
H295 H 0.30336 0.45894 0.58281 0.0
H296 H 0.36409 0.44083 0.58387 0.0
O297 O 0.39076 0.55027 0.59572 0.0
O298 O 0.43118 0.57253 0.58174 0.0
H299 H 0.47937 0.51574 0.55312 0.0
H300 H 0.47583 0.48036 0.55086 0.0
C301 C 0.45216 0.49881 0.55184 0.0
H302 H 0.42931 0.50143 0.54382 0.0
H303 H 0.50966 0.57542 0.56146 0.0
O304 O 0.29927 0.50818 0.59894 0.0
C305 C 0.42428 0.56746 0.59244 0.0
Co306 Co 0.91233 0.72363 0.58764 0.0
Co307 Co 0.85037 0.69894 0.56725 0.0
C308 C 0.96274 0.68378 0.57173 0.0
O309 O 0.96223 0.69881 0.58051 0.0
O310 O 0.92251 0.68205 0.56517 0.0
C311 C 0.99715 0.75206 0.59709 0.0
O312 O 0.01749 0.74819 0.58683 0.0
C313 C 0.82145 0.6971 0.54306 0.0
C314 C 0.7359 0.6893 0.54401 0.0
C315 C 0.77553 0.69702 0.53647 0.0
N316 N 0.80881 0.69082 0.55396 0.0
N317 N 0.75797 0.68522 0.55439 0.0
C318 C 0.87505 0.7068 0.53959 0.0
H319 H 0.89809 0.71302 0.54724 0.0
H320 H 0.87242 0.72362 0.53345 0.0
H321 H 0.89643 0.69031 0.53527 0.0
C322 C 0.88665 0.77377 0.57609 0.0
N323 N 0.88335 0.74713 0.57695 0.0
N324 N 0.85495 0.73763 0.56841 0.0
C325 C 0.83839 0.75861 0.56195 0.0
C326 C 0.85955 0.78183 0.56645 0.0
C327 C 0.91346 0.79173 0.58454 0.0
H328 H 0.90561 0.78492 0.59343 0.0
H329 H 0.95652 0.79159 0.58291 0.0
H330 H 0.89927 0.81254 0.58369 0.0
O331 O 0.85795 0.70346 0.5956 0.0
O332 O 0.81652 0.68219 0.58151 0.0
H333 H 0.77259 0.74078 0.55326 0.0
H334 H 0.77828 0.77614 0.55129 0.0
C335 C 0.80084 0.7573 0.55206 0.0
H336 H 0.82306 0.75472 0.54396 0.0
H337 H 0.73749 0.68101 0.56195 0.0
O338 O 0.95153 0.74311 0.59932 0.0
C339 C 0.82358 0.68682 0.59223 0.0
Co340 Co 0.32795 0.71671 0.66637 0.0
Co341 Co 0.40527 0.69482 0.68483 0.0
C342 C 0.29065 0.67844 0.6841 0.0
O343 O 0.28249 0.69395 0.67569 0.0
O344 O 0.33652 0.67587 0.68848 0.0
C345 C 0.23785 0.74433 0.65905 0.0
O346 O 0.22424 0.74164 0.66989 0.0
C347 C 0.44007 0.6954 0.70854 0.0
C348 C 0.52617 0.69008 0.70699 0.0
C349 C 0.48687 0.6969 0.71478 0.0
N350 N 0.45158 0.6889 0.6976 0.0
N351 N 0.50294 0.68487 0.69681 0.0
C352 C 0.38623 0.70417 0.71232 0.0
H353 H 0.36152 0.70953 0.70481 0.0
H354 H 0.38847 0.72143 0.71824 0.0
H355 H 0.36691 0.68753 0.71696 0.0
C356 C 0.35895 0.7683 0.67591 0.0
N357 N 0.36283 0.74162 0.6755 0.0
N358 N 0.39612 0.73328 0.6834 0.0
C359 C 0.4148 0.75503 0.68905 0.0
C360 C 0.39036 0.7776 0.68469 0.0
C361 C 0.32814 0.78515 0.66768 0.0
H362 H 0.3308 0.77687 0.65888 0.0
H363 H 0.28633 0.78587 0.67044 0.0
H364 H 0.34337 0.80586 0.66751 0.0
O365 O 0.37817 0.69545 0.65745 0.0
O366 O 0.4351 0.67873 0.67007 0.0
H367 H 0.48544 0.73899 0.69648 0.0
H368 H 0.47734 0.7742 0.69852 0.0
C369 C 0.4563 0.75488 0.69819 0.0
H370 H 0.43769 0.75185 0.70669 0.0
H371 H 0.52262 0.68089 0.68912 0.0
O372 O 0.28141 0.73479 0.6556 0.0
C373 C 0.4185 0.68133 0.65972 0.0
Co374 Co 0.923 0.53272 0.66318 0.0
Co375 Co 0.8553 0.55548 0.68325 0.0
C376 C 0.97034 0.56852 0.68109 0.0
O377 O 0.97359 0.55391 0.67221 0.0
O378 O 0.92654 0.57172 0.68629 0.0
C379 C 0.00651 0.50167 0.65542 0.0
O380 O 0.01868 0.50244 0.6664 0.0
C381 C 0.82675 0.55828 0.7075 0.0
C382 C 0.73987 0.55835 0.70674 0.0
C383 C 0.78189 0.55497 0.71426 0.0
N384 N 0.81177 0.5618 0.6965 0.0
N385 N 0.75973 0.56279 0.69617 0.0
C386 C 0.88326 0.55769 0.71126 0.0
H387 H 0.90412 0.57515 0.70762 0.0
H388 H 0.90284 0.53956 0.70788 0.0
H389 H 0.88693 0.55852 0.72076 0.0
C390 C 0.88781 0.48151 0.67242 0.0
N391 N 0.88751 0.50828 0.67244 0.0
N392 N 0.86064 0.51703 0.68136 0.0
C393 C 0.84401 0.49553 0.68743 0.0
C394 C 0.86181 0.47256 0.68206 0.0
C395 C 0.91013 0.46429 0.6631 0.0
H396 H 0.90673 0.47429 0.65465 0.0
H397 H 0.95207 0.45987 0.66499 0.0
H398 H 0.88882 0.445 0.66269 0.0
O399 O 0.87274 0.55545 0.6551 0.0
O400 O 0.8236 0.57324 0.66897 0.0
H401 H 0.77936 0.50971 0.69747 0.0
H402 H 0.8001 0.47651 0.70111 0.0
C403 C 0.81395 0.4965 0.69845 0.0
H404 H 0.84006 0.50426 0.70525 0.0
H405 H 0.73775 0.56417 0.68861 0.0
O406 O 0.96562 0.51376 0.6519 0.0
C407 C 0.83541 0.57064 0.65831 0.0
Co408 Co 0.65986 0.4674 0.4149 0.0
Co409 Co 0.59106 0.44564 0.43484 0.0
C410 C 0.70208 0.42673 0.4314 0.0
O411 O 0.70567 0.44114 0.42247 0.0
O412 O 0.66038 0.42659 0.43752 0.0
C413 C 0.74808 0.49462 0.4066 0.0
O414 O 0.76526 0.49057 0.41712 0.0
C415 C 0.55988 0.44578 0.45886 0.0
C416 C 0.47369 0.44025 0.45772 0.0
C417 C 0.5137 0.44717 0.46531 0.0
N418 N 0.54722 0.43936 0.44797 0.0
N419 N 0.49587 0.43516 0.44743 0.0
C420 C 0.61417 0.45433 0.46239 0.0
H421 H 0.63833 0.45945 0.45476 0.0
H422 H 0.61277 0.47163 0.4683 0.0
H423 H 0.63358 0.43764 0.46699 0.0
C424 C 0.63594 0.51897 0.42561 0.0
N425 N 0.63135 0.4923 0.42514 0.0
N426 N 0.60038 0.48402 0.43348 0.0
C427 C 0.5838 0.50575 0.43946 0.0
C428 C 0.60739 0.52827 0.43485 0.0
C429 C 0.66339 0.53593 0.41687 0.0
H430 H 0.6568 0.52793 0.40812 0.0
H431 H 0.70621 0.5364 0.41878 0.0
H432 H 0.64856 0.55672 0.4171 0.0
O433 O 0.60453 0.44869 0.40655 0.0
O434 O 0.55765 0.4294 0.42038 0.0
H435 H 0.51475 0.48983 0.44761 0.0
H436 H 0.52338 0.52503 0.44952 0.0
C437 C 0.54427 0.50569 0.449 0.0
H438 H 0.56466 0.50272 0.4573 0.0
H439 H 0.4754 0.43119 0.43984 0.0
O440 O 0.70328 0.48572 0.40366 0.0
C441 C 0.5674 0.43338 0.40971 0.0
Co442 Co 0.08231 0.27851 0.41328 0.0
Co443 Co 0.14209 0.3037 0.43398 0.0
C444 C 0.02811 0.31563 0.43002 0.0
O445 O 0.02978 0.3008 0.42117 0.0
O446 O 0.06901 0.31905 0.43624 0.0
C447 C -0.00013 0.24788 0.40452 0.0
O448 O 0.98246 0.25052 0.4151 0.0
C449 C 0.16927 0.3079 0.45833 0.0
C450 C 0.25611 0.30929 0.45758 0.0
C451 C 0.21437 0.30533 0.46513 0.0
N452 N 0.18407 0.31145 0.44732 0.0
N453 N 0.23601 0.31328 0.44701 0.0
C454 C 0.11276 0.30682 0.46207 0.0
H455 H 0.09452 0.28791 0.45918 0.0
H456 H 0.10899 0.3089 0.47153 0.0
H457 H 0.09065 0.3233 0.45794 0.0
C458 C 0.11492 0.22844 0.42395 0.0
N459 N 0.11519 0.2552 0.42344 0.0
N460 N 0.13951 0.26495 0.43251 0.0
C461 C 0.15486 0.24406 0.43914 0.0
C462 C 0.1389 0.22057 0.43398 0.0
C463 C 0.09154 0.21023 0.41512 0.0
H464 H 0.09758 0.21837 0.40637 0.0
H465 H 0.0488 0.20783 0.41683 0.0
H466 H 0.10996 0.19021 0.41559 0.0
O467 O 0.13375 0.3007 0.40545 0.0
O468 O 0.17489 0.32146 0.41975 0.0
H469 H 0.19853 0.22613 0.45305 0.0
H470 H 0.15538 0.25289 0.45697 0.0
C471 C 0.18318 0.24585 0.45034 0.0
H472 H 0.21666 0.25982 0.44958 0.0
H473 H 0.25794 0.31482 0.43945 0.0
O474 O 0.04337 0.25851 0.40171 0.0
C475 C 0.16755 0.31746 0.40899 0.0
Co476 Co 0.66962 0.28493 0.33615 0.0
Co477 Co 0.59567 0.30797 0.3173 0.0
C478 C 0.71021 0.32386 0.31895 0.0
O479 O 0.71672 0.30822 0.32739 0.0
O480 O 0.66519 0.32654 0.31419 0.0
C481 C 0.75862 0.25688 0.34361 0.0
O482 O 0.774 0.26116 0.33298 0.0
C483 C 0.56403 0.30827 0.29339 0.0
C484 C 0.47799 0.3144 0.29445 0.0
C485 C 0.51802 0.30735 0.28688 0.0
N486 N 0.55133 0.31467 0.30428 0.0
N487 N 0.50007 0.3192 0.30478 0.0
C488 C 0.61798 0.29906 0.28991 0.0
H489 H 0.6416 0.29339 0.29754 0.0
H490 H 0.61585 0.2819 0.28393 0.0
H491 H 0.63843 0.31557 0.28541 0.0
C492 C 0.63934 0.23391 0.32592 0.0
N493 N 0.63592 0.2606 0.32652 0.0
N494 N 0.60367 0.26941 0.31851 0.0
C495 C 0.58509 0.24799 0.31262 0.0
C496 C 0.60862 0.22512 0.31693 0.0
C497 C 0.66893 0.21657 0.33418 0.0
H498 H 0.6648 0.2243 0.34305 0.0
H499 H 0.71117 0.2161 0.33173 0.0
H500 H 0.65385 0.19584 0.33401 0.0
O501 O 0.61799 0.30572 0.34496 0.0
O502 O 0.5644 0.32376 0.33197 0.0
H503 H 0.51562 0.26483 0.30499 0.0
H504 H 0.52258 0.22957 0.30287 0.0
C505 C 0.54429 0.24869 0.30334 0.0
H506 H 0.56364 0.25168 0.29491 0.0
H507 H 0.47955 0.32321 0.31236 0.0
O508 O 0.71442 0.26582 0.34698 0.0
C509 C 0.5787 0.32036 0.34243 0.0
Co510 Co 0.07581 0.47287 0.33825 0.0
Co511 Co 0.14379 0.44974 0.31836 0.0
C512 C 0.02926 0.43594 0.32065 0.0
O513 O 0.02563 0.451 0.32939 0.0
O514 O 0.0731 0.43277 0.31546 0.0
C515 C 0.99166 0.50348 0.34629 0.0
O516 O 0.97777 0.5025 0.33541 0.0
C517 C 0.17326 0.44572 0.29418 0.0
C518 C 0.26 0.4479 0.29511 0.0
C519 C 0.21808 0.44981 0.28746 0.0
N520 N 0.18804 0.44325 0.30524 0.0
N521 N 0.2401 0.44356 0.30568 0.0
C522 C 0.11695 0.44455 0.2903 0.0
H523 H 0.0976 0.42698 0.29422 0.0
H524 H 0.09547 0.46249 0.2933 0.0
H525 H 0.1139 0.44273 0.28082 0.0
C526 C 0.10863 0.52393 0.32856 0.0
N527 N 0.11042 0.49718 0.32882 0.0
N528 N 0.13695 0.48828 0.31989 0.0
C529 C 0.15164 0.50966 0.31349 0.0
C530 C 0.13306 0.53268 0.3187 0.0
C531 C 0.08605 0.54133 0.33779 0.0
H532 H 0.09055 0.53182 0.34633 0.0
H533 H 0.04377 0.5451 0.336 0.0
H534 H 0.10638 0.5609 0.33794 0.0
O535 O 0.12639 0.4508 0.34649 0.0
O536 O 0.17582 0.43264 0.33278 0.0
H537 H 0.21601 0.49624 0.30319 0.0
H538 H 0.19127 0.52847 0.29915 0.0
C539 C 0.17995 0.50843 0.30226 0.0
H540 H 0.15361 0.49935 0.29582 0.0
H541 H 0.26183 0.44324 0.31329 0.0
O542 O 0.03348 0.49181 0.34953 0.0
C543 C 0.1639 0.43562 0.34341 0.0
Co544 Co 0.83977 0.03063 0.5879 0.0
Co545 Co 0.89884 0.05622 0.56728 0.0
C546 C 0.78616 0.0697 0.57199 0.0
O547 O 0.78857 0.05457 0.58072 0.0
O548 O 0.8258 0.07228 0.56532 0.0
C549 C 0.75655 1.00037 0.59644 0.0
O550 O 0.74024 0.00287 0.58577 0.0
C551 C 0.92601 0.05799 0.54298 0.0
C552 C 0.01138 0.06636 0.54362 0.0
C553 C 0.97147 0.05814 0.53624 0.0
N554 N 0.93923 0.06465 0.55382 0.0
N555 N 0.98994 0.07061 0.55405 0.0
C556 C 0.87242 0.04783 0.53975 0.0
H557 H 0.8503 0.04144 0.54749 0.0
H558 H 0.87497 0.03102 0.5336 0.0
H559 H 0.85011 0.06414 0.53553 0.0
C560 C 0.86912 0.98078 0.57655 0.0
N561 N 0.87012 0.0075 0.57727 0.0
N562 N 0.89653 0.01739 0.56851 0.0
C563 C 0.91374 0.99659 0.56201 0.0
C564 C 0.89531 0.97306 0.56675 0.0
C565 C 0.84566 0.96239 0.5853 0.0
H566 H 0.85183 0.97031 0.59408 0.0
H567 H 0.80288 0.96011 0.5836 0.0
H568 H 0.86393 0.94234 0.58476 0.0
O569 O 0.89312 0.05158 0.59579 0.0
O570 O 0.93227 0.07351 0.58155 0.0
H571 H 0.97772 0.01505 0.55297 0.0
H572 H 0.97306 0.97968 0.55096 0.0
C573 C 0.94991 0.9983 0.5519 0.0
H574 H 0.92657 1.00071 0.54394 0.0
H575 H 0.01086 0.07512 0.56152 0.0
O576 O 0.80004 0.01081 0.5994 0.0
C577 C 0.92618 0.06876 0.5923 0.0
Co578 Co 0.40797 0.22203 0.58882 0.0
Co579 Co 0.35089 0.19822 0.56756 0.0
C580 C 0.46251 0.18432 0.57215 0.0
O581 O 0.45948 0.19848 0.58119 0.0
O582 O 0.42337 0.18242 0.56531 0.0
C583 C 0.4907 0.25221 0.59743 0.0
O584 O 0.50735 0.24956 0.58679 0.0
C585 C 0.32309 0.19412 0.54319 0.0
C586 C 0.23621 0.19444 0.5441 0.0
C587 C 0.27794 0.1973 0.53647 0.0
N588 N 0.30841 0.19118 0.55424 0.0
N589 N 0.25639 0.19041 0.55466 0.0
C590 C 0.37948 0.19382 0.53934 0.0
H591 H 0.40003 0.21196 0.54238 0.0
H592 H 0.38265 0.19216 0.52985 0.0
H593 H 0.39983 0.17653 0.54328 0.0
C594 C 0.37895 0.27276 0.57828 0.0
N595 N 0.37745 0.246 0.57859 0.0
N596 N 0.35484 0.23686 0.5692 0.0
C597 C 0.34215 0.25813 0.56252 0.0
C598 C 0.35816 0.2813 0.56799 0.0
C599 C 0.39898 0.2904 0.58769 0.0
H600 H 0.39153 0.28129 0.59621 0.0
H601 H 0.44184 0.29379 0.58652 0.0
H602 H 0.37922 0.31012 0.58738 0.0
O603 O 0.35495 0.20065 0.59645 0.0
O604 O 0.31757 0.1799 0.58167 0.0
H605 H 0.28248 0.24374 0.55118 0.0
H606 H 0.30505 0.27679 0.54786 0.0
C607 C 0.31748 0.25683 0.5509 0.0
H608 H 0.34661 0.24888 0.54475 0.0
H609 H 0.23464 0.1895 0.56226 0.0
O610 O 0.4475 0.24152 0.60041 0.0
C611 C 0.32261 0.18365 0.59252 0.0
Co612 Co 0.81979 0.21839 0.66516 0.0
Co613 Co 0.89351 0.1959 0.68427 0.0
C614 C 0.77879 0.18016 0.68261 0.0
O615 O 0.77232 0.19553 0.67407 0.0
O616 O 0.82386 0.17758 0.68735 0.0
C617 C 0.73194 0.24709 0.65778 0.0
O618 O 0.71748 0.2436 0.66852 0.0
C619 C 0.92366 0.19475 0.70837 0.0
C620 C 0.01046 0.19359 0.70748 0.0
C621 C 0.96892 0.19825 0.71501 0.0
N622 N 0.93801 0.18996 0.69742 0.0
N623 N 0.98998 0.18831 0.69703 0.0
C624 C 0.86732 0.19666 0.71217 0.0
H625 H 0.84974 0.21546 0.70893 0.0
H626 H 0.86376 0.19562 0.72166 0.0
H627 H 0.84456 0.17993 0.70845 0.0
C628 C 0.85132 0.26973 0.67487 0.0
N629 N 0.85374 0.24298 0.67458 0.0
N630 N 0.8851 0.23435 0.6828 0.0
C631 C 0.90362 0.25592 0.68857 0.0
C632 C 0.8815 0.27873 0.6839 0.0
C633 C 0.82364 0.28692 0.66625 0.0
H634 H 0.82743 0.27831 0.65752 0.0
H635 H 0.78141 0.28862 0.6686 0.0
H636 H 0.84055 0.30729 0.66612 0.0
O637 O 0.87146 0.19735 0.65655 0.0
O638 O 0.92523 0.17986 0.66966 0.0
H639 H 0.97389 0.24105 0.69644 0.0
H640 H 0.9591 0.27512 0.7 0.0
C641 C 0.94173 0.25525 0.69834 0.0
H642 H 0.9206 0.24904 0.70618 0.0
H643 H 0.0116 0.18597 0.68946 0.0
O644 O 0.7752 0.23731 0.65428 0.0
C645 C 0.91097 0.18296 0.65917 0.0
Co646 Co 0.42085 0.03072 0.6652 0.0
Co647 Co 0.34516 0.05321 0.68385 0.0
C648 C 0.46039 0.06862 0.6829 0.0
O649 O 0.46768 0.05329 0.67437 0.0
O650 O 0.41482 0.07128 0.68742 0.0
C651 C 0.51016 0.00301 0.65722 0.0
O652 O 0.52655 0.00651 0.66783 0.0
C653 C 0.31081 0.05282 0.70762 0.0
C654 C 0.22506 0.05953 0.70612 0.0
C655 C 0.26401 0.05202 0.71388 0.0
N656 N 0.29953 0.05959 0.6967 0.0
N657 N 0.24845 0.06444 0.69594 0.0
C658 C 0.36419 0.04329 0.71136 0.0
H659 H 0.38864 0.03781 0.70382 0.0
H660 H 0.3611 0.02593 0.7172 0.0
H661 H 0.38432 0.05957 0.71608 0.0
C662 C 0.38962 0.97944 0.67502 0.0
N663 N 0.38596 0.00611 0.67449 0.0
N664 N 0.35283 0.01471 0.68237 0.0
C665 C 0.3338 0.99314 0.68809 0.0
C666 C 0.358 0.97041 0.68382 0.0
C667 C 0.42099 0.96238 0.66697 0.0
H668 H 0.41739 0.96994 0.65806 0.0
H669 H 0.46297 0.96256 0.66962 0.0
H670 H 0.40701 0.94145 0.66712 0.0
O671 O 0.37047 0.05224 0.65638 0.0
O672 O 0.31537 0.06971 0.66919 0.0
H673 H 0.2639 0.00994 0.69556 0.0
H674 H 0.27009 0.97458 0.69738 0.0
C675 C 0.29216 0.99361 0.69719 0.0
H676 H 0.31078 0.99608 0.70572 0.0
H677 H 0.22893 0.06882 0.68827 0.0
O678 O 0.46558 0.01211 0.6542 0.0
C679 C 0.33096 0.06682 0.65879 0.0
Co680 Co 0.16123 0.97273 0.41484 0.0
Co681 Co 0.10006 0.94653 0.43507 0.0
C682 C 0.2151 0.93537 0.43132 0.0
O683 O 0.21355 0.95047 0.42258 0.0
O684 O 0.17395 0.93164 0.43744 0.0
C685 C 0.24407 0.00333 0.40607 0.0
O686 O 0.26235 1.00011 0.41655 0.0
C687 C 0.07221 0.94539 0.45927 0.0
C688 C 0.98739 0.93566 0.4587 0.0
C689 C 0.02681 0.94475 0.46601 0.0
N690 N 0.05948 0.93803 0.44849 0.0
N691 N 0.00913 0.93132 0.4483 0.0
C692 C 0.1249 0.95682 0.46241 0.0
H693 H 0.1466 0.96322 0.45462 0.0
H694 H 0.12083 0.97395 0.46836 0.0
H695 H 0.14845 0.94126 0.46683 0.0
C696 C 0.12728 0.0222 0.4258 0.0
N697 N 0.12782 0.99548 0.42515 0.0
N698 N 0.10009 0.98533 0.43366 0.0
C699 C 0.08013 0.00594 0.43988 0.0
C700 C 0.09826 0.02966 0.43525 0.0
C701 C 0.15259 0.04071 0.41735 0.0
H702 H 0.14688 0.03326 0.40848 0.0
H703 H 0.19533 0.04219 0.41925 0.0
H704 H 0.13541 0.06099 0.41795 0.0
O705 O 0.11035 0.95035 0.40682 0.0
O706 O 0.06869 0.92861 0.42078 0.0
H707 H 0.01732 0.02203 0.45021 0.0
H708 H 0.06369 0.00201 0.45782 0.0
C709 C 0.04194 0.00381 0.44962 0.0
H710 H 0.01565 0.98651 0.44836 0.0
H711 H 0.98853 0.92619 0.44086 0.0
O712 O 0.19999 0.99316 0.40336 0.0
C713 C 0.07686 0.93313 0.41008 0.0
Co714 Co 0.58445 0.78177 0.41376 0.0
Co715 Co 0.64864 0.80479 0.43417 0.0
C716 C 0.53656 0.82081 0.43046 0.0
O717 O 0.53609 0.80657 0.42144 0.0
O718 O 0.57718 0.82172 0.43693 0.0
C719 C 0.4981 0.75345 0.40512 0.0
O720 O 0.48067 0.75667 0.41567 0.0
C721 C 0.68035 0.80561 0.45821 0.0
C722 C 0.76607 0.81261 0.45688 0.0
C723 C 0.72691 0.80518 0.46458 0.0
N724 N 0.69212 0.81196 0.44727 0.0
N725 N 0.74312 0.81705 0.44661 0.0
C726 C 0.62678 0.79633 0.46191 0.0
H727 H 0.60294 0.79022 0.45436 0.0
H728 H 0.62946 0.7795 0.46804 0.0
H729 H 0.60622 0.81299 0.46629 0.0
C730 C 0.61193 0.73066 0.42434 0.0
N731 N 0.61465 0.7574 0.42395 0.0
N732 N 0.6434 0.7662 0.43257 0.0
C733 C 0.66039 0.74473 0.43866 0.0
C734 C 0.63943 0.72181 0.43381 0.0
C735 C 0.58605 0.71335 0.41551 0.0
H736 H 0.59252 0.72156 0.40679 0.0
H737 H 0.54318 0.71218 0.4173 0.0
H738 H 0.60221 0.69282 0.41576 0.0
O739 O 0.6381 0.80211 0.40565 0.0
O740 O 0.68057 0.82247 0.41986 0.0
H741 H 0.72642 0.76168 0.44757 0.0
H742 H 0.71931 0.72637 0.44943 0.0
C743 C 0.6975 0.74541 0.44864 0.0
H744 H 0.67494 0.74814 0.45669 0.0
H745 H 0.76298 0.82121 0.43897 0.0
O746 O 0.54261 0.76297 0.40232 0.0
C747 C 0.67263 0.81857 0.40911 0.0
Co748 Co 0.17492 0.78362 0.33515 0.0
Co749 Co 0.09918 0.80811 0.317 0.0
C750 C 0.21525 0.82217 0.31789 0.0
O751 O 0.2224 0.80619 0.32619 0.0
O752 O 0.16953 0.82564 0.31355 0.0
C753 C 0.26316 0.75438 0.34265 0.0
O754 O 0.27927 0.75816 0.33204 0.0
C755 C 0.06543 0.80849 0.2933 0.0
C756 C 0.98012 0.81659 0.2946 0.0
C757 C 0.01892 0.8084 0.28694 0.0
N758 N 0.05416 0.81554 0.30418 0.0
N759 N 0.00338 0.82123 0.30483 0.0
C760 C 0.11816 0.79781 0.28969 0.0
H761 H 0.14228 0.79239 0.29729 0.0
H762 H 0.11384 0.78013 0.28406 0.0
H763 H 0.13935 0.8134 0.28477 0.0
C764 C 0.14058 0.73333 0.32485 0.0
N765 N 0.13868 0.76001 0.32564 0.0
N766 N 0.1049 0.76949 0.31808 0.0
C767 C 0.08344 0.74851 0.31237 0.0
C768 C 0.10684 0.72524 0.31627 0.0
C769 C 0.17185 0.7154 0.33257 0.0
H770 H 0.16926 0.7224 0.34158 0.0
H771 H 0.21362 0.71535 0.32976 0.0
H772 H 0.15704 0.69462 0.33222 0.0
O773 O 0.12548 0.80507 0.34428 0.0
O774 O 0.07034 0.82399 0.33186 0.0
H775 H 0.01319 0.76683 0.30576 0.0
H776 H 0.01621 0.73136 0.30379 0.0
C777 C 0.0397 0.74997 0.30377 0.0
H778 H 0.05638 0.75223 0.29503 0.0
H779 H 0.98382 0.82593 0.31246 0.0
O780 O 0.21917 0.76388 0.34585 0.0
C781 C 0.08635 0.82016 0.34217 0.0
Co782 Co 0.573 0.97215 0.33643 0.0
Co783 Co 0.64738 0.94926 0.31763 0.0
C784 C 0.53203 0.9347 0.31863 0.0
O785 O 0.52558 0.94987 0.32724 0.0
O786 O 0.5773 0.93179 0.31402 0.0
C787 C 0.48395 1.00017 0.34419 0.0
O788 O 0.46809 0.99642 0.33355 0.0
C789 C 0.68148 0.94893 0.29386 0.0
C790 C 0.76716 0.94197 0.29534 0.0
C791 C 0.72818 0.94933 0.28757 0.0
N792 N 0.69283 0.9425 0.30482 0.0
N793 N 0.74386 0.9375 0.30557 0.0
C794 C 0.62821 0.95857 0.2901 0.0
H795 H 0.60421 0.96472 0.29761 0.0
H796 H 0.63152 0.97552 0.28405 0.0
H797 H 0.60747 0.94212 0.28563 0.0
C798 C 0.6054 0.02327 0.32663 0.0
N799 N 0.60841 0.99657 0.32713 0.0
N800 N 0.6408 0.98779 0.31914 0.0
C801 C 0.65995 0.00925 0.31337 0.0
C802 C 0.63666 0.03214 0.31774 0.0
C803 C 0.57484 0.04047 0.33477 0.0
H804 H 0.57843 0.03276 0.34365 0.0
H805 H 0.53278 0.04067 0.33218 0.0
H806 H 0.58952 0.06129 0.33464 0.0
O807 O 0.62295 0.95027 0.34523 0.0
O808 O 0.67669 0.93241 0.33224 0.0
H809 H 0.72887 0.99216 0.3056 0.0
H810 H 0.7227 0.0275 0.30365 0.0
C811 C 0.70055 0.00851 0.30405 0.0
H812 H 0.68095 0.00583 0.29563 0.0
H813 H 0.76342 0.9333 0.31325 0.0
O814 O 0.52834 0.9911 0.34737 0.0
C815 C 0.66178 0.93534 0.34268 0.0
Co816 Co 0.82658 0.53263 0.08704 0.0
Co817 Co 0.89848 0.55498 0.06762 0.0
C818 C 0.78366 0.56965 0.06916 0.0
O819 O 0.77822 0.55473 0.07789 0.0
O820 O 0.82835 0.57237 0.06427 0.0
C821 C 0.7396 0.50376 0.09496 0.0
O822 O 0.72349 0.50702 0.08431 0.0
C823 C 0.93106 0.55716 0.0436 0.0
C824 C 0.01774 0.55649 0.04505 0.0
C825 C 0.97695 0.55318 0.03721 0.0
N826 N 0.94429 0.56093 0.05469 0.0
N827 N 0.99626 0.56149 0.05543 0.0
C828 C 0.87518 0.55699 0.03941 0.0
H829 H 0.85494 0.53871 0.04242 0.0
H830 H 0.87313 0.55838 0.0299 0.0
H831 H 0.85387 0.57428 0.04308 0.0
C832 C 0.8584 0.48119 0.0775 0.0
N833 N 0.86151 0.50792 0.07784 0.0
N834 N 0.89097 0.51649 0.06929 0.0
C835 C 0.90693 0.49487 0.06317 0.0
C836 C 0.88575 0.47213 0.06808 0.0
C837 C 0.83014 0.46403 0.08603 0.0
H838 H 0.83434 0.4723 0.09481 0.0
H839 H 0.78787 0.46277 0.08367 0.0
H840 H 0.84634 0.44349 0.08599 0.0
O841 O 0.87673 0.55464 0.09553 0.0
O842 O 0.92863 0.57231 0.08215 0.0
H843 H 0.97449 0.50867 0.05399 0.0
H844 H 0.95497 0.47522 0.05042 0.0
C845 C 0.94031 0.4954 0.05263 0.0
H846 H 0.91627 0.50269 0.04538 0.0
H847 H 0.01701 0.56289 0.06315 0.0
O848 O 0.78315 0.51378 0.09813 0.0
C849 C 0.91492 0.56963 0.09269 0.0
Co850 Co 0.42641 0.72199 0.08547 0.0
Co851 Co 0.35239 0.69839 0.0668 0.0
C852 C 0.46802 0.68376 0.06816 0.0
O853 O 0.47464 0.69947 0.07659 0.0
O854 O 0.42272 0.68069 0.06357 0.0
C855 C 0.51424 0.75039 0.09386 0.0
O856 O 0.53302 0.7462 0.08349 0.0
C857 C 0.32011 0.69804 0.04294 0.0
C858 C 0.2345 0.69064 0.04408 0.0
C859 C 0.2739 0.69836 0.03648 0.0
N860 N 0.30809 0.69132 0.05382 0.0
N861 N 0.25712 0.68605 0.05438 0.0
C862 C 0.37342 0.70805 0.03941 0.0
H863 H 0.39703 0.71381 0.04703 0.0
H864 H 0.37014 0.72533 0.03352 0.0
H865 H 0.39457 0.69193 0.03479 0.0
C866 C 0.39462 0.77273 0.07521 0.0
N867 N 0.39147 0.74606 0.07594 0.0
N868 N 0.35873 0.73701 0.06807 0.0
C869 C 0.33934 0.75827 0.0622 0.0
C870 C 0.36295 0.78129 0.06633 0.0
C871 C 0.42577 0.79022 0.08313 0.0
H872 H 0.4214 0.78331 0.09212 0.0
H873 H 0.46793 0.78959 0.08063 0.0
H874 H 0.41223 0.8112 0.08267 0.0
O875 O 0.37618 0.7003 0.09426 0.0
O876 O 0.32234 0.68193 0.08143 0.0
H877 H 0.27017 0.74072 0.05473 0.0
H878 H 0.27513 0.77614 0.05282 0.0
C879 C 0.29784 0.75728 0.05307 0.0
H880 H 0.31664 0.75484 0.04455 0.0
H881 H 0.23706 0.68163 0.06197 0.0
O882 O 0.46921 0.74135 0.09655 0.0
C883 C 0.33738 0.68527 0.09184 0.0
Co884 Co 0.82472 0.71996 0.16653 0.0
Co885 Co 0.89776 0.69639 0.1854 0.0
C886 C 0.78208 0.68195 0.18376 0.0
O887 O 0.77586 0.69764 0.17532 0.0
O888 O 0.82715 0.67884 0.18846 0.0
C889 C 0.7378 0.74859 0.15784 0.0
O890 O 0.7184 0.7446 0.16817 0.0
C891 C 0.92891 0.69655 0.20933 0.0
C892 C 0.01443 0.68871 0.2084 0.0
C893 C 0.97487 0.69693 0.21587 0.0
N894 N 0.94127 0.68938 0.19851 0.0
N895 N 0.99216 0.68383 0.1981 0.0
C896 C 0.87562 0.70693 0.21269 0.0
H897 H 0.85222 0.71229 0.20497 0.0
H898 H 0.87894 0.72455 0.21838 0.0
H899 H 0.85422 0.69116 0.21746 0.0
C900 C 0.85639 0.77074 0.17679 0.0
N901 N 0.85933 0.74406 0.17611 0.0
N902 N 0.89181 0.735 0.18403 0.0
C903 C 0.91133 0.75628 0.18988 0.0
C904 C 0.88796 0.7793 0.18569 0.0
C905 C 0.82578 0.78824 0.16877 0.0
H906 H 0.83051 0.78124 0.15981 0.0
H907 H 0.78351 0.78776 0.17118 0.0
H908 H 0.8395 0.80919 0.16923 0.0
O909 O 0.8752 0.69801 0.15792 0.0
O910 O 0.92839 0.67969 0.17089 0.0
H911 H 0.98022 0.73851 0.19739 0.0
H912 H 0.97612 0.774 0.1991 0.0
C913 C 0.95295 0.75529 0.19898 0.0
H914 H 0.93425 0.75327 0.20752 0.0
H915 H 0.01246 0.67905 0.19057 0.0
O916 O 0.78282 0.73931 0.15528 0.0
C917 C 0.91379 0.68292 0.16044 0.0
Co918 Co 0.42046 0.53174 0.16415 0.0
Co919 Co 0.35063 0.55441 0.18386 0.0
C920 C 0.4654 0.56843 0.18199 0.0
O921 O 0.46998 0.55352 0.17322 0.0
O922 O 0.4211 0.57136 0.18702 0.0
C923 C 0.50583 0.50185 0.15616 0.0
O924 O 0.52162 0.50442 0.16687 0.0
C925 C 0.32007 0.55754 0.20797 0.0
C926 C 0.23335 0.55578 0.20688 0.0
C927 C 0.27496 0.55333 0.21458 0.0
N928 N 0.30574 0.56059 0.19691 0.0
N929 N 0.2537 0.56052 0.19638 0.0
C930 C 0.37627 0.55821 0.21195 0.0
H931 H 0.39622 0.57578 0.20817 0.0
H932 H 0.39735 0.54021 0.20887 0.0
H933 H 0.37905 0.55971 0.22144 0.0
C934 C 0.38741 0.48045 0.17358 0.0
N935 N 0.38527 0.50721 0.17339 0.0
N936 N 0.35745 0.51588 0.18217 0.0
C937 C 0.34202 0.49432 0.18838 0.0
C938 C 0.36161 0.47144 0.18323 0.0
C939 C 0.4122 0.46327 0.16455 0.0
H940 H 0.40753 0.47239 0.15594 0.0
H941 H 0.45463 0.46055 0.16652 0.0
H942 H 0.39365 0.44325 0.16443 0.0
O943 O 0.37055 0.55411 0.15581 0.0
O944 O 0.32008 0.57205 0.1694 0.0
H945 H 0.2763 0.50776 0.19826 0.0
H946 H 0.29924 0.47508 0.20216 0.0
C947 C 0.31176 0.49521 0.19936 0.0
H948 H 0.33723 0.50368 0.20612 0.0
H949 H 0.23224 0.56127 0.18873 0.0
O950 O 0.46301 0.51264 0.15298 0.0
C951 C 0.333 0.56936 0.15881 0.0
Co952 Co 0.16404 0.4694 0.91289 0.0
Co953 Co 0.10523 0.44642 0.93408 0.0
C954 C 0.21516 0.43002 0.92927 0.0
O955 O 0.2133 0.44422 0.92023 0.0
O956 O 0.17634 0.42922 0.93622 0.0
C957 C 0.24834 0.49897 0.90479 0.0
O958 O 0.2632 0.49631 0.91556 0.0
C959 C 0.07819 0.44241 0.95845 0.0
C960 C 0.99132 0.44389 0.95777 0.0
C961 C 0.03362 0.44606 0.9653 0.0
N962 N 0.06277 0.43985 0.94743 0.0
N963 N 0.0107 0.43978 0.94714 0.0
C964 C 0.13476 0.44144 0.96216 0.0
H965 H 0.15588 0.45941 0.95911 0.0
H966 H 0.13839 0.43962 0.97163 0.0
H967 H 0.15416 0.42398 0.95814 0.0
C968 C 0.13777 0.52049 0.92351 0.0
N969 N 0.13557 0.49374 0.92326 0.0
N970 N 0.112 0.4849 0.93258 0.0
C971 C 0.09944 0.5063 0.93918 0.0
C972 C 0.11655 0.52929 0.93372 0.0
C973 C 0.15678 0.53785 0.9139 0.0
H974 H 0.14928 0.52827 0.90548 0.0
H975 H 0.19957 0.54166 0.91495 0.0
H976 H 0.13636 0.5574 0.91408 0.0
O977 O 0.10898 0.44966 0.90517 0.0
O978 O 0.07043 0.42913 0.91988 0.0
H979 H 0.03764 0.49279 0.95019 0.0
H980 H 0.06257 0.52522 0.95386 0.0
C981 C 0.07361 0.50517 0.9507 0.0
H982 H 0.10148 0.49638 0.95691 0.0
H983 H 0.98851 0.43929 0.93959 0.0
O984 O 0.20548 0.48843 0.90149 0.0
C985 C 0.07544 0.43319 0.90904 0.0
Co986 Co 0.59715 0.27937 0.91335 0.0
Co987 Co 0.65346 0.30577 0.93416 0.0
C988 C 0.53939 0.31642 0.9294 0.0
O989 O 0.54287 0.30142 0.92064 0.0
O990 O 0.57915 0.32015 0.93592 0.0
C991 C 0.51731 0.24762 0.90424 0.0
O992 O 0.49886 0.25011 0.91474 0.0
C993 C 0.67682 0.3078 0.95858 0.0
C994 C 0.76153 0.31782 0.95866 0.0
C995 C 0.72099 0.30884 0.96569 0.0
N996 N 0.69138 0.31477 0.94787 0.0
N997 N 0.74161 0.32169 0.94806 0.0
C998 C 0.62363 0.29646 0.96137 0.0
H999 H 0.60367 0.28936 0.95346 0.0
H1000 H 0.62652 0.27985 0.96761 0.0
H1001 H 0.59902 0.31231 0.9653 0.0
C1002 C 0.63033 0.23 0.92456 0.0
N1003 N 0.62945 0.25672 0.92391 0.0
N1004 N 0.65443 0.26698 0.93279 0.0
C1005 C 0.67252 0.24643 0.93932 0.0
C1006 C 0.6562 0.22263 0.93445 0.0
C1007 C 0.60836 0.21131 0.91574 0.0
H1008 H 0.61491 0.21925 0.90698 0.0
H1009 H 0.56556 0.20859 0.91727 0.0
H1010 H 0.62744 0.19146 0.91636 0.0
O1011 O 0.6485 0.30214 0.90573 0.0
O1012 O 0.68661 0.32401 0.92013 0.0
H1013 H 0.73371 0.266 0.94884 0.0
H1014 H 0.73141 0.23052 0.95074 0.0
C1015 C 0.70705 0.24871 0.94968 0.0
H1016 H 0.68239 0.25061 0.95748 0.0
H1017 H 0.76342 0.32663 0.94076 0.0
O1018 O 0.56058 0.25874 0.90161 0.0
C1019 C 0.68061 0.31966 0.90934 0.0
Co1020 Co 0.18078 0.28178 0.83758 0.0
Co1021 Co 0.10867 0.30399 0.81813 0.0
C1022 C 0.22231 0.32017 0.82005 0.0
O1023 O 0.228 0.30493 0.82867 0.0
O1024 O 0.17777 0.32259 0.81507 0.0
C1025 C 0.26847 0.25277 0.84462 0.0
O1026 O 0.27997 0.25483 0.83364 0.0
C1027 C 0.07742 0.30684 0.79405 0.0
C1028 C 0.9907 0.30527 0.79522 0.0
C1029 C 0.03213 0.30276 0.78748 0.0
N1030 N 0.06333 0.30992 0.80513 0.0
N1031 N 0.01131 0.30995 0.80571 0.0
C1032 C 0.13355 0.30733 0.79003 0.0
H1033 H 0.15442 0.28924 0.79307 0.0
H1034 H 0.13617 0.30886 0.78053 0.0
H1035 H 0.15384 0.3248 0.7938 0.0
C1036 C 0.15047 0.23028 0.82782 0.0
N1037 N 0.14738 0.25701 0.82813 0.0
N1038 N 0.11822 0.26556 0.81952 0.0
C1039 C 0.10258 0.24398 0.81336 0.0
C1040 C 0.12371 0.22121 0.8183 0.0
C1041 C 0.17574 0.21316 0.83682 0.0
H1042 H 0.17203 0.22248 0.84541 0.0
H1043 H 0.21793 0.21019 0.83468 0.0
H1044 H 0.15682 0.19324 0.83708 0.0
O1045 O 0.1288 0.30254 0.84615 0.0
O1046 O 0.07643 0.3199 0.83275 0.0
H1047 H 0.03458 0.25736 0.8042 0.0
H1048 H 0.05642 0.22461 0.80012 0.0
C1049 C 0.06966 0.24474 0.80274 0.0
H1050 H 0.09353 0.25303 0.79567 0.0
H1051 H 0.99002 0.31078 0.81337 0.0
O1052 O 0.22643 0.26331 0.84842 0.0
C1053 C 0.0896 0.31691 0.84331 0.0
Co1054 Co 0.58029 0.47257 0.83732 0.0
Co1055 Co 0.65221 0.44995 0.81794 0.0
C1056 C 0.53769 0.43472 0.81978 0.0
O1057 O 0.5321 0.45002 0.82838 0.0
O1058 O 0.58235 0.43197 0.81489 0.0
C1059 C 0.49318 0.50164 0.84482 0.0
O1060 O 0.47949 0.49905 0.83398 0.0
C1061 C 0.68252 0.44761 0.79381 0.0
C1062 C 0.76934 0.44741 0.7948 0.0
C1063 C 0.72778 0.45105 0.78718 0.0
N1064 N 0.69684 0.44379 0.80484 0.0
N1065 N 0.74886 0.44273 0.8053 0.0
C1066 C 0.62621 0.44846 0.78992 0.0
H1067 H 0.6046 0.43134 0.79364 0.0
H1068 H 0.6071 0.46691 0.79311 0.0
H1069 H 0.623 0.44727 0.78043 0.0
C1070 C 0.61191 0.52388 0.82762 0.0
N1071 N 0.61454 0.49714 0.82794 0.0
N1072 N 0.64422 0.48845 0.81945 0.0
C1073 C 0.66098 0.50997 0.81339 0.0
C1074 C 0.63981 0.53282 0.81824 0.0
C1075 C 0.58524 0.54113 0.83637 0.0
H1076 H 0.5891 0.53235 0.84506 0.0
H1077 H 0.54299 0.54332 0.83411 0.0
H1078 H 0.60296 0.56134 0.83649 0.0
O1079 O 0.63132 0.45101 0.84582 0.0
O1080 O 0.68373 0.43344 0.83249 0.0
H1081 H 0.71099 0.52915 0.80083 0.0
H1082 H 0.67197 0.50205 0.79564 0.0
C1083 C 0.69547 0.50916 0.80301 0.0
H1084 H 0.72906 0.49557 0.80453 0.0
H1085 H 0.7704 0.44115 0.81291 0.0
O1086 O 0.53601 0.49136 0.84831 0.0
C1087 C 0.67009 0.4363 0.84303 0.0
H1088 H 0.41441 0.06068 0.01667 0.0
H1089 H 0.57925 0.9465 0.98433 0.0
H1090 H 0.55196 0.02272 0.03106 0.0
H1091 H 0.44143 0.98428 0.96997 0.0
H1092 H 0.5695 0.97392 0.00163 0.0
H1093 H 0.42423 0.03332 0.99936 0.0
C1094 C 0.44675 0.04665 0.01616 0.0
C1095 C 0.48202 0.04375 0.02536 0.0
C1096 C 0.54128 0.97617 0.99471 0.0
C1097 C 0.49371 0.0124 0.00559 0.0
C1098 C 0.54688 0.96052 0.98484 0.0
C1099 C 0.5115 0.96334 0.97565 0.0
C1100 C 0.49989 0.99475 0.99541 0.0
C1101 C 0.46957 0.98141 0.97686 0.0
C1102 C 0.45238 0.03103 0.00629 0.0
C1103 C 0.5239 0.02565 0.02416 0.0
N1104 N 0.46514 0.99653 0.98651 0.0
N1105 N 0.52836 0.01055 0.01451 0.0
H1106 H 0.80379 0.27711 0.97145 0.0
H1107 H 0.68194 0.23013 0.03164 0.0
H1108 H 0.65635 0.30682 0.98479 0.0
H1109 H 0.82527 0.19818 0.01721 0.0
H1110 H 0.67099 0.25792 0.01455 0.0
H1111 H 0.81324 0.24912 0.98845 0.0
C1112 C 0.77361 0.27799 0.97804 0.0
C1113 C 0.72894 0.2942 0.97665 0.0
C1114 C 0.70477 0.24479 0.01509 0.0
C1115 C 0.7392 0.26178 0.99613 0.0
C1116 C 0.71084 0.22872 0.02481 0.0
C1117 C 0.75501 0.21204 0.02592 0.0
C1118 C 0.74308 0.24414 0.00638 0.0
C1119 C 0.79126 0.21116 0.01682 0.0
C1120 C 0.77882 0.26177 0.9877 0.0
C1121 C 0.69098 0.29431 0.98542 0.0
N1122 N 0.78467 0.2271 0.00748 0.0
N1123 N 0.69686 0.27826 0.99478 0.0
H1124 H 0.4147 0.19478 0.23512 0.0
H1125 H 0.57866 0.30958 0.26724 0.0
H1126 H 0.55391 0.2315 0.22092 0.0
H1127 H 0.43962 0.27256 0.28137 0.0
H1128 H 0.56989 0.28158 0.25008 0.0
H1129 H 0.42374 0.22277 0.25225 0.0
C1130 C 0.44723 0.20869 0.23562 0.0
C1131 C 0.48321 0.21103 0.22653 0.0
C1132 C 0.54121 0.27963 0.25693 0.0
C1133 C 0.49401 0.24312 0.24611 0.0
C1134 C 0.54624 0.29561 0.26672 0.0
C1135 C 0.51022 0.29318 0.2758 0.0
C1136 C 0.49972 0.26112 0.2562 0.0
C1137 C 0.46826 0.27515 0.27456 0.0
C1138 C 0.45242 0.22467 0.2454 0.0
C1139 C 0.5253 0.22899 0.22774 0.0
N1140 N 0.46438 0.25972 0.265 0.0
N1141 N 0.52934 0.24445 0.2373 0.0
H1142 H 0.80917 0.98264 0.28216 0.0
H1143 H 0.69068 0.02288 0.22072 0.0
H1144 H 0.66886 0.94744 0.26773 0.0
H1145 H 0.83429 0.05598 0.23452 0.0
H1146 H 0.68063 0.99618 0.23812 0.0
H1147 H 0.81965 0.00925 0.26474 0.0
C1148 C 0.78083 0.98029 0.27526 0.0
C1149 C 0.73764 0.96303 0.27646 0.0
C1150 C 0.71432 0.0093 0.23738 0.0
C1151 C 0.74901 0.99378 0.25652 0.0
C1152 C 0.71983 0.02476 0.22748 0.0
C1153 C 0.76372 0.04149 0.22612 0.0
C1154 C 0.75283 0.01063 0.24604 0.0
C1155 C 0.80039 0.04298 0.23513 0.0
C1156 C 0.7866 0.99568 0.26535 0.0
C1157 C 0.70207 0.96091 0.26727 0.0
N1158 N 0.79426 0.02766 0.24468 0.0
N1159 N 0.70837 0.97622 0.25772 0.0
H1160 H 0.3104 0.77262 0.96963 0.0
H1161 H 0.19298 0.73175 0.03109 0.0
H1162 H 0.16989 0.80737 0.98418 0.0
H1163 H 0.33441 0.69739 0.01678 0.0
H1164 H 0.18301 0.75889 0.01382 0.0
H1165 H 0.32106 0.74568 0.98697 0.0
C1166 C 0.28209 0.77482 0.97654 0.0
C1167 C 0.23879 0.79205 0.97539 0.0
C1168 C 0.21621 0.7454 0.01442 0.0
C1169 C 0.25034 0.76093 0.99523 0.0
C1170 C 0.22168 0.72969 0.02425 0.0
C1171 C 0.26495 0.71246 0.02544 0.0
C1172 C 0.25416 0.74385 0.00565 0.0
C1173 C 0.30104 0.71078 0.01632 0.0
C1174 C 0.28795 0.75923 0.9864 0.0
C1175 C 0.20322 0.79395 0.9846 0.0
N1176 N 0.29498 0.72636 0.00684 0.0
N1177 N 0.20961 0.77847 0.9941 0.0
H1178 H 0.59414 0.80844 0.76681 0.0
H1179 H 0.4282 0.69436 0.73467 0.0
H1180 H 0.44969 0.77501 0.78 0.0
H1181 H 0.56544 0.73193 0.71999 0.0
H1182 H 0.43785 0.72241 0.75176 0.0
H1183 H 0.58589 0.77997 0.74976 0.0
C1184 C 0.56064 0.79518 0.7661 0.0
C1185 C 0.5228 0.79395 0.77488 0.0
C1186 C 0.46595 0.7245 0.74481 0.0
C1187 C 0.513 0.7613 0.75543 0.0
C1188 C 0.46039 0.70849 0.73505 0.0
C1189 C 0.49554 0.71109 0.72582 0.0
C1190 C 0.50719 0.74318 0.74538 0.0
C1191 C 0.53739 0.72925 0.72691 0.0
C1192 C 0.5559 0.77893 0.75637 0.0
C1193 C 0.47969 0.77672 0.77342 0.0
N1194 N 0.54185 0.7447 0.73646 0.0
N1195 N 0.47616 0.76098 0.76395 0.0
H1196 H 0.30219 0.97518 0.78001 0.0
H1197 H 0.18256 0.01877 0.71912 0.0
H1198 H 0.15592 0.94444 0.76653 0.0
H1199 H 0.32348 0.05292 0.73374 0.0
H1200 H 0.17171 0.99163 0.73637 0.0
H1201 H 0.31206 0.00256 0.76281 0.0
C1202 C 0.27238 0.97396 0.77336 0.0
C1203 C 0.22789 0.95765 0.77475 0.0
C1204 C 0.20497 0.00508 0.73584 0.0
C1205 C 0.23863 0.98931 0.75505 0.0
C1206 C 0.21098 0.02078 0.72601 0.0
C1207 C 0.25446 0.0379 0.7249 0.0
C1208 C 0.24262 0.00652 0.74467 0.0
C1209 C 0.29008 0.03955 0.73411 0.0
C1210 C 0.27781 0.98982 0.76358 0.0
C1211 C 0.19038 0.95706 0.76589 0.0
N1212 N 0.28356 0.02394 0.74356 0.0
N1213 N 0.19649 0.97273 0.75643 0.0
H1214 H 0.57418 0.44577 0.48502 0.0
H1215 H 0.40577 0.55938 0.51691 0.0
H1216 H 0.43473 0.48186 0.47057 0.0
H1217 H 0.54936 0.52588 0.53055 0.0
H1218 H 0.41535 0.53109 0.49985 0.0
H1219 H 0.5646 0.4742 0.50201 0.0
C1220 C 0.54156 0.45966 0.48543 0.0
C1221 C 0.50568 0.4617 0.47629 0.0
C1222 C 0.44489 0.53 0.50656 0.0
C1223 C 0.49412 0.49419 0.49573 0.0
C1224 C 0.43939 0.54616 0.51628 0.0
C1225 C 0.47653 0.54481 0.5252 0.0
C1226 C 0.48787 0.51237 0.50574 0.0
C1227 C 0.51987 0.52766 0.52386 0.0
C1228 C 0.53603 0.47587 0.49513 0.0
C1229 C 0.46334 0.47957 0.47741 0.0
N1230 N 0.52415 0.512 0.51438 0.0
N1231 N 0.45893 0.49522 0.4869 0.0
H1232 H 0.80848 0.772 0.46971 0.0
H1233 H 0.69362 0.72979 0.53116 0.0
H1234 H 0.66755 0.80588 0.48447 0.0
H1235 H 0.83636 0.69698 0.51678 0.0
H1236 H 0.68241 0.75692 0.51395 0.0
H1237 H 0.8201 0.74496 0.48695 0.0
C1238 C 0.7802 0.77397 0.47664 0.0
C1239 C 0.73655 0.79103 0.47558 0.0
C1240 C 0.71617 0.74378 0.51452 0.0
C1241 C 0.74932 0.75974 0.49534 0.0
C1242 C 0.72239 0.72806 0.52431 0.0
C1243 C 0.76635 0.71125 0.52547 0.0
C1244 C 0.75404 0.74266 0.50574 0.0
C1245 C 0.80245 0.71003 0.51634 0.0
C1246 C 0.78666 0.75832 0.48645 0.0
C1247 C 0.70112 0.7926 0.48482 0.0
N1248 N 0.79562 0.72561 0.50688 0.0
N1249 N 0.70813 0.77706 0.49428 0.0
H1250 H 0.70306 0.56123 0.73 0.0
H1251 H 0.80821 0.44555 0.77175 0.0
H1252 H 0.84727 0.51746 0.72434 0.0
H1253 H 0.66225 0.48823 0.77686 0.0
H1254 H 0.82353 0.47172 0.7543 0.0
H1255 H 0.68834 0.53522 0.74751 0.0
C1256 C 0.73215 0.54655 0.73253 0.0
C1257 C 0.77708 0.54212 0.72574 0.0
C1258 C 0.78782 0.47508 0.7592 0.0
C1259 C 0.75992 0.51174 0.74565 0.0
C1260 C 0.7789 0.46002 0.76912 0.0
C1261 C 0.73328 0.46408 0.77574 0.0
C1262 C 0.75112 0.49464 0.7559 0.0
C1263 C 0.69716 0.4835 0.77198 0.0
C1264 C 0.72357 0.53157 0.74249 0.0
C1265 C 0.81294 0.52244 0.72937 0.0
N1266 N 0.70695 0.49803 0.76237 0.0
N1267 N 0.8035 0.50799 0.73902 0.0
H1268 H 0.19651 0.19229 0.52132 0.0
H1269 H 0.29605 0.31033 0.48026 0.0
H1270 H 0.34426 0.23363 0.52584 0.0
H1271 H 0.14897 0.26835 0.4757 0.0
H1272 H 0.31397 0.28292 0.49721 0.0
H1273 H 0.17909 0.21957 0.50432 0.0
C1274 C 0.22583 0.20668 0.51863 0.0
C1275 C 0.27234 0.21019 0.525 0.0
C1276 C 0.27745 0.27998 0.49255 0.0
C1277 C 0.25204 0.24209 0.50568 0.0
C1278 C 0.26699 0.29578 0.48292 0.0
C1279 C 0.22047 0.29217 0.47654 0.0
C1280 C 0.24134 0.26016 0.49582 0.0
C1281 C 0.18468 0.27267 0.48036 0.0
C1282 C 0.21566 0.22242 0.50897 0.0
C1283 C 0.3085 0.22948 0.52116 0.0
N1284 N 0.196 0.2574 0.48968 0.0
N1285 N 0.29745 0.24474 0.51182 0.0
H1286 H 0.14863 0.48471 0.27686 0.0
H1287 H 0.34364 0.51785 0.22507 0.0
H1288 H 0.29928 0.44613 0.27213 0.0
H1289 H 0.19326 0.55668 0.22982 0.0
H1290 H 0.32861 0.49221 0.24234 0.0
H1291 H 0.16323 0.51012 0.25949 0.0
C1292 C 0.18418 0.48084 0.27205 0.0
C1293 C 0.22224 0.46255 0.27594 0.0
C1294 C 0.29911 0.50656 0.2397 0.0
C1295 C 0.24023 0.49292 0.25606 0.0
C1296 C 0.30805 0.52173 0.22985 0.0
C1297 C 0.27024 0.5402 0.22601 0.0
C1298 C 0.25173 0.50953 0.24578 0.0
C1299 C 0.22382 0.54296 0.23249 0.0
C1300 C 0.19286 0.49586 0.26215 0.0
C1301 C 0.26855 0.45974 0.26943 0.0
N1302 N 0.21583 0.52779 0.24203 0.0
N1303 N 0.2763 0.47477 0.25984 0.0
H1304 H 0.08882 0.94648 0.48546 0.0
H1305 H 0.9095 0.05684 0.51671 0.0
H1306 H 0.94344 0.97671 0.47131 0.0
H1307 H 0.05391 0.02564 0.53096 0.0
H1308 H 0.92156 0.02811 0.49987 0.0
H1309 H 0.07638 0.97514 0.5023 0.0
C1310 C 0.05425 0.9591 0.48591 0.0
C1311 C 0.01746 0.95941 0.47691 0.0
C1312 C 0.95067 0.0276 0.50667 0.0
C1313 C 0.00273 0.99225 0.49615 0.0
C1314 C 0.94373 0.04399 0.51629 0.0
C1315 C 0.98036 0.04343 0.52533 0.0
C1316 C 0.99469 0.01058 0.50607 0.0
C1317 C 0.02467 0.02681 0.5242 0.0
C1318 C 0.0471 0.97546 0.49552 0.0
C1319 C 0.97278 0.97576 0.47806 0.0
N1320 N 0.0304 0.01097 0.51481 0.0
N1321 N 0.96685 0.99162 0.48744 0.0
H1322 H 0.90377 0.23627 0.72498 0.0
H1323 H 0.10007 0.26717 0.77681 0.0
H1324 H 0.04975 0.19377 0.73044 0.0
H1325 H 0.9503 0.30677 0.77231 0.0
H1326 H 0.08401 0.24173 0.7595 0.0
H1327 H 0.92027 0.26205 0.74214 0.0
C1328 C 0.93863 0.23162 0.7299 0.0
C1329 C 0.97471 0.21202 0.72629 0.0
C1330 C 0.05488 0.2562 0.7622 0.0
C1331 C 0.99505 0.24289 0.74594 0.0
C1332 C 0.06439 0.27124 0.77207 0.0
C1333 C 0.027 0.28983 0.77601 0.0
C1334 C 0.0074 0.25947 0.75619 0.0
C1335 C 0.98052 0.29292 0.76958 0.0
C1336 C 0.94845 0.24687 0.73969 0.0
C1337 C 0.02047 0.20837 0.73292 0.0
N1338 N 0.972 0.2779 0.76001 0.0
N1339 N 0.02936 0.22365 0.7424 0.0
H1340 H 0.9372 0.77521 0.28185 0.0
H1341 H 0.05614 0.73025 0.22106 0.0
H1342 H 0.07858 0.80861 0.26715 0.0
H1343 H 0.91366 0.69735 0.23547 0.0
H1344 H 0.06589 0.75837 0.23804 0.0
H1345 H 0.92675 0.74731 0.2648 0.0
C1346 C 0.96574 0.77692 0.27496 0.0
C1347 C 0.00921 0.79407 0.27599 0.0
C1348 C 0.0325 0.74499 0.23753 0.0
C1349 C 0.9979 0.76181 0.25647 0.0
C1350 C 0.02716 0.72871 0.22787 0.0
C1351 C 0.98367 0.7116 0.22679 0.0
C1352 C 0.99421 0.74412 0.24624 0.0
C1353 C 0.94723 0.71061 0.23585 0.0
C1354 C 0.96 0.76078 0.26527 0.0
C1355 C 0.04508 0.7953 0.26682 0.0
N1356 N 0.95318 0.72674 0.24517 0.0
N1357 N 0.0388 0.77929 0.25748 0.0
H1358 H 0.06029 0.55654 0.0224 0.0
H1359 H 0.95326 0.44127 0.98071 0.0
H1360 H 0.91044 0.51691 0.02656 0.0
H1361 H 0.10208 0.48144 0.97589 0.0
H1362 H 0.93838 0.46798 0.99799 0.0
H1363 H 0.07696 0.52914 0.00536 0.0
C1364 C 0.03043 0.5425 0.01964 0.0
C1365 C 0.98337 0.53964 0.02589 0.0
C1366 C 0.97464 0.47068 0.99321 0.0
C1367 C 0.00272 0.50767 0.00653 0.0
C1368 C 0.98334 0.45528 0.98339 0.0
C1369 C 0.0294 0.45862 0.97685 0.0
C1370 C 0.01206 0.48985 0.99651 0.0
C1371 C 0.06662 0.47741 0.98069 0.0
C1372 C 0.04014 0.52672 0.00996 0.0
C1373 C 0.94656 0.52073 0.02198 0.0
N1374 N 0.057 0.49236 0.99021 0.0
N1375 N 0.95712 0.5055 0.01261 0.0
H1376 H 0.13522 0.98158 0.08979 0.0
H1377 H 0.96922 0.98557 0.13505 0.0
H1378 H 0.25673 0.99272 0.11534 0.0
H1379 H 0.10694 0.9811 0.15678 0.0
H1380 H 0.02222 0.97266 0.11874 0.0
H1381 H 0.07659 0.96496 0.10469 0.0
C1382 C 0.14954 0.98044 0.09855 0.0
C1383 C 0.19994 0.98969 0.10144 0.0
C1384 C 0.04118 0.9737 0.12704 0.0
C1385 C 0.1327 0.97163 0.11865 0.0
C1386 C 0.01067 0.98135 0.13641 0.0
C1387 C 0.0343 0.9855 0.14716 0.0
C1388 C 0.09586 0.97043 0.12846 0.0
C1389 C 0.08754 0.97893 0.14854 0.0
C1390 C 0.11587 0.97109 0.10712 0.0
C1391 C 0.21737 0.98678 0.1128 0.0
N1392 N 0.11684 0.97231 0.13922 0.0
N1393 N 0.18341 0.97852 0.12103 0.0
H1394 H 0.1282 0.26204 0.16009 0.0
H1395 H 0.10928 0.26682 0.09273 0.0
H1396 H 0.26195 0.26211 0.1371 0.0
H1397 H 0.97536 0.26409 0.11563 0.0
H1398 H 0.16505 0.27964 0.10891 0.0
H1399 H 0.07239 0.27711 0.14427 0.0
C1400 C 0.14596 0.26564 0.15176 0.0
C1401 C 0.19921 0.25986 0.14975 0.0
C1402 C 0.12324 0.27674 0.11035 0.0
C1403 C 0.1359 0.27688 0.13168 0.0
C1404 C 0.09145 0.26937 0.10112 0.0
C1405 C 0.03819 0.26337 0.10297 0.0
C1406 C 0.1015 0.27774 0.12146 0.0
C1407 C 0.01675 0.26763 0.11393 0.0
C1408 C 0.11416 0.27431 0.14274 0.0
C1409 C 0.22057 0.26546 0.1389 0.0
N1410 N 0.04875 0.274 0.12283 0.0
N1411 N 0.18859 0.27314 0.13019 0.0
H1412 H 0.03459 0.01604 0.86767 0.0
H1413 H 0.73818 0.01882 0.88706 0.0
H1414 H 0.90162 0.01818 0.84449 0.0
H1415 H 0.87073 0.01143 0.91016 0.0
H1416 H 0.79795 0.03334 0.87192 0.0
H1417 H 0.97667 0.02924 0.88338 0.0
C1418 C 0.9933 0.01969 0.86585 0.0
C1419 C 0.97231 0.01505 0.85488 0.0
C1420 C 0.8139 0.02901 0.88036 0.0
C1421 C 0.90598 0.0299 0.87279 0.0
C1422 C 0.77985 0.02059 0.88899 0.0
C1423 C 0.79997 0.01298 0.89972 0.0
C1424 C 0.8684 0.02939 0.88246 0.0
C1425 C 0.85386 0.01645 0.90189 0.0
C1426 C 0.96031 0.02733 0.87482 0.0
C1427 C 0.91905 0.02085 0.85291 0.0
N1428 N 0.8865 0.02385 0.89322 0.0
N1429 N 0.88735 0.0274 0.86186 0.0
H1430 H 0.87495 0.73991 0.91257 0.0
H1431 H 0.83883 0.73164 0.84541 0.0
H1432 H 0.00232 0.73589 0.88799 0.0
H1433 H 0.71193 0.74301 0.86969 0.0
H1434 H 0.89633 0.71831 0.86121 0.0
H1435 H 0.81355 0.72626 0.8975 0.0
C1436 C 0.89012 0.73569 0.90406 0.0
C1437 C 0.94333 0.73997 0.90139 0.0
C1438 C 0.85562 0.72325 0.86306 0.0
C1439 C 0.87364 0.72454 0.88417 0.0
C1440 C 0.82283 0.73092 0.85404 0.0
C1441 C 0.77122 0.73938 0.85633 0.0
C1442 C 0.83665 0.72438 0.87439 0.0
C1443 C 0.75206 0.73742 0.86761 0.0
C1444 C 0.85511 0.72787 0.89547 0.0
C1445 C 0.9612 0.73367 0.89031 0.0
N1446 N 0.78515 0.73065 0.87627 0.0
N1447 N 0.9262 0.72677 0.88203 0.0
H1448 H 0.0985 0.47485 0.65974 0.0
H1449 H 0.28199 0.48522 0.618 0.0
H1450 H 0.99115 0.49583 0.63238 0.0
H1451 H 0.15514 0.47918 0.59339 0.0
H1452 H 0.22181 0.47237 0.63314 0.0
H1453 H 0.16113 0.45866 0.64546 0.0
C1454 C 0.08808 0.47596 0.65072 0.0
C1455 C 0.04069 0.48778 0.64718 0.0
C1456 C 0.20706 0.47285 0.62443 0.0
C1457 C 0.11261 0.47022 0.63081 0.0
C1458 C 0.24158 0.48054 0.61575 0.0
C1459 C 0.22294 0.48424 0.60452 0.0
C1460 C 0.15345 0.46904 0.62181 0.0
C1461 C 0.17072 0.47729 0.60201 0.0
C1462 C 0.12404 0.46688 0.64255 0.0
C1463 C 0.02816 0.48777 0.63546 0.0
N1464 N 0.1374 0.47064 0.61066 0.0
N1465 N 0.06441 0.47964 0.62767 0.0
H1466 H 0.14024 0.76588 0.66305 0.0
H1467 H 0.96538 0.76378 0.6189 0.0
H1468 H 0.25676 0.75444 0.63644 0.0
H1469 H 0.09958 0.76893 0.59618 0.0
H1470 H 0.02164 0.77462 0.63499 0.0
H1471 H 0.07854 0.78205 0.64863 0.0
C1472 C 0.1528 0.76683 0.65416 0.0
C1473 C 0.20282 0.75777 0.65084 0.0
C1474 C 0.0391 0.77419 0.62652 0.0
C1475 C 0.13205 0.77538 0.63421 0.0
C1476 C 0.00672 0.76775 0.61728 0.0
C1477 C 0.02834 0.76445 0.60628 0.0
C1478 C 0.0936 0.77718 0.62471 0.0
C1479 C 0.08163 0.77052 0.6046 0.0
C1480 C 0.11736 0.77592 0.64587 0.0
C1481 C 0.21787 0.76034 0.63931 0.0
N1482 N 0.1127 0.77603 0.61378 0.0
N1483 N 0.18227 0.76844 0.63138 0.0
H1484 H 0.71914 0.51047 0.38512 0.0
H1485 H 0.89659 0.52819 0.34284 0.0
H1486 H 0.84918 0.51272 0.40906 0.0
H1487 H 0.01053 0.50933 0.36919 0.0
H1488 H 0.83424 0.54136 0.3577 0.0
H1489 H 0.77642 0.52708 0.37019 0.0
C1490 C 0.75977 0.51494 0.38727 0.0
C1491 C 0.78009 0.50923 0.3982 0.0
C1492 C 0.87268 0.53425 0.36028 0.0
C1493 C 0.84639 0.5288 0.38113 0.0
C1494 C 0.9085 0.52694 0.35176 0.0
C1495 C 0.95771 0.51643 0.35484 0.0
C1496 C 0.88611 0.53033 0.3719 0.0
C1497 C 0.9721 0.5163 0.36647 0.0
C1498 C 0.79264 0.52482 0.37872 0.0
C1499 C 0.83239 0.51611 0.40063 0.0
N1500 N 0.93598 0.52254 0.37459 0.0
N1501 N 0.8641 0.525 0.39207 0.0
H1502 H 0.73138 0.2366 0.36451 0.0
H1503 H 0.02869 0.23428 0.3827 0.0
H1504 H 0.86233 0.2434 0.34097 0.0
H1505 H 0.89755 0.23139 0.40634 0.0
H1506 H 0.9693 0.22235 0.36707 0.0
H1507 H 0.79133 0.21977 0.37917 0.0
C1508 C 0.77273 0.23425 0.36239 0.0
C1509 C 0.79246 0.24233 0.35169 0.0
C1510 C 0.95365 0.22379 0.37571 0.0
C1511 C 0.86113 0.22328 0.3684 0.0
C1512 C 0.9875 0.2307 0.38463 0.0
C1513 C 0.96742 0.23487 0.39572 0.0
C1514 C 0.89942 0.2215 0.37791 0.0
C1515 C 0.91427 0.22914 0.39783 0.0
C1516 C 0.80688 0.22448 0.37074 0.0
C1517 C 0.84586 0.23805 0.34924 0.0
N1518 N 0.88172 0.22336 0.38893 0.0
N1519 N 0.87869 0.22937 0.35765 0.0
H1520 H 0.66312 0.97419 0.59313 0.0
H1521 H 0.48315 0.98778 0.63554 0.0
H1522 H 0.77486 0.99626 0.61946 0.0
H1523 H 0.613 0.98738 0.65954 0.0
H1524 H 0.54237 0.97389 0.62044 0.0
H1525 H 0.60146 0.9604 0.60801 0.0
C1526 C 0.67467 0.97606 0.60206 0.0
C1527 C 0.72313 0.98745 0.6051 0.0
C1528 C 0.55819 0.97593 0.62901 0.0
C1529 C 0.65214 0.97284 0.62219 0.0
C1530 C 0.52416 0.98423 0.63767 0.0
C1531 C 0.54366 0.98963 0.6487 0.0
C1532 C 0.61226 0.97319 0.63142 0.0
C1533 C 0.59667 0.98408 0.65106 0.0
C1534 C 0.63923 0.96838 0.61059 0.0
C1535 C 0.73709 0.98842 0.61675 0.0
N1536 N 0.62943 0.97672 0.64241 0.0
N1537 N 0.70126 0.98177 0.62488 0.0
H1538 H 0.75898 0.26697 0.63681 0.0
H1539 H 0.46191 0.26708 0.61909 0.0
H1540 H 0.62876 0.26133 0.66059 0.0
H1541 H 0.59243 0.26935 0.59527 0.0
H1542 H 0.52113 0.28084 0.63447 0.0
H1543 H 0.69877 0.28354 0.62215 0.0
C1544 C 0.71773 0.26954 0.63898 0.0
C1545 C 0.69821 0.26177 0.64974 0.0
C1546 C 0.53666 0.27887 0.62584 0.0
C1547 C 0.62926 0.28047 0.63304 0.0
C1548 C 0.50294 0.27088 0.61707 0.0
C1549 C 0.52297 0.266 0.60603 0.0
C1550 C 0.59076 0.28147 0.62355 0.0
C1551 C 0.57583 0.2721 0.60377 0.0
C1552 C 0.68344 0.27917 0.63064 0.0
C1553 C 0.64501 0.26639 0.65227 0.0
N1554 N 0.60831 0.2789 0.61254 0.0
N1555 N 0.61199 0.27485 0.64386 0.0
H1556 H 0.51128 0.01889 0.36535 0.0
H1557 H 0.21433 0.01723 0.38433 0.0
H1558 H 0.37953 0.01269 0.34199 0.0
H1559 H 0.34653 0.01972 0.40771 0.0
H1560 H 0.27283 0.02999 0.36866 0.0
H1561 H 0.45124 0.03349 0.38044 0.0
C1562 C 0.46973 0.02093 0.36336 0.0
C1563 C 0.44989 0.01367 0.35256 0.0
C1564 C 0.2889 0.02825 0.37726 0.0
C1565 C 0.3811 0.03014 0.36976 0.0
C1566 C 0.25556 0.02088 0.3862 0.0
C1567 C 0.27615 0.01646 0.39723 0.0
C1568 C 0.34317 0.03081 0.37936 0.0
C1569 C 0.32938 0.02222 0.39926 0.0
C1570 C 0.43551 0.0294 0.37196 0.0
C1571 C 0.39615 0.01747 0.35031 0.0
N1572 N 0.36141 0.02853 0.39033 0.0
N1573 N 0.36331 0.02489 0.35894 0.0
H1574 H 0.36571 0.73842 0.34008 0.0
H1575 H 0.39687 0.73527 0.40726 0.0
H1576 H 0.23646 0.73838 0.36426 0.0
H1577 H 0.52601 0.74063 0.38317 0.0
H1578 H 0.33916 0.72124 0.3916 0.0
H1579 H 0.42477 0.72403 0.35545 0.0
C1580 C 0.3496 0.73493 0.34857 0.0
C1581 C 0.29671 0.7406 0.35105 0.0
C1582 C 0.38038 0.725 0.38978 0.0
C1583 C 0.36374 0.72438 0.3686 0.0
C1584 C 0.41326 0.73309 0.39871 0.0
C1585 C 0.46564 0.74012 0.39639 0.0
C1586 C 0.40009 0.72431 0.3785 0.0
C1587 C 0.48529 0.73627 0.38525 0.0
C1588 C 0.38327 0.72667 0.35734 0.0
C1589 C 0.2775 0.73513 0.3621 0.0
N1590 N 0.45218 0.72916 0.37664 0.0
N1591 N 0.31129 0.72786 0.37055 0.0
H1592 H 0.77009 0.48479 0.11586 0.0
H1593 H 0.47532 0.48384 0.13511 0.0
H1594 H 0.6367 0.48839 0.09284 0.0
H1595 H 0.60859 0.48616 0.15819 0.0
H1596 H 0.53327 0.46859 0.11977 0.0
H1597 H 0.71231 0.4685 0.13102 0.0
C1598 C 0.72868 0.48181 0.11396 0.0
C1599 C 0.70749 0.48901 0.10327 0.0
C1600 C 0.54973 0.4719 0.12824 0.0
C1601 C 0.64137 0.47061 0.12055 0.0
C1602 C 0.51674 0.48076 0.13698 0.0
C1603 C 0.53786 0.48735 0.14775 0.0
C1604 C 0.60417 0.47019 0.13027 0.0
C1605 C 0.59117 0.48207 0.14987 0.0
C1606 C 0.6958 0.47234 0.1226 0.0
C1607 C 0.65419 0.48383 0.1011 0.0
N1608 N 0.62292 0.47442 0.1411 0.0
N1609 N 0.62255 0.47555 0.10979 0.0
H1610 H 0.77245 0.76677 0.1371 0.0
H1611 H 0.48088 0.76954 0.11453 0.0
H1612 H 0.63389 0.76308 0.15862 0.0
H1613 H 0.61898 0.76317 0.09299 0.0
H1614 H 0.53666 0.78364 0.13046 0.0
H1615 H 0.71777 0.78182 0.12116 0.0
C1616 C 0.73055 0.76949 0.13851 0.0
C1617 C 0.70715 0.76267 0.14903 0.0
C1618 C 0.55469 0.77967 0.12219 0.0
C1619 C 0.64459 0.77972 0.13086 0.0
C1620 C 0.52293 0.77149 0.11311 0.0
C1621 C 0.5458 0.76417 0.1026 0.0
C1622 C 0.60961 0.78009 0.12075 0.0
C1623 C 0.60005 0.76792 0.10108 0.0
C1624 C 0.69944 0.77822 0.12943 0.0
C1625 C 0.65318 0.76741 0.15053 0.0
N1626 N 0.63042 0.77504 0.11017 0.0
N1627 N 0.62339 0.77508 0.14143 0.0
H1628 H 0.34737 0.51906 0.90815 0.0
H1629 H 0.39226 0.5191 0.84133 0.0
H1630 H 0.22432 0.51201 0.88266 0.0
H1631 H 0.51579 0.51597 0.86686 0.0
H1632 H 0.33046 0.5333 0.85621 0.0
H1633 H 0.40746 0.53466 0.89322 0.0
C1634 C 0.33277 0.52121 0.89945 0.0
C1635 C 0.2816 0.5132 0.89651 0.0
C1636 C 0.37136 0.53003 0.85851 0.0
C1637 C 0.34983 0.53086 0.87946 0.0
C1638 C 0.40657 0.52186 0.85003 0.0
C1639 C 0.45851 0.51531 0.85301 0.0
C1640 C 0.38837 0.53135 0.86999 0.0
C1641 C 0.47546 0.51989 0.8643 0.0
C1642 C 0.367 0.5302 0.89094 0.0
C1643 C 0.26416 0.51708 0.88519 0.0
N1644 N 0.44014 0.52709 0.87246 0.0
N1645 N 0.29862 0.5251 0.87701 0.0
H1646 H 0.36359 0.22946 0.83975 0.0
H1647 H 0.54552 0.23804 0.88199 0.0
H1648 H 0.25378 0.24354 0.86747 0.0
H1649 H 0.4185 0.22638 0.90618 0.0
H1650 H 0.48695 0.22582 0.86646 0.0
H1651 H 0.42776 0.2131 0.85367 0.0
C1652 C 0.35299 0.22903 0.84877 0.0
C1653 C 0.30429 0.23895 0.85254 0.0
C1654 C 0.47188 0.22494 0.87514 0.0
C1655 C 0.37784 0.22117 0.86853 0.0
C1656 C 0.50546 0.23225 0.88405 0.0
C1657 C 0.48616 0.23421 0.89531 0.0
C1658 C 0.41854 0.21973 0.87755 0.0
C1659 C 0.4345 0.22587 0.89755 0.0
C1660 C 0.3898 0.21985 0.85674 0.0
C1661 C 0.29168 0.237 0.86424 0.0
N1662 N 0.40205 0.2196 0.8887 0.0
N1663 N 0.32865 0.2288 0.87184 0.0
H1664 H 0.06361 0.2 0.0674 0.0
H1665 H 0.17581 0.0553 0.06761 0.0
H1666 H 0.96432 0.13272 0.0596 0.0
H1667 H 0.27503 0.12234 0.05941 0.0
H1668 H 0.0979 0.08291 0.06424 0.0
H1669 H 0.1415 0.17237 0.06402 0.0
C1670 C 0.05825 0.17948 0.06478 0.0
C1671 C 0.00745 0.16856 0.06384 0.0
C1672 C 0.13664 0.09149 0.06296 0.0
C1673 C 0.09652 0.13667 0.06021 0.0
C1674 C 0.18114 0.07577 0.06491 0.0
C1675 C 0.23194 0.08662 0.06385 0.0
C1676 C 0.14283 0.1185 0.06023 0.0
C1677 C 0.23658 0.11321 0.0603 0.0
C1678 C 0.10274 0.16375 0.06282 0.0
C1679 C 0.00276 0.14191 0.06039 0.0
N1680 N 0.19256 0.12842 0.05885 0.0
N1681 N 0.04678 0.12669 0.05894 0.0
H1682 H 0.06903 0.05046 0.18187 0.0
H1683 H 0.17844 0.19538 0.18579 0.0
H1684 H 0.96995 0.11551 0.19281 0.0
H1685 H 0.28018 0.12771 0.19107 0.0
H1686 H 0.10161 0.16679 0.18876 0.0
H1687 H 0.14691 0.0779 0.18551 0.0
C1688 C 0.06371 0.07042 0.1852 0.0
C1689 C 0.0129 0.08081 0.18696 0.0
C1690 C 0.1407 0.15825 0.1895 0.0
C1691 C 0.10195 0.11248 0.19094 0.0
C1692 C 0.18455 0.17455 0.18779 0.0
C1693 C 0.23567 0.16384 0.18815 0.0
C1694 C 0.14786 0.13086 0.19126 0.0
C1695 C 0.24142 0.13674 0.19077 0.0
C1696 C 0.10822 0.08603 0.18732 0.0
C1697 C 0.00837 0.10673 0.19134 0.0
N1698 N 0.19796 0.12103 0.19198 0.0
N1699 N 0.0523 0.12189 0.19296 0.0
H1700 H 0.71591 0.88302 0.9423 0.0
H1701 H 0.0318 0.87241 0.94165 0.0
H1702 H 0.8186 0.94828 0.93344 0.0
H1703 H 0.92846 0.80601 0.93499 0.0
H1704 H 0.95389 0.90075 0.94477 0.0
H1705 H 0.79412 0.85507 0.94572 0.0
C1706 C 0.75483 0.89162 0.94134 0.0
C1707 C 0.76087 0.91787 0.93745 0.0
C1708 C 0.94846 0.87984 0.94284 0.0
C1709 C 0.85005 0.88625 0.94142 0.0
C1710 C 0.99282 0.86367 0.94113 0.0
C1711 C 0.98647 0.83694 0.93794 0.0
C1712 C 0.89762 0.86902 0.94154 0.0
C1713 C 0.93503 0.82663 0.93731 0.0
C1714 C 0.79935 0.87567 0.94322 0.0
C1715 C 0.81223 0.92801 0.93628 0.0
N1716 N 0.89262 0.84269 0.93902 0.0
N1717 N 0.8548 0.91218 0.9382 0.0
H1718 H 0.7901 0.82864 0.83713 0.0
H1719 H 0.00933 0.89922 0.80272 0.0
H1720 H 0.74431 0.84724 0.80225 0.0
H1721 H 0.94462 0.9336 0.83373 0.0
H1722 H 0.92938 0.87118 0.8011 0.0
H1723 H 0.86741 0.8567 0.83492 0.0
C1724 C 0.79647 0.83834 0.82893 0.0
C1725 C 0.76015 0.83567 0.81988 0.0
C1726 C 0.93289 0.88525 0.80811 0.0
C1727 C 0.84969 0.86766 0.81734 0.0
C1728 C 0.97836 0.90114 0.80908 0.0
C1729 C 0.9842 0.91862 0.81846 0.0
C1730 C 0.89402 0.88664 0.81668 0.0
C1731 C 0.94257 0.92032 0.82641 0.0
C1732 C 0.84067 0.8544 0.82772 0.0
C1733 C 0.77104 0.84892 0.80947 0.0
N1734 N 0.89994 0.90424 0.82545 0.0
N1735 N 0.8151 0.86444 0.80846 0.0
H1736 H 0.00075 0.66014 0.5517 0.0
H1737 H 0.19729 0.56796 0.58554 0.0
H1738 H 0.03222 0.66817 0.58801 0.0
H1739 H 0.2566 0.60262 0.55409 0.0
H1740 H 0.11894 0.59538 0.58397 0.0
H1741 H 0.07952 0.63107 0.55006 0.0
C1742 C 0.02405 0.65585 0.55928 0.0
C1743 C 0.00985 0.66663 0.57001 0.0
C1744 C 0.1489 0.59683 0.57736 0.0
C1745 C 0.09834 0.63337 0.56822 0.0
C1746 C 0.19385 0.58115 0.57821 0.0
C1747 C 0.23438 0.58316 0.57001 0.0
C1748 C 0.14339 0.61458 0.56817 0.0
C1749 C 0.22669 0.6006 0.56067 0.0
C1750 C 0.06893 0.63947 0.55832 0.0
C1751 C 0.04154 0.66051 0.57955 0.0
N1752 N 0.18198 0.6158 0.56001 0.0
N1753 N 0.08365 0.64411 0.57845 0.0
H1754 H 0.18994 0.69489 0.68743 0.0
H1755 H 0.07248 0.55299 0.67821 0.0
H1756 H 0.28854 0.62512 0.68917 0.0
H1757 H 0.97811 0.61612 0.69267 0.0
H1758 H 0.15207 0.57867 0.68238 0.0
H1759 H 0.11196 0.66677 0.68984 0.0
C1760 C 0.19514 0.67365 0.68859 0.0
C1761 C 0.24564 0.66226 0.68812 0.0
C1762 C 0.11407 0.58674 0.68482 0.0
C1763 C 0.15652 0.62988 0.69049 0.0
C1764 C 0.06856 0.57216 0.68239 0.0
C1765 C 0.01853 0.58256 0.685 0.0
C1766 C 0.10962 0.61223 0.68965 0.0
C1767 C 0.01587 0.6074 0.69049 0.0
C1768 C 0.15065 0.65762 0.68996 0.0
C1769 C 0.25028 0.63466 0.68958 0.0
N1770 N 0.06074 0.62164 0.69243 0.0
N1771 N 0.20614 0.6193 0.69045 0.0
H1772 H 0.00761 0.35608 0.44573 0.0
H1773 H 0.72781 0.38632 0.41748 0.0
H1774 H 0.93269 0.30696 0.42001 0.0
H1775 H 0.77373 0.42362 0.44928 0.0
H1776 H 0.80435 0.35718 0.4187 0.0
H1777 H 0.92442 0.38113 0.4478 0.0
C1778 C 0.97374 0.35037 0.44062 0.0
C1779 C 0.9776 0.32959 0.43255 0.0
C1780 C 0.79767 0.37141 0.42554 0.0
C1781 C 0.88277 0.35813 0.43486 0.0
C1782 C 0.75382 0.38799 0.42484 0.0
C1783 C 0.74436 0.40709 0.43334 0.0
C1784 C 0.83336 0.37423 0.43471 0.0
C1785 C 0.77956 0.40881 0.44263 0.0
C1786 C 0.92632 0.36466 0.44181 0.0
C1787 C 0.93224 0.32302 0.42621 0.0
N1788 N 0.82307 0.39275 0.44302 0.0
N1789 N 0.88724 0.33733 0.42743 0.0
H1790 H 0.81226 0.30783 0.3175 0.0
H1791 H 0.92671 0.45136 0.32284 0.0
H1792 H 0.71273 0.37644 0.31251 0.0
H1793 H 0.02311 0.38679 0.31034 0.0
H1794 H 0.84783 0.42461 0.31922 0.0
H1795 H 0.89007 0.33597 0.31487 0.0
C1796 C 0.80685 0.32879 0.31564 0.0
C1797 C 0.75606 0.33988 0.31524 0.0
C1798 C 0.88614 0.41644 0.31709 0.0
C1799 C 0.84496 0.37231 0.31254 0.0
C1800 C 0.93121 0.43163 0.3192 0.0
C1801 C 0.98157 0.42118 0.31696 0.0
C1802 C 0.89141 0.39031 0.313 0.0
C1803 C 0.98505 0.39559 0.31218 0.0
C1804 C 0.85125 0.34481 0.31412 0.0
C1805 C 0.75121 0.36712 0.31282 0.0
N1806 N 0.94061 0.3808 0.31057 0.0
N1807 N 0.79518 0.38255 0.3118 0.0
H1808 H 0.49666 0.15702 0.55266 0.0
H1809 H 0.70636 0.07551 0.58732 0.0
H1810 H 0.54063 0.17551 0.58765 0.0
H1811 H 0.75346 0.10037 0.55327 0.0
H1812 H 0.62882 0.10349 0.58588 0.0
H1813 H 0.57678 0.12901 0.55107 0.0
C1814 C 0.52306 0.15536 0.55995 0.0
C1815 C 0.51156 0.16857 0.57033 0.0
C1816 C 0.65594 0.10272 0.57869 0.0
C1817 C 0.6019 0.13651 0.56858 0.0
C1818 C 0.70036 0.08666 0.57945 0.0
C1819 C 0.73716 0.08566 0.57043 0.0
C1820 C 0.6471 0.11781 0.56877 0.0
C1821 C 0.72644 0.10069 0.56047 0.0
C1822 C 0.5687 0.13954 0.559 0.0
C1823 C 0.54738 0.16577 0.57948 0.0
N1824 N 0.68215 0.11623 0.55988 0.0
N1825 N 0.59023 0.14984 0.57843 0.0
H1826 H 0.4613 0.11994 0.69107 0.0
H1827 H 0.77724 0.12952 0.69156 0.0
H1828 H 0.56331 0.05345 0.68359 0.0
H1829 H 0.67559 0.19497 0.68235 0.0
H1830 H 0.6986 0.10182 0.69486 0.0
H1831 H 0.53979 0.14788 0.69414 0.0
C1832 C 0.50013 0.11108 0.69037 0.0
C1833 C 0.50593 0.08446 0.68697 0.0
C1834 C 0.6937 0.1224 0.69231 0.0
C1835 C 0.5954 0.11607 0.69053 0.0
C1836 C 0.73845 0.13821 0.69049 0.0
C1837 C 0.73284 0.16444 0.68655 0.0
C1838 C 0.64319 0.13313 0.69041 0.0
C1839 C 0.68162 0.17471 0.68524 0.0
C1840 C 0.5448 0.12703 0.69204 0.0
C1841 C 0.55718 0.07399 0.68609 0.0
N1842 N 0.63881 0.15903 0.68712 0.0
N1843 N 0.59992 0.08983 0.6878 0.0
H1844 H 0.49394 0.83876 0.45112 0.0
H1845 H 0.30849 0.94203 0.42023 0.0
H1846 H 0.47415 0.84291 0.41431 0.0
H1847 H 0.23759 0.89611 0.44757 0.0
H1848 H 0.3877 0.91521 0.4218 0.0
H1849 H 0.41554 0.86794 0.45335 0.0
C1850 C 0.47333 0.84582 0.44356 0.0
C1851 C 0.49044 0.83836 0.43251 0.0
C1852 C 0.35502 0.91121 0.42755 0.0
C1853 C 0.40259 0.87175 0.435 0.0
C1854 C 0.30954 0.92649 0.42668 0.0
C1855 C 0.26548 0.92106 0.43363 0.0
C1856 C 0.35741 0.89039 0.43551 0.0
C1857 C 0.27029 0.90082 0.44195 0.0
C1858 C 0.42867 0.86223 0.44484 0.0
C1859 C 0.46228 0.84795 0.42299 0.0
N1860 N 0.31545 0.88596 0.44261 0.0
N1861 N 0.42033 0.86431 0.42445 0.0
H1862 H 0.42964 0.95075 0.31846 0.0
H1863 H 0.31751 0.80605 0.31693 0.0
H1864 H 0.52878 0.88394 0.3098 0.0
H1865 H 0.21797 0.87386 0.31015 0.0
H1866 H 0.39527 0.83381 0.31371 0.0
H1867 H 0.3517 0.92338 0.31485 0.0
C1868 C 0.43495 0.93039 0.31562 0.0
C1869 C 0.48573 0.91951 0.3145 0.0
C1870 C 0.35648 0.84254 0.3127 0.0
C1871 C 0.39657 0.8879 0.31059 0.0
C1872 C 0.31206 0.82673 0.31456 0.0
C1873 C 0.26124 0.83775 0.31388 0.0
C1874 C 0.35021 0.86978 0.31043 0.0
C1875 C 0.25644 0.8646 0.31075 0.0
C1876 C 0.39042 0.91481 0.31352 0.0
C1877 C 0.49034 0.89308 0.31074 0.0
N1878 N 0.30042 0.87987 0.30938 0.0
N1879 N 0.44628 0.87798 0.30915 0.0
H1880 H 0.68074 0.55442 0.06996 0.0
H1881 H 0.57074 0.69924 0.0675 0.0
H1882 H 0.78037 0.61982 0.05977 0.0
H1883 H 0.47003 0.632 0.06057 0.0
H1884 H 0.64806 0.67094 0.06449 0.0
H1885 H 0.60303 0.58208 0.06642 0.0
C1886 C 0.68619 0.57452 0.06681 0.0
C1887 C 0.73707 0.58493 0.06523 0.0
C1888 C 0.60911 0.66247 0.0634 0.0
C1889 C 0.64825 0.61687 0.06138 0.0
C1890 C 0.56496 0.67858 0.06514 0.0
C1891 C 0.51394 0.66789 0.06432 0.0
C1892 C 0.6023 0.63525 0.06115 0.0
C1893 C 0.50868 0.64102 0.06124 0.0
C1894 C 0.6418 0.59026 0.06475 0.0
C1895 C 0.74185 0.61104 0.06109 0.0
N1896 N 0.55236 0.62545 0.06001 0.0
N1897 N 0.69799 0.62633 0.05954 0.0
H1898 H 0.56836 0.55331 0.18051 0.0
H1899 H 0.67945 0.69759 0.18447 0.0
H1900 H 0.46956 0.61803 0.1919 0.0
H1901 H 0.77975 0.62992 0.19095 0.0
H1902 H 0.60194 0.66926 0.18716 0.0
H1903 H 0.64636 0.58067 0.18418 0.0
C1904 C 0.56315 0.57319 0.18393 0.0
C1905 C 0.5124 0.5835 0.18583 0.0
C1906 C 0.64085 0.6607 0.18823 0.0
C1907 C 0.60152 0.61509 0.18984 0.0
C1908 C 0.68508 0.67682 0.18667 0.0
C1909 C 0.73604 0.66603 0.18746 0.0
C1910 C 0.64752 0.63338 0.19025 0.0
C1911 C 0.74114 0.63902 0.19032 0.0
C1912 C 0.6077 0.58874 0.18607 0.0
C1913 C 0.50796 0.60933 0.19033 0.0
N1914 N 0.69739 0.62346 0.19137 0.0
N1915 N 0.55193 0.62446 0.19196 0.0
H1916 H 0.25849 0.41017 0.94949 0.0
H1917 H 0.45108 0.31357 0.91618 0.0
H1918 H 0.27861 0.41038 0.91264 0.0
H1919 H 0.51123 0.35201 0.94673 0.0
H1920 H 0.3715 0.34014 0.91758 0.0
H1921 H 0.33741 0.38125 0.95113 0.0
C1922 C 0.27931 0.40414 0.94179 0.0
C1923 C 0.26204 0.41275 0.93091 0.0
C1924 C 0.40193 0.34263 0.92404 0.0
C1925 C 0.35062 0.37959 0.93272 0.0
C1926 C 0.44758 0.32743 0.92328 0.0
C1927 C 0.4887 0.33078 0.93125 0.0
C1928 C 0.3964 0.36126 0.9329 0.0
C1929 C 0.48086 0.34895 0.94032 0.0
C1930 C 0.32426 0.38784 0.94274 0.0
C1931 C 0.29052 0.40443 0.9212 0.0
N1932 N 0.43556 0.36369 0.94089 0.0
N1933 N 0.33283 0.38818 0.92234 0.0
H1934 H 0.43477 0.45001 0.8201 0.0
H1935 H 0.32529 0.30511 0.82044 0.0
H1936 H 0.53494 0.38368 0.81132 0.0
H1937 H 0.22471 0.37114 0.81148 0.0
H1938 H 0.40264 0.33317 0.81716 0.0
H1939 H 0.35724 0.42194 0.81698 0.0
C1940 C 0.44037 0.4296 0.81733 0.0
C1941 C 0.49133 0.41907 0.81602 0.0
C1942 C 0.36373 0.34142 0.8157 0.0
C1943 C 0.40277 0.3867 0.81269 0.0
C1944 C 0.31956 0.32545 0.81761 0.0
C1945 C 0.26854 0.3359 0.81629 0.0
C1946 C 0.35693 0.36828 0.81276 0.0
C1947 C 0.26336 0.36233 0.81258 0.0
C1948 C 0.3961 0.41363 0.81552 0.0
C1949 C 0.49635 0.39256 0.8124 0.0
N1950 N 0.30703 0.37782 0.81117 0.0
N1951 N 0.4526 0.37709 0.8111 0.0
H1952 H 0.29898 0.94774 0.05845 0.0
H1953 H 0.44678 0.80753 0.05762 0.0
H1954 H 0.46592 0.93845 0.0641 0.0
H1955 H 0.28102 0.81683 0.0647 0.0
H1956 H 0.45332 0.85539 0.05389 0.0
H1957 H 0.29186 0.89994 0.05465 0.0
C1958 C 0.33438 0.93564 0.05858 0.0
C1959 C 0.38311 0.94686 0.06159 0.0
C1960 C 0.41529 0.84688 0.05601 0.0
C1961 C 0.37523 0.89235 0.05736 0.0
C1962 C 0.41146 0.81964 0.05807 0.0
C1963 C 0.36328 0.80841 0.06146 0.0
C1964 C 0.37052 0.86297 0.05733 0.0
C1965 C 0.31869 0.82477 0.06199 0.0
C1966 C 0.33023 0.90843 0.05647 0.0
C1967 C 0.42779 0.93051 0.06169 0.0
N1968 N 0.32348 0.85138 0.06007 0.0
N1969 N 0.42271 0.90392 0.05974 0.0
H1970 H 0.79708 0.45009 0.05944 0.0
H1971 H 0.76773 0.31466 0.06708 0.0
H1972 H 0.96096 0.43335 0.06596 0.0
H1973 H 0.93073 0.30779 0.05711 0.0
H1974 H 0.77229 0.36266 0.06375 0.0
H1975 H 0.78226 0.40301 0.05518 0.0
C1976 C 0.8301 0.4364 0.05976 0.0
C1977 C 0.8802 0.44532 0.06309 0.0
C1978 C 0.8066 0.35065 0.06183 0.0
C1979 C 0.8633 0.39141 0.05876 0.0
C1980 C 0.8038 0.32322 0.06373 0.0
C1981 C 0.84877 0.30746 0.06227 0.0
C1982 C 0.85495 0.36225 0.05855 0.0
C1983 C 0.8952 0.31946 0.05827 0.0
C1984 C 0.82151 0.40951 0.0575 0.0
C1985 C 0.92182 0.42708 0.0634 0.0
N1986 N 0.8974 0.34622 0.05675 0.0
N1987 N 0.91232 0.40084 0.06138 0.0
H1988 H 0.30335 0.30551 0.1948 0.0
H1989 H 0.45121 0.44489 0.18845 0.0
H1990 H 0.46692 0.31343 0.18541 0.0
H1991 H 0.28218 0.4362 0.18825 0.0
H1992 H 0.46021 0.39739 0.19266 0.0
H1993 H 0.29843 0.35368 0.19784 0.0
C1994 C 0.33863 0.31742 0.19371 0.0
C1995 C 0.38564 0.30569 0.18988 0.0
C1996 C 0.42112 0.40591 0.19189 0.0
C1997 C 0.38016 0.36063 0.19314 0.0
C1998 C 0.41596 0.43295 0.18952 0.0
C1999 C 0.36589 0.44424 0.18794 0.0
C2000 C 0.3758 0.39003 0.19268 0.0
C2001 C 0.32141 0.42815 0.18946 0.0
C2002 C 0.33571 0.34485 0.19536 0.0
C2003 C 0.43017 0.32179 0.18848 0.0
N2004 N 0.3274 0.4017 0.19162 0.0
N2005 N 0.42621 0.34858 0.18998 0.0
H2006 H 0.93592 0.94893 0.19623 0.0
H2007 H 0.97045 0.81439 0.18714 0.0
H2008 H 0.77782 0.93232 0.18478 0.0
H2009 H 0.80449 0.80621 0.1942 0.0
H2010 H 0.96347 0.86221 0.19087 0.0
H2011 H 0.94845 0.90163 0.20049 0.0
C2012 C 0.90343 0.93526 0.19489 0.0
C2013 C 0.85583 0.94426 0.19015 0.0
C2014 C 0.9289 0.84989 0.19205 0.0
C2015 C 0.87047 0.8902 0.19448 0.0
C2016 C 0.93305 0.82257 0.18993 0.0
C2017 C 0.88809 0.80651 0.19047 0.0
C2018 C 0.87923 0.86107 0.19458 0.0
C2019 C 0.84004 0.81811 0.19374 0.0
C2020 C 0.91085 0.90827 0.19715 0.0
C2021 C 0.81495 0.92601 0.18848 0.0
N2022 N 0.83661 0.84478 0.19545 0.0
N2023 N 0.82339 0.89968 0.19054 0.0
H2024 H 0.73695 0.18755 0.93835 0.0
H2025 H 0.69481 0.05337 0.94708 0.0
H2026 H 0.56874 0.19689 0.94147 0.0
H2027 H 0.53958 0.0711 0.93417 0.0
H2028 H 0.70833 0.10065 0.95117 0.0
H2029 H 0.72728 0.14004 0.9425 0.0
C2030 C 0.69827 0.17968 0.94036 0.0
C2031 C 0.65363 0.19593 0.93966 0.0
C2032 C 0.67117 0.09431 0.94752 0.0
C2033 C 0.64169 0.14176 0.9443 0.0
C2034 C 0.66314 0.06731 0.94537 0.0
C2035 C 0.61608 0.0586 0.94029 0.0
C2036 C 0.63203 0.11269 0.94436 0.0
C2037 C 0.57626 0.07719 0.93814 0.0
C2038 C 0.69256 0.15254 0.94274 0.0
C2039 C 0.60406 0.18482 0.94199 0.0
N2040 N 0.58536 0.10349 0.94008 0.0
N2041 N 0.59928 0.15834 0.94401 0.0
H2042 H 0.22216 0.68913 0.93459 0.0
H2043 H 0.0375 0.56294 0.94067 0.0
H2044 H 0.06005 0.69388 0.94547 0.0
H2045 H 0.20609 0.55772 0.93661 0.0
H2046 H 0.0465 0.61059 0.9449 0.0
H2047 H 0.22015 0.64091 0.93781 0.0
C2048 C 0.18676 0.68006 0.93803 0.0
C2049 C 0.14129 0.69526 0.93982 0.0
C2050 C 0.08168 0.59893 0.9433 0.0
C2051 C 0.13779 0.64029 0.94311 0.0
C2052 C 0.07644 0.57177 0.94095 0.0
C2053 C 0.12109 0.55663 0.93825 0.0
C2054 C 0.13183 0.61093 0.94278 0.0
C2055 C 0.1707 0.56893 0.93855 0.0
C2056 C 0.18534 0.65255 0.93977 0.0
C2057 C 0.09588 0.68264 0.944 0.0
N2058 N 0.17472 0.59544 0.9406 0.0
N2059 N 0.09497 0.65581 0.94534 0.0
H2060 H 0.67946 0.7026 0.80588 0.0
H2061 H 0.7206 0.56815 0.81483 0.0
H2062 H 0.52397 0.68538 0.81873 0.0
H2063 H 0.55225 0.55937 0.81167 0.0
H2064 H 0.71141 0.61577 0.81084 0.0
H2065 H 0.693 0.65515 0.80207 0.0
C2066 C 0.64773 0.68873 0.80762 0.0
C2067 C 0.60053 0.69761 0.81256 0.0
C2068 C 0.67655 0.60338 0.81059 0.0
C2069 C 0.61648 0.6434 0.80885 0.0
C2070 C 0.68196 0.5762 0.81289 0.0
C2071 C 0.63715 0.56005 0.81353 0.0
C2072 C 0.62583 0.61431 0.80901 0.0
C2073 C 0.58769 0.57136 0.81125 0.0
C2074 C 0.65577 0.66165 0.80565 0.0
C2075 C 0.56071 0.67912 0.81482 0.0
N2076 N 0.58323 0.59788 0.80928 0.0
N2077 N 0.56977 0.65277 0.81304 0.0
H2078 H 0.04238 0.1868 0.81378 0.0
H2079 H 0.23356 0.06225 0.81481 0.0
H2080 H 0.21172 0.19355 0.81287 0.0
H2081 H 0.06623 0.05615 0.80901 0.0
H2082 H 0.22805 0.11038 0.81139 0.0
H2083 H 0.05048 0.13919 0.80942 0.0
C2084 C 0.08113 0.17831 0.81237 0.0
C2085 C 0.12645 0.19387 0.81371 0.0
C2086 C 0.19269 0.09845 0.81058 0.0
C2087 C 0.13636 0.1396 0.80904 0.0
C2088 C 0.19605 0.07101 0.81244 0.0
C2089 C 0.15031 0.05549 0.81215 0.0
C2090 C 0.14308 0.11028 0.80864 0.0
C2091 C 0.10232 0.06767 0.80929 0.0
C2092 C 0.08589 0.15116 0.80994 0.0
C2093 C 0.1759 0.182 0.81199 0.0
N2094 N 0.09976 0.09442 0.80782 0.0
N2095 N 0.17962 0.15549 0.80991 0.0
H2096 H 0.45091 0.30585 0.56379 0.0
H2097 H 0.31438 0.44771 0.55681 0.0
H2098 H 0.28294 0.31762 0.56156 0.0
H2099 H 0.47826 0.43657 0.56523 0.0
H2100 H 0.30591 0.39986 0.55331 0.0
H2101 H 0.46459 0.3529 0.55929 0.0
C2102 C 0.41695 0.31837 0.56211 0.0
C2103 C 0.36575 0.30811 0.5631 0.0
C2104 C 0.34408 0.40788 0.55565 0.0
C2105 C 0.38091 0.36188 0.55809 0.0
C2106 C 0.349 0.43516 0.55754 0.0
C2107 C 0.39713 0.44585 0.56124 0.0
C2108 C 0.38755 0.3912 0.55761 0.0
C2109 C 0.44069 0.42895 0.56227 0.0
C2110 C 0.42474 0.34517 0.55958 0.0
C2111 C 0.32298 0.32491 0.56084 0.0
N2112 N 0.43471 0.40231 0.56062 0.0
N2113 N 0.33149 0.35114 0.55858 0.0
H2114 H 0.94691 0.80642 0.55858 0.0
H2115 H 0.80741 0.94855 0.55919 0.0
H2116 H 0.78011 0.8182 0.56341 0.0
H2117 H 0.97465 0.93682 0.56325 0.0
H2118 H 0.79704 0.90112 0.55498 0.0
H2119 H 0.95705 0.85396 0.55455 0.0
C2120 C 0.9122 0.81902 0.55846 0.0
C2121 C 0.86262 0.8086 0.56131 0.0
C2122 C 0.83618 0.90896 0.55654 0.0
C2123 C 0.87393 0.86288 0.55693 0.0
C2124 C 0.84214 0.93599 0.55886 0.0
C2125 C 0.89194 0.94637 0.56155 0.0
C2126 C 0.88038 0.8922 0.55698 0.0
C2127 C 0.93572 0.92947 0.56113 0.0
C2128 C 0.91804 0.8461 0.55623 0.0
C2129 C 0.81886 0.82556 0.56114 0.0
N2130 N 0.92885 0.90304 0.55904 0.0
N2131 N 0.82563 0.85202 0.55914 0.0
H2132 H 0.27666 0.93461 0.68555 0.0
H2133 H 0.47175 0.81343 0.68622 0.0
H2134 H 0.44278 0.94425 0.69215 0.0
H2135 H 0.3055 0.80414 0.69274 0.0
H2136 H 0.46301 0.86135 0.68981 0.0
H2137 H 0.28534 0.88688 0.6896 0.0
C2138 C 0.31453 0.92676 0.68821 0.0
C2139 C 0.35904 0.94318 0.68856 0.0
C2140 C 0.42866 0.84874 0.69074 0.0
C2141 C 0.36986 0.88878 0.69277 0.0
C2142 C 0.43383 0.82141 0.68877 0.0
C2143 C 0.38931 0.80501 0.68923 0.0
C2144 C 0.37843 0.85961 0.69291 0.0
C2145 C 0.34067 0.81632 0.69228 0.0
C2146 C 0.31967 0.89954 0.69043 0.0
C2147 C 0.40762 0.93204 0.69176 0.0
N2148 N 0.33628 0.843 0.69381 0.0
N2149 N 0.41198 0.90545 0.69355 0.0
H2150 H 0.77951 0.4391 0.68703 0.0
H2151 H 0.96621 0.31231 0.68555 0.0
H2152 H 0.94917 0.44375 0.68676 0.0
H2153 H 0.79855 0.30788 0.69121 0.0
H2154 H 0.96233 0.36056 0.68867 0.0
H2155 H 0.78593 0.3913 0.6912 0.0
C2156 C 0.81801 0.43009 0.68812 0.0
C2157 C 0.86386 0.4451 0.68651 0.0
C2158 C 0.9265 0.34899 0.68948 0.0
C2159 C 0.87182 0.39069 0.69099 0.0
C2160 C 0.92892 0.32148 0.68779 0.0
C2161 C 0.88266 0.30636 0.68815 0.0
C2162 C 0.87732 0.36132 0.69136 0.0
C2163 C 0.83501 0.31907 0.69085 0.0
C2164 C 0.8218 0.40285 0.69043 0.0
C2165 C 0.91294 0.43262 0.68785 0.0
N2166 N 0.83339 0.34589 0.69219 0.0
N2167 N 0.91568 0.40607 0.68986 0.0
H2168 H 0.72089 0.68654 0.43701 0.0
H2169 H 0.52558 0.56376 0.43694 0.0
H2170 H 0.55248 0.69485 0.44038 0.0
H2171 H 0.69319 0.55558 0.44189 0.0
H2172 H 0.53372 0.61178 0.44032 0.0
H2173 H 0.71222 0.63873 0.44091 0.0
C2174 C 0.68234 0.67837 0.43892 0.0
C2175 C 0.63735 0.69446 0.43843 0.0
C2176 C 0.5686 0.59942 0.44093 0.0
C2177 C 0.62668 0.63994 0.44249 0.0
C2178 C 0.56377 0.57201 0.43911 0.0
C2179 C 0.60873 0.55586 0.43922 0.0
C2180 C 0.61889 0.61065 0.44266 0.0
C2181 C 0.65763 0.56753 0.44175 0.0
C2182 C 0.67723 0.65109 0.44105 0.0
C2183 C 0.58806 0.68292 0.44068 0.0
N2184 N 0.66159 0.59427 0.4432 0.0
N2185 N 0.58391 0.65631 0.44245 0.0
H2186 H 0.05113 0.19968 0.44353 0.0
H2187 H 0.01527 0.06427 0.43676 0.0
H2188 H 0.21285 0.18125 0.43555 0.0
H2189 H 0.181 0.05639 0.44407 0.0
H2190 H 0.02188 0.11218 0.44024 0.0
H2191 H 0.03541 0.1528 0.4481 0.0
C2192 C 0.08354 0.18567 0.44298 0.0
C2193 C 0.13326 0.19403 0.43918 0.0
C2194 C 0.05649 0.09998 0.44156 0.0
C2195 C 0.11525 0.14035 0.44379 0.0
C2196 C 0.05252 0.0726 0.43957 0.0
C2197 C 0.09755 0.05661 0.44023 0.0
C2198 C 0.10607 0.11125 0.44411 0.0
C2199 C 0.1454 0.06825 0.44355 0.0
C2200 C 0.07441 0.15888 0.4454 0.0
C2201 C 0.17406 0.17539 0.43851 0.0
N2202 N 0.14864 0.09494 0.44517 0.0
N2203 N 0.16401 0.14929 0.44068 0.0
H2204 H 0.7188 0.06739 0.31571 0.0
H2205 H 0.52626 0.18994 0.31512 0.0
H2206 H 0.55195 0.05892 0.30972 0.0
H2207 H 0.69305 0.19807 0.30897 0.0
H2208 H 0.53381 0.14198 0.31151 0.0
H2209 H 0.71116 0.11517 0.31164 0.0
C2210 C 0.68094 0.0755 0.31318 0.0
C2211 C 0.63596 0.0594 0.31301 0.0
C2212 C 0.56857 0.15434 0.31067 0.0
C2213 C 0.62637 0.11386 0.30877 0.0
C2214 C 0.56407 0.18171 0.31263 0.0
C2215 C 0.60906 0.19778 0.31228 0.0
C2216 C 0.61858 0.1431 0.3086 0.0
C2217 C 0.6575 0.18615 0.30933 0.0
C2218 C 0.6764 0.10275 0.31095 0.0
C2219 C 0.58747 0.07087 0.30997 0.0
N2220 N 0.66121 0.15944 0.30779 0.0
N2221 N 0.58373 0.09748 0.30815 0.0
H2222 H 0.21236 0.56697 0.31257 0.0
H2223 H 0.02258 0.69119 0.31655 0.0
H2224 H 0.04322 0.55993 0.31441 0.0
H2225 H 0.18537 0.69731 0.3063 0.0
H2226 H 0.02663 0.64297 0.31338 0.0
H2227 H 0.20237 0.61439 0.30794 0.0
C2228 C 0.17317 0.57535 0.31173 0.0
C2229 C 0.12857 0.55981 0.31394 0.0
C2230 C 0.06115 0.65491 0.31153 0.0
C2231 C 0.11661 0.6138 0.30894 0.0
C2232 C 0.05856 0.68242 0.31324 0.0
C2233 C 0.10365 0.69799 0.31164 0.0
C2234 C 0.10947 0.64307 0.30843 0.0
C2235 C 0.14981 0.68576 0.30762 0.0
C2236 C 0.16735 0.60237 0.30914 0.0
C2237 C 0.07856 0.5715 0.31289 0.0
N2238 N 0.15186 0.65894 0.30634 0.0
N2239 N 0.0739 0.59789 0.31063 0.0
H2240 H 0.42422 0.0534 0.11372 0.0
H2241 H 0.42379 0.19928 0.13823 0.0
H2242 H 0.44336 0.12222 0.09201 0.0
H2243 H 0.44686 0.13056 0.15982 0.0
H2244 H 0.44151 0.17193 0.1213 0.0
H2245 H 0.44302 0.08087 0.13055 0.0
C2246 C 0.4336 0.07424 0.11248 0.0
C2247 C 0.43195 0.08557 0.10144 0.0
C2248 C 0.44389 0.16286 0.12973 0.0
C2249 C 0.45217 0.11743 0.12078 0.0
C2250 C 0.43386 0.1785 0.13942 0.0
C2251 C 0.4336 0.16716 0.15046 0.0
C2252 C 0.45254 0.13543 0.13102 0.0
C2253 C 0.44685 0.14014 0.15149 0.0
C2254 C 0.44428 0.08995 0.12211 0.0
C2255 C 0.44441 0.11266 0.10035 0.0
N2256 N 0.45469 0.12507 0.14187 0.0
N2257 N 0.45291 0.12778 0.10992 0.0
H2258 H 0.81849 0.20051 0.11397 0.0
H2259 H 0.78442 0.11694 0.1606 0.0
H2260 H 0.79739 0.13155 0.09243 0.0
H2261 H 0.83532 0.05657 0.13667 0.0
H2262 H 0.76479 0.14636 0.14431 0.0
H2263 H 0.8022 0.17324 0.13087 0.0
C2264 C 0.80882 0.17968 0.11279 0.0
C2265 C 0.80933 0.1683 0.10175 0.0
C2266 C 0.78022 0.12668 0.14261 0.0
C2267 C 0.79073 0.13657 0.12122 0.0
C2268 C 0.79071 0.10972 0.15193 0.0
C2269 C 0.81254 0.08443 0.15003 0.0
C2270 C 0.79175 0.11825 0.13131 0.0
C2271 C 0.81953 0.07611 0.13857 0.0
C2272 C 0.79918 0.16405 0.12249 0.0
C2273 C 0.79698 0.14118 0.10075 0.0
N2274 N 0.8097 0.093 0.1297 0.0
N2275 N 0.78937 0.12613 0.11038 0.0
H2276 H 0.54956 0.87525 0.84087 0.0
H2277 H 0.53606 0.88763 0.90957 0.0
H2278 H 0.5421 0.8082 0.86392 0.0
H2279 H 0.58119 0.95136 0.88678 0.0
H2280 H 0.51336 0.86037 0.89272 0.0
H2281 H 0.53535 0.90512 0.85731 0.0
C2282 C 0.54308 0.86676 0.84931 0.0
C2283 C 0.54747 0.83922 0.85104 0.0
C2284 C 0.5273 0.88051 0.89143 0.0
C2285 C 0.53217 0.87321 0.86992 0.0
C2286 C 0.53993 0.89613 0.90106 0.0
C2287 C 0.56119 0.92169 0.89959 0.0
C2288 C 0.53556 0.89064 0.88028 0.0
C2289 C 0.56562 0.93162 0.88832 0.0
C2290 C 0.53559 0.88382 0.85873 0.0
C2291 C 0.53946 0.82934 0.86222 0.0
N2292 N 0.55347 0.91604 0.87914 0.0
N2293 N 0.5329 0.84629 0.87123 0.0
H2294 H 0.20749 0.87961 0.84011 0.0
H2295 H 0.16269 0.79946 0.88711 0.0
H2296 H 0.18602 0.94339 0.86449 0.0
H2297 H 0.20673 0.86615 0.90836 0.0
H2298 H 0.18384 0.82523 0.87007 0.0
H2299 H 0.22351 0.84902 0.85615 0.0
C2300 C 0.20718 0.88729 0.84881 0.0
C2301 C 0.19431 0.914 0.85095 0.0
C2302 C 0.19075 0.83415 0.8784 0.0
C2303 C 0.21031 0.87891 0.86943 0.0
C2304 C 0.17817 0.81941 0.88819 0.0
C2305 C 0.18261 0.8307 0.8992 0.0
C2306 C 0.20743 0.86069 0.87954 0.0
C2307 C 0.20285 0.85662 0.90005 0.0
C2308 C 0.21537 0.8697 0.85802 0.0
C2309 C 0.19473 0.92284 0.86243 0.0
N2310 N 0.21341 0.87092 0.89035 0.0
N2311 N 0.20178 0.90533 0.87121 0.0
H2312 H 0.45479 0.55079 0.61364 0.0
H2313 H 0.47811 0.63516 0.66025 0.0
H2314 H 0.44817 0.62091 0.59238 0.0
H2315 H 0.41294 0.69319 0.63691 0.0
H2316 H 0.50106 0.6071 0.64374 0.0
H2317 H 0.47199 0.57854 0.63033 0.0
C2318 C 0.45878 0.57208 0.61243 0.0
C2319 C 0.44984 0.58353 0.60159 0.0
C2320 C 0.48169 0.62594 0.6422 0.0
C2321 C 0.46927 0.61588 0.62083 0.0
C2322 C 0.46928 0.64216 0.65166 0.0
C2323 C 0.44248 0.6663 0.65001 0.0
C2324 C 0.46692 0.63392 0.63102 0.0
C2325 C 0.43251 0.67445 0.63864 0.0
C2326 C 0.46882 0.58804 0.62202 0.0
C2327 C 0.45511 0.61122 0.60055 0.0
N2328 N 0.44413 0.65823 0.62964 0.0
N2329 N 0.46324 0.62647 0.6101 0.0
H2330 H 0.79177 0.63451 0.59101 0.0
H2331 H 0.79544 0.62165 0.65964 0.0
H2332 H 0.80048 0.70126 0.61424 0.0
H2333 H 0.81739 0.55619 0.63614 0.0
H2334 H 0.77203 0.65026 0.64325 0.0
H2335 H 0.77509 0.60519 0.60749 0.0
C2336 C 0.78843 0.64314 0.59952 0.0
C2337 C 0.7982 0.67032 0.60126 0.0
C2338 C 0.78091 0.62948 0.64172 0.0
C2339 C 0.78013 0.63687 0.62019 0.0
C2340 C 0.79387 0.61312 0.65109 0.0
C2341 C 0.80905 0.58661 0.64923 0.0
C2342 C 0.78282 0.61916 0.63046 0.0
C2343 C 0.80668 0.57663 0.63795 0.0
C2344 C 0.77946 0.62636 0.60895 0.0
C2345 C 0.79385 0.68035 0.61252 0.0
N2346 N 0.79452 0.59293 0.62901 0.0
N2347 N 0.78594 0.66363 0.62155 0.0
H2348 H 0.56571 0.30346 0.36446 0.0
H2349 H 0.54116 0.4497 0.38816 0.0
H2350 H 0.5358 0.37083 0.34247 0.0
H2351 H 0.53892 0.38063 0.4101 0.0
H2352 H 0.52492 0.42115 0.37152 0.0
H2353 H 0.54267 0.33044 0.38116 0.0
C2354 C 0.55319 0.32385 0.36313 0.0
C2355 C 0.55313 0.33497 0.35204 0.0
C2356 C 0.52663 0.41221 0.37998 0.0
C2357 C 0.52776 0.36633 0.37126 0.0
C2358 C 0.53563 0.42855 0.38951 0.0
C2359 C 0.54162 0.41752 0.40054 0.0
C2360 C 0.52476 0.38448 0.38142 0.0
C2361 C 0.53432 0.38999 0.40178 0.0
C2362 C 0.54004 0.33928 0.37269 0.0
C2363 C 0.53635 0.36144 0.35084 0.0
N2364 N 0.52745 0.37435 0.3923 0.0
N2365 N 0.5254 0.37638 0.36035 0.0
H2366 H 0.1961 0.30264 0.38738 0.0
H2367 H 0.18381 0.45129 0.36533 0.0
H2368 H 0.19448 0.37054 0.41004 0.0
H2369 H 0.20022 0.38388 0.34269 0.0
H2370 H 0.20463 0.42281 0.3817 0.0
H2371 H 0.21482 0.33204 0.37119 0.0
C2372 C 0.20105 0.32374 0.389 0.0
C2373 C 0.19324 0.33418 0.40008 0.0
C2374 C 0.20481 0.41424 0.37315 0.0
C2375 C 0.21338 0.36818 0.38144 0.0
C2376 C 0.19305 0.43054 0.36378 0.0
C2377 C 0.1898 0.41989 0.35262 0.0
C2378 C 0.21249 0.38686 0.37145 0.0
C2379 C 0.20236 0.39292 0.35113 0.0
C2380 C 0.21155 0.34055 0.37972 0.0
C2381 C 0.20026 0.36162 0.40166 0.0
N2382 N 0.21209 0.37721 0.36046 0.0
N2383 N 0.20885 0.37774 0.3924 0.0
H2384 H 0.95781 0.05354 0.61366 0.0
H2385 H 0.9241 0.19994 0.63718 0.0
H2386 H 0.94788 0.12238 0.59167 0.0
H2387 H 0.95518 0.13272 0.65919 0.0
H2388 H 0.94796 0.17313 0.62049 0.0
H2389 H 0.97302 0.08266 0.63014 0.0
C2390 C 0.96037 0.07482 0.61225 0.0
C2391 C 0.95119 0.08555 0.60127 0.0
C2392 C 0.95062 0.16428 0.62896 0.0
C2393 C 0.96705 0.11919 0.62024 0.0
C2394 C 0.93704 0.17962 0.63852 0.0
C2395 C 0.93715 0.16848 0.6496 0.0
C2396 C 0.96352 0.13732 0.6304 0.0
C2397 C 0.95454 0.14212 0.65081 0.0
C2398 C 0.9688 0.09147 0.6217 0.0
C2399 C 0.95491 0.11324 0.59996 0.0
N2400 N 0.96601 0.12727 0.6413 0.0
N2401 N 0.96142 0.12913 0.60937 0.0
H2402 H 0.30095 0.13014 0.59074 0.0
H2403 H 0.28191 0.11589 0.65927 0.0
H2404 H 0.28994 0.19651 0.61411 0.0
H2405 H 0.32637 0.05245 0.63625 0.0
H2406 H 0.26025 0.14368 0.64252 0.0
H2407 H 0.28484 0.09978 0.60691 0.0
C2408 C 0.29329 0.13838 0.59918 0.0
C2409 C 0.29726 0.16587 0.60109 0.0
C2410 C 0.2738 0.12348 0.64115 0.0
C2411 C 0.27986 0.13131 0.61968 0.0
C2412 C 0.28581 0.10757 0.65072 0.0
C2413 C 0.30664 0.08194 0.64916 0.0
C2414 C 0.28229 0.11359 0.62996 0.0
C2415 C 0.31115 0.07224 0.63786 0.0
C2416 C 0.28471 0.12104 0.60845 0.0
C2417 C 0.28769 0.17541 0.61228 0.0
N2418 N 0.29967 0.08811 0.62872 0.0
N2419 N 0.28017 0.15819 0.62115 0.0
H2420 H 0.07917 0.80304 0.36429 0.0
H2421 H 0.04692 0.94872 0.38867 0.0
H2422 H 0.04178 0.8703 0.34277 0.0
H2423 H 0.05567 0.87941 0.4104 0.0
H2424 H 0.03153 0.91999 0.37207 0.0
H2425 H 0.0581 0.82952 0.38126 0.0
C2426 C 0.06554 0.82331 0.36313 0.0
C2427 C 0.06273 0.83455 0.35208 0.0
C2428 C 0.03558 0.91099 0.38048 0.0
C2429 C 0.03943 0.86531 0.3716 0.0
C2430 C 0.04416 0.92742 0.38999 0.0
C2431 C 0.05287 0.91643 0.40094 0.0
C2432 C 0.03679 0.88324 0.38184 0.0
C2433 C 0.04894 0.88873 0.40214 0.0
C2434 C 0.05349 0.83844 0.37285 0.0
C2435 C 0.0445 0.86083 0.35111 0.0
N2436 N 0.0423 0.87305 0.39266 0.0
N2437 N 0.03453 0.87548 0.36075 0.0
H2438 H 0.70821 0.88569 0.34191 0.0
H2439 H 0.6998 0.87145 0.41058 0.0
H2440 H 0.66899 0.94941 0.36524 0.0
H2441 H 0.6981 0.80502 0.38712 0.0
H2442 H 0.71507 0.90144 0.39424 0.0
H2443 H 0.7302 0.85747 0.35852 0.0
C2444 C 0.70554 0.89397 0.35049 0.0
C2445 C 0.6861 0.91983 0.35219 0.0
C2446 C 0.71258 0.88022 0.39271 0.0
C2447 C 0.71094 0.88771 0.37121 0.0
C2448 C 0.70447 0.86307 0.40206 0.0
C2449 C 0.6972 0.83573 0.4002 0.0
C2450 C 0.71377 0.86989 0.38145 0.0
C2451 C 0.70298 0.82602 0.38893 0.0
C2452 C 0.71774 0.87782 0.35997 0.0
C2453 C 0.68313 0.92946 0.36353 0.0
N2454 N 0.71023 0.84306 0.37998 0.0
N2455 N 0.69486 0.91337 0.37258 0.0
H2456 H 0.95415 0.63198 0.16084 0.0
H2457 H 0.94982 0.62151 0.09196 0.0
H2458 H 0.92527 0.69823 0.13814 0.0
H2459 H 0.93251 0.55455 0.11481 0.0
H2460 H 0.96768 0.65008 0.1087 0.0
H2461 H 0.97293 0.60398 0.14398 0.0
C2462 C 0.95328 0.64083 0.15235 0.0
C2463 C 0.93761 0.6674 0.15089 0.0
C2464 C 0.96113 0.629 0.11001 0.0
C2465 C 0.95862 0.63552 0.13158 0.0
C2466 C 0.95145 0.61267 0.10044 0.0
C2467 C 0.93926 0.58568 0.102 0.0
C2468 C 0.95906 0.61817 0.12117 0.0
C2469 C 0.94126 0.57532 0.11323 0.0
C2470 C 0.96355 0.6248 0.14272 0.0
C2471 C 0.93663 0.67775 0.13965 0.0
N2472 N 0.95034 0.59157 0.12237 0.0
N2473 N 0.94641 0.66178 0.13045 0.0
H2474 H 0.31028 0.554 0.13697 0.0
H2475 H 0.3262 0.70128 0.11405 0.0
H2476 H 0.30386 0.62215 0.15943 0.0
H2477 H 0.29689 0.63432 0.09178 0.0
H2478 H 0.30645 0.67345 0.1307 0.0
H2479 H 0.29322 0.58296 0.12053 0.0
C2480 C 0.30386 0.57504 0.13847 0.0
C2481 C 0.30867 0.58569 0.14959 0.0
C2482 C 0.30323 0.66488 0.12219 0.0
C2483 C 0.2907 0.61923 0.13068 0.0
C2484 C 0.31448 0.6808 0.11265 0.0
C2485 C 0.31358 0.67006 0.10149 0.0
C2486 C 0.29203 0.63776 0.12063 0.0
C2487 C 0.29797 0.64343 0.10021 0.0
C2488 C 0.2943 0.59161 0.12905 0.0
C2489 C 0.30018 0.61309 0.15102 0.0
N2490 N 0.28886 0.62806 0.10968 0.0
N2491 N 0.29272 0.62899 0.14165 0.0
H2492 H 0.07465 0.30046 0.86532 0.0
H2493 H 0.04079 0.4477 0.88781 0.0
H2494 H 0.04544 0.36713 0.84289 0.0
H2495 H 0.05334 0.3797 0.91022 0.0
H2496 H 0.02451 0.41794 0.8716 0.0
H2497 H 0.05 0.32777 0.88181 0.0
C2498 C 0.06193 0.32076 0.86384 0.0
C2499 C 0.06266 0.33161 0.85271 0.0
C2500 C 0.02948 0.40945 0.88008 0.0
C2501 C 0.03537 0.36334 0.87167 0.0
C2502 C 0.03846 0.42647 0.88938 0.0
C2503 C 0.04881 0.41616 0.90039 0.0
C2504 C 0.03182 0.3818 0.88172 0.0
C2505 C 0.0454 0.38852 0.90191 0.0
C2506 C 0.0479 0.33639 0.87329 0.0
C2507 C 0.04548 0.35796 0.85131 0.0
N2508 N 0.03837 0.37228 0.89263 0.0
N2509 N 0.03358 0.37309 0.86071 0.0
H2510 H 0.71499 0.38629 0.84219 0.0
H2511 H 0.70545 0.37292 0.91082 0.0
H2512 H 0.6812 0.45099 0.86541 0.0
H2513 H 0.70839 0.30625 0.88748 0.0
H2514 H 0.72156 0.40285 0.8945 0.0
H2515 H 0.73706 0.35816 0.85881 0.0
C2516 C 0.71365 0.39479 0.85074 0.0
C2517 C 0.69561 0.42091 0.85242 0.0
C2518 C 0.71984 0.3816 0.89299 0.0
C2519 C 0.72025 0.38888 0.87147 0.0
C2520 C 0.71119 0.3645 0.90234 0.0
C2521 C 0.70498 0.33708 0.9005 0.0
C2522 C 0.7225 0.37118 0.88176 0.0
C2523 C 0.71228 0.32731 0.88927 0.0
C2524 C 0.72583 0.37869 0.86024 0.0
C2525 C 0.69424 0.43084 0.86372 0.0
N2526 N 0.71991 0.34432 0.88033 0.0
N2527 N 0.70573 0.41478 0.87279 0.0
loop_
_geom_bond_atom_site_label_1
_geom_bond_atom_site_label_2
_geom_bond_distance
_geom_bond_site_symmetry_2
_ccdc_geom_bond_type
Co0 O3 1.970 . S
Co0 N17 1.984 1_545 S
Co0 O25 1.967 . S
Co0 O32 1.920 . S
Co1 O4 1.966 . S
Co1 N10 2.022 . S
Co1 N18 1.993 . S
Co1 O26 1.941 . S
C2 O3 1.258 . S
C2 O4 1.263 . S
O3 Co0 1.970 . S
O3 C2 1.258 . S
O4 Co1 1.966 . S
O4 C2 1.263 . S
C5 O6 1.235 . S
C5 O32 1.289 . S
O6 C5 1.235 . S
C7 C9 1.400 . S
C7 N10 1.351 . S
C7 C12 1.501 . S
C8 C9 1.387 . S
C8 N11 1.341 . S
C9 C7 1.400 . S
C9 C8 1.387 . S
N10 Co1 2.022 . S
N10 C7 1.351 . S
N10 N11 1.365 . S
N11 C8 1.341 . S
N11 N10 1.365 . S
N11 H31 0.862 . S
C12 C7 1.501 . S
C12 H13 0.961 . S
C12 H14 0.961 . S
C12 H15 0.960 . S
H13 C12 0.961 . S
H14 C12 0.961 . S
H15 C12 0.960 . S
C16 N17 1.348 . S
C16 C20 1.401 . S
C16 C21 1.499 . S
N17 Co0 1.984 1_565 S
N17 C16 1.348 . S
N17 N18 1.387 1_565 S
N18 Co1 1.993 . S
N18 N17 1.387 1_545 S
N18 C19 1.346 1_545 S
C19 N18 1.346 1_565 S
C19 C20 1.396 . S
C19 C29 1.510 . S
C20 C16 1.401 . S
C20 C19 1.396 . S
C21 C16 1.499 . S
C21 H22 0.959 . S
C21 H23 0.960 . S
C21 H24 0.961 . S
H22 C21 0.959 . S
H23 C21 0.960 . S
H24 C21 0.961 . S
O25 Co0 1.967 . S
O25 C33 1.258 . S
O26 Co1 1.941 . S
O26 C33 1.266 . S
H27 C29 0.959 . S
H28 C29 0.961 . S
C29 C19 1.510 . S
C29 H27 0.959 . S
C29 H28 0.961 . S
C29 H30 0.960 . S
H30 C29 0.960 . S
H31 N11 0.862 . S
O32 Co0 1.920 . S
O32 C5 1.289 . S
C33 O25 1.258 . S
C33 O26 1.266 . S
Co34 O37 1.970 . S
Co34 N51 1.989 . S
Co34 O59 1.967 . S
Co34 O66 1.920 . S
Co35 O38 1.966 . S
Co35 N44 2.022 . S
Co35 N52 1.993 . S
Co35 O60 1.941 . S
C36 O37 1.258 . S
C36 O38 1.263 . S
O37 Co34 1.970 . S
O37 C36 1.258 . S
O38 Co35 1.966 . S
O38 C36 1.263 . S
C39 O40 1.235 . S
C39 O66 1.289 1_455 S
O40 C39 1.235 . S
C41 C43 1.400 . S
C41 N44 1.351 . S
C41 C46 1.501 . S
C42 C43 1.387 . S
C42 N45 1.341 . S
C43 C41 1.400 . S
C43 C42 1.387 . S
N44 Co35 2.022 . S
N44 C41 1.351 . S
N44 N45 1.365 . S
N45 C42 1.341 . S
N45 N44 1.365 . S
N45 H65 0.862 . S
C46 C41 1.501 . S
C46 H47 0.961 . S
C46 H48 0.961 . S
C46 H49 0.960 . S
H47 C46 0.961 . S
H48 C46 0.961 . S
H49 C46 0.960 . S
C50 N51 1.342 . S
C50 C54 1.401 . S
C50 C55 1.499 . S
N51 Co34 1.989 . S
N51 C50 1.342 . S
N51 N52 1.388 . S
N52 Co35 1.993 . S
N52 N51 1.388 . S
N52 C53 1.346 . S
C53 N52 1.346 . S
C53 C54 1.396 . S
C53 C63 1.510 . S
C54 C50 1.401 . S
C54 C53 1.396 . S
C55 C50 1.499 . S
C55 H56 0.959 . S
C55 H57 0.960 . S
C55 H58 0.961 . S
H56 C55 0.959 . S
H57 C55 0.960 . S
H58 C55 0.961 . S
O59 Co34 1.967 . S
O59 C67 1.258 . S
O60 Co35 1.941 . S
O60 C67 1.266 . S
H61 C63 0.959 . S
H62 C63 0.961 . S
C63 C53 1.510 . S
C63 H61 0.959 . S
C63 H62 0.961 . S
C63 H64 0.960 . S
H64 C63 0.960 . S
H65 N45 0.862 . S
O66 Co34 1.920 . S
O66 C39 1.289 1_655 S
C67 O59 1.258 . S
C67 O60 1.266 . S
Co68 O71 1.970 . S
Co68 N85 1.989 . S
Co68 O93 1.967 . S
Co68 O100 1.920 . S
Co69 O72 1.966 . S
Co69 N78 2.022 . S
Co69 N86 1.993 . S
Co69 O94 1.941 . S
C70 O71 1.258 . S
C70 O72 1.263 . S
O71 Co68 1.970 . S
O71 C70 1.258 . S
O72 Co69 1.966 . S
O72 C70 1.263 . S
C73 O74 1.235 . S
C73 O100 1.289 . S
O74 C73 1.235 . S
C75 C77 1.400 . S
C75 N78 1.351 . S
C75 C80 1.501 . S
C76 C77 1.387 . S
C76 N79 1.341 . S
C77 C75 1.400 . S
C77 C76 1.387 . S
N78 Co69 2.022 . S
N78 C75 1.351 . S
N78 N79 1.365 . S
N79 C76 1.341 . S
N79 N78 1.365 . S
N79 H99 0.862 . S
C80 C75 1.501 . S
C80 H81 0.961 . S
C80 H82 0.961 . S
C80 H83 0.960 . S
H81 C80 0.961 . S
H82 C80 0.961 . S
H83 C80 0.960 . S
C84 N85 1.342 . S
C84 C88 1.401 . S
C84 C89 1.499 . S
N85 Co68 1.989 . S
N85 C84 1.342 . S
N85 N86 1.388 . S
N86 Co69 1.993 . S
N86 N85 1.388 . S
N86 C87 1.346 . S
C87 N86 1.346 . S
C87 C88 1.396 . S
C87 C97 1.510 . S
C88 C84 1.401 . S
C88 C87 1.396 . S
C89 C84 1.499 . S
C89 H90 0.959 . S
C89 H91 0.960 . S
C89 H92 0.961 . S
H90 C89 0.959 . S
H91 C89 0.960 . S
H92 C89 0.961 . S
O93 Co68 1.967 . S
O93 C101 1.258 . S
O94 Co69 1.941 . S
O94 C101 1.266 . S
H95 C97 0.959 . S
H96 C97 0.961 . S
C97 C87 1.510 . S
C97 H95 0.959 . S
C97 H96 0.961 . S
C97 H98 0.960 . S
H98 C97 0.960 . S
H99 N79 0.862 . S
O100 Co68 1.920 . S
O100 C73 1.289 . S
C101 O93 1.258 . S
C101 O94 1.266 . S
Co102 O105 1.970 . S
Co102 N119 1.985 1_545 S
Co102 O127 1.967 . S
Co102 O134 1.920 . S
Co103 O106 1.966 . S
Co103 N112 2.022 . S
Co103 N120 1.993 . S
Co103 O128 1.941 . S
C104 O105 1.258 . S
C104 O106 1.263 . S
O105 Co102 1.970 . S
O105 C104 1.258 . S
O106 Co103 1.966 . S
O106 C104 1.263 . S
C107 O108 1.235 . S
C107 O134 1.289 1_455 S
O108 C107 1.235 . S
C109 C111 1.400 . S
C109 N112 1.351 . S
C109 C114 1.501 . S
C110 C111 1.387 . S
C110 N113 1.341 . S
C111 C109 1.400 . S
C111 C110 1.387 . S
N112 Co103 2.022 . S
N112 C109 1.351 . S
N112 N113 1.365 . S
N113 C110 1.341 . S
N113 N112 1.365 . S
N113 H133 0.862 . S
C114 C109 1.501 . S
C114 H115 0.961 . S
C114 H116 0.961 . S
C114 H117 0.960 . S
H115 C114 0.961 . S
H116 C114 0.961 . S
H117 C114 0.960 . S
C118 N119 1.347 . S
C118 C122 1.401 . S
C118 C123 1.499 . S
N119 Co102 1.985 1_565 S
N119 C118 1.347 . S
N119 N120 1.387 1_565 S
N120 Co103 1.993 . S
N120 N119 1.387 1_545 S
N120 C121 1.346 1_545 S
C121 N120 1.346 1_565 S
C121 C122 1.396 . S
C121 C131 1.510 . S
C122 C118 1.401 . S
C122 C121 1.396 . S
C123 C118 1.499 . S
C123 H124 0.959 . S
C123 H125 0.960 . S
C123 H126 0.961 . S
H124 C123 0.959 . S
H125 C123 0.960 . S
H126 C123 0.961 . S
O127 Co102 1.967 . S
O127 C135 1.258 . S
O128 Co103 1.941 . S
O128 C135 1.266 . S
H129 C131 0.959 . S
H130 C131 0.961 . S
C131 C121 1.510 . S
C131 H129 0.959 . S
C131 H130 0.961 . S
C131 H132 0.960 . S
H132 C131 0.960 . S
H133 N113 0.862 . S
O134 Co102 1.920 . S
O134 C107 1.289 1_655 S
C135 O127 1.258 . S
C135 O128 1.266 . S
Co136 O139 1.970 . S
Co136 N153 1.984 1_565 S
Co136 O161 1.967 . S
Co136 O168 1.920 . S
Co137 O140 1.966 . S
Co137 N146 2.022 . S
Co137 N154 1.993 . S
Co137 O162 1.941 . S
C138 O139 1.258 . S
C138 O140 1.263 . S
O139 Co136 1.970 . S
O139 C138 1.258 . S
O140 Co137 1.966 . S
O140 C138 1.263 . S
C141 O142 1.235 . S
C141 O168 1.289 . S
O142 C141 1.235 . S
C143 C145 1.400 . S
C143 N146 1.351 . S
C143 C148 1.501 . S
C144 C145 1.387 . S
C144 N147 1.341 . S
C145 C143 1.400 . S
C145 C144 1.387 . S
N146 Co137 2.022 . S
N146 C143 1.351 . S
N146 N147 1.365 . S
N147 C144 1.341 . S
N147 N146 1.365 . S
N147 H167 0.862 . S
C148 C143 1.501 . S
C148 H149 0.961 . S
C148 H150 0.961 . S
C148 H151 0.960 . S
H149 C148 0.961 . S
H150 C148 0.961 . S
H151 C148 0.960 . S
C152 N153 1.348 . S
C152 C156 1.401 . S
C152 C157 1.499 . S
N153 Co136 1.984 1_545 S
N153 C152 1.348 . S
N153 N154 1.387 1_545 S
N154 Co137 1.993 . S
N154 N153 1.387 1_565 S
N154 C155 1.346 1_565 S
C155 N154 1.346 1_545 S
C155 C156 1.396 . S
C155 C165 1.510 . S
C156 C152 1.401 . S
C156 C155 1.396 . S
C157 C152 1.499 . S
C157 H158 0.959 . S
C157 H159 0.960 . S
C157 H160 0.961 . S
H158 C157 0.959 . S
H159 C157 0.960 . S
H160 C157 0.961 . S
O161 Co136 1.967 . S
O161 C169 1.258 . S
O162 Co137 1.941 . S
O162 C169 1.266 . S
H163 C165 0.959 . S
H164 C165 0.961 . S
C165 C155 1.510 . S
C165 H163 0.959 . S
C165 H164 0.961 . S
C165 H166 0.960 . S
H166 C165 0.960 . S
H167 N147 0.862 . S
O168 Co136 1.920 . S
O168 C141 1.289 . S
C169 O161 1.258 . S
C169 O162 1.266 . S
Co170 O173 1.970 . S
Co170 N187 1.989 . S
Co170 O195 1.967 . S
Co170 O202 1.920 . S
Co171 O174 1.966 . S
Co171 N180 2.022 . S
Co171 N188 1.993 . S
Co171 O196 1.941 . S
C172 O173 1.258 . S
C172 O174 1.263 . S
O173 Co170 1.970 . S
O173 C172 1.258 . S
O174 Co171 1.966 . S
O174 C172 1.263 . S
C175 O176 1.235 . S
C175 O202 1.289 1_655 S
O176 C175 1.235 . S
C177 C179 1.400 . S
C177 N180 1.351 . S
C177 C182 1.501 . S
C178 C179 1.387 . S
C178 N181 1.341 . S
C179 C177 1.400 . S
C179 C178 1.387 . S
N180 Co171 2.022 . S
N180 C177 1.351 . S
N180 N181 1.365 . S
N181 C178 1.341 . S
N181 N180 1.365 . S
N181 H201 0.862 . S
C182 C177 1.501 . S
C182 H183 0.961 . S
C182 H184 0.961 . S
C182 H185 0.960 . S
H183 C182 0.961 . S
H184 C182 0.961 . S
H185 C182 0.960 . S
C186 N187 1.342 . S
C186 C190 1.401 . S
C186 C191 1.499 . S
N187 Co170 1.989 . S
N187 C186 1.342 . S
N187 N188 1.388 . S
N188 Co171 1.993 . S
N188 N187 1.388 . S
N188 C189 1.346 . S
C189 N188 1.346 . S
C189 C190 1.396 . S
C189 C199 1.510 . S
C190 C186 1.401 . S
C190 C189 1.396 . S
C191 C186 1.499 . S
C191 H192 0.959 . S
C191 H193 0.960 . S
C191 H194 0.961 . S
H192 C191 0.959 . S
H193 C191 0.960 . S
H194 C191 0.961 . S
O195 Co170 1.967 . S
O195 C203 1.258 . S
O196 Co171 1.941 . S
O196 C203 1.266 . S
H197 C199 0.959 . S
H198 C199 0.961 . S
C199 C189 1.510 . S
C199 H197 0.959 . S
C199 H198 0.961 . S
C199 H200 0.960 . S
H200 C199 0.960 . S
H201 N181 0.862 . S
O202 Co170 1.920 . S
O202 C175 1.289 1_455 S
C203 O195 1.258 . S
C203 O196 1.266 . S
Co204 O207 1.970 . S
Co204 N221 1.989 . S
Co204 O229 1.967 . S
Co204 O236 1.920 . S
Co205 O208 1.966 . S
Co205 N214 2.022 . S
Co205 N222 1.993 . S
Co205 O230 1.941 . S
C206 O207 1.258 . S
C206 O208 1.263 . S
O207 Co204 1.970 . S
O207 C206 1.258 . S
O208 Co205 1.966 . S
O208 C206 1.263 . S
C209 O210 1.235 . S
C209 O236 1.289 . S
O210 C209 1.235 . S
C211 C213 1.400 . S
C211 N214 1.351 . S
C211 C216 1.501 . S
C212 C213 1.387 . S
C212 N215 1.341 . S
C213 C211 1.400 . S
C213 C212 1.387 . S
N214 Co205 2.022 . S
N214 C211 1.351 . S
N214 N215 1.365 . S
N215 C212 1.341 . S
N215 N214 1.365 . S
N215 H235 0.862 . S
C216 C211 1.501 . S
C216 H217 0.961 . S
C216 H218 0.961 . S
C216 H219 0.960 . S
H217 C216 0.961 . S
H218 C216 0.961 . S
H219 C216 0.960 . S
C220 N221 1.342 . S
C220 C224 1.401 . S
C220 C225 1.499 . S
N221 Co204 1.989 . S
N221 C220 1.342 . S
N221 N222 1.388 . S
N222 Co205 1.993 . S
N222 N221 1.388 . S
N222 C223 1.346 . S
C223 N222 1.346 . S
C223 C224 1.396 . S
C223 C233 1.510 . S
C224 C220 1.401 . S
C224 C223 1.396 . S
C225 C220 1.499 . S
C225 H226 0.959 . S
C225 H227 0.960 . S
C225 H228 0.961 . S
H226 C225 0.959 . S
H227 C225 0.960 . S
H228 C225 0.961 . S
O229 Co204 1.967 . S
O229 C237 1.258 . S
O230 Co205 1.941 . S
O230 C237 1.266 . S
H231 C233 0.959 . S
H232 C233 0.961 . S
C233 C223 1.510 . S
C233 H231 0.959 . S
C233 H232 0.961 . S
C233 H234 0.960 . S
H234 C233 0.960 . S
H235 N215 0.862 . S
O236 Co204 1.920 . S
O236 C209 1.289 . S
C237 O229 1.258 . S
C237 O230 1.266 . S
Co238 O241 1.970 . S
Co238 N255 1.985 1_565 S
Co238 O263 1.967 . S
Co238 O270 1.920 . S
Co239 O242 1.966 . S
Co239 N248 2.022 . S
Co239 N256 1.993 . S
Co239 O264 1.941 . S
C240 O241 1.258 . S
C240 O242 1.263 . S
O241 Co238 1.970 . S
O241 C240 1.258 . S
O242 Co239 1.966 . S
O242 C240 1.263 . S
C243 O244 1.235 . S
C243 O270 1.289 1_655 S
O244 C243 1.235 . S
C245 C247 1.400 . S
C245 N248 1.351 . S
C245 C250 1.501 . S
C246 C247 1.387 . S
C246 N249 1.341 . S
C247 C245 1.400 . S
C247 C246 1.387 . S
N248 Co239 2.022 . S
N248 C245 1.351 . S
N248 N249 1.365 . S
N249 C246 1.341 . S
N249 N248 1.365 . S
N249 H269 0.862 . S
C250 C245 1.501 . S
C250 H251 0.961 . S
C250 H252 0.961 . S
C250 H253 0.960 . S
H251 C250 0.961 . S
H252 C250 0.961 . S
H253 C250 0.960 . S
C254 N255 1.347 . S
C254 C258 1.401 . S
C254 C259 1.499 . S
N255 Co238 1.985 1_545 S
N255 C254 1.347 . S
N255 N256 1.387 1_545 S
N256 Co239 1.993 . S
N256 N255 1.387 1_565 S
N256 C257 1.346 1_565 S
C257 N256 1.346 1_545 S
C257 C258 1.396 . S
C257 C267 1.510 . S
C258 C254 1.401 . S
C258 C257 1.396 . S
C259 C254 1.499 . S
C259 H260 0.959 . S
C259 H261 0.960 . S
C259 H262 0.961 . S
H260 C259 0.959 . S
H261 C259 0.960 . S
H262 C259 0.961 . S
O263 Co238 1.967 . S
O263 C271 1.258 . S
O264 Co239 1.941 . S
O264 C271 1.266 . S
H265 C267 0.959 . S
H266 C267 0.961 . S
C267 C257 1.510 . S
C267 H265 0.959 . S
C267 H266 0.961 . S
C267 H268 0.960 . S
H268 C267 0.960 . S
H269 N249 0.862 . S
O270 Co238 1.920 . S
O270 C243 1.289 1_455 S
C271 O263 1.258 . S
C271 O264 1.266 . S
Co272 O275 1.970 . S
Co272 N289 1.989 . S
Co272 O297 1.967 . S
Co272 O304 1.920 . S
Co273 O276 1.966 . S
Co273 N282 2.022 . S
Co273 N290 1.993 . S
Co273 O298 1.941 . S
C274 O275 1.258 . S
C274 O276 1.263 . S
O275 Co272 1.970 . S
O275 C274 1.258 . S
O276 Co273 1.966 . S
O276 C274 1.263 . S
C277 O278 1.235 . S
C277 O304 1.289 . S
O278 C277 1.235 . S
C279 C281 1.400 . S
C279 N282 1.351 . S
C279 C284 1.501 . S
C280 C281 1.387 . S
C280 N283 1.341 . S
C281 C279 1.400 . S
C281 C280 1.387 . S
N282 Co273 2.022 . S
N282 C279 1.351 . S
N282 N283 1.365 . S
N283 C280 1.341 . S
N283 N282 1.365 . S
N283 H303 0.862 . S
C284 C279 1.501 . S
C284 H285 0.961 . S
C284 H286 0.961 . S
C284 H287 0.960 . S
H285 C284 0.961 . S
H286 C284 0.961 . S
H287 C284 0.960 . S
C288 N289 1.342 . S
C288 C292 1.401 . S
C288 C293 1.499 . S
N289 Co272 1.989 . S
N289 C288 1.342 . S
N289 N290 1.388 . S
N290 Co273 1.993 . S
N290 N289 1.388 . S
N290 C291 1.346 . S
C291 N290 1.346 . S
C291 C292 1.396 . S
C291 C301 1.510 . S
C292 C288 1.401 . S
C292 C291 1.396 . S
C293 C288 1.499 . S
C293 H294 0.959 . S
C293 H295 0.960 . S
C293 H296 0.961 . S
H294 C293 0.959 . S
H295 C293 0.960 . S
H296 C293 0.961 . S
O297 Co272 1.967 . S
O297 C305 1.258 . S
O298 Co273 1.941 . S
O298 C305 1.266 . S
H299 C301 0.959 . S
H300 C301 0.961 . S
C301 C291 1.510 . S
C301 H299 0.959 . S
C301 H300 0.961 . S
C301 H302 0.960 . S
H302 C301 0.960 . S
H303 N283 0.862 . S
O304 Co272 1.920 . S
O304 C277 1.289 . S
C305 O297 1.258 . S
C305 O298 1.266 . S
Co306 O309 1.970 . S
Co306 N323 1.989 . S
Co306 O331 1.967 . S
Co306 O338 1.920 . S
Co307 O310 1.966 . S
Co307 N316 2.022 . S
Co307 N324 1.993 . S
Co307 O332 1.941 . S
C308 O309 1.258 . S
C308 O310 1.263 . S
O309 Co306 1.970 . S
O309 C308 1.258 . S
O310 Co307 1.966 . S
O310 C308 1.263 . S
C311 O312 1.235 . S
C311 O338 1.289 1_455 S
O312 C311 1.235 . S
C313 C315 1.400 . S
C313 N316 1.351 . S
C313 C318 1.501 . S
C314 C315 1.387 . S
C314 N317 1.341 . S
C315 C313 1.400 . S
C315 C314 1.387 . S
N316 Co307 2.022 . S
N316 C313 1.351 . S
N316 N317 1.365 . S
N317 C314 1.341 . S
N317 N316 1.365 . S
N317 H337 0.862 . S
C318 C313 1.501 . S
C318 H319 0.961 . S
C318 H320 0.961 . S
C318 H321 0.960 . S
H319 C318 0.961 . S
H320 C318 0.961 . S
H321 C318 0.960 . S
C322 N323 1.342 . S
C322 C326 1.401 . S
C322 C327 1.499 . S
N323 Co306 1.989 . S
N323 C322 1.342 . S
N323 N324 1.388 . S
N324 Co307 1.993 . S
N324 N323 1.388 . S
N324 C325 1.346 . S
C325 N324 1.346 . S
C325 C326 1.396 . S
C325 C335 1.510 . S
C326 C322 1.401 . S
C326 C325 1.396 . S
C327 C322 1.499 . S
C327 H328 0.959 . S
C327 H329 0.960 . S
C327 H330 0.961 . S
H328 C327 0.959 . S
H329 C327 0.960 . S
H330 C327 0.961 . S
O331 Co306 1.967 . S
O331 C339 1.258 . S
O332 Co307 1.941 . S
O332 C339 1.266 . S
H333 C335 0.959 . S
H334 C335 0.961 . S
C335 C325 1.510 . S
C335 H333 0.959 . S
C335 H334 0.961 . S
C335 H336 0.960 . S
H336 C335 0.960 . S
H337 N317 0.862 . S
O338 Co306 1.920 . S
O338 C311 1.289 1_655 S
C339 O331 1.258 . S
C339 O332 1.266 . S
Co340 O343 1.970 . S
Co340 N357 1.989 . S
Co340 O365 1.967 . S
Co340 O372 1.920 . S
Co341 O344 1.966 . S
Co341 N350 2.022 . S
Co341 N358 1.993 . S
Co341 O366 1.941 . S
C342 O343 1.258 . S
C342 O344 1.263 . S
O343 Co340 1.970 . S
O343 C342 1.258 . S
O344 Co341 1.966 . S
O344 C342 1.263 . S
C345 O346 1.235 . S
C345 O372 1.289 . S
O346 C345 1.235 . S
C347 C349 1.400 . S
C347 N350 1.351 . S
C347 C352 1.501 . S
C348 C349 1.387 . S
C348 N351 1.341 . S
C349 C347 1.400 . S
C349 C348 1.387 . S
N350 Co341 2.022 . S
N350 C347 1.351 . S
N350 N351 1.365 . S
N351 C348 1.341 . S
N351 N350 1.365 . S
N351 H371 0.862 . S
C352 C347 1.501 . S
C352 H353 0.961 . S
C352 H354 0.961 . S
C352 H355 0.960 . S
H353 C352 0.961 . S
H354 C352 0.961 . S
H355 C352 0.960 . S
C356 N357 1.342 . S
C356 C360 1.401 . S
C356 C361 1.499 . S
N357 Co340 1.989 . S
N357 C356 1.342 . S
N357 N358 1.388 . S
N358 Co341 1.993 . S
N358 N357 1.388 . S
N358 C359 1.346 . S
C359 N358 1.346 . S
C359 C360 1.396 . S
C359 C369 1.510 . S
C360 C356 1.401 . S
C360 C359 1.396 . S
C361 C356 1.499 . S
C361 H362 0.959 . S
C361 H363 0.960 . S
C361 H364 0.961 . S
H362 C361 0.959 . S
H363 C361 0.960 . S
H364 C361 0.961 . S
O365 Co340 1.967 . S
O365 C373 1.258 . S
O366 Co341 1.941 . S
O366 C373 1.266 . S
H367 C369 0.959 . S
H368 C369 0.961 . S
C369 C359 1.510 . S
C369 H367 0.959 . S
C369 H368 0.961 . S
C369 H370 0.960 . S
H370 C369 0.960 . S
H371 N351 0.862 . S
O372 Co340 1.920 . S
O372 C345 1.289 . S
C373 O365 1.258 . S
C373 O366 1.266 . S
Co374 O377 1.970 . S
Co374 N391 1.989 . S
Co374 O399 1.967 . S
Co374 O406 1.920 . S
Co375 O378 1.966 . S
Co375 N384 2.022 . S
Co375 N392 1.993 . S
Co375 O400 1.941 . S
C376 O377 1.258 . S
C376 O378 1.263 . S
O377 Co374 1.970 . S
O377 C376 1.258 . S
O378 Co375 1.966 . S
O378 C376 1.263 . S
C379 O380 1.235 . S
C379 O406 1.289 1_455 S
O380 C379 1.235 . S
C381 C383 1.400 . S
C381 N384 1.351 . S
C381 C386 1.501 . S
C382 C383 1.387 . S
C382 N385 1.341 . S
C383 C381 1.400 . S
C383 C382 1.387 . S
N384 Co375 2.022 . S
N384 C381 1.351 . S
N384 N385 1.365 . S
N385 C382 1.341 . S
N385 N384 1.365 . S
N385 H405 0.862 . S
C386 C381 1.501 . S
C386 H387 0.961 . S
C386 H388 0.961 . S
C386 H389 0.960 . S
H387 C386 0.961 . S
H388 C386 0.961 . S
H389 C386 0.960 . S
C390 N391 1.342 . S
C390 C394 1.401 . S
C390 C395 1.499 . S
N391 Co374 1.989 . S
N391 C390 1.342 . S
N391 N392 1.388 . S
N392 Co375 1.993 . S
N392 N391 1.388 . S
N392 C393 1.346 . S
C393 N392 1.346 . S
C393 C394 1.396 . S
C393 C403 1.510 . S
C394 C390 1.401 . S
C394 C393 1.396 . S
C395 C390 1.499 . S
C395 H396 0.959 . S
C395 H397 0.960 . S
C395 H398 0.961 . S
H396 C395 0.959 . S
H397 C395 0.960 . S
H398 C395 0.961 . S
O399 Co374 1.967 . S
O399 C407 1.258 . S
O400 Co375 1.941 . S
O400 C407 1.266 . S
H401 C403 0.959 . S
H402 C403 0.961 . S
C403 C393 1.510 . S
C403 H401 0.959 . S
C403 H402 0.961 . S
C403 H404 0.960 . S
H404 C403 0.960 . S
H405 N385 0.862 . S
O406 Co374 1.920 . S
O406 C379 1.289 1_655 S
C407 O399 1.258 . S
C407 O400 1.266 . S
Co408 O411 1.970 . S
Co408 N425 1.989 . S
Co408 O433 1.967 . S
Co408 O440 1.920 . S
Co409 O412 1.966 . S
Co409 N418 2.022 . S
Co409 N426 1.993 . S
Co409 O434 1.941 . S
C410 O411 1.258 . S
C410 O412 1.263 . S
O411 Co408 1.970 . S
O411 C410 1.258 . S
O412 Co409 1.966 . S
O412 C410 1.263 . S
C413 O414 1.235 . S
C413 O440 1.289 . S
O414 C413 1.235 . S
C415 C417 1.400 . S
C415 N418 1.351 . S
C415 C420 1.501 . S
C416 C417 1.387 . S
C416 N419 1.341 . S
C417 C415 1.400 . S
C417 C416 1.387 . S
N418 Co409 2.022 . S
N418 C415 1.351 . S
N418 N419 1.365 . S
N419 C416 1.341 . S
N419 N418 1.365 . S
N419 H439 0.862 . S
C420 C415 1.501 . S
C420 H421 0.961 . S
C420 H422 0.961 . S
C420 H423 0.960 . S
H421 C420 0.961 . S
H422 C420 0.961 . S
H423 C420 0.960 . S
C424 N425 1.342 . S
C424 C428 1.401 . S
C424 C429 1.499 . S
N425 Co408 1.989 . S
N425 C424 1.342 . S
N425 N426 1.388 . S
N426 Co409 1.993 . S
N426 N425 1.388 . S
N426 C427 1.346 . S
C427 N426 1.346 . S
C427 C428 1.396 . S
C427 C437 1.510 . S
C428 C424 1.401 . S
C428 C427 1.396 . S
C429 C424 1.499 . S
C429 H430 0.959 . S
C429 H431 0.960 . S
C429 H432 0.961 . S
H430 C429 0.959 . S
H431 C429 0.960 . S
H432 C429 0.961 . S
O433 Co408 1.967 . S
O433 C441 1.258 . S
O434 Co409 1.941 . S
O434 C441 1.266 . S
H435 C437 0.959 . S
H436 C437 0.961 . S
C437 C427 1.510 . S
C437 H435 0.959 . S
C437 H436 0.961 . S
C437 H438 0.960 . S
H438 C437 0.960 . S
H439 N419 0.862 . S
O440 Co408 1.920 . S
O440 C413 1.289 . S
C441 O433 1.258 . S
C441 O434 1.266 . S
Co442 O445 1.970 . S
Co442 N459 1.989 . S
Co442 O467 1.967 . S
Co442 O474 1.920 . S
Co443 O446 1.966 . S
Co443 N452 2.022 . S
Co443 N460 1.993 . S
Co443 O468 1.941 . S
C444 O445 1.258 . S
C444 O446 1.263 . S
O445 Co442 1.970 . S
O445 C444 1.258 . S
O446 Co443 1.966 . S
O446 C444 1.263 . S
C447 O448 1.235 . S
C447 O474 1.289 1_655 S
O448 C447 1.235 . S
C449 C451 1.400 . S
C449 N452 1.351 . S
C449 C454 1.501 . S
C450 C451 1.387 . S
C450 N453 1.341 . S
C451 C449 1.400 . S
C451 C450 1.387 . S
N452 Co443 2.022 . S
N452 C449 1.351 . S
N452 N453 1.365 . S
N453 C450 1.341 . S
N453 N452 1.365 . S
N453 H473 0.862 . S
C454 C449 1.501 . S
C454 H455 0.961 . S
C454 H456 0.961 . S
C454 H457 0.960 . S
H455 C454 0.961 . S
H456 C454 0.961 . S
H457 C454 0.960 . S
C458 N459 1.342 . S
C458 C462 1.401 . S
C458 C463 1.499 . S
N459 Co442 1.989 . S
N459 C458 1.342 . S
N459 N460 1.388 . S
N460 Co443 1.993 . S
N460 N459 1.388 . S
N460 C461 1.346 . S
C461 N460 1.346 . S
C461 C462 1.396 . S
C461 C471 1.510 . S
C462 C458 1.401 . S
C462 C461 1.396 . S
C463 C458 1.499 . S
C463 H464 0.959 . S
C463 H465 0.960 . S
C463 H466 0.961 . S
H464 C463 0.959 . S
H465 C463 0.960 . S
H466 C463 0.961 . S
O467 Co442 1.967 . S
O467 C475 1.258 . S
O468 Co443 1.941 . S
O468 C475 1.266 . S
H469 C471 0.959 . S
H470 C471 0.961 . S
C471 C461 1.510 . S
C471 H469 0.959 . S
C471 H470 0.961 . S
C471 H472 0.960 . S
H472 C471 0.960 . S
H473 N453 0.862 . S
O474 Co442 1.920 . S
O474 C447 1.289 1_455 S
C475 O467 1.258 . S
C475 O468 1.266 . S
Co476 O479 1.970 . S
Co476 N493 1.989 . S
Co476 O501 1.967 . S
Co476 O508 1.920 . S
Co477 O480 1.966 . S
Co477 N486 2.022 . S
Co477 N494 1.993 . S
Co477 O502 1.941 . S
C478 O479 1.258 . S
C478 O480 1.263 . S
O479 Co476 1.970 . S
O479 C478 1.258 . S
O480 Co477 1.966 . S
O480 C478 1.263 . S
C481 O482 1.235 . S
C481 O508 1.289 . S
O482 C481 1.235 . S
C483 C485 1.400 . S
C483 N486 1.351 . S
C483 C488 1.501 . S
C484 C485 1.387 . S
C484 N487 1.341 . S
C485 C483 1.400 . S
C485 C484 1.387 . S
N486 Co477 2.022 . S
N486 C483 1.351 . S
N486 N487 1.365 . S
N487 C484 1.341 . S
N487 N486 1.365 . S
N487 H507 0.862 . S
C488 C483 1.501 . S
C488 H489 0.961 . S
C488 H490 0.961 . S
C488 H491 0.960 . S
H489 C488 0.961 . S
H490 C488 0.961 . S
H491 C488 0.960 . S
C492 N493 1.342 . S
C492 C496 1.401 . S
C492 C497 1.499 . S
N493 Co476 1.989 . S
N493 C492 1.342 . S
N493 N494 1.388 . S
N494 Co477 1.993 . S
N494 N493 1.388 . S
N494 C495 1.346 . S
C495 N494 1.346 . S
C495 C496 1.396 . S
C495 C505 1.510 . S
C496 C492 1.401 . S
C496 C495 1.396 . S
C497 C492 1.499 . S
C497 H498 0.959 . S
C497 H499 0.960 . S
C497 H500 0.961 . S
H498 C497 0.959 . S
H499 C497 0.960 . S
H500 C497 0.961 . S
O501 Co476 1.967 . S
O501 C509 1.258 . S
O502 Co477 1.941 . S
O502 C509 1.266 . S
H503 C505 0.959 . S
H504 C505 0.961 . S
C505 C495 1.510 . S
C505 H503 0.959 . S
C505 H504 0.961 . S
C505 H506 0.960 . S
H506 C505 0.960 . S
H507 N487 0.862 . S
O508 Co476 1.920 . S
O508 C481 1.289 . S
C509 O501 1.258 . S
C509 O502 1.266 . S
Co510 O513 1.970 . S
Co510 N527 1.989 . S
Co510 O535 1.967 . S
Co510 O542 1.920 . S
Co511 O514 1.966 . S
Co511 N520 2.022 . S
Co511 N528 1.993 . S
Co511 O536 1.941 . S
C512 O513 1.258 . S
C512 O514 1.263 . S
O513 Co510 1.970 . S
O513 C512 1.258 . S
O514 Co511 1.966 . S
O514 C512 1.263 . S
C515 O516 1.235 . S
C515 O542 1.289 1_655 S
O516 C515 1.235 . S
C517 C519 1.400 . S
C517 N520 1.351 . S
C517 C522 1.501 . S
C518 C519 1.387 . S
C518 N521 1.341 . S
C519 C517 1.400 . S
C519 C518 1.387 . S
N520 Co511 2.022 . S
N520 C517 1.351 . S
N520 N521 1.365 . S
N521 C518 1.341 . S
N521 N520 1.365 . S
N521 H541 0.862 . S
C522 C517 1.501 . S
C522 H523 0.961 . S
C522 H524 0.961 . S
C522 H525 0.960 . S
H523 C522 0.961 . S
H524 C522 0.961 . S
H525 C522 0.960 . S
C526 N527 1.342 . S
C526 C530 1.401 . S
C526 C531 1.499 . S
N527 Co510 1.989 . S
N527 C526 1.342 . S
N527 N528 1.388 . S
N528 Co511 1.993 . S
N528 N527 1.388 . S
N528 C529 1.346 . S
C529 N528 1.346 . S
C529 C530 1.396 . S
C529 C539 1.510 . S
C530 C526 1.401 . S
C530 C529 1.396 . S
C531 C526 1.499 . S
C531 H532 0.959 . S
C531 H533 0.960 . S
C531 H534 0.961 . S
H532 C531 0.959 . S
H533 C531 0.960 . S
H534 C531 0.961 . S
O535 Co510 1.967 . S
O535 C543 1.258 . S
O536 Co511 1.941 . S
O536 C543 1.266 . S
H537 C539 0.959 . S
H538 C539 0.961 . S
C539 C529 1.510 . S
C539 H537 0.959 . S
C539 H538 0.961 . S
C539 H540 0.960 . S
H540 C539 0.960 . S
H541 N521 0.862 . S
O542 Co510 1.920 . S
O542 C515 1.289 1_455 S
C543 O535 1.258 . S
C543 O536 1.266 . S
Co544 O547 1.970 . S
Co544 N561 1.984 1_545 S
Co544 O569 1.967 . S
Co544 O576 1.920 . S
Co545 O548 1.966 . S
Co545 N554 2.022 . S
Co545 N562 1.993 . S
Co545 O570 1.941 . S
C546 O547 1.258 . S
C546 O548 1.263 . S
O547 Co544 1.970 . S
O547 C546 1.258 . S
O548 Co545 1.966 . S
O548 C546 1.263 . S
C549 O550 1.235 . S
C549 O576 1.289 . S
O550 C549 1.235 . S
C551 C553 1.400 . S
C551 N554 1.351 . S
C551 C556 1.501 . S
C552 C553 1.387 1_455 S
C552 N555 1.341 1_455 S
C553 C551 1.400 . S
C553 C552 1.387 1_655 S
N554 Co545 2.022 . S
N554 C551 1.351 . S
N554 N555 1.365 . S
N555 C552 1.341 1_655 S
N555 N554 1.365 . S
N555 H575 0.862 1_655 S
C556 C551 1.501 . S
C556 H557 0.961 . S
C556 H558 0.961 . S
C556 H559 0.960 . S
H557 C556 0.961 . S
H558 C556 0.961 . S
H559 C556 0.960 . S
C560 N561 1.348 . S
C560 C564 1.401 . S
C560 C565 1.499 . S
N561 Co544 1.984 1_565 S
N561 C560 1.348 . S
N561 N562 1.387 1_565 S
N562 Co545 1.993 . S
N562 N561 1.387 1_545 S
N562 C563 1.346 1_545 S
C563 N562 1.346 1_565 S
C563 C564 1.396 . S
C563 C573 1.510 . S
C564 C560 1.401 . S
C564 C563 1.396 . S
C565 C560 1.499 . S
C565 H566 0.959 . S
C565 H567 0.960 . S
C565 H568 0.961 . S
H566 C565 0.959 . S
H567 C565 0.960 . S
H568 C565 0.961 . S
O569 Co544 1.967 . S
O569 C577 1.258 . S
O570 Co545 1.941 . S
O570 C577 1.266 . S
H571 C573 0.959 . S
H572 C573 0.961 . S
C573 C563 1.510 . S
C573 H571 0.959 . S
C573 H572 0.961 . S
C573 H574 0.960 . S
H574 C573 0.960 . S
H575 N555 0.862 1_455 S
O576 Co544 1.920 . S
O576 C549 1.289 . S
C577 O569 1.258 . S
C577 O570 1.266 . S
Co578 O581 1.970 . S
Co578 N595 1.989 . S
Co578 O603 1.967 . S
Co578 O610 1.920 . S
Co579 O582 1.966 . S
Co579 N588 2.022 . S
Co579 N596 1.993 . S
Co579 O604 1.941 . S
C580 O581 1.258 . S
C580 O582 1.263 . S
O581 Co578 1.970 . S
O581 C580 1.258 . S
O582 Co579 1.966 . S
O582 C580 1.263 . S
C583 O584 1.235 . S
C583 O610 1.289 . S
O584 C583 1.235 . S
C585 C587 1.400 . S
C585 N588 1.351 . S
C585 C590 1.501 . S
C586 C587 1.387 . S
C586 N589 1.341 . S
C587 C585 1.400 . S
C587 C586 1.387 . S
N588 Co579 2.022 . S
N588 C585 1.351 . S
N588 N589 1.365 . S
N589 C586 1.341 . S
N589 N588 1.365 . S
N589 H609 0.862 . S
C590 C585 1.501 . S
C590 H591 0.961 . S
C590 H592 0.961 . S
C590 H593 0.960 . S
H591 C590 0.961 . S
H592 C590 0.961 . S
H593 C590 0.960 . S
C594 N595 1.342 . S
C594 C598 1.401 . S
C594 C599 1.499 . S
N595 Co578 1.989 . S
N595 C594 1.342 . S
N595 N596 1.388 . S
N596 Co579 1.993 . S
N596 N595 1.388 . S
N596 C597 1.346 . S
C597 N596 1.346 . S
C597 C598 1.396 . S
C597 C607 1.510 . S
C598 C594 1.401 . S
C598 C597 1.396 . S
C599 C594 1.499 . S
C599 H600 0.959 . S
C599 H601 0.960 . S
C599 H602 0.961 . S
H600 C599 0.959 . S
H601 C599 0.960 . S
H602 C599 0.961 . S
O603 Co578 1.967 . S
O603 C611 1.258 . S
O604 Co579 1.941 . S
O604 C611 1.266 . S
H605 C607 0.959 . S
H606 C607 0.961 . S
C607 C597 1.510 . S
C607 H605 0.959 . S
C607 H606 0.961 . S
C607 H608 0.960 . S
H608 C607 0.960 . S
H609 N589 0.862 . S
O610 Co578 1.920 . S
O610 C583 1.289 . S
C611 O603 1.258 . S
C611 O604 1.266 . S
Co612 O615 1.970 . S
Co612 N629 1.989 . S
Co612 O637 1.967 . S
Co612 O644 1.920 . S
Co613 O616 1.966 . S
Co613 N622 2.022 . S
Co613 N630 1.993 . S
Co613 O638 1.941 . S
C614 O615 1.258 . S
C614 O616 1.263 . S
O615 Co612 1.970 . S
O615 C614 1.258 . S
O616 Co613 1.966 . S
O616 C614 1.263 . S
C617 O618 1.235 . S
C617 O644 1.289 . S
O618 C617 1.235 . S
C619 C621 1.400 . S
C619 N622 1.351 . S
C619 C624 1.501 . S
C620 C621 1.387 1_455 S
C620 N623 1.341 1_455 S
C621 C619 1.400 . S
C621 C620 1.387 1_655 S
N622 Co613 2.022 . S
N622 C619 1.351 . S
N622 N623 1.365 . S
N623 C620 1.341 1_655 S
N623 N622 1.365 . S
N623 H643 0.862 1_655 S
C624 C619 1.501 . S
C624 H625 0.961 . S
C624 H626 0.961 . S
C624 H627 0.960 . S
H625 C624 0.961 . S
H626 C624 0.961 . S
H627 C624 0.960 . S
C628 N629 1.342 . S
C628 C632 1.401 . S
C628 C633 1.499 . S
N629 Co612 1.989 . S
N629 C628 1.342 . S
N629 N630 1.388 . S
N630 Co613 1.993 . S
N630 N629 1.388 . S
N630 C631 1.346 . S
C631 N630 1.346 . S
C631 C632 1.396 . S
C631 C641 1.510 . S
C632 C628 1.401 . S
C632 C631 1.396 . S
C633 C628 1.499 . S
C633 H634 0.959 . S
C633 H635 0.960 . S
C633 H636 0.961 . S
H634 C633 0.959 . S
H635 C633 0.960 . S
H636 C633 0.961 . S
O637 Co612 1.967 . S
O637 C645 1.258 . S
O638 Co613 1.941 . S
O638 C645 1.266 . S
H639 C641 0.959 . S
H640 C641 0.961 . S
C641 C631 1.510 . S
C641 H639 0.959 . S
C641 H640 0.961 . S
C641 H642 0.960 . S
H642 C641 0.960 . S
H643 N623 0.862 1_455 S
O644 Co612 1.920 . S
O644 C617 1.289 . S
C645 O637 1.258 . S
C645 O638 1.266 . S
Co646 O649 1.970 . S
Co646 N663 1.985 1_545 S
Co646 O671 1.967 . S
Co646 O678 1.920 . S
Co647 O650 1.966 . S
Co647 N656 2.022 . S
Co647 N664 1.993 . S
Co647 O672 1.941 . S
C648 O649 1.258 . S
C648 O650 1.263 . S
O649 Co646 1.970 . S
O649 C648 1.258 . S
O650 Co647 1.966 . S
O650 C648 1.263 . S
C651 O652 1.235 . S
C651 O678 1.289 . S
O652 C651 1.235 . S
C653 C655 1.400 . S
C653 N656 1.351 . S
C653 C658 1.501 . S
C654 C655 1.387 . S
C654 N657 1.341 . S
C655 C653 1.400 . S
C655 C654 1.387 . S
N656 Co647 2.022 . S
N656 C653 1.351 . S
N656 N657 1.365 . S
N657 C654 1.341 . S
N657 N656 1.365 . S
N657 H677 0.862 . S
C658 C653 1.501 . S
C658 H659 0.961 . S
C658 H660 0.961 . S
C658 H661 0.960 . S
H659 C658 0.961 . S
H660 C658 0.961 . S
H661 C658 0.960 . S
C662 N663 1.347 . S
C662 C666 1.401 . S
C662 C667 1.499 . S
N663 Co646 1.985 1_565 S
N663 C662 1.347 . S
N663 N664 1.387 1_565 S
N664 Co647 1.993 . S
N664 N663 1.387 1_545 S
N664 C665 1.346 1_545 S
C665 N664 1.346 1_565 S
C665 C666 1.396 . S
C665 C675 1.510 . S
C666 C662 1.401 . S
C666 C665 1.396 . S
C667 C662 1.499 . S
C667 H668 0.959 . S
C667 H669 0.960 . S
C667 H670 0.961 . S
H668 C667 0.959 . S
H669 C667 0.960 . S
H670 C667 0.961 . S
O671 Co646 1.967 . S
O671 C679 1.258 . S
O672 Co647 1.941 . S
O672 C679 1.266 . S
H673 C675 0.959 . S
H674 C675 0.961 . S
C675 C665 1.510 . S
C675 H673 0.959 . S
C675 H674 0.961 . S
C675 H676 0.960 . S
H676 C675 0.960 . S
H677 N657 0.862 . S
O678 Co646 1.920 . S
O678 C651 1.289 . S
C679 O671 1.258 . S
C679 O672 1.266 . S
Co680 O683 1.970 . S
Co680 N697 1.984 1_565 S
Co680 O705 1.967 . S
Co680 O712 1.920 . S
Co681 O684 1.966 . S
Co681 N690 2.022 . S
Co681 N698 1.993 . S
Co681 O706 1.941 . S
C682 O683 1.258 . S
C682 O684 1.263 . S
O683 Co680 1.970 . S
O683 C682 1.258 . S
O684 Co681 1.966 . S
O684 C682 1.263 . S
C685 O686 1.235 . S
C685 O712 1.289 . S
O686 C685 1.235 . S
C687 C689 1.400 . S
C687 N690 1.351 . S
C687 C692 1.501 . S
C688 C689 1.387 1_655 S
C688 N691 1.341 1_655 S
C689 C687 1.400 . S
C689 C688 1.387 1_455 S
N690 Co681 2.022 . S
N690 C687 1.351 . S
N690 N691 1.365 . S
N691 C688 1.341 1_455 S
N691 N690 1.365 . S
N691 H711 0.862 1_455 S
C692 C687 1.501 . S
C692 H693 0.961 . S
C692 H694 0.961 . S
C692 H695 0.960 . S
H693 C692 0.961 . S
H694 C692 0.961 . S
H695 C692 0.960 . S
C696 N697 1.348 . S
C696 C700 1.401 . S
C696 C701 1.499 . S
N697 Co680 1.984 1_545 S
N697 C696 1.348 . S
N697 N698 1.387 1_545 S
N698 Co681 1.993 . S
N698 N697 1.387 1_565 S
N698 C699 1.346 1_565 S
C699 N698 1.346 1_545 S
C699 C700 1.396 . S
C699 C709 1.510 . S
C700 C696 1.401 . S
C700 C699 1.396 . S
C701 C696 1.499 . S
C701 H702 0.959 . S
C701 H703 0.960 . S
C701 H704 0.961 . S
H702 C701 0.959 . S
H703 C701 0.960 . S
H704 C701 0.961 . S
O705 Co680 1.967 . S
O705 C713 1.258 . S
O706 Co681 1.941 . S
O706 C713 1.266 . S
H707 C709 0.959 . S
H708 C709 0.961 . S
C709 C699 1.510 . S
C709 H707 0.959 . S
C709 H708 0.961 . S
C709 H710 0.960 . S
H710 C709 0.960 . S
H711 N691 0.862 1_655 S
O712 Co680 1.920 . S
O712 C685 1.289 . S
C713 O705 1.258 . S
C713 O706 1.266 . S
Co714 O717 1.970 . S
Co714 N731 1.989 . S
Co714 O739 1.967 . S
Co714 O746 1.920 . S
Co715 O718 1.966 . S
Co715 N724 2.022 . S
Co715 N732 1.993 . S
Co715 O740 1.941 . S
C716 O717 1.258 . S
C716 O718 1.263 . S
O717 Co714 1.970 . S
O717 C716 1.258 . S
O718 Co715 1.966 . S
O718 C716 1.263 . S
C719 O720 1.235 . S
C719 O746 1.289 . S
O720 C719 1.235 . S
C721 C723 1.400 . S
C721 N724 1.351 . S
C721 C726 1.501 . S
C722 C723 1.387 . S
C722 N725 1.341 . S
C723 C721 1.400 . S
C723 C722 1.387 . S
N724 Co715 2.022 . S
N724 C721 1.351 . S
N724 N725 1.365 . S
N725 C722 1.341 . S
N725 N724 1.365 . S
N725 H745 0.862 . S
C726 C721 1.501 . S
C726 H727 0.961 . S
C726 H728 0.961 . S
C726 H729 0.960 . S
H727 C726 0.961 . S
H728 C726 0.961 . S
H729 C726 0.960 . S
C730 N731 1.342 . S
C730 C734 1.401 . S
C730 C735 1.499 . S
N731 Co714 1.989 . S
N731 C730 1.342 . S
N731 N732 1.388 . S
N732 Co715 1.993 . S
N732 N731 1.388 . S
N732 C733 1.346 . S
C733 N732 1.346 . S
C733 C734 1.396 . S
C733 C743 1.510 . S
C734 C730 1.401 . S
C734 C733 1.396 . S
C735 C730 1.499 . S
C735 H736 0.959 . S
C735 H737 0.960 . S
C735 H738 0.961 . S
H736 C735 0.959 . S
H737 C735 0.960 . S
H738 C735 0.961 . S
O739 Co714 1.967 . S
O739 C747 1.258 . S
O740 Co715 1.941 . S
O740 C747 1.266 . S
H741 C743 0.959 . S
H742 C743 0.961 . S
C743 C733 1.510 . S
C743 H741 0.959 . S
C743 H742 0.961 . S
C743 H744 0.960 . S
H744 C743 0.960 . S
H745 N725 0.862 . S
O746 Co714 1.920 . S
O746 C719 1.289 . S
C747 O739 1.258 . S
C747 O740 1.266 . S
Co748 O751 1.970 . S
Co748 N765 1.989 . S
Co748 O773 1.967 . S
Co748 O780 1.920 . S
Co749 O752 1.966 . S
Co749 N758 2.022 . S
Co749 N766 1.993 . S
Co749 O774 1.941 . S
C750 O751 1.258 . S
C750 O752 1.263 . S
O751 Co748 1.970 . S
O751 C750 1.258 . S
O752 Co749 1.966 . S
O752 C750 1.263 . S
C753 O754 1.235 . S
C753 O780 1.289 . S
O754 C753 1.235 . S
C755 C757 1.400 . S
C755 N758 1.351 . S
C755 C760 1.501 . S
C756 C757 1.387 1_655 S
C756 N759 1.341 1_655 S
C757 C755 1.400 . S
C757 C756 1.387 1_455 S
N758 Co749 2.022 . S
N758 C755 1.351 . S
N758 N759 1.365 . S
N759 C756 1.341 1_455 S
N759 N758 1.365 . S
N759 H779 0.862 1_455 S
C760 C755 1.501 . S
C760 H761 0.961 . S
C760 H762 0.961 . S
C760 H763 0.960 . S
H761 C760 0.961 . S
H762 C760 0.961 . S
H763 C760 0.960 . S
C764 N765 1.342 . S
C764 C768 1.401 . S
C764 C769 1.499 . S
N765 Co748 1.989 . S
N765 C764 1.342 . S
N765 N766 1.388 . S
N766 Co749 1.993 . S
N766 N765 1.388 . S
N766 C767 1.346 . S
C767 N766 1.346 . S
C767 C768 1.396 . S
C767 C777 1.510 . S
C768 C764 1.401 . S
C768 C767 1.396 . S
C769 C764 1.499 . S
C769 H770 0.959 . S
C769 H771 0.960 . S
C769 H772 0.961 . S
H770 C769 0.959 . S
H771 C769 0.960 . S
H772 C769 0.961 . S
O773 Co748 1.967 . S
O773 C781 1.258 . S
O774 Co749 1.941 . S
O774 C781 1.266 . S
H775 C777 0.959 . S
H776 C777 0.961 . S
C777 C767 1.510 . S
C777 H775 0.959 . S
C777 H776 0.961 . S
C777 H778 0.960 . S
H778 C777 0.960 . S
H779 N759 0.862 1_655 S
O780 Co748 1.920 . S
O780 C753 1.289 . S
C781 O773 1.258 . S
C781 O774 1.266 . S
Co782 O785 1.970 . S
Co782 N799 1.985 1_565 S
Co782 O807 1.967 . S
Co782 O814 1.920 . S
Co783 O786 1.966 . S
Co783 N792 2.022 . S
Co783 N800 1.993 . S
Co783 O808 1.941 . S
C784 O785 1.258 . S
C784 O786 1.263 . S
O785 Co782 1.970 . S
O785 C784 1.258 . S
O786 Co783 1.966 . S
O786 C784 1.263 . S
C787 O788 1.235 . S
C787 O814 1.289 . S
O788 C787 1.235 . S
C789 C791 1.400 . S
C789 N792 1.351 . S
C789 C794 1.501 . S
C790 C791 1.387 . S
C790 N793 1.341 . S
C791 C789 1.400 . S
C791 C790 1.387 . S
N792 Co783 2.022 . S
N792 C789 1.351 . S
N792 N793 1.365 . S
N793 C790 1.341 . S
N793 N792 1.365 . S
N793 H813 0.862 . S
C794 C789 1.501 . S
C794 H795 0.961 . S
C794 H796 0.961 . S
C794 H797 0.960 . S
H795 C794 0.961 . S
H796 C794 0.961 . S
H797 C794 0.960 . S
C798 N799 1.347 . S
C798 C802 1.401 . S
C798 C803 1.499 . S
N799 Co782 1.985 1_545 S
N799 C798 1.347 . S
N799 N800 1.387 1_545 S
N800 Co783 1.993 . S
N800 N799 1.387 1_565 S
N800 C801 1.346 1_565 S
C801 N800 1.346 1_545 S
C801 C802 1.396 . S
C801 C811 1.510 . S
C802 C798 1.401 . S
C802 C801 1.396 . S
C803 C798 1.499 . S
C803 H804 0.959 . S
C803 H805 0.960 . S
C803 H806 0.961 . S
H804 C803 0.959 . S
H805 C803 0.960 . S
H806 C803 0.961 . S
O807 Co782 1.967 . S
O807 C815 1.258 . S
O808 Co783 1.941 . S
O808 C815 1.266 . S
H809 C811 0.959 . S
H810 C811 0.961 . S
C811 C801 1.510 . S
C811 H809 0.959 . S
C811 H810 0.961 . S
C811 H812 0.960 . S
H812 C811 0.960 . S
H813 N793 0.862 . S
O814 Co782 1.920 . S
O814 C787 1.289 . S
C815 O807 1.258 . S
C815 O808 1.266 . S
Co816 O819 1.970 . S
Co816 N833 1.989 . S
Co816 O841 1.967 . S
Co816 O848 1.920 . S
Co817 O820 1.966 . S
Co817 N826 2.022 . S
Co817 N834 1.993 . S
Co817 O842 1.941 . S
C818 O819 1.258 . S
C818 O820 1.263 . S
O819 Co816 1.970 . S
O819 C818 1.258 . S
O820 Co817 1.966 . S
O820 C818 1.263 . S
C821 O822 1.235 . S
C821 O848 1.289 . S
O822 C821 1.235 . S
C823 C825 1.400 . S
C823 N826 1.351 . S
C823 C828 1.501 . S
C824 C825 1.387 1_455 S
C824 N827 1.341 1_455 S
C825 C823 1.400 . S
C825 C824 1.387 1_655 S
N826 Co817 2.022 . S
N826 C823 1.351 . S
N826 N827 1.365 . S
N827 C824 1.341 1_655 S
N827 N826 1.365 . S
N827 H847 0.862 1_655 S
C828 C823 1.501 . S
C828 H829 0.961 . S
C828 H830 0.961 . S
C828 H831 0.960 . S
H829 C828 0.961 . S
H830 C828 0.961 . S
H831 C828 0.960 . S
C832 N833 1.342 . S
C832 C836 1.401 . S
C832 C837 1.499 . S
N833 Co816 1.989 . S
N833 C832 1.342 . S
N833 N834 1.388 . S
N834 Co817 1.993 . S
N834 N833 1.388 . S
N834 C835 1.346 . S
C835 N834 1.346 . S
C835 C836 1.396 . S
C835 C845 1.510 . S
C836 C832 1.401 . S
C836 C835 1.396 . S
C837 C832 1.499 . S
C837 H838 0.959 . S
C837 H839 0.960 . S
C837 H840 0.961 . S
H838 C837 0.959 . S
H839 C837 0.960 . S
H840 C837 0.961 . S
O841 Co816 1.967 . S
O841 C849 1.258 . S
O842 Co817 1.941 . S
O842 C849 1.266 . S
H843 C845 0.959 . S
H844 C845 0.961 . S
C845 C835 1.510 . S
C845 H843 0.959 . S
C845 H844 0.961 . S
C845 H846 0.960 . S
H846 C845 0.960 . S
H847 N827 0.862 1_455 S
O848 Co816 1.920 . S
O848 C821 1.289 . S
C849 O841 1.258 . S
C849 O842 1.266 . S
Co850 O853 1.970 . S
Co850 N867 1.989 . S
Co850 O875 1.967 . S
Co850 O882 1.920 . S
Co851 O854 1.966 . S
Co851 N860 2.022 . S
Co851 N868 1.993 . S
Co851 O876 1.941 . S
C852 O853 1.258 . S
C852 O854 1.263 . S
O853 Co850 1.970 . S
O853 C852 1.258 . S
O854 Co851 1.966 . S
O854 C852 1.263 . S
C855 O856 1.235 . S
C855 O882 1.289 . S
O856 C855 1.235 . S
C857 C859 1.400 . S
C857 N860 1.351 . S
C857 C862 1.501 . S
C858 C859 1.387 . S
C858 N861 1.341 . S
C859 C857 1.400 . S
C859 C858 1.387 . S
N860 Co851 2.022 . S
N860 C857 1.351 . S
N860 N861 1.365 . S
N861 C858 1.341 . S
N861 N860 1.365 . S
N861 H881 0.862 . S
C862 C857 1.501 . S
C862 H863 0.961 . S
C862 H864 0.961 . S
C862 H865 0.960 . S
H863 C862 0.961 . S
H864 C862 0.961 . S
H865 C862 0.960 . S
C866 N867 1.342 . S
C866 C870 1.401 . S
C866 C871 1.499 . S
N867 Co850 1.989 . S
N867 C866 1.342 . S
N867 N868 1.388 . S
N868 Co851 1.993 . S
N868 N867 1.388 . S
N868 C869 1.346 . S
C869 N868 1.346 . S
C869 C870 1.396 . S
C869 C879 1.510 . S
C870 C866 1.401 . S
C870 C869 1.396 . S
C871 C866 1.499 . S
C871 H872 0.959 . S
C871 H873 0.960 . S
C871 H874 0.961 . S
H872 C871 0.959 . S
H873 C871 0.960 . S
H874 C871 0.961 . S
O875 Co850 1.967 . S
O875 C883 1.258 . S
O876 Co851 1.941 . S
O876 C883 1.266 . S
H877 C879 0.959 . S
H878 C879 0.961 . S
C879 C869 1.510 . S
C879 H877 0.959 . S
C879 H878 0.961 . S
C879 H880 0.960 . S
H880 C879 0.960 . S
H881 N861 0.862 . S
O882 Co850 1.920 . S
O882 C855 1.289 . S
C883 O875 1.258 . S
C883 O876 1.266 . S
Co884 O887 1.970 . S
Co884 N901 1.989 . S
Co884 O909 1.967 . S
Co884 O916 1.920 . S
Co885 O888 1.966 . S
Co885 N894 2.022 . S
Co885 N902 1.993 . S
Co885 O910 1.941 . S
C886 O887 1.258 . S
C886 O888 1.263 . S
O887 Co884 1.970 . S
O887 C886 1.258 . S
O888 Co885 1.966 . S
O888 C886 1.263 . S
C889 O890 1.235 . S
C889 O916 1.289 . S
O890 C889 1.235 . S
C891 C893 1.400 . S
C891 N894 1.351 . S
C891 C896 1.501 . S
C892 C893 1.387 1_455 S
C892 N895 1.341 1_455 S
C893 C891 1.400 . S
C893 C892 1.387 1_655 S
N894 Co885 2.022 . S
N894 C891 1.351 . S
N894 N895 1.365 . S
N895 C892 1.341 1_655 S
N895 N894 1.365 . S
N895 H915 0.862 1_655 S
C896 C891 1.501 . S
C896 H897 0.961 . S
C896 H898 0.961 . S
C896 H899 0.960 . S
H897 C896 0.961 . S
H898 C896 0.961 . S
H899 C896 0.960 . S
C900 N901 1.342 . S
C900 C904 1.401 . S
C900 C905 1.499 . S
N901 Co884 1.989 . S
N901 C900 1.342 . S
N901 N902 1.388 . S
N902 Co885 1.993 . S
N902 N901 1.388 . S
N902 C903 1.346 . S
C903 N902 1.346 . S
C903 C904 1.396 . S
C903 C913 1.510 . S
C904 C900 1.401 . S
C904 C903 1.396 . S
C905 C900 1.499 . S
C905 H906 0.959 . S
C905 H907 0.960 . S
C905 H908 0.961 . S
H906 C905 0.959 . S
H907 C905 0.960 . S
H908 C905 0.961 . S
O909 Co884 1.967 . S
O909 C917 1.258 . S
O910 Co885 1.941 . S
O910 C917 1.266 . S
H911 C913 0.959 . S
H912 C913 0.961 . S
C913 C903 1.510 . S
C913 H911 0.959 . S
C913 H912 0.961 . S
C913 H914 0.960 . S
H914 C913 0.960 . S
H915 N895 0.862 1_455 S
O916 Co884 1.920 . S
O916 C889 1.289 . S
C917 O909 1.258 . S
C917 O910 1.266 . S
Co918 O921 1.970 . S
Co918 N935 1.989 . S
Co918 O943 1.967 . S
Co918 O950 1.920 . S
Co919 O922 1.966 . S
Co919 N928 2.022 . S
Co919 N936 1.993 . S
Co919 O944 1.941 . S
C920 O921 1.258 . S
C920 O922 1.263 . S
O921 Co918 1.970 . S
O921 C920 1.258 . S
O922 Co919 1.966 . S
O922 C920 1.263 . S
C923 O924 1.235 . S
C923 O950 1.289 . S
O924 C923 1.235 . S
C925 C927 1.400 . S
C925 N928 1.351 . S
C925 C930 1.501 . S
C926 C927 1.387 . S
C926 N929 1.341 . S
C927 C925 1.400 . S
C927 C926 1.387 . S
N928 Co919 2.022 . S
N928 C925 1.351 . S
N928 N929 1.365 . S
N929 C926 1.341 . S
N929 N928 1.365 . S
N929 H949 0.862 . S
C930 C925 1.501 . S
C930 H931 0.961 . S
C930 H932 0.961 . S
C930 H933 0.960 . S
H931 C930 0.961 . S
H932 C930 0.961 . S
H933 C930 0.960 . S
C934 N935 1.342 . S
C934 C938 1.401 . S
C934 C939 1.499 . S
N935 Co918 1.989 . S
N935 C934 1.342 . S
N935 N936 1.388 . S
N936 Co919 1.993 . S
N936 N935 1.388 . S
N936 C937 1.346 . S
C937 N936 1.346 . S
C937 C938 1.396 . S
C937 C947 1.510 . S
C938 C934 1.401 . S
C938 C937 1.396 . S
C939 C934 1.499 . S
C939 H940 0.959 . S
C939 H941 0.960 . S
C939 H942 0.961 . S
H940 C939 0.959 . S
H941 C939 0.960 . S
H942 C939 0.961 . S
O943 Co918 1.967 . S
O943 C951 1.258 . S
O944 Co919 1.941 . S
O944 C951 1.266 . S
H945 C947 0.959 . S
H946 C947 0.961 . S
C947 C937 1.510 . S
C947 H945 0.959 . S
C947 H946 0.961 . S
C947 H948 0.960 . S
H948 C947 0.960 . S
H949 N929 0.862 . S
O950 Co918 1.920 . S
O950 C923 1.289 . S
C951 O943 1.258 . S
C951 O944 1.266 . S
Co952 O955 1.970 . S
Co952 N969 1.989 . S
Co952 O977 1.967 . S
Co952 O984 1.920 . S
Co953 O956 1.966 . S
Co953 N962 2.022 . S
Co953 N970 1.993 . S
Co953 O978 1.941 . S
C954 O955 1.258 . S
C954 O956 1.263 . S
O955 Co952 1.970 . S
O955 C954 1.258 . S
O956 Co953 1.966 . S
O956 C954 1.263 . S
C957 O958 1.235 . S
C957 O984 1.289 . S
O958 C957 1.235 . S
C959 C961 1.400 . S
C959 N962 1.351 . S
C959 C964 1.501 . S
C960 C961 1.387 1_655 S
C960 N963 1.341 1_655 S
C961 C959 1.400 . S
C961 C960 1.387 1_455 S
N962 Co953 2.022 . S
N962 C959 1.351 . S
N962 N963 1.365 . S
N963 C960 1.341 1_455 S
N963 N962 1.365 . S
N963 H983 0.862 1_455 S
C964 C959 1.501 . S
C964 H965 0.961 . S
C964 H966 0.961 . S
C964 H967 0.960 . S
H965 C964 0.961 . S
H966 C964 0.961 . S
H967 C964 0.960 . S
C968 N969 1.342 . S
C968 C972 1.401 . S
C968 C973 1.499 . S
N969 Co952 1.989 . S
N969 C968 1.342 . S
N969 N970 1.388 . S
N970 Co953 1.993 . S
N970 N969 1.388 . S
N970 C971 1.346 . S
C971 N970 1.346 . S
C971 C972 1.396 . S
C971 C981 1.510 . S
C972 C968 1.401 . S
C972 C971 1.396 . S
C973 C968 1.499 . S
C973 H974 0.959 . S
C973 H975 0.960 . S
C973 H976 0.961 . S
H974 C973 0.959 . S
H975 C973 0.960 . S
H976 C973 0.961 . S
O977 Co952 1.967 . S
O977 C985 1.258 . S
O978 Co953 1.941 . S
O978 C985 1.266 . S
H979 C981 0.959 . S
H980 C981 0.961 . S
C981 C971 1.510 . S
C981 H979 0.959 . S
C981 H980 0.961 . S
C981 H982 0.960 . S
H982 C981 0.960 . S
H983 N963 0.862 1_655 S
O984 Co952 1.920 . S
O984 C957 1.289 . S
C985 O977 1.258 . S
C985 O978 1.266 . S
Co986 O989 1.970 . S
Co986 N1003 1.989 . S
Co986 O1011 1.967 . S
Co986 O1018 1.920 . S
Co987 O990 1.966 . S
Co987 N996 2.022 . S
Co987 N1004 1.993 . S
Co987 O1012 1.941 . S
C988 O989 1.258 . S
C988 O990 1.263 . S
O989 Co986 1.970 . S
O989 C988 1.258 . S
O990 Co987 1.966 . S
O990 C988 1.263 . S
C991 O992 1.235 . S
C991 O1018 1.289 . S
O992 C991 1.235 . S
C993 C995 1.400 . S
C993 N996 1.351 . S
C993 C998 1.501 . S
C994 C995 1.387 . S
C994 N997 1.341 . S
C995 C993 1.400 . S
C995 C994 1.387 . S
N996 Co987 2.022 . S
N996 C993 1.351 . S
N996 N997 1.365 . S
N997 C994 1.341 . S
N997 N996 1.365 . S
N997 H1017 0.862 . S
C998 C993 1.501 . S
C998 H999 0.961 . S
C998 H1000 0.961 . S
C998 H1001 0.960 . S
H999 C998 0.961 . S
H1000 C998 0.961 . S
H1001 C998 0.960 . S
C1002 N1003 1.342 . S
C1002 C1006 1.401 . S
C1002 C1007 1.499 . S
N1003 Co986 1.989 . S
N1003 C1002 1.342 . S
N1003 N1004 1.388 . S
N1004 Co987 1.993 . S
N1004 N1003 1.388 . S
N1004 C1005 1.346 . S
C1005 N1004 1.346 . S
C1005 C1006 1.396 . S
C1005 C1015 1.510 . S
C1006 C1002 1.401 . S
C1006 C1005 1.396 . S
C1007 C1002 1.499 . S
C1007 H1008 0.959 . S
C1007 H1009 0.960 . S
C1007 H1010 0.961 . S
H1008 C1007 0.959 . S
H1009 C1007 0.960 . S
H1010 C1007 0.961 . S
O1011 Co986 1.967 . S
O1011 C1019 1.258 . S
O1012 Co987 1.941 . S
O1012 C1019 1.266 . S
H1013 C1015 0.959 . S
H1014 C1015 0.961 . S
C1015 C1005 1.510 . S
C1015 H1013 0.959 . S
C1015 H1014 0.961 . S
C1015 H1016 0.960 . S
H1016 C1015 0.960 . S
H1017 N997 0.862 . S
O1018 Co986 1.920 . S
O1018 C991 1.289 . S
C1019 O1011 1.258 . S
C1019 O1012 1.266 . S
Co1020 O1023 1.970 . S
Co1020 N1037 1.989 . S
Co1020 O1045 1.967 . S
Co1020 O1052 1.920 . S
Co1021 O1024 1.966 . S
Co1021 N1030 2.022 . S
Co1021 N1038 1.993 . S
Co1021 O1046 1.941 . S
C1022 O1023 1.258 . S
C1022 O1024 1.263 . S
O1023 Co1020 1.970 . S
O1023 C1022 1.258 . S
O1024 Co1021 1.966 . S
O1024 C1022 1.263 . S
C1025 O1026 1.235 . S
C1025 O1052 1.289 . S
O1026 C1025 1.235 . S
C1027 C1029 1.400 . S
C1027 N1030 1.351 . S
C1027 C1032 1.501 . S
C1028 C1029 1.387 1_655 S
C1028 N1031 1.341 1_655 S
C1029 C1027 1.400 . S
C1029 C1028 1.387 1_455 S
N1030 Co1021 2.022 . S
N1030 C1027 1.351 . S
N1030 N1031 1.365 . S
N1031 C1028 1.341 1_455 S
N1031 N1030 1.365 . S
N1031 H1051 0.862 1_455 S
C1032 C1027 1.501 . S
C1032 H1033 0.961 . S
C1032 H1034 0.961 . S
C1032 H1035 0.960 . S
H1033 C1032 0.961 . S
H1034 C1032 0.961 . S
H1035 C1032 0.960 . S
C1036 N1037 1.342 . S
C1036 C1040 1.401 . S
C1036 C1041 1.499 . S
N1037 Co1020 1.989 . S
N1037 C1036 1.342 . S
N1037 N1038 1.388 . S
N1038 Co1021 1.993 . S
N1038 N1037 1.388 . S
N1038 C1039 1.346 . S
C1039 N1038 1.346 . S
C1039 C1040 1.396 . S
C1039 C1049 1.510 . S
C1040 C1036 1.401 . S
C1040 C1039 1.396 . S
C1041 C1036 1.499 . S
C1041 H1042 0.959 . S
C1041 H1043 0.960 . S
C1041 H1044 0.961 . S
H1042 C1041 0.959 . S
H1043 C1041 0.960 . S
H1044 C1041 0.961 . S
O1045 Co1020 1.967 . S
O1045 C1053 1.258 . S
O1046 Co1021 1.941 . S
O1046 C1053 1.266 . S
H1047 C1049 0.959 . S
H1048 C1049 0.961 . S
C1049 C1039 1.510 . S
C1049 H1047 0.959 . S
C1049 H1048 0.961 . S
C1049 H1050 0.960 . S
H1050 C1049 0.960 . S
H1051 N1031 0.862 1_655 S
O1052 Co1020 1.920 . S
O1052 C1025 1.289 . S
C1053 O1045 1.258 . S
C1053 O1046 1.266 . S
Co1054 O1057 1.970 . S
Co1054 N1071 1.989 . S
Co1054 O1079 1.967 . S
Co1054 O1086 1.920 . S
Co1055 O1058 1.966 . S
Co1055 N1064 2.022 . S
Co1055 N1072 1.993 . S
Co1055 O1080 1.941 . S
C1056 O1057 1.258 . S
C1056 O1058 1.263 . S
O1057 Co1054 1.970 . S
O1057 C1056 1.258 . S
O1058 Co1055 1.966 . S
O1058 C1056 1.263 . S
C1059 O1060 1.235 . S
C1059 O1086 1.289 . S
O1060 C1059 1.235 . S
C1061 C1063 1.400 . S
C1061 N1064 1.351 . S
C1061 C1066 1.501 . S
C1062 C1063 1.387 . S
C1062 N1065 1.341 . S
C1063 C1061 1.400 . S
C1063 C1062 1.387 . S
N1064 Co1055 2.022 . S
N1064 C1061 1.351 . S
N1064 N1065 1.365 . S
N1065 C1062 1.341 . S
N1065 N1064 1.365 . S
N1065 H1085 0.862 . S
C1066 C1061 1.501 . S
C1066 H1067 0.961 . S
C1066 H1068 0.961 . S
C1066 H1069 0.960 . S
H1067 C1066 0.961 . S
H1068 C1066 0.961 . S
H1069 C1066 0.960 . S
C1070 N1071 1.342 . S
C1070 C1074 1.401 . S
C1070 C1075 1.499 . S
N1071 Co1054 1.989 . S
N1071 C1070 1.342 . S
N1071 N1072 1.388 . S
N1072 Co1055 1.993 . S
N1072 N1071 1.388 . S
N1072 C1073 1.346 . S
C1073 N1072 1.346 . S
C1073 C1074 1.396 . S
C1073 C1083 1.510 . S
C1074 C1070 1.401 . S
C1074 C1073 1.396 . S
C1075 C1070 1.499 . S
C1075 H1076 0.959 . S
C1075 H1077 0.960 . S
C1075 H1078 0.961 . S
H1076 C1075 0.959 . S
H1077 C1075 0.960 . S
H1078 C1075 0.961 . S
O1079 Co1054 1.967 . S
O1079 C1087 1.258 . S
O1080 Co1055 1.941 . S
O1080 C1087 1.266 . S
H1081 C1083 0.959 . S
H1082 C1083 0.961 . S
C1083 C1073 1.510 . S
C1083 H1081 0.959 . S
C1083 H1082 0.961 . S
C1083 H1084 0.960 . S
H1084 C1083 0.960 . S
H1085 N1065 0.862 . S
O1086 Co1054 1.920 . S
O1086 C1059 1.289 . S
C1087 O1079 1.258 . S
C1087 O1080 1.266 . S
H1088 C1094 0.930 . S
H1089 C1098 0.930 . S
H1090 C1103 0.929 . S
H1091 C1101 0.929 . S
H1092 C1096 0.925 . S
H1093 C1102 0.925 . S
C1094 H1088 0.930 . S
C1094 C1095 1.367 . S
C1094 C1102 1.378 . S
C1095 C1094 1.367 . S
C1095 C1103 1.433 1_545 S
C1096 H1092 0.925 . S
C1096 C1098 1.378 . S
C1096 C1100 1.350 . S
C1097 C1100 1.463 1_544 S
C1097 C1102 1.350 . S
C1097 N1105 1.427 1_545 S
C1098 H1089 0.930 . S
C1098 C1096 1.378 . S
C1098 C1099 1.367 . S
C1099 C1098 1.367 . S
C1099 C1101 1.433 1_565 S
C1100 C1096 1.350 . S
C1100 C1097 1.463 1_566 S
C1100 N1104 1.427 1_565 S
C1101 H1091 0.929 . S
C1101 C1099 1.433 1_545 S
C1101 N1104 1.384 . S
C1102 H1093 0.925 . S
C1102 C1094 1.378 . S
C1102 C1097 1.350 . S
C1103 H1090 0.929 . S
C1103 C1095 1.433 1_565 S
C1103 N1105 1.384 . S
N1104 C1100 1.427 1_545 S
N1104 C1101 1.384 . S
N1105 C1097 1.427 1_565 S
N1105 C1103 1.384 . S
H1106 C1112 0.930 . S
H1107 C1116 0.930 . S
H1108 C1121 0.929 . S
H1109 C1119 0.929 . S
H1110 C1114 0.929 . S
H1111 C1120 0.929 . S
C1112 H1106 0.930 . S
C1112 C1113 1.367 . S
C1112 C1120 1.378 . S
C1113 C1112 1.367 . S
C1113 C1121 1.433 . S
C1114 H1110 0.929 . S
C1114 C1116 1.378 . S
C1114 C1118 1.350 . S
C1115 C1118 1.463 1_556 S
C1115 C1120 1.350 . S
C1115 N1123 1.427 . S
C1116 H1107 0.930 . S
C1116 C1114 1.378 . S
C1116 C1117 1.367 . S
C1117 C1116 1.367 . S
C1117 C1119 1.433 . S
C1118 C1114 1.350 . S
C1118 C1115 1.463 1_554 S
C1118 N1122 1.427 . S
C1119 H1109 0.929 . S
C1119 C1117 1.433 . S
C1119 N1122 1.384 . S
C1120 H1111 0.929 . S
C1120 C1112 1.378 . S
C1120 C1115 1.350 . S
C1121 H1108 0.929 . S
C1121 C1113 1.433 . S
C1121 N1123 1.384 . S
N1122 C1118 1.427 . S
N1122 C1119 1.384 . S
N1123 C1115 1.427 . S
N1123 C1121 1.384 . S
H1124 C1130 0.930 . S
H1125 C1134 0.930 . S
H1126 C1139 0.929 . S
H1127 C1137 0.929 . S
H1128 C1132 0.929 . S
H1129 C1138 0.929 . S
C1130 H1124 0.930 . S
C1130 C1131 1.367 . S
C1130 C1138 1.378 . S
C1131 C1130 1.367 . S
C1131 C1139 1.433 . S
C1132 H1128 0.929 . S
C1132 C1134 1.378 . S
C1132 C1136 1.350 . S
C1133 C1136 1.463 . S
C1133 C1138 1.350 . S
C1133 N1141 1.427 . S
C1134 H1125 0.930 . S
C1134 C1132 1.378 . S
C1134 C1135 1.367 . S
C1135 C1134 1.367 . S
C1135 C1137 1.433 . S
C1136 C1132 1.350 . S
C1136 C1133 1.463 . S
C1136 N1140 1.427 . S
C1137 H1127 0.929 . S
C1137 C1135 1.433 . S
C1137 N1140 1.384 . S
C1138 H1129 0.929 . S
C1138 C1130 1.378 . S
C1138 C1133 1.350 . S
C1139 H1126 0.929 . S
C1139 C1131 1.433 . S
C1139 N1141 1.384 . S
N1140 C1136 1.427 . S
N1140 C1137 1.384 . S
N1141 C1133 1.427 . S
N1141 C1139 1.384 . S
H1142 C1148 0.930 . S
H1143 C1152 0.930 . S
H1144 C1157 0.929 . S
H1145 C1155 0.929 . S
H1146 C1150 0.929 . S
H1147 C1156 0.929 . S
C1148 H1142 0.930 . S
C1148 C1149 1.367 . S
C1148 C1156 1.378 1_565 S
C1149 C1148 1.367 . S
C1149 C1157 1.433 . S
C1150 H1146 0.929 . S
C1150 C1152 1.378 1_565 S
C1150 C1154 1.350 1_565 S
C1151 C1154 1.463 1_565 S
C1151 C1156 1.350 1_565 S
C1151 N1159 1.427 . S
C1152 H1143 0.930 . S
C1152 C1150 1.378 1_545 S
C1152 C1153 1.367 . S
C1153 C1152 1.367 . S
C1153 C1155 1.433 . S
C1154 C1150 1.350 1_545 S
C1154 C1151 1.463 1_545 S
C1154 N1158 1.427 . S
C1155 H1145 0.929 . S
C1155 C1153 1.433 . S
C1155 N1158 1.384 . S
C1156 H1147 0.929 . S
C1156 C1148 1.378 1_545 S
C1156 C1151 1.350 1_545 S
C1157 H1144 0.929 . S
C1157 C1149 1.433 . S
C1157 N1159 1.384 . S
N1158 C1154 1.427 . S
N1158 C1155 1.384 . S
N1159 C1151 1.427 . S
N1159 C1157 1.384 . S
H1160 C1166 0.930 . S
H1161 C1170 0.930 . S
H1162 C1175 0.929 . S
H1163 C1173 0.929 . S
H1164 C1168 0.929 . S
H1165 C1174 0.929 . S
C1166 H1160 0.930 . S
C1166 C1167 1.367 . S
C1166 C1174 1.378 . S
C1167 C1166 1.367 . S
C1167 C1175 1.433 . S
C1168 H1164 0.929 . S
C1168 C1170 1.378 . S
C1168 C1172 1.350 . S
C1169 C1172 1.463 1_556 S
C1169 C1174 1.350 . S
C1169 N1177 1.427 . S
C1170 H1161 0.930 . S
C1170 C1168 1.378 . S
C1170 C1171 1.367 . S
C1171 C1170 1.367 . S
C1171 C1173 1.433 . S
C1172 C1168 1.350 . S
C1172 C1169 1.463 1_554 S
C1172 N1176 1.427 . S
C1173 H1163 0.929 . S
C1173 C1171 1.433 . S
C1173 N1176 1.384 . S
C1174 H1165 0.929 . S
C1174 C1166 1.378 . S
C1174 C1169 1.350 . S
C1175 H1162 0.929 . S
C1175 C1167 1.433 . S
C1175 N1177 1.384 . S
N1176 C1172 1.427 . S
N1176 C1173 1.384 . S
N1177 C1169 1.427 . S
N1177 C1175 1.384 . S
H1178 C1184 0.930 . S
H1179 C1188 0.930 . S
H1180 C1193 0.929 . S
H1181 C1191 0.929 . S
H1182 C1186 0.929 . S
H1183 C1192 0.929 . S
C1184 H1178 0.930 . S
C1184 C1185 1.367 . S
C1184 C1192 1.378 . S
C1185 C1184 1.367 . S
C1185 C1193 1.433 . S
C1186 H1182 0.929 . S
C1186 C1188 1.378 . S
C1186 C1190 1.350 . S
C1187 C1190 1.463 . S
C1187 C1192 1.350 . S
C1187 N1195 1.427 . S
C1188 H1179 0.930 . S
C1188 C1186 1.378 . S
C1188 C1189 1.367 . S
C1189 C1188 1.367 . S
C1189 C1191 1.433 . S
C1190 C1186 1.350 . S
C1190 C1187 1.463 . S
C1190 N1194 1.427 . S
C1191 H1181 0.929 . S
C1191 C1189 1.433 . S
C1191 N1194 1.384 . S
C1192 H1183 0.929 . S
C1192 C1184 1.378 . S
C1192 C1187 1.350 . S
C1193 H1180 0.929 . S
C1193 C1185 1.433 . S
C1193 N1195 1.384 . S
N1194 C1190 1.427 . S
N1194 C1191 1.384 . S
N1195 C1187 1.427 . S
N1195 C1193 1.384 . S
H1196 C1202 0.930 . S
H1197 C1206 0.930 . S
H1198 C1211 0.929 . S
H1199 C1209 0.929 . S
H1200 C1204 0.929 . S
H1201 C1210 0.929 . S
C1202 H1196 0.930 . S
C1202 C1203 1.367 . S
C1202 C1210 1.378 1_565 S
C1203 C1202 1.367 . S
C1203 C1211 1.433 . S
C1204 H1200 0.929 . S
C1204 C1206 1.378 1_565 S
C1204 C1208 1.350 1_565 S
C1205 C1208 1.463 1_565 S
C1205 C1210 1.350 1_565 S
C1205 N1213 1.427 . S
C1206 H1197 0.930 . S
C1206 C1204 1.378 1_545 S
C1206 C1207 1.367 . S
C1207 C1206 1.367 . S
C1207 C1209 1.433 . S
C1208 C1204 1.350 1_545 S
C1208 C1205 1.463 1_545 S
C1208 N1212 1.427 . S
C1209 H1199 0.929 . S
C1209 C1207 1.433 . S
C1209 N1212 1.384 . S
C1210 H1201 0.929 . S
C1210 C1202 1.378 1_545 S
C1210 C1205 1.350 1_545 S
C1211 H1198 0.929 . S
C1211 C1203 1.433 . S
C1211 N1213 1.384 . S
N1212 C1208 1.427 . S
N1212 C1209 1.384 . S
N1213 C1205 1.427 . S
N1213 C1211 1.384 . S
H1214 C1220 0.930 . S
H1215 C1224 0.930 . S
H1216 C1229 0.929 . S
H1217 C1227 0.929 . S
H1218 C1222 0.929 . S
H1219 C1228 0.929 . S
C1220 H1214 0.930 . S
C1220 C1221 1.367 . S
C1220 C1228 1.378 . S
C1221 C1220 1.367 . S
C1221 C1229 1.433 . S
C1222 H1218 0.929 . S
C1222 C1224 1.378 . S
C1222 C1226 1.350 . S
C1223 C1226 1.463 . S
C1223 C1228 1.350 . S
C1223 N1231 1.427 . S
C1224 H1215 0.930 . S
C1224 C1222 1.378 . S
C1224 C1225 1.367 . S
C1225 C1224 1.367 . S
C1225 C1227 1.433 . S
C1226 C1222 1.350 . S
C1226 C1223 1.463 . S
C1226 N1230 1.427 . S
C1227 H1217 0.929 . S
C1227 C1225 1.433 . S
C1227 N1230 1.384 . S
C1228 H1219 0.929 . S
C1228 C1220 1.378 . S
C1228 C1223 1.350 . S
C1229 H1216 0.929 . S
C1229 C1221 1.433 . S
C1229 N1231 1.384 . S
N1230 C1226 1.427 . S
N1230 C1227 1.384 . S
N1231 C1223 1.427 . S
N1231 C1229 1.384 . S
H1232 C1238 0.930 . S
H1233 C1242 0.930 . S
H1234 C1247 0.929 . S
H1235 C1245 0.929 . S
H1236 C1240 0.929 . S
H1237 C1246 0.929 . S
C1238 H1232 0.930 . S
C1238 C1239 1.367 . S
C1238 C1246 1.378 . S
C1239 C1238 1.367 . S
C1239 C1247 1.433 . S
C1240 H1236 0.929 . S
C1240 C1242 1.378 . S
C1240 C1244 1.350 . S
C1241 C1244 1.463 . S
C1241 C1246 1.350 . S
C1241 N1249 1.427 . S
C1242 H1233 0.930 . S
C1242 C1240 1.378 . S
C1242 C1243 1.367 . S
C1243 C1242 1.367 . S
C1243 C1245 1.433 . S
C1244 C1240 1.350 . S
C1244 C1241 1.463 . S
C1244 N1248 1.427 . S
C1245 H1235 0.929 . S
C1245 C1243 1.433 . S
C1245 N1248 1.384 . S
C1246 H1237 0.929 . S
C1246 C1238 1.378 . S
C1246 C1241 1.350 . S
C1247 H1234 0.929 . S
C1247 C1239 1.433 . S
C1247 N1249 1.384 . S
N1248 C1244 1.427 . S
N1248 C1245 1.384 . S
N1249 C1241 1.427 . S
N1249 C1247 1.384 . S
H1250 C1256 0.930 . S
H1251 C1260 0.930 . S
H1252 C1265 0.929 . S
H1253 C1263 0.929 . S
H1254 C1258 0.929 . S
H1255 C1264 0.929 . S
C1256 H1250 0.930 . S
C1256 C1257 1.367 . S
C1256 C1264 1.378 . S
C1257 C1256 1.367 . S
C1257 C1265 1.433 . S
C1258 H1254 0.929 . S
C1258 C1260 1.378 . S
C1258 C1262 1.350 . S
C1259 C1262 1.463 . S
C1259 C1264 1.350 . S
C1259 N1267 1.427 . S
C1260 H1251 0.930 . S
C1260 C1258 1.378 . S
C1260 C1261 1.367 . S
C1261 C1260 1.367 . S
C1261 C1263 1.433 . S
C1262 C1258 1.350 . S
C1262 C1259 1.463 . S
C1262 N1266 1.427 . S
C1263 H1253 0.929 . S
C1263 C1261 1.433 . S
C1263 N1266 1.384 . S
C1264 H1255 0.929 . S
C1264 C1256 1.378 . S
C1264 C1259 1.350 . S
C1265 H1252 0.929 . S
C1265 C1257 1.433 . S
C1265 N1267 1.384 . S
N1266 C1262 1.427 . S
N1266 C1263 1.384 . S
N1267 C1259 1.427 . S
N1267 C1265 1.384 . S
H1268 C1274 0.930 . S
H1269 C1278 0.930 . S
H1270 C1283 0.929 . S
H1271 C1281 0.929 . S
H1272 C1276 0.929 . S
H1273 C1282 0.929 . S
C1274 H1268 0.930 . S
C1274 C1275 1.367 . S
C1274 C1282 1.378 . S
C1275 C1274 1.367 . S
C1275 C1283 1.433 . S
C1276 H1272 0.929 . S
C1276 C1278 1.378 . S
C1276 C1280 1.350 . S
C1277 C1280 1.463 . S
C1277 C1282 1.350 . S
C1277 N1285 1.427 . S
C1278 H1269 0.930 . S
C1278 C1276 1.378 . S
C1278 C1279 1.367 . S
C1279 C1278 1.367 . S
C1279 C1281 1.433 . S
C1280 C1276 1.350 . S
C1280 C1277 1.463 . S
C1280 N1284 1.427 . S
C1281 H1271 0.929 . S
C1281 C1279 1.433 . S
C1281 N1284 1.384 . S
C1282 H1273 0.929 . S
C1282 C1274 1.378 . S
C1282 C1277 1.350 . S
C1283 H1270 0.929 . S
C1283 C1275 1.433 . S
C1283 N1285 1.384 . S
N1284 C1280 1.427 . S
N1284 C1281 1.384 . S
N1285 C1277 1.427 . S
N1285 C1283 1.384 . S
H1286 C1292 0.930 . S
H1287 C1296 0.930 . S
H1288 C1301 0.929 . S
H1289 C1299 0.929 . S
H1290 C1294 0.929 . S
H1291 C1300 0.929 . S
C1292 H1286 0.930 . S
C1292 C1293 1.367 . S
C1292 C1300 1.378 . S
C1293 C1292 1.367 . S
C1293 C1301 1.433 . S
C1294 H1290 0.929 . S
C1294 C1296 1.378 . S
C1294 C1298 1.350 . S
C1295 C1298 1.463 . S
C1295 C1300 1.350 . S
C1295 N1303 1.427 . S
C1296 H1287 0.930 . S
C1296 C1294 1.378 . S
C1296 C1297 1.367 . S
C1297 C1296 1.367 . S
C1297 C1299 1.433 . S
C1298 C1294 1.350 . S
C1298 C1295 1.463 . S
C1298 N1302 1.427 . S
C1299 H1289 0.929 . S
C1299 C1297 1.433 . S
C1299 N1302 1.384 . S
C1300 H1291 0.929 . S
C1300 C1292 1.378 . S
C1300 C1295 1.350 . S
C1301 H1288 0.929 . S
C1301 C1293 1.433 . S
C1301 N1303 1.384 . S
N1302 C1298 1.427 . S
N1302 C1299 1.384 . S
N1303 C1295 1.427 . S
N1303 C1301 1.384 . S
H1304 C1310 0.930 . S
H1305 C1314 0.930 . S
H1306 C1319 0.929 1_545 S
H1307 C1317 0.929 1_565 S
H1308 C1312 0.929 . S
H1309 C1318 0.929 . S
C1310 H1304 0.930 . S
C1310 C1311 1.367 . S
C1310 C1318 1.378 . S
C1311 C1310 1.367 . S
C1311 C1319 1.433 1_455 S
C1312 H1308 0.929 . S
C1312 C1314 1.378 . S
C1312 C1316 1.350 . S
C1313 C1316 1.463 1_465 S
C1313 C1318 1.350 . S
C1313 N1321 1.427 1_465 S
C1314 H1305 0.930 . S
C1314 C1312 1.378 . S
C1314 C1315 1.367 . S
C1315 C1314 1.367 . S
C1315 C1317 1.433 1_655 S
C1316 C1312 1.350 . S
C1316 C1313 1.463 1_645 S
C1316 N1320 1.427 1_645 S
C1317 H1307 0.929 1_545 S
C1317 C1315 1.433 1_455 S
C1317 N1320 1.384 1_545 S
C1318 H1309 0.929 . S
C1318 C1310 1.378 . S
C1318 C1313 1.350 . S
C1319 H1306 0.929 1_565 S
C1319 C1311 1.433 1_655 S
C1319 N1321 1.384 1_565 S
N1320 C1316 1.427 1_465 S
N1320 C1317 1.384 1_565 S
N1321 C1313 1.427 1_645 S
N1321 C1319 1.384 1_545 S
H1322 C1328 0.930 . S
H1323 C1332 0.930 . S
H1324 C1337 0.929 . S
H1325 C1335 0.929 . S
H1326 C1330 0.929 . S
H1327 C1336 0.929 . S
C1328 H1322 0.930 . S
C1328 C1329 1.367 . S
C1328 C1336 1.378 . S
C1329 C1328 1.367 . S
C1329 C1337 1.433 . S
C1330 H1326 0.929 . S
C1330 C1332 1.378 . S
C1330 C1334 1.350 . S
C1331 C1334 1.463 1_655 S
C1331 C1336 1.350 . S
C1331 N1339 1.427 1_655 S
C1332 H1323 0.930 . S
C1332 C1330 1.378 . S
C1332 C1333 1.367 . S
C1333 C1332 1.367 . S
C1333 C1335 1.433 . S
C1334 C1330 1.350 . S
C1334 C1331 1.463 1_455 S
C1334 N1338 1.427 1_455 S
C1335 H1325 0.929 . S
C1335 C1333 1.433 . S
C1335 N1338 1.384 1_455 S
C1336 H1327 0.929 . S
C1336 C1328 1.378 . S
C1336 C1331 1.350 . S
C1337 H1324 0.929 . S
C1337 C1329 1.433 . S
C1337 N1339 1.384 1_655 S
N1338 C1334 1.427 1_655 S
N1338 C1335 1.384 1_655 S
N1339 C1331 1.427 1_455 S
N1339 C1337 1.384 1_455 S
H1340 C1346 0.930 . S
H1341 C1350 0.930 . S
H1342 C1355 0.929 . S
H1343 C1353 0.929 . S
H1344 C1348 0.929 . S
H1345 C1354 0.929 . S
C1346 H1340 0.930 . S
C1346 C1347 1.367 1_655 S
C1346 C1354 1.378 . S
C1347 C1346 1.367 1_455 S
C1347 C1355 1.433 . S
C1348 H1344 0.929 . S
C1348 C1350 1.378 . S
C1348 C1352 1.350 1_455 S
C1349 C1352 1.463 1_455 S
C1349 C1354 1.350 1_455 S
C1349 N1357 1.427 . S
C1350 H1341 0.930 . S
C1350 C1348 1.378 . S
C1350 C1351 1.367 1_455 S
C1351 C1350 1.367 1_655 S
C1351 C1353 1.433 . S
C1352 C1348 1.350 1_655 S
C1352 C1349 1.463 1_655 S
C1352 N1356 1.427 . S
C1353 H1343 0.929 . S
C1353 C1351 1.433 . S
C1353 N1356 1.384 . S
C1354 H1345 0.929 . S
C1354 C1346 1.378 . S
C1354 C1349 1.350 1_655 S
C1355 H1342 0.929 . S
C1355 C1347 1.433 . S
C1355 N1357 1.384 . S
N1356 C1352 1.427 . S
N1356 C1353 1.384 . S
N1357 C1349 1.427 . S
N1357 C1355 1.384 . S
H1358 C1364 0.930 . S
H1359 C1368 0.930 . S
H1360 C1373 0.929 . S
H1361 C1371 0.929 . S
H1362 C1366 0.929 . S
H1363 C1372 0.929 . S
C1364 H1358 0.930 . S
C1364 C1365 1.367 1_455 S
C1364 C1372 1.378 . S
C1365 C1364 1.367 1_655 S
C1365 C1373 1.433 . S
C1366 H1362 0.929 . S
C1366 C1368 1.378 . S
C1366 C1370 1.350 1_655 S
C1367 C1370 1.463 1_654 S
C1367 C1372 1.350 1_655 S
C1367 N1375 1.427 . S
C1368 H1359 0.930 . S
C1368 C1366 1.378 . S
C1368 C1369 1.367 1_655 S
C1369 C1368 1.367 1_455 S
C1369 C1371 1.433 . S
C1370 C1366 1.350 1_455 S
C1370 C1367 1.463 1_456 S
C1370 N1374 1.427 . S
C1371 H1361 0.929 . S
C1371 C1369 1.433 . S
C1371 N1374 1.384 . S
C1372 H1363 0.929 . S
C1372 C1364 1.378 . S
C1372 C1367 1.350 1_455 S
C1373 H1360 0.929 . S
C1373 C1365 1.433 . S
C1373 N1375 1.384 . S
N1374 C1370 1.427 . S
N1374 C1371 1.384 . S
N1375 C1367 1.427 . S
N1375 C1373 1.384 . S
H1376 C1382 0.930 . S
H1377 C1386 0.930 . S
H1378 C1391 0.929 . S
H1379 C1389 0.929 . S
H1380 C1384 0.929 . S
H1381 C1390 0.929 . S
C1382 H1376 0.930 . S
C1382 C1383 1.367 1_565 S
C1382 C1390 1.378 . S
C1383 C1382 1.367 1_545 S
C1383 C1391 1.433 . S
C1384 H1380 0.929 . S
C1384 C1386 1.378 . S
C1384 C1388 1.350 . S
C1385 C1388 1.463 . S
C1385 C1390 1.350 1_545 S
C1385 N1393 1.427 . S
C1386 H1377 0.930 . S
C1386 C1384 1.378 . S
C1386 C1387 1.367 . S
C1387 C1386 1.367 . S
C1387 C1389 1.433 1_545 S
C1388 C1384 1.350 . S
C1388 C1385 1.463 . S
C1388 N1392 1.427 1_545 S
C1389 H1379 0.929 . S
C1389 C1387 1.433 1_565 S
C1389 N1392 1.384 . S
C1390 H1381 0.929 . S
C1390 C1382 1.378 . S
C1390 C1385 1.350 1_565 S
C1391 H1378 0.929 . S
C1391 C1383 1.433 . S
C1391 N1393 1.384 . S
N1392 C1388 1.427 1_565 S
N1392 C1389 1.384 . S
N1393 C1385 1.427 . S
N1393 C1391 1.384 . S
H1394 C1400 0.930 . S
H1395 C1404 0.930 . S
H1396 C1409 0.929 . S
H1397 C1407 0.929 1_655 S
H1398 C1402 0.929 . S
H1399 C1408 0.929 . S
C1400 H1394 0.930 . S
C1400 C1401 1.367 . S
C1400 C1408 1.378 . S
C1401 C1400 1.367 . S
C1401 C1409 1.433 . S
C1402 H1398 0.929 . S
C1402 C1404 1.378 . S
C1402 C1406 1.350 . S
C1403 C1406 1.463 . S
C1403 C1408 1.350 . S
C1403 N1411 1.427 . S
C1404 H1395 0.930 . S
C1404 C1402 1.378 . S
C1404 C1405 1.367 . S
C1405 C1404 1.367 . S
C1405 C1407 1.433 . S
C1406 C1402 1.350 . S
C1406 C1403 1.463 . S
C1406 N1410 1.427 . S
C1407 H1397 0.929 1_455 S
C1407 C1405 1.433 . S
C1407 N1410 1.384 . S
C1408 H1399 0.929 . S
C1408 C1400 1.378 . S
C1408 C1403 1.350 . S
C1409 H1396 0.929 . S
C1409 C1401 1.433 . S
C1409 N1411 1.384 . S
N1410 C1406 1.427 . S
N1410 C1407 1.384 . S
N1411 C1403 1.427 . S
N1411 C1409 1.384 . S
H1412 C1418 0.930 1_455 S
H1413 C1422 0.930 . S
H1414 C1427 0.929 . S
H1415 C1425 0.929 . S
H1416 C1420 0.929 . S
H1417 C1426 0.929 . S
C1418 H1412 0.930 1_655 S
C1418 C1419 1.367 . S
C1418 C1426 1.378 . S
C1419 C1418 1.367 . S
C1419 C1427 1.433 1_565 S
C1420 H1416 0.929 . S
C1420 C1422 1.378 . S
C1420 C1424 1.350 1_545 S
C1421 C1424 1.463 . S
C1421 C1426 1.350 . S
C1421 N1429 1.427 1_565 S
C1422 H1413 0.930 . S
C1422 C1420 1.378 . S
C1422 C1423 1.367 1_545 S
C1423 C1422 1.367 1_565 S
C1423 C1425 1.433 . S
C1424 C1420 1.350 1_565 S
C1424 C1421 1.463 . S
C1424 N1428 1.427 . S
C1425 H1415 0.929 . S
C1425 C1423 1.433 . S
C1425 N1428 1.384 . S
C1426 H1417 0.929 . S
C1426 C1418 1.378 . S
C1426 C1421 1.350 . S
C1427 H1414 0.929 . S
C1427 C1419 1.433 1_545 S
C1427 N1429 1.384 . S
N1428 C1424 1.427 . S
N1428 C1425 1.384 . S
N1429 C1421 1.427 1_545 S
N1429 C1427 1.384 . S
H1430 C1436 0.930 . S
H1431 C1440 0.930 . S
H1432 C1445 0.929 1_455 S
H1433 C1443 0.929 . S
H1434 C1438 0.929 . S
H1435 C1444 0.929 . S
C1436 H1430 0.930 . S
C1436 C1437 1.367 . S
C1436 C1444 1.378 . S
C1437 C1436 1.367 . S
C1437 C1445 1.433 . S
C1438 H1434 0.929 . S
C1438 C1440 1.378 . S
C1438 C1442 1.350 . S
C1439 C1442 1.463 . S
C1439 C1444 1.350 . S
C1439 N1447 1.427 . S
C1440 H1431 0.930 . S
C1440 C1438 1.378 . S
C1440 C1441 1.367 . S
C1441 C1440 1.367 . S
C1441 C1443 1.433 . S
C1442 C1438 1.350 . S
C1442 C1439 1.463 . S
C1442 N1446 1.427 . S
C1443 H1433 0.929 . S
C1443 C1441 1.433 . S
C1443 N1446 1.384 . S
C1444 H1435 0.929 . S
C1444 C1436 1.378 . S
C1444 C1439 1.350 . S
C1445 H1432 0.929 1_655 S
C1445 C1437 1.433 . S
C1445 N1447 1.384 . S
N1446 C1442 1.427 . S
N1446 C1443 1.384 . S
N1447 C1439 1.427 . S
N1447 C1445 1.384 . S
H1448 C1454 0.930 1_655 S
H1449 C1458 0.930 . S
H1450 C1463 0.929 . S
H1451 C1461 0.929 . S
H1452 C1456 0.929 . S
H1453 C1462 0.929 . S
C1454 H1448 0.930 1_455 S
C1454 C1455 1.367 . S
C1454 C1462 1.378 . S
C1455 C1454 1.367 . S
C1455 C1463 1.433 . S
C1456 H1452 0.929 . S
C1456 C1458 1.378 . S
C1456 C1460 1.350 . S
C1457 C1460 1.463 . S
C1457 C1462 1.350 . S
C1457 N1465 1.427 . S
C1458 H1449 0.930 . S
C1458 C1456 1.378 . S
C1458 C1459 1.367 . S
C1459 C1458 1.367 . S
C1459 C1461 1.433 . S
C1460 C1456 1.350 . S
C1460 C1457 1.463 . S
C1460 N1464 1.427 . S
C1461 H1451 0.929 . S
C1461 C1459 1.433 . S
C1461 N1464 1.384 . S
C1462 H1453 0.929 . S
C1462 C1454 1.378 . S
C1462 C1457 1.350 . S
C1463 H1450 0.929 . S
C1463 C1455 1.433 . S
C1463 N1465 1.384 . S
N1464 C1460 1.427 . S
N1464 C1461 1.384 . S
N1465 C1457 1.427 . S
N1465 C1463 1.384 . S
H1466 C1472 0.930 . S
H1467 C1476 0.930 . S
H1468 C1481 0.929 . S
H1469 C1479 0.929 . S
H1470 C1474 0.929 . S
H1471 C1480 0.929 . S
C1472 H1466 0.930 . S
C1472 C1473 1.367 . S
C1472 C1480 1.378 . S
C1473 C1472 1.367 . S
C1473 C1481 1.433 . S
C1474 H1470 0.929 . S
C1474 C1476 1.378 . S
C1474 C1478 1.350 . S
C1475 C1478 1.463 . S
C1475 C1480 1.350 . S
C1475 N1483 1.427 . S
C1476 H1467 0.930 . S
C1476 C1474 1.378 . S
C1476 C1477 1.367 . S
C1477 C1476 1.367 . S
C1477 C1479 1.433 . S
C1478 C1474 1.350 . S
C1478 C1475 1.463 . S
C1478 N1482 1.427 . S
C1479 H1469 0.929 . S
C1479 C1477 1.433 . S
C1479 N1482 1.384 . S
C1480 H1471 0.929 . S
C1480 C1472 1.378 . S
C1480 C1475 1.350 . S
C1481 H1468 0.929 . S
C1481 C1473 1.433 . S
C1481 N1483 1.384 . S
N1482 C1478 1.427 . S
N1482 C1479 1.384 . S
N1483 C1475 1.427 . S
N1483 C1481 1.384 . S
H1484 C1490 0.930 . S
H1485 C1494 0.930 . S
H1486 C1499 0.929 . S
H1487 C1497 0.929 . S
H1488 C1492 0.929 . S
H1489 C1498 0.929 . S
C1490 H1484 0.930 . S
C1490 C1491 1.367 . S
C1490 C1498 1.378 . S
C1491 C1490 1.367 . S
C1491 C1499 1.433 . S
C1492 H1488 0.929 . S
C1492 C1494 1.378 . S
C1492 C1496 1.350 . S
C1493 C1496 1.463 . S
C1493 C1498 1.350 . S
C1493 N1501 1.427 . S
C1494 H1485 0.930 . S
C1494 C1492 1.378 . S
C1494 C1495 1.367 . S
C1495 C1494 1.367 . S
C1495 C1497 1.433 . S
C1496 C1492 1.350 . S
C1496 C1493 1.463 . S
C1496 N1500 1.427 . S
C1497 H1487 0.929 . S
C1497 C1495 1.433 . S
C1497 N1500 1.384 . S
C1498 H1489 0.929 . S
C1498 C1490 1.378 . S
C1498 C1493 1.350 . S
C1499 H1486 0.929 . S
C1499 C1491 1.433 . S
C1499 N1501 1.384 . S
N1500 C1496 1.427 . S
N1500 C1497 1.384 . S
N1501 C1493 1.427 . S
N1501 C1499 1.384 . S
H1502 C1508 0.930 . S
H1503 C1512 0.930 1_455 S
H1504 C1517 0.929 . S
H1505 C1515 0.929 . S
H1506 C1510 0.929 . S
H1507 C1516 0.929 . S
C1508 H1502 0.930 . S
C1508 C1509 1.367 . S
C1508 C1516 1.378 . S
C1509 C1508 1.367 . S
C1509 C1517 1.433 . S
C1510 H1506 0.929 . S
C1510 C1512 1.378 . S
C1510 C1514 1.350 . S
C1511 C1514 1.463 . S
C1511 C1516 1.350 . S
C1511 N1519 1.427 . S
C1512 H1503 0.930 1_655 S
C1512 C1510 1.378 . S
C1512 C1513 1.367 . S
C1513 C1512 1.367 . S
C1513 C1515 1.433 . S
C1514 C1510 1.350 . S
C1514 C1511 1.463 . S
C1514 N1518 1.427 . S
C1515 H1505 0.929 . S
C1515 C1513 1.433 . S
C1515 N1518 1.384 . S
C1516 H1507 0.929 . S
C1516 C1508 1.378 . S
C1516 C1511 1.350 . S
C1517 H1504 0.929 . S
C1517 C1509 1.433 . S
C1517 N1519 1.384 . S
N1518 C1514 1.427 . S
N1518 C1515 1.384 . S
N1519 C1511 1.427 . S
N1519 C1517 1.384 . S
H1520 C1526 0.930 . S
H1521 C1530 0.930 . S
H1522 C1535 0.929 . S
H1523 C1533 0.929 . S
H1524 C1528 0.929 . S
H1525 C1534 0.929 . S
C1526 H1520 0.930 . S
C1526 C1527 1.367 1_565 S
C1526 C1534 1.378 . S
C1527 C1526 1.367 1_545 S
C1527 C1535 1.433 . S
C1528 H1524 0.929 . S
C1528 C1530 1.378 . S
C1528 C1532 1.350 . S
C1529 C1532 1.463 . S
C1529 C1534 1.350 1_545 S
C1529 N1537 1.427 . S
C1530 H1521 0.930 . S
C1530 C1528 1.378 . S
C1530 C1531 1.367 . S
C1531 C1530 1.367 . S
C1531 C1533 1.433 1_545 S
C1532 C1528 1.350 . S
C1532 C1529 1.463 . S
C1532 N1536 1.427 1_545 S
C1533 H1523 0.929 . S
C1533 C1531 1.433 1_565 S
C1533 N1536 1.384 . S
C1534 H1525 0.929 . S
C1534 C1526 1.378 . S
C1534 C1529 1.350 1_565 S
C1535 H1522 0.929 . S
C1535 C1527 1.433 . S
C1535 N1537 1.384 . S
N1536 C1532 1.427 1_565 S
N1536 C1533 1.384 . S
N1537 C1529 1.427 . S
N1537 C1535 1.384 . S
H1538 C1544 0.930 . S
H1539 C1548 0.930 . S
H1540 C1553 0.929 . S
H1541 C1551 0.929 . S
H1542 C1546 0.929 . S
H1543 C1552 0.929 . S
C1544 H1538 0.930 . S
C1544 C1545 1.367 . S
C1544 C1552 1.378 . S
C1545 C1544 1.367 . S
C1545 C1553 1.433 . S
C1546 H1542 0.929 . S
C1546 C1548 1.378 . S
C1546 C1550 1.350 . S
C1547 C1550 1.463 . S
C1547 C1552 1.350 . S
C1547 N1555 1.427 . S
C1548 H1539 0.930 . S
C1548 C1546 1.378 . S
C1548 C1549 1.367 . S
C1549 C1548 1.367 . S
C1549 C1551 1.433 . S
C1550 C1546 1.350 . S
C1550 C1547 1.463 . S
C1550 N1554 1.427 . S
C1551 H1541 0.929 . S
C1551 C1549 1.433 . S
C1551 N1554 1.384 . S
C1552 H1543 0.929 . S
C1552 C1544 1.378 . S
C1552 C1547 1.350 . S
C1553 H1540 0.929 . S
C1553 C1545 1.433 . S
C1553 N1555 1.384 . S
N1554 C1550 1.427 . S
N1554 C1551 1.384 . S
N1555 C1547 1.427 . S
N1555 C1553 1.384 . S
H1556 C1562 0.930 . S
H1557 C1566 0.930 1_545 S
H1558 C1571 0.929 1_545 S
H1559 C1569 0.929 . S
H1560 C1564 0.929 1_545 S
H1561 C1570 0.929 . S
C1562 H1556 0.930 . S
C1562 C1563 1.367 . S
C1562 C1570 1.378 . S
C1563 C1562 1.367 . S
C1563 C1571 1.433 . S
C1564 H1560 0.929 1_565 S
C1564 C1566 1.378 . S
C1564 C1568 1.350 . S
C1565 C1568 1.463 . S
C1565 C1570 1.350 . S
C1565 N1573 1.427 . S
C1566 H1557 0.930 1_565 S
C1566 C1564 1.378 . S
C1566 C1567 1.367 . S
C1567 C1566 1.367 . S
C1567 C1569 1.433 . S
C1568 C1564 1.350 . S
C1568 C1565 1.463 . S
C1568 N1572 1.427 . S
C1569 H1559 0.929 . S
C1569 C1567 1.433 . S
C1569 N1572 1.384 . S
C1570 H1561 0.929 . S
C1570 C1562 1.378 . S
C1570 C1565 1.350 . S
C1571 H1558 0.929 1_565 S
C1571 C1563 1.433 . S
C1571 N1573 1.384 . S
N1572 C1568 1.427 . S
N1572 C1569 1.384 . S
N1573 C1565 1.427 . S
N1573 C1571 1.384 . S
H1574 C1580 0.930 . S
H1575 C1584 0.930 . S
H1576 C1589 0.929 . S
H1577 C1587 0.929 . S
H1578 C1582 0.929 . S
H1579 C1588 0.929 . S
C1580 H1574 0.930 . S
C1580 C1581 1.367 . S
C1580 C1588 1.378 . S
C1581 C1580 1.367 . S
C1581 C1589 1.433 . S
C1582 H1578 0.929 . S
C1582 C1584 1.378 . S
C1582 C1586 1.350 . S
C1583 C1586 1.463 . S
C1583 C1588 1.350 . S
C1583 N1591 1.427 . S
C1584 H1575 0.930 . S
C1584 C1582 1.378 . S
C1584 C1585 1.367 . S
C1585 C1584 1.367 . S
C1585 C1587 1.433 . S
C1586 C1582 1.350 . S
C1586 C1583 1.463 . S
C1586 N1590 1.427 . S
C1587 H1577 0.929 . S
C1587 C1585 1.433 . S
C1587 N1590 1.384 . S
C1588 H1579 0.929 . S
C1588 C1580 1.378 . S
C1588 C1583 1.350 . S
C1589 H1576 0.929 . S
C1589 C1581 1.433 . S
C1589 N1591 1.384 . S
N1590 C1586 1.427 . S
N1590 C1587 1.384 . S
N1591 C1583 1.427 . S
N1591 C1589 1.384 . S
H1592 C1598 0.930 . S
H1593 C1602 0.930 . S
H1594 C1607 0.929 . S
H1595 C1605 0.929 . S
H1596 C1600 0.929 . S
H1597 C1606 0.929 . S
C1598 H1592 0.930 . S
C1598 C1599 1.367 . S
C1598 C1606 1.378 . S
C1599 C1598 1.367 . S
C1599 C1607 1.433 . S
C1600 H1596 0.929 . S
C1600 C1602 1.378 . S
C1600 C1604 1.350 . S
C1601 C1604 1.463 . S
C1601 C1606 1.350 . S
C1601 N1609 1.427 . S
C1602 H1593 0.930 . S
C1602 C1600 1.378 . S
C1602 C1603 1.367 . S
C1603 C1602 1.367 . S
C1603 C1605 1.433 . S
C1604 C1600 1.350 . S
C1604 C1601 1.463 . S
C1604 N1608 1.427 . S
C1605 H1595 0.929 . S
C1605 C1603 1.433 . S
C1605 N1608 1.384 . S
C1606 H1597 0.929 . S
C1606 C1598 1.378 . S
C1606 C1601 1.350 . S
C1607 H1594 0.929 . S
C1607 C1599 1.433 . S
C1607 N1609 1.384 . S
N1608 C1604 1.427 . S
N1608 C1605 1.384 . S
N1609 C1601 1.427 . S
N1609 C1607 1.384 . S
H1610 C1616 0.930 . S
H1611 C1620 0.930 . S
H1612 C1625 0.929 . S
H1613 C1623 0.929 . S
H1614 C1618 0.929 . S
H1615 C1624 0.929 . S
C1616 H1610 0.930 . S
C1616 C1617 1.367 . S
C1616 C1624 1.378 . S
C1617 C1616 1.367 . S
C1617 C1625 1.433 . S
C1618 H1614 0.929 . S
C1618 C1620 1.378 . S
C1618 C1622 1.350 . S
C1619 C1622 1.463 . S
C1619 C1624 1.350 . S
C1619 N1627 1.427 . S
C1620 H1611 0.930 . S
C1620 C1618 1.378 . S
C1620 C1621 1.367 . S
C1621 C1620 1.367 . S
C1621 C1623 1.433 . S
C1622 C1618 1.350 . S
C1622 C1619 1.463 . S
C1622 N1626 1.427 . S
C1623 H1613 0.929 . S
C1623 C1621 1.433 . S
C1623 N1626 1.384 . S
C1624 H1615 0.929 . S
C1624 C1616 1.378 . S
C1624 C1619 1.350 . S
C1625 H1612 0.929 . S
C1625 C1617 1.433 . S
C1625 N1627 1.384 . S
N1626 C1622 1.427 . S
N1626 C1623 1.384 . S
N1627 C1619 1.427 . S
N1627 C1625 1.384 . S
H1628 C1634 0.930 . S
H1629 C1638 0.930 . S
H1630 C1643 0.929 . S
H1631 C1641 0.929 . S
H1632 C1636 0.929 . S
H1633 C1642 0.929 . S
C1634 H1628 0.930 . S
C1634 C1635 1.367 . S
C1634 C1642 1.378 . S
C1635 C1634 1.367 . S
C1635 C1643 1.433 . S
C1636 H1632 0.929 . S
C1636 C1638 1.378 . S
C1636 C1640 1.350 . S
C1637 C1640 1.463 . S
C1637 C1642 1.350 . S
C1637 N1645 1.427 . S
C1638 H1629 0.930 . S
C1638 C1636 1.378 . S
C1638 C1639 1.367 . S
C1639 C1638 1.367 . S
C1639 C1641 1.433 . S
C1640 C1636 1.350 . S
C1640 C1637 1.463 . S
C1640 N1644 1.427 . S
C1641 H1631 0.929 . S
C1641 C1639 1.433 . S
C1641 N1644 1.384 . S
C1642 H1633 0.929 . S
C1642 C1634 1.378 . S
C1642 C1637 1.350 . S
C1643 H1630 0.929 . S
C1643 C1635 1.433 . S
C1643 N1645 1.384 . S
N1644 C1640 1.427 . S
N1644 C1641 1.384 . S
N1645 C1637 1.427 . S
N1645 C1643 1.384 . S
H1646 C1652 0.930 . S
H1647 C1656 0.930 . S
H1648 C1661 0.929 . S
H1649 C1659 0.929 . S
H1650 C1654 0.929 . S
H1651 C1660 0.929 . S
C1652 H1646 0.930 . S
C1652 C1653 1.367 . S
C1652 C1660 1.378 . S
C1653 C1652 1.367 . S
C1653 C1661 1.433 . S
C1654 H1650 0.929 . S
C1654 C1656 1.378 . S
C1654 C1658 1.350 . S
C1655 C1658 1.463 . S
C1655 C1660 1.350 . S
C1655 N1663 1.427 . S
C1656 H1647 0.930 . S
C1656 C1654 1.378 . S
C1656 C1657 1.367 . S
C1657 C1656 1.367 . S
C1657 C1659 1.433 . S
C1658 C1654 1.350 . S
C1658 C1655 1.463 . S
C1658 N1662 1.427 . S
C1659 H1649 0.929 . S
C1659 C1657 1.433 . S
C1659 N1662 1.384 . S
C1660 H1651 0.929 . S
C1660 C1652 1.378 . S
C1660 C1655 1.350 . S
C1661 H1648 0.929 . S
C1661 C1653 1.433 . S
C1661 N1663 1.384 . S
N1662 C1658 1.427 . S
N1662 C1659 1.384 . S
N1663 C1655 1.427 . S
N1663 C1661 1.384 . S
H1664 C1670 0.930 . S
H1665 C1674 0.930 . S
H1666 C1679 0.929 1_655 S
H1667 C1677 0.929 . S
H1668 C1672 0.929 . S
H1669 C1678 0.929 . S
C1670 H1664 0.930 . S
C1670 C1671 1.367 . S
C1670 C1678 1.378 . S
C1671 C1670 1.367 . S
C1671 C1679 1.433 . S
C1672 H1668 0.929 . S
C1672 C1674 1.378 . S
C1672 C1676 1.350 . S
C1673 C1676 1.463 . S
C1673 C1678 1.350 . S
C1673 N1681 1.427 . S
C1674 H1665 0.930 . S
C1674 C1672 1.378 . S
C1674 C1675 1.367 . S
C1675 C1674 1.367 . S
C1675 C1677 1.433 . S
C1676 C1672 1.350 . S
C1676 C1673 1.463 . S
C1676 N1680 1.427 . S
C1677 H1667 0.929 . S
C1677 C1675 1.433 . S
C1677 N1680 1.384 . S
C1678 H1669 0.929 . S
C1678 C1670 1.378 . S
C1678 C1673 1.350 . S
C1679 H1666 0.929 1_455 S
C1679 C1671 1.433 . S
C1679 N1681 1.384 . S
N1680 C1676 1.427 . S
N1680 C1677 1.384 . S
N1681 C1673 1.427 . S
N1681 C1679 1.384 . S
H1682 C1688 0.930 . S
H1683 C1692 0.930 . S
H1684 C1697 0.929 . S
H1685 C1695 0.929 . S
H1686 C1690 0.929 . S
H1687 C1696 0.929 . S
C1688 H1682 0.930 . S
C1688 C1689 1.367 . S
C1688 C1696 1.378 . S
C1689 C1688 1.367 . S
C1689 C1697 1.433 . S
C1690 H1686 0.929 . S
C1690 C1692 1.378 . S
C1690 C1694 1.350 . S
C1691 C1694 1.463 . S
C1691 C1696 1.350 . S
C1691 N1699 1.427 . S
C1692 H1683 0.930 . S
C1692 C1690 1.378 . S
C1692 C1693 1.367 . S
C1693 C1692 1.367 . S
C1693 C1695 1.433 . S
C1694 C1690 1.350 . S
C1694 C1691 1.463 . S
C1694 N1698 1.427 . S
C1695 H1685 0.929 . S
C1695 C1693 1.433 . S
C1695 N1698 1.384 . S
C1696 H1687 0.929 . S
C1696 C1688 1.378 . S
C1696 C1691 1.350 . S
C1697 H1684 0.929 . S
C1697 C1689 1.433 . S
C1697 N1699 1.384 . S
N1698 C1694 1.427 . S
N1698 C1695 1.384 . S
N1699 C1691 1.427 . S
N1699 C1697 1.384 . S
H1700 C1706 0.930 . S
H1701 C1710 0.930 . S
H1702 C1715 0.929 . S
H1703 C1713 0.929 . S
H1704 C1708 0.929 . S
H1705 C1714 0.929 . S
C1706 H1700 0.930 . S
C1706 C1707 1.367 . S
C1706 C1714 1.378 . S
C1707 C1706 1.367 . S
C1707 C1715 1.433 . S
C1708 H1704 0.929 . S
C1708 C1710 1.378 . S
C1708 C1712 1.350 . S
C1709 C1712 1.463 . S
C1709 C1714 1.350 . S
C1709 N1717 1.427 . S
C1710 H1701 0.930 . S
C1710 C1708 1.378 . S
C1710 C1711 1.367 . S
C1711 C1710 1.367 . S
C1711 C1713 1.433 . S
C1712 C1708 1.350 . S
C1712 C1709 1.463 . S
C1712 N1716 1.427 . S
C1713 H1703 0.929 . S
C1713 C1711 1.433 . S
C1713 N1716 1.384 . S
C1714 H1705 0.929 . S
C1714 C1706 1.378 . S
C1714 C1709 1.350 . S
C1715 H1702 0.929 . S
C1715 C1707 1.433 . S
C1715 N1717 1.384 . S
N1716 C1712 1.427 . S
N1716 C1713 1.384 . S
N1717 C1709 1.427 . S
N1717 C1715 1.384 . S
H1718 C1724 0.930 . S
H1719 C1728 0.930 . S
H1720 C1733 0.929 . S
H1721 C1731 0.929 . S
H1722 C1726 0.929 . S
H1723 C1732 0.929 . S
C1724 H1718 0.930 . S
C1724 C1725 1.367 . S
C1724 C1732 1.378 . S
C1725 C1724 1.367 . S
C1725 C1733 1.433 . S
C1726 H1722 0.929 . S
C1726 C1728 1.378 . S
C1726 C1730 1.350 . S
C1727 C1730 1.463 . S
C1727 C1732 1.350 . S
C1727 N1735 1.427 . S
C1728 H1719 0.930 . S
C1728 C1726 1.378 . S
C1728 C1729 1.367 . S
C1729 C1728 1.367 . S
C1729 C1731 1.433 . S
C1730 C1726 1.350 . S
C1730 C1727 1.463 . S
C1730 N1734 1.427 . S
C1731 H1721 0.929 . S
C1731 C1729 1.433 . S
C1731 N1734 1.384 . S
C1732 H1723 0.929 . S
C1732 C1724 1.378 . S
C1732 C1727 1.350 . S
C1733 H1720 0.929 . S
C1733 C1725 1.433 . S
C1733 N1735 1.384 . S
N1734 C1730 1.427 . S
N1734 C1731 1.384 . S
N1735 C1727 1.427 . S
N1735 C1733 1.384 . S
H1736 C1742 0.930 . S
H1737 C1746 0.930 . S
H1738 C1751 0.929 . S
H1739 C1749 0.929 . S
H1740 C1744 0.929 . S
H1741 C1750 0.929 . S
C1742 H1736 0.930 . S
C1742 C1743 1.367 . S
C1742 C1750 1.378 . S
C1743 C1742 1.367 . S
C1743 C1751 1.433 . S
C1744 H1740 0.929 . S
C1744 C1746 1.378 . S
C1744 C1748 1.350 . S
C1745 C1748 1.463 . S
C1745 C1750 1.350 . S
C1745 N1753 1.427 . S
C1746 H1737 0.930 . S
C1746 C1744 1.378 . S
C1746 C1747 1.367 . S
C1747 C1746 1.367 . S
C1747 C1749 1.433 . S
C1748 C1744 1.350 . S
C1748 C1745 1.463 . S
C1748 N1752 1.427 . S
C1749 H1739 0.929 . S
C1749 C1747 1.433 . S
C1749 N1752 1.384 . S
C1750 H1741 0.929 . S
C1750 C1742 1.378 . S
C1750 C1745 1.350 . S
C1751 H1738 0.929 . S
C1751 C1743 1.433 . S
C1751 N1753 1.384 . S
N1752 C1748 1.427 . S
N1752 C1749 1.384 . S
N1753 C1745 1.427 . S
N1753 C1751 1.384 . S
H1754 C1760 0.930 . S
H1755 C1764 0.930 . S
H1756 C1769 0.929 . S
H1757 C1767 0.930 1_655 S
H1758 C1762 0.929 . S
H1759 C1768 0.929 . S
C1760 H1754 0.930 . S
C1760 C1761 1.367 . S
C1760 C1768 1.378 . S
C1761 C1760 1.367 . S
C1761 C1769 1.433 . S
C1762 H1758 0.929 . S
C1762 C1764 1.378 . S
C1762 C1766 1.350 . S
C1763 C1766 1.463 . S
C1763 C1768 1.350 . S
C1763 N1771 1.427 . S
C1764 H1755 0.930 . S
C1764 C1762 1.378 . S
C1764 C1765 1.367 . S
C1765 C1764 1.367 . S
C1765 C1767 1.433 . S
C1766 C1762 1.350 . S
C1766 C1763 1.463 . S
C1766 N1770 1.427 . S
C1767 H1757 0.930 1_455 S
C1767 C1765 1.433 . S
C1767 N1770 1.384 . S
C1768 H1759 0.929 . S
C1768 C1760 1.378 . S
C1768 C1763 1.350 . S
C1769 H1756 0.929 . S
C1769 C1761 1.433 . S
C1769 N1771 1.384 . S
N1770 C1766 1.427 . S
N1770 C1767 1.384 . S
N1771 C1763 1.427 . S
N1771 C1769 1.384 . S
H1772 C1778 0.930 . S
H1773 C1782 0.930 . S
H1774 C1787 0.929 . S
H1775 C1785 0.929 . S
H1776 C1780 0.929 . S
H1777 C1786 0.929 . S
C1778 H1772 0.930 . S
C1778 C1779 1.367 . S
C1778 C1786 1.378 . S
C1779 C1778 1.367 . S
C1779 C1787 1.433 . S
C1780 H1776 0.929 . S
C1780 C1782 1.378 . S
C1780 C1784 1.350 . S
C1781 C1784 1.463 . S
C1781 C1786 1.350 . S
C1781 N1789 1.427 . S
C1782 H1773 0.930 . S
C1782 C1780 1.378 . S
C1782 C1783 1.367 . S
C1783 C1782 1.367 . S
C1783 C1785 1.433 . S
C1784 C1780 1.350 . S
C1784 C1781 1.463 . S
C1784 N1788 1.427 . S
C1785 H1775 0.929 . S
C1785 C1783 1.433 . S
C1785 N1788 1.384 . S
C1786 H1777 0.929 . S
C1786 C1778 1.378 . S
C1786 C1781 1.350 . S
C1787 H1774 0.929 . S
C1787 C1779 1.433 . S
C1787 N1789 1.384 . S
N1788 C1784 1.427 . S
N1788 C1785 1.384 . S
N1789 C1781 1.427 . S
N1789 C1787 1.384 . S
H1790 C1796 0.930 . S
H1791 C1800 0.930 . S
H1792 C1805 0.929 . S
H1793 C1803 0.929 . S
H1794 C1798 0.929 . S
H1795 C1804 0.929 . S
C1796 H1790 0.930 . S
C1796 C1797 1.367 . S
C1796 C1804 1.378 . S
C1797 C1796 1.367 . S
C1797 C1805 1.433 . S
C1798 H1794 0.929 . S
C1798 C1800 1.378 . S
C1798 C1802 1.350 . S
C1799 C1802 1.463 . S
C1799 C1804 1.350 . S
C1799 N1807 1.427 . S
C1800 H1791 0.930 . S
C1800 C1798 1.378 . S
C1800 C1801 1.367 . S
C1801 C1800 1.367 . S
C1801 C1803 1.433 . S
C1802 C1798 1.350 . S
C1802 C1799 1.463 . S
C1802 N1806 1.427 . S
C1803 H1793 0.929 . S
C1803 C1801 1.433 . S
C1803 N1806 1.384 . S
C1804 H1795 0.929 . S
C1804 C1796 1.378 . S
C1804 C1799 1.350 . S
C1805 H1792 0.929 . S
C1805 C1797 1.433 . S
C1805 N1807 1.384 . S
N1806 C1802 1.427 . S
N1806 C1803 1.384 . S
N1807 C1799 1.427 . S
N1807 C1805 1.384 . S
H1808 C1814 0.930 . S
H1809 C1818 0.930 . S
H1810 C1823 0.929 . S
H1811 C1821 0.929 . S
H1812 C1816 0.929 . S
H1813 C1822 0.929 . S
C1814 H1808 0.930 . S
C1814 C1815 1.367 . S
C1814 C1822 1.378 . S
C1815 C1814 1.367 . S
C1815 C1823 1.433 . S
C1816 H1812 0.929 . S
C1816 C1818 1.378 . S
C1816 C1820 1.350 . S
C1817 C1820 1.463 . S
C1817 C1822 1.350 . S
C1817 N1825 1.427 . S
C1818 H1809 0.930 . S
C1818 C1816 1.378 . S
C1818 C1819 1.367 . S
C1819 C1818 1.367 . S
C1819 C1821 1.433 . S
C1820 C1816 1.350 . S
C1820 C1817 1.463 . S
C1820 N1824 1.427 . S
C1821 H1811 0.929 . S
C1821 C1819 1.433 . S
C1821 N1824 1.384 . S
C1822 H1813 0.929 . S
C1822 C1814 1.378 . S
C1822 C1817 1.350 . S
C1823 H1810 0.929 . S
C1823 C1815 1.433 . S
C1823 N1825 1.384 . S
N1824 C1820 1.427 . S
N1824 C1821 1.384 . S
N1825 C1817 1.427 . S
N1825 C1823 1.384 . S
H1826 C1832 0.930 . S
H1827 C1836 0.930 . S
H1828 C1841 0.929 . S
H1829 C1839 0.929 . S
H1830 C1834 0.929 . S
H1831 C1840 0.929 . S
C1832 H1826 0.930 . S
C1832 C1833 1.367 . S
C1832 C1840 1.378 . S
C1833 C1832 1.367 . S
C1833 C1841 1.433 . S
C1834 H1830 0.929 . S
C1834 C1836 1.378 . S
C1834 C1838 1.350 . S
C1835 C1838 1.463 . S
C1835 C1840 1.350 . S
C1835 N1843 1.427 . S
C1836 H1827 0.930 . S
C1836 C1834 1.378 . S
C1836 C1837 1.367 . S
C1837 C1836 1.367 . S
C1837 C1839 1.433 . S
C1838 C1834 1.350 . S
C1838 C1835 1.463 . S
C1838 N1842 1.427 . S
C1839 H1829 0.929 . S
C1839 C1837 1.433 . S
C1839 N1842 1.384 . S
C1840 H1831 0.929 . S
C1840 C1832 1.378 . S
C1840 C1835 1.350 . S
C1841 H1828 0.929 . S
C1841 C1833 1.433 . S
C1841 N1843 1.384 . S
N1842 C1838 1.427 . S
N1842 C1839 1.384 . S
N1843 C1835 1.427 . S
N1843 C1841 1.384 . S
H1844 C1850 0.930 . S
H1845 C1854 0.930 . S
H1846 C1859 0.929 . S
H1847 C1857 0.929 . S
H1848 C1852 0.929 . S
H1849 C1858 0.929 . S
C1850 H1844 0.930 . S
C1850 C1851 1.367 . S
C1850 C1858 1.378 . S
C1851 C1850 1.367 . S
C1851 C1859 1.433 . S
C1852 H1848 0.929 . S
C1852 C1854 1.378 . S
C1852 C1856 1.350 . S
C1853 C1856 1.463 . S
C1853 C1858 1.350 . S
C1853 N1861 1.427 . S
C1854 H1845 0.930 . S
C1854 C1852 1.378 . S
C1854 C1855 1.367 . S
C1855 C1854 1.367 . S
C1855 C1857 1.433 . S
C1856 C1852 1.350 . S
C1856 C1853 1.463 . S
C1856 N1860 1.427 . S
C1857 H1847 0.929 . S
C1857 C1855 1.433 . S
C1857 N1860 1.384 . S
C1858 H1849 0.929 . S
C1858 C1850 1.378 . S
C1858 C1853 1.350 . S
C1859 H1846 0.929 . S
C1859 C1851 1.433 . S
C1859 N1861 1.384 . S
N1860 C1856 1.427 . S
N1860 C1857 1.384 . S
N1861 C1853 1.427 . S
N1861 C1859 1.384 . S
H1862 C1868 0.930 . S
H1863 C1872 0.930 . S
H1864 C1877 0.929 . S
H1865 C1875 0.929 . S
H1866 C1870 0.929 . S
H1867 C1876 0.929 . S
C1868 H1862 0.930 . S
C1868 C1869 1.367 . S
C1868 C1876 1.378 . S
C1869 C1868 1.367 . S
C1869 C1877 1.433 . S
C1870 H1866 0.929 . S
C1870 C1872 1.378 . S
C1870 C1874 1.350 . S
C1871 C1874 1.463 . S
C1871 C1876 1.350 . S
C1871 N1879 1.427 . S
C1872 H1863 0.930 . S
C1872 C1870 1.378 . S
C1872 C1873 1.367 . S
C1873 C1872 1.367 . S
C1873 C1875 1.433 . S
C1874 C1870 1.350 . S
C1874 C1871 1.463 . S
C1874 N1878 1.427 . S
C1875 H1865 0.929 . S
C1875 C1873 1.433 . S
C1875 N1878 1.384 . S
C1876 H1867 0.929 . S
C1876 C1868 1.378 . S
C1876 C1871 1.350 . S
C1877 H1864 0.929 . S
C1877 C1869 1.433 . S
C1877 N1879 1.384 . S
N1878 C1874 1.427 . S
N1878 C1875 1.384 . S
N1879 C1871 1.427 . S
N1879 C1877 1.384 . S
H1880 C1886 0.930 . S
H1881 C1890 0.930 . S
H1882 C1895 0.929 . S
H1883 C1893 0.929 . S
H1884 C1888 0.929 . S
H1885 C1894 0.929 . S
C1886 H1880 0.930 . S
C1886 C1887 1.367 . S
C1886 C1894 1.378 . S
C1887 C1886 1.367 . S
C1887 C1895 1.433 . S
C1888 H1884 0.929 . S
C1888 C1890 1.378 . S
C1888 C1892 1.350 . S
C1889 C1892 1.463 . S
C1889 C1894 1.350 . S
C1889 N1897 1.427 . S
C1890 H1881 0.930 . S
C1890 C1888 1.378 . S
C1890 C1891 1.367 . S
C1891 C1890 1.367 . S
C1891 C1893 1.433 . S
C1892 C1888 1.350 . S
C1892 C1889 1.463 . S
C1892 N1896 1.427 . S
C1893 H1883 0.929 . S
C1893 C1891 1.433 . S
C1893 N1896 1.384 . S
C1894 H1885 0.929 . S
C1894 C1886 1.378 . S
C1894 C1889 1.350 . S
C1895 H1882 0.929 . S
C1895 C1887 1.433 . S
C1895 N1897 1.384 . S
N1896 C1892 1.427 . S
N1896 C1893 1.384 . S
N1897 C1889 1.427 . S
N1897 C1895 1.384 . S
H1898 C1904 0.930 . S
H1899 C1908 0.930 . S
H1900 C1913 0.929 . S
H1901 C1911 0.929 . S
H1902 C1906 0.929 . S
H1903 C1912 0.929 . S
C1904 H1898 0.930 . S
C1904 C1905 1.367 . S
C1904 C1912 1.378 . S
C1905 C1904 1.367 . S
C1905 C1913 1.433 . S
C1906 H1902 0.929 . S
C1906 C1908 1.378 . S
C1906 C1910 1.350 . S
C1907 C1910 1.463 . S
C1907 C1912 1.350 . S
C1907 N1915 1.427 . S
C1908 H1899 0.930 . S
C1908 C1906 1.378 . S
C1908 C1909 1.367 . S
C1909 C1908 1.367 . S
C1909 C1911 1.433 . S
C1910 C1906 1.350 . S
C1910 C1907 1.463 . S
C1910 N1914 1.427 . S
C1911 H1901 0.929 . S
C1911 C1909 1.433 . S
C1911 N1914 1.384 . S
C1912 H1903 0.929 . S
C1912 C1904 1.378 . S
C1912 C1907 1.350 . S
C1913 H1900 0.929 . S
C1913 C1905 1.433 . S
C1913 N1915 1.384 . S
N1914 C1910 1.427 . S
N1914 C1911 1.384 . S
N1915 C1907 1.427 . S
N1915 C1913 1.384 . S
H1916 C1922 0.930 . S
H1917 C1926 0.930 . S
H1918 C1931 0.929 . S
H1919 C1929 0.929 . S
H1920 C1924 0.929 . S
H1921 C1930 0.929 . S
C1922 H1916 0.930 . S
C1922 C1923 1.367 . S
C1922 C1930 1.378 . S
C1923 C1922 1.367 . S
C1923 C1931 1.433 . S
C1924 H1920 0.929 . S
C1924 C1926 1.378 . S
C1924 C1928 1.350 . S
C1925 C1928 1.463 . S
C1925 C1930 1.350 . S
C1925 N1933 1.427 . S
C1926 H1917 0.930 . S
C1926 C1924 1.378 . S
C1926 C1927 1.367 . S
C1927 C1926 1.367 . S
C1927 C1929 1.433 . S
C1928 C1924 1.350 . S
C1928 C1925 1.463 . S
C1928 N1932 1.427 . S
C1929 H1919 0.929 . S
C1929 C1927 1.433 . S
C1929 N1932 1.384 . S
C1930 H1921 0.929 . S
C1930 C1922 1.378 . S
C1930 C1925 1.350 . S
C1931 H1918 0.929 . S
C1931 C1923 1.433 . S
C1931 N1933 1.384 . S
N1932 C1928 1.427 . S
N1932 C1929 1.384 . S
N1933 C1925 1.427 . S
N1933 C1931 1.384 . S
H1934 C1940 0.930 . S
H1935 C1944 0.930 . S
H1936 C1949 0.929 . S
H1937 C1947 0.929 . S
H1938 C1942 0.929 . S
H1939 C1948 0.929 . S
C1940 H1934 0.930 . S
C1940 C1941 1.367 . S
C1940 C1948 1.378 . S
C1941 C1940 1.367 . S
C1941 C1949 1.433 . S
C1942 H1938 0.929 . S
C1942 C1944 1.378 . S
C1942 C1946 1.350 . S
C1943 C1946 1.463 . S
C1943 C1948 1.350 . S
C1943 N1951 1.427 . S
C1944 H1935 0.930 . S
C1944 C1942 1.378 . S
C1944 C1945 1.367 . S
C1945 C1944 1.367 . S
C1945 C1947 1.433 . S
C1946 C1942 1.350 . S
C1946 C1943 1.463 . S
C1946 N1950 1.427 . S
C1947 H1937 0.929 . S
C1947 C1945 1.433 . S
C1947 N1950 1.384 . S
C1948 H1939 0.929 . S
C1948 C1940 1.378 . S
C1948 C1943 1.350 . S
C1949 H1936 0.929 . S
C1949 C1941 1.433 . S
C1949 N1951 1.384 . S
N1950 C1946 1.427 . S
N1950 C1947 1.384 . S
N1951 C1943 1.427 . S
N1951 C1949 1.384 . S
H1952 C1958 0.930 . S
H1953 C1962 0.930 . S
H1954 C1967 0.929 . S
H1955 C1965 0.929 . S
H1956 C1960 0.929 . S
H1957 C1966 0.929 . S
C1958 H1952 0.930 . S
C1958 C1959 1.367 . S
C1958 C1966 1.378 . S
C1959 C1958 1.367 . S
C1959 C1967 1.433 . S
C1960 H1956 0.929 . S
C1960 C1962 1.378 . S
C1960 C1964 1.350 . S
C1961 C1964 1.463 . S
C1961 C1966 1.350 . S
C1961 N1969 1.427 . S
C1962 H1953 0.930 . S
C1962 C1960 1.378 . S
C1962 C1963 1.367 . S
C1963 C1962 1.367 . S
C1963 C1965 1.433 . S
C1964 C1960 1.350 . S
C1964 C1961 1.463 . S
C1964 N1968 1.427 . S
C1965 H1955 0.929 . S
C1965 C1963 1.433 . S
C1965 N1968 1.384 . S
C1966 H1957 0.929 . S
C1966 C1958 1.378 . S
C1966 C1961 1.350 . S
C1967 H1954 0.929 . S
C1967 C1959 1.433 . S
C1967 N1969 1.384 . S
N1968 C1964 1.427 . S
N1968 C1965 1.384 . S
N1969 C1961 1.427 . S
N1969 C1967 1.384 . S
H1970 C1976 0.930 . S
H1971 C1980 0.930 . S
H1972 C1985 0.929 . S
H1973 C1983 0.929 . S
H1974 C1978 0.929 . S
H1975 C1984 0.929 . S
C1976 H1970 0.930 . S
C1976 C1977 1.367 . S
C1976 C1984 1.378 . S
C1977 C1976 1.367 . S
C1977 C1985 1.433 . S
C1978 H1974 0.929 . S
C1978 C1980 1.378 . S
C1978 C1982 1.350 . S
C1979 C1982 1.463 . S
C1979 C1984 1.350 . S
C1979 N1987 1.427 . S
C1980 H1971 0.930 . S
C1980 C1978 1.378 . S
C1980 C1981 1.367 . S
C1981 C1980 1.367 . S
C1981 C1983 1.433 . S
C1982 C1978 1.350 . S
C1982 C1979 1.463 . S
C1982 N1986 1.427 . S
C1983 H1973 0.929 . S
C1983 C1981 1.433 . S
C1983 N1986 1.384 . S
C1984 H1975 0.929 . S
C1984 C1976 1.378 . S
C1984 C1979 1.350 . S
C1985 H1972 0.929 . S
C1985 C1977 1.433 . S
C1985 N1987 1.384 . S
N1986 C1982 1.427 . S
N1986 C1983 1.384 . S
N1987 C1979 1.427 . S
N1987 C1985 1.384 . S
H1988 C1994 0.930 . S
H1989 C1998 0.930 . S
H1990 C2003 0.929 . S
H1991 C2001 0.929 . S
H1992 C1996 0.929 . S
H1993 C2002 0.929 . S
C1994 H1988 0.930 . S
C1994 C1995 1.367 . S
C1994 C2002 1.378 . S
C1995 C1994 1.367 . S
C1995 C2003 1.433 . S
C1996 H1992 0.929 . S
C1996 C1998 1.378 . S
C1996 C2000 1.350 . S
C1997 C2000 1.463 . S
C1997 C2002 1.350 . S
C1997 N2005 1.427 . S
C1998 H1989 0.930 . S
C1998 C1996 1.378 . S
C1998 C1999 1.367 . S
C1999 C1998 1.367 . S
C1999 C2001 1.433 . S
C2000 C1996 1.350 . S
C2000 C1997 1.463 . S
C2000 N2004 1.427 . S
C2001 H1991 0.929 . S
C2001 C1999 1.433 . S
C2001 N2004 1.384 . S
C2002 H1993 0.929 . S
C2002 C1994 1.378 . S
C2002 C1997 1.350 . S
C2003 H1990 0.929 . S
C2003 C1995 1.433 . S
C2003 N2005 1.384 . S
N2004 C2000 1.427 . S
N2004 C2001 1.384 . S
N2005 C1997 1.427 . S
N2005 C2003 1.384 . S
H2006 C2012 0.930 . S
H2007 C2016 0.930 . S
H2008 C2021 0.929 . S
H2009 C2019 0.929 . S
H2010 C2014 0.929 . S
H2011 C2020 0.929 . S
C2012 H2006 0.930 . S
C2012 C2013 1.367 . S
C2012 C2020 1.378 . S
C2013 C2012 1.367 . S
C2013 C2021 1.433 . S
C2014 H2010 0.929 . S
C2014 C2016 1.378 . S
C2014 C2018 1.350 . S
C2015 C2018 1.463 . S
C2015 C2020 1.350 . S
C2015 N2023 1.427 . S
C2016 H2007 0.930 . S
C2016 C2014 1.378 . S
C2016 C2017 1.367 . S
C2017 C2016 1.367 . S
C2017 C2019 1.433 . S
C2018 C2014 1.350 . S
C2018 C2015 1.463 . S
C2018 N2022 1.427 . S
C2019 H2009 0.929 . S
C2019 C2017 1.433 . S
C2019 N2022 1.384 . S
C2020 H2011 0.929 . S
C2020 C2012 1.378 . S
C2020 C2015 1.350 . S
C2021 H2008 0.929 . S
C2021 C2013 1.433 . S
C2021 N2023 1.384 . S
N2022 C2018 1.427 . S
N2022 C2019 1.384 . S
N2023 C2015 1.427 . S
N2023 C2021 1.384 . S
H2024 C2030 0.930 . S
H2025 C2034 0.930 . S
H2026 C2039 0.929 . S
H2027 C2037 0.929 . S
H2028 C2032 0.929 . S
H2029 C2038 0.929 . S
C2030 H2024 0.930 . S
C2030 C2031 1.367 . S
C2030 C2038 1.378 . S
C2031 C2030 1.367 . S
C2031 C2039 1.433 . S
C2032 H2028 0.929 . S
C2032 C2034 1.378 . S
C2032 C2036 1.350 . S
C2033 C2036 1.463 . S
C2033 C2038 1.350 . S
C2033 N2041 1.427 . S
C2034 H2025 0.930 . S
C2034 C2032 1.378 . S
C2034 C2035 1.367 . S
C2035 C2034 1.367 . S
C2035 C2037 1.433 . S
C2036 C2032 1.350 . S
C2036 C2033 1.463 . S
C2036 N2040 1.427 . S
C2037 H2027 0.929 . S
C2037 C2035 1.433 . S
C2037 N2040 1.384 . S
C2038 H2029 0.929 . S
C2038 C2030 1.378 . S
C2038 C2033 1.350 . S
C2039 H2026 0.929 . S
C2039 C2031 1.433 . S
C2039 N2041 1.384 . S
N2040 C2036 1.427 . S
N2040 C2037 1.384 . S
N2041 C2033 1.427 . S
N2041 C2039 1.384 . S
H2042 C2048 0.930 . S
H2043 C2052 0.930 . S
H2044 C2057 0.929 . S
H2045 C2055 0.929 . S
H2046 C2050 0.929 . S
H2047 C2056 0.929 . S
C2048 H2042 0.930 . S
C2048 C2049 1.367 . S
C2048 C2056 1.378 . S
C2049 C2048 1.367 . S
C2049 C2057 1.433 . S
C2050 H2046 0.929 . S
C2050 C2052 1.378 . S
C2050 C2054 1.350 . S
C2051 C2054 1.463 . S
C2051 C2056 1.350 . S
C2051 N2059 1.427 . S
C2052 H2043 0.930 . S
C2052 C2050 1.378 . S
C2052 C2053 1.367 . S
C2053 C2052 1.367 . S
C2053 C2055 1.433 . S
C2054 C2050 1.350 . S
C2054 C2051 1.463 . S
C2054 N2058 1.427 . S
C2055 H2045 0.929 . S
C2055 C2053 1.433 . S
C2055 N2058 1.384 . S
C2056 H2047 0.929 . S
C2056 C2048 1.378 . S
C2056 C2051 1.350 . S
C2057 H2044 0.929 . S
C2057 C2049 1.433 . S
C2057 N2059 1.384 . S
N2058 C2054 1.427 . S
N2058 C2055 1.384 . S
N2059 C2051 1.427 . S
N2059 C2057 1.384 . S
H2060 C2066 0.930 . S
H2061 C2070 0.930 . S
H2062 C2075 0.929 . S
H2063 C2073 0.929 . S
H2064 C2068 0.929 . S
H2065 C2074 0.929 . S
C2066 H2060 0.930 . S
C2066 C2067 1.367 . S
C2066 C2074 1.378 . S
C2067 C2066 1.367 . S
C2067 C2075 1.433 . S
C2068 H2064 0.929 . S
C2068 C2070 1.378 . S
C2068 C2072 1.350 . S
C2069 C2072 1.463 . S
C2069 C2074 1.350 . S
C2069 N2077 1.427 . S
C2070 H2061 0.930 . S
C2070 C2068 1.378 . S
C2070 C2071 1.367 . S
C2071 C2070 1.367 . S
C2071 C2073 1.433 . S
C2072 C2068 1.350 . S
C2072 C2069 1.463 . S
C2072 N2076 1.427 . S
C2073 H2063 0.929 . S
C2073 C2071 1.433 . S
C2073 N2076 1.384 . S
C2074 H2065 0.929 . S
C2074 C2066 1.378 . S
C2074 C2069 1.350 . S
C2075 H2062 0.929 . S
C2075 C2067 1.433 . S
C2075 N2077 1.384 . S
N2076 C2072 1.427 . S
N2076 C2073 1.384 . S
N2077 C2069 1.427 . S
N2077 C2075 1.384 . S
H2078 C2084 0.930 . S
H2079 C2088 0.930 . S
H2080 C2093 0.929 . S
H2081 C2091 0.929 . S
H2082 C2086 0.929 . S
H2083 C2092 0.929 . S
C2084 H2078 0.930 . S
C2084 C2085 1.367 . S
C2084 C2092 1.378 . S
C2085 C2084 1.367 . S
C2085 C2093 1.433 . S
C2086 H2082 0.929 . S
C2086 C2088 1.378 . S
C2086 C2090 1.350 . S
C2087 C2090 1.463 . S
C2087 C2092 1.350 . S
C2087 N2095 1.427 . S
C2088 H2079 0.930 . S
C2088 C2086 1.378 . S
C2088 C2089 1.367 . S
C2089 C2088 1.367 . S
C2089 C2091 1.433 . S
C2090 C2086 1.350 . S
C2090 C2087 1.463 . S
C2090 N2094 1.427 . S
C2091 H2081 0.929 . S
C2091 C2089 1.433 . S
C2091 N2094 1.384 . S
C2092 H2083 0.929 . S
C2092 C2084 1.378 . S
C2092 C2087 1.350 . S
C2093 H2080 0.929 . S
C2093 C2085 1.433 . S
C2093 N2095 1.384 . S
N2094 C2090 1.427 . S
N2094 C2091 1.384 . S
N2095 C2087 1.427 . S
N2095 C2093 1.384 . S
H2096 C2102 0.930 . S
H2097 C2106 0.930 . S
H2098 C2111 0.929 . S
H2099 C2109 0.929 . S
H2100 C2104 0.929 . S
H2101 C2110 0.929 . S
C2102 H2096 0.930 . S
C2102 C2103 1.367 . S
C2102 C2110 1.378 . S
C2103 C2102 1.367 . S
C2103 C2111 1.433 . S
C2104 H2100 0.929 . S
C2104 C2106 1.378 . S
C2104 C2108 1.350 . S
C2105 C2108 1.463 . S
C2105 C2110 1.350 . S
C2105 N2113 1.427 . S
C2106 H2097 0.930 . S
C2106 C2104 1.378 . S
C2106 C2107 1.367 . S
C2107 C2106 1.367 . S
C2107 C2109 1.433 . S
C2108 C2104 1.350 . S
C2108 C2105 1.463 . S
C2108 N2112 1.427 . S
C2109 H2099 0.929 . S
C2109 C2107 1.433 . S
C2109 N2112 1.384 . S
C2110 H2101 0.929 . S
C2110 C2102 1.378 . S
C2110 C2105 1.350 . S
C2111 H2098 0.929 . S
C2111 C2103 1.433 . S
C2111 N2113 1.384 . S
N2112 C2108 1.427 . S
N2112 C2109 1.384 . S
N2113 C2105 1.427 . S
N2113 C2111 1.384 . S
H2114 C2120 0.930 . S
H2115 C2124 0.930 . S
H2116 C2129 0.929 . S
H2117 C2127 0.929 . S
H2118 C2122 0.929 . S
H2119 C2128 0.929 . S
C2120 H2114 0.930 . S
C2120 C2121 1.367 . S
C2120 C2128 1.378 . S
C2121 C2120 1.367 . S
C2121 C2129 1.433 . S
C2122 H2118 0.929 . S
C2122 C2124 1.378 . S
C2122 C2126 1.350 . S
C2123 C2126 1.463 . S
C2123 C2128 1.350 . S
C2123 N2131 1.427 . S
C2124 H2115 0.930 . S
C2124 C2122 1.378 . S
C2124 C2125 1.367 . S
C2125 C2124 1.367 . S
C2125 C2127 1.433 . S
C2126 C2122 1.350 . S
C2126 C2123 1.463 . S
C2126 N2130 1.427 . S
C2127 H2117 0.929 . S
C2127 C2125 1.433 . S
C2127 N2130 1.384 . S
C2128 H2119 0.929 . S
C2128 C2120 1.378 . S
C2128 C2123 1.350 . S
C2129 H2116 0.929 . S
C2129 C2121 1.433 . S
C2129 N2131 1.384 . S
N2130 C2126 1.427 . S
N2130 C2127 1.384 . S
N2131 C2123 1.427 . S
N2131 C2129 1.384 . S
H2132 C2138 0.930 . S
H2133 C2142 0.930 . S
H2134 C2147 0.929 . S
H2135 C2145 0.929 . S
H2136 C2140 0.929 . S
H2137 C2146 0.929 . S
C2138 H2132 0.930 . S
C2138 C2139 1.367 . S
C2138 C2146 1.378 . S
C2139 C2138 1.367 . S
C2139 C2147 1.433 . S
C2140 H2136 0.929 . S
C2140 C2142 1.378 . S
C2140 C2144 1.350 . S
C2141 C2144 1.463 . S
C2141 C2146 1.350 . S
C2141 N2149 1.427 . S
C2142 H2133 0.930 . S
C2142 C2140 1.378 . S
C2142 C2143 1.367 . S
C2143 C2142 1.367 . S
C2143 C2145 1.433 . S
C2144 C2140 1.350 . S
C2144 C2141 1.463 . S
C2144 N2148 1.427 . S
C2145 H2135 0.929 . S
C2145 C2143 1.433 . S
C2145 N2148 1.384 . S
C2146 H2137 0.929 . S
C2146 C2138 1.378 . S
C2146 C2141 1.350 . S
C2147 H2134 0.929 . S
C2147 C2139 1.433 . S
C2147 N2149 1.384 . S
N2148 C2144 1.427 . S
N2148 C2145 1.384 . S
N2149 C2141 1.427 . S
N2149 C2147 1.384 . S
H2150 C2156 0.930 . S
H2151 C2160 0.930 . S
H2152 C2165 0.929 . S
H2153 C2163 0.929 . S
H2154 C2158 0.929 . S
H2155 C2164 0.929 . S
C2156 H2150 0.930 . S
C2156 C2157 1.367 . S
C2156 C2164 1.378 . S
C2157 C2156 1.367 . S
C2157 C2165 1.433 . S
C2158 H2154 0.929 . S
C2158 C2160 1.378 . S
C2158 C2162 1.350 . S
C2159 C2162 1.463 . S
C2159 C2164 1.350 . S
C2159 N2167 1.427 . S
C2160 H2151 0.930 . S
C2160 C2158 1.378 . S
C2160 C2161 1.367 . S
C2161 C2160 1.367 . S
C2161 C2163 1.433 . S
C2162 C2158 1.350 . S
C2162 C2159 1.463 . S
C2162 N2166 1.427 . S
C2163 H2153 0.929 . S
C2163 C2161 1.433 . S
C2163 N2166 1.384 . S
C2164 H2155 0.929 . S
C2164 C2156 1.378 . S
C2164 C2159 1.350 . S
C2165 H2152 0.929 . S
C2165 C2157 1.433 . S
C2165 N2167 1.384 . S
N2166 C2162 1.427 . S
N2166 C2163 1.384 . S
N2167 C2159 1.427 . S
N2167 C2165 1.384 . S
H2168 C2174 0.930 . S
H2169 C2178 0.930 . S
H2170 C2183 0.929 . S
H2171 C2181 0.929 . S
H2172 C2176 0.929 . S
H2173 C2182 0.929 . S
C2174 H2168 0.930 . S
C2174 C2175 1.367 . S
C2174 C2182 1.378 . S
C2175 C2174 1.367 . S
C2175 C2183 1.433 . S
C2176 H2172 0.929 . S
C2176 C2178 1.378 . S
C2176 C2180 1.350 . S
C2177 C2180 1.463 . S
C2177 C2182 1.350 . S
C2177 N2185 1.427 . S
C2178 H2169 0.930 . S
C2178 C2176 1.378 . S
C2178 C2179 1.367 . S
C2179 C2178 1.367 . S
C2179 C2181 1.433 . S
C2180 C2176 1.350 . S
C2180 C2177 1.463 . S
C2180 N2184 1.427 . S
C2181 H2171 0.929 . S
C2181 C2179 1.433 . S
C2181 N2184 1.384 . S
C2182 H2173 0.929 . S
C2182 C2174 1.378 . S
C2182 C2177 1.350 . S
C2183 H2170 0.929 . S
C2183 C2175 1.433 . S
C2183 N2185 1.384 . S
N2184 C2180 1.427 . S
N2184 C2181 1.384 . S
N2185 C2177 1.427 . S
N2185 C2183 1.384 . S
H2186 C2192 0.930 . S
H2187 C2196 0.930 . S
H2188 C2201 0.929 . S
H2189 C2199 0.929 . S
H2190 C2194 0.929 . S
H2191 C2200 0.929 . S
C2192 H2186 0.930 . S
C2192 C2193 1.367 . S
C2192 C2200 1.378 . S
C2193 C2192 1.367 . S
C2193 C2201 1.433 . S
C2194 H2190 0.929 . S
C2194 C2196 1.378 . S
C2194 C2198 1.350 . S
C2195 C2198 1.463 . S
C2195 C2200 1.350 . S
C2195 N2203 1.427 . S
C2196 H2187 0.930 . S
C2196 C2194 1.378 . S
C2196 C2197 1.367 . S
C2197 C2196 1.367 . S
C2197 C2199 1.433 . S
C2198 C2194 1.350 . S
C2198 C2195 1.463 . S
C2198 N2202 1.427 . S
C2199 H2189 0.929 . S
C2199 C2197 1.433 . S
C2199 N2202 1.384 . S
C2200 H2191 0.929 . S
C2200 C2192 1.378 . S
C2200 C2195 1.350 . S
C2201 H2188 0.929 . S
C2201 C2193 1.433 . S
C2201 N2203 1.384 . S
N2202 C2198 1.427 . S
N2202 C2199 1.384 . S
N2203 C2195 1.427 . S
N2203 C2201 1.384 . S
H2204 C2210 0.930 . S
H2205 C2214 0.930 . S
H2206 C2219 0.929 . S
H2207 C2217 0.929 . S
H2208 C2212 0.929 . S
H2209 C2218 0.929 . S
C2210 H2204 0.930 . S
C2210 C2211 1.367 . S
C2210 C2218 1.378 . S
C2211 C2210 1.367 . S
C2211 C2219 1.433 . S
C2212 H2208 0.929 . S
C2212 C2214 1.378 . S
C2212 C2216 1.350 . S
C2213 C2216 1.463 . S
C2213 C2218 1.350 . S
C2213 N2221 1.427 . S
C2214 H2205 0.930 . S
C2214 C2212 1.378 . S
C2214 C2215 1.367 . S
C2215 C2214 1.367 . S
C2215 C2217 1.433 . S
C2216 C2212 1.350 . S
C2216 C2213 1.463 . S
C2216 N2220 1.427 . S
C2217 H2207 0.929 . S
C2217 C2215 1.433 . S
C2217 N2220 1.384 . S
C2218 H2209 0.929 . S
C2218 C2210 1.378 . S
C2218 C2213 1.350 . S
C2219 H2206 0.929 . S
C2219 C2211 1.433 . S
C2219 N2221 1.384 . S
N2220 C2216 1.427 . S
N2220 C2217 1.384 . S
N2221 C2213 1.427 . S
N2221 C2219 1.384 . S
H2222 C2228 0.930 . S
H2223 C2232 0.930 . S
H2224 C2237 0.929 . S
H2225 C2235 0.929 . S
H2226 C2230 0.929 . S
H2227 C2236 0.929 . S
C2228 H2222 0.930 . S
C2228 C2229 1.367 . S
C2228 C2236 1.378 . S
C2229 C2228 1.367 . S
C2229 C2237 1.433 . S
C2230 H2226 0.929 . S
C2230 C2232 1.378 . S
C2230 C2234 1.350 . S
C2231 C2234 1.463 . S
C2231 C2236 1.350 . S
C2231 N2239 1.427 . S
C2232 H2223 0.930 . S
C2232 C2230 1.378 . S
C2232 C2233 1.367 . S
C2233 C2232 1.367 . S
C2233 C2235 1.433 . S
C2234 C2230 1.350 . S
C2234 C2231 1.463 . S
C2234 N2238 1.427 . S
C2235 H2225 0.929 . S
C2235 C2233 1.433 . S
C2235 N2238 1.384 . S
C2236 H2227 0.929 . S
C2236 C2228 1.378 . S
C2236 C2231 1.350 . S
C2237 H2224 0.929 . S
C2237 C2229 1.433 . S
C2237 N2239 1.384 . S
N2238 C2234 1.427 . S
N2238 C2235 1.384 . S
N2239 C2231 1.427 . S
N2239 C2237 1.384 . S
H2240 C2246 0.930 . S
H2241 C2250 0.930 . S
H2242 C2255 0.929 . S
H2243 C2253 0.929 . S
H2244 C2248 0.929 . S
H2245 C2254 0.929 . S
C2246 H2240 0.930 . S
C2246 C2247 1.367 . S
C2246 C2254 1.378 . S
C2247 C2246 1.367 . S
C2247 C2255 1.433 . S
C2248 H2244 0.929 . S
C2248 C2250 1.378 . S
C2248 C2252 1.350 . S
C2249 C2252 1.463 . S
C2249 C2254 1.350 . S
C2249 N2257 1.427 . S
C2250 H2241 0.930 . S
C2250 C2248 1.378 . S
C2250 C2251 1.367 . S
C2251 C2250 1.367 . S
C2251 C2253 1.433 . S
C2252 C2248 1.350 . S
C2252 C2249 1.463 . S
C2252 N2256 1.427 . S
C2253 H2243 0.929 . S
C2253 C2251 1.433 . S
C2253 N2256 1.384 . S
C2254 H2245 0.929 . S
C2254 C2246 1.378 . S
C2254 C2249 1.350 . S
C2255 H2242 0.929 . S
C2255 C2247 1.433 . S
C2255 N2257 1.384 . S
N2256 C2252 1.427 . S
N2256 C2253 1.384 . S
N2257 C2249 1.427 . S
N2257 C2255 1.384 . S
H2258 C2264 0.930 . S
H2259 C2268 0.930 . S
H2260 C2273 0.929 . S
H2261 C2271 0.929 . S
H2262 C2266 0.929 . S
H2263 C2272 0.929 . S
C2264 H2258 0.930 . S
C2264 C2265 1.367 . S
C2264 C2272 1.378 . S
C2265 C2264 1.367 . S
C2265 C2273 1.433 . S
C2266 H2262 0.929 . S
C2266 C2268 1.378 . S
C2266 C2270 1.350 . S
C2267 C2270 1.463 . S
C2267 C2272 1.350 . S
C2267 N2275 1.427 . S
C2268 H2259 0.930 . S
C2268 C2266 1.378 . S
C2268 C2269 1.367 . S
C2269 C2268 1.367 . S
C2269 C2271 1.433 . S
C2270 C2266 1.350 . S
C2270 C2267 1.463 . S
C2270 N2274 1.427 . S
C2271 H2261 0.929 . S
C2271 C2269 1.433 . S
C2271 N2274 1.384 . S
C2272 H2263 0.929 . S
C2272 C2264 1.378 . S
C2272 C2267 1.350 . S
C2273 H2260 0.929 . S
C2273 C2265 1.433 . S
C2273 N2275 1.384 . S
N2274 C2270 1.427 . S
N2274 C2271 1.384 . S
N2275 C2267 1.427 . S
N2275 C2273 1.384 . S
H2276 C2282 0.930 . S
H2277 C2286 0.930 . S
H2278 C2291 0.929 . S
H2279 C2289 0.929 . S
H2280 C2284 0.929 . S
H2281 C2290 0.929 . S
C2282 H2276 0.930 . S
C2282 C2283 1.367 . S
C2282 C2290 1.378 . S
C2283 C2282 1.367 . S
C2283 C2291 1.433 . S
C2284 H2280 0.929 . S
C2284 C2286 1.378 . S
C2284 C2288 1.350 . S
C2285 C2288 1.463 . S
C2285 C2290 1.350 . S
C2285 N2293 1.427 . S
C2286 H2277 0.930 . S
C2286 C2284 1.378 . S
C2286 C2287 1.367 . S
C2287 C2286 1.367 . S
C2287 C2289 1.433 . S
C2288 C2284 1.350 . S
C2288 C2285 1.463 . S
C2288 N2292 1.427 . S
C2289 H2279 0.929 . S
C2289 C2287 1.433 . S
C2289 N2292 1.384 . S
C2290 H2281 0.929 . S
C2290 C2282 1.378 . S
C2290 C2285 1.350 . S
C2291 H2278 0.929 . S
C2291 C2283 1.433 . S
C2291 N2293 1.384 . S
N2292 C2288 1.427 . S
N2292 C2289 1.384 . S
N2293 C2285 1.427 . S
N2293 C2291 1.384 . S
H2294 C2300 0.930 . S
H2295 C2304 0.930 . S
H2296 C2309 0.929 . S
H2297 C2307 0.929 . S
H2298 C2302 0.929 . S
H2299 C2308 0.929 . S
C2300 H2294 0.930 . S
C2300 C2301 1.367 . S
C2300 C2308 1.378 . S
C2301 C2300 1.367 . S
C2301 C2309 1.433 . S
C2302 H2298 0.929 . S
C2302 C2304 1.378 . S
C2302 C2306 1.350 . S
C2303 C2306 1.463 . S
C2303 C2308 1.350 . S
C2303 N2311 1.427 . S
C2304 H2295 0.930 . S
C2304 C2302 1.378 . S
C2304 C2305 1.367 . S
C2305 C2304 1.367 . S
C2305 C2307 1.433 . S
C2306 C2302 1.350 . S
C2306 C2303 1.463 . S
C2306 N2310 1.427 . S
C2307 H2297 0.929 . S
C2307 C2305 1.433 . S
C2307 N2310 1.384 . S
C2308 H2299 0.929 . S
C2308 C2300 1.378 . S
C2308 C2303 1.350 . S
C2309 H2296 0.929 . S
C2309 C2301 1.433 . S
C2309 N2311 1.384 . S
N2310 C2306 1.427 . S
N2310 C2307 1.384 . S
N2311 C2303 1.427 . S
N2311 C2309 1.384 . S
H2312 C2318 0.930 . S
H2313 C2322 0.930 . S
H2314 C2327 0.929 . S
H2315 C2325 0.929 . S
H2316 C2320 0.929 . S
H2317 C2326 0.929 . S
C2318 H2312 0.930 . S
C2318 C2319 1.367 . S
C2318 C2326 1.378 . S
C2319 C2318 1.367 . S
C2319 C2327 1.433 . S
C2320 H2316 0.929 . S
C2320 C2322 1.378 . S
C2320 C2324 1.350 . S
C2321 C2324 1.463 . S
C2321 C2326 1.350 . S
C2321 N2329 1.427 . S
C2322 H2313 0.930 . S
C2322 C2320 1.378 . S
C2322 C2323 1.367 . S
C2323 C2322 1.367 . S
C2323 C2325 1.433 . S
C2324 C2320 1.350 . S
C2324 C2321 1.463 . S
C2324 N2328 1.427 . S
C2325 H2315 0.929 . S
C2325 C2323 1.433 . S
C2325 N2328 1.384 . S
C2326 H2317 0.929 . S
C2326 C2318 1.378 . S
C2326 C2321 1.350 . S
C2327 H2314 0.929 . S
C2327 C2319 1.433 . S
C2327 N2329 1.384 . S
N2328 C2324 1.427 . S
N2328 C2325 1.384 . S
N2329 C2321 1.427 . S
N2329 C2327 1.384 . S
H2330 C2336 0.930 . S
H2331 C2340 0.930 . S
H2332 C2345 0.929 . S
H2333 C2343 0.929 . S
H2334 C2338 0.929 . S
H2335 C2344 0.929 . S
C2336 H2330 0.930 . S
C2336 C2337 1.367 . S
C2336 C2344 1.378 . S
C2337 C2336 1.367 . S
C2337 C2345 1.433 . S
C2338 H2334 0.929 . S
C2338 C2340 1.378 . S
C2338 C2342 1.350 . S
C2339 C2342 1.463 . S
C2339 C2344 1.350 . S
C2339 N2347 1.427 . S
C2340 H2331 0.930 . S
C2340 C2338 1.378 . S
C2340 C2341 1.367 . S
C2341 C2340 1.367 . S
C2341 C2343 1.433 . S
C2342 C2338 1.350 . S
C2342 C2339 1.463 . S
C2342 N2346 1.427 . S
C2343 H2333 0.929 . S
C2343 C2341 1.433 . S
C2343 N2346 1.384 . S
C2344 H2335 0.929 . S
C2344 C2336 1.378 . S
C2344 C2339 1.350 . S
C2345 H2332 0.929 . S
C2345 C2337 1.433 . S
C2345 N2347 1.384 . S
N2346 C2342 1.427 . S
N2346 C2343 1.384 . S
N2347 C2339 1.427 . S
N2347 C2345 1.384 . S
H2348 C2354 0.930 . S
H2349 C2358 0.930 . S
H2350 C2363 0.929 . S
H2351 C2361 0.929 . S
H2352 C2356 0.929 . S
H2353 C2362 0.929 . S
C2354 H2348 0.930 . S
C2354 C2355 1.367 . S
C2354 C2362 1.378 . S
C2355 C2354 1.367 . S
C2355 C2363 1.433 . S
C2356 H2352 0.929 . S
C2356 C2358 1.378 . S
C2356 C2360 1.350 . S
C2357 C2360 1.463 . S
C2357 C2362 1.350 . S
C2357 N2365 1.427 . S
C2358 H2349 0.930 . S
C2358 C2356 1.378 . S
C2358 C2359 1.367 . S
C2359 C2358 1.367 . S
C2359 C2361 1.433 . S
C2360 C2356 1.350 . S
C2360 C2357 1.463 . S
C2360 N2364 1.427 . S
C2361 H2351 0.929 . S
C2361 C2359 1.433 . S
C2361 N2364 1.384 . S
C2362 H2353 0.929 . S
C2362 C2354 1.378 . S
C2362 C2357 1.350 . S
C2363 H2350 0.929 . S
C2363 C2355 1.433 . S
C2363 N2365 1.384 . S
N2364 C2360 1.427 . S
N2364 C2361 1.384 . S
N2365 C2357 1.427 . S
N2365 C2363 1.384 . S
H2366 C2372 0.930 . S
H2367 C2376 0.930 . S
H2368 C2381 0.929 . S
H2369 C2379 0.929 . S
H2370 C2374 0.929 . S
H2371 C2380 0.929 . S
C2372 H2366 0.930 . S
C2372 C2373 1.367 . S
C2372 C2380 1.378 . S
C2373 C2372 1.367 . S
C2373 C2381 1.433 . S
C2374 H2370 0.929 . S
C2374 C2376 1.378 . S
C2374 C2378 1.350 . S
C2375 C2378 1.463 . S
C2375 C2380 1.350 . S
C2375 N2383 1.427 . S
C2376 H2367 0.930 . S
C2376 C2374 1.378 . S
C2376 C2377 1.367 . S
C2377 C2376 1.367 . S
C2377 C2379 1.433 . S
C2378 C2374 1.350 . S
C2378 C2375 1.463 . S
C2378 N2382 1.427 . S
C2379 H2369 0.929 . S
C2379 C2377 1.433 . S
C2379 N2382 1.384 . S
C2380 H2371 0.929 . S
C2380 C2372 1.378 . S
C2380 C2375 1.350 . S
C2381 H2368 0.929 . S
C2381 C2373 1.433 . S
C2381 N2383 1.384 . S
N2382 C2378 1.427 . S
N2382 C2379 1.384 . S
N2383 C2375 1.427 . S
N2383 C2381 1.384 . S
H2384 C2390 0.930 . S
H2385 C2394 0.930 . S
H2386 C2399 0.929 . S
H2387 C2397 0.929 . S
H2388 C2392 0.929 . S
H2389 C2398 0.929 . S
C2390 H2384 0.930 . S
C2390 C2391 1.367 . S
C2390 C2398 1.378 . S
C2391 C2390 1.367 . S
C2391 C2399 1.433 . S
C2392 H2388 0.929 . S
C2392 C2394 1.378 . S
C2392 C2396 1.350 . S
C2393 C2396 1.463 . S
C2393 C2398 1.350 . S
C2393 N2401 1.427 . S
C2394 H2385 0.930 . S
C2394 C2392 1.378 . S
C2394 C2395 1.367 . S
C2395 C2394 1.367 . S
C2395 C2397 1.433 . S
C2396 C2392 1.350 . S
C2396 C2393 1.463 . S
C2396 N2400 1.427 . S
C2397 H2387 0.929 . S
C2397 C2395 1.433 . S
C2397 N2400 1.384 . S
C2398 H2389 0.929 . S
C2398 C2390 1.378 . S
C2398 C2393 1.350 . S
C2399 H2386 0.929 . S
C2399 C2391 1.433 . S
C2399 N2401 1.384 . S
N2400 C2396 1.427 . S
N2400 C2397 1.384 . S
N2401 C2393 1.427 . S
N2401 C2399 1.384 . S
H2402 C2408 0.930 . S
H2403 C2412 0.930 . S
H2404 C2417 0.929 . S
H2405 C2415 0.929 . S
H2406 C2410 0.929 . S
H2407 C2416 0.929 . S
C2408 H2402 0.930 . S
C2408 C2409 1.367 . S
C2408 C2416 1.378 . S
C2409 C2408 1.367 . S
C2409 C2417 1.433 . S
C2410 H2406 0.929 . S
C2410 C2412 1.378 . S
C2410 C2414 1.350 . S
C2411 C2414 1.463 . S
C2411 C2416 1.350 . S
C2411 N2419 1.427 . S
C2412 H2403 0.930 . S
C2412 C2410 1.378 . S
C2412 C2413 1.367 . S
C2413 C2412 1.367 . S
C2413 C2415 1.433 . S
C2414 C2410 1.350 . S
C2414 C2411 1.463 . S
C2414 N2418 1.427 . S
C2415 H2405 0.929 . S
C2415 C2413 1.433 . S
C2415 N2418 1.384 . S
C2416 H2407 0.929 . S
C2416 C2408 1.378 . S
C2416 C2411 1.350 . S
C2417 H2404 0.929 . S
C2417 C2409 1.433 . S
C2417 N2419 1.384 . S
N2418 C2414 1.427 . S
N2418 C2415 1.384 . S
N2419 C2411 1.427 . S
N2419 C2417 1.384 . S
H2420 C2426 0.930 . S
H2421 C2430 0.930 . S
H2422 C2435 0.929 . S
H2423 C2433 0.929 . S
H2424 C2428 0.929 . S
H2425 C2434 0.929 . S
C2426 H2420 0.930 . S
C2426 C2427 1.367 . S
C2426 C2434 1.378 . S
C2427 C2426 1.367 . S
C2427 C2435 1.433 . S
C2428 H2424 0.929 . S
C2428 C2430 1.378 . S
C2428 C2432 1.350 . S
C2429 C2432 1.463 . S
C2429 C2434 1.350 . S
C2429 N2437 1.427 . S
C2430 H2421 0.930 . S
C2430 C2428 1.378 . S
C2430 C2431 1.367 . S
C2431 C2430 1.367 . S
C2431 C2433 1.433 . S
C2432 C2428 1.350 . S
C2432 C2429 1.463 . S
C2432 N2436 1.427 . S
C2433 H2423 0.929 . S
C2433 C2431 1.433 . S
C2433 N2436 1.384 . S
C2434 H2425 0.929 . S
C2434 C2426 1.378 . S
C2434 C2429 1.350 . S
C2435 H2422 0.929 . S
C2435 C2427 1.433 . S
C2435 N2437 1.384 . S
N2436 C2432 1.427 . S
N2436 C2433 1.384 . S
N2437 C2429 1.427 . S
N2437 C2435 1.384 . S
H2438 C2444 0.930 . S
H2439 C2448 0.930 . S
H2440 C2453 0.929 . S
H2441 C2451 0.929 . S
H2442 C2446 0.929 . S
H2443 C2452 0.929 . S
C2444 H2438 0.930 . S
C2444 C2445 1.367 . S
C2444 C2452 1.378 . S
C2445 C2444 1.367 . S
C2445 C2453 1.433 . S
C2446 H2442 0.929 . S
C2446 C2448 1.378 . S
C2446 C2450 1.350 . S
C2447 C2450 1.463 . S
C2447 C2452 1.350 . S
C2447 N2455 1.427 . S
C2448 H2439 0.930 . S
C2448 C2446 1.378 . S
C2448 C2449 1.367 . S
C2449 C2448 1.367 . S
C2449 C2451 1.433 . S
C2450 C2446 1.350 . S
C2450 C2447 1.463 . S
C2450 N2454 1.427 . S
C2451 H2441 0.929 . S
C2451 C2449 1.433 . S
C2451 N2454 1.384 . S
C2452 H2443 0.929 . S
C2452 C2444 1.378 . S
C2452 C2447 1.350 . S
C2453 H2440 0.929 . S
C2453 C2445 1.433 . S
C2453 N2455 1.384 . S
N2454 C2450 1.427 . S
N2454 C2451 1.384 . S
N2455 C2447 1.427 . S
N2455 C2453 1.384 . S
H2456 C2462 0.930 . S
H2457 C2466 0.930 . S
H2458 C2471 0.929 . S
H2459 C2469 0.929 . S
H2460 C2464 0.929 . S
H2461 C2470 0.929 . S
C2462 H2456 0.930 . S
C2462 C2463 1.367 . S
C2462 C2470 1.378 . S
C2463 C2462 1.367 . S
C2463 C2471 1.433 . S
C2464 H2460 0.929 . S
C2464 C2466 1.378 . S
C2464 C2468 1.350 . S
C2465 C2468 1.463 . S
C2465 C2470 1.350 . S
C2465 N2473 1.427 . S
C2466 H2457 0.930 . S
C2466 C2464 1.378 . S
C2466 C2467 1.367 . S
C2467 C2466 1.367 . S
C2467 C2469 1.433 . S
C2468 C2464 1.350 . S
C2468 C2465 1.463 . S
C2468 N2472 1.427 . S
C2469 H2459 0.929 . S
C2469 C2467 1.433 . S
C2469 N2472 1.384 . S
C2470 H2461 0.929 . S
C2470 C2462 1.378 . S
C2470 C2465 1.350 . S
C2471 H2458 0.929 . S
C2471 C2463 1.433 . S
C2471 N2473 1.384 . S
N2472 C2468 1.427 . S
N2472 C2469 1.384 . S
N2473 C2465 1.427 . S
N2473 C2471 1.384 . S
H2474 C2480 0.930 . S
H2475 C2484 0.930 . S
H2476 C2489 0.929 . S
H2477 C2487 0.929 . S
H2478 C2482 0.929 . S
H2479 C2488 0.929 . S
C2480 H2474 0.930 . S
C2480 C2481 1.367 . S
C2480 C2488 1.378 . S
C2481 C2480 1.367 . S
C2481 C2489 1.433 . S
C2482 H2478 0.929 . S
C2482 C2484 1.378 . S
C2482 C2486 1.350 . S
C2483 C2486 1.463 . S
C2483 C2488 1.350 . S
C2483 N2491 1.427 . S
C2484 H2475 0.930 . S
C2484 C2482 1.378 . S
C2484 C2485 1.367 . S
C2485 C2484 1.367 . S
C2485 C2487 1.433 . S
C2486 C2482 1.350 . S
C2486 C2483 1.463 . S
C2486 N2490 1.427 . S
C2487 H2477 0.929 . S
C2487 C2485 1.433 . S
C2487 N2490 1.384 . S
C2488 H2479 0.929 . S
C2488 C2480 1.378 . S
C2488 C2483 1.350 . S
C2489 H2476 0.929 . S
C2489 C2481 1.433 . S
C2489 N2491 1.384 . S
N2490 C2486 1.427 . S
N2490 C2487 1.384 . S
N2491 C2483 1.427 . S
N2491 C2489 1.384 . S
H2492 C2498 0.930 . S
H2493 C2502 0.930 . S
H2494 C2507 0.929 . S
H2495 C2505 0.929 . S
H2496 C2500 0.929 . S
H2497 C2506 0.929 . S
C2498 H2492 0.930 . S
C2498 C2499 1.367 . S
C2498 C2506 1.378 . S
C2499 C2498 1.367 . S
C2499 C2507 1.433 . S
C2500 H2496 0.929 . S
C2500 C2502 1.378 . S
C2500 C2504 1.350 . S
C2501 C2504 1.463 . S
C2501 C2506 1.350 . S
C2501 N2509 1.427 . S
C2502 H2493 0.930 . S
C2502 C2500 1.378 . S
C2502 C2503 1.367 . S
C2503 C2502 1.367 . S
C2503 C2505 1.433 . S
C2504 C2500 1.350 . S
C2504 C2501 1.463 . S
C2504 N2508 1.427 . S
C2505 H2495 0.929 . S
C2505 C2503 1.433 . S
C2505 N2508 1.384 . S
C2506 H2497 0.929 . S
C2506 C2498 1.378 . S
C2506 C2501 1.350 . S
C2507 H2494 0.929 . S
C2507 C2499 1.433 . S
C2507 N2509 1.384 . S
N2508 C2504 1.427 . S
N2508 C2505 1.384 . S
N2509 C2501 1.427 . S
N2509 C2507 1.384 . S
H2510 C2516 0.930 . S
H2511 C2520 0.930 . S
H2512 C2525 0.929 . S
H2513 C2523 0.929 . S
H2514 C2518 0.929 . S
H2515 C2524 0.929 . S
C2516 H2510 0.930 . S
C2516 C2517 1.367 . S
C2516 C2524 1.378 . S
C2517 C2516 1.367 . S
C2517 C2525 1.433 . S
C2518 H2514 0.929 . S
C2518 C2520 1.378 . S
C2518 C2522 1.350 . S
C2519 C2522 1.463 . S
C2519 C2524 1.350 . S
C2519 N2527 1.427 . S
C2520 H2511 0.930 . S
C2520 C2518 1.378 . S
C2520 C2521 1.367 . S
C2521 C2520 1.367 . S
C2521 C2523 1.433 . S
C2522 C2518 1.350 . S
C2522 C2519 1.463 . S
C2522 N2526 1.427 . S
C2523 H2513 0.929 . S
C2523 C2521 1.433 . S
C2523 N2526 1.384 . S
C2524 H2515 0.929 . S
C2524 C2516 1.378 . S
C2524 C2519 1.350 . S
C2525 H2512 0.929 . S
C2525 C2517 1.433 . S
C2525 N2527 1.384 . S
N2526 C2522 1.427 . S
N2526 C2523 1.384 . S
N2527 C2519 1.427 . S
N2527 C2525 1.384 . S
C1095 C9 1.688 . S
C1099 C145 1.688 . S
C1113 C995 1.679 . S
C1117 C43 1.679 . S
C1131 C77 1.687 . S
C1135 C485 1.687 . S
C1149 C791 1.679 . S
C1153 C111 1.679 . S
C1167 C179 1.680 . S
C1171 C859 1.680 . S
C1185 C213 1.689 . S
C1189 C349 1.689 . S
C1203 C247 1.679 . S
C1207 C655 1.679 . S
C1221 C417 1.688 . S
C1225 C281 1.688 . S
C1239 C723 1.680 . S
C1243 C315 1.680 . S
C1257 C383 1.685 . S
C1261 C1063 1.685 . S
C1275 C587 1.688 . S
C1279 C451 1.688 . S
C1293 C519 1.686 . S
C1297 C927 1.686 . S
C1311 C689 1.689 . S
C1315 C553 1.689 . S
C1329 C621 1.680 . S
C1333 C1029 1.680 . S
C1347 C757 1.680 . S
C1351 C893 1.680 . S
C1365 C825 1.686 . S
C1369 C961 1.686 . S
C1383 C5 0.394 . S
C1387 C107 0.384 . S
C1401 C73 0.353 . S
C1405 C39 0.358 . S
C1419 C243 0.392 . S
C1423 C141 0.400 . S
C1437 C175 0.364 . S
C1441 C209 0.374 . S
C1455 C379 0.398 . S
C1459 C277 0.388 . S
C1473 C345 0.391 . S
C1477 C311 0.380 . S
C1491 C413 0.374 . S
C1495 C515 0.385 . S
C1509 C481 0.408 . S
C1513 C447 0.405 . S
C1527 C549 0.388 . S
C1531 C651 0.377 . S
C1545 C617 0.399 . S
C1549 C583 0.391 . S
C1563 C787 0.404 . S
C1567 C685 0.408 . S
C1581 C753 0.353 . S
C1585 C719 0.358 . S
C1599 C821 0.407 . S
C1603 C923 0.403 . S
C1617 C889 0.404 . S
C1621 C855 0.408 . S
C1635 C957 0.355 . S
C1639 C1059 0.361 . S
C1653 C1025 0.385 . S
C1657 C991 0.374 . S
C1671 C36 1.638 1_455 S
C1675 C2 1.645 . S
C1689 C104 1.637 1_455 S
C1693 C70 1.647 . S
C1707 C138 1.649 . S
C1711 C172 1.639 1_655 S
C1725 C206 1.638 . S
C1729 C240 1.648 1_655 S
C1743 C308 1.648 1_455 S
C1747 C274 1.638 . S
C1761 C342 1.646 . S
C1765 C376 1.637 1_455 S
C1779 C444 1.649 1_655 S
C1783 C410 1.639 . S
C1797 C478 1.647 . S
C1801 C512 1.637 1_655 S
C1815 C580 1.648 . S
C1819 C546 1.638 . S
C1833 C648 1.646 . S
C1837 C614 1.646 . S
C1851 C716 1.647 . S
C1855 C682 1.637 . S
C1869 C784 1.637 . S
C1873 C750 1.646 . S
C1887 C818 1.638 . S
C1891 C852 1.645 . S
C1905 C920 1.642 . S
C1909 C886 1.638 . S
C1923 C954 1.647 . S
C1927 C988 1.637 . S
C1941 C1056 1.637 . S
C1945 C1022 1.645 . S
C1959 C20 0.926 . S
C1963 C870 0.926 . S
C1977 C836 0.929 . S
C1981 C54 0.929 . S
C1995 C88 0.926 . S
C1999 C938 0.925 . S
C2013 C122 0.935 . S
C2017 C904 0.935 . S
C2031 C1006 0.936 . S
C2035 C156 0.936 . S
C2049 C190 0.942 . S
C2053 C972 0.942 . S
C2067 C224 0.931 . S
C2071 C1074 0.931 . S
C2085 C1040 0.941 . S
C2089 C258 0.941 . S
C2103 C598 0.926 . S
C2107 C292 0.926 . S
C2121 C326 0.927 . S
C2125 C564 0.927 . S
C2139 C666 0.939 . S
C2143 C360 0.939 . S
C2157 C394 0.940 . S
C2161 C632 0.940 . S
C2175 C734 0.938 . S
C2179 C428 0.938 . S
C2193 C462 0.933 . S
C2197 C700 0.933 . S
C2211 C802 0.939 . S
C2215 C496 0.939 . S
C2229 C530 0.942 . S
C2233 C768 0.942 . S
C2247 C33 1.258 . S
C2251 C101 1.247 . S
C2265 C67 1.261 . S
C2269 C135 1.244 . S
C2283 C237 1.260 . S
C2287 C169 1.246 . S
C2301 C271 1.245 . S
C2305 C203 1.261 . S
C2319 C305 1.261 . S
C2323 C373 1.244 . S
C2337 C339 1.247 . S
C2341 C407 1.259 . S
C2355 C509 1.246 . S
C2359 C441 1.259 . S
C2373 C475 1.246 . S
C2377 C543 1.259 . S
C2391 C577 1.256 . S
C2395 C645 1.248 . S
C2409 C611 1.245 . S
C2413 C679 1.261 . S
C2427 C781 1.247 . S
C2431 C713 1.258 . S
C2445 C815 1.258 . S
C2449 C747 1.249 . S
C2463 C917 1.249 . S
C2467 C849 1.258 . S
C2481 C951 1.255 . S
C2485 C883 1.250 . S
C2499 C1053 1.246 . S
C2503 C985 1.258 . S
C2517 C1087 1.258 . S
C2521 C1019 1.248 . S
