# Generated by pormake.
# Topology wjh, (4)-cn, num edge types: 1
# Building blocks:
#     Node 0, Type 0, BuildingBlock: QUQFOY_clean_sbu_1, # of connection points: 4
#     Node 1, Type 0, BuildingBlock: QUQFOY_clean_sbu_1, # of connection points: 4
#     Node 2, Type 0, BuildingBlock: QUQFOY_clean_sbu_1, # of connection points: 4
#     Node 3, Type 0, BuildingBlock: QUQFOY_clean_sbu_1, # of connection points: 4
#     Node 4, Type 0, BuildingBlock: QUQFOY_clean_sbu_1, # of connection points: 4
#     Node 5, Type 0, BuildingBlock: QUQFOY_clean_sbu_1, # of connection points: 4
#     Node 6, Type 0, BuildingBlock: QUQFOY_clean_sbu_1, # of connection points: 4
#     Node 7, Type 0, BuildingBlock: QUQFOY_clean_sbu_1, # of connection points: 4
#     Node 8, Type 0, BuildingBlock: QUQFOY_clean_sbu_1, # of connection points: 4
#     Node 9, Type 0, BuildingBlock: QUQFOY_clean_sbu_1, # of connection points: 4
#     Node 10, Type 0, BuildingBlock: QUQFOY_clean_sbu_1, # of connection points: 4
#     Node 11, Type 0, BuildingBlock: QUQFOY_clean_sbu_1, # of connection points: 4
#     Edge 12, Type (0, 0), BuildingBlock: ZUJKAS_clean_linker_0, # of connection points: 2
#     Edge 13, Type (0, 0), BuildingBlock: ZUJKAS_clean_linker_0, # of connection points: 2
#     Edge 14, Type (0, 0), BuildingBlock: ZUJKAS_clean_linker_0, # of connection points: 2
#     Edge 15, Type (0, 0), BuildingBlock: ZUJKAS_clean_linker_0, # of connection points: 2
#     Edge 16, Type (0, 0), BuildingBlock: ZUJKAS_clean_linker_0, # of connection points: 2
#     Edge 17, Type (0, 0), BuildingBlock: ZUJKAS_clean_linker_0, # of connection points: 2
#     Edge 18, Type (0, 0), BuildingBlock: ZUJKAS_clean_linker_0, # of connection points: 2
#     Edge 19, Type (0, 0), BuildingBlock: ZUJKAS_clean_linker_0, # of connection points: 2
#     Edge 20, Type (0, 0), BuildingBlock: ZUJKAS_clean_linker_0, # of connection points: 2
#     Edge 21, Type (0, 0), BuildingBlock: ZUJKAS_clean_linker_0, # of connection points: 2
#     Edge 22, Type (0, 0), BuildingBlock: ZUJKAS_clean_linker_0, # of connection points: 2
#     Edge 23, Type (0, 0), BuildingBlock: ZUJKAS_clean_linker_0, # of connection points: 2
#     Edge 24, Type (0, 0), BuildingBlock: ZUJKAS_clean_linker_0, # of connection points: 2
#     Edge 25, Type (0, 0), BuildingBlock: ZUJKAS_clean_linker_0, # of connection points: 2
#     Edge 26, Type (0, 0), BuildingBlock: ZUJKAS_clean_linker_0, # of connection points: 2
#     Edge 27, Type (0, 0), BuildingBlock: ZUJKAS_clean_linker_0, # of connection points: 2
#     Edge 28, Type (0, 0), BuildingBlock: ZUJKAS_clean_linker_0, # of connection points: 2
#     Edge 29, Type (0, 0), BuildingBlock: ZUJKAS_clean_linker_0, # of connection points: 2
#     Edge 30, Type (0, 0), BuildingBlock: ZUJKAS_clean_linker_0, # of connection points: 2
#     Edge 31, Type (0, 0), BuildingBlock: ZUJKAS_clean_linker_0, # of connection points: 2
#     Edge 32, Type (0, 0), BuildingBlock: ZUJKAS_clean_linker_0, # of connection points: 2
#     Edge 33, Type (0, 0), BuildingBlock: ZUJKAS_clean_linker_0, # of connection points: 2
#     Edge 34, Type (0, 0), BuildingBlock: ZUJKAS_clean_linker_0, # of connection points: 2
#     Edge 35, Type (0, 0), BuildingBlock: ZUJKAS_clean_linker_0, # of connection points: 2
# Relax obj value: 0.023
# Max RMSD: 0.078
# Mean RMSD: 0.078
data_MOF--net-wjh--node1-QUQFOY_clean_sbu_1--edge1-ZUJKAS_clean_linker_0
_symmetry_space_group_name_H-M    P1
_symmetry_Int_Tables_number       1
_symmetry_cell_setting            triclinic
loop_
_symmetry_equiv_pos_as_xyz
'x, y, z'
_cell_length_a     81.101089
_cell_length_b     81.099757
_cell_length_c     36.665641
_cell_angle_alpha  90.019617
_cell_angle_beta   89.986089
_cell_angle_gamma 120.00902
loop_
_atom_site_label
_atom_site_type_symbol
_atom_site_fract_x
_atom_site_fract_y
_atom_site_fract_z
_atom_type_partial_charge
O0 O 0.50959 0.10728 0.0441 0.0
Cd1 Cd 0.53284 0.13453 0.04528 0.0
Cd2 Cd 0.50527 0.14078 0.07905 0.0
O3 O 0.48711 0.11316 0.06255 0.0
O4 O 0.55125 0.1337 0.01018 0.0
O5 O 0.53782 0.15128 1.0011 0.0
C6 C 0.54882 0.14514 0.98941 0.0
C7 C 0.49499 0.16306 0.08159 0.0
C8 C 0.49217 0.1016 0.05083 0.0
C9 C 0.53949 0.1463 0.12326 0.0
O10 O 0.52307 0.14458 0.1219 0.0
O11 O 0.54705 0.14407 0.09466 0.0
O12 O 0.48811 0.1485 0.10285 0.0
O13 O 0.50692 0.16437 0.05682 0.0
O14 O 0.40192 0.50903 0.208 0.0
Cd15 Cd 0.39898 0.5329 0.2098 0.0
Cd16 Cd 0.36505 0.50594 0.24443 0.0
O17 O 0.37365 0.48711 0.22792 0.0
O18 O 0.41812 0.55041 0.17356 0.0
O19 O 0.38717 0.53884 0.16688 0.0
C20 C 0.40421 0.54887 0.15398 0.0
C21 C 0.33265 0.4963 0.24801 0.0
C22 C 0.39002 0.49174 0.21537 0.0
C23 C 0.39496 0.53993 0.288 0.0
O24 O 0.37979 0.52386 0.28673 0.0
O25 O 0.40479 0.54719 0.2593 0.0
O26 O 0.3403 0.48936 0.26919 0.0
O27 O 0.34318 0.50796 0.22282 0.0
O28 O 0.89329 0.40159 0.38126 0.0
Cd29 Cd 0.86552 0.39614 0.38268 0.0
Cd30 Cd 0.86119 0.36345 0.41571 0.0
O31 O 0.88858 0.37334 0.39745 0.0
O32 O 0.86523 0.4148 0.34756 0.0
O33 O 0.84896 0.38369 0.33859 0.0
C34 C 0.85431 0.40066 0.3268 0.0
C35 C 0.83885 0.33097 0.41773 0.0
C36 C 0.89963 0.39026 0.38657 0.0
C37 C 0.85477 0.39107 0.46099 0.0
O38 O 0.85786 0.37721 0.45959 0.0
O39 O 0.85554 0.40014 0.43213 0.0
O40 O 0.85371 0.33838 0.43826 0.0
O41 O 0.83731 0.34181 0.39379 0.0
O42 O 0.49012 0.89214 0.54794 0.0
Cd43 Cd 0.46752 0.86458 0.55115 0.0
Cd44 Cd 0.49562 0.8594 0.58055 0.0
O45 O 0.51336 0.88643 0.56085 0.0
O46 O 0.44801 0.86404 0.51725 0.0
O47 O 0.46254 0.84752 0.50753 0.0
C48 C 0.45082 0.85288 0.49637 0.0
C49 C 0.50415 0.83586 0.57918 0.0
C50 C 0.5078 0.8979 0.55119 0.0
C51 C 0.46365 0.85464 0.62983 0.0
O52 O 0.48038 0.85725 0.62671 0.0
O53 O 0.45474 0.85531 0.60184 0.0
O54 O 0.51324 0.85091 0.59893 0.0
O55 O 0.49088 0.83471 0.55802 0.0
O56 O 0.59836 0.49165 0.71441 0.0
Cd57 Cd 0.60227 0.46834 0.71593 0.0
Cd58 Cd 0.63615 0.49579 0.74876 0.0
O59 O 0.62693 0.51407 0.73198 0.0
O60 O 0.58304 0.44981 0.681 0.0
O61 O 0.61405 0.46326 0.67188 0.0
C62 C 0.59691 0.45222 0.66025 0.0
C63 C 0.6686 0.50562 0.75028 0.0
C64 C 0.61027 0.50909 0.72063 0.0
C65 C 0.60755 0.46209 0.79404 0.0
O66 O 0.62229 0.47848 0.79229 0.0
O67 O 0.5977 0.45436 0.76557 0.0
O68 O 0.66131 0.5129 0.77155 0.0
O69 O 0.65764 0.49352 0.72608 0.0
O70 O 0.10733 0.60011 0.87923 0.0
Cd71 Cd 0.13495 0.60514 0.88071 0.0
Cd72 Cd 0.13973 0.63801 0.91428 0.0
O73 O 0.11228 0.62831 0.89654 0.0
O74 O 0.13488 0.5862 0.84579 0.0
O75 O 0.15164 0.61726 0.83658 0.0
C76 C 0.14603 0.60021 0.82499 0.0
C77 C 0.16231 0.67044 0.91614 0.0
C78 C 0.10112 0.6115 0.88517 0.0
C79 C 0.1458 0.61004 0.95911 0.0
O80 O 0.14309 0.62414 0.9579 0.0
O81 O 0.14469 0.60086 0.93019 0.0
O82 O 0.14752 0.66315 0.93687 0.0
O83 O 0.16363 0.65951 0.8921 0.0
O84 O 0.89283 0.49002 0.89839 0.0
Cd85 Cd 0.86548 0.46692 0.8972 0.0
Cd86 Cd 0.85951 0.49465 0.86394 0.0
O87 O 0.88707 0.5127 0.88088 0.0
O88 O 0.86604 0.44842 0.93235 0.0
O89 O 0.84869 0.46211 0.94122 0.0
C90 C 0.85465 0.45098 0.953 0.0
C91 C 0.83728 0.50496 0.86089 0.0
C92 C 0.89859 0.5075 0.89216 0.0
C93 C 0.85391 0.46051 0.81927 0.0
O94 O 0.85582 0.47701 0.82082 0.0
O95 O 0.85593 0.45278 0.8478 0.0
O96 O 0.85203 0.51196 0.84009 0.0
O97 O 0.83579 0.49295 0.88563 0.0
O98 O 0.40231 0.89381 0.06724 0.0
Cd99 Cd 0.39802 0.86644 0.06629 0.0
Cd100 Cd 0.36492 0.86064 0.03054 0.0
O101 O 0.37433 0.88824 0.04707 0.0
O102 O 0.41663 0.86694 0.10256 0.0
O103 O 0.38548 0.84953 0.10993 0.0
C104 C 0.40241 0.85548 0.12259 0.0
C105 C 0.33238 0.83844 0.02725 0.0
C106 C 0.39079 0.89966 0.05965 0.0
C107 C 0.39396 0.85486 0.98825 0.0
O108 O 0.37936 0.85677 0.98853 0.0
O109 O 0.40326 0.85692 0.01747 0.0
O110 O 0.34026 0.85296 1.0059 0.0
O111 O 0.34278 0.83712 0.05246 0.0
O112 O 0.50693 0.4008 0.23187 0.0
Cd113 Cd 0.52993 0.39637 0.23062 0.0
Cd114 Cd 0.50234 0.36338 0.19646 0.0
O115 O 0.4841 0.37238 0.21461 0.0
O116 O 0.54837 0.41534 0.26606 0.0
O117 O 0.53458 0.38427 0.27467 0.0
C118 C 0.54567 0.40132 0.28667 0.0
C119 C 0.49295 0.33106 0.19338 0.0
C120 C 0.4894 0.38911 0.22596 0.0
C121 C 0.53624 0.39215 0.15217 0.0
O122 O 0.51951 0.37787 0.15315 0.0
O123 O 0.54421 0.40114 0.18129 0.0
O124 O 0.48536 0.33837 0.17296 0.0
O125 O 0.50505 0.34187 0.21773 0.0
O126 O 0.10806 0.51113 0.39667 0.0
Cd127 Cd 0.13544 0.53415 0.39527 0.0
Cd128 Cd 0.14123 0.50641 0.3623 0.0
O129 O 0.11374 0.48834 0.37953 0.0
O130 O 0.13502 0.55267 0.43061 0.0
O131 O 0.15224 0.53881 0.43919 0.0
C132 C 0.14633 0.54994 0.45119 0.0
C133 C 0.16373 0.49645 0.35989 0.0
C134 C 0.10226 0.49361 0.39071 0.0
C135 C 0.14665 0.54028 0.31718 0.0
O136 O 0.1446 0.52373 0.31883 0.0
O137 O 0.14494 0.5482 0.34575 0.0
O138 O 0.14897 0.48915 0.33911 0.0
O139 O 0.1651 0.50859 0.38423 0.0
O140 O 0.59932 0.10603 0.56139 0.0
Cd141 Cd 0.60415 0.13361 0.55982 0.0
Cd142 Cd 0.63707 0.13866 0.52627 0.0
O143 O 0.62756 0.11124 0.54374 0.0
O144 O 0.58531 0.13348 0.59506 0.0
O145 O 0.61641 0.15034 0.60381 0.0
C146 C 0.59939 0.14466 0.61571 0.0
C147 C 0.6695 0.16129 0.52503 0.0
C148 C 0.61082 0.09998 0.55526 0.0
C149 C 0.60892 0.1444 0.48138 0.0
O150 O 0.62314 0.14188 0.48262 0.0
O151 O 0.59974 0.14325 0.51031 0.0
O152 O 0.66231 0.14667 0.50387 0.0
O153 O 0.65844 0.16248 0.54895 0.0
O154 O 0.49347 0.59958 0.7303 0.0
Cd155 Cd 0.47032 0.60366 0.72664 0.0
Cd156 Cd 0.49801 0.63676 0.69483 0.0
O157 O 0.51634 0.62824 0.71453 0.0
O158 O 0.45166 0.5846 0.76162 0.0
O159 O 0.46444 0.61565 0.76932 0.0
C160 C 0.45364 0.59858 0.78153 0.0
C161 C 0.50598 0.66869 0.69464 0.0
C162 C 0.51106 0.6115 0.72575 0.0
C163 C 0.46565 0.60832 0.64752 0.0
O164 O 0.48225 0.62272 0.64975 0.0
O165 O 0.45712 0.59902 0.67607 0.0
O166 O 0.515 0.66267 0.67483 0.0
O167 O 0.49311 0.65674 0.71667 0.0
H168 H 0.52833 0.15496 0.18701 0.0
H169 H 0.54195 0.15802 0.24748 0.0
H170 H 0.58577 0.14881 0.20229 0.0
H171 H 0.57223 0.14578 0.14112 0.0
H172 H 0.54553 0.12856 0.28124 0.0
H173 H 0.61506 0.19573 0.27021 0.0
H174 H 0.59567 0.18968 0.23883 0.0
H175 H 0.60991 0.17851 0.23471 0.0
C176 C 0.541 0.15379 0.18968 0.0
C177 C 0.54914 0.15002 0.15915 0.0
C178 C 0.54876 0.15556 0.22435 0.0
C179 C 0.56489 0.15374 0.22932 0.0
C180 C 0.57345 0.15053 0.1989 0.0
H181 H 0.62521 0.14645 0.41529 0.0
H182 H 0.61424 0.1497 0.35542 0.0
C183 C 0.56567 0.14874 0.164 0.0
C184 C 0.57174 0.15377 0.26677 0.0
H185 H 0.60948 0.17769 0.32431 0.0
C186 C 0.55947 0.13936 0.29079 0.0
C187 C 0.58993 0.16786 0.27897 0.0
C188 C 0.6034 0.18394 0.25452 0.0
C189 C 0.56506 0.13837 0.32655 0.0
C190 C 0.58325 0.15248 0.33888 0.0
C191 C 0.59549 0.16698 0.31487 0.0
C192 C 0.59029 0.15172 0.37581 0.0
C193 C 0.55166 0.12186 0.35034 0.0
C194 C 0.58068 0.15218 0.40738 0.0
C195 C 0.58685 0.15017 0.44192 0.0
C196 C 0.60283 0.14784 0.44542 0.0
C197 C 0.61278 0.14811 0.41373 0.0
C198 C 0.60657 0.15002 0.37937 0.0
H199 H 0.54043 0.10999 0.33408 0.0
H200 H 0.55952 0.11631 0.36619 0.0
H201 H 0.54455 0.12673 0.3699 0.0
H202 H 0.5683 0.15389 0.40527 0.0
H203 H 0.57896 0.15017 0.46576 0.0
H204 H 0.42916 0.57166 0.30587 0.0
H205 H 0.44025 0.58482 0.36721 0.0
H206 H 0.38634 0.54275 0.41237 0.0
H207 H 0.37517 0.52956 0.35182 0.0
H208 H 0.42236 0.59802 0.42322 0.0
H209 H 0.42778 0.53508 0.46566 0.0
H210 H 0.4269 0.54085 0.41839 0.0
H211 H 0.40553 0.5299 0.44529 0.0
C212 C 0.41961 0.56536 0.32882 0.0
C213 C 0.40136 0.54943 0.32394 0.0
C214 C 0.42597 0.57287 0.36379 0.0
C215 C 0.41419 0.56452 0.39426 0.0
C216 C 0.39573 0.54919 0.38924 0.0
H217 H 0.43068 0.57771 0.62974 0.0
H218 H 0.41707 0.56769 0.56849 0.0
C219 C 0.38939 0.5417 0.35451 0.0
C220 C 0.42125 0.57123 0.43161 0.0
H221 H 0.43226 0.55741 0.51155 0.0
C222 C 0.42462 0.58923 0.44255 0.0
C223 C 0.42399 0.5596 0.45674 0.0
C224 C 0.42103 0.54033 0.446 0.0
C225 C 0.43047 0.59582 0.4783 0.0
C226 C 0.43337 0.58423 0.50339 0.0
C227 C 0.42992 0.56621 0.49237 0.0
C228 C 0.44093 0.59087 0.54062 0.0
C229 C 0.43314 0.61496 0.48903 0.0
C230 C 0.45886 0.60712 0.54518 0.0
C231 C 0.46662 0.61287 0.57994 0.0
C232 C 0.4567 0.60238 0.61101 0.0
C233 C 0.43867 0.58612 0.60644 0.0
C234 C 0.43088 0.58038 0.57149 0.0
H235 H 0.42487 0.61922 0.47106 0.0
H236 H 0.42874 0.61491 0.51773 0.0
H237 H 0.44841 0.6259 0.48638 0.0
H238 H 0.46709 0.61515 0.52175 0.0
H239 H 0.48058 0.62542 0.58231 0.0
H240 H 0.85471 0.42799 0.80078 0.0
H241 H 0.8517 0.41467 0.73932 0.0
H242 H 0.8417 0.45818 0.6953 0.0
H243 H 0.84473 0.47158 0.75602 0.0
H244 H 0.82079 0.40232 0.6843 0.0
H245 H 0.88957 0.46431 0.64049 0.0
H246 H 0.88305 0.45885 0.68788 0.0
H247 H 0.87293 0.47006 0.66091 0.0
C248 C 0.85167 0.43458 0.77806 0.0
C249 C 0.8502 0.45098 0.78328 0.0
C250 C 0.84996 0.42697 0.74302 0.0
C251 C 0.8468 0.43568 0.71282 0.0
C252 C 0.84446 0.45147 0.71821 0.0
H253 H 0.84995 0.42153 0.47742 0.0
H254 H 0.84582 0.4317 0.53813 0.0
C255 C 0.84618 0.45908 0.75302 0.0
C256 C 0.8467 0.42885 0.67536 0.0
H257 H 0.87122 0.442 0.59502 0.0
C258 C 0.83181 0.41093 0.66475 0.0
C259 C 0.86105 0.44023 0.64994 0.0
C260 C 0.87766 0.45938 0.66031 0.0
C261 C 0.8308 0.40414 0.62909 0.0
C262 C 0.84528 0.41545 0.60374 0.0
C263 C 0.86008 0.43342 0.61439 0.0
C264 C 0.84608 0.40849 0.56676 0.0
C265 C 0.81411 0.38505 0.61875 0.0
C266 C 0.84761 0.39213 0.56279 0.0
C267 C 0.84993 0.3863 0.52833 0.0
C268 C 0.85097 0.39682 0.497 0.0
C269 C 0.84917 0.41309 0.50094 0.0
C270 C 0.84682 0.41892 0.53558 0.0
H271 H 0.80165 0.38112 0.63671 0.0
H272 H 0.80978 0.38498 0.58999 0.0
H273 H 0.81819 0.37395 0.62181 0.0
H274 H 0.84757 0.38413 0.58648 0.0
H275 H 0.85132 0.37372 0.52643 0.0
H276 H 0.42942 0.8514 0.64982 0.0
H277 H 0.41695 0.84855 0.71196 0.0
H278 H 0.46605 0.84788 0.75508 0.0
H279 H 0.47863 0.85079 0.69363 0.0
H280 H 0.40966 0.81986 0.76888 0.0
H281 H 0.46545 0.89326 0.80715 0.0
H282 H 0.46009 0.8855 0.76031 0.0
H283 H 0.47401 0.8786 0.78765 0.0
C284 C 0.43749 0.85053 0.67251 0.0
C285 C 0.45512 0.85152 0.66672 0.0
C286 C 0.43035 0.84889 0.70794 0.0
C287 C 0.44076 0.84831 0.73802 0.0
C288 C 0.45798 0.84863 0.73223 0.0
H289 H 0.4269 0.85421 0.97324 0.0
H290 H 0.43805 0.85039 0.91328 0.0
C291 C 0.46511 0.85025 0.697 0.0
C292 C 0.43397 0.84788 0.77566 0.0
H293 H 0.44487 0.874 0.85402 0.0
C294 C 0.4173 0.83168 0.78753 0.0
C295 C 0.44411 0.86328 0.79993 0.0
C296 C 0.46184 0.88123 0.78818 0.0
C297 C 0.41052 0.83045 0.82327 0.0
C298 C 0.42052 0.84598 0.84739 0.0
C299 C 0.43731 0.86207 0.83557 0.0
C300 C 0.41313 0.84647 0.88412 0.0
C301 C 0.39286 0.81244 0.83497 0.0
C302 C 0.39547 0.84552 0.88755 0.0
C303 C 0.3891 0.84767 0.92156 0.0
C304 C 0.40032 0.85101 0.95297 0.0
C305 C 0.41789 0.8516 0.94964 0.0
C306 C 0.42428 0.84945 0.91543 0.0
H307 H 0.39053 0.80007 0.81809 0.0
H308 H 0.39371 0.80916 0.86407 0.0
H309 H 0.38029 0.81429 0.83148 0.0
H310 H 0.38684 0.8437 0.8637 0.0
H311 H 0.3755 0.84715 0.92301 0.0
H312 H 0.57164 0.42278 0.1369 0.0
H313 H 0.5861 0.43378 0.07655 0.0
H314 H 0.53682 0.38702 0.02623 0.0
H315 H 0.52251 0.37574 0.08594 0.0
H316 H 0.57025 0.3928 0.99582 0.0
H317 H 0.56902 0.4606 1.00471 0.0
H318 H 0.58177 0.45694 0.04088 0.0
H319 H 0.55649 0.44137 0.03668 0.0
C320 C 0.56395 0.41479 0.11299 0.0
C321 C 0.54584 0.39848 0.11631 0.0
C322 C 0.57218 0.42114 0.07853 0.0
C323 C 0.56237 0.41139 0.04688 0.0
C324 C 0.54461 0.3948 0.05025 0.0
H325 H 0.57473 0.42895 0.81215 0.0
H326 H 0.56433 0.41558 0.87346 0.0
C327 C 0.53643 0.38842 0.08452 0.0
C328 C 0.5702 0.41856 0.01001 0.0
H329 H 0.58298 0.45597 0.95207 0.0
C330 C 0.57307 0.40663 0.98624 0.0
C331 C 0.5737 0.43653 0.99751 0.0
C332 C 0.56994 0.44956 0.02109 0.0
C333 C 0.57954 0.41228 0.95038 0.0
C334 C 0.58302 0.43023 0.93796 0.0
C335 C 0.58028 0.4422 0.96177 0.0
C336 C 0.58977 0.43712 0.9005 0.0
C337 C 0.58283 0.39915 0.92619 0.0
C338 C 0.60747 0.45358 0.89549 0.0
C339 C 0.6134 0.46125 0.86073 0.0
C340 C 0.60168 0.45268 0.83014 0.0
C341 C 0.58411 0.43586 0.83508 0.0
C342 C 0.57819 0.42817 0.87005 0.0
H343 H 0.58341 0.38779 0.94207 0.0
H344 H 0.57098 0.39225 0.90628 0.0
H345 H 0.5963 0.40725 0.91062 0.0
H346 H 0.61659 0.46071 0.91865 0.0
H347 H 0.62705 0.47416 0.85803 0.0
H348 H 0.14706 0.57346 0.29903 0.0
H349 H 0.14988 0.58671 0.23757 0.0
H350 H 0.15693 0.54152 0.19255 0.0
H351 H 0.15412 0.5282 0.25325 0.0
H352 H 0.18025 0.59747 0.18115 0.0
H353 H 0.10934 0.5378 0.14001 0.0
H354 H 0.11645 0.54331 0.18715 0.0
H355 H 0.12528 0.53096 0.15996 0.0
C356 C 0.1494 0.56647 0.27608 0.0
C357 C 0.15014 0.54965 0.28105 0.0
C358 C 0.151 0.57404 0.24105 0.0
C359 C 0.1533 0.56488 0.2106 0.0
C360 C 0.15485 0.5486 0.21568 0.0
H361 H 0.14893 0.57858 0.97545 0.0
H362 H 0.15285 0.56817 0.03606 0.0
C363 C 0.15327 0.54105 0.25048 0.0
C364 C 0.1534 0.57178 0.17323 0.0
H365 H 0.12799 0.55944 0.09388 0.0
C366 C 0.16882 0.58923 0.16204 0.0
C367 C 0.13852 0.56087 0.14839 0.0
C368 C 0.12136 0.54225 0.15941 0.0
C369 C 0.16986 0.596 0.12636 0.0
C370 C 0.15488 0.58516 0.10159 0.0
C371 C 0.13952 0.56765 0.11281 0.0
C372 C 0.15421 0.59218 0.06462 0.0
C373 C 0.18712 0.61453 0.11535 0.0
C374 C 0.15366 0.60908 0.06064 0.0
C375 C 0.15145 0.61504 0.02624 0.0
C376 C 0.14955 0.60414 0.99498 0.0
C377 C 0.1504 0.58733 0.99891 0.0
C378 C 0.15262 0.58136 0.0335 0.0
H379 H 0.19958 0.6179 0.13293 0.0
H380 H 0.19104 0.61412 0.08648 0.0
H381 H 0.1839 0.62624 0.11837 0.0
H382 H 0.1544 0.61742 0.08431 0.0
H383 H 0.15083 0.62805 0.02434 0.0
H384 H 0.50717 0.31123 0.22971 0.0
H385 H 0.5048 0.28109 0.21097 0.0
H386 H 0.46928 0.27744 0.12022 0.0
H387 H 0.47102 0.30703 0.13937 0.0
H388 H 0.45688 0.24327 0.14968 0.0
H389 H 0.53474 0.27795 0.12617 0.0
H390 H 0.5287 0.28023 0.17225 0.0
H391 H 0.52297 0.29134 0.13575 0.0
C392 C 0.49861 0.30383 0.20613 0.0
C393 C 0.48942 0.31162 0.18587 0.0
C394 C 0.49742 0.28672 0.19522 0.0
C395 C 0.4873 0.27728 0.16358 0.0
C396 C 0.47731 0.28453 0.14453 0.0
H397 H 0.50751 0.19626 0.04309 0.0
H398 H 0.50394 0.22355 0.06008 0.0
C399 C 0.47832 0.30148 0.15557 0.0
C400 C 0.48749 0.26022 0.14943 0.0
H401 H 0.51711 0.24434 0.12033 0.0
C402 C 0.47005 0.24351 0.14319 0.0
C403 C 0.50466 0.26067 0.14008 0.0
C404 C 0.52382 0.27856 0.14352 0.0
C405 C 0.46931 0.22715 0.12851 0.0
C406 C 0.4865 0.22734 0.12076 0.0
C407 C 0.50393 0.24415 0.12643 0.0
C408 C 0.48687 0.21012 0.10806 0.0
C409 C 0.45008 0.20999 0.12082 0.0
C410 C 0.47825 0.19343 0.12903 0.0
C411 C 0.48005 0.17779 0.11912 0.0
C412 C 0.49081 0.1786 0.08837 0.0
C413 C 0.49906 0.19515 0.06682 0.0
C414 C 0.4971 0.21078 0.07661 0.0
H415 H 0.43909 0.21413 0.11633 0.0
H416 H 0.45053 0.20207 0.09649 0.0
H417 H 0.44558 0.20028 0.14468 0.0
H418 H 0.47073 0.19271 0.15391 0.0
H419 H 0.47365 0.16534 0.13655 0.0
H420 H 0.30926 0.47549 0.30365 0.0
H421 H 0.27915 0.47291 0.32134 0.0
H422 H 0.28137 0.50575 0.22703 0.0
H423 H 0.31204 0.50896 0.20967 0.0
H424 H 0.27414 0.51931 0.2873 0.0
H425 H 0.2259 0.44133 0.28436 0.0
H426 H 0.24634 0.44784 0.31246 0.0
H427 H 0.24933 0.45258 0.26419 0.0
C428 C 0.30322 0.48189 0.2862 0.0
C429 C 0.31306 0.49243 0.25517 0.0
C430 C 0.28589 0.48029 0.2963 0.0
C431 C 0.27781 0.48888 0.27528 0.0
C432 C 0.2873 0.49892 0.2436 0.0
H433 H 0.16555 0.47414 0.30635 0.0
H434 H 0.19321 0.47199 0.28755 0.0
C435 C 0.30477 0.50068 0.23361 0.0
C436 C 0.26034 0.4887 0.28809 0.0
H437 H 0.2148 0.4594 0.3174 0.0
C438 C 0.26111 0.5062 0.29358 0.0
C439 C 0.24329 0.47159 0.29607 0.0
C440 C 0.24108 0.45228 0.2886 0.0
C441 C 0.24541 0.5071 0.30725 0.0
C442 C 0.22864 0.49002 0.31679 0.0
C443 C 0.22777 0.4725 0.31077 0.0
C444 C 0.21146 0.49 0.33086 0.0
C445 C 0.24683 0.52633 0.31048 0.0
C446 C 0.21225 0.50025 0.36237 0.0
C447 C 0.19642 0.50166 0.37309 0.0
C448 C 0.17947 0.49261 0.35274 0.0
C449 C 0.17839 0.48136 0.32261 0.0
C450 C 0.19422 0.48011 0.31176 0.0
H451 H 0.2584 0.53716 0.29309 0.0
H452 H 0.23324 0.52556 0.30263 0.0
H453 H 0.25006 0.53127 0.33918 0.0
H454 H 0.22524 0.50755 0.37815 0.0
H455 H 0.19767 0.51034 0.39655 0.0
H456 H 0.69395 0.16399 0.47143 0.0
H457 H 0.72423 0.19166 0.45511 0.0
H458 H 0.72018 0.22211 0.548 0.0
H459 H 0.68933 0.19451 0.5639 0.0
H460 H 0.72814 0.24287 0.48794 0.0
H461 H 0.77696 0.21394 0.49471 0.0
H462 H 0.75702 0.19983 0.46561 0.0
H463 H 0.75325 0.20147 0.51359 0.0
C464 C 0.69963 0.17641 0.48889 0.0
C465 C 0.68921 0.17703 0.51902 0.0
C466 C 0.71706 0.19223 0.47959 0.0
C467 C 0.72467 0.20891 0.50058 0.0
C468 C 0.71462 0.20936 0.53147 0.0
H469 H 0.83693 0.307 0.47165 0.0
H470 H 0.80929 0.27713 0.49027 0.0
C471 C 0.69704 0.19356 0.54063 0.0
C472 C 0.7422 0.2263 0.48838 0.0
H473 H 0.78811 0.24296 0.46098 0.0
C474 C 0.74131 0.24294 0.48238 0.0
C475 C 0.75944 0.22645 0.48136 0.0
C476 C 0.76181 0.20951 0.48953 0.0
C477 C 0.75705 0.25961 0.46906 0.0
C478 C 0.77399 0.25948 0.46035 0.0
C479 C 0.775 0.24295 0.46695 0.0
C480 C 0.79119 0.2767 0.44647 0.0
C481 C 0.75545 0.2773 0.46532 0.0
C482 C 0.7905 0.28606 0.41475 0.0
C483 C 0.8063 0.30334 0.40415 0.0
C484 C 0.82316 0.31135 0.4248 0.0
C485 C 0.82417 0.30128 0.45514 0.0
C486 C 0.80834 0.28417 0.46589 0.0
H487 H 0.74374 0.27649 0.48237 0.0
H488 H 0.76893 0.29023 0.47326 0.0
H489 H 0.75232 0.27887 0.43648 0.0
H490 H 0.77758 0.28026 0.39869 0.0
H491 H 0.80512 0.31069 0.38052 0.0
H492 H 0.53398 0.83618 0.61394 0.0
H493 H 0.53681 0.80872 0.63193 0.0
H494 H 0.48421 0.77137 0.57632 0.0
H495 H 0.4815 0.79887 0.55748 0.0
H496 H 0.51188 0.78043 0.67582 0.0
H497 H 0.5177 0.75022 0.54401 0.0
H498 H 0.52099 0.77387 0.5478 0.0
H499 H 0.4974 0.75346 0.54645 0.0
C500 C 0.52323 0.82216 0.60478 0.0
C501 C 0.50751 0.81969 0.58426 0.0
C502 C 0.52484 0.80648 0.61523 0.0
C503 C 0.51078 0.78799 0.6054 0.0
C504 C 0.49543 0.78552 0.58367 0.0
H505 H 0.48336 0.68292 0.71717 0.0
H506 H 0.48543 0.71277 0.69775 0.0
C507 C 0.49388 0.80125 0.57294 0.0
C508 C 0.51143 0.77134 0.6204 0.0
H509 H 0.51133 0.73062 0.59654 0.0
C510 C 0.5119 0.7696 0.65848 0.0
C511 C 0.5116 0.75731 0.59778 0.0
C512 C 0.51209 0.75886 0.55674 0.0
C513 C 0.51228 0.75408 0.67455 0.0
C514 C 0.51179 0.73972 0.65195 0.0
C515 C 0.51158 0.74159 0.61387 0.0
C516 C 0.5115 0.7226 0.66701 0.0
C517 C 0.51349 0.75339 0.71554 0.0
C518 C 0.5255 0.71823 0.65639 0.0
C519 C 0.52425 0.70113 0.66718 0.0
C520 C 0.50897 0.68804 0.68884 0.0
C521 C 0.49541 0.6928 0.70082 0.0
C522 C 0.49659 0.70988 0.68977 0.0
H523 H 0.51925 0.76774 0.7279 0.0
H524 H 0.49901 0.74412 0.72677 0.0
H525 H 0.52263 0.74744 0.7239 0.0
H526 H 0.53713 0.72783 0.63889 0.0
H527 H 0.53493 0.69789 0.65748 0.0
H528 H 0.69304 0.52761 0.8037 0.0
H529 H 0.72325 0.53019 0.82046 0.0
H530 H 0.7192 0.49523 0.72837 0.0
H531 H 0.68842 0.49202 0.712 0.0
H532 H 0.72689 0.48259 0.78918 0.0
H533 H 0.7761 0.56026 0.78087 0.0
H534 H 0.75611 0.55467 0.80966 0.0
H535 H 0.75243 0.54899 0.76178 0.0
C536 C 0.6987 0.52075 0.7865 0.0
C537 C 0.6883 0.5096 0.75646 0.0
C538 C 0.7161 0.52235 0.79605 0.0
C539 C 0.72367 0.51313 0.77543 0.0
C540 C 0.71366 0.50253 0.74461 0.0
H541 H 0.83554 0.52663 0.80599 0.0
H542 H 0.80803 0.52894 0.78676 0.0
C543 C 0.69612 0.50078 0.73518 0.0
C544 C 0.74113 0.51323 0.78797 0.0
H545 H 0.78705 0.54245 0.81533 0.0
C546 C 0.7401 0.49569 0.79457 0.0
C547 C 0.75842 0.53031 0.79478 0.0
C548 C 0.76091 0.5496 0.78603 0.0
C549 C 0.75576 0.49473 0.80828 0.0
C550 C 0.77276 0.5118 0.81674 0.0
C551 C 0.7739 0.52936 0.80954 0.0
C552 C 0.78988 0.51175 0.83095 0.0
C553 C 0.75402 0.47541 0.81271 0.0
C554 C 0.78911 0.50193 0.86307 0.0
C555 C 0.80484 0.50041 0.87404 0.0
C556 C 0.82169 0.50896 0.85334 0.0
C557 C 0.82277 0.51981 0.82255 0.0
C558 C 0.80703 0.52115 0.81145 0.0
H559 H 0.74226 0.46442 0.79588 0.0
H560 H 0.76745 0.47581 0.80497 0.0
H561 H 0.75089 0.47095 0.84167 0.0
H562 H 0.77619 0.49503 0.87917 0.0
H563 H 0.8036 0.49206 0.898 0.0
H564 H 0.1963 0.69011 0.87953 0.0
H565 H 0.22406 0.72036 0.89778 0.0
H566 H 0.19214 0.7246 0.98783 0.0
H567 H 0.1643 0.69489 0.96917 0.0
H568 H 0.21417 0.75866 0.95777 0.0
H569 H 0.25682 0.7236 0.98331 0.0
H570 H 0.24859 0.72114 0.93713 0.0
H571 H 0.23166 0.71031 0.97361 0.0
C572 C 0.19512 0.69767 0.90282 0.0
C573 C 0.17815 0.69 0.92308 0.0
C574 C 0.21105 0.71485 0.91346 0.0
C575 C 0.21034 0.72447 0.9448 0.0
C576 C 0.19309 0.71736 0.96376 0.0
H577 H 0.31127 0.80539 0.06595 0.0
H578 H 0.28039 0.7782 0.04871 0.0
C579 C 0.17715 0.70034 0.95299 0.0
C580 C 0.22763 0.74153 0.95886 0.0
H581 H 0.27296 0.75722 0.98874 0.0
C582 C 0.22703 0.75835 0.96459 0.0
C583 C 0.24424 0.74098 0.96865 0.0
C584 C 0.24536 0.723 0.96575 0.0
C585 C 0.24266 0.7747 0.97924 0.0
C586 C 0.25956 0.77439 0.98746 0.0
C587 C 0.26005 0.75749 0.98227 0.0
C588 C 0.27715 0.79157 1.00023 0.0
C589 C 0.24074 0.79199 0.98638 0.0
C590 C 0.28547 0.80819 0.97905 0.0
C591 C 0.30293 0.82378 0.98908 0.0
C592 C 0.31265 0.82297 0.0202 0.0
C593 C 0.30411 0.80649 0.04194 0.0
C594 C 0.28651 0.79093 0.03202 0.0
H595 H 0.22561 0.78799 0.99049 0.0
H596 H 0.24902 0.79994 0.01076 0.0
H597 H 0.24614 0.80161 0.96242 0.0
H598 H 0.27883 0.80889 0.95393 0.0
H599 H 0.30916 0.83617 0.97151 0.0
H600 H 0.62546 0.16394 0.66986 0.0
H601 H 0.61878 0.16776 0.73364 0.0
H602 H 0.55876 0.13987 0.70957 0.0
H603 H 0.56523 0.13586 0.64611 0.0
H604 H 0.59831 0.18462 0.76826 0.0
H605 H 0.56377 0.10649 0.78952 0.0
H606 H 0.57851 0.11826 0.75039 0.0
H607 H 0.55437 0.11349 0.75203 0.0
C608 C 0.61087 0.15887 0.67803 0.0
C609 C 0.59587 0.14942 0.65295 0.0
C610 C 0.60708 0.16107 0.71448 0.0
C611 C 0.58825 0.15381 0.72645 0.0
C612 C 0.57337 0.14529 0.70104 0.0
H613 H 0.54284 0.16481 0.93489 0.0
H614 H 0.55394 0.16879 0.87159 0.0
C615 C 0.57712 0.14307 0.66472 0.0
C616 C 0.58397 0.15402 0.76578 0.0
H617 H 0.56133 0.12453 0.83774 0.0
C618 C 0.59027 0.17151 0.78355 0.0
C619 C 0.57369 0.1369 0.78577 0.0
C620 C 0.56732 0.1177 0.76864 0.0
C621 C 0.58623 0.1723 0.82067 0.0
C622 C 0.57548 0.15513 0.84034 0.0
C623 C 0.56947 0.13769 0.82262 0.0
C624 C 0.57039 0.15472 0.87944 0.0
C625 C 0.59374 0.19146 0.83866 0.0
C626 C 0.57594 0.14553 0.90496 0.0
C627 C 0.56953 0.14314 0.941 0.0
C628 C 0.55735 0.14982 0.95237 0.0
C629 C 0.5523 0.1596 0.9271 0.0
C630 C 0.55871 0.16196 0.89092 0.0
H631 H 0.60557 0.20296 0.82279 0.0
H632 H 0.5821 0.19485 0.84057 0.0
H633 H 0.59884 0.19136 0.86671 0.0
H634 H 0.5849 0.13979 0.89674 0.0
H635 H 0.57373 0.13556 0.9597 0.0
H636 H 0.43776 0.56542 0.81989 0.0
H637 H 0.42642 0.56001 0.88256 0.0
H638 H 0.43806 0.61797 0.88967 0.0
H639 H 0.45036 0.62376 0.82704 0.0
H640 H 0.4508 0.61023 0.94746 0.0
H641 H 0.37815 0.55008 0.92774 0.0
H642 H 0.39484 0.54427 0.90824 0.0
H643 H 0.39277 0.56381 0.88987 0.0
C644 C 0.43765 0.57697 0.83451 0.0
C645 C 0.44489 0.59501 0.81834 0.0
C646 C 0.43098 0.5738 0.87041 0.0
C647 C 0.4309 0.58841 0.89082 0.0
C648 C 0.43781 0.60639 0.8745 0.0
H649 H 0.37965 0.55373 0.10955 0.0
H650 H 0.38548 0.56607 0.04695 0.0
C651 C 0.44481 0.60968 0.83865 0.0
C652 C 0.42505 0.58523 0.92996 0.0
H653 H 0.39165 0.55275 0.98804 0.0
C654 C 0.43768 0.59782 0.95624 0.0
C655 C 0.40773 0.56935 0.94176 0.0
C656 C 0.39253 0.55627 0.91531 0.0
C657 C 0.43403 0.5944 0.99376 0.0
C658 C 0.41763 0.5775 1.00552 0.0
C659 C 0.40444 0.56551 0.97928 0.0
C660 C 0.41444 0.57141 0.04452 0.0
C661 C 0.44786 0.609 0.02029 0.0
C662 C 0.42868 0.57023 0.06416 0.0
C663 C 0.4255 0.56354 0.10003 0.0
C664 C 0.4078 0.55736 0.11695 0.0
C665 C 0.39347 0.55845 0.09734 0.0
C666 C 0.39678 0.56547 0.06152 0.0
H667 H 0.45475 0.62352 0.00828 0.0
H668 H 0.44075 0.60909 0.0461 0.0
H669 H 0.4593 0.60573 0.02661 0.0
H670 H 0.44217 0.574 0.05144 0.0
H671 H 0.43676 0.56263 0.1141 0.0
H672 H 0.86398 0.42595 0.98299 0.0
H673 H 0.8595 0.41478 0.04596 0.0
H674 H 0.83062 0.44593 0.07049 0.0
H675 H 0.83485 0.45705 0.00717 0.0
H676 H 0.87468 0.43856 0.10501 0.0
H677 H 0.7962 0.39421 0.11917 0.0
H678 H 0.80795 0.40083 0.07536 0.0
H679 H 0.80439 0.41764 0.10112 0.0
C680 C 0.85637 0.43019 1.00155 0.0
C681 C 0.84981 0.44244 0.99002 0.0
C682 C 0.85384 0.42378 0.03759 0.0
C683 C 0.84461 0.42938 0.06293 0.0
C684 C 0.83748 0.44112 0.05129 0.0
H685 H 0.86259 0.43467 0.29647 0.0
H686 H 0.85859 0.44105 0.23295 0.0
C687 C 0.83999 0.44754 0.0151 0.0
C688 C 0.84409 0.42432 0.10206 0.0
H689 H 0.8144 0.40143 0.17386 0.0
C690 C 0.86148 0.43039 0.11999 0.0
C691 C 0.82687 0.41354 0.12155 0.0
C692 C 0.80776 0.406 0.10332 0.0
C693 C 0.86217 0.42619 0.15688 0.0
C694 C 0.84499 0.41586 0.17667 0.0
C695 C 0.82755 0.4095 0.1587 0.0
C696 C 0.8451 0.41159 0.21602 0.0
C697 C 0.88132 0.43265 0.17429 0.0
C698 C 0.8381 0.39279 0.22794 0.0
C699 C 0.84029 0.38905 0.26441 0.0
C700 C 0.84949 0.40407 0.28955 0.0
C701 C 0.85557 0.42277 0.27782 0.0
C702 C 0.85335 0.42647 0.24147 0.0
H703 H 0.89264 0.43635 0.15358 0.0
H704 H 0.88535 0.44552 0.19104 0.0
H705 H 0.88077 0.42144 0.19246 0.0
H706 H 0.83162 0.38109 0.20872 0.0
H707 H 0.83543 0.3745 0.27255 0.0
H708 H 0.42421 0.86042 0.46793 0.0
H709 H 0.41301 0.85624 0.405 0.0
H710 H 0.4469 0.83058 0.37782 0.0
H711 H 0.45802 0.83449 0.44106 0.0
H712 H 0.43664 0.87344 0.347 0.0
H713 H 0.39637 0.79514 0.32685 0.0
H714 H 0.40225 0.80599 0.37152 0.0
H715 H 0.41991 0.80413 0.34503 0.0
C716 C 0.42902 0.85354 0.4488 0.0
C717 C 0.44206 0.84783 0.45955 0.0
C718 C 0.4226 0.85117 0.41277 0.0
C719 C 0.42899 0.84299 0.38667 0.0
C720 C 0.44147 0.83661 0.39758 0.0
H721 H 0.43642 0.86532 0.1549 0.0
H722 H 0.44218 0.86075 0.21847 0.0
C723 C 0.44789 0.83893 0.43374 0.0
C724 C 0.42407 0.84293 0.34758 0.0
H725 H 0.40341 0.8143 0.27339 0.0
C726 C 0.42929 0.86048 0.331 0.0
C727 C 0.41437 0.82602 0.32673 0.0
C728 C 0.40772 0.80671 0.34344 0.0
C729 C 0.42536 0.86163 0.29414 0.0
C730 C 0.41618 0.84481 0.27298 0.0
C731 C 0.41061 0.82719 0.2896 0.0
C732 C 0.41241 0.84548 0.23354 0.0
C733 C 0.43091 0.88088 0.27818 0.0
C734 C 0.3937 0.83774 0.22054 0.0
C735 C 0.39032 0.84029 0.18403 0.0
C736 C 0.40562 0.85057 0.15993 0.0
C737 C 0.42429 0.85746 0.17273 0.0
C738 C 0.42764 0.8549 0.20911 0.0
H739 H 0.43363 0.89159 0.29972 0.0
H740 H 0.44416 0.88604 0.262 0.0
H741 H 0.41962 0.87995 0.25973 0.0
H742 H 0.38175 0.83036 0.23895 0.0
H743 H 0.37577 0.83477 0.17505 0.0
H744 H 0.56246 0.42684 0.63096 0.0
H745 H 0.55547 0.41556 0.56807 0.0
H746 H 0.61532 0.44733 0.54219 0.0
H747 H 0.62251 0.4585 0.60543 0.0
H748 H 0.56305 0.43884 0.5092 0.0
H749 H 0.59872 0.39606 0.49309 0.0
H750 H 0.5939 0.40268 0.53718 0.0
H751 H 0.61384 0.41964 0.51061 0.0
C752 C 0.57421 0.43119 0.61211 0.0
C753 C 0.59306 0.44361 0.62326 0.0
C754 C 0.57017 0.42472 0.57611 0.0
C755 C 0.58486 0.43046 0.55039 0.0
C756 C 0.60377 0.4424 0.56166 0.0
H757 H 0.5704 0.43562 0.31741 0.0
H758 H 0.58086 0.44212 0.38087 0.0
C759 C 0.60785 0.44885 0.59781 0.0
C760 C 0.58011 0.42533 0.51132 0.0
H761 H 0.58727 0.4031 0.43877 0.0
C762 C 0.56831 0.43096 0.49389 0.0
C763 C 0.58683 0.41492 0.49137 0.0
C764 C 0.59889 0.4078 0.50903 0.0
C765 C 0.56324 0.42672 0.45706 0.0
C766 C 0.57041 0.41681 0.4368 0.0
C767 C 0.58196 0.41086 0.45427 0.0
C768 C 0.56591 0.41257 0.39745 0.0
C769 C 0.55004 0.43268 0.44025 0.0
C770 C 0.55467 0.39371 0.38531 0.0
C771 C 0.5487 0.38991 0.34886 0.0
C772 C 0.55392 0.40492 0.32394 0.0
C773 C 0.56598 0.42372 0.33588 0.0
C774 C 0.57194 0.42748 0.37221 0.0
H775 H 0.54221 0.43592 0.46132 0.0
H776 H 0.5585 0.44572 0.42372 0.0
H777 H 0.53952 0.42139 0.42199 0.0
H778 H 0.54993 0.38199 0.40434 0.0
H779 H 0.53945 0.37528 0.34055 0.0
H780 H 0.16615 0.54368 0.50499 0.0
H781 H 0.1699 0.55408 0.56883 0.0
H782 H 0.14074 0.58505 0.54554 0.0
H783 H 0.1368 0.57468 0.48202 0.0
H784 H 0.18608 0.59153 0.60348 0.0
H785 H 0.1082 0.54603 0.62565 0.0
H786 H 0.12015 0.54345 0.58638 0.0
H787 H 0.11468 0.56234 0.5881 0.0
C788 C 0.16078 0.55293 0.51334 0.0
C789 C 0.151 0.55818 0.48846 0.0
C790 C 0.16294 0.55886 0.54982 0.0
C791 C 0.15532 0.57008 0.56202 0.0
C792 C 0.14646 0.57615 0.53682 0.0
H793 H 0.16506 0.62602 0.77033 0.0
H794 H 0.16926 0.61908 0.70703 0.0
C795 C 0.14428 0.57024 0.50046 0.0
C796 C 0.15552 0.57449 0.60139 0.0
H797 H 0.12601 0.56676 0.67375 0.0
C798 C 0.17298 0.5861 0.61894 0.0
C799 C 0.13841 0.56717 0.62159 0.0
C800 C 0.11928 0.55391 0.60466 0.0
C801 C 0.17373 0.59089 0.65608 0.0
C802 C 0.15656 0.584 0.67597 0.0
C803 C 0.13916 0.57214 0.65846 0.0
C804 C 0.1561 0.58864 0.71507 0.0
C805 C 0.19286 0.60303 0.67384 0.0
C806 C 0.14736 0.57388 0.74069 0.0
C807 C 0.14484 0.57778 0.77673 0.0
C808 C 0.15094 0.59656 0.78799 0.0
C809 C 0.1603 0.61142 0.76262 0.0
C810 C 0.16279 0.60748 0.72644 0.0
H811 H 0.20452 0.6031 0.65781 0.0
H812 H 0.19579 0.61791 0.67577 0.0
H813 H 0.19303 0.59793 0.70187 0.0
H814 H 0.14205 0.55923 0.73255 0.0
H815 H 0.13759 0.56598 0.79551 0.0
H816 H 0.49721 0.07359 0.02077 0.0
H817 H 0.475 0.03935 0.02138 0.0
H818 H 0.4329 0.0486 0.0746 0.0
H819 H 0.45509 0.083 0.07429 0.0
H820 H 0.44007 0.02177 0.10966 0.0
H821 H 0.4262 0.00614 0.96213 0.0
H822 H 0.45107 0.02001 0.97304 0.0
H823 H 0.43581 0.02985 0.98061 0.0
C824 C 0.48313 0.06841 0.03214 0.0
C825 C 0.47795 0.08106 0.04753 0.0
C826 C 0.47041 0.04882 0.03227 0.0
C827 C 0.45225 0.04147 0.0477 0.0
C828 C 0.44683 0.05403 0.06237 0.0
H829 H 0.37253 0.91844 0.03602 0.0
H830 H 0.38489 0.95286 0.0359 0.0
C831 C 0.45952 0.07368 0.06207 0.0
C832 C 0.43961 0.02061 0.05095 0.0
H833 H 0.41878 0.97957 1.00113 0.0
C834 C 0.43515 0.01253 0.08595 0.0
C835 C 0.43304 0.00862 0.02 0.0
C836 C 0.4366 0.01658 0.9818 0.0
C837 C 0.42511 0.99271 0.0908 0.0
C838 C 0.41959 0.98072 0.05984 0.0
C839 C 0.42318 0.9888 0.02484 0.0
C840 C 0.41127 0.95984 0.06305 0.0
C841 C 0.42076 0.98476 0.12901 0.0
C842 C 0.42197 0.95239 0.07855 0.0
C843 C 0.41501 0.93278 0.0786 0.0
C844 C 0.3972 0.92021 0.06301 0.0
C845 C 0.38627 0.9277 0.04837 0.0
C846 C 0.39331 0.94736 0.04819 0.0
H847 H 0.42081 0.99521 0.14869 0.0
H848 H 0.40671 0.97148 0.13027 0.0
H849 H 0.43183 0.98136 0.13772 0.0
H850 H 0.43602 0.9618 0.08956 0.0
H851 H 0.42383 0.92753 0.09004 0.0
H852 H 0.45164 0.37008 0.2066 0.0
H853 H 0.42979 0.3827 0.20565 0.0
H854 H 0.47362 0.43562 0.25123 0.0
H855 H 0.49548 0.42317 0.25262 0.0
H856 H 0.43657 0.42185 0.28197 0.0
H857 H 0.43672 0.42387 0.13015 0.0
H858 H 0.43022 0.40134 0.15091 0.0
H859 H 0.45406 0.42093 0.15582 0.0
C860 C 0.45657 0.38432 0.21688 0.0
C861 C 0.47539 0.39568 0.22938 0.0
C862 C 0.44408 0.39152 0.21611 0.0
C863 C 0.45022 0.41018 0.22783 0.0
C864 C 0.46866 0.42121 0.24192 0.0
H865 H 0.42291 0.49623 0.18572 0.0
H866 H 0.43472 0.47386 0.18767 0.0
C867 C 0.48114 0.41406 0.24262 0.0
C868 C 0.4379 0.41873 0.22396 0.0
H869 H 0.41945 0.43591 0.16059 0.0
C870 C 0.43257 0.42471 0.2555 0.0
C871 C 0.43293 0.42258 0.18929 0.0
C872 C 0.43884 0.417 0.15451 0.0
C873 C 0.42279 0.43488 0.25329 0.0
C874 C 0.41806 0.43897 0.2186 0.0
C875 C 0.42297 0.43258 0.1871 0.0
C876 C 0.40977 0.4515 0.21446 0.0
C877 C 0.41839 0.44196 0.28797 0.0
C878 C 0.39156 0.44609 0.22789 0.0
C879 C 0.38471 0.45887 0.2268 0.0
C880 C 0.39601 0.47727 0.21226 0.0
C881 C 0.41388 0.48224 0.19731 0.0
C882 C 0.42066 0.46946 0.19833 0.0
H883 H 0.42583 0.44035 0.31197 0.0
H884 H 0.42254 0.45719 0.28531 0.0
H885 H 0.40284 0.4337 0.29323 0.0
H886 H 0.38283 0.43216 0.23994 0.0
H887 H 0.37086 0.45455 0.23844 0.0
H888 H 0.08342 0.45629 0.3686 0.0
H889 H 0.04894 0.43442 0.36797 0.0
H890 H 0.04011 0.47728 0.41903 0.0
H891 H 0.07445 0.49921 0.41993 0.0
H892 H 0.01739 0.43875 0.44783 0.0
H893 H 0.01375 0.44349 0.29676 0.0
H894 H 0.03055 0.43721 0.31461 0.0
H895 H 0.03401 0.46054 0.32293 0.0
C896 C 0.07417 0.46099 0.38014 0.0
C897 C 0.08169 0.47957 0.39406 0.0
C898 C 0.05448 0.44851 0.37956 0.0
C899 C 0.04203 0.45437 0.393 0.0
C900 C 0.04952 0.47255 0.4084 0.0
H901 H 0.92693 0.42492 0.36088 0.0
H902 H 0.96137 0.43809 0.36112 0.0
C903 C 0.06915 0.48506 0.40882 0.0
C904 C 0.02116 0.44202 0.3897 0.0
H905 H 0.98483 0.42499 0.32785 0.0
C906 C 0.01024 0.4355 0.42163 0.0
C907 C 0.01196 0.43804 0.35542 0.0
C908 C 0.02307 0.44525 0.32038 0.0
C909 C 0.99026 0.42539 0.42024 0.0
C910 C 0.98105 0.4216 0.38598 0.0
C911 C 0.99199 0.4278 0.35401 0.0
C912 C 0.96011 0.41273 0.38304 0.0
C913 C 0.97915 0.41954 0.45548 0.0
C914 C 0.948 0.3939 0.39434 0.0
C915 C 0.92824 0.38628 0.39421 0.0
C916 C 0.92031 0.3974 0.38278 0.0
C917 C 0.93253 0.41599 0.37004 0.0
C918 C 0.95223 0.42355 0.3701 0.0
H919 H 0.98839 0.42638 0.47958 0.0
H920 H 0.96773 0.42329 0.45508 0.0
H921 H 0.97231 0.40387 0.45873 0.0
H922 H 0.95384 0.38525 0.40391 0.0
H923 H 0.91925 0.3719 0.40407 0.0
H924 H 0.50144 0.92564 0.52422 0.0
H925 H 0.52358 0.95992 0.52321 0.0
H926 H 0.56781 0.95109 0.56743 0.0
H927 H 0.54574 0.91667 0.56863 0.0
H928 H 0.56132 0.97795 0.60616 0.0
H929 H 0.57033 0.99293 0.45766 0.0
H930 H 0.54595 0.97881 0.4719 0.0
H931 H 0.56174 0.96937 0.47619 0.0
C932 C 0.51595 0.93092 0.53322 0.0
C933 C 0.52181 0.9184 0.54656 0.0
C934 C 0.52861 0.95053 0.53244 0.0
C935 C 0.54735 0.95799 0.54495 0.0
C936 C 0.55342 0.94555 0.55747 0.0
H937 H 0.6283 0.08056 0.53106 0.0
H938 H 0.61527 0.04603 0.53093 0.0
C939 C 0.54079 0.9259 0.55804 0.0
C940 C 0.56004 0.97886 0.54756 0.0
H941 H 0.57958 0.01967 0.49713 0.0
C942 C 0.56557 0.98708 0.58231 0.0
C943 C 0.56566 0.99068 0.51639 0.0
C944 C 0.56078 0.98253 0.47837 0.0
C945 C 0.57583 0.00692 0.58681 0.0
C946 C 0.58055 0.01876 0.55576 0.0
C947 C 0.57582 0.01053 0.5209 0.0
C948 C 0.58927 0.03966 0.55892 0.0
C949 C 0.58131 0.01509 0.62473 0.0
C950 C 0.57899 0.04746 0.57494 0.0
C951 C 0.58632 0.06713 0.57492 0.0
C952 C 0.60408 0.07938 0.55885 0.0
C953 C 0.61462 0.07154 0.54381 0.0
C954 C 0.60719 0.05182 0.5436 0.0
H955 H 0.58116 0.00454 0.64426 0.0
H956 H 0.59568 0.02798 0.62487 0.0
H957 H 0.57094 0.01926 0.63445 0.0
H958 H 0.56501 0.03827 0.58643 0.0
H959 H 0.57783 0.07268 0.58671 0.0
H960 H 0.57733 0.50432 0.69058 0.0
H961 H 0.56564 0.52682 0.69103 0.0
H962 H 0.6172 0.56863 0.7441 0.0
H963 H 0.62909 0.54619 0.74386 0.0
H964 H 0.58283 0.56141 0.77919 0.0
H965 H 0.58225 0.57605 0.63164 0.0
H966 H 0.57117 0.55115 0.64243 0.0
H967 H 0.59624 0.56639 0.65044 0.0
C968 C 0.58634 0.51839 0.70188 0.0
C969 C 0.60415 0.52344 0.71723 0.0
C970 C 0.57967 0.53127 0.70193 0.0
C971 C 0.59064 0.54943 0.71729 0.0
C972 C 0.60859 0.5547 0.73193 0.0
H973 H 0.54862 0.63017 0.70536 0.0
H974 H 0.57063 0.61775 0.70645 0.0
C975 C 0.61536 0.54187 0.73167 0.0
C976 C 0.58263 0.56224 0.72048 0.0
H977 H 0.56329 0.5838 0.67038 0.0
C978 C 0.57881 0.56657 0.75544 0.0
C979 C 0.5776 0.56911 0.68946 0.0
C980 C 0.58218 0.56561 0.65135 0.0
C981 C 0.56919 0.57678 0.76014 0.0
C982 C 0.56314 0.58264 0.72908 0.0
C983 C 0.56784 0.57917 0.69416 0.0
C984 C 0.55069 0.59107 0.73204 0.0
C985 C 0.56529 0.58092 0.79829 0.0
C986 C 0.53227 0.58024 0.74638 0.0
C987 C 0.51965 0.58723 0.74569 0.0
C988 C 0.5252 0.6052 0.73056 0.0
C989 C 0.54391 0.61631 0.71734 0.0
C990 C 0.5565 0.60923 0.71784 0.0
H991 H 0.57534 0.58049 0.81832 0.0
H992 H 0.56633 0.5951 0.79976 0.0
H993 H 0.55064 0.56998 0.80632 0.0
H994 H 0.5274 0.56606 0.7569 0.0
H995 H 0.50536 0.57829 0.75606 0.0
H996 H 0.08158 0.62953 0.90574 0.0
H997 H 0.047 0.61619 0.90631 0.0
H998 H 0.03934 0.56434 0.85802 0.0
H999 H 0.07378 0.5775 0.8571 0.0
H1000 H 0.0157 0.5783 0.82802 0.0
H1001 H 0.01281 0.57316 0.9796 0.0
H1002 H 0.02887 0.59612 0.96034 0.0
H1003 H 0.03332 0.57676 0.95383 0.0
C1004 C 0.07256 0.61538 0.8948 0.0
C1005 C 0.08046 0.60452 0.88166 0.0
C1006 C 0.05281 0.60776 0.89534 0.0
C1007 C 0.04066 0.5892 0.88271 0.0
C1008 C 0.04851 0.57868 0.86804 0.0
H1009 H 0.92672 0.5018 0.91929 0.0
H1010 H 0.961 0.5239 0.91808 0.0
C1011 C 0.0682 0.58623 0.8676 0.0
C1012 C 0.01974 0.58023 0.88618 0.0
H1013 H 0.98367 0.56141 0.94865 0.0
C1014 C 0.00866 0.5748 0.85435 0.0
C1015 C 0.01067 0.57555 0.92064 0.0
C1016 C 0.02195 0.58054 0.95565 0.0
C1017 C 0.98869 0.56445 0.85604 0.0
C1018 C 0.97964 0.55957 0.8905 0.0
C1019 C 0.99071 0.56534 0.92233 0.0
C1020 C 0.95878 0.54704 0.89393 0.0
C1021 C 0.97745 0.55809 0.821 0.0
C1022 C 0.94617 0.55294 0.88168 0.0
C1023 C 0.9265 0.54034 0.88238 0.0
C1024 C 0.91916 0.52161 0.89532 0.0
C1025 C 0.93187 0.51606 0.90896 0.0
C1026 C 0.95147 0.52868 0.90835 0.0
H1027 H 0.98668 0.56027 0.79698 0.0
H1028 H 0.96641 0.54279 0.82252 0.0
H1029 H 0.97011 0.56637 0.81667 0.0
H1030 H 0.95155 0.56717 0.87093 0.0
H1031 H 0.91713 0.5451 0.87177 0.0
loop_
_geom_bond_atom_site_label_1
_geom_bond_atom_site_label_2
_geom_bond_distance
_geom_bond_site_symmetry_2
_ccdc_geom_bond_type
O0 Cd1 2.223 . S
O0 C8 1.315 . S
Cd1 O0 2.223 . S
Cd1 O4 2.297 1_554 S
Cd1 O5 2.439 1_554 S
Cd1 O11 2.240 . S
Cd2 O3 2.240 . S
Cd2 O10 2.223 . S
Cd2 O12 2.297 . S
Cd2 O13 2.439 . S
O3 Cd2 2.240 . S
O3 C8 1.279 . S
O4 Cd1 2.297 1_556 S
O4 C6 1.247 . S
O5 Cd1 2.439 1_556 S
O5 C6 1.208 . S
C6 O4 1.247 . S
C6 O5 1.208 . S
C7 O12 1.247 . S
C7 O13 1.208 . S
C8 O0 1.315 . S
C8 O3 1.279 . S
C9 O10 1.315 . S
C9 O11 1.279 . S
O10 Cd2 2.223 . S
O10 C9 1.315 . S
O11 Cd1 2.240 . S
O11 C9 1.279 . S
O12 Cd2 2.297 . S
O12 C7 1.247 . S
O13 Cd2 2.439 . S
O13 C7 1.208 . S
O14 Cd15 2.223 . S
O14 C22 1.315 . S
Cd15 O14 2.223 . S
Cd15 O18 2.297 . S
Cd15 O19 2.439 . S
Cd15 O25 2.240 . S
Cd16 O17 2.240 . S
Cd16 O24 2.223 . S
Cd16 O26 2.297 . S
Cd16 O27 2.439 . S
O17 Cd16 2.240 . S
O17 C22 1.279 . S
O18 Cd15 2.297 . S
O18 C20 1.247 . S
O19 Cd15 2.439 . S
O19 C20 1.208 . S
C20 O18 1.247 . S
C20 O19 1.208 . S
C21 O26 1.247 . S
C21 O27 1.208 . S
C22 O14 1.315 . S
C22 O17 1.279 . S
C23 O24 1.315 . S
C23 O25 1.279 . S
O24 Cd16 2.223 . S
O24 C23 1.315 . S
O25 Cd15 2.240 . S
O25 C23 1.279 . S
O26 Cd16 2.297 . S
O26 C21 1.247 . S
O27 Cd16 2.439 . S
O27 C21 1.208 . S
O28 Cd29 2.223 . S
O28 C36 1.315 . S
Cd29 O28 2.223 . S
Cd29 O32 2.297 . S
Cd29 O33 2.439 . S
Cd29 O39 2.240 . S
Cd30 O31 2.240 . S
Cd30 O38 2.223 . S
Cd30 O40 2.297 . S
Cd30 O41 2.439 . S
O31 Cd30 2.240 . S
O31 C36 1.279 . S
O32 Cd29 2.297 . S
O32 C34 1.247 . S
O33 Cd29 2.439 . S
O33 C34 1.208 . S
C34 O32 1.247 . S
C34 O33 1.208 . S
C35 O40 1.247 . S
C35 O41 1.208 . S
C36 O28 1.315 . S
C36 O31 1.279 . S
C37 O38 1.315 . S
C37 O39 1.279 . S
O38 Cd30 2.223 . S
O38 C37 1.315 . S
O39 Cd29 2.240 . S
O39 C37 1.279 . S
O40 Cd30 2.297 . S
O40 C35 1.247 . S
O41 Cd30 2.439 . S
O41 C35 1.208 . S
O42 Cd43 2.223 . S
O42 C50 1.315 . S
Cd43 O42 2.223 . S
Cd43 O46 2.297 . S
Cd43 O47 2.439 . S
Cd43 O53 2.240 . S
Cd44 O45 2.240 . S
Cd44 O52 2.223 . S
Cd44 O54 2.297 . S
Cd44 O55 2.439 . S
O45 Cd44 2.240 . S
O45 C50 1.279 . S
O46 Cd43 2.297 . S
O46 C48 1.247 . S
O47 Cd43 2.439 . S
O47 C48 1.208 . S
C48 O46 1.247 . S
C48 O47 1.208 . S
C49 O54 1.247 . S
C49 O55 1.208 . S
C50 O42 1.315 . S
C50 O45 1.279 . S
C51 O52 1.315 . S
C51 O53 1.279 . S
O52 Cd44 2.223 . S
O52 C51 1.315 . S
O53 Cd43 2.240 . S
O53 C51 1.279 . S
O54 Cd44 2.297 . S
O54 C49 1.247 . S
O55 Cd44 2.439 . S
O55 C49 1.208 . S
O56 Cd57 2.223 . S
O56 C64 1.315 . S
Cd57 O56 2.223 . S
Cd57 O60 2.297 . S
Cd57 O61 2.439 . S
Cd57 O67 2.240 . S
Cd58 O59 2.240 . S
Cd58 O66 2.223 . S
Cd58 O68 2.297 . S
Cd58 O69 2.439 . S
O59 Cd58 2.240 . S
O59 C64 1.279 . S
O60 Cd57 2.297 . S
O60 C62 1.247 . S
O61 Cd57 2.439 . S
O61 C62 1.208 . S
C62 O60 1.247 . S
C62 O61 1.208 . S
C63 O68 1.247 . S
C63 O69 1.208 . S
C64 O56 1.315 . S
C64 O59 1.279 . S
C65 O66 1.315 . S
C65 O67 1.279 . S
O66 Cd58 2.223 . S
O66 C65 1.315 . S
O67 Cd57 2.240 . S
O67 C65 1.279 . S
O68 Cd58 2.297 . S
O68 C63 1.247 . S
O69 Cd58 2.439 . S
O69 C63 1.208 . S
O70 Cd71 2.223 . S
O70 C78 1.315 . S
Cd71 O70 2.223 . S
Cd71 O74 2.297 . S
Cd71 O75 2.439 . S
Cd71 O81 2.240 . S
Cd72 O73 2.240 . S
Cd72 O80 2.223 . S
Cd72 O82 2.297 . S
Cd72 O83 2.439 . S
O73 Cd72 2.240 . S
O73 C78 1.279 . S
O74 Cd71 2.297 . S
O74 C76 1.247 . S
O75 Cd71 2.439 . S
O75 C76 1.208 . S
C76 O74 1.247 . S
C76 O75 1.208 . S
C77 O82 1.247 . S
C77 O83 1.208 . S
C78 O70 1.315 . S
C78 O73 1.279 . S
C79 O80 1.315 . S
C79 O81 1.279 . S
O80 Cd72 2.223 . S
O80 C79 1.315 . S
O81 Cd71 2.240 . S
O81 C79 1.279 . S
O82 Cd72 2.297 . S
O82 C77 1.247 . S
O83 Cd72 2.439 . S
O83 C77 1.208 . S
O84 Cd85 2.223 . S
O84 C92 1.315 . S
Cd85 O84 2.223 . S
Cd85 O88 2.297 . S
Cd85 O89 2.439 . S
Cd85 O95 2.240 . S
Cd86 O87 2.240 . S
Cd86 O94 2.223 . S
Cd86 O96 2.297 . S
Cd86 O97 2.439 . S
O87 Cd86 2.240 . S
O87 C92 1.279 . S
O88 Cd85 2.297 . S
O88 C90 1.247 . S
O89 Cd85 2.439 . S
O89 C90 1.208 . S
C90 O88 1.247 . S
C90 O89 1.208 . S
C91 O96 1.247 . S
C91 O97 1.208 . S
C92 O84 1.315 . S
C92 O87 1.279 . S
C93 O94 1.315 . S
C93 O95 1.279 . S
O94 Cd86 2.223 . S
O94 C93 1.315 . S
O95 Cd85 2.240 . S
O95 C93 1.279 . S
O96 Cd86 2.297 . S
O96 C91 1.247 . S
O97 Cd86 2.439 . S
O97 C91 1.208 . S
O98 Cd99 2.223 . S
O98 C106 1.315 . S
Cd99 O98 2.223 . S
Cd99 O102 2.297 . S
Cd99 O103 2.439 . S
Cd99 O109 2.240 . S
Cd100 O101 2.240 . S
Cd100 O108 2.223 1_554 S
Cd100 O110 2.297 1_554 S
Cd100 O111 2.439 . S
O101 Cd100 2.240 . S
O101 C106 1.279 . S
O102 Cd99 2.297 . S
O102 C104 1.247 . S
O103 Cd99 2.439 . S
O103 C104 1.208 . S
C104 O102 1.247 . S
C104 O103 1.208 . S
C105 O110 1.247 1_554 S
C105 O111 1.208 . S
C106 O98 1.315 . S
C106 O101 1.279 . S
C107 O108 1.315 . S
C107 O109 1.279 1_556 S
O108 Cd100 2.223 1_556 S
O108 C107 1.315 . S
O109 Cd99 2.240 . S
O109 C107 1.279 1_554 S
O110 Cd100 2.297 1_556 S
O110 C105 1.247 1_556 S
O111 Cd100 2.439 . S
O111 C105 1.208 . S
O112 Cd113 2.223 . S
O112 C120 1.315 . S
Cd113 O112 2.223 . S
Cd113 O116 2.297 . S
Cd113 O117 2.439 . S
Cd113 O123 2.240 . S
Cd114 O115 2.240 . S
Cd114 O122 2.223 . S
Cd114 O124 2.297 . S
Cd114 O125 2.439 . S
O115 Cd114 2.240 . S
O115 C120 1.279 . S
O116 Cd113 2.297 . S
O116 C118 1.247 . S
O117 Cd113 2.439 . S
O117 C118 1.208 . S
C118 O116 1.247 . S
C118 O117 1.208 . S
C119 O124 1.247 . S
C119 O125 1.208 . S
C120 O112 1.315 . S
C120 O115 1.279 . S
C121 O122 1.315 . S
C121 O123 1.279 . S
O122 Cd114 2.223 . S
O122 C121 1.315 . S
O123 Cd113 2.240 . S
O123 C121 1.279 . S
O124 Cd114 2.297 . S
O124 C119 1.247 . S
O125 Cd114 2.439 . S
O125 C119 1.208 . S
O126 Cd127 2.223 . S
O126 C134 1.315 . S
Cd127 O126 2.223 . S
Cd127 O130 2.297 . S
Cd127 O131 2.439 . S
Cd127 O137 2.240 . S
Cd128 O129 2.240 . S
Cd128 O136 2.223 . S
Cd128 O138 2.297 . S
Cd128 O139 2.439 . S
O129 Cd128 2.240 . S
O129 C134 1.279 . S
O130 Cd127 2.297 . S
O130 C132 1.247 . S
O131 Cd127 2.439 . S
O131 C132 1.208 . S
C132 O130 1.247 . S
C132 O131 1.208 . S
C133 O138 1.247 . S
C133 O139 1.208 . S
C134 O126 1.315 . S
C134 O129 1.279 . S
C135 O136 1.315 . S
C135 O137 1.279 . S
O136 Cd128 2.223 . S
O136 C135 1.315 . S
O137 Cd127 2.240 . S
O137 C135 1.279 . S
O138 Cd128 2.297 . S
O138 C133 1.247 . S
O139 Cd128 2.439 . S
O139 C133 1.208 . S
O140 Cd141 2.223 . S
O140 C148 1.315 . S
Cd141 O140 2.223 . S
Cd141 O144 2.297 . S
Cd141 O145 2.439 . S
Cd141 O151 2.240 . S
Cd142 O143 2.240 . S
Cd142 O150 2.223 . S
Cd142 O152 2.297 . S
Cd142 O153 2.439 . S
O143 Cd142 2.240 . S
O143 C148 1.279 . S
O144 Cd141 2.297 . S
O144 C146 1.247 . S
O145 Cd141 2.439 . S
O145 C146 1.208 . S
C146 O144 1.247 . S
C146 O145 1.208 . S
C147 O152 1.247 . S
C147 O153 1.208 . S
C148 O140 1.315 . S
C148 O143 1.279 . S
C149 O150 1.315 . S
C149 O151 1.279 . S
O150 Cd142 2.223 . S
O150 C149 1.315 . S
O151 Cd141 2.240 . S
O151 C149 1.279 . S
O152 Cd142 2.297 . S
O152 C147 1.247 . S
O153 Cd142 2.439 . S
O153 C147 1.208 . S
O154 Cd155 2.223 . S
O154 C162 1.315 . S
Cd155 O154 2.223 . S
Cd155 O158 2.297 . S
Cd155 O159 2.439 . S
Cd155 O165 2.240 . S
Cd156 O157 2.240 . S
Cd156 O164 2.223 . S
Cd156 O166 2.297 . S
Cd156 O167 2.439 . S
O157 Cd156 2.240 . S
O157 C162 1.279 . S
O158 Cd155 2.297 . S
O158 C160 1.247 . S
O159 Cd155 2.439 . S
O159 C160 1.208 . S
C160 O158 1.247 . S
C160 O159 1.208 . S
C161 O166 1.247 . S
C161 O167 1.208 . S
C162 O154 1.315 . S
C162 O157 1.279 . S
C163 O164 1.315 . S
C163 O165 1.279 . S
O164 Cd156 2.223 . S
O164 C163 1.315 . S
O165 Cd155 2.240 . S
O165 C163 1.279 . S
O166 Cd156 2.297 . S
O166 C161 1.247 . S
O167 Cd156 2.439 . S
O167 C161 1.208 . S
H168 C176 0.929 . S
H169 C178 0.930 . S
H170 C180 0.930 . S
H171 C183 0.929 . S
H172 C186 0.930 . S
H173 C188 0.960 . S
H174 C188 0.960 . S
H175 C188 0.960 . S
C176 H168 0.929 . S
C176 C177 1.377 . S
C176 C178 1.384 . S
C177 C176 1.377 . S
C177 C183 1.390 . S
C178 H169 0.930 . S
C178 C176 1.384 . S
C178 C179 1.372 . S
C179 C178 1.372 . S
C179 C180 1.400 . S
C179 C184 1.490 . S
C180 H170 0.930 . S
C180 C179 1.400 . S
C180 C183 1.386 . S
H181 C197 0.930 . S
H182 C198 0.931 . S
C183 H171 0.929 . S
C183 C177 1.390 . S
C183 C180 1.386 . S
C184 C179 1.490 . S
C184 C186 1.395 . S
C184 C187 1.403 . S
H185 C191 0.930 . S
C186 H172 0.930 . S
C186 C184 1.395 . S
C186 C189 1.403 . S
C187 C184 1.403 . S
C187 C188 1.524 . S
C187 C191 1.400 . S
C188 H173 0.960 . S
C188 H174 0.960 . S
C188 H175 0.960 . S
C188 C187 1.524 . S
C189 C186 1.403 . S
C189 C190 1.392 . S
C189 C193 1.495 . S
C190 C189 1.392 . S
C190 C191 1.385 . S
C190 C192 1.478 . S
C191 H185 0.930 . S
C191 C187 1.400 . S
C191 C190 1.385 . S
C192 C190 1.478 . S
C192 C194 1.381 . S
C192 C198 1.383 . S
C193 C189 1.495 . S
C193 H199 0.959 . S
C193 H200 0.961 . S
C193 H201 0.960 . S
C194 C192 1.381 . S
C194 C195 1.394 . S
C194 H202 0.930 . S
C195 C194 1.394 . S
C195 C196 1.383 . S
C195 H203 0.929 . S
C196 C195 1.383 . S
C196 C197 1.377 . S
C197 H181 0.930 . S
C197 C196 1.377 . S
C197 C198 1.379 . S
C198 H182 0.931 . S
C198 C192 1.383 . S
C198 C197 1.379 . S
H199 C193 0.959 . S
H200 C193 0.961 . S
H201 C193 0.960 . S
H202 C194 0.930 . S
H203 C195 0.929 . S
H204 C212 0.929 . S
H205 C214 0.930 . S
H206 C216 0.930 . S
H207 C219 0.929 . S
H208 C222 0.930 . S
H209 C224 0.960 . S
H210 C224 0.960 . S
H211 C224 0.960 . S
C212 H204 0.929 . S
C212 C213 1.377 . S
C212 C214 1.384 . S
C213 C212 1.377 . S
C213 C219 1.390 . S
C214 H205 0.930 . S
C214 C212 1.384 . S
C214 C215 1.372 . S
C215 C214 1.372 . S
C215 C216 1.400 . S
C215 C220 1.490 . S
C216 H206 0.930 . S
C216 C215 1.400 . S
C216 C219 1.386 . S
H217 C233 0.930 . S
H218 C234 0.931 . S
C219 H207 0.929 . S
C219 C213 1.390 . S
C219 C216 1.386 . S
C220 C215 1.490 . S
C220 C222 1.395 . S
C220 C223 1.403 . S
H221 C227 0.930 . S
C222 H208 0.930 . S
C222 C220 1.395 . S
C222 C225 1.403 . S
C223 C220 1.403 . S
C223 C224 1.524 . S
C223 C227 1.400 . S
C224 H209 0.960 . S
C224 H210 0.960 . S
C224 H211 0.960 . S
C224 C223 1.524 . S
C225 C222 1.403 . S
C225 C226 1.392 . S
C225 C229 1.495 . S
C226 C225 1.392 . S
C226 C227 1.385 . S
C226 C228 1.478 . S
C227 H221 0.930 . S
C227 C223 1.400 . S
C227 C226 1.385 . S
C228 C226 1.478 . S
C228 C230 1.381 . S
C228 C234 1.383 . S
C229 C225 1.495 . S
C229 H235 0.959 . S
C229 H236 0.961 . S
C229 H237 0.960 . S
C230 C228 1.381 . S
C230 C231 1.394 . S
C230 H238 0.930 . S
C231 C230 1.394 . S
C231 C232 1.383 . S
C231 H239 0.929 . S
C232 C231 1.383 . S
C232 C233 1.377 . S
C233 H217 0.930 . S
C233 C232 1.377 . S
C233 C234 1.379 . S
C234 H218 0.931 . S
C234 C228 1.383 . S
C234 C233 1.379 . S
H235 C229 0.959 . S
H236 C229 0.961 . S
H237 C229 0.960 . S
H238 C230 0.930 . S
H239 C231 0.929 . S
H240 C248 0.929 . S
H241 C250 0.930 . S
H242 C252 0.930 . S
H243 C255 0.929 . S
H244 C258 0.930 . S
H245 C260 0.960 . S
H246 C260 0.960 . S
H247 C260 0.960 . S
C248 H240 0.929 . S
C248 C249 1.377 . S
C248 C250 1.384 . S
C249 C248 1.377 . S
C249 C255 1.390 . S
C250 H241 0.930 . S
C250 C248 1.384 . S
C250 C251 1.372 . S
C251 C250 1.372 . S
C251 C252 1.400 . S
C251 C256 1.490 . S
C252 H242 0.930 . S
C252 C251 1.400 . S
C252 C255 1.386 . S
H253 C269 0.930 . S
H254 C270 0.931 . S
C255 H243 0.929 . S
C255 C249 1.390 . S
C255 C252 1.386 . S
C256 C251 1.490 . S
C256 C258 1.395 . S
C256 C259 1.403 . S
H257 C263 0.930 . S
C258 H244 0.930 . S
C258 C256 1.395 . S
C258 C261 1.403 . S
C259 C256 1.403 . S
C259 C260 1.524 . S
C259 C263 1.400 . S
C260 H245 0.960 . S
C260 H246 0.960 . S
C260 H247 0.960 . S
C260 C259 1.524 . S
C261 C258 1.403 . S
C261 C262 1.392 . S
C261 C265 1.495 . S
C262 C261 1.392 . S
C262 C263 1.385 . S
C262 C264 1.478 . S
C263 H257 0.930 . S
C263 C259 1.400 . S
C263 C262 1.385 . S
C264 C262 1.478 . S
C264 C266 1.381 . S
C264 C270 1.383 . S
C265 C261 1.495 . S
C265 H271 0.959 . S
C265 H272 0.961 . S
C265 H273 0.960 . S
C266 C264 1.381 . S
C266 C267 1.394 . S
C266 H274 0.930 . S
C267 C266 1.394 . S
C267 C268 1.383 . S
C267 H275 0.929 . S
C268 C267 1.383 . S
C268 C269 1.377 . S
C269 H253 0.930 . S
C269 C268 1.377 . S
C269 C270 1.379 . S
C270 H254 0.931 . S
C270 C264 1.383 . S
C270 C269 1.379 . S
H271 C265 0.959 . S
H272 C265 0.961 . S
H273 C265 0.960 . S
H274 C266 0.930 . S
H275 C267 0.929 . S
H276 C284 0.929 . S
H277 C286 0.930 . S
H278 C288 0.930 . S
H279 C291 0.929 . S
H280 C294 0.930 . S
H281 C296 0.960 . S
H282 C296 0.960 . S
H283 C296 0.960 . S
C284 H276 0.929 . S
C284 C285 1.377 . S
C284 C286 1.384 . S
C285 C284 1.377 . S
C285 C291 1.390 . S
C286 H277 0.930 . S
C286 C284 1.384 . S
C286 C287 1.372 . S
C287 C286 1.372 . S
C287 C288 1.400 . S
C287 C292 1.490 . S
C288 H278 0.930 . S
C288 C287 1.400 . S
C288 C291 1.386 . S
H289 C305 0.930 . S
H290 C306 0.931 . S
C291 H279 0.929 . S
C291 C285 1.390 . S
C291 C288 1.386 . S
C292 C287 1.490 . S
C292 C294 1.395 . S
C292 C295 1.403 . S
H293 C299 0.930 . S
C294 H280 0.930 . S
C294 C292 1.395 . S
C294 C297 1.403 . S
C295 C292 1.403 . S
C295 C296 1.524 . S
C295 C299 1.400 . S
C296 H281 0.960 . S
C296 H282 0.960 . S
C296 H283 0.960 . S
C296 C295 1.524 . S
C297 C294 1.403 . S
C297 C298 1.392 . S
C297 C301 1.495 . S
C298 C297 1.392 . S
C298 C299 1.385 . S
C298 C300 1.478 . S
C299 H293 0.930 . S
C299 C295 1.400 . S
C299 C298 1.385 . S
C300 C298 1.478 . S
C300 C302 1.381 . S
C300 C306 1.383 . S
C301 C297 1.495 . S
C301 H307 0.959 . S
C301 H308 0.961 . S
C301 H309 0.960 . S
C302 C300 1.381 . S
C302 C303 1.394 . S
C302 H310 0.930 . S
C303 C302 1.394 . S
C303 C304 1.383 . S
C303 H311 0.929 . S
C304 C303 1.383 . S
C304 C305 1.377 . S
C305 H289 0.930 . S
C305 C304 1.377 . S
C305 C306 1.379 . S
C306 H290 0.931 . S
C306 C300 1.383 . S
C306 C305 1.379 . S
H307 C301 0.959 . S
H308 C301 0.961 . S
H309 C301 0.960 . S
H310 C302 0.930 . S
H311 C303 0.929 . S
H312 C320 0.929 . S
H313 C322 0.930 . S
H314 C324 0.930 . S
H315 C327 0.929 . S
H316 C330 0.930 . S
H317 C332 0.960 1_556 S
H318 C332 0.960 . S
H319 C332 0.960 . S
C320 H312 0.929 . S
C320 C321 1.377 . S
C320 C322 1.384 . S
C321 C320 1.377 . S
C321 C327 1.390 . S
C322 H313 0.930 . S
C322 C320 1.384 . S
C322 C323 1.372 . S
C323 C322 1.372 . S
C323 C324 1.400 . S
C323 C328 1.490 1_554 S
C324 H314 0.930 . S
C324 C323 1.400 . S
C324 C327 1.386 . S
H325 C341 0.930 . S
H326 C342 0.931 . S
C327 H315 0.929 . S
C327 C321 1.390 . S
C327 C324 1.386 . S
C328 C323 1.490 1_556 S
C328 C330 1.395 . S
C328 C331 1.403 . S
H329 C335 0.930 . S
C330 H316 0.930 . S
C330 C328 1.395 . S
C330 C333 1.403 . S
C331 C328 1.403 . S
C331 C332 1.524 1_556 S
C331 C335 1.400 . S
C332 H317 0.960 1_554 S
C332 H318 0.960 . S
C332 H319 0.960 . S
C332 C331 1.524 1_554 S
C333 C330 1.403 . S
C333 C334 1.392 . S
C333 C337 1.495 . S
C334 C333 1.392 . S
C334 C335 1.385 . S
C334 C336 1.478 . S
C335 H329 0.930 . S
C335 C331 1.400 . S
C335 C334 1.385 . S
C336 C334 1.478 . S
C336 C338 1.381 . S
C336 C342 1.383 . S
C337 C333 1.495 . S
C337 H343 0.959 . S
C337 H344 0.961 . S
C337 H345 0.960 . S
C338 C336 1.381 . S
C338 C339 1.394 . S
C338 H346 0.930 . S
C339 C338 1.394 . S
C339 C340 1.383 . S
C339 H347 0.929 . S
C340 C339 1.383 . S
C340 C341 1.377 . S
C341 H325 0.930 . S
C341 C340 1.377 . S
C341 C342 1.379 . S
C342 H326 0.931 . S
C342 C336 1.383 . S
C342 C341 1.379 . S
H343 C337 0.959 . S
H344 C337 0.961 . S
H345 C337 0.960 . S
H346 C338 0.930 . S
H347 C339 0.929 . S
H348 C356 0.929 . S
H349 C358 0.930 . S
H350 C360 0.930 . S
H351 C363 0.929 . S
H352 C366 0.930 . S
H353 C368 0.960 . S
H354 C368 0.960 . S
H355 C368 0.960 . S
C356 H348 0.929 . S
C356 C357 1.377 . S
C356 C358 1.384 . S
C357 C356 1.377 . S
C357 C363 1.390 . S
C358 H349 0.930 . S
C358 C356 1.384 . S
C358 C359 1.372 . S
C359 C358 1.372 . S
C359 C360 1.400 . S
C359 C364 1.490 . S
C360 H350 0.930 . S
C360 C359 1.400 . S
C360 C363 1.386 . S
H361 C377 0.955 . S
H362 C378 0.931 . S
C363 H351 0.929 . S
C363 C357 1.390 . S
C363 C360 1.386 . S
C364 C359 1.490 . S
C364 C366 1.395 . S
C364 C367 1.403 . S
H365 C371 0.930 . S
C366 H352 0.930 . S
C366 C364 1.395 . S
C366 C369 1.403 . S
C367 C364 1.403 . S
C367 C368 1.524 . S
C367 C371 1.400 . S
C368 H353 0.960 . S
C368 H354 0.960 . S
C368 H355 0.960 . S
C368 C367 1.524 . S
C369 C366 1.403 . S
C369 C370 1.392 . S
C369 C373 1.495 . S
C370 C369 1.392 . S
C370 C371 1.385 . S
C370 C372 1.478 . S
C371 H365 0.930 . S
C371 C367 1.400 . S
C371 C370 1.385 . S
C372 C370 1.478 . S
C372 C374 1.381 . S
C372 C378 1.383 . S
C373 C369 1.495 . S
C373 H379 0.959 . S
C373 H380 0.961 . S
C373 H381 0.960 . S
C374 C372 1.381 . S
C374 C375 1.394 . S
C374 H382 0.930 . S
C375 C374 1.394 . S
C375 C376 1.383 1_554 S
C375 H383 0.929 . S
C376 C375 1.383 1_556 S
C376 C377 1.382 . S
C377 H361 0.955 . S
C377 C376 1.382 . S
C377 C378 1.350 1_556 S
C378 H362 0.931 . S
C378 C372 1.383 . S
C378 C377 1.350 1_554 S
H379 C373 0.959 . S
H380 C373 0.961 . S
H381 C373 0.960 . S
H382 C374 0.930 . S
H383 C375 0.929 . S
H384 C392 0.929 . S
H385 C394 0.930 . S
H386 C396 0.930 . S
H387 C399 0.929 . S
H388 C402 0.930 . S
H389 C404 0.960 . S
H390 C404 0.960 . S
H391 C404 0.960 . S
C392 H384 0.929 . S
C392 C393 1.377 . S
C392 C394 1.384 . S
C393 C392 1.377 . S
C393 C399 1.390 . S
C394 H385 0.930 . S
C394 C392 1.384 . S
C394 C395 1.372 . S
C395 C394 1.372 . S
C395 C396 1.400 . S
C395 C400 1.490 . S
C396 H386 0.930 . S
C396 C395 1.400 . S
C396 C399 1.386 . S
H397 C413 0.930 . S
H398 C414 0.931 . S
C399 H387 0.929 . S
C399 C393 1.390 . S
C399 C396 1.386 . S
C400 C395 1.490 . S
C400 C402 1.395 . S
C400 C403 1.403 . S
H401 C407 0.930 . S
C402 H388 0.930 . S
C402 C400 1.395 . S
C402 C405 1.403 . S
C403 C400 1.403 . S
C403 C404 1.524 . S
C403 C407 1.400 . S
C404 H389 0.960 . S
C404 H390 0.960 . S
C404 H391 0.960 . S
C404 C403 1.524 . S
C405 C402 1.403 . S
C405 C406 1.392 . S
C405 C409 1.495 . S
C406 C405 1.392 . S
C406 C407 1.385 . S
C406 C408 1.478 . S
C407 H401 0.930 . S
C407 C403 1.400 . S
C407 C406 1.385 . S
C408 C406 1.478 . S
C408 C410 1.381 . S
C408 C414 1.383 . S
C409 C405 1.495 . S
C409 H415 0.959 . S
C409 H416 0.961 . S
C409 H417 0.960 . S
C410 C408 1.381 . S
C410 C411 1.394 . S
C410 H418 0.930 . S
C411 C410 1.394 . S
C411 C412 1.383 . S
C411 H419 0.929 . S
C412 C411 1.383 . S
C412 C413 1.377 . S
C413 H397 0.930 . S
C413 C412 1.377 . S
C413 C414 1.379 . S
C414 H398 0.931 . S
C414 C408 1.383 . S
C414 C413 1.379 . S
H415 C409 0.959 . S
H416 C409 0.961 . S
H417 C409 0.960 . S
H418 C410 0.930 . S
H419 C411 0.929 . S
H420 C428 0.929 . S
H421 C430 0.930 . S
H422 C432 0.930 . S
H423 C435 0.929 . S
H424 C438 0.930 . S
H425 C440 0.960 . S
H426 C440 0.960 . S
H427 C440 0.960 . S
C428 H420 0.929 . S
C428 C429 1.377 . S
C428 C430 1.384 . S
C429 C428 1.377 . S
C429 C435 1.390 . S
C430 H421 0.930 . S
C430 C428 1.384 . S
C430 C431 1.372 . S
C431 C430 1.372 . S
C431 C432 1.400 . S
C431 C436 1.490 . S
C432 H422 0.930 . S
C432 C431 1.400 . S
C432 C435 1.386 . S
H433 C449 0.930 . S
H434 C450 0.931 . S
C435 H423 0.929 . S
C435 C429 1.390 . S
C435 C432 1.386 . S
C436 C431 1.490 . S
C436 C438 1.395 . S
C436 C439 1.403 . S
H437 C443 0.930 . S
C438 H424 0.930 . S
C438 C436 1.395 . S
C438 C441 1.403 . S
C439 C436 1.403 . S
C439 C440 1.524 . S
C439 C443 1.400 . S
C440 H425 0.960 . S
C440 H426 0.960 . S
C440 H427 0.960 . S
C440 C439 1.524 . S
C441 C438 1.403 . S
C441 C442 1.392 . S
C441 C445 1.495 . S
C442 C441 1.392 . S
C442 C443 1.385 . S
C442 C444 1.478 . S
C443 H437 0.930 . S
C443 C439 1.400 . S
C443 C442 1.385 . S
C444 C442 1.478 . S
C444 C446 1.381 . S
C444 C450 1.383 . S
C445 C441 1.495 . S
C445 H451 0.959 . S
C445 H452 0.961 . S
C445 H453 0.960 . S
C446 C444 1.381 . S
C446 C447 1.394 . S
C446 H454 0.930 . S
C447 C446 1.394 . S
C447 C448 1.383 . S
C447 H455 0.929 . S
C448 C447 1.383 . S
C448 C449 1.377 . S
C449 H433 0.930 . S
C449 C448 1.377 . S
C449 C450 1.379 . S
C450 H434 0.931 . S
C450 C444 1.383 . S
C450 C449 1.379 . S
H451 C445 0.959 . S
H452 C445 0.961 . S
H453 C445 0.960 . S
H454 C446 0.930 . S
H455 C447 0.929 . S
H456 C464 0.929 . S
H457 C466 0.930 . S
H458 C468 0.930 . S
H459 C471 0.929 . S
H460 C474 0.930 . S
H461 C476 0.960 . S
H462 C476 0.960 . S
H463 C476 0.960 . S
C464 H456 0.929 . S
C464 C465 1.377 . S
C464 C466 1.384 . S
C465 C464 1.377 . S
C465 C471 1.390 . S
C466 H457 0.930 . S
C466 C464 1.384 . S
C466 C467 1.372 . S
C467 C466 1.372 . S
C467 C468 1.400 . S
C467 C472 1.490 . S
C468 H458 0.930 . S
C468 C467 1.400 . S
C468 C471 1.386 . S
H469 C485 0.930 . S
H470 C486 0.931 . S
C471 H459 0.929 . S
C471 C465 1.390 . S
C471 C468 1.386 . S
C472 C467 1.490 . S
C472 C474 1.395 . S
C472 C475 1.403 . S
H473 C479 0.930 . S
C474 H460 0.930 . S
C474 C472 1.395 . S
C474 C477 1.403 . S
C475 C472 1.403 . S
C475 C476 1.524 . S
C475 C479 1.400 . S
C476 H461 0.960 . S
C476 H462 0.960 . S
C476 H463 0.960 . S
C476 C475 1.524 . S
C477 C474 1.403 . S
C477 C478 1.392 . S
C477 C481 1.495 . S
C478 C477 1.392 . S
C478 C479 1.385 . S
C478 C480 1.478 . S
C479 H473 0.930 . S
C479 C475 1.400 . S
C479 C478 1.385 . S
C480 C478 1.478 . S
C480 C482 1.381 . S
C480 C486 1.383 . S
C481 C477 1.495 . S
C481 H487 0.959 . S
C481 H488 0.961 . S
C481 H489 0.960 . S
C482 C480 1.381 . S
C482 C483 1.394 . S
C482 H490 0.930 . S
C483 C482 1.394 . S
C483 C484 1.383 . S
C483 H491 0.929 . S
C484 C483 1.383 . S
C484 C485 1.377 . S
C485 H469 0.930 . S
C485 C484 1.377 . S
C485 C486 1.379 . S
C486 H470 0.931 . S
C486 C480 1.383 . S
C486 C485 1.379 . S
H487 C481 0.959 . S
H488 C481 0.961 . S
H489 C481 0.960 . S
H490 C482 0.930 . S
H491 C483 0.929 . S
H492 C500 0.929 . S
H493 C502 0.930 . S
H494 C504 0.930 . S
H495 C507 0.929 . S
H496 C510 0.930 . S
H497 C512 0.960 . S
H498 C512 0.960 . S
H499 C512 0.960 . S
C500 H492 0.929 . S
C500 C501 1.377 . S
C500 C502 1.384 . S
C501 C500 1.377 . S
C501 C507 1.390 . S
C502 H493 0.930 . S
C502 C500 1.384 . S
C502 C503 1.372 . S
C503 C502 1.372 . S
C503 C504 1.400 . S
C503 C508 1.490 . S
C504 H494 0.930 . S
C504 C503 1.400 . S
C504 C507 1.386 . S
H505 C521 0.930 . S
H506 C522 0.931 . S
C507 H495 0.929 . S
C507 C501 1.390 . S
C507 C504 1.386 . S
C508 C503 1.490 . S
C508 C510 1.395 . S
C508 C511 1.403 . S
H509 C515 0.930 . S
C510 H496 0.930 . S
C510 C508 1.395 . S
C510 C513 1.403 . S
C511 C508 1.403 . S
C511 C512 1.524 . S
C511 C515 1.400 . S
C512 H497 0.960 . S
C512 H498 0.960 . S
C512 H499 0.960 . S
C512 C511 1.524 . S
C513 C510 1.403 . S
C513 C514 1.392 . S
C513 C517 1.495 . S
C514 C513 1.392 . S
C514 C515 1.385 . S
C514 C516 1.478 . S
C515 H509 0.930 . S
C515 C511 1.400 . S
C515 C514 1.385 . S
C516 C514 1.478 . S
C516 C518 1.381 . S
C516 C522 1.383 . S
C517 C513 1.495 . S
C517 H523 0.959 . S
C517 H524 0.961 . S
C517 H525 0.960 . S
C518 C516 1.381 . S
C518 C519 1.394 . S
C518 H526 0.930 . S
C519 C518 1.394 . S
C519 C520 1.383 . S
C519 H527 0.929 . S
C520 C519 1.383 . S
C520 C521 1.377 . S
C521 H505 0.930 . S
C521 C520 1.377 . S
C521 C522 1.379 . S
C522 H506 0.931 . S
C522 C516 1.383 . S
C522 C521 1.379 . S
H523 C517 0.959 . S
H524 C517 0.961 . S
H525 C517 0.960 . S
H526 C518 0.930 . S
H527 C519 0.929 . S
H528 C536 0.929 . S
H529 C538 0.930 . S
H530 C540 0.930 . S
H531 C543 0.929 . S
H532 C546 0.930 . S
H533 C548 0.960 . S
H534 C548 0.960 . S
H535 C548 0.960 . S
C536 H528 0.929 . S
C536 C537 1.377 . S
C536 C538 1.384 . S
C537 C536 1.377 . S
C537 C543 1.390 . S
C538 H529 0.930 . S
C538 C536 1.384 . S
C538 C539 1.372 . S
C539 C538 1.372 . S
C539 C540 1.400 . S
C539 C544 1.490 . S
C540 H530 0.930 . S
C540 C539 1.400 . S
C540 C543 1.386 . S
H541 C557 0.930 . S
H542 C558 0.931 . S
C543 H531 0.929 . S
C543 C537 1.390 . S
C543 C540 1.386 . S
C544 C539 1.490 . S
C544 C546 1.395 . S
C544 C547 1.403 . S
H545 C551 0.930 . S
C546 H532 0.930 . S
C546 C544 1.395 . S
C546 C549 1.403 . S
C547 C544 1.403 . S
C547 C548 1.524 . S
C547 C551 1.400 . S
C548 H533 0.960 . S
C548 H534 0.960 . S
C548 H535 0.960 . S
C548 C547 1.524 . S
C549 C546 1.403 . S
C549 C550 1.392 . S
C549 C553 1.495 . S
C550 C549 1.392 . S
C550 C551 1.385 . S
C550 C552 1.478 . S
C551 H545 0.930 . S
C551 C547 1.400 . S
C551 C550 1.385 . S
C552 C550 1.478 . S
C552 C554 1.381 . S
C552 C558 1.383 . S
C553 C549 1.495 . S
C553 H559 0.959 . S
C553 H560 0.961 . S
C553 H561 0.960 . S
C554 C552 1.381 . S
C554 C555 1.394 . S
C554 H562 0.930 . S
C555 C554 1.394 . S
C555 C556 1.383 . S
C555 H563 0.929 . S
C556 C555 1.383 . S
C556 C557 1.377 . S
C557 H541 0.930 . S
C557 C556 1.377 . S
C557 C558 1.379 . S
C558 H542 0.931 . S
C558 C552 1.383 . S
C558 C557 1.379 . S
H559 C553 0.959 . S
H560 C553 0.961 . S
H561 C553 0.960 . S
H562 C554 0.930 . S
H563 C555 0.929 . S
H564 C572 0.929 . S
H565 C574 0.930 . S
H566 C576 0.930 . S
H567 C579 0.929 . S
H568 C582 0.930 . S
H569 C584 0.960 . S
H570 C584 0.960 1_556 S
H571 C584 0.960 . S
C572 H564 0.929 . S
C572 C573 1.377 . S
C572 C574 1.384 . S
C573 C572 1.377 . S
C573 C579 1.390 . S
C574 H565 0.930 . S
C574 C572 1.384 . S
C574 C575 1.372 . S
C575 C574 1.372 . S
C575 C576 1.400 . S
C575 C580 1.490 . S
C576 H566 0.930 . S
C576 C575 1.400 . S
C576 C579 1.386 . S
H577 C593 0.930 . S
H578 C594 0.931 . S
C579 H567 0.929 . S
C579 C573 1.390 . S
C579 C576 1.386 . S
C580 C575 1.490 . S
C580 C582 1.395 . S
C580 C583 1.403 . S
H581 C587 0.930 1_554 S
C582 H568 0.930 . S
C582 C580 1.395 . S
C582 C585 1.403 . S
C583 C580 1.403 . S
C583 C584 1.524 1_556 S
C583 C587 1.400 . S
C584 H569 0.960 . S
C584 H570 0.960 1_554 S
C584 H571 0.960 . S
C584 C583 1.524 1_554 S
C585 C582 1.403 . S
C585 C586 1.392 . S
C585 C589 1.495 . S
C586 C585 1.392 . S
C586 C587 1.385 . S
C586 C588 1.478 . S
C587 H581 0.930 1_556 S
C587 C583 1.400 . S
C587 C586 1.385 . S
C588 C586 1.478 . S
C588 C590 1.381 . S
C588 C594 1.383 1_556 S
C589 C585 1.495 . S
C589 H595 0.959 . S
C589 H596 0.961 . S
C589 H597 0.960 . S
C590 C588 1.381 . S
C590 C591 1.394 . S
C590 H598 0.930 . S
C591 C590 1.394 . S
C591 C592 1.383 1_556 S
C591 H599 0.929 . S
C592 C591 1.383 1_554 S
C592 C593 1.377 . S
C593 H577 0.930 . S
C593 C592 1.377 . S
C593 C594 1.379 . S
C594 H578 0.931 . S
C594 C588 1.383 1_554 S
C594 C593 1.379 . S
H595 C589 0.959 . S
H596 C589 0.961 . S
H597 C589 0.960 . S
H598 C590 0.930 . S
H599 C591 0.929 . S
H600 C608 0.929 . S
H601 C610 0.930 . S
H602 C612 0.930 . S
H603 C615 0.929 . S
H604 C618 0.930 . S
H605 C620 0.960 . S
H606 C620 0.960 . S
H607 C620 0.960 . S
C608 H600 0.929 . S
C608 C609 1.377 . S
C608 C610 1.384 . S
C609 C608 1.377 . S
C609 C615 1.390 . S
C610 H601 0.930 . S
C610 C608 1.384 . S
C610 C611 1.372 . S
C611 C610 1.372 . S
C611 C612 1.400 . S
C611 C616 1.490 . S
C612 H602 0.930 . S
C612 C611 1.400 . S
C612 C615 1.386 . S
H613 C629 0.930 . S
H614 C630 0.931 . S
C615 H603 0.929 . S
C615 C609 1.390 . S
C615 C612 1.386 . S
C616 C611 1.490 . S
C616 C618 1.395 . S
C616 C619 1.403 . S
H617 C623 0.930 . S
C618 H604 0.930 . S
C618 C616 1.395 . S
C618 C621 1.403 . S
C619 C616 1.403 . S
C619 C620 1.524 . S
C619 C623 1.400 . S
C620 H605 0.960 . S
C620 H606 0.960 . S
C620 H607 0.960 . S
C620 C619 1.524 . S
C621 C618 1.403 . S
C621 C622 1.392 . S
C621 C625 1.495 . S
C622 C621 1.392 . S
C622 C623 1.385 . S
C622 C624 1.478 . S
C623 H617 0.930 . S
C623 C619 1.400 . S
C623 C622 1.385 . S
C624 C622 1.478 . S
C624 C626 1.381 . S
C624 C630 1.383 . S
C625 C621 1.495 . S
C625 H631 0.959 . S
C625 H632 0.961 . S
C625 H633 0.960 . S
C626 C624 1.381 . S
C626 C627 1.394 . S
C626 H634 0.930 . S
C627 C626 1.394 . S
C627 C628 1.383 . S
C627 H635 0.929 . S
C628 C627 1.383 . S
C628 C629 1.377 . S
C629 H613 0.930 . S
C629 C628 1.377 . S
C629 C630 1.379 . S
C630 H614 0.931 . S
C630 C624 1.383 . S
C630 C629 1.379 . S
H631 C625 0.959 . S
H632 C625 0.961 . S
H633 C625 0.960 . S
H634 C626 0.930 . S
H635 C627 0.929 . S
H636 C644 0.929 . S
H637 C646 0.930 . S
H638 C648 0.930 . S
H639 C651 0.929 . S
H640 C654 0.930 . S
H641 C656 0.960 . S
H642 C656 0.960 . S
H643 C656 0.960 . S
C644 H636 0.929 . S
C644 C645 1.377 . S
C644 C646 1.384 . S
C645 C644 1.377 . S
C645 C651 1.390 . S
C646 H637 0.930 . S
C646 C644 1.384 . S
C646 C647 1.372 . S
C647 C646 1.372 . S
C647 C648 1.400 . S
C647 C652 1.490 . S
C648 H638 0.930 . S
C648 C647 1.400 . S
C648 C651 1.386 . S
H649 C665 0.930 . S
H650 C666 0.931 . S
C651 H639 0.929 . S
C651 C645 1.390 . S
C651 C648 1.386 . S
C652 C647 1.490 . S
C652 C654 1.395 . S
C652 C655 1.403 . S
H653 C659 0.930 . S
C654 H640 0.930 . S
C654 C652 1.395 . S
C654 C657 1.403 . S
C655 C652 1.403 . S
C655 C656 1.524 . S
C655 C659 1.400 . S
C656 H641 0.960 . S
C656 H642 0.960 . S
C656 H643 0.960 . S
C656 C655 1.524 . S
C657 C654 1.403 . S
C657 C658 1.385 1_556 S
C657 C661 1.495 1_556 S
C658 C657 1.385 1_554 S
C658 C659 1.366 1_554 S
C658 C660 1.504 . S
C659 H653 0.930 . S
C659 C655 1.400 . S
C659 C658 1.366 1_556 S
C660 C658 1.504 . S
C660 C662 1.381 . S
C660 C666 1.383 . S
C661 C657 1.495 1_554 S
C661 H667 0.959 . S
C661 H668 0.961 . S
C661 H669 0.960 . S
C662 C660 1.381 . S
C662 C663 1.394 . S
C662 H670 0.930 . S
C663 C662 1.394 . S
C663 C664 1.383 . S
C663 H671 0.929 . S
C664 C663 1.383 . S
C664 C665 1.377 . S
C665 H649 0.930 . S
C665 C664 1.377 . S
C665 C666 1.379 . S
C666 H650 0.931 . S
C666 C660 1.383 . S
C666 C665 1.379 . S
H667 C661 0.959 . S
H668 C661 0.961 . S
H669 C661 0.960 . S
H670 C662 0.930 . S
H671 C663 0.929 . S
H672 C680 0.927 1_556 S
H673 C682 0.930 . S
H674 C684 0.930 . S
H675 C687 0.929 . S
H676 C690 0.930 . S
H677 C692 0.960 . S
H678 C692 0.960 . S
H679 C692 0.960 . S
C680 H672 0.927 1_554 S
C680 C681 1.377 1_554 S
C680 C682 1.386 . S
C681 C680 1.377 1_556 S
C681 C687 1.390 1_556 S
C682 H673 0.930 . S
C682 C680 1.386 . S
C682 C683 1.372 . S
C683 C682 1.372 . S
C683 C684 1.400 . S
C683 C688 1.490 . S
C684 H674 0.930 . S
C684 C683 1.400 . S
C684 C687 1.386 . S
H685 C701 0.930 . S
H686 C702 0.931 . S
C687 H675 0.929 . S
C687 C681 1.390 1_554 S
C687 C684 1.386 . S
C688 C683 1.490 . S
C688 C690 1.395 . S
C688 C691 1.403 . S
H689 C695 0.930 . S
C690 H676 0.930 . S
C690 C688 1.395 . S
C690 C693 1.403 . S
C691 C688 1.403 . S
C691 C692 1.524 . S
C691 C695 1.400 . S
C692 H677 0.960 . S
C692 H678 0.960 . S
C692 H679 0.960 . S
C692 C691 1.524 . S
C693 C690 1.403 . S
C693 C694 1.392 . S
C693 C697 1.495 . S
C694 C693 1.392 . S
C694 C695 1.385 . S
C694 C696 1.478 . S
C695 H689 0.930 . S
C695 C691 1.400 . S
C695 C694 1.385 . S
C696 C694 1.478 . S
C696 C698 1.381 . S
C696 C702 1.383 . S
C697 C693 1.495 . S
C697 H703 0.959 . S
C697 H704 0.961 . S
C697 H705 0.960 . S
C698 C696 1.381 . S
C698 C699 1.394 . S
C698 H706 0.930 . S
C699 C698 1.394 . S
C699 C700 1.383 . S
C699 H707 0.929 . S
C700 C699 1.383 . S
C700 C701 1.377 . S
C701 H685 0.930 . S
C701 C700 1.377 . S
C701 C702 1.379 . S
C702 H686 0.931 . S
C702 C696 1.383 . S
C702 C701 1.379 . S
H703 C697 0.959 . S
H704 C697 0.961 . S
H705 C697 0.960 . S
H706 C698 0.930 . S
H707 C699 0.929 . S
H708 C716 0.929 . S
H709 C718 0.930 . S
H710 C720 0.930 . S
H711 C723 0.929 . S
H712 C726 0.930 . S
H713 C728 0.960 . S
H714 C728 0.960 . S
H715 C728 0.960 . S
C716 H708 0.929 . S
C716 C717 1.377 . S
C716 C718 1.384 . S
C717 C716 1.377 . S
C717 C723 1.390 . S
C718 H709 0.930 . S
C718 C716 1.384 . S
C718 C719 1.372 . S
C719 C718 1.372 . S
C719 C720 1.400 . S
C719 C724 1.490 . S
C720 H710 0.930 . S
C720 C719 1.400 . S
C720 C723 1.386 . S
H721 C737 0.930 . S
H722 C738 0.931 . S
C723 H711 0.929 . S
C723 C717 1.390 . S
C723 C720 1.386 . S
C724 C719 1.490 . S
C724 C726 1.395 . S
C724 C727 1.403 . S
H725 C731 0.930 . S
C726 H712 0.930 . S
C726 C724 1.395 . S
C726 C729 1.403 . S
C727 C724 1.403 . S
C727 C728 1.524 . S
C727 C731 1.400 . S
C728 H713 0.960 . S
C728 H714 0.960 . S
C728 H715 0.960 . S
C728 C727 1.524 . S
C729 C726 1.403 . S
C729 C730 1.392 . S
C729 C733 1.495 . S
C730 C729 1.392 . S
C730 C731 1.385 . S
C730 C732 1.478 . S
C731 H725 0.930 . S
C731 C727 1.400 . S
C731 C730 1.385 . S
C732 C730 1.478 . S
C732 C734 1.381 . S
C732 C738 1.383 . S
C733 C729 1.495 . S
C733 H739 0.959 . S
C733 H740 0.961 . S
C733 H741 0.960 . S
C734 C732 1.381 . S
C734 C735 1.394 . S
C734 H742 0.930 . S
C735 C734 1.394 . S
C735 C736 1.383 . S
C735 H743 0.929 . S
C736 C735 1.383 . S
C736 C737 1.377 . S
C737 H721 0.930 . S
C737 C736 1.377 . S
C737 C738 1.379 . S
C738 H722 0.931 . S
C738 C732 1.383 . S
C738 C737 1.379 . S
H739 C733 0.959 . S
H740 C733 0.961 . S
H741 C733 0.960 . S
H742 C734 0.930 . S
H743 C735 0.929 . S
H744 C752 0.929 . S
H745 C754 0.930 . S
H746 C756 0.930 . S
H747 C759 0.929 . S
H748 C762 0.930 . S
H749 C764 0.960 . S
H750 C764 0.960 . S
H751 C764 0.960 . S
C752 H744 0.929 . S
C752 C753 1.377 . S
C752 C754 1.384 . S
C753 C752 1.377 . S
C753 C759 1.390 . S
C754 H745 0.930 . S
C754 C752 1.384 . S
C754 C755 1.372 . S
C755 C754 1.372 . S
C755 C756 1.400 . S
C755 C760 1.490 . S
C756 H746 0.930 . S
C756 C755 1.400 . S
C756 C759 1.386 . S
H757 C773 0.930 . S
H758 C774 0.931 . S
C759 H747 0.929 . S
C759 C753 1.390 . S
C759 C756 1.386 . S
C760 C755 1.490 . S
C760 C762 1.395 . S
C760 C763 1.403 . S
H761 C767 0.930 . S
C762 H748 0.930 . S
C762 C760 1.395 . S
C762 C765 1.403 . S
C763 C760 1.403 . S
C763 C764 1.524 . S
C763 C767 1.400 . S
C764 H749 0.960 . S
C764 H750 0.960 . S
C764 H751 0.960 . S
C764 C763 1.524 . S
C765 C762 1.403 . S
C765 C766 1.392 . S
C765 C769 1.495 . S
C766 C765 1.392 . S
C766 C767 1.385 . S
C766 C768 1.478 . S
C767 H761 0.930 . S
C767 C763 1.400 . S
C767 C766 1.385 . S
C768 C766 1.478 . S
C768 C770 1.381 . S
C768 C774 1.383 . S
C769 C765 1.495 . S
C769 H775 0.959 . S
C769 H776 0.961 . S
C769 H777 0.960 . S
C770 C768 1.381 . S
C770 C771 1.394 . S
C770 H778 0.930 . S
C771 C770 1.394 . S
C771 C772 1.383 . S
C771 H779 0.929 . S
C772 C771 1.383 . S
C772 C773 1.377 . S
C773 H757 0.930 . S
C773 C772 1.377 . S
C773 C774 1.379 . S
C774 H758 0.931 . S
C774 C768 1.383 . S
C774 C773 1.379 . S
H775 C769 0.959 . S
H776 C769 0.961 . S
H777 C769 0.960 . S
H778 C770 0.930 . S
H779 C771 0.929 . S
H780 C788 0.929 . S
H781 C790 0.930 . S
H782 C792 0.930 . S
H783 C795 0.929 . S
H784 C798 0.930 . S
H785 C800 0.960 . S
H786 C800 0.960 . S
H787 C800 0.960 . S
C788 H780 0.929 . S
C788 C789 1.377 . S
C788 C790 1.384 . S
C789 C788 1.377 . S
C789 C795 1.390 . S
C790 H781 0.930 . S
C790 C788 1.384 . S
C790 C791 1.372 . S
C791 C790 1.372 . S
C791 C792 1.400 . S
C791 C796 1.490 . S
C792 H782 0.930 . S
C792 C791 1.400 . S
C792 C795 1.386 . S
H793 C809 0.930 . S
H794 C810 0.931 . S
C795 H783 0.929 . S
C795 C789 1.390 . S
C795 C792 1.386 . S
C796 C791 1.490 . S
C796 C798 1.395 . S
C796 C799 1.403 . S
H797 C803 0.930 . S
C798 H784 0.930 . S
C798 C796 1.395 . S
C798 C801 1.403 . S
C799 C796 1.403 . S
C799 C800 1.524 . S
C799 C803 1.400 . S
C800 H785 0.960 . S
C800 H786 0.960 . S
C800 H787 0.960 . S
C800 C799 1.524 . S
C801 C798 1.403 . S
C801 C802 1.392 . S
C801 C805 1.495 . S
C802 C801 1.392 . S
C802 C803 1.385 . S
C802 C804 1.478 . S
C803 H797 0.930 . S
C803 C799 1.400 . S
C803 C802 1.385 . S
C804 C802 1.478 . S
C804 C806 1.381 . S
C804 C810 1.383 . S
C805 C801 1.495 . S
C805 H811 0.959 . S
C805 H812 0.961 . S
C805 H813 0.960 . S
C806 C804 1.381 . S
C806 C807 1.394 . S
C806 H814 0.930 . S
C807 C806 1.394 . S
C807 C808 1.383 . S
C807 H815 0.929 . S
C808 C807 1.383 . S
C808 C809 1.377 . S
C809 H793 0.930 . S
C809 C808 1.377 . S
C809 C810 1.379 . S
C810 H794 0.931 . S
C810 C804 1.383 . S
C810 C809 1.379 . S
H811 C805 0.959 . S
H812 C805 0.961 . S
H813 C805 0.960 . S
H814 C806 0.930 . S
H815 C807 0.929 . S
H816 C824 0.929 . S
H817 C826 0.930 . S
H818 C828 0.930 . S
H819 C831 0.929 . S
H820 C834 0.930 . S
H821 C836 0.960 . S
H822 C836 0.960 . S
H823 C836 0.960 1_554 S
C824 H816 0.929 . S
C824 C825 1.377 . S
C824 C826 1.384 . S
C825 C824 1.377 . S
C825 C831 1.390 . S
C826 H817 0.930 . S
C826 C824 1.384 . S
C826 C827 1.372 . S
C827 C826 1.372 . S
C827 C828 1.400 . S
C827 C832 1.490 . S
C828 H818 0.930 . S
C828 C827 1.400 . S
C828 C831 1.386 . S
H829 C845 0.930 . S
H830 C846 0.931 . S
C831 H819 0.929 . S
C831 C825 1.390 . S
C831 C828 1.386 . S
C832 C827 1.490 . S
C832 C834 1.395 . S
C832 C835 1.403 . S
H833 C839 0.930 . S
C834 H820 0.930 . S
C834 C832 1.395 . S
C834 C837 1.403 1_545 S
C835 C832 1.403 . S
C835 C836 1.524 1_554 S
C835 C839 1.400 1_545 S
C836 H821 0.960 . S
C836 H822 0.960 . S
C836 H823 0.960 1_556 S
C836 C835 1.524 1_556 S
C837 C834 1.403 1_565 S
C837 C838 1.392 . S
C837 C841 1.495 . S
C838 C837 1.392 . S
C838 C839 1.385 . S
C838 C840 1.478 . S
C839 H833 0.930 . S
C839 C835 1.400 1_565 S
C839 C838 1.385 . S
C840 C838 1.478 . S
C840 C842 1.381 . S
C840 C846 1.383 . S
C841 C837 1.495 . S
C841 H847 0.959 . S
C841 H848 0.961 . S
C841 H849 0.960 . S
C842 C840 1.381 . S
C842 C843 1.394 . S
C842 H850 0.930 . S
C843 C842 1.394 . S
C843 C844 1.383 . S
C843 H851 0.929 . S
C844 C843 1.383 . S
C844 C845 1.377 . S
C845 H829 0.930 . S
C845 C844 1.377 . S
C845 C846 1.379 . S
C846 H830 0.931 . S
C846 C840 1.383 . S
C846 C845 1.379 . S
H847 C841 0.959 . S
H848 C841 0.961 . S
H849 C841 0.960 . S
H850 C842 0.930 . S
H851 C843 0.929 . S
H852 C860 0.929 . S
H853 C862 0.930 . S
H854 C864 0.930 . S
H855 C867 0.929 . S
H856 C870 0.930 . S
H857 C872 0.960 . S
H858 C872 0.960 . S
H859 C872 0.960 . S
C860 H852 0.929 . S
C860 C861 1.377 . S
C860 C862 1.384 . S
C861 C860 1.377 . S
C861 C867 1.390 . S
C862 H853 0.930 . S
C862 C860 1.384 . S
C862 C863 1.372 . S
C863 C862 1.372 . S
C863 C864 1.400 . S
C863 C868 1.490 . S
C864 H854 0.930 . S
C864 C863 1.400 . S
C864 C867 1.386 . S
H865 C881 0.930 . S
H866 C882 0.931 . S
C867 H855 0.929 . S
C867 C861 1.390 . S
C867 C864 1.386 . S
C868 C863 1.490 . S
C868 C870 1.395 . S
C868 C871 1.403 . S
H869 C875 0.930 . S
C870 H856 0.930 . S
C870 C868 1.395 . S
C870 C873 1.403 . S
C871 C868 1.403 . S
C871 C872 1.524 . S
C871 C875 1.400 . S
C872 H857 0.960 . S
C872 H858 0.960 . S
C872 H859 0.960 . S
C872 C871 1.524 . S
C873 C870 1.403 . S
C873 C874 1.392 . S
C873 C877 1.495 . S
C874 C873 1.392 . S
C874 C875 1.385 . S
C874 C876 1.478 . S
C875 H869 0.930 . S
C875 C871 1.400 . S
C875 C874 1.385 . S
C876 C874 1.478 . S
C876 C878 1.381 . S
C876 C882 1.383 . S
C877 C873 1.495 . S
C877 H883 0.959 . S
C877 H884 0.961 . S
C877 H885 0.960 . S
C878 C876 1.381 . S
C878 C879 1.394 . S
C878 H886 0.930 . S
C879 C878 1.394 . S
C879 C880 1.383 . S
C879 H887 0.929 . S
C880 C879 1.383 . S
C880 C881 1.377 . S
C881 H865 0.930 . S
C881 C880 1.377 . S
C881 C882 1.379 . S
C882 H866 0.931 . S
C882 C876 1.383 . S
C882 C881 1.379 . S
H883 C877 0.959 . S
H884 C877 0.961 . S
H885 C877 0.960 . S
H886 C878 0.930 . S
H887 C879 0.929 . S
H888 C896 0.929 . S
H889 C898 0.930 . S
H890 C900 0.930 . S
H891 C903 0.929 . S
H892 C906 0.930 . S
H893 C908 0.960 . S
H894 C908 0.960 . S
H895 C908 0.960 . S
C896 H888 0.929 . S
C896 C897 1.377 . S
C896 C898 1.384 . S
C897 C896 1.377 . S
C897 C903 1.390 . S
C898 H889 0.930 . S
C898 C896 1.384 . S
C898 C899 1.372 . S
C899 C898 1.372 . S
C899 C900 1.400 . S
C899 C904 1.490 . S
C900 H890 0.930 . S
C900 C899 1.400 . S
C900 C903 1.386 . S
H901 C917 0.930 . S
H902 C918 0.931 . S
C903 H891 0.929 . S
C903 C897 1.390 . S
C903 C900 1.386 . S
C904 C899 1.490 . S
C904 C906 1.395 . S
C904 C907 1.403 . S
H905 C911 0.930 . S
C906 H892 0.930 . S
C906 C904 1.395 . S
C906 C909 1.403 1_455 S
C907 C904 1.403 . S
C907 C908 1.524 . S
C907 C911 1.400 1_455 S
C908 H893 0.960 . S
C908 H894 0.960 . S
C908 H895 0.960 . S
C908 C907 1.524 . S
C909 C906 1.403 1_655 S
C909 C910 1.392 . S
C909 C913 1.495 . S
C910 C909 1.392 . S
C910 C911 1.385 . S
C910 C912 1.478 . S
C911 H905 0.930 . S
C911 C907 1.400 1_655 S
C911 C910 1.385 . S
C912 C910 1.478 . S
C912 C914 1.381 . S
C912 C918 1.383 . S
C913 C909 1.495 . S
C913 H919 0.959 . S
C913 H920 0.961 . S
C913 H921 0.960 . S
C914 C912 1.381 . S
C914 C915 1.394 . S
C914 H922 0.930 . S
C915 C914 1.394 . S
C915 C916 1.383 . S
C915 H923 0.929 . S
C916 C915 1.383 . S
C916 C917 1.377 . S
C917 H901 0.930 . S
C917 C916 1.377 . S
C917 C918 1.379 . S
C918 H902 0.931 . S
C918 C912 1.383 . S
C918 C917 1.379 . S
H919 C913 0.959 . S
H920 C913 0.961 . S
H921 C913 0.960 . S
H922 C914 0.930 . S
H923 C915 0.929 . S
H924 C932 0.929 . S
H925 C934 0.930 . S
H926 C936 0.930 . S
H927 C939 0.929 . S
H928 C942 0.930 . S
H929 C944 0.960 . S
H930 C944 0.960 . S
H931 C944 0.960 . S
C932 H924 0.929 . S
C932 C933 1.377 . S
C932 C934 1.384 . S
C933 C932 1.377 . S
C933 C939 1.390 . S
C934 H925 0.930 . S
C934 C932 1.384 . S
C934 C935 1.372 . S
C935 C934 1.372 . S
C935 C936 1.400 . S
C935 C940 1.490 . S
C936 H926 0.930 . S
C936 C935 1.400 . S
C936 C939 1.386 . S
H937 C953 0.930 . S
H938 C954 0.931 . S
C939 H927 0.929 . S
C939 C933 1.390 . S
C939 C936 1.386 . S
C940 C935 1.490 . S
C940 C942 1.395 . S
C940 C943 1.403 . S
H941 C947 0.930 . S
C942 H928 0.930 . S
C942 C940 1.395 . S
C942 C945 1.403 1_565 S
C943 C940 1.403 . S
C943 C944 1.524 . S
C943 C947 1.400 1_565 S
C944 H929 0.960 . S
C944 H930 0.960 . S
C944 H931 0.960 . S
C944 C943 1.524 . S
C945 C942 1.403 1_545 S
C945 C946 1.392 . S
C945 C949 1.495 . S
C946 C945 1.392 . S
C946 C947 1.385 . S
C946 C948 1.478 . S
C947 H941 0.930 . S
C947 C943 1.400 1_545 S
C947 C946 1.385 . S
C948 C946 1.478 . S
C948 C950 1.381 . S
C948 C954 1.383 . S
C949 C945 1.495 . S
C949 H955 0.959 . S
C949 H956 0.961 . S
C949 H957 0.960 . S
C950 C948 1.381 . S
C950 C951 1.394 . S
C950 H958 0.930 . S
C951 C950 1.394 . S
C951 C952 1.383 . S
C951 H959 0.929 . S
C952 C951 1.383 . S
C952 C953 1.377 . S
C953 H937 0.930 . S
C953 C952 1.377 . S
C953 C954 1.379 . S
C954 H938 0.931 . S
C954 C948 1.383 . S
C954 C953 1.379 . S
H955 C949 0.959 . S
H956 C949 0.961 . S
H957 C949 0.960 . S
H958 C950 0.930 . S
H959 C951 0.929 . S
H960 C968 0.929 . S
H961 C970 0.930 . S
H962 C972 0.930 . S
H963 C975 0.929 . S
H964 C978 0.930 . S
H965 C980 0.960 . S
H966 C980 0.960 . S
H967 C980 0.960 . S
C968 H960 0.929 . S
C968 C969 1.377 . S
C968 C970 1.384 . S
C969 C968 1.377 . S
C969 C975 1.390 . S
C970 H961 0.930 . S
C970 C968 1.384 . S
C970 C971 1.372 . S
C971 C970 1.372 . S
C971 C972 1.400 . S
C971 C976 1.490 . S
C972 H962 0.930 . S
C972 C971 1.400 . S
C972 C975 1.386 . S
H973 C989 0.930 . S
H974 C990 0.931 . S
C975 H963 0.929 . S
C975 C969 1.390 . S
C975 C972 1.386 . S
C976 C971 1.490 . S
C976 C978 1.395 . S
C976 C979 1.403 . S
H977 C983 0.930 . S
C978 H964 0.930 . S
C978 C976 1.395 . S
C978 C981 1.403 . S
C979 C976 1.403 . S
C979 C980 1.524 . S
C979 C983 1.400 . S
C980 H965 0.960 . S
C980 H966 0.960 . S
C980 H967 0.960 . S
C980 C979 1.524 . S
C981 C978 1.403 . S
C981 C982 1.392 . S
C981 C985 1.495 . S
C982 C981 1.392 . S
C982 C983 1.385 . S
C982 C984 1.478 . S
C983 H977 0.930 . S
C983 C979 1.400 . S
C983 C982 1.385 . S
C984 C982 1.478 . S
C984 C986 1.381 . S
C984 C990 1.383 . S
C985 C981 1.495 . S
C985 H991 0.959 . S
C985 H992 0.961 . S
C985 H993 0.960 . S
C986 C984 1.381 . S
C986 C987 1.394 . S
C986 H994 0.930 . S
C987 C986 1.394 . S
C987 C988 1.383 . S
C987 H995 0.929 . S
C988 C987 1.383 . S
C988 C989 1.377 . S
C989 H973 0.930 . S
C989 C988 1.377 . S
C989 C990 1.379 . S
C990 H974 0.931 . S
C990 C984 1.383 . S
C990 C989 1.379 . S
H991 C985 0.959 . S
H992 C985 0.961 . S
H993 C985 0.960 . S
H994 C986 0.930 . S
H995 C987 0.929 . S
H996 C1004 0.929 . S
H997 C1006 0.930 . S
H998 C1008 0.930 . S
H999 C1011 0.929 . S
H1000 C1014 0.930 . S
H1001 C1016 0.960 . S
H1002 C1016 0.960 . S
H1003 C1016 0.960 . S
C1004 H996 0.929 . S
C1004 C1005 1.377 . S
C1004 C1006 1.384 . S
C1005 C1004 1.377 . S
C1005 C1011 1.390 . S
C1006 H997 0.930 . S
C1006 C1004 1.384 . S
C1006 C1007 1.372 . S
C1007 C1006 1.372 . S
C1007 C1008 1.400 . S
C1007 C1012 1.490 . S
C1008 H998 0.930 . S
C1008 C1007 1.400 . S
C1008 C1011 1.386 . S
H1009 C1025 0.930 . S
H1010 C1026 0.931 . S
C1011 H999 0.929 . S
C1011 C1005 1.390 . S
C1011 C1008 1.386 . S
C1012 C1007 1.490 . S
C1012 C1014 1.395 . S
C1012 C1015 1.403 . S
H1013 C1019 0.930 . S
C1014 H1000 0.930 . S
C1014 C1012 1.395 . S
C1014 C1017 1.403 1_455 S
C1015 C1012 1.403 . S
C1015 C1016 1.524 . S
C1015 C1019 1.400 1_455 S
C1016 H1001 0.960 . S
C1016 H1002 0.960 . S
C1016 H1003 0.960 . S
C1016 C1015 1.524 . S
C1017 C1014 1.403 1_655 S
C1017 C1018 1.392 . S
C1017 C1021 1.495 . S
C1018 C1017 1.392 . S
C1018 C1019 1.385 . S
C1018 C1020 1.478 . S
C1019 H1013 0.930 . S
C1019 C1015 1.400 1_655 S
C1019 C1018 1.385 . S
C1020 C1018 1.478 . S
C1020 C1022 1.381 . S
C1020 C1026 1.383 . S
C1021 C1017 1.495 . S
C1021 H1027 0.959 . S
C1021 H1028 0.961 . S
C1021 H1029 0.960 . S
C1022 C1020 1.381 . S
C1022 C1023 1.394 . S
C1022 H1030 0.930 . S
C1023 C1022 1.394 . S
C1023 C1024 1.383 . S
C1023 H1031 0.929 . S
C1024 C1023 1.383 . S
C1024 C1025 1.377 . S
C1025 H1009 0.930 . S
C1025 C1024 1.377 . S
C1025 C1026 1.379 . S
C1026 H1010 0.931 . S
C1026 C1020 1.383 . S
C1026 C1025 1.379 . S
H1027 C1021 0.959 . S
H1028 C1021 0.961 . S
H1029 C1021 0.960 . S
H1030 C1022 0.930 . S
H1031 C1023 0.929 . S
C177 C9 1.606 . S
C196 C149 1.619 . S
C213 C23 1.608 . S
C232 C163 1.587 . S
C249 C93 1.605 . S
C268 C37 1.591 . S
C285 C51 1.607 . S
C304 C107 1.587 . S
C321 C121 1.609 . S
C340 C65 1.608 . S
C357 C135 1.609 . S
C376 C79 1.589 . S
C393 C119 1.375 . S
C412 C7 1.352 . S
C429 C21 1.367 . S
C448 C133 1.375 . S
C465 C147 1.367 . S
C484 C35 1.386 . S
C501 C49 1.373 . S
C520 C161 1.372 . S
C537 C63 1.367 . S
C556 C91 1.386 . S
C573 C77 1.373 . S
C592 C105 1.348 . S
C609 C146 1.371 . S
C628 C6 1.364 . S
C645 C160 1.365 . S
C664 C20 1.344 . S
C681 C90 1.366 . S
C700 C34 1.349 . S
C717 C48 1.370 . S
C736 C104 1.372 . S
C753 C62 1.371 . S
C772 C118 1.376 . S
C789 C132 1.370 . S
C808 C76 1.360 . S
C825 C8 1.262 . S
C844 C106 1.239 . S
C861 C120 1.272 . S
C880 C22 1.292 . S
C897 C134 1.267 . S
C916 C36 1.288 . S
C933 C50 1.263 . S
C952 C148 1.274 . S
C969 C64 1.263 . S
C988 C162 1.237 . S
C1005 C78 1.268 . S
C1024 C92 1.291 . S
