# Generated by pormake.
# Topology smm, (6)-cn, num edge types: 1
# Building blocks:
#     Node 0, Type 0, BuildingBlock: BETDEL_clean_sbu_0, # of connection points: 6
#     Node 1, Type 0, BuildingBlock: BETDEL_clean_sbu_0, # of connection points: 6
#     Node 2, Type 0, BuildingBlock: BETDEL_clean_sbu_0, # of connection points: 6
#     Node 3, Type 0, BuildingBlock: BETDEL_clean_sbu_0, # of connection points: 6
#     Node 4, Type 0, BuildingBlock: BETDEL_clean_sbu_0, # of connection points: 6
#     Node 5, Type 0, BuildingBlock: BETDEL_clean_sbu_0, # of connection points: 6
#     Node 6, Type 0, BuildingBlock: BETDEL_clean_sbu_0, # of connection points: 6
#     Node 7, Type 0, BuildingBlock: BETDEL_clean_sbu_0, # of connection points: 6
#     Node 8, Type 0, BuildingBlock: BETDEL_clean_sbu_0, # of connection points: 6
#     Edge 9, Type (0, 0), BuildingBlock: XUDNAN_clean_linker_2, # of connection points: 2
#     Edge 10, Type (0, 0), BuildingBlock: XUDNAN_clean_linker_2, # of connection points: 2
#     Edge 11, Type (0, 0), BuildingBlock: XUDNAN_clean_linker_2, # of connection points: 2
#     Edge 12, Type (0, 0), BuildingBlock: XUDNAN_clean_linker_2, # of connection points: 2
#     Edge 13, Type (0, 0), BuildingBlock: XUDNAN_clean_linker_2, # of connection points: 2
#     Edge 14, Type (0, 0), BuildingBlock: XUDNAN_clean_linker_2, # of connection points: 2
#     Edge 15, Type (0, 0), BuildingBlock: XUDNAN_clean_linker_2, # of connection points: 2
#     Edge 16, Type (0, 0), BuildingBlock: XUDNAN_clean_linker_2, # of connection points: 2
#     Edge 17, Type (0, 0), BuildingBlock: XUDNAN_clean_linker_2, # of connection points: 2
#     Edge 18, Type (0, 0), BuildingBlock: XUDNAN_clean_linker_2, # of connection points: 2
#     Edge 19, Type (0, 0), BuildingBlock: XUDNAN_clean_linker_2, # of connection points: 2
#     Edge 20, Type (0, 0), BuildingBlock: XUDNAN_clean_linker_2, # of connection points: 2
#     Edge 21, Type (0, 0), BuildingBlock: XUDNAN_clean_linker_2, # of connection points: 2
#     Edge 22, Type (0, 0), BuildingBlock: XUDNAN_clean_linker_2, # of connection points: 2
#     Edge 23, Type (0, 0), BuildingBlock: XUDNAN_clean_linker_2, # of connection points: 2
#     Edge 24, Type (0, 0), BuildingBlock: XUDNAN_clean_linker_2, # of connection points: 2
#     Edge 25, Type (0, 0), BuildingBlock: XUDNAN_clean_linker_2, # of connection points: 2
#     Edge 26, Type (0, 0), BuildingBlock: XUDNAN_clean_linker_2, # of connection points: 2
#     Edge 27, Type (0, 0), BuildingBlock: XUDNAN_clean_linker_2, # of connection points: 2
#     Edge 28, Type (0, 0), BuildingBlock: XUDNAN_clean_linker_2, # of connection points: 2
#     Edge 29, Type (0, 0), BuildingBlock: XUDNAN_clean_linker_2, # of connection points: 2
#     Edge 30, Type (0, 0), BuildingBlock: XUDNAN_clean_linker_2, # of connection points: 2
#     Edge 31, Type (0, 0), BuildingBlock: XUDNAN_clean_linker_2, # of connection points: 2
#     Edge 32, Type (0, 0), BuildingBlock: XUDNAN_clean_linker_2, # of connection points: 2
#     Edge 33, Type (0, 0), BuildingBlock: XUDNAN_clean_linker_2, # of connection points: 2
#     Edge 34, Type (0, 0), BuildingBlock: XUDNAN_clean_linker_2, # of connection points: 2
#     Edge 35, Type (0, 0), BuildingBlock: XUDNAN_clean_linker_2, # of connection points: 2
# Relax obj value: 0.069
# Max RMSD: 0.140
# Mean RMSD: 0.140
data_MOF--net-smm--node1-BETDEL_clean_sbu_0--edge1-XUDNAN_clean_linker_2
_symmetry_space_group_name_H-M    P1
_symmetry_Int_Tables_number       1
_symmetry_cell_setting            triclinic
loop_
_symmetry_equiv_pos_as_xyz
'x, y, z'
_cell_length_a     56.395036
_cell_length_b     56.513272
_cell_length_c     14.165381
_cell_angle_alpha  89.918688
_cell_angle_beta   89.984159
_cell_angle_gamma 120.01372
loop_
_atom_site_label
_atom_site_type_symbol
_atom_site_fract_x
_atom_site_fract_y
_atom_site_fract_z
_atom_type_partial_charge
Dy0 Dy 0.05812 0.23014 0.97943 0.0
C1 C 0.97746 0.1162 0.05193 0.0
C2 C 0.0916 0.28091 0.90284 0.0
Dy3 Dy 1.01253 0.17034 0.01093 0.0
O4 O 0.08071 0.27643 -0.01347 0.0
O5 O 0.08444 0.25775 0.86209 0.0
O6 O 0.07711 0.23174 0.11803 0.0
O7 O 0.03463 0.20621 0.10275 0.0
C8 C 0.05464 0.21326 0.15822 0.0
C9 C 1.0172 0.1888 0.83363 0.0
O10 O 0.99263 0.19293 0.06815 0.0
O11 O 1.01943 0.23314 0.98541 0.0
O12 O 0.97022 0.13374 0.0265 0.0
O13 O 1.00396 0.12854 0.05885 0.0
O14 O 0.99477 0.16878 0.86672 0.0
O15 O 0.03629 0.19453 0.89077 0.0
O16 O 0.08335 0.20958 0.96915 0.0
O17 O 0.05016 0.16673 0.02382 0.0
C18 C 0.99706 0.21684 0.03527 0.0
C19 C 0.07563 0.18436 -0.00196 0.0
Dy20 Dy 0.84112 0.85342 0.97074 0.0
C21 C 0.95496 0.88582 0.0454 0.0
C22 C 0.79017 0.83693 0.898 0.0
Dy23 Dy 0.90095 0.86674 0.00262 0.0
O24 O 0.80069 0.85216 0.972 0.0
O25 O 0.80756 0.83056 0.86271 0.0
O26 O 0.83847 0.86846 0.11188 0.0
O27 O 0.86444 0.85187 0.09151 0.0
C28 C 0.85773 0.86497 0.14736 0.0
C29 C 0.88295 0.85921 0.82349 0.0
O30 O 0.87959 0.82228 0.03781 0.0
O31 O 0.83612 0.81104 0.98398 0.0
O32 O 0.94399 0.87815 0.96268 0.0
O33 O 0.93628 0.88277 0.10601 0.0
O34 O 0.89968 0.85146 0.85405 0.0
O35 O 0.87803 0.87119 0.88807 0.0
O36 O 0.86395 0.89898 0.94815 0.0
O37 O 0.90473 0.9081 0.02007 0.0
C38 C 0.85383 0.80393 0.01706 0.0
C39 C 0.88803 0.91633 -0.01338 0.0
Dy40 Dy 0.21582 1.01068 0.97292 0.0
C41 C 0.17957 0.08813 0.0574 0.0
C42 C 0.23511 0.98127 0.87884 0.0
Dy43 Dy 0.20146 0.05565 0.0149 0.0
O44 O 0.22563 0.9764 0.96471 0.0
O45 O 0.23368 1.00186 0.84477 0.0
O46 O 0.20593 0.99461 0.12332 0.0
O47 O 0.21954 0.03575 0.09229 0.0
C48 C 0.20985 0.01787 0.15574 0.0
C49 C 0.20923 0.0495 0.83191 0.0
O50 O 0.24627 0.07971 0.04479 0.0
O51 O 0.25791 0.04924 0.97823 0.0
O52 O 0.20452 0.09408 0.07611 0.0
O53 O 0.16655 0.06422 0.0184 0.0
O54 O 0.21572 0.07249 0.87187 0.0
O55 O 0.19726 0.03026 0.89071 0.0
O56 O 0.16966 0.98646 0.96999 0.0
O57 O 0.1645 0.01728 0.06385 0.0
C58 C 0.2649 0.07365 0.01466 0.0
C59 C 0.15457 0.99282 0.02513 0.0
Dy60 Dy 0.72394 0.56264 0.31481 0.0
C61 C 0.648 0.44827 0.39196 0.0
C62 C 0.7576 0.61305 0.23653 0.0
Dy63 Dy 0.67926 0.50304 0.3537 0.0
O64 O 0.76445 0.60149 0.30189 0.0
O65 O 0.73216 0.597 0.21308 0.0
O66 O 0.7403 0.56863 0.46478 0.0
O67 O 0.69955 0.54026 0.43466 0.0
C68 C 0.71763 0.54836 0.49694 0.0
C69 C 0.68444 0.51852 0.17217 0.0
O70 O 0.65561 0.52363 0.39208 0.0
O71 O 0.68534 0.56598 0.32458 0.0
O72 O 0.67214 0.46015 0.35393 0.0
O73 O 0.64108 0.46648 0.41179 0.0
O74 O 0.66164 0.50154 0.21281 0.0
O75 O 0.704 0.52537 0.22905 0.0
O76 O 0.74671 0.53957 0.29807 0.0
O77 O 0.7179 0.50441 0.39801 0.0
C78 C 0.66129 0.54837 0.36373 0.0
C79 C 0.74155 0.51863 0.3538 0.0
Dy80 Dy 0.50838 0.188 0.28361 0.0
C81 C 0.61944 0.21456 0.37387 0.0
C82 C 0.45804 0.17249 0.20674 0.0
Dy83 Dy 0.56612 0.19782 0.32558 0.0
O84 O 0.47001 0.19077 0.27203 0.0
O85 O 0.47367 0.16273 0.18247 0.0
O86 O 0.50354 0.19899 0.43401 0.0
O87 O 0.52873 0.18277 0.40447 0.0
C88 C 0.52215 0.19408 0.46658 0.0
C89 C 0.55239 0.19097 0.14213 0.0
O90 O 0.54064 0.15354 0.36837 0.0
O91 O 0.5029 0.14558 0.27889 0.0
O92 O 0.60254 0.19158 0.3338 0.0
O93 O 0.60679 0.22796 0.39174 0.0
O94 O 0.56813 0.18346 0.18222 0.0
O95 O 0.54621 0.20387 0.20039 0.0
O96 O 0.53274 0.23327 0.2639 0.0
O97 O 0.57107 0.23958 0.3463 0.0
C98 C 0.5171 0.13648 0.32614 0.0
C99 C 0.55607 0.24923 0.30853 0.0
Dy100 Dy 0.88316 0.34537 0.32737 0.0
C101 C 0.84668 0.42433 0.38357 0.0
C102 C 0.90184 0.31212 0.26068 0.0
Dy103 Dy 0.86788 0.39073 0.35386 0.0
O104 O 0.88364 0.30585 0.32661 0.0
O105 O 0.91005 0.3368 0.23066 0.0
O106 O 0.86895 0.32948 0.47647 0.0
O107 O 0.88259 0.36984 0.44165 0.0
C108 C 0.87121 0.35237 0.50504 0.0
C109 C 0.8854 0.38718 0.1828 0.0
O110 O 0.91157 0.41406 0.40097 0.0
O111 O 0.92511 0.38346 0.3477 0.0
O112 O 0.84733 0.41368 0.3033 0.0
O113 O 0.85763 0.41657 0.4488 0.0
O114 O 0.891 0.40993 0.22352 0.0
O115 O 0.86952 0.36697 0.23362 0.0
O116 O 0.83823 0.32234 0.29433 0.0
O117 O 0.82741 0.35211 0.36992 0.0
C118 C 0.93087 0.4076 0.38387 0.0
C119 C 0.82004 0.328 0.3318 0.0
Dy120 Dy 0.3926 0.89606 0.62461 0.0
C121 C 0.30922 0.78487 0.71812 0.0
C122 C 0.42411 0.94503 0.5341 0.0
Dy123 Dy 0.34485 0.83826 0.66813 0.0
O124 O 0.42475 0.94107 0.62429 0.0
O125 O 0.40669 0.92222 0.49402 0.0
O126 O 0.40891 0.89982 0.77379 0.0
O127 O 0.36695 0.87579 0.74534 0.0
C128 C 0.38498 0.88202 0.80718 0.0
C129 C 0.35184 0.85134 0.48412 0.0
O130 O 0.32541 0.86334 0.70895 0.0
O131 O 0.35515 0.90083 0.61864 0.0
O132 O 0.33541 0.79784 0.7337 0.0
O133 O 0.30247 0.80152 0.67971 0.0
O134 O 0.32854 0.83573 0.52429 0.0
O135 O 0.37089 0.85787 0.54321 0.0
O136 O 0.41609 0.87398 0.61993 0.0
O137 O 0.38211 0.83392 0.69023 0.0
C138 C 0.33182 0.88676 0.66599 0.0
C139 C 0.40762 0.8498 0.65989 0.0
Dy140 Dy 0.17533 0.52222 0.65473 0.0
C141 C 0.28778 0.55132 0.73613 0.0
C142 C 0.12198 0.50434 0.60381 0.0
Dy143 Dy 0.23443 0.53443 0.68822 0.0
O144 O 0.13107 0.50742 0.68951 0.0
O145 O 0.14209 0.51137 0.54516 0.0
O146 O 0.17585 0.54032 0.7945 0.0
O147 O 0.19826 0.52024 0.77753 0.0
C148 C 0.19274 0.53404 0.83399 0.0
C149 C 0.21736 0.5231 0.50932 0.0
O150 O 0.20979 0.49076 0.73808 0.0
O151 O 0.17145 0.4806 0.64854 0.0
O152 O 0.27046 0.52771 0.70089 0.0
O153 O 0.27564 0.56548 0.74855 0.0
O154 O 0.23668 0.51961 0.54286 0.0
O155 O 0.21151 0.53621 0.56725 0.0
O156 O 0.19754 0.56734 0.63033 0.0
O157 O 0.23868 0.57634 0.69928 0.0
C158 C 0.18632 0.47277 0.69789 0.0
C159 C 0.22207 0.58466 0.66538 0.0
Dy160 Dy 0.55241 0.67959 0.65638 0.0
C161 C 0.51151 0.75424 0.72976 0.0
C162 C 0.56525 0.64313 0.5791 0.0
Dy163 Dy 0.53511 0.72323 0.69168 0.0
O164 O 0.54877 0.63809 0.65029 0.0
O165 O 0.57443 0.66799 0.54931 0.0
O166 O 0.57271 0.68671 0.79573 0.0
O167 O 0.53992 0.69391 0.78033 0.0
C168 C 0.55884 0.69672 0.83497 0.0
C169 C 0.54629 0.71647 0.51291 0.0
O170 O 0.57936 0.74668 0.72876 0.0
O171 O 0.59201 0.71988 0.64227 0.0
O172 O 0.50168 0.73338 0.67359 0.0
O173 O 0.53434 0.75816 0.76683 0.0
O174 O 0.55092 0.73985 0.54485 0.0
O175 O 0.53449 0.69856 0.57448 0.0
O176 O 0.50638 0.65268 0.66207 0.0
O177 O 0.4957 0.68473 0.72137 0.0
C178 C 0.59839 0.74243 0.69078 0.0
C179 C 0.48849 0.6594 0.69604 0.0
H180 H 0.11622 0.33191 0.98555 0.0
H181 H 0.10303 0.29084 0.71602 0.0
H182 H 0.12766 0.33553 0.6353 0.0
H183 H 0.10802 0.38719 0.90603 0.0
H184 H 0.13479 0.41264 0.97901 0.0
H185 H 0.11669 0.37745 0.01633 0.0
H186 H 0.16267 0.37785 0.0311 0.0
H187 H 0.18091 0.41307 -0.00624 0.0
H188 H 0.18546 0.38789 0.93102 0.0
H189 H 0.14991 0.38432 0.58227 0.0
H190 H 0.17179 0.43445 0.56172 0.0
H191 H 0.17452 0.44468 0.86528 0.0
C192 C 0.11875 0.33241 0.90966 0.0
C193 C 0.10771 0.30794 0.85686 0.0
C194 C 0.11142 0.30934 0.75776 0.0
C195 C 0.12534 0.33463 0.71128 0.0
C196 C 0.13587 0.3584 0.76503 0.0
C197 C 0.1331 0.35758 0.86216 0.0
C198 C 0.14644 0.38626 0.90287 0.0
C199 C 0.12522 0.39116 0.95407 0.0
C200 C 0.17029 0.39157 0.96857 0.0
C201 C 0.15671 0.40326 0.81335 0.0
C202 C 0.15017 0.38672 0.73462 0.0
C203 C 0.15564 0.39751 0.64342 0.0
C204 C 0.16803 0.42592 0.63234 0.0
C205 C 0.17533 0.44324 0.71187 0.0
C206 C 0.16982 0.43181 0.80353 0.0
H207 H 0.75703 0.79263 0.785 0.0
H208 H 0.7605 0.86159 0.93185 0.0
H209 H 0.71336 0.84702 0.88086 0.0
H210 H 0.71373 0.79054 0.58551 0.0
H211 H 0.69428 0.75373 0.583 0.0
H212 H 0.72939 0.77096 0.62211 0.0
H213 H 0.71449 0.74407 0.77969 0.0
H214 H 0.6794 0.72676 0.74094 0.0
H215 H 0.6886 0.74527 0.85085 0.0
H216 H 0.66558 0.82422 0.82278 0.0
H217 H 0.61862 0.79298 0.76897 0.0
H218 H 0.64417 0.73707 0.66303 0.0
C219 C 0.74795 0.80487 0.80471 0.0
C220 C 0.76247 0.82842 0.8615 0.0
C221 C 0.74977 0.84357 0.88804 0.0
C222 C 0.72304 0.83552 0.85911 0.0
C223 C 0.70911 0.81209 0.80416 0.0
C224 C 0.72096 0.79681 0.77753 0.0
C225 C 0.70049 0.77128 0.72465 0.0
C226 C 0.71005 0.77166 0.62275 0.0
C227 C 0.69545 0.74531 0.77719 0.0
C228 C 0.67528 0.77447 0.72707 0.0
C229 C 0.68094 0.79838 0.77227 0.0
C230 C 0.66091 0.80552 0.78668 0.0
C231 C 0.63422 0.78756 0.75577 0.0
C232 C 0.62756 0.76252 0.71132 0.0
C233 C 0.64859 0.75618 0.69553 0.0
H234 H 0.24303 0.93952 0.94361 0.0
H235 H 0.2557 0.9915 0.70104 0.0
H236 H 0.27803 0.96985 0.61623 0.0
H237 H 0.30735 0.94252 0.92947 0.0
H238 H 0.29476 0.90757 0.96474 0.0
H239 H 0.27754 0.92535 0.00413 0.0
H240 H 0.23202 0.88719 0.93362 0.0
H241 H 0.24915 0.86931 0.89386 0.0
H242 H 0.23067 0.87825 0.81083 0.0
H243 H 0.302 0.94561 0.5619 0.0
H244 H 0.32653 0.92013 0.54082 0.0
H245 H 0.29869 0.88282 0.81655 0.0
C246 C 0.25016 0.94599 0.87213 0.0
C247 C 0.24728 0.96695 0.82827 0.0
C248 C 0.25729 0.97523 0.73538 0.0
C249 C 0.27007 0.96307 0.68668 0.0
C250 C 0.27277 0.94263 0.73177 0.0
C251 C 0.26312 0.93407 0.82234 0.0
C252 C 0.27007 0.91266 0.85584 0.0
C253 C 0.28853 0.92263 0.94374 0.0
C254 C 0.24391 0.88522 0.87463 0.0
C255 C 0.28547 0.91091 0.77051 0.0
C256 C 0.28662 0.92833 0.69978 0.0
C257 C 0.30097 0.93165 0.61624 0.0
C258 C 0.31489 0.91711 0.60499 0.0
C259 C 0.31431 0.89929 0.67652 0.0
C260 C 0.29901 0.89584 0.75982 0.0
H261 H 0.42366 0.12503 0.11112 0.0
H262 H 0.4294 0.1991 0.22319 0.0
H263 H 0.38191 0.18333 0.17278 0.0
H264 H 0.37909 0.11671 0.90767 0.0
H265 H 0.35939 0.08008 0.91995 0.0
H266 H 0.39481 0.09831 0.95558 0.0
H267 H 0.38102 0.07693 0.12255 0.0
H268 H 0.34561 0.05867 0.08747 0.0
H269 H 0.3559 0.08081 0.18899 0.0
H270 H 0.3335 0.15887 0.11953 0.0
H271 H 0.28612 0.12637 0.07335 0.0
H272 H 0.31011 0.06669 -0.00069 0.0
C273 C 0.41501 0.13809 0.12328 0.0
C274 C 0.43024 0.16343 0.17017 0.0
C275 C 0.41811 0.17971 0.18695 0.0
C276 C 0.39119 0.17095 0.15832 0.0
C277 C 0.37655 0.14574 0.11344 0.0
C278 C 0.38791 0.12944 0.09618 0.0
C279 C 0.36689 0.10234 0.05303 0.0
C280 C 0.37557 0.09918 0.95311 0.0
C281 C 0.36207 0.07827 0.11684 0.0
C282 C 0.34187 0.10583 0.05032 0.0
C283 C 0.34811 0.13119 0.08444 0.0
C284 C 0.32839 0.139 0.09215 0.0
C285 C 0.30144 0.12029 0.06577 0.0
C286 C 0.29422 0.09386 0.03255 0.0
C287 C 0.31492 0.08677 0.02351 0.0
H288 H 0.94674 0.32433 0.14846 0.0
H289 H 0.87845 0.25795 0.29664 0.0
H290 H 0.89394 0.22625 0.24532 0.0
H291 H 0.9484 0.28384 0.9485 0.0
H292 H 0.98527 0.30161 0.94237 0.0
H293 H 0.96796 0.31906 0.98483 0.0
H294 H 0.99604 0.33124 0.13967 0.0
H295 H 1.01344 0.31389 0.09761 0.0
H296 H 0.9957 0.30432 0.20923 0.0
H297 H 0.91705 0.20202 0.18417 0.0
H298 H 0.94776 0.18663 0.12246 0.0
H299 H 1.00265 0.26835 0.01538 0.0
C300 C 0.93495 0.30305 0.16903 0.0
C301 C 0.91128 0.29352 0.22611 0.0
C302 C 0.89659 0.26566 0.25286 0.0
C303 C 0.90518 0.24746 0.22379 0.0
C304 C 0.92863 0.25743 0.16824 0.0
C305 C 0.94346 0.28455 0.14129 0.0
C306 C 0.96876 0.29001 0.08549 0.0
C307 C 0.96751 0.29917 0.98428 0.0
C308 C 0.99504 0.31111 0.13605 0.0
C309 C 0.96593 0.2618 0.08651 0.0
C310 C 0.94243 0.24336 0.13391 0.0
C311 C 0.93547 0.21623 0.14659 0.0
C312 C 0.95315 0.2077 0.1112 0.0
C313 C 0.97772 0.22621 0.06389 0.0
C314 C 0.98396 0.2536 0.05045 0.0
H315 H 0.80088 0.7596 0.01163 0.0
H316 H 0.88482 0.78224 0.07848 0.0
H317 H 0.86922 0.73538 0.13228 0.0
H318 H 0.77025 0.71667 0.20872 0.0
H319 H 0.74028 0.69134 0.14718 0.0
H320 H 0.75791 0.72619 0.10629 0.0
H321 H 0.76356 0.71019 0.94087 0.0
H322 H 0.74582 0.67522 0.98112 0.0
H323 H 0.77952 0.68952 0.93009 0.0
H324 H 0.84485 0.68778 0.19225 0.0
H325 H 0.81291 0.64107 0.24831 0.0
H326 H 0.74439 0.64734 0.13919 0.0
C327 C 0.81604 0.75459 0.03603 0.0
C328 C 0.84416 0.7748 0.04056 0.0
C329 C 0.8632 0.76732 0.0741 0.0
C330 C 0.85456 0.74066 0.10485 0.0
C331 C 0.82676 0.72144 0.10119 0.0
C332 C 0.80774 0.72788 0.0669 0.0
C333 C 0.77895 0.70339 0.07413 0.0
C334 C 0.76078 0.70979 0.13788 0.0
C335 C 0.76622 0.69403 0.97568 0.0
C336 C 0.7848 0.68246 0.1196 0.0
C337 C 0.81258 0.69343 0.13431 0.0
C338 C 0.8231 0.67882 0.17992 0.0
C339 C 0.80479 0.65232 0.21175 0.0
C340 C 0.77626 0.64054 0.19736 0.0
C341 C 0.76616 0.65573 0.14977 0.0
H342 H 0.09376 0.47375 0.44894 0.0
H343 H 0.08486 0.51087 0.7042 0.0
H344 H 0.03585 0.4925 0.6686 0.0
H345 H 0.04455 0.48152 0.30183 0.0
H346 H 0.03108 0.44845 0.24739 0.0
H347 H 0.06612 0.46665 0.28724 0.0
H348 H 0.05739 0.42509 0.38985 0.0
H349 H 1.02236 0.40678 0.35038 0.0
H350 H 0.02988 0.41156 0.47486 0.0
H351 H 0.98837 0.47045 0.60707 0.0
H352 H 0.94348 0.44188 0.53278 0.0
H353 H 0.98092 0.41469 0.3235 0.0
C354 C 0.08148 0.4783 0.49624 0.0
C355 C 0.09305 0.49408 0.57858 0.0
C356 C 0.07635 0.49902 0.64048 0.0
C357 C 0.04855 0.48874 0.62068 0.0
C358 C 0.03763 0.47309 0.5395 0.0
C359 C 0.05339 0.46751 0.47878 0.0
C360 C 0.03584 0.44824 0.40071 0.0
C361 C 0.04494 0.46204 0.30353 0.0
C362 C 0.0364 0.42132 0.40421 0.0
C363 C 1.0078 0.44382 0.42748 0.0
C364 C 1.00956 0.45884 0.50678 0.0
C365 C 0.98671 0.45859 0.54498 0.0
C366 C 0.96128 0.44235 0.50179 0.0
C367 C 0.95864 0.4261 0.422 0.0
C368 C 0.9823 0.42689 0.38437 0.0
H369 H 0.61035 0.65515 0.47111 0.0
H370 H 0.53955 0.58815 0.60643 0.0
H371 H 0.55466 0.55615 0.55316 0.0
H372 H 0.61453 0.61671 0.26796 0.0
H373 H 0.65142 0.63419 0.26977 0.0
H374 H 0.63367 0.65142 0.30977 0.0
H375 H 0.65891 0.66146 0.47019 0.0
H376 H 0.67672 0.64428 0.4307 0.0
H377 H 0.65697 0.63355 0.53824 0.0
H378 H 0.57828 0.53195 0.49282 0.0
H379 H 0.61005 0.51708 0.43755 0.0
H380 H 0.66718 0.59994 0.34583 0.0
C381 C 0.59782 0.63364 0.4879 0.0
C382 C 0.5736 0.62397 0.54194 0.0
C383 C 0.55805 0.59587 0.56463 0.0
C384 C 0.56644 0.57757 0.53444 0.0
C385 C 0.59057 0.58774 0.48222 0.0
C386 C 0.60615 0.61513 0.45946 0.0
C387 C 0.63231 0.62099 0.40888 0.0
C388 C 0.63301 0.63145 0.3081 0.0
C389 C 0.65772 0.64126 0.4654 0.0
C390 C 0.62914 0.59269 0.40795 0.0
C391 C 0.60472 0.57382 0.44957 0.0
C392 C 0.59741 0.54651 0.45971 0.0
C393 C 0.6157 0.53828 0.42802 0.0
C394 C 0.64124 0.55729 0.3872 0.0
C395 C 0.64779 0.58482 0.37594 0.0
H396 H 0.51866 0.10773 0.48135 0.0
H397 H 0.48682 0.09784 0.19661 0.0
H398 H 0.46257 0.04773 0.21606 0.0
H399 H 0.52615 0.04638 0.48696 0.0
H400 H 0.51458 0.03826 0.6075 0.0
H401 H 0.53206 0.07332 0.56818 0.0
H402 H 0.49117 0.07845 0.62439 0.0
H403 H 0.47353 0.04342 0.66353 0.0
H404 H 0.45728 0.05512 0.58101 0.0
H405 H 0.43968 0.99926 0.26789 0.0
H406 H 0.4179 0.95504 0.35135 0.0
H407 H 0.46261 0.99525 0.60586 0.0
C408 C 0.5071 0.09492 0.42255 0.0
C409 C 0.50488 0.10658 0.3369 0.0
C410 C 0.48888 0.08927 0.26249 0.0
C411 C 0.4751 0.0608 0.27281 0.0
C412 C 0.47725 0.04988 0.35846 0.0
C413 C 0.49272 0.06632 0.43235 0.0
C414 C 0.48966 0.04925 0.5194 0.0
C415 C 0.51726 0.05197 0.54712 0.0
C416 C 0.47716 0.05703 0.60194 0.0
C417 C 0.46989 0.02076 0.48298 0.0
C418 C 0.46331 0.02168 0.38957 0.0
C419 C 0.44488 0.99823 0.34074 0.0
C420 C 0.43267 0.97317 0.38865 0.0
C421 C 0.43879 0.97165 0.48458 0.0
C422 C 0.45776 0.99578 0.53221 0.0
H423 H 0.12639 0.07579 0.04032 0.0
H424 H 0.20864 0.14348 0.08414 0.0
H425 H 0.19128 0.17592 0.07237 0.0
H426 H 0.10526 0.1075 0.87233 0.0
H427 H 0.07075 0.09288 0.91651 0.0
H428 H 0.08942 0.07502 0.93263 0.0
H429 H 0.08158 0.0734 0.11337 0.0
H430 H 0.06255 0.09091 0.09746 0.0
H431 H 0.09149 0.1047 0.1763 0.0
H432 H 0.16506 0.2011 0.04237 0.0
H433 H 0.13145 0.21651 0.01634 0.0
H434 H 0.06628 0.13196 -0.0003 0.0
C435 C 0.14066 0.09743 0.04893 0.0
C436 C 0.16884 0.1072 0.06328 0.0
C437 C 0.18694 0.13561 0.07385 0.0
C438 C 0.17728 0.15416 0.06669 0.0
C439 C 0.14942 0.14391 0.05025 0.0
C440 C 0.1313 0.11614 0.04331 0.0
C441 C 0.10236 0.1103 0.02596 0.0
C442 C 0.09131 0.09556 0.93122 0.0
C443 C 0.08338 0.09386 0.10819 0.0
C444 C 0.10704 0.13911 0.02283 0.0
C445 C 0.13432 0.15826 0.03617 0.0
C446 C 0.1436 0.18625 0.03289 0.0
C447 C 0.1244 0.19483 0.01739 0.0
C448 C 0.09624 0.17548 0.00639 0.0
C449 C 0.08763 0.14729 0.00866 0.0
H450 H 0.93899 0.95955 0.03093 0.0
H451 H 0.85622 0.93984 0.95955 0.0
H452 H 0.86958 0.98836 0.97856 0.0
H453 H 0.95194 1.01087 0.2064 0.0
H454 H 0.98714 0.03278 0.17203 0.0
H455 H 0.97107 0.99638 0.15496 0.0
H456 H 0.98339 1.00386 0.9771 0.0
H457 H 0.99972 0.04025 -0.00606 0.0
H458 H 0.973 0.02378 0.90717 0.0
H459 H 0.89181 0.03902 0.00555 0.0
H460 H 0.92225 0.08875 0.0256 0.0
H461 H 0.99089 0.07599 0.07664 0.0
C462 C 0.92363 0.96539 0.0193 0.0
C463 C 0.89648 0.94575 -0.00617 0.0
C464 C 0.87714 0.95441 0.97871 0.0
C465 C 0.8845 0.98194 -0.01012 0.0
C466 C 0.91134 1.00068 0.01578 0.0
C467 C 0.93069 0.99284 0.02939 0.0
C468 C 0.95839 0.01725 0.05365 0.0
C469 C 0.96767 1.01412 0.15266 0.0
C470 C 0.97989 0.02154 0.97847 0.0
C471 C 0.9516 0.04005 0.05122 0.0
C472 C 0.92427 0.02998 0.03009 0.0
C473 C 0.91322 0.04712 0.02227 0.0
C474 C 0.93065 0.07533 0.03415 0.0
C475 C 0.95887 0.08621 0.05319 0.0
C476 C 0.96934 0.06823 0.06319 0.0
H477 H 0.99571 0.89711 0.91795 0.0
H478 H 0.98116 0.90333 0.21513 0.0
H479 H 0.03113 0.92725 0.24429 0.0
H480 H 0.05541 0.88747 0.94735 0.0
H481 H 0.07273 0.90802 0.84537 0.0
H482 H 0.03584 0.8891 0.84949 0.0
H483 H 0.0346 0.93366 0.81875 0.0
H484 H 0.07141 0.95268 0.81436 0.0
H485 H 0.05334 0.96254 0.89576 0.0
H486 H 0.08233 0.95437 0.23814 0.0
H487 H 0.13132 0.98287 0.19792 0.0
H488 H 0.11324 0.95831 0.90503 0.0
C489 C 1.00304 0.90307 -0.01052 0.0
C490 C 0.98461 0.89824 0.06461 0.0
C491 C 0.99494 0.90671 0.15685 0.0
C492 C 1.02327 0.92024 0.17398 0.0
C493 C 0.04094 0.92501 0.09814 0.0
C494 C 0.03124 0.9166 0.00772 0.0
C495 C 0.05463 0.9258 0.93765 0.0
C496 C 0.05465 0.90112 0.89231 0.0
C497 C 0.05341 0.9448 0.86221 0.0
C498 C 0.07905 0.9412 0.00244 0.0
C499 C 0.07063 0.94034 0.09482 0.0
C500 C 0.08917 0.95477 0.16647 0.0
C501 C 0.11693 0.9709 0.14297 0.0
C502 C 0.126 0.97234 0.04882 0.0
C503 C 0.10689 0.95687 0.97798 0.0
H504 H 0.76566 0.50035 0.2279 0.0
H505 H 0.76286 0.51813 0.5236 0.0
H506 H 0.79278 0.49912 0.56275 0.0
H507 H 0.75929 0.4363 0.26727 0.0
H508 H 0.78142 0.43827 0.17209 0.0
H509 H 0.76341 0.457 0.16482 0.0
H510 H 0.80924 0.50207 0.13919 0.0
H511 H 0.82741 0.48343 0.14542 0.0
H512 H 0.83664 0.51198 0.22308 0.0
H513 H 0.81977 0.47477 0.57149 0.0
H514 H 0.84136 0.44627 0.54902 0.0
H515 H 0.82483 0.44234 0.24872 0.0
C516 C 0.77221 0.50104 0.30021 0.0
C517 C 0.76271 0.51128 0.37269 0.0
C518 C 0.77051 0.5108 0.46723 0.0
C519 C 0.78742 0.50002 0.49002 0.0
C520 C 0.79604 0.48945 0.41745 0.0
C521 C 0.78872 0.48984 0.32439 0.0
C522 C 0.79851 0.47479 0.26133 0.0
C523 C 0.77421 0.45013 0.2136 0.0
C524 C 0.81919 0.49423 0.18793 0.0
C525 C 0.8122 0.4657 0.33346 0.0
C526 C 0.81078 0.47457 0.42298 0.0
C527 C 0.82122 0.4679 0.50157 0.0
C528 C 0.83338 0.45169 0.48829 0.0
C529 C 0.83478 0.44219 0.39731 0.0
C530 C 0.82416 0.44944 0.3191 0.0
H531 H 0.66224 0.40877 0.375 0.0
H532 H 0.59239 0.42033 0.41264 0.0
H533 H 0.56119 0.37052 0.39515 0.0
H534 H 0.63359 0.35731 0.20187 0.0
H535 H 0.64843 0.33773 0.24647 0.0
H536 H 0.66537 0.37402 0.26643 0.0
H537 H 0.66504 0.36619 0.44677 0.0
H538 H 0.64845 0.32987 0.4271 0.0
H539 H 0.63312 0.34363 0.50523 0.0
H540 H 0.53769 0.32018 0.35702 0.0
H541 H 0.52347 0.27192 0.32422 0.0
H542 H 0.60861 0.29251 0.32287 0.0
C543 C 0.64038 0.40072 0.38122 0.0
C544 C 0.62965 0.41832 0.39525 0.0
C545 C 0.60098 0.40713 0.40262 0.0
C546 C 0.58313 0.37891 0.3922 0.0
C547 C 0.59433 0.36215 0.37603 0.0
C548 C 0.62231 0.37255 0.37266 0.0
C549 C 0.62908 0.35011 0.35475 0.0
C550 C 0.64506 0.3551 0.26186 0.0
C551 C 0.64485 0.34728 0.43847 0.0
C552 C 0.60052 0.32551 0.34721 0.0
C553 C 0.58078 0.33297 0.3585 0.0
C554 C 0.55296 0.31405 0.34943 0.0
C555 C 0.54509 0.28674 0.33005 0.0
C556 C 0.56492 0.27849 0.3214 0.0
C557 C 0.59299 0.2982 0.33003 0.0
H558 H 0.65921 0.26708 0.41749 0.0
H559 H 0.64745 0.18809 0.33439 0.0
H560 H 0.6975 0.20822 0.31756 0.0
H561 H 0.71227 0.30626 0.25698 0.0
H562 H 0.73155 0.33454 0.33575 0.0
H563 H 0.69503 0.31364 0.34971 0.0
H564 H 0.70141 0.30359 0.52334 0.0
H565 H 0.73796 0.32477 0.51041 0.0
H566 H 0.72348 0.28989 0.54978 0.0
H567 H 0.74858 0.2377 0.29747 0.0
H568 H 0.79723 0.27366 0.28665 0.0
H569 H 0.776 0.33361 0.3836 0.0
C570 C 0.66725 0.25392 0.39797 0.0
C571 C 0.64947 0.22595 0.378 0.0
C572 C 0.66071 0.2095 0.35077 0.0
C573 C 0.68912 0.22079 0.34068 0.0
C574 C 0.70608 0.24858 0.35831 0.0
C575 C 0.69562 0.2649 0.38743 0.0
C576 C 0.71828 0.29437 0.39857 0.0
C577 C 0.71402 0.31331 0.33123 0.0
C578 C 0.72041 0.3037 0.50167 0.0
C579 C 0.74302 0.29211 0.37009 0.0
C580 C 0.73553 0.26554 0.34706 0.0
C581 C 0.75472 0.25855 0.31617 0.0
C582 C 0.78233 0.27917 0.30978 0.0
C583 C 0.7906 0.30652 0.3344 0.0
C584 C 0.7705 0.31293 0.36464 0.0
H585 H 0.45886 0.74153 0.697 0.0
H586 H 0.53841 0.80821 0.77931 0.0
H587 H 0.52039 0.84019 0.77155 0.0
H588 H 0.44171 0.77728 0.53425 0.0
H589 H 0.406 0.76103 0.56599 0.0
H590 H 0.42465 0.74319 0.58278 0.0
H591 H 0.41129 0.73607 0.75975 0.0
H592 H 0.39224 0.75354 0.74317 0.0
H593 H 0.41862 0.7652 0.83191 0.0
H594 H 0.49485 0.86548 0.73654 0.0
H595 H 0.46199 0.88123 0.70095 0.0
H596 H 0.39814 0.79735 0.65449 0.0
C597 C 0.47232 0.7628 0.71494 0.0
C598 C 0.50001 0.77254 0.73864 0.0
C599 C 0.51709 0.80041 0.76167 0.0
C600 C 0.50706 0.81869 0.75688 0.0
C601 C 0.47979 0.80857 0.7309 0.0
C602 C 0.46248 0.78114 0.71257 0.0
C603 C 0.43401 0.77542 0.68668 0.0
C604 C 0.42615 0.76354 0.58647 0.0
C605 C 0.41279 0.75644 0.75976 0.0
C606 C 0.43814 0.80402 0.69126 0.0
C607 C 0.46476 0.8229 0.71581 0.0
C608 C 0.47385 0.85082 0.71882 0.0
C609 C 0.45513 0.8596 0.69777 0.0
C610 C 0.42757 0.84049 0.67555 0.0
C611 C 0.41904 0.81237 0.67237 0.0
H612 H 0.27282 0.62841 0.71275 0.0
H613 H 0.19042 0.60793 0.63184 0.0
H614 H 0.20322 0.65626 0.64758 0.0
H615 H 0.28394 0.68034 0.88461 0.0
H616 H 0.31933 0.70252 0.85303 0.0
H617 H 0.30383 0.66611 0.83768 0.0
H618 H 0.31753 0.67316 0.6611 0.0
H619 H 0.33331 0.70957 0.6762 0.0
H620 H 0.30734 0.69255 0.58735 0.0
H621 H 0.22458 0.70666 0.67073 0.0
H622 H 0.25428 0.75656 0.68801 0.0
H623 H 0.32323 0.74536 0.75262 0.0
C624 C 0.25745 0.63407 0.69833 0.0
C625 C 0.23053 0.61418 0.67108 0.0
C626 C 0.21117 0.62262 0.65246 0.0
C627 C 0.2182 0.65008 0.66171 0.0
C628 C 0.24475 0.66906 0.68938 0.0
C629 C 0.26419 0.66154 0.7066 0.0
C630 C 0.29155 0.6863 0.73224 0.0
C631 C 0.30016 0.68365 0.83289 0.0
C632 C 0.31374 0.69065 0.6599 0.0
C633 C 0.28441 0.70888 0.72623 0.0
C634 C 0.25721 0.69836 0.70215 0.0
C635 C 0.24587 0.71512 0.68994 0.0
C636 C 0.26288 0.74345 0.70026 0.0
C637 C 0.29097 0.75482 0.72244 0.0
C638 C 0.30173 0.73721 0.73711 0.0
H639 H 0.4453 0.66691 0.74053 0.0
H640 H 0.46496 0.60368 0.67405 0.0
H641 H 0.41595 0.56875 0.68903 0.0
H642 H 0.39147 0.628 0.91156 0.0
H643 H 0.37068 0.64218 0.87327 0.0
H644 H 0.40741 0.66198 0.86231 0.0
H645 H 0.40273 0.66831 0.68355 0.0
H646 H 0.36603 0.64866 0.69393 0.0
H647 H 0.38347 0.63864 0.61034 0.0
H648 H 0.3644 0.54091 0.70505 0.0
H649 H 0.31443 0.52265 0.71404 0.0
H650 H 0.32851 0.60411 0.76994 0.0
C651 C 0.43945 0.6457 0.72998 0.0
C652 C 0.45916 0.63808 0.70655 0.0
C653 C 0.45037 0.61008 0.69219 0.0
C654 C 0.42256 0.59008 0.70088 0.0
C655 C 0.40374 0.59836 0.72391 0.0
C656 C 0.41183 0.62554 0.73799 0.0
C657 C 0.38746 0.62927 0.75789 0.0
C658 C 0.38938 0.64105 0.85718 0.0
C659 C 0.38477 0.64728 0.68189 0.0
C660 C 0.36427 0.59993 0.75183 0.0
C661 C 0.37411 0.5824 0.73286 0.0
C662 C 0.35652 0.55444 0.72061 0.0
C663 C 0.32816 0.54424 0.72606 0.0
C664 C 0.31762 0.56191 0.74351 0.0
C665 C 0.33599 0.59005 0.75799 0.0
H666 H 0.99935 0.15656 0.67635 0.0
H667 H 0.04322 0.24071 0.76924 0.0
H668 H 0.05794 0.25606 0.60534 0.0
H669 H 0.04487 0.16011 0.50267 0.0
H670 H 1.01942 0.13888 0.41714 0.0
H671 H 1.01121 0.13434 0.54107 0.0
H672 H 0.96991 0.14156 0.51182 0.0
H673 H 0.97774 0.1457 0.38744 0.0
H674 H 0.97519 0.17192 0.45128 0.0
H675 H 0.07217 0.26145 0.43827 0.0
H676 H 0.07945 0.25811 0.26859 0.0
H677 H 1.02205 0.17086 0.27682 0.0
C678 C 1.01165 0.17821 0.6614 0.0
C679 C 1.02152 0.19762 0.73492 0.0
C680 C 0.03723 0.22571 0.71385 0.0
C681 C 0.04514 0.23454 0.62104 0.0
C682 C 0.03634 0.21488 0.55028 0.0
C683 C 1.0193 0.18738 0.56853 0.0
C684 C 1.01282 0.17065 0.47879 0.0
C685 C 1.02267 0.14977 0.48537 0.0
C686 C 0.98209 0.15664 0.45599 0.0
C687 C 0.0296 0.19301 0.40807 0.0
C688 C 0.04311 0.21829 0.45139 0.0
C689 C 0.06134 0.24189 0.40296 0.0
C690 C 0.06553 0.23972 0.30699 0.0
C691 C 0.05129 0.21421 0.26044 0.0
C692 C 0.03301 0.19057 0.3113 0.0
H693 H 0.89313 0.83708 0.66553 0.0
H694 H 0.86428 0.89165 0.75759 0.0
H695 H 0.86089 0.90297 0.59324 0.0
H696 H 0.93188 0.87678 0.45842 0.0
H697 H 0.92138 0.84716 0.385 0.0
H698 H 0.92423 0.84464 0.51094 0.0
H699 H 0.87387 0.80512 0.51886 0.0
H700 H 0.87103 0.80728 0.39297 0.0
H701 H 0.84717 0.81014 0.47018 0.0
H702 H 0.85933 0.90807 0.42462 0.0
H703 H 0.85297 0.90156 0.25327 0.0
H704 H 0.8806 0.84235 0.26259 0.0
C705 C 0.88622 0.85146 0.65053 0.0
C706 C 0.87928 0.86375 0.72399 0.0
C707 C 0.86987 0.88212 0.70239 0.0
C708 C 0.86809 0.8889 0.60926 0.0
C709 C 0.87548 0.87689 0.53845 0.0
C710 C 0.88386 0.85818 0.55711 0.0
C711 C 0.88807 0.84658 0.46621 0.0
C712 C 0.91819 0.85426 0.45449 0.0
C713 C 0.86888 0.81543 0.46181 0.0
C714 C 0.88013 0.86132 0.3944 0.0
C715 C 0.87359 0.87913 0.43833 0.0
C716 C 0.86446 0.89429 0.38895 0.0
C717 C 0.86087 0.89041 0.2919 0.0
C718 C 0.8662 0.87141 0.24575 0.0
C719 C 0.87671 0.85722 0.29674 0.0
H720 H 0.19925 1.00519 0.71934 0.0
H721 H 0.21225 0.08776 0.71138 0.0
H722 H 0.20808 0.08537 0.53956 0.0
H723 H 0.23993 1.01295 0.52184 0.0
H724 H 0.21876 0.97934 0.47275 0.0
H725 H 0.21819 0.9846 0.59772 0.0
H726 H 0.16603 0.96475 0.59486 0.0
H727 H 0.16583 0.95866 0.46985 0.0
H728 H 0.15136 0.97859 0.51412 0.0
H729 H 0.20617 0.07679 0.37281 0.0
H730 H 0.2097 0.06311 0.21184 0.0
H731 H 0.19961 0.98641 0.31713 0.0
C732 C 0.20092 0.02255 0.6811 0.0
C733 C 0.20603 0.04663 0.72875 0.0
C734 C 0.20837 0.0691 0.6766 0.0
C735 C 0.20582 0.06792 0.57881 0.0
C736 C 0.20113 0.04419 0.53366 0.0
C737 C 0.19885 0.02191 0.58216 0.0
C738 C 0.19625 1.00003 0.51372 0.0
C739 C 0.21971 0.99391 0.52728 0.0
C740 C 0.16819 0.97396 0.52376 0.0
C741 C 0.19859 1.01417 0.41998 0.0
C742 C 0.20071 0.03934 0.43413 0.0
C743 C 0.2043 0.05703 0.36034 0.0
C744 C 0.20637 0.04911 0.26917 0.0
C745 C 0.20498 0.02379 0.25239 0.0
C746 C 0.20051 1.00579 0.3284 0.0
H747 H 0.74744 0.57239 0.65821 0.0
H748 H 0.67468 0.50083 0.55273 0.0
H749 H 0.66075 0.48429 0.71472 0.0
H750 H 0.75858 0.53712 0.8644 0.0
H751 H 0.76941 0.56628 0.94051 0.0
H752 H 0.77597 0.57114 0.81536 0.0
H753 H 0.75099 0.59907 0.80849 0.0
H754 H 0.74406 0.59401 0.93317 0.0
H755 H 0.71625 0.58389 0.85092 0.0
H756 H 0.65106 0.47848 0.88157 0.0
H757 H 0.64762 0.48095 0.05311 0.0
H758 H 0.72708 0.5552 0.05967 0.0
C759 C 0.72898 0.55295 0.66975 0.0
C760 C 0.71203 0.53781 0.59364 0.0
C761 C 0.68781 0.51269 0.61047 0.0
C762 C 0.67978 0.50309 0.70209 0.0
C763 C 0.69631 0.51881 0.77598 0.0
C764 C 0.72057 0.54301 0.76161 0.0
C765 C 0.73333 0.55652 0.85509 0.0
C766 C 0.76096 0.55783 0.86969 0.0
C767 C 0.73632 0.58506 0.86229 0.0
C768 C 0.71186 0.53655 0.92329 0.0
C769 C 0.69084 0.51498 0.87533 0.0
C770 C 0.66759 0.4949 0.9205 0.0
C771 C 0.66577 0.49665 0.01792 0.0
C772 C 0.68719 0.5182 0.06935 0.0
C773 C 0.71064 0.53837 0.0217 0.0
H774 H 0.49991 0.20245 0.62818 0.0
H775 H 0.56761 0.19409 0.5223 0.0
H776 H 0.58433 0.19663 0.6838 0.0
H777 H 0.53785 0.2487 0.83007 0.0
H778 H 0.50876 0.23239 0.90821 0.0
H779 H 0.50363 0.2336 0.78304 0.0
H780 H 0.47285 0.18091 0.78084 0.0
H781 H 0.47806 0.17952 0.90565 0.0
H782 H 0.4862 0.15995 0.82503 0.0
H783 H 0.59093 0.19438 0.85081 0.0
H784 H 0.58879 0.18953 0.0227 0.0
H785 H 0.51741 0.1998 0.02998 0.0
C786 C 0.51857 0.20181 0.63948 0.0
C787 C 0.53265 0.19825 0.56329 0.0
C788 C 0.55666 0.19691 0.57995 0.0
C789 C 0.56636 0.1984 0.67133 0.0
C790 C 0.55177 0.2012 0.74528 0.0
C791 C 0.52851 0.20305 0.73118 0.0
C792 C 0.51584 0.20392 0.82492 0.0
C793 C 0.51658 0.23129 0.83727 0.0
C794 C 0.4865 0.17962 0.83464 0.0
C795 C 0.53524 0.20142 0.89307 0.0
C796 C 0.55584 0.20008 0.84474 0.0
C797 C 0.57524 0.19587 0.88992 0.0
C798 C 0.5737 0.19296 -0.01238 0.0
C799 C 0.55301 0.19445 0.03935 0.0
C800 C 0.53362 0.19897 -0.00823 0.0
H801 H 0.85804 0.32052 0.66701 0.0
H802 H 0.88736 0.40325 0.56577 0.0
H803 H 0.89718 0.42037 0.72729 0.0
H804 H 0.82426 0.32844 0.87687 0.0
H805 H 0.83252 0.30761 0.95098 0.0
H806 H 0.82799 0.30126 0.82586 0.0
H807 H 0.87619 0.30628 0.81606 0.0
H808 H 0.88108 0.3132 0.94087 0.0
H809 H 0.9055 0.33722 0.85778 0.0
H810 H 0.90774 0.42976 0.89238 0.0
H811 H 0.90886 0.43035 0.0651 0.0
H812 H 0.8687 0.34164 0.07011 0.0
C813 C 0.86618 0.34213 0.67948 0.0
C814 C 0.8724 0.36064 0.60381 0.0
C815 C 0.88277 0.38874 0.62237 0.0
C816 C 0.88859 0.39875 0.71396 0.0
C817 C 0.88333 0.38032 0.78661 0.0
C818 C 0.8716 0.35254 0.77167 0.0
C819 C 0.86676 0.33744 0.8648 0.0
C820 C 0.83605 0.31751 0.88056 0.0
C821 C 0.88337 0.32266 0.87014 0.0
C822 C 0.87771 0.36124 0.93331 0.0
C823 C 0.88773 0.38572 0.88556 0.0
C824 C 0.8996 0.41076 0.93122 0.0
C825 C 0.90021 0.41084 0.02933 0.0
C826 C 0.88846 0.38601 0.08056 0.0
C827 C 0.87765 0.36087 0.03219 0.0
H828 H 0.39734 0.88303 0.37086 0.0
H829 H 0.31222 0.81811 0.36381 0.0
H830 H 0.31435 0.816 0.19205 0.0
H831 H 0.39295 0.91797 0.17296 0.0
H832 H 0.42612 0.9279 0.12356 0.0
H833 H 0.4206 0.92236 0.24861 0.0
H834 H 0.43653 0.88698 0.24618 0.0
H835 H 0.4429 0.8925 0.12109 0.0
H836 H 0.42074 0.8585 0.16584 0.0
H837 H 0.3232 0.82206 0.02509 0.0
H838 H 0.3378 0.83862 0.86383 0.0
H839 H 0.41701 0.90124 0.96824 0.0
C840 C 0.37933 0.86829 0.33288 0.0
C841 C 0.35465 0.85073 0.38087 0.0
C842 C 0.33138 0.83179 0.32889 0.0
C843 C 0.33239 0.83025 0.23109 0.0
C844 C 0.35675 0.84791 0.18564 0.0
C845 C 0.37982 0.86674 0.23389 0.0
C846 C 0.40245 0.88482 0.16513 0.0
C847 C 0.411 0.91506 0.17831 0.0
C848 C 0.42711 0.88043 0.17518 0.0
C849 C 0.38791 0.87377 0.0715 0.0
C850 C 0.3618 0.85204 0.08599 0.0
C851 C 0.34366 0.83889 0.01237 0.0
C852 C 0.35215 0.84854 0.92102 0.0
C853 C 0.37847 0.8712 0.90388 0.0
C854 C 0.39687 0.88371 0.97973 0.0
H855 H 0.2352 0.54448 0.95204 0.0
H856 H 0.14753 0.51282 0.94317 0.0
H857 H 0.14422 0.50254 0.11348 0.0
H858 H 0.23498 0.49749 0.12993 0.0
H859 H 0.26531 0.52329 0.18852 0.0
H860 H 0.2608 0.52609 0.06381 0.0
H861 H 0.26687 0.57422 0.08902 0.0
H862 H 0.27162 0.57168 0.2135 0.0
H863 H 0.24536 0.57857 0.17316 0.0
H864 H 0.14989 0.4946 0.28121 0.0
H865 H 0.1655 0.49623 0.44517 0.0
H866 H 0.24979 0.53804 0.35203 0.0
C867 C 0.21541 0.53533 -0.01347 0.0
C868 C 0.19161 0.52939 0.93571 0.0
C869 C 0.16597 0.51765 0.98193 0.0
C870 C 0.16385 0.51149 0.0781 0.0
C871 C 0.18764 0.51756 0.12675 0.0
C872 C 0.21301 0.52965 0.08336 0.0
C873 C 0.23554 0.53609 0.1543 0.0
C874 C 0.25001 0.51976 0.13284 0.0
C875 C 0.25605 0.56698 0.15769 0.0
C876 C 0.21882 0.52615 0.24425 0.0
C877 C 0.19119 0.51493 0.22595 0.0
C878 C 0.17151 0.50399 0.29689 0.0
C879 C 0.18045 0.50555 0.38977 0.0
C880 C 0.2086 0.51867 0.41074 0.0
C881 C 0.22807 0.52829 0.33717 0.0
H882 H 0.56135 0.7502 0.35747 0.0
H883 H 0.53584 0.66742 0.44828 0.0
H884 H 0.53804 0.65442 0.28486 0.0
H885 H 0.52055 0.73014 0.1491 0.0
H886 H 0.54506 0.75808 0.07728 0.0
H887 H 0.54436 0.76228 0.20309 0.0
H888 H 0.59567 0.77648 0.21396 0.0
H889 H 0.59659 0.77254 0.08802 0.0
H890 H 0.60699 0.75423 0.16626 0.0
H891 H 0.54165 0.64956 0.11583 0.0
H892 H 0.54557 0.65282 0.94235 0.0
H893 H 0.56535 0.73745 0.95455 0.0
C894 C 0.55669 0.72952 0.34262 0.0
C895 C 0.54916 0.70996 0.41525 0.0
C896 C 0.54246 0.68288 0.39372 0.0
C897 C 0.54344 0.67522 0.30113 0.0
C898 C 0.55069 0.6948 0.23089 0.0
C899 C 0.55707 0.72133 0.24975 0.0
C900 C 0.56259 0.73769 0.15941 0.0
C901 C 0.5419 0.74762 0.14649 0.0
C902 C 0.59223 0.76165 0.15679 0.0
C903 C 0.55812 0.71605 0.08745 0.0
C904 C 0.55154 0.69159 0.1309 0.0
C905 C 0.54675 0.66853 0.08059 0.0
C906 C 0.54899 0.67054 0.98264 0.0
C907 C 0.5556 0.6953 0.93683 0.0
C908 C 0.56004 0.71831 -0.01087 0.0
loop_
_geom_bond_atom_site_label_1
_geom_bond_atom_site_label_2
_geom_bond_distance
_geom_bond_site_symmetry_2
_ccdc_geom_bond_type
Dy0 O4 2.398 . S
Dy0 O5 2.491 1_554 S
Dy0 O6 2.403 . S
Dy0 O7 2.664 . S
Dy0 O11 2.326 . S
Dy0 O15 2.310 1_554 S
Dy0 O16 2.351 . S
C1 O12 1.185 1_554 S
C1 O13 1.355 . S
C2 O4 1.185 1_556 S
C2 O5 1.355 . S
Dy3 O7 2.310 1_655 S
Dy3 O10 2.351 . S
Dy3 O12 2.398 1_554 S
Dy3 O13 2.491 . S
Dy3 O14 2.403 1_554 S
Dy3 O15 2.664 1_654 S
Dy3 O17 2.326 1_654 S
O4 Dy0 2.398 . S
O4 C2 1.185 1_554 S
O5 Dy0 2.491 1_556 S
O5 C2 1.355 . S
O6 Dy0 2.403 . S
O6 C8 1.254 . S
O7 Dy0 2.664 . S
O7 Dy3 2.310 1_455 S
O7 C8 1.268 . S
C8 O6 1.254 . S
C8 O7 1.268 . S
C9 O14 1.254 1_455 S
C9 O15 1.268 . S
O10 Dy3 2.351 . S
O10 C18 1.249 . S
O11 Dy0 2.326 . S
O11 C18 1.267 1_455 S
O12 C1 1.185 1_556 S
O12 Dy3 2.398 1_556 S
O13 C1 1.355 . S
O13 Dy3 2.491 . S
O14 Dy3 2.403 1_556 S
O14 C9 1.254 1_655 S
O15 Dy0 2.310 1_556 S
O15 Dy3 2.664 1_456 S
O15 C9 1.268 . S
O16 Dy0 2.351 . S
O16 C19 1.249 1_554 S
O17 Dy3 2.326 1_456 S
O17 C19 1.267 . S
C18 O10 1.249 . S
C18 O11 1.267 1_655 S
C19 O16 1.249 1_556 S
C19 O17 1.267 . S
Dy20 O24 2.398 . S
Dy20 O25 2.491 1_554 S
Dy20 O26 2.403 . S
Dy20 O27 2.664 . S
Dy20 O31 2.326 . S
Dy20 O35 2.310 1_554 S
Dy20 O36 2.351 . S
C21 O32 1.185 1_554 S
C21 O33 1.355 . S
C22 O24 1.185 1_556 S
C22 O25 1.355 . S
Dy23 O27 2.310 . S
Dy23 O30 2.351 . S
Dy23 O32 2.398 1_554 S
Dy23 O33 2.491 . S
Dy23 O34 2.403 1_554 S
Dy23 O35 2.664 1_554 S
Dy23 O37 2.326 1_554 S
O24 Dy20 2.398 . S
O24 C22 1.185 1_554 S
O25 Dy20 2.491 1_556 S
O25 C22 1.355 . S
O26 Dy20 2.403 . S
O26 C28 1.254 . S
O27 Dy20 2.664 . S
O27 Dy23 2.310 . S
O27 C28 1.268 . S
C28 O26 1.254 . S
C28 O27 1.268 . S
C29 O34 1.254 . S
C29 O35 1.268 . S
O30 Dy23 2.351 . S
O30 C38 1.249 . S
O31 Dy20 2.326 . S
O31 C38 1.267 . S
O32 C21 1.185 1_556 S
O32 Dy23 2.398 1_556 S
O33 C21 1.355 . S
O33 Dy23 2.491 . S
O34 Dy23 2.403 1_556 S
O34 C29 1.254 . S
O35 Dy20 2.310 1_556 S
O35 Dy23 2.664 1_556 S
O35 C29 1.268 . S
O36 Dy20 2.351 . S
O36 C39 1.249 1_554 S
O37 Dy23 2.326 1_556 S
O37 C39 1.267 . S
C38 O30 1.249 . S
C38 O31 1.267 . S
C39 O36 1.249 1_556 S
C39 O37 1.267 . S
Dy40 O44 2.398 . S
Dy40 O45 2.491 1_554 S
Dy40 O46 2.403 . S
Dy40 O47 2.664 1_565 S
Dy40 O51 2.326 1_565 S
Dy40 O55 2.310 1_564 S
Dy40 O56 2.351 . S
C41 O52 1.185 1_554 S
C41 O53 1.355 . S
C42 O44 1.185 1_556 S
C42 O45 1.355 . S
Dy43 O47 2.310 . S
Dy43 O50 2.351 . S
Dy43 O52 2.398 1_554 S
Dy43 O53 2.491 . S
Dy43 O54 2.403 1_554 S
Dy43 O55 2.664 1_554 S
Dy43 O57 2.326 1_554 S
O44 Dy40 2.398 . S
O44 C42 1.185 1_554 S
O45 Dy40 2.491 1_556 S
O45 C42 1.355 . S
O46 Dy40 2.403 . S
O46 C48 1.254 1_565 S
O47 Dy40 2.664 1_545 S
O47 Dy43 2.310 . S
O47 C48 1.268 . S
C48 O46 1.254 1_545 S
C48 O47 1.268 . S
C49 O54 1.254 . S
C49 O55 1.268 . S
O50 Dy43 2.351 . S
O50 C58 1.249 . S
O51 Dy40 2.326 1_545 S
O51 C58 1.267 . S
O52 C41 1.185 1_556 S
O52 Dy43 2.398 1_556 S
O53 C41 1.355 . S
O53 Dy43 2.491 . S
O54 Dy43 2.403 1_556 S
O54 C49 1.254 . S
O55 Dy40 2.310 1_546 S
O55 Dy43 2.664 1_556 S
O55 C49 1.268 . S
O56 Dy40 2.351 . S
O56 C59 1.249 1_554 S
O57 Dy43 2.326 1_556 S
O57 C59 1.267 1_545 S
C58 O50 1.249 . S
C58 O51 1.267 . S
C59 O56 1.249 1_556 S
C59 O57 1.267 1_565 S
Dy60 O64 2.398 . S
Dy60 O65 2.491 . S
Dy60 O66 2.403 . S
Dy60 O67 2.664 . S
Dy60 O71 2.326 . S
Dy60 O75 2.310 . S
Dy60 O76 2.351 . S
C61 O72 1.185 . S
C61 O73 1.355 . S
C62 O64 1.185 . S
C62 O65 1.355 . S
Dy63 O67 2.310 . S
Dy63 O70 2.351 . S
Dy63 O72 2.398 . S
Dy63 O73 2.491 . S
Dy63 O74 2.403 . S
Dy63 O75 2.664 . S
Dy63 O77 2.326 . S
O64 Dy60 2.398 . S
O64 C62 1.185 . S
O65 Dy60 2.491 . S
O65 C62 1.355 . S
O66 Dy60 2.403 . S
O66 C68 1.254 . S
O67 Dy60 2.664 . S
O67 Dy63 2.310 . S
O67 C68 1.268 . S
C68 O66 1.254 . S
C68 O67 1.268 . S
C69 O74 1.254 . S
C69 O75 1.268 . S
O70 Dy63 2.351 . S
O70 C78 1.249 . S
O71 Dy60 2.326 . S
O71 C78 1.267 . S
O72 C61 1.185 . S
O72 Dy63 2.398 . S
O73 C61 1.355 . S
O73 Dy63 2.491 . S
O74 Dy63 2.403 . S
O74 C69 1.254 . S
O75 Dy60 2.310 . S
O75 Dy63 2.664 . S
O75 C69 1.268 . S
O76 Dy60 2.351 . S
O76 C79 1.249 . S
O77 Dy63 2.326 . S
O77 C79 1.267 . S
C78 O70 1.249 . S
C78 O71 1.267 . S
C79 O76 1.249 . S
C79 O77 1.267 . S
Dy80 O84 2.398 . S
Dy80 O85 2.491 . S
Dy80 O86 2.403 . S
Dy80 O87 2.664 . S
Dy80 O91 2.326 . S
Dy80 O95 2.310 . S
Dy80 O96 2.351 . S
C81 O92 1.185 . S
C81 O93 1.355 . S
C82 O84 1.185 . S
C82 O85 1.355 . S
Dy83 O87 2.310 . S
Dy83 O90 2.351 . S
Dy83 O92 2.398 . S
Dy83 O93 2.491 . S
Dy83 O94 2.403 . S
Dy83 O95 2.664 . S
Dy83 O97 2.326 . S
O84 Dy80 2.398 . S
O84 C82 1.185 . S
O85 Dy80 2.491 . S
O85 C82 1.355 . S
O86 Dy80 2.403 . S
O86 C88 1.254 . S
O87 Dy80 2.664 . S
O87 Dy83 2.310 . S
O87 C88 1.268 . S
C88 O86 1.254 . S
C88 O87 1.268 . S
C89 O94 1.254 . S
C89 O95 1.268 . S
O90 Dy83 2.351 . S
O90 C98 1.249 . S
O91 Dy80 2.326 . S
O91 C98 1.267 . S
O92 C81 1.185 . S
O92 Dy83 2.398 . S
O93 C81 1.355 . S
O93 Dy83 2.491 . S
O94 Dy83 2.403 . S
O94 C89 1.254 . S
O95 Dy80 2.310 . S
O95 Dy83 2.664 . S
O95 C89 1.268 . S
O96 Dy80 2.351 . S
O96 C99 1.249 . S
O97 Dy83 2.326 . S
O97 C99 1.267 . S
C98 O90 1.249 . S
C98 O91 1.267 . S
C99 O96 1.249 . S
C99 O97 1.267 . S
Dy100 O104 2.398 . S
Dy100 O105 2.491 . S
Dy100 O106 2.403 . S
Dy100 O107 2.664 . S
Dy100 O111 2.326 . S
Dy100 O115 2.310 . S
Dy100 O116 2.351 . S
C101 O112 1.185 . S
C101 O113 1.355 . S
C102 O104 1.185 . S
C102 O105 1.355 . S
Dy103 O107 2.310 . S
Dy103 O110 2.351 . S
Dy103 O112 2.398 . S
Dy103 O113 2.491 . S
Dy103 O114 2.403 . S
Dy103 O115 2.664 . S
Dy103 O117 2.326 . S
O104 Dy100 2.398 . S
O104 C102 1.185 . S
O105 Dy100 2.491 . S
O105 C102 1.355 . S
O106 Dy100 2.403 . S
O106 C108 1.254 . S
O107 Dy100 2.664 . S
O107 Dy103 2.310 . S
O107 C108 1.268 . S
C108 O106 1.254 . S
C108 O107 1.268 . S
C109 O114 1.254 . S
C109 O115 1.268 . S
O110 Dy103 2.351 . S
O110 C118 1.249 . S
O111 Dy100 2.326 . S
O111 C118 1.267 . S
O112 C101 1.185 . S
O112 Dy103 2.398 . S
O113 C101 1.355 . S
O113 Dy103 2.491 . S
O114 Dy103 2.403 . S
O114 C109 1.254 . S
O115 Dy100 2.310 . S
O115 Dy103 2.664 . S
O115 C109 1.268 . S
O116 Dy100 2.351 . S
O116 C119 1.249 . S
O117 Dy103 2.326 . S
O117 C119 1.267 . S
C118 O110 1.249 . S
C118 O111 1.267 . S
C119 O116 1.249 . S
C119 O117 1.267 . S
Dy120 O124 2.398 . S
Dy120 O125 2.491 . S
Dy120 O126 2.403 . S
Dy120 O127 2.664 . S
Dy120 O131 2.326 . S
Dy120 O135 2.310 . S
Dy120 O136 2.351 . S
C121 O132 1.185 . S
C121 O133 1.355 . S
C122 O124 1.185 . S
C122 O125 1.355 . S
Dy123 O127 2.310 . S
Dy123 O130 2.351 . S
Dy123 O132 2.398 . S
Dy123 O133 2.491 . S
Dy123 O134 2.403 . S
Dy123 O135 2.664 . S
Dy123 O137 2.326 . S
O124 Dy120 2.398 . S
O124 C122 1.185 . S
O125 Dy120 2.491 . S
O125 C122 1.355 . S
O126 Dy120 2.403 . S
O126 C128 1.254 . S
O127 Dy120 2.664 . S
O127 Dy123 2.310 . S
O127 C128 1.268 . S
C128 O126 1.254 . S
C128 O127 1.268 . S
C129 O134 1.254 . S
C129 O135 1.268 . S
O130 Dy123 2.351 . S
O130 C138 1.249 . S
O131 Dy120 2.326 . S
O131 C138 1.267 . S
O132 C121 1.185 . S
O132 Dy123 2.398 . S
O133 C121 1.355 . S
O133 Dy123 2.491 . S
O134 Dy123 2.403 . S
O134 C129 1.254 . S
O135 Dy120 2.310 . S
O135 Dy123 2.664 . S
O135 C129 1.268 . S
O136 Dy120 2.351 . S
O136 C139 1.249 . S
O137 Dy123 2.326 . S
O137 C139 1.267 . S
C138 O130 1.249 . S
C138 O131 1.267 . S
C139 O136 1.249 . S
C139 O137 1.267 . S
Dy140 O144 2.398 . S
Dy140 O145 2.491 . S
Dy140 O146 2.403 . S
Dy140 O147 2.664 . S
Dy140 O151 2.326 . S
Dy140 O155 2.310 . S
Dy140 O156 2.351 . S
C141 O152 1.185 . S
C141 O153 1.355 . S
C142 O144 1.185 . S
C142 O145 1.355 . S
Dy143 O147 2.310 . S
Dy143 O150 2.351 . S
Dy143 O152 2.398 . S
Dy143 O153 2.491 . S
Dy143 O154 2.403 . S
Dy143 O155 2.664 . S
Dy143 O157 2.326 . S
O144 Dy140 2.398 . S
O144 C142 1.185 . S
O145 Dy140 2.491 . S
O145 C142 1.355 . S
O146 Dy140 2.403 . S
O146 C148 1.254 . S
O147 Dy140 2.664 . S
O147 Dy143 2.310 . S
O147 C148 1.268 . S
C148 O146 1.254 . S
C148 O147 1.268 . S
C149 O154 1.254 . S
C149 O155 1.268 . S
O150 Dy143 2.351 . S
O150 C158 1.249 . S
O151 Dy140 2.326 . S
O151 C158 1.267 . S
O152 C141 1.185 . S
O152 Dy143 2.398 . S
O153 C141 1.355 . S
O153 Dy143 2.491 . S
O154 Dy143 2.403 . S
O154 C149 1.254 . S
O155 Dy140 2.310 . S
O155 Dy143 2.664 . S
O155 C149 1.268 . S
O156 Dy140 2.351 . S
O156 C159 1.249 . S
O157 Dy143 2.326 . S
O157 C159 1.267 . S
C158 O150 1.249 . S
C158 O151 1.267 . S
C159 O156 1.249 . S
C159 O157 1.267 . S
Dy160 O164 2.398 . S
Dy160 O165 2.491 . S
Dy160 O166 2.403 . S
Dy160 O167 2.664 . S
Dy160 O171 2.326 . S
Dy160 O175 2.310 . S
Dy160 O176 2.351 . S
C161 O172 1.185 . S
C161 O173 1.355 . S
C162 O164 1.185 . S
C162 O165 1.355 . S
Dy163 O167 2.310 . S
Dy163 O170 2.351 . S
Dy163 O172 2.398 . S
Dy163 O173 2.491 . S
Dy163 O174 2.403 . S
Dy163 O175 2.664 . S
Dy163 O177 2.326 . S
O164 Dy160 2.398 . S
O164 C162 1.185 . S
O165 Dy160 2.491 . S
O165 C162 1.355 . S
O166 Dy160 2.403 . S
O166 C168 1.254 . S
O167 Dy160 2.664 . S
O167 Dy163 2.310 . S
O167 C168 1.268 . S
C168 O166 1.254 . S
C168 O167 1.268 . S
C169 O174 1.254 . S
C169 O175 1.268 . S
O170 Dy163 2.351 . S
O170 C178 1.249 . S
O171 Dy160 2.326 . S
O171 C178 1.267 . S
O172 C161 1.185 . S
O172 Dy163 2.398 . S
O173 C161 1.355 . S
O173 Dy163 2.491 . S
O174 Dy163 2.403 . S
O174 C169 1.254 . S
O175 Dy160 2.310 . S
O175 Dy163 2.664 . S
O175 C169 1.268 . S
O176 Dy160 2.351 . S
O176 C179 1.249 . S
O177 Dy163 2.326 . S
O177 C179 1.267 . S
C178 O170 1.249 . S
C178 O171 1.267 . S
C179 O176 1.249 . S
C179 O177 1.267 . S
H180 C192 0.930 1_554 S
H181 C194 0.930 . S
H182 C195 0.930 . S
H183 C199 0.959 . S
H184 C199 0.959 . S
H185 C199 0.961 1_554 S
H186 C200 0.960 . S
H187 C200 0.961 . S
H188 C200 0.959 1_556 S
H189 C203 0.929 . S
H190 C204 0.931 . S
H191 C206 0.930 . S
C192 H180 0.930 1_556 S
C192 C193 1.399 . S
C192 C197 1.399 . S
C193 C192 1.399 . S
C193 C194 1.376 . S
C194 H181 0.930 . S
C194 C193 1.376 . S
C194 C195 1.388 . S
C195 H182 0.930 . S
C195 C194 1.388 . S
C195 C196 1.390 . S
C196 C195 1.390 . S
C196 C197 1.394 . S
C196 C202 1.465 . S
C197 C192 1.399 . S
C197 C196 1.394 . S
C197 C198 1.516 . S
C198 C197 1.516 . S
C198 C199 1.502 . S
C198 C200 1.561 1_556 S
C198 C201 1.526 . S
C199 H183 0.959 . S
C199 H184 0.959 . S
C199 H185 0.961 1_556 S
C199 C198 1.502 . S
C200 H186 0.960 . S
C200 H187 0.961 . S
C200 H188 0.959 1_554 S
C200 C198 1.561 1_554 S
C201 C198 1.526 . S
C201 C202 1.396 . S
C201 C206 1.390 . S
C202 C196 1.465 . S
C202 C201 1.396 . S
C202 C203 1.399 . S
C203 H189 0.929 . S
C203 C202 1.399 . S
C203 C204 1.385 . S
C204 H190 0.931 . S
C204 C203 1.385 . S
C204 C205 1.389 . S
C205 C204 1.389 . S
C205 C206 1.387 . S
C206 H191 0.930 . S
C206 C201 1.390 . S
C206 C205 1.387 . S
H207 C219 0.930 . S
H208 C221 0.930 1_554 S
H209 C222 0.930 . S
H210 C226 0.959 . S
H211 C226 0.959 . S
H212 C226 0.961 . S
H213 C227 0.960 . S
H214 C227 0.961 . S
H215 C227 0.959 . S
H216 C230 0.929 . S
H217 C231 0.931 . S
H218 C233 0.930 . S
C219 H207 0.930 . S
C219 C220 1.399 . S
C219 C224 1.399 . S
C220 C219 1.399 . S
C220 C221 1.376 . S
C221 H208 0.930 1_556 S
C221 C220 1.376 . S
C221 C222 1.388 . S
C222 H209 0.930 . S
C222 C221 1.388 . S
C222 C223 1.390 . S
C223 C222 1.390 . S
C223 C224 1.394 . S
C223 C229 1.465 . S
C224 C219 1.399 . S
C224 C223 1.394 . S
C224 C225 1.516 . S
C225 C224 1.516 . S
C225 C226 1.502 . S
C225 C227 1.561 . S
C225 C228 1.526 . S
C226 H210 0.959 . S
C226 H211 0.959 . S
C226 H212 0.961 . S
C226 C225 1.502 . S
C227 H213 0.960 . S
C227 H214 0.961 . S
C227 H215 0.959 . S
C227 C225 1.561 . S
C228 C225 1.526 . S
C228 C229 1.396 . S
C228 C233 1.390 . S
C229 C223 1.465 . S
C229 C228 1.396 . S
C229 C230 1.399 . S
C230 H216 0.929 . S
C230 C229 1.399 . S
C230 C231 1.385 . S
C231 H217 0.931 . S
C231 C230 1.385 . S
C231 C232 1.389 . S
C232 C231 1.389 . S
C232 C233 1.387 . S
C233 H218 0.930 . S
C233 C228 1.390 . S
C233 C232 1.387 . S
H234 C246 0.930 . S
H235 C248 0.930 . S
H236 C249 0.930 . S
H237 C253 0.959 . S
H238 C253 0.959 . S
H239 C253 0.961 . S
H240 C254 0.960 . S
H241 C254 0.961 . S
H242 C254 0.959 . S
H243 C257 0.929 . S
H244 C258 0.931 . S
H245 C260 0.930 . S
C246 H234 0.930 . S
C246 C247 1.399 . S
C246 C251 1.399 . S
C247 C246 1.399 . S
C247 C248 1.376 . S
C248 H235 0.930 . S
C248 C247 1.376 . S
C248 C249 1.388 . S
C249 H236 0.930 . S
C249 C248 1.388 . S
C249 C250 1.390 . S
C250 C249 1.390 . S
C250 C251 1.394 . S
C250 C256 1.465 . S
C251 C246 1.399 . S
C251 C250 1.394 . S
C251 C252 1.516 . S
C252 C251 1.516 . S
C252 C253 1.502 . S
C252 C254 1.561 . S
C252 C255 1.526 . S
C253 H237 0.959 . S
C253 H238 0.959 . S
C253 H239 0.961 . S
C253 C252 1.502 . S
C254 H240 0.960 . S
C254 H241 0.961 . S
C254 H242 0.959 . S
C254 C252 1.561 . S
C255 C252 1.526 . S
C255 C256 1.396 . S
C255 C260 1.390 . S
C256 C250 1.465 . S
C256 C255 1.396 . S
C256 C257 1.399 . S
C257 H243 0.929 . S
C257 C256 1.399 . S
C257 C258 1.385 . S
C258 H244 0.931 . S
C258 C257 1.385 . S
C258 C259 1.389 . S
C259 C258 1.389 . S
C259 C260 1.387 . S
C260 H245 0.930 . S
C260 C255 1.390 . S
C260 C259 1.387 . S
H261 C273 0.930 . S
H262 C275 0.930 . S
H263 C276 0.930 . S
H264 C280 0.959 1_556 S
H265 C280 0.959 1_556 S
H266 C280 0.961 . S
H267 C281 0.960 . S
H268 C281 0.961 . S
H269 C281 0.959 . S
H270 C284 0.929 . S
H271 C285 0.931 . S
H272 C287 0.938 . S
C273 H261 0.930 . S
C273 C274 1.399 . S
C273 C278 1.399 . S
C274 C273 1.399 . S
C274 C275 1.376 . S
C275 H262 0.930 . S
C275 C274 1.376 . S
C275 C276 1.388 . S
C276 H263 0.930 . S
C276 C275 1.388 . S
C276 C277 1.390 . S
C277 C276 1.390 . S
C277 C278 1.394 . S
C277 C283 1.465 . S
C278 C273 1.399 . S
C278 C277 1.394 . S
C278 C279 1.516 . S
C279 C278 1.516 . S
C279 C280 1.502 . S
C279 C281 1.561 . S
C279 C282 1.526 . S
C280 H264 0.959 1_554 S
C280 H265 0.959 1_554 S
C280 H266 0.961 . S
C280 C279 1.502 . S
C281 H267 0.960 . S
C281 H268 0.961 . S
C281 H269 0.959 . S
C281 C279 1.561 . S
C282 C279 1.526 . S
C282 C283 1.396 . S
C282 C287 1.390 . S
C283 C277 1.465 . S
C283 C282 1.396 . S
C283 C284 1.399 . S
C284 H270 0.929 . S
C284 C283 1.399 . S
C284 C285 1.385 . S
C285 H271 0.931 . S
C285 C284 1.385 . S
C285 C286 1.389 . S
C286 C285 1.389 . S
C286 C287 1.387 . S
C287 H272 0.938 . S
C287 C282 1.390 . S
C287 C286 1.387 . S
H288 C300 0.930 . S
H289 C302 0.930 . S
H290 C303 0.930 . S
H291 C307 0.959 . S
H292 C307 0.959 . S
H293 C307 0.961 . S
H294 C308 0.960 . S
H295 C308 0.961 1_455 S
H296 C308 0.959 . S
H297 C311 0.929 . S
H298 C312 0.931 . S
H299 C314 0.930 . S
C300 H288 0.930 . S
C300 C301 1.399 . S
C300 C305 1.399 . S
C301 C300 1.399 . S
C301 C302 1.376 . S
C302 H289 0.930 . S
C302 C301 1.376 . S
C302 C303 1.388 . S
C303 H290 0.930 . S
C303 C302 1.388 . S
C303 C304 1.390 . S
C304 C303 1.390 . S
C304 C305 1.394 . S
C304 C310 1.465 . S
C305 C300 1.399 . S
C305 C304 1.394 . S
C305 C306 1.516 . S
C306 C305 1.516 . S
C306 C307 1.502 . S
C306 C308 1.561 . S
C306 C309 1.526 . S
C307 H291 0.959 . S
C307 H292 0.959 . S
C307 H293 0.961 . S
C307 C306 1.502 . S
C308 H294 0.960 . S
C308 H295 0.961 1_655 S
C308 H296 0.959 . S
C308 C306 1.561 . S
C309 C306 1.526 . S
C309 C310 1.396 . S
C309 C314 1.390 . S
C310 C304 1.465 . S
C310 C309 1.396 . S
C310 C311 1.399 . S
C311 H297 0.929 . S
C311 C310 1.399 . S
C311 C312 1.385 . S
C312 H298 0.931 . S
C312 C311 1.385 . S
C312 C313 1.389 . S
C313 C312 1.389 . S
C313 C314 1.387 . S
C314 H299 0.930 . S
C314 C309 1.390 . S
C314 C313 1.387 . S
H315 C327 0.930 1_556 S
H316 C329 0.930 . S
H317 C330 0.930 . S
H318 C334 0.959 . S
H319 C334 0.959 . S
H320 C334 0.961 . S
H321 C335 0.960 . S
H322 C335 0.961 . S
H323 C335 0.959 . S
H324 C338 0.929 . S
H325 C339 0.931 . S
H326 C341 0.930 . S
C327 H315 0.930 1_554 S
C327 C328 1.399 . S
C327 C332 1.399 . S
C328 C327 1.399 . S
C328 C329 1.376 . S
C329 H316 0.930 . S
C329 C328 1.376 . S
C329 C330 1.388 . S
C330 H317 0.930 . S
C330 C329 1.388 . S
C330 C331 1.390 . S
C331 C330 1.390 . S
C331 C332 1.394 . S
C331 C337 1.465 . S
C332 C327 1.399 . S
C332 C331 1.394 . S
C332 C333 1.516 . S
C333 C332 1.516 . S
C333 C334 1.502 . S
C333 C335 1.561 1_554 S
C333 C336 1.526 . S
C334 H318 0.959 . S
C334 H319 0.959 . S
C334 H320 0.961 . S
C334 C333 1.502 . S
C335 H321 0.960 . S
C335 H322 0.961 . S
C335 H323 0.959 . S
C335 C333 1.561 1_556 S
C336 C333 1.526 . S
C336 C337 1.396 . S
C336 C341 1.390 . S
C337 C331 1.465 . S
C337 C336 1.396 . S
C337 C338 1.399 . S
C338 H324 0.929 . S
C338 C337 1.399 . S
C338 C339 1.385 . S
C339 H325 0.931 . S
C339 C338 1.385 . S
C339 C340 1.389 . S
C340 C339 1.389 . S
C340 C341 1.387 . S
C341 H326 0.930 . S
C341 C336 1.390 . S
C341 C340 1.387 . S
H342 C354 0.930 . S
H343 C356 0.930 . S
H344 C357 0.930 . S
H345 C361 0.959 . S
H346 C361 0.959 . S
H347 C361 0.961 1_455 S
H348 C362 0.960 . S
H349 C362 0.961 . S
H350 C362 0.959 . S
H351 C365 0.929 . S
H352 C366 0.931 . S
H353 C368 0.930 . S
C354 H342 0.930 . S
C354 C355 1.399 . S
C354 C359 1.399 . S
C355 C354 1.399 . S
C355 C356 1.376 . S
C356 H343 0.930 . S
C356 C355 1.376 . S
C356 C357 1.388 . S
C357 H344 0.930 . S
C357 C356 1.388 . S
C357 C358 1.390 . S
C358 C357 1.390 . S
C358 C359 1.394 . S
C358 C364 1.465 1_455 S
C359 C354 1.399 . S
C359 C358 1.394 . S
C359 C360 1.516 . S
C360 C359 1.516 . S
C360 C361 1.502 1_455 S
C360 C362 1.561 . S
C360 C363 1.526 1_455 S
C361 H345 0.959 . S
C361 H346 0.959 . S
C361 H347 0.961 1_655 S
C361 C360 1.502 1_655 S
C362 H348 0.960 . S
C362 H349 0.961 . S
C362 H350 0.959 . S
C362 C360 1.561 . S
C363 C360 1.526 1_655 S
C363 C364 1.396 . S
C363 C368 1.390 . S
C364 C358 1.465 1_655 S
C364 C363 1.396 . S
C364 C365 1.399 . S
C365 H351 0.929 . S
C365 C364 1.399 . S
C365 C366 1.385 . S
C366 H352 0.931 . S
C366 C365 1.385 . S
C366 C367 1.389 . S
C367 C366 1.389 . S
C367 C368 1.387 . S
C368 H353 0.930 . S
C368 C363 1.390 . S
C368 C367 1.387 . S
H369 C381 0.930 . S
H370 C383 0.930 . S
H371 C384 0.930 . S
H372 C388 0.959 . S
H373 C388 0.959 . S
H374 C388 0.961 . S
H375 C389 0.960 . S
H376 C389 0.961 . S
H377 C389 0.959 . S
H378 C392 0.929 . S
H379 C393 0.931 . S
H380 C395 0.930 . S
C381 H369 0.930 . S
C381 C382 1.399 . S
C381 C386 1.399 . S
C382 C381 1.399 . S
C382 C383 1.376 . S
C383 H370 0.930 . S
C383 C382 1.376 . S
C383 C384 1.388 . S
C384 H371 0.930 . S
C384 C383 1.388 . S
C384 C385 1.390 . S
C385 C384 1.390 . S
C385 C386 1.394 . S
C385 C391 1.465 . S
C386 C381 1.399 . S
C386 C385 1.394 . S
C386 C387 1.516 . S
C387 C386 1.516 . S
C387 C388 1.502 . S
C387 C389 1.561 . S
C387 C390 1.526 . S
C388 H372 0.959 . S
C388 H373 0.959 . S
C388 H374 0.961 . S
C388 C387 1.502 . S
C389 H375 0.960 . S
C389 H376 0.961 . S
C389 H377 0.959 . S
C389 C387 1.561 . S
C390 C387 1.526 . S
C390 C391 1.396 . S
C390 C395 1.390 . S
C391 C385 1.465 . S
C391 C390 1.396 . S
C391 C392 1.399 . S
C392 H378 0.929 . S
C392 C391 1.399 . S
C392 C393 1.385 . S
C393 H379 0.931 . S
C393 C392 1.385 . S
C393 C394 1.389 . S
C394 C393 1.389 . S
C394 C395 1.387 . S
C395 H380 0.930 . S
C395 C390 1.390 . S
C395 C394 1.387 . S
H396 C408 0.930 . S
H397 C410 0.930 . S
H398 C411 0.930 . S
H399 C415 0.959 . S
H400 C415 0.959 . S
H401 C415 0.961 . S
H402 C416 0.960 . S
H403 C416 0.961 . S
H404 C416 0.959 . S
H405 C419 0.929 . S
H406 C420 0.931 . S
H407 C422 0.930 . S
C408 H396 0.930 . S
C408 C409 1.399 . S
C408 C413 1.399 . S
C409 C408 1.399 . S
C409 C410 1.376 . S
C410 H397 0.930 . S
C410 C409 1.376 . S
C410 C411 1.388 . S
C411 H398 0.930 . S
C411 C410 1.388 . S
C411 C412 1.390 . S
C412 C411 1.390 . S
C412 C413 1.394 . S
C412 C418 1.465 . S
C413 C408 1.399 . S
C413 C412 1.394 . S
C413 C414 1.516 . S
C414 C413 1.516 . S
C414 C415 1.502 . S
C414 C416 1.561 . S
C414 C417 1.526 . S
C415 H399 0.959 . S
C415 H400 0.959 . S
C415 H401 0.961 . S
C415 C414 1.502 . S
C416 H402 0.960 . S
C416 H403 0.961 . S
C416 H404 0.959 . S
C416 C414 1.561 . S
C417 C414 1.526 . S
C417 C418 1.396 . S
C417 C422 1.390 1_545 S
C418 C412 1.465 . S
C418 C417 1.396 . S
C418 C419 1.399 1_545 S
C419 H405 0.929 . S
C419 C418 1.399 1_565 S
C419 C420 1.385 . S
C420 H406 0.931 . S
C420 C419 1.385 . S
C420 C421 1.389 . S
C421 C420 1.389 . S
C421 C422 1.387 . S
C422 H407 0.930 . S
C422 C417 1.390 1_565 S
C422 C421 1.387 . S
H423 C435 0.930 . S
H424 C437 0.930 . S
H425 C438 0.930 . S
H426 C442 0.959 . S
H427 C442 0.959 . S
H428 C442 0.961 . S
H429 C443 0.960 . S
H430 C443 0.961 . S
H431 C443 0.959 . S
H432 C446 0.929 . S
H433 C447 0.931 . S
H434 C449 0.930 . S
C435 H423 0.930 . S
C435 C436 1.399 . S
C435 C440 1.399 . S
C436 C435 1.399 . S
C436 C437 1.376 1_554 S
C437 H424 0.930 . S
C437 C436 1.376 1_556 S
C437 C438 1.388 . S
C438 H425 0.930 . S
C438 C437 1.388 . S
C438 C439 1.390 . S
C439 C438 1.390 . S
C439 C440 1.394 1_556 S
C439 C445 1.465 . S
C440 C435 1.399 . S
C440 C439 1.394 1_554 S
C440 C441 1.516 . S
C441 C440 1.516 . S
C441 C442 1.502 . S
C441 C443 1.561 . S
C441 C444 1.526 . S
C442 H426 0.959 . S
C442 H427 0.959 . S
C442 H428 0.961 . S
C442 C441 1.502 . S
C443 H429 0.960 . S
C443 H430 0.961 . S
C443 H431 0.959 . S
C443 C441 1.561 . S
C444 C441 1.526 . S
C444 C445 1.396 1_554 S
C444 C449 1.390 . S
C445 C439 1.465 . S
C445 C444 1.396 1_556 S
C445 C446 1.399 . S
C446 H432 0.929 . S
C446 C445 1.399 . S
C446 C447 1.385 . S
C447 H433 0.931 . S
C447 C446 1.385 . S
C447 C448 1.389 . S
C448 C447 1.389 . S
C448 C449 1.387 1_556 S
C449 H434 0.930 . S
C449 C444 1.390 . S
C449 C448 1.387 1_554 S
H450 C462 0.930 . S
H451 C464 0.930 . S
H452 C465 0.930 . S
H453 C469 0.959 . S
H454 C469 0.959 1_545 S
H455 C469 0.961 . S
H456 C470 0.960 . S
H457 C470 0.961 1_545 S
H458 C470 0.959 . S
H459 C473 0.929 . S
H460 C474 0.931 . S
H461 C476 0.930 . S
C462 H450 0.930 . S
C462 C463 1.399 1_554 S
C462 C467 1.399 . S
C463 C462 1.399 1_556 S
C463 C464 1.376 . S
C464 H451 0.930 . S
C464 C463 1.376 . S
C464 C465 1.388 . S
C465 H452 0.930 . S
C465 C464 1.388 . S
C465 C466 1.390 . S
C466 C465 1.390 . S
C466 C467 1.394 1_556 S
C466 C472 1.465 1_565 S
C467 C462 1.399 . S
C467 C466 1.394 1_554 S
C467 C468 1.516 . S
C468 C467 1.516 . S
C468 C469 1.502 . S
C468 C470 1.561 . S
C468 C471 1.526 1_565 S
C469 H453 0.959 . S
C469 H454 0.959 1_565 S
C469 H455 0.961 . S
C469 C468 1.502 . S
C470 H456 0.960 . S
C470 H457 0.961 1_565 S
C470 H458 0.959 . S
C470 C468 1.561 . S
C471 C468 1.526 1_545 S
C471 C472 1.396 1_554 S
C471 C476 1.390 . S
C472 C466 1.465 1_545 S
C472 C471 1.396 1_556 S
C472 C473 1.399 . S
C473 H459 0.929 . S
C473 C472 1.399 . S
C473 C474 1.385 . S
C474 H460 0.931 . S
C474 C473 1.385 . S
C474 C475 1.389 1_556 S
C475 C474 1.389 1_554 S
C475 C476 1.387 . S
C476 H461 0.930 . S
C476 C471 1.390 . S
C476 C475 1.387 . S
H477 C489 0.930 . S
H478 C491 0.930 . S
H479 C492 0.933 . S
H480 C496 0.959 . S
H481 C496 0.959 . S
H482 C496 0.961 . S
H483 C497 0.960 . S
H484 C497 0.961 . S
H485 C497 0.959 . S
H486 C500 0.929 . S
H487 C501 0.931 . S
H488 C503 0.930 . S
C489 H477 0.930 . S
C489 C490 1.399 1_556 S
C489 C494 1.399 1_655 S
C490 C489 1.399 1_554 S
C490 C491 1.376 . S
C491 H478 0.930 . S
C491 C490 1.376 . S
C491 C492 1.354 1_655 S
C492 H479 0.933 . S
C492 C491 1.354 1_455 S
C492 C493 1.422 . S
C493 C492 1.422 . S
C493 C494 1.394 1_554 S
C493 C499 1.465 . S
C494 C489 1.399 1_455 S
C494 C493 1.394 1_556 S
C494 C495 1.516 . S
C495 C494 1.516 . S
C495 C496 1.502 . S
C495 C497 1.561 . S
C495 C498 1.526 . S
C496 H480 0.959 . S
C496 H481 0.959 . S
C496 H482 0.961 . S
C496 C495 1.502 . S
C497 H483 0.960 . S
C497 H484 0.961 . S
C497 H485 0.959 . S
C497 C495 1.561 . S
C498 C495 1.526 . S
C498 C499 1.396 1_556 S
C498 C503 1.390 . S
C499 C493 1.465 . S
C499 C498 1.396 1_554 S
C499 C500 1.399 . S
C500 H486 0.929 . S
C500 C499 1.399 . S
C500 C501 1.385 . S
C501 H487 0.931 . S
C501 C500 1.385 . S
C501 C502 1.389 . S
C502 C501 1.389 . S
C502 C503 1.387 1_554 S
C503 H488 0.930 . S
C503 C498 1.390 . S
C503 C502 1.387 1_556 S
H504 C516 0.930 . S
H505 C518 0.930 . S
H506 C519 0.930 . S
H507 C523 0.959 . S
H508 C523 0.959 . S
H509 C523 0.961 . S
H510 C524 0.960 . S
H511 C524 0.961 . S
H512 C524 0.959 . S
H513 C527 0.929 . S
H514 C528 0.931 . S
H515 C530 0.930 . S
C516 H504 0.930 . S
C516 C517 1.399 . S
C516 C521 1.399 . S
C517 C516 1.399 . S
C517 C518 1.376 . S
C518 H505 0.930 . S
C518 C517 1.376 . S
C518 C519 1.388 . S
C519 H506 0.930 . S
C519 C518 1.388 . S
C519 C520 1.390 . S
C520 C519 1.390 . S
C520 C521 1.394 . S
C520 C526 1.465 . S
C521 C516 1.399 . S
C521 C520 1.394 . S
C521 C522 1.516 . S
C522 C521 1.516 . S
C522 C523 1.502 . S
C522 C524 1.561 . S
C522 C525 1.526 . S
C523 H507 0.959 . S
C523 H508 0.959 . S
C523 H509 0.961 . S
C523 C522 1.502 . S
C524 H510 0.960 . S
C524 H511 0.961 . S
C524 H512 0.959 . S
C524 C522 1.561 . S
C525 C522 1.526 . S
C525 C526 1.396 . S
C525 C530 1.390 . S
C526 C520 1.465 . S
C526 C525 1.396 . S
C526 C527 1.399 . S
C527 H513 0.929 . S
C527 C526 1.399 . S
C527 C528 1.385 . S
C528 H514 0.931 . S
C528 C527 1.385 . S
C528 C529 1.389 . S
C529 C528 1.389 . S
C529 C530 1.387 . S
C530 H515 0.930 . S
C530 C525 1.390 . S
C530 C529 1.387 . S
H531 C543 0.930 . S
H532 C545 0.930 . S
H533 C546 0.930 . S
H534 C550 0.959 . S
H535 C550 0.959 . S
H536 C550 0.961 . S
H537 C551 0.960 . S
H538 C551 0.961 . S
H539 C551 0.959 . S
H540 C554 0.929 . S
H541 C555 0.931 . S
H542 C557 0.930 . S
C543 H531 0.930 . S
C543 C544 1.399 . S
C543 C548 1.399 . S
C544 C543 1.399 . S
C544 C545 1.376 . S
C545 H532 0.930 . S
C545 C544 1.376 . S
C545 C546 1.388 . S
C546 H533 0.930 . S
C546 C545 1.388 . S
C546 C547 1.390 . S
C547 C546 1.390 . S
C547 C548 1.394 . S
C547 C553 1.465 . S
C548 C543 1.399 . S
C548 C547 1.394 . S
C548 C549 1.516 . S
C549 C548 1.516 . S
C549 C550 1.502 . S
C549 C551 1.561 . S
C549 C552 1.526 . S
C550 H534 0.959 . S
C550 H535 0.959 . S
C550 H536 0.961 . S
C550 C549 1.502 . S
C551 H537 0.960 . S
C551 H538 0.961 . S
C551 H539 0.959 . S
C551 C549 1.561 . S
C552 C549 1.526 . S
C552 C553 1.396 . S
C552 C557 1.390 . S
C553 C547 1.465 . S
C553 C552 1.396 . S
C553 C554 1.399 . S
C554 H540 0.929 . S
C554 C553 1.399 . S
C554 C555 1.385 . S
C555 H541 0.931 . S
C555 C554 1.385 . S
C555 C556 1.389 . S
C556 C555 1.389 . S
C556 C557 1.387 . S
C557 H542 0.930 . S
C557 C552 1.390 . S
C557 C556 1.387 . S
H558 C570 0.930 . S
H559 C572 0.930 . S
H560 C573 0.930 . S
H561 C577 0.959 . S
H562 C577 0.959 . S
H563 C577 0.961 . S
H564 C578 0.960 . S
H565 C578 0.961 . S
H566 C578 0.959 . S
H567 C581 0.929 . S
H568 C582 0.931 . S
H569 C584 0.930 . S
C570 H558 0.930 . S
C570 C571 1.399 . S
C570 C575 1.399 . S
C571 C570 1.399 . S
C571 C572 1.376 . S
C572 H559 0.930 . S
C572 C571 1.376 . S
C572 C573 1.388 . S
C573 H560 0.930 . S
C573 C572 1.388 . S
C573 C574 1.390 . S
C574 C573 1.390 . S
C574 C575 1.394 . S
C574 C580 1.465 . S
C575 C570 1.399 . S
C575 C574 1.394 . S
C575 C576 1.516 . S
C576 C575 1.516 . S
C576 C577 1.502 . S
C576 C578 1.561 . S
C576 C579 1.526 . S
C577 H561 0.959 . S
C577 H562 0.959 . S
C577 H563 0.961 . S
C577 C576 1.502 . S
C578 H564 0.960 . S
C578 H565 0.961 . S
C578 H566 0.959 . S
C578 C576 1.561 . S
C579 C576 1.526 . S
C579 C580 1.396 . S
C579 C584 1.390 . S
C580 C574 1.465 . S
C580 C579 1.396 . S
C580 C581 1.399 . S
C581 H567 0.929 . S
C581 C580 1.399 . S
C581 C582 1.385 . S
C582 H568 0.931 . S
C582 C581 1.385 . S
C582 C583 1.389 . S
C583 C582 1.389 . S
C583 C584 1.387 . S
C584 H569 0.930 . S
C584 C579 1.390 . S
C584 C583 1.387 . S
H585 C597 0.930 . S
H586 C599 0.930 . S
H587 C600 0.930 . S
H588 C604 0.959 . S
H589 C604 0.959 . S
H590 C604 0.961 . S
H591 C605 0.960 . S
H592 C605 0.961 . S
H593 C605 0.959 . S
H594 C608 0.929 . S
H595 C609 0.931 . S
H596 C611 0.930 . S
C597 H585 0.930 . S
C597 C598 1.399 . S
C597 C602 1.399 . S
C598 C597 1.399 . S
C598 C599 1.376 . S
C599 H586 0.930 . S
C599 C598 1.376 . S
C599 C600 1.388 . S
C600 H587 0.930 . S
C600 C599 1.388 . S
C600 C601 1.390 . S
C601 C600 1.390 . S
C601 C602 1.394 . S
C601 C607 1.465 . S
C602 C597 1.399 . S
C602 C601 1.394 . S
C602 C603 1.516 . S
C603 C602 1.516 . S
C603 C604 1.502 . S
C603 C605 1.561 . S
C603 C606 1.526 . S
C604 H588 0.959 . S
C604 H589 0.959 . S
C604 H590 0.961 . S
C604 C603 1.502 . S
C605 H591 0.960 . S
C605 H592 0.961 . S
C605 H593 0.959 . S
C605 C603 1.561 . S
C606 C603 1.526 . S
C606 C607 1.396 . S
C606 C611 1.390 . S
C607 C601 1.465 . S
C607 C606 1.396 . S
C607 C608 1.399 . S
C608 H594 0.929 . S
C608 C607 1.399 . S
C608 C609 1.385 . S
C609 H595 0.931 . S
C609 C608 1.385 . S
C609 C610 1.389 . S
C610 C609 1.389 . S
C610 C611 1.387 . S
C611 H596 0.930 . S
C611 C606 1.390 . S
C611 C610 1.387 . S
H612 C624 0.930 . S
H613 C626 0.930 . S
H614 C627 0.930 . S
H615 C631 0.959 . S
H616 C631 0.959 . S
H617 C631 0.961 . S
H618 C632 0.960 . S
H619 C632 0.961 . S
H620 C632 0.959 . S
H621 C635 0.929 . S
H622 C636 0.931 . S
H623 C638 0.930 . S
C624 H612 0.930 . S
C624 C625 1.399 . S
C624 C629 1.399 . S
C625 C624 1.399 . S
C625 C626 1.376 . S
C626 H613 0.930 . S
C626 C625 1.376 . S
C626 C627 1.388 . S
C627 H614 0.930 . S
C627 C626 1.388 . S
C627 C628 1.390 . S
C628 C627 1.390 . S
C628 C629 1.394 . S
C628 C634 1.465 . S
C629 C624 1.399 . S
C629 C628 1.394 . S
C629 C630 1.516 . S
C630 C629 1.516 . S
C630 C631 1.502 . S
C630 C632 1.561 . S
C630 C633 1.526 . S
C631 H615 0.959 . S
C631 H616 0.959 . S
C631 H617 0.961 . S
C631 C630 1.502 . S
C632 H618 0.960 . S
C632 H619 0.961 . S
C632 H620 0.959 . S
C632 C630 1.561 . S
C633 C630 1.526 . S
C633 C634 1.396 . S
C633 C638 1.390 . S
C634 C628 1.465 . S
C634 C633 1.396 . S
C634 C635 1.399 . S
C635 H621 0.929 . S
C635 C634 1.399 . S
C635 C636 1.385 . S
C636 H622 0.931 . S
C636 C635 1.385 . S
C636 C637 1.389 . S
C637 C636 1.389 . S
C637 C638 1.387 . S
C638 H623 0.930 . S
C638 C633 1.390 . S
C638 C637 1.387 . S
H639 C651 0.930 . S
H640 C653 0.930 . S
H641 C654 0.930 . S
H642 C658 0.959 . S
H643 C658 0.959 . S
H644 C658 0.961 . S
H645 C659 0.960 . S
H646 C659 0.961 . S
H647 C659 0.959 . S
H648 C662 0.929 . S
H649 C663 0.931 . S
H650 C665 0.930 . S
C651 H639 0.930 . S
C651 C652 1.399 . S
C651 C656 1.399 . S
C652 C651 1.399 . S
C652 C653 1.376 . S
C653 H640 0.930 . S
C653 C652 1.376 . S
C653 C654 1.388 . S
C654 H641 0.930 . S
C654 C653 1.388 . S
C654 C655 1.390 . S
C655 C654 1.390 . S
C655 C656 1.394 . S
C655 C661 1.465 . S
C656 C651 1.399 . S
C656 C655 1.394 . S
C656 C657 1.516 . S
C657 C656 1.516 . S
C657 C658 1.502 . S
C657 C659 1.561 . S
C657 C660 1.526 . S
C658 H642 0.959 . S
C658 H643 0.959 . S
C658 H644 0.961 . S
C658 C657 1.502 . S
C659 H645 0.960 . S
C659 H646 0.961 . S
C659 H647 0.959 . S
C659 C657 1.561 . S
C660 C657 1.526 . S
C660 C661 1.396 . S
C660 C665 1.390 . S
C661 C655 1.465 . S
C661 C660 1.396 . S
C661 C662 1.399 . S
C662 H648 0.929 . S
C662 C661 1.399 . S
C662 C663 1.385 . S
C663 H649 0.931 . S
C663 C662 1.385 . S
C663 C664 1.389 . S
C664 C663 1.389 . S
C664 C665 1.387 . S
C665 H650 0.930 . S
C665 C660 1.390 . S
C665 C664 1.387 . S
H666 C678 0.930 . S
H667 C680 0.930 . S
H668 C681 0.930 . S
H669 C685 0.959 . S
H670 C685 0.959 . S
H671 C685 0.961 . S
H672 C686 0.960 . S
H673 C686 0.961 . S
H674 C686 0.959 . S
H675 C689 0.929 . S
H676 C690 0.931 . S
H677 C692 0.930 . S
C678 H666 0.930 . S
C678 C679 1.399 . S
C678 C683 1.399 . S
C679 C678 1.399 . S
C679 C680 1.376 . S
C680 H667 0.930 . S
C680 C679 1.376 . S
C680 C681 1.388 . S
C681 H668 0.930 . S
C681 C680 1.388 . S
C681 C682 1.390 . S
C682 C681 1.390 . S
C682 C683 1.394 . S
C682 C688 1.465 . S
C683 C678 1.399 . S
C683 C682 1.394 . S
C683 C684 1.516 . S
C684 C683 1.516 . S
C684 C685 1.502 . S
C684 C686 1.561 1_455 S
C684 C687 1.526 . S
C685 H669 0.959 . S
C685 H670 0.959 . S
C685 H671 0.961 . S
C685 C684 1.502 . S
C686 H672 0.960 . S
C686 H673 0.961 . S
C686 H674 0.959 . S
C686 C684 1.561 1_655 S
C687 C684 1.526 . S
C687 C688 1.396 . S
C687 C692 1.390 . S
C688 C682 1.465 . S
C688 C687 1.396 . S
C688 C689 1.399 . S
C689 H675 0.929 . S
C689 C688 1.399 . S
C689 C690 1.385 . S
C690 H676 0.931 . S
C690 C689 1.385 . S
C690 C691 1.389 . S
C691 C690 1.389 . S
C691 C692 1.387 . S
C692 H677 0.930 . S
C692 C687 1.390 . S
C692 C691 1.387 . S
H693 C705 0.930 . S
H694 C707 0.930 . S
H695 C708 0.930 . S
H696 C712 0.959 . S
H697 C712 0.959 . S
H698 C712 0.961 . S
H699 C713 0.960 . S
H700 C713 0.961 . S
H701 C713 0.959 . S
H702 C716 0.929 . S
H703 C717 0.931 . S
H704 C719 0.930 . S
C705 H693 0.930 . S
C705 C706 1.399 . S
C705 C710 1.399 . S
C706 C705 1.399 . S
C706 C707 1.376 . S
C707 H694 0.930 . S
C707 C706 1.376 . S
C707 C708 1.388 . S
C708 H695 0.930 . S
C708 C707 1.388 . S
C708 C709 1.390 . S
C709 C708 1.390 . S
C709 C710 1.394 . S
C709 C715 1.465 . S
C710 C705 1.399 . S
C710 C709 1.394 . S
C710 C711 1.516 . S
C711 C710 1.516 . S
C711 C712 1.502 . S
C711 C713 1.561 . S
C711 C714 1.526 . S
C712 H696 0.959 . S
C712 H697 0.959 . S
C712 H698 0.961 . S
C712 C711 1.502 . S
C713 H699 0.960 . S
C713 H700 0.961 . S
C713 H701 0.959 . S
C713 C711 1.561 . S
C714 C711 1.526 . S
C714 C715 1.396 . S
C714 C719 1.390 . S
C715 C709 1.465 . S
C715 C714 1.396 . S
C715 C716 1.399 . S
C716 H702 0.929 . S
C716 C715 1.399 . S
C716 C717 1.385 . S
C717 H703 0.931 . S
C717 C716 1.385 . S
C717 C718 1.389 . S
C718 C717 1.389 . S
C718 C719 1.387 . S
C719 H704 0.930 . S
C719 C714 1.390 . S
C719 C718 1.387 . S
H720 C732 0.930 1_565 S
H721 C734 0.930 . S
H722 C735 0.930 . S
H723 C739 0.959 . S
H724 C739 0.959 . S
H725 C739 0.961 . S
H726 C740 0.960 . S
H727 C740 0.961 . S
H728 C740 0.959 . S
H729 C743 0.929 . S
H730 C744 0.931 . S
H731 C746 0.930 . S
C732 H720 0.930 1_545 S
C732 C733 1.399 . S
C732 C737 1.399 . S
C733 C732 1.399 . S
C733 C734 1.376 . S
C734 H721 0.930 . S
C734 C733 1.376 . S
C734 C735 1.388 . S
C735 H722 0.930 . S
C735 C734 1.388 . S
C735 C736 1.390 . S
C736 C735 1.390 . S
C736 C737 1.394 . S
C736 C742 1.465 . S
C737 C732 1.399 . S
C737 C736 1.394 . S
C737 C738 1.516 1_545 S
C738 C737 1.516 1_565 S
C738 C739 1.502 . S
C738 C740 1.561 . S
C738 C741 1.526 1_565 S
C739 H723 0.959 . S
C739 H724 0.959 . S
C739 H725 0.961 . S
C739 C738 1.502 . S
C740 H726 0.960 . S
C740 H727 0.961 . S
C740 H728 0.959 . S
C740 C738 1.561 . S
C741 C738 1.526 1_545 S
C741 C742 1.396 . S
C741 C746 1.390 1_545 S
C742 C736 1.465 . S
C742 C741 1.396 . S
C742 C743 1.399 . S
C743 H729 0.929 . S
C743 C742 1.399 . S
C743 C744 1.385 . S
C744 H730 0.931 . S
C744 C743 1.385 . S
C744 C745 1.389 . S
C745 C744 1.389 . S
C745 C746 1.387 1_545 S
C746 H731 0.930 . S
C746 C741 1.390 1_565 S
C746 C745 1.387 1_565 S
H747 C759 0.930 . S
H748 C761 0.930 . S
H749 C762 0.930 . S
H750 C766 0.959 . S
H751 C766 0.959 . S
H752 C766 0.961 . S
H753 C767 0.960 . S
H754 C767 0.961 . S
H755 C767 0.959 . S
H756 C770 0.929 . S
H757 C771 0.931 . S
H758 C773 0.930 . S
C759 H747 0.930 . S
C759 C760 1.399 . S
C759 C764 1.399 . S
C760 C759 1.399 . S
C760 C761 1.376 . S
C761 H748 0.930 . S
C761 C760 1.376 . S
C761 C762 1.388 . S
C762 H749 0.930 . S
C762 C761 1.388 . S
C762 C763 1.390 . S
C763 C762 1.390 . S
C763 C764 1.394 . S
C763 C769 1.465 . S
C764 C759 1.399 . S
C764 C763 1.394 . S
C764 C765 1.516 . S
C765 C764 1.516 . S
C765 C766 1.502 . S
C765 C767 1.561 . S
C765 C768 1.526 . S
C766 H750 0.959 . S
C766 H751 0.959 . S
C766 H752 0.961 . S
C766 C765 1.502 . S
C767 H753 0.960 . S
C767 H754 0.961 . S
C767 H755 0.959 . S
C767 C765 1.561 . S
C768 C765 1.526 . S
C768 C769 1.396 . S
C768 C773 1.390 1_556 S
C769 C763 1.465 . S
C769 C768 1.396 . S
C769 C770 1.399 . S
C770 H756 0.929 . S
C770 C769 1.399 . S
C770 C771 1.385 1_556 S
C771 H757 0.931 . S
C771 C770 1.385 1_554 S
C771 C772 1.389 . S
C772 C771 1.389 . S
C772 C773 1.387 . S
C773 H758 0.930 . S
C773 C768 1.390 1_554 S
C773 C772 1.387 . S
H774 C786 0.930 . S
H775 C788 0.930 . S
H776 C789 0.930 . S
H777 C793 0.959 . S
H778 C793 0.959 . S
H779 C793 0.961 . S
H780 C794 0.960 . S
H781 C794 0.961 . S
H782 C794 0.959 . S
H783 C797 0.929 . S
H784 C798 0.931 . S
H785 C800 0.930 . S
C786 H774 0.930 . S
C786 C787 1.399 . S
C786 C791 1.399 . S
C787 C786 1.399 . S
C787 C788 1.376 . S
C788 H775 0.930 . S
C788 C787 1.376 . S
C788 C789 1.388 . S
C789 H776 0.930 . S
C789 C788 1.388 . S
C789 C790 1.390 . S
C790 C789 1.390 . S
C790 C791 1.394 . S
C790 C796 1.465 . S
C791 C786 1.399 . S
C791 C790 1.394 . S
C791 C792 1.516 . S
C792 C791 1.516 . S
C792 C793 1.502 . S
C792 C794 1.561 . S
C792 C795 1.526 . S
C793 H777 0.959 . S
C793 H778 0.959 . S
C793 H779 0.961 . S
C793 C792 1.502 . S
C794 H780 0.960 . S
C794 H781 0.961 . S
C794 H782 0.959 . S
C794 C792 1.561 . S
C795 C792 1.526 . S
C795 C796 1.396 . S
C795 C800 1.390 1_556 S
C796 C790 1.465 . S
C796 C795 1.396 . S
C796 C797 1.399 . S
C797 H783 0.929 . S
C797 C796 1.399 . S
C797 C798 1.385 1_556 S
C798 H784 0.931 . S
C798 C797 1.385 1_554 S
C798 C799 1.389 . S
C799 C798 1.389 . S
C799 C800 1.387 . S
C800 H785 0.930 . S
C800 C795 1.390 1_554 S
C800 C799 1.387 . S
H801 C813 0.930 . S
H802 C815 0.930 . S
H803 C816 0.930 . S
H804 C820 0.959 . S
H805 C820 0.959 . S
H806 C820 0.961 . S
H807 C821 0.960 . S
H808 C821 0.961 . S
H809 C821 0.959 . S
H810 C824 0.929 . S
H811 C825 0.931 . S
H812 C827 0.930 . S
C813 H801 0.930 . S
C813 C814 1.399 . S
C813 C818 1.399 . S
C814 C813 1.399 . S
C814 C815 1.376 . S
C815 H802 0.930 . S
C815 C814 1.376 . S
C815 C816 1.388 . S
C816 H803 0.930 . S
C816 C815 1.388 . S
C816 C817 1.390 . S
C817 C816 1.390 . S
C817 C818 1.394 . S
C817 C823 1.465 . S
C818 C813 1.399 . S
C818 C817 1.394 . S
C818 C819 1.516 . S
C819 C818 1.516 . S
C819 C820 1.502 . S
C819 C821 1.561 . S
C819 C822 1.526 . S
C820 H804 0.959 . S
C820 H805 0.959 . S
C820 H806 0.961 . S
C820 C819 1.502 . S
C821 H807 0.960 . S
C821 H808 0.961 . S
C821 H809 0.959 . S
C821 C819 1.561 . S
C822 C819 1.526 . S
C822 C823 1.396 . S
C822 C827 1.390 1_556 S
C823 C817 1.465 . S
C823 C822 1.396 . S
C823 C824 1.399 . S
C824 H810 0.929 . S
C824 C823 1.399 . S
C824 C825 1.385 1_556 S
C825 H811 0.931 . S
C825 C824 1.385 1_554 S
C825 C826 1.389 . S
C826 C825 1.389 . S
C826 C827 1.387 . S
C827 H812 0.930 . S
C827 C822 1.390 1_554 S
C827 C826 1.387 . S
H828 C840 0.930 . S
H829 C842 0.930 . S
H830 C843 0.930 . S
H831 C847 0.959 . S
H832 C847 0.959 . S
H833 C847 0.961 . S
H834 C848 0.960 . S
H835 C848 0.961 . S
H836 C848 0.959 . S
H837 C851 0.929 . S
H838 C852 0.931 . S
H839 C854 0.930 . S
C840 H828 0.930 . S
C840 C841 1.399 . S
C840 C845 1.399 . S
C841 C840 1.399 . S
C841 C842 1.376 . S
C842 H829 0.930 . S
C842 C841 1.376 . S
C842 C843 1.388 . S
C843 H830 0.930 . S
C843 C842 1.388 . S
C843 C844 1.390 . S
C844 C843 1.390 . S
C844 C845 1.394 . S
C844 C850 1.465 . S
C845 C840 1.399 . S
C845 C844 1.394 . S
C845 C846 1.516 . S
C846 C845 1.516 . S
C846 C847 1.502 . S
C846 C848 1.561 . S
C846 C849 1.526 . S
C847 H831 0.959 . S
C847 H832 0.959 . S
C847 H833 0.961 . S
C847 C846 1.502 . S
C848 H834 0.960 . S
C848 H835 0.961 . S
C848 H836 0.959 . S
C848 C846 1.561 . S
C849 C846 1.526 . S
C849 C850 1.396 . S
C849 C854 1.390 1_554 S
C850 C844 1.465 . S
C850 C849 1.396 . S
C850 C851 1.399 . S
C851 H837 0.929 . S
C851 C850 1.399 . S
C851 C852 1.385 1_554 S
C852 H838 0.931 . S
C852 C851 1.385 1_556 S
C852 C853 1.389 . S
C853 C852 1.389 . S
C853 C854 1.387 . S
C854 H839 0.930 . S
C854 C849 1.390 1_556 S
C854 C853 1.387 . S
H855 C867 0.930 . S
H856 C869 0.930 . S
H857 C870 0.930 . S
H858 C874 0.959 . S
H859 C874 0.959 . S
H860 C874 0.961 . S
H861 C875 0.960 . S
H862 C875 0.961 . S
H863 C875 0.959 . S
H864 C878 0.929 . S
H865 C879 0.931 . S
H866 C881 0.930 . S
C867 H855 0.930 . S
C867 C868 1.399 . S
C867 C872 1.399 1_556 S
C868 C867 1.399 . S
C868 C869 1.376 . S
C869 H856 0.930 . S
C869 C868 1.376 . S
C869 C870 1.388 1_556 S
C870 H857 0.930 . S
C870 C869 1.388 1_554 S
C870 C871 1.390 . S
C871 C870 1.390 . S
C871 C872 1.394 . S
C871 C877 1.465 . S
C872 C867 1.399 1_554 S
C872 C871 1.394 . S
C872 C873 1.516 . S
C873 C872 1.516 . S
C873 C874 1.502 . S
C873 C875 1.561 . S
C873 C876 1.526 . S
C874 H858 0.959 . S
C874 H859 0.959 . S
C874 H860 0.961 . S
C874 C873 1.502 . S
C875 H861 0.960 . S
C875 H862 0.961 . S
C875 H863 0.959 . S
C875 C873 1.561 . S
C876 C873 1.526 . S
C876 C877 1.396 . S
C876 C881 1.390 . S
C877 C871 1.465 . S
C877 C876 1.396 . S
C877 C878 1.399 . S
C878 H864 0.929 . S
C878 C877 1.399 . S
C878 C879 1.385 . S
C879 H865 0.931 . S
C879 C878 1.385 . S
C879 C880 1.389 . S
C880 C879 1.389 . S
C880 C881 1.387 . S
C881 H866 0.930 . S
C881 C876 1.390 . S
C881 C880 1.387 . S
H882 C894 0.930 . S
H883 C896 0.930 . S
H884 C897 0.930 . S
H885 C901 0.959 . S
H886 C901 0.959 . S
H887 C901 0.961 . S
H888 C902 0.960 . S
H889 C902 0.961 . S
H890 C902 0.959 . S
H891 C905 0.929 . S
H892 C906 0.931 . S
H893 C908 0.930 . S
C894 H882 0.930 . S
C894 C895 1.399 . S
C894 C899 1.399 . S
C895 C894 1.399 . S
C895 C896 1.376 . S
C896 H883 0.930 . S
C896 C895 1.376 . S
C896 C897 1.388 . S
C897 H884 0.930 . S
C897 C896 1.388 . S
C897 C898 1.390 . S
C898 C897 1.390 . S
C898 C899 1.394 . S
C898 C904 1.465 . S
C899 C894 1.399 . S
C899 C898 1.394 . S
C899 C900 1.516 . S
C900 C899 1.516 . S
C900 C901 1.502 . S
C900 C902 1.561 . S
C900 C903 1.526 . S
C901 H885 0.959 . S
C901 H886 0.959 . S
C901 H887 0.961 . S
C901 C900 1.502 . S
C902 H888 0.960 . S
C902 H889 0.961 . S
C902 H890 0.959 . S
C902 C900 1.561 . S
C903 C900 1.526 . S
C903 C904 1.396 . S
C903 C908 1.390 1_554 S
C904 C898 1.465 . S
C904 C903 1.396 . S
C904 C905 1.399 . S
C905 H891 0.929 . S
C905 C904 1.399 . S
C905 C906 1.385 1_554 S
C906 H892 0.931 . S
C906 C905 1.385 1_556 S
C906 C907 1.389 . S
C907 C906 1.389 . S
C907 C908 1.387 . S
C908 H893 0.930 . S
C908 C903 1.390 1_556 S
C908 C907 1.387 . S
C193 C2 1.751 . S
C205 C158 1.758 . S
C220 C22 1.799 . S
C232 C178 1.714 . S
C247 C42 1.780 . S
C259 C138 1.746 . S
C274 C82 1.787 . S
C286 C58 1.698 . S
C301 C102 1.771 . S
C313 C18 1.718 . S
C328 C38 1.705 . S
C340 C62 1.780 . S
C355 C142 1.794 . S
C367 C118 1.726 . S
C382 C162 1.772 . S
C394 C78 1.716 . S
C409 C98 1.751 . S
C421 C122 1.776 . S
C436 C41 1.504 . S
C448 C19 1.533 . S
C463 C39 1.540 . S
C475 C1 1.524 . S
C490 C21 1.545 . S
C502 C59 1.551 1_554 S
C517 C79 1.551 . S
C529 C101 1.544 . S
C544 C61 1.544 . S
C556 C99 1.551 . S
C571 C81 1.497 . S
C583 C119 1.532 . S
C598 C161 1.537 . S
C610 C139 1.550 . S
C625 C159 1.540 . S
C637 C121 1.512 . S
C652 C179 1.540 . S
C664 C141 1.523 . S
C679 C9 1.020 . S
C691 C8 0.980 . S
C706 C29 1.029 . S
C718 C28 0.994 . S
C733 C49 0.963 . S
C745 C48 1.047 . S
C760 C68 1.047 . S
C772 C69 0.963 . S
C787 C88 1.045 . S
C799 C89 0.971 . S
C814 C108 1.008 . S
C826 C109 0.990 . S
C841 C129 0.991 . S
C853 C128 1.031 . S
C868 C148 0.963 . S
C880 C149 1.041 . S
C895 C169 1.047 . S
C907 C168 0.964 . S
