# Generated by pormake.
# Topology snk, (6)-cn, num edge types: 1
# Building blocks:
#     Node 0, Type 0, BuildingBlock: INOVEN_clean_sbu_0, # of connection points: 6
#     Node 1, Type 0, BuildingBlock: INOVEN_clean_sbu_0, # of connection points: 6
#     Node 2, Type 0, BuildingBlock: INOVEN_clean_sbu_0, # of connection points: 6
#     Node 3, Type 0, BuildingBlock: INOVEN_clean_sbu_0, # of connection points: 6
#     Node 4, Type 0, BuildingBlock: INOVEN_clean_sbu_0, # of connection points: 6
#     Node 5, Type 0, BuildingBlock: INOVEN_clean_sbu_0, # of connection points: 6
#     Node 6, Type 0, BuildingBlock: INOVEN_clean_sbu_0, # of connection points: 6
#     Node 7, Type 0, BuildingBlock: INOVEN_clean_sbu_0, # of connection points: 6
#     Edge 8, Type (0, 0), BuildingBlock: AJUNOK_clean_linker_0, # of connection points: 2
#     Edge 9, Type (0, 0), BuildingBlock: AJUNOK_clean_linker_0, # of connection points: 2
#     Edge 10, Type (0, 0), BuildingBlock: AJUNOK_clean_linker_0, # of connection points: 2
#     Edge 11, Type (0, 0), BuildingBlock: AJUNOK_clean_linker_0, # of connection points: 2
#     Edge 12, Type (0, 0), BuildingBlock: AJUNOK_clean_linker_0, # of connection points: 2
#     Edge 13, Type (0, 0), BuildingBlock: AJUNOK_clean_linker_0, # of connection points: 2
#     Edge 14, Type (0, 0), BuildingBlock: AJUNOK_clean_linker_0, # of connection points: 2
#     Edge 15, Type (0, 0), BuildingBlock: AJUNOK_clean_linker_0, # of connection points: 2
#     Edge 16, Type (0, 0), BuildingBlock: AJUNOK_clean_linker_0, # of connection points: 2
#     Edge 17, Type (0, 0), BuildingBlock: AJUNOK_clean_linker_0, # of connection points: 2
#     Edge 18, Type (0, 0), BuildingBlock: AJUNOK_clean_linker_0, # of connection points: 2
#     Edge 19, Type (0, 0), BuildingBlock: AJUNOK_clean_linker_0, # of connection points: 2
#     Edge 20, Type (0, 0), BuildingBlock: AJUNOK_clean_linker_0, # of connection points: 2
#     Edge 21, Type (0, 0), BuildingBlock: AJUNOK_clean_linker_0, # of connection points: 2
#     Edge 22, Type (0, 0), BuildingBlock: AJUNOK_clean_linker_0, # of connection points: 2
#     Edge 23, Type (0, 0), BuildingBlock: AJUNOK_clean_linker_0, # of connection points: 2
#     Edge 24, Type (0, 0), BuildingBlock: AJUNOK_clean_linker_0, # of connection points: 2
#     Edge 25, Type (0, 0), BuildingBlock: AJUNOK_clean_linker_0, # of connection points: 2
#     Edge 26, Type (0, 0), BuildingBlock: AJUNOK_clean_linker_0, # of connection points: 2
#     Edge 27, Type (0, 0), BuildingBlock: AJUNOK_clean_linker_0, # of connection points: 2
#     Edge 28, Type (0, 0), BuildingBlock: AJUNOK_clean_linker_0, # of connection points: 2
#     Edge 29, Type (0, 0), BuildingBlock: AJUNOK_clean_linker_0, # of connection points: 2
#     Edge 30, Type (0, 0), BuildingBlock: AJUNOK_clean_linker_0, # of connection points: 2
#     Edge 31, Type (0, 0), BuildingBlock: AJUNOK_clean_linker_0, # of connection points: 2
# Relax obj value: 0.096
# Max RMSD: 0.175
# Mean RMSD: 0.137
data_MOF--net-snk--node1-INOVEN_clean_sbu_0--edge1-AJUNOK_clean_linker_0
_symmetry_space_group_name_H-M    P1
_symmetry_Int_Tables_number       1
_symmetry_cell_setting            triclinic
loop_
_symmetry_equiv_pos_as_xyz
'x, y, z'
_cell_length_a     26.651735
_cell_length_b     26.632482
_cell_length_c     20.967513
_cell_angle_alpha  96.805716
_cell_angle_beta   96.882757
_cell_angle_gamma 90.715213
loop_
_atom_site_label
_atom_site_type_symbol
_atom_site_fract_x
_atom_site_fract_y
_atom_site_fract_z
_atom_type_partial_charge
Gd0 Gd 0.99029 0.97741 0.46582 0.0
Gd1 Gd 0.02898 0.0428 0.59329 0.0
C2 C 0.07995 0.06478 0.47101 0.0
C3 C 0.96036 0.94817 0.34475 0.0
C4 C 0.97069 0.96305 0.28117 0.0
C5 C 0.9953 0.92954 0.23898 0.0
C6 C 0.95566 1.00986 0.26127 0.0
C7 C 0.99021 0.9893 0.15876 0.0
C8 C 0.96521 0.02274 0.20079 0.0
C9 C 1.00499 0.94248 0.17866 0.0
C10 C 0.05843 0.93411 0.54579 0.0
C11 C 0.93809 0.95655 0.58801 0.0
C12 C 0.05982 0.07166 0.71419 0.0
C13 C 0.04854 0.05856 0.7782 0.0
C14 C 0.02368 0.09328 0.81862 0.0
C15 C 0.06323 0.01243 0.80044 0.0
C16 C 0.02936 0.03675 0.9026 0.0
C17 C 0.05365 1.00165 0.86182 0.0
C18 C 0.01394 0.08242 0.8798 0.0
C19 C 0.96048 0.08573 0.51353 0.0
O20 O 0.04264 0.0363 0.43717 0.0
O21 O 0.08687 0.06951 0.535 0.0
O22 O 0.99728 0.92709 0.37811 0.0
O23 O 0.93524 0.97963 0.38123 0.0
O24 O 0.02062 0.90928 0.5106 0.0
O25 O 0.05996 0.97957 0.5347 0.0
O26 O 0.97503 0.98551 0.62188 0.0
O27 O 0.93194 0.95094 0.52393 0.0
O28 O 0.02443 0.09449 0.68049 0.0
O29 O 0.0831 0.03814 0.67815 0.0
O30 O 0.99767 0.11106 0.5494 0.0
O31 O 0.95941 0.04033 0.52463 0.0
H32 H 1.00712 0.89313 0.25269 0.0
H33 H 0.93623 0.03651 0.29215 0.0
H34 H 0.95229 0.05863 0.18657 0.0
H35 H 0.02449 0.91592 0.1477 0.0
H36 H 0.01179 0.12907 0.80293 0.0
H37 H 0.08246 0.98471 0.77072 0.0
H38 H 0.06594 0.96608 0.87778 0.0
H39 H 0.994 0.10974 0.90915 0.0
Gd40 Gd 0.27984 0.74297 0.73007 0.0
Gd41 Gd 0.22848 0.78504 0.84803 0.0
C42 C 0.19755 0.83319 0.71886 0.0
C43 C 0.30104 0.7053 0.6172 0.0
C44 C 0.28921 0.71516 0.54953 0.0
C45 C 0.32635 0.70743 0.50762 0.0
C46 C 0.24197 0.73321 0.5265 0.0
C47 C 0.26929 0.73533 0.42009 0.0
C48 C 0.23207 0.7431 0.46219 0.0
C49 C 0.31657 0.71757 0.4435 0.0
C50 C 0.33485 0.81291 0.81361 0.0
C51 C 0.31257 0.69733 0.86053 0.0
C52 C 0.20389 0.81973 0.9604 0.0
C53 C 0.21533 0.80959 1.02796 0.0
C54 C 0.17732 0.81537 0.0688 0.0
C55 C 0.26258 0.79192 0.05139 0.0
C56 C 0.23301 0.78448 0.15542 0.0
C57 C 0.27143 0.77963 0.11476 0.0
C58 C 0.18608 0.80305 0.13204 0.0
C59 C 0.17496 0.71408 0.76382 0.0
O60 O 0.22227 0.79639 0.68905 0.0
O61 O 0.19926 0.84108 0.78247 0.0
O62 O 0.32952 0.73959 0.65514 0.0
O63 O 0.26391 0.68817 0.64491 0.0
O64 O 0.35394 0.77454 0.78172 0.0
O65 O 0.28776 0.81434 0.79696 0.0
O66 O 0.28939 0.73568 0.88943 0.0
O67 O 0.30786 0.68674 0.79685 0.0
O68 O 0.17821 0.7839 0.92161 0.0
O69 O 0.24025 0.83974 0.934 0.0
O70 O 0.1551 0.75281 0.79379 0.0
O71 O 0.2217 0.71352 0.78208 0.0
H72 H 0.36307 0.69373 0.52463 0.0
H73 H 0.2129 0.73996 0.55824 0.0
H74 H 0.19563 0.75762 0.44565 0.0
H75 H 0.34586 0.71124 0.41203 0.0
H76 H 0.14062 0.82897 0.05151 0.0
H77 H 0.29233 0.78711 1.02052 0.0
H78 H 0.30797 0.76544 0.1316 0.0
H79 H 0.15616 0.80816 0.16274 0.0
Gd80 Gd 0.53452 0.99052 0.09397 0.0
Gd81 Gd 0.48242 0.03161 0.97254 0.0
C82 C 0.44407 0.07226 0.10503 0.0
C83 C 0.57696 0.97845 0.20868 0.0
C84 C 0.56255 0.98503 0.27494 0.0
C85 C 0.5759 0.9484 0.31636 0.0
C86 C 0.53479 0.02672 0.29707 0.0
C87 C 0.53357 0.99461 0.40098 0.0
C88 C 0.52066 0.03157 0.35964 0.0
C89 C 0.56158 0.95312 0.3788 0.0
C90 C 0.45726 0.93272 1.02673 0.0
C91 C 0.57371 0.95121 0.96207 0.0
C92 C 0.43954 0.0436 0.85794 0.0
C93 C 0.45178 0.0339 0.79088 0.0
C94 C 0.43812 0.06916 0.74767 0.0
C95 C 0.47808 0.99084 0.7698 0.0
C96 C 0.47672 0.01863 0.66295 0.0
C97 C 0.49037 0.98326 0.70634 0.0
C98 C 0.45057 0.0617 0.68437 0.0
C99 C 0.55947 0.08962 0.03994 0.0
O100 O 0.48504 0.05235 0.13297 0.0
O101 O 0.42939 0.06261 0.04217 0.0
O102 O 0.55326 0.94187 0.16894 0.0
O103 O 0.58281 0.01956 0.18145 0.0
O104 O 0.49757 0.91472 0.05578 0.0
O105 O 0.45856 0.98024 0.03787 0.0
O106 O 0.53151 0.96886 0.93403 0.0
O107 O 0.58858 0.96206 1.02469 0.0
O108 O 0.46688 0.07896 0.89551 0.0
O109 O 0.43102 1.0041 0.88715 0.0
O110 O 0.5191 0.10755 1.01091 0.0
O111 O 0.55831 0.0421 1.02871 0.0
H112 H 0.59736 0.91601 0.3003 0.0
H113 H 0.52377 0.0554 0.266 0.0
H114 H 0.49902 0.06389 0.37543 0.0
H115 H 0.57283 0.92454 0.40998 0.0
H116 H 0.41802 0.10271 0.76306 0.0
H117 H 0.48949 0.9633 0.80243 0.0
H118 H 0.51136 0.9502 0.69156 0.0
H119 H 0.43951 0.08951 0.65197 0.0
Gd120 Gd 0.28702 0.28165 0.34303 0.0
Gd121 Gd 0.22536 0.24411 0.21359 0.0
C122 C 0.20146 0.19033 0.33356 0.0
C123 C 0.3157 0.31449 0.46361 0.0
C124 C 0.30375 0.30459 0.52826 0.0
C125 C 0.34308 0.30452 0.57915 0.0
C126 C 0.25394 0.29489 0.54001 0.0
C127 C 0.28304 0.2861 0.65308 0.0
C128 C 0.2437 0.28576 0.60174 0.0
C129 C 0.33292 0.29519 0.64078 0.0
C130 C 0.33515 0.21521 0.2661 0.0
C131 C 0.31308 0.33221 0.22156 0.0
C132 C 0.19245 0.21675 0.09268 0.0
C133 C 0.20786 0.22488 1.02917 0.0
C134 C 0.17072 0.22654 0.97615 0.0
C135 C 0.25886 0.23254 1.02106 0.0
C136 C 0.23507 0.24454 0.90779 0.0
C137 C 0.27234 0.24219 0.96093 0.0
C138 C 0.18414 0.23615 0.91609 0.0
C139 C 0.18064 0.31201 0.29269 0.0
O140 O 0.22877 0.2276 0.36934 0.0
O141 O 0.1986 0.18453 0.26968 0.0
O142 O 0.33837 0.27848 0.43102 0.0
O143 O 0.28106 0.33609 0.42712 0.0
O144 O 0.35734 0.25265 0.30493 0.0
O145 O 0.28859 0.21242 0.27262 0.0
O146 O 0.28717 0.29368 0.18659 0.0
O147 O 0.3135 0.34018 0.28513 0.0
O148 O 0.1767 0.25657 0.12649 0.0
O149 O 0.22151 0.18889 0.1282 0.0
O150 O 0.15652 0.27374 0.25789 0.0
O151 O 0.22607 0.31355 0.28239 0.0
H152 H 0.38184 0.3115 0.57113 0.0
H153 H 0.22291 0.29441 0.50158 0.0
H154 H 0.20487 0.27892 0.60946 0.0
H155 H 0.36428 0.29444 0.67858 0.0
H156 H 0.13115 0.22084 0.98136 0.0
H157 H 0.28825 0.23126 0.06123 0.0
H158 H 0.31198 0.24743 0.95592 0.0
H159 H 0.15451 0.23787 0.87631 0.0
Gd160 Gd 0.7925 0.23545 0.21224 0.0
Gd161 Gd 0.74263 0.28088 0.32969 0.0
C162 C 0.71111 0.32574 0.19859 0.0
C163 C 0.81478 0.1981 0.09981 0.0
C164 C 0.80473 0.20809 0.0318 0.0
C165 C 0.84588 0.21598 0.99791 0.0
C166 C 0.75534 0.21088 1.0005 0.0
C167 C 0.78878 0.22931 0.90228 0.0
C168 C 0.74747 0.22143 0.93627 0.0
C169 C 0.83803 0.2268 0.93401 0.0
C170 C 0.84936 0.30453 0.29543 0.0
C171 C 0.82169 0.18811 0.34231 0.0
C172 C 0.72288 0.31808 0.4433 0.0
C173 C 0.73485 0.30612 0.51037 0.0
C174 C 0.69509 0.29781 0.54638 0.0
C175 C 0.78496 0.30198 0.53872 0.0
C176 C 0.75499 0.28073 0.63786 0.0
C177 C 0.79491 0.2897 0.60203 0.0
C178 C 0.70501 0.28513 0.60933 0.0
C179 C 0.68584 0.21152 0.24721 0.0
O180 O 0.73372 0.28671 0.17033 0.0
O181 O 0.7159 0.33701 0.26221 0.0
O182 O 0.84291 0.23222 0.13848 0.0
O183 O 0.77731 0.18062 0.12667 0.0
O184 O 0.86717 0.26523 0.26409 0.0
O185 O 0.80257 0.30735 0.27805 0.0
O186 O 0.79867 0.22659 0.37125 0.0
O187 O 0.81967 0.17916 0.27872 0.0
O188 O 0.69299 0.28543 0.4046 0.0
O189 O 0.75986 0.33523 0.41529 0.0
O190 O 0.66779 0.2511 0.2779 0.0
O191 O 0.7327 0.20889 0.26444 0.0
H192 H 0.88428 0.2143 1.02121 0.0
H193 H 0.72288 0.2051 1.02557 0.0
H194 H 0.70908 0.22314 0.91302 0.0
H195 H 0.8706 0.23398 0.90978 0.0
H196 H 0.65617 0.30071 0.52552 0.0
H197 H 0.81646 0.30817 0.51211 0.0
H198 H 0.83386 0.2877 0.6231 0.0
H199 H 0.67344 0.27816 0.63548 0.0
Gd200 Gd 0.79041 0.77871 0.84472 0.0
Gd201 Gd 0.72668 0.74439 0.71667 0.0
C202 C 0.70325 0.69028 0.83664 0.0
C203 C 0.82329 0.80468 0.966 0.0
C204 C 0.80901 0.79517 1.02981 0.0
C205 C 0.84648 0.78211 0.0775 0.0
C206 C 0.75879 0.7986 0.04394 0.0
C207 C 0.78395 0.77529 0.15225 0.0
C208 C 0.74647 0.78901 0.10467 0.0
C209 C 0.83416 0.77234 0.138 0.0
C210 C 0.83621 0.71286 0.76385 0.0
C211 C 0.81501 0.83233 0.72556 0.0
C212 C 0.69218 0.71868 0.59583 0.0
C213 C 0.70701 0.72516 0.5314 0.0
C214 C 0.66959 0.73433 0.48139 0.0
C215 C 0.75774 0.72334 0.51919 0.0
C216 C 0.73306 0.73946 0.40758 0.0
C217 C 0.7706 0.73027 0.45778 0.0
C218 C 0.68246 0.74163 0.42024 0.0
C219 C 0.68171 0.81055 0.7982 0.0
O220 O 0.73043 0.72773 0.8717 0.0
O221 O 0.69943 0.68453 0.77264 0.0
O222 O 0.84009 0.76605 0.93105 0.0
O223 O 0.79336 0.83241 0.93144 0.0
O224 O 0.8592 0.75014 0.80204 0.0
O225 O 0.79006 0.71033 0.77225 0.0
O226 O 0.78825 0.79456 0.69006 0.0
O227 O 0.81682 0.83882 0.78931 0.0
O228 O 0.67905 0.7596 0.62994 0.0
O229 O 0.71958 0.68924 0.63093 0.0
O230 O 0.65817 0.77314 0.76084 0.0
O231 O 0.7275 0.81268 0.78855 0.0
H232 H 0.88549 0.77951 0.06792 0.0
H233 H 0.72899 0.80836 1.00802 0.0
H234 H 0.70743 0.79148 0.11403 0.0
H235 H 0.86413 0.76305 0.17398 0.0
H236 H 0.63027 0.73603 0.48973 0.0
H237 H 0.78744 0.71688 0.55714 0.0
H238 H 0.81 0.72922 0.44982 0.0
H239 H 0.65272 0.74853 0.38258 0.0
Gd240 Gd 0.49302 0.47833 0.96635 0.0
Gd241 Gd 0.5271 0.542 0.09376 0.0
C242 C 0.5802 0.56654 0.97402 0.0
C243 C 0.46799 0.44432 0.84519 0.0
C244 C 0.47548 0.46008 0.78146 0.0
C245 C 0.48569 0.42334 0.73131 0.0
C246 C 0.4741 0.51109 0.77027 0.0
C247 C 0.49382 0.48818 0.65973 0.0
C248 C 0.48289 0.52495 0.70993 0.0
C249 C 0.49475 0.43716 0.67121 0.0
C250 C 0.55972 0.43286 0.04696 0.0
C251 C 0.43956 0.4541 0.08592 0.0
C252 C 0.55224 0.57733 0.21456 0.0
C253 C 0.54553 0.56351 0.27954 0.0
C254 C 0.53405 0.60137 0.3277 0.0
C255 C 0.54954 0.51343 0.2942 0.0
C256 C 0.5311 0.5397 0.40457 0.0
C257 C 0.54238 0.50168 0.35609 0.0
C258 C 0.52678 0.58964 0.38938 0.0
C259 C 0.46125 0.58779 1.01261 0.0
O260 O 0.54223 0.54 0.93894 0.0
O261 O 0.58699 0.56839 0.03781 0.0
O262 O 0.50852 0.43082 0.87976 0.0
O263 O 0.43823 0.47133 0.8801 0.0
O264 O 0.52234 0.40962 1.00929 0.0
O265 O 0.56171 0.479 0.03843 0.0
O266 O 0.47757 0.48065 0.1208 0.0
O267 O 0.43317 0.45111 1.022 0.0
O268 O 0.51151 0.59019 0.17981 0.0
O269 O 0.58179 0.54961 0.18014 0.0
O270 O 0.49884 0.61068 0.05022 0.0
O271 O 0.45863 0.54174 1.02151 0.0
H272 H 0.48715 0.3838 0.73885 0.0
H273 H 0.46638 0.54026 0.80817 0.0
H274 H 0.48069 0.56443 0.70247 0.0
H275 H 0.50327 0.40788 0.63393 0.0
H276 H 0.53034 0.64017 0.31742 0.0
H277 H 0.55794 0.48336 0.25783 0.0
H278 H 0.54586 0.46283 0.36615 0.0
H279 H 0.51697 0.61964 0.42493 0.0
Gd280 Gd 0.03386 0.4841 0.59495 0.0
Gd281 Gd 0.98562 0.53038 0.47507 0.0
C282 C 0.94306 0.56486 0.60667 0.0
C283 C 0.07327 0.46519 0.70846 0.0
C284 C 0.06533 0.478 0.77674 0.0
C285 C 0.0735 0.44102 0.81889 0.0
C286 C 0.04754 0.52532 0.79983 0.0
C287 C 0.04505 0.49781 0.90627 0.0
C288 C 0.03751 0.53518 0.86415 0.0
C289 C 0.06341 0.45076 0.88298 0.0
C290 C 0.96431 0.42485 0.51568 0.0
C291 C 0.07913 0.45186 0.46359 0.0
C292 C 0.94623 0.54691 0.36076 0.0
C293 C 0.96094 0.5392 0.29472 0.0
C294 C 0.95445 0.57838 0.25551 0.0
C295 C 0.98257 0.49401 0.2708 0.0
C296 C 0.99085 0.52749 0.16923 0.0
C297 C 0.99713 0.48815 0.20846 0.0
C298 C 0.9692 0.5726 0.19333 0.0
C299 C 0.05717 0.58886 0.55198 0.0
O300 O 0.98348 0.54437 0.63496 0.0
O301 O 0.93 0.5572 0.54333 0.0
O302 O 0.03775 0.43691 0.67258 0.0
O303 O 0.09016 0.50127 0.6787 0.0
O304 O 1.00394 0.40824 0.54782 0.0
O305 O 0.96119 0.47199 0.53079 0.0
O306 O 0.04093 0.4752 0.43445 0.0
O307 O 0.08844 0.45429 0.5273 0.0
O308 O 0.97304 0.5809 0.40124 0.0
O309 O 0.93561 0.50647 0.38708 0.0
O310 O 0.01731 0.60623 0.52108 0.0
O311 O 0.05885 0.54155 0.53775 0.0
H312 H 0.08706 0.40423 0.80192 0.0
H313 H 0.04068 0.55425 0.76794 0.0
H314 H 0.02263 0.5715 0.88043 0.0
H315 H 0.06976 0.42136 0.91438 0.0
H316 H 0.93805 0.61359 0.27312 0.0
H317 H 0.98848 0.46334 0.30028 0.0
H318 H 0.01386 0.45304 0.19114 0.0
H319 H 0.96311 0.6032 0.16377 0.0
C320 C 0.1414 0.13637 0.46783 0.0
C321 C 0.11293 0.09414 0.43544 0.0
C322 C 0.17016 0.16658 0.43453 0.0
C323 C 0.17198 0.15588 0.36728 0.0
H324 H 0.14068 0.147 0.5192 0.0
H325 H 0.19056 0.19911 0.46198 0.0
S326 S 0.1077 0.04675 0.26063 0.0
N327 N 0.09069 0.04128 0.33265 0.0
N328 N 0.14469 0.09794 0.27025 0.0
C329 C 0.14469 0.11292 0.33452 0.0
C330 C 0.11526 0.08216 0.36848 0.0
C331 C 0.14537 0.90758 0.58325 0.0
C332 C 0.09428 0.91197 0.593 0.0
C333 C 0.17911 0.88265 0.62489 0.0
C334 C 0.16315 0.86324 0.67889 0.0
H335 H 0.15884 0.92189 0.54193 0.0
H336 H 0.2178 0.87826 0.61461 0.0
S337 S 0.03346 0.86672 0.72632 0.0
N338 N 0.0293 0.89495 0.65994 0.0
N339 N 0.09318 0.85098 0.74042 0.0
C340 C 0.11252 0.86901 0.69022 0.0
C341 C 0.0779 0.89267 0.6466 0.0
C342 C 0.41135 0.82842 0.89377 0.0
C343 C 0.36407 0.84492 0.86818 0.0
C344 C 0.44034 0.85658 0.94611 0.0
C345 C 0.42373 0.90295 0.9742 0.0
H346 H 0.42604 0.793 0.87374 0.0
H347 H 0.47651 0.84215 0.96394 0.0
S348 S 0.30321 0.96375 0.92458 0.0
N349 N 0.30207 0.91095 0.87425 0.0
N350 N 0.35693 0.96428 0.97307 0.0
C351 C 0.37658 0.92014 0.9492 0.0
C352 C 0.34669 0.89108 0.89597 0.0
C353 C 0.36304 0.10901 0.13733 0.0
C354 C 0.41615 0.1084 0.14584 0.0
C355 C 0.33678 0.14267 0.17755 0.0
C356 C 0.36279 0.17806 0.22584 0.0
H357 H 0.34167 0.08265 0.10035 0.0
H358 H 0.29597 0.14097 0.17062 0.0
S359 S 0.50223 0.19166 0.26694 0.0
N360 N 0.49382 0.14536 0.20673 0.0
N361 N 0.44497 0.20974 0.27998 0.0
C362 C 0.41598 0.17778 0.23437 0.0
C363 C 0.44251 0.14274 0.19485 0.0
C364 C 0.87303 0.88795 0.5908 0.0
C365 C 0.90475 0.92767 0.62386 0.0
C366 C 0.84392 0.85799 0.62406 0.0
C367 C 0.84504 0.86641 0.69198 0.0
H368 H 0.8713 0.87909 0.5388 0.0
H369 H 0.82077 0.82753 0.59595 0.0
S370 S 0.91964 0.96767 0.80145 0.0
N371 N 0.93381 0.97529 0.72868 0.0
N372 N 0.87937 0.91899 0.79082 0.0
C373 C 0.87576 0.90675 0.72559 0.0
C374 C 0.90547 0.93731 0.6917 0.0
C375 C 0.93607 0.11888 0.40848 0.0
C376 C 0.92315 0.10789 0.4684 0.0
C377 C 0.90181 0.14254 0.36613 0.0
C378 C 0.85416 0.15707 0.38333 0.0
H379 H 0.97303 0.10964 0.39457 0.0
H380 H 0.91354 0.1514 0.32093 0.0
S381 S 0.8021 0.13464 0.53404 0.0
N382 N 0.85918 0.11085 0.54178 0.0
N383 N 0.79536 0.15708 0.46345 0.0
C384 C 0.84073 0.14551 0.44285 0.0
C385 C 0.87514 0.12042 0.48515 0.0
C386 C 0.60993 0.19711 0.16598 0.0
C387 C 0.65603 0.1793 0.19338 0.0
C388 C 0.57994 0.16826 0.11517 0.0
C389 C 0.59435 0.11996 0.09045 0.0
H390 H 0.5968 0.23391 0.18368 0.0
H391 H 0.54456 0.18363 0.09615 0.0
S392 S 0.71208 0.0561 0.14435 0.0
N393 N 0.71526 0.11061 0.19156 0.0
N394 N 0.65854 0.056 0.09561 0.0
C395 C 0.64067 0.10176 0.11671 0.0
C396 C 0.67158 0.13149 0.16839 0.0
C397 C 0.6041 0.84059 0.84433 0.0
C398 C 0.65607 0.84773 0.84077 0.0
C399 C 0.57792 0.87459 0.88353 0.0
C400 C 0.60296 0.91621 0.92214 0.0
H401 H 0.5832 0.80858 0.81629 0.0
H402 H 0.53781 0.86791 0.88418 0.0
S403 S 0.73754 0.95454 0.92747 0.0
N404 N 0.73056 0.90242 0.87561 0.0
N405 N 0.6818 0.96428 0.95309 0.0
C406 C 0.65475 0.92408 0.91937 0.0
C407 C 0.6812 0.89033 0.87767 0.0
C408 C 0.60218 0.59911 0.87285 0.0
C409 C 0.61395 0.59633 0.93986 0.0
C410 C 0.63192 0.62826 0.83934 0.0
C411 C 0.67464 0.65607 0.87138 0.0
H412 H 0.56916 0.57924 0.84585 0.0
H413 H 0.62051 0.62999 0.7883 0.0
S414 S 0.72511 0.65791 0.04504 0.0
N415 N 0.67359 0.6215 0.03586 0.0
N416 N 0.72948 0.67598 0.97325 0.0
C417 C 0.68785 0.65239 0.93793 0.0
C418 C 0.65756 0.62267 0.97202 0.0
C419 C 0.66628 0.40522 0.17509 0.0
C420 C 0.67493 0.35374 0.15756 0.0
C421 C 0.63019 0.43118 0.13782 0.0
C422 C 0.60013 0.40615 0.08333 0.0
H423 H 0.68766 0.42564 0.2177 0.0
H424 H 0.62516 0.47074 0.15265 0.0
S425 S 0.60885 0.27161 1.01602 0.0
N426 N 0.65178 0.27913 0.0802 0.0
N427 N 0.58267 0.3272 1.01248 0.0
C428 C 0.60873 0.35476 0.06508 0.0
C429 C 0.64642 0.32876 0.10165 0.0
C430 C 0.88812 0.41057 0.43174 0.0
C431 C 0.93471 0.39421 0.45994 0.0
C432 C 0.86044 0.38157 0.37824 0.0
C433 C 0.87858 0.33539 0.35127 0.0
H434 H 0.87292 0.44589 0.45121 0.0
H435 H 0.8248 0.39549 0.35772 0.0
S436 S 0.99871 0.27592 0.40722 0.0
N437 N 0.99773 0.32884 0.45657 0.0
N438 N 0.94604 0.27474 0.35694 0.0
C439 C 0.92515 0.31879 0.37908 0.0
C440 C 0.95307 0.34804 0.43333 0.0
C441 C 0.83686 0.64078 0.67441 0.0
C442 C 0.86309 0.67412 0.72493 0.0
C443 C 0.8627 0.60574 0.63541 0.0
C444 C 0.91545 0.60159 0.64735 0.0
H445 H 0.79626 0.64197 0.66452 0.0
H446 H 0.84121 0.58128 0.5964 0.0
S447 S 1.00158 0.67828 0.77588 0.0
N448 N 0.94487 0.69991 0.78525 0.0
N449 N 0.99285 0.63316 0.71426 0.0
C450 C 0.94187 0.63385 0.69878 0.0
C451 C 0.91586 0.67027 0.73706 0.0
C452 C 0.3455 0.35496 0.12056 0.0
C453 C 0.34364 0.36568 0.18784 0.0
C454 C 0.3755 0.3843 0.08759 0.0
C455 C 0.40516 0.42554 0.12048 0.0
H456 H 0.32411 0.32316 0.09287 0.0
H457 H 0.37625 0.37379 0.0362 0.0
S458 S 0.41057 0.47281 0.29547 0.0
N459 N 0.37207 0.42276 0.28524 0.0
N460 N 0.42811 0.47784 0.22362 0.0
C461 C 0.40257 0.43768 0.18739 0.0
C462 C 0.37195 0.40784 0.22093 0.0
C463 C 0.39042 0.59021 0.92223 0.0
C464 C 0.42158 0.61507 0.97588 0.0
C465 C 0.35516 0.61684 0.88462 0.0
C466 C 0.34858 0.66889 0.90102 0.0
H467 H 0.39386 0.55022 0.90843 0.0
H468 H 0.33266 0.59652 0.84283 0.0
S469 S 0.41849 0.75105 0.0395 0.0
N470 N 0.44238 0.69459 0.04447 0.0
N471 N 0.37513 0.74396 0.97579 0.0
C472 C 0.37836 0.69378 0.95583 0.0
C473 C 0.41506 0.66707 0.99281 0.0
C474 C 0.10198 0.69795 0.6785 0.0
C475 C 0.1475 0.68121 0.70883 0.0
C476 C 0.07403 0.66807 0.62684 0.0
C477 C 0.09016 0.61996 0.60382 0.0
H478 H 0.08758 0.73451 0.69483 0.0
H479 H 0.03878 0.68249 0.60583 0.0
S480 S 0.2086 0.55996 0.66374 0.0
N481 N 0.2087 0.61429 0.71088 0.0
N482 N 0.15637 0.55827 0.61226 0.0
C483 C 0.13637 0.60321 0.63239 0.0
C484 C 0.16498 0.63379 0.68535 0.0
C485 C 0.14608 0.33615 0.39683 0.0
C486 C 0.15778 0.34917 0.33727 0.0
C487 C 0.12307 0.3708 0.43934 0.0
C488 C 0.10967 0.4189 0.42251 0.0
H489 H 0.15435 0.29884 0.41033 0.0
H490 H 0.11377 0.35906 0.48434 0.0
S491 S 0.13279 0.47071 0.27169 0.0
N492 N 0.15589 0.41331 0.26406 0.0
N493 N 0.11055 0.47779 0.34237 0.0
C494 C 0.12149 0.43224 0.36301 0.0
C495 C 0.1461 0.39747 0.32069 0.0
C496 C 0.99953 0.97813 0.97712 0.0
C497 C 0.01985 0.02559 0.96847 0.0
C498 C 0.98999 0.96688 0.03848 0.0
C499 C 1.00032 1.00259 0.09396 0.0
H500 H 0.99033 0.94955 0.93595 0.0
H501 H 0.9738 0.93002 0.04234 0.0
S502 S 0.05773 0.13097 0.09861 0.0
N503 N 0.05279 0.10752 1.02154 0.0
N504 N 0.03438 0.08668 0.13634 0.0
C505 C 0.02113 0.05003 0.08609 0.0
C506 C 0.03102 0.06141 1.02363 0.0
C507 C 0.29378 0.77768 0.32753 0.0
C508 C 0.25944 0.74671 0.35219 0.0
C509 C 0.28517 0.78939 0.26373 0.0
C510 C 0.24191 0.77055 0.22227 0.0
H511 H 0.32721 0.79358 0.35811 0.0
H512 H 0.31216 0.81405 0.24707 0.0
S513 S 0.14301 0.68382 0.26141 0.0
N514 N 0.18224 0.69486 0.32904 0.0
N515 N 0.16611 0.71668 0.20902 0.0
C516 C 0.20781 0.73869 0.24592 0.0
C517 C 0.21655 0.72685 0.3109 0.0
C518 C 0.51448 0.05125 0.57138 0.0
C519 C 0.49064 0.01145 0.5959 0.0
C520 C 0.52806 0.04553 0.50835 0.0
C521 C 0.51837 0.99978 0.4674 0.0
H522 H 0.52328 0.08695 0.60146 0.0
H523 H 0.54691 0.07698 0.49184 0.0
S524 S 0.45292 0.88549 0.5063 0.0
N525 N 0.45539 0.9257 0.573 0.0
N526 N 0.48093 0.91493 0.45459 0.0
C527 C 0.49393 0.95991 0.49097 0.0
C528 C 0.48009 0.96575 0.55515 0.0
C529 C 0.22754 0.22587 0.78647 0.0
C530 C 0.24885 0.25548 0.84368 0.0
C531 C 0.23887 0.23595 0.72542 0.0
C532 C 0.27199 0.27614 0.71881 0.0
H533 H 0.20212 0.19427 0.7889 0.0
H534 H 0.22188 0.21167 0.68302 0.0
S535 S 0.3353 0.36724 0.85312 0.0
N536 N 0.30314 0.32808 0.88949 0.0
N537 N 0.32429 0.34714 0.77502 0.0
C538 C 0.29335 0.30629 0.77562 0.0
C539 C 0.28185 0.29595 0.83786 0.0
C540 C 0.74605 0.27837 0.81727 0.0
C541 C 0.7806 0.24129 0.83439 0.0
C542 C 0.73839 0.29108 0.7539 0.0
C543 C 0.76495 0.26725 0.70505 0.0
H544 H 0.72526 0.29826 0.85338 0.0
H545 H 0.71177 0.32025 0.74324 0.0
S546 S 0.85737 0.16529 0.72387 0.0
N547 N 0.83997 0.17922 0.79672 0.0
N548 N 0.82587 0.2034 0.67784 0.0
C549 C 0.7994 0.22987 0.72146 0.0
C550 C 0.8071 0.21681 0.78598 0.0
C551 C 0.7285 0.78984 0.31293 0.0
C552 C 0.74642 0.74755 0.34233 0.0
C553 C 0.74051 0.79833 0.25153 0.0
C554 C 0.77084 0.76481 0.21686 0.0
H555 H 0.7055 0.81702 0.33801 0.0
H556 H 0.72653 0.83188 0.23149 0.0
S557 S 0.82306 0.64571 0.26952 0.0
N558 N 0.79348 0.67017 0.33032 0.0
N559 N 0.81566 0.68575 0.21492 0.0
C560 C 0.78816 0.72182 0.24519 0.0
C561 C 0.77608 0.7133 0.30782 0.0
C562 C 0.4815 0.47397 0.53774 0.0
C563 C 0.50387 0.50247 0.59533 0.0
C564 C 0.49079 0.48598 0.47663 0.0
C565 C 0.5227 0.52717 0.47027 0.0
H566 H 0.45607 0.44232 0.53981 0.0
H567 H 0.47219 0.46317 0.43395 0.0
S568 S 0.59398 0.61151 0.6056 0.0
N569 N 0.56183 0.57216 0.64172 0.0
N570 N 0.57884 0.59494 0.52715 0.0
C571 C 0.54579 0.55569 0.52739 0.0
C572 C 0.53648 0.54335 0.58968 0.0
C573 C 1.00194 0.47058 0.99672 0.0
C574 C 0.03195 0.50666 0.9736 0.0
C575 C 0.9891 0.47753 0.06002 0.0
C576 C 1.0057 0.52089 0.10271 0.0
H577 H 0.98774 0.43687 0.96533 0.0
H578 H 0.9654 0.44904 0.07539 0.0
S579 S 0.08832 0.62487 0.06776 0.0
N580 N 0.07999 0.58616 0.99949 0.0
N581 N 0.05583 0.59927 0.11857 0.0
C582 C 0.0362 0.55704 0.08055 0.0
C583 C 0.04929 0.54994 1.016 0.0
loop_
_geom_bond_atom_site_label_1
_geom_bond_atom_site_label_2
_geom_bond_distance
_geom_bond_site_symmetry_2
_ccdc_geom_bond_type
Gd0 C3 2.818 1_655 S
Gd0 O20 2.377 1_665 S
Gd0 O22 2.448 1_655 S
Gd0 O23 2.506 . S
Gd0 O24 2.435 1_655 S
Gd0 O25 2.717 1_655 S
Gd0 O27 2.395 . S
Gd0 O31 2.327 1_565 S
Gd1 C12 2.818 1_455 S
Gd1 O21 2.395 . S
Gd1 O25 2.327 1_545 S
Gd1 O26 2.377 1_445 S
Gd1 O28 2.448 1_455 S
Gd1 O29 2.506 . S
Gd1 O30 2.435 1_455 S
Gd1 O31 2.717 1_455 S
C2 O20 1.240 . S
C2 O21 1.240 . S
C3 Gd0 2.818 1_455 S
C3 C4 1.510 . S
C3 O22 1.249 . S
C3 O23 1.252 1_455 S
C4 C3 1.510 . S
C4 C5 1.404 . S
C4 C6 1.352 . S
C5 C4 1.404 . S
C5 C9 1.389 . S
C5 H32 0.930 . S
C6 C4 1.352 . S
C6 C8 1.374 . S
C6 H33 0.931 1_465 S
C7 C8 1.359 . S
C7 C9 1.364 . S
C8 C6 1.374 . S
C8 C7 1.359 . S
C8 H34 0.934 1_565 S
C9 C5 1.389 . S
C9 C7 1.364 . S
C9 H35 0.931 . S
C10 O24 1.256 . S
C10 O25 1.257 . S
C11 O26 1.240 . S
C11 O27 1.240 . S
C12 Gd1 2.818 1_655 S
C12 C13 1.510 . S
C12 O28 1.249 . S
C12 O29 1.252 1_655 S
C13 C12 1.510 . S
C13 C14 1.404 . S
C13 C15 1.352 . S
C14 C13 1.404 . S
C14 C18 1.389 . S
C14 H36 0.930 . S
C15 C13 1.352 . S
C15 C17 1.374 . S
C15 H37 0.931 1_645 S
C16 C17 1.359 . S
C16 C18 1.364 . S
C17 C15 1.374 . S
C17 C16 1.359 . S
C17 H38 0.932 1_545 S
C18 C14 1.389 . S
C18 C16 1.364 . S
C18 H39 0.931 . S
C19 O30 1.256 . S
C19 O31 1.257 . S
O20 Gd0 2.377 1_445 S
O20 C2 1.240 . S
O21 Gd1 2.395 . S
O21 C2 1.240 . S
O22 Gd0 2.448 1_455 S
O22 C3 1.249 . S
O23 Gd0 2.506 . S
O23 C3 1.252 1_655 S
O24 Gd0 2.435 1_455 S
O24 C10 1.256 . S
O25 Gd0 2.717 1_455 S
O25 Gd1 2.327 1_565 S
O25 C10 1.257 . S
O26 Gd1 2.377 1_665 S
O26 C11 1.240 . S
O27 Gd0 2.395 . S
O27 C11 1.240 . S
O28 Gd1 2.448 1_655 S
O28 C12 1.249 . S
O29 Gd1 2.506 . S
O29 C12 1.252 1_455 S
O30 Gd1 2.435 1_655 S
O30 C19 1.256 . S
O31 Gd0 2.327 1_545 S
O31 Gd1 2.717 1_655 S
O31 C19 1.257 . S
H32 C5 0.930 . S
H33 C6 0.931 1_645 S
H34 C8 0.934 1_545 S
H35 C9 0.931 . S
H36 C14 0.930 . S
H37 C15 0.931 1_465 S
H38 C17 0.932 1_565 S
H39 C18 0.931 . S
Gd40 C43 2.818 . S
Gd40 O60 2.377 . S
Gd40 O62 2.448 . S
Gd40 O63 2.506 . S
Gd40 O64 2.435 . S
Gd40 O65 2.717 . S
Gd40 O67 2.395 . S
Gd40 O71 2.327 . S
Gd41 C52 2.818 . S
Gd41 O61 2.395 . S
Gd41 O65 2.327 . S
Gd41 O66 2.377 . S
Gd41 O68 2.448 . S
Gd41 O69 2.506 . S
Gd41 O70 2.435 . S
Gd41 O71 2.717 . S
C42 O60 1.240 . S
C42 O61 1.240 . S
C43 Gd40 2.818 . S
C43 C44 1.510 . S
C43 O62 1.249 . S
C43 O63 1.252 . S
C44 C43 1.510 . S
C44 C45 1.404 . S
C44 C46 1.352 . S
C45 C44 1.404 . S
C45 C49 1.389 . S
C45 H72 0.930 . S
C46 C44 1.352 . S
C46 C48 1.374 . S
C46 H73 0.931 . S
C47 C48 1.359 . S
C47 C49 1.364 . S
C48 C46 1.374 . S
C48 C47 1.359 . S
C48 H74 0.931 . S
C49 C45 1.389 . S
C49 C47 1.364 . S
C49 H75 0.931 . S
C50 O64 1.256 . S
C50 O65 1.257 . S
C51 O66 1.240 . S
C51 O67 1.240 . S
C52 Gd41 2.818 . S
C52 C53 1.510 1_556 S
C52 O68 1.249 . S
C52 O69 1.252 . S
C53 C52 1.510 1_554 S
C53 C54 1.404 . S
C53 C55 1.352 . S
C54 C53 1.404 . S
C54 C58 1.389 . S
C54 H76 0.930 1_554 S
C55 C53 1.352 . S
C55 C57 1.374 . S
C55 H77 0.931 . S
C56 C57 1.359 . S
C56 C58 1.364 . S
C57 C55 1.374 . S
C57 C56 1.359 . S
C57 H78 0.931 . S
C58 C54 1.389 . S
C58 C56 1.364 . S
C58 H79 0.931 . S
C59 O70 1.256 . S
C59 O71 1.257 . S
O60 Gd40 2.377 . S
O60 C42 1.240 . S
O61 Gd41 2.395 . S
O61 C42 1.240 . S
O62 Gd40 2.448 . S
O62 C43 1.249 . S
O63 Gd40 2.506 . S
O63 C43 1.252 . S
O64 Gd40 2.435 . S
O64 C50 1.256 . S
O65 Gd40 2.717 . S
O65 Gd41 2.327 . S
O65 C50 1.257 . S
O66 Gd41 2.377 . S
O66 C51 1.240 . S
O67 Gd40 2.395 . S
O67 C51 1.240 . S
O68 Gd41 2.448 . S
O68 C52 1.249 . S
O69 Gd41 2.506 . S
O69 C52 1.252 . S
O70 Gd41 2.435 . S
O70 C59 1.256 . S
O71 Gd40 2.327 . S
O71 Gd41 2.717 . S
O71 C59 1.257 . S
H72 C45 0.930 . S
H73 C46 0.931 . S
H74 C48 0.931 . S
H75 C49 0.931 . S
H76 C54 0.930 1_556 S
H77 C55 0.931 . S
H78 C57 0.931 . S
H79 C58 0.931 . S
Gd80 C83 2.818 . S
Gd80 O100 2.377 1_565 S
Gd80 O102 2.448 . S
Gd80 O103 2.506 1_565 S
Gd80 O104 2.435 . S
Gd80 O105 2.717 1_554 S
Gd80 O107 2.395 1_554 S
Gd80 O111 2.327 1_565 S
Gd81 C92 2.818 . S
Gd81 O101 2.395 1_556 S
Gd81 O105 2.327 1_545 S
Gd81 O106 2.377 1_545 S
Gd81 O108 2.448 . S
Gd81 O109 2.506 1_545 S
Gd81 O110 2.435 . S
Gd81 O111 2.717 1_556 S
C82 O100 1.240 . S
C82 O101 1.240 . S
C83 Gd80 2.818 . S
C83 C84 1.510 . S
C83 O102 1.249 . S
C83 O103 1.252 1_565 S
C84 C83 1.510 . S
C84 C85 1.404 . S
C84 C86 1.352 1_565 S
C85 C84 1.404 . S
C85 C89 1.389 . S
C85 H112 0.930 . S
C86 C84 1.352 1_545 S
C86 C88 1.374 . S
C86 H113 0.931 . S
C87 C88 1.359 1_565 S
C87 C89 1.364 . S
C88 C86 1.374 . S
C88 C87 1.359 1_545 S
C88 H114 0.931 . S
C89 C85 1.389 . S
C89 C87 1.364 . S
C89 H115 0.931 . S
C90 O104 1.256 1_556 S
C90 O105 1.257 . S
C91 O106 1.240 . S
C91 O107 1.240 . S
C92 Gd81 2.818 . S
C92 C93 1.510 . S
C92 O108 1.249 . S
C92 O109 1.252 1_545 S
C93 C92 1.510 . S
C93 C94 1.404 . S
C93 C95 1.352 1_545 S
C94 C93 1.404 . S
C94 C98 1.389 . S
C94 H116 0.930 . S
C95 C93 1.352 1_565 S
C95 C97 1.374 . S
C95 H117 0.931 . S
C96 C97 1.359 1_545 S
C96 C98 1.364 . S
C97 C95 1.374 . S
C97 C96 1.359 1_565 S
C97 H118 0.931 . S
C98 C94 1.389 . S
C98 C96 1.364 . S
C98 H119 0.931 . S
C99 O110 1.256 1_554 S
C99 O111 1.257 . S
O100 Gd80 2.377 1_545 S
O100 C82 1.240 . S
O101 Gd81 2.395 1_554 S
O101 C82 1.240 . S
O102 Gd80 2.448 . S
O102 C83 1.249 . S
O103 Gd80 2.506 1_545 S
O103 C83 1.252 1_545 S
O104 Gd80 2.435 . S
O104 C90 1.256 1_554 S
O105 Gd80 2.717 1_556 S
O105 Gd81 2.327 1_565 S
O105 C90 1.257 . S
O106 Gd81 2.377 1_565 S
O106 C91 1.240 . S
O107 Gd80 2.395 1_556 S
O107 C91 1.240 . S
O108 Gd81 2.448 . S
O108 C92 1.249 . S
O109 Gd81 2.506 1_565 S
O109 C92 1.252 1_565 S
O110 Gd81 2.435 . S
O110 C99 1.256 1_556 S
O111 Gd80 2.327 1_545 S
O111 Gd81 2.717 1_554 S
O111 C99 1.257 . S
H112 C85 0.930 . S
H113 C86 0.931 . S
H114 C88 0.931 . S
H115 C89 0.931 . S
H116 C94 0.930 . S
H117 C95 0.931 . S
H118 C97 0.931 . S
H119 C98 0.931 . S
Gd120 C123 2.818 . S
Gd120 O140 2.377 . S
Gd120 O142 2.448 . S
Gd120 O143 2.506 . S
Gd120 O144 2.435 . S
Gd120 O145 2.717 . S
Gd120 O147 2.395 . S
Gd120 O151 2.327 . S
Gd121 C132 2.818 . S
Gd121 O141 2.395 . S
Gd121 O145 2.327 . S
Gd121 O146 2.377 . S
Gd121 O148 2.448 . S
Gd121 O149 2.506 . S
Gd121 O150 2.435 . S
Gd121 O151 2.717 . S
C122 O140 1.240 . S
C122 O141 1.240 . S
C123 Gd120 2.818 . S
C123 C124 1.510 . S
C123 O142 1.249 . S
C123 O143 1.252 . S
C124 C123 1.510 . S
C124 C125 1.404 . S
C124 C126 1.352 . S
C125 C124 1.404 . S
C125 C129 1.389 . S
C125 H152 0.930 . S
C126 C124 1.352 . S
C126 C128 1.374 . S
C126 H153 0.931 . S
C127 C128 1.359 . S
C127 C129 1.364 . S
C128 C126 1.374 . S
C128 C127 1.359 . S
C128 H154 0.931 . S
C129 C125 1.389 . S
C129 C127 1.364 . S
C129 H155 0.931 . S
C130 O144 1.256 . S
C130 O145 1.257 . S
C131 O146 1.240 . S
C131 O147 1.240 . S
C132 Gd121 2.818 . S
C132 C133 1.510 1_554 S
C132 O148 1.249 . S
C132 O149 1.252 . S
C133 C132 1.510 1_556 S
C133 C134 1.404 . S
C133 C135 1.352 . S
C134 C133 1.404 . S
C134 C138 1.389 . S
C134 H156 0.930 . S
C135 C133 1.352 . S
C135 C137 1.374 . S
C135 H157 0.931 . S
C136 C137 1.359 . S
C136 C138 1.364 . S
C137 C135 1.374 . S
C137 C136 1.359 . S
C137 H158 0.931 . S
C138 C134 1.389 . S
C138 C136 1.364 . S
C138 H159 0.931 . S
C139 O150 1.256 . S
C139 O151 1.257 . S
O140 Gd120 2.377 . S
O140 C122 1.240 . S
O141 Gd121 2.395 . S
O141 C122 1.240 . S
O142 Gd120 2.448 . S
O142 C123 1.249 . S
O143 Gd120 2.506 . S
O143 C123 1.252 . S
O144 Gd120 2.435 . S
O144 C130 1.256 . S
O145 Gd120 2.717 . S
O145 Gd121 2.327 . S
O145 C130 1.257 . S
O146 Gd121 2.377 . S
O146 C131 1.240 . S
O147 Gd120 2.395 . S
O147 C131 1.240 . S
O148 Gd121 2.448 . S
O148 C132 1.249 . S
O149 Gd121 2.506 . S
O149 C132 1.252 . S
O150 Gd121 2.435 . S
O150 C139 1.256 . S
O151 Gd120 2.327 . S
O151 Gd121 2.717 . S
O151 C139 1.257 . S
H152 C125 0.930 . S
H153 C126 0.931 . S
H154 C128 0.931 . S
H155 C129 0.931 . S
H156 C134 0.930 . S
H157 C135 0.931 . S
H158 C137 0.931 . S
H159 C138 0.931 . S
Gd160 C163 2.818 . S
Gd160 O180 2.377 . S
Gd160 O182 2.448 . S
Gd160 O183 2.506 . S
Gd160 O184 2.435 . S
Gd160 O185 2.717 . S
Gd160 O187 2.395 . S
Gd160 O191 2.327 . S
Gd161 C172 2.818 . S
Gd161 O181 2.395 . S
Gd161 O185 2.327 . S
Gd161 O186 2.377 . S
Gd161 O188 2.448 . S
Gd161 O189 2.506 . S
Gd161 O190 2.435 . S
Gd161 O191 2.717 . S
C162 O180 1.240 . S
C162 O181 1.240 . S
C163 Gd160 2.818 . S
C163 C164 1.510 1_554 S
C163 O182 1.249 . S
C163 O183 1.252 . S
C164 C163 1.510 1_556 S
C164 C165 1.404 . S
C164 C166 1.352 . S
C165 C164 1.404 . S
C165 C169 1.389 . S
C165 H192 0.930 1_556 S
C166 C164 1.352 . S
C166 C168 1.374 . S
C166 H193 0.931 . S
C167 C168 1.359 . S
C167 C169 1.364 . S
C168 C166 1.374 . S
C168 C167 1.359 . S
C168 H194 0.931 . S
C169 C165 1.389 . S
C169 C167 1.364 . S
C169 H195 0.931 . S
C170 O184 1.256 . S
C170 O185 1.257 . S
C171 O186 1.240 . S
C171 O187 1.240 . S
C172 Gd161 2.818 . S
C172 C173 1.510 . S
C172 O188 1.249 . S
C172 O189 1.252 . S
C173 C172 1.510 . S
C173 C174 1.404 . S
C173 C175 1.352 . S
C174 C173 1.404 . S
C174 C178 1.389 . S
C174 H196 0.930 . S
C175 C173 1.352 . S
C175 C177 1.374 . S
C175 H197 0.931 . S
C176 C177 1.359 . S
C176 C178 1.364 . S
C177 C175 1.374 . S
C177 C176 1.359 . S
C177 H198 0.931 . S
C178 C174 1.389 . S
C178 C176 1.364 . S
C178 H199 0.931 . S
C179 O190 1.256 . S
C179 O191 1.257 . S
O180 Gd160 2.377 . S
O180 C162 1.240 . S
O181 Gd161 2.395 . S
O181 C162 1.240 . S
O182 Gd160 2.448 . S
O182 C163 1.249 . S
O183 Gd160 2.506 . S
O183 C163 1.252 . S
O184 Gd160 2.435 . S
O184 C170 1.256 . S
O185 Gd160 2.717 . S
O185 Gd161 2.327 . S
O185 C170 1.257 . S
O186 Gd161 2.377 . S
O186 C171 1.240 . S
O187 Gd160 2.395 . S
O187 C171 1.240 . S
O188 Gd161 2.448 . S
O188 C172 1.249 . S
O189 Gd161 2.506 . S
O189 C172 1.252 . S
O190 Gd161 2.435 . S
O190 C179 1.256 . S
O191 Gd160 2.327 . S
O191 Gd161 2.717 . S
O191 C179 1.257 . S
H192 C165 0.930 1_554 S
H193 C166 0.931 . S
H194 C168 0.931 . S
H195 C169 0.931 . S
H196 C174 0.930 . S
H197 C175 0.931 . S
H198 C177 0.931 . S
H199 C178 0.931 . S
Gd200 C203 2.818 . S
Gd200 O220 2.377 . S
Gd200 O222 2.448 . S
Gd200 O223 2.506 . S
Gd200 O224 2.435 . S
Gd200 O225 2.717 . S
Gd200 O227 2.395 . S
Gd200 O231 2.327 . S
Gd201 C212 2.818 . S
Gd201 O221 2.395 . S
Gd201 O225 2.327 . S
Gd201 O226 2.377 . S
Gd201 O228 2.448 . S
Gd201 O229 2.506 . S
Gd201 O230 2.435 . S
Gd201 O231 2.717 . S
C202 O220 1.240 . S
C202 O221 1.240 . S
C203 Gd200 2.818 . S
C203 C204 1.510 1_556 S
C203 O222 1.249 . S
C203 O223 1.252 . S
C204 C203 1.510 1_554 S
C204 C205 1.404 . S
C204 C206 1.352 . S
C205 C204 1.404 . S
C205 C209 1.389 . S
C205 H232 0.930 . S
C206 C204 1.352 . S
C206 C208 1.374 . S
C206 H233 0.931 . S
C207 C208 1.359 . S
C207 C209 1.364 . S
C208 C206 1.374 . S
C208 C207 1.359 . S
C208 H234 0.931 . S
C209 C205 1.389 . S
C209 C207 1.364 . S
C209 H235 0.931 . S
C210 O224 1.256 . S
C210 O225 1.257 . S
C211 O226 1.240 . S
C211 O227 1.240 . S
C212 Gd201 2.818 . S
C212 C213 1.510 . S
C212 O228 1.249 . S
C212 O229 1.252 . S
C213 C212 1.510 . S
C213 C214 1.404 . S
C213 C215 1.352 . S
C214 C213 1.404 . S
C214 C218 1.389 . S
C214 H236 0.930 . S
C215 C213 1.352 . S
C215 C217 1.374 . S
C215 H237 0.931 . S
C216 C217 1.359 . S
C216 C218 1.364 . S
C217 C215 1.374 . S
C217 C216 1.359 . S
C217 H238 0.931 . S
C218 C214 1.389 . S
C218 C216 1.364 . S
C218 H239 0.931 . S
C219 O230 1.256 . S
C219 O231 1.257 . S
O220 Gd200 2.377 . S
O220 C202 1.240 . S
O221 Gd201 2.395 . S
O221 C202 1.240 . S
O222 Gd200 2.448 . S
O222 C203 1.249 . S
O223 Gd200 2.506 . S
O223 C203 1.252 . S
O224 Gd200 2.435 . S
O224 C210 1.256 . S
O225 Gd200 2.717 . S
O225 Gd201 2.327 . S
O225 C210 1.257 . S
O226 Gd201 2.377 . S
O226 C211 1.240 . S
O227 Gd200 2.395 . S
O227 C211 1.240 . S
O228 Gd201 2.448 . S
O228 C212 1.249 . S
O229 Gd201 2.506 . S
O229 C212 1.252 . S
O230 Gd201 2.435 . S
O230 C219 1.256 . S
O231 Gd200 2.327 . S
O231 Gd201 2.717 . S
O231 C219 1.257 . S
H232 C205 0.930 . S
H233 C206 0.931 . S
H234 C208 0.931 . S
H235 C209 0.931 . S
H236 C214 0.930 . S
H237 C215 0.931 . S
H238 C217 0.931 . S
H239 C218 0.931 . S
Gd240 C243 2.818 . S
Gd240 O260 2.377 . S
Gd240 O262 2.448 . S
Gd240 O263 2.506 . S
Gd240 O264 2.435 . S
Gd240 O265 2.717 1_556 S
Gd240 O267 2.395 . S
Gd240 O271 2.327 . S
Gd241 C252 2.818 . S
Gd241 O261 2.395 . S
Gd241 O265 2.327 . S
Gd241 O266 2.377 . S
Gd241 O268 2.448 . S
Gd241 O269 2.506 . S
Gd241 O270 2.435 . S
Gd241 O271 2.717 1_554 S
C242 O260 1.240 . S
C242 O261 1.240 1_556 S
C243 Gd240 2.818 . S
C243 C244 1.510 . S
C243 O262 1.249 . S
C243 O263 1.252 . S
C244 C243 1.510 . S
C244 C245 1.404 . S
C244 C246 1.352 . S
C245 C244 1.404 . S
C245 C249 1.389 . S
C245 H272 0.930 . S
C246 C244 1.352 . S
C246 C248 1.374 . S
C246 H273 0.931 . S
C247 C248 1.359 . S
C247 C249 1.364 . S
C248 C246 1.374 . S
C248 C247 1.359 . S
C248 H274 0.931 . S
C249 C245 1.389 . S
C249 C247 1.364 . S
C249 H275 0.931 . S
C250 O264 1.256 1_554 S
C250 O265 1.257 . S
C251 O266 1.240 . S
C251 O267 1.240 1_554 S
C252 Gd241 2.818 . S
C252 C253 1.510 . S
C252 O268 1.249 . S
C252 O269 1.252 . S
C253 C252 1.510 . S
C253 C254 1.404 . S
C253 C255 1.352 . S
C254 C253 1.404 . S
C254 C258 1.389 . S
C254 H276 0.930 . S
C255 C253 1.352 . S
C255 C257 1.374 . S
C255 H277 0.931 . S
C256 C257 1.359 . S
C256 C258 1.364 . S
C257 C255 1.374 . S
C257 C256 1.359 . S
C257 H278 0.931 . S
C258 C254 1.389 . S
C258 C256 1.364 . S
C258 H279 0.931 . S
C259 O270 1.256 1_556 S
C259 O271 1.257 . S
O260 Gd240 2.377 . S
O260 C242 1.240 . S
O261 Gd241 2.395 . S
O261 C242 1.240 1_554 S
O262 Gd240 2.448 . S
O262 C243 1.249 . S
O263 Gd240 2.506 . S
O263 C243 1.252 . S
O264 Gd240 2.435 . S
O264 C250 1.256 1_556 S
O265 Gd240 2.717 1_554 S
O265 Gd241 2.327 . S
O265 C250 1.257 . S
O266 Gd241 2.377 . S
O266 C251 1.240 . S
O267 Gd240 2.395 . S
O267 C251 1.240 1_556 S
O268 Gd241 2.448 . S
O268 C252 1.249 . S
O269 Gd241 2.506 . S
O269 C252 1.252 . S
O270 Gd241 2.435 . S
O270 C259 1.256 1_554 S
O271 Gd240 2.327 . S
O271 Gd241 2.717 1_556 S
O271 C259 1.257 . S
H272 C245 0.930 . S
H273 C246 0.931 . S
H274 C248 0.931 . S
H275 C249 0.931 . S
H276 C254 0.930 . S
H277 C255 0.931 . S
H278 C257 0.931 . S
H279 C258 0.931 . S
Gd280 C283 2.818 1_455 S
Gd280 O300 2.377 1_455 S
Gd280 O302 2.448 1_455 S
Gd280 O303 2.506 . S
Gd280 O304 2.435 1_455 S
Gd280 O305 2.717 1_455 S
Gd280 O307 2.395 . S
Gd280 O311 2.327 . S
Gd281 C292 2.818 1_655 S
Gd281 O301 2.395 . S
Gd281 O305 2.327 . S
Gd281 O306 2.377 1_655 S
Gd281 O308 2.448 1_655 S
Gd281 O309 2.506 . S
Gd281 O310 2.435 1_655 S
Gd281 O311 2.717 1_655 S
C282 O300 1.240 . S
C282 O301 1.240 . S
C283 Gd280 2.818 1_655 S
C283 C284 1.510 . S
C283 O302 1.249 . S
C283 O303 1.252 1_655 S
C284 C283 1.510 . S
C284 C285 1.404 . S
C284 C286 1.356 . S
C285 C284 1.404 . S
C285 C289 1.389 . S
C285 H312 0.930 . S
C286 C284 1.356 . S
C286 C288 1.381 . S
C286 H313 0.920 1_655 S
C287 C288 1.359 . S
C287 C289 1.364 . S
C288 C286 1.381 . S
C288 C287 1.359 . S
C288 H314 0.929 1_655 S
C289 C285 1.389 . S
C289 C287 1.364 . S
C289 H315 0.931 . S
C290 O304 1.256 . S
C290 O305 1.257 . S
C291 O306 1.240 . S
C291 O307 1.240 . S
C292 Gd281 2.818 1_455 S
C292 C293 1.510 . S
C292 O308 1.249 . S
C292 O309 1.252 1_455 S
C293 C292 1.510 . S
C293 C294 1.404 . S
C293 C295 1.352 . S
C294 C293 1.404 . S
C294 C298 1.389 . S
C294 H316 0.930 . S
C295 C293 1.352 . S
C295 C297 1.374 . S
C295 H317 0.931 1_455 S
C296 C297 1.359 . S
C296 C298 1.364 . S
C297 C295 1.374 . S
C297 C296 1.359 . S
C297 H318 0.930 1_455 S
C298 C294 1.389 . S
C298 C296 1.364 . S
C298 H319 0.931 . S
C299 O310 1.256 . S
C299 O311 1.257 . S
O300 Gd280 2.377 1_655 S
O300 C282 1.240 . S
O301 Gd281 2.395 . S
O301 C282 1.240 . S
O302 Gd280 2.448 1_655 S
O302 C283 1.249 . S
O303 Gd280 2.506 . S
O303 C283 1.252 1_455 S
O304 Gd280 2.435 1_655 S
O304 C290 1.256 . S
O305 Gd280 2.717 1_655 S
O305 Gd281 2.327 . S
O305 C290 1.257 . S
O306 Gd281 2.377 1_455 S
O306 C291 1.240 . S
O307 Gd280 2.395 . S
O307 C291 1.240 . S
O308 Gd281 2.448 1_455 S
O308 C292 1.249 . S
O309 Gd281 2.506 . S
O309 C292 1.252 1_655 S
O310 Gd281 2.435 1_455 S
O310 C299 1.256 . S
O311 Gd280 2.327 . S
O311 Gd281 2.717 1_455 S
O311 C299 1.257 . S
H312 C285 0.930 . S
H313 C286 0.920 1_455 S
H314 C288 0.929 1_455 S
H315 C289 0.931 . S
H316 C294 0.930 . S
H317 C295 0.931 1_655 S
H318 C297 0.930 1_655 S
H319 C298 0.931 . S
C320 C321 1.369 . S
C320 C322 1.419 . S
C320 H324 0.930 . S
C321 C320 1.369 . S
C321 C330 1.429 . S
C322 C320 1.419 . S
C322 C323 1.363 . S
C322 H325 0.929 . S
C323 C322 1.363 . S
C323 C329 1.428 . S
H324 C320 0.930 . S
H325 C322 0.929 . S
S326 N327 1.613 . S
S326 N328 1.610 . S
N327 S326 1.613 . S
N327 C330 1.350 . S
N328 S326 1.610 . S
N328 C329 1.351 . S
C329 C323 1.428 . S
C329 N328 1.351 . S
C329 C330 1.434 . S
C330 C321 1.429 . S
C330 N327 1.350 . S
C330 C329 1.434 . S
C331 C332 1.369 . S
C331 C333 1.419 . S
C331 H335 0.930 . S
C332 C331 1.369 . S
C332 C341 1.429 . S
C333 C331 1.419 . S
C333 C334 1.363 . S
C333 H336 0.929 . S
C334 C333 1.363 . S
C334 C340 1.428 . S
H335 C331 0.930 . S
H336 C333 0.929 . S
S337 N338 1.613 . S
S337 N339 1.610 . S
N338 S337 1.613 . S
N338 C341 1.350 . S
N339 S337 1.610 . S
N339 C340 1.351 . S
C340 C334 1.428 . S
C340 N339 1.351 . S
C340 C341 1.434 . S
C341 C332 1.429 . S
C341 N338 1.350 . S
C341 C340 1.434 . S
C342 C343 1.369 . S
C342 C344 1.419 . S
C342 H346 0.930 . S
C343 C342 1.369 . S
C343 C352 1.429 . S
C344 C342 1.419 . S
C344 C345 1.363 . S
C344 H347 0.929 . S
C345 C344 1.363 . S
C345 C351 1.428 . S
H346 C342 0.930 . S
H347 C344 0.929 . S
S348 N349 1.613 . S
S348 N350 1.610 . S
N349 S348 1.613 . S
N349 C352 1.350 . S
N350 S348 1.610 . S
N350 C351 1.351 . S
C351 C345 1.428 . S
C351 N350 1.351 . S
C351 C352 1.434 . S
C352 C343 1.429 . S
C352 N349 1.350 . S
C352 C351 1.434 . S
C353 C354 1.369 . S
C353 C355 1.419 . S
C353 H357 0.930 . S
C354 C353 1.369 . S
C354 C363 1.429 . S
C355 C353 1.419 . S
C355 C356 1.363 . S
C355 H358 0.929 . S
C356 C355 1.363 . S
C356 C362 1.428 . S
H357 C353 0.930 . S
H358 C355 0.929 . S
S359 N360 1.613 . S
S359 N361 1.610 . S
N360 S359 1.613 . S
N360 C363 1.350 . S
N361 S359 1.610 . S
N361 C362 1.351 . S
C362 C356 1.428 . S
C362 N361 1.351 . S
C362 C363 1.434 . S
C363 C354 1.429 . S
C363 N360 1.350 . S
C363 C362 1.434 . S
C364 C365 1.369 . S
C364 C366 1.419 . S
C364 H368 0.930 . S
C365 C364 1.369 . S
C365 C374 1.429 . S
C366 C364 1.419 . S
C366 C367 1.363 . S
C366 H369 0.929 . S
C367 C366 1.363 . S
C367 C373 1.428 . S
H368 C364 0.930 . S
H369 C366 0.929 . S
S370 N371 1.613 . S
S370 N372 1.610 . S
N371 S370 1.613 . S
N371 C374 1.350 . S
N372 S370 1.610 . S
N372 C373 1.351 . S
C373 C367 1.428 . S
C373 N372 1.351 . S
C373 C374 1.434 . S
C374 C365 1.429 . S
C374 N371 1.350 . S
C374 C373 1.434 . S
C375 C376 1.369 . S
C375 C377 1.419 . S
C375 H379 0.930 . S
C376 C375 1.369 . S
C376 C385 1.429 . S
C377 C375 1.419 . S
C377 C378 1.363 . S
C377 H380 0.929 . S
C378 C377 1.363 . S
C378 C384 1.428 . S
H379 C375 0.930 . S
H380 C377 0.929 . S
S381 N382 1.613 . S
S381 N383 1.610 . S
N382 S381 1.613 . S
N382 C385 1.350 . S
N383 S381 1.610 . S
N383 C384 1.351 . S
C384 C378 1.428 . S
C384 N383 1.351 . S
C384 C385 1.434 . S
C385 C376 1.429 . S
C385 N382 1.350 . S
C385 C384 1.434 . S
C386 C387 1.369 . S
C386 C388 1.419 . S
C386 H390 0.930 . S
C387 C386 1.369 . S
C387 C396 1.429 . S
C388 C386 1.419 . S
C388 C389 1.363 . S
C388 H391 0.929 . S
C389 C388 1.363 . S
C389 C395 1.428 . S
H390 C386 0.930 . S
H391 C388 0.929 . S
S392 N393 1.613 . S
S392 N394 1.610 . S
N393 S392 1.613 . S
N393 C396 1.350 . S
N394 S392 1.610 . S
N394 C395 1.351 . S
C395 C389 1.428 . S
C395 N394 1.351 . S
C395 C396 1.434 . S
C396 C387 1.429 . S
C396 N393 1.350 . S
C396 C395 1.434 . S
C397 C398 1.369 . S
C397 C399 1.419 . S
C397 H401 0.930 . S
C398 C397 1.369 . S
C398 C407 1.429 . S
C399 C397 1.419 . S
C399 C400 1.363 . S
C399 H402 0.929 . S
C400 C399 1.363 . S
C400 C406 1.428 . S
H401 C397 0.930 . S
H402 C399 0.929 . S
S403 N404 1.613 . S
S403 N405 1.610 . S
N404 S403 1.613 . S
N404 C407 1.350 . S
N405 S403 1.610 . S
N405 C406 1.351 . S
C406 C400 1.428 . S
C406 N405 1.351 . S
C406 C407 1.434 . S
C407 C398 1.429 . S
C407 N404 1.350 . S
C407 C406 1.434 . S
C408 C409 1.369 . S
C408 C410 1.419 . S
C408 H412 0.930 . S
C409 C408 1.369 . S
C409 C418 1.429 . S
C410 C408 1.419 . S
C410 C411 1.363 . S
C410 H413 0.929 . S
C411 C410 1.363 . S
C411 C417 1.428 . S
H412 C408 0.930 . S
H413 C410 0.929 . S
S414 N415 1.613 . S
S414 N416 1.610 . S
N415 S414 1.613 . S
N415 C418 1.350 . S
N416 S414 1.610 . S
N416 C417 1.351 . S
C417 C411 1.428 . S
C417 N416 1.351 . S
C417 C418 1.434 . S
C418 C409 1.429 . S
C418 N415 1.350 . S
C418 C417 1.434 . S
C419 C420 1.369 . S
C419 C421 1.419 . S
C419 H423 0.930 . S
C420 C419 1.369 . S
C420 C429 1.429 . S
C421 C419 1.419 . S
C421 C422 1.363 . S
C421 H424 0.929 . S
C422 C421 1.363 . S
C422 C428 1.428 . S
H423 C419 0.930 . S
H424 C421 0.929 . S
S425 N426 1.613 1_556 S
S425 N427 1.610 . S
N426 S425 1.613 1_554 S
N426 C429 1.350 . S
N427 S425 1.610 . S
N427 C428 1.351 1_556 S
C428 C422 1.428 . S
C428 N427 1.351 1_554 S
C428 C429 1.434 . S
C429 C420 1.429 . S
C429 N426 1.350 . S
C429 C428 1.434 . S
C430 C431 1.369 . S
C430 C432 1.419 . S
C430 H434 0.930 . S
C431 C430 1.369 . S
C431 C440 1.429 . S
C432 C430 1.419 . S
C432 C433 1.363 . S
C432 H435 0.929 . S
C433 C432 1.363 . S
C433 C439 1.428 . S
H434 C430 0.930 . S
H435 C432 0.929 . S
S436 N437 1.613 . S
S436 N438 1.610 . S
N437 S436 1.613 . S
N437 C440 1.350 . S
N438 S436 1.610 . S
N438 C439 1.351 . S
C439 C433 1.428 . S
C439 N438 1.351 . S
C439 C440 1.434 . S
C440 C431 1.429 . S
C440 N437 1.350 . S
C440 C439 1.434 . S
C441 C442 1.369 . S
C441 C443 1.419 . S
C441 H445 0.930 . S
C442 C441 1.369 . S
C442 C451 1.429 . S
C443 C441 1.419 . S
C443 C444 1.363 . S
C443 H446 0.929 . S
C444 C443 1.363 . S
C444 C450 1.428 . S
H445 C441 0.930 . S
H446 C443 0.929 . S
S447 N448 1.613 . S
S447 N449 1.610 . S
N448 S447 1.613 . S
N448 C451 1.350 . S
N449 S447 1.610 . S
N449 C450 1.351 . S
C450 C444 1.428 . S
C450 N449 1.351 . S
C450 C451 1.434 . S
C451 C442 1.429 . S
C451 N448 1.350 . S
C451 C450 1.434 . S
C452 C453 1.369 . S
C452 C454 1.419 . S
C452 H456 0.930 . S
C453 C452 1.369 . S
C453 C462 1.429 . S
C454 C452 1.419 . S
C454 C455 1.363 . S
C454 H457 0.929 . S
C455 C454 1.363 . S
C455 C461 1.428 . S
H456 C452 0.930 . S
H457 C454 0.929 . S
S458 N459 1.613 . S
S458 N460 1.610 . S
N459 S458 1.613 . S
N459 C462 1.350 . S
N460 S458 1.610 . S
N460 C461 1.351 . S
C461 C455 1.428 . S
C461 N460 1.351 . S
C461 C462 1.434 . S
C462 C453 1.429 . S
C462 N459 1.350 . S
C462 C461 1.434 . S
C463 C464 1.369 . S
C463 C465 1.419 . S
C463 H467 0.930 . S
C464 C463 1.369 . S
C464 C473 1.429 . S
C465 C463 1.419 . S
C465 C466 1.363 . S
C465 H468 0.929 . S
C466 C465 1.363 . S
C466 C472 1.428 . S
H467 C463 0.930 . S
H468 C465 0.929 . S
S469 N470 1.613 . S
S469 N471 1.610 . S
N470 S469 1.613 . S
N470 C473 1.350 . S
N471 S469 1.610 . S
N471 C472 1.351 . S
C472 C466 1.428 . S
C472 N471 1.351 . S
C472 C473 1.434 . S
C473 C464 1.429 . S
C473 N470 1.350 . S
C473 C472 1.434 . S
C474 C475 1.369 . S
C474 C476 1.419 . S
C474 H478 0.930 . S
C475 C474 1.369 . S
C475 C484 1.429 . S
C476 C474 1.419 . S
C476 C477 1.363 . S
C476 H479 0.929 . S
C477 C476 1.363 . S
C477 C483 1.428 . S
H478 C474 0.930 . S
H479 C476 0.929 . S
S480 N481 1.613 . S
S480 N482 1.610 . S
N481 S480 1.613 . S
N481 C484 1.350 . S
N482 S480 1.610 . S
N482 C483 1.351 . S
C483 C477 1.428 . S
C483 N482 1.351 . S
C483 C484 1.434 . S
C484 C475 1.429 . S
C484 N481 1.350 . S
C484 C483 1.434 . S
C485 C486 1.369 . S
C485 C487 1.419 . S
C485 H489 0.930 . S
C486 C485 1.369 . S
C486 C495 1.429 . S
C487 C485 1.419 . S
C487 C488 1.363 . S
C487 H490 0.929 . S
C488 C487 1.363 . S
C488 C494 1.428 . S
H489 C485 0.930 . S
H490 C487 0.929 . S
S491 N492 1.613 . S
S491 N493 1.610 . S
N492 S491 1.613 . S
N492 C495 1.350 . S
N493 S491 1.610 . S
N493 C494 1.351 . S
C494 C488 1.428 . S
C494 N493 1.351 . S
C494 C495 1.434 . S
C495 C486 1.429 . S
C495 N492 1.350 . S
C495 C494 1.434 . S
C496 C497 1.369 1_565 S
C496 C498 1.419 1_655 S
C496 H500 0.930 . S
C497 C496 1.369 1_545 S
C497 C506 1.427 1_656 S
C498 C496 1.419 1_455 S
C498 C499 1.363 1_556 S
C498 H501 0.929 . S
C499 C498 1.363 1_554 S
C499 C505 1.428 1_565 S
H500 C496 0.930 . S
H501 C498 0.929 . S
S502 N503 1.613 . S
S502 N504 1.610 . S
N503 S502 1.613 . S
N503 C506 1.350 . S
N504 S502 1.610 . S
N504 C505 1.351 . S
C505 C499 1.428 1_545 S
C505 N504 1.351 . S
C505 C506 1.436 . S
C506 C497 1.427 1_454 S
C506 N503 1.350 . S
C506 C505 1.436 . S
C507 C508 1.369 . S
C507 C509 1.419 . S
C507 H511 0.930 . S
C508 C507 1.369 . S
C508 C517 1.429 . S
C509 C507 1.419 . S
C509 C510 1.363 . S
C509 H512 0.929 . S
C510 C509 1.363 . S
C510 C516 1.428 . S
H511 C507 0.930 . S
H512 C509 0.929 . S
S513 N514 1.613 . S
S513 N515 1.610 . S
N514 S513 1.613 . S
N514 C517 1.350 . S
N515 S513 1.610 . S
N515 C516 1.351 . S
C516 C510 1.428 . S
C516 N515 1.351 . S
C516 C517 1.434 . S
C517 C508 1.429 . S
C517 N514 1.350 . S
C517 C516 1.434 . S
C518 C519 1.369 . S
C518 C520 1.419 1_545 S
C518 H522 0.930 . S
C519 C518 1.369 . S
C519 C528 1.427 1_545 S
C520 C518 1.419 1_565 S
C520 C521 1.363 . S
C520 H523 0.929 . S
C521 C520 1.363 . S
C521 C527 1.428 . S
H522 C518 0.930 . S
H523 C520 0.929 . S
S524 N525 1.613 . S
S524 N526 1.610 . S
N525 S524 1.613 . S
N525 C528 1.352 . S
N526 S524 1.610 . S
N526 C527 1.351 . S
C527 C521 1.428 . S
C527 N526 1.351 . S
C527 C528 1.434 . S
C528 C519 1.427 1_565 S
C528 N525 1.352 . S
C528 C527 1.434 . S
C529 C530 1.369 . S
C529 C531 1.419 . S
C529 H533 0.930 . S
C530 C529 1.369 . S
C530 C539 1.429 . S
C531 C529 1.419 . S
C531 C532 1.363 . S
C531 H534 0.929 . S
C532 C531 1.363 . S
C532 C538 1.428 . S
H533 C529 0.930 . S
H534 C531 0.929 . S
S535 N536 1.613 . S
S535 N537 1.610 . S
N536 S535 1.613 . S
N536 C539 1.350 . S
N537 S535 1.610 . S
N537 C538 1.351 . S
C538 C532 1.428 . S
C538 N537 1.351 . S
C538 C539 1.434 . S
C539 C530 1.429 . S
C539 N536 1.350 . S
C539 C538 1.434 . S
C540 C541 1.369 . S
C540 C542 1.419 . S
C540 H544 0.930 . S
C541 C540 1.369 . S
C541 C550 1.429 . S
C542 C540 1.419 . S
C542 C543 1.363 . S
C542 H545 0.929 . S
C543 C542 1.363 . S
C543 C549 1.428 . S
H544 C540 0.930 . S
H545 C542 0.929 . S
S546 N547 1.613 . S
S546 N548 1.610 . S
N547 S546 1.613 . S
N547 C550 1.350 . S
N548 S546 1.610 . S
N548 C549 1.351 . S
C549 C543 1.428 . S
C549 N548 1.351 . S
C549 C550 1.434 . S
C550 C541 1.429 . S
C550 N547 1.350 . S
C550 C549 1.434 . S
C551 C552 1.369 . S
C551 C553 1.419 . S
C551 H555 0.930 . S
C552 C551 1.369 . S
C552 C561 1.429 . S
C553 C551 1.419 . S
C553 C554 1.363 . S
C553 H556 0.929 . S
C554 C553 1.363 . S
C554 C560 1.428 . S
H555 C551 0.930 . S
H556 C553 0.929 . S
S557 N558 1.613 . S
S557 N559 1.610 . S
N558 S557 1.613 . S
N558 C561 1.350 . S
N559 S557 1.610 . S
N559 C560 1.351 . S
C560 C554 1.428 . S
C560 N559 1.351 . S
C560 C561 1.434 . S
C561 C552 1.429 . S
C561 N558 1.350 . S
C561 C560 1.434 . S
C562 C563 1.369 . S
C562 C564 1.419 . S
C562 H566 0.930 . S
C563 C562 1.369 . S
C563 C572 1.429 . S
C564 C562 1.419 . S
C564 C565 1.363 . S
C564 H567 0.929 . S
C565 C564 1.363 . S
C565 C571 1.428 . S
H566 C562 0.930 . S
H567 C564 0.929 . S
S568 N569 1.613 . S
S568 N570 1.610 . S
N569 S568 1.613 . S
N569 C572 1.350 . S
N570 S568 1.610 . S
N570 C571 1.351 . S
C571 C565 1.428 . S
C571 N570 1.351 . S
C571 C572 1.434 . S
C572 C563 1.429 . S
C572 N569 1.350 . S
C572 C571 1.434 . S
C573 C574 1.369 . S
C573 C575 1.419 1_556 S
C573 H577 0.930 . S
C574 C573 1.369 . S
C574 C583 1.429 1_655 S
C575 C573 1.419 1_554 S
C575 C576 1.363 1_655 S
C575 H578 0.929 . S
C576 C575 1.363 1_455 S
C576 C582 1.428 . S
H577 C573 0.930 . S
H578 C575 0.929 . S
S579 N580 1.613 . S
S579 N581 1.610 1_556 S
N580 S579 1.613 . S
N580 C583 1.350 . S
N581 S579 1.610 1_554 S
N581 C582 1.351 . S
C582 C576 1.428 . S
C582 N581 1.351 . S
C582 C583 1.434 1_554 S
C583 C574 1.429 1_455 S
C583 N580 1.350 . S
C583 C582 1.434 1_556 S
C321 C2 1.935 . S
C323 C122 1.935 . S
C332 C10 1.543 . S
C334 C42 1.558 . S
C343 C50 1.078 . S
C345 C90 1.079 . S
C354 C82 1.559 . S
C356 C130 1.541 . S
C365 C11 1.935 . S
C367 C211 1.936 . S
C376 C19 1.545 . S
C378 C171 1.558 . S
C387 C179 1.079 . S
C389 C99 1.077 . S
C398 C219 1.543 . S
C400 C91 1.558 . S
C409 C242 1.936 . S
C411 C202 1.935 . S
C420 C162 1.559 . S
C422 C250 1.542 . S
C431 C290 1.073 . S
C433 C170 1.075 . S
C442 C210 1.540 . S
C444 C282 1.559 . S
C453 C131 1.935 . S
C455 C251 1.935 . S
C464 C259 1.540 . S
C466 C51 1.559 . S
C475 C59 1.077 . S
C477 C299 1.075 . S
C486 C139 1.544 . S
C488 C291 1.558 . S
C497 C16 1.816 . S
C499 C7 1.813 . S
C508 C47 1.478 . S
C510 C56 1.487 . S
C519 C96 1.478 . S
C521 C87 1.487 . S
C530 C136 1.815 . S
C532 C127 1.814 . S
C541 C167 1.487 . S
C543 C176 1.480 . S
C552 C216 1.810 . S
C554 C207 1.817 . S
C563 C247 1.809 . S
C565 C256 1.819 . S
C574 C287 1.478 . S
C576 C296 1.487 . S
