# Generated by pormake.
# Topology qtz-e, (6)-cn, num edge types: 1
# Building blocks:
#     Node 0, Type 0, BuildingBlock: UKALOJ_clean_sbu_0, # of connection points: 6
#     Node 1, Type 0, BuildingBlock: UKALOJ_clean_sbu_0, # of connection points: 6
#     Node 2, Type 0, BuildingBlock: UKALOJ_clean_sbu_0, # of connection points: 6
#     Node 3, Type 0, BuildingBlock: UKALOJ_clean_sbu_0, # of connection points: 6
#     Node 4, Type 0, BuildingBlock: UKALOJ_clean_sbu_0, # of connection points: 6
#     Node 5, Type 0, BuildingBlock: UKALOJ_clean_sbu_0, # of connection points: 6
#     Edge 6, Type (0, 0), BuildingBlock: ZUJKAS_clean_linker_0, # of connection points: 2
#     Edge 7, Type (0, 0), BuildingBlock: ZUJKAS_clean_linker_0, # of connection points: 2
#     Edge 8, Type (0, 0), BuildingBlock: ZUJKAS_clean_linker_0, # of connection points: 2
#     Edge 9, Type (0, 0), BuildingBlock: ZUJKAS_clean_linker_0, # of connection points: 2
#     Edge 10, Type (0, 0), BuildingBlock: ZUJKAS_clean_linker_0, # of connection points: 2
#     Edge 11, Type (0, 0), BuildingBlock: ZUJKAS_clean_linker_0, # of connection points: 2
#     Edge 12, Type (0, 0), BuildingBlock: ZUJKAS_clean_linker_0, # of connection points: 2
#     Edge 13, Type (0, 0), BuildingBlock: ZUJKAS_clean_linker_0, # of connection points: 2
#     Edge 14, Type (0, 0), BuildingBlock: ZUJKAS_clean_linker_0, # of connection points: 2
#     Edge 15, Type (0, 0), BuildingBlock: ZUJKAS_clean_linker_0, # of connection points: 2
#     Edge 16, Type (0, 0), BuildingBlock: ZUJKAS_clean_linker_0, # of connection points: 2
#     Edge 17, Type (0, 0), BuildingBlock: ZUJKAS_clean_linker_0, # of connection points: 2
#     Edge 18, Type (0, 0), BuildingBlock: ZUJKAS_clean_linker_0, # of connection points: 2
#     Edge 19, Type (0, 0), BuildingBlock: ZUJKAS_clean_linker_0, # of connection points: 2
#     Edge 20, Type (0, 0), BuildingBlock: ZUJKAS_clean_linker_0, # of connection points: 2
#     Edge 21, Type (0, 0), BuildingBlock: ZUJKAS_clean_linker_0, # of connection points: 2
#     Edge 22, Type (0, 0), BuildingBlock: ZUJKAS_clean_linker_0, # of connection points: 2
#     Edge 23, Type (0, 0), BuildingBlock: ZUJKAS_clean_linker_0, # of connection points: 2
# Relax obj value: 0.452
# Max RMSD: 0.260
# Mean RMSD: 0.260
data_MOF--net-qtz-e--node1-UKALOJ_clean_sbu_0--edge1-ZUJKAS_clean_linker_0
_symmetry_space_group_name_H-M    P1
_symmetry_Int_Tables_number       1
_symmetry_cell_setting            triclinic
loop_
_symmetry_equiv_pos_as_xyz
'x, y, z'
_cell_length_a     35.304437
_cell_length_b     35.255391
_cell_length_c     46.00731
_cell_angle_alpha  89.966369
_cell_angle_beta   90.012059
_cell_angle_gamma 119.96903
loop_
_atom_site_label
_atom_site_type_symbol
_atom_site_fract_x
_atom_site_fract_y
_atom_site_fract_z
_atom_type_partial_charge
Zn0 Zn 0.21465 0.41336 0.01489 0.0
O1 O 0.16111 0.4226 0.02355 0.0
C2 C 0.16062 0.32034 0.03066 0.0
Zn3 Zn 0.1789 0.37315 0.97643 0.0
C4 C 0.12751 0.40623 0.00734 0.0
O5 O 0.12556 0.38288 0.98573 0.0
C6 C 0.26773 0.38364 0.98349 0.0
O7 O 0.20594 0.42907 0.94993 0.0
O8 O 0.24314 0.46905 0.98735 0.0
N9 N 0.14451 0.3334 0.94251 0.0
C10 C 0.15739 0.32584 0.91666 0.0
C11 C 0.09047 0.27722 0.92228 0.0
N12 N 0.10274 0.30352 0.94577 0.0
N13 N 0.12408 0.29077 0.90355 0.0
C14 C 0.24781 0.48471 0.06285 0.0
C15 C 0.28719 0.46784 0.08889 0.0
N16 N 0.24769 0.4503 0.05006 0.0
N17 N 0.27241 0.44005 0.06616 0.0
N18 N 0.27203 0.49606 0.08738 0.0
H19 H 0.22397 0.50588 0.02664 0.0
H20 H 0.24415 0.54348 0.05694 0.0
H21 H 0.19238 0.49366 0.05937 0.0
C22 C 0.22603 0.50843 0.05062 0.0
C23 C 0.20365 0.34955 0.90585 0.0
H24 H 0.22213 0.38265 0.91548 0.0
H25 H 0.20467 0.35288 0.88189 0.0
H26 H 0.2198 0.3305 0.91173 0.0
O27 O 0.23429 0.36577 0.9671 0.0
O28 O 0.26723 0.40413 0.00597 0.0
C29 C 0.23348 0.46605 0.96049 0.0
O30 O 0.18681 0.35755 0.04143 0.0
O31 O 0.15162 0.31724 0.00374 0.0
Zn32 Zn 0.82389 0.18861 0.30939 0.0
O33 O 0.79732 0.21375 0.27934 0.0
C34 C 0.89889 0.2782 0.31744 0.0
Zn35 Zn 0.81363 0.22223 0.34679 0.0
C36 C 0.78261 0.23746 0.28929 0.0
O37 O 0.78492 0.24551 0.31635 0.0
C38 C 0.85385 0.17225 0.36717 0.0
O39 O 0.75174 0.16788 0.35453 0.0
O40 O 0.75988 0.13441 0.31696 0.0
N41 N 0.80428 0.25731 0.37824 0.0
C42 C 0.78099 0.2447 0.40303 0.0
C43 C 0.80282 0.31255 0.39724 0.0
N44 N 0.8182 0.29959 0.3748 0.0
N45 N 0.77923 0.27858 0.41516 0.0
C46 C 0.85452 0.16352 0.25284 0.0
C47 C 0.83355 0.09628 0.26087 0.0
N48 N 0.83261 0.15267 0.27821 0.0
N49 N 0.81921 0.11077 0.283 0.0
N50 N 0.8554 0.12865 0.24152 0.0
H51 H 0.86375 0.2285 0.24808 0.0
H52 H 0.87985 0.20911 0.21689 0.0
H53 H 0.91319 0.22537 0.24895 0.0
C54 C 0.87898 0.20921 0.24094 0.0
C55 C 0.76082 0.19965 0.41582 0.0
H56 H 0.77833 0.18253 0.40882 0.0
H57 H 0.72643 0.18043 0.40855 0.0
H58 H 0.76094 0.20135 0.43991 0.0
O59 O 0.84172 0.19836 0.37657 0.0
O60 O 0.85044 0.16328 0.34021 0.0
C61 C 0.73651 0.1349 0.33782 0.0
O62 O 0.88688 0.24462 0.3015 0.0
O63 O 0.87483 0.27655 0.33842 0.0
Zn64 Zn 0.58935 0.8095 0.67867 0.0
O65 O 0.57863 0.74589 0.68282 0.0
C66 C 0.67727 0.84568 0.70255 0.0
Zn67 Zn 0.63618 0.82055 0.64303 0.0
C68 C 0.59902 0.73153 0.66791 0.0
O69 O 0.62734 0.75655 0.64941 0.0
C70 C 0.62149 0.89637 0.65315 0.0
O71 O 0.58725 0.7946 0.61124 0.0
O72 O 0.54089 0.78712 0.64561 0.0
N73 N 0.68382 0.83404 0.61282 0.0
C74 C 0.69732 0.8614 0.58986 0.0
C75 C 0.74222 0.83806 0.59477 0.0
N76 N 0.71159 0.8193 0.61571 0.0
N77 N 0.73403 0.8648 0.57839 0.0
C78 C 0.53234 0.7778 0.73488 0.0
C79 C 0.48226 0.79246 0.72419 0.0
N80 N 0.54212 0.79732 0.7086 0.0
N81 N 0.51116 0.80672 0.70215 0.0
N82 N 0.49492 0.77444 0.74512 0.0
H83 H 0.53532 0.72616 0.7578 0.0
H84 H 0.57531 0.78065 0.76862 0.0
H85 H 0.58242 0.7592 0.73513 0.0
C86 C 0.55783 0.75974 0.74968 0.0
C87 C 0.67384 0.88362 0.57795 0.0
H88 H 0.63822 0.86366 0.58197 0.0
H89 H 0.67966 0.88927 0.55423 0.0
H90 H 0.68637 0.91588 0.58867 0.0
O91 O 0.64177 0.88358 0.63663 0.0
O92 O 0.59904 0.87221 0.67405 0.0
C93 C 0.54856 0.78332 0.61908 0.0
O94 O 0.63817 0.83179 0.71082 0.0
O95 O 0.68526 0.84582 0.6756 0.0
Zn96 Zn 0.75818 0.58317 0.02414 0.0
O97 O 0.80791 0.56703 0.02826 0.0
C98 C 0.8168 0.67209 0.04472 0.0
Zn99 Zn 0.79581 0.62578 0.98709 0.0
C100 C 0.84266 0.58476 0.01317 0.0
O101 O 0.84789 0.61308 0.99408 0.0
C102 C 0.70844 0.61915 -0.00345 0.0
O103 O 0.76777 0.57328 0.95749 0.0
O104 O 0.72698 0.53241 0.99353 0.0
N105 N 0.83107 0.6698 0.95506 0.0
C106 C 0.81781 0.68229 0.93131 0.0
C107 C 0.88621 0.72638 0.93585 0.0
N108 N 0.87368 0.69702 0.95771 0.0
N109 N 0.8516 0.71797 0.91912 0.0
C110 C 0.7329 0.52937 0.08189 0.0
C111 C 0.66471 0.48652 0.07527 0.0
N112 N 0.72225 0.54031 0.05632 0.0
N113 N 0.6798 0.51399 0.05245 0.0
N114 N 0.69722 0.49524 0.09422 0.0
H115 H 0.78778 0.52697 0.10031 0.0
H116 H 0.77956 0.57042 0.11374 0.0
H117 H 0.80267 0.57543 0.0789 0.0
C118 C 0.77838 0.55159 0.09415 0.0
C119 C 0.77217 0.65892 0.91945 0.0
H120 H 0.75549 0.62366 0.92495 0.0
H121 H 0.77254 0.66267 0.89548 0.0
H122 H 0.75336 0.67336 0.92894 0.0
O123 O 0.74164 0.63576 0.97994 0.0
O124 O 0.70835 0.59803 0.01887 0.0
C125 C 0.73758 0.53659 0.96684 0.0
O126 O 0.78956 0.63424 0.05418 0.0
O127 O 0.82412 0.67782 0.01757 0.0
Zn128 Zn 0.19316 0.77995 0.35058 0.0
O129 O 0.25481 0.83403 0.3593 0.0
C130 C 0.15307 0.83265 0.36697 0.0
Zn131 Zn 0.18707 0.81453 0.31208 0.0
C132 C 0.27188 0.86718 0.3427 0.0
O133 O 0.25011 0.86864 0.32114 0.0
C134 C 0.1104 0.7247 0.31928 0.0
O135 O 0.21638 0.78884 0.28492 0.0
O136 O 0.22187 0.75344 0.32251 0.0
N137 N 0.18081 0.84919 0.27872 0.0
C138 C 0.15978 0.83672 0.25307 0.0
C139 C 0.17877 0.90381 0.25925 0.0
N140 N 0.19314 0.89106 0.28233 0.0
N141 N 0.15807 0.87041 0.24042 0.0
C142 C 0.23106 0.74 0.3941 0.0
C143 C 0.18022 0.71157 0.42573 0.0
N144 N 0.19862 0.74686 0.38513 0.0
N145 N 0.16695 0.72887 0.40469 0.0
N146 N 0.22018 0.71772 0.41947 0.0
H147 H 0.27957 0.78169 0.36218 0.0
H148 H 0.27549 0.72975 0.36824 0.0
H149 H 0.30138 0.77212 0.39505 0.0
C150 C 0.27432 0.75726 0.37902 0.0
C151 C 0.1368 0.79052 0.24204 0.0
H152 H 0.13791 0.7897 0.21801 0.0
H153 H 0.10197 0.77419 0.24875 0.0
H154 H 0.15199 0.77206 0.25088 0.0
O155 O 0.12472 0.75819 0.30293 0.0
O156 O 0.132 0.72608 0.34166 0.0
C157 C 0.2279 0.7629 0.2956 0.0
O158 O 0.16461 0.80682 0.37778 0.0
O159 O 0.15804 0.84077 0.3399 0.0
Zn160 Zn 0.36756 0.17647 0.64502 0.0
O161 O 0.41907 0.20078 0.61476 0.0
C162 C 0.37853 0.09866 0.65604 0.0
Zn163 Zn 0.41117 0.1852 0.68226 0.0
C164 C 0.45672 0.21104 0.6244 0.0
O165 O 0.46174 0.20712 0.65135 0.0
C166 C 0.32232 0.15187 0.70334 0.0
O167 O 0.42359 0.24962 0.68636 0.0
O168 O 0.37883 0.24129 0.65069 0.0
N169 N 0.45557 0.19529 0.71375 0.0
C170 C 0.46361 0.21433 0.74012 0.0
C171 C 0.51385 0.19903 0.73155 0.0
N172 N 0.48659 0.18547 0.70859 0.0
N173 N 0.49992 0.21691 0.75173 0.0
C174 C 0.30985 0.13869 0.58998 0.0
C175 C 0.26644 0.16405 0.59345 0.0
N176 N 0.32256 0.16536 0.61327 0.0
N177 N 0.29573 0.18134 0.61528 0.0
N178 N 0.27447 0.13692 0.57741 0.0
H179 H 0.36842 0.13481 0.58394 0.0
H180 H 0.3289 0.11111 0.55494 0.0
H181 H 0.31908 0.08314 0.58919 0.0
C182 C 0.33309 0.11582 0.57881 0.0
C183 C 0.43786 0.23306 0.75368 0.0
H184 H 0.46033 0.26675 0.7616 0.0
H185 H 0.41962 0.21274 0.77267 0.0
H186 H 0.414 0.23362 0.73842 0.0
O187 O 0.36042 0.16333 0.7126 0.0
O188 O 0.31616 0.15297 0.67619 0.0
C189 C 0.40579 0.26538 0.67012 0.0
O190 O 0.35952 0.11249 0.63917 0.0
O191 O 0.40015 0.12195 0.67748 0.0
H192 H 0.26388 0.71304 0.31173 0.0
H193 H 0.28801 0.67374 0.27979 0.0
H194 H 0.25518 0.72512 0.2048 0.0
H195 H 0.23215 0.76527 0.23642 0.0
H196 H 0.23689 0.61036 0.24357 0.0
H197 H 0.37131 0.74107 0.18 0.0
H198 H 0.35086 0.75219 0.21299 0.0
H199 H 0.32371 0.74688 0.17879 0.0
C200 C 0.26255 0.71657 0.28842 0.0
C201 C 0.24607 0.7422 0.27658 0.0
C202 C 0.27643 0.69418 0.27022 0.0
C203 C 0.27409 0.69708 0.23991 0.0
C204 C 0.25853 0.72342 0.22809 0.0
H205 H 0.20759 0.50708 0.10981 0.0
H206 H 0.21414 0.55703 0.14866 0.0
C207 C 0.24497 0.74605 0.24623 0.0
C208 C 0.28289 0.66877 0.22062 0.0
H209 H 0.33322 0.66928 0.15717 0.0
C210 C 0.25867 0.62334 0.22502 0.0
C211 C 0.31183 0.68565 0.19669 0.0
C212 C 0.34124 0.73417 0.19204 0.0
C213 C 0.2604 0.59425 0.20508 0.0
C214 C 0.28625 0.61107 0.17978 0.0
C215 C 0.31281 0.65649 0.17636 0.0
C216 C 0.28328 0.58208 0.15564 0.0
C217 C 0.23371 0.54573 0.21099 0.0
C218 C 0.32031 0.58072 0.14605 0.0
C219 C 0.31673 0.55276 0.12332 0.0
C220 C 0.27629 0.52647 0.10963 0.0
C221 C 0.23943 0.52814 0.11924 0.0
C222 C 0.24299 0.55601 0.14182 0.0
H223 H 0.22795 0.53896 0.23466 0.0
H224 H 0.20135 0.53237 0.2003 0.0
H225 H 0.25006 0.52814 0.20236 0.0
H226 H 0.35173 0.60078 0.1564 0.0
H227 H 0.34542 0.55157 0.11637 0.0
H228 H 0.45738 0.21885 0.56521 0.0
H229 H 0.51918 0.23882 0.53242 0.0
H230 H 0.60247 0.2571 0.60589 0.0
H231 H 0.54109 0.23696 0.63883 0.0
H232 H 0.60645 0.31709 0.53103 0.0
H233 H 0.60673 0.16212 0.55423 0.0
H234 H 0.56095 0.16939 0.56307 0.0
H235 H 0.6092 0.19425 0.58526 0.0
C236 C 0.48892 0.22746 0.57439 0.0
C237 C 0.4943 0.22599 0.60456 0.0
C238 C 0.52414 0.23895 0.55567 0.0
C239 C 0.56504 0.24895 0.56685 0.0
C240 C 0.57092 0.24898 0.59695 0.0
H241 H 0.80155 0.33437 0.46034 0.0
H242 H 0.75272 0.33176 0.49964 0.0
C243 C 0.53581 0.2375 0.61568 0.0
C244 C 0.60094 0.25708 0.54691 0.0
H245 H 0.66004 0.21159 0.52169 0.0
C246 C 0.61856 0.29434 0.52909 0.0
C247 C 0.61619 0.227 0.54451 0.0
C248 C 0.5972 0.18574 0.56258 0.0
C249 C 0.65084 0.30199 0.50844 0.0
C250 C 0.66572 0.27167 0.50586 0.0
C251 C 0.64867 0.23489 0.52406 0.0
C252 C 0.6955 0.27487 0.48239 0.0
C253 C 0.66761 0.34135 0.48874 0.0
C254 C 0.67923 0.24389 0.45998 0.0
C255 C 0.70678 0.24539 0.43787 0.0
C256 C 0.75122 0.27746 0.43805 0.0
C257 C 0.76743 0.30911 0.46015 0.0
C258 C 0.7397 0.30768 0.48238 0.0
H259 H 0.64903 0.35893 0.49136 0.0
H260 H 0.7025 0.36444 0.49376 0.0
H261 H 0.66562 0.33124 0.46568 0.0
H262 H 0.64506 0.21867 0.45953 0.0
H263 H 0.69321 0.22187 0.42036 0.0
H264 H 0.30265 0.54664 0.97394 0.0
H265 H 0.3472 0.60599 0.94012 0.0
H266 H 0.26201 0.53125 0.8696 0.0
H267 H 0.2178 0.47148 0.90304 0.0
H268 H 0.34919 0.55952 0.85926 0.0
H269 H 0.32751 0.69694 0.89776 0.0
H270 H 0.34343 0.67146 0.92528 0.0
H271 H 0.29095 0.64073 0.9081 0.0
C272 C 0.29292 0.54318 0.95133 0.0
C273 C 0.25681 0.5043 0.94113 0.0
C274 C 0.3183 0.57723 0.93207 0.0
C275 C 0.30765 0.5731 0.90244 0.0
C276 C 0.27066 0.53505 0.89243 0.0
H277 H 0.40919 0.716 0.74439 0.0
H278 H 0.36487 0.66976 0.78477 0.0
C279 C 0.24543 0.50096 0.91158 0.0
C280 C 0.33713 0.60637 0.8813 0.0
H281 H 0.3807 0.71336 0.86093 0.0
C282 C 0.35604 0.59313 0.85963 0.0
C283 C 0.34618 0.65024 0.88202 0.0
C284 C 0.32572 0.66577 0.90437 0.0
C285 C 0.38351 0.62252 0.83846 0.0
C286 C 0.39209 0.66612 0.83896 0.0
C287 C 0.37396 0.67978 0.86085 0.0
C288 C 0.41802 0.69701 0.81575 0.0
C289 C 0.40299 0.60684 0.81548 0.0
C290 C 0.46219 0.72801 0.8202 0.0
C291 C 0.48752 0.75434 0.79715 0.0
C292 C 0.46887 0.74978 0.76949 0.0
C293 C 0.4242 0.71991 0.76552 0.0
C294 C 0.39899 0.69357 0.78846 0.0
H295 H 0.39812 0.57387 0.8205 0.0
H296 H 0.38739 0.60525 0.79422 0.0
H297 H 0.43856 0.63025 0.81321 0.0
H298 H 0.4772 0.73108 0.84125 0.0
H299 H 0.52158 0.77805 0.80087 0.0
H300 H 0.71324 0.24904 0.29921 0.0
H301 H 0.68458 0.28421 0.26707 0.0
H302 H 0.78559 0.30899 0.20447 0.0
H303 H 0.81193 0.27087 0.23558 0.0
H304 H 0.71642 0.36171 0.25051 0.0
H305 H 0.68692 0.26524 0.15058 0.0
H306 H 0.69959 0.24864 0.18456 0.0
H307 H 0.74279 0.28714 0.16111 0.0
C308 C 0.72865 0.26135 0.2783 0.0
C309 C 0.76434 0.25695 0.26957 0.0
C310 C 0.7124 0.2815 0.25999 0.0
C311 C 0.73225 0.29851 0.23298 0.0
C312 C 0.76847 0.29462 0.22457 0.0
H313 H 0.74291 0.51752 0.14571 0.0
H314 H 0.74608 0.46731 0.18025 0.0
C315 C 0.7838 0.27321 0.24245 0.0
C316 C 0.71712 0.32288 0.21448 0.0
H317 H 0.69849 0.3385 0.14404 0.0
C318 C 0.71166 0.35603 0.22729 0.0
C319 C 0.70958 0.31488 0.18431 0.0
C320 C 0.70952 0.27665 0.16949 0.0
C321 C 0.70103 0.38269 0.21057 0.0
C322 C 0.69812 0.37766 0.17998 0.0
C323 C 0.70147 0.34313 0.1674 0.0
C324 C 0.69381 0.40877 0.16033 0.0
C325 C 0.69266 0.4155 0.22609 0.0
C326 C 0.66405 0.393 0.13712 0.0
C327 C 0.66442 0.42169 0.11608 0.0
C328 C 0.6942 0.46694 0.1179 0.0
C329 C 0.72154 0.48294 0.14238 0.0
C330 C 0.72224 0.4541 0.1629 0.0
H331 H 0.67831 0.40325 0.24794 0.0
H332 H 0.72415 0.44629 0.22935 0.0
H333 H 0.67015 0.42287 0.21364 0.0
H334 H 0.64147 0.35825 0.13469 0.0
H335 H 0.64242 0.40817 0.09776 0.0
H336 H 0.46542 0.76775 0.62697 0.0
H337 H 0.4072 0.74259 0.59088 0.0
H338 H 0.49204 0.73465 0.52668 0.0
H339 H 0.55101 0.76097 0.56253 0.0
H340 H 0.45331 0.77805 0.50671 0.0
H341 H 0.32775 0.62333 0.55684 0.0
H342 H 0.3463 0.66839 0.58162 0.0
H343 H 0.38396 0.65163 0.56887 0.0
C344 C 0.47159 0.76022 0.60526 0.0
C345 C 0.51279 0.7663 0.59758 0.0
C346 C 0.43812 0.74543 0.58473 0.0
C347 C 0.44499 0.7358 0.55629 0.0
C348 C 0.48597 0.74148 0.54861 0.0
H349 H 0.27158 0.68318 0.40603 0.0
H350 H 0.32598 0.68064 0.43801 0.0
C351 C 0.51962 0.75662 0.56909 0.0
C352 C 0.41059 0.72362 0.53402 0.0
H353 H 0.30186 0.65532 0.521 0.0
C354 C 0.42043 0.75066 0.5095 0.0
C355 C 0.36776 0.68777 0.53769 0.0
C356 C 0.35594 0.65587 0.56254 0.0
C357 C 0.38797 0.74429 0.4894 0.0
C358 C 0.34474 0.70989 0.49394 0.0
C359 C 0.33515 0.68173 0.51775 0.0
C360 C 0.30861 0.70557 0.47559 0.0
C361 C 0.39954 0.77567 0.46423 0.0
C362 C 0.2802 0.71905 0.48655 0.0
C363 C 0.24981 0.72119 0.46828 0.0
C364 C 0.24751 0.70995 0.43881 0.0
C365 C 0.27397 0.6936 0.42838 0.0
C366 C 0.30459 0.69169 0.44664 0.0
H367 H 0.43367 0.80339 0.46556 0.0
H368 H 0.39578 0.75793 0.44355 0.0
H369 H 0.37698 0.78905 0.46347 0.0
H370 H 0.28291 0.7298 0.5089 0.0
H371 H 0.22953 0.73362 0.4768 0.0
H372 H 0.75444 0.5319 0.90932 0.0
H373 H 0.71293 0.47047 0.87611 0.0
H374 H 0.62584 0.396 0.9459 0.0
H375 H 0.667 0.45692 0.97931 0.0
H376 H 0.69004 0.37474 0.88572 0.0
H377 H 0.54904 0.40382 0.8768 0.0
H378 H 0.60284 0.44642 0.88768 0.0
H379 H 0.56957 0.4033 0.91254 0.0
C380 C 0.72659 0.50238 0.91763 0.0
C381 C 0.71392 0.49927 0.94689 0.0
C382 C 0.70304 0.4674 0.89868 0.0
C383 C 0.66637 0.42909 0.90868 0.0
C384 C 0.65398 0.42555 0.93789 0.0
H385 H 0.47022 0.21031 0.80668 0.0
H386 H 0.51091 0.25751 0.84786 0.0
C387 C 0.6776 0.46035 0.95689 0.0
C388 C 0.64045 0.3931 0.88834 0.0
H389 H 0.54487 0.34485 0.85034 0.0
C390 C 0.6582 0.36793 0.87801 0.0
C391 C 0.59884 0.38429 0.87878 0.0
C392 C 0.57878 0.41089 0.88931 0.0
C393 C 0.63539 0.33412 0.85793 0.0
C394 C 0.59442 0.32632 0.84745 0.0
C395 C 0.57627 0.35089 0.85843 0.0
C396 C 0.57109 0.29501 0.8237 0.0
C397 C 0.6553 0.30699 0.8483 0.0
C398 C 0.59153 0.30039 0.79665 0.0
C399 C 0.56841 0.27353 0.77334 0.0
C400 C 0.52428 0.2415 0.77655 0.0
C401 C 0.50402 0.2354 0.80372 0.0
C402 C 0.52727 0.26207 0.82716 0.0
H403 H 0.67782 0.30672 0.86506 0.0
H404 H 0.62975 0.27268 0.84362 0.0
H405 H 0.67463 0.32143 0.82821 0.0
H406 H 0.62491 0.32633 0.79326 0.0
H407 H 0.5844 0.27889 0.75244 0.0
H408 H 0.30044 0.40278 0.92872 0.0
H409 H 0.37846 0.44298 0.91669 0.0
H410 H 0.40967 0.42369 0.00406 0.0
H411 H 0.33191 0.3847 0.01645 0.0
H412 H 0.42979 0.52189 0.95978 0.0
H413 H 0.49866 0.412 0.94291 0.0
H414 H 0.44278 0.39608 0.93383 0.0
H415 H 0.45808 0.39663 0.97107 0.0
C416 C 0.32379 0.4051 0.9449 0.0
C417 C 0.3103 0.39063 0.97351 0.0
C418 C 0.36833 0.42839 0.93805 0.0
C419 C 0.39957 0.43624 0.95953 0.0
C420 C 0.38589 0.41755 0.98717 0.0
H421 H 0.63954 0.60853 0.02927 0.0
H422 H 0.56331 0.57178 0.01317 0.0
C423 C 0.34152 0.39514 0.99419 0.0
C424 C 0.4456 0.4705 0.95543 0.0
H425 H 0.54903 0.48642 0.95504 0.0
C426 C 0.45597 0.51435 0.95801 0.0
C427 C 0.47937 0.46035 0.95318 0.0
C428 C 0.46943 0.41374 0.94989 0.0
C429 C 0.49953 0.5482 0.96034 0.0
C430 C 0.5332 0.53774 0.95993 0.0
C431 C 0.52295 0.49423 0.95535 0.0
C432 C 0.5786 0.57012 0.96783 0.0
C433 C 0.50931 0.59464 0.96451 0.0
C434 C 0.61226 0.58321 0.94739 0.0
C435 C 0.65585 0.60499 0.95647 0.0
C436 C 0.6662 0.61295 0.98619 0.0
C437 C 0.63252 0.60316 0.00623 0.0
C438 C 0.589 0.58203 -0.00293 0.0
H439 H 0.48112 0.59865 0.95823 0.0
H440 H 0.51686 0.60372 0.98775 0.0
H441 H 0.53835 0.61762 0.95153 0.0
H442 H 0.60471 0.57393 0.92477 0.0
H443 H 0.68085 0.6112 0.94057 0.0
H444 H 0.09262 0.69322 0.26395 0.0
H445 H 0.05315 0.61558 0.25042 0.0
H446 H 0.0121 0.58066 0.33939 0.0
H447 H 0.05212 0.65793 0.35311 0.0
H448 H 0.08038 0.55866 0.28091 0.0
H449 H 0.90223 0.49746 0.28873 0.0
H450 H 0.94176 0.5542 0.28141 0.0
H451 H 0.9341 0.53321 0.31784 0.0
C452 C 0.0735 0.66913 0.28034 0.0
C453 C 0.07522 0.68152 0.30957 0.0
C454 C 0.05135 0.62478 0.27262 0.0
C455 C 0.02977 0.5925 0.29391 0.0
C456 C 0.02818 0.60513 0.32259 0.0
H457 H 0.95382 0.34481 0.35256 0.0
H458 H 0.9925 0.42241 0.33942 0.0
C459 C 0.05091 0.64926 0.33039 0.0
C460 C 0.01462 0.54593 0.28767 0.0
H461 H 0.92514 0.44406 0.29392 0.0
C462 C 0.04629 0.53354 0.28293 0.0
C463 C 0.97023 0.51337 0.29042 0.0
C464 C 0.93497 0.52511 0.29463 0.0
C465 C 0.03492 0.48924 0.28295 0.0
C466 C 0.99097 0.45691 0.28759 0.0
C467 C 0.95892 0.46915 0.29038 0.0
C468 C 0.97807 0.41087 0.29355 0.0
C469 C 0.07002 0.47712 0.27965 0.0
C470 C 0.95928 0.37891 0.27179 0.0
C471 C 0.93793 0.33441 0.27918 0.0
C472 C 0.93439 0.32166 0.30849 0.0
C473 C 0.95644 0.3538 0.32981 0.0
C474 C 0.97829 0.39808 0.32236 0.0
H475 H 0.10174 0.50546 0.27276 0.0
H476 H 0.07476 0.46474 0.30075 0.0
H477 H 0.05978 0.45038 0.26347 0.0
H478 H 0.9586 0.38835 0.24947 0.0
H479 H 0.92053 0.31035 0.2624 0.0
H480 H 0.39174 0.04443 0.69112 0.0
H481 H 0.43194 0.00732 0.67758 0.0
H482 H 0.42766 0.03881 0.58753 0.0
H483 H 0.38705 0.07574 0.60091 0.0
H484 H 0.4216 0.94029 0.63196 0.0
H485 H 0.56082 0.11026 0.61613 0.0
H486 H 0.51262 0.09964 0.6363 0.0
H487 H 0.51001 0.09373 0.59755 0.0
C488 C 0.39757 0.04167 0.6683 0.0
C489 C 0.3863 0.06299 0.6471 0.0
C490 C 0.42078 0.02073 0.66061 0.0
C491 C 0.43339 0.02116 0.63166 0.0
C492 C 0.41841 0.03849 0.61002 0.0
H493 H 0.61221 0.9198 0.59836 0.0
H494 H 0.571 0.95665 0.58603 0.0
C495 C 0.39469 0.05906 0.61768 0.0
C496 C 0.46682 0.00879 0.62528 0.0
H497 H 0.57749 0.0536 0.61837 0.0
C498 C 0.45551 0.96482 0.62819 0.0
C499 C 0.51108 0.04114 0.6206 0.0
C500 C 0.52475 0.08893 0.61753 0.0
C501 C 0.48765 0.95253 0.62784 0.0
C502 C 0.53209 0.98515 0.62487 0.0
C503 C 0.5433 0.02884 0.62052 0.0
C504 C 0.56693 0.97453 0.63037 0.0
C505 C 0.47434 0.90506 0.63233 0.0
C506 C 0.58029 0.97484 0.6591 0.0
C507 C 0.60359 0.95378 0.6662 0.0
C508 C 0.61412 0.93242 0.64462 0.0
C509 C 0.60513 0.93659 0.61537 0.0
C510 C 0.58126 0.95726 0.6083 0.0
H511 H 0.43826 0.88335 0.63233 0.0
H512 H 0.48853 0.89414 0.61494 0.0
H513 H 0.4874 0.90126 0.65341 0.0
H514 H 0.56941 0.98802 0.67637 0.0
H515 H 0.60988 0.95078 0.6889 0.0
H516 H 0.55207 0.6756 0.71147 0.0
H517 H 0.52132 0.59645 0.71272 0.0
H518 H 0.5842 0.60209 0.63117 0.0
H519 H 0.61587 0.6818 0.62996 0.0
H520 H 0.46433 0.54015 0.67177 0.0
H521 H 0.61158 0.52227 0.68046 0.0
H522 H 0.61297 0.57325 0.68784 0.0
H523 H 0.61293 0.55637 0.65099 0.0
C524 C 0.56007 0.66017 0.69403 0.0
C525 C 0.58633 0.68492 0.67056 0.0
C526 C 0.54236 0.61491 0.69476 0.0
C527 C 0.55053 0.59343 0.67209 0.0
C528 C 0.57804 0.61813 0.64911 0.0
H529 H 0.39062 0.31557 0.63154 0.0
H530 H 0.42374 0.39539 0.63198 0.0
C531 C 0.59608 0.66364 0.64844 0.0
C532 C 0.52763 0.54499 0.67171 0.0
H533 H 0.54393 0.45745 0.67202 0.0
C534 C 0.4817 0.52201 0.67186 0.0
C535 C 0.55042 0.52154 0.67204 0.0
C536 C 0.59969 0.54452 0.67308 0.0
C537 C 0.45787 0.4761 0.67236 0.0
C538 C 0.48064 0.45263 0.67216 0.0
C539 C 0.52658 0.4756 0.67201 0.0
C540 C 0.45763 0.4042 0.67282 0.0
C541 C 0.40861 0.45319 0.67377 0.0
C542 C 0.46556 0.38278 0.69567 0.0
C543 C 0.44694 0.33736 0.69541 0.0
C544 C 0.42006 0.31246 0.67221 0.0
C545 C 0.41087 0.33382 0.64982 0.0
C546 C 0.42974 0.3794 0.65005 0.0
H547 H 0.3969 0.47557 0.68113 0.0
H548 H 0.39499 0.44106 0.6518 0.0
H549 H 0.39553 0.42466 0.68872 0.0
H550 H 0.48691 0.40133 0.71347 0.0
H551 H 0.45461 0.32191 0.71303 0.0
H552 H 0.11478 0.44385 0.05546 0.0
H553 H 0.06438 0.47201 0.06064 0.0
H554 H 0.01281 0.42396 0.97507 0.0
H555 H 0.06295 0.39551 0.96976 0.0
H556 H 0.06363 0.53497 0.02561 0.0
H557 H 0.90232 0.38263 0.02337 0.0
H558 H 0.95277 0.38253 0.02961 0.0
H559 H 0.93678 0.38733 0.99329 0.0
C560 C 0.09242 0.43889 0.03785 0.0
C561 C 0.0931 0.41778 0.0121 0.0
C562 C 0.0636 0.45492 0.04088 0.0
C563 C 0.03473 0.44987 0.01832 0.0
C564 C 0.03429 0.42753 0.99297 0.0
H565 H 0.9143 0.60543 0.97934 0.0
H566 H 0.96275 0.57458 0.98259 0.0
C567 C 0.06305 0.41137 0.98994 0.0
C568 C 0.00735 0.47068 0.02042 0.0
H569 H 0.90212 0.44968 0.01658 0.0
C570 C 0.02827 0.51632 0.02388 0.0
C571 C 0.96126 0.44621 0.01846 0.0
C572 C 0.93687 0.39692 0.01627 0.0
C573 C 0.00436 0.5383 0.02471 0.0
C574 C 0.95843 0.51402 0.02149 0.0
C575 C 0.93742 0.46827 0.01877 0.0
C576 C 0.93136 0.53528 0.02072 0.0
C577 C 0.02845 0.58722 0.02927 0.0
C578 C 0.89758 0.52326 0.04097 0.0
C579 C 0.8697 0.54054 0.03904 0.0
C580 C 0.87499 0.5701 0.01673 0.0
C581 C 0.90956 0.58297 -0.00312 0.0
C582 C 0.93737 0.5655 -0.00122 0.0
H583 H 0.06102 0.59885 0.03936 0.0
H584 H 0.03364 0.60377 0.00792 0.0
H585 H 0.00936 0.59727 0.04326 0.0
H586 H 0.89238 0.49994 0.05804 0.0
H587 H 0.84344 0.52997 0.05472 0.0
H588 H 0.32268 0.93661 0.30708 0.0
H589 H 0.40249 0.98199 0.30809 0.0
H590 H 0.40668 0.91722 0.38654 0.0
H591 H 0.32716 0.87156 0.38569 0.0
H592 H 0.46294 0.03844 0.35157 0.0
H593 H 0.48126 0.89411 0.32691 0.0
H594 H 0.4302 0.89361 0.32238 0.0
H595 H 0.44779 0.88799 0.35797 0.0
C596 C 0.3405 0.93257 0.32485 0.0
C597 C 0.31862 0.90017 0.34613 0.0
C598 C 0.38606 0.95841 0.32533 0.0
C599 C 0.41033 0.95212 0.34701 0.0
C600 C 0.38846 0.92184 0.3693 0.0
H601 H 0.68501 0.1141 0.38597 0.0
H602 H 0.60566 0.06758 0.38826 0.0
C603 C 0.34299 0.89603 0.36886 0.0
C604 C 0.45859 0.97585 0.34566 0.0
H605 H 0.54626 0.96065 0.33742 0.0
C606 C 0.48121 0.02153 0.34846 0.0
C607 C 0.48213 0.95357 0.34115 0.0
C608 C 0.45921 0.90465 0.33666 0.0
C609 C 0.52702 0.04556 0.34746 0.0
C610 C 0.55061 0.02314 0.34388 0.0
C611 C 0.52797 0.97756 0.34048 0.0
C612 C 0.59889 0.04683 0.34341 0.0
C613 C 0.54984 0.09481 0.3499 0.0
C614 C 0.62144 0.04858 0.31788 0.0
C615 C 0.66691 0.0752 0.31652 0.0
C616 C 0.69029 0.10037 0.34071 0.0
C617 C 0.66779 0.096 0.3668 0.0
C618 C 0.62247 0.06943 0.36815 0.0
H619 H 0.52715 0.10749 0.34581 0.0
H620 H 0.56326 0.10469 0.37217 0.0
H621 H 0.57748 0.11049 0.3343 0.0
H622 H 0.60368 0.03095 0.29864 0.0
H623 H 0.68337 0.07787 0.29611 0.0
H624 H 0.32345 0.14401 0.76232 0.0
H625 H 0.27456 0.15019 0.79704 0.0
H626 H 0.19494 0.1517 0.72643 0.0
H627 H 0.24303 0.14452 0.69157 0.0
H628 H 0.26996 0.22448 0.79506 0.0
H629 H 0.10292 0.08072 0.78753 0.0
H630 H 0.15069 0.07988 0.7743 0.0
H631 H 0.126 0.10443 0.75287 0.0
C632 C 0.2947 0.14412 0.7542 0.0
C633 C 0.28741 0.14434 0.72419 0.0
C634 C 0.26678 0.14764 0.77409 0.0
C635 C 0.23113 0.15141 0.76432 0.0
C636 C 0.22178 0.14808 0.73449 0.0
H637 H 0.14477 0.31434 0.84753 0.0
H638 H 0.16476 0.27597 0.81138 0.0
C639 C 0.24953 0.14424 0.71456 0.0
C640 C 0.20896 0.16663 0.78456 0.0
H641 H 0.1094 0.14488 0.81048 0.0
C642 C 0.23489 0.20681 0.79863 0.0
C643 C 0.16322 0.1436 0.78909 0.0
C644 C 0.13409 0.09955 0.77537 0.0
C645 C 0.21637 0.22495 0.8168 0.0
C646 C 0.17053 0.20274 0.82056 0.0
C647 C 0.14448 0.1621 0.80705 0.0
C648 C 0.14995 0.22105 0.83954 0.0
C649 C 0.2461 0.26766 0.83204 0.0
C650 C 0.1331 0.2017 0.86661 0.0
C651 C 0.12186 0.22359 0.8871 0.0
C652 C 0.12743 0.26501 0.88072 0.0
C653 C 0.14097 0.28271 0.85285 0.0
C654 C 0.15218 0.26082 0.83232 0.0
H655 H 0.28078 0.27564 0.83167 0.0
H656 H 0.24407 0.29457 0.82098 0.0
H657 H 0.23594 0.26655 0.85502 0.0
H658 H 0.13124 0.17106 0.87252 0.0
H659 H 0.11146 0.20956 0.90856 0.0
H660 H 0.92172 0.11281 0.24744 0.0
H661 H 0.97731 0.12577 0.21054 0.0
H662 H 0.90682 0.15794 0.1479 0.0
H663 H 0.85113 0.14468 0.18482 0.0
H664 H 0.96273 0.09986 0.13484 0.0
H665 H 0.04167 0.26901 0.18061 0.0
H666 H 0.01239 0.22156 0.20359 0.0
H667 H 0.98284 0.23661 0.17892 0.0
C668 C 0.91763 0.12132 0.2255 0.0
C669 C 0.88298 0.12856 0.21878 0.0
C670 C 0.9491 0.12851 0.20453 0.0
C671 C 0.94586 0.14265 0.17666 0.0
C672 C 0.90947 0.14668 0.16932 0.0
H673 H 0.08131 0.24797 0.02112 0.0
H674 H 0.03413 0.1957 0.0577 0.0
C675 C 0.87808 0.13957 0.19032 0.0
C676 C 0.98379 0.16091 0.15704 0.0
H677 H 0.07178 0.25851 0.13828 0.0
C678 C 0.98708 0.13438 0.13568 0.0
C679 C 0.01553 0.20572 0.15868 0.0
C680 C 0.01334 0.23515 0.18165 0.0
C681 C 0.02092 0.15223 0.11501 0.0
C682 C 0.05127 0.19774 0.11557 0.0
C683 C 0.04875 0.22359 0.13787 0.0
C684 C 0.08292 0.22081 0.09185 0.0
C685 C 0.02354 0.12228 0.09274 0.0
C686 C 0.12644 0.25181 0.09858 0.0
C687 C 0.15305 0.28259 0.07791 0.0
C688 C 0.13676 0.28239 0.05004 0.0
C689 C 0.09474 0.24875 0.04243 0.0
C690 C 0.06781 0.21851 0.0633 0.0
H691 H 0.01052 0.08873 0.10164 0.0
H692 H 0.0032 0.11985 0.07366 0.0
H693 H 0.05765 0.13466 0.0853 0.0
H694 H 0.13879 0.25418 0.12047 0.0
H695 H 0.18551 0.30797 0.08423 0.0
H696 H 0.76761 0.84712 0.53108 0.0
H697 H 0.81211 0.89944 0.49274 0.0
H698 H 0.80882 0.00336 0.54016 0.0
H699 H 0.76552 0.95157 0.57831 0.0
H700 H 0.78257 0.94468 0.46032 0.0
H701 H 0.93579 0.06243 0.51505 0.0
H702 H 0.89928 0.00867 0.52973 0.0
H703 H 0.88915 0.05329 0.53599 0.0
C704 C 0.7772 0.88133 0.53331 0.0
C705 C 0.76258 0.89544 0.55708 0.0
C706 C 0.80257 0.9111 0.51159 0.0
C707 C 0.8143 0.9554 0.51383 0.0
C708 C 0.80103 0.9696 0.53826 0.0
H709 H 0.85216 0.17418 0.42645 0.0
H710 H 0.85459 0.12153 0.45968 0.0
C711 C 0.77563 0.93993 0.55975 0.0
C712 C 0.83507 0.98595 0.48922 0.0
H713 H 0.91344 0.09126 0.47429 0.0
C714 C 0.81196 0.97626 0.46295 0.0
C715 C 0.87342 0.02706 0.49278 0.0
C716 C 0.90105 0.03827 0.51985 0.0
C717 C 0.82379 0.00802 0.44116 0.0
C718 C 0.86032 0.05028 0.44562 0.0
C719 C 0.88538 0.05891 0.47099 0.0
C720 C 0.8687 0.08718 0.42626 0.0
C721 C 0.79498 0.99713 0.41462 0.0
C722 C 0.8781 0.08667 0.3967 0.0
C723 C 0.87638 0.11656 0.37755 0.0
C724 C 0.86558 0.14759 0.38778 0.0
C725 C 0.86027 0.15053 0.41782 0.0
C726 C 0.86174 0.1205 0.43688 0.0
H727 H 0.7643 0.96513 0.41672 0.0
H728 H 0.78626 0.0229 0.41065 0.0
H729 H 0.81292 0.99551 0.3953 0.0
H730 H 0.88437 0.06167 0.38821 0.0
H731 H 0.88114 0.11377 0.35456 0.0
H732 H 0.67072 0.84434 0.76177 0.0
H733 H 0.7235 0.84598 0.79667 0.0
H734 H 0.81514 0.87081 0.72727 0.0
H735 H 0.76242 0.86901 0.69207 0.0
H736 H 0.79338 0.79617 0.75847 0.0
H737 H 0.83969 0.93451 0.83376 0.0
H738 H 0.78169 0.90348 0.82811 0.0
H739 H 0.81723 0.93227 0.79806 0.0
C740 C 0.70257 0.85148 0.75398 0.0
C741 C 0.71218 0.85607 0.72411 0.0
C742 C 0.73289 0.85274 0.77402 0.0
C743 C 0.77339 0.85888 0.76457 0.0
C744 C 0.78418 0.86634 0.73499 0.0
H745 H 0.90603 0.7527 0.87324 0.0
H746 H 0.90024 0.79716 0.83397 0.0
C747 C 0.75394 0.86522 0.71493 0.0
C748 C 0.80054 0.84985 0.78477 0.0
H749 H 0.84315 0.87222 0.85323 0.0
C750 C 0.80545 0.81349 0.77889 0.0
C751 C 0.81623 0.87258 0.81128 0.0
C752 C 0.81384 0.91317 0.81806 0.0
C753 C 0.82201 0.79678 0.79989 0.0
C754 C 0.83491 0.81774 0.82725 0.0
C755 C 0.83312 0.85613 0.83226 0.0
C756 C 0.84331 0.79645 0.8522 0.0
C757 C 0.82214 0.75485 0.79344 0.0
C758 C 0.81465 0.78325 0.87597 0.0
C759 C 0.81824 0.7585 0.89824 0.0
C760 C 0.85019 0.74598 0.89702 0.0
C761 C 0.88059 0.7613 0.87417 0.0
C762 C 0.87718 0.78643 0.85181 0.0
H763 H 0.80463 0.73924 0.77294 0.0
H764 H 0.85638 0.76199 0.79126 0.0
H765 H 0.80661 0.73102 0.81146 0.0
H766 H 0.78855 0.79095 0.87687 0.0
H767 H 0.79573 0.74877 0.91633 0.0
H768 H 0.09036 0.88392 0.24699 0.0
H769 H 0.03107 0.86481 0.21194 0.0
H770 H 0.09954 0.83064 0.14894 0.0
H771 H 0.15898 0.85006 0.18409 0.0
H772 H 0.02509 0.88657 0.14935 0.0
H773 H 0.98323 0.7149 0.17205 0.0
H774 H 0.01986 0.7602 0.19481 0.0
H775 H 0.03858 0.75111 0.16063 0.0
C776 C 0.09316 0.87358 0.22533 0.0
C777 C 0.12846 0.86759 0.21814 0.0
C778 C 0.05947 0.86274 0.2054 0.0
C779 C 0.06088 0.84589 0.1781 0.0
C780 C 0.09789 0.84332 0.17006 0.0
H781 H 0.88867 0.75113 0.03236 0.0
H782 H 0.9442 0.79982 0.06681 0.0
C783 C 0.13156 0.85416 0.19003 0.0
C784 C 0.02128 0.82524 0.15986 0.0
H785 H 0.94204 0.72541 0.13593 0.0
C786 C 0.00673 0.85136 0.14637 0.0
C787 C 0.99706 0.77926 0.15672 0.0
C788 C 0.01011 0.74955 0.17198 0.0
C789 C 0.96896 0.83251 0.12895 0.0
C790 C 0.9457 0.7866 0.12496 0.0
C791 C 0.95985 0.76061 0.1391 0.0
C792 C 0.90805 0.76428 0.10499 0.0
C793 C 0.95417 0.86173 0.11516 0.0
C794 C 0.86875 0.7288 0.11505 0.0
C795 C 0.83717 0.70048 0.09539 0.0
C796 C 0.84445 0.70725 0.06532 0.0
C797 C 0.8821 0.745 0.05539 0.0
C798 C 0.91382 0.77313 0.07509 0.0
H799 H 0.96686 0.8931 0.12717 0.0
H800 H 0.96687 0.86952 0.09259 0.0
H801 H 0.91794 0.84532 0.11429 0.0
H802 H 0.86374 0.72141 0.13807 0.0
H803 H 0.80839 0.67185 0.10373 0.0
H804 H 0.24351 0.05017 0.57415 0.0
H805 H 0.20113 0.00134 0.5345 0.0
H806 H 0.19697 0.10816 0.49171 0.0
H807 H 0.24112 0.15772 0.53129 0.0
H808 H 0.11869 0.97773 0.51006 0.0
H809 H 0.25575 0.06784 0.43169 0.0
H810 H 0.26334 0.07691 0.47035 0.0
H811 H 0.23466 0.09833 0.45014 0.0
C812 C 0.23408 0.06331 0.55608 0.0
C813 C 0.24693 0.10791 0.55503 0.0
C814 C 0.20927 0.03531 0.53371 0.0
C815 C 0.19652 0.0513 0.50997 0.0
C816 C 0.20716 0.09539 0.50963 0.0
H817 H 0.13419 0.8964 0.35155 0.0
H818 H 0.12957 0.94873 0.38409 0.0
C819 C 0.23218 0.12355 0.53213 0.0
C820 C 0.17521 0.02198 0.48492 0.0
H821 H 0.19874 -0.00019 0.41738 0.0
C822 C 0.13561 0.98291 0.48949 0.0
C823 C 0.1972 0.02901 0.45805 0.0
C824 C 0.2402 0.07011 0.45211 0.0
C825 C 0.11892 0.94942 0.46862 0.0
C826 C 0.14286 0.95505 0.4428 0.0
C827 C 0.18046 0.99552 0.43723 0.0
C828 C 0.13415 0.91788 0.42356 0.0
C829 C 0.07674 0.90776 0.47491 0.0
C830 C 0.13674 0.88231 0.43498 0.0
C831 C 0.13941 0.85237 0.41649 0.0
C832 C 0.14001 0.85775 0.3862 0.0
C833 C 0.13403 0.89145 0.3748 0.0
C834 C 0.13132 0.92138 0.39335 0.0
H835 H 0.05477 0.9144 0.48859 0.0
H836 H 0.0593 0.89132 0.45458 0.0
H837 H 0.08402 0.88503 0.48717 0.0
H838 H 0.13999 0.87943 0.45817 0.0
H839 H 0.1439 0.82677 0.42598 0.0
loop_
_geom_bond_atom_site_label_1
_geom_bond_atom_site_label_2
_geom_bond_distance
_geom_bond_site_symmetry_2
_ccdc_geom_bond_type
Zn0 O1 2.055 . S
Zn0 O8 2.046 1_554 S
Zn0 N16 2.036 . S
Zn0 O28 2.053 . S
Zn0 O30 2.066 . S
O1 Zn0 2.055 . S
O1 C4 1.259 1_554 S
C2 O30 1.256 . S
C2 O31 1.244 . S
Zn3 O5 2.046 . S
Zn3 O7 2.055 . S
Zn3 N9 2.036 . S
Zn3 O27 2.066 . S
Zn3 O31 2.053 1_556 S
C4 O1 1.259 1_556 S
C4 O5 1.254 . S
O5 Zn3 2.046 . S
O5 C4 1.254 . S
C6 O27 1.256 1_554 S
C6 O28 1.244 . S
O7 Zn3 2.055 . S
O7 C29 1.259 . S
O8 Zn0 2.046 1_556 S
O8 C29 1.254 . S
N9 Zn3 2.036 . S
N9 C10 1.298 . S
N9 N12 1.398 . S
C10 N9 1.298 . S
C10 N13 1.367 . S
C10 C23 1.481 . S
C11 N12 1.299 . S
C11 N13 1.379 . S
N12 N9 1.398 . S
N12 C11 1.299 . S
N13 C10 1.367 . S
N13 C11 1.379 . S
C14 N16 1.298 . S
C14 N18 1.367 . S
C14 C22 1.481 . S
C15 N17 1.299 . S
C15 N18 1.379 . S
N16 Zn0 2.036 . S
N16 C14 1.298 . S
N16 N17 1.398 . S
N17 C15 1.299 . S
N17 N16 1.398 . S
N18 C14 1.367 . S
N18 C15 1.379 . S
H19 C22 0.980 . S
H20 C22 0.981 . S
H21 C22 0.981 . S
C22 C14 1.481 . S
C22 H19 0.980 . S
C22 H20 0.981 . S
C22 H21 0.981 . S
C23 C10 1.481 . S
C23 H24 0.980 . S
C23 H25 0.981 . S
C23 H26 0.981 . S
H24 C23 0.980 . S
H25 C23 0.981 . S
H26 C23 0.981 . S
O27 Zn3 2.066 . S
O27 C6 1.256 1_556 S
O28 Zn0 2.053 . S
O28 C6 1.244 . S
C29 O7 1.259 . S
C29 O8 1.254 . S
O30 Zn0 2.066 . S
O30 C2 1.256 . S
O31 C2 1.244 . S
O31 Zn3 2.053 1_554 S
Zn32 O33 2.055 . S
Zn32 O40 2.046 . S
Zn32 N48 2.036 . S
Zn32 O60 2.053 . S
Zn32 O62 2.066 . S
O33 Zn32 2.055 . S
O33 C36 1.259 . S
C34 O62 1.256 . S
C34 O63 1.244 . S
Zn35 O37 2.046 . S
Zn35 O39 2.055 . S
Zn35 N41 2.036 . S
Zn35 O59 2.066 . S
Zn35 O63 2.053 . S
C36 O33 1.259 . S
C36 O37 1.254 . S
O37 Zn35 2.046 . S
O37 C36 1.254 . S
C38 O59 1.256 . S
C38 O60 1.244 . S
O39 Zn35 2.055 . S
O39 C61 1.259 . S
O40 Zn32 2.046 . S
O40 C61 1.254 . S
N41 Zn35 2.036 . S
N41 C42 1.298 . S
N41 N44 1.398 . S
C42 N41 1.298 . S
C42 N45 1.367 . S
C42 C55 1.481 . S
C43 N44 1.299 . S
C43 N45 1.379 . S
N44 N41 1.398 . S
N44 C43 1.299 . S
N45 C42 1.367 . S
N45 C43 1.379 . S
C46 N48 1.298 . S
C46 N50 1.367 . S
C46 C54 1.481 . S
C47 N49 1.299 . S
C47 N50 1.379 . S
N48 Zn32 2.036 . S
N48 C46 1.298 . S
N48 N49 1.398 . S
N49 C47 1.299 . S
N49 N48 1.398 . S
N50 C46 1.367 . S
N50 C47 1.379 . S
H51 C54 0.980 . S
H52 C54 0.981 . S
H53 C54 0.981 . S
C54 C46 1.481 . S
C54 H51 0.980 . S
C54 H52 0.981 . S
C54 H53 0.981 . S
C55 C42 1.481 . S
C55 H56 0.980 . S
C55 H57 0.981 . S
C55 H58 0.981 . S
H56 C55 0.980 . S
H57 C55 0.981 . S
H58 C55 0.981 . S
O59 Zn35 2.066 . S
O59 C38 1.256 . S
O60 Zn32 2.053 . S
O60 C38 1.244 . S
C61 O39 1.259 . S
C61 O40 1.254 . S
O62 Zn32 2.066 . S
O62 C34 1.256 . S
O63 C34 1.244 . S
O63 Zn35 2.053 . S
Zn64 O65 2.055 . S
Zn64 O72 2.046 . S
Zn64 N80 2.036 . S
Zn64 O92 2.053 . S
Zn64 O94 2.066 . S
O65 Zn64 2.055 . S
O65 C68 1.259 . S
C66 O94 1.256 . S
C66 O95 1.244 . S
Zn67 O69 2.046 . S
Zn67 O71 2.055 . S
Zn67 N73 2.036 . S
Zn67 O91 2.066 . S
Zn67 O95 2.053 . S
C68 O65 1.259 . S
C68 O69 1.254 . S
O69 Zn67 2.046 . S
O69 C68 1.254 . S
C70 O91 1.256 . S
C70 O92 1.244 . S
O71 Zn67 2.055 . S
O71 C93 1.259 . S
O72 Zn64 2.046 . S
O72 C93 1.254 . S
N73 Zn67 2.036 . S
N73 C74 1.298 . S
N73 N76 1.398 . S
C74 N73 1.298 . S
C74 N77 1.367 . S
C74 C87 1.481 . S
C75 N76 1.299 . S
C75 N77 1.379 . S
N76 N73 1.398 . S
N76 C75 1.299 . S
N77 C74 1.367 . S
N77 C75 1.379 . S
C78 N80 1.298 . S
C78 N82 1.367 . S
C78 C86 1.481 . S
C79 N81 1.299 . S
C79 N82 1.379 . S
N80 Zn64 2.036 . S
N80 C78 1.298 . S
N80 N81 1.398 . S
N81 C79 1.299 . S
N81 N80 1.398 . S
N82 C78 1.367 . S
N82 C79 1.379 . S
H83 C86 0.980 . S
H84 C86 0.981 . S
H85 C86 0.981 . S
C86 C78 1.481 . S
C86 H83 0.980 . S
C86 H84 0.981 . S
C86 H85 0.981 . S
C87 C74 1.481 . S
C87 H88 0.980 . S
C87 H89 0.981 . S
C87 H90 0.981 . S
H88 C87 0.980 . S
H89 C87 0.981 . S
H90 C87 0.981 . S
O91 Zn67 2.066 . S
O91 C70 1.256 . S
O92 Zn64 2.053 . S
O92 C70 1.244 . S
C93 O71 1.259 . S
C93 O72 1.254 . S
O94 Zn64 2.066 . S
O94 C66 1.256 . S
O95 C66 1.244 . S
O95 Zn67 2.053 . S
Zn96 O97 2.055 . S
Zn96 O104 2.046 1_554 S
Zn96 N112 2.036 . S
Zn96 O124 2.053 . S
Zn96 O126 2.066 . S
O97 Zn96 2.055 . S
O97 C100 1.259 1_554 S
C98 O126 1.256 . S
C98 O127 1.244 . S
Zn99 O101 2.046 . S
Zn99 O103 2.055 . S
Zn99 N105 2.036 . S
Zn99 O123 2.066 . S
Zn99 O127 2.053 1_556 S
C100 O97 1.259 1_556 S
C100 O101 1.254 . S
O101 Zn99 2.046 . S
O101 C100 1.254 . S
C102 O123 1.256 1_554 S
C102 O124 1.244 . S
O103 Zn99 2.055 . S
O103 C125 1.259 . S
O104 Zn96 2.046 1_556 S
O104 C125 1.254 . S
N105 Zn99 2.036 . S
N105 C106 1.298 . S
N105 N108 1.398 . S
C106 N105 1.298 . S
C106 N109 1.367 . S
C106 C119 1.481 . S
C107 N108 1.299 . S
C107 N109 1.379 . S
N108 N105 1.398 . S
N108 C107 1.299 . S
N109 C106 1.367 . S
N109 C107 1.379 . S
C110 N112 1.298 . S
C110 N114 1.367 . S
C110 C118 1.481 . S
C111 N113 1.299 . S
C111 N114 1.379 . S
N112 Zn96 2.036 . S
N112 C110 1.298 . S
N112 N113 1.398 . S
N113 C111 1.299 . S
N113 N112 1.398 . S
N114 C110 1.367 . S
N114 C111 1.379 . S
H115 C118 0.980 . S
H116 C118 0.981 . S
H117 C118 0.981 . S
C118 C110 1.481 . S
C118 H115 0.980 . S
C118 H116 0.981 . S
C118 H117 0.981 . S
C119 C106 1.481 . S
C119 H120 0.980 . S
C119 H121 0.981 . S
C119 H122 0.981 . S
H120 C119 0.980 . S
H121 C119 0.981 . S
H122 C119 0.981 . S
O123 Zn99 2.066 . S
O123 C102 1.256 1_556 S
O124 Zn96 2.053 . S
O124 C102 1.244 . S
C125 O103 1.259 . S
C125 O104 1.254 . S
O126 Zn96 2.066 . S
O126 C98 1.256 . S
O127 C98 1.244 . S
O127 Zn99 2.053 1_554 S
Zn128 O129 2.055 . S
Zn128 O136 2.046 . S
Zn128 N144 2.036 . S
Zn128 O156 2.053 . S
Zn128 O158 2.066 . S
O129 Zn128 2.055 . S
O129 C132 1.259 . S
C130 O158 1.256 . S
C130 O159 1.244 . S
Zn131 O133 2.046 . S
Zn131 O135 2.055 . S
Zn131 N137 2.036 . S
Zn131 O155 2.066 . S
Zn131 O159 2.053 . S
C132 O129 1.259 . S
C132 O133 1.254 . S
O133 Zn131 2.046 . S
O133 C132 1.254 . S
C134 O155 1.256 . S
C134 O156 1.244 . S
O135 Zn131 2.055 . S
O135 C157 1.259 . S
O136 Zn128 2.046 . S
O136 C157 1.254 . S
N137 Zn131 2.036 . S
N137 C138 1.298 . S
N137 N140 1.398 . S
C138 N137 1.298 . S
C138 N141 1.367 . S
C138 C151 1.481 . S
C139 N140 1.299 . S
C139 N141 1.379 . S
N140 N137 1.398 . S
N140 C139 1.299 . S
N141 C138 1.367 . S
N141 C139 1.379 . S
C142 N144 1.298 . S
C142 N146 1.367 . S
C142 C150 1.481 . S
C143 N145 1.299 . S
C143 N146 1.379 . S
N144 Zn128 2.036 . S
N144 C142 1.298 . S
N144 N145 1.398 . S
N145 C143 1.299 . S
N145 N144 1.398 . S
N146 C142 1.367 . S
N146 C143 1.379 . S
H147 C150 0.980 . S
H148 C150 0.981 . S
H149 C150 0.981 . S
C150 C142 1.481 . S
C150 H147 0.980 . S
C150 H148 0.981 . S
C150 H149 0.981 . S
C151 C138 1.481 . S
C151 H152 0.980 . S
C151 H153 0.981 . S
C151 H154 0.981 . S
H152 C151 0.980 . S
H153 C151 0.981 . S
H154 C151 0.981 . S
O155 Zn131 2.066 . S
O155 C134 1.256 . S
O156 Zn128 2.053 . S
O156 C134 1.244 . S
C157 O135 1.259 . S
C157 O136 1.254 . S
O158 Zn128 2.066 . S
O158 C130 1.256 . S
O159 C130 1.244 . S
O159 Zn131 2.053 . S
Zn160 O161 2.055 . S
Zn160 O168 2.046 . S
Zn160 N176 2.036 . S
Zn160 O188 2.053 . S
Zn160 O190 2.066 . S
O161 Zn160 2.055 . S
O161 C164 1.259 . S
C162 O190 1.256 . S
C162 O191 1.244 . S
Zn163 O165 2.046 . S
Zn163 O167 2.055 . S
Zn163 N169 2.036 . S
Zn163 O187 2.066 . S
Zn163 O191 2.053 . S
C164 O161 1.259 . S
C164 O165 1.254 . S
O165 Zn163 2.046 . S
O165 C164 1.254 . S
C166 O187 1.256 . S
C166 O188 1.244 . S
O167 Zn163 2.055 . S
O167 C189 1.259 . S
O168 Zn160 2.046 . S
O168 C189 1.254 . S
N169 Zn163 2.036 . S
N169 C170 1.298 . S
N169 N172 1.398 . S
C170 N169 1.298 . S
C170 N173 1.367 . S
C170 C183 1.481 . S
C171 N172 1.299 . S
C171 N173 1.379 . S
N172 N169 1.398 . S
N172 C171 1.299 . S
N173 C170 1.367 . S
N173 C171 1.379 . S
C174 N176 1.298 . S
C174 N178 1.367 . S
C174 C182 1.481 . S
C175 N177 1.299 . S
C175 N178 1.379 . S
N176 Zn160 2.036 . S
N176 C174 1.298 . S
N176 N177 1.398 . S
N177 C175 1.299 . S
N177 N176 1.398 . S
N178 C174 1.367 . S
N178 C175 1.379 . S
H179 C182 0.980 . S
H180 C182 0.981 . S
H181 C182 0.981 . S
C182 C174 1.481 . S
C182 H179 0.980 . S
C182 H180 0.981 . S
C182 H181 0.981 . S
C183 C170 1.481 . S
C183 H184 0.980 . S
C183 H185 0.981 . S
C183 H186 0.981 . S
H184 C183 0.980 . S
H185 C183 0.981 . S
H186 C183 0.981 . S
O187 Zn163 2.066 . S
O187 C166 1.256 . S
O188 Zn160 2.053 . S
O188 C166 1.244 . S
C189 O167 1.259 . S
C189 O168 1.254 . S
O190 Zn160 2.066 . S
O190 C162 1.256 . S
O191 C162 1.244 . S
O191 Zn163 2.053 . S
H192 C200 0.929 . S
H193 C202 0.930 . S
H194 C204 0.930 . S
H195 C207 0.929 . S
H196 C210 0.930 . S
H197 C212 0.960 . S
H198 C212 0.960 . S
H199 C212 0.960 . S
C200 H192 0.929 . S
C200 C201 1.377 . S
C200 C202 1.384 . S
C201 C200 1.377 . S
C201 C207 1.390 . S
C202 H193 0.930 . S
C202 C200 1.384 . S
C202 C203 1.372 . S
C203 C202 1.372 . S
C203 C204 1.400 . S
C203 C208 1.490 . S
C204 H194 0.930 . S
C204 C203 1.400 . S
C204 C207 1.386 . S
H205 C221 0.930 . S
H206 C222 0.931 . S
C207 H195 0.929 . S
C207 C201 1.390 . S
C207 C204 1.386 . S
C208 C203 1.490 . S
C208 C210 1.395 . S
C208 C211 1.403 . S
H209 C215 0.930 . S
C210 H196 0.930 . S
C210 C208 1.395 . S
C210 C213 1.403 . S
C211 C208 1.403 . S
C211 C212 1.524 . S
C211 C215 1.400 . S
C212 H197 0.960 . S
C212 H198 0.960 . S
C212 H199 0.960 . S
C212 C211 1.524 . S
C213 C210 1.403 . S
C213 C214 1.392 . S
C213 C217 1.495 . S
C214 C213 1.392 . S
C214 C215 1.385 . S
C214 C216 1.478 . S
C215 H209 0.930 . S
C215 C211 1.400 . S
C215 C214 1.385 . S
C216 C214 1.478 . S
C216 C218 1.381 . S
C216 C222 1.383 . S
C217 C213 1.495 . S
C217 H223 0.959 . S
C217 H224 0.961 . S
C217 H225 0.960 . S
C218 C216 1.381 . S
C218 C219 1.394 . S
C218 H226 0.930 . S
C219 C218 1.394 . S
C219 C220 1.383 . S
C219 H227 0.929 . S
C220 C219 1.383 . S
C220 C221 1.377 . S
C221 H205 0.930 . S
C221 C220 1.377 . S
C221 C222 1.379 . S
C222 H206 0.931 . S
C222 C216 1.383 . S
C222 C221 1.379 . S
H223 C217 0.959 . S
H224 C217 0.961 . S
H225 C217 0.960 . S
H226 C218 0.930 . S
H227 C219 0.929 . S
H228 C236 0.929 . S
H229 C238 0.930 . S
H230 C240 0.930 . S
H231 C243 0.929 . S
H232 C246 0.930 . S
H233 C248 0.960 . S
H234 C248 0.960 . S
H235 C248 0.960 . S
C236 H228 0.929 . S
C236 C237 1.377 . S
C236 C238 1.384 . S
C237 C236 1.377 . S
C237 C243 1.390 . S
C238 H229 0.930 . S
C238 C236 1.384 . S
C238 C239 1.372 . S
C239 C238 1.372 . S
C239 C240 1.400 . S
C239 C244 1.490 . S
C240 H230 0.930 . S
C240 C239 1.400 . S
C240 C243 1.386 . S
H241 C257 0.930 . S
H242 C258 0.931 . S
C243 H231 0.929 . S
C243 C237 1.390 . S
C243 C240 1.386 . S
C244 C239 1.490 . S
C244 C246 1.395 . S
C244 C247 1.403 . S
H245 C251 0.930 . S
C246 H232 0.930 . S
C246 C244 1.395 . S
C246 C249 1.403 . S
C247 C244 1.403 . S
C247 C248 1.524 . S
C247 C251 1.400 . S
C248 H233 0.960 . S
C248 H234 0.960 . S
C248 H235 0.960 . S
C248 C247 1.524 . S
C249 C246 1.403 . S
C249 C250 1.392 . S
C249 C253 1.495 . S
C250 C249 1.392 . S
C250 C251 1.385 . S
C250 C252 1.478 . S
C251 H245 0.930 . S
C251 C247 1.400 . S
C251 C250 1.385 . S
C252 C250 1.478 . S
C252 C254 1.381 . S
C252 C258 1.383 . S
C253 C249 1.495 . S
C253 H259 0.959 . S
C253 H260 0.961 . S
C253 H261 0.960 . S
C254 C252 1.381 . S
C254 C255 1.394 . S
C254 H262 0.930 . S
C255 C254 1.394 . S
C255 C256 1.383 . S
C255 H263 0.929 . S
C256 C255 1.383 . S
C256 C257 1.377 . S
C257 H241 0.930 . S
C257 C256 1.377 . S
C257 C258 1.379 . S
C258 H242 0.931 . S
C258 C252 1.383 . S
C258 C257 1.379 . S
H259 C253 0.959 . S
H260 C253 0.961 . S
H261 C253 0.960 . S
H262 C254 0.930 . S
H263 C255 0.929 . S
H264 C272 0.929 . S
H265 C274 0.930 . S
H266 C276 0.930 . S
H267 C279 0.929 . S
H268 C282 0.930 . S
H269 C284 0.960 . S
H270 C284 0.960 . S
H271 C284 0.960 . S
C272 H264 0.929 . S
C272 C273 1.377 . S
C272 C274 1.384 . S
C273 C272 1.377 . S
C273 C279 1.390 . S
C274 H265 0.930 . S
C274 C272 1.384 . S
C274 C275 1.372 . S
C275 C274 1.372 . S
C275 C276 1.400 . S
C275 C280 1.490 . S
C276 H266 0.930 . S
C276 C275 1.400 . S
C276 C279 1.386 . S
H277 C293 0.930 . S
H278 C294 0.931 . S
C279 H267 0.929 . S
C279 C273 1.390 . S
C279 C276 1.386 . S
C280 C275 1.490 . S
C280 C282 1.395 . S
C280 C283 1.403 . S
H281 C287 0.930 . S
C282 H268 0.930 . S
C282 C280 1.395 . S
C282 C285 1.403 . S
C283 C280 1.403 . S
C283 C284 1.524 . S
C283 C287 1.400 . S
C284 H269 0.960 . S
C284 H270 0.960 . S
C284 H271 0.960 . S
C284 C283 1.524 . S
C285 C282 1.403 . S
C285 C286 1.392 . S
C285 C289 1.495 . S
C286 C285 1.392 . S
C286 C287 1.385 . S
C286 C288 1.478 . S
C287 H281 0.930 . S
C287 C283 1.400 . S
C287 C286 1.385 . S
C288 C286 1.478 . S
C288 C290 1.381 . S
C288 C294 1.383 . S
C289 C285 1.495 . S
C289 H295 0.959 . S
C289 H296 0.961 . S
C289 H297 0.960 . S
C290 C288 1.381 . S
C290 C291 1.394 . S
C290 H298 0.930 . S
C291 C290 1.394 . S
C291 C292 1.383 . S
C291 H299 0.929 . S
C292 C291 1.383 . S
C292 C293 1.377 . S
C293 H277 0.930 . S
C293 C292 1.377 . S
C293 C294 1.379 . S
C294 H278 0.931 . S
C294 C288 1.383 . S
C294 C293 1.379 . S
H295 C289 0.959 . S
H296 C289 0.961 . S
H297 C289 0.960 . S
H298 C290 0.930 . S
H299 C291 0.929 . S
H300 C308 0.929 . S
H301 C310 0.930 . S
H302 C312 0.930 . S
H303 C315 0.929 . S
H304 C318 0.930 . S
H305 C320 0.960 . S
H306 C320 0.960 . S
H307 C320 0.960 . S
C308 H300 0.929 . S
C308 C309 1.377 . S
C308 C310 1.384 . S
C309 C308 1.377 . S
C309 C315 1.390 . S
C310 H301 0.930 . S
C310 C308 1.384 . S
C310 C311 1.372 . S
C311 C310 1.372 . S
C311 C312 1.400 . S
C311 C316 1.490 . S
C312 H302 0.930 . S
C312 C311 1.400 . S
C312 C315 1.386 . S
H313 C329 0.930 . S
H314 C330 0.931 . S
C315 H303 0.929 . S
C315 C309 1.390 . S
C315 C312 1.386 . S
C316 C311 1.490 . S
C316 C318 1.395 . S
C316 C319 1.403 . S
H317 C323 0.930 . S
C318 H304 0.930 . S
C318 C316 1.395 . S
C318 C321 1.403 . S
C319 C316 1.403 . S
C319 C320 1.524 . S
C319 C323 1.400 . S
C320 H305 0.960 . S
C320 H306 0.960 . S
C320 H307 0.960 . S
C320 C319 1.524 . S
C321 C318 1.403 . S
C321 C322 1.392 . S
C321 C325 1.495 . S
C322 C321 1.392 . S
C322 C323 1.385 . S
C322 C324 1.478 . S
C323 H317 0.930 . S
C323 C319 1.400 . S
C323 C322 1.385 . S
C324 C322 1.478 . S
C324 C326 1.381 . S
C324 C330 1.383 . S
C325 C321 1.495 . S
C325 H331 0.959 . S
C325 H332 0.961 . S
C325 H333 0.960 . S
C326 C324 1.381 . S
C326 C327 1.394 . S
C326 H334 0.930 . S
C327 C326 1.394 . S
C327 C328 1.383 . S
C327 H335 0.929 . S
C328 C327 1.383 . S
C328 C329 1.377 . S
C329 H313 0.930 . S
C329 C328 1.377 . S
C329 C330 1.379 . S
C330 H314 0.931 . S
C330 C324 1.383 . S
C330 C329 1.379 . S
H331 C325 0.959 . S
H332 C325 0.961 . S
H333 C325 0.960 . S
H334 C326 0.930 . S
H335 C327 0.929 . S
H336 C344 0.929 . S
H337 C346 0.930 . S
H338 C348 0.930 . S
H339 C351 0.929 . S
H340 C354 0.930 . S
H341 C356 0.960 . S
H342 C356 0.960 . S
H343 C356 0.960 . S
C344 H336 0.929 . S
C344 C345 1.377 . S
C344 C346 1.384 . S
C345 C344 1.377 . S
C345 C351 1.390 . S
C346 H337 0.930 . S
C346 C344 1.384 . S
C346 C347 1.372 . S
C347 C346 1.372 . S
C347 C348 1.400 . S
C347 C352 1.490 . S
C348 H338 0.930 . S
C348 C347 1.400 . S
C348 C351 1.386 . S
H349 C365 0.930 . S
H350 C366 0.931 . S
C351 H339 0.929 . S
C351 C345 1.390 . S
C351 C348 1.386 . S
C352 C347 1.490 . S
C352 C354 1.395 . S
C352 C355 1.403 . S
H353 C359 0.930 . S
C354 H340 0.930 . S
C354 C352 1.395 . S
C354 C357 1.403 . S
C355 C352 1.403 . S
C355 C356 1.524 . S
C355 C359 1.400 . S
C356 H341 0.960 . S
C356 H342 0.960 . S
C356 H343 0.960 . S
C356 C355 1.524 . S
C357 C354 1.403 . S
C357 C358 1.392 . S
C357 C361 1.495 . S
C358 C357 1.392 . S
C358 C359 1.385 . S
C358 C360 1.478 . S
C359 H353 0.930 . S
C359 C355 1.400 . S
C359 C358 1.385 . S
C360 C358 1.478 . S
C360 C362 1.381 . S
C360 C366 1.383 . S
C361 C357 1.495 . S
C361 H367 0.959 . S
C361 H368 0.961 . S
C361 H369 0.960 . S
C362 C360 1.381 . S
C362 C363 1.394 . S
C362 H370 0.930 . S
C363 C362 1.394 . S
C363 C364 1.383 . S
C363 H371 0.929 . S
C364 C363 1.383 . S
C364 C365 1.377 . S
C365 H349 0.930 . S
C365 C364 1.377 . S
C365 C366 1.379 . S
C366 H350 0.931 . S
C366 C360 1.383 . S
C366 C365 1.379 . S
H367 C361 0.959 . S
H368 C361 0.961 . S
H369 C361 0.960 . S
H370 C362 0.930 . S
H371 C363 0.929 . S
H372 C380 0.929 . S
H373 C382 0.930 . S
H374 C384 0.930 . S
H375 C387 0.929 . S
H376 C390 0.930 . S
H377 C392 0.960 . S
H378 C392 0.960 . S
H379 C392 0.960 . S
C380 H372 0.929 . S
C380 C381 1.377 . S
C380 C382 1.384 . S
C381 C380 1.377 . S
C381 C387 1.390 . S
C382 H373 0.930 . S
C382 C380 1.384 . S
C382 C383 1.372 . S
C383 C382 1.372 . S
C383 C384 1.400 . S
C383 C388 1.490 . S
C384 H374 0.930 . S
C384 C383 1.400 . S
C384 C387 1.386 . S
H385 C401 0.930 . S
H386 C402 0.931 . S
C387 H375 0.929 . S
C387 C381 1.390 . S
C387 C384 1.386 . S
C388 C383 1.490 . S
C388 C390 1.395 . S
C388 C391 1.403 . S
H389 C395 0.930 . S
C390 H376 0.930 . S
C390 C388 1.395 . S
C390 C393 1.403 . S
C391 C388 1.403 . S
C391 C392 1.524 . S
C391 C395 1.400 . S
C392 H377 0.960 . S
C392 H378 0.960 . S
C392 H379 0.960 . S
C392 C391 1.524 . S
C393 C390 1.403 . S
C393 C394 1.392 . S
C393 C397 1.495 . S
C394 C393 1.392 . S
C394 C395 1.385 . S
C394 C396 1.478 . S
C395 H389 0.930 . S
C395 C391 1.400 . S
C395 C394 1.385 . S
C396 C394 1.478 . S
C396 C398 1.381 . S
C396 C402 1.383 . S
C397 C393 1.495 . S
C397 H403 0.959 . S
C397 H404 0.961 . S
C397 H405 0.960 . S
C398 C396 1.381 . S
C398 C399 1.394 . S
C398 H406 0.930 . S
C399 C398 1.394 . S
C399 C400 1.383 . S
C399 H407 0.929 . S
C400 C399 1.383 . S
C400 C401 1.377 . S
C401 H385 0.930 . S
C401 C400 1.377 . S
C401 C402 1.379 . S
C402 H386 0.931 . S
C402 C396 1.383 . S
C402 C401 1.379 . S
H403 C397 0.959 . S
H404 C397 0.961 . S
H405 C397 0.960 . S
H406 C398 0.930 . S
H407 C399 0.929 . S
H408 C416 0.929 . S
H409 C418 0.930 . S
H410 C420 0.930 . S
H411 C423 0.929 . S
H412 C426 0.930 . S
H413 C428 0.960 . S
H414 C428 0.960 . S
H415 C428 0.960 1_554 S
C416 H408 0.929 . S
C416 C417 1.377 1_556 S
C416 C418 1.384 . S
C417 C416 1.377 1_554 S
C417 C423 1.390 . S
C418 H409 0.930 . S
C418 C416 1.384 . S
C418 C419 1.372 1_556 S
C419 C418 1.372 1_554 S
C419 C420 1.400 . S
C419 C424 1.490 . S
C420 H410 0.930 . S
C420 C419 1.400 . S
C420 C423 1.386 . S
H421 C437 0.930 . S
H422 C438 0.931 . S
C423 H411 0.929 . S
C423 C417 1.390 . S
C423 C420 1.386 . S
C424 C419 1.490 . S
C424 C426 1.395 . S
C424 C427 1.403 . S
H425 C431 0.930 . S
C426 H412 0.930 . S
C426 C424 1.395 . S
C426 C429 1.403 . S
C427 C424 1.403 . S
C427 C428 1.524 1_554 S
C427 C431 1.400 . S
C428 H413 0.960 . S
C428 H414 0.960 . S
C428 H415 0.960 1_556 S
C428 C427 1.524 1_556 S
C429 C426 1.403 . S
C429 C430 1.392 . S
C429 C433 1.495 . S
C430 C429 1.392 . S
C430 C431 1.385 . S
C430 C432 1.478 . S
C431 H425 0.930 . S
C431 C427 1.400 . S
C431 C430 1.385 . S
C432 C430 1.478 . S
C432 C434 1.381 1_554 S
C432 C438 1.383 . S
C433 C429 1.495 . S
C433 H439 0.959 . S
C433 H440 0.961 . S
C433 H441 0.960 . S
C434 C432 1.381 1_556 S
C434 C435 1.394 . S
C434 H442 0.930 . S
C435 C434 1.394 . S
C435 C436 1.383 1_556 S
C435 H443 0.929 . S
C436 C435 1.383 1_554 S
C436 C437 1.377 . S
C437 H421 0.930 . S
C437 C436 1.377 . S
C437 C438 1.379 . S
C438 H422 0.931 . S
C438 C432 1.383 . S
C438 C437 1.379 . S
H439 C433 0.959 . S
H440 C433 0.961 . S
H441 C433 0.960 . S
H442 C434 0.930 . S
H443 C435 0.929 . S
H444 C452 0.929 . S
H445 C454 0.930 . S
H446 C456 0.930 . S
H447 C459 0.929 . S
H448 C462 0.930 . S
H449 C464 0.960 . S
H450 C464 0.960 . S
H451 C464 0.960 . S
C452 H444 0.929 . S
C452 C453 1.377 . S
C452 C454 1.384 . S
C453 C452 1.377 . S
C453 C459 1.390 . S
C454 H445 0.930 . S
C454 C452 1.384 . S
C454 C455 1.372 . S
C455 C454 1.372 . S
C455 C456 1.400 . S
C455 C460 1.490 . S
C456 H446 0.930 . S
C456 C455 1.400 . S
C456 C459 1.386 . S
H457 C473 0.930 . S
H458 C474 0.931 . S
C459 H447 0.929 . S
C459 C453 1.390 . S
C459 C456 1.386 . S
C460 C455 1.490 . S
C460 C462 1.395 . S
C460 C463 1.403 1_455 S
H461 C467 0.930 . S
C462 H448 0.930 . S
C462 C460 1.395 . S
C462 C465 1.403 . S
C463 C460 1.403 1_655 S
C463 C464 1.524 . S
C463 C467 1.400 . S
C464 H449 0.960 . S
C464 H450 0.960 . S
C464 H451 0.960 . S
C464 C463 1.524 . S
C465 C462 1.403 . S
C465 C466 1.392 1_455 S
C465 C469 1.495 . S
C466 C465 1.392 1_655 S
C466 C467 1.385 . S
C466 C468 1.478 . S
C467 H461 0.930 . S
C467 C463 1.400 . S
C467 C466 1.385 . S
C468 C466 1.478 . S
C468 C470 1.381 . S
C468 C474 1.383 . S
C469 C465 1.495 . S
C469 H475 0.959 . S
C469 H476 0.961 . S
C469 H477 0.960 . S
C470 C468 1.381 . S
C470 C471 1.394 . S
C470 H478 0.930 . S
C471 C470 1.394 . S
C471 C472 1.383 . S
C471 H479 0.929 . S
C472 C471 1.383 . S
C472 C473 1.377 . S
C473 H457 0.930 . S
C473 C472 1.377 . S
C473 C474 1.379 . S
C474 H458 0.931 . S
C474 C468 1.383 . S
C474 C473 1.379 . S
H475 C469 0.959 . S
H476 C469 0.961 . S
H477 C469 0.960 . S
H478 C470 0.930 . S
H479 C471 0.929 . S
H480 C488 0.929 . S
H481 C490 0.944 . S
H482 C492 0.930 . S
H483 C495 0.929 . S
H484 C498 0.930 . S
H485 C500 0.960 . S
H486 C500 0.960 . S
H487 C500 0.960 . S
C488 H480 0.929 . S
C488 C489 1.377 . S
C488 C490 1.384 . S
C489 C488 1.377 . S
C489 C495 1.390 . S
C490 H481 0.944 . S
C490 C488 1.384 . S
C490 C491 1.372 . S
C491 C490 1.372 . S
C491 C492 1.400 . S
C491 C496 1.490 . S
C492 H482 0.930 . S
C492 C491 1.400 . S
C492 C495 1.386 . S
H493 C509 0.930 . S
H494 C510 0.931 . S
C495 H483 0.929 . S
C495 C489 1.390 . S
C495 C492 1.386 . S
C496 C491 1.490 . S
C496 C498 1.395 1_545 S
C496 C499 1.403 . S
H497 C503 0.930 . S
C498 H484 0.930 . S
C498 C496 1.395 1_565 S
C498 C501 1.403 . S
C499 C496 1.403 . S
C499 C500 1.524 . S
C499 C503 1.400 . S
C500 H485 0.960 . S
C500 H486 0.960 . S
C500 H487 0.960 . S
C500 C499 1.524 . S
C501 C498 1.403 . S
C501 C502 1.392 . S
C501 C505 1.495 . S
C502 C501 1.392 . S
C502 C503 1.385 1_565 S
C502 C504 1.478 . S
C503 H497 0.930 . S
C503 C499 1.400 . S
C503 C502 1.385 1_545 S
C504 C502 1.478 . S
C504 C506 1.381 . S
C504 C510 1.383 . S
C505 C501 1.495 . S
C505 H511 0.959 . S
C505 H512 0.961 . S
C505 H513 0.960 . S
C506 C504 1.381 . S
C506 C507 1.394 . S
C506 H514 0.930 . S
C507 C506 1.394 . S
C507 C508 1.383 . S
C507 H515 0.929 . S
C508 C507 1.383 . S
C508 C509 1.377 . S
C509 H493 0.930 . S
C509 C508 1.377 . S
C509 C510 1.379 . S
C510 H494 0.931 . S
C510 C504 1.383 . S
C510 C509 1.379 . S
H511 C505 0.959 . S
H512 C505 0.961 . S
H513 C505 0.960 . S
H514 C506 0.930 . S
H515 C507 0.929 . S
H516 C524 0.929 . S
H517 C526 0.930 . S
H518 C528 0.930 . S
H519 C531 0.929 . S
H520 C534 0.930 . S
H521 C536 0.960 . S
H522 C536 0.960 . S
H523 C536 0.960 . S
C524 H516 0.929 . S
C524 C525 1.377 . S
C524 C526 1.384 . S
C525 C524 1.377 . S
C525 C531 1.390 . S
C526 H517 0.930 . S
C526 C524 1.384 . S
C526 C527 1.372 . S
C527 C526 1.372 . S
C527 C528 1.400 . S
C527 C532 1.490 . S
C528 H518 0.930 . S
C528 C527 1.400 . S
C528 C531 1.386 . S
H529 C545 0.930 . S
H530 C546 0.931 . S
C531 H519 0.929 . S
C531 C525 1.390 . S
C531 C528 1.386 . S
C532 C527 1.490 . S
C532 C534 1.395 . S
C532 C535 1.403 . S
H533 C539 0.930 . S
C534 H520 0.930 . S
C534 C532 1.395 . S
C534 C537 1.403 . S
C535 C532 1.403 . S
C535 C536 1.524 . S
C535 C539 1.400 . S
C536 H521 0.960 . S
C536 H522 0.960 . S
C536 H523 0.960 . S
C536 C535 1.524 . S
C537 C534 1.403 . S
C537 C538 1.392 . S
C537 C541 1.495 . S
C538 C537 1.392 . S
C538 C539 1.385 . S
C538 C540 1.478 . S
C539 H533 0.930 . S
C539 C535 1.400 . S
C539 C538 1.385 . S
C540 C538 1.478 . S
C540 C542 1.381 . S
C540 C546 1.383 . S
C541 C537 1.495 . S
C541 H547 0.959 . S
C541 H548 0.961 . S
C541 H549 0.960 . S
C542 C540 1.381 . S
C542 C543 1.394 . S
C542 H550 0.930 . S
C543 C542 1.394 . S
C543 C544 1.383 . S
C543 H551 0.929 . S
C544 C543 1.383 . S
C544 C545 1.377 . S
C545 H529 0.930 . S
C545 C544 1.377 . S
C545 C546 1.379 . S
C546 H530 0.931 . S
C546 C540 1.383 . S
C546 C545 1.379 . S
H547 C541 0.959 . S
H548 C541 0.961 . S
H549 C541 0.960 . S
H550 C542 0.930 . S
H551 C543 0.929 . S
H552 C560 0.929 . S
H553 C562 0.930 . S
H554 C564 0.930 . S
H555 C567 0.929 . S
H556 C570 0.930 . S
H557 C572 0.960 . S
H558 C572 0.960 . S
H559 C572 0.960 . S
C560 H552 0.929 . S
C560 C561 1.377 1_554 S
C560 C562 1.384 . S
C561 C560 1.377 1_556 S
C561 C567 1.390 . S
C562 H553 0.930 . S
C562 C560 1.384 . S
C562 C563 1.372 1_554 S
C563 C562 1.372 1_556 S
C563 C564 1.400 . S
C563 C568 1.490 . S
C564 H554 0.930 . S
C564 C563 1.400 . S
C564 C567 1.386 . S
H565 C581 0.930 . S
H566 C582 0.931 . S
C567 H555 0.929 . S
C567 C561 1.390 . S
C567 C564 1.386 . S
C568 C563 1.490 . S
C568 C570 1.395 . S
C568 C571 1.403 1_455 S
H569 C575 0.930 . S
C570 H556 0.930 . S
C570 C568 1.395 . S
C570 C573 1.403 . S
C571 C568 1.403 1_655 S
C571 C572 1.524 . S
C571 C575 1.400 . S
C572 H557 0.960 . S
C572 H558 0.960 . S
C572 H559 0.960 . S
C572 C571 1.524 . S
C573 C570 1.403 . S
C573 C574 1.392 1_455 S
C573 C577 1.501 . S
C574 C573 1.392 1_655 S
C574 C575 1.385 . S
C574 C576 1.478 . S
C575 H569 0.930 . S
C575 C571 1.400 . S
C575 C574 1.385 . S
C576 C574 1.478 . S
C576 C578 1.381 1_556 S
C576 C582 1.383 . S
C577 C573 1.501 . S
C577 H583 0.955 1_556 S
C577 H584 0.981 . S
C577 H585 0.940 1_556 S
C578 C576 1.381 1_554 S
C578 C579 1.394 . S
C578 H586 0.930 . S
C579 C578 1.394 . S
C579 C580 1.383 1_554 S
C579 H587 0.929 . S
C580 C579 1.383 1_556 S
C580 C581 1.377 . S
C581 H565 0.930 . S
C581 C580 1.377 . S
C581 C582 1.379 . S
C582 H566 0.931 . S
C582 C576 1.383 . S
C582 C581 1.379 . S
H583 C577 0.955 1_554 S
H584 C577 0.981 . S
H585 C577 0.940 1_554 S
H586 C578 0.930 . S
H587 C579 0.929 . S
H588 C596 0.929 . S
H589 C598 0.930 . S
H590 C600 0.930 . S
H591 C603 0.929 . S
H592 C606 0.930 . S
H593 C608 0.960 . S
H594 C608 0.960 . S
H595 C608 0.960 . S
C596 H588 0.929 . S
C596 C597 1.377 . S
C596 C598 1.384 . S
C597 C596 1.377 . S
C597 C603 1.390 . S
C598 H589 0.930 . S
C598 C596 1.384 . S
C598 C599 1.372 . S
C599 C598 1.372 . S
C599 C600 1.400 . S
C599 C604 1.490 . S
C600 H590 0.930 . S
C600 C599 1.400 . S
C600 C603 1.386 . S
H601 C617 0.930 . S
H602 C618 0.931 . S
C603 H591 0.929 . S
C603 C597 1.390 . S
C603 C600 1.386 . S
C604 C599 1.490 . S
C604 C606 1.395 1_565 S
C604 C607 1.403 . S
H605 C611 0.930 . S
C606 H592 0.930 . S
C606 C604 1.395 1_545 S
C606 C609 1.403 . S
C607 C604 1.403 . S
C607 C608 1.524 . S
C607 C611 1.400 . S
C608 H593 0.960 . S
C608 H594 0.960 . S
C608 H595 0.960 . S
C608 C607 1.524 . S
C609 C606 1.403 . S
C609 C610 1.392 . S
C609 C613 1.495 . S
C610 C609 1.392 . S
C610 C611 1.385 1_545 S
C610 C612 1.478 . S
C611 H605 0.930 . S
C611 C607 1.400 . S
C611 C610 1.385 1_565 S
C612 C610 1.478 . S
C612 C614 1.381 . S
C612 C618 1.383 . S
C613 C609 1.495 . S
C613 H619 0.959 . S
C613 H620 0.961 . S
C613 H621 0.960 . S
C614 C612 1.381 . S
C614 C615 1.394 . S
C614 H622 0.930 . S
C615 C614 1.394 . S
C615 C616 1.383 . S
C615 H623 0.929 . S
C616 C615 1.383 . S
C616 C617 1.377 . S
C617 H601 0.930 . S
C617 C616 1.377 . S
C617 C618 1.379 . S
C618 H602 0.931 . S
C618 C612 1.383 . S
C618 C617 1.379 . S
H619 C613 0.959 . S
H620 C613 0.961 . S
H621 C613 0.960 . S
H622 C614 0.930 . S
H623 C615 0.929 . S
H624 C632 0.929 . S
H625 C634 0.930 . S
H626 C636 0.930 . S
H627 C639 0.929 . S
H628 C642 0.930 . S
H629 C644 0.960 . S
H630 C644 0.960 . S
H631 C644 0.960 . S
C632 H624 0.929 . S
C632 C633 1.377 . S
C632 C634 1.384 . S
C633 C632 1.377 . S
C633 C639 1.390 . S
C634 H625 0.930 . S
C634 C632 1.384 . S
C634 C635 1.372 . S
C635 C634 1.372 . S
C635 C636 1.400 . S
C635 C640 1.490 . S
C636 H626 0.930 . S
C636 C635 1.400 . S
C636 C639 1.386 . S
H637 C653 0.930 . S
H638 C654 0.931 . S
C639 H627 0.929 . S
C639 C633 1.390 . S
C639 C636 1.386 . S
C640 C635 1.490 . S
C640 C642 1.395 . S
C640 C643 1.403 . S
H641 C647 0.930 . S
C642 H628 0.930 . S
C642 C640 1.395 . S
C642 C645 1.403 . S
C643 C640 1.403 . S
C643 C644 1.524 . S
C643 C647 1.400 . S
C644 H629 0.960 . S
C644 H630 0.960 . S
C644 H631 0.960 . S
C644 C643 1.524 . S
C645 C642 1.403 . S
C645 C646 1.392 . S
C645 C649 1.495 . S
C646 C645 1.392 . S
C646 C647 1.385 . S
C646 C648 1.478 . S
C647 H641 0.930 . S
C647 C643 1.400 . S
C647 C646 1.385 . S
C648 C646 1.478 . S
C648 C650 1.381 . S
C648 C654 1.383 . S
C649 C645 1.495 . S
C649 H655 0.959 . S
C649 H656 0.961 . S
C649 H657 0.960 . S
C650 C648 1.381 . S
C650 C651 1.394 . S
C650 H658 0.930 . S
C651 C650 1.394 . S
C651 C652 1.383 . S
C651 H659 0.929 . S
C652 C651 1.383 . S
C652 C653 1.377 . S
C653 H637 0.930 . S
C653 C652 1.377 . S
C653 C654 1.379 . S
C654 H638 0.931 . S
C654 C648 1.383 . S
C654 C653 1.379 . S
H655 C649 0.959 . S
H656 C649 0.961 . S
H657 C649 0.960 . S
H658 C650 0.930 . S
H659 C651 0.929 . S
H660 C668 0.929 . S
H661 C670 0.930 1_455 S
H662 C672 0.930 . S
H663 C675 0.929 . S
H664 C678 0.930 . S
H665 C680 0.960 . S
H666 C680 0.960 . S
H667 C680 0.960 1_655 S
C668 H660 0.929 . S
C668 C669 1.377 . S
C668 C670 1.384 . S
C669 C668 1.377 . S
C669 C675 1.390 . S
C670 H661 0.930 1_655 S
C670 C668 1.384 . S
C670 C671 1.372 . S
C671 C670 1.372 . S
C671 C672 1.400 . S
C671 C676 1.490 1_655 S
C672 H662 0.930 . S
C672 C671 1.400 . S
C672 C675 1.386 . S
H673 C689 0.930 . S
H674 C690 0.931 . S
C675 H663 0.929 . S
C675 C669 1.390 . S
C675 C672 1.386 . S
C676 C671 1.490 1_455 S
C676 C678 1.395 . S
C676 C679 1.403 . S
H677 C683 0.930 . S
C678 H664 0.930 . S
C678 C676 1.395 . S
C678 C681 1.403 . S
C679 C676 1.403 . S
C679 C680 1.524 . S
C679 C683 1.400 . S
C680 H665 0.960 . S
C680 H666 0.960 . S
C680 H667 0.960 1_455 S
C680 C679 1.524 . S
C681 C678 1.403 . S
C681 C682 1.392 . S
C681 C685 1.495 . S
C682 C681 1.392 . S
C682 C683 1.385 . S
C682 C684 1.478 . S
C683 H677 0.930 . S
C683 C679 1.400 . S
C683 C682 1.385 . S
C684 C682 1.478 . S
C684 C686 1.381 . S
C684 C690 1.383 . S
C685 C681 1.495 . S
C685 H691 0.959 . S
C685 H692 0.961 . S
C685 H693 0.960 . S
C686 C684 1.381 . S
C686 C687 1.394 . S
C686 H694 0.930 . S
C687 C686 1.394 . S
C687 C688 1.383 . S
C687 H695 0.929 . S
C688 C687 1.383 . S
C688 C689 1.377 . S
C689 H673 0.930 . S
C689 C688 1.377 . S
C689 C690 1.379 . S
C690 H674 0.931 . S
C690 C684 1.383 . S
C690 C689 1.379 . S
H691 C685 0.959 . S
H692 C685 0.961 . S
H693 C685 0.960 . S
H694 C686 0.930 . S
H695 C687 0.929 . S
H696 C704 0.929 . S
H697 C706 0.930 . S
H698 C708 0.930 1_545 S
H699 C711 0.929 . S
H700 C714 0.930 . S
H701 C716 0.960 . S
H702 C716 0.960 . S
H703 C716 0.960 . S
C704 H696 0.929 . S
C704 C705 1.377 . S
C704 C706 1.384 . S
C705 C704 1.377 . S
C705 C711 1.390 . S
C706 H697 0.930 . S
C706 C704 1.384 . S
C706 C707 1.372 . S
C707 C706 1.372 . S
C707 C708 1.400 . S
C707 C712 1.490 1_565 S
C708 H698 0.930 1_565 S
C708 C707 1.400 . S
C708 C711 1.386 . S
H709 C725 0.930 . S
H710 C726 0.931 . S
C711 H699 0.929 . S
C711 C705 1.390 . S
C711 C708 1.386 . S
C712 C707 1.490 1_545 S
C712 C714 1.395 1_545 S
C712 C715 1.403 . S
H713 C719 0.930 . S
C714 H700 0.930 . S
C714 C712 1.395 1_565 S
C714 C717 1.403 1_565 S
C715 C712 1.403 . S
C715 C716 1.524 . S
C715 C719 1.400 . S
C716 H701 0.960 . S
C716 H702 0.960 . S
C716 H703 0.960 . S
C716 C715 1.524 . S
C717 C714 1.403 1_545 S
C717 C718 1.392 . S
C717 C721 1.495 1_545 S
C718 C717 1.392 . S
C718 C719 1.385 . S
C718 C720 1.478 . S
C719 H713 0.930 . S
C719 C715 1.400 . S
C719 C718 1.385 . S
C720 C718 1.478 . S
C720 C722 1.381 . S
C720 C726 1.383 . S
C721 C717 1.495 1_565 S
C721 H727 0.959 . S
C721 H728 0.961 . S
C721 H729 0.960 . S
C722 C720 1.381 . S
C722 C723 1.394 . S
C722 H730 0.930 . S
C723 C722 1.394 . S
C723 C724 1.383 . S
C723 H731 0.929 . S
C724 C723 1.383 . S
C724 C725 1.377 . S
C725 H709 0.930 . S
C725 C724 1.377 . S
C725 C726 1.379 . S
C726 H710 0.931 . S
C726 C720 1.383 . S
C726 C725 1.379 . S
H727 C721 0.959 . S
H728 C721 0.961 . S
H729 C721 0.960 . S
H730 C722 0.930 . S
H731 C723 0.929 . S
H732 C740 0.929 . S
H733 C742 0.930 . S
H734 C744 0.930 . S
H735 C747 0.929 . S
H736 C750 0.930 . S
H737 C752 0.960 . S
H738 C752 0.960 . S
H739 C752 0.960 . S
C740 H732 0.929 . S
C740 C741 1.377 . S
C740 C742 1.384 . S
C741 C740 1.377 . S
C741 C747 1.390 . S
C742 H733 0.930 . S
C742 C740 1.384 . S
C742 C743 1.372 . S
C743 C742 1.372 . S
C743 C744 1.400 . S
C743 C748 1.490 . S
C744 H734 0.930 . S
C744 C743 1.400 . S
C744 C747 1.386 . S
H745 C761 0.930 . S
H746 C762 0.931 . S
C747 H735 0.929 . S
C747 C741 1.390 . S
C747 C744 1.386 . S
C748 C743 1.490 . S
C748 C750 1.395 . S
C748 C751 1.403 . S
H749 C755 0.930 . S
C750 H736 0.930 . S
C750 C748 1.395 . S
C750 C753 1.403 . S
C751 C748 1.403 . S
C751 C752 1.524 . S
C751 C755 1.400 . S
C752 H737 0.960 . S
C752 H738 0.960 . S
C752 H739 0.960 . S
C752 C751 1.524 . S
C753 C750 1.403 . S
C753 C754 1.392 . S
C753 C757 1.495 . S
C754 C753 1.392 . S
C754 C755 1.385 . S
C754 C756 1.478 . S
C755 H749 0.930 . S
C755 C751 1.400 . S
C755 C754 1.385 . S
C756 C754 1.478 . S
C756 C758 1.381 . S
C756 C762 1.383 . S
C757 C753 1.495 . S
C757 H763 0.959 . S
C757 H764 0.961 . S
C757 H765 0.960 . S
C758 C756 1.381 . S
C758 C759 1.394 . S
C758 H766 0.930 . S
C759 C758 1.394 . S
C759 C760 1.383 . S
C759 H767 0.929 . S
C760 C759 1.383 . S
C760 C761 1.377 . S
C761 H745 0.930 . S
C761 C760 1.377 . S
C761 C762 1.379 . S
C762 H746 0.931 . S
C762 C756 1.383 . S
C762 C761 1.379 . S
H763 C757 0.959 . S
H764 C757 0.961 . S
H765 C757 0.960 . S
H766 C758 0.930 . S
H767 C759 0.929 . S
H768 C776 0.929 . S
H769 C778 0.930 1_655 S
H770 C780 0.930 . S
H771 C783 0.929 . S
H772 C786 0.930 . S
H773 C788 0.960 . S
H774 C788 0.961 . S
H775 C788 0.960 . S
C776 H768 0.929 . S
C776 C777 1.377 . S
C776 C778 1.384 . S
C777 C776 1.377 . S
C777 C783 1.390 . S
C778 H769 0.930 1_455 S
C778 C776 1.384 . S
C778 C779 1.372 . S
C779 C778 1.372 . S
C779 C780 1.400 . S
C779 C784 1.490 1_455 S
C780 H770 0.930 . S
C780 C779 1.400 . S
C780 C783 1.386 . S
H781 C797 0.930 . S
H782 C798 0.931 . S
C783 H771 0.929 . S
C783 C777 1.390 . S
C783 C780 1.386 . S
C784 C779 1.490 1_655 S
C784 C786 1.395 . S
C784 C787 1.403 . S
H785 C791 0.930 . S
C786 H772 0.930 . S
C786 C784 1.395 . S
C786 C789 1.403 . S
C787 C784 1.403 . S
C787 C788 1.524 1_655 S
C787 C791 1.400 . S
C788 H773 0.960 . S
C788 H774 0.961 . S
C788 H775 0.960 . S
C788 C787 1.524 1_455 S
C789 C786 1.403 . S
C789 C790 1.392 . S
C789 C793 1.495 . S
C790 C789 1.392 . S
C790 C791 1.385 . S
C790 C792 1.478 . S
C791 H785 0.930 . S
C791 C787 1.400 . S
C791 C790 1.385 . S
C792 C790 1.478 . S
C792 C794 1.381 . S
C792 C798 1.383 . S
C793 C789 1.495 . S
C793 H799 0.959 . S
C793 H800 0.961 . S
C793 H801 0.960 . S
C794 C792 1.381 . S
C794 C795 1.394 . S
C794 H802 0.930 . S
C795 C794 1.394 . S
C795 C796 1.383 . S
C795 H803 0.929 . S
C796 C795 1.383 . S
C796 C797 1.377 . S
C797 H781 0.930 . S
C797 C796 1.377 . S
C797 C798 1.379 . S
C798 H782 0.931 . S
C798 C792 1.383 . S
C798 C797 1.379 . S
H799 C793 0.959 . S
H800 C793 0.961 . S
H801 C793 0.960 . S
H802 C794 0.930 . S
H803 C795 0.929 . S
H804 C812 0.929 . S
H805 C814 0.930 . S
H806 C816 0.930 . S
H807 C819 0.929 . S
H808 C822 0.930 . S
H809 C824 0.960 . S
H810 C824 0.960 . S
H811 C824 0.960 . S
C812 H804 0.929 . S
C812 C813 1.377 . S
C812 C814 1.384 . S
C813 C812 1.377 . S
C813 C819 1.390 . S
C814 H805 0.930 . S
C814 C812 1.384 . S
C814 C815 1.372 . S
C815 C814 1.372 . S
C815 C816 1.400 . S
C815 C820 1.490 1_545 S
C816 H806 0.930 . S
C816 C815 1.400 . S
C816 C819 1.386 . S
H817 C833 0.930 . S
H818 C834 0.931 . S
C819 H807 0.929 . S
C819 C813 1.390 . S
C819 C816 1.386 . S
C820 C815 1.490 1_565 S
C820 C822 1.395 . S
C820 C823 1.403 1_565 S
H821 C827 0.930 . S
C822 H808 0.930 . S
C822 C820 1.395 . S
C822 C825 1.403 . S
C823 C820 1.403 1_545 S
C823 C824 1.524 . S
C823 C827 1.400 1_545 S
C824 H809 0.960 . S
C824 H810 0.960 . S
C824 H811 0.960 . S
C824 C823 1.524 . S
C825 C822 1.403 . S
C825 C826 1.392 . S
C825 C829 1.495 . S
C826 C825 1.392 . S
C826 C827 1.385 . S
C826 C828 1.478 . S
C827 H821 0.930 . S
C827 C823 1.400 1_565 S
C827 C826 1.385 . S
C828 C826 1.478 . S
C828 C830 1.381 . S
C828 C834 1.383 . S
C829 C825 1.495 . S
C829 H835 0.959 . S
C829 H836 0.961 . S
C829 H837 0.960 . S
C830 C828 1.381 . S
C830 C831 1.394 . S
C830 H838 0.930 . S
C831 C830 1.394 . S
C831 C832 1.383 . S
C831 H839 0.929 . S
C832 C831 1.383 . S
C832 C833 1.377 . S
C833 H817 0.930 . S
C833 C832 1.377 . S
C833 C834 1.379 . S
C834 H818 0.931 . S
C834 C828 1.383 . S
C834 C833 1.379 . S
H835 C829 0.959 . S
H836 C829 0.961 . S
H837 C829 0.960 . S
H838 C830 0.930 . S
H839 C831 0.929 . S
C201 C157 0.506 . S
C220 N18 0.541 . S
C237 C164 0.515 . S
C256 N45 0.507 . S
C273 C29 0.515 . S
C292 N82 0.555 . S
C309 C36 0.505 . S
C328 N114 0.515 . S
C345 C93 0.515 . S
C364 N146 0.558 . S
C381 C125 0.507 . S
C400 N173 0.490 . S
C417 C6 1.341 . S
C436 C102 1.363 . S
C453 C134 1.343 . S
C472 C34 1.359 . S
C489 C162 1.346 . S
C508 C70 1.319 . S
C525 C68 1.280 . S
C544 C189 1.291 . S
C561 C4 1.277 . S
C580 C100 1.304 . S
C597 C132 1.271 . S
C616 C61 1.237 . S
C633 C166 0.669 . S
C652 N13 0.668 . S
C669 N50 0.665 . S
C688 C2 0.699 . S
C705 N77 0.665 . S
C724 C38 0.662 . S
C741 C66 0.655 . S
C760 N109 0.637 . S
C777 N141 0.662 . S
C796 C98 0.695 . S
C813 N178 0.655 . S
C832 C130 0.651 . S
