# Generated by pormake.
# Topology ske, (6)-cn, num edge types: 1
# Building blocks:
#     Node 0, Type 0, BuildingBlock: CUKXOW_clean_sbu_0, # of connection points: 6
#     Node 1, Type 0, BuildingBlock: CUKXOW_clean_sbu_0, # of connection points: 6
#     Node 2, Type 0, BuildingBlock: CUKXOW_clean_sbu_0, # of connection points: 6
#     Node 3, Type 0, BuildingBlock: CUKXOW_clean_sbu_0, # of connection points: 6
#     Node 4, Type 0, BuildingBlock: CUKXOW_clean_sbu_0, # of connection points: 6
#     Node 5, Type 0, BuildingBlock: CUKXOW_clean_sbu_0, # of connection points: 6
#     Node 6, Type 0, BuildingBlock: CUKXOW_clean_sbu_0, # of connection points: 6
#     Node 7, Type 0, BuildingBlock: CUKXOW_clean_sbu_0, # of connection points: 6
#     Edge 8, Type (0, 0), BuildingBlock: ZUJKAS_clean_linker_0, # of connection points: 2
#     Edge 9, Type (0, 0), BuildingBlock: ZUJKAS_clean_linker_0, # of connection points: 2
#     Edge 10, Type (0, 0), BuildingBlock: ZUJKAS_clean_linker_0, # of connection points: 2
#     Edge 11, Type (0, 0), BuildingBlock: ZUJKAS_clean_linker_0, # of connection points: 2
#     Edge 12, Type (0, 0), BuildingBlock: ZUJKAS_clean_linker_0, # of connection points: 2
#     Edge 13, Type (0, 0), BuildingBlock: ZUJKAS_clean_linker_0, # of connection points: 2
#     Edge 14, Type (0, 0), BuildingBlock: ZUJKAS_clean_linker_0, # of connection points: 2
#     Edge 15, Type (0, 0), BuildingBlock: ZUJKAS_clean_linker_0, # of connection points: 2
#     Edge 16, Type (0, 0), BuildingBlock: ZUJKAS_clean_linker_0, # of connection points: 2
#     Edge 17, Type (0, 0), BuildingBlock: ZUJKAS_clean_linker_0, # of connection points: 2
#     Edge 18, Type (0, 0), BuildingBlock: ZUJKAS_clean_linker_0, # of connection points: 2
#     Edge 19, Type (0, 0), BuildingBlock: ZUJKAS_clean_linker_0, # of connection points: 2
#     Edge 20, Type (0, 0), BuildingBlock: ZUJKAS_clean_linker_0, # of connection points: 2
#     Edge 21, Type (0, 0), BuildingBlock: ZUJKAS_clean_linker_0, # of connection points: 2
#     Edge 22, Type (0, 0), BuildingBlock: ZUJKAS_clean_linker_0, # of connection points: 2
#     Edge 23, Type (0, 0), BuildingBlock: ZUJKAS_clean_linker_0, # of connection points: 2
#     Edge 24, Type (0, 0), BuildingBlock: ZUJKAS_clean_linker_0, # of connection points: 2
#     Edge 25, Type (0, 0), BuildingBlock: ZUJKAS_clean_linker_0, # of connection points: 2
#     Edge 26, Type (0, 0), BuildingBlock: ZUJKAS_clean_linker_0, # of connection points: 2
#     Edge 27, Type (0, 0), BuildingBlock: ZUJKAS_clean_linker_0, # of connection points: 2
#     Edge 28, Type (0, 0), BuildingBlock: ZUJKAS_clean_linker_0, # of connection points: 2
#     Edge 29, Type (0, 0), BuildingBlock: ZUJKAS_clean_linker_0, # of connection points: 2
#     Edge 30, Type (0, 0), BuildingBlock: ZUJKAS_clean_linker_0, # of connection points: 2
#     Edge 31, Type (0, 0), BuildingBlock: ZUJKAS_clean_linker_0, # of connection points: 2
# Relax obj value: 0.167
# Max RMSD: 0.207
# Mean RMSD: 0.207
data_MOF--net-ske--node1-CUKXOW_clean_sbu_0--edge1-ZUJKAS_clean_linker_0
_symmetry_space_group_name_H-M    P1
_symmetry_Int_Tables_number       1
_symmetry_cell_setting            triclinic
loop_
_symmetry_equiv_pos_as_xyz
'x, y, z'
_cell_length_a     69.427973
_cell_length_b     39.429336
_cell_length_c     22.592347
_cell_angle_alpha  97.144499
_cell_angle_beta   90.005646
_cell_angle_gamma 89.912438
loop_
_atom_site_label
_atom_site_type_symbol
_atom_site_fract_x
_atom_site_fract_y
_atom_site_fract_z
_atom_type_partial_charge
Tb0 Tb 0.16025 0.24002 0.47264 0.0
C1 C 0.15332 0.17137 0.52784 0.0
Tb2 Tb 0.15045 0.2442 0.60804 0.0
O3 O 0.1889 0.26098 0.49867 0.0
O4 O 0.17437 0.2307 0.55274 0.0
O5 O 0.15537 0.18641 0.47886 0.0
C6 C 0.15499 0.24589 0.72505 0.0
O7 O 0.15253 0.18858 0.58255 0.0
C8 C 0.1186 0.24931 0.54623 0.0
C9 C 0.15266 0.31162 0.54389 0.0
O10 O 0.142 0.22841 0.69324 0.0
O11 O 0.16547 0.26275 0.69101 0.0
O12 O 0.11916 0.25156 0.60406 0.0
O13 O 0.13568 0.24502 0.52761 0.0
O14 O 0.15506 0.29834 0.59501 0.0
O15 O 0.1516 0.29258 0.49146 0.0
C16 C 0.16141 0.23246 0.35388 0.0
O17 O 0.1763 0.23397 0.38874 0.0
O18 O 0.14583 0.23481 0.38584 0.0
C19 C 0.18925 0.24842 0.54915 0.0
Tb20 Tb 0.8915 0.26034 0.61259 0.0
C21 C 0.89176 0.32523 0.54377 0.0
Tb22 Tb 0.88291 0.25118 0.47653 0.0
O23 O 0.923 0.26337 0.61101 0.0
O24 O 0.90733 0.25493 0.53292 0.0
O25 O 0.8906 0.31415 0.59708 0.0
C26 C 0.88074 0.25347 0.35951 0.0
O27 O 0.89111 0.30451 0.49282 0.0
C28 C 0.85323 0.24542 0.54884 0.0
C29 C 0.88936 0.18649 0.5361 0.0
O30 O 0.86985 0.2705 0.39941 0.0
O31 O 0.89289 0.235 0.38545 0.0
O32 O 0.8544 0.22961 0.49504 0.0
O33 O 0.86745 0.26501 0.55719 0.0
O34 O 0.8922 0.20045 0.48667 0.0
O35 O 0.88556 0.20519 0.58816 0.0
C36 C 0.8861 0.26206 0.72977 0.0
O37 O 0.89425 0.23748 0.69532 0.0
O38 O 0.88104 0.28602 0.69838 0.0
C39 C 0.92427 0.25807 0.55318 0.0
Tb40 Tb 0.15995 0.74226 0.5152 0.0
C41 C 0.15067 0.80397 0.45066 0.0
Tb42 Tb 0.15141 0.7287 0.37932 0.0
O43 O 0.18728 0.76726 0.49539 0.0
O44 O 0.17583 0.72878 0.43507 0.0
O45 O 0.14842 0.79106 0.50138 0.0
C46 C 0.15598 0.72674 0.26167 0.0
O47 O 0.1554 0.78462 0.40008 0.0
C48 C 0.11875 0.72896 0.439 0.0
C49 C 0.15451 0.66588 0.45244 0.0
O50 O 0.14637 0.74958 0.29574 0.0
O51 O 0.16303 0.70452 0.29373 0.0
O52 O 0.12009 0.72214 0.38138 0.0
O53 O 0.13561 0.73397 0.45914 0.0
O54 O 0.15455 0.67573 0.39806 0.0
O55 O 0.15456 0.68768 0.50217 0.0
C56 C 0.16244 0.74199 0.63281 0.0
O57 O 0.1742 0.72663 0.59363 0.0
O58 O 0.14926 0.75779 0.60583 0.0
C59 C 0.18912 0.75046 0.44251 0.0
Tb60 Tb 0.89028 0.74398 0.38781 0.0
C61 C 0.89299 0.68032 0.45929 0.0
Tb62 Tb 0.88325 0.75335 0.52429 0.0
O63 O 0.92157 0.75007 0.38522 0.0
O64 O 0.90707 0.75298 0.46577 0.0
O65 O 0.88881 0.69071 0.40683 0.0
C66 C 0.88174 0.75185 0.64165 0.0
O67 O 0.89442 0.7018 0.509 0.0
C68 C 0.85264 0.754 0.4542 0.0
C69 C 0.88813 0.81857 0.46238 0.0
O70 O 0.87192 0.73234 0.60219 0.0
O71 O 0.8925 0.77226 0.61507 0.0
O72 O 0.85384 0.77136 0.50672 0.0
O73 O 0.8675 0.73594 0.4457 0.0
O74 O 0.89027 0.80509 0.51273 0.0
O75 O 0.88566 0.79963 0.40973 0.0
C76 C 0.88216 0.73824 0.27195 0.0
O77 O 0.87457 0.76047 0.31253 0.0
O78 O 0.89432 0.71921 0.29663 0.0
C79 C 0.92362 0.75424 0.44285 0.0
Tb80 Tb 0.66124 0.74662 0.97374 0.0
C81 C 0.6572 0.6809 0.035 0.0
Tb82 Tb 0.65355 0.75523 0.10999 0.0
O83 O 0.69082 0.73002 0.99231 0.0
O84 O 0.67643 0.76457 0.05326 0.0
O85 O 0.65512 0.69438 0.9846 0.0
C86 C 0.66127 0.76157 0.22617 0.0
O87 O 0.65909 0.69985 0.08791 0.0
C88 C 0.62064 0.74342 0.05322 0.0
C89 C 0.65011 0.81903 0.0389 0.0
O90 O 0.66926 0.73958 0.186 0.0
O91 O 0.64892 0.77996 0.20091 0.0
O92 O 0.62236 0.74735 0.11096 0.0
O93 O 0.63726 0.74565 0.03124 0.0
O94 O 0.65418 0.80868 0.09146 0.0
O95 O 0.6493 0.79765 0.98891 0.0
C96 C 0.66303 0.74878 0.85653 0.0
O97 O 0.67265 0.76826 0.89656 0.0
O98 O 0.65232 0.728 0.88246 0.0
C99 C 0.69158 0.74724 0.04502 0.0
Tb100 Tb 0.39093 0.77279 0.11812 0.0
C101 C 0.39114 0.83466 0.04247 0.0
Tb102 Tb 0.38461 0.75928 0.98156 0.0
O103 O 0.42242 0.77213 0.1221 0.0
O104 O 0.40821 0.76392 0.04118 0.0
O105 O 0.38708 0.82509 0.09565 0.0
C106 C 0.38307 0.75935 0.86375 0.0
O107 O 0.39365 0.81228 0.99426 0.0
C108 C 0.35395 0.75632 0.05073 0.0
C109 C 0.39208 0.69662 0.04826 0.0
O110 O 0.37242 0.77778 0.90248 0.0
O111 O 0.39466 0.74067 0.89129 0.0
O112 O 0.35605 0.73797 -0.00062 0.0
O113 O 0.36795 0.77645 0.0586 0.0
O114 O 0.39378 0.70901 0.99671 0.0
O115 O 0.38867 0.71645 0.09951 0.0
C116 C 0.38268 0.77777 0.23398 0.0
O117 O 0.37602 0.75463 0.19329 0.0
O118 O 0.39385 0.79842 0.20932 0.0
C119 C 0.42476 0.76603 0.0647 0.0
Tb120 Tb 0.66077 0.24732 0.02439 0.0
C121 C 0.6559 0.3129 0.96564 0.0
Tb122 Tb 0.65136 0.23965 0.88931 0.0
O123 O 0.68966 0.26674 0.00513 0.0
O124 O 0.67562 0.23265 0.94276 0.0
O125 O 0.65293 0.299 0.01508 0.0
C126 C 0.6562 0.23651 0.77166 0.0
O127 O 0.6591 0.29406 0.91334 0.0
C128 C 0.61895 0.24648 0.95026 0.0
C129 C 0.64943 0.17436 0.95728 0.0
O130 O 0.6492 0.26225 0.80617 0.0
O131 O 0.66046 0.21223 0.80328 0.0
O132 O 0.61986 0.24249 0.89238 0.0
O133 O 0.63596 0.24597 0.96995 0.0
O134 O 0.65019 0.18572 0.90416 0.0
O135 O 0.65143 0.19459 0.00837 0.0
C136 C 0.66279 0.24517 0.14145 0.0
O137 O 0.67354 0.22767 0.10171 0.0
O138 O 0.65092 0.26401 0.11532 0.0
C139 C 0.69031 0.25117 0.95107 0.0
Tb140 Tb 0.39186 0.25742 0.8875 0.0
C141 C 0.39225 0.18855 0.9479 0.0
Tb142 Tb 0.38259 0.25819 0.02182 0.0
O143 O 0.42334 0.2557 0.88995 0.0
O144 O 0.4073 0.25584 0.967 0.0
O145 O 0.38892 0.2025 0.89794 0.0
C146 C 0.38091 0.26386 0.14047 0.0
O147 O 0.3934 0.20695 0.00087 0.0
C148 C 0.35343 0.24966 0.94557 0.0
C149 C 0.38702 0.32889 0.97079 0.0
O150 O 0.36663 0.25592 0.10453 0.0
O151 O 0.39618 0.26896 0.10969 0.0
O152 O 0.35426 0.23585 0.99473 0.0
O153 O 0.36789 0.2685 0.94334 0.0
O154 O 0.38542 0.31275 0.01874 0.0
O155 O 0.38807 0.31257 0.91544 0.0
C156 C 0.38683 0.25603 0.77072 0.0
O157 O 0.39911 0.27508 0.80277 0.0
O158 O 0.37731 0.23747 0.80438 0.0
C159 C 0.42434 0.25547 0.94729 0.0
H160 H 0.19347 0.21442 0.64671 0.0
H161 H 0.22107 0.21542 0.71454 0.0
H162 H 0.25037 0.28564 0.61362 0.0
H163 H 0.22261 0.28518 0.54623 0.0
H164 H 0.25902 0.19634 0.68801 0.0
H165 H 0.25571 0.33265 0.78435 0.0
H166 H 0.23595 0.31139 0.74316 0.0
H167 H 0.25633 0.326 0.70429 0.0
C168 C 0.20569 0.23042 0.63938 0.0
C169 C 0.20578 0.24998 0.59136 0.0
C170 C 0.22152 0.23084 0.67808 0.0
C171 C 0.23778 0.25093 0.66986 0.0
C172 C 0.23789 0.27046 0.62179 0.0
H173 H 0.34871 0.28466 0.84949 0.0
H174 H 0.32105 0.28351 0.78192 0.0
C175 C 0.22204 0.27004 0.58305 0.0
C176 C 0.25483 0.25051 0.71032 0.0
H177 H 0.28341 0.30153 0.80748 0.0
C178 C 0.26428 0.21932 0.71435 0.0
C179 C 0.2618 0.28047 0.74472 0.0
C180 C 0.25185 0.3145 0.74451 0.0
C181 C 0.28066 0.21739 0.75072 0.0
C182 C 0.28763 0.24735 0.78516 0.0
C183 C 0.27815 0.27854 0.78115 0.0
C184 C 0.30472 0.247 0.82548 0.0
C185 C 0.29064 0.18337 0.75065 0.0
C186 C 0.30487 0.22695 0.87285 0.0
C187 C 0.32078 0.22739 0.91137 0.0
C188 C 0.33684 0.24808 0.90363 0.0
C189 C 0.33665 0.2682 0.85637 0.0
C190 C 0.32078 0.26769 0.81783 0.0
H191 H 0.2869 0.16541 0.71044 0.0
H192 H 0.30653 0.18651 0.75248 0.0
H193 H 0.28604 0.1716 0.79046 0.0
H194 H 0.29254 0.21133 0.88069 0.0
H195 H 0.32042 0.21183 0.94762 0.0
H196 H 0.69588 0.2099 0.84599 0.0
H197 H 0.72346 0.20871 0.77816 0.0
H198 H 0.74972 0.29126 0.89329 0.0
H199 H 0.72217 0.29229 0.96153 0.0
H200 H 0.73838 0.25683 0.71452 0.0
H201 H 0.79312 0.22222 0.87538 0.0
H202 H 0.7676 0.22004 0.88953 0.0
H203 H 0.77996 0.26038 0.90139 0.0
C204 C 0.70747 0.22794 0.85667 0.0
C205 C 0.70683 0.2512 0.90915 0.0
C206 C 0.72329 0.22716 0.81792 0.0
C207 C 0.73893 0.24945 0.83091 0.0
C208 C 0.73813 0.27318 0.88283 0.0
H209 H 0.84659 0.28729 0.65242 0.0
H210 H 0.81895 0.28736 0.71967 0.0
C211 C 0.7223 0.27392 0.92167 0.0
C212 C 0.7559 0.24807 0.78975 0.0
H213 H 0.80485 0.23739 0.78352 0.0
C214 C 0.75289 0.2524 0.7296 0.0
C215 C 0.77491 0.24224 0.80914 0.0
C216 C 0.77913 0.23562 0.87222 0.0
C217 C 0.7683 0.25183 0.68887 0.0
C218 C 0.78731 0.24617 0.70834 0.0
C219 C 0.79032 0.24175 0.76844 0.0
C220 C 0.80432 0.24537 0.66749 0.0
C221 C 0.76412 0.25823 0.62566 0.0
C222 C 0.8056 0.22136 0.61604 0.0
C223 C 0.82153 0.22115 0.57764 0.0
C224 C 0.83658 0.24479 0.59011 0.0
C225 C 0.83539 0.26845 0.64196 0.0
C226 C 0.81951 0.26863 0.68033 0.0
H227 H 0.74992 0.27081 0.62192 0.0
H228 H 0.77543 0.27448 0.60887 0.0
H229 H 0.76386 0.23345 0.59641 0.0
H230 H 0.79431 0.20265 0.60565 0.0
H231 H 0.82207 0.20251 0.53818 0.0
H232 H 0.34653 0.79898 0.15315 0.0
H233 H 0.31884 0.79791 0.22034 0.0
H234 H 0.29572 0.71126 0.10758 0.0
H235 H 0.32353 0.71196 0.04071 0.0
H236 H 0.27955 0.80476 0.19526 0.0
H237 H 0.29408 0.67919 0.27306 0.0
H238 H 0.312 0.70179 0.23539 0.0
H239 H 0.29338 0.67804 0.19338 0.0
C240 C 0.33561 0.77953 0.14294 0.0
C241 C 0.33728 0.75539 0.09181 0.0
C242 C 0.31975 0.77901 0.18131 0.0
C243 C 0.30525 0.75424 0.16962 0.0
C244 C 0.30686 0.73022 0.11833 0.0
H245 H 0.19766 0.7078 0.34115 0.0
H246 H 0.22533 0.71023 0.27462 0.0
C247 C 0.32272 0.73076 0.0799 0.0
C248 C 0.28823 0.7541 0.21019 0.0
H249 H 0.26391 0.70494 0.29998 0.0
C250 C 0.27619 0.783 0.21841 0.0
C251 C 0.28377 0.72572 0.24045 0.0
C252 C 0.29656 0.69452 0.23571 0.0
C253 C 0.25966 0.784 0.25482 0.0
C254 C 0.25517 0.75557 0.28498 0.0
C255 C 0.26726 0.72673 0.2769 0.0
C256 C 0.23796 0.75507 0.32475 0.0
C257 C 0.24685 0.81516 0.25932 0.0
C258 C 0.23573 0.77936 0.37547 0.0
C259 C 0.21977 0.77815 0.41336 0.0
C260 C 0.20573 0.75254 0.40152 0.0
C261 C 0.20802 0.7282 0.35096 0.0
C262 C 0.22394 0.72942 0.3131 0.0
H263 H 0.24929 0.83034 0.22173 0.0
H264 H 0.23141 0.80789 0.25984 0.0
H265 H 0.25007 0.8318 0.30144 0.0
H266 H 0.2465 0.79897 0.38635 0.0
H267 H 0.2185 0.79711 0.45221 0.0
H268 H 0.7238 0.70687 0.0366 0.0
H269 H 0.75069 0.70795 0.1074 0.0
H270 H 0.72321 0.79035 0.22009 0.0
H271 H 0.69626 0.78898 0.14994 0.0
H272 H 0.77602 0.75864 0.14436 0.0
H273 H 0.73515 0.72596 0.34032 0.0
H274 H 0.725 0.7214 0.26623 0.0
H275 H 0.7258 0.76264 0.31028 0.0
C276 C 0.72347 0.72506 0.07667 0.0
C277 C 0.70784 0.74763 0.08792 0.0
C278 C 0.73885 0.72569 0.11714 0.0
C279 C 0.73892 0.74882 0.16986 0.0
C280 C 0.72336 0.77164 0.18072 0.0
H281 H 0.82068 0.79508 0.46407 0.0
H282 H 0.79346 0.79448 0.39448 0.0
C283 C 0.70798 0.77097 0.14034 0.0
C284 C 0.75553 0.74982 0.21228 0.0
H285 H 0.76755 0.74402 0.35766 0.0
C286 C 0.77416 0.75525 0.19092 0.0
C287 C 0.75318 0.7456 0.27329 0.0
C288 C 0.73374 0.73825 0.29886 0.0
C289 C 0.79037 0.75709 0.22873 0.0
C290 C 0.78803 0.75274 0.28966 0.0
C291 C 0.7694 0.74743 0.3111 0.0
C292 C 0.80472 0.75327 0.3317 0.0
C293 C 0.80979 0.76454 0.20322 0.0
C294 C 0.82007 0.73008 0.32026 0.0
C295 C 0.83563 0.73046 0.35991 0.0
C296 C 0.83616 0.7539 0.41217 0.0
C297 C 0.82071 0.77682 0.42407 0.0
C298 C 0.80514 0.77646 0.38432 0.0
H299 H 0.80837 0.777 0.16194 0.0
H300 H 0.81854 0.78131 0.23599 0.0
H301 H 0.81773 0.74019 0.19157 0.0
H302 H 0.81994 0.71135 0.28092 0.0
H303 H 0.84719 0.71218 0.34985 0.0
H304 H 0.13834 0.84921 0.54382 0.0
H305 H 0.13825 0.91127 0.55219 0.0
H306 H 0.1597 0.90693 0.37235 0.0
H307 H 0.15988 0.84416 0.36323 0.0
H308 H 0.17188 0.95201 0.53793 0.0
H309 H 0.11276 0.97414 0.38068 0.0
H310 H 0.11547 0.93432 0.41169 0.0
H311 H 0.13118 0.9441 0.35312 0.0
C312 C 0.14294 0.86124 0.50565 0.0
C313 C 0.14922 0.8416 0.45282 0.0
C314 C 0.14286 0.89681 0.51066 0.0
C315 C 0.1489 0.91364 0.46294 0.0
C316 C 0.15478 0.89432 0.4095 0.0
H317 H 0.15951 0.12823 0.42549 0.0
H318 H 0.15872 0.06612 0.41155 0.0
C319 C 0.1549 0.8585 0.40439 0.0
C320 C 0.14982 0.95143 0.47087 0.0
H321 H 0.12927 0.02274 0.42643 0.0
C322 C 0.16259 0.96755 0.51356 0.0
C323 C 0.13767 0.97147 0.43897 0.0
C324 C 0.12337 0.9553 0.39377 0.0
C325 C 0.16369 0.00331 0.52489 0.0
C326 C 0.15134 0.02343 0.49364 0.0
C327 C 0.13864 0.00725 0.4506 0.0
C328 C 0.15177 0.06133 0.50343 0.0
C329 C 0.17837 0.01914 0.56923 0.0
C330 C 0.14796 0.07942 0.55984 0.0
C331 C 0.14852 0.11522 0.56827 0.0
C332 C 0.15267 0.13349 0.52019 0.0
C333 C 0.15623 0.11515 0.46367 0.0
C334 C 0.15578 0.07953 0.45546 0.0
H335 H 0.18995 0.00075 0.57711 0.0
H336 H 0.18506 0.04203 0.55373 0.0
H337 H 0.17114 0.0272 0.6125 0.0
H338 H 0.14442 0.06588 0.59725 0.0
H339 H 0.14557 0.12851 0.61221 0.0
H340 H 0.89316 0.35511 0.44155 0.0
H341 H 0.89532 0.41522 0.4305 0.0
H342 H 0.89691 0.44055 0.62166 0.0
H343 H 0.89437 0.37953 0.63368 0.0
H344 H 0.87126 0.48052 0.56548 0.0
H345 H 0.94201 0.47681 0.45183 0.0
H346 H 0.92551 0.4459 0.41585 0.0
H347 H 0.93355 0.44233 0.49059 0.0
C348 C 0.89412 0.37318 0.48166 0.0
C349 C 0.8937 0.36226 0.53874 0.0
C350 C 0.89549 0.4077 0.47502 0.0
C351 C 0.89672 0.43233 0.52509 0.0
C352 C 0.89619 0.42183 0.58235 0.0
H353 H 0.9032 0.65222 0.5589 0.0
H354 H 0.9042 0.59218 0.57297 0.0
C355 C 0.89475 0.387 0.58917 0.0
C356 C 0.89759 0.46902 0.5167 0.0
H357 H 0.92249 0.52631 0.44435 0.0
C358 C 0.88257 0.49063 0.5396 0.0
C359 C 0.91232 0.48212 0.48255 0.0
C360 C 0.92935 0.46066 0.4593 0.0
C361 C 0.88164 0.52476 0.528 0.0
C362 C 0.89614 0.53757 0.49289 0.0
C363 C 0.91126 0.51616 0.47051 0.0
C364 C 0.89636 0.5738 0.48214 0.0
C365 C 0.86501 0.54685 0.55256 0.0
C366 C 0.8921 0.58329 0.42566 0.0
C367 C 0.89144 0.61793 0.41717 0.0
C368 C 0.89516 0.64343 0.46506 0.0
C369 C 0.90008 0.63346 0.52093 0.0
C370 C 0.90064 0.59907 0.52931 0.0
H371 H 0.8532 0.53154 0.56912 0.0
H372 H 0.87016 0.56536 0.59025 0.0
H373 H 0.85915 0.56168 0.5179 0.0
H374 H 0.88887 0.56395 0.38863 0.0
H375 H 0.88763 0.6247 0.37365 0.0
H376 H 0.88722 0.85944 0.37158 0.0
H377 H 0.88732 0.92228 0.38201 0.0
H378 H 0.88918 0.92574 0.57337 0.0
H379 H 0.88905 0.86373 0.56385 0.0
H380 H 0.86064 0.96931 0.52817 0.0
H381 H 0.93426 0.98522 0.43809 0.0
H382 H 0.91829 0.95674 0.39323 0.0
H383 H 0.92644 0.94593 0.46389 0.0
C384 C 0.88769 0.87361 0.41581 0.0
C385 C 0.88821 0.85643 0.46676 0.0
C386 C 0.88781 0.90946 0.42168 0.0
C387 C 0.8884 0.92855 0.47851 0.0
C388 C 0.88875 0.91147 0.52918 0.0
H389 H 0.88595 0.14494 0.62528 0.0
H390 H 0.88581 0.08215 0.61351 0.0
C391 C 0.88873 0.87589 0.52344 0.0
C392 C 0.88851 0.96639 0.48612 0.0
H393 H 0.91635 0.03538 0.46688 0.0
C394 C 0.87278 0.98385 0.51468 0.0
C395 C 0.90443 0.98511 0.46878 0.0
C396 C 0.92192 0.96745 0.43964 0.0
C397 C 0.8724 0.0197 0.52558 0.0
C398 C 0.88841 0.03848 0.50873 0.0
C399 C 0.90414 0.02093 0.4801 0.0
C400 C 0.88877 0.07642 0.51732 0.0
C401 C 0.85468 0.0371 0.55366 0.0
C402 C 0.89102 0.09396 0.46756 0.0
C403 C 0.89135 0.12954 0.4742 0.0
C404 C 0.88942 0.14862 0.5309 0.0
C405 C 0.88735 0.13106 0.58101 0.0
C406 C 0.88714 0.0952 0.57428 0.0
H407 H 0.84201 0.01977 0.55001 0.0
H408 H 0.85745 0.04509 0.60174 0.0
H409 H 0.85104 0.06025 0.53251 0.0
H410 H 0.89234 0.08005 0.42325 0.0
H411 H 0.89297 0.14202 0.43441 0.0
H412 H 0.16203 0.63841 0.55452 0.0
H413 H 0.16162 0.57884 0.57091 0.0
H414 H 0.14645 0.54953 0.38654 0.0
H415 H 0.14716 0.60985 0.36907 0.0
H416 H 0.13204 0.53413 0.56042 0.0
H417 H 0.19167 0.48668 0.40829 0.0
H418 H 0.1871 0.53164 0.42917 0.0
H419 H 0.17263 0.50752 0.37287 0.0
C420 C 0.15862 0.61948 0.51705 0.0
C421 C 0.15458 0.62906 0.46028 0.0
C422 C 0.15841 0.58529 0.52671 0.0
C423 C 0.15416 0.55965 0.48001 0.0
C424 C 0.15011 0.56889 0.42307 0.0
H425 H 0.13822 0.34374 0.4543 0.0
H426 H 0.13858 0.4043 0.44451 0.0
C427 C 0.15044 0.60335 0.41315 0.0
C428 C 0.15367 0.52349 0.49217 0.0
H429 H 0.17405 0.44505 0.45302 0.0
C430 C 0.14129 0.51467 0.53713 0.0
C431 C 0.16588 0.49822 0.46218 0.0
C432 C 0.18021 0.50645 0.41583 0.0
C433 C 0.14052 0.48113 0.55193 0.0
C434 C 0.15249 0.45585 0.52125 0.0
C435 C 0.16495 0.46464 0.47665 0.0
C436 C 0.15124 0.41947 0.53107 0.0
C437 C 0.12656 0.47264 0.59905 0.0
C438 C 0.15796 0.4079 0.58381 0.0
C439 C 0.15785 0.37283 0.58975 0.0
C440 C 0.15111 0.34905 0.54281 0.0
C441 C 0.14379 0.36117 0.49116 0.0
C442 C 0.14394 0.39587 0.48533 0.0
H443 H 0.11661 0.49419 0.6135 0.0
H444 H 0.11792 0.44981 0.58207 0.0
H445 H 0.13471 0.46644 0.63859 0.0
H446 H 0.16376 0.42585 0.61953 0.0
H447 H 0.16361 0.3643 0.62994 0.0
H448 H 0.65708 0.63992 0.12564 0.0
H449 H 0.65759 0.57705 0.11505 0.0
H450 H 0.65879 0.5738 0.9237 0.0
H451 H 0.65834 0.63582 0.93339 0.0
H452 H 0.62987 0.53098 0.04726 0.0
H453 H 0.70467 0.5124 0.9621 0.0
H454 H 0.69634 0.55236 0.00171 0.0
H455 H 0.69017 0.54092 0.92459 0.0
C456 C 0.65755 0.62579 0.08138 0.0
C457 C 0.65769 0.64302 0.03048 0.0
C458 C 0.65782 0.58993 0.07541 0.0
C459 C 0.6585 0.57087 0.01857 0.0
C460 C 0.65859 0.58801 0.96794 0.0
H461 H 0.66002 0.3543 0.87644 0.0
H462 H 0.66006 0.41714 0.8878 0.0
C463 C 0.65822 0.62361 0.97375 0.0
C464 C 0.65847 0.53301 0.01128 0.0
H465 H 0.68482 0.46307 0.95519 0.0
C466 C 0.64193 0.51607 0.02764 0.0
C467 C 0.67413 0.51373 0.98482 0.0
C468 C 0.69242 0.53068 0.96766 0.0
C469 C 0.6405 0.4803 0.0174 0.0
C470 C 0.65622 0.46095 0.99129 0.0
C471 C 0.67276 0.47793 0.97488 0.0
C472 C 0.65614 0.42302 0.98359 0.0
C473 C 0.62199 0.46361 0.03344 0.0
C474 C 0.65427 0.4056 0.03364 0.0
C475 C 0.65419 0.37 0.02733 0.0
C476 C 0.65617 0.3508 0.97075 0.0
C477 C 0.65839 0.36826 0.92055 0.0
C478 C 0.65842 0.40413 0.92699 0.0
H479 H 0.60967 0.48176 0.03561 0.0
H480 H 0.61853 0.44106 0.00066 0.0
H481 H 0.62355 0.45489 0.07803 0.0
H482 H 0.653 0.41959 0.07787 0.0
H483 H 0.65263 0.35761 0.06723 0.0
H484 H 0.38101 0.89149 0.12087 0.0
H485 H 0.38177 0.95157 0.10179 0.0
H486 H 0.40464 0.92058 0.92594 0.0
H487 H 0.40424 0.86127 0.94453 0.0
H488 H 0.42385 0.97564 0.98455 0.0
H489 H 0.34469 0.99668 0.99247 0.0
H490 H 0.35485 0.98157 0.05756 0.0
H491 H 0.35534 0.95461 0.98736 0.0
C492 C 0.3863 0.89755 0.07834 0.0
C493 C 0.39244 0.87143 0.03423 0.0
C494 C 0.38656 0.93185 0.06726 0.0
C495 C 0.39297 0.94052 0.01198 0.0
C496 C 0.39953 0.91455 0.96872 0.0
H497 H 0.37678 0.13646 0.86928 0.0
H498 H 0.37753 0.07487 0.8792 0.0
C499 C 0.39924 0.88052 0.97958 0.0
C500 C 0.39316 0.97651 0.99853 0.0
H501 H 0.3642 0.04479 0.98123 0.0
C502 C 0.41079 0.99074 0.98381 0.0
C503 C 0.37608 0.99596 0.99631 0.0
C504 C 0.35661 0.98144 0.00872 0.0
C505 C 0.41187 0.02406 0.96816 0.0
C506 C 0.3949 0.04394 0.96789 0.0
C507 C 0.3772 0.02952 0.98141 0.0
C508 C 0.39546 0.08052 0.95821 0.0
C509 C 0.4312 0.03765 0.9517 0.0
C510 C 0.40541 0.10392 -0.00118 0.0
C511 C 0.405 0.13872 0.99325 0.0
C512 C 0.39458 0.15111 0.94697 0.0
C513 C 0.38508 0.12763 0.90498 0.0
C514 C 0.38538 0.09255 0.91091 0.0
H515 H 0.44145 0.01661 0.93698 0.0
H516 H 0.42976 0.05419 0.91558 0.0
H517 H 0.43747 0.05319 0.99134 0.0
H518 H 0.41305 0.09538 0.03609 0.0
H519 H 0.41253 0.1561 0.02631 0.0
H520 H 0.38084 0.37061 0.07508 0.0
H521 H 0.38209 0.43281 0.09223 0.0
H522 H 0.39493 0.43605 0.90637 0.0
H523 H 0.39381 0.37342 0.88846 0.0
H524 H 0.4197 0.47698 0.99043 0.0
H525 H 0.34206 0.50094 0.03921 0.0
H526 H 0.35341 0.47034 0.08062 0.0
H527 H 0.35085 0.46091 0.00117 0.0
C528 C 0.38384 0.38439 0.03754 0.0
C529 C 0.38718 0.36687 0.98021 0.0
C530 C 0.38445 0.42005 0.04751 0.0
C531 C 0.38836 0.43906 0.00049 0.0
C532 C 0.39177 0.4218 0.94322 0.0
H533 H 0.40252 0.65017 0.95417 0.0
H534 H 0.40246 0.58826 0.9477 0.0
C535 C 0.39107 0.38602 0.93305 0.0
C536 C 0.3895 0.47689 0.01175 0.0
H537 H 0.36287 0.54866 0.05497 0.0
C538 C 0.40728 0.49269 0.00439 0.0
C539 C 0.37332 0.49726 0.03073 0.0
C540 C 0.35377 0.48164 0.03803 0.0
C541 C 0.40934 0.52835 0.01559 0.0
C542 C 0.39307 0.54882 0.03336 0.0
C543 C 0.37534 0.53296 0.04161 0.0
C544 C 0.39381 0.58676 0.0393 0.0
C545 C 0.42899 0.54372 0.0089 0.0
C546 C 0.3886 0.60676 0.09285 0.0
C547 C 0.38847 0.64258 0.09675 0.0
C548 C 0.39336 0.65892 0.0469 0.0
C549 C 0.39869 0.63865 0.99363 0.0
C550 C 0.39882 0.60308 0.98986 0.0
H551 H 0.44063 0.52497 0.01425 0.0
H552 H 0.43031 0.55151 0.96354 0.0
H553 H 0.43123 0.56664 0.04203 0.0
H554 H 0.38453 0.59464 0.13146 0.0
H555 H 0.38419 0.65736 0.1383 0.0
H556 H 0.64705 0.1203 0.86687 0.0
H557 H 0.64417 0.05925 0.87823 0.0
H558 H 0.64351 0.08427 0.06951 0.0
H559 H 0.64586 0.14443 0.05902 0.0
H560 H 0.66927 0.01994 0.93493 0.0
H561 H 0.59808 0.02076 0.04509 0.0
H562 H 0.60646 0.05599 0.00807 0.0
H563 H 0.61407 0.05186 0.08305 0.0
C564 C 0.646 0.11277 0.91125 0.0
C565 C 0.64663 0.13742 0.96187 0.0
C566 C 0.6444 0.07791 0.9177 0.0
C567 C 0.64325 0.06724 0.97477 0.0
C568 C 0.64382 0.09184 0.02505 0.0
H569 H 0.65462 0.87477 0.12488 0.0
H570 H 0.65245 0.93551 0.11027 0.0
C571 C 0.64535 0.12641 0.01876 0.0
C572 C 0.64268 0.03044 0.98281 0.0
H573 H 0.61819 0.97201 0.05378 0.0
C574 C 0.65798 0.00938 0.96029 0.0
C575 C 0.62799 0.01669 0.01627 0.0
C576 C 0.61063 0.03744 0.03898 0.0
C577 C 0.65924 0.97522 0.97161 0.0
C578 C 0.64479 0.96179 0.00613 0.0
C579 C 0.62937 0.98262 0.02809 0.0
C580 C 0.64499 0.92551 0.01675 0.0
C581 C 0.67615 0.95376 0.9474 0.0
C582 C 0.64103 0.90011 0.96947 0.0
C583 C 0.64214 0.86571 0.97764 0.0
C584 C 0.64729 0.85585 0.0334 0.0
C585 C 0.65065 0.88145 0.08144 0.0
C586 C 0.64945 0.9161 0.07315 0.0
H587 H 0.68779 0.9695 0.93097 0.0
H588 H 0.68215 0.93921 0.98223 0.0
H589 H 0.67126 0.93501 0.9097 0.0
H590 H 0.63734 0.90691 0.92585 0.0
H591 H 0.63927 0.84687 0.93957 0.0
H592 H 0.19274 0.24267 0.28622 0.0
H593 H 0.1934 0.24732 0.17914 0.0
H594 H 0.13258 0.22499 0.1679 0.0
H595 H 0.13172 0.22168 0.27538 0.0
H596 H 0.18539 0.20321 0.08266 0.0
H597 H 0.13463 0.31229 0.09379 0.0
H598 H 0.14493 0.29799 0.1597 0.0
H599 H 0.1244 0.27639 0.12386 0.0
C600 C 0.17954 0.23867 0.26074 0.0
C601 C 0.16214 0.23211 0.28882 0.0
C602 C 0.17993 0.24136 0.19971 0.0
C603 C 0.16295 0.23734 0.16587 0.0
C604 C 0.14572 0.22928 0.19353 0.0
H605 H 0.13133 0.21693 0.79953 0.0
H606 H 0.13496 0.2166 0.90715 0.0
C607 C 0.14527 0.22707 0.25471 0.0
C608 C 0.16326 0.24142 0.10161 0.0
H609 H 0.14131 0.28327 0.99644 0.0
C610 C 0.17593 0.22101 0.06391 0.0
C611 C 0.15105 0.26497 0.07734 0.0
C612 C 0.13814 0.28941 0.1159 0.0
C613 C 0.17611 0.22254 0.00221 0.0
C614 C 0.16331 0.24496 0.97794 0.0
C615 C 0.15103 0.266 0.01557 0.0
C616 C 0.16154 0.24531 0.91307 0.0
C617 C 0.18952 0.19955 0.96289 0.0
C618 C 0.1753 0.26179 0.88129 0.0
C619 C 0.1732 0.26222 0.8198 0.0
C620 C 0.15736 0.24605 0.78969 0.0
C621 C 0.14367 0.22956 0.82176 0.0
C622 C 0.1457 0.22935 0.88307 0.0
H623 H 0.19774 0.18198 0.98833 0.0
H624 H 0.18119 0.18415 0.92716 0.0
H625 H 0.19989 0.21538 0.94095 0.0
H626 H 0.18756 0.27435 0.90409 0.0
H627 H 0.18396 0.27499 0.79584 0.0
H628 H 0.90085 0.21568 0.27109 0.0
H629 H 0.89897 0.21931 0.16356 0.0
H630 H 0.85633 0.2991 0.19542 0.0
H631 H 0.85803 0.29549 0.30289 0.0
H632 H 0.86127 0.21441 0.08988 0.0
H633 H 0.90261 0.33582 0.0942 0.0
H634 H 0.90532 0.30802 0.15151 0.0
H635 H 0.88398 0.33343 0.14905 0.0
C636 C 0.89108 0.23395 0.25506 0.0
C637 C 0.8796 0.25534 0.29501 0.0
C638 C 0.89001 0.23596 0.19385 0.0
C639 C 0.8776 0.2596 0.17199 0.0
C640 C 0.86607 0.28089 0.21175 0.0
H641 H 0.86773 0.31049 0.80673 0.0
H642 H 0.86336 0.31045 0.91467 0.0
C643 C 0.86703 0.27873 0.27291 0.0
C644 C 0.87672 0.26186 0.10741 0.0
H645 H 0.89148 0.31023 0.00087 0.0
C646 C 0.86778 0.23538 0.07027 0.0
C647 C 0.88504 0.28951 0.0825 0.0
C648 C 0.89488 0.31836 0.12105 0.0
C649 C 0.86716 0.23561 0.00828 0.0
C650 C 0.87617 0.26259 0.98299 0.0
C651 C 0.88463 0.28957 0.02043 0.0
C652 C 0.87804 0.26221 0.9177 0.0
C653 C 0.85679 0.20704 0.97053 0.0
C654 C 0.8879 0.23534 0.88404 0.0
C655 C 0.89035 0.23529 0.82279 0.0
C656 C 0.88317 0.26233 0.79426 0.0
C657 C 0.87339 0.28936 0.82786 0.0
C658 C 0.87088 0.28934 0.8893 0.0
H659 H 0.84573 0.19508 0.9968 0.0
H660 H 0.84969 0.21635 0.93155 0.0
H661 H 0.86734 0.18694 0.95382 0.0
H662 H 0.89396 0.2146 0.90531 0.0
H663 H 0.89804 0.21423 0.79789 0.0
H664 H 0.17775 0.68323 0.18476 0.0
H665 H 0.18201 0.68498 0.07708 0.0
H666 H 0.14393 0.77206 0.08622 0.0
H667 H 0.13993 0.77079 0.19321 0.0
H668 H 0.15444 0.67916 0.98778 0.0
H669 H 0.19047 0.80503 0.00093 0.0
H670 H 0.18798 0.78202 0.06478 0.0
H671 H 0.16826 0.80703 0.04174 0.0
C672 C 0.17038 0.70276 0.1636 0.0
C673 C 0.15858 0.72695 0.19708 0.0
C674 C 0.17283 0.70377 0.10231 0.0
C675 C 0.16358 0.72908 0.07398 0.0
C676 C 0.1516 0.75289 0.10745 0.0
H677 H 0.13998 0.77568 0.72015 0.0
H678 H 0.14147 0.77148 0.82759 0.0
C679 C 0.14921 0.75196 0.16847 0.0
C680 C 0.16572 0.73007 0.00902 0.0
H681 H 0.17709 0.7832 0.90586 0.0
C682 C 0.15965 0.7017 0.96978 0.0
C683 C 0.17257 0.75951 0.98574 0.0
C684 C 0.18037 0.78998 0.0255 0.0
C685 C 0.1595 0.70254 0.90786 0.0
C686 C 0.16566 0.73244 0.88489 0.0
C687 C 0.17221 0.76046 0.9239 0.0
C688 C 0.16507 0.73531 0.82038 0.0
C689 C 0.15218 0.67196 0.86739 0.0
C690 C 0.17802 0.71667 0.78132 0.0
C691 C 0.17727 0.71919 0.72024 0.0
C692 C 0.16352 0.74031 0.69743 0.0
C693 C 0.15068 0.7592 0.7367 0.0
C694 C 0.15152 0.75684 0.79787 0.0
H695 H 0.14533 0.65277 0.89271 0.0
H696 H 0.14155 0.68008 0.83518 0.0
H697 H 0.16438 0.6595 0.84138 0.0
H698 H 0.18867 0.70018 0.79811 0.0
H699 H 0.18734 0.70437 0.69083 0.0
H700 H 0.86316 0.70516 0.69959 0.0
H701 H 0.86147 0.70324 0.80726 0.0
H702 H 0.89565 0.79511 0.8373 0.0
H703 H 0.8979 0.79645 0.72935 0.0
H704 H 0.90829 0.74811 0.90256 0.0
H705 H 0.82923 0.76027 0.92972 0.0
H706 H 0.83593 0.72492 0.87585 0.0
H707 H 0.84138 0.76787 0.86202 0.0
C708 C 0.87024 0.725 0.72926 0.0
C709 C 0.88061 0.75102 0.70644 0.0
C710 C 0.86912 0.72405 0.79073 0.0
C711 C 0.87808 0.74944 0.83038 0.0
C712 C 0.88852 0.7754 0.8075 0.0
H713 H 0.86143 0.78292 0.21466 0.0
H714 H 0.85981 0.7852 0.10688 0.0
C715 C 0.8898 0.77615 0.74596 0.0
C716 C 0.87735 0.74803 0.89557 0.0
H717 H 0.84667 0.74319 0.01235 0.0
C718 C 0.89481 0.74725 0.92663 0.0
C719 C 0.85975 0.7474 0.92707 0.0
C720 C 0.84052 0.75052 0.89707 0.0
C721 C 0.89519 0.74529 0.98812 0.0
C722 C 0.87761 0.74294 0.01908 0.0
C723 C 0.86013 0.7444 0.98832 0.0
C724 C 0.87714 0.73977 0.0837 0.0
C725 C 0.91444 0.74649 0.0194 0.0
C726 C 0.88678 0.71278 0.10618 0.0
C727 C 0.88792 0.7117 0.1676 0.0
C728 C 0.87913 0.73725 0.20736 0.0
C729 C 0.86846 0.76307 0.1848 0.0
C730 C 0.86751 0.76436 0.12335 0.0
H731 H 0.92569 0.7583 0.99362 0.0
H732 H 0.91353 0.76114 0.06458 0.0
H733 H 0.91915 0.72005 0.02411 0.0
H734 H 0.8938 0.69295 0.07626 0.0
H735 H 0.89602 0.69128 0.18397 0.0
H736 H 0.64721 0.80913 0.31267 0.0
H737 H 0.65025 0.80971 0.42067 0.0
H738 H 0.68481 0.71799 0.39309 0.0
H739 H 0.68241 0.71815 0.28505 0.0
H740 H 0.63681 0.7633 0.4837 0.0
H741 H 0.71557 0.77339 0.51995 0.0
H742 H 0.70443 0.78086 0.45057 0.0
H743 H 0.70925 0.73794 0.46591 0.0
C744 C 0.65572 0.78946 0.32977 0.0
C745 C 0.66453 0.76354 0.29081 0.0
C746 C 0.65744 0.78977 0.39139 0.0
C747 C 0.66789 0.76407 0.41507 0.0
C748 C 0.67704 0.73853 0.376 0.0
H749 H 0.64688 0.70502 0.76749 0.0
H750 H 0.64853 0.70828 0.65999 0.0
C751 C 0.67553 0.73847 0.3143 0.0
C752 C 0.66783 0.76253 0.48031 0.0
H753 H 0.69686 0.75697 0.6007 0.0
C754 C 0.64996 0.76217 0.50933 0.0
C755 C 0.68498 0.76138 0.51384 0.0
C756 C 0.70463 0.76377 0.48608 0.0
C757 C 0.64873 0.76033 0.57075 0.0
C758 C 0.66585 0.75768 0.60382 0.0
C759 C 0.68375 0.75853 0.57507 0.0
C760 C 0.66546 0.75474 0.66856 0.0
C761 C 0.62909 0.76197 0.59971 0.0
C762 C 0.67499 0.77905 0.70882 0.0
C763 C 0.6743 0.77691 0.77002 0.0
C764 C 0.66403 0.75046 0.79192 0.0
C765 C 0.65474 0.72583 0.75166 0.0
C766 C 0.65559 0.72779 0.69037 0.0
H767 H 0.61827 0.77389 0.57248 0.0
H768 H 0.62416 0.73566 0.60414 0.0
H769 H 0.62953 0.77674 0.64487 0.0
H770 H 0.68275 0.79997 0.69294 0.0
H771 H 0.68163 0.79617 0.80023 0.0
H772 H 0.36284 0.80363 0.80494 0.0
H773 H 0.36152 0.80583 0.69738 0.0
H774 H 0.3995 0.71857 0.66857 0.0
H775 H 0.40135 0.71703 0.77666 0.0
H776 H 0.41028 0.76734 0.60389 0.0
H777 H 0.33201 0.74527 0.57314 0.0
H778 H 0.33703 0.78119 0.62773 0.0
H779 H 0.34432 0.73898 0.64126 0.0
C780 C 0.37083 0.78482 0.77559 0.0
C781 C 0.38213 0.76006 0.79885 0.0
C782 C 0.36994 0.78593 0.71414 0.0
C783 C 0.38006 0.7619 0.67481 0.0
C784 C 0.39145 0.73721 0.6981 0.0
H785 H 0.36449 0.72978 0.29013 0.0
H786 H 0.36359 0.72607 0.39747 0.0
C787 C 0.39251 0.73632 0.75971 0.0
C788 C 0.37941 0.76349 0.60962 0.0
H789 H 0.34873 0.76559 0.49198 0.0
C790 C 0.39683 0.76673 0.57934 0.0
C791 C 0.36187 0.76219 0.57745 0.0
C792 C 0.34277 0.75635 0.60644 0.0
C793 C 0.39718 0.76936 0.51801 0.0
C794 C 0.37958 0.76981 0.48647 0.0
C795 C 0.36218 0.76584 0.51645 0.0
C796 C 0.37899 0.77344 0.42197 0.0
C797 C 0.41645 0.77093 0.4875 0.0
C798 C 0.38737 0.80187 0.40031 0.0
C799 C 0.38807 0.80385 0.33902 0.0
C800 C 0.3801 0.77772 0.29861 0.0
C801 C 0.3708 0.75021 0.32044 0.0
C802 C 0.37028 0.74806 0.38168 0.0
H803 H 0.42816 0.76039 0.51338 0.0
H804 H 0.41619 0.75654 0.44202 0.0
H805 H 0.42 0.79798 0.48358 0.0
H806 H 0.39368 0.82223 0.43073 0.0
H807 H 0.39517 0.82546 0.32324 0.0
H808 H 0.64199 0.28234 0.22867 0.0
H809 H 0.64291 0.27816 0.33591 0.0
H810 H 0.6858 0.19855 0.30628 0.0
H811 H 0.68522 0.20314 0.19915 0.0
H812 H 0.63447 0.22193 0.39222 0.0
H813 H 0.70988 0.26409 0.4394 0.0
H814 H 0.69767 0.27027 0.37101 0.0
H815 H 0.70738 0.22908 0.38098 0.0
C816 C 0.65172 0.26416 0.24519 0.0
C817 C 0.6636 0.24317 0.20595 0.0
C818 C 0.65221 0.26176 0.3063 0.0
C819 C 0.66461 0.23838 0.32905 0.0
C820 C 0.67645 0.21728 0.28979 0.0
H821 H 0.67346 0.18662 0.69478 0.0
H822 H 0.67625 0.18461 0.58578 0.0
C823 C 0.67602 0.21978 0.22867 0.0
C824 C 0.66455 0.23532 0.39363 0.0
H825 H 0.69259 0.24439 0.51886 0.0
C826 C 0.64718 0.22679 0.41987 0.0
C827 C 0.6812 0.24156 0.42948 0.0
C828 C 0.70007 0.25205 0.40403 0.0
C829 C 0.64597 0.22465 0.48119 0.0
C830 C 0.66251 0.23134 0.51699 0.0
C831 C 0.68 0.23913 0.49083 0.0
C832 C 0.66149 0.23267 0.58237 0.0
C833 C 0.62698 0.21559 0.50761 0.0
C834 C 0.65251 0.26056 0.6159 0.0
C835 C 0.65101 0.26185 0.67765 0.0
C836 C 0.65839 0.23517 0.70671 0.0
C837 C 0.66759 0.20739 0.67319 0.0
C838 C 0.66922 0.20625 0.61124 0.0
H839 H 0.6165 0.20536 0.47274 0.0
H840 H 0.62915 0.19635 0.53898 0.0
H841 H 0.62068 0.23881 0.53322 0.0
H842 H 0.64658 0.28124 0.59416 0.0
H843 H 0.64389 0.28357 0.70256 0.0
H844 H 0.40896 0.28434 0.2212 0.0
H845 H 0.40819 0.28162 0.32893 0.0
H846 H 0.35075 0.23979 0.3131 0.0
H847 H 0.35123 0.24351 0.20576 0.0
H848 H 0.3541 0.28806 0.40852 0.0
H849 H 0.41424 0.19537 0.40656 0.0
H850 H 0.42088 0.23325 0.37507 0.0
H851 H 0.40278 0.20523 0.33907 0.0
C852 C 0.39616 0.27473 0.24089 0.0
C853 C 0.38019 0.26397 0.20545 0.0
C854 C 0.39579 0.27291 0.30221 0.0
C855 C 0.37958 0.25973 0.32868 0.0
C856 C 0.36344 0.2498 0.29344 0.0
H857 H 0.35964 0.22199 0.6988 0.0
H858 H 0.35633 0.2214 0.59021 0.0
C859 C 0.36373 0.25194 0.23225 0.0
C860 C 0.37942 0.25651 0.39319 0.0
H861 H 0.40433 0.22263 0.50216 0.0
C862 C 0.36495 0.27346 0.42895 0.0
C863 C 0.39348 0.2371 0.41952 0.0
C864 C 0.40859 0.21641 0.38298 0.0
C865 C 0.36463 0.27261 0.49082 0.0
C866 C 0.37913 0.25435 0.51719 0.0
C867 C 0.3933 0.23672 0.48144 0.0
C868 C 0.38057 0.25497 0.58233 0.0
C869 C 0.34923 0.29206 0.52803 0.0
C870 C 0.39531 0.2739 0.61309 0.0
C871 C 0.39718 0.27436 0.67456 0.0
C872 C 0.38444 0.2556 0.70607 0.0
C873 C 0.36965 0.23659 0.67528 0.0
C874 C 0.36771 0.23632 0.61359 0.0
H875 H 0.34009 0.30763 0.50136 0.0
H876 H 0.33986 0.27375 0.54807 0.0
H877 H 0.3559 0.30916 0.56516 0.0
H878 H 0.40536 0.28836 0.58944 0.0
H879 H 0.4087 0.2892 0.69734 0.0
H880 H 0.10586 0.21403 0.44007 0.0
H881 H 0.07264 0.2148 0.40067 0.0
H882 H 0.05793 0.29522 0.54073 0.0
H883 H 0.09055 0.29418 0.57981 0.0
H884 H 0.03999 0.20073 0.46866 0.0
H885 H 0.03219 0.32848 0.39647 0.0
H886 H 0.05543 0.30879 0.40434 0.0
H887 H 0.04343 0.33124 0.46835 0.0
C888 C 0.09564 0.23261 0.46086 0.0
C889 C 0.10076 0.25427 0.51262 0.0
C890 C 0.07666 0.23289 0.43871 0.0
C891 C 0.06278 0.2554 0.46725 0.0
C892 C 0.06837 0.27815 0.517 0.0
H893 H 0.95539 0.29391 0.59305 0.0
H894 H 0.9878 0.29113 0.5519 0.0
C895 C 0.08705 0.27747 0.53948 0.0
C896 C 0.04192 0.25302 0.45116 0.0
H897 H 1.00304 0.30449 0.43583 0.0
C898 C 0.0319 0.22299 0.45925 0.0
C899 C 0.03131 0.28201 0.43873 0.0
C900 C 0.0412 0.31432 0.42585 0.0
C901 C 1.01161 0.22234 0.4613 0.0
C902 C 1.00107 0.2524 0.45458 0.0
C903 C 1.01107 0.28144 0.44117 0.0
C904 C 0.98053 0.25634 0.47347 0.0
C905 C 1.00162 0.19049 0.47596 0.0
C906 C 0.96534 0.23846 0.44212 0.0
C907 C 0.94647 0.24038 0.46553 0.0
C908 C 0.94273 0.25982 0.52084 0.0
C909 C 0.95782 0.27863 0.55041 0.0
C910 C 0.9764 0.27711 0.52689 0.0
H911 H 1.01194 0.16969 0.48235 0.0
H912 H 0.99294 0.1964 0.51726 0.0
H913 H 0.9916 0.18109 0.43928 0.0
H914 H 0.96817 0.22242 0.40055 0.0
H915 H 0.93511 0.22544 0.44209 0.0
H916 H 0.93486 0.74076 0.55565 0.0
H917 H 0.96827 0.74119 0.59395 0.0
H918 H 0.98837 0.77749 0.43252 0.0
H919 H 0.95562 0.77719 0.39498 0.0
H920 H 0.99859 0.70288 0.54217 0.0
H921 H 1.01829 0.8387 0.55595 0.0
H922 H 0.9935 0.82465 0.55262 0.0
H923 H 1.00733 0.82519 0.48516 0.0
C924 C 0.94643 0.74967 0.52937 0.0
C925 C 0.94265 0.75907 0.47246 0.0
C926 C 0.96549 0.74977 0.55105 0.0
C927 C 0.9809 0.75997 0.51661 0.0
C928 C 0.97684 0.7704 0.4608 0.0
H929 H 0.08703 0.69413 0.40151 0.0
H930 H 0.05452 0.70095 0.44078 0.0
C931 C 0.95803 0.76996 0.43913 0.0
C932 C 1.00148 0.75653 0.53433 0.0
H933 H 0.04462 0.79786 0.5298 0.0
C934 C 1.0086 0.7239 0.54131 0.0
C935 C 1.01469 0.78392 0.53461 0.0
C936 C 1.008 0.82014 0.53235 0.0
C937 C 0.02854 0.71734 0.54229 0.0
C938 C 0.04174 0.74391 0.53498 0.0
C939 C 0.03462 0.77723 0.53438 0.0
C940 C 0.06226 0.7367 0.51765 0.0
C941 C 0.03524 0.68156 0.54848 0.0
C942 C 0.07775 0.75455 0.54753 0.0
C943 C 0.09666 0.7505 0.52489 0.0
C944 C 0.10019 0.72911 0.47143 0.0
C945 C 0.08479 0.71062 0.44302 0.0
C946 C 0.06613 0.71433 0.46575 0.0
H947 H 0.02511 0.66875 0.5766 0.0
H948 H 0.0356 0.66632 0.50376 0.0
H949 H 0.04987 0.68148 0.56839 0.0
H950 H 0.07512 0.77231 0.58726 0.0
H951 H 0.10823 0.76544 0.54716 0.0
H952 H 0.58986 0.71275 0.09419 0.0
H953 H 0.55691 0.7124 0.05786 0.0
H954 H 0.57514 0.76291 0.90869 0.0
H955 H 0.60869 0.76315 0.94554 0.0
H956 H 0.54498 0.79611 0.97148 0.0
H957 H 0.52657 0.65971 0.92405 0.0
H958 H 0.53806 0.66793 0.9954 0.0
H959 H 0.55122 0.67449 0.92896 0.0
C960 C 0.587 0.72293 0.05266 0.0
C961 C 0.60185 0.7378 0.02252 0.0
C962 C 0.5681 0.72252 0.03165 0.0
C963 C 0.56345 0.73711 0.97993 0.0
C964 C 0.57839 0.75107 0.9483 0.0
H965 H 0.4353 0.73834 0.94985 0.0
H966 H 0.46853 0.73234 0.90992 0.0
C967 C 0.59754 0.75106 0.9691 0.0
C968 C 0.54269 0.74129 0.96483 0.0
H969 H 0.49998 0.6979 0.96067 0.0
C970 C 0.53519 0.77453 0.96715 0.0
C971 C 0.52977 0.71328 0.95821 0.0
C972 C 0.53687 0.67685 0.95084 0.0
C973 C 0.5152 0.78058 0.96919 0.0
C974 C 0.50234 0.75274 0.96967 0.0
C975 C 0.50977 0.71935 0.96114 0.0
C976 C 0.48196 0.75805 0.9897 0.0
C977 C 0.50805 0.81695 0.97411 0.0
C978 C 0.47847 0.77415 0.04756 0.0
C979 C 0.4598 0.77721 0.07021 0.0
C980 C 0.44397 0.76436 0.03574 0.0
C981 C 0.44723 0.74873 0.97717 0.0
C982 C 0.46618 0.74525 0.9545 0.0
H983 H 0.51816 0.83331 0.95222 0.0
H984 H 0.49357 0.81842 0.95369 0.0
H985 H 0.50707 0.82746 0.02192 0.0
H986 H 0.49033 0.78355 0.07615 0.0
H987 H 0.45783 0.78932 0.11555 0.0
H988 H 0.45578 0.28784 0.91593 0.0
H989 H 0.48817 0.28651 0.95637 0.0
H990 H 0.46798 0.22709 0.09172 0.0
H991 H 0.4349 0.22867 0.05087 0.0
H992 H 0.50339 0.30703 0.07606 0.0
H993 H 0.51158 0.16803 0.99679 0.0
H994 H 0.49271 0.19294 0.96797 0.0
H995 H 0.49132 0.18273 0.04297 0.0
C996 C 0.45809 0.27495 0.955 0.0
C997 C 0.44282 0.25836 0.98025 0.0
C998 C 0.47666 0.27424 0.97813 0.0
C999 C 0.48062 0.25649 0.02673 0.0
C1000 C 0.46528 0.24081 0.05389 0.0
H1001 H 0.60684 0.22024 0.05215 0.0
H1002 H 0.57356 0.22235 0.0919 0.0
C1003 C 0.4464 0.24194 0.03097 0.0
C1004 C 0.50114 0.25334 0.04478 0.0
H1005 H 0.53984 0.19998 0.01643 0.0
C1006 C 0.5113 0.28335 0.06494 0.0
C1007 C 0.51154 0.22249 0.03034 0.0
C1008 C 0.50137 0.18958 0.00818 0.0
C1009 C 0.53155 0.28389 0.06646 0.0
C1010 C 0.54199 0.25377 0.04658 0.0
C1011 C 0.53185 0.22308 0.03169 0.0
C1012 C 0.56268 0.25515 0.02936 0.0
C1013 C 0.54167 0.31723 0.08587 0.0
C1014 C 0.56763 0.27298 0.98161 0.0
C1015 C 0.58631 0.27141 0.95876 0.0
C1016 C 0.60065 0.25236 0.98346 0.0
C1017 C 0.59609 0.23561 0.03307 0.0
C1018 C 0.5771 0.23663 0.05543 0.0
H1019 H 0.53265 0.33434 0.11742 0.0
H1020 H 0.55569 0.31293 0.10742 0.0
H1021 H 0.54444 0.3305 0.04618 0.0
H1022 H 0.55677 0.28693 0.96005 0.0
H1023 H 0.58939 0.28429 0.92015 0.0
loop_
_geom_bond_atom_site_label_1
_geom_bond_atom_site_label_2
_geom_bond_distance
_geom_bond_site_symmetry_2
_ccdc_geom_bond_type
Tb0 O3 2.453 . S
Tb0 O4 2.596 . S
Tb0 O5 2.374 . S
Tb0 O13 2.343 . S
Tb0 O15 2.353 . S
Tb0 O17 2.427 . S
Tb0 O18 2.513 . S
C1 O5 1.251 . S
C1 O7 1.263 . S
Tb2 O4 2.343 . S
Tb2 O7 2.353 . S
Tb2 O10 2.427 . S
Tb2 O11 2.513 . S
Tb2 O12 2.453 . S
Tb2 O13 2.596 . S
Tb2 O14 2.374 . S
O3 Tb0 2.453 . S
O3 C19 1.245 . S
O4 Tb0 2.596 . S
O4 Tb2 2.343 . S
O4 C19 1.259 . S
O5 Tb0 2.374 . S
O5 C1 1.251 . S
C6 O10 1.275 . S
C6 O11 1.246 . S
O7 C1 1.263 . S
O7 Tb2 2.353 . S
C8 O12 1.245 . S
C8 O13 1.259 . S
C9 O14 1.250 . S
C9 O15 1.263 . S
O10 Tb2 2.427 . S
O10 C6 1.275 . S
O11 Tb2 2.513 . S
O11 C6 1.246 . S
O12 Tb2 2.453 . S
O12 C8 1.245 . S
O13 Tb0 2.343 . S
O13 Tb2 2.596 . S
O13 C8 1.259 . S
O14 Tb2 2.374 . S
O14 C9 1.250 . S
O15 Tb0 2.353 . S
O15 C9 1.263 . S
C16 O17 1.275 . S
C16 O18 1.246 . S
O17 Tb0 2.427 . S
O17 C16 1.275 . S
O18 Tb0 2.513 . S
O18 C16 1.246 . S
C19 O3 1.245 . S
C19 O4 1.259 . S
Tb20 O23 2.453 . S
Tb20 O24 2.596 . S
Tb20 O25 2.374 . S
Tb20 O33 2.343 . S
Tb20 O35 2.353 . S
Tb20 O37 2.427 . S
Tb20 O38 2.513 . S
C21 O25 1.251 . S
C21 O27 1.263 . S
Tb22 O24 2.343 . S
Tb22 O27 2.353 . S
Tb22 O30 2.427 . S
Tb22 O31 2.513 . S
Tb22 O32 2.453 . S
Tb22 O33 2.596 . S
Tb22 O34 2.374 . S
O23 Tb20 2.453 . S
O23 C39 1.245 . S
O24 Tb20 2.596 . S
O24 Tb22 2.343 . S
O24 C39 1.259 . S
O25 Tb20 2.374 . S
O25 C21 1.251 . S
C26 O30 1.275 . S
C26 O31 1.246 . S
O27 C21 1.263 . S
O27 Tb22 2.353 . S
C28 O32 1.245 . S
C28 O33 1.259 . S
C29 O34 1.250 . S
C29 O35 1.263 . S
O30 Tb22 2.427 . S
O30 C26 1.275 . S
O31 Tb22 2.513 . S
O31 C26 1.246 . S
O32 Tb22 2.453 . S
O32 C28 1.245 . S
O33 Tb20 2.343 . S
O33 Tb22 2.596 . S
O33 C28 1.259 . S
O34 Tb22 2.374 . S
O34 C29 1.250 . S
O35 Tb20 2.353 . S
O35 C29 1.263 . S
C36 O37 1.275 . S
C36 O38 1.246 . S
O37 Tb20 2.427 . S
O37 C36 1.275 . S
O38 Tb20 2.513 . S
O38 C36 1.246 . S
C39 O23 1.245 . S
C39 O24 1.259 . S
Tb40 O43 2.453 . S
Tb40 O44 2.596 . S
Tb40 O45 2.374 . S
Tb40 O53 2.343 . S
Tb40 O55 2.353 . S
Tb40 O57 2.427 . S
Tb40 O58 2.513 . S
C41 O45 1.251 . S
C41 O47 1.263 . S
Tb42 O44 2.343 . S
Tb42 O47 2.353 . S
Tb42 O50 2.427 . S
Tb42 O51 2.513 . S
Tb42 O52 2.453 . S
Tb42 O53 2.596 . S
Tb42 O54 2.374 . S
O43 Tb40 2.453 . S
O43 C59 1.245 . S
O44 Tb40 2.596 . S
O44 Tb42 2.343 . S
O44 C59 1.259 . S
O45 Tb40 2.374 . S
O45 C41 1.251 . S
C46 O50 1.275 . S
C46 O51 1.246 . S
O47 C41 1.263 . S
O47 Tb42 2.353 . S
C48 O52 1.245 . S
C48 O53 1.259 . S
C49 O54 1.250 . S
C49 O55 1.263 . S
O50 Tb42 2.427 . S
O50 C46 1.275 . S
O51 Tb42 2.513 . S
O51 C46 1.246 . S
O52 Tb42 2.453 . S
O52 C48 1.245 . S
O53 Tb40 2.343 . S
O53 Tb42 2.596 . S
O53 C48 1.259 . S
O54 Tb42 2.374 . S
O54 C49 1.250 . S
O55 Tb40 2.353 . S
O55 C49 1.263 . S
C56 O57 1.275 . S
C56 O58 1.246 . S
O57 Tb40 2.427 . S
O57 C56 1.275 . S
O58 Tb40 2.513 . S
O58 C56 1.246 . S
C59 O43 1.245 . S
C59 O44 1.259 . S
Tb60 O63 2.453 . S
Tb60 O64 2.596 . S
Tb60 O65 2.374 . S
Tb60 O73 2.343 . S
Tb60 O75 2.353 . S
Tb60 O77 2.427 . S
Tb60 O78 2.513 . S
C61 O65 1.251 . S
C61 O67 1.263 . S
Tb62 O64 2.343 . S
Tb62 O67 2.353 . S
Tb62 O70 2.427 . S
Tb62 O71 2.513 . S
Tb62 O72 2.453 . S
Tb62 O73 2.596 . S
Tb62 O74 2.374 . S
O63 Tb60 2.453 . S
O63 C79 1.245 . S
O64 Tb60 2.596 . S
O64 Tb62 2.343 . S
O64 C79 1.259 . S
O65 Tb60 2.374 . S
O65 C61 1.251 . S
C66 O70 1.275 . S
C66 O71 1.246 . S
O67 C61 1.263 . S
O67 Tb62 2.353 . S
C68 O72 1.245 . S
C68 O73 1.259 . S
C69 O74 1.250 . S
C69 O75 1.263 . S
O70 Tb62 2.427 . S
O70 C66 1.275 . S
O71 Tb62 2.513 . S
O71 C66 1.246 . S
O72 Tb62 2.453 . S
O72 C68 1.245 . S
O73 Tb60 2.343 . S
O73 Tb62 2.596 . S
O73 C68 1.259 . S
O74 Tb62 2.374 . S
O74 C69 1.250 . S
O75 Tb60 2.353 . S
O75 C69 1.263 . S
C76 O77 1.275 . S
C76 O78 1.246 . S
O77 Tb60 2.427 . S
O77 C76 1.275 . S
O78 Tb60 2.513 . S
O78 C76 1.246 . S
C79 O63 1.245 . S
C79 O64 1.259 . S
Tb80 O83 2.453 . S
Tb80 O84 2.596 1_556 S
Tb80 O85 2.374 . S
Tb80 O93 2.343 . S
Tb80 O95 2.353 . S
Tb80 O97 2.427 . S
Tb80 O98 2.513 . S
C81 O85 1.251 1_554 S
C81 O87 1.263 . S
Tb82 O84 2.343 . S
Tb82 O87 2.353 . S
Tb82 O90 2.427 . S
Tb82 O91 2.513 . S
Tb82 O92 2.453 . S
Tb82 O93 2.596 1_554 S
Tb82 O94 2.374 . S
O83 Tb80 2.453 . S
O83 C99 1.245 1_556 S
O84 Tb80 2.596 1_554 S
O84 Tb82 2.343 . S
O84 C99 1.259 . S
O85 Tb80 2.374 . S
O85 C81 1.251 1_556 S
C86 O90 1.275 . S
C86 O91 1.246 . S
O87 C81 1.263 . S
O87 Tb82 2.353 . S
C88 O92 1.245 1_556 S
C88 O93 1.259 . S
C89 O94 1.250 . S
C89 O95 1.263 1_554 S
O90 Tb82 2.427 . S
O90 C86 1.275 . S
O91 Tb82 2.513 . S
O91 C86 1.246 . S
O92 Tb82 2.453 . S
O92 C88 1.245 1_554 S
O93 Tb80 2.343 . S
O93 Tb82 2.596 1_556 S
O93 C88 1.259 . S
O94 Tb82 2.374 . S
O94 C89 1.250 . S
O95 Tb80 2.353 . S
O95 C89 1.263 1_556 S
C96 O97 1.275 . S
C96 O98 1.246 . S
O97 Tb80 2.427 . S
O97 C96 1.275 . S
O98 Tb80 2.513 . S
O98 C96 1.246 . S
C99 O83 1.245 1_554 S
C99 O84 1.259 . S
Tb100 O103 2.453 . S
Tb100 O104 2.596 1_554 S
Tb100 O105 2.374 . S
Tb100 O113 2.343 . S
Tb100 O115 2.353 . S
Tb100 O117 2.427 . S
Tb100 O118 2.513 . S
C101 O105 1.251 . S
C101 O107 1.263 1_554 S
Tb102 O104 2.343 . S
Tb102 O107 2.353 . S
Tb102 O110 2.427 . S
Tb102 O111 2.513 . S
Tb102 O112 2.453 . S
Tb102 O113 2.596 1_556 S
Tb102 O114 2.374 . S
O103 Tb100 2.453 . S
O103 C119 1.245 1_554 S
O104 Tb100 2.596 1_556 S
O104 Tb102 2.343 . S
O104 C119 1.259 . S
O105 Tb100 2.374 . S
O105 C101 1.251 . S
C106 O110 1.275 . S
C106 O111 1.246 . S
O107 C101 1.263 1_556 S
O107 Tb102 2.353 . S
C108 O112 1.245 1_554 S
C108 O113 1.259 . S
C109 O114 1.250 1_554 S
C109 O115 1.263 . S
O110 Tb102 2.427 . S
O110 C106 1.275 . S
O111 Tb102 2.513 . S
O111 C106 1.246 . S
O112 Tb102 2.453 . S
O112 C108 1.245 1_556 S
O113 Tb100 2.343 . S
O113 Tb102 2.596 1_554 S
O113 C108 1.259 . S
O114 Tb102 2.374 . S
O114 C109 1.250 1_556 S
O115 Tb100 2.353 . S
O115 C109 1.263 . S
C116 O117 1.275 . S
C116 O118 1.246 . S
O117 Tb100 2.427 . S
O117 C116 1.275 . S
O118 Tb100 2.513 . S
O118 C116 1.246 . S
C119 O103 1.245 1_556 S
C119 O104 1.259 . S
Tb120 O123 2.453 . S
Tb120 O124 2.596 1_554 S
Tb120 O125 2.374 . S
Tb120 O133 2.343 . S
Tb120 O135 2.353 . S
Tb120 O137 2.427 . S
Tb120 O138 2.513 . S
C121 O125 1.251 1_556 S
C121 O127 1.263 . S
Tb122 O124 2.343 . S
Tb122 O127 2.353 . S
Tb122 O130 2.427 . S
Tb122 O131 2.513 . S
Tb122 O132 2.453 . S
Tb122 O133 2.596 1_556 S
Tb122 O134 2.374 . S
O123 Tb120 2.453 . S
O123 C139 1.245 1_554 S
O124 Tb120 2.596 1_556 S
O124 Tb122 2.343 . S
O124 C139 1.259 . S
O125 Tb120 2.374 . S
O125 C121 1.251 1_554 S
C126 O130 1.275 . S
C126 O131 1.246 . S
O127 C121 1.263 . S
O127 Tb122 2.353 . S
C128 O132 1.245 1_554 S
C128 O133 1.259 . S
C129 O134 1.250 . S
C129 O135 1.263 1_556 S
O130 Tb122 2.427 . S
O130 C126 1.275 . S
O131 Tb122 2.513 . S
O131 C126 1.246 . S
O132 Tb122 2.453 . S
O132 C128 1.245 1_556 S
O133 Tb120 2.343 . S
O133 Tb122 2.596 1_554 S
O133 C128 1.259 . S
O134 Tb122 2.374 . S
O134 C129 1.250 . S
O135 Tb120 2.353 . S
O135 C129 1.263 1_554 S
C136 O137 1.275 . S
C136 O138 1.246 . S
O137 Tb120 2.427 . S
O137 C136 1.275 . S
O138 Tb120 2.513 . S
O138 C136 1.246 . S
C139 O123 1.245 1_556 S
C139 O124 1.259 . S
Tb140 O143 2.453 . S
Tb140 O144 2.596 1_556 S
Tb140 O145 2.374 . S
Tb140 O153 2.343 . S
Tb140 O155 2.353 . S
Tb140 O157 2.427 . S
Tb140 O158 2.513 . S
C141 O145 1.251 . S
C141 O147 1.263 1_556 S
Tb142 O144 2.343 . S
Tb142 O147 2.353 . S
Tb142 O150 2.427 . S
Tb142 O151 2.513 . S
Tb142 O152 2.453 . S
Tb142 O153 2.596 1_554 S
Tb142 O154 2.374 . S
O143 Tb140 2.453 . S
O143 C159 1.245 1_556 S
O144 Tb140 2.596 1_554 S
O144 Tb142 2.343 . S
O144 C159 1.259 . S
O145 Tb140 2.374 . S
O145 C141 1.251 . S
C146 O150 1.275 . S
C146 O151 1.246 . S
O147 C141 1.263 1_554 S
O147 Tb142 2.353 . S
C148 O152 1.245 1_556 S
C148 O153 1.259 . S
C149 O154 1.250 1_556 S
C149 O155 1.263 . S
O150 Tb142 2.427 . S
O150 C146 1.275 . S
O151 Tb142 2.513 . S
O151 C146 1.246 . S
O152 Tb142 2.453 . S
O152 C148 1.245 1_554 S
O153 Tb140 2.343 . S
O153 Tb142 2.596 1_556 S
O153 C148 1.259 . S
O154 Tb142 2.374 . S
O154 C149 1.250 1_554 S
O155 Tb140 2.353 . S
O155 C149 1.263 . S
C156 O157 1.275 . S
C156 O158 1.246 . S
O157 Tb140 2.427 . S
O157 C156 1.275 . S
O158 Tb140 2.513 . S
O158 C156 1.246 . S
C159 O143 1.245 1_554 S
C159 O144 1.259 . S
H160 C168 0.929 . S
H161 C170 0.930 . S
H162 C172 0.930 . S
H163 C175 0.929 . S
H164 C178 0.930 . S
H165 C180 0.960 . S
H166 C180 0.960 . S
H167 C180 0.960 . S
C168 H160 0.929 . S
C168 C169 1.377 . S
C168 C170 1.384 . S
C169 C168 1.377 . S
C169 C175 1.390 . S
C170 H161 0.930 . S
C170 C168 1.384 . S
C170 C171 1.372 . S
C171 C170 1.372 . S
C171 C172 1.400 . S
C171 C176 1.490 . S
C172 H162 0.930 . S
C172 C171 1.400 . S
C172 C175 1.386 . S
H173 C189 0.930 . S
H174 C190 0.931 . S
C175 H163 0.929 . S
C175 C169 1.390 . S
C175 C172 1.386 . S
C176 C171 1.490 . S
C176 C178 1.395 . S
C176 C179 1.403 . S
H177 C183 0.930 . S
C178 H164 0.930 . S
C178 C176 1.395 . S
C178 C181 1.403 . S
C179 C176 1.403 . S
C179 C180 1.524 . S
C179 C183 1.400 . S
C180 H165 0.960 . S
C180 H166 0.960 . S
C180 H167 0.960 . S
C180 C179 1.524 . S
C181 C178 1.403 . S
C181 C182 1.392 . S
C181 C185 1.495 . S
C182 C181 1.392 . S
C182 C183 1.385 . S
C182 C184 1.478 . S
C183 H177 0.930 . S
C183 C179 1.400 . S
C183 C182 1.385 . S
C184 C182 1.478 . S
C184 C186 1.381 . S
C184 C190 1.383 . S
C185 C181 1.495 . S
C185 H191 0.959 . S
C185 H192 0.961 . S
C185 H193 0.960 . S
C186 C184 1.381 . S
C186 C187 1.394 . S
C186 H194 0.930 . S
C187 C186 1.394 . S
C187 C188 1.383 . S
C187 H195 0.929 . S
C188 C187 1.383 . S
C188 C189 1.377 . S
C189 H173 0.930 . S
C189 C188 1.377 . S
C189 C190 1.379 . S
C190 H174 0.931 . S
C190 C184 1.383 . S
C190 C189 1.379 . S
H191 C185 0.959 . S
H192 C185 0.961 . S
H193 C185 0.960 . S
H194 C186 0.930 . S
H195 C187 0.929 . S
H196 C204 0.929 . S
H197 C206 0.930 . S
H198 C208 0.930 . S
H199 C211 0.929 . S
H200 C214 0.930 . S
H201 C216 0.960 . S
H202 C216 0.960 . S
H203 C216 0.960 . S
C204 H196 0.929 . S
C204 C205 1.377 . S
C204 C206 1.384 . S
C205 C204 1.377 . S
C205 C211 1.390 . S
C206 H197 0.930 . S
C206 C204 1.384 . S
C206 C207 1.372 . S
C207 C206 1.372 . S
C207 C208 1.400 . S
C207 C212 1.490 . S
C208 H198 0.930 . S
C208 C207 1.400 . S
C208 C211 1.386 . S
H209 C225 0.930 . S
H210 C226 0.931 . S
C211 H199 0.929 . S
C211 C205 1.390 . S
C211 C208 1.386 . S
C212 C207 1.490 . S
C212 C214 1.395 . S
C212 C215 1.403 . S
H213 C219 0.930 . S
C214 H200 0.930 . S
C214 C212 1.395 . S
C214 C217 1.403 . S
C215 C212 1.403 . S
C215 C216 1.524 . S
C215 C219 1.400 . S
C216 H201 0.960 . S
C216 H202 0.960 . S
C216 H203 0.960 . S
C216 C215 1.524 . S
C217 C214 1.403 . S
C217 C218 1.392 . S
C217 C221 1.495 . S
C218 C217 1.392 . S
C218 C219 1.385 . S
C218 C220 1.478 . S
C219 H213 0.930 . S
C219 C215 1.400 . S
C219 C218 1.385 . S
C220 C218 1.478 . S
C220 C222 1.381 . S
C220 C226 1.383 . S
C221 C217 1.495 . S
C221 H227 0.959 . S
C221 H228 0.961 . S
C221 H229 0.960 . S
C222 C220 1.381 . S
C222 C223 1.394 . S
C222 H230 0.930 . S
C223 C222 1.394 . S
C223 C224 1.383 . S
C223 H231 0.929 . S
C224 C223 1.383 . S
C224 C225 1.377 . S
C225 H209 0.930 . S
C225 C224 1.377 . S
C225 C226 1.379 . S
C226 H210 0.931 . S
C226 C220 1.383 . S
C226 C225 1.379 . S
H227 C221 0.959 . S
H228 C221 0.961 . S
H229 C221 0.960 . S
H230 C222 0.930 . S
H231 C223 0.929 . S
H232 C240 0.929 . S
H233 C242 0.930 . S
H234 C244 0.930 . S
H235 C247 0.929 . S
H236 C250 0.930 . S
H237 C252 0.960 . S
H238 C252 0.960 . S
H239 C252 0.960 . S
C240 H232 0.929 . S
C240 C241 1.377 . S
C240 C242 1.384 . S
C241 C240 1.377 . S
C241 C247 1.390 . S
C242 H233 0.930 . S
C242 C240 1.384 . S
C242 C243 1.372 . S
C243 C242 1.372 . S
C243 C244 1.400 . S
C243 C248 1.490 . S
C244 H234 0.930 . S
C244 C243 1.400 . S
C244 C247 1.386 . S
H245 C261 0.930 . S
H246 C262 0.931 . S
C247 H235 0.929 . S
C247 C241 1.390 . S
C247 C244 1.386 . S
C248 C243 1.490 . S
C248 C250 1.395 . S
C248 C251 1.403 . S
H249 C255 0.930 . S
C250 H236 0.930 . S
C250 C248 1.395 . S
C250 C253 1.403 . S
C251 C248 1.403 . S
C251 C252 1.524 . S
C251 C255 1.400 . S
C252 H237 0.960 . S
C252 H238 0.960 . S
C252 H239 0.960 . S
C252 C251 1.524 . S
C253 C250 1.403 . S
C253 C254 1.392 . S
C253 C257 1.495 . S
C254 C253 1.392 . S
C254 C255 1.385 . S
C254 C256 1.478 . S
C255 H249 0.930 . S
C255 C251 1.400 . S
C255 C254 1.385 . S
C256 C254 1.478 . S
C256 C258 1.381 . S
C256 C262 1.383 . S
C257 C253 1.495 . S
C257 H263 0.959 . S
C257 H264 0.961 . S
C257 H265 0.960 . S
C258 C256 1.381 . S
C258 C259 1.394 . S
C258 H266 0.930 . S
C259 C258 1.394 . S
C259 C260 1.383 . S
C259 H267 0.929 . S
C260 C259 1.383 . S
C260 C261 1.377 . S
C261 H245 0.930 . S
C261 C260 1.377 . S
C261 C262 1.379 . S
C262 H246 0.931 . S
C262 C256 1.383 . S
C262 C261 1.379 . S
H263 C257 0.959 . S
H264 C257 0.961 . S
H265 C257 0.960 . S
H266 C258 0.930 . S
H267 C259 0.929 . S
H268 C276 0.929 . S
H269 C278 0.930 . S
H270 C280 0.930 . S
H271 C283 0.929 . S
H272 C286 0.930 . S
H273 C288 0.960 . S
H274 C288 0.960 . S
H275 C288 0.960 . S
C276 H268 0.929 . S
C276 C277 1.377 . S
C276 C278 1.384 . S
C277 C276 1.377 . S
C277 C283 1.390 . S
C278 H269 0.930 . S
C278 C276 1.384 . S
C278 C279 1.372 . S
C279 C278 1.372 . S
C279 C280 1.400 . S
C279 C284 1.490 . S
C280 H270 0.930 . S
C280 C279 1.400 . S
C280 C283 1.386 . S
H281 C297 0.930 . S
H282 C298 0.931 . S
C283 H271 0.929 . S
C283 C277 1.390 . S
C283 C280 1.386 . S
C284 C279 1.490 . S
C284 C286 1.395 . S
C284 C287 1.403 . S
H285 C291 0.930 . S
C286 H272 0.930 . S
C286 C284 1.395 . S
C286 C289 1.403 . S
C287 C284 1.403 . S
C287 C288 1.524 . S
C287 C291 1.400 . S
C288 H273 0.960 . S
C288 H274 0.960 . S
C288 H275 0.960 . S
C288 C287 1.524 . S
C289 C286 1.403 . S
C289 C290 1.392 . S
C289 C293 1.495 . S
C290 C289 1.392 . S
C290 C291 1.385 . S
C290 C292 1.478 . S
C291 H285 0.930 . S
C291 C287 1.400 . S
C291 C290 1.385 . S
C292 C290 1.478 . S
C292 C294 1.381 . S
C292 C298 1.383 . S
C293 C289 1.495 . S
C293 H299 0.959 . S
C293 H300 0.961 . S
C293 H301 0.960 . S
C294 C292 1.381 . S
C294 C295 1.394 . S
C294 H302 0.930 . S
C295 C294 1.394 . S
C295 C296 1.383 . S
C295 H303 0.929 . S
C296 C295 1.383 . S
C296 C297 1.377 . S
C297 H281 0.930 . S
C297 C296 1.377 . S
C297 C298 1.379 . S
C298 H282 0.931 . S
C298 C292 1.383 . S
C298 C297 1.379 . S
H299 C293 0.959 . S
H300 C293 0.961 . S
H301 C293 0.960 . S
H302 C294 0.930 . S
H303 C295 0.929 . S
H304 C312 0.929 . S
H305 C314 0.930 . S
H306 C316 0.930 . S
H307 C319 0.929 . S
H308 C322 0.930 . S
H309 C324 0.960 . S
H310 C324 0.960 . S
H311 C324 0.960 . S
C312 H304 0.929 . S
C312 C313 1.377 . S
C312 C314 1.384 . S
C313 C312 1.377 . S
C313 C319 1.390 . S
C314 H305 0.930 . S
C314 C312 1.384 . S
C314 C315 1.372 . S
C315 C314 1.372 . S
C315 C316 1.400 . S
C315 C320 1.490 . S
C316 H306 0.930 . S
C316 C315 1.400 . S
C316 C319 1.386 . S
H317 C333 0.930 . S
H318 C334 0.931 . S
C319 H307 0.929 . S
C319 C313 1.390 . S
C319 C316 1.386 . S
C320 C315 1.490 . S
C320 C322 1.395 . S
C320 C323 1.403 . S
H321 C327 0.930 . S
C322 H308 0.930 . S
C322 C320 1.395 . S
C322 C325 1.403 1_565 S
C323 C320 1.403 . S
C323 C324 1.524 . S
C323 C327 1.400 1_565 S
C324 H309 0.960 . S
C324 H310 0.960 . S
C324 H311 0.960 . S
C324 C323 1.524 . S
C325 C322 1.403 1_545 S
C325 C326 1.392 . S
C325 C329 1.495 . S
C326 C325 1.392 . S
C326 C327 1.385 . S
C326 C328 1.478 . S
C327 H321 0.930 . S
C327 C323 1.400 1_545 S
C327 C326 1.385 . S
C328 C326 1.478 . S
C328 C330 1.381 . S
C328 C334 1.383 . S
C329 C325 1.495 . S
C329 H335 0.959 . S
C329 H336 0.961 . S
C329 H337 0.960 . S
C330 C328 1.381 . S
C330 C331 1.394 . S
C330 H338 0.930 . S
C331 C330 1.394 . S
C331 C332 1.383 . S
C331 H339 0.929 . S
C332 C331 1.383 . S
C332 C333 1.377 . S
C333 H317 0.930 . S
C333 C332 1.377 . S
C333 C334 1.379 . S
C334 H318 0.931 . S
C334 C328 1.383 . S
C334 C333 1.379 . S
H335 C329 0.959 . S
H336 C329 0.961 . S
H337 C329 0.960 . S
H338 C330 0.930 . S
H339 C331 0.929 . S
H340 C348 0.929 . S
H341 C350 0.930 . S
H342 C352 0.930 . S
H343 C355 0.929 . S
H344 C358 0.930 . S
H345 C360 0.960 . S
H346 C360 0.960 . S
H347 C360 0.960 . S
C348 H340 0.929 . S
C348 C349 1.377 . S
C348 C350 1.384 . S
C349 C348 1.377 . S
C349 C355 1.390 . S
C350 H341 0.930 . S
C350 C348 1.384 . S
C350 C351 1.372 . S
C351 C350 1.372 . S
C351 C352 1.400 . S
C351 C356 1.490 . S
C352 H342 0.930 . S
C352 C351 1.400 . S
C352 C355 1.386 . S
H353 C369 0.930 . S
H354 C370 0.931 . S
C355 H343 0.929 . S
C355 C349 1.390 . S
C355 C352 1.386 . S
C356 C351 1.490 . S
C356 C358 1.395 . S
C356 C359 1.403 . S
H357 C363 0.930 . S
C358 H344 0.930 . S
C358 C356 1.395 . S
C358 C361 1.403 . S
C359 C356 1.403 . S
C359 C360 1.524 . S
C359 C363 1.400 . S
C360 H345 0.960 . S
C360 H346 0.960 . S
C360 H347 0.960 . S
C360 C359 1.524 . S
C361 C358 1.403 . S
C361 C362 1.392 . S
C361 C365 1.495 . S
C362 C361 1.392 . S
C362 C363 1.385 . S
C362 C364 1.478 . S
C363 H357 0.930 . S
C363 C359 1.400 . S
C363 C362 1.385 . S
C364 C362 1.478 . S
C364 C366 1.381 . S
C364 C370 1.383 . S
C365 C361 1.495 . S
C365 H371 0.959 . S
C365 H372 0.961 . S
C365 H373 0.960 . S
C366 C364 1.381 . S
C366 C367 1.394 . S
C366 H374 0.930 . S
C367 C366 1.394 . S
C367 C368 1.383 . S
C367 H375 0.929 . S
C368 C367 1.383 . S
C368 C369 1.377 . S
C369 H353 0.930 . S
C369 C368 1.377 . S
C369 C370 1.379 . S
C370 H354 0.931 . S
C370 C364 1.383 . S
C370 C369 1.379 . S
H371 C365 0.959 . S
H372 C365 0.961 . S
H373 C365 0.960 . S
H374 C366 0.930 . S
H375 C367 0.929 . S
H376 C384 0.929 . S
H377 C386 0.930 . S
H378 C388 0.930 . S
H379 C391 0.929 . S
H380 C394 0.930 . S
H381 C396 0.960 . S
H382 C396 0.960 . S
H383 C396 0.960 . S
C384 H376 0.929 . S
C384 C385 1.377 . S
C384 C386 1.384 . S
C385 C384 1.377 . S
C385 C391 1.390 . S
C386 H377 0.930 . S
C386 C384 1.384 . S
C386 C387 1.372 . S
C387 C386 1.372 . S
C387 C388 1.400 . S
C387 C392 1.490 . S
C388 H378 0.930 . S
C388 C387 1.400 . S
C388 C391 1.386 . S
H389 C405 0.930 . S
H390 C406 0.931 . S
C391 H379 0.929 . S
C391 C385 1.390 . S
C391 C388 1.386 . S
C392 C387 1.490 . S
C392 C394 1.395 . S
C392 C395 1.403 . S
H393 C399 0.930 . S
C394 H380 0.930 . S
C394 C392 1.395 . S
C394 C397 1.403 1_565 S
C395 C392 1.403 . S
C395 C396 1.524 . S
C395 C399 1.400 1_565 S
C396 H381 0.960 . S
C396 H382 0.960 . S
C396 H383 0.960 . S
C396 C395 1.524 . S
C397 C394 1.403 1_545 S
C397 C398 1.392 . S
C397 C401 1.495 . S
C398 C397 1.392 . S
C398 C399 1.385 . S
C398 C400 1.478 . S
C399 H393 0.930 . S
C399 C395 1.400 1_545 S
C399 C398 1.385 . S
C400 C398 1.478 . S
C400 C402 1.381 . S
C400 C406 1.383 . S
C401 C397 1.495 . S
C401 H407 0.959 . S
C401 H408 0.961 . S
C401 H409 0.960 . S
C402 C400 1.381 . S
C402 C403 1.394 . S
C402 H410 0.930 . S
C403 C402 1.394 . S
C403 C404 1.383 . S
C403 H411 0.929 . S
C404 C403 1.383 . S
C404 C405 1.377 . S
C405 H389 0.930 . S
C405 C404 1.377 . S
C405 C406 1.379 . S
C406 H390 0.931 . S
C406 C400 1.383 . S
C406 C405 1.379 . S
H407 C401 0.959 . S
H408 C401 0.961 . S
H409 C401 0.960 . S
H410 C402 0.930 . S
H411 C403 0.929 . S
H412 C420 0.929 . S
H413 C422 0.930 . S
H414 C424 0.930 . S
H415 C427 0.929 . S
H416 C430 0.930 . S
H417 C432 0.960 . S
H418 C432 0.960 . S
H419 C432 0.960 . S
C420 H412 0.929 . S
C420 C421 1.377 . S
C420 C422 1.384 . S
C421 C420 1.377 . S
C421 C427 1.390 . S
C422 H413 0.930 . S
C422 C420 1.384 . S
C422 C423 1.372 . S
C423 C422 1.372 . S
C423 C424 1.400 . S
C423 C428 1.490 . S
C424 H414 0.930 . S
C424 C423 1.400 . S
C424 C427 1.386 . S
H425 C441 0.930 . S
H426 C442 0.931 . S
C427 H415 0.929 . S
C427 C421 1.390 . S
C427 C424 1.386 . S
C428 C423 1.490 . S
C428 C430 1.395 . S
C428 C431 1.403 . S
H429 C435 0.930 . S
C430 H416 0.930 . S
C430 C428 1.395 . S
C430 C433 1.403 . S
C431 C428 1.403 . S
C431 C432 1.524 . S
C431 C435 1.400 . S
C432 H417 0.960 . S
C432 H418 0.960 . S
C432 H419 0.960 . S
C432 C431 1.524 . S
C433 C430 1.403 . S
C433 C434 1.392 . S
C433 C437 1.495 . S
C434 C433 1.392 . S
C434 C435 1.385 . S
C434 C436 1.478 . S
C435 H429 0.930 . S
C435 C431 1.400 . S
C435 C434 1.385 . S
C436 C434 1.478 . S
C436 C438 1.381 . S
C436 C442 1.383 . S
C437 C433 1.495 . S
C437 H443 0.959 . S
C437 H444 0.961 . S
C437 H445 0.960 . S
C438 C436 1.381 . S
C438 C439 1.394 . S
C438 H446 0.930 . S
C439 C438 1.394 . S
C439 C440 1.383 . S
C439 H447 0.929 . S
C440 C439 1.383 . S
C440 C441 1.377 . S
C441 H425 0.930 . S
C441 C440 1.377 . S
C441 C442 1.379 . S
C442 H426 0.931 . S
C442 C436 1.383 . S
C442 C441 1.379 . S
H443 C437 0.959 . S
H444 C437 0.961 . S
H445 C437 0.960 . S
H446 C438 0.930 . S
H447 C439 0.929 . S
H448 C456 0.929 . S
H449 C458 0.930 . S
H450 C460 0.930 . S
H451 C463 0.929 . S
H452 C466 0.930 . S
H453 C468 0.960 . S
H454 C468 0.960 . S
H455 C468 0.960 . S
C456 H448 0.929 . S
C456 C457 1.377 . S
C456 C458 1.384 . S
C457 C456 1.377 . S
C457 C463 1.390 1_554 S
C458 H449 0.930 . S
C458 C456 1.384 . S
C458 C459 1.372 . S
C459 C458 1.372 . S
C459 C460 1.400 1_554 S
C459 C464 1.490 . S
C460 H450 0.930 . S
C460 C459 1.400 1_556 S
C460 C463 1.386 . S
H461 C477 0.930 . S
H462 C478 0.931 . S
C463 H451 0.929 . S
C463 C457 1.390 1_556 S
C463 C460 1.386 . S
C464 C459 1.490 . S
C464 C466 1.395 . S
C464 C467 1.403 1_554 S
H465 C471 0.930 . S
C466 H452 0.930 . S
C466 C464 1.395 . S
C466 C469 1.403 . S
C467 C464 1.403 1_556 S
C467 C468 1.524 . S
C467 C471 1.400 . S
C468 H453 0.960 . S
C468 H454 0.960 . S
C468 H455 0.960 . S
C468 C467 1.524 . S
C469 C466 1.403 . S
C469 C470 1.392 . S
C469 C473 1.495 . S
C470 C469 1.392 . S
C470 C471 1.385 1_554 S
C470 C472 1.478 . S
C471 H465 0.930 . S
C471 C467 1.400 . S
C471 C470 1.385 1_556 S
C472 C470 1.478 . S
C472 C474 1.381 . S
C472 C478 1.383 1_554 S
C473 C469 1.495 . S
C473 H479 0.959 . S
C473 H480 0.961 . S
C473 H481 0.960 . S
C474 C472 1.381 . S
C474 C475 1.394 . S
C474 H482 0.930 . S
C475 C474 1.394 . S
C475 C476 1.383 1_554 S
C475 H483 0.929 . S
C476 C475 1.383 1_556 S
C476 C477 1.377 . S
C477 H461 0.930 . S
C477 C476 1.377 . S
C477 C478 1.379 . S
C478 H462 0.931 . S
C478 C472 1.383 1_556 S
C478 C477 1.379 . S
H479 C473 0.959 . S
H480 C473 0.961 . S
H481 C473 0.960 . S
H482 C474 0.930 . S
H483 C475 0.929 . S
H484 C492 0.929 . S
H485 C494 0.930 . S
H486 C496 0.930 . S
H487 C499 0.929 . S
H488 C502 0.930 . S
H489 C504 0.960 . S
H490 C504 0.960 . S
H491 C504 0.960 . S
C492 H484 0.929 . S
C492 C493 1.377 . S
C492 C494 1.384 . S
C493 C492 1.377 . S
C493 C499 1.390 1_554 S
C494 H485 0.930 . S
C494 C492 1.384 . S
C494 C495 1.372 . S
C495 C494 1.372 . S
C495 C496 1.400 1_554 S
C495 C500 1.490 . S
C496 H486 0.930 . S
C496 C495 1.400 1_556 S
C496 C499 1.386 . S
H497 C513 0.930 . S
H498 C514 0.931 . S
C499 H487 0.929 . S
C499 C493 1.390 1_556 S
C499 C496 1.386 . S
C500 C495 1.490 . S
C500 C502 1.395 1_554 S
C500 C503 1.403 . S
H501 C507 0.930 . S
C502 H488 0.930 . S
C502 C500 1.395 1_556 S
C502 C505 1.403 1_565 S
C503 C500 1.403 . S
C503 C504 1.524 . S
C503 C507 1.400 1_565 S
C504 H489 0.960 . S
C504 H490 0.960 . S
C504 H491 0.960 . S
C504 C503 1.524 . S
C505 C502 1.403 1_545 S
C505 C506 1.392 . S
C505 C509 1.495 . S
C506 C505 1.392 . S
C506 C507 1.385 1_556 S
C506 C508 1.478 . S
C507 H501 0.930 . S
C507 C503 1.400 1_545 S
C507 C506 1.385 1_554 S
C508 C506 1.478 . S
C508 C510 1.381 1_556 S
C508 C514 1.383 . S
C509 C505 1.495 . S
C509 H515 0.959 . S
C509 H516 0.961 . S
C509 H517 0.960 . S
C510 C508 1.381 1_554 S
C510 C511 1.394 . S
C510 H518 0.930 . S
C511 C510 1.394 . S
C511 C512 1.383 1_554 S
C511 H519 0.929 . S
C512 C511 1.383 1_556 S
C512 C513 1.377 . S
C513 H497 0.930 . S
C513 C512 1.377 . S
C513 C514 1.379 . S
C514 H498 0.931 . S
C514 C508 1.383 . S
C514 C513 1.379 . S
H515 C509 0.959 . S
H516 C509 0.961 . S
H517 C509 0.960 . S
H518 C510 0.930 . S
H519 C511 0.929 . S
H520 C528 0.929 . S
H521 C530 0.930 . S
H522 C532 0.930 . S
H523 C535 0.929 . S
H524 C538 0.930 . S
H525 C540 0.960 . S
H526 C540 0.960 . S
H527 C540 0.960 . S
C528 H520 0.929 . S
C528 C529 1.377 1_554 S
C528 C530 1.384 . S
C529 C528 1.377 1_556 S
C529 C535 1.390 . S
C530 H521 0.930 . S
C530 C528 1.384 . S
C530 C531 1.365 1_554 S
C531 C530 1.365 1_556 S
C531 C532 1.404 . S
C531 C536 1.493 . S
C532 H522 0.930 . S
C532 C531 1.404 . S
C532 C535 1.386 . S
H533 C549 0.930 . S
H534 C550 0.931 . S
C535 H523 0.929 . S
C535 C529 1.390 . S
C535 C532 1.386 . S
C536 C531 1.493 . S
C536 C538 1.395 . S
C536 C539 1.403 1_556 S
H537 C543 0.930 . S
C538 H524 0.930 . S
C538 C536 1.395 . S
C538 C541 1.403 . S
C539 C536 1.403 1_554 S
C539 C540 1.524 . S
C539 C543 1.400 . S
C540 H525 0.960 . S
C540 H526 0.960 . S
C540 H527 0.960 . S
C540 C539 1.524 . S
C541 C538 1.403 . S
C541 C542 1.392 . S
C541 C545 1.495 . S
C542 C541 1.392 . S
C542 C543 1.385 1_556 S
C542 C544 1.478 . S
C543 H537 0.930 . S
C543 C539 1.400 . S
C543 C542 1.385 1_554 S
C544 C542 1.478 . S
C544 C546 1.381 1_556 S
C544 C550 1.383 . S
C545 C541 1.495 . S
C545 H551 0.959 . S
C545 H552 0.961 . S
C545 H553 0.960 . S
C546 C544 1.381 1_554 S
C546 C547 1.394 . S
C546 H554 0.930 . S
C547 C546 1.394 . S
C547 C548 1.383 . S
C547 H555 0.929 . S
C548 C547 1.383 . S
C548 C549 1.377 1_554 S
C549 H533 0.930 . S
C549 C548 1.377 1_556 S
C549 C550 1.379 . S
C550 H534 0.931 . S
C550 C544 1.383 . S
C550 C549 1.379 . S
H551 C545 0.959 . S
H552 C545 0.961 . S
H553 C545 0.960 . S
H554 C546 0.930 . S
H555 C547 0.929 . S
H556 C564 0.929 . S
H557 C566 0.930 . S
H558 C568 0.930 . S
H559 C571 0.929 . S
H560 C574 0.930 . S
H561 C576 0.960 . S
H562 C576 0.960 . S
H563 C576 0.960 . S
C564 H556 0.929 . S
C564 C565 1.377 . S
C564 C566 1.384 . S
C565 C564 1.377 . S
C565 C571 1.390 1_556 S
C566 H557 0.930 . S
C566 C564 1.384 . S
C566 C567 1.372 . S
C567 C566 1.372 . S
C567 C568 1.400 1_556 S
C567 C572 1.490 . S
C568 H558 0.930 . S
C568 C567 1.400 1_554 S
C568 C571 1.386 . S
H569 C585 0.930 . S
H570 C586 0.931 . S
C571 H559 0.929 . S
C571 C565 1.390 1_554 S
C571 C568 1.386 . S
C572 C567 1.490 . S
C572 C574 1.395 . S
C572 C575 1.403 1_556 S
H573 C579 0.930 . S
C574 H560 0.930 . S
C574 C572 1.395 . S
C574 C577 1.403 1_545 S
C575 C572 1.403 1_554 S
C575 C576 1.524 . S
C575 C579 1.400 1_545 S
C576 H561 0.960 . S
C576 H562 0.960 . S
C576 H563 0.960 . S
C576 C575 1.524 . S
C577 C574 1.403 1_565 S
C577 C578 1.392 . S
C577 C581 1.495 . S
C578 C577 1.392 . S
C578 C579 1.385 1_556 S
C578 C580 1.478 . S
C579 H573 0.930 . S
C579 C575 1.400 1_565 S
C579 C578 1.385 1_554 S
C580 C578 1.478 . S
C580 C582 1.381 . S
C580 C586 1.383 1_556 S
C581 C577 1.495 . S
C581 H587 0.959 . S
C581 H588 0.961 . S
C581 H589 0.960 . S
C582 C580 1.381 . S
C582 C583 1.394 . S
C582 H590 0.930 . S
C583 C582 1.394 . S
C583 C584 1.383 1_556 S
C583 H591 0.929 . S
C584 C583 1.383 1_554 S
C584 C585 1.377 . S
C585 H569 0.930 . S
C585 C584 1.377 . S
C585 C586 1.379 . S
C586 H570 0.931 . S
C586 C580 1.383 1_554 S
C586 C585 1.379 . S
H587 C581 0.959 . S
H588 C581 0.961 . S
H589 C581 0.960 . S
H590 C582 0.930 . S
H591 C583 0.929 . S
H592 C600 0.929 . S
H593 C602 0.930 . S
H594 C604 0.930 . S
H595 C607 0.929 . S
H596 C610 0.930 . S
H597 C612 0.960 . S
H598 C612 0.960 . S
H599 C612 0.960 . S
C600 H592 0.929 . S
C600 C601 1.377 . S
C600 C602 1.384 . S
C601 C600 1.377 . S
C601 C607 1.390 . S
C602 H593 0.930 . S
C602 C600 1.384 . S
C602 C603 1.372 . S
C603 C602 1.372 . S
C603 C604 1.400 . S
C603 C608 1.490 . S
C604 H594 0.930 . S
C604 C603 1.400 . S
C604 C607 1.386 . S
H605 C621 0.930 . S
H606 C622 0.931 . S
C607 H595 0.929 . S
C607 C601 1.390 . S
C607 C604 1.386 . S
C608 C603 1.490 . S
C608 C610 1.395 . S
C608 C611 1.403 . S
H609 C615 0.930 . S
C610 H596 0.930 . S
C610 C608 1.395 . S
C610 C613 1.403 1_554 S
C611 C608 1.403 . S
C611 C612 1.524 . S
C611 C615 1.400 1_554 S
C612 H597 0.960 . S
C612 H598 0.960 . S
C612 H599 0.960 . S
C612 C611 1.524 . S
C613 C610 1.403 1_556 S
C613 C614 1.392 . S
C613 C617 1.495 . S
C614 C613 1.392 . S
C614 C615 1.385 . S
C614 C616 1.478 . S
C615 H609 0.930 . S
C615 C611 1.400 1_556 S
C615 C614 1.385 . S
C616 C614 1.478 . S
C616 C618 1.381 . S
C616 C622 1.383 . S
C617 C613 1.495 . S
C617 H623 0.959 . S
C617 H624 0.961 . S
C617 H625 0.960 . S
C618 C616 1.381 . S
C618 C619 1.394 . S
C618 H626 0.930 . S
C619 C618 1.394 . S
C619 C620 1.383 . S
C619 H627 0.929 . S
C620 C619 1.383 . S
C620 C621 1.377 . S
C621 H605 0.930 . S
C621 C620 1.377 . S
C621 C622 1.379 . S
C622 H606 0.931 . S
C622 C616 1.383 . S
C622 C621 1.379 . S
H623 C617 0.959 . S
H624 C617 0.961 . S
H625 C617 0.960 . S
H626 C618 0.930 . S
H627 C619 0.929 . S
H628 C636 0.929 . S
H629 C638 0.930 . S
H630 C640 0.930 . S
H631 C643 0.929 . S
H632 C646 0.930 . S
H633 C648 0.960 . S
H634 C648 0.960 . S
H635 C648 0.960 . S
C636 H628 0.929 . S
C636 C637 1.377 . S
C636 C638 1.384 . S
C637 C636 1.377 . S
C637 C643 1.390 . S
C638 H629 0.930 . S
C638 C636 1.384 . S
C638 C639 1.372 . S
C639 C638 1.372 . S
C639 C640 1.400 . S
C639 C644 1.490 . S
C640 H630 0.930 . S
C640 C639 1.400 . S
C640 C643 1.386 . S
H641 C657 0.930 . S
H642 C658 0.931 . S
C643 H631 0.929 . S
C643 C637 1.390 . S
C643 C640 1.386 . S
C644 C639 1.490 . S
C644 C646 1.395 . S
C644 C647 1.403 . S
H645 C651 0.930 . S
C646 H632 0.930 . S
C646 C644 1.395 . S
C646 C649 1.403 1_554 S
C647 C644 1.403 . S
C647 C648 1.524 . S
C647 C651 1.400 1_554 S
C648 H633 0.960 . S
C648 H634 0.960 . S
C648 H635 0.960 . S
C648 C647 1.524 . S
C649 C646 1.403 1_556 S
C649 C650 1.392 . S
C649 C653 1.495 . S
C650 C649 1.392 . S
C650 C651 1.385 . S
C650 C652 1.478 . S
C651 H645 0.930 . S
C651 C647 1.400 1_556 S
C651 C650 1.385 . S
C652 C650 1.478 . S
C652 C654 1.381 . S
C652 C658 1.383 . S
C653 C649 1.495 . S
C653 H659 0.959 . S
C653 H660 0.961 . S
C653 H661 0.960 . S
C654 C652 1.381 . S
C654 C655 1.394 . S
C654 H662 0.930 . S
C655 C654 1.394 . S
C655 C656 1.383 . S
C655 H663 0.929 . S
C656 C655 1.383 . S
C656 C657 1.377 . S
C657 H641 0.930 . S
C657 C656 1.377 . S
C657 C658 1.379 . S
C658 H642 0.931 . S
C658 C652 1.383 . S
C658 C657 1.379 . S
H659 C653 0.959 . S
H660 C653 0.961 . S
H661 C653 0.960 . S
H662 C654 0.930 . S
H663 C655 0.929 . S
H664 C672 0.929 . S
H665 C674 0.930 . S
H666 C676 0.930 . S
H667 C679 0.929 . S
H668 C682 0.930 . S
H669 C684 0.960 . S
H670 C684 0.960 . S
H671 C684 0.960 . S
C672 H664 0.929 . S
C672 C673 1.377 . S
C672 C674 1.384 . S
C673 C672 1.377 . S
C673 C679 1.390 . S
C674 H665 0.930 . S
C674 C672 1.384 . S
C674 C675 1.372 . S
C675 C674 1.372 . S
C675 C676 1.400 . S
C675 C680 1.490 . S
C676 H666 0.930 . S
C676 C675 1.400 . S
C676 C679 1.386 . S
H677 C693 0.930 . S
H678 C694 0.931 . S
C679 H667 0.929 . S
C679 C673 1.390 . S
C679 C676 1.386 . S
C680 C675 1.490 . S
C680 C682 1.395 . S
C680 C683 1.403 . S
H681 C687 0.930 . S
C682 H668 0.930 . S
C682 C680 1.395 . S
C682 C685 1.403 1_554 S
C683 C680 1.403 . S
C683 C684 1.524 . S
C683 C687 1.400 1_554 S
C684 H669 0.960 . S
C684 H670 0.960 . S
C684 H671 0.960 . S
C684 C683 1.524 . S
C685 C682 1.403 1_556 S
C685 C686 1.392 . S
C685 C689 1.495 . S
C686 C685 1.392 . S
C686 C687 1.385 . S
C686 C688 1.478 . S
C687 H681 0.930 . S
C687 C683 1.400 1_556 S
C687 C686 1.385 . S
C688 C686 1.478 . S
C688 C690 1.381 . S
C688 C694 1.383 . S
C689 C685 1.495 . S
C689 H695 0.959 . S
C689 H696 0.961 . S
C689 H697 0.960 . S
C690 C688 1.381 . S
C690 C691 1.394 . S
C690 H698 0.930 . S
C691 C690 1.394 . S
C691 C692 1.383 . S
C691 H699 0.929 . S
C692 C691 1.383 . S
C692 C693 1.377 . S
C693 H677 0.930 . S
C693 C692 1.377 . S
C693 C694 1.379 . S
C694 H678 0.931 . S
C694 C688 1.383 . S
C694 C693 1.379 . S
H695 C689 0.959 . S
H696 C689 0.961 . S
H697 C689 0.960 . S
H698 C690 0.930 . S
H699 C691 0.929 . S
H700 C708 0.929 . S
H701 C710 0.930 . S
H702 C712 0.930 . S
H703 C715 0.929 . S
H704 C718 0.930 . S
H705 C720 0.960 . S
H706 C720 0.960 . S
H707 C720 0.960 . S
C708 H700 0.929 . S
C708 C709 1.377 . S
C708 C710 1.384 . S
C709 C708 1.377 . S
C709 C715 1.390 . S
C710 H701 0.930 . S
C710 C708 1.384 . S
C710 C711 1.372 . S
C711 C710 1.372 . S
C711 C712 1.400 . S
C711 C716 1.490 . S
C712 H702 0.930 . S
C712 C711 1.400 . S
C712 C715 1.386 . S
H713 C729 0.930 . S
H714 C730 0.931 . S
C715 H703 0.929 . S
C715 C709 1.390 . S
C715 C712 1.386 . S
C716 C711 1.490 . S
C716 C718 1.395 . S
C716 C719 1.403 . S
H717 C723 0.930 . S
C718 H704 0.930 . S
C718 C716 1.395 . S
C718 C721 1.403 1_556 S
C719 C716 1.403 . S
C719 C720 1.524 . S
C719 C723 1.400 1_556 S
C720 H705 0.960 . S
C720 H706 0.960 . S
C720 H707 0.960 . S
C720 C719 1.524 . S
C721 C718 1.403 1_554 S
C721 C722 1.392 . S
C721 C725 1.495 . S
C722 C721 1.392 . S
C722 C723 1.385 . S
C722 C724 1.478 . S
C723 H717 0.930 . S
C723 C719 1.400 1_554 S
C723 C722 1.385 . S
C724 C722 1.478 . S
C724 C726 1.381 . S
C724 C730 1.383 . S
C725 C721 1.495 . S
C725 H731 0.959 1_554 S
C725 H732 0.961 . S
C725 H733 0.960 . S
C726 C724 1.381 . S
C726 C727 1.394 . S
C726 H734 0.930 . S
C727 C726 1.394 . S
C727 C728 1.383 . S
C727 H735 0.929 . S
C728 C727 1.383 . S
C728 C729 1.377 . S
C729 H713 0.930 . S
C729 C728 1.377 . S
C729 C730 1.379 . S
C730 H714 0.931 . S
C730 C724 1.383 . S
C730 C729 1.379 . S
H731 C725 0.959 1_556 S
H732 C725 0.961 . S
H733 C725 0.960 . S
H734 C726 0.930 . S
H735 C727 0.929 . S
H736 C744 0.929 . S
H737 C746 0.930 . S
H738 C748 0.930 . S
H739 C751 0.929 . S
H740 C754 0.930 . S
H741 C756 0.960 . S
H742 C756 0.960 . S
H743 C756 0.960 . S
C744 H736 0.929 . S
C744 C745 1.377 . S
C744 C746 1.384 . S
C745 C744 1.377 . S
C745 C751 1.390 . S
C746 H737 0.930 . S
C746 C744 1.384 . S
C746 C747 1.372 . S
C747 C746 1.372 . S
C747 C748 1.400 . S
C747 C752 1.490 . S
C748 H738 0.930 . S
C748 C747 1.400 . S
C748 C751 1.386 . S
H749 C765 0.930 . S
H750 C766 0.931 . S
C751 H739 0.929 . S
C751 C745 1.390 . S
C751 C748 1.386 . S
C752 C747 1.490 . S
C752 C754 1.395 . S
C752 C755 1.403 . S
H753 C759 0.930 . S
C754 H740 0.930 . S
C754 C752 1.395 . S
C754 C757 1.403 . S
C755 C752 1.403 . S
C755 C756 1.524 . S
C755 C759 1.400 . S
C756 H741 0.960 . S
C756 H742 0.960 . S
C756 H743 0.960 . S
C756 C755 1.524 . S
C757 C754 1.403 . S
C757 C758 1.392 . S
C757 C761 1.495 . S
C758 C757 1.392 . S
C758 C759 1.385 . S
C758 C760 1.478 . S
C759 H753 0.930 . S
C759 C755 1.400 . S
C759 C758 1.385 . S
C760 C758 1.478 . S
C760 C762 1.381 . S
C760 C766 1.383 . S
C761 C757 1.495 . S
C761 H767 0.959 . S
C761 H768 0.961 . S
C761 H769 0.960 . S
C762 C760 1.381 . S
C762 C763 1.394 . S
C762 H770 0.930 . S
C763 C762 1.394 . S
C763 C764 1.383 . S
C763 H771 0.929 . S
C764 C763 1.383 . S
C764 C765 1.377 . S
C765 H749 0.930 . S
C765 C764 1.377 . S
C765 C766 1.379 . S
C766 H750 0.931 . S
C766 C760 1.383 . S
C766 C765 1.379 . S
H767 C761 0.959 . S
H768 C761 0.961 . S
H769 C761 0.960 . S
H770 C762 0.930 . S
H771 C763 0.929 . S
H772 C780 0.929 . S
H773 C782 0.930 . S
H774 C784 0.930 . S
H775 C787 0.929 . S
H776 C790 0.930 . S
H777 C792 0.960 . S
H778 C792 0.960 . S
H779 C792 0.960 . S
C780 H772 0.929 . S
C780 C781 1.377 . S
C780 C782 1.384 . S
C781 C780 1.377 . S
C781 C787 1.390 . S
C782 H773 0.930 . S
C782 C780 1.384 . S
C782 C783 1.372 . S
C783 C782 1.372 . S
C783 C784 1.400 . S
C783 C788 1.490 . S
C784 H774 0.930 . S
C784 C783 1.400 . S
C784 C787 1.386 . S
H785 C801 0.930 . S
H786 C802 0.931 . S
C787 H775 0.929 . S
C787 C781 1.390 . S
C787 C784 1.386 . S
C788 C783 1.490 . S
C788 C790 1.395 . S
C788 C791 1.403 . S
H789 C795 0.930 . S
C790 H776 0.930 . S
C790 C788 1.395 . S
C790 C793 1.403 . S
C791 C788 1.403 . S
C791 C792 1.524 . S
C791 C795 1.400 . S
C792 H777 0.960 . S
C792 H778 0.960 . S
C792 H779 0.960 . S
C792 C791 1.524 . S
C793 C790 1.403 . S
C793 C794 1.392 . S
C793 C797 1.495 . S
C794 C793 1.392 . S
C794 C795 1.385 . S
C794 C796 1.478 . S
C795 H789 0.930 . S
C795 C791 1.400 . S
C795 C794 1.385 . S
C796 C794 1.478 . S
C796 C798 1.381 . S
C796 C802 1.383 . S
C797 C793 1.495 . S
C797 H803 0.959 . S
C797 H804 0.961 . S
C797 H805 0.960 . S
C798 C796 1.381 . S
C798 C799 1.394 . S
C798 H806 0.930 . S
C799 C798 1.394 . S
C799 C800 1.383 . S
C799 H807 0.929 . S
C800 C799 1.383 . S
C800 C801 1.377 . S
C801 H785 0.930 . S
C801 C800 1.377 . S
C801 C802 1.379 . S
C802 H786 0.931 . S
C802 C796 1.383 . S
C802 C801 1.379 . S
H803 C797 0.959 . S
H804 C797 0.961 . S
H805 C797 0.960 . S
H806 C798 0.930 . S
H807 C799 0.929 . S
H808 C816 0.929 . S
H809 C818 0.930 . S
H810 C820 0.930 . S
H811 C823 0.929 . S
H812 C826 0.930 . S
H813 C828 0.960 . S
H814 C828 0.960 . S
H815 C828 0.960 . S
C816 H808 0.929 . S
C816 C817 1.377 . S
C816 C818 1.384 . S
C817 C816 1.377 . S
C817 C823 1.390 . S
C818 H809 0.930 . S
C818 C816 1.384 . S
C818 C819 1.372 . S
C819 C818 1.372 . S
C819 C820 1.400 . S
C819 C824 1.490 . S
C820 H810 0.930 . S
C820 C819 1.400 . S
C820 C823 1.386 . S
H821 C837 0.930 . S
H822 C838 0.931 . S
C823 H811 0.929 . S
C823 C817 1.390 . S
C823 C820 1.386 . S
C824 C819 1.490 . S
C824 C826 1.395 . S
C824 C827 1.403 . S
H825 C831 0.930 . S
C826 H812 0.930 . S
C826 C824 1.395 . S
C826 C829 1.403 . S
C827 C824 1.403 . S
C827 C828 1.524 . S
C827 C831 1.400 . S
C828 H813 0.960 . S
C828 H814 0.960 . S
C828 H815 0.960 . S
C828 C827 1.524 . S
C829 C826 1.403 . S
C829 C830 1.392 . S
C829 C833 1.495 . S
C830 C829 1.392 . S
C830 C831 1.385 . S
C830 C832 1.478 . S
C831 H825 0.930 . S
C831 C827 1.400 . S
C831 C830 1.385 . S
C832 C830 1.478 . S
C832 C834 1.381 . S
C832 C838 1.383 . S
C833 C829 1.495 . S
C833 H839 0.959 . S
C833 H840 0.961 . S
C833 H841 0.960 . S
C834 C832 1.381 . S
C834 C835 1.394 . S
C834 H842 0.930 . S
C835 C834 1.394 . S
C835 C836 1.383 . S
C835 H843 0.929 . S
C836 C835 1.383 . S
C836 C837 1.377 . S
C837 H821 0.930 . S
C837 C836 1.377 . S
C837 C838 1.379 . S
C838 H822 0.931 . S
C838 C832 1.383 . S
C838 C837 1.379 . S
H839 C833 0.959 . S
H840 C833 0.961 . S
H841 C833 0.960 . S
H842 C834 0.930 . S
H843 C835 0.929 . S
H844 C852 0.929 . S
H845 C854 0.930 . S
H846 C856 0.930 . S
H847 C859 0.929 . S
H848 C862 0.930 . S
H849 C864 0.960 . S
H850 C864 0.960 . S
H851 C864 0.960 . S
C852 H844 0.929 . S
C852 C853 1.377 . S
C852 C854 1.384 . S
C853 C852 1.377 . S
C853 C859 1.390 . S
C854 H845 0.930 . S
C854 C852 1.384 . S
C854 C855 1.372 . S
C855 C854 1.372 . S
C855 C856 1.400 . S
C855 C860 1.490 . S
C856 H846 0.930 . S
C856 C855 1.400 . S
C856 C859 1.386 . S
H857 C873 0.930 . S
H858 C874 0.931 . S
C859 H847 0.929 . S
C859 C853 1.390 . S
C859 C856 1.386 . S
C860 C855 1.490 . S
C860 C862 1.395 . S
C860 C863 1.403 . S
H861 C867 0.930 . S
C862 H848 0.930 . S
C862 C860 1.395 . S
C862 C865 1.403 . S
C863 C860 1.403 . S
C863 C864 1.524 . S
C863 C867 1.400 . S
C864 H849 0.960 . S
C864 H850 0.960 . S
C864 H851 0.960 . S
C864 C863 1.524 . S
C865 C862 1.403 . S
C865 C866 1.392 . S
C865 C869 1.495 . S
C866 C865 1.392 . S
C866 C867 1.385 . S
C866 C868 1.478 . S
C867 H861 0.930 . S
C867 C863 1.400 . S
C867 C866 1.385 . S
C868 C866 1.478 . S
C868 C870 1.381 . S
C868 C874 1.383 . S
C869 C865 1.495 . S
C869 H875 0.959 . S
C869 H876 0.961 . S
C869 H877 0.960 . S
C870 C868 1.381 . S
C870 C871 1.394 . S
C870 H878 0.930 . S
C871 C870 1.394 . S
C871 C872 1.383 . S
C871 H879 0.929 . S
C872 C871 1.383 . S
C872 C873 1.377 . S
C873 H857 0.930 . S
C873 C872 1.377 . S
C873 C874 1.379 . S
C874 H858 0.931 . S
C874 C868 1.383 . S
C874 C873 1.379 . S
H875 C869 0.959 . S
H876 C869 0.961 . S
H877 C869 0.960 . S
H878 C870 0.930 . S
H879 C871 0.929 . S
H880 C888 0.929 . S
H881 C890 0.930 . S
H882 C892 0.930 . S
H883 C895 0.929 . S
H884 C898 0.930 . S
H885 C900 0.960 . S
H886 C900 0.960 . S
H887 C900 0.960 . S
C888 H880 0.929 . S
C888 C889 1.377 . S
C888 C890 1.384 . S
C889 C888 1.377 . S
C889 C895 1.390 . S
C890 H881 0.930 . S
C890 C888 1.384 . S
C890 C891 1.372 . S
C891 C890 1.372 . S
C891 C892 1.400 . S
C891 C896 1.490 . S
C892 H882 0.930 . S
C892 C891 1.400 . S
C892 C895 1.386 . S
H893 C909 0.930 . S
H894 C910 0.931 . S
C895 H883 0.929 . S
C895 C889 1.390 . S
C895 C892 1.386 . S
C896 C891 1.490 . S
C896 C898 1.395 . S
C896 C899 1.403 . S
H897 C903 0.930 . S
C898 H884 0.930 . S
C898 C896 1.395 . S
C898 C901 1.403 1_455 S
C899 C896 1.403 . S
C899 C900 1.524 . S
C899 C903 1.400 1_455 S
C900 H885 0.960 . S
C900 H886 0.960 . S
C900 H887 0.960 . S
C900 C899 1.524 . S
C901 C898 1.403 1_655 S
C901 C902 1.392 . S
C901 C905 1.495 . S
C902 C901 1.392 . S
C902 C903 1.385 . S
C902 C904 1.478 . S
C903 H897 0.930 . S
C903 C899 1.400 1_655 S
C903 C902 1.385 . S
C904 C902 1.478 . S
C904 C906 1.381 . S
C904 C910 1.383 . S
C905 C901 1.495 . S
C905 H911 0.959 . S
C905 H912 0.961 . S
C905 H913 0.960 . S
C906 C904 1.381 . S
C906 C907 1.394 . S
C906 H914 0.930 . S
C907 C906 1.394 . S
C907 C908 1.383 . S
C907 H915 0.929 . S
C908 C907 1.383 . S
C908 C909 1.377 . S
C909 H893 0.930 . S
C909 C908 1.377 . S
C909 C910 1.379 . S
C910 H894 0.931 . S
C910 C904 1.383 . S
C910 C909 1.379 . S
H911 C905 0.959 . S
H912 C905 0.961 . S
H913 C905 0.960 . S
H914 C906 0.930 . S
H915 C907 0.929 . S
H916 C924 0.929 . S
H917 C926 0.930 . S
H918 C928 0.930 . S
H919 C931 0.929 . S
H920 C934 0.930 . S
H921 C936 0.960 . S
H922 C936 0.960 . S
H923 C936 0.960 . S
C924 H916 0.929 . S
C924 C925 1.377 . S
C924 C926 1.384 . S
C925 C924 1.377 . S
C925 C931 1.390 . S
C926 H917 0.930 . S
C926 C924 1.384 . S
C926 C927 1.372 . S
C927 C926 1.372 . S
C927 C928 1.400 . S
C927 C932 1.490 . S
C928 H918 0.930 . S
C928 C927 1.400 . S
C928 C931 1.386 . S
H929 C945 0.930 . S
H930 C946 0.931 . S
C931 H919 0.929 . S
C931 C925 1.390 . S
C931 C928 1.386 . S
C932 C927 1.490 . S
C932 C934 1.395 . S
C932 C935 1.403 . S
H933 C939 0.930 . S
C934 H920 0.930 . S
C934 C932 1.395 . S
C934 C937 1.403 1_655 S
C935 C932 1.403 . S
C935 C936 1.524 . S
C935 C939 1.400 1_655 S
C936 H921 0.960 . S
C936 H922 0.960 . S
C936 H923 0.960 . S
C936 C935 1.524 . S
C937 C934 1.403 1_455 S
C937 C938 1.392 . S
C937 C941 1.495 . S
C938 C937 1.392 . S
C938 C939 1.385 . S
C938 C940 1.478 . S
C939 H933 0.930 . S
C939 C935 1.400 1_455 S
C939 C938 1.385 . S
C940 C938 1.478 . S
C940 C942 1.381 . S
C940 C946 1.383 . S
C941 C937 1.495 . S
C941 H947 0.959 . S
C941 H948 0.961 . S
C941 H949 0.960 . S
C942 C940 1.381 . S
C942 C943 1.394 . S
C942 H950 0.930 . S
C943 C942 1.394 . S
C943 C944 1.383 . S
C943 H951 0.929 . S
C944 C943 1.383 . S
C944 C945 1.377 . S
C945 H929 0.930 . S
C945 C944 1.377 . S
C945 C946 1.379 . S
C946 H930 0.931 . S
C946 C940 1.383 . S
C946 C945 1.379 . S
H947 C941 0.959 . S
H948 C941 0.961 . S
H949 C941 0.960 . S
H950 C942 0.930 . S
H951 C943 0.929 . S
H952 C960 0.929 . S
H953 C962 0.930 . S
H954 C964 0.930 . S
H955 C967 0.929 . S
H956 C970 0.930 . S
H957 C972 0.960 . S
H958 C972 0.960 . S
H959 C972 0.960 . S
C960 H952 0.929 . S
C960 C961 1.377 . S
C960 C962 1.384 . S
C961 C960 1.377 . S
C961 C967 1.390 . S
C962 H953 0.930 . S
C962 C960 1.384 . S
C962 C963 1.372 . S
C963 C962 1.372 . S
C963 C964 1.400 . S
C963 C968 1.490 . S
C964 H954 0.930 . S
C964 C963 1.400 . S
C964 C967 1.386 . S
H965 C981 0.930 . S
H966 C982 0.931 . S
C967 H955 0.929 . S
C967 C961 1.390 . S
C967 C964 1.386 . S
C968 C963 1.490 . S
C968 C970 1.395 1_556 S
C968 C971 1.403 . S
H969 C975 0.930 . S
C970 H956 0.930 . S
C970 C968 1.395 1_554 S
C970 C973 1.403 . S
C971 C968 1.403 . S
C971 C972 1.524 . S
C971 C975 1.400 . S
C972 H957 0.960 . S
C972 H958 0.960 . S
C972 H959 0.960 . S
C972 C971 1.524 . S
C973 C970 1.403 . S
C973 C974 1.392 1_554 S
C973 C977 1.495 . S
C974 C973 1.392 1_556 S
C974 C975 1.385 . S
C974 C976 1.478 . S
C975 H969 0.930 . S
C975 C971 1.400 . S
C975 C974 1.385 . S
C976 C974 1.478 . S
C976 C978 1.381 . S
C976 C982 1.383 . S
C977 C973 1.495 . S
C977 H983 0.959 . S
C977 H984 0.961 . S
C977 H985 0.960 . S
C978 C976 1.381 . S
C978 C979 1.394 . S
C978 H986 0.930 . S
C979 C978 1.394 . S
C979 C980 1.383 . S
C979 H987 0.929 . S
C980 C979 1.383 . S
C980 C981 1.377 . S
C981 H965 0.930 . S
C981 C980 1.377 . S
C981 C982 1.379 . S
C982 H966 0.931 . S
C982 C976 1.383 . S
C982 C981 1.379 . S
H983 C977 0.959 . S
H984 C977 0.961 . S
H985 C977 0.960 . S
H986 C978 0.930 . S
H987 C979 0.929 . S
H988 C996 0.929 . S
H989 C998 0.930 . S
H990 C1000 0.930 . S
H991 C1003 0.929 . S
H992 C1006 0.930 . S
H993 C1008 0.960 . S
H994 C1008 0.960 . S
H995 C1008 0.960 . S
C996 H988 0.929 . S
C996 C997 1.377 . S
C996 C998 1.384 . S
C997 C996 1.377 . S
C997 C1003 1.390 . S
C998 H989 0.930 . S
C998 C996 1.384 . S
C998 C999 1.372 . S
C999 C998 1.372 . S
C999 C1000 1.400 . S
C999 C1004 1.490 . S
C1000 H990 0.930 . S
C1000 C999 1.400 . S
C1000 C1003 1.386 . S
H1001 C1017 0.930 . S
H1002 C1018 0.931 . S
C1003 H991 0.929 . S
C1003 C997 1.390 . S
C1003 C1000 1.386 . S
C1004 C999 1.490 . S
C1004 C1006 1.395 . S
C1004 C1007 1.403 . S
H1005 C1011 0.930 1_556 S
C1006 H992 0.930 . S
C1006 C1004 1.395 . S
C1006 C1009 1.403 . S
C1007 C1004 1.403 . S
C1007 C1008 1.524 1_554 S
C1007 C1011 1.400 . S
C1008 H993 0.960 . S
C1008 H994 0.960 . S
C1008 H995 0.960 . S
C1008 C1007 1.524 1_556 S
C1009 C1006 1.403 . S
C1009 C1010 1.392 . S
C1009 C1013 1.495 . S
C1010 C1009 1.392 . S
C1010 C1011 1.385 . S
C1010 C1012 1.478 . S
C1011 H1005 0.930 1_554 S
C1011 C1007 1.400 . S
C1011 C1010 1.385 . S
C1012 C1010 1.478 . S
C1012 C1014 1.381 . S
C1012 C1018 1.383 . S
C1013 C1009 1.495 . S
C1013 H1019 0.959 . S
C1013 H1020 0.961 . S
C1013 H1021 0.960 . S
C1014 C1012 1.381 . S
C1014 C1015 1.394 . S
C1014 H1022 0.930 . S
C1015 C1014 1.394 . S
C1015 C1016 1.383 . S
C1015 H1023 0.929 . S
C1016 C1015 1.383 . S
C1016 C1017 1.377 . S
C1017 H1001 0.930 . S
C1017 C1016 1.377 . S
C1017 C1018 1.379 . S
C1018 H1002 0.931 . S
C1018 C1012 1.383 . S
C1018 C1017 1.379 . S
H1019 C1013 0.959 . S
H1020 C1013 0.961 . S
H1021 C1013 0.960 . S
H1022 C1014 0.930 . S
H1023 C1015 0.929 . S
C169 C19 1.844 . S
C188 C148 1.839 . S
C205 C139 1.837 . S
C224 C28 1.828 . S
C241 C108 1.844 . S
C260 C59 1.854 . S
C277 C99 1.845 . S
C296 C68 1.848 . S
C313 C41 1.852 . S
C332 C1 1.864 . S
C349 C21 1.139 . S
C368 C61 1.133 . S
C385 C69 1.857 . S
C404 C29 1.863 . S
C421 C49 1.136 . S
C440 C9 1.138 . S
C457 C81 1.857 . S
C476 C121 1.837 . S
C493 C101 1.139 . S
C512 C141 1.150 . S
C529 C149 1.853 . S
C548 C109 1.837 . S
C565 C129 1.144 . S
C584 C89 1.142 . S
C601 C16 1.514 . S
C620 C6 1.537 . S
C637 C26 1.518 . S
C656 C36 1.511 . S
C673 C46 1.515 . S
C692 C56 1.493 . S
C709 C66 1.507 . S
C728 C76 1.504 . S
C745 C86 1.517 . S
C764 C96 1.536 . S
C781 C106 1.511 . S
C800 C116 1.482 . S
C817 C136 1.509 . S
C836 C126 1.480 . S
C853 C146 1.516 . S
C872 C156 1.537 . S
C889 C8 1.861 . S
C908 C39 1.827 . S
C925 C79 1.858 . S
C944 C48 1.865 . S
C961 C88 1.854 . S
C980 C119 1.819 . S
C997 C159 1.848 . S
C1016 C128 1.881 . S
