# Generated by pormake.
# Topology pbg, (3)-cn, num edge types: 1
# Building blocks:
#     Node 0, Type 0, BuildingBlock: WUSLED_clean_sbu_0, # of connection points: 3
#     Node 1, Type 0, BuildingBlock: WUSLED_clean_sbu_0, # of connection points: 3
#     Node 2, Type 0, BuildingBlock: WUSLED_clean_sbu_0, # of connection points: 3
#     Node 3, Type 0, BuildingBlock: WUSLED_clean_sbu_0, # of connection points: 3
#     Node 4, Type 0, BuildingBlock: WUSLED_clean_sbu_0, # of connection points: 3
#     Node 5, Type 0, BuildingBlock: WUSLED_clean_sbu_0, # of connection points: 3
#     Node 6, Type 0, BuildingBlock: WUSLED_clean_sbu_0, # of connection points: 3
#     Node 7, Type 0, BuildingBlock: WUSLED_clean_sbu_0, # of connection points: 3
#     Node 8, Type 0, BuildingBlock: WUSLED_clean_sbu_0, # of connection points: 3
#     Node 9, Type 0, BuildingBlock: WUSLED_clean_sbu_0, # of connection points: 3
#     Node 10, Type 0, BuildingBlock: WUSLED_clean_sbu_0, # of connection points: 3
#     Node 11, Type 0, BuildingBlock: WUSLED_clean_sbu_0, # of connection points: 3
#     Node 12, Type 0, BuildingBlock: WUSLED_clean_sbu_0, # of connection points: 3
#     Node 13, Type 0, BuildingBlock: WUSLED_clean_sbu_0, # of connection points: 3
#     Node 14, Type 0, BuildingBlock: WUSLED_clean_sbu_0, # of connection points: 3
#     Node 15, Type 0, BuildingBlock: WUSLED_clean_sbu_0, # of connection points: 3
#     Node 16, Type 0, BuildingBlock: WUSLED_clean_sbu_0, # of connection points: 3
#     Node 17, Type 0, BuildingBlock: WUSLED_clean_sbu_0, # of connection points: 3
#     Node 18, Type 0, BuildingBlock: WUSLED_clean_sbu_0, # of connection points: 3
#     Node 19, Type 0, BuildingBlock: WUSLED_clean_sbu_0, # of connection points: 3
#     Node 20, Type 0, BuildingBlock: WUSLED_clean_sbu_0, # of connection points: 3
#     Node 21, Type 0, BuildingBlock: WUSLED_clean_sbu_0, # of connection points: 3
#     Node 22, Type 0, BuildingBlock: WUSLED_clean_sbu_0, # of connection points: 3
#     Node 23, Type 0, BuildingBlock: WUSLED_clean_sbu_0, # of connection points: 3
#     Node 24, Type 0, BuildingBlock: WUSLED_clean_sbu_0, # of connection points: 3
#     Node 25, Type 0, BuildingBlock: WUSLED_clean_sbu_0, # of connection points: 3
#     Node 26, Type 0, BuildingBlock: WUSLED_clean_sbu_0, # of connection points: 3
#     Node 27, Type 0, BuildingBlock: WUSLED_clean_sbu_0, # of connection points: 3
#     Node 28, Type 0, BuildingBlock: WUSLED_clean_sbu_0, # of connection points: 3
#     Node 29, Type 0, BuildingBlock: WUSLED_clean_sbu_0, # of connection points: 3
#     Node 30, Type 0, BuildingBlock: WUSLED_clean_sbu_0, # of connection points: 3
#     Node 31, Type 0, BuildingBlock: WUSLED_clean_sbu_0, # of connection points: 3
#     Node 32, Type 0, BuildingBlock: WUSLED_clean_sbu_0, # of connection points: 3
#     Node 33, Type 0, BuildingBlock: WUSLED_clean_sbu_0, # of connection points: 3
#     Node 34, Type 0, BuildingBlock: WUSLED_clean_sbu_0, # of connection points: 3
#     Node 35, Type 0, BuildingBlock: WUSLED_clean_sbu_0, # of connection points: 3
#     Node 36, Type 0, BuildingBlock: WUSLED_clean_sbu_0, # of connection points: 3
#     Node 37, Type 0, BuildingBlock: WUSLED_clean_sbu_0, # of connection points: 3
#     Node 38, Type 0, BuildingBlock: WUSLED_clean_sbu_0, # of connection points: 3
#     Node 39, Type 0, BuildingBlock: WUSLED_clean_sbu_0, # of connection points: 3
#     Node 40, Type 0, BuildingBlock: WUSLED_clean_sbu_0, # of connection points: 3
#     Node 41, Type 0, BuildingBlock: WUSLED_clean_sbu_0, # of connection points: 3
#     Node 42, Type 0, BuildingBlock: WUSLED_clean_sbu_0, # of connection points: 3
#     Node 43, Type 0, BuildingBlock: WUSLED_clean_sbu_0, # of connection points: 3
#     Node 44, Type 0, BuildingBlock: WUSLED_clean_sbu_0, # of connection points: 3
#     Node 45, Type 0, BuildingBlock: WUSLED_clean_sbu_0, # of connection points: 3
#     Node 46, Type 0, BuildingBlock: WUSLED_clean_sbu_0, # of connection points: 3
#     Node 47, Type 0, BuildingBlock: WUSLED_clean_sbu_0, # of connection points: 3
#     Node 48, Type 0, BuildingBlock: WUSLED_clean_sbu_0, # of connection points: 3
#     Node 49, Type 0, BuildingBlock: WUSLED_clean_sbu_0, # of connection points: 3
#     Node 50, Type 0, BuildingBlock: WUSLED_clean_sbu_0, # of connection points: 3
#     Node 51, Type 0, BuildingBlock: WUSLED_clean_sbu_0, # of connection points: 3
#     Node 52, Type 0, BuildingBlock: WUSLED_clean_sbu_0, # of connection points: 3
#     Node 53, Type 0, BuildingBlock: WUSLED_clean_sbu_0, # of connection points: 3
#     Node 54, Type 0, BuildingBlock: WUSLED_clean_sbu_0, # of connection points: 3
#     Node 55, Type 0, BuildingBlock: WUSLED_clean_sbu_0, # of connection points: 3
#     Node 56, Type 0, BuildingBlock: WUSLED_clean_sbu_0, # of connection points: 3
#     Node 57, Type 0, BuildingBlock: WUSLED_clean_sbu_0, # of connection points: 3
#     Node 58, Type 0, BuildingBlock: WUSLED_clean_sbu_0, # of connection points: 3
#     Node 59, Type 0, BuildingBlock: WUSLED_clean_sbu_0, # of connection points: 3
#     Node 60, Type 0, BuildingBlock: WUSLED_clean_sbu_0, # of connection points: 3
#     Node 61, Type 0, BuildingBlock: WUSLED_clean_sbu_0, # of connection points: 3
#     Node 62, Type 0, BuildingBlock: WUSLED_clean_sbu_0, # of connection points: 3
#     Node 63, Type 0, BuildingBlock: WUSLED_clean_sbu_0, # of connection points: 3
#     Node 64, Type 0, BuildingBlock: WUSLED_clean_sbu_0, # of connection points: 3
#     Node 65, Type 0, BuildingBlock: WUSLED_clean_sbu_0, # of connection points: 3
#     Node 66, Type 0, BuildingBlock: WUSLED_clean_sbu_0, # of connection points: 3
#     Node 67, Type 0, BuildingBlock: WUSLED_clean_sbu_0, # of connection points: 3
#     Node 68, Type 0, BuildingBlock: WUSLED_clean_sbu_0, # of connection points: 3
#     Node 69, Type 0, BuildingBlock: WUSLED_clean_sbu_0, # of connection points: 3
#     Node 70, Type 0, BuildingBlock: WUSLED_clean_sbu_0, # of connection points: 3
#     Node 71, Type 0, BuildingBlock: WUSLED_clean_sbu_0, # of connection points: 3
#     Node 72, Type 0, BuildingBlock: WUSLED_clean_sbu_0, # of connection points: 3
#     Node 73, Type 0, BuildingBlock: WUSLED_clean_sbu_0, # of connection points: 3
#     Node 74, Type 0, BuildingBlock: WUSLED_clean_sbu_0, # of connection points: 3
#     Node 75, Type 0, BuildingBlock: WUSLED_clean_sbu_0, # of connection points: 3
#     Node 76, Type 0, BuildingBlock: WUSLED_clean_sbu_0, # of connection points: 3
#     Node 77, Type 0, BuildingBlock: WUSLED_clean_sbu_0, # of connection points: 3
#     Node 78, Type 0, BuildingBlock: WUSLED_clean_sbu_0, # of connection points: 3
#     Node 79, Type 0, BuildingBlock: WUSLED_clean_sbu_0, # of connection points: 3
#     Node 80, Type 0, BuildingBlock: WUSLED_clean_sbu_0, # of connection points: 3
#     Node 81, Type 0, BuildingBlock: WUSLED_clean_sbu_0, # of connection points: 3
#     Node 82, Type 0, BuildingBlock: WUSLED_clean_sbu_0, # of connection points: 3
#     Node 83, Type 0, BuildingBlock: WUSLED_clean_sbu_0, # of connection points: 3
#     Node 84, Type 0, BuildingBlock: WUSLED_clean_sbu_0, # of connection points: 3
#     Node 85, Type 0, BuildingBlock: WUSLED_clean_sbu_0, # of connection points: 3
#     Node 86, Type 0, BuildingBlock: WUSLED_clean_sbu_0, # of connection points: 3
#     Node 87, Type 0, BuildingBlock: WUSLED_clean_sbu_0, # of connection points: 3
#     Node 88, Type 0, BuildingBlock: WUSLED_clean_sbu_0, # of connection points: 3
#     Node 89, Type 0, BuildingBlock: WUSLED_clean_sbu_0, # of connection points: 3
#     Node 90, Type 0, BuildingBlock: WUSLED_clean_sbu_0, # of connection points: 3
#     Node 91, Type 0, BuildingBlock: WUSLED_clean_sbu_0, # of connection points: 3
#     Node 92, Type 0, BuildingBlock: WUSLED_clean_sbu_0, # of connection points: 3
#     Node 93, Type 0, BuildingBlock: WUSLED_clean_sbu_0, # of connection points: 3
#     Node 94, Type 0, BuildingBlock: WUSLED_clean_sbu_0, # of connection points: 3
#     Node 95, Type 0, BuildingBlock: WUSLED_clean_sbu_0, # of connection points: 3
#     Edge 96, Type (0, 0), BuildingBlock: ZUJKAS_clean_linker_0, # of connection points: 2
#     Edge 97, Type (0, 0), BuildingBlock: ZUJKAS_clean_linker_0, # of connection points: 2
#     Edge 98, Type (0, 0), BuildingBlock: ZUJKAS_clean_linker_0, # of connection points: 2
#     Edge 99, Type (0, 0), BuildingBlock: ZUJKAS_clean_linker_0, # of connection points: 2
#     Edge 100, Type (0, 0), BuildingBlock: ZUJKAS_clean_linker_0, # of connection points: 2
#     Edge 101, Type (0, 0), BuildingBlock: ZUJKAS_clean_linker_0, # of connection points: 2
#     Edge 102, Type (0, 0), BuildingBlock: ZUJKAS_clean_linker_0, # of connection points: 2
#     Edge 103, Type (0, 0), BuildingBlock: ZUJKAS_clean_linker_0, # of connection points: 2
#     Edge 104, Type (0, 0), BuildingBlock: ZUJKAS_clean_linker_0, # of connection points: 2
#     Edge 105, Type (0, 0), BuildingBlock: ZUJKAS_clean_linker_0, # of connection points: 2
#     Edge 106, Type (0, 0), BuildingBlock: ZUJKAS_clean_linker_0, # of connection points: 2
#     Edge 107, Type (0, 0), BuildingBlock: ZUJKAS_clean_linker_0, # of connection points: 2
#     Edge 108, Type (0, 0), BuildingBlock: ZUJKAS_clean_linker_0, # of connection points: 2
#     Edge 109, Type (0, 0), BuildingBlock: ZUJKAS_clean_linker_0, # of connection points: 2
#     Edge 110, Type (0, 0), BuildingBlock: ZUJKAS_clean_linker_0, # of connection points: 2
#     Edge 111, Type (0, 0), BuildingBlock: ZUJKAS_clean_linker_0, # of connection points: 2
#     Edge 112, Type (0, 0), BuildingBlock: ZUJKAS_clean_linker_0, # of connection points: 2
#     Edge 113, Type (0, 0), BuildingBlock: ZUJKAS_clean_linker_0, # of connection points: 2
#     Edge 114, Type (0, 0), BuildingBlock: ZUJKAS_clean_linker_0, # of connection points: 2
#     Edge 115, Type (0, 0), BuildingBlock: ZUJKAS_clean_linker_0, # of connection points: 2
#     Edge 116, Type (0, 0), BuildingBlock: ZUJKAS_clean_linker_0, # of connection points: 2
#     Edge 117, Type (0, 0), BuildingBlock: ZUJKAS_clean_linker_0, # of connection points: 2
#     Edge 118, Type (0, 0), BuildingBlock: ZUJKAS_clean_linker_0, # of connection points: 2
#     Edge 119, Type (0, 0), BuildingBlock: ZUJKAS_clean_linker_0, # of connection points: 2
#     Edge 120, Type (0, 0), BuildingBlock: ZUJKAS_clean_linker_0, # of connection points: 2
#     Edge 121, Type (0, 0), BuildingBlock: ZUJKAS_clean_linker_0, # of connection points: 2
#     Edge 122, Type (0, 0), BuildingBlock: ZUJKAS_clean_linker_0, # of connection points: 2
#     Edge 123, Type (0, 0), BuildingBlock: ZUJKAS_clean_linker_0, # of connection points: 2
#     Edge 124, Type (0, 0), BuildingBlock: ZUJKAS_clean_linker_0, # of connection points: 2
#     Edge 125, Type (0, 0), BuildingBlock: ZUJKAS_clean_linker_0, # of connection points: 2
#     Edge 126, Type (0, 0), BuildingBlock: ZUJKAS_clean_linker_0, # of connection points: 2
#     Edge 127, Type (0, 0), BuildingBlock: ZUJKAS_clean_linker_0, # of connection points: 2
#     Edge 128, Type (0, 0), BuildingBlock: ZUJKAS_clean_linker_0, # of connection points: 2
#     Edge 129, Type (0, 0), BuildingBlock: ZUJKAS_clean_linker_0, # of connection points: 2
#     Edge 130, Type (0, 0), BuildingBlock: ZUJKAS_clean_linker_0, # of connection points: 2
#     Edge 131, Type (0, 0), BuildingBlock: ZUJKAS_clean_linker_0, # of connection points: 2
#     Edge 132, Type (0, 0), BuildingBlock: ZUJKAS_clean_linker_0, # of connection points: 2
#     Edge 133, Type (0, 0), BuildingBlock: ZUJKAS_clean_linker_0, # of connection points: 2
#     Edge 134, Type (0, 0), BuildingBlock: ZUJKAS_clean_linker_0, # of connection points: 2
#     Edge 135, Type (0, 0), BuildingBlock: ZUJKAS_clean_linker_0, # of connection points: 2
#     Edge 136, Type (0, 0), BuildingBlock: ZUJKAS_clean_linker_0, # of connection points: 2
#     Edge 137, Type (0, 0), BuildingBlock: ZUJKAS_clean_linker_0, # of connection points: 2
#     Edge 138, Type (0, 0), BuildingBlock: ZUJKAS_clean_linker_0, # of connection points: 2
#     Edge 139, Type (0, 0), BuildingBlock: ZUJKAS_clean_linker_0, # of connection points: 2
#     Edge 140, Type (0, 0), BuildingBlock: ZUJKAS_clean_linker_0, # of connection points: 2
#     Edge 141, Type (0, 0), BuildingBlock: ZUJKAS_clean_linker_0, # of connection points: 2
#     Edge 142, Type (0, 0), BuildingBlock: ZUJKAS_clean_linker_0, # of connection points: 2
#     Edge 143, Type (0, 0), BuildingBlock: ZUJKAS_clean_linker_0, # of connection points: 2
#     Edge 144, Type (0, 0), BuildingBlock: ZUJKAS_clean_linker_0, # of connection points: 2
#     Edge 145, Type (0, 0), BuildingBlock: ZUJKAS_clean_linker_0, # of connection points: 2
#     Edge 146, Type (0, 0), BuildingBlock: ZUJKAS_clean_linker_0, # of connection points: 2
#     Edge 147, Type (0, 0), BuildingBlock: ZUJKAS_clean_linker_0, # of connection points: 2
#     Edge 148, Type (0, 0), BuildingBlock: ZUJKAS_clean_linker_0, # of connection points: 2
#     Edge 149, Type (0, 0), BuildingBlock: ZUJKAS_clean_linker_0, # of connection points: 2
#     Edge 150, Type (0, 0), BuildingBlock: ZUJKAS_clean_linker_0, # of connection points: 2
#     Edge 151, Type (0, 0), BuildingBlock: ZUJKAS_clean_linker_0, # of connection points: 2
#     Edge 152, Type (0, 0), BuildingBlock: ZUJKAS_clean_linker_0, # of connection points: 2
#     Edge 153, Type (0, 0), BuildingBlock: ZUJKAS_clean_linker_0, # of connection points: 2
#     Edge 154, Type (0, 0), BuildingBlock: ZUJKAS_clean_linker_0, # of connection points: 2
#     Edge 155, Type (0, 0), BuildingBlock: ZUJKAS_clean_linker_0, # of connection points: 2
#     Edge 156, Type (0, 0), BuildingBlock: ZUJKAS_clean_linker_0, # of connection points: 2
#     Edge 157, Type (0, 0), BuildingBlock: ZUJKAS_clean_linker_0, # of connection points: 2
#     Edge 158, Type (0, 0), BuildingBlock: ZUJKAS_clean_linker_0, # of connection points: 2
#     Edge 159, Type (0, 0), BuildingBlock: ZUJKAS_clean_linker_0, # of connection points: 2
#     Edge 160, Type (0, 0), BuildingBlock: ZUJKAS_clean_linker_0, # of connection points: 2
#     Edge 161, Type (0, 0), BuildingBlock: ZUJKAS_clean_linker_0, # of connection points: 2
#     Edge 162, Type (0, 0), BuildingBlock: ZUJKAS_clean_linker_0, # of connection points: 2
#     Edge 163, Type (0, 0), BuildingBlock: ZUJKAS_clean_linker_0, # of connection points: 2
#     Edge 164, Type (0, 0), BuildingBlock: ZUJKAS_clean_linker_0, # of connection points: 2
#     Edge 165, Type (0, 0), BuildingBlock: ZUJKAS_clean_linker_0, # of connection points: 2
#     Edge 166, Type (0, 0), BuildingBlock: ZUJKAS_clean_linker_0, # of connection points: 2
#     Edge 167, Type (0, 0), BuildingBlock: ZUJKAS_clean_linker_0, # of connection points: 2
#     Edge 168, Type (0, 0), BuildingBlock: ZUJKAS_clean_linker_0, # of connection points: 2
#     Edge 169, Type (0, 0), BuildingBlock: ZUJKAS_clean_linker_0, # of connection points: 2
#     Edge 170, Type (0, 0), BuildingBlock: ZUJKAS_clean_linker_0, # of connection points: 2
#     Edge 171, Type (0, 0), BuildingBlock: ZUJKAS_clean_linker_0, # of connection points: 2
#     Edge 172, Type (0, 0), BuildingBlock: ZUJKAS_clean_linker_0, # of connection points: 2
#     Edge 173, Type (0, 0), BuildingBlock: ZUJKAS_clean_linker_0, # of connection points: 2
#     Edge 174, Type (0, 0), BuildingBlock: ZUJKAS_clean_linker_0, # of connection points: 2
#     Edge 175, Type (0, 0), BuildingBlock: ZUJKAS_clean_linker_0, # of connection points: 2
#     Edge 176, Type (0, 0), BuildingBlock: ZUJKAS_clean_linker_0, # of connection points: 2
#     Edge 177, Type (0, 0), BuildingBlock: ZUJKAS_clean_linker_0, # of connection points: 2
#     Edge 178, Type (0, 0), BuildingBlock: ZUJKAS_clean_linker_0, # of connection points: 2
#     Edge 179, Type (0, 0), BuildingBlock: ZUJKAS_clean_linker_0, # of connection points: 2
#     Edge 180, Type (0, 0), BuildingBlock: ZUJKAS_clean_linker_0, # of connection points: 2
#     Edge 181, Type (0, 0), BuildingBlock: ZUJKAS_clean_linker_0, # of connection points: 2
#     Edge 182, Type (0, 0), BuildingBlock: ZUJKAS_clean_linker_0, # of connection points: 2
#     Edge 183, Type (0, 0), BuildingBlock: ZUJKAS_clean_linker_0, # of connection points: 2
#     Edge 184, Type (0, 0), BuildingBlock: ZUJKAS_clean_linker_0, # of connection points: 2
#     Edge 185, Type (0, 0), BuildingBlock: ZUJKAS_clean_linker_0, # of connection points: 2
#     Edge 186, Type (0, 0), BuildingBlock: ZUJKAS_clean_linker_0, # of connection points: 2
#     Edge 187, Type (0, 0), BuildingBlock: ZUJKAS_clean_linker_0, # of connection points: 2
#     Edge 188, Type (0, 0), BuildingBlock: ZUJKAS_clean_linker_0, # of connection points: 2
#     Edge 189, Type (0, 0), BuildingBlock: ZUJKAS_clean_linker_0, # of connection points: 2
#     Edge 190, Type (0, 0), BuildingBlock: ZUJKAS_clean_linker_0, # of connection points: 2
#     Edge 191, Type (0, 0), BuildingBlock: ZUJKAS_clean_linker_0, # of connection points: 2
#     Edge 192, Type (0, 0), BuildingBlock: ZUJKAS_clean_linker_0, # of connection points: 2
#     Edge 193, Type (0, 0), BuildingBlock: ZUJKAS_clean_linker_0, # of connection points: 2
#     Edge 194, Type (0, 0), BuildingBlock: ZUJKAS_clean_linker_0, # of connection points: 2
#     Edge 195, Type (0, 0), BuildingBlock: ZUJKAS_clean_linker_0, # of connection points: 2
#     Edge 196, Type (0, 0), BuildingBlock: ZUJKAS_clean_linker_0, # of connection points: 2
#     Edge 197, Type (0, 0), BuildingBlock: ZUJKAS_clean_linker_0, # of connection points: 2
#     Edge 198, Type (0, 0), BuildingBlock: ZUJKAS_clean_linker_0, # of connection points: 2
#     Edge 199, Type (0, 0), BuildingBlock: ZUJKAS_clean_linker_0, # of connection points: 2
#     Edge 200, Type (0, 0), BuildingBlock: ZUJKAS_clean_linker_0, # of connection points: 2
#     Edge 201, Type (0, 0), BuildingBlock: ZUJKAS_clean_linker_0, # of connection points: 2
#     Edge 202, Type (0, 0), BuildingBlock: ZUJKAS_clean_linker_0, # of connection points: 2
#     Edge 203, Type (0, 0), BuildingBlock: ZUJKAS_clean_linker_0, # of connection points: 2
#     Edge 204, Type (0, 0), BuildingBlock: ZUJKAS_clean_linker_0, # of connection points: 2
#     Edge 205, Type (0, 0), BuildingBlock: ZUJKAS_clean_linker_0, # of connection points: 2
#     Edge 206, Type (0, 0), BuildingBlock: ZUJKAS_clean_linker_0, # of connection points: 2
#     Edge 207, Type (0, 0), BuildingBlock: ZUJKAS_clean_linker_0, # of connection points: 2
#     Edge 208, Type (0, 0), BuildingBlock: ZUJKAS_clean_linker_0, # of connection points: 2
#     Edge 209, Type (0, 0), BuildingBlock: ZUJKAS_clean_linker_0, # of connection points: 2
#     Edge 210, Type (0, 0), BuildingBlock: ZUJKAS_clean_linker_0, # of connection points: 2
#     Edge 211, Type (0, 0), BuildingBlock: ZUJKAS_clean_linker_0, # of connection points: 2
#     Edge 212, Type (0, 0), BuildingBlock: ZUJKAS_clean_linker_0, # of connection points: 2
#     Edge 213, Type (0, 0), BuildingBlock: ZUJKAS_clean_linker_0, # of connection points: 2
#     Edge 214, Type (0, 0), BuildingBlock: ZUJKAS_clean_linker_0, # of connection points: 2
#     Edge 215, Type (0, 0), BuildingBlock: ZUJKAS_clean_linker_0, # of connection points: 2
#     Edge 216, Type (0, 0), BuildingBlock: ZUJKAS_clean_linker_0, # of connection points: 2
#     Edge 217, Type (0, 0), BuildingBlock: ZUJKAS_clean_linker_0, # of connection points: 2
#     Edge 218, Type (0, 0), BuildingBlock: ZUJKAS_clean_linker_0, # of connection points: 2
#     Edge 219, Type (0, 0), BuildingBlock: ZUJKAS_clean_linker_0, # of connection points: 2
#     Edge 220, Type (0, 0), BuildingBlock: ZUJKAS_clean_linker_0, # of connection points: 2
#     Edge 221, Type (0, 0), BuildingBlock: ZUJKAS_clean_linker_0, # of connection points: 2
#     Edge 222, Type (0, 0), BuildingBlock: ZUJKAS_clean_linker_0, # of connection points: 2
#     Edge 223, Type (0, 0), BuildingBlock: ZUJKAS_clean_linker_0, # of connection points: 2
#     Edge 224, Type (0, 0), BuildingBlock: ZUJKAS_clean_linker_0, # of connection points: 2
#     Edge 225, Type (0, 0), BuildingBlock: ZUJKAS_clean_linker_0, # of connection points: 2
#     Edge 226, Type (0, 0), BuildingBlock: ZUJKAS_clean_linker_0, # of connection points: 2
#     Edge 227, Type (0, 0), BuildingBlock: ZUJKAS_clean_linker_0, # of connection points: 2
#     Edge 228, Type (0, 0), BuildingBlock: ZUJKAS_clean_linker_0, # of connection points: 2
#     Edge 229, Type (0, 0), BuildingBlock: ZUJKAS_clean_linker_0, # of connection points: 2
#     Edge 230, Type (0, 0), BuildingBlock: ZUJKAS_clean_linker_0, # of connection points: 2
#     Edge 231, Type (0, 0), BuildingBlock: ZUJKAS_clean_linker_0, # of connection points: 2
#     Edge 232, Type (0, 0), BuildingBlock: ZUJKAS_clean_linker_0, # of connection points: 2
#     Edge 233, Type (0, 0), BuildingBlock: ZUJKAS_clean_linker_0, # of connection points: 2
#     Edge 234, Type (0, 0), BuildingBlock: ZUJKAS_clean_linker_0, # of connection points: 2
#     Edge 235, Type (0, 0), BuildingBlock: ZUJKAS_clean_linker_0, # of connection points: 2
#     Edge 236, Type (0, 0), BuildingBlock: ZUJKAS_clean_linker_0, # of connection points: 2
#     Edge 237, Type (0, 0), BuildingBlock: ZUJKAS_clean_linker_0, # of connection points: 2
#     Edge 238, Type (0, 0), BuildingBlock: ZUJKAS_clean_linker_0, # of connection points: 2
#     Edge 239, Type (0, 0), BuildingBlock: ZUJKAS_clean_linker_0, # of connection points: 2
# Relax obj value: 0.000
# Max RMSD: 0.005
# Mean RMSD: 0.005
data_MOF--net-pbg--node1-WUSLED_clean_sbu_0--edge1-ZUJKAS_clean_linker_0
_symmetry_space_group_name_H-M    P1
_symmetry_Int_Tables_number       1
_symmetry_cell_setting            triclinic
loop_
_symmetry_equiv_pos_as_xyz
'x, y, z'
_cell_length_a     185.51828
_cell_length_b     185.50817
_cell_length_c     185.39192
_cell_angle_alpha  90.021666
_cell_angle_beta   89.941436
_cell_angle_gamma 90.006942
loop_
_atom_site_label
_atom_site_type_symbol
_atom_site_fract_x
_atom_site_fract_y
_atom_site_fract_z
_atom_type_partial_charge
C0 C 0.17584 0.22234 0.36891 0.0
C1 C 0.18195 0.22629 0.36681 0.0
C2 C 0.17429 0.23613 0.36249 0.0
C3 C 0.18118 0.23313 0.36364 0.0
C4 C 0.16821 0.23209 0.36458 0.0
C5 C 0.16898 0.22529 0.36774 0.0
U6 U 0.18583 0.20477 0.37429 0.0
O7 O 0.18563 0.19906 0.38473 0.0
O8 O 0.18157 0.19371 0.37499 0.0
C9 C 0.18233 0.19339 0.38204 0.0
C10 C 0.17641 0.21525 0.37251 0.0
C11 C 0.17617 0.19049 0.38627 0.0
C12 C 0.16355 0.18691 0.38741 0.0
C13 C 0.16912 0.19021 0.38347 0.0
C14 C 0.17192 0.18427 0.39705 0.0
C15 C 0.16489 0.18384 0.39423 0.0
C16 C 0.17748 0.18753 0.39311 0.0
C17 C 0.20558 0.20188 0.36767 0.0
C18 C 0.21266 0.1908 0.36753 0.0
C19 C 0.21841 0.20221 0.36491 0.0
C20 C 0.21182 0.20575 0.36589 0.0
C21 C 0.21894 0.19468 0.36569 0.0
C22 C 0.20604 0.19437 0.36853 0.0
C23 C 0.19869 0.20583 0.36834 0.0
O24 O 0.17677 0.20958 0.36827 0.0
O25 O 0.18084 0.21487 0.37803 0.0
O26 O 0.19713 0.20844 0.37475 0.0
O27 O 0.19308 0.20305 0.36503 0.0
H28 H 0.1873 0.2241 0.36765 0.0
H29 H 0.18599 0.23603 0.36204 0.0
H30 H 0.16283 0.23425 0.3639 0.0
H31 H 0.1642 0.22235 0.36936 0.0
H32 H 0.1582 0.18677 0.3851 0.0
H33 H 0.16793 0.19246 0.37822 0.0
H34 H 0.17319 0.18189 0.40223 0.0
H35 H 0.18286 0.18762 0.39536 0.0
H36 H 0.21286 0.18501 0.36825 0.0
H37 H 0.22307 0.20539 0.36338 0.0
H38 H 0.21158 0.21154 0.36517 0.0
H39 H 0.2013 0.19126 0.36991 0.0
C40 C 0.05268 0.92636 0.62052 0.0
C41 C 0.05091 0.9301 0.61417 0.0
C42 C 0.03878 0.9249 0.6143 0.0
C43 C 0.04404 0.92936 0.61108 0.0
C44 C 0.04059 0.92124 0.6207 0.0
C45 C 0.04745 0.92196 0.62376 0.0
U46 U 0.0707 0.93595 0.62505 0.0
O47 O 0.07679 0.93582 0.63527 0.0
O48 O 0.08168 0.93146 0.62542 0.0
C49 C 0.08232 0.93243 0.63242 0.0
C50 C 0.05995 0.92676 0.6238 0.0
C51 C 0.08533 0.92637 0.63665 0.0
C52 C 0.08697 0.91354 0.63902 0.0
C53 C 0.08372 0.91913 0.63508 0.0
C54 C 0.09338 0.92233 0.64621 0.0
C55 C 0.09187 0.91506 0.64463 0.0
C56 C 0.09015 0.9279 0.64227 0.0
C57 C 0.0737 0.95564 0.61834 0.0
C58 C 0.08482 0.96243 0.61655 0.0
C59 C 0.07338 0.96869 0.61691 0.0
C60 C 0.06983 0.96212 0.61799 0.0
C61 C 0.08093 0.96895 0.61613 0.0
C62 C 0.08125 0.95584 0.61765 0.0
C63 C 0.06965 0.9488 0.61911 0.0
O64 O 0.06546 0.92696 0.61934 0.0
O65 O 0.06066 0.93117 0.62929 0.0
O66 O 0.06719 0.9473 0.62558 0.0
O67 O 0.0722 0.94313 0.61571 0.0
H68 H 0.05485 0.93355 0.61158 0.0
H69 H 0.04282 0.93232 0.6062 0.0
H70 H 0.03675 0.91769 0.62329 0.0
H71 H 0.0487 0.91901 0.62864 0.0
H72 H 0.08561 0.90802 0.6377 0.0
H73 H 0.07999 0.91781 0.63078 0.0
H74 H 0.09719 0.92375 0.65039 0.0
H75 H 0.0915 0.93344 0.64355 0.0
H76 H 0.09064 0.96242 0.61606 0.0
H77 H 0.07018 0.97355 0.61651 0.0
H78 H 0.06401 0.9621 0.61846 0.0
H79 H 0.08436 0.95091 0.61792 0.0
C80 C 0.34913 0.80272 0.86909 0.0
C81 C 0.34307 0.79881 0.86678 0.0
C82 C 0.35078 0.78876 0.86306 0.0
C83 C 0.34389 0.7919 0.86378 0.0
C84 C 0.35682 0.79278 0.8653 0.0
C85 C 0.35599 0.79967 0.86828 0.0
U86 U 0.33906 0.82038 0.87415 0.0
O87 O 0.33922 0.82623 0.88452 0.0
O88 O 0.34333 0.83144 0.87472 0.0
C89 C 0.34256 0.83184 0.88177 0.0
C90 C 0.34849 0.80988 0.87256 0.0
C91 C 0.34873 0.83476 0.88597 0.0
C92 C 0.36125 0.83871 0.88694 0.0
C93 C 0.35569 0.8354 0.88301 0.0
C94 C 0.35305 0.84065 0.89691 0.0
C95 C 0.35999 0.84144 0.89393 0.0
C96 C 0.3475 0.83738 0.89297 0.0
C97 C 0.31934 0.82321 0.86746 0.0
C98 C 0.31226 0.83428 0.86732 0.0
C99 C 0.30655 0.82288 0.86456 0.0
C100 C 0.31312 0.81934 0.86558 0.0
C101 C 0.306 0.83041 0.86539 0.0
C102 C 0.31886 0.83071 0.86836 0.0
C103 C 0.32622 0.81925 0.86819 0.0
O104 O 0.34814 0.81547 0.86822 0.0
O105 O 0.34402 0.81033 0.87804 0.0
O106 O 0.32775 0.81673 0.87463 0.0
O107 O 0.33185 0.82198 0.86486 0.0
H108 H 0.33772 0.80107 0.86736 0.0
H109 H 0.33912 0.78896 0.86217 0.0
H110 H 0.36221 0.79063 0.86472 0.0
H111 H 0.36074 0.8026 0.87 0.0
H112 H 0.36653 0.83913 0.8845 0.0
H113 H 0.35683 0.83343 0.87763 0.0
H114 H 0.35184 0.84276 0.90222 0.0
H115 H 0.34218 0.83701 0.89536 0.0
H116 H 0.31204 0.84006 0.86809 0.0
H117 H 0.30191 0.81972 0.86296 0.0
H118 H 0.31337 0.81356 0.86482 0.0
H119 H 0.32359 0.83381 0.86982 0.0
C120 C 0.47162 0.09877 0.11894 0.0
C121 C 0.47614 0.09275 0.11809 0.0
C122 C 0.48547 0.10031 0.11262 0.0
C123 C 0.48301 0.09352 0.11498 0.0
C124 C 0.48086 0.10629 0.11339 0.0
C125 C 0.47403 0.10552 0.11652 0.0
U126 U 0.45369 0.08927 0.12423 0.0
O127 O 0.448 0.08949 0.13471 0.0
O128 O 0.44282 0.09395 0.12506 0.0
C129 C 0.44246 0.09303 0.13208 0.0
C130 C 0.46453 0.0983 0.12259 0.0
C131 C 0.43973 0.09918 0.13643 0.0
C132 C 0.43699 0.11195 0.138 0.0
C133 C 0.44017 0.10635 0.13401 0.0
C134 C 0.43306 0.10334 0.14697 0.0
C135 C 0.43333 0.11052 0.14451 0.0
C136 C 0.43621 0.09776 0.14298 0.0
C137 C 0.44966 0.06985 0.11716 0.0
C138 C 0.44471 0.05861 0.12192 0.0
C139 C 0.44396 0.06109 0.10914 0.0
C140 C 0.44745 0.06771 0.11023 0.0
C141 C 0.44263 0.0564 0.11496 0.0
C142 C 0.44818 0.06525 0.12301 0.0
C143 C 0.45405 0.07651 0.11799 0.0
O144 O 0.45881 0.0983 0.1184 0.0
O145 O 0.464 0.09375 0.12801 0.0
O146 O 0.45685 0.07783 0.12437 0.0
O147 O 0.45164 0.08235 0.11477 0.0
H148 H 0.4744 0.08748 0.1199 0.0
H149 H 0.48637 0.08878 0.11439 0.0
H150 H 0.48258 0.11161 0.11175 0.0
H151 H 0.47065 0.11025 0.11715 0.0
H152 H 0.43741 0.11741 0.13597 0.0
H153 H 0.44287 0.10762 0.12898 0.0
H154 H 0.43022 0.102 0.15189 0.0
H155 H 0.43575 0.09228 0.14494 0.0
H156 H 0.44369 0.05519 0.12655 0.0
H157 H 0.44254 0.05956 0.10369 0.0
H158 H 0.4486 0.07108 0.1056 0.0
H159 H 0.44982 0.0667 0.12843 0.0
C160 C 0.17611 0.80305 0.15727 0.0
C161 C 0.18217 0.79875 0.15874 0.0
C162 C 0.17443 0.78927 0.1637 0.0
C163 C 0.18133 0.79192 0.16192 0.0
C164 C 0.16841 0.79366 0.16226 0.0
C165 C 0.16925 0.80046 0.15909 0.0
U166 U 0.18596 0.82076 0.15187 0.0
O167 O 0.18583 0.82639 0.14138 0.0
O168 O 0.1815 0.83172 0.15102 0.0
C169 C 0.18246 0.83205 0.144 0.0
C170 C 0.17671 0.81013 0.15361 0.0
C171 C 0.17641 0.83493 0.13965 0.0
C172 C 0.16359 0.83664 0.13731 0.0
C173 C 0.16917 0.83346 0.14132 0.0
C174 C 0.17241 0.8427 0.12985 0.0
C175 C 0.16513 0.84135 0.13154 0.0
C176 C 0.17796 0.83953 0.13386 0.0
C177 C 0.20561 0.82434 0.15856 0.0
C178 C 0.21267 0.83411 0.16386 0.0
C179 C 0.21862 0.82498 0.15669 0.0
C180 C 0.21198 0.82157 0.15553 0.0
C181 C 0.21909 0.83124 0.16096 0.0
C182 C 0.20602 0.83069 0.16269 0.0
C183 C 0.19879 0.82013 0.15793 0.0
O184 O 0.17689 0.81584 0.1578 0.0
O185 O 0.18123 0.81053 0.14816 0.0
O186 O 0.19735 0.81731 0.15158 0.0
O187 O 0.19304 0.82267 0.16121 0.0
H188 H 0.18753 0.80065 0.1574 0.0
H189 H 0.1861 0.78874 0.16301 0.0
H190 H 0.16301 0.79179 0.16344 0.0
H191 H 0.1645 0.80367 0.15796 0.0
H192 H 0.15806 0.8354 0.13872 0.0
H193 H 0.16782 0.8299 0.14576 0.0
H194 H 0.17384 0.84637 0.12554 0.0
H195 H 0.18351 0.84078 0.1325 0.0
H196 H 0.21281 0.83886 0.16724 0.0
H197 H 0.2234 0.82267 0.15426 0.0
H198 H 0.21186 0.81666 0.15238 0.0
H199 H 0.20125 0.83294 0.16518 0.0
C200 C 0.47257 0.92573 0.40596 0.0
C201 C 0.47575 0.9315 0.40969 0.0
C202 C 0.48646 0.9242 0.41215 0.0
C203 C 0.48263 0.93074 0.41276 0.0
C204 C 0.48319 0.91844 0.40844 0.0
C205 C 0.47633 0.91921 0.40538 0.0
U206 U 0.45484 0.93576 0.4012 0.0
O207 O 0.4489 0.93576 0.39089 0.0
O208 O 0.4438 0.93145 0.40065 0.0
C209 C 0.44328 0.93244 0.39365 0.0
C210 C 0.46539 0.92634 0.40256 0.0
C211 C 0.44024 0.92642 0.38936 0.0
C212 C 0.43856 0.91362 0.38686 0.0
C213 C 0.44183 0.91917 0.39085 0.0
C214 C 0.43217 0.9225 0.37977 0.0
C215 C 0.43365 0.91521 0.38128 0.0
C216 C 0.43542 0.92802 0.38376 0.0
C217 C 0.45199 0.95543 0.4081 0.0
C218 C 0.44092 0.96233 0.40978 0.0
C219 C 0.45246 0.96841 0.41001 0.0
C220 C 0.45595 0.96184 0.40878 0.0
C221 C 0.4449 0.96876 0.41062 0.0
C222 C 0.44444 0.95573 0.40854 0.0
C223 C 0.45597 0.94855 0.40728 0.0
O224 O 0.45983 0.92664 0.40695 0.0
O225 O 0.46487 0.93087 0.39713 0.0
O226 O 0.45849 0.94708 0.40082 0.0
O227 O 0.4533 0.94287 0.41059 0.0
H228 H 0.47293 0.9366 0.41018 0.0
H229 H 0.48499 0.93531 0.41552 0.0
H230 H 0.48589 0.91329 0.40795 0.0
H231 H 0.47396 0.91468 0.40255 0.0
H232 H 0.43991 0.90808 0.38813 0.0
H233 H 0.44556 0.91779 0.39513 0.0
H234 H 0.42835 0.92396 0.37561 0.0
H235 H 0.43408 0.93357 0.38253 0.0
H236 H 0.4351 0.96236 0.41026 0.0
H237 H 0.4557 0.97324 0.41048 0.0
H238 H 0.46178 0.96175 0.40844 0.0
H239 H 0.44126 0.95085 0.40803 0.0
C240 C 0.34803 0.22212 0.65719 0.0
C241 C 0.34436 0.22814 0.65438 0.0
C242 C 0.34996 0.23606 0.66332 0.0
C243 C 0.3453 0.23501 0.65742 0.0
C244 C 0.35351 0.23 0.6662 0.0
C245 C 0.35259 0.22315 0.66316 0.0
U246 U 0.33897 0.20386 0.65208 0.0
O247 O 0.33926 0.19802 0.6417 0.0
O248 O 0.34384 0.19307 0.65141 0.0
C249 C 0.34292 0.19259 0.64439 0.0
C250 C 0.34773 0.21495 0.65358 0.0
C251 C 0.34909 0.18988 0.64004 0.0
C252 C 0.36175 0.18657 0.63872 0.0
C253 C 0.35618 0.1898 0.64271 0.0
C254 C 0.35329 0.18362 0.62926 0.0
C255 C 0.36037 0.18336 0.63197 0.0
C256 C 0.34773 0.18682 0.63325 0.0
C257 C 0.31963 0.19971 0.65941 0.0
C258 C 0.30871 0.194 0.65477 0.0
C259 C 0.3106 0.19484 0.66765 0.0
C260 C 0.31721 0.19829 0.66644 0.0
C261 C 0.30619 0.19275 0.66184 0.0
C262 C 0.31534 0.19745 0.65357 0.0
C263 C 0.32624 0.20412 0.65839 0.0
O264 O 0.34791 0.20924 0.65779 0.0
O265 O 0.34326 0.21421 0.64812 0.0
O266 O 0.32747 0.20679 0.65194 0.0
O267 O 0.33213 0.20184 0.66161 0.0
H268 H 0.34088 0.2276 0.64973 0.0
H269 H 0.34253 0.23953 0.65499 0.0
H270 H 0.35706 0.23055 0.6708 0.0
H271 H 0.35556 0.21865 0.6654 0.0
H272 H 0.36715 0.18657 0.64095 0.0
H273 H 0.35741 0.19212 0.64793 0.0
H274 H 0.35197 0.18114 0.62414 0.0
H275 H 0.3423 0.18676 0.6311 0.0
H276 H 0.30545 0.19253 0.65016 0.0
H277 H 0.30893 0.19386 0.67316 0.0
H278 H 0.32038 0.2 0.67105 0.0
H279 H 0.31701 0.1985 0.64807 0.0
C280 C 0.05341 0.09892 0.90683 0.0
C281 C 0.04798 0.09377 0.90558 0.0
C282 C 0.0394 0.10076 0.91279 0.0
C283 C 0.04106 0.09468 0.90853 0.0
C284 C 0.04492 0.10579 0.91415 0.0
C285 C 0.05181 0.10489 0.91119 0.0
U286 U 0.07119 0.08921 0.90141 0.0
O287 O 0.07724 0.08986 0.89121 0.0
O288 O 0.08228 0.09354 0.90126 0.0
C289 C 0.08283 0.09303 0.8942 0.0
C290 C 0.0606 0.09847 0.90333 0.0
C291 C 0.08595 0.09934 0.89039 0.0
C292 C 0.08517 0.10924 0.88175 0.0
C293 C 0.08188 0.10362 0.88563 0.0
C294 C 0.09658 0.10646 0.88741 0.0
C295 C 0.09259 0.11071 0.88255 0.0
C296 C 0.0933 0.10085 0.89126 0.0
C297 C 0.07404 0.06922 0.90742 0.0
C298 C 0.0849 0.06226 0.90997 0.0
C299 C 0.07353 0.05612 0.90824 0.0
C300 C 0.07013 0.06276 0.90707 0.0
C301 C 0.08094 0.05577 0.90982 0.0
C302 C 0.08149 0.06892 0.90879 0.0
C303 C 0.07006 0.07613 0.90683 0.0
O304 O 0.06619 0.09803 0.90766 0.0
O305 O 0.06119 0.09433 0.8976 0.0
O306 O 0.06764 0.07789 0.90041 0.0
O307 O 0.07264 0.08166 0.91044 0.0
H308 H 0.04903 0.0891 0.90223 0.0
H309 H 0.03696 0.09071 0.9073 0.0
H310 H 0.04392 0.11047 0.91751 0.0
H311 H 0.05589 0.10894 0.91224 0.0
H312 H 0.0819 0.11244 0.87813 0.0
H313 H 0.07619 0.10259 0.88486 0.0
H314 H 0.10231 0.10734 0.88811 0.0
H315 H 0.09657 0.0976 0.89484 0.0
H316 H 0.09061 0.06222 0.9112 0.0
H317 H 0.07032 0.05126 0.90793 0.0
H318 H 0.06439 0.06284 0.90601 0.0
H319 H 0.08463 0.07383 0.9091 0.0
C320 C 0.36835 0.17758 0.22295 0.0
C321 C 0.36082 0.1773 0.22386 0.0
C322 C 0.36219 0.17578 0.23689 0.0
C323 C 0.35779 0.17641 0.23074 0.0
C324 C 0.36971 0.17621 0.23598 0.0
C325 C 0.37274 0.17706 0.2291 0.0
U326 U 0.37354 0.18661 0.2047 0.0
O327 O 0.38371 0.1858 0.19862 0.0
O328 O 0.37367 0.18188 0.19377 0.0
C329 C 0.38072 0.18236 0.19318 0.0
C330 C 0.37173 0.17775 0.21566 0.0
C331 C 0.38458 0.17594 0.19027 0.0
C332 C 0.39507 0.16799 0.18983 0.0
C333 C 0.39117 0.17355 0.19317 0.0
C334 C 0.38583 0.16698 0.1807 0.0
C335 C 0.3925 0.16468 0.18349 0.0
C336 C 0.38194 0.17254 0.18403 0.0
C337 C 0.36761 0.20654 0.20128 0.0
C338 C 0.36486 0.21328 0.19032 0.0
C339 C 0.36739 0.21967 0.20141 0.0
C340 C 0.3684 0.2131 0.20497 0.0
C341 C 0.36555 0.21988 0.19405 0.0
C342 C 0.36589 0.20668 0.1939 0.0
C343 C 0.36816 0.19973 0.20543 0.0
O344 O 0.3674 0.17796 0.21005 0.0
O345 O 0.37745 0.18187 0.21488 0.0
O346 O 0.37457 0.19802 0.20791 0.0
O347 O 0.36452 0.19414 0.20302 0.0
H348 H 0.35725 0.17763 0.21926 0.0
H349 H 0.35197 0.17619 0.23124 0.0
H350 H 0.37329 0.17565 0.24056 0.0
H351 H 0.37856 0.17715 0.22858 0.0
H352 H 0.40021 0.16644 0.1921 0.0
H353 H 0.39341 0.17609 0.19793 0.0
H354 H 0.3836 0.1645 0.17591 0.0
H355 H 0.37692 0.17429 0.18162 0.0
H356 H 0.36353 0.21322 0.18464 0.0
H357 H 0.36786 0.2246 0.2045 0.0
H358 H 0.36966 0.21314 0.21067 0.0
H359 H 0.36525 0.2017 0.19091 0.0
C360 C 0.09798 0.1193 0.47321 0.0
C361 C 0.09619 0.11204 0.47451 0.0
C362 C 0.09954 0.11328 0.48721 0.0
C363 C 0.09698 0.10907 0.48143 0.0
C364 C 0.10115 0.12058 0.48591 0.0
C365 C 0.1004 0.12354 0.479 0.0
U366 U 0.0893 0.12348 0.45457 0.0
O367 O 0.08988 0.13348 0.44818 0.0
O368 O 0.09441 0.12346 0.44382 0.0
C369 C 0.09365 0.13046 0.44297 0.0
C370 C 0.09785 0.12247 0.46586 0.0
C371 C 0.1 0.13449 0.44013 0.0
C372 C 0.10722 0.14547 0.43922 0.0
C373 C 0.10171 0.14148 0.44253 0.0
C374 C 0.10954 0.13553 0.4311 0.0
C375 C 0.11116 0.14259 0.43338 0.0
C376 C 0.10403 0.13156 0.43441 0.0
C377 C 0.06992 0.11633 0.45045 0.0
C378 C 0.05978 0.12092 0.44345 0.0
C379 C 0.06034 0.10825 0.44646 0.0
C380 C 0.06688 0.10941 0.45006 0.0
C381 C 0.05665 0.114 0.44317 0.0
C382 C 0.06634 0.12207 0.44704 0.0
C383 C 0.07646 0.11742 0.45494 0.0
O384 O 0.09803 0.11796 0.46038 0.0
O385 O 0.09344 0.12791 0.46482 0.0
O386 O 0.07775 0.12399 0.45727 0.0
O387 O 0.08232 0.11398 0.45292 0.0
H388 H 0.0943 0.10863 0.47016 0.0
H389 H 0.0956 0.10346 0.48224 0.0
H390 H 0.10322 0.12398 0.49018 0.0
H391 H 0.10186 0.12913 0.47814 0.0
H392 H 0.10824 0.15091 0.44108 0.0
H393 H 0.09867 0.14396 0.44687 0.0
H394 H 0.11251 0.13307 0.42672 0.0
H395 H 0.10282 0.12622 0.43238 0.0
H396 H 0.05715 0.12546 0.4409 0.0
H397 H 0.05808 0.10287 0.44647 0.0
H398 H 0.06948 0.1049 0.4527 0.0
H399 H 0.06855 0.12748 0.44724 0.0
C400 C 0.15519 0.84901 0.72289 0.0
C401 C 0.16106 0.8447 0.72495 0.0
C402 C 0.1613 0.85045 0.73683 0.0
C403 C 0.1641 0.84542 0.73185 0.0
C404 C 0.15538 0.85469 0.73473 0.0
C405 C 0.15237 0.85398 0.72784 0.0
U406 U 0.15134 0.83946 0.70471 0.0
O407 O 0.14127 0.83927 0.69837 0.0
O408 O 0.15106 0.84407 0.69377 0.0
C409 C 0.14412 0.84284 0.69295 0.0
C410 C 0.15199 0.84857 0.71559 0.0
C411 C 0.13975 0.84879 0.6899 0.0
C412 C 0.13691 0.86154 0.68843 0.0
C413 C 0.1409 0.85604 0.69178 0.0
C414 C 0.1305 0.85261 0.68141 0.0
C415 C 0.13171 0.85991 0.68314 0.0
C416 C 0.13447 0.84714 0.68475 0.0
C417 C 0.15922 0.82023 0.70154 0.0
C418 C 0.15554 0.81106 0.69287 0.0
C419 C 0.16658 0.80953 0.69963 0.0
C420 C 0.16537 0.81613 0.70309 0.0
C421 C 0.16164 0.80685 0.69454 0.0
C422 C 0.15433 0.81769 0.69635 0.0
C423 C 0.15793 0.82692 0.7057 0.0
O424 O 0.15652 0.84866 0.71014 0.0
O425 O 0.14674 0.84389 0.71476 0.0
O426 O 0.15131 0.82806 0.70796 0.0
O427 O 0.16111 0.8328 0.70332 0.0
H428 H 0.16331 0.8408 0.72122 0.0
H429 H 0.1686 0.842 0.7333 0.0
H430 H 0.15314 0.85869 0.73835 0.0
H431 H 0.14786 0.85738 0.72635 0.0
H432 H 0.13804 0.86709 0.68987 0.0
H433 H 0.14495 0.85745 0.69574 0.0
H434 H 0.12645 0.85111 0.67748 0.0
H435 H 0.13347 0.84158 0.68323 0.0
H436 H 0.15159 0.80915 0.68901 0.0
H437 H 0.1714 0.80653 0.70097 0.0
H438 H 0.16923 0.818 0.70706 0.0
H439 H 0.14953 0.82076 0.69506 0.0
C440 C 0.42573 0.90714 0.97238 0.0
C441 C 0.43187 0.90887 0.97646 0.0
C442 C 0.42427 0.9134 0.98627 0.0
C443 C 0.43115 0.91196 0.98335 0.0
C444 C 0.41817 0.91168 0.98211 0.0
C445 C 0.4189 0.9086 0.97526 0.0
U446 U 0.43523 0.90202 0.95435 0.0
O447 O 0.43466 0.89175 0.94839 0.0
O448 O 0.43051 0.90164 0.94345 0.0
C449 C 0.43114 0.8946 0.94294 0.0
C450 C 0.42621 0.90365 0.96522 0.0
C451 C 0.42478 0.89057 0.94009 0.0
C452 C 0.41791 0.87941 0.93877 0.0
C453 C 0.42342 0.88338 0.94209 0.0
C454 C 0.4149 0.88974 0.93142 0.0
C455 C 0.41363 0.8825 0.93331 0.0
C456 C 0.42041 0.8937 0.93474 0.0
C457 C 0.45483 0.90865 0.95038 0.0
C458 C 0.46641 0.90401 0.94612 0.0
C459 C 0.4633 0.91649 0.94402 0.0
C460 C 0.45668 0.91542 0.94751 0.0
C461 C 0.46831 0.91083 0.94336 0.0
C462 C 0.45977 0.90293 0.94959 0.0
C463 C 0.44816 0.90788 0.9548 0.0
O464 O 0.42637 0.90798 0.95961 0.0
O465 O 0.43066 0.89817 0.96462 0.0
O466 O 0.44668 0.90147 0.95745 0.0
O467 O 0.4424 0.91133 0.95252 0.0
H468 H 0.43721 0.90781 0.97434 0.0
H469 H 0.43597 0.91327 0.98636 0.0
H470 H 0.41279 0.91259 0.98419 0.0
H471 H 0.41409 0.90728 0.97222 0.0
H472 H 0.41716 0.87383 0.94032 0.0
H473 H 0.42674 0.88074 0.94611 0.0
H474 H 0.41167 0.89235 0.92733 0.0
H475 H 0.42135 0.89919 0.93299 0.0
H476 H 0.47008 0.8995 0.94564 0.0
H477 H 0.46459 0.92183 0.94207 0.0
H478 H 0.45306 0.91996 0.94813 0.0
H479 H 0.45858 0.89765 0.95178 0.0
C480 C 0.3697 0.84953 0.30337 0.0
C481 C 0.36521 0.84411 0.30057 0.0
C482 C 0.36332 0.85117 0.28957 0.0
C483 C 0.36205 0.84492 0.29373 0.0
C484 C 0.36787 0.85653 0.29243 0.0
C485 C 0.37101 0.85571 0.29924 0.0
U486 U 0.37438 0.83945 0.32109 0.0
O487 O 0.38466 0.83943 0.32708 0.0
O488 O 0.37488 0.84372 0.33216 0.0
C489 C 0.38187 0.84271 0.33271 0.0
C490 C 0.37308 0.84891 0.31056 0.0
C491 C 0.38615 0.84868 0.33584 0.0
C492 C 0.38881 0.86145 0.33749 0.0
C493 C 0.38486 0.85594 0.33411 0.0
C494 C 0.39545 0.85251 0.34428 0.0
C495 C 0.39412 0.85981 0.34269 0.0
C496 C 0.39151 0.84703 0.3409 0.0
C497 C 0.36748 0.81977 0.32385 0.0
C498 C 0.3647 0.81285 0.3347 0.0
C499 C 0.36649 0.80668 0.32334 0.0
C500 C 0.36778 0.81329 0.31995 0.0
C501 C 0.36483 0.80636 0.33075 0.0
C502 C 0.36601 0.81949 0.33128 0.0
C503 C 0.36831 0.82667 0.31989 0.0
O504 O 0.36867 0.8486 0.31611 0.0
O505 O 0.3785 0.84438 0.31108 0.0
O506 O 0.37477 0.82814 0.31739 0.0
O507 O 0.36498 0.83235 0.32254 0.0
H508 H 0.36413 0.83929 0.30368 0.0
H509 H 0.35854 0.84071 0.29174 0.0
H510 H 0.36909 0.86135 0.28936 0.0
H511 H 0.37448 0.85994 0.30129 0.0
H512 H 0.3876 0.867 0.33616 0.0
H513 H 0.38075 0.85735 0.33021 0.0
H514 H 0.39957 0.85101 0.34813 0.0
H515 H 0.39262 0.84147 0.34231 0.0
H516 H 0.3634 0.81284 0.34039 0.0
H517 H 0.36678 0.80181 0.32013 0.0
H518 H 0.36891 0.81336 0.31421 0.0
H519 H 0.36573 0.8244 0.33443 0.0
C520 C 0.42712 0.11909 0.55286 0.0
C521 C 0.43036 0.11244 0.55122 0.0
C522 C 0.42563 0.11297 0.5389 0.0
C523 C 0.42961 0.1094 0.54431 0.0
C524 C 0.42252 0.11969 0.54057 0.0
C525 C 0.42326 0.1227 0.54745 0.0
U526 U 0.43601 0.12334 0.57138 0.0
O527 O 0.43539 0.13334 0.57777 0.0
O528 O 0.43099 0.1233 0.58218 0.0
C529 C 0.4317 0.1303 0.58301 0.0
C530 C 0.42732 0.12224 0.5602 0.0
C531 C 0.42534 0.13428 0.5859 0.0
C532 C 0.41793 0.14514 0.58671 0.0
C533 C 0.42344 0.14118 0.58335 0.0
C534 C 0.41601 0.13538 0.59513 0.0
C535 C 0.4142 0.14235 0.59271 0.0
C536 C 0.42151 0.13143 0.59178 0.0
C537 C 0.45552 0.11647 0.57545 0.0
C538 C 0.46699 0.12091 0.58016 0.0
C539 C 0.46392 0.1083 0.58143 0.0
C540 C 0.45735 0.10955 0.57793 0.0
C541 C 0.4689 0.11394 0.5825 0.0
C542 C 0.4604 0.12215 0.57666 0.0
C543 C 0.44893 0.11745 0.57096 0.0
O544 O 0.4273 0.11769 0.56564 0.0
O545 O 0.43171 0.12771 0.56118 0.0
O546 O 0.44753 0.12397 0.56856 0.0
O547 O 0.44311 0.11393 0.57298 0.0
H548 H 0.43339 0.10955 0.55528 0.0
H549 H 0.43215 0.10427 0.54321 0.0
H550 H 0.41934 0.12256 0.5366 0.0
H551 H 0.42068 0.12781 0.5486 0.0
H552 H 0.41676 0.15051 0.58473 0.0
H553 H 0.42631 0.1436 0.57888 0.0
H554 H 0.4132 0.13298 0.59965 0.0
H555 H 0.42288 0.12617 0.59392 0.0
H556 H 0.47069 0.12537 0.5808 0.0
H557 H 0.46513 0.10289 0.58325 0.0
H558 H 0.45375 0.10504 0.57702 0.0
H559 H 0.45923 0.12754 0.57475 0.0
C560 C 0.15579 0.1758 0.80328 0.0
C561 C 0.16033 0.18116 0.80045 0.0
C562 C 0.16179 0.17425 0.78928 0.0
C563 C 0.16332 0.18039 0.79352 0.0
C564 C 0.15723 0.16893 0.79218 0.0
C565 C 0.15427 0.1697 0.79909 0.0
U566 U 0.1513 0.18582 0.8211 0.0
O567 O 0.14123 0.18552 0.8274 0.0
O568 O 0.15128 0.18159 0.83221 0.0
C569 C 0.14429 0.1824 0.83298 0.0
C570 C 0.15259 0.17637 0.81057 0.0
C571 C 0.14033 0.17631 0.83627 0.0
C572 C 0.13476 0.16441 0.8357 0.0
C573 C 0.13863 0.17003 0.83238 0.0
C574 C 0.13428 0.17129 0.84679 0.0
C575 C 0.13254 0.16496 0.84297 0.0
C576 C 0.13812 0.17688 0.84348 0.0
C577 C 0.15767 0.20565 0.82377 0.0
C578 C 0.16016 0.21247 0.83475 0.0
C579 C 0.15843 0.21876 0.82345 0.0
C580 C 0.15733 0.21216 0.81995 0.0
C581 C 0.15992 0.21902 0.8309 0.0
C582 C 0.15903 0.20585 0.83123 0.0
C583 C 0.15696 0.19878 0.81974 0.0
O584 O 0.15714 0.17683 0.81598 0.0
O585 O 0.14706 0.18073 0.81123 0.0
O586 O 0.15047 0.19712 0.81744 0.0
O587 O 0.16053 0.19319 0.82224 0.0
H588 H 0.16157 0.18592 0.8036 0.0
H589 H 0.16675 0.18463 0.79145 0.0
H590 H 0.15602 0.16408 0.78916 0.0
H591 H 0.1508 0.16549 0.80118 0.0
H592 H 0.13358 0.15961 0.8326 0.0
H593 H 0.14029 0.16948 0.82681 0.0
H594 H 0.13257 0.172 0.85233 0.0
H595 H 0.13934 0.18169 0.84656 0.0
H596 H 0.16119 0.21245 0.8405 0.0
H597 H 0.15831 0.22365 0.82027 0.0
H598 H 0.15634 0.21214 0.81419 0.0
H599 H 0.1593 0.20091 0.83432 0.0
C600 C 0.09928 0.90596 0.05374 0.0
C601 C 0.09318 0.90794 0.04973 0.0
C602 C 0.10085 0.91202 0.03978 0.0
C603 C 0.09395 0.91095 0.04281 0.0
C604 C 0.10692 0.91013 0.04391 0.0
C605 C 0.10614 0.90714 0.05079 0.0
U606 U 0.08948 0.90108 0.07162 0.0
O607 O 0.0895 0.89072 0.07748 0.0
O608 O 0.094 0.9004 0.08257 0.0
C609 C 0.09292 0.89341 0.08307 0.0
C610 C 0.09871 0.90247 0.06089 0.0
C611 C 0.09889 0.88905 0.08606 0.0
C612 C 0.11166 0.88627 0.08748 0.0
C613 C 0.10613 0.89024 0.08416 0.0
C614 C 0.10278 0.87979 0.09452 0.0
C615 C 0.11007 0.88104 0.09278 0.0
C616 C 0.09728 0.88375 0.09121 0.0
C617 C 0.07003 0.90822 0.07531 0.0
C618 C 0.05838 0.90371 0.07949 0.0
C619 C 0.0616 0.91617 0.08155 0.0
C620 C 0.06824 0.91502 0.07813 0.0
C621 C 0.05653 0.91056 0.08219 0.0
C622 C 0.06504 0.90255 0.07608 0.0
C623 C 0.07676 0.90736 0.07099 0.0
O624 O 0.09861 0.90677 0.06652 0.0
O625 O 0.09411 0.8971 0.06143 0.0
O626 O 0.0781 0.90095 0.06825 0.0
O627 O 0.08257 0.9106 0.07343 0.0
H628 H 0.08782 0.90708 0.0519 0.0
H629 H 0.08915 0.91229 0.03979 0.0
H630 H 0.11231 0.91099 0.04184 0.0
H631 H 0.11093 0.90568 0.05381 0.0
H632 H 0.1172 0.88741 0.08603 0.0
H633 H 0.10751 0.89431 0.08021 0.0
H634 H 0.10132 0.87573 0.09845 0.0
H635 H 0.09174 0.88272 0.09274 0.0
H636 H 0.05466 0.89924 0.07996 0.0
H637 H 0.06034 0.92154 0.08348 0.0
H638 H 0.0719 0.91953 0.07752 0.0
H639 H 0.0662 0.89725 0.07394 0.0
C640 C 0.22206 0.36901 0.17611 0.0
C641 C 0.22617 0.36717 0.18219 0.0
C642 C 0.23587 0.36265 0.17446 0.0
C643 C 0.23301 0.36403 0.18138 0.0
C644 C 0.23167 0.36446 0.1684 0.0
C645 C 0.22486 0.3676 0.16923 0.0
U646 U 0.20446 0.37416 0.18619 0.0
O647 O 0.19868 0.38456 0.1862 0.0
O648 O 0.1934 0.37487 0.18195 0.0
C649 C 0.193 0.38188 0.18292 0.0
C650 C 0.21495 0.37259 0.17673 0.0
C651 C 0.18999 0.38619 0.17691 0.0
C652 C 0.18821 0.3886 0.1641 0.0
C653 C 0.1915 0.38462 0.16964 0.0
C654 C 0.18198 0.39583 0.17299 0.0
C655 C 0.18337 0.39424 0.16569 0.0
C656 C 0.18525 0.39186 0.17851 0.0
C657 C 0.20158 0.36726 0.20586 0.0
C658 C 0.19057 0.36532 0.21279 0.0
C659 C 0.20209 0.36558 0.21888 0.0
C660 C 0.20555 0.36682 0.21229 0.0
C661 C 0.19456 0.36472 0.21924 0.0
C662 C 0.19404 0.36657 0.20617 0.0
C663 C 0.20554 0.36804 0.19896 0.0
O664 O 0.2093 0.36832 0.177 0.0
O665 O 0.21453 0.37804 0.18124 0.0
O666 O 0.20815 0.37446 0.1975 0.0
O667 O 0.20282 0.36479 0.19328 0.0
H668 H 0.2241 0.3682 0.18757 0.0
H669 H 0.23604 0.36264 0.18617 0.0
H670 H 0.2337 0.36358 0.163 0.0
H671 H 0.22179 0.369 0.16445 0.0
H672 H 0.18949 0.38726 0.15855 0.0
H673 H 0.19516 0.38028 0.16826 0.0
H674 H 0.17822 0.40005 0.17446 0.0
H675 H 0.18397 0.39314 0.18407 0.0
H676 H 0.18477 0.36465 0.21283 0.0
H677 H 0.20534 0.36529 0.22372 0.0
H678 H 0.21136 0.36734 0.21219 0.0
H679 H 0.19086 0.36688 0.20129 0.0
C680 C 0.72256 0.15661 0.84922 0.0
C681 C 0.72628 0.15923 0.84316 0.0
C682 C 0.73637 0.16298 0.8508 0.0
C683 C 0.73313 0.16238 0.84394 0.0
C684 C 0.73257 0.16034 0.85682 0.0
C685 C 0.72576 0.15721 0.85604 0.0
U686 U 0.70463 0.15195 0.83947 0.0
O687 O 0.6987 0.14162 0.83944 0.0
O688 O 0.6937 0.15129 0.84405 0.0
C689 C 0.6932 0.14429 0.84303 0.0
C690 C 0.71542 0.15312 0.84863 0.0
C691 C 0.69041 0.13991 0.84913 0.0
C692 C 0.68739 0.13835 0.86185 0.0
C693 C 0.69062 0.14237 0.8563 0.0
C694 C 0.68384 0.12926 0.85318 0.0
C695 C 0.6839 0.13176 0.86036 0.0
C696 C 0.68704 0.1333 0.84765 0.0
C697 C 0.70105 0.15962 0.82021 0.0
C698 C 0.69287 0.15543 0.81082 0.0
C699 C 0.69831 0.16725 0.80988 0.0
C700 C 0.70189 0.16611 0.81642 0.0
C701 C 0.69378 0.16192 0.80694 0.0
C702 C 0.69646 0.1543 0.81739 0.0
C703 C 0.70531 0.1585 0.82688 0.0
O704 O 0.7098 0.15743 0.84866 0.0
O705 O 0.71484 0.14785 0.84391 0.0
O706 O 0.70783 0.15197 0.82803 0.0
O707 O 0.70288 0.16162 0.83276 0.0
H708 H 0.72389 0.15884 0.83784 0.0
H709 H 0.73585 0.16441 0.83919 0.0
H710 H 0.73492 0.16059 0.86217 0.0
H711 H 0.723 0.15518 0.86078 0.0
H712 H 0.68763 0.1404 0.86731 0.0
H713 H 0.69319 0.14744 0.85762 0.0
H714 H 0.68114 0.12428 0.85179 0.0
H715 H 0.68676 0.13131 0.84216 0.0
H716 H 0.68936 0.15124 0.80878 0.0
H717 H 0.69925 0.17226 0.80704 0.0
H718 H 0.70544 0.17027 0.81847 0.0
H719 H 0.6957 0.14925 0.82022 0.0
C720 C 0.11973 0.47245 0.099 0.0
C721 C 0.11349 0.47427 0.09511 0.0
C722 C 0.11348 0.48635 0.10045 0.0
C723 C 0.11039 0.48115 0.09584 0.0
C724 C 0.11977 0.48448 0.10426 0.0
C725 C 0.12284 0.47763 0.10354 0.0
U726 U 0.12426 0.45432 0.08955 0.0
O727 O 0.13447 0.44822 0.08975 0.0
O728 O 0.12463 0.4434 0.0942 0.0
C729 C 0.13162 0.44272 0.09319 0.0
C730 C 0.123 0.46518 0.09862 0.0
C731 C 0.13587 0.43968 0.09922 0.0
C732 C 0.13849 0.43819 0.11203 0.0
C733 C 0.13458 0.44153 0.10646 0.0
C734 C 0.1451 0.43123 0.10318 0.0
C735 C 0.14376 0.43293 0.11046 0.0
C736 C 0.1412 0.43456 0.09765 0.0
C737 C 0.11758 0.45084 0.06987 0.0
C738 C 0.11188 0.4413 0.06279 0.0
C739 C 0.11964 0.44996 0.05689 0.0
C740 C 0.12086 0.45337 0.06352 0.0
C741 C 0.11505 0.44393 0.0564 0.0
C742 C 0.11311 0.44471 0.06943 0.0
C743 C 0.11832 0.45507 0.07666 0.0
O744 O 0.11855 0.45967 0.09849 0.0
O745 O 0.12848 0.46443 0.09417 0.0
O746 O 0.12477 0.45763 0.07814 0.0
O747 O 0.1149 0.45273 0.08241 0.0
H748 H 0.111 0.47038 0.09154 0.0
H749 H 0.1056 0.4824 0.09276 0.0
H750 H 0.12225 0.48828 0.10794 0.0
H751 H 0.12763 0.47634 0.10662 0.0
H752 H 0.13727 0.43961 0.11756 0.0
H753 H 0.13048 0.44547 0.10781 0.0
H754 H 0.14919 0.42732 0.10174 0.0
H755 H 0.14231 0.43306 0.09211 0.0
H756 H 0.10825 0.43673 0.06263 0.0
H757 H 0.12227 0.45208 0.05213 0.0
H758 H 0.12427 0.45811 0.06365 0.0
H759 H 0.11042 0.44265 0.07419 0.0
C760 C 0.80238 0.86963 0.34949 0.0
C761 C 0.80022 0.86386 0.34508 0.0
C762 C 0.7884 0.86359 0.35098 0.0
C763 C 0.7933 0.86087 0.34583 0.0
C764 C 0.79061 0.86942 0.35531 0.0
C765 C 0.79751 0.8724 0.35457 0.0
U766 U 0.82062 0.87357 0.34001 0.0
O767 O 0.82714 0.88349 0.3403 0.0
O768 O 0.83158 0.87343 0.34463 0.0
C769 C 0.83254 0.88038 0.34367 0.0
C770 C 0.80972 0.87274 0.34909 0.0
C771 C 0.83578 0.8844 0.34976 0.0
C772 C 0.83491 0.89147 0.36083 0.0
C773 C 0.8316 0.88752 0.35527 0.0
C774 C 0.84659 0.88919 0.35546 0.0
C775 C 0.84247 0.89236 0.361 0.0
C776 C 0.84328 0.88526 0.34993 0.0
C777 C 0.82396 0.86631 0.32053 0.0
C778 C 0.83079 0.87079 0.3102 0.0
C779 C 0.82763 0.85816 0.31088 0.0
C780 C 0.82421 0.85938 0.31751 0.0
C781 C 0.83089 0.86386 0.30707 0.0
C782 C 0.82736 0.87201 0.31685 0.0
C783 C 0.81968 0.86747 0.32721 0.0
O784 O 0.8151 0.86813 0.349 0.0
O785 O 0.81063 0.87813 0.34459 0.0
O786 O 0.81747 0.87406 0.32857 0.0
O787 O 0.82184 0.86401 0.33301 0.0
H788 H 0.80389 0.86165 0.3411 0.0
H789 H 0.79178 0.85644 0.34234 0.0
H790 H 0.78706 0.87161 0.3594 0.0
H791 H 0.79907 0.87682 0.35805 0.0
H792 H 0.83156 0.89377 0.36502 0.0
H793 H 0.82579 0.88691 0.35525 0.0
H794 H 0.85239 0.88984 0.35531 0.0
H795 H 0.84661 0.88294 0.34572 0.0
H796 H 0.83318 0.87533 0.30741 0.0
H797 H 0.82771 0.85273 0.30874 0.0
H798 H 0.82162 0.85489 0.32022 0.0
H799 H 0.82724 0.87742 0.31903 0.0
C800 C 0.9072 0.0532 0.09942 0.0
C801 C 0.90782 0.0486 0.09342 0.0
C802 C 0.91353 0.03935 0.10089 0.0
C803 C 0.91094 0.04174 0.09415 0.0
C804 C 0.91297 0.04403 0.10684 0.0
C805 C 0.90984 0.05086 0.10611 0.0
U806 U 0.90162 0.07093 0.08975 0.0
O807 O 0.89131 0.07679 0.09039 0.0
O808 O 0.90124 0.08195 0.09419 0.0
C809 C 0.89418 0.08237 0.0937 0.0
C810 C 0.90362 0.06032 0.09898 0.0
C811 C 0.89026 0.08533 0.10007 0.0
C812 C 0.87946 0.08618 0.10759 0.0
C813 C 0.88339 0.08279 0.10207 0.0
C814 C 0.8892 0.09466 0.10931 0.0
C815 C 0.88226 0.09223 0.11123 0.0
C816 C 0.89312 0.09128 0.1038 0.0
C817 C 0.90765 0.07411 0.06981 0.0
C818 C 0.91072 0.08489 0.06292 0.0
C819 C 0.90779 0.07383 0.05667 0.0
C820 C 0.90668 0.07039 0.06329 0.0
C821 C 0.90994 0.0811 0.05637 0.0
C822 C 0.9096 0.08143 0.06957 0.0
C823 C 0.90713 0.07004 0.07668 0.0
O824 O 0.90788 0.06597 0.09857 0.0
O825 O 0.89796 0.0608 0.09474 0.0
O826 O 0.90075 0.06745 0.07839 0.0
O827 O 0.91067 0.0726 0.08226 0.0
H828 H 0.90584 0.05029 0.08819 0.0
H829 H 0.91135 0.03832 0.08943 0.0
H830 H 0.9148 0.04237 0.11213 0.0
H831 H 0.90939 0.05429 0.11081 0.0
H832 H 0.87411 0.08419 0.10883 0.0
H833 H 0.88096 0.07828 0.09927 0.0
H834 H 0.8916 0.09922 0.11205 0.0
H835 H 0.89835 0.09343 0.10236 0.0
H836 H 0.91242 0.09048 0.06292 0.0
H837 H 0.907 0.07076 0.05176 0.0
H838 H 0.90518 0.06474 0.06332 0.0
H839 H 0.9104 0.08445 0.07451 0.0
C840 C 0.30254 0.65619 0.67618 0.0
C841 C 0.29919 0.65954 0.6821 0.0
C842 C 0.28859 0.66228 0.67473 0.0
C843 C 0.29228 0.66257 0.68137 0.0
C844 C 0.29204 0.65898 0.66882 0.0
C845 C 0.29892 0.65597 0.66955 0.0
U846 U 0.32029 0.65125 0.6861 0.0
O847 O 0.32616 0.64089 0.6859 0.0
O848 O 0.33131 0.65069 0.68173 0.0
C849 C 0.33175 0.64365 0.68253 0.0
C850 C 0.30972 0.65278 0.67675 0.0
C851 C 0.33466 0.63943 0.67637 0.0
C852 C 0.33795 0.63817 0.66368 0.0
C853 C 0.33467 0.6421 0.66927 0.0
C854 C 0.34111 0.62878 0.67216 0.0
C855 C 0.34127 0.63147 0.66506 0.0
C856 C 0.33786 0.63272 0.67773 0.0
C857 C 0.32332 0.6578 0.70586 0.0
C858 C 0.33433 0.66012 0.71269 0.0
C859 C 0.32299 0.65865 0.71898 0.0
C860 C 0.31948 0.65758 0.71238 0.0
C861 C 0.33045 0.65999 0.71924 0.0
C862 C 0.3308 0.65902 0.70607 0.0
C863 C 0.31928 0.65714 0.699 0.0
O864 O 0.31528 0.65715 0.67708 0.0
O865 O 0.31022 0.6473 0.68121 0.0
O866 O 0.3167 0.65073 0.69745 0.0
O867 O 0.32191 0.66052 0.69334 0.0
H868 H 0.30189 0.65976 0.68727 0.0
H869 H 0.28979 0.66501 0.68605 0.0
H870 H 0.28946 0.65876 0.6636 0.0
H871 H 0.30142 0.65344 0.66491 0.0
H872 H 0.33787 0.64038 0.65828 0.0
H873 H 0.33222 0.64726 0.66805 0.0
H874 H 0.34368 0.6237 0.67346 0.0
H875 H 0.33798 0.63056 0.68316 0.0
H876 H 0.34009 0.66104 0.71267 0.0
H877 H 0.31979 0.65861 0.72387 0.0
H878 H 0.31371 0.6567 0.71236 0.0
H879 H 0.33391 0.65921 0.70112 0.0
C880 C 0.11872 0.55275 0.42702 0.0
C881 C 0.1112 0.55192 0.42645 0.0
C882 C 0.11246 0.53885 0.42535 0.0
C883 C 0.10811 0.54506 0.42564 0.0
C884 C 0.11997 0.53967 0.42606 0.0
C885 C 0.12305 0.54653 0.42684 0.0
U886 U 0.12404 0.57097 0.43597 0.0
O887 O 0.13423 0.57701 0.43513 0.0
O888 O 0.1242 0.58189 0.43125 0.0
C889 C 0.13125 0.58246 0.43173 0.0
C890 C 0.12216 0.56001 0.42714 0.0
C891 C 0.1351 0.58541 0.42532 0.0
C892 C 0.14552 0.5858 0.41725 0.0
C893 C 0.1416 0.58242 0.42279 0.0
C894 C 0.13645 0.59512 0.41654 0.0
C895 C 0.14305 0.59226 0.41411 0.0
C896 C 0.13255 0.59176 0.42207 0.0
C897 C 0.11813 0.57443 0.45593 0.0
C898 C 0.11512 0.5853 0.4627 0.0
C899 C 0.1181 0.57433 0.46908 0.0
C900 C 0.11913 0.57079 0.46249 0.0
C901 C 0.11601 0.58162 0.46929 0.0
C902 C 0.11617 0.58175 0.45609 0.0
C903 C 0.11867 0.57027 0.44911 0.0
O904 O 0.11787 0.56565 0.42734 0.0
O905 O 0.1279 0.56076 0.43123 0.0
O906 O 0.12507 0.56777 0.4474 0.0
O907 O 0.11503 0.57267 0.44352 0.0
H908 H 0.10768 0.55658 0.42651 0.0
H909 H 0.10231 0.54464 0.4252 0.0
H910 H 0.1235 0.53503 0.42577 0.0
H911 H 0.12887 0.54697 0.42715 0.0
H912 H 0.1506 0.58345 0.4156 0.0
H913 H 0.14378 0.57757 0.42521 0.0
H914 H 0.13429 0.60001 0.41419 0.0
H915 H 0.12759 0.59423 0.42392 0.0
H916 H 0.11361 0.59094 0.46265 0.0
H917 H 0.11873 0.57127 0.47401 0.0
H918 H 0.12057 0.56513 0.46252 0.0
H919 H 0.11536 0.5847 0.45112 0.0
C920 C 0.40548 0.47261 0.927 0.0
C921 C 0.41247 0.47415 0.92947 0.0
C922 C 0.41151 0.48655 0.92508 0.0
C923 C 0.41546 0.48104 0.92852 0.0
C924 C 0.40445 0.485 0.92277 0.0
C925 C 0.40149 0.47812 0.9237 0.0
U926 U 0.40118 0.45459 0.93675 0.0
O927 O 0.39114 0.44824 0.93654 0.0
O928 O 0.40117 0.44353 0.93241 0.0
C929 C 0.39419 0.4427 0.93333 0.0
C930 C 0.40231 0.46527 0.92747 0.0
C931 C 0.39017 0.43945 0.92726 0.0
C932 C 0.3853 0.43973 0.91505 0.0
C933 C 0.38913 0.44306 0.92069 0.0
C934 C 0.38353 0.42918 0.92251 0.0
C935 C 0.38248 0.43271 0.91588 0.0
C936 C 0.38732 0.4325 0.92812 0.0
C937 C 0.40794 0.45194 0.95648 0.0
C938 C 0.40923 0.44082 0.96338 0.0
C939 C 0.41033 0.45235 0.96939 0.0
C940 C 0.40907 0.45588 0.96284 0.0
C941 C 0.41051 0.44477 0.96976 0.0
C942 C 0.40797 0.44437 0.9568 0.0
C943 C 0.40704 0.45592 0.94963 0.0
O944 O 0.40683 0.45982 0.92771 0.0
O945 O 0.39678 0.4645 0.93185 0.0
O946 O 0.40049 0.45814 0.9481 0.0
O947 O 0.41052 0.45342 0.94397 0.0
H948 H 0.41568 0.47 0.93204 0.0
H949 H 0.42093 0.48199 0.93032 0.0
H950 H 0.40118 0.48912 0.92023 0.0
H951 H 0.39608 0.47708 0.92177 0.0
H952 H 0.38466 0.44261 0.91001 0.0
H953 H 0.39129 0.44843 0.91992 0.0
H954 H 0.38134 0.42384 0.92342 0.0
H955 H 0.38803 0.42963 0.93316 0.0
H956 H 0.40937 0.43499 0.96344 0.0
H957 H 0.41115 0.45559 0.97418 0.0
H958 H 0.40905 0.46172 0.96273 0.0
H959 H 0.40711 0.44121 0.95196 0.0
C960 C 0.84941 0.80398 0.65726 0.0
C961 C 0.84337 0.79998 0.65945 0.0
C962 C 0.85117 0.79019 0.66363 0.0
C963 C 0.84423 0.79314 0.66259 0.0
C964 C 0.85718 0.79429 0.66147 0.0
C965 C 0.85631 0.80109 0.65833 0.0
U966 U 0.83917 0.82147 0.65211 0.0
O967 O 0.84333 0.83257 0.65138 0.0
O968 O 0.83912 0.82723 0.6417 0.0
C969 C 0.84233 0.83296 0.64437 0.0
C970 C 0.84873 0.81108 0.65369 0.0
C971 C 0.84831 0.836 0.64005 0.0
C972 C 0.86106 0.83712 0.63703 0.0
C973 C 0.85551 0.83389 0.64106 0.0
C974 C 0.85228 0.84453 0.63088 0.0
C975 C 0.85952 0.8425 0.63189 0.0
C976 C 0.84676 0.84132 0.63491 0.0
C977 C 0.81951 0.82425 0.65893 0.0
C978 C 0.81253 0.83537 0.65966 0.0
C979 C 0.80658 0.82385 0.66117 0.0
C980 C 0.81318 0.82033 0.66017 0.0
C981 C 0.80615 0.83143 0.66095 0.0
C982 C 0.81914 0.83181 0.65864 0.0
C983 C 0.8264 0.82029 0.65823 0.0
O984 O 0.84421 0.81144 0.64824 0.0
O985 O 0.84838 0.81673 0.65796 0.0
O986 O 0.83205 0.82308 0.66148 0.0
O987 O 0.82791 0.81767 0.65181 0.0
H988 H 0.83799 0.80212 0.65869 0.0
H989 H 0.83948 0.79019 0.66425 0.0
H990 H 0.86259 0.79218 0.66206 0.0
H991 H 0.86104 0.80407 0.65665 0.0
H992 H 0.86656 0.83535 0.63791 0.0
H993 H 0.85684 0.82978 0.64499 0.0
H994 H 0.85086 0.84872 0.62707 0.0
H995 H 0.84125 0.84306 0.63406 0.0
H996 H 0.8124 0.8412 0.65937 0.0
H997 H 0.80184 0.82063 0.66226 0.0
H998 H 0.81334 0.81449 0.66046 0.0
H999 H 0.82397 0.83496 0.65767 0.0
C1000 C 0.97169 0.09947 0.40715 0.0
C1001 C 0.97533 0.09351 0.41007 0.0
C1002 C 0.9855 0.10119 0.41351 0.0
C1003 C 0.98217 0.09436 0.41321 0.0
C1004 C 0.98179 0.10713 0.41058 0.0
C1005 C 0.97498 0.10627 0.40745 0.0
U1006 U 0.95402 0.08939 0.40222 0.0
O1007 O 0.94299 0.09373 0.40158 0.0
O1008 O 0.94817 0.0894 0.39187 0.0
C1009 C 0.94251 0.09268 0.39458 0.0
C1010 C 0.96456 0.0988 0.40366 0.0
C1011 C 0.93945 0.09864 0.39026 0.0
C1012 C 0.93875 0.11129 0.38676 0.0
C1013 C 0.94197 0.10576 0.39082 0.0
C1014 C 0.93052 0.10264 0.38152 0.0
C1015 C 0.93296 0.10981 0.38205 0.0
C1016 C 0.93372 0.09714 0.38557 0.0
C1017 C 0.95073 0.06976 0.40901 0.0
C1018 C 0.941 0.06267 0.41437 0.0
C1019 C 0.95006 0.05676 0.4071 0.0
C1020 C 0.95347 0.06339 0.40594 0.0
C1021 C 0.94383 0.05627 0.41141 0.0
C1022 C 0.94441 0.06933 0.4132 0.0
C1023 C 0.9549 0.07659 0.40831 0.0
O1024 O 0.96411 0.09423 0.39826 0.0
O1025 O 0.95895 0.09854 0.40799 0.0
O1026 O 0.95238 0.08233 0.41163 0.0
O1027 O 0.95759 0.07805 0.40191 0.0
H1028 H 0.97288 0.08821 0.40991 0.0
H1029 H 0.98482 0.08967 0.41546 0.0
H1030 H 0.98419 0.11245 0.41058 0.0
H1031 H 0.97229 0.11094 0.4052 0.0
H1032 H 0.94084 0.11672 0.38726 0.0
H1033 H 0.9464 0.10704 0.3944 0.0
H1034 H 0.92601 0.10128 0.37807 0.0
H1035 H 0.93166 0.0917 0.38508 0.0
H1036 H 0.93627 0.06253 0.41778 0.0
H1037 H 0.95235 0.05199 0.40462 0.0
H1038 H 0.95836 0.06353 0.40274 0.0
H1039 H 0.94218 0.0741 0.41572 0.0
C1040 C 0.67639 0.22232 0.1566 0.0
C1041 C 0.67697 0.2234 0.16409 0.0
C1042 C 0.67451 0.23629 0.16265 0.0
C1043 C 0.67604 0.2303 0.16707 0.0
C1044 C 0.6741 0.23519 0.15514 0.0
C1045 C 0.675 0.2283 0.15217 0.0
U1046 U 0.68556 0.20396 0.15224 0.0
O1047 O 0.68076 0.19312 0.15176 0.0
O1048 O 0.68553 0.19785 0.14202 0.0
C1049 C 0.68197 0.19239 0.14481 0.0
C1050 C 0.67671 0.21501 0.1533 0.0
C1051 C 0.67606 0.18934 0.14041 0.0
C1052 C 0.66337 0.1882 0.13718 0.0
C1053 C 0.66885 0.19155 0.1412 0.0
C1054 C 0.67224 0.18049 0.13151 0.0
C1055 C 0.66498 0.18255 0.13234 0.0
C1056 C 0.67769 0.18384 0.13549 0.0
C1057 C 0.70487 0.20002 0.15955 0.0
C1058 C 0.71611 0.19492 0.15495 0.0
C1059 C 0.71349 0.19435 0.16771 0.0
C1060 C 0.70692 0.19788 0.16653 0.0
C1061 C 0.71823 0.19291 0.16195 0.0
C1062 C 0.70951 0.19843 0.15376 0.0
C1063 C 0.69826 0.20446 0.15859 0.0
O1064 O 0.68125 0.21416 0.14791 0.0
O1065 O 0.67654 0.20944 0.15768 0.0
O1066 O 0.69237 0.20221 0.16185 0.0
O1067 O 0.69701 0.20707 0.15211 0.0
H1068 H 0.678 0.21891 0.16767 0.0
H1069 H 0.67633 0.23089 0.17288 0.0
H1070 H 0.67306 0.23966 0.15154 0.0
H1071 H 0.6745 0.22763 0.14639 0.0
H1072 H 0.65784 0.18991 0.138 0.0
H1073 H 0.66747 0.19579 0.14497 0.0
H1074 H 0.67372 0.17628 0.12774 0.0
H1075 H 0.68321 0.18206 0.13478 0.0
H1076 H 0.71956 0.19382 0.15037 0.0
H1077 H 0.71497 0.19297 0.17319 0.0
H1078 H 0.70352 0.19912 0.17111 0.0
H1079 H 0.70814 0.20001 0.14831 0.0
C1080 C 0.55337 0.92597 0.90778 0.0
C1081 C 0.54864 0.93187 0.90823 0.0
C1082 C 0.53956 0.92437 0.9142 0.0
C1083 C 0.5418 0.93107 0.91139 0.0
C1084 C 0.54439 0.91853 0.91383 0.0
C1085 C 0.5512 0.91932 0.91066 0.0
U1086 U 0.57101 0.93572 0.90209 0.0
O1087 O 0.58201 0.93135 0.90125 0.0
O1088 O 0.57659 0.93544 0.89156 0.0
C1089 C 0.58226 0.93211 0.89419 0.0
C1090 C 0.56044 0.92645 0.90408 0.0
C1091 C 0.58512 0.92595 0.88992 0.0
C1092 C 0.58893 0.91341 0.8888 0.0
C1093 C 0.58562 0.91894 0.89277 0.0
C1094 C 0.59113 0.92174 0.879 0.0
C1095 C 0.5918 0.91474 0.88188 0.0
C1096 C 0.58785 0.92726 0.88298 0.0
C1097 C 0.57423 0.95551 0.90852 0.0
C1098 C 0.58528 0.96236 0.91052 0.0
C1099 C 0.57387 0.9686 0.90954 0.0
C1100 C 0.57036 0.962 0.90851 0.0
C1101 C 0.58137 0.96888 0.91062 0.0
C1102 C 0.58175 0.95574 0.90948 0.0
C1103 C 0.57019 0.94863 0.90796 0.0
O1104 O 0.56083 0.93081 0.8985 0.0
O1105 O 0.56617 0.92673 0.90822 0.0
O1106 O 0.57291 0.94299 0.91128 0.0
O1107 O 0.56744 0.94707 0.90162 0.0
H1108 H 0.55019 0.93707 0.90607 0.0
H1109 H 0.53827 0.93571 0.91165 0.0
H1110 H 0.54285 0.91327 0.91584 0.0
H1111 H 0.55474 0.91468 0.91035 0.0
H1112 H 0.58926 0.90808 0.89115 0.0
H1113 H 0.58356 0.91775 0.89811 0.0
H1114 H 0.59334 0.92301 0.87375 0.0
H1115 H 0.58759 0.93262 0.88068 0.0
H1116 H 0.59107 0.96237 0.91125 0.0
H1117 H 0.57065 0.97346 0.90969 0.0
H1118 H 0.56455 0.96196 0.90784 0.0
H1119 H 0.58488 0.95081 0.9095 0.0
C1120 C 0.84938 0.22195 0.86947 0.0
C1121 C 0.84517 0.22398 0.86351 0.0
C1122 C 0.85083 0.23591 0.86338 0.0
C1123 C 0.8459 0.23089 0.86048 0.0
C1124 C 0.85497 0.23383 0.86938 0.0
C1125 C 0.85425 0.22694 0.87238 0.0
U1126 U 0.83999 0.20367 0.87343 0.0
O1127 O 0.84478 0.19282 0.87385 0.0
O1128 O 0.83988 0.19744 0.88357 0.0
C1129 C 0.84353 0.19205 0.88079 0.0
C1130 C 0.84896 0.21466 0.87268 0.0
C1131 C 0.84949 0.18911 0.88522 0.0
C1132 C 0.86223 0.18792 0.88822 0.0
C1133 C 0.8567 0.19114 0.88416 0.0
C1134 C 0.85338 0.18068 0.89451 0.0
C1135 C 0.86064 0.18261 0.89343 0.0
C1136 C 0.84789 0.18389 0.89045 0.0
C1137 C 0.82082 0.19989 0.86573 0.0
C1138 C 0.81052 0.19308 0.87028 0.0
C1139 C 0.81139 0.19579 0.85754 0.0
C1140 C 0.81794 0.19936 0.85876 0.0
C1141 C 0.80754 0.19267 0.86329 0.0
C1142 C 0.81709 0.19663 0.87148 0.0
C1143 C 0.82741 0.20428 0.86688 0.0
O1144 O 0.84427 0.21381 0.87793 0.0
O1145 O 0.84909 0.20919 0.86816 0.0
O1146 O 0.83334 0.20204 0.86369 0.0
O1147 O 0.82855 0.20677 0.87342 0.0
H1148 H 0.84136 0.22022 0.86119 0.0
H1149 H 0.84256 0.23232 0.85592 0.0
H1150 H 0.8589 0.23747 0.8717 0.0
H1151 H 0.85758 0.22548 0.87696 0.0
H1152 H 0.86774 0.18961 0.88729 0.0
H1153 H 0.85807 0.19517 0.88016 0.0
H1154 H 0.85193 0.17655 0.89837 0.0
H1155 H 0.84236 0.1822 0.89133 0.0
H1156 H 0.80776 0.19066 0.87482 0.0
H1157 H 0.80925 0.19568 0.85211 0.0
H1158 H 0.82067 0.20187 0.85424 0.0
H1159 H 0.81918 0.19693 0.87693 0.0
C1160 C 0.55415 0.09962 0.61802 0.0
C1161 C 0.54952 0.09367 0.61731 0.0
C1162 C 0.54017 0.10135 0.61205 0.0
C1163 C 0.5426 0.09453 0.61435 0.0
C1164 C 0.54491 0.10725 0.61266 0.0
C1165 C 0.5518 0.10639 0.61562 0.0
U1166 U 0.57173 0.08954 0.62325 0.0
O1167 O 0.58289 0.09367 0.62346 0.0
O1168 O 0.57776 0.09 0.63347 0.0
C1169 C 0.58345 0.09301 0.6305 0.0
C1170 C 0.56133 0.09903 0.62147 0.0
C1171 C 0.58672 0.09915 0.63441 0.0
C1172 C 0.58591 0.11042 0.64113 0.0
C1173 C 0.58259 0.10484 0.63722 0.0
C1174 C 0.59751 0.10472 0.63939 0.0
C1175 C 0.59343 0.11043 0.64228 0.0
C1176 C 0.59419 0.09916 0.63551 0.0
C1177 C 0.57441 0.06961 0.61715 0.0
C1178 C 0.58531 0.06264 0.61474 0.0
C1179 C 0.57395 0.05649 0.61654 0.0
C1180 C 0.57052 0.06314 0.61757 0.0
C1181 C 0.58138 0.05614 0.61505 0.0
C1182 C 0.58186 0.06931 0.61579 0.0
C1183 C 0.57044 0.07652 0.61772 0.0
O1184 O 0.56181 0.09477 0.62712 0.0
O1185 O 0.56689 0.09851 0.61711 0.0
O1186 O 0.57307 0.08205 0.61414 0.0
O1187 O 0.56799 0.07828 0.62414 0.0
H1188 H 0.55121 0.08838 0.61912 0.0
H1189 H 0.5391 0.08987 0.61403 0.0
H1190 H 0.54332 0.11256 0.61083 0.0
H1191 H 0.55529 0.11105 0.61609 0.0
H1192 H 0.58259 0.11476 0.6432 0.0
H1193 H 0.5768 0.10494 0.63643 0.0
H1194 H 0.60327 0.10444 0.64025 0.0
H1195 H 0.59749 0.0948 0.63343 0.0
H1196 H 0.59105 0.06259 0.6137 0.0
H1197 H 0.57071 0.05164 0.61672 0.0
H1198 H 0.56476 0.06322 0.61855 0.0
H1199 H 0.58501 0.07422 0.61546 0.0
C1200 C 0.67524 0.80379 0.36861 0.0
C1201 C 0.681 0.80052 0.36494 0.0
C1202 C 0.67359 0.78989 0.36242 0.0
C1203 C 0.68019 0.79363 0.36188 0.0
C1204 C 0.66786 0.79322 0.36615 0.0
C1205 C 0.66869 0.80007 0.3692 0.0
U1206 U 0.6853 0.82161 0.37292 0.0
O1207 O 0.68102 0.83271 0.37292 0.0
O1208 O 0.68513 0.82798 0.38295 0.0
C1209 C 0.6819 0.83351 0.37991 0.0
C1210 C 0.67586 0.81104 0.37186 0.0
C1211 C 0.6758 0.83677 0.38391 0.0
C1212 C 0.66493 0.8359 0.39129 0.0
C1213 C 0.6705 0.83258 0.38735 0.0
C1214 C 0.66985 0.84762 0.38832 0.0
C1215 C 0.66453 0.84348 0.39183 0.0
C1216 C 0.6754 0.8443 0.38442 0.0
C1217 C 0.70488 0.82426 0.36574 0.0
C1218 C 0.71345 0.83369 0.36896 0.0
C1219 C 0.71626 0.82538 0.3593 0.0
C1220 C 0.70964 0.82192 0.36036 0.0
C1221 C 0.7183 0.83128 0.36361 0.0
C1222 C 0.7068 0.83021 0.37002 0.0
C1223 C 0.69806 0.82026 0.36682 0.0
O1224 O 0.68039 0.8117 0.37727 0.0
O1225 O 0.67616 0.81648 0.36733 0.0
O1226 O 0.69237 0.82274 0.36342 0.0
O1227 O 0.69663 0.81811 0.37342 0.0
H1228 H 0.68611 0.80331 0.36441 0.0
H1229 H 0.6847 0.79128 0.359 0.0
H1230 H 0.66275 0.79048 0.3668 0.0
H1231 H 0.66418 0.80248 0.37203 0.0
H1232 H 0.6609 0.83254 0.39384 0.0
H1233 H 0.67069 0.82675 0.38702 0.0
H1234 H 0.66982 0.85344 0.38869 0.0
H1235 H 0.67944 0.84764 0.38185 0.0
H1236 H 0.71484 0.83818 0.37242 0.0
H1237 H 0.71977 0.82344 0.35504 0.0
H1238 H 0.70825 0.81737 0.35697 0.0
H1239 H 0.7032 0.83211 0.37422 0.0
C1240 C 0.97134 0.92546 0.11761 0.0
C1241 C 0.97608 0.93137 0.11736 0.0
C1242 C 0.98527 0.92398 0.11142 0.0
C1243 C 0.98298 0.93063 0.11432 0.0
C1244 C 0.98044 0.91812 0.11161 0.0
C1245 C 0.97357 0.91887 0.11466 0.0
U1246 U 0.9534 0.93499 0.12279 0.0
O1247 O 0.94241 0.93045 0.12302 0.0
O1248 O 0.94735 0.93445 0.133 0.0
C1249 C 0.94181 0.93115 0.13005 0.0
C1250 C 0.96417 0.92589 0.12113 0.0
C1251 C 0.93869 0.92494 0.13401 0.0
C1252 C 0.93944 0.91517 0.1428 0.0
C1253 C 0.94275 0.92069 0.1388 0.0
C1254 C 0.928 0.918 0.13721 0.0
C1255 C 0.932 0.91377 0.14209 0.0
C1256 C 0.93131 0.9235 0.13324 0.0
C1257 C 0.94969 0.95462 0.11616 0.0
C1258 C 0.94513 0.96603 0.12089 0.0
C1259 C 0.94365 0.96322 0.10825 0.0
C1260 C 0.94713 0.95661 0.10931 0.0
C1261 C 0.94268 0.96808 0.114 0.0
C1262 C 0.9486 0.95939 0.12196 0.0
C1263 C 0.95406 0.94793 0.11695 0.0
O1264 O 0.96356 0.93025 0.12668 0.0
O1265 O 0.95856 0.92608 0.11681 0.0
O1266 O 0.95177 0.94219 0.11346 0.0
O1267 O 0.95663 0.94641 0.12338 0.0
H1268 H 0.97448 0.93654 0.11957 0.0
H1269 H 0.98651 0.93528 0.11419 0.0
H1270 H 0.98202 0.9129 0.10954 0.0
H1271 H 0.97003 0.91422 0.11482 0.0
H1272 H 0.94271 0.91199 0.14643 0.0
H1273 H 0.94846 0.92168 0.1395 0.0
H1274 H 0.92226 0.91718 0.13658 0.0
H1275 H 0.92804 0.92673 0.12964 0.0
H1276 H 0.94441 0.96958 0.12547 0.0
H1277 H 0.94194 0.96463 0.10285 0.0
H1278 H 0.94799 0.95311 0.1047 0.0
H1279 H 0.95054 0.95808 0.12731 0.0
C1280 C 0.65759 0.84988 0.80427 0.0
C1281 C 0.65764 0.84415 0.7993 0.0
C1282 C 0.6638 0.85166 0.79038 0.0
C1283 C 0.66069 0.84503 0.79243 0.0
C1284 C 0.66383 0.85734 0.79542 0.0
C1285 C 0.66075 0.85645 0.80227 0.0
U1286 U 0.65228 0.83983 0.82184 0.0
O1287 O 0.65183 0.84397 0.83297 0.0
O1288 O 0.64198 0.84006 0.82776 0.0
C1289 C 0.64482 0.84311 0.83349 0.0
C1290 C 0.65403 0.84931 0.81141 0.0
C1291 C 0.64073 0.84914 0.83673 0.0
C1292 C 0.63605 0.86142 0.83658 0.0
C1293 C 0.63994 0.85582 0.83326 0.0
C1294 C 0.63368 0.85369 0.84683 0.0
C1295 C 0.63289 0.86044 0.84345 0.0
C1296 C 0.63755 0.84813 0.84352 0.0
C1297 C 0.6587 0.82002 0.82458 0.0
C1298 C 0.66069 0.81311 0.83559 0.0
C1299 C 0.6598 0.80694 0.82413 0.0
C1300 C 0.65875 0.81356 0.82065 0.0
C1301 C 0.66084 0.80662 0.83164 0.0
C1302 C 0.65962 0.81975 0.8321 0.0
C1303 C 0.65807 0.82692 0.8206 0.0
O1304 O 0.64843 0.84498 0.81187 0.0
O1305 O 0.65831 0.84891 0.81704 0.0
O1306 O 0.6615 0.83251 0.82328 0.0
O1307 O 0.65166 0.82855 0.81807 0.0
H1308 H 0.65526 0.839 0.80071 0.0
H1309 H 0.66065 0.84052 0.78873 0.0
H1310 H 0.66607 0.86254 0.79403 0.0
H1311 H 0.66075 0.86096 0.80598 0.0
H1312 H 0.63561 0.86655 0.83383 0.0
H1313 H 0.64236 0.85671 0.82802 0.0
H1314 H 0.63123 0.85267 0.85204 0.0
H1315 H 0.63805 0.843 0.84627 0.0
H1316 H 0.66138 0.81307 0.84139 0.0
H1317 H 0.65998 0.80209 0.82088 0.0
H1318 H 0.6581 0.81363 0.81484 0.0
H1319 H 0.65958 0.82466 0.83526 0.0
C1320 C 0.92668 0.90678 0.55342 0.0
C1321 C 0.92399 0.91383 0.55261 0.0
C1322 C 0.9248 0.91292 0.53948 0.0
C1323 C 0.92309 0.91687 0.54574 0.0
C1324 C 0.92758 0.90591 0.5403 0.0
C1325 C 0.92849 0.90288 0.54717 0.0
U1326 U 0.93579 0.90161 0.57164 0.0
O1327 O 0.93104 0.90103 0.58251 0.0
O1328 O 0.93543 0.89126 0.57749 0.0
C1329 C 0.93197 0.89402 0.58303 0.0
C1330 C 0.92692 0.90327 0.56066 0.0
C1331 C 0.9259 0.88974 0.58598 0.0
C1332 C 0.91309 0.88767 0.58814 0.0
C1333 C 0.91865 0.89159 0.58479 0.0
C1334 C 0.92195 0.87993 0.59378 0.0
C1335 C 0.91467 0.88184 0.59276 0.0
C1336 C 0.92747 0.88383 0.59043 0.0
C1337 C 0.95548 0.90809 0.57542 0.0
C1338 C 0.96263 0.91384 0.58488 0.0
C1339 C 0.96838 0.90571 0.57646 0.0
C1340 C 0.96176 0.90458 0.57303 0.0
C1341 C 0.96895 0.91044 0.58237 0.0
C1342 C 0.95599 0.9127 0.58144 0.0
C1343 C 0.94872 0.90747 0.57113 0.0
O1344 O 0.93123 0.89769 0.56139 0.0
O1345 O 0.92694 0.90752 0.56635 0.0
O1346 O 0.94298 0.91088 0.57352 0.0
O1347 O 0.94722 0.9011 0.56842 0.0
H1348 H 0.92242 0.91696 0.55729 0.0
H1349 H 0.92084 0.92223 0.54535 0.0
H1350 H 0.92904 0.90273 0.53562 0.0
H1351 H 0.93048 0.8974 0.54755 0.0
H1352 H 0.90757 0.88932 0.58726 0.0
H1353 H 0.91729 0.89613 0.58138 0.0
H1354 H 0.92339 0.87541 0.59717 0.0
H1355 H 0.93302 0.88229 0.59142 0.0
H1356 H 0.96285 0.91758 0.58936 0.0
H1357 H 0.97309 0.9029 0.57444 0.0
H1358 H 0.96158 0.90106 0.56836 0.0
H1359 H 0.9513 0.91558 0.5834 0.0
C1360 C 0.86864 0.17693 0.30363 0.0
C1361 C 0.86126 0.1753 0.30291 0.0
C1362 C 0.86235 0.17503 0.28977 0.0
C1363 C 0.85816 0.17438 0.29608 0.0
C1364 C 0.86969 0.17678 0.29049 0.0
C1365 C 0.8728 0.17768 0.29732 0.0
U1366 U 0.8738 0.18599 0.32187 0.0
O1367 O 0.8745 0.1812 0.33271 0.0
O1368 O 0.8842 0.18572 0.32765 0.0
C1369 C 0.88151 0.18218 0.33317 0.0
C1370 C 0.87219 0.17717 0.31084 0.0
C1371 C 0.88588 0.17614 0.33605 0.0
C1372 C 0.88768 0.16341 0.33886 0.0
C1373 C 0.88367 0.1689 0.33552 0.0
C1374 C 0.89622 0.17228 0.34316 0.0
C1375 C 0.89396 0.16504 0.34282 0.0
C1376 C 0.89223 0.17774 0.33982 0.0
C1377 C 0.86709 0.20558 0.32585 0.0
C1378 C 0.86072 0.21283 0.33483 0.0
C1379 C 0.86992 0.21834 0.32741 0.0
C1380 C 0.87111 0.21173 0.32396 0.0
C1381 C 0.86463 0.21903 0.33282 0.0
C1382 C 0.86191 0.20621 0.33137 0.0
C1383 C 0.86778 0.19885 0.3215 0.0
O1384 O 0.87772 0.18155 0.31155 0.0
O1385 O 0.86799 0.17709 0.31657 0.0
O1386 O 0.86446 0.19305 0.32386 0.0
O1387 O 0.87416 0.19744 0.31873 0.0
H1388 H 0.85789 0.17461 0.30763 0.0
H1389 H 0.85247 0.17313 0.29574 0.0
H1390 H 0.87312 0.17722 0.28578 0.0
H1391 H 0.87852 0.1788 0.29767 0.0
H1392 H 0.88574 0.15792 0.33852 0.0
H1393 H 0.87879 0.1675 0.33265 0.0
H1394 H 0.90109 0.17374 0.34603 0.0
H1395 H 0.89405 0.18327 0.34031 0.0
H1396 H 0.85654 0.21315 0.3389 0.0
H1397 H 0.87311 0.22295 0.32578 0.0
H1398 H 0.87507 0.21148 0.31967 0.0
H1399 H 0.85863 0.20163 0.33291 0.0
C1400 C 0.59827 0.11817 0.05332 0.0
C1401 C 0.60026 0.11089 0.05261 0.0
C1402 C 0.6002 0.11187 0.03945 0.0
C1403 C 0.6012 0.10778 0.04577 0.0
C1404 C 0.59808 0.11912 0.04017 0.0
C1405 C 0.59717 0.12224 0.04701 0.0
U1406 U 0.58931 0.12322 0.07167 0.0
O1407 O 0.59422 0.12402 0.08244 0.0
O1408 O 0.58946 0.13363 0.07745 0.0
C1409 C 0.59312 0.13101 0.08292 0.0
C1410 C 0.59802 0.12175 0.06052 0.0
C1411 C 0.59916 0.13547 0.08567 0.0
C1412 C 0.61194 0.13756 0.08797 0.0
C1413 C 0.60642 0.13348 0.08476 0.0
C1414 C 0.60305 0.14574 0.0929 0.0
C1415 C 0.61033 0.14371 0.09214 0.0
C1416 C 0.59755 0.14166 0.08971 0.0
C1417 C 0.57001 0.11597 0.07601 0.0
C1418 C 0.55875 0.12063 0.08101 0.0
C1419 C 0.56139 0.10789 0.08182 0.0
C1420 C 0.56797 0.10904 0.07828 0.0
C1421 C 0.55663 0.11365 0.08314 0.0
C1422 C 0.56535 0.12178 0.07749 0.0
C1423 C 0.5766 0.11686 0.07152 0.0
O1424 O 0.59351 0.12718 0.06127 0.0
O1425 O 0.59827 0.11758 0.06626 0.0
O1426 O 0.58251 0.11368 0.07381 0.0
O1427 O 0.57782 0.12326 0.06871 0.0
H1428 H 0.60124 0.10759 0.05733 0.0
H1429 H 0.60274 0.10216 0.04544 0.0
H1430 H 0.59736 0.12248 0.03545 0.0
H1431 H 0.59576 0.12789 0.04734 0.0
H1432 H 0.61748 0.13588 0.08719 0.0
H1433 H 0.60782 0.12873 0.08167 0.0
H1434 H 0.60156 0.15036 0.09614 0.0
H1435 H 0.592 0.14328 0.09053 0.0
H1436 H 0.55528 0.12521 0.08202 0.0
H1437 H 0.55992 0.10243 0.08328 0.0
H1438 H 0.57139 0.10444 0.07713 0.0
H1439 H 0.56672 0.1272 0.07581 0.0
C1440 C 0.65665 0.17527 0.7222 0.0
C1441 C 0.66104 0.1807 0.72511 0.0
C1442 C 0.66287 0.17357 0.73607 0.0
C1443 C 0.66412 0.17987 0.73199 0.0
C1444 C 0.65841 0.16819 0.73311 0.0
C1445 C 0.65535 0.16903 0.72627 0.0
U1446 U 0.65193 0.18531 0.70443 0.0
O1447 O 0.65196 0.18107 0.6933 0.0
O1448 O 0.64186 0.18482 0.69818 0.0
C1449 C 0.64494 0.1817 0.6926 0.0
C1450 C 0.65341 0.17586 0.71494 0.0
C1451 C 0.64111 0.17549 0.68935 0.0
C1452 C 0.63333 0.16491 0.69018 0.0
C1453 C 0.6372 0.1705 0.69352 0.0
C1454 C 0.6373 0.16915 0.67849 0.0
C1455 C 0.6333 0.16417 0.68261 0.0
C1456 C 0.64114 0.17472 0.68183 0.0
C1457 C 0.65802 0.20521 0.7017 0.0
C1458 C 0.66031 0.21205 0.69069 0.0
C1459 C 0.65865 0.21833 0.70201 0.0
C1460 C 0.65766 0.21173 0.70553 0.0
C1461 C 0.66005 0.2186 0.69455 0.0
C1462 C 0.6593 0.20542 0.69423 0.0
C1463 C 0.65741 0.19834 0.70574 0.0
O1464 O 0.64782 0.18017 0.71434 0.0
O1465 O 0.65793 0.1764 0.7095 0.0
O1466 O 0.66105 0.1928 0.70324 0.0
O1467 O 0.65095 0.1966 0.70808 0.0
H1468 H 0.66212 0.18556 0.72206 0.0
H1469 H 0.66756 0.1841 0.73406 0.0
H1470 H 0.65721 0.16333 0.73611 0.0
H1471 H 0.65195 0.16478 0.72414 0.0
H1472 H 0.63039 0.16114 0.69353 0.0
H1473 H 0.6371 0.17096 0.69935 0.0
H1474 H 0.63734 0.16885 0.67266 0.0
H1475 H 0.64408 0.17853 0.6785 0.0
H1476 H 0.66129 0.21204 0.68493 0.0
H1477 H 0.65851 0.22323 0.70519 0.0
H1478 H 0.65673 0.21171 0.7113 0.0
H1479 H 0.65958 0.20048 0.69114 0.0
C1480 C 0.59995 0.90714 0.47153 0.0
C1481 C 0.59395 0.90983 0.4753 0.0
C1482 C 0.60162 0.91304 0.48555 0.0
C1483 C 0.59478 0.91276 0.48224 0.0
C1484 C 0.6076 0.9104 0.48168 0.0
C1485 C 0.60677 0.90748 0.47477 0.0
U1486 U 0.58979 0.90236 0.45384 0.0
O1487 O 0.59397 0.90231 0.44269 0.0
O1488 O 0.59019 0.89225 0.44763 0.0
C1489 C 0.59327 0.89529 0.44201 0.0
C1490 C 0.59931 0.90385 0.46429 0.0
C1491 C 0.59942 0.89139 0.43872 0.0
C1492 C 0.6104 0.88421 0.43953 0.0
C1493 C 0.60483 0.88812 0.44288 0.0
C1494 C 0.60526 0.88688 0.42785 0.0
C1495 C 0.61069 0.88352 0.43196 0.0
C1496 C 0.59972 0.89076 0.43119 0.0
C1497 C 0.56991 0.90867 0.45126 0.0
C1498 C 0.56299 0.91114 0.44034 0.0
C1499 C 0.55682 0.90968 0.45175 0.0
C1500 C 0.56344 0.90849 0.45517 0.0
C1501 C 0.5565 0.91112 0.4443 0.0
C1502 C 0.56963 0.90993 0.44379 0.0
C1503 C 0.57682 0.90797 0.45522 0.0
O1504 O 0.59495 0.89829 0.46373 0.0
O1505 O 0.59878 0.90834 0.45883 0.0
O1506 O 0.58238 0.91155 0.45266 0.0
O1507 O 0.57851 0.90149 0.45755 0.0
H1508 H 0.58864 0.90961 0.47289 0.0
H1509 H 0.59005 0.91469 0.48506 0.0
H1510 H 0.61297 0.91064 0.48397 0.0
H1511 H 0.61147 0.90547 0.47195 0.0
H1512 H 0.61451 0.88177 0.44288 0.0
H1513 H 0.60472 0.88854 0.44871 0.0
H1514 H 0.6052 0.88639 0.42203 0.0
H1515 H 0.59558 0.89321 0.42787 0.0
H1516 H 0.56298 0.91228 0.43462 0.0
H1517 H 0.55195 0.90948 0.45497 0.0
H1518 H 0.56351 0.90752 0.46094 0.0
H1519 H 0.57455 0.91012 0.44063 0.0
C1520 C 0.86811 0.85022 0.22233 0.0
C1521 C 0.86512 0.84427 0.22592 0.0
C1522 C 0.86213 0.85184 0.23632 0.0
C1523 C 0.86215 0.84507 0.23285 0.0
C1524 C 0.86508 0.85778 0.23263 0.0
C1525 C 0.86804 0.85697 0.22573 0.0
U1526 U 0.87286 0.83994 0.20474 0.0
O1527 O 0.87301 0.84398 0.19356 0.0
O1528 O 0.883 0.84013 0.19856 0.0
C1529 C 0.88002 0.84314 0.19288 0.0
C1530 C 0.87143 0.84957 0.2151 0.0
C1531 C 0.88402 0.84916 0.18952 0.0
C1532 C 0.8899 0.86091 0.19 0.0
C1533 C 0.88598 0.85537 0.19339 0.0
C1534 C 0.88988 0.8541 0.17886 0.0
C1535 C 0.89189 0.86035 0.18267 0.0
C1536 C 0.88599 0.84859 0.18224 0.0
C1537 C 0.86643 0.82013 0.20231 0.0
C1538 C 0.86525 0.81316 0.19122 0.0
C1539 C 0.86459 0.80714 0.20278 0.0
C1540 C 0.86561 0.81375 0.20628 0.0
C1541 C 0.86435 0.80674 0.1952 0.0
C1542 C 0.86629 0.81979 0.19474 0.0
C1543 C 0.86712 0.82704 0.20625 0.0
O1544 O 0.87697 0.84519 0.21458 0.0
O1545 O 0.86696 0.84905 0.20963 0.0
O1546 O 0.86361 0.8326 0.2036 0.0
O1547 O 0.8736 0.82871 0.20859 0.0
H1548 H 0.86513 0.839 0.22339 0.0
H1549 H 0.85998 0.84036 0.23554 0.0
H1550 H 0.86505 0.8631 0.23504 0.0
H1551 H 0.87029 0.86165 0.22303 0.0
H1552 H 0.89128 0.86566 0.19309 0.0
H1553 H 0.8845 0.85592 0.19902 0.0
H1554 H 0.89141 0.85339 0.17327 0.0
H1555 H 0.88456 0.84383 0.17917 0.0
H1556 H 0.86518 0.81306 0.18538 0.0
H1557 H 0.86381 0.80237 0.20604 0.0
H1558 H 0.86566 0.81389 0.21212 0.0
H1559 H 0.86693 0.82464 0.19156 0.0
C1560 C 0.92669 0.11864 0.97233 0.0
C1561 C 0.92503 0.11128 0.97318 0.0
C1562 C 0.92473 0.11258 0.9863 0.0
C1563 C 0.92408 0.1083 0.98006 0.0
C1564 C 0.92649 0.11992 0.98544 0.0
C1565 C 0.92743 0.1229 0.97856 0.0
U1566 U 0.93598 0.12306 0.95404 0.0
O1567 O 0.9313 0.12358 0.94315 0.0
O1568 O 0.93608 0.13328 0.94794 0.0
C1569 C 0.93249 0.13054 0.94248 0.0
C1570 C 0.92704 0.12205 0.96505 0.0
C1571 C 0.92654 0.13497 0.93951 0.0
C1572 C 0.91378 0.13737 0.93743 0.0
C1573 C 0.91924 0.13334 0.94078 0.0
C1574 C 0.92281 0.14478 0.93162 0.0
C1575 C 0.91549 0.14309 0.93272 0.0
C1576 C 0.92825 0.14077 0.93497 0.0
C1577 C 0.95521 0.11529 0.9506 0.0
C1578 C 0.96357 0.11838 0.94092 0.0
C1579 C 0.96648 0.10872 0.9492 0.0
C1580 C 0.95998 0.10988 0.95284 0.0
C1581 C 0.9684 0.11296 0.9432 0.0
C1582 C 0.95703 0.11953 0.94459 0.0
C1583 C 0.94854 0.11648 0.95481 0.0
O1584 O 0.93163 0.12739 0.96424 0.0
O1585 O 0.92682 0.11774 0.95942 0.0
O1586 O 0.94266 0.11337 0.95238 0.0
O1587 O 0.94742 0.12306 0.95719 0.0
H1588 H 0.92431 0.10783 0.96852 0.0
H1589 H 0.92263 0.10266 0.98048 0.0
H1590 H 0.92713 0.12338 0.9901 0.0
H1591 H 0.92862 0.1286 0.97811 0.0
H1592 H 0.90821 0.13587 0.93837 0.0
H1593 H 0.91777 0.12889 0.94427 0.0
H1594 H 0.92436 0.14922 0.92816 0.0
H1595 H 0.93383 0.14214 0.93392 0.0
H1596 H 0.96481 0.1217 0.93628 0.0
H1597 H 0.97009 0.1046 0.95121 0.0
H1598 H 0.9587 0.10658 0.95749 0.0
H1599 H 0.95342 0.12374 0.94276 0.0
C1600 C 0.80348 0.65773 0.84896 0.0
C1601 C 0.80264 0.66489 0.85134 0.0
C1602 C 0.78952 0.6638 0.85087 0.0
C1603 C 0.79576 0.66788 0.85226 0.0
C1604 C 0.79036 0.65668 0.84837 0.0
C1605 C 0.79724 0.65368 0.84746 0.0
U1606 U 0.82173 0.65246 0.83994 0.0
O1607 O 0.83264 0.65234 0.84469 0.0
O1608 O 0.8278 0.64229 0.84075 0.0
C1609 C 0.83325 0.6453 0.84415 0.0
C1610 C 0.81074 0.65428 0.84878 0.0
C1611 C 0.83624 0.64144 0.85051 0.0
C1612 C 0.83609 0.63152 0.85916 0.0
C1613 C 0.83274 0.63549 0.85366 0.0
C1614 C 0.84641 0.63946 0.85861 0.0
C1615 C 0.84302 0.63338 0.86165 0.0
C1616 C 0.84307 0.64341 0.85311 0.0
C1617 C 0.82545 0.65846 0.82006 0.0
C1618 C 0.83502 0.66403 0.81292 0.0
C1619 C 0.82637 0.6562 0.80712 0.0
C1620 C 0.82294 0.65508 0.81376 0.0
C1621 C 0.83239 0.66079 0.80657 0.0
C1622 C 0.83159 0.6629 0.81957 0.0
C1623 C 0.82115 0.65789 0.82682 0.0
O1624 O 0.81152 0.64857 0.84464 0.0
O1625 O 0.81637 0.65858 0.8486 0.0
O1626 O 0.82341 0.66153 0.83247 0.0
O1627 O 0.81862 0.65148 0.8285 0.0
H1628 H 0.8073 0.66815 0.85264 0.0
H1629 H 0.79534 0.67341 0.8541 0.0
H1630 H 0.78569 0.65333 0.84735 0.0
H1631 H 0.79766 0.64811 0.84576 0.0
H1632 H 0.83332 0.62685 0.86131 0.0
H1633 H 0.82748 0.63379 0.85176 0.0
H1634 H 0.85168 0.64116 0.86045 0.0
H1635 H 0.84591 0.64795 0.85077 0.0
H1636 H 0.8396 0.66765 0.81272 0.0
H1637 H 0.82425 0.65351 0.80239 0.0
H1638 H 0.81819 0.65168 0.81393 0.0
H1639 H 0.83364 0.66566 0.82429 0.0
C1640 C 0.303 0.8691 0.17698 0.0
C1641 C 0.30103 0.86301 0.18102 0.0
C1642 C 0.28909 0.86294 0.17542 0.0
C1643 C 0.29415 0.85995 0.18024 0.0
C1644 C 0.2911 0.8691 0.17145 0.0
C1645 C 0.29796 0.87213 0.17223 0.0
U1646 U 0.32125 0.87302 0.18642 0.0
O1647 O 0.33213 0.87341 0.18166 0.0
O1648 O 0.32752 0.88313 0.18657 0.0
C1649 C 0.33292 0.88034 0.18292 0.0
C1650 C 0.31029 0.87232 0.17742 0.0
C1651 C 0.33588 0.88477 0.17697 0.0
C1652 C 0.33688 0.88794 0.16424 0.0
C1653 C 0.33368 0.88386 0.16977 0.0
C1654 C 0.34442 0.89394 0.17304 0.0
C1655 C 0.34233 0.89302 0.16579 0.0
C1656 C 0.34123 0.88986 0.17854 0.0
C1657 C 0.32481 0.8652 0.20558 0.0
C1658 C 0.33324 0.86923 0.21482 0.0
C1659 C 0.32738 0.85764 0.21601 0.0
C1660 C 0.32377 0.85881 0.20949 0.0
C1661 C 0.33213 0.86286 0.21882 0.0
C1662 C 0.32963 0.87039 0.20827 0.0
C1663 C 0.3205 0.86641 0.19897 0.0
O1664 O 0.31113 0.87755 0.18212 0.0
O1665 O 0.31576 0.86782 0.17727 0.0
O1666 O 0.3228 0.86325 0.19305 0.0
O1667 O 0.31812 0.87299 0.19787 0.0
H1668 H 0.30483 0.8606 0.18474 0.0
H1669 H 0.29278 0.85527 0.18344 0.0
H1670 H 0.28741 0.8715 0.16762 0.0
H1671 H 0.29937 0.87681 0.16903 0.0
H1672 H 0.33507 0.88714 0.15875 0.0
H1673 H 0.32954 0.87997 0.16842 0.0
H1674 H 0.34866 0.89769 0.17446 0.0
H1675 H 0.34304 0.89062 0.18404 0.0
H1676 H 0.33692 0.87333 0.21676 0.0
H1677 H 0.32628 0.85272 0.21896 0.0
H1678 H 0.32005 0.85475 0.20755 0.0
H1679 H 0.33054 0.87536 0.20535 0.0
C1680 C 0.90623 0.5532 0.92595 0.0
C1681 C 0.90976 0.54987 0.93177 0.0
C1682 C 0.91227 0.53924 0.92434 0.0
C1683 C 0.91275 0.54296 0.93096 0.0
C1684 C 0.90877 0.54267 0.91854 0.0
C1685 C 0.90579 0.54955 0.91935 0.0
U1686 U 0.90206 0.57114 0.93588 0.0
O1687 O 0.90155 0.58211 0.93139 0.0
O1688 O 0.89186 0.57727 0.93613 0.0
C1689 C 0.89459 0.58276 0.93258 0.0
C1690 C 0.90291 0.56041 0.9266 0.0
C1691 C 0.89018 0.5857 0.92661 0.0
C1692 C 0.88776 0.58758 0.91382 0.0
C1693 C 0.89181 0.58434 0.91933 0.0
C1694 C 0.88031 0.59346 0.92278 0.0
C1695 C 0.88197 0.59223 0.91547 0.0
C1696 C 0.88437 0.59024 0.92826 0.0
C1697 C 0.90986 0.57444 0.95508 0.0
C1698 C 0.90603 0.5832 0.96411 0.0
C1699 C 0.9172 0.57667 0.96573 0.0
C1700 C 0.91604 0.57306 0.95921 0.0
C1701 C 0.9122 0.58177 0.96831 0.0
C1702 C 0.90488 0.57958 0.95755 0.0
C1703 C 0.90869 0.57022 0.94841 0.0
O1704 O 0.8977 0.56107 0.93136 0.0
O1705 O 0.90736 0.56593 0.92659 0.0
O1706 O 0.91181 0.57266 0.94253 0.0
O1707 O 0.90212 0.56781 0.94727 0.0
H1708 H 0.91015 0.5526 0.93692 0.0
H1709 H 0.91535 0.54048 0.93557 0.0
H1710 H 0.90839 0.54007 0.91332 0.0
H1711 H 0.90312 0.55204 0.91479 0.0
H1712 H 0.88914 0.58643 0.90826 0.0
H1713 H 0.89625 0.58083 0.9179 0.0
H1714 H 0.87598 0.59708 0.92428 0.0
H1715 H 0.88303 0.5914 0.93384 0.0
H1716 H 0.9021 0.58714 0.96587 0.0
H1717 H 0.92196 0.57533 0.96884 0.0
H1718 H 0.91994 0.56909 0.95743 0.0
H1719 H 0.90007 0.58074 0.95445 0.0
C1720 C 0.22116 0.15651 0.67578 0.0
C1721 C 0.22527 0.15843 0.68184 0.0
C1722 C 0.23516 0.16243 0.67405 0.0
C1723 C 0.2322 0.16137 0.68099 0.0
C1724 C 0.23094 0.16059 0.66802 0.0
C1725 C 0.22404 0.15766 0.66888 0.0
U1726 U 0.20356 0.1517 0.68601 0.0
O1727 O 0.19243 0.15138 0.68189 0.0
O1728 O 0.19748 0.14148 0.6859 0.0
C1729 C 0.19181 0.14438 0.6828 0.0
C1730 C 0.21397 0.15313 0.67644 0.0
C1731 C 0.18856 0.14027 0.67679 0.0
C1732 C 0.18848 0.13595 0.66437 0.0
C1733 C 0.19183 0.13983 0.66996 0.0
C1734 C 0.17864 0.13291 0.67238 0.0
C1735 C 0.18181 0.13247 0.66549 0.0
C1736 C 0.18197 0.13676 0.67794 0.0
C1737 C 0.20089 0.15831 0.70579 0.0
C1738 C 0.19016 0.16151 0.71272 0.0
C1739 C 0.20127 0.15866 0.71893 0.0
C1740 C 0.20466 0.15744 0.71229 0.0
C1741 C 0.19399 0.16081 0.71925 0.0
C1742 C 0.19357 0.16028 0.70607 0.0
C1743 C 0.20487 0.15757 0.69888 0.0
O1744 O 0.21346 0.14763 0.68089 0.0
O1745 O 0.20844 0.15754 0.67687 0.0
O1746 O 0.20227 0.16101 0.69326 0.0
O1747 O 0.20732 0.15111 0.6973 0.0
H1748 H 0.22316 0.15759 0.68722 0.0
H1749 H 0.2353 0.16267 0.68576 0.0
H1750 H 0.23295 0.16145 0.6626 0.0
H1751 H 0.22095 0.15625 0.66413 0.0
H1752 H 0.19106 0.13578 0.65913 0.0
H1753 H 0.19692 0.1425 0.66895 0.0
H1754 H 0.17359 0.13021 0.67352 0.0
H1755 H 0.17938 0.13701 0.68318 0.0
H1756 H 0.18458 0.16321 0.71274 0.0
H1757 H 0.20437 0.15792 0.72382 0.0
H1758 H 0.2103 0.15593 0.71223 0.0
H1759 H 0.19052 0.16099 0.70114 0.0
C1760 C 0.11857 0.97194 0.92699 0.0
C1761 C 0.11111 0.97288 0.926 0.0
C1762 C 0.11262 0.98594 0.92502 0.0
C1763 C 0.10818 0.97978 0.92504 0.0
C1764 C 0.12007 0.98499 0.92614 0.0
C1765 C 0.123 0.97809 0.92708 0.0
U1766 U 0.12291 0.95358 0.93617 0.0
O1767 O 0.12335 0.94272 0.93137 0.0
O1768 O 0.13309 0.94742 0.93614 0.0
C1769 C 0.13029 0.94196 0.9326 0.0
C1770 C 0.12191 0.96464 0.92731 0.0
C1771 C 0.13467 0.93889 0.92668 0.0
C1772 C 0.13851 0.93833 0.91411 0.0
C1773 C 0.1345 0.94165 0.91963 0.0
C1774 C 0.14295 0.92953 0.92266 0.0
C1775 C 0.14274 0.93217 0.91554 0.0
C1776 C 0.13896 0.93285 0.92814 0.0
C1777 C 0.11534 0.94973 0.95543 0.0
C1778 C 0.11991 0.94359 0.96614 0.0
C1779 C 0.10706 0.94515 0.96458 0.0
C1780 C 0.1083 0.94865 0.95799 0.0
C1781 C 0.11285 0.94267 0.96881 0.0
C1782 C 0.12114 0.94709 0.95954 0.0
C1783 C 0.11645 0.95412 0.94882 0.0
O1784 O 0.12727 0.96377 0.93187 0.0
O1785 O 0.11756 0.95904 0.92709 0.0
O1786 O 0.11323 0.95188 0.94291 0.0
O1787 O 0.12296 0.95665 0.94763 0.0
H1788 H 0.10753 0.96827 0.92581 0.0
H1789 H 0.10244 0.98026 0.92411 0.0
H1790 H 0.12367 0.98959 0.92627 0.0
H1791 H 0.12877 0.97756 0.92776 0.0
H1792 H 0.13818 0.94049 0.90869 0.0
H1793 H 0.13121 0.94631 0.91838 0.0
H1794 H 0.14623 0.9249 0.92402 0.0
H1795 H 0.13919 0.93064 0.93355 0.0
H1796 H 0.12451 0.94182 0.96926 0.0
H1797 H 0.10155 0.94444 0.96636 0.0
H1798 H 0.10373 0.95065 0.95496 0.0
H1799 H 0.12664 0.94785 0.95774 0.0
C1800 C 0.72202 0.36997 0.34923 0.0
C1801 C 0.72358 0.36308 0.34649 0.0
C1802 C 0.73591 0.36382 0.35113 0.0
C1803 C 0.73045 0.36004 0.34743 0.0
C1804 C 0.73433 0.37079 0.35371 0.0
C1805 C 0.72748 0.37381 0.35278 0.0
U1806 U 0.70376 0.3744 0.33986 0.0
O1807 O 0.69289 0.37481 0.34463 0.0
O1808 O 0.69769 0.38464 0.34011 0.0
C1809 C 0.69225 0.38181 0.34368 0.0
C1810 C 0.71471 0.3732 0.34881 0.0
C1811 C 0.68937 0.3861 0.3498 0.0
C1812 C 0.68669 0.38776 0.36258 0.0
C1813 C 0.68996 0.3838 0.357 0.0
C1814 C 0.68235 0.39644 0.35387 0.0
C1815 C 0.68279 0.39412 0.36109 0.0
C1816 C 0.68559 0.39248 0.34831 0.0
C1817 C 0.70004 0.36766 0.32024 0.0
C1818 C 0.69095 0.36138 0.31306 0.0
C1819 C 0.6986 0.37029 0.30741 0.0
C1820 C 0.70205 0.37151 0.31402 0.0
C1821 C 0.69307 0.36513 0.3068 0.0
C1822 C 0.6944 0.36261 0.31968 0.0
C1823 C 0.70436 0.36842 0.32697 0.0
O1824 O 0.71392 0.37865 0.34435 0.0
O1825 O 0.7092 0.36874 0.34876 0.0
O1826 O 0.70207 0.36502 0.33276 0.0
O1827 O 0.70695 0.37486 0.32841 0.0
H1828 H 0.71946 0.35999 0.34372 0.0
H1829 H 0.73143 0.35465 0.34541 0.0
H1830 H 0.73841 0.37394 0.35646 0.0
H1831 H 0.72642 0.37913 0.35493 0.0
H1832 H 0.68723 0.38585 0.36807 0.0
H1833 H 0.69286 0.37891 0.35832 0.0
H1834 H 0.67932 0.40123 0.35247 0.0
H1835 H 0.68501 0.39433 0.3428 0.0
H1836 H 0.68677 0.35731 0.31281 0.0
H1837 H 0.70032 0.37337 0.30275 0.0
H1838 H 0.70642 0.37538 0.31422 0.0
H1839 H 0.69276 0.35945 0.32432 0.0
C1840 C 0.90684 0.47201 0.59879 0.0
C1841 C 0.91404 0.47274 0.60107 0.0
C1842 C 0.91308 0.48589 0.60076 0.0
C1843 C 0.91712 0.47958 0.60202 0.0
C1844 C 0.90592 0.48514 0.59836 0.0
C1845 C 0.90284 0.47831 0.59742 0.0
U1846 U 0.90158 0.45379 0.58973 0.0
O1847 O 0.9009 0.44296 0.59453 0.0
O1848 O 0.89117 0.44803 0.59011 0.0
C1849 C 0.89388 0.44253 0.59366 0.0
C1850 C 0.90328 0.4648 0.59855 0.0
C1851 C 0.88957 0.43976 0.59982 0.0
C1852 C 0.8882 0.43651 0.6125 0.0
C1853 C 0.89219 0.43975 0.60694 0.0
C1854 C 0.87884 0.43339 0.60397 0.0
C1855 C 0.88149 0.43322 0.61109 0.0
C1856 C 0.88283 0.4366 0.59843 0.0
C1857 C 0.90814 0.44978 0.57009 0.0
C1858 C 0.91434 0.44067 0.56286 0.0
C1859 C 0.90531 0.44825 0.55732 0.0
C1860 C 0.90418 0.45173 0.56393 0.0
C1861 C 0.91049 0.44274 0.55665 0.0
C1862 C 0.9132 0.44416 0.56948 0.0
C1863 C 0.90751 0.45414 0.57681 0.0
O1864 O 0.89772 0.4641 0.59421 0.0
O1865 O 0.90748 0.45909 0.59858 0.0
O1866 O 0.91087 0.4518 0.58259 0.0
O1867 O 0.90114 0.45691 0.57827 0.0
H1868 H 0.91727 0.46804 0.60226 0.0
H1869 H 0.92267 0.47993 0.60379 0.0
H1870 H 0.9026 0.48985 0.59744 0.0
H1871 H 0.89724 0.47797 0.5958 0.0
H1872 H 0.89037 0.43657 0.61792 0.0
H1873 H 0.89736 0.44215 0.60819 0.0
H1874 H 0.87377 0.43084 0.60263 0.0
H1875 H 0.88072 0.43648 0.59298 0.0
H1876 H 0.91843 0.43652 0.56255 0.0
H1877 H 0.90216 0.44993 0.5527 0.0
H1878 H 0.9003 0.45609 0.56417 0.0
H1879 H 0.91644 0.44256 0.57406 0.0
C1880 C 0.61729 0.55383 0.09986 0.0
C1881 C 0.61692 0.54905 0.09399 0.0
C1882 C 0.61099 0.53998 0.10152 0.0
C1883 C 0.61382 0.54219 0.09481 0.0
C1884 C 0.6113 0.54484 0.10734 0.0
C1885 C 0.61442 0.55167 0.10652 0.0
U1886 U 0.62264 0.57138 0.08984 0.0
O1887 O 0.62313 0.58251 0.09399 0.0
O1888 O 0.63297 0.57726 0.09005 0.0
C1889 C 0.63015 0.583 0.09311 0.0
C1890 C 0.62086 0.56096 0.09932 0.0
C1891 C 0.63428 0.58627 0.09909 0.0
C1892 C 0.63863 0.58643 0.1115 0.0
C1893 C 0.63472 0.58306 0.10594 0.0
C1894 C 0.64172 0.59618 0.10339 0.0
C1895 C 0.64215 0.59307 0.1103 0.0
C1896 C 0.63783 0.59282 0.09787 0.0
C1897 C 0.61627 0.57416 0.07003 0.0
C1898 C 0.61463 0.58523 0.06313 0.0
C1899 C 0.61504 0.57375 0.05695 0.0
C1900 C 0.61601 0.57024 0.06356 0.0
C1901 C 0.61429 0.58129 0.05663 0.0
C1902 C 0.61562 0.58171 0.06976 0.0
C1903 C 0.61685 0.57017 0.07693 0.0
O1904 O 0.62646 0.5614 0.09498 0.0
O1905 O 0.6166 0.5666 0.09892 0.0
O1906 O 0.61343 0.57288 0.08252 0.0
O1907 O 0.62325 0.56761 0.07856 0.0
H1908 H 0.61907 0.5506 0.08878 0.0
H1909 H 0.6136 0.53864 0.09018 0.0
H1910 H 0.60928 0.54331 0.11261 0.0
H1911 H 0.61467 0.55524 0.11114 0.0
H1912 H 0.6388 0.58389 0.11675 0.0
H1913 H 0.63201 0.578 0.107 0.0
H1914 H 0.64445 0.6012 0.1022 0.0
H1915 H 0.63759 0.59537 0.09262 0.0
H1916 H 0.61416 0.59105 0.06309 0.0
H1917 H 0.6147 0.57051 0.05211 0.0
H1918 H 0.61644 0.56441 0.06364 0.0
H1919 H 0.61582 0.58487 0.07467 0.0
C1920 C 0.67612 0.72228 0.86861 0.0
C1921 C 0.6822 0.72666 0.8675 0.0
C1922 C 0.67465 0.73609 0.86219 0.0
C1923 C 0.68147 0.73351 0.86433 0.0
C1924 C 0.66861 0.73162 0.86327 0.0
C1925 C 0.66934 0.72482 0.86644 0.0
U1926 U 0.68579 0.70453 0.87415 0.0
O1927 O 0.68519 0.6987 0.88448 0.0
O1928 O 0.6813 0.69353 0.87459 0.0
C1929 C 0.68182 0.69313 0.88165 0.0
C1930 C 0.67659 0.71517 0.8722 0.0
C1931 C 0.67546 0.69022 0.88562 0.0
C1932 C 0.66794 0.68955 0.89643 0.0
C1933 C 0.67348 0.69286 0.89246 0.0
C1934 C 0.66616 0.68097 0.88677 0.0
C1935 C 0.66425 0.68352 0.89367 0.0
C1936 C 0.67171 0.68426 0.88283 0.0
C1937 C 0.70565 0.70115 0.86806 0.0
C1938 C 0.71244 0.69039 0.8647 0.0
C1939 C 0.71879 0.70118 0.86836 0.0
C1940 C 0.71219 0.7047 0.8694 0.0
C1941 C 0.71902 0.694 0.86592 0.0
C1942 C 0.70583 0.69393 0.86576 0.0
C1943 C 0.69883 0.70531 0.86857 0.0
O1944 O 0.67695 0.70952 0.86794 0.0
O1945 O 0.68089 0.71471 0.87781 0.0
O1946 O 0.69716 0.70795 0.87494 0.0
O1947 O 0.69321 0.7028 0.86504 0.0
H1948 H 0.6875 0.72481 0.86911 0.0
H1949 H 0.68625 0.73675 0.86351 0.0
H1950 H 0.66326 0.73344 0.86181 0.0
H1951 H 0.66457 0.72155 0.86728 0.0
H1952 H 0.66657 0.69172 0.90168 0.0
H1953 H 0.67628 0.6974 0.89483 0.0
H1954 H 0.66353 0.67628 0.8845 0.0
H1955 H 0.67318 0.68202 0.87763 0.0
H1956 H 0.7124 0.68484 0.86291 0.0
H1957 H 0.72371 0.70418 0.86926 0.0
H1958 H 0.71221 0.71029 0.8711 0.0
H1959 H 0.70087 0.69103 0.86469 0.0
C1960 C 0.55343 0.42596 0.11999 0.0
C1961 C 0.55001 0.43189 0.11677 0.0
C1962 C 0.53948 0.42446 0.11391 0.0
C1963 C 0.5431 0.43115 0.11375 0.0
C1964 C 0.543 0.41854 0.11709 0.0
C1965 C 0.54988 0.41929 0.12009 0.0
U1966 U 0.57133 0.43579 0.12459 0.0
O1967 O 0.57736 0.43573 0.13484 0.0
O1968 O 0.58231 0.43129 0.12506 0.0
C1969 C 0.58294 0.43237 0.13204 0.0
C1970 C 0.56063 0.42653 0.12336 0.0
C1971 C 0.586 0.42638 0.13631 0.0
C1972 C 0.58576 0.41407 0.1409 0.0
C1973 C 0.5826 0.41964 0.13684 0.0
C1974 C 0.5957 0.42195 0.14394 0.0
C1975 C 0.59236 0.41516 0.14453 0.0
C1976 C 0.59256 0.42748 0.13989 0.0
C1977 C 0.57488 0.45529 0.11753 0.0
C1978 C 0.57905 0.46694 0.12203 0.0
C1979 C 0.58115 0.46371 0.10957 0.0
C1980 C 0.57772 0.45707 0.11072 0.0
C1981 C 0.58179 0.46878 0.11518 0.0
C1982 C 0.57564 0.46029 0.12319 0.0
C1983 C 0.57057 0.44856 0.1184 0.0
O1984 O 0.56617 0.42669 0.11894 0.0
O1985 O 0.56123 0.43112 0.12873 0.0
O1986 O 0.56794 0.44717 0.12484 0.0
O1987 O 0.57296 0.44276 0.11508 0.0
H1988 H 0.55266 0.4371 0.11664 0.0
H1989 H 0.54055 0.43585 0.1114 0.0
H1990 H 0.54047 0.41328 0.11721 0.0
H1991 H 0.55244 0.41463 0.12252 0.0
H1992 H 0.58299 0.40895 0.14127 0.0
H1993 H 0.57753 0.41868 0.13412 0.0
H1994 H 0.60084 0.42297 0.14652 0.0
H1995 H 0.59529 0.43263 0.13953 0.0
H1996 H 0.57952 0.47066 0.1265 0.0
H1997 H 0.58309 0.46495 0.1042 0.0
H1998 H 0.57712 0.4534 0.10622 0.0
H1999 H 0.57348 0.45915 0.12849 0.0
C2000 C 0.84805 0.30314 0.36996 0.0
C2001 C 0.84484 0.30138 0.36333 0.0
C2002 C 0.84965 0.28912 0.36404 0.0
C2003 C 0.84565 0.29445 0.36039 0.0
C2004 C 0.85274 0.29089 0.37074 0.0
C2005 C 0.85195 0.29782 0.37365 0.0
U2006 U 0.83864 0.3214 0.37388 0.0
O2007 O 0.83893 0.32799 0.38376 0.0
O2008 O 0.84327 0.33236 0.37365 0.0
C2009 C 0.84247 0.33329 0.38064 0.0
C2010 C 0.84771 0.31051 0.37303 0.0
C2011 C 0.84873 0.33637 0.38459 0.0
C2012 C 0.85737 0.33623 0.39452 0.0
C2013 C 0.85186 0.33287 0.39055 0.0
C2014 C 0.85683 0.34653 0.38656 0.0
C2015 C 0.85988 0.34315 0.39263 0.0
C2016 C 0.85132 0.3432 0.38262 0.0
C2017 C 0.81905 0.3242 0.3667 0.0
C2018 C 0.81144 0.33482 0.36806 0.0
C2019 C 0.80699 0.32441 0.36157 0.0
C2020 C 0.8135 0.32084 0.36284 0.0
C2021 C 0.80586 0.33147 0.36413 0.0
C2022 C 0.81799 0.33122 0.36933 0.0
C2023 C 0.82583 0.32018 0.36787 0.0
O2024 O 0.84761 0.31588 0.3684 0.0
O2025 O 0.84328 0.31145 0.37849 0.0
O2026 O 0.82723 0.31817 0.37452 0.0
O2027 O 0.83155 0.32252 0.36441 0.0
H2028 H 0.84177 0.30537 0.36038 0.0
H2029 H 0.84311 0.29325 0.35526 0.0
H2030 H 0.85594 0.28699 0.37367 0.0
H2031 H 0.85451 0.29905 0.37876 0.0
H2032 H 0.85952 0.33346 0.39919 0.0
H2033 H 0.84997 0.32761 0.39224 0.0
H2034 H 0.85869 0.35179 0.38484 0.0
H2035 H 0.849 0.34602 0.37806 0.0
H2036 H 0.81079 0.34026 0.37007 0.0
H2037 H 0.8028 0.32159 0.35864 0.0
H2038 H 0.8142 0.31541 0.3608 0.0
H2039 H 0.82222 0.33391 0.37232 0.0
C2040 C 0.97281 0.59821 0.61906 0.0
C2041 C 0.97364 0.59937 0.6116 0.0
C2042 C 0.98674 0.59994 0.61288 0.0
C2043 C 0.98051 0.60022 0.60856 0.0
C2044 C 0.98591 0.59864 0.62031 0.0
C2045 C 0.97904 0.59782 0.62336 0.0
U2046 U 0.95453 0.5893 0.62435 0.0
O2047 O 0.94849 0.59011 0.63455 0.0
O2048 O 0.94364 0.59409 0.62453 0.0
C2049 C 0.94307 0.59358 0.63159 0.0
C2050 C 0.96554 0.59808 0.62251 0.0
C2051 C 0.9402 0.6 0.63548 0.0
C2052 C 0.93968 0.60778 0.64611 0.0
C2053 C 0.94298 0.6022 0.64219 0.0
C2054 C 0.93083 0.60918 0.63664 0.0
C2055 C 0.93351 0.6113 0.64342 0.0
C2056 C 0.93411 0.6036 0.63275 0.0
C2057 C 0.9509 0.56942 0.61837 0.0
C2058 C 0.94008 0.56275 0.61495 0.0
C2059 C 0.95078 0.55629 0.61865 0.0
C2060 C 0.95437 0.56284 0.61971 0.0
C2061 C 0.94361 0.55613 0.61618 0.0
C2062 C 0.94368 0.56933 0.61604 0.0
C2063 C 0.95513 0.57619 0.61891 0.0
O2064 O 0.9599 0.59793 0.61821 0.0
O2065 O 0.96475 0.59396 0.62822 0.0
O2066 O 0.95766 0.57786 0.62532 0.0
O2067 O 0.95279 0.58182 0.61529 0.0
H2068 H 0.96898 0.59977 0.60812 0.0
H2069 H 0.98093 0.60112 0.6028 0.0
H2070 H 0.99056 0.59849 0.62383 0.0
H2071 H 0.9786 0.59706 0.62914 0.0
H2072 H 0.94195 0.60931 0.65126 0.0
H2073 H 0.94762 0.59953 0.6445 0.0
H2074 H 0.92605 0.61168 0.63443 0.0
H2075 H 0.93177 0.60196 0.62765 0.0
H2076 H 0.93454 0.56286 0.61314 0.0
H2077 H 0.95373 0.55133 0.61955 0.0
H2078 H 0.95995 0.56276 0.62144 0.0
H2079 H 0.94085 0.57432 0.61496 0.0
C2080 C 0.67517 0.30295 0.6574 0.0
C2081 C 0.68124 0.29872 0.65899 0.0
C2082 C 0.67353 0.2891 0.66369 0.0
C2083 C 0.68043 0.29185 0.66208 0.0
C2084 C 0.66748 0.29341 0.66212 0.0
C2085 C 0.6683 0.30024 0.65902 0.0
U2086 U 0.68532 0.32053 0.65248 0.0
O2087 O 0.6851 0.32668 0.64232 0.0
O2088 O 0.68122 0.3317 0.6523 0.0
C2089 C 0.68201 0.33233 0.64529 0.0
C2090 C 0.67577 0.31012 0.65396 0.0
C2091 C 0.67591 0.3356 0.64132 0.0
C2092 C 0.66493 0.33476 0.63414 0.0
C2093 C 0.6705 0.33143 0.63805 0.0
C2094 C 0.67009 0.34645 0.63676 0.0
C2095 C 0.66465 0.34233 0.63343 0.0
C2096 C 0.67564 0.34312 0.64064 0.0
C2097 C 0.70504 0.323 0.65927 0.0
C2098 C 0.71237 0.33389 0.6587 0.0
C2099 C 0.7175 0.32283 0.66335 0.0
C2100 C 0.71095 0.31929 0.66215 0.0
C2101 C 0.7183 0.3302 0.66171 0.0
C2102 C 0.70579 0.33032 0.6575 0.0
C2103 C 0.69815 0.31909 0.65839 0.0
O2104 O 0.67618 0.31567 0.65835 0.0
O2105 O 0.68019 0.31062 0.64843 0.0
O2106 O 0.6966 0.31682 0.65185 0.0
O2107 O 0.69255 0.32176 0.66181 0.0
H2108 H 0.68661 0.30072 0.65781 0.0
H2109 H 0.68522 0.28873 0.66328 0.0
H2110 H 0.66208 0.29145 0.66316 0.0
H2111 H 0.66353 0.3034 0.65782 0.0
H2112 H 0.66081 0.33141 0.63172 0.0
H2113 H 0.67059 0.32561 0.63851 0.0
H2114 H 0.67015 0.35226 0.63626 0.0
H2115 H 0.67977 0.34645 0.64308 0.0
H2116 H 0.71277 0.33956 0.65741 0.0
H2117 H 0.72196 0.31977 0.66554 0.0
H2118 H 0.7105 0.31363 0.66353 0.0
H2119 H 0.70128 0.33329 0.65528 0.0
C2120 C 0.97209 0.42623 0.90733 0.0
C2121 C 0.97631 0.43234 0.90882 0.0
C2122 C 0.98595 0.42472 0.91362 0.0
C2123 C 0.98318 0.43159 0.91193 0.0
C2124 C 0.98164 0.41864 0.91217 0.0
C2125 C 0.97481 0.41939 0.90906 0.0
U2126 U 0.95415 0.43584 0.90246 0.0
O2127 O 0.94827 0.43577 0.8921 0.0
O2128 O 0.94324 0.43123 0.9018 0.0
C2129 C 0.94277 0.43219 0.89479 0.0
C2130 C 0.96497 0.42674 0.90378 0.0
C2131 C 0.94 0.42606 0.89044 0.0
C2132 C 0.93658 0.41343 0.8891 0.0
C2133 C 0.93983 0.41897 0.8931 0.0
C2134 C 0.93379 0.42192 0.87961 0.0
C2135 C 0.93345 0.41484 0.88232 0.0
C2136 C 0.937 0.42745 0.88363 0.0
C2137 C 0.95047 0.45514 0.91003 0.0
C2138 C 0.94323 0.46516 0.90554 0.0
C2139 C 0.9471 0.46504 0.918 0.0
C2140 C 0.95056 0.45843 0.91685 0.0
C2141 C 0.94347 0.46856 0.91234 0.0
C2142 C 0.9467 0.45852 0.90439 0.0
C2143 C 0.95474 0.44847 0.90894 0.0
O2144 O 0.95932 0.4267 0.90805 0.0
O2145 O 0.96439 0.43138 0.89845 0.0
O2146 O 0.95731 0.44728 0.90243 0.0
O2147 O 0.95232 0.4426 0.91209 0.0
H2148 H 0.97431 0.43768 0.90756 0.0
H2149 H 0.98629 0.4364 0.91304 0.0
H2150 H 0.98361 0.41326 0.91328 0.0
H2151 H 0.97167 0.4146 0.90792 0.0
H2152 H 0.93652 0.40803 0.89132 0.0
H2153 H 0.9421 0.41771 0.89833 0.0
H2154 H 0.93137 0.42325 0.87447 0.0
H2155 H 0.937 0.43288 0.88147 0.0
H2156 H 0.94053 0.46772 0.90104 0.0
H2157 H 0.9473 0.4674 0.92334 0.0
H2158 H 0.95343 0.45593 0.92128 0.0
H2159 H 0.94655 0.45611 0.89907 0.0
C2160 C 0.84791 0.72309 0.1569 0.0
C2161 C 0.84755 0.72403 0.16443 0.0
C2162 C 0.84955 0.737 0.16314 0.0
C2163 C 0.84837 0.73089 0.1675 0.0
C2164 C 0.84975 0.73606 0.15561 0.0
C2165 C 0.84897 0.7292 0.15254 0.0
U2166 U 0.83908 0.70475 0.15173 0.0
O2167 O 0.83992 0.69871 0.14153 0.0
O2168 O 0.84393 0.6939 0.15155 0.0
C2169 C 0.84344 0.69331 0.14449 0.0
C2170 C 0.8478 0.71581 0.15351 0.0
C2171 C 0.84986 0.69046 0.14058 0.0
C2172 C 0.85684 0.68904 0.12947 0.0
C2173 C 0.85129 0.6924 0.13337 0.0
C2174 C 0.85975 0.68178 0.1399 0.0
C2175 C 0.86109 0.6836 0.13265 0.0
C2176 C 0.8542 0.68514 0.14379 0.0
C2177 C 0.81918 0.70101 0.15773 0.0
C2178 C 0.81218 0.691 0.16265 0.0
C2179 C 0.80613 0.70055 0.15617 0.0
C2180 C 0.81276 0.70397 0.15502 0.0
C2181 C 0.80571 0.69407 0.1601 0.0
C2182 C 0.81883 0.69443 0.16149 0.0
C2183 C 0.82595 0.70526 0.15716 0.0
O2184 O 0.84767 0.7102 0.15784 0.0
O2185 O 0.84367 0.71501 0.14781 0.0
O2186 O 0.82762 0.70781 0.15076 0.0
O2187 O 0.8316 0.70298 0.16079 0.0
H2188 H 0.84676 0.71945 0.16796 0.0
H2189 H 0.84809 0.73141 0.17332 0.0
H2190 H 0.85075 0.7406 0.15208 0.0
H2191 H 0.84936 0.72865 0.14673 0.0
H2192 H 0.85763 0.69053 0.12388 0.0
H2193 H 0.84801 0.69639 0.13066 0.0
H2194 H 0.86295 0.67771 0.14258 0.0
H2195 H 0.85321 0.68345 0.14929 0.0
H2196 H 0.81208 0.68606 0.16576 0.0
H2197 H 0.80131 0.70302 0.15401 0.0
H2198 H 0.81284 0.70906 0.15214 0.0
H2199 H 0.82366 0.69202 0.16371 0.0
C2200 C 0.55325 0.59956 0.40653 0.0
C2201 C 0.54936 0.59348 0.40882 0.0
C2202 C 0.53944 0.60117 0.41292 0.0
C2203 C 0.54251 0.59428 0.41197 0.0
C2204 C 0.54342 0.60723 0.41064 0.0
C2205 C 0.55023 0.60642 0.40749 0.0
U2206 U 0.57087 0.58955 0.40125 0.0
O2207 O 0.57662 0.58971 0.39082 0.0
O2208 O 0.58191 0.59386 0.40054 0.0
C2209 C 0.58227 0.59301 0.39351 0.0
C2210 C 0.56036 0.59895 0.40295 0.0
C2211 C 0.58519 0.59913 0.38926 0.0
C2212 C 0.58774 0.61192 0.38758 0.0
C2213 C 0.58447 0.60633 0.3915 0.0
C2214 C 0.59238 0.60323 0.37903 0.0
C2215 C 0.59179 0.61044 0.38131 0.0
C2216 C 0.58913 0.59765 0.38296 0.0
C2217 C 0.57387 0.56981 0.40793 0.0
C2218 C 0.5848 0.56292 0.41034 0.0
C2219 C 0.5734 0.55674 0.40905 0.0
C2220 C 0.56996 0.56334 0.40783 0.0
C2221 C 0.58085 0.55642 0.41043 0.0
C2222 C 0.58135 0.56955 0.40912 0.0
C2223 C 0.56988 0.57671 0.40723 0.0
O2224 O 0.56601 0.59864 0.40721 0.0
O2225 O 0.56076 0.59448 0.39747 0.0
O2226 O 0.56724 0.57822 0.40083 0.0
O2227 O 0.57257 0.58237 0.41055 0.0
H2228 H 0.5516 0.58813 0.40814 0.0
H2229 H 0.53966 0.5895 0.41373 0.0
H2230 H 0.54121 0.6126 0.41115 0.0
H2231 H 0.55312 0.61118 0.40573 0.0
H2232 H 0.58709 0.61741 0.38946 0.0
H2233 H 0.58144 0.60763 0.39633 0.0
H2234 H 0.59552 0.60184 0.37431 0.0
H2235 H 0.5898 0.59214 0.38113 0.0
H2236 H 0.59054 0.56291 0.41143 0.0
H2237 H 0.57018 0.55186 0.40893 0.0
H2238 H 0.56419 0.5634 0.40692 0.0
H2239 H 0.5845 0.57446 0.40923 0.0
C2240 C 0.86985 0.67704 0.72247 0.0
C2241 C 0.86357 0.68083 0.72435 0.0
C2242 C 0.86373 0.67547 0.73641 0.0
C2243 C 0.86053 0.68004 0.73125 0.0
C2244 C 0.87007 0.67176 0.73449 0.0
C2245 C 0.87308 0.67254 0.72761 0.0
U2246 U 0.87384 0.68644 0.70419 0.0
O2247 O 0.88397 0.68649 0.69793 0.0
O2248 O 0.8742 0.68169 0.69331 0.0
C2249 C 0.88114 0.68289 0.69252 0.0
C2250 C 0.87305 0.67746 0.71516 0.0
C2251 C 0.88551 0.67691 0.68953 0.0
C2252 C 0.88842 0.66415 0.68827 0.0
C2253 C 0.88444 0.66969 0.69157 0.0
C2254 C 0.89464 0.67298 0.68094 0.0
C2255 C 0.89352 0.66571 0.68284 0.0
C2256 C 0.89068 0.67849 0.68424 0.0
C2257 C 0.86629 0.70569 0.70048 0.0
C2258 C 0.87088 0.71625 0.69411 0.0
C2259 C 0.85806 0.71494 0.69607 0.0
C2260 C 0.85927 0.70838 0.69961 0.0
C2261 C 0.86385 0.71902 0.69335 0.0
C2262 C 0.87209 0.70966 0.69762 0.0
C2263 C 0.86739 0.69908 0.70487 0.0
O2264 O 0.86854 0.67736 0.7097 0.0
O2265 O 0.87834 0.6821 0.71431 0.0
O2266 O 0.87393 0.69788 0.70734 0.0
O2267 O 0.86416 0.69318 0.70263 0.0
H2268 H 0.861 0.68436 0.72048 0.0
H2269 H 0.8557 0.68305 0.73255 0.0
H2270 H 0.87264 0.66811 0.73826 0.0
H2271 H 0.87791 0.66954 0.72627 0.0
H2272 H 0.88737 0.65863 0.68984 0.0
H2273 H 0.88047 0.66834 0.69564 0.0
H2274 H 0.89861 0.67442 0.6769 0.0
H2275 H 0.89161 0.68402 0.6826 0.0
H2276 H 0.87547 0.71919 0.692 0.0
H2277 H 0.85258 0.71693 0.69568 0.0
H2278 H 0.85471 0.70548 0.70182 0.0
H2279 H 0.87757 0.70774 0.6982 0.0
C2280 C 0.59897 0.61836 0.97228 0.0
C2281 C 0.59295 0.61737 0.97678 0.0
C2282 C 0.60058 0.61202 0.98612 0.0
C2283 C 0.59375 0.61425 0.98363 0.0
C2284 C 0.60656 0.61296 0.98153 0.0
C2285 C 0.60576 0.61609 0.97471 0.0
U2286 U 0.5893 0.62349 0.95443 0.0
O2287 O 0.58934 0.63391 0.94867 0.0
O2288 O 0.59386 0.62428 0.94349 0.0
C2289 C 0.59278 0.63127 0.94305 0.0
C2290 C 0.59844 0.62198 0.96518 0.0
C2291 C 0.59876 0.63566 0.94011 0.0
C2292 C 0.61155 0.63836 0.9386 0.0
C2293 C 0.60601 0.63438 0.94191 0.0
C2294 C 0.60266 0.64503 0.93177 0.0
C2295 C 0.60995 0.64368 0.93341 0.0
C2296 C 0.59715 0.64107 0.93508 0.0
C2297 C 0.56991 0.61631 0.95058 0.0
C2298 C 0.55859 0.62102 0.94579 0.0
C2299 C 0.56125 0.6083 0.94474 0.0
C2300 C 0.56786 0.60941 0.94823 0.0
C2301 C 0.55648 0.61408 0.94355 0.0
C2302 C 0.56522 0.62213 0.94926 0.0
C2303 C 0.57659 0.61716 0.95494 0.0
O2304 O 0.59842 0.61777 0.95948 0.0
O2305 O 0.59386 0.62737 0.96468 0.0
O2306 O 0.57789 0.62355 0.95773 0.0
O2307 O 0.58243 0.61397 0.95249 0.0
H2308 H 0.58765 0.61906 0.97502 0.0
H2309 H 0.58901 0.61354 0.98697 0.0
H2310 H 0.61192 0.61142 0.98326 0.0
H2311 H 0.61049 0.61683 0.97135 0.0
H2312 H 0.61709 0.63714 0.93997 0.0
H2313 H 0.60739 0.63022 0.94577 0.0
H2314 H 0.60119 0.64917 0.92792 0.0
H2315 H 0.59161 0.64216 0.93362 0.0
H2316 H 0.5551 0.62561 0.94489 0.0
H2317 H 0.55979 0.60287 0.94319 0.0
H2318 H 0.5713 0.6048 0.94925 0.0
H2319 H 0.56659 0.62752 0.95102 0.0
C2320 C 0.65546 0.34879 0.22281 0.0
C2321 C 0.662 0.34538 0.22455 0.0
C2322 C 0.66158 0.35041 0.23675 0.0
C2323 C 0.66503 0.3462 0.23144 0.0
C2324 C 0.65498 0.35371 0.23499 0.0
C2325 C 0.65197 0.35291 0.22811 0.0
U2326 U 0.65107 0.33913 0.20479 0.0
O2327 O 0.64108 0.33946 0.19841 0.0
O2328 O 0.65116 0.34348 0.19371 0.0
C2329 C 0.64417 0.34268 0.1929 0.0
C2330 C 0.65228 0.34839 0.21549 0.0
C2331 C 0.64022 0.34879 0.18962 0.0
C2332 C 0.63261 0.35949 0.19044 0.0
C2333 C 0.63663 0.35401 0.19379 0.0
C2334 C 0.63581 0.35466 0.17874 0.0
C2335 C 0.63207 0.35984 0.18285 0.0
C2336 C 0.63982 0.34922 0.18208 0.0
C2337 C 0.65766 0.31933 0.20215 0.0
C2338 C 0.65889 0.31241 0.19102 0.0
C2339 C 0.66003 0.30643 0.20257 0.0
C2340 C 0.6588 0.31299 0.20609 0.0
C2341 C 0.66018 0.30605 0.19498 0.0
C2342 C 0.65765 0.319 0.19457 0.0
C2343 C 0.6568 0.3262 0.20613 0.0
O2344 O 0.65682 0.34808 0.21004 0.0
O2345 O 0.64672 0.34408 0.21471 0.0
O2346 O 0.65025 0.32779 0.20832 0.0
O2347 O 0.66034 0.33181 0.20364 0.0
H2348 H 0.66479 0.34214 0.22057 0.0
H2349 H 0.67008 0.3435 0.23261 0.0
H2350 H 0.6522 0.35707 0.23889 0.0
H2351 H 0.64694 0.35562 0.2269 0.0
H2352 H 0.62978 0.36334 0.19379 0.0
H2353 H 0.63686 0.35379 0.19962 0.0
H2354 H 0.63566 0.35482 0.1729 0.0
H2355 H 0.64255 0.34527 0.17875 0.0
H2356 H 0.659 0.31234 0.18519 0.0
H2357 H 0.66086 0.30165 0.2058 0.0
H2358 H 0.65881 0.31311 0.21193 0.0
H2359 H 0.65679 0.32383 0.19141 0.0
C2360 C 0.92652 0.4053 0.47255 0.0
C2361 C 0.92987 0.41189 0.4742 0.0
C2362 C 0.92513 0.41142 0.48651 0.0
C2363 C 0.92917 0.41493 0.4811 0.0
C2364 C 0.92188 0.40477 0.48483 0.0
C2365 C 0.92256 0.40176 0.47794 0.0
U2366 U 0.93564 0.4013 0.45413 0.0
O2367 O 0.93559 0.39117 0.44787 0.0
O2368 O 0.93076 0.40095 0.44332 0.0
C2369 C 0.93188 0.39399 0.44254 0.0
C2370 C 0.92682 0.40209 0.46524 0.0
C2371 C 0.92579 0.38964 0.43973 0.0
C2372 C 0.91296 0.38751 0.43783 0.0
C2373 C 0.91856 0.3915 0.44101 0.0
C2374 C 0.92173 0.37967 0.43219 0.0
C2375 C 0.91447 0.38156 0.43333 0.0
C2376 C 0.92731 0.38366 0.43534 0.0
C2377 C 0.95485 0.40895 0.45029 0.0
C2378 C 0.96505 0.40449 0.44326 0.0
C2379 C 0.96443 0.41711 0.44648 0.0
C2380 C 0.95788 0.41588 0.45002 0.0
C2381 C 0.96816 0.41142 0.44312 0.0
C2382 C 0.95846 0.40326 0.4468 0.0
C2383 C 0.94827 0.40778 0.45468 0.0
O2384 O 0.92663 0.40658 0.45976 0.0
O2385 O 0.93144 0.3968 0.46432 0.0
O2386 O 0.94712 0.40121 0.45711 0.0
O2387 O 0.94235 0.411 0.45249 0.0
H2388 H 0.93299 0.41471 0.47014 0.0
H2389 H 0.93182 0.42001 0.48222 0.0
H2390 H 0.91864 0.40196 0.4888 0.0
H2391 H 0.9199 0.39669 0.47679 0.0
H2392 H 0.90744 0.38908 0.43891 0.0
H2393 H 0.91723 0.39607 0.44439 0.0
H2394 H 0.92313 0.37521 0.4287 0.0
H2395 H 0.93284 0.38214 0.43424 0.0
H2396 H 0.96771 0.39999 0.44066 0.0
H2397 H 0.96669 0.42249 0.44658 0.0
H2398 H 0.95524 0.42034 0.45272 0.0
H2399 H 0.95626 0.39786 0.44689 0.0
C2400 C 0.86925 0.34847 0.8031 0.0
C2401 C 0.86312 0.34445 0.80121 0.0
C2402 C 0.86313 0.34982 0.78915 0.0
C2403 C 0.86007 0.34514 0.79431 0.0
C2404 C 0.86933 0.35375 0.79108 0.0
C2405 C 0.87234 0.35308 0.79796 0.0
U2406 U 0.87382 0.33929 0.82139 0.0
O2407 O 0.88386 0.33998 0.82767 0.0
O2408 O 0.87377 0.34407 0.83229 0.0
C2409 C 0.8808 0.34351 0.83302 0.0
C2410 C 0.87242 0.34821 0.81043 0.0
C2411 C 0.88468 0.34991 0.83594 0.0
C2412 C 0.89551 0.35737 0.83689 0.0
C2413 C 0.89162 0.35181 0.83352 0.0
C2414 C 0.88557 0.35934 0.84509 0.0
C2415 C 0.89257 0.36115 0.84279 0.0
C2416 C 0.8817 0.35379 0.84174 0.0
C2417 C 0.8677 0.31942 0.82489 0.0
C2418 C 0.86253 0.31242 0.83478 0.0
C2419 C 0.86942 0.30639 0.82549 0.0
C2420 C 0.87059 0.31301 0.82205 0.0
C2421 C 0.86528 0.30597 0.83184 0.0
C2422 C 0.86371 0.31906 0.83134 0.0
C2423 C 0.86835 0.3262 0.82064 0.0
O2424 O 0.86788 0.34795 0.81587 0.0
O2425 O 0.87802 0.34396 0.81128 0.0
O2426 O 0.87481 0.32786 0.81823 0.0
O2427 O 0.86468 0.33184 0.82288 0.0
H2428 H 0.86065 0.34084 0.80508 0.0
H2429 H 0.85535 0.34196 0.793 0.0
H2430 H 0.87178 0.35749 0.78732 0.0
H2431 H 0.87705 0.35625 0.79931 0.0
H2432 H 0.90091 0.35853 0.835 0.0
H2433 H 0.89415 0.3489 0.82913 0.0
H2434 H 0.88307 0.36219 0.84954 0.0
H2435 H 0.8764 0.35242 0.84379 0.0
H2436 H 0.85926 0.31232 0.83962 0.0
H2437 H 0.87174 0.30158 0.82312 0.0
H2438 H 0.87364 0.3131 0.81707 0.0
H2439 H 0.86135 0.32387 0.83365 0.0
C2440 C 0.92683 0.61815 0.05324 0.0
C2441 C 0.93109 0.62039 0.04737 0.0
C2442 C 0.92497 0.6119 0.03935 0.0
C2443 C 0.93018 0.6173 0.04052 0.0
C2444 C 0.92083 0.60956 0.04527 0.0
C2445 C 0.92173 0.61266 0.05211 0.0
U2446 U 0.93614 0.62387 0.07117 0.0
O2447 O 0.93563 0.63434 0.07681 0.0
O2448 O 0.93153 0.62459 0.0821 0.0
C2449 C 0.93221 0.63164 0.08241 0.0
C2450 C 0.92714 0.62182 0.06038 0.0
C2451 C 0.92596 0.63584 0.08518 0.0
C2452 C 0.91345 0.63672 0.0892 0.0
C2453 C 0.91906 0.63279 0.08596 0.0
C2454 C 0.92149 0.64686 0.0908 0.0
C2455 C 0.91461 0.6438 0.09173 0.0
C2456 C 0.92708 0.64293 0.08759 0.0
C2457 C 0.95599 0.61768 0.07465 0.0
C2458 C 0.96283 0.61467 0.08548 0.0
C2459 C 0.96913 0.61759 0.07443 0.0
C2460 C 0.96252 0.61865 0.07095 0.0
C2461 C 0.96939 0.61552 0.08173 0.0
C2462 C 0.9562 0.61574 0.08198 0.0
C2463 C 0.94914 0.61819 0.07054 0.0
O2464 O 0.92734 0.61766 0.06612 0.0
O2465 O 0.93136 0.62749 0.06094 0.0
O2466 O 0.94754 0.62452 0.0678 0.0
O2467 O 0.9435 0.61478 0.07315 0.0
H2468 H 0.93504 0.62465 0.04802 0.0
H2469 H 0.93342 0.61932 0.0361 0.0
H2470 H 0.91685 0.60534 0.04464 0.0
H2471 H 0.91832 0.61085 0.0565 0.0
H2472 H 0.90821 0.63421 0.08974 0.0
H2473 H 0.918 0.62734 0.08416 0.0
H2474 H 0.92264 0.65224 0.09276 0.0
H2475 H 0.93236 0.64539 0.08712 0.0
H2476 H 0.96281 0.61316 0.09112 0.0
H2477 H 0.97403 0.6182 0.07132 0.0
H2478 H 0.96251 0.62007 0.06528 0.0
H2479 H 0.95125 0.61495 0.08499 0.0
C2480 C 0.65718 0.67626 0.30343 0.0
C2481 C 0.65856 0.68232 0.2991 0.0
C2482 C 0.66336 0.67459 0.28952 0.0
C2483 C 0.66161 0.68149 0.2922 0.0
C2484 C 0.66199 0.66857 0.29393 0.0
C2485 C 0.65894 0.6694 0.30079 0.0
U2486 U 0.65239 0.68595 0.32144 0.0
O2487 O 0.64222 0.68558 0.32758 0.0
O2488 O 0.65213 0.68131 0.33239 0.0
C2489 C 0.64511 0.68207 0.33302 0.0
C2490 C 0.65374 0.67683 0.31062 0.0
C2491 C 0.64106 0.67581 0.336 0.0
C2492 C 0.63063 0.66778 0.33617 0.0
C2493 C 0.63467 0.67324 0.33283 0.0
C2494 C 0.63934 0.66724 0.34584 0.0
C2495 C 0.63285 0.66476 0.34278 0.0
C2496 C 0.64337 0.6727 0.34251 0.0
C2497 C 0.65955 0.7054 0.32504 0.0
C2498 C 0.65497 0.71516 0.33259 0.0
C2499 C 0.66732 0.71545 0.32839 0.0
C2500 C 0.66626 0.70888 0.32482 0.0
C2501 C 0.66169 0.71873 0.33228 0.0
C2502 C 0.65392 0.70857 0.32902 0.0
C2503 C 0.65854 0.69873 0.32074 0.0
O2504 O 0.65811 0.67693 0.31619 0.0
O2505 O 0.64834 0.68137 0.31125 0.0
O2506 O 0.65201 0.69739 0.31831 0.0
O2507 O 0.66189 0.69293 0.32305 0.0
H2508 H 0.65726 0.68768 0.30103 0.0
H2509 H 0.66265 0.68626 0.289 0.0
H2510 H 0.66314 0.66317 0.29204 0.0
H2511 H 0.65789 0.66465 0.30402 0.0
H2512 H 0.62564 0.66607 0.33367 0.0
H2513 H 0.6327 0.67555 0.32784 0.0
H2514 H 0.64132 0.66499 0.35085 0.0
H2515 H 0.64824 0.67459 0.34511 0.0
H2516 H 0.65053 0.71747 0.3356 0.0
H2517 H 0.67253 0.71805 0.32793 0.0
H2518 H 0.67066 0.70658 0.32175 0.0
H2519 H 0.64868 0.70599 0.3293 0.0
C2520 C 0.59957 0.40555 0.55366 0.0
C2521 C 0.59379 0.40931 0.55054 0.0
C2522 C 0.60093 0.41156 0.53965 0.0
C2523 C 0.59447 0.4123 0.54361 0.0
C2524 C 0.60669 0.40779 0.54286 0.0
C2525 C 0.60601 0.40483 0.54977 0.0
U2526 U 0.58969 0.40085 0.5715 0.0
O2527 O 0.5902 0.3908 0.5778 0.0
O2528 O 0.59397 0.40092 0.58261 0.0
C2529 C 0.59332 0.39391 0.58335 0.0
C2530 C 0.59908 0.40232 0.56093 0.0
C2531 C 0.59951 0.39007 0.58661 0.0
C2532 C 0.61041 0.38276 0.58575 0.0
C2533 C 0.60482 0.38664 0.58242 0.0
C2534 C 0.60552 0.38578 0.59747 0.0
C2535 C 0.61083 0.38226 0.59334 0.0
C2536 C 0.59995 0.38963 0.59415 0.0
C2537 C 0.56978 0.40697 0.57433 0.0
C2538 C 0.56295 0.41009 0.58514 0.0
C2539 C 0.55665 0.40705 0.57413 0.0
C2540 C 0.56326 0.40597 0.57064 0.0
C2541 C 0.55638 0.4092 0.58141 0.0
C2542 C 0.56957 0.40897 0.58164 0.0
C2543 C 0.57665 0.40633 0.57025 0.0
O2544 O 0.59857 0.40685 0.56636 0.0
O2545 O 0.59479 0.39672 0.56159 0.0
O2546 O 0.57838 0.39986 0.56793 0.0
O2547 O 0.58221 0.40999 0.57269 0.0
H2548 H 0.58877 0.40992 0.55346 0.0
H2549 H 0.5899 0.4151 0.5413 0.0
H2550 H 0.61179 0.40721 0.54006 0.0
H2551 H 0.61054 0.40197 0.55208 0.0
H2552 H 0.61443 0.38019 0.58238 0.0
H2553 H 0.6046 0.38691 0.57659 0.0
H2554 H 0.60556 0.38544 0.6033 0.0
H2555 H 0.5959 0.3922 0.59749 0.0
H2556 H 0.56297 0.41164 0.59077 0.0
H2557 H 0.55173 0.40641 0.57104 0.0
H2558 H 0.56327 0.40448 0.56499 0.0
H2559 H 0.57452 0.40977 0.58463 0.0
C2560 C 0.72239 0.86944 0.67719 0.0
C2561 C 0.72343 0.86197 0.678 0.0
C2562 C 0.73634 0.86328 0.67568 0.0
C2563 C 0.73032 0.85893 0.67725 0.0
C2564 C 0.7353 0.87077 0.67503 0.0
C2565 C 0.72841 0.8738 0.67575 0.0
U2566 U 0.70388 0.87426 0.68587 0.0
O2567 O 0.69767 0.88434 0.68502 0.0
O2568 O 0.69307 0.87425 0.6809 0.0
C2569 C 0.69233 0.88127 0.68151 0.0
C2570 C 0.71508 0.87275 0.67725 0.0
C2571 C 0.68936 0.88513 0.67515 0.0
C2572 C 0.68992 0.89457 0.66599 0.0
C2573 C 0.69318 0.89064 0.67158 0.0
C2574 C 0.67906 0.88748 0.66734 0.0
C2575 C 0.68279 0.89309 0.66382 0.0
C2576 C 0.68231 0.88358 0.67292 0.0
C2577 C 0.69976 0.86786 0.70556 0.0
C2578 C 0.69594 0.87226 0.71739 0.0
C2579 C 0.693 0.86009 0.71378 0.0
C2580 C 0.69647 0.86122 0.70715 0.0
C2581 C 0.69278 0.86556 0.71904 0.0
C2582 C 0.6994 0.87339 0.71075 0.0
C2583 C 0.70424 0.86864 0.69892 0.0
O2584 O 0.70951 0.86835 0.67724 0.0
O2585 O 0.71416 0.87837 0.68146 0.0
O2586 O 0.70672 0.8751 0.69737 0.0
O2587 O 0.70217 0.86504 0.69317 0.0
H2588 H 0.71891 0.85844 0.67911 0.0
H2589 H 0.73092 0.85316 0.67788 0.0
H2590 H 0.73977 0.87429 0.67373 0.0
H2591 H 0.72777 0.87955 0.67502 0.0
H2592 H 0.693 0.89878 0.66336 0.0
H2593 H 0.69863 0.89197 0.67318 0.0
H2594 H 0.67354 0.88624 0.66592 0.0
H2595 H 0.67922 0.87941 0.67562 0.0
H2596 H 0.6958 0.87664 0.72125 0.0
H2597 H 0.69073 0.85483 0.71488 0.0
H2598 H 0.69677 0.85679 0.70335 0.0
H2599 H 0.70193 0.87856 0.70977 0.0
C2600 C 0.22243 0.65697 0.34908 0.0
C2601 C 0.22684 0.65826 0.34304 0.0
C2602 C 0.23626 0.6633 0.35079 0.0
C2603 C 0.23369 0.66138 0.34389 0.0
C2604 C 0.23176 0.66206 0.35679 0.0
C2605 C 0.22495 0.65893 0.35593 0.0
U2606 U 0.20451 0.65203 0.33938 0.0
O2607 O 0.19872 0.64163 0.33938 0.0
O2608 O 0.19362 0.65124 0.34401 0.0
C2609 C 0.19319 0.64424 0.34296 0.0
C2610 C 0.21532 0.65338 0.34849 0.0
C2611 C 0.19041 0.63982 0.34903 0.0
C2612 C 0.18779 0.638 0.36181 0.0
C2613 C 0.19099 0.64205 0.35626 0.0
C2614 C 0.18354 0.62935 0.35303 0.0
C2615 C 0.18396 0.63162 0.36026 0.0
C2616 C 0.18671 0.6334 0.3475 0.0
C2617 C 0.20073 0.65963 0.32014 0.0
C2618 C 0.19297 0.65517 0.31051 0.0
C2619 C 0.19753 0.66738 0.31002 0.0
C2620 C 0.20113 0.66629 0.31657 0.0
C2621 C 0.19344 0.66183 0.30686 0.0
C2622 C 0.19656 0.65409 0.31708 0.0
C2623 C 0.20504 0.65858 0.32678 0.0
O2624 O 0.20964 0.6576 0.34857 0.0
O2625 O 0.21479 0.64809 0.3438 0.0
O2626 O 0.20767 0.6521 0.32793 0.0
O2627 O 0.2026 0.66168 0.33268 0.0
H2628 H 0.225 0.65681 0.33769 0.0
H2629 H 0.23695 0.66233 0.33914 0.0
H2630 H 0.23357 0.66335 0.36219 0.0
H2631 H 0.22166 0.65796 0.36067 0.0
H2632 H 0.18831 0.63988 0.36731 0.0
H2633 H 0.19383 0.64697 0.35762 0.0
H2634 H 0.18056 0.62453 0.35159 0.0
H2635 H 0.18615 0.63159 0.34197 0.0
H2636 H 0.1898 0.6508 0.30829 0.0
H2637 H 0.19813 0.67254 0.30735 0.0
H2638 H 0.20434 0.67063 0.31879 0.0
H2639 H 0.19615 0.6489 0.31973 0.0
C2640 C 0.61837 0.97178 0.59933 0.0
C2641 C 0.6168 0.97607 0.59328 0.0
C2642 C 0.61207 0.98562 0.60108 0.0
C2643 C 0.6137 0.98292 0.59415 0.0
C2644 C 0.61361 0.98125 0.6071 0.0
C2645 C 0.61672 0.97443 0.60622 0.0
U2646 U 0.62348 0.95429 0.58907 0.0
O2647 O 0.63376 0.94833 0.5892 0.0
O2648 O 0.6239 0.94314 0.59314 0.0
C2649 C 0.63091 0.9426 0.59226 0.0
C2650 C 0.62188 0.96465 0.59866 0.0
C2651 C 0.635 0.93936 0.59828 0.0
C2652 C 0.63963 0.93948 0.61059 0.0
C2653 C 0.63576 0.94281 0.60498 0.0
C2654 C 0.64205 0.92927 0.60283 0.0
C2655 C 0.64279 0.93263 0.6096 0.0
C2656 C 0.6382 0.93259 0.59726 0.0
C2657 C 0.61682 0.95176 0.56929 0.0
C2658 C 0.61553 0.94073 0.56223 0.0
C2659 C 0.61461 0.95234 0.55635 0.0
C2660 C 0.61582 0.95578 0.56296 0.0
C2661 C 0.61436 0.94476 0.55589 0.0
C2662 C 0.61674 0.9442 0.56887 0.0
C2663 C 0.61758 0.95565 0.57622 0.0
O2664 O 0.61756 0.95905 0.59823 0.0
O2665 O 0.6274 0.96423 0.59424 0.0
O2666 O 0.62404 0.9581 0.5778 0.0
O2667 O 0.61419 0.95292 0.58182 0.0
H2668 H 0.618 0.97413 0.5879 0.0
H2669 H 0.61252 0.98609 0.58939 0.0
H2670 H 0.61255 0.98315 0.61252 0.0
H2671 H 0.61792 0.97123 0.61096 0.0
H2672 H 0.64004 0.94221 0.61573 0.0
H2673 H 0.63332 0.94804 0.60589 0.0
H2674 H 0.6445 0.92408 0.60179 0.0
H2675 H 0.63772 0.92985 0.59212 0.0
H2676 H 0.61534 0.9349 0.56211 0.0
H2677 H 0.61388 0.95563 0.55159 0.0
H2678 H 0.61587 0.96162 0.56315 0.0
H2679 H 0.6175 0.94097 0.57368 0.0
C2680 C 0.30371 0.36862 0.84958 0.0
C2681 C 0.29913 0.36806 0.84357 0.0
C2682 C 0.28982 0.36237 0.851 0.0
C2683 C 0.29225 0.36498 0.84428 0.0
C2684 C 0.29449 0.36288 0.85696 0.0
C2685 C 0.30134 0.36597 0.85625 0.0
U2686 U 0.32147 0.37412 0.83991 0.0
O2687 O 0.32743 0.38437 0.8406 0.0
O2688 O 0.33253 0.37436 0.8443 0.0
C2689 C 0.33302 0.38141 0.8438 0.0
C2690 C 0.31086 0.37216 0.84916 0.0
C2691 C 0.33609 0.38525 0.85013 0.0
C2692 C 0.33547 0.39436 0.85962 0.0
C2693 C 0.33217 0.39044 0.85403 0.0
C2694 C 0.34659 0.38786 0.85759 0.0
C2695 C 0.34275 0.39316 0.86144 0.0
C2696 C 0.34331 0.38398 0.85201 0.0
C2697 C 0.32462 0.3682 0.81995 0.0
C2698 C 0.33555 0.3655 0.81314 0.0
C2699 C 0.32441 0.36792 0.80681 0.0
C2700 C 0.32089 0.36893 0.81342 0.0
C2701 C 0.33178 0.36612 0.80657 0.0
C2702 C 0.33201 0.36654 0.81976 0.0
C2703 C 0.32051 0.3687 0.82681 0.0
O2704 O 0.31648 0.36786 0.84871 0.0
O2705 O 0.31138 0.37784 0.84495 0.0
O2706 O 0.31799 0.37509 0.82856 0.0
O2707 O 0.32304 0.36509 0.83237 0.0
H2708 H 0.30085 0.37004 0.83835 0.0
H2709 H 0.28885 0.3646 0.83955 0.0
H2710 H 0.29279 0.36104 0.86224 0.0
H2711 H 0.30476 0.36638 0.86097 0.0
H2712 H 0.33231 0.39833 0.86251 0.0
H2713 H 0.32659 0.39155 0.85272 0.0
H2714 H 0.35222 0.38685 0.85874 0.0
H2715 H 0.34647 0.38006 0.84905 0.0
H2716 H 0.34124 0.36421 0.81317 0.0
H2717 H 0.32129 0.36834 0.8019 0.0
H2718 H 0.31517 0.37015 0.81342 0.0
H2719 H 0.33503 0.36594 0.82472 0.0
C2720 C 0.40707 0.55324 0.59955 0.0
C2721 C 0.40842 0.54895 0.59345 0.0
C2722 C 0.41339 0.53939 0.60107 0.0
C2723 C 0.41154 0.54209 0.5942 0.0
C2724 C 0.41205 0.54376 0.60714 0.0
C2725 C 0.40893 0.55059 0.60638 0.0
U2726 U 0.40168 0.57096 0.58977 0.0
O2727 O 0.3914 0.57688 0.59032 0.0
O2728 O 0.40132 0.582 0.59418 0.0
C2729 C 0.39426 0.58244 0.59366 0.0
C2730 C 0.40354 0.56037 0.59905 0.0
C2731 C 0.39032 0.58541 0.60001 0.0
C2732 C 0.37951 0.58623 0.60752 0.0
C2733 C 0.38345 0.58285 0.60201 0.0
C2734 C 0.38923 0.59473 0.60925 0.0
C2735 C 0.3823 0.59228 0.61117 0.0
C2736 C 0.39316 0.59137 0.60374 0.0
C2737 C 0.40782 0.57409 0.56986 0.0
C2738 C 0.41046 0.58502 0.56303 0.0
C2739 C 0.4082 0.57382 0.55673 0.0
C2740 C 0.40718 0.57032 0.56334 0.0
C2741 C 0.40992 0.58121 0.55646 0.0
C2742 C 0.40941 0.5815 0.56966 0.0
C2743 C 0.40727 0.57002 0.57673 0.0
O2744 O 0.40784 0.56599 0.59864 0.0
O2745 O 0.39794 0.56086 0.59474 0.0
O2746 O 0.40088 0.56746 0.57841 0.0
O2747 O 0.41079 0.57259 0.58232 0.0
H2748 H 0.40704 0.5509 0.58812 0.0
H2749 H 0.41256 0.53892 0.5894 0.0
H2750 H 0.41328 0.54185 0.61252 0.0
H2751 H 0.4079 0.55378 0.61117 0.0
H2752 H 0.37417 0.58423 0.60876 0.0
H2753 H 0.38103 0.57834 0.5992 0.0
H2754 H 0.39163 0.5993 0.612 0.0
H2755 H 0.39839 0.59353 0.6023 0.0
H2756 H 0.41168 0.59073 0.56304 0.0
H2757 H 0.40785 0.57067 0.55182 0.0
H2758 H 0.40602 0.5646 0.56335 0.0
H2759 H 0.40993 0.58456 0.57461 0.0
C2760 C 0.80313 0.15706 0.17677 0.0
C2761 C 0.79864 0.15798 0.18281 0.0
C2762 C 0.78934 0.16351 0.17526 0.0
C2763 C 0.79181 0.16115 0.18206 0.0
C2764 C 0.79393 0.16265 0.16927 0.0
C2765 C 0.80073 0.15947 0.17002 0.0
U2766 U 0.82079 0.15143 0.18649 0.0
O2767 O 0.82639 0.14093 0.18616 0.0
O2768 O 0.83178 0.15063 0.18207 0.0
C2769 C 0.83205 0.14359 0.18281 0.0
C2770 C 0.8102 0.15338 0.17724 0.0
C2771 C 0.83488 0.13935 0.17663 0.0
C2772 C 0.83815 0.13812 0.16393 0.0
C2773 C 0.83489 0.14205 0.16954 0.0
C2774 C 0.84126 0.12868 0.17237 0.0
C2775 C 0.84144 0.13141 0.16528 0.0
C2776 C 0.83803 0.13261 0.17795 0.0
C2777 C 0.82416 0.1578 0.20626 0.0
C2778 C 0.83509 0.16059 0.21302 0.0
C2779 C 0.824 0.15807 0.21941 0.0
C2780 C 0.82046 0.15703 0.21282 0.0
C2781 C 0.83135 0.15994 0.21961 0.0
C2782 C 0.83154 0.15953 0.20642 0.0
C2783 C 0.82004 0.15727 0.19943 0.0
O2784 O 0.81592 0.15755 0.17752 0.0
O2785 O 0.81059 0.14782 0.18163 0.0
O2786 O 0.81728 0.15093 0.19786 0.0
O2787 O 0.82268 0.16062 0.19376 0.0
H2788 H 0.80038 0.15619 0.18809 0.0
H2789 H 0.78847 0.1618 0.18681 0.0
H2790 H 0.7922 0.16429 0.16393 0.0
H2791 H 0.80408 0.15879 0.16528 0.0
H2792 H 0.8381 0.14036 0.15854 0.0
H2793 H 0.83249 0.14723 0.16834 0.0
H2794 H 0.84381 0.12359 0.17366 0.0
H2795 H 0.83814 0.13043 0.18338 0.0
H2796 H 0.84078 0.16193 0.21296 0.0
H2797 H 0.8209 0.15762 0.22434 0.0
H2798 H 0.81476 0.15577 0.21285 0.0
H2799 H 0.83455 0.16015 0.20145 0.0
C2800 C 0.61817 0.05329 0.92602 0.0
C2801 C 0.61714 0.04888 0.93209 0.0
C2802 C 0.61181 0.03945 0.92454 0.0
C2803 C 0.61401 0.04202 0.93135 0.0
C2804 C 0.61282 0.04395 0.9185 0.0
C2805 C 0.61595 0.05077 0.91924 0.0
U2806 U 0.62367 0.07107 0.93569 0.0
O2807 O 0.63397 0.07696 0.93503 0.0
O2808 O 0.62403 0.08208 0.93121 0.0
C2809 C 0.63109 0.08251 0.9317 0.0
C2810 C 0.62172 0.06042 0.92649 0.0
C2811 C 0.635 0.08547 0.92533 0.0
C2812 C 0.6457 0.08617 0.91766 0.0
C2813 C 0.64177 0.0828 0.92319 0.0
C2814 C 0.63614 0.0949 0.91621 0.0
C2815 C 0.64299 0.09234 0.91416 0.0
C2816 C 0.63223 0.09154 0.92173 0.0
C2817 C 0.61767 0.07438 0.95561 0.0
C2818 C 0.61452 0.0852 0.96242 0.0
C2819 C 0.61779 0.07429 0.96876 0.0
C2820 C 0.61882 0.07077 0.96216 0.0
C2821 C 0.61556 0.08154 0.969 0.0
C2822 C 0.61557 0.08167 0.9558 0.0
C2823 C 0.61817 0.07024 0.94877 0.0
O2824 O 0.61745 0.06605 0.92688 0.0
O2825 O 0.62736 0.06091 0.93076 0.0
O2826 O 0.62454 0.06765 0.94707 0.0
O2827 O 0.61461 0.07275 0.94318 0.0
H2828 H 0.61879 0.05071 0.93739 0.0
H2829 H 0.61325 0.03875 0.93613 0.0
H2830 H 0.61131 0.04215 0.91316 0.0
H2831 H 0.61672 0.05407 0.91448 0.0
H2832 H 0.65098 0.08408 0.91631 0.0
H2833 H 0.64414 0.07819 0.92588 0.0
H2834 H 0.63381 0.09956 0.91358 0.0
H2835 H 0.62707 0.09378 0.92329 0.0
H2836 H 0.61289 0.09081 0.96238 0.0
H2837 H 0.61855 0.07125 0.97368 0.0
H2838 H 0.62037 0.06514 0.96217 0.0
H2839 H 0.61464 0.08461 0.95084 0.0
C2840 C 0.90561 0.97237 0.42669 0.0
C2841 C 0.9117 0.97429 0.43076 0.0
C2842 C 0.91181 0.9863 0.42529 0.0
C2843 C 0.91478 0.98117 0.43005 0.0
C2844 C 0.90564 0.98435 0.42131 0.0
C2845 C 0.9026 0.97748 0.422 0.0
U2846 U 0.90096 0.95431 0.43617 0.0
O2847 O 0.89095 0.94797 0.43553 0.0
O2848 O 0.9011 0.94327 0.43171 0.0
C2849 C 0.89409 0.94248 0.43233 0.0
C2850 C 0.90242 0.96506 0.427 0.0
C2851 C 0.89029 0.93926 0.42608 0.0
C2852 C 0.88271 0.94015 0.41537 0.0
C2853 C 0.88657 0.94346 0.421 0.0
C2854 C 0.88632 0.92843 0.4198 0.0
C2855 C 0.88251 0.93257 0.41471 0.0
C2856 C 0.89015 0.93174 0.4254 0.0
C2857 C 0.90701 0.95136 0.45612 0.0
C2858 C 0.91081 0.94084 0.46304 0.0
C2859 C 0.90665 0.95151 0.46927 0.0
C2860 C 0.90547 0.95491 0.46263 0.0
C2861 C 0.90944 0.94447 0.46959 0.0
C2862 C 0.90962 0.94425 0.45639 0.0
C2863 C 0.90635 0.95544 0.44926 0.0
O2864 O 0.90694 0.95962 0.4274 0.0
O2865 O 0.89676 0.96428 0.43121 0.0
O2866 O 0.89988 0.95773 0.44753 0.0
O2867 O 0.91005 0.95307 0.44369 0.0
H2868 H 0.91411 0.97045 0.43444 0.0
H2869 H 0.91946 0.9825 0.43327 0.0
H2870 H 0.90325 0.98809 0.41751 0.0
H2871 H 0.89792 0.97612 0.41879 0.0
H2872 H 0.87991 0.94353 0.41152 0.0
H2873 H 0.8866 0.94929 0.4214 0.0
H2874 H 0.88622 0.9226 0.41957 0.0
H2875 H 0.89294 0.92838 0.42929 0.0
H2876 H 0.91302 0.93543 0.46306 0.0
H2877 H 0.90539 0.95444 0.47416 0.0
H2878 H 0.90346 0.9604 0.46259 0.0
H2879 H 0.91089 0.94137 0.45146 0.0
C2880 C 0.34966 0.30428 0.15742 0.0
C2881 C 0.3436 0.30008 0.15915 0.0
C2882 C 0.35136 0.29047 0.16379 0.0
C2883 C 0.34444 0.29324 0.16229 0.0
C2884 C 0.35739 0.29477 0.1621 0.0
C2885 C 0.35654 0.30158 0.15896 0.0
U2886 U 0.33962 0.32185 0.15203 0.0
O2887 O 0.34391 0.33289 0.15123 0.0
O2888 O 0.33975 0.3275 0.14155 0.0
C2889 C 0.34303 0.3332 0.1442 0.0
C2890 C 0.34903 0.31136 0.1538 0.0
C2891 C 0.3491 0.33615 0.1399 0.0
C2892 C 0.3619 0.33848 0.13796 0.0
C2893 C 0.35634 0.3352 0.14193 0.0
C2894 C 0.35309 0.34357 0.12981 0.0
C2895 C 0.36035 0.34276 0.13187 0.0
C2896 C 0.34755 0.34031 0.13378 0.0
C2897 C 0.31988 0.32495 0.1586 0.0
C2898 C 0.31297 0.3358 0.16137 0.0
C2899 C 0.30675 0.3246 0.15893 0.0
C2900 C 0.31337 0.32115 0.15788 0.0
C2901 C 0.30643 0.33197 0.16075 0.0
C2902 C 0.31962 0.33233 0.1603 0.0
C2903 C 0.32676 0.32092 0.158 0.0
O2904 O 0.34457 0.31173 0.14831 0.0
O2905 O 0.34871 0.31705 0.15802 0.0
O2906 O 0.33242 0.32363 0.16131 0.0
O2907 O 0.32831 0.31819 0.15164 0.0
H2908 H 0.33822 0.30207 0.15802 0.0
H2909 H 0.33967 0.29013 0.16358 0.0
H2910 H 0.36281 0.29281 0.16305 0.0
H2911 H 0.3613 0.30471 0.15764 0.0
H2912 H 0.36742 0.33765 0.13966 0.0
H2913 H 0.35769 0.33199 0.14662 0.0
H2914 H 0.35164 0.34689 0.12523 0.0
H2915 H 0.34201 0.34115 0.13213 0.0
H2916 H 0.31295 0.34149 0.16267 0.0
H2917 H 0.30186 0.32143 0.15851 0.0
H2918 H 0.31342 0.31544 0.15665 0.0
H2919 H 0.32454 0.33541 0.16088 0.0
C2920 C 0.47131 0.59955 0.90804 0.0
C2921 C 0.4759 0.59357 0.90879 0.0
C2922 C 0.48519 0.60118 0.91426 0.0
C2923 C 0.48278 0.59438 0.91186 0.0
C2924 C 0.48051 0.60711 0.91356 0.0
C2925 C 0.47367 0.6063 0.91048 0.0
U2926 U 0.4536 0.58964 0.9029 0.0
O2927 O 0.44253 0.59396 0.90262 0.0
O2928 O 0.44756 0.58998 0.89268 0.0
C2929 C 0.44201 0.59332 0.89557 0.0
C2930 C 0.46416 0.599 0.90454 0.0
C2931 C 0.43894 0.59958 0.89158 0.0
C2932 C 0.43835 0.60733 0.88094 0.0
C2933 C 0.44178 0.60189 0.88493 0.0
C2934 C 0.42924 0.60837 0.89022 0.0
C2935 C 0.43197 0.61059 0.88348 0.0
C2936 C 0.43266 0.60293 0.89419 0.0
C2937 C 0.45085 0.56989 0.90963 0.0
C2938 C 0.43997 0.56255 0.9089 0.0
C2939 C 0.45095 0.55744 0.91374 0.0
C2940 C 0.4545 0.56398 0.91258 0.0
C2941 C 0.44361 0.55663 0.91198 0.0
C2942 C 0.44355 0.56914 0.90775 0.0
C2943 C 0.45479 0.57677 0.90878 0.0
O2944 O 0.46364 0.59462 0.89898 0.0
O2945 O 0.45856 0.59867 0.90887 0.0
O2946 O 0.45213 0.58238 0.91218 0.0
O2947 O 0.45714 0.57831 0.90227 0.0
H2948 H 0.47419 0.58829 0.90697 0.0
H2949 H 0.48619 0.58967 0.91239 0.0
H2950 H 0.48219 0.61244 0.91524 0.0
H2951 H 0.47024 0.61099 0.90993 0.0
H2952 H 0.44059 0.60882 0.87576 0.0
H2953 H 0.44657 0.59939 0.88271 0.0
H2954 H 0.42442 0.61081 0.89243 0.0
H2955 H 0.4303 0.60124 0.89926 0.0
H2956 H 0.43431 0.56215 0.90752 0.0
H2957 H 0.45397 0.55298 0.91599 0.0
H2958 H 0.46014 0.56444 0.91404 0.0
H2959 H 0.44062 0.57364 0.90547 0.0
C2960 C 0.17591 0.72261 0.65668 0.0
C2961 C 0.18098 0.72516 0.66169 0.0
C2962 C 0.17443 0.73658 0.66273 0.0
C2963 C 0.18024 0.73208 0.6647 0.0
C2964 C 0.1694 0.73396 0.65768 0.0
C2965 C 0.17014 0.72707 0.6547 0.0
U2966 U 0.18553 0.70445 0.65267 0.0
O2967 O 0.18086 0.69355 0.65226 0.0
O2968 O 0.18564 0.69825 0.6425 0.0
C2969 C 0.18199 0.69285 0.64529 0.0
C2970 C 0.17644 0.71534 0.65345 0.0
C2971 C 0.17596 0.68996 0.64089 0.0
C2972 C 0.1632 0.68737 0.63901 0.0
C2973 C 0.16871 0.69065 0.64303 0.0
C2974 C 0.17205 0.68281 0.63058 0.0
C2975 C 0.1648 0.68335 0.63275 0.0
C2976 C 0.17755 0.68607 0.6346 0.0
C2977 C 0.20473 0.70091 0.66043 0.0
C2978 C 0.21481 0.69366 0.65606 0.0
C2979 C 0.21451 0.69753 0.66852 0.0
C2980 C 0.20792 0.701 0.66729 0.0
C2981 C 0.21811 0.6939 0.66291 0.0
C2982 C 0.20819 0.69713 0.65484 0.0
C2983 C 0.19809 0.7052 0.65923 0.0
O2984 O 0.18116 0.71456 0.64822 0.0
O2985 O 0.17638 0.70988 0.65796 0.0
O2986 O 0.19219 0.7029 0.66241 0.0
O2987 O 0.19696 0.70762 0.65266 0.0
H2988 H 0.18549 0.72181 0.66328 0.0
H2989 H 0.18425 0.73393 0.66851 0.0
H2990 H 0.1648 0.73719 0.65611 0.0
H2991 H 0.16616 0.72519 0.65086 0.0
H2992 H 0.15768 0.68799 0.6408 0.0
H2993 H 0.16732 0.69365 0.64785 0.0
H2994 H 0.17353 0.67969 0.62586 0.0
H2995 H 0.18309 0.68541 0.63287 0.0
H2996 H 0.21743 0.69096 0.65159 0.0
H2997 H 0.21679 0.69773 0.67389 0.0
H2998 H 0.20536 0.70387 0.67169 0.0
H2999 H 0.20586 0.69697 0.64948 0.0
C3000 C 0.05337 0.42555 0.40752 0.0
C3001 C 0.04978 0.43155 0.41044 0.0
C3002 C 0.03952 0.42397 0.41383 0.0
C3003 C 0.04291 0.43077 0.41355 0.0
C3004 C 0.04317 0.418 0.41088 0.0
C3005 C 0.05001 0.41879 0.40778 0.0
U3006 U 0.07108 0.43553 0.40248 0.0
O3007 O 0.08216 0.4312 0.40225 0.0
O3008 O 0.07716 0.43508 0.39227 0.0
C3009 C 0.0827 0.43177 0.3952 0.0
C3010 C 0.06055 0.42614 0.40413 0.0
C3011 C 0.08575 0.42546 0.39127 0.0
C3012 C 0.08652 0.41779 0.38058 0.0
C3013 C 0.08309 0.42328 0.38451 0.0
C3014 C 0.09528 0.41645 0.39013 0.0
C3015 C 0.09272 0.41436 0.38329 0.0
C3016 C 0.09186 0.42194 0.39404 0.0
C3017 C 0.07401 0.45539 0.40866 0.0
C3018 C 0.08509 0.4622 0.41061 0.0
C3019 C 0.07371 0.46849 0.40962 0.0
C3020 C 0.07016 0.4619 0.40863 0.0
C3021 C 0.08122 0.46874 0.41068 0.0
C3022 C 0.08152 0.45559 0.40959 0.0
C3023 C 0.06995 0.44854 0.40807 0.0
O3024 O 0.06107 0.43049 0.39856 0.0
O3025 O 0.06608 0.42661 0.40854 0.0
O3026 O 0.07251 0.44296 0.41162 0.0
O3027 O 0.06749 0.44685 0.40164 0.0
H3028 H 0.05229 0.43682 0.41031 0.0
H3029 H 0.0403 0.43548 0.41582 0.0
H3030 H 0.04071 0.41271 0.41086 0.0
H3031 H 0.05266 0.4141 0.40553 0.0
H3032 H 0.08442 0.4164 0.37531 0.0
H3033 H 0.07844 0.42591 0.38215 0.0
H3034 H 0.09996 0.41387 0.39246 0.0
H3035 H 0.09409 0.42353 0.3992 0.0
H3036 H 0.09088 0.46218 0.41131 0.0
H3037 H 0.07052 0.47337 0.40975 0.0
H3038 H 0.06436 0.46189 0.40797 0.0
H3039 H 0.08463 0.45064 0.40962 0.0
C3040 C 0.34969 0.72225 0.36849 0.0
C3041 C 0.34396 0.7254 0.36468 0.0
C3042 C 0.35121 0.7362 0.36241 0.0
C3043 C 0.34472 0.73231 0.36165 0.0
C3044 C 0.35692 0.73296 0.36621 0.0
C3045 C 0.35616 0.72608 0.36921 0.0
U3046 U 0.33979 0.70442 0.37332 0.0
O3047 O 0.34421 0.69341 0.3738 0.0
O3048 O 0.34002 0.69849 0.38364 0.0
C3049 C 0.34343 0.69294 0.38084 0.0
C3050 C 0.3491 0.71505 0.37185 0.0
C3051 C 0.34961 0.69004 0.38505 0.0
C3052 C 0.36205 0.68587 0.38596 0.0
C3053 C 0.35651 0.68919 0.38202 0.0
C3054 C 0.35395 0.68432 0.39607 0.0
C3055 C 0.36083 0.68333 0.39302 0.0
C3056 C 0.34842 0.68762 0.39213 0.0
C3057 C 0.32006 0.70131 0.36677 0.0
C3058 C 0.31329 0.69025 0.36453 0.0
C3059 C 0.30696 0.70158 0.36582 0.0
C3060 C 0.31353 0.70513 0.3669 0.0
C3061 C 0.30673 0.6941 0.36457 0.0
C3062 C 0.31988 0.69382 0.36562 0.0
C3063 C 0.3269 0.70539 0.36744 0.0
O3064 O 0.34464 0.71449 0.37732 0.0
O3065 O 0.34878 0.70951 0.36743 0.0
O3066 O 0.33256 0.70281 0.36404 0.0
O3067 O 0.32844 0.70794 0.37387 0.0
H3068 H 0.33891 0.72253 0.36407 0.0
H3069 H 0.34018 0.73464 0.35882 0.0
H3070 H 0.36203 0.73571 0.36681 0.0
H3071 H 0.36066 0.72374 0.37211 0.0
H3072 H 0.3673 0.68528 0.38347 0.0
H3073 H 0.35762 0.691 0.37658 0.0
H3074 H 0.35276 0.68236 0.40144 0.0
H3075 H 0.34313 0.68813 0.39457 0.0
H3076 H 0.31333 0.68448 0.36367 0.0
H3077 H 0.30206 0.70476 0.36579 0.0
H3078 H 0.31352 0.71091 0.36771 0.0
H3079 H 0.32484 0.69073 0.36551 0.0
C3080 C 0.05387 0.59966 0.11822 0.0
C3081 C 0.04975 0.59358 0.11639 0.0
C3082 C 0.03999 0.60131 0.11201 0.0
C3083 C 0.04287 0.5944 0.11333 0.0
C3084 C 0.0442 0.60736 0.11383 0.0
C3085 C 0.05104 0.60654 0.11689 0.0
U3086 U 0.07158 0.58969 0.12329 0.0
O3087 O 0.08267 0.59399 0.12346 0.0
O3088 O 0.07766 0.5902 0.13348 0.0
C3089 C 0.08329 0.5933 0.13048 0.0
C3090 C 0.06104 0.59907 0.12165 0.0
C3091 C 0.08653 0.59945 0.1344 0.0
C3092 C 0.08565 0.6105 0.14149 0.0
C3093 C 0.08234 0.60492 0.13757 0.0
C3094 C 0.09734 0.60526 0.13904 0.0
C3095 C 0.09321 0.61074 0.14229 0.0
C3096 C 0.09404 0.5997 0.13515 0.0
C3097 C 0.07475 0.56985 0.11706 0.0
C3098 C 0.08442 0.56268 0.11169 0.0
C3099 C 0.07546 0.55688 0.11917 0.0
C3100 C 0.07206 0.56353 0.12027 0.0
C3101 C 0.08164 0.55633 0.11479 0.0
C3102 C 0.08102 0.56935 0.1128 0.0
C3103 C 0.07057 0.57668 0.11768 0.0
O3104 O 0.06156 0.59471 0.12721 0.0
O3105 O 0.0666 0.59864 0.11726 0.0
O3106 O 0.07297 0.58231 0.11409 0.0
O3107 O 0.06807 0.57835 0.12411 0.0
H3108 H 0.05184 0.58821 0.11735 0.0
H3109 H 0.03983 0.58961 0.11192 0.0
H3110 H 0.04215 0.61277 0.11302 0.0
H3111 H 0.05411 0.61131 0.11829 0.0
H3112 H 0.08229 0.61466 0.14384 0.0
H3113 H 0.07653 0.60484 0.13705 0.0
H3114 H 0.10315 0.60516 0.13963 0.0
H3115 H 0.09738 0.59553 0.13279 0.0
H3116 H 0.08911 0.56249 0.10821 0.0
H3117 H 0.07321 0.55214 0.12175 0.0
H3118 H 0.06721 0.56371 0.12352 0.0
H3119 H 0.08322 0.57408 0.11018 0.0
C3120 C 0.17701 0.30296 0.86834 0.0
C3121 C 0.17583 0.30221 0.86088 0.0
C3122 C 0.17512 0.2891 0.86203 0.0
C3123 C 0.17491 0.29538 0.85777 0.0
C3124 C 0.17643 0.28985 0.86947 0.0
C3125 C 0.17733 0.29668 0.87258 0.0
U3126 U 0.18592 0.32131 0.87336 0.0
O3127 O 0.18098 0.33207 0.87414 0.0
O3128 O 0.1857 0.3271 0.88378 0.0
C3129 C 0.18205 0.33256 0.88113 0.0
C3130 C 0.17723 0.31017 0.87188 0.0
C3131 C 0.17599 0.33533 0.88557 0.0
C3132 C 0.16319 0.33744 0.88772 0.0
C3133 C 0.16874 0.33425 0.88367 0.0
C3134 C 0.17205 0.34271 0.89571 0.0
C3135 C 0.16477 0.34177 0.89378 0.0
C3136 C 0.17757 0.33953 0.89166 0.0
C3137 C 0.20527 0.32565 0.86625 0.0
C3138 C 0.21664 0.33039 0.8709 0.0
C3139 C 0.21381 0.3317 0.85824 0.0
C3140 C 0.20722 0.32817 0.85937 0.0
C3141 C 0.21866 0.33276 0.86398 0.0
C3142 C 0.21003 0.32688 0.87203 0.0
C3143 C 0.19867 0.32116 0.86709 0.0
O3144 O 0.1817 0.31092 0.87733 0.0
O3145 O 0.17701 0.31589 0.86769 0.0
O3146 O 0.19279 0.32344 0.86387 0.0
O3147 O 0.19741 0.31835 0.87348 0.0
H3148 H 0.17549 0.30692 0.85743 0.0
H3149 H 0.174 0.29502 0.85201 0.0
H3150 H 0.17653 0.28517 0.87295 0.0
H3151 H 0.1781 0.29706 0.87836 0.0
H3152 H 0.15766 0.33652 0.88611 0.0
H3153 H 0.16737 0.33102 0.879 0.0
H3154 H 0.17351 0.34608 0.90025 0.0
H3155 H 0.18312 0.34049 0.89321 0.0
H3156 H 0.22019 0.3312 0.87547 0.0
H3157 H 0.2152 0.33336 0.85282 0.0
H3158 H 0.20373 0.32721 0.85478 0.0
H3159 H 0.20874 0.32499 0.8774 0.0
C3160 C 0.47225 0.42639 0.61846 0.0
C3161 C 0.47295 0.42431 0.61119 0.0
C3162 C 0.4861 0.42439 0.61215 0.0
C3163 C 0.47978 0.42335 0.60808 0.0
C3164 C 0.48538 0.42657 0.61939 0.0
C3165 C 0.47856 0.42753 0.62251 0.0
U3166 U 0.45421 0.43574 0.62375 0.0
O3167 O 0.44327 0.43118 0.62445 0.0
O3168 O 0.44844 0.43551 0.63417 0.0
C3169 C 0.44284 0.43211 0.63148 0.0
C3170 C 0.46504 0.42671 0.62202 0.0
C3171 C 0.43992 0.42604 0.63579 0.0
C3172 C 0.43764 0.41324 0.63778 0.0
C3173 C 0.44092 0.4188 0.6338 0.0
C3174 C 0.43245 0.42208 0.64586 0.0
C3175 C 0.43331 0.41481 0.64385 0.0
C3176 C 0.43571 0.42761 0.64188 0.0
C3177 C 0.45086 0.45546 0.61719 0.0
C3178 C 0.43986 0.46224 0.61477 0.0
C3179 C 0.45113 0.46857 0.61646 0.0
C3180 C 0.45466 0.462 0.61753 0.0
C3181 C 0.44368 0.4688 0.61501 0.0
C3182 C 0.44341 0.45563 0.61585 0.0
C3183 C 0.45496 0.44863 0.61783 0.0
O3184 O 0.4644 0.43103 0.62761 0.0
O3185 O 0.45932 0.42679 0.61783 0.0
O3186 O 0.45235 0.44294 0.61449 0.0
O3187 O 0.45763 0.44713 0.62421 0.0
H3188 H 0.46823 0.42331 0.60791 0.0
H3189 H 0.48011 0.42175 0.60247 0.0
H3190 H 0.4901 0.42732 0.62274 0.0
H3191 H 0.47824 0.42899 0.62815 0.0
H3192 H 0.43851 0.40772 0.63612 0.0
H3193 H 0.44416 0.41743 0.62914 0.0
H3194 H 0.42909 0.42354 0.65041 0.0
H3195 H 0.43482 0.43315 0.64349 0.0
H3196 H 0.43411 0.46219 0.61375 0.0
H3197 H 0.45429 0.47348 0.61658 0.0
H3198 H 0.46042 0.46201 0.61849 0.0
H3199 H 0.44034 0.45067 0.61557 0.0
C3200 C 0.15699 0.34963 0.30348 0.0
C3201 C 0.16005 0.34368 0.29993 0.0
C3202 C 0.16293 0.35121 0.28947 0.0
C3203 C 0.163 0.34447 0.29299 0.0
C3204 C 0.15992 0.35714 0.29313 0.0
C3205 C 0.157 0.35636 0.30004 0.0
U3206 U 0.15245 0.33987 0.3215 0.0
O3207 O 0.15183 0.3445 0.33241 0.0
O3208 O 0.14213 0.3399 0.32746 0.0
C3209 C 0.14483 0.34349 0.33294 0.0
C3210 C 0.15362 0.34902 0.31068 0.0
C3211 C 0.14047 0.34959 0.33575 0.0
C3212 C 0.13892 0.36229 0.33881 0.0
C3213 C 0.14294 0.35675 0.33556 0.0
C3214 C 0.12981 0.35364 0.34231 0.0
C3215 C 0.13233 0.3608 0.34228 0.0
C3216 C 0.13384 0.34812 0.3391 0.0
C3217 C 0.15979 0.32057 0.32531 0.0
C3218 C 0.15497 0.31009 0.33165 0.0
C3219 C 0.16784 0.31125 0.3299 0.0
C3220 C 0.16676 0.31781 0.32632 0.0
C3221 C 0.16196 0.30724 0.33254 0.0
C3222 C 0.15389 0.31668 0.32809 0.0
C3223 C 0.15884 0.3272 0.32093 0.0
O3224 O 0.14833 0.34434 0.3113 0.0
O3225 O 0.15801 0.34898 0.31624 0.0
O3226 O 0.16205 0.33307 0.32328 0.0
O3227 O 0.15238 0.32845 0.31828 0.0
H3228 H 0.16009 0.33843 0.30249 0.0
H3229 H 0.16522 0.33977 0.29032 0.0
H3230 H 0.15988 0.36244 0.29068 0.0
H3231 H 0.15469 0.36102 0.3027 0.0
H3232 H 0.14099 0.36775 0.33859 0.0
H3233 H 0.14803 0.35807 0.33301 0.0
H3234 H 0.12482 0.35225 0.345 0.0
H3235 H 0.13184 0.34264 0.33936 0.0
H3236 H 0.15032 0.30721 0.33369 0.0
H3237 H 0.17329 0.30921 0.33039 0.0
H3238 H 0.17139 0.32066 0.32418 0.0
H3239 H 0.14845 0.31866 0.32741 0.0
C3240 C 0.42704 0.40658 0.05351 0.0
C3241 C 0.42758 0.41406 0.05239 0.0
C3242 C 0.42511 0.41255 0.03951 0.0
C3243 C 0.42663 0.41701 0.04548 0.0
C3244 C 0.42474 0.40505 0.04064 0.0
C3245 C 0.42566 0.40212 0.04754 0.0
U3246 U 0.43618 0.40247 0.07193 0.0
O3247 O 0.43134 0.40208 0.08277 0.0
O3248 O 0.43619 0.39233 0.07816 0.0
C3249 C 0.43257 0.39514 0.08356 0.0
C3250 C 0.42737 0.40332 0.06083 0.0
C3251 C 0.42661 0.39076 0.08656 0.0
C3252 C 0.41391 0.3875 0.08752 0.0
C3253 C 0.41945 0.39149 0.08422 0.0
C3254 C 0.42264 0.38193 0.09544 0.0
C3255 C 0.41542 0.38272 0.09324 0.0
C3256 C 0.42815 0.3859 0.09215 0.0
C3257 C 0.45538 0.41021 0.0757 0.0
C3258 C 0.4655 0.40582 0.08287 0.0
C3259 C 0.46507 0.41834 0.07926 0.0
C3260 C 0.4585 0.4171 0.07576 0.0
C3261 C 0.46874 0.4127 0.08277 0.0
C3262 C 0.4589 0.40458 0.07937 0.0
C3263 C 0.44878 0.40901 0.07135 0.0
O3264 O 0.43197 0.39801 0.06173 0.0
O3265 O 0.42711 0.40773 0.06638 0.0
O3266 O 0.44286 0.4122 0.07358 0.0
O3267 O 0.44766 0.40244 0.06891 0.0
H3268 H 0.4286 0.41767 0.05687 0.0
H3269 H 0.42689 0.42281 0.04487 0.0
H3270 H 0.42371 0.40142 0.03618 0.0
H3271 H 0.42519 0.39634 0.04823 0.0
H3272 H 0.40842 0.38829 0.0857 0.0
H3273 H 0.41813 0.39521 0.07992 0.0
H3274 H 0.42405 0.37822 0.09972 0.0
H3275 H 0.43364 0.38523 0.09403 0.0
H3276 H 0.46817 0.40132 0.08547 0.0
H3277 H 0.4673 0.42373 0.07917 0.0
H3278 H 0.4559 0.42153 0.07298 0.0
H3279 H 0.45663 0.3992 0.07941 0.0
C3280 C 0.36729 0.67533 0.80371 0.0
C3281 C 0.36593 0.68139 0.79936 0.0
C3282 C 0.36096 0.67367 0.78988 0.0
C3283 C 0.36281 0.68056 0.7925 0.0
C3284 C 0.36227 0.66765 0.79432 0.0
C3285 C 0.36539 0.66848 0.80113 0.0
U3286 U 0.37227 0.68501 0.82164 0.0
O3287 O 0.37305 0.68039 0.83254 0.0
O3288 O 0.38268 0.68497 0.82742 0.0
C3289 C 0.38005 0.68141 0.83296 0.0
C3290 C 0.37089 0.67591 0.81081 0.0
C3291 C 0.38445 0.67534 0.83575 0.0
C3292 C 0.3861 0.66262 0.8387 0.0
C3293 C 0.38208 0.66814 0.83543 0.0
C3294 C 0.39501 0.67135 0.84248 0.0
C3295 C 0.39259 0.66416 0.84234 0.0
C3296 C 0.39099 0.67686 0.83924 0.0
C3297 C 0.36473 0.70429 0.82549 0.0
C3298 C 0.36937 0.71493 0.83169 0.0
C3299 C 0.35653 0.71358 0.82989 0.0
C3300 C 0.35772 0.70697 0.82643 0.0
C3301 C 0.36234 0.71772 0.83248 0.0
C3302 C 0.37056 0.7083 0.82823 0.0
C3303 C 0.36578 0.69763 0.82116 0.0
O3304 O 0.3762 0.68057 0.81134 0.0
O3305 O 0.36666 0.67585 0.81651 0.0
O3306 O 0.36265 0.69174 0.82358 0.0
O3307 O 0.37223 0.69644 0.81847 0.0
H3308 H 0.36733 0.68674 0.80124 0.0
H3309 H 0.36181 0.68532 0.78928 0.0
H3310 H 0.36103 0.66226 0.79246 0.0
H3311 H 0.36642 0.66373 0.80438 0.0
H3312 H 0.38411 0.65714 0.83838 0.0
H3313 H 0.37707 0.66679 0.83276 0.0
H3314 H 0.39992 0.67279 0.8453 0.0
H3315 H 0.39291 0.68236 0.83961 0.0
H3316 H 0.37399 0.71798 0.83356 0.0
H3317 H 0.35104 0.71545 0.8305 0.0
H3318 H 0.35313 0.704 0.82436 0.0
H3319 H 0.37604 0.70639 0.82758 0.0
C3320 C 0.10015 0.61783 0.55394 0.0
C3321 C 0.09407 0.61595 0.54986 0.0
C3322 C 0.1018 0.61159 0.54007 0.0
C3323 C 0.09488 0.61287 0.54297 0.0
C3324 C 0.10785 0.61347 0.54424 0.0
C3325 C 0.10703 0.61654 0.55109 0.0
U3326 U 0.09016 0.62305 0.57163 0.0
O3327 O 0.09445 0.62331 0.58272 0.0
O3328 O 0.09063 0.63328 0.57764 0.0
C3329 C 0.09388 0.63036 0.58322 0.0
C3330 C 0.09956 0.62129 0.56111 0.0
C3331 C 0.10017 0.63428 0.58632 0.0
C3332 C 0.10825 0.64467 0.58672 0.0
C3333 C 0.1028 0.64071 0.58327 0.0
C3334 C 0.10864 0.6358 0.59626 0.0
C3335 C 0.11118 0.64233 0.59332 0.0
C3336 C 0.1032 0.63186 0.59282 0.0
C3337 C 0.07027 0.61693 0.57458 0.0
C3338 C 0.06342 0.61445 0.58555 0.0
C3339 C 0.05715 0.61646 0.57429 0.0
C3340 C 0.06376 0.61746 0.57079 0.0
C3341 C 0.05687 0.61488 0.58172 0.0
C3342 C 0.07005 0.61548 0.58203 0.0
C3343 C 0.07714 0.61748 0.57053 0.0
O3344 O 0.09523 0.62688 0.56159 0.0
O3345 O 0.09908 0.61693 0.56668 0.0
O3346 O 0.08271 0.61393 0.5731 0.0
O3347 O 0.07885 0.62389 0.56802 0.0
H3348 H 0.0887 0.61688 0.55197 0.0
H3349 H 0.0901 0.61143 0.53996 0.0
H3350 H 0.11326 0.61269 0.54217 0.0
H3351 H 0.1118 0.61799 0.55413 0.0
H3352 H 0.11 0.6497 0.58432 0.0
H3353 H 0.10056 0.64279 0.57829 0.0
H3354 H 0.11084 0.63374 0.60126 0.0
H3355 H 0.10126 0.62696 0.59534 0.0
H3356 H 0.06343 0.61334 0.59128 0.0
H3357 H 0.05225 0.61673 0.57113 0.0
H3358 H 0.06378 0.61852 0.56504 0.0
H3359 H 0.07499 0.61505 0.5851 0.0
C3360 C 0.15684 0.67545 0.22194 0.0
C3361 C 0.1607 0.68115 0.2251 0.0
C3362 C 0.1631 0.67381 0.2358 0.0
C3363 C 0.16379 0.68034 0.23197 0.0
C3364 C 0.15918 0.66815 0.2326 0.0
C3365 C 0.1561 0.66897 0.22576 0.0
U3366 U 0.15203 0.68552 0.20423 0.0
O3367 O 0.15198 0.6813 0.19309 0.0
O3368 O 0.14192 0.68507 0.19803 0.0
C3369 C 0.14496 0.68197 0.19242 0.0
C3370 C 0.15354 0.67605 0.21471 0.0
C3371 C 0.14109 0.67578 0.18918 0.0
C3372 C 0.1336 0.665 0.19005 0.0
C3373 C 0.13749 0.6706 0.19337 0.0
C3374 C 0.13695 0.66965 0.17832 0.0
C3375 C 0.13326 0.66446 0.18247 0.0
C3376 C 0.1408 0.67523 0.18164 0.0
C3377 C 0.15821 0.70541 0.20149 0.0
C3378 C 0.16056 0.71225 0.1905 0.0
C3379 C 0.15891 0.71852 0.20183 0.0
C3380 C 0.15788 0.71192 0.20533 0.0
C3381 C 0.16032 0.7188 0.19437 0.0
C3382 C 0.15951 0.70563 0.19402 0.0
C3383 C 0.15758 0.69853 0.20552 0.0
O3384 O 0.14797 0.68039 0.21415 0.0
O3385 O 0.15802 0.67658 0.20924 0.0
O3386 O 0.16118 0.69297 0.20299 0.0
O3387 O 0.15112 0.69681 0.20788 0.0
H3388 H 0.16134 0.6862 0.22223 0.0
H3389 H 0.16681 0.6848 0.23423 0.0
H3390 H 0.15841 0.6631 0.23541 0.0
H3391 H 0.15312 0.66452 0.22344 0.0
H3392 H 0.13091 0.66107 0.19342 0.0
H3393 H 0.13764 0.6709 0.19921 0.0
H3394 H 0.13673 0.66951 0.17249 0.0
H3395 H 0.1435 0.67918 0.17829 0.0
H3396 H 0.16155 0.71225 0.18474 0.0
H3397 H 0.15878 0.72341 0.20502 0.0
H3398 H 0.15694 0.71189 0.2111 0.0
H3399 H 0.15978 0.70069 0.19092 0.0
C3400 C 0.09906 0.40611 0.97241 0.0
C3401 C 0.09523 0.41238 0.97425 0.0
C3402 C 0.10057 0.41232 0.98633 0.0
C3403 C 0.09599 0.41546 0.98114 0.0
C3404 C 0.10432 0.40599 0.98444 0.0
C3405 C 0.10357 0.40294 0.97758 0.0
U3406 U 0.08968 0.40198 0.95416 0.0
O3407 O 0.09442 0.40154 0.94328 0.0
O3408 O 0.08963 0.3918 0.94798 0.0
C3409 C 0.0932 0.3946 0.94253 0.0
C3410 C 0.09866 0.40286 0.96513 0.0
C3411 C 0.09912 0.3902 0.93947 0.0
C3412 C 0.11184 0.38714 0.93814 0.0
C3413 C 0.10635 0.39114 0.94152 0.0
C3414 C 0.10292 0.38115 0.93074 0.0
C3415 C 0.1102 0.38215 0.93264 0.0
C3416 C 0.09747 0.38513 0.93412 0.0
C3417 C 0.07041 0.40943 0.95038 0.0
C3418 C 0.05949 0.4048 0.94468 0.0
C3419 C 0.06147 0.41767 0.94535 0.0
C3420 C 0.06805 0.41647 0.94887 0.0
C3421 C 0.05705 0.41185 0.94329 0.0
C3422 C 0.06609 0.4036 0.94818 0.0
C3423 C 0.07703 0.4084 0.95479 0.0
O3424 O 0.09403 0.39756 0.96431 0.0
O3425 O 0.09875 0.40734 0.95963 0.0
O3426 O 0.08291 0.41163 0.95252 0.0
O3427 O 0.07825 0.4019 0.95734 0.0
H3428 H 0.09169 0.41492 0.97037 0.0
H3429 H 0.09295 0.42028 0.98241 0.0
H3430 H 0.10797 0.40346 0.98823 0.0
H3431 H 0.1066 0.39812 0.97627 0.0
H3432 H 0.11738 0.38809 0.93972 0.0
H3433 H 0.10776 0.39503 0.94564 0.0
H3434 H 0.10142 0.37728 0.92664 0.0
H3435 H 0.09193 0.3843 0.93246 0.0
H3436 H 0.05628 0.40019 0.94309 0.0
H3437 H 0.05975 0.42317 0.94446 0.0
H3438 H 0.07121 0.42107 0.95057 0.0
H3439 H 0.06773 0.3981 0.94926 0.0
C3440 C 0.36849 0.34883 0.72228 0.0
C3441 C 0.36107 0.35021 0.72307 0.0
C3442 C 0.3623 0.35078 0.73619 0.0
C3443 C 0.35802 0.35117 0.72993 0.0
C3444 C 0.36969 0.34928 0.73539 0.0
C3445 C 0.37275 0.34835 0.72853 0.0
U3446 U 0.373 0.33961 0.70397 0.0
O3447 O 0.37359 0.34436 0.69311 0.0
O3448 O 0.38325 0.33952 0.69791 0.0
C3449 C 0.38054 0.3431 0.69243 0.0
C3450 C 0.37196 0.34849 0.71503 0.0
C3451 C 0.38499 0.34901 0.68944 0.0
C3452 C 0.3882 0.36171 0.6883 0.0
C3453 C 0.38416 0.35622 0.69162 0.0
C3454 C 0.39401 0.35284 0.68069 0.0
C3455 C 0.39312 0.3601 0.68271 0.0
C3456 C 0.38999 0.34738 0.68401 0.0
C3457 C 0.36519 0.32048 0.7002 0.0
C3458 C 0.36936 0.31114 0.69193 0.0
C3459 C 0.35754 0.31019 0.69738 0.0
C3460 C 0.35869 0.3167 0.70101 0.0
C3461 C 0.36287 0.30727 0.69282 0.0
C3462 C 0.3705 0.31768 0.69557 0.0
C3463 C 0.36635 0.32708 0.70455 0.0
O3464 O 0.37728 0.34387 0.71423 0.0
O3465 O 0.3677 0.34878 0.70936 0.0
O3466 O 0.36326 0.333 0.70222 0.0
O3467 O 0.3729 0.32815 0.70704 0.0
H3468 H 0.35761 0.35068 0.71839 0.0
H3469 H 0.35229 0.35223 0.73033 0.0
H3470 H 0.37319 0.34903 0.74006 0.0
H3471 H 0.3785 0.3474 0.72812 0.0
H3472 H 0.38733 0.36724 0.68997 0.0
H3473 H 0.38032 0.35761 0.6958 0.0
H3474 H 0.39783 0.35135 0.67652 0.0
H3475 H 0.39074 0.34186 0.68225 0.0
H3476 H 0.37355 0.30911 0.6884 0.0
H3477 H 0.35252 0.30734 0.6983 0.0
H3478 H 0.35453 0.31873 0.70459 0.0
H3479 H 0.37556 0.3205 0.69484 0.0
C3480 C 0.42567 0.61735 0.47178 0.0
C3481 C 0.43177 0.61574 0.47597 0.0
C3482 C 0.42407 0.61115 0.48568 0.0
C3483 C 0.43097 0.61269 0.48287 0.0
C3484 C 0.41801 0.61275 0.4814 0.0
C3485 C 0.41881 0.61581 0.47455 0.0
U3486 U 0.4353 0.62224 0.45376 0.0
O3487 O 0.43065 0.62258 0.44284 0.0
O3488 O 0.4349 0.63247 0.44772 0.0
C3489 C 0.43136 0.62961 0.44227 0.0
C3490 C 0.42622 0.62081 0.46461 0.0
C3491 C 0.42507 0.63369 0.43936 0.0
C3492 C 0.41836 0.64493 0.43787 0.0
C3493 C 0.42381 0.64093 0.44126 0.0
C3494 C 0.41522 0.63453 0.43067 0.0
C3495 C 0.41404 0.64182 0.43245 0.0
C3496 C 0.42067 0.63054 0.43405 0.0
C3497 C 0.45476 0.61521 0.44995 0.0
C3498 C 0.46524 0.62002 0.44358 0.0
C3499 C 0.46417 0.60717 0.44548 0.0
C3500 C 0.45759 0.60824 0.44903 0.0
C3501 C 0.46814 0.61304 0.44278 0.0
C3502 C 0.45862 0.62109 0.44712 0.0
C3503 C 0.44811 0.61614 0.45432 0.0
O3504 O 0.43075 0.62623 0.46399 0.0
O3505 O 0.42632 0.61646 0.45901 0.0
O3506 O 0.44231 0.61278 0.45203 0.0
O3507 O 0.44675 0.62262 0.45687 0.0
H3508 H 0.43713 0.61688 0.47394 0.0
H3509 H 0.43577 0.61147 0.48596 0.0
H3510 H 0.41262 0.61178 0.4834 0.0
H3511 H 0.41404 0.61704 0.47142 0.0
H3512 H 0.41768 0.65054 0.43934 0.0
H3513 H 0.42716 0.64358 0.44524 0.0
H3514 H 0.41195 0.6319 0.42661 0.0
H3515 H 0.42153 0.62501 0.43238 0.0
H3516 H 0.46808 0.62467 0.44149 0.0
H3517 H 0.46625 0.60173 0.44506 0.0
H3518 H 0.45477 0.60362 0.45122 0.0
H3519 H 0.4566 0.62654 0.44773 0.0
C3520 C 0.30267 0.15647 0.34946 0.0
C3521 C 0.30147 0.16381 0.34798 0.0
C3522 C 0.28874 0.16261 0.35123 0.0
C3523 C 0.29459 0.16685 0.34887 0.0
C3524 C 0.28994 0.15524 0.35255 0.0
C3525 C 0.29681 0.15222 0.3517 0.0
U3526 U 0.32071 0.15172 0.33993 0.0
O3527 O 0.33177 0.15173 0.34429 0.0
O3528 O 0.32697 0.14165 0.34041 0.0
C3529 C 0.33253 0.14473 0.34354 0.0
C3530 C 0.30998 0.15319 0.34913 0.0
C3531 C 0.33583 0.14082 0.34966 0.0
C3532 C 0.33508 0.13402 0.3609 0.0
C3533 C 0.33172 0.13793 0.35533 0.0
C3534 C 0.34666 0.1359 0.35519 0.0
C3535 C 0.34261 0.13294 0.36089 0.0
C3536 C 0.34331 0.13978 0.34966 0.0
C3537 C 0.32358 0.15799 0.32008 0.0
C3538 C 0.33472 0.15975 0.3133 0.0
C3539 C 0.3233 0.15931 0.30701 0.0
C3540 C 0.31973 0.15827 0.31358 0.0
C3541 C 0.33085 0.16011 0.30677 0.0
C3542 C 0.33112 0.15869 0.31989 0.0
C3543 C 0.31951 0.1573 0.32692 0.0
O3544 O 0.31073 0.14755 0.34491 0.0
O3545 O 0.31551 0.15762 0.34884 0.0
O3546 O 0.32198 0.1609 0.33251 0.0
O3547 O 0.3172 0.15082 0.32859 0.0
H3548 H 0.30586 0.16724 0.34623 0.0
H3549 H 0.29386 0.17252 0.34771 0.0
H3550 H 0.2856 0.15182 0.35446 0.0
H3551 H 0.29759 0.14656 0.35293 0.0
H3552 H 0.33178 0.1319 0.36522 0.0
H3553 H 0.32593 0.13867 0.35545 0.0
H3554 H 0.35244 0.13509 0.3549 0.0
H3555 H 0.34658 0.14192 0.34531 0.0
H3556 H 0.34053 0.16026 0.31332 0.0
H3557 H 0.32011 0.15967 0.30213 0.0
H3558 H 0.31391 0.15779 0.31359 0.0
H3559 H 0.33422 0.15847 0.32483 0.0
C3560 C 0.80214 0.36854 0.67698 0.0
C3561 C 0.80069 0.36141 0.67912 0.0
C3562 C 0.78818 0.36252 0.67509 0.0
C3563 C 0.79379 0.35844 0.67819 0.0
C3564 C 0.78963 0.36971 0.67313 0.0
C3565 C 0.79652 0.37266 0.67405 0.0
U3566 U 0.82048 0.37302 0.68616 0.0
O3567 O 0.83138 0.37296 0.68137 0.0
O3568 O 0.8268 0.38304 0.68552 0.0
C3569 C 0.83214 0.37998 0.682 0.0
C3570 C 0.80949 0.37168 0.67727 0.0
C3571 C 0.83515 0.3839 0.67565 0.0
C3572 C 0.83587 0.39458 0.66798 0.0
C3573 C 0.83243 0.39063 0.67345 0.0
C3574 C 0.84473 0.3851 0.6667 0.0
C3575 C 0.84214 0.39192 0.6646 0.0
C3576 C 0.8413 0.38117 0.67216 0.0
C3577 C 0.82406 0.36681 0.70596 0.0
C3578 C 0.83384 0.36141 0.71292 0.0
C3579 C 0.82493 0.36878 0.71895 0.0
C3580 C 0.82144 0.36994 0.71235 0.0
C3581 C 0.83112 0.36441 0.71936 0.0
C3582 C 0.83034 0.36257 0.70631 0.0
C3583 C 0.81975 0.36748 0.69922 0.0
O3584 O 0.81038 0.37728 0.68153 0.0
O3585 O 0.81495 0.36716 0.67744 0.0
O3586 O 0.82194 0.36383 0.69354 0.0
O3587 O 0.81735 0.37395 0.6976 0.0
H3588 H 0.80492 0.35808 0.68139 0.0
H3589 H 0.79291 0.35287 0.67971 0.0
H3590 H 0.78544 0.37308 0.67086 0.0
H3591 H 0.79748 0.37817 0.67235 0.0
H3592 H 0.83375 0.39983 0.66659 0.0
H3593 H 0.82775 0.39295 0.67605 0.0
H3594 H 0.84946 0.38281 0.66416 0.0
H3595 H 0.84356 0.37603 0.67377 0.0
H3596 H 0.83854 0.35795 0.71301 0.0
H3597 H 0.82274 0.3713 0.72374 0.0
H3598 H 0.81658 0.37318 0.71228 0.0
H3599 H 0.83248 0.36002 0.70151 0.0
C3600 C 0.40678 0.05265 0.42655 0.0
C3601 C 0.4143 0.05163 0.42665 0.0
C3602 C 0.41281 0.03865 0.42479 0.0
C3603 C 0.41727 0.04472 0.4258 0.0
C3604 C 0.40529 0.03969 0.42484 0.0
C3605 C 0.40232 0.04659 0.42568 0.0
U3606 U 0.40196 0.07099 0.43557 0.0
O3607 O 0.40203 0.08192 0.43086 0.0
O3608 O 0.3919 0.07724 0.43482 0.0
C3609 C 0.39502 0.0827 0.43153 0.0
C3610 C 0.40349 0.05998 0.42672 0.0
C3611 C 0.39116 0.08588 0.4253 0.0
C3612 C 0.38303 0.08507 0.41499 0.0
C3613 C 0.38698 0.08173 0.42053 0.0
C3614 C 0.38749 0.09671 0.41884 0.0
C3615 C 0.38321 0.09262 0.41408 0.0
C3616 C 0.39141 0.09338 0.42436 0.0
C3617 C 0.40816 0.07466 0.45538 0.0
C3618 C 0.41434 0.08378 0.4626 0.0
C3619 C 0.40544 0.07608 0.4682 0.0
C3620 C 0.40428 0.07263 0.46158 0.0
C3621 C 0.41058 0.08163 0.46884 0.0
C3622 C 0.41317 0.08033 0.45597 0.0
C3623 C 0.40748 0.07032 0.44865 0.0
O3624 O 0.39784 0.06084 0.43091 0.0
O3625 O 0.4079 0.06553 0.42685 0.0
O3626 O 0.41113 0.07247 0.44296 0.0
O3627 O 0.40101 0.0679 0.44702 0.0
H3628 H 0.41791 0.05617 0.42725 0.0
H3629 H 0.42308 0.04418 0.42571 0.0
H3630 H 0.40166 0.03516 0.4242 0.0
H3631 H 0.39652 0.0472 0.42552 0.0
H3632 H 0.37987 0.08173 0.41139 0.0
H3633 H 0.3867 0.07593 0.42114 0.0
H3634 H 0.38769 0.10253 0.41842 0.0
H3635 H 0.39455 0.0967 0.42799 0.0
H3636 H 0.4184 0.08797 0.46288 0.0
H3637 H 0.40235 0.07434 0.47284 0.0
H3638 H 0.40044 0.06823 0.46135 0.0
H3639 H 0.41634 0.08199 0.45135 0.0
C3640 C 0.72197 0.65591 0.17612 0.0
C3641 C 0.72408 0.66169 0.18053 0.0
C3642 C 0.73589 0.66208 0.17465 0.0
C3643 C 0.73097 0.66476 0.17979 0.0
C3644 C 0.73374 0.65625 0.17029 0.0
C3645 C 0.72687 0.65321 0.17102 0.0
U3646 U 0.70396 0.65137 0.1858 0.0
O3647 O 0.69299 0.65093 0.18129 0.0
O3648 O 0.69793 0.64112 0.18566 0.0
C3649 C 0.69243 0.64392 0.18219 0.0
C3650 C 0.71472 0.65263 0.17659 0.0
C3651 C 0.6895 0.63963 0.17608 0.0
C3652 C 0.68605 0.63829 0.16345 0.0
C3653 C 0.68937 0.64228 0.16897 0.0
C3654 C 0.68308 0.62891 0.17201 0.0
C3655 C 0.6828 0.63157 0.1649 0.0
C3656 C 0.68637 0.63289 0.17751 0.0
C3657 C 0.70085 0.65813 0.2055 0.0
C3658 C 0.68987 0.66072 0.21227 0.0
C3659 C 0.70113 0.65899 0.21861 0.0
C3660 C 0.70465 0.65783 0.21203 0.0
C3661 C 0.6937 0.6605 0.21884 0.0
C3662 C 0.69341 0.65954 0.20567 0.0
C3663 C 0.70492 0.65735 0.19865 0.0
O3664 O 0.71403 0.64717 0.18105 0.0
O3665 O 0.70921 0.65709 0.1768 0.0
O3666 O 0.70239 0.66072 0.19295 0.0
O3667 O 0.70743 0.65089 0.19717 0.0
H3668 H 0.7204 0.66385 0.18453 0.0
H3669 H 0.73246 0.66919 0.18329 0.0
H3670 H 0.73731 0.6541 0.1662 0.0
H3671 H 0.72535 0.64877 0.16755 0.0
H3672 H 0.68602 0.64048 0.15804 0.0
H3673 H 0.69174 0.64745 0.16769 0.0
H3674 H 0.68057 0.62382 0.17338 0.0
H3675 H 0.68634 0.63076 0.18295 0.0
H3676 H 0.68413 0.66179 0.21223 0.0
H3677 H 0.70429 0.65888 0.22351 0.0
H3678 H 0.7104 0.65681 0.21204 0.0
H3679 H 0.69034 0.6598 0.20071 0.0
C3680 C 0.61838 0.47247 0.42733 0.0
C3681 C 0.61088 0.47342 0.42664 0.0
C3682 C 0.61238 0.48646 0.42537 0.0
C3683 C 0.60793 0.48031 0.42568 0.0
C3684 C 0.61987 0.4855 0.4262 0.0
C3685 C 0.62282 0.47861 0.42714 0.0
U3686 U 0.62266 0.45412 0.43654 0.0
O3687 O 0.62307 0.44326 0.43177 0.0
O3688 O 0.63282 0.44793 0.43654 0.0
C3689 C 0.63 0.44249 0.43299 0.0
C3690 C 0.62171 0.46517 0.42766 0.0
C3691 C 0.63437 0.43943 0.42704 0.0
C3692 C 0.638 0.43878 0.41441 0.0
C3693 C 0.63402 0.44209 0.41996 0.0
C3694 C 0.64278 0.4302 0.423 0.0
C3695 C 0.64238 0.43273 0.41585 0.0
C3696 C 0.63882 0.43351 0.42851 0.0
C3697 C 0.61497 0.45045 0.45578 0.0
C3698 C 0.6193 0.44277 0.46554 0.0
C3699 C 0.6071 0.44737 0.46585 0.0
C3700 C 0.60827 0.45088 0.45927 0.0
C3701 C 0.61263 0.44335 0.46915 0.0
C3702 C 0.62046 0.4463 0.45893 0.0
C3703 C 0.61614 0.45477 0.44916 0.0
O3704 O 0.62705 0.46431 0.43224 0.0
O3705 O 0.61736 0.45958 0.42743 0.0
O3706 O 0.61295 0.45249 0.44325 0.0
O3707 O 0.6227 0.4572 0.448 0.0
H3708 H 0.60728 0.46882 0.42669 0.0
H3709 H 0.60216 0.48079 0.42498 0.0
H3710 H 0.62348 0.49009 0.42611 0.0
H3711 H 0.62861 0.47807 0.42759 0.0
H3712 H 0.63752 0.44085 0.40898 0.0
H3713 H 0.63061 0.44666 0.4187 0.0
H3714 H 0.64618 0.42566 0.42436 0.0
H3715 H 0.63919 0.43138 0.43394 0.0
H3716 H 0.6237 0.43977 0.46792 0.0
H3717 H 0.60185 0.44783 0.46837 0.0
H3718 H 0.60394 0.45404 0.45695 0.0
H3719 H 0.62569 0.44588 0.45636 0.0
C3720 C 0.22255 0.86901 0.84881 0.0
C3721 C 0.22364 0.86163 0.8474 0.0
C3722 C 0.2364 0.86271 0.85056 0.0
C3723 C 0.23049 0.85852 0.84828 0.0
C3724 C 0.2353 0.87011 0.85182 0.0
C3725 C 0.22847 0.8732 0.85098 0.0
U3726 U 0.20432 0.87385 0.83964 0.0
O3727 O 0.19345 0.8744 0.8444 0.0
O3728 O 0.19841 0.88417 0.83994 0.0
C3729 C 0.19292 0.88141 0.84348 0.0
C3730 C 0.21529 0.87239 0.84853 0.0
C3731 C 0.19005 0.88572 0.84959 0.0
C3732 C 0.18706 0.88728 0.86232 0.0
C3733 C 0.19035 0.8833 0.85677 0.0
C3734 C 0.18325 0.89622 0.85362 0.0
C3735 C 0.1834 0.89377 0.86081 0.0
C3736 C 0.18652 0.89224 0.8481 0.0
C3737 C 0.20063 0.86725 0.81996 0.0
C3738 C 0.19064 0.86217 0.81304 0.0
C3739 C 0.20004 0.86881 0.80691 0.0
C3740 C 0.2035 0.87 0.81351 0.0
C3741 C 0.19361 0.86479 0.80655 0.0
C3742 C 0.19411 0.86337 0.81966 0.0
C3743 C 0.20488 0.86793 0.82673 0.0
O3744 O 0.21455 0.87791 0.84415 0.0
O3745 O 0.20967 0.86806 0.84851 0.0
O3746 O 0.2025 0.86453 0.83249 0.0
O3747 O 0.20754 0.87433 0.82819 0.0
H3748 H 0.2192 0.85825 0.84572 0.0
H3749 H 0.23114 0.85283 0.84717 0.0
H3750 H 0.23969 0.87349 0.85367 0.0
H3751 H 0.22777 0.87888 0.85216 0.0
H3752 H 0.18737 0.88526 0.86779 0.0
H3753 H 0.19305 0.87829 0.85809 0.0
H3754 H 0.18042 0.90112 0.85221 0.0
H3755 H 0.18616 0.89419 0.8426 0.0
H3756 H 0.18575 0.85899 0.81299 0.0
H3757 H 0.20243 0.87103 0.80206 0.0
H3758 H 0.20853 0.87296 0.81355 0.0
H3759 H 0.19177 0.86111 0.82451 0.0
C3760 C 0.40725 0.97122 0.10021 0.0
C3761 C 0.40827 0.97569 0.09418 0.0
C3762 C 0.41362 0.98504 0.10181 0.0
C3763 C 0.4114 0.98254 0.09497 0.0
C3764 C 0.41266 0.98047 0.1078 0.0
C3765 C 0.40952 0.97366 0.107 0.0
U3766 U 0.40187 0.9536 0.0903 0.0
O3767 O 0.40111 0.94256 0.0946 0.0
O3768 O 0.39142 0.94789 0.09042 0.0
C3769 C 0.39409 0.9422 0.09368 0.0
C3770 C 0.40362 0.96413 0.09967 0.0
C3771 C 0.38979 0.93916 0.09969 0.0
C3772 C 0.38765 0.9369 0.11248 0.0
C3773 C 0.3916 0.94029 0.10697 0.0
C3774 C 0.37995 0.93135 0.10353 0.0
C3775 C 0.38181 0.93231 0.11083 0.0
C3776 C 0.38389 0.93473 0.09805 0.0
C3777 C 0.40844 0.9505 0.07055 0.0
C3778 C 0.41121 0.93961 0.06368 0.0
C3779 C 0.40877 0.95079 0.05741 0.0
C3780 C 0.40773 0.95427 0.06403 0.0
C3781 C 0.41059 0.94342 0.05713 0.0
C3782 C 0.41014 0.94311 0.07032 0.0
C3783 C 0.40783 0.95454 0.07743 0.0
O3784 O 0.39811 0.96371 0.09525 0.0
O3785 O 0.40784 0.95844 0.09939 0.0
O3786 O 0.41115 0.95186 0.08309 0.0
O3787 O 0.40147 0.95725 0.07897 0.0
H3788 H 0.40658 0.97392 0.08888 0.0
H3789 H 0.41212 0.98586 0.09023 0.0
H3790 H 0.4142 0.98223 0.11315 0.0
H3791 H 0.40876 0.97032 0.11174 0.0
H3792 H 0.38928 0.93773 0.11802 0.0
H3793 H 0.39613 0.94368 0.10838 0.0
H3794 H 0.37542 0.92799 0.10204 0.0
H3795 H 0.38237 0.9338 0.09248 0.0
H3796 H 0.41251 0.93392 0.06368 0.0
H3797 H 0.40835 0.95393 0.05251 0.0
H3798 H 0.40649 0.95997 0.06406 0.0
H3799 H 0.41072 0.94005 0.07526 0.0
C3800 C 0.11864 0.05272 0.59911 0.0
C3801 C 0.1111 0.0519 0.59932 0.0
C3802 C 0.11233 0.03887 0.60093 0.0
C3803 C 0.10799 0.04506 0.60022 0.0
C3804 C 0.11987 0.03971 0.60061 0.0
C3805 C 0.12297 0.04654 0.59974 0.0
U3806 U 0.12363 0.07082 0.58978 0.0
O3807 O 0.12421 0.08176 0.59434 0.0
O3808 O 0.13397 0.07671 0.58997 0.0
C3809 C 0.13123 0.08224 0.59346 0.0
C3810 C 0.12211 0.05996 0.5988 0.0
C3811 C 0.13551 0.08509 0.5996 0.0
C3812 C 0.13677 0.08854 0.61225 0.0
C3813 C 0.13281 0.08525 0.6067 0.0
C3814 C 0.14625 0.09143 0.60376 0.0
C3815 C 0.14352 0.09174 0.61084 0.0
C3816 C 0.14228 0.08817 0.59822 0.0
C3817 C 0.11675 0.07396 0.57012 0.0
C3818 C 0.11693 0.08503 0.56303 0.0
C3819 C 0.11348 0.07377 0.55741 0.0
C3820 C 0.11451 0.07019 0.56397 0.0
C3821 C 0.11467 0.08124 0.55683 0.0
C3822 C 0.11797 0.08142 0.56962 0.0
C3823 C 0.11757 0.06994 0.57695 0.0
O3824 O 0.12764 0.06064 0.59442 0.0
O3825 O 0.11785 0.06563 0.59877 0.0
O3826 O 0.11429 0.07258 0.58266 0.0
O3827 O 0.12404 0.06743 0.57838 0.0
H3828 H 0.10758 0.05653 0.59888 0.0
H3829 H 0.10217 0.04462 0.60036 0.0
H3830 H 0.12339 0.0351 0.60123 0.0
H3831 H 0.12879 0.047 0.5997 0.0
H3832 H 0.13454 0.08859 0.61764 0.0
H3833 H 0.12761 0.08291 0.60794 0.0
H3834 H 0.15136 0.09391 0.60243 0.0
H3835 H 0.14446 0.08818 0.59279 0.0
H3836 H 0.11796 0.09077 0.56278 0.0
H3837 H 0.11162 0.07068 0.55282 0.0
H3838 H 0.1135 0.06444 0.56424 0.0
H3839 H 0.11971 0.08444 0.57431 0.0
H3840 H 0.1641 0.24065 0.35275 0.0
H3841 H 0.16228 0.25276 0.34788 0.0
H3842 H 0.18057 0.26043 0.35997 0.0
H3843 H 0.1824 0.24833 0.36492 0.0
H3844 H 0.15944 0.26546 0.35534 0.0
H3845 H 0.18486 0.26795 0.33971 0.0
H3846 H 0.18162 0.25942 0.3431 0.0
H3847 H 0.18607 0.26565 0.34904 0.0
C3848 C 0.16774 0.2449 0.3544 0.0
C3849 C 0.1734 0.24347 0.35924 0.0
C3850 C 0.1667 0.25183 0.35158 0.0
C3851 C 0.17133 0.25751 0.35348 0.0
C3852 C 0.17701 0.25611 0.35829 0.0
H3853 H 0.17266 0.30321 0.34198 0.0
H3854 H 0.1748 0.29129 0.34724 0.0
C3855 C 0.17806 0.24918 0.36112 0.0
C3856 C 0.17003 0.26492 0.35061 0.0
H3857 H 0.1776 0.27842 0.34058 0.0
C3858 C 0.16341 0.26828 0.35209 0.0
C3859 C 0.17521 0.26863 0.3464 0.0
C3860 C 0.18232 0.26522 0.3444 0.0
C3861 C 0.16185 0.27527 0.34956 0.0
C3862 C 0.167 0.27896 0.34529 0.0
C3863 C 0.17365 0.27561 0.34385 0.0
C3864 C 0.16558 0.28625 0.34219 0.0
C3865 C 0.15476 0.27868 0.35163 0.0
C3866 C 0.15971 0.28741 0.33754 0.0
C3867 C 0.15847 0.29423 0.33452 0.0
C3868 C 0.16312 0.30005 0.33601 0.0
C3869 C 0.169 0.29885 0.34065 0.0
C3870 C 0.17022 0.29204 0.34369 0.0
H3871 H 0.15243 0.27613 0.35652 0.0
H3872 H 0.1554 0.28455 0.35265 0.0
H3873 H 0.15087 0.27796 0.34715 0.0
H3874 H 0.15615 0.28301 0.33613 0.0
H3875 H 0.15397 0.29489 0.33086 0.0
H3876 H 0.03536 0.92346 0.59994 0.0
H3877 H 0.02346 0.92144 0.59458 0.0
H3878 H 0.01382 0.92184 0.61574 0.0
H3879 H 0.02564 0.92407 0.62112 0.0
H3880 H 0.01412 0.90996 0.59697 0.0
H3881 H 1.00094 0.9357 0.60459 0.0
H3882 H 1.01058 0.93443 0.60502 0.0
H3883 H 1.00488 0.93095 0.61205 0.0
C3884 C 0.0307 0.92324 0.60345 0.0
C3885 C 0.03149 0.92395 0.61098 0.0
C3886 C 0.0239 0.92203 0.60038 0.0
C3887 C 0.01771 0.92157 0.60474 0.0
C3888 C 0.01848 0.9223 0.61224 0.0
H3889 H 0.97221 0.91237 0.59676 0.0
H3890 H 0.98398 0.91499 0.60214 0.0
C3891 C 0.02527 0.9235 0.61532 0.0
C3892 C 1.01052 0.92003 0.60148 0.0
H3893 H 0.99334 0.92655 0.59982 0.0
C3894 C 1.00959 0.91361 0.59756 0.0
C3895 C 1.00458 0.92477 0.60227 0.0
C3896 C 1.00529 0.93188 0.60615 0.0
C3897 C 1.00289 0.91175 0.59453 0.0
C3898 C 0.99696 0.91649 0.5953 0.0
C3899 C 0.99788 0.92291 0.59923 0.0
C3900 C 0.98978 0.91493 0.59201 0.0
C3901 C 1.00219 0.90462 0.59066 0.0
C3902 C 0.98908 0.91413 0.58451 0.0
C3903 C 0.98235 0.91266 0.58142 0.0
C3904 C 0.97613 0.91199 0.58573 0.0
C3905 C 0.97684 0.91289 0.59325 0.0
C3906 C 0.98359 0.91436 0.59634 0.0
H3907 H 1.00654 0.90081 0.59223 0.0
H3908 H 0.9969 0.90207 0.5918 0.0
H3909 H 1.0026 0.90554 0.58476 0.0
H3910 H 0.99373 0.91472 0.58103 0.0
H3911 H 0.98201 0.91217 0.57561 0.0
H3912 H 0.3692 0.72394 0.84411 0.0
H3913 H 0.36705 0.73585 0.84941 0.0
H3914 H 0.35048 0.7399 0.83364 0.0
H3915 H 0.35262 0.72807 0.82828 0.0
H3916 H 0.36812 0.74944 0.84314 0.0
H3917 H 0.34013 0.74458 0.85247 0.0
H3918 H 0.34606 0.73736 0.84975 0.0
H3919 H 0.34151 0.74272 0.84307 0.0
C3920 C 0.36511 0.72737 0.84175 0.0
C3921 C 0.36105 0.72498 0.83579 0.0
C3922 C 0.36387 0.73417 0.84481 0.0
C3923 C 0.35851 0.73874 0.84202 0.0
C3924 C 0.35451 0.73642 0.83602 0.0
H3925 H 0.34359 0.78236 0.85174 0.0
H3926 H 0.34547 0.77029 0.84669 0.0
C3927 C 0.35575 0.72962 0.83296 0.0
C3928 C 0.35723 0.74601 0.84523 0.0
H3929 H 0.34433 0.75666 0.85303 0.0
C3930 C 0.36293 0.751 0.84534 0.0
C3931 C 0.35045 0.74808 0.84808 0.0
C3932 C 0.3442 0.74289 0.84841 0.0
C3933 C 0.362 0.75802 0.84809 0.0
C3934 C 0.35522 0.76009 0.85095 0.0
C3935 C 0.34952 0.7551 0.85083 0.0
C3936 C 0.35396 0.76738 0.85413 0.0
C3937 C 0.36825 0.76321 0.84775 0.0
C3938 C 0.35798 0.76972 0.8601 0.0
C3939 C 0.3569 0.7766 0.86301 0.0
C3940 C 0.35173 0.78132 0.86006 0.0
C3941 C 0.34758 0.77888 0.85419 0.0
C3942 C 0.34868 0.77199 0.85127 0.0
H3943 H 0.37233 0.76151 0.8437 0.0
H3944 H 0.36639 0.76874 0.84639 0.0
H3945 H 0.37093 0.76341 0.85309 0.0
H3946 H 0.36195 0.76621 0.86253 0.0
H3947 H 0.36009 0.7782 0.86764 0.0
H3948 H 0.55313 0.10452 0.09431 0.0
H3949 H 0.54116 0.10195 0.09927 0.0
H3950 H 0.53176 0.11729 0.08458 0.0
H3951 H 0.54366 0.11975 0.07946 0.0
H3952 H 0.53108 0.11123 0.10585 0.0
H3953 H 0.5198 0.09905 0.08096 0.0
H3954 H 0.52934 0.10049 0.08222 0.0
H3955 H 0.52359 0.10787 0.07969 0.0
C3956 C 0.54851 0.10731 0.09209 0.0
C3957 C 0.54939 0.11233 0.08645 0.0
C3958 C 0.54167 0.10586 0.09497 0.0
C3959 C 0.53553 0.10933 0.09223 0.0
C3960 C 0.53639 0.11444 0.0867 0.0
H3961 H 0.48959 0.10881 0.10119 0.0
H3962 H 0.50174 0.11085 0.09651 0.0
C3963 C 0.54323 0.11591 0.08384 0.0
C3964 C 0.52823 0.10766 0.09518 0.0
H3965 H 0.51154 0.10138 0.09047 0.0
C3966 C 0.52682 0.10903 0.1025 0.0
C3967 C 0.52266 0.10479 0.09082 0.0
C3968 C 0.52392 0.10289 0.083 0.0
C3969 C 0.51996 0.1078 0.10552 0.0
C3970 C 0.51437 0.10497 0.10114 0.0
C3971 C 0.51581 0.10355 0.09383 0.0
C3972 C 0.50697 0.1036 0.10399 0.0
C3973 C 0.5187 0.10974 0.11332 0.0
C3974 C 0.5058 0.09873 0.10968 0.0
C3975 C 0.49883 0.09758 0.11241 0.0
C3976 C 0.49286 0.10125 0.10949 0.0
C3977 C 0.49405 0.10598 0.10367 0.0
C3978 C 0.501 0.10712 0.10095 0.0
H3979 H 0.52287 0.11352 0.11538 0.0
H3980 H 0.51331 0.11225 0.11407 0.0
H3981 H 0.51891 0.10477 0.11665 0.0
H3982 H 0.51028 0.09582 0.11204 0.0
H3983 H 0.49816 0.09393 0.11692 0.0
H3984 H 0.16495 0.78514 0.17433 0.0
H3985 H 0.16288 0.77306 0.17916 0.0
H3986 H 0.17952 0.76462 0.16528 0.0
H3987 H 0.18158 0.77669 0.16036 0.0
H3988 H 0.15863 0.76071 0.17178 0.0
H3989 H 0.18516 0.75638 0.18491 0.0
H3990 H 0.18216 0.76517 0.18199 0.0
H3991 H 0.18564 0.75882 0.17555 0.0
C3992 C 0.16817 0.78072 0.17227 0.0
C3993 C 0.17344 0.78193 0.16693 0.0
C3994 C 0.167 0.77381 0.17507 0.0
C3995 C 0.17109 0.76792 0.17265 0.0
C3996 C 0.17639 0.76909 0.16735 0.0
H3997 H 0.17032 0.722 0.18386 0.0
H3998 H 0.17275 0.7337 0.17824 0.0
C3999 C 0.17757 0.77602 0.16454 0.0
C4000 C 0.16962 0.76053 0.1755 0.0
H4001 H 0.17718 0.74642 0.18466 0.0
C4002 C 0.16269 0.7576 0.17461 0.0
C4003 C 0.17491 0.75643 0.17916 0.0
C4004 C 0.18237 0.75936 0.18053 0.0
C4005 C 0.16093 0.75069 0.17721 0.0
C4006 C 0.16619 0.74663 0.18096 0.0
C4007 C 0.17315 0.74952 0.18179 0.0
C4008 C 0.16454 0.73945 0.18422 0.0
C4009 C 0.15347 0.74776 0.17581 0.0
C4010 C 0.15914 0.73875 0.18948 0.0
C4011 C 0.1577 0.73206 0.19267 0.0
C4012 C 0.16166 0.72588 0.19072 0.0
C4013 C 0.16708 0.7266 0.18543 0.0
C4014 C 0.16852 0.73331 0.18225 0.0
H4015 H 0.15087 0.7505 0.17116 0.0
H4016 H 0.15363 0.74188 0.17472 0.0
H4017 H 0.15005 0.74869 0.18063 0.0
H4018 H 0.15608 0.74341 0.19121 0.0
H4019 H 0.15345 0.73172 0.19668 0.0
H4020 H 0.49815 0.91712 0.4064 0.0
H4021 H 0.50997 0.91515 0.41187 0.0
H4022 H 0.50349 0.92751 0.43046 0.0
H4023 H 0.49155 0.92931 0.42514 0.0
H4024 H 0.52048 0.92481 0.41623 0.0
H4025 H 0.5107 0.90887 0.43959 0.0
H4026 H 0.50509 0.91081 0.43188 0.0
H4027 H 0.50652 0.91756 0.43869 0.0
C4028 C 0.49919 0.91936 0.41169 0.0
C4029 C 0.49382 0.92332 0.41535 0.0
C4030 C 0.50599 0.91827 0.41479 0.0
C4031 C 0.50761 0.92106 0.42164 0.0
C4032 C 0.50234 0.92517 0.42524 0.0
H4033 H 0.54522 0.91911 0.44965 0.0
H4034 H 0.53358 0.92157 0.44402 0.0
C4035 C 0.49553 0.92627 0.42214 0.0
C4036 C 0.51481 0.9197 0.42497 0.0
H4037 H 0.52305 0.91208 0.4396 0.0
C4038 C 0.52104 0.92201 0.42133 0.0
C4039 C 0.51556 0.91603 0.43163 0.0
C4040 C 0.50912 0.91311 0.43566 0.0
C4041 C 0.52797 0.92088 0.42421 0.0
C4042 C 0.52873 0.9172 0.43086 0.0
C4043 C 0.52249 0.9149 0.43451 0.0
C4044 C 0.53592 0.91574 0.43419 0.0
C4045 C 0.53442 0.92378 0.42018 0.0
C4046 C 0.54113 0.91158 0.43058 0.0
C4047 C 0.54781 0.91012 0.43381 0.0
C4048 C 0.54942 0.91274 0.44076 0.0
C4049 C 0.54417 0.9169 0.44435 0.0
C4050 C 0.5375 0.91835 0.44112 0.0
H4051 H 0.53286 0.92806 0.41629 0.0
H4052 H 0.53848 0.92601 0.42395 0.0
H4053 H 0.53697 0.91933 0.41709 0.0
H4054 H 0.53999 0.90936 0.4253 0.0
H4055 H 0.55166 0.90681 0.43092 0.0
H4056 H 0.37261 0.29627 0.69082 0.0
H4057 H 0.3705 0.28442 0.6854 0.0
H4058 H 0.34831 0.29009 0.68154 0.0
H4059 H 0.35042 0.30202 0.68671 0.0
H4060 H 0.36111 0.27385 0.68988 0.0
H4061 H 0.35428 0.28222 0.66201 0.0
H4062 H 0.35842 0.28826 0.66841 0.0
H4063 H 0.34889 0.28655 0.66879 0.0
C4064 C 0.36731 0.29506 0.68869 0.0
C4065 C 0.3617 0.30015 0.6892 0.0
C4066 C 0.3661 0.28825 0.68564 0.0
C4067 C 0.35927 0.28637 0.68296 0.0
C4068 C 0.35366 0.29144 0.68343 0.0
H4069 H 0.34023 0.24713 0.66523 0.0
H4070 H 0.34251 0.25923 0.67002 0.0
C4071 C 0.35487 0.29825 0.68648 0.0
C4072 C 0.35793 0.27901 0.67998 0.0
H4073 H 0.35203 0.26995 0.66502 0.0
C4074 C 0.35917 0.273 0.68443 0.0
C4075 C 0.35536 0.27788 0.67288 0.0
C4076 C 0.35422 0.28406 0.66771 0.0
C4077 C 0.3578 0.26593 0.68202 0.0
C4078 C 0.35523 0.26481 0.67492 0.0
C4079 C 0.35398 0.27081 0.67047 0.0
C4080 C 0.35386 0.25744 0.67198 0.0
C4081 C 0.35897 0.25974 0.68716 0.0
C4082 C 0.35949 0.25241 0.67139 0.0
C4083 C 0.35822 0.2455 0.66862 0.0
C4084 C 0.35128 0.24344 0.66633 0.0
C4085 C 0.34566 0.24852 0.66687 0.0
C4086 C 0.34695 0.25544 0.66964 0.0
H4087 H 0.35909 0.26158 0.69286 0.0
H4088 H 0.35467 0.25562 0.68657 0.0
H4089 H 0.36422 0.25715 0.68595 0.0
H4090 H 0.36491 0.25387 0.673 0.0
H4091 H 0.36272 0.24182 0.66815 0.0
H4092 H 0.97518 0.1001 0.94027 0.0
H4093 H 0.98709 0.0982 0.93497 0.0
H4094 H 0.98951 0.12113 0.93206 0.0
H4095 H 0.97771 0.12311 0.93762 0.0
H4096 H 0.99263 0.10148 0.92169 0.0
H4097 H 1.00783 0.11613 0.94287 0.0
H4098 H 0.99847 0.11369 0.94392 0.0
H4099 H 1.00094 0.12144 0.93864 0.0
C4100 C 0.97826 0.10476 0.93858 0.0
C4101 C 0.97548 0.11178 0.93947 0.0
C4102 C 0.98507 0.10365 0.93549 0.0
C4103 C 0.98929 0.10952 0.93323 0.0
C4104 C 0.98645 0.11651 0.9339 0.0
H4105 H 0.03197 0.11352 0.91401 0.0
H4106 H 0.01987 0.11549 0.91884 0.0
C4107 C 0.97963 0.11763 0.937 0.0
C4108 C 0.99665 0.10829 0.93019 0.0
H4109 H 0.01448 0.11235 0.93261 0.0
C4110 C 0.99741 0.10384 0.92409 0.0
C4111 C 1.00291 0.11134 0.93333 0.0
C4112 C 1.00253 0.11586 0.94009 0.0
C4113 C 1.0042 0.10247 0.92099 0.0
C4114 C 1.01045 0.10555 0.92412 0.0
C4115 C 1.00969 0.11 0.9302 0.0
C4116 C 0.01782 0.10425 0.92114 0.0
C4117 C 1.00462 0.09787 0.91429 0.0
C4118 C 0.02076 0.09728 0.9209 0.0
C4119 C 0.02774 0.09613 0.91818 0.0
C4120 C 0.03195 0.10194 0.91569 0.0
C4121 C 0.02897 0.10892 0.91598 0.0
C4122 C 0.02201 0.11006 0.9187 0.0
H4123 H 0.99931 0.09744 0.91156 0.0
H4124 H 1.00861 0.10008 0.91041 0.0
H4125 H 1.00637 0.09235 0.91581 0.0
H4126 H 0.01771 0.09272 0.92289 0.0
H4127 H 0.02987 0.09069 0.91817 0.0
H4128 H 0.3509 0.16688 0.24043 0.0
H4129 H 0.34586 0.16445 0.25239 0.0
H4130 H 0.36133 0.17895 0.2619 0.0
H4131 H 0.36629 0.18154 0.24994 0.0
H4132 H 0.35295 0.15867 0.26448 0.0
H4133 H 0.34217 0.18595 0.27048 0.0
H4134 H 0.34474 0.18319 0.2615 0.0
H4135 H 0.35151 0.18574 0.26793 0.0
C4136 C 0.35316 0.16965 0.24504 0.0
C4137 C 0.35899 0.17445 0.24419 0.0
C4138 C 0.35031 0.16821 0.2519 0.0
C4139 C 0.35315 0.17157 0.25805 0.0
C4140 C 0.35896 0.17637 0.25723 0.0
H4141 H 0.34213 0.16933 0.30394 0.0
H4142 H 0.34788 0.17184 0.29231 0.0
C4143 C 0.36184 0.17779 0.25038 0.0
C4144 C 0.35017 0.1699 0.26534 0.0
H4145 H 0.34178 0.17741 0.27996 0.0
C4146 C 0.35049 0.16276 0.26786 0.0
C4147 C 0.34699 0.17525 0.26978 0.0
C4148 C 0.34626 0.18295 0.26728 0.0
C4149 C 0.34779 0.16085 0.2747 0.0
C4150 C 0.34454 0.16618 0.2791 0.0
C4151 C 0.34427 0.17332 0.27661 0.0
C4152 C 0.34123 0.16442 0.28624 0.0
C4153 C 0.34859 0.15315 0.27719 0.0
C4154 C 0.33555 0.15943 0.28673 0.0
C4155 C 0.33229 0.15794 0.29339 0.0
C4156 C 0.33458 0.16145 0.29973 0.0
C4157 C 0.34029 0.16644 0.29922 0.0
C4158 C 0.34355 0.16792 0.29255 0.0
H4159 H 0.35299 0.15033 0.27425 0.0
H4160 H 0.34972 0.15288 0.28307 0.0
H4161 H 0.3435 0.1502 0.27613 0.0
H4162 H 0.33356 0.15675 0.28194 0.0
H4163 H 0.32797 0.15403 0.29356 0.0
H4164 H 0.10524 0.10002 0.49051 0.0
H4165 H 0.10762 0.09494 0.50246 0.0
H4166 H 0.09926 0.1142 0.51241 0.0
H4167 H 0.0967 0.11926 0.50049 0.0
H4168 H 0.11662 0.1006 0.51329 0.0
H4169 H 0.08843 0.09814 0.52309 0.0
H4170 H 0.09061 0.09947 0.51369 0.0
H4171 H 0.09086 0.10694 0.51986 0.0
C4172 C 0.10379 0.10314 0.49524 0.0
C4173 C 0.10074 0.11006 0.49451 0.0
C4174 C 0.10521 0.10024 0.50207 0.0
C4175 C 0.10355 0.10414 0.50835 0.0
C4176 C 0.10048 0.11103 0.50766 0.0
H4177 H 0.10856 0.09456 0.55439 0.0
H4178 H 0.10621 0.10041 0.54277 0.0
C4179 C 0.09909 0.11395 0.50083 0.0
C4180 C 0.10526 0.1011 0.5156 0.0
H4181 H 0.09768 0.09574 0.53156 0.0
C4182 C 0.11247 0.09952 0.51727 0.0
C4183 C 0.09986 0.09973 0.52084 0.0
C4184 C 0.092 0.10109 0.51929 0.0
C4185 C 0.11444 0.09668 0.52403 0.0
C4186 C 0.10904 0.09521 0.52923 0.0
C4187 C 0.10183 0.09686 0.52759 0.0
C4188 C 0.11072 0.09179 0.53632 0.0
C4189 C 0.12232 0.0954 0.52557 0.0
C4190 C 0.11401 0.08498 0.5366 0.0
C4191 C 0.11541 0.08165 0.54323 0.0
C4192 C 0.11349 0.085 0.54978 0.0
C4193 C 0.11021 0.09184 0.54949 0.0
C4194 C 0.10881 0.09518 0.54283 0.0
H4195 H 0.12583 0.09876 0.52206 0.0
H4196 H 0.12363 0.0966 0.53129 0.0
H4197 H 0.12363 0.08966 0.5245 0.0
H4198 H 0.11542 0.08217 0.53168 0.0
H4199 H 0.11801 0.07642 0.54322 0.0
H4200 H 0.17567 0.85041 0.74052 0.0
H4201 H 0.181 0.85238 0.75244 0.0
H4202 H 0.15979 0.85487 0.7616 0.0
H4203 H 0.1544 0.85269 0.74977 0.0
H4204 H 0.17985 0.86446 0.76115 0.0
H4205 H 0.16898 0.84054 0.77542 0.0
H4206 H 0.16884 0.84135 0.76572 0.0
H4207 H 0.16221 0.84593 0.77111 0.0
C4208 C 0.17212 0.85125 0.74509 0.0
C4209 C 0.16459 0.85137 0.74415 0.0
C4210 C 0.17519 0.85242 0.7519 0.0
C4211 C 0.17081 0.85369 0.75796 0.0
C4212 C 0.16329 0.85378 0.75706 0.0
H4213 H 0.17915 0.86438 0.80313 0.0
H4214 H 0.17365 0.86174 0.7914 0.0
C4215 C 0.16022 0.85262 0.75025 0.0
C4216 C 0.1741 0.8552 0.76515 0.0
H4217 H 0.17467 0.84944 0.78267 0.0
C4218 C 0.17875 0.86114 0.76584 0.0
C4219 C 0.17265 0.85091 0.7713 0.0
C4220 C 0.16795 0.84428 0.77086 0.0
C4221 C 0.18187 0.86298 0.77251 0.0
C4222 C 0.18043 0.85868 0.77866 0.0
C4223 C 0.17577 0.85275 0.77798 0.0
C4224 C 0.18378 0.86021 0.78582 0.0
C4225 C 0.18656 0.86961 0.77294 0.0
C4226 C 0.1913 0.86011 0.78664 0.0
C4227 C 0.19446 0.86159 0.79333 0.0
C4228 C 0.19018 0.86317 0.79941 0.0
C4229 C 0.18263 0.86315 0.7986 0.0
C4230 C 0.17947 0.86166 0.79189 0.0
H4231 H 0.18554 0.87335 0.76837 0.0
H4232 H 0.18565 0.87256 0.77807 0.0
H4233 H 0.19231 0.86797 0.77272 0.0
H4234 H 0.19475 0.85882 0.7821 0.0
H4235 H 0.20028 0.86137 0.79376 0.0
H4236 H 0.41447 0.92356 0.99075 0.0
H4237 H 0.41256 0.92826 1.00292 0.0
H4238 H 0.43011 0.91523 1.01075 0.0
H4239 H 0.43202 0.91043 0.99859 0.0
H4240 H 0.40908 0.92053 0.01536 0.0
H4241 H 0.43496 0.93517 0.01891 0.0
H4242 H 0.43182 0.93215 1.0102 0.0
H4243 H 0.43584 0.92586 0.01636 0.0
C4244 C 0.41793 0.92167 0.99505 0.0
C4245 C 0.4234 0.91659 0.99365 0.0
C4246 C 0.41684 0.92439 1.00201 0.0
C4247 C 0.42123 0.92216 1.00776 0.0
C4248 C 0.42674 0.91715 1.00639 0.0
H4249 H 0.42109 0.93351 0.0537 0.0
H4250 H 0.42354 0.92797 0.04195 0.0
C4251 C 0.42783 0.91441 0.99942 0.0
C4252 C 0.41983 0.92491 0.0152 0.0
H4253 H 0.42726 0.93454 0.02907 0.0
C4254 C 0.41306 0.9236 0.01835 0.0
C4255 C 0.42502 0.92888 0.01914 0.0
C4256 C 0.4323 0.93067 0.01598 0.0
C4257 C 0.41135 0.92613 0.0253 0.0
C4258 C 0.41649 0.9302 0.0292 0.0
C4259 C 0.4233 0.93142 0.0261 0.0
C4260 C 0.41485 0.93341 0.03641 0.0
C4261 C 0.40408 0.92429 0.02846 0.0
C4262 C 0.40917 0.93835 0.03723 0.0
C4263 C 0.40772 0.94149 0.04395 0.0
C4264 C 0.41195 0.93982 0.05003 0.0
C4265 C 0.41764 0.93485 0.04919 0.0
C4266 C 0.41909 0.93172 0.04245 0.0
H4267 H 0.40169 0.91947 0.02582 0.0
H4268 H 0.40447 0.92325 0.03435 0.0
H4269 H 0.40035 0.92888 0.02761 0.0
H4270 H 0.4059 0.93985 0.03264 0.0
H4271 H 0.40326 0.94523 0.04438 0.0
H4272 H 0.33782 0.85031 0.22429 0.0
H4273 H 0.34299 0.84826 0.23625 0.0
H4274 H 0.33996 0.8707 0.24147 0.0
H4275 H 0.33457 0.87275 0.22961 0.0
H4276 H 0.35491 0.85422 0.24295 0.0
H4277 H 0.33011 0.8607 0.25837 0.0
H4278 H 0.33006 0.85921 0.24875 0.0
H4279 H 0.33295 0.86773 0.25235 0.0
C4280 C 0.33819 0.85481 0.22799 0.0
C4281 C 0.3357 0.86169 0.22597 0.0
C4282 C 0.34119 0.85363 0.23483 0.0
C4283 C 0.34175 0.85928 0.23983 0.0
C4284 C 0.33946 0.8662 0.23777 0.0
H4285 H 0.3577 0.86354 0.28369 0.0
H4286 H 0.35267 0.86528 0.27164 0.0
C4287 C 0.33646 0.86739 0.23093 0.0
C4288 C 0.34477 0.85794 0.24718 0.0
H4289 H 0.34081 0.85906 0.26518 0.0
C4290 C 0.35182 0.85524 0.24781 0.0
C4291 C 0.34073 0.85926 0.25354 0.0
C4292 C 0.33302 0.86182 0.25325 0.0
C4293 C 0.35499 0.854 0.25459 0.0
C4294 C 0.35097 0.85535 0.26095 0.0
C4295 C 0.34391 0.85802 0.26032 0.0
C4296 C 0.35403 0.85419 0.26831 0.0
C4297 C 0.3627 0.85142 0.25489 0.0
C4298 C 0.35638 0.84734 0.27054 0.0
C4299 C 0.35932 0.84632 0.27744 0.0
C4300 C 0.35995 0.85214 0.28229 0.0
C4301 C 0.35744 0.85896 0.28008 0.0
C4302 C 0.3545 0.85996 0.27319 0.0
H4303 H 0.36559 0.85243 0.24973 0.0
H4304 H 0.36569 0.85412 0.25932 0.0
H4305 H 0.36277 0.84553 0.25591 0.0
H4306 H 0.35593 0.84276 0.26694 0.0
H4307 H 0.36121 0.84101 0.27892 0.0
H4308 H 0.4257 0.11964 0.52566 0.0
H4309 H 0.42317 0.11433 0.51385 0.0
H4310 H 0.42078 0.09343 0.52372 0.0
H4311 H 0.42307 0.09874 0.53559 0.0
H4312 H 0.43018 0.10352 0.50621 0.0
H4313 H 0.40207 0.09538 0.51237 0.0
H4314 H 0.40709 0.10148 0.51804 0.0
H4315 H 0.40861 0.09193 0.5186 0.0
C4316 C 0.42457 0.11392 0.52534 0.0
C4317 C 0.42453 0.10965 0.53162 0.0
C4318 C 0.42318 0.11088 0.51856 0.0
C4319 C 0.42165 0.1035 0.51789 0.0
C4320 C 0.42179 0.09917 0.52411 0.0
H4321 H 0.41132 0.07499 0.48207 0.0
H4322 H 0.41405 0.0804 0.49378 0.0
C4323 C 0.4232 0.10221 0.53089 0.0
C4324 C 0.41995 0.10034 0.51068 0.0
H4325 H 0.40694 0.09125 0.50128 0.0
C4326 C 0.42509 0.10086 0.50512 0.0
C4327 C 0.4133 0.09688 0.50924 0.0
C4328 C 0.40742 0.09643 0.51485 0.0
C4329 C 0.42382 0.0979 0.49824 0.0
C4330 C 0.41718 0.09442 0.49681 0.0
C4331 C 0.41204 0.09391 0.50236 0.0
C4332 C 0.41547 0.0912 0.48963 0.0
C4333 C 0.42968 0.09837 0.49262 0.0
C4334 C 0.41525 0.09548 0.48338 0.0
C4335 C 0.41364 0.09241 0.47666 0.0
C4336 C 0.41216 0.08498 0.47602 0.0
C4337 C 0.41232 0.08074 0.48233 0.0
C4338 C 0.41392 0.08382 0.48904 0.0
H4339 H 0.43503 0.09949 0.49507 0.0
H4340 H 0.43005 0.09329 0.48947 0.0
H4341 H 0.42843 0.10282 0.48883 0.0
H4342 H 0.41625 0.10122 0.48371 0.0
H4343 H 0.41346 0.09587 0.47196 0.0
H4344 H 0.18015 0.15773 0.7237 0.0
H4345 H 0.17453 0.16048 0.73535 0.0
H4346 H 0.19436 0.17011 0.74267 0.0
H4347 H 0.19992 0.16763 0.731 0.0
H4348 H 0.17835 0.1559 0.74895 0.0
H4349 H 0.17986 0.18571 0.74762 0.0
H4350 H 0.18131 0.18005 0.73982 0.0
H4351 H 0.1884 0.18136 0.7463 0.0
C4352 C 0.18329 0.16053 0.72775 0.0
C4353 C 0.1905 0.16246 0.72636 0.0
C4354 C 0.18008 0.16205 0.73443 0.0
C4355 C 0.18397 0.16561 0.73988 0.0
C4356 C 0.19118 0.1675 0.73853 0.0
H4357 H 0.17549 0.17763 0.78461 0.0
H4358 H 0.18074 0.1756 0.77265 0.0
C4359 C 0.19439 0.16598 0.73186 0.0
C4360 C 0.18059 0.16712 0.74703 0.0
H4361 H 0.17664 0.18064 0.75896 0.0
C4362 C 0.17793 0.16132 0.75111 0.0
C4363 C 0.18006 0.17419 0.74989 0.0
C4364 C 0.18249 0.18069 0.74566 0.0
C4365 C 0.17491 0.16236 0.758 0.0
C4366 C 0.1744 0.16943 0.76087 0.0
C4367 C 0.17704 0.17523 0.75679 0.0
C4368 C 0.17111 0.17089 0.76808 0.0
C4369 C 0.17245 0.15586 0.76223 0.0
C4370 C 0.16389 0.16909 0.76946 0.0
C4371 C 0.16086 0.17027 0.77629 0.0
C4372 C 0.16496 0.17333 0.7819 0.0
C4373 C 0.17214 0.17532 0.78043 0.0
C4374 C 0.17517 0.17412 0.77359 0.0
H4375 H 0.17492 0.15081 0.76016 0.0
H4376 H 0.17381 0.15643 0.76804 0.0
H4377 H 0.16651 0.15533 0.76176 0.0
H4378 H 0.16058 0.16676 0.76526 0.0
H4379 H 0.15527 0.16882 0.77715 0.0
H4380 H 0.10279 0.94656 0.97899 0.0
H4381 H 0.10068 0.94121 0.99085 0.0
H4382 H 0.11776 0.92593 0.98704 0.0
H4383 H 0.11987 0.93119 0.97512 0.0
H4384 H 0.09691 0.92716 0.99468 0.0
H4385 H 0.12334 0.93462 1.00652 0.0
H4386 H 0.12006 0.9385 0.99822 0.0
H4387 H 0.12396 0.92962 0.99824 0.0
C4388 C 0.10607 0.94202 0.98063 0.0
C4389 C 0.11152 0.93933 0.97605 0.0
C4390 C 0.10487 0.93899 0.98744 0.0
C4391 C 0.10912 0.93323 0.98991 0.0
C4392 C 0.11451 0.93047 0.98534 0.0
H4393 H 0.1106 0.90794 0.0294 0.0
H4394 H 0.11235 0.91304 0.01737 0.0
C4395 C 0.11571 0.9335 0.97851 0.0
C4396 C 0.10785 0.93009 0.99721 0.0
H4397 H 0.11589 0.92693 0.0135 0.0
C4398 C 0.10105 0.92713 0.9988 0.0
C4399 C 0.11324 0.93005 1.00261 0.0
C4400 C 0.12054 0.93342 1.00136 0.0
C4401 C 0.09956 0.92402 1.00557 0.0
C4402 C 0.10496 0.92398 1.01097 0.0
C4403 C 0.11175 0.92694 1.00937 0.0
C4404 C 0.10373 0.92083 0.01828 0.0
C4405 C 0.09226 0.92065 1.00682 0.0
C4406 C 0.09832 0.92353 0.02286 0.0
C4407 C 0.09732 0.92064 0.02979 0.0
C4408 C 0.10175 0.91502 0.03232 0.0
C4409 C 0.10715 0.91233 0.0277 0.0
C4410 C 0.10814 0.91522 0.02079 0.0
H4411 H 0.08949 0.91941 1.00166 0.0
H4412 H 0.09274 0.9156 1.01 0.0
H4413 H 0.08883 0.92446 1.00989 0.0
H4414 H 0.09494 0.92796 0.02113 0.0
H4415 H 0.09318 0.92292 0.03322 0.0
H4416 H 0.30301 0.34193 0.17123 0.0
H4417 H 0.29121 0.34723 0.17387 0.0
H4418 H 0.28191 0.33539 0.15617 0.0
H4419 H 0.29368 0.33011 0.15345 0.0
H4420 H 0.28189 0.35557 0.1654 0.0
H4421 H 0.26889 0.32975 0.17303 0.0
H4422 H 0.27853 0.3307 0.17216 0.0
H4423 H 0.27301 0.3296 0.16427 0.0
C4424 C 0.29848 0.3405 0.16784 0.0
C4425 C 0.29932 0.33553 0.16216 0.0
C4426 C 0.29171 0.34351 0.16939 0.0
C4427 C 0.28562 0.3416 0.16532 0.0
C4428 C 0.28648 0.33681 0.15951 0.0
H4429 H 0.2402 0.3525 0.16456 0.0
H4430 H 0.2523 0.34767 0.16259 0.0
C4431 C 0.29323 0.33379 0.15797 0.0
C4432 C 0.27838 0.34464 0.16709 0.0
H4433 H 0.26115 0.33986 0.17163 0.0
C4434 C 0.27736 0.35214 0.16682 0.0
C4435 C 0.27247 0.34018 0.16895 0.0
C4436 C 0.27327 0.33212 0.16969 0.0
C4437 C 0.27057 0.35527 0.16813 0.0
C4438 C 0.26463 0.35079 0.1699 0.0
C4439 C 0.26568 0.3433 0.17026 0.0
C4440 C 0.25726 0.35375 0.17123 0.0
C4441 C 0.26975 0.36333 0.16737 0.0
C4442 C 0.25594 0.35869 0.17683 0.0
C4443 C 0.24901 0.3615 0.17795 0.0
C4444 C 0.24321 0.35942 0.17351 0.0
C4445 C 0.24453 0.35434 0.16801 0.0
C4446 C 0.25145 0.35153 0.1669 0.0
H4447 H 0.27426 0.36573 0.16424 0.0
H4448 H 0.26459 0.36472 0.16468 0.0
H4449 H 0.26975 0.36582 0.17281 0.0
H4450 H 0.26029 0.36038 0.18034 0.0
H4451 H 0.24823 0.36542 0.1822 0.0
H4452 H 0.79534 0.19359 0.87166 0.0
H4453 H 0.78346 0.18834 0.86934 0.0
H4454 H 0.79142 0.17897 0.8496 0.0
H4455 H 0.80336 0.18404 0.85197 0.0
H4456 H 0.77445 0.1908 0.8575 0.0
H4457 H 0.7816 0.16181 0.85939 0.0
H4458 H 0.78744 0.16886 0.8627 0.0
H4459 H 0.78706 0.1669 0.85321 0.0
C4460 C 0.79461 0.19031 0.86688 0.0
C4461 C 0.80035 0.18923 0.86202 0.0
C4462 C 0.78779 0.18735 0.86554 0.0
C4463 C 0.78655 0.18318 0.85934 0.0
C4464 C 0.79226 0.18206 0.85448 0.0
H4465 H 0.74833 0.16144 0.84211 0.0
H4466 H 0.76037 0.16658 0.84389 0.0
C4467 C 0.79908 0.18503 0.85581 0.0
C4468 C 0.77921 0.18023 0.85783 0.0
H4469 H 0.76983 0.16456 0.85526 0.0
C4470 C 0.77344 0.18506 0.85704 0.0
C4471 C 0.77789 0.17274 0.85718 0.0
C4472 C 0.7838 0.16726 0.85822 0.0
C4473 C 0.76641 0.18262 0.85554 0.0
C4474 C 0.76506 0.17513 0.85496 0.0
C4475 C 0.77085 0.1703 0.8557 0.0
C4476 C 0.75766 0.17218 0.85376 0.0
C4477 C 0.76052 0.18812 0.85445 0.0
C4478 C 0.75211 0.17358 0.85873 0.0
C4479 C 0.74521 0.17069 0.8577 0.0
C4480 C 0.74368 0.16628 0.85171 0.0
C4481 C 0.74926 0.16489 0.84673 0.0
C4482 C 0.75618 0.16778 0.84777 0.0
H4483 H 0.76275 0.19348 0.85297 0.0
H4484 H 0.7567 0.18638 0.85018 0.0
H4485 H 0.75745 0.18876 0.85956 0.0
H4486 H 0.75314 0.17684 0.86346 0.0
H4487 H 0.74106 0.17194 0.86162 0.0
H4488 H 0.0749 0.54332 0.11252 0.0
H4489 H 0.08039 0.53159 0.11011 0.0
H4490 H 0.10149 0.54127 0.11081 0.0
H4491 H 0.09607 0.55299 0.11351 0.0
H4492 H 0.08886 0.52723 0.09879 0.0
H4493 H 0.10398 0.52436 0.12442 0.0
H4494 H 0.09706 0.53109 0.12318 0.0
H4495 H 0.10597 0.53252 0.11961 0.0
C4496 C 0.08072 0.54296 0.11229 0.0
C4497 C 0.08502 0.54914 0.11329 0.0
C4498 C 0.08385 0.53624 0.11084 0.0
C4499 C 0.09137 0.53549 0.11038 0.0
C4500 C 0.09569 0.54165 0.11128 0.0
H4501 H 0.12028 0.49945 0.10172 0.0
H4502 H 0.11486 0.51127 0.10386 0.0
C4503 C 0.09256 0.54838 0.11275 0.0
C4504 C 0.09465 0.52831 0.10879 0.0
H4505 H 0.10642 0.5157 0.11532 0.0
C4506 C 0.09268 0.5247 0.10243 0.0
C4507 C 0.09964 0.52498 0.11352 0.0
C4508 C 0.10175 0.52839 0.1206 0.0
C4509 C 0.09563 0.51794 0.1006 0.0
C4510 C 0.10062 0.51462 0.10533 0.0
C4511 C 0.10261 0.51824 0.11169 0.0
C4512 C 0.10386 0.50741 0.1038 0.0
C4513 C 0.0935 0.5145 0.09354 0.0
C4514 C 0.0995 0.50125 0.10306 0.0
C4515 C 0.1026 0.49445 0.10185 0.0
C4516 C 0.11014 0.49364 0.10141 0.0
C4517 C 0.11447 0.49983 0.10212 0.0
C4518 C 0.11137 0.50662 0.10332 0.0
H4519 H 0.09124 0.51851 0.08972 0.0
H4520 H 0.09819 0.51181 0.09095 0.0
H4521 H 0.08931 0.51036 0.09457 0.0
H4522 H 0.0937 0.50167 0.10357 0.0
H4523 H 0.09909 0.48981 0.10147 0.0
H4524 H 0.77554 0.87049 0.35361 0.0
H4525 H 0.76372 0.8651 0.35589 0.0
H4526 H 0.77271 0.84392 0.35261 0.0
H4527 H 0.7846 0.84925 0.35056 0.0
H4528 H 0.75506 0.85652 0.34732 0.0
H4529 H 0.76285 0.84174 0.37211 0.0
H4530 H 0.76846 0.84864 0.36817 0.0
H4531 H 0.76838 0.8397 0.36443 0.0
C4532 C 0.77504 0.86467 0.35344 0.0
C4533 C 0.78108 0.86031 0.35196 0.0
C4534 C 0.76825 0.8616 0.3547 0.0
C4535 C 0.76732 0.85409 0.35456 0.0
C4536 C 0.7733 0.84972 0.35291 0.0
H4537 H 0.7313 0.82481 0.36073 0.0
H4538 H 0.74295 0.83053 0.35848 0.0
C4539 C 0.78009 0.85279 0.35164 0.0
C4540 C 0.76011 0.85084 0.35609 0.0
H4541 H 0.75127 0.83917 0.36732 0.0
C4542 C 0.75423 0.85276 0.35172 0.0
C4543 C 0.75899 0.84594 0.36184 0.0
C4544 C 0.76498 0.84392 0.36696 0.0
C4545 C 0.74733 0.84977 0.35282 0.0
C4546 C 0.74623 0.84483 0.35854 0.0
C4547 C 0.7521 0.84295 0.36294 0.0
C4548 C 0.73907 0.84143 0.35997 0.0
C4549 C 0.74133 0.8518 0.34773 0.0
C4550 C 0.73299 0.84562 0.36168 0.0
C4551 C 0.72627 0.84235 0.36294 0.0
C4552 C 0.72549 0.83481 0.36253 0.0
C4553 C 0.73164 0.83063 0.36096 0.0
C4554 C 0.73834 0.8339 0.35972 0.0
H4555 H 0.74343 0.85415 0.34263 0.0
H4556 H 0.73796 0.84703 0.34639 0.0
H4557 H 0.73783 0.85588 0.35034 0.0
H4558 H 0.73343 0.85143 0.36206 0.0
H4559 H 0.72167 0.84575 0.36411 0.0
H4560 H 0.94675 0.98112 0.11971 0.0
H4561 H 0.94157 0.99302 0.11737 0.0
H4562 H 0.92613 0.98347 0.10287 0.0
H4563 H 0.93114 0.97153 0.10534 0.0
H4564 H 0.94056 1.00024 0.10419 0.0
H4565 H 0.91337 0.99587 0.1159 0.0
H4566 H 0.92084 0.98991 0.11768 0.0
H4567 H 0.91601 0.98928 0.10931 0.0
C4568 C 0.94217 0.98152 0.11612 0.0
C4569 C 0.93935 0.97532 0.11275 0.0
C4570 C 0.93925 0.98835 0.11474 0.0
C4571 C 0.9334 0.98916 0.11 0.0
C4572 C 0.93056 0.98299 0.10664 0.0
H4573 H 0.90897 0.02657 0.09487 0.0
H4574 H 0.91396 0.01448 0.09671 0.0
C4575 C 0.93349 0.97616 0.108 0.0
C4576 C 0.93044 0.99647 0.10842 0.0
H4577 H 0.91517 1.00676 0.10946 0.0
C4578 C 0.93502 1.00167 0.10537 0.0
C4579 C 0.92319 0.99834 0.10992 0.0
C4580 C 0.91807 0.99309 0.11344 0.0
C4581 C 0.93254 1.00865 0.10369 0.0
C4582 C 0.9253 1.01054 0.10524 0.0
C4583 C 0.92071 1.00532 0.10825 0.0
C4584 C 0.92244 0.01794 0.10393 0.0
C4585 C 0.93766 0.01387 0.10014 0.0
C4586 C 0.92551 0.02394 0.10738 0.0
C4587 C 0.9227 0.03087 0.1063 0.0
C4588 C 0.91671 0.03198 0.10178 0.0
C4589 C 0.91365 0.02596 0.09831 0.0
C4590 C 0.91646 0.01902 0.0994 0.0
H4591 H 0.9422 1.01104 0.09745 0.0
H4592 H 0.93484 0.01724 0.09607 0.0
H4593 H 0.93996 0.0175 0.1043 0.0
H4594 H 0.93004 0.02326 0.111 0.0
H4595 H 0.92525 0.03537 0.10902 0.0
H4596 H 0.28317 0.67489 0.68041 0.0
H4597 H 0.27112 0.68003 0.67874 0.0
H4598 H 0.26526 0.662 0.6653 0.0
H4599 H 0.27718 0.65672 0.66712 0.0
H4600 H 0.2645 0.6842 0.66598 0.0
H4601 H 0.24842 0.66282 0.67933 0.0
H4602 H 0.25806 0.66355 0.6804 0.0
H4603 H 0.25433 0.65951 0.67241 0.0
C4604 C 0.27929 0.67196 0.67719 0.0
C4605 C 0.28118 0.66537 0.67391 0.0
C4606 C 0.2724 0.67493 0.6762 0.0
C4607 C 0.26723 0.67137 0.67196 0.0
C4608 C 0.26909 0.6648 0.6687 0.0
H4609 H 0.22343 0.68105 0.65765 0.0
H4610 H 0.23535 0.67574 0.6597 0.0
C4611 C 0.27597 0.66183 0.66967 0.0
C4612 C 0.25997 0.67464 0.67074 0.0
H4613 H 0.24188 0.67155 0.67259 0.0
C4614 C 0.25955 0.68145 0.66747 0.0
C4615 C 0.25351 0.67105 0.67265 0.0
C4616 C 0.25357 0.66386 0.67645 0.0
C4617 C 0.25287 0.68471 0.66593 0.0
C4618 C 0.2464 0.68111 0.66783 0.0
C4619 C 0.24682 0.6743 0.67111 0.0
C4620 C 0.23916 0.68438 0.66655 0.0
C4621 C 0.25281 0.69189 0.66212 0.0
C4622 C 0.23728 0.69097 0.66977 0.0
C4623 C 0.23048 0.69403 0.66858 0.0
C4624 C 0.22536 0.69057 0.66417 0.0
C4625 C 0.22725 0.68393 0.661 0.0
C4626 C 0.23405 0.68086 0.6622 0.0
H4627 H 0.25798 0.69294 0.65928 0.0
H4628 H 0.24835 0.69217 0.65813 0.0
H4629 H 0.252 0.69624 0.66614 0.0
H4630 H 0.24106 0.69373 0.67326 0.0
H4631 H 0.22928 0.69918 0.67106 0.0
H4632 H 0.0786 0.48181 0.40421 0.0
H4633 H 0.08416 0.49346 0.40686 0.0
H4634 H 0.09774 0.48342 0.4228 0.0
H4635 H 0.09217 0.47174 0.42023 0.0
H4636 H 0.08433 0.50086 0.41993 0.0
H4637 H 0.11225 0.49496 0.41087 0.0
H4638 H 0.10468 0.48931 0.4085 0.0
H4639 H 0.10867 0.48866 0.4173 0.0
C4640 C 0.08277 0.48206 0.40829 0.0
C4641 C 0.08492 0.4758 0.412 0.0
C4642 C 0.08596 0.48874 0.40978 0.0
C4643 C 0.09144 0.48933 0.41497 0.0
C4644 C 0.09364 0.48309 0.41866 0.0
H4645 H 0.11613 0.52592 0.43164 0.0
H4646 H 0.11096 0.51399 0.42933 0.0
C4647 C 0.09045 0.4764 0.41717 0.0
C4648 C 0.09461 0.49652 0.41671 0.0
H4649 H 0.11037 0.50609 0.41685 0.0
C4650 C 0.09002 0.502 0.41923 0.0
C4651 C 0.10204 0.49803 0.41584 0.0
C4652 C 0.1072 0.49246 0.41292 0.0
C4653 C 0.09267 0.5089 0.42098 0.0
C4654 C 0.10009 0.51043 0.42004 0.0
C4655 C 0.10469 0.50493 0.41757 0.0
C4656 C 0.10318 0.51773 0.4215 0.0
C4657 C 0.0875 0.51442 0.42398 0.0
C4658 C 0.1006 0.52383 0.41781 0.0
C4659 C 0.10355 0.53066 0.41913 0.0
C4660 C 0.1092 0.53157 0.4241 0.0
C4661 C 0.11182 0.52543 0.42774 0.0
C4662 C 0.10885 0.5186 0.42644 0.0
H4663 H 0.08263 0.51184 0.42634 0.0
H4664 H 0.09011 0.51778 0.42818 0.0
H4665 H 0.08569 0.51801 0.41955 0.0
H4666 H 0.09637 0.52329 0.41383 0.0
H4667 H 0.10149 0.53521 0.41611 0.0
H4668 H 0.40996 0.49533 0.91323 0.0
H4669 H 0.4152 0.50723 0.91114 0.0
H4670 H 0.42574 0.50627 0.93182 0.0
H4671 H 0.42044 0.49439 0.93401 0.0
H4672 H 0.41379 0.51999 0.91918 0.0
H4673 H 0.44234 0.51113 0.91804 0.0
H4674 H 0.4349 0.50489 0.91744 0.0
H4675 H 0.43761 0.50842 0.92605 0.0
C4676 C 0.41334 0.49765 0.91738 0.0
C4677 C 0.41476 0.49385 0.9238 0.0
C4678 C 0.41636 0.50446 0.91615 0.0
C4679 C 0.42095 0.50763 0.92127 0.0
C4680 C 0.42235 0.50389 0.92771 0.0
H4681 H 0.44497 0.5478 0.92378 0.0
H4682 H 0.43926 0.53614 0.92594 0.0
C4683 C 0.41931 0.49708 0.92895 0.0
C4684 C 0.42417 0.51487 0.9199 0.0
H4685 H 0.44024 0.52373 0.91803 0.0
C4686 C 0.41957 0.52081 0.9189 0.0
C4687 C 0.43172 0.51595 0.91953 0.0
C4688 C 0.43695 0.50976 0.92025 0.0
C4689 C 0.42231 0.52779 0.91769 0.0
C4690 C 0.42986 0.52887 0.91733 0.0
C4691 C 0.43445 0.52293 0.91831 0.0
C4692 C 0.43313 0.53611 0.91602 0.0
C4693 C 0.41708 0.53398 0.91702 0.0
C4694 C 0.43163 0.54003 0.9097 0.0
C4695 C 0.43491 0.54673 0.90843 0.0
C4696 C 0.43984 0.54964 0.91342 0.0
C4697 C 0.4413 0.5457 0.91976 0.0
C4698 C 0.43801 0.53903 0.92102 0.0
H4699 H 0.41173 0.53263 0.91935 0.0
H4700 H 0.41917 0.53888 0.91975 0.0
H4701 H 0.41629 0.53526 0.91122 0.0
H4702 H 0.42802 0.53783 0.90567 0.0
H4703 H 0.43373 0.54954 0.90345 0.0
H4704 H 0.87178 0.73144 0.69493 0.0
H4705 H 0.86938 0.74334 0.68977 0.0
H4706 H 0.85063 0.73491 0.67895 0.0
H4707 H 0.85299 0.72299 0.68408 0.0
H4708 H 0.86853 0.74792 0.67572 0.0
H4709 H 0.84225 0.75223 0.68935 0.0
H4710 H 0.84834 0.7451 0.69192 0.0
H4711 H 0.84267 0.7441 0.68412 0.0
C4712 C 0.86717 0.73209 0.6914 0.0
C4713 C 0.86256 0.72623 0.68996 0.0
C4714 C 0.86578 0.73892 0.68849 0.0
C4715 C 0.85974 0.74009 0.68408 0.0
C4716 C 0.85521 0.73422 0.68249 0.0
H4717 H 0.84309 0.77793 0.66136 0.0
H4718 H 0.84512 0.76584 0.66626 0.0
C4719 C 0.85658 0.72739 0.68542 0.0
C4720 C 0.85824 0.74741 0.68108 0.0
H4721 H 0.84563 0.76086 0.68054 0.0
C4722 C 0.86353 0.75075 0.6768 0.0
C4723 C 0.85171 0.75113 0.68246 0.0
C4724 C 0.84594 0.748 0.68727 0.0
C4725 C 0.86244 0.75764 0.67381 0.0
C4726 C 0.85592 0.76137 0.67522 0.0
C4727 C 0.85061 0.75801 0.67945 0.0
C4728 C 0.85457 0.76879 0.67241 0.0
C4729 C 0.86822 0.7608 0.66904 0.0
C4730 C 0.85909 0.77454 0.67437 0.0
C4731 C 0.85792 0.78147 0.67161 0.0
C4732 C 0.85217 0.78285 0.66685 0.0
C4733 C 0.84753 0.77711 0.66505 0.0
C4734 C 0.84871 0.77017 0.66782 0.0
H4735 H 0.87191 0.75658 0.66692 0.0
H4736 H 0.86583 0.76374 0.66441 0.0
H4737 H 0.87149 0.76467 0.67222 0.0
H4738 H 0.86353 0.77367 0.67806 0.0
H4739 H 0.86151 0.78577 0.67326 0.0
H4740 H 0.05226 0.10251 0.43487 0.0
H4741 H 0.04033 0.1003 0.42969 0.0
H4742 H 0.03275 0.12043 0.43849 0.0
H4743 H 0.04465 0.12268 0.44371 0.0
H4744 H 0.02723 0.09888 0.43656 0.0
H4745 H 0.02631 0.12199 0.41763 0.0
H4746 H 0.03454 0.11909 0.42193 0.0
H4747 H 0.02816 0.12455 0.42677 0.0
C4748 C 0.04806 0.10648 0.43571 0.0
C4749 C 0.04946 0.1128 0.4397 0.0
C4750 C 0.04124 0.10521 0.43272 0.0
C4751 C 0.03564 0.11024 0.4336 0.0
C4752 C 0.03701 0.11655 0.43758 0.0
H4753 H 0.99033 0.11238 0.42193 0.0
H4754 H 1.00242 0.11429 0.42679 0.0
C4755 C 0.04384 0.11783 0.44056 0.0
C4756 C 0.02833 0.10877 0.43058 0.0
H4757 H 0.01535 0.11558 0.41939 0.0
C4758 C 0.02465 0.10251 0.43277 0.0
C4759 C 0.02494 0.1135 0.42563 0.0
C4760 C 0.02871 0.12012 0.42279 0.0
C4761 C 0.01765 0.10095 0.43029 0.0
C4762 C 0.01425 0.1057 0.42538 0.0
C4763 C 0.01794 0.11194 0.42316 0.0
C4764 C 1.00684 0.10437 0.42253 0.0
C4765 C 0.01388 0.09431 0.4331 0.0
C4766 C 1.00525 0.09816 0.41848 0.0
C4767 C 0.99832 0.09706 0.41566 0.0
C4768 C 0.99282 0.10217 0.41677 0.0
C4769 C 0.99443 0.10837 0.42087 0.0
C4770 C 1.00135 0.10946 0.42368 0.0
H4771 H 0.0164 0.0923 0.43815 0.0
H4772 H 1.00809 0.09541 0.43416 0.0
H4773 H 0.01423 0.08997 0.429 0.0
H4774 H 1.00942 0.09422 0.41738 0.0
H4775 H 0.99733 0.09229 0.41244 0.0
H4776 H 0.6646 0.24645 0.15842 0.0
H4777 H 0.66247 0.25841 0.16353 0.0
H4778 H 0.67895 0.25459 0.17945 0.0
H4779 H 0.68133 0.24273 0.17419 0.0
H4780 H 0.65802 0.26223 0.17701 0.0
H4781 H 0.68493 0.2741 0.1717 0.0
H4782 H 0.68201 0.26577 0.16761 0.0
H4783 H 0.68527 0.26586 0.17675 0.0
C4784 C 0.66787 0.24818 0.16293 0.0
C4785 C 0.67319 0.2436 0.16583 0.0
C4786 C 0.6666 0.25502 0.16589 0.0
C4787 C 0.67062 0.25748 0.17181 0.0
C4788 C 0.67588 0.2529 0.17478 0.0
H4789 H 0.67006 0.29574 0.19884 0.0
H4790 H 0.67236 0.28409 0.19312 0.0
C4791 C 0.67716 0.24606 0.17182 0.0
C4792 C 0.66917 0.26474 0.17498 0.0
H4793 H 0.67706 0.28087 0.17923 0.0
C4794 C 0.66218 0.26632 0.17745 0.0
C4795 C 0.67458 0.2701 0.17557 0.0
C4796 C 0.6821 0.26892 0.1727 0.0
C4797 C 0.66049 0.27301 0.18062 0.0
C4798 C 0.66592 0.27835 0.18125 0.0
C4799 C 0.6729 0.27679 0.17876 0.0
C4800 C 0.6645 0.28552 0.18463 0.0
C4801 C 0.65296 0.27423 0.18346 0.0
C4802 C 0.65939 0.29029 0.18171 0.0
C4803 C 0.65802 0.29697 0.18501 0.0
C4804 C 0.66175 0.29904 0.19129 0.0
C4805 C 0.66697 0.29429 0.1941 0.0
C4806 C 0.66834 0.28763 0.1908 0.0
H4807 H 0.65 0.26908 0.1842 0.0
H4808 H 0.65309 0.27714 0.1887 0.0
H4809 H 0.64991 0.27757 0.17955 0.0
H4810 H 0.65645 0.28885 0.17688 0.0
H4811 H 0.65395 0.30045 0.1827 0.0
H4812 H 0.52668 0.92991 0.90936 0.0
H4813 H 0.51461 0.92796 0.91435 0.0
H4814 H 0.52359 0.91445 0.93098 0.0
H4815 H 0.53568 0.91654 0.92617 0.0
H4816 H 0.50717 0.91507 0.91599 0.0
H4817 H 0.51098 0.92818 0.94259 0.0
H4818 H 0.51719 0.92944 0.93519 0.0
H4819 H 0.51761 0.92141 0.94061 0.0
C4820 C 0.52611 0.92662 0.91416 0.0
C4821 C 0.53219 0.9234 0.91737 0.0
C4822 C 0.51919 0.92547 0.91697 0.0
C4823 C 0.51817 0.92113 0.9231 0.0
C4824 C 0.52422 0.91793 0.92633 0.0
H4825 H 0.48143 0.90562 0.94782 0.0
H4826 H 0.49333 0.908 0.94264 0.0
C4827 C 0.53114 0.91906 0.92351 0.0
C4828 C 0.51077 0.91976 0.92598 0.0
H4829 H 0.50032 0.92121 0.94112 0.0
C4830 C 0.50565 0.91646 0.92147 0.0
C4831 C 0.50878 0.92155 0.93313 0.0
C4832 C 0.5139 0.92541 0.93815 0.0
C4833 C 0.49868 0.91476 0.92397 0.0
C4834 C 0.49671 0.91651 0.93114 0.0
C4835 C 0.50182 0.91985 0.93563 0.0
C4836 C 0.4894 0.91491 0.93411 0.0
C4837 C 0.49355 0.91092 0.91895 0.0
C4838 C 0.4832 0.91801 0.93107 0.0
C4839 C 0.47637 0.91662 0.93399 0.0
C4840 C 0.47557 0.91211 0.94006 0.0
C4841 C 0.4818 0.90901 0.94308 0.0
C4842 C 0.48863 0.91042 0.94016 0.0
H4843 H 0.49643 0.90832 0.91439 0.0
H4844 H 0.49042 0.90675 0.92188 0.0
H4845 H 0.4897 0.91489 0.91668 0.0
H4846 H 0.48365 0.92159 0.92648 0.0
H4847 H 0.4717 0.91907 0.93149 0.0
H4848 H 0.85285 0.24883 0.87036 0.0
H4849 H 0.85496 0.26071 0.86505 0.0
H4850 H 0.85308 0.25158 0.84375 0.0
H4851 H 0.85101 0.23966 0.84901 0.0
H4852 H 0.86597 0.26502 0.85599 0.0
H4853 H 0.83956 0.26884 0.84253 0.0
H4854 H 0.84105 0.26195 0.84925 0.0
H4855 H 0.84405 0.2606 0.84012 0.0
C4856 C 0.85289 0.24933 0.86454 0.0
C4857 C 0.85175 0.24325 0.86013 0.0
C4858 C 0.85407 0.25615 0.86151 0.0
C4859 C 0.85409 0.25709 0.854 0.0
C4860 C 0.85293 0.25105 0.84957 0.0
H4861 H 0.8622 0.29314 0.82511 0.0
H4862 H 0.8597 0.28143 0.83061 0.0
C4863 C 0.85174 0.24422 0.85259 0.0
C4864 C 0.85561 0.26433 0.85082 0.0
H4865 H 0.84872 0.27734 0.83972 0.0
C4866 C 0.86218 0.26773 0.85246 0.0
C4867 C 0.85068 0.26788 0.8462 0.0
C4868 C 0.84341 0.26467 0.84446 0.0
C4869 C 0.86401 0.27448 0.84952 0.0
C4870 C 0.85908 0.27803 0.84489 0.0
C4871 C 0.8525 0.27463 0.84326 0.0
C4872 C 0.86068 0.28521 0.84161 0.0
C4873 C 0.87129 0.27766 0.85123 0.0
C4874 C 0.862 0.29129 0.84594 0.0
C4875 C 0.8635 0.298 0.8428 0.0
C4876 C 0.86369 0.29881 0.83524 0.0
C4877 C 0.86226 0.29272 0.83094 0.0
C4878 C 0.86076 0.28601 0.83408 0.0
H4879 H 0.87512 0.2735 0.85321 0.0
H4880 H 0.87367 0.28032 0.84642 0.0
H4881 H 0.87068 0.28178 0.85553 0.0
H4882 H 0.86182 0.29085 0.85176 0.0
H4883 H 0.8646 0.30254 0.8463 0.0
H4884 H 0.47771 0.10221 0.58045 0.0
H4885 H 0.48954 0.09987 0.58576 0.0
H4886 H 0.48853 0.12016 0.59706 0.0
H4887 H 0.47658 0.12243 0.59198 0.0
H4888 H 0.50208 0.10764 0.58444 0.0
H4889 H 0.49392 0.10635 0.6132 0.0
H4890 H 0.48747 0.10602 0.60592 0.0
H4891 H 0.49122 0.1145 0.60873 0.0
C4892 C 0.47993 0.10613 0.58417 0.0
C4893 C 0.47612 0.11249 0.58582 0.0
C4894 C 0.48674 0.1048 0.58716 0.0
C4895 C 0.48991 0.10978 0.5919 0.0
C4896 C 0.48616 0.11616 0.59353 0.0
H4897 H 0.53092 0.11269 0.61438 0.0
H4898 H 0.51891 0.11458 0.60933 0.0
C4899 C 0.47934 0.11749 0.59054 0.0
C4900 C 0.49722 0.10837 0.59496 0.0
H4901 H 0.5065 0.10654 0.6108 0.0
C4902 C 0.50304 0.10736 0.59021 0.0
C4903 C 0.49849 0.108 0.60249 0.0
C4904 C 0.49244 0.10871 0.60789 0.0
C4905 C 0.51009 0.10616 0.59275 0.0
C4906 C 0.51136 0.10582 0.60028 0.0
C4907 C 0.50554 0.1068 0.60504 0.0
C4908 C 0.51871 0.10458 0.60333 0.0
C4909 C 0.51614 0.10547 0.58735 0.0
C4910 C 0.5226 0.09827 0.60173 0.0
C4911 C 0.52953 0.0972 0.60457 0.0
C4912 C 0.53272 0.10239 0.60911 0.0
C4913 C 0.52873 0.10863 0.6108 0.0
C4914 C 0.52182 0.1097 0.60796 0.0
H4915 H 0.51462 0.10772 0.58201 0.0
H4916 H 0.52107 0.10827 0.58928 0.0
H4917 H 0.51745 0.09969 0.5866 0.0
H4918 H 0.52028 0.09417 0.5983 0.0
H4919 H 0.53242 0.09234 0.60312 0.0
H4920 H 0.67365 0.72363 0.33955 0.0
H4921 H 0.67567 0.73556 0.3448 0.0
H4922 H 0.65436 0.74209 0.33826 0.0
H4923 H 0.6523 0.73019 0.33296 0.0
H4924 H 0.67559 0.74888 0.33809 0.0
H4925 H 0.65461 0.74801 0.3594 0.0
H4926 H 0.65754 0.74005 0.35462 0.0
H4927 H 0.65124 0.74616 0.35051 0.0
C4928 C 0.66938 0.7276 0.33921 0.0
C4929 C 0.66279 0.7259 0.33583 0.0
C4930 C 0.67054 0.73442 0.34225 0.0
C4931 C 0.66514 0.73972 0.34202 0.0
C4932 C 0.65855 0.73806 0.33866 0.0
H4933 H 0.66173 0.78454 0.35535 0.0
H4934 H 0.65995 0.77246 0.3504 0.0
C4935 C 0.65738 0.73123 0.33563 0.0
C4936 C 0.66649 0.74705 0.34507 0.0
H4937 H 0.66023 0.75933 0.35735 0.0
C4938 C 0.67226 0.75114 0.34233 0.0
C4939 C 0.66215 0.75004 0.3506 0.0
C4940 C 0.65608 0.74582 0.35401 0.0
C4941 C 0.67369 0.75817 0.34485 0.0
C4942 C 0.66932 0.76116 0.35036 0.0
C4943 C 0.66358 0.75706 0.35312 0.0
C4944 C 0.67055 0.76857 0.35328 0.0
C4945 C 0.67975 0.76239 0.34143 0.0
C4946 C 0.6771 0.77044 0.35661 0.0
C4947 C 0.67813 0.77736 0.35948 0.0
C4948 C 0.67262 0.78257 0.35915 0.0
C4949 C 0.66607 0.78067 0.3558 0.0
C4950 C 0.66505 0.77375 0.35293 0.0
H4951 H 0.68129 0.76014 0.33609 0.0
H4952 H 0.67823 0.76813 0.34072 0.0
H4953 H 0.68455 0.76215 0.34498 0.0
H4954 H 0.68137 0.7665 0.3571 0.0
H4955 H 0.6832 0.77858 0.36211 0.0
H4956 H 0.98931 0.91636 0.09936 0.0
H4957 H 1.00148 0.91432 0.09471 0.0
H4958 H 1.01021 0.92761 0.11165 0.0
H4959 H 0.99807 0.92951 0.11648 0.0
H4960 H 1.01174 0.92396 0.08971 0.0
H4961 H 0.02209 0.90921 0.1136 0.0
H4962 H 0.01261 0.91093 0.11224 0.0
H4963 H 0.01841 0.91794 0.11559 0.0
C4964 C 0.99381 0.9188 0.10215 0.0
C4965 C 0.99268 0.92305 0.10835 0.0
C4966 C 1.00078 0.91766 0.09945 0.0
C4967 C 1.0068 0.9207 0.10289 0.0
C4968 C 1.00568 0.92508 0.10897 0.0
H4969 H 0.05311 0.9188 0.09407 0.0
H4970 H 0.04113 0.92142 0.09899 0.0
C4971 C 0.99871 0.92624 0.11168 0.0
C4972 C 0.01421 0.91931 0.10005 0.0
H4973 H 0.03057 0.91203 0.10446 0.0
C4974 C 0.01585 0.92133 0.09294 0.0
C4975 C 0.01959 0.91589 0.10425 0.0
C4976 C 0.0181 0.9133 0.11182 0.0
C4977 C 0.02272 0.92011 0.08994 0.0
C4978 C 0.02808 0.91665 0.09412 0.0
C4979 C 0.02647 0.91468 0.10125 0.0
C4980 C 0.03538 0.91498 0.09115 0.0
C4981 C 0.02421 0.92267 0.08236 0.0
C4982 C 0.03617 0.91038 0.08518 0.0
C4983 C 0.04301 0.90888 0.08234 0.0
C4984 C 0.04925 0.91193 0.08542 0.0
C4985 C 0.04844 0.91644 0.09149 0.0
C4986 C 0.04159 0.91791 0.09434 0.0
H4987 H 0.02029 0.92685 0.08062 0.0
H4988 H 0.02974 0.92491 0.08189 0.0
H4989 H 0.02375 0.91804 0.07859 0.0
H4990 H 0.03148 0.90794 0.0827 0.0
H4991 H 0.0434 0.90545 0.07764 0.0
H4992 H 0.69774 0.86998 0.73228 0.0
H4993 H 0.69265 0.86743 0.74418 0.0
H4994 H 0.67541 0.85542 0.73427 0.0
H4995 H 0.68045 0.85797 0.72233 0.0
H4996 H 0.67938 0.87076 0.74998 0.0
H4997 H 0.68294 0.84108 0.74904 0.0
H4998 H 0.68722 0.84705 0.74266 0.0
H4999 H 0.67788 0.84469 0.74163 0.0
C5000 C 0.69283 0.86685 0.73261 0.0
C5001 C 0.68953 0.86417 0.72631 0.0
C5002 C 0.68994 0.86536 0.73944 0.0
C5003 C 0.68371 0.86112 0.74016 0.0
C5004 C 0.68032 0.85854 0.73389 0.0
H5005 H 0.65847 0.84684 0.7774 0.0
H5006 H 0.66324 0.84911 0.76528 0.0
C5007 C 0.68321 0.86002 0.72705 0.0
C5008 C 0.68071 0.85951 0.74746 0.0
H5009 H 0.6764 0.84576 0.75899 0.0
C5010 C 0.67875 0.86529 0.75196 0.0
C5011 C 0.67987 0.85238 0.75005 0.0
C5012 C 0.68214 0.84594 0.74563 0.0
C5013 C 0.67589 0.86414 0.7589 0.0
C5014 C 0.67509 0.85701 0.76151 0.0
C5015 C 0.67701 0.85122 0.757 0.0
C5016 C 0.67233 0.85545 0.76892 0.0
C5017 C 0.67362 0.87059 0.76332 0.0
C5018 C 0.67592 0.8581 0.77503 0.0
C5019 C 0.67322 0.85679 0.78197 0.0
C5020 C 0.66687 0.85275 0.78298 0.0
C5021 C 0.66339 0.84992 0.77685 0.0
C5022 C 0.6661 0.85125 0.7699 0.0
H5023 H 0.67269 0.8754 0.75988 0.0
H5024 H 0.66861 0.86943 0.7664 0.0
H5025 H 0.67795 0.87193 0.76722 0.0
H5026 H 0.68085 0.86118 0.77444 0.0
H5027 H 0.67614 0.85893 0.78655 0.0
H5028 H 0.90747 0.93032 0.47373 0.0
H5029 H 0.9101 0.92485 0.48547 0.0
H5030 H 0.91781 0.94531 0.49332 0.0
H5031 H 0.91526 0.9508 0.48163 0.0
H5032 H 0.92308 0.92376 0.49306 0.0
H5033 H 0.90317 0.93964 0.50874 0.0
H5034 H 0.90306 0.93925 0.49901 0.0
H5035 H 0.90931 0.94508 0.50359 0.0
C5036 C 0.90976 0.93365 0.47794 0.0
C5037 C 0.91107 0.94103 0.47672 0.0
C5038 C 0.91123 0.93052 0.48467 0.0
C5039 C 0.91403 0.93469 0.49034 0.0
C5040 C 0.91548 0.94201 0.4891 0.0
H5041 H 0.92694 0.92686 0.53483 0.0
H5042 H 0.92445 0.93193 0.5229 0.0
C5043 C 0.914 0.94515 0.4824 0.0
C5044 C 0.91555 0.93138 0.49752 0.0
H5045 H 0.91152 0.93268 0.51549 0.0
C5046 C 0.92052 0.92568 0.49796 0.0
C5047 C 0.91222 0.93388 0.50394 0.0
C5048 C 0.90659 0.93975 0.50382 0.0
C5049 C 0.92237 0.92254 0.50462 0.0
C5050 C 0.91908 0.92508 0.51104 0.0
C5051 C 0.91408 0.93075 0.5106 0.0
C5052 C 0.9207 0.92191 0.51826 0.0
C5053 C 0.928 0.91668 0.50475 0.0
C5054 C 0.91936 0.9146 0.51969 0.0
C5055 C 0.92075 0.91168 0.52652 0.0
C5056 C 0.92348 0.91602 0.53213 0.0
C5057 C 0.92478 0.92336 0.53069 0.0
C5058 C 0.92339 0.92627 0.52385 0.0
H5059 H 0.93137 0.91672 0.49979 0.0
H5060 H 0.93158 0.91724 0.50951 0.0
H5061 H 0.92529 0.91136 0.50507 0.0
H5062 H 0.91711 0.91115 0.51554 0.0
H5063 H 0.91953 0.90605 0.52745 0.0
H5064 H 0.82974 0.15265 0.23243 0.0
H5065 H 0.83515 0.15545 0.24412 0.0
H5066 H 0.84681 0.17312 0.23453 0.0
H5067 H 0.84125 0.1705 0.22286 0.0
H5068 H 0.84945 0.15588 0.24839 0.0
H5069 H 0.83688 0.18285 0.25158 0.0
H5070 H 0.83392 0.17646 0.24487 0.0
H5071 H 0.84191 0.18173 0.24338 0.0
C5072 C 0.83341 0.15718 0.2328 0.0
C5073 C 0.835 0.16138 0.22667 0.0
C5074 C 0.83654 0.15875 0.2395 0.0
C5075 C 0.8413 0.16458 0.24026 0.0
C5076 C 0.84304 0.16869 0.23413 0.0
H5077 H 0.8648 0.18235 0.27709 0.0
H5078 H 0.85989 0.17975 0.2651 0.0
C5079 C 0.83992 0.16712 0.22742 0.0
C5080 C 0.84446 0.16632 0.24746 0.0
H5081 H 0.84556 0.1795 0.26033 0.0
C5082 C 0.84858 0.16104 0.251 0.0
C5083 C 0.84335 0.17305 0.25089 0.0
C5084 C 0.83872 0.17883 0.24753 0.0
C5085 C 0.85168 0.16234 0.25781 0.0
C5086 C 0.85053 0.16906 0.26126 0.0
C5087 C 0.84645 0.17435 0.2577 0.0
C5088 C 0.85345 0.17067 0.26858 0.0
C5089 C 0.85628 0.15655 0.26119 0.0
C5090 C 0.85139 0.16652 0.27458 0.0
C5091 C 0.8542 0.16798 0.28143 0.0
C5092 C 0.85914 0.17365 0.28248 0.0
C5093 C 0.8611 0.17788 0.27648 0.0
C5094 C 0.85826 0.17642 0.26962 0.0
H5095 H 0.85821 0.1526 0.25712 0.0
H5096 H 0.86102 0.15892 0.26397 0.0
H5097 H 0.85303 0.15358 0.26525 0.0
H5098 H 0.84758 0.16214 0.27395 0.0
H5099 H 0.85261 0.16457 0.28589 0.0
H5100 H 0.59252 0.11387 0.0269 0.0
H5101 H 0.595 0.10883 0.01495 0.0
H5102 H 0.61351 0.09767 0.02345 0.0
H5103 H 0.61109 0.10269 0.0354 0.0
H5104 H 0.60694 0.11029 1.00622 0.0
H5105 H 0.60298 0.0815 0.01317 0.0
H5106 H 0.60015 0.08872 0.01905 0.0
H5107 H 0.60945 0.08596 0.01882 0.0
C5108 C 0.59713 0.11035 0.02624 0.0
C5109 C 0.60157 0.10866 0.03216 0.0
C5110 C 0.59852 0.10745 0.01939 0.0
C5111 C 0.60437 0.10276 0.01829 0.0
C5112 C 0.60885 0.10112 0.02417 0.0
H5113 H 0.62323 0.08034 0.98163 0.0
H5114 H 0.62048 0.08571 0.99337 0.0
C5115 C 0.60745 0.104 0.03102 0.0
C5116 C 0.6059 0.09975 1.01098 0.0
H5117 H 0.6082 0.08396 1.00171 0.0
C5118 C 0.60717 0.10453 1.00523 0.0
C5119 C 0.60621 0.09223 1.00965 0.0
C5120 C 0.60456 0.0868 0.01548 0.0
C5121 C 0.60889 0.10201 0.99827 0.0
C5122 C 0.60926 0.09449 0.99697 0.0
C5123 C 0.60796 0.08972 1.0027 0.0
C5124 C 0.61102 0.09145 0.98971 0.0
C5125 C 0.6105 0.10743 0.99241 0.0
C5126 C 0.60661 0.09285 0.98372 0.0
C5127 C 0.60815 0.08977 0.97698 0.0
C5128 C 0.61412 0.08515 0.97609 0.0
C5129 C 0.61854 0.08379 0.98211 0.0
C5130 C 0.617 0.08688 0.98884 0.0
H5131 H 0.61185 0.11281 0.99468 0.0
H5132 H 0.61504 0.1056 0.98897 0.0
H5133 H 0.60567 0.10805 0.98894 0.0
H5134 H 0.60187 0.09622 0.98427 0.0
H5135 H 0.60455 0.09084 0.97252 0.0
H5136 H 0.69171 0.15217 0.79594 0.0
H5137 H 0.68636 0.15432 0.78406 0.0
H5138 H 0.6824 0.17648 0.78982 0.0
H5139 H 0.68766 0.17437 0.80172 0.0
H5140 H 0.6726 0.15913 0.78012 0.0
H5141 H 0.69352 0.17842 0.77087 0.0
H5142 H 0.69472 0.17276 0.7787 0.0
H5143 H 0.68934 0.18079 0.77928 0.0
C5144 C 0.68964 0.15748 0.79472 0.0
C5145 C 0.69019 0.1631 0.79981 0.0
C5146 C 0.68661 0.15872 0.7879 0.0
C5147 C 0.6841 0.1656 0.78597 0.0
C5148 C 0.68447 0.17117 0.79109 0.0
H5149 H 0.66473 0.1836 0.74689 0.0
H5150 H 0.66979 0.1817 0.75895 0.0
C5151 C 0.68748 0.16994 0.79791 0.0
C5152 C 0.68105 0.16693 0.77864 0.0
H5153 H 0.68332 0.17698 0.76332 0.0
C5154 C 0.67497 0.16301 0.77644 0.0
C5155 C 0.68411 0.17202 0.77383 0.0
C5156 C 0.69082 0.1762 0.77574 0.0
C5157 C 0.6718 0.1641 0.76963 0.0
C5158 C 0.67488 0.16916 0.7648 0.0
C5159 C 0.68095 0.17311 0.76701 0.0
C5160 C 0.67195 0.17035 0.75739 0.0
C5161 C 0.66508 0.15993 0.76773 0.0
C5162 C 0.67162 0.16465 0.75241 0.0
C5163 C 0.66876 0.16572 0.74551 0.0
C5164 C 0.66619 0.17254 0.74337 0.0
C5165 C 0.66669 0.17829 0.74831 0.0
C5166 C 0.66955 0.1772 0.75523 0.0
H5167 H 0.66229 0.15789 0.77263 0.0
H5168 H 0.66125 0.16332 0.76462 0.0
H5169 H 0.66657 0.15522 0.76437 0.0
H5170 H 0.67361 0.15936 0.75386 0.0
H5171 H 0.66863 0.1612 0.74181 0.0
H5172 H 0.59502 0.92487 0.49169 0.0
H5173 H 0.59701 0.92996 0.50373 0.0
H5174 H 0.61235 0.91314 0.50834 0.0
H5175 H 0.61037 0.90799 0.49637 0.0
H5176 H 0.59526 0.92398 0.51747 0.0
H5177 H 0.62388 0.93131 0.51283 0.0
H5178 H 0.61787 0.92889 0.50557 0.0
H5179 H 0.62188 0.92201 0.51109 0.0
C5180 C 0.59878 0.92221 0.49528 0.0
C5181 C 0.60259 0.91605 0.49299 0.0
C5182 C 0.59993 0.92515 0.50216 0.0
C5183 C 0.60494 0.92203 0.50691 0.0
C5184 C 0.6086 0.91577 0.50472 0.0
H5185 H 0.62045 0.93244 0.55022 0.0
H5186 H 0.61791 0.92673 0.53857 0.0
C5187 C 0.60746 0.91283 0.49785 0.0
C5188 C 0.6063 0.92526 0.51416 0.0
H5189 H 0.61953 0.93245 0.52481 0.0
C5190 C 0.60056 0.92586 0.51907 0.0
C5191 C 0.61323 0.92771 0.51626 0.0
C5192 C 0.61956 0.92752 0.51115 0.0
C5193 C 0.60157 0.92871 0.52604 0.0
C5194 C 0.60849 0.93116 0.52814 0.0
C5195 C 0.61423 0.93055 0.52323 0.0
C5196 C 0.60986 0.93452 0.53533 0.0
C5197 C 0.59524 0.92892 0.53115 0.0
C5198 C 0.60623 0.94083 0.5374 0.0
C5199 C 0.60764 0.94409 0.54407 0.0
C5200 C 0.61277 0.94115 0.54884 0.0
C5201 C 0.61641 0.93482 0.54675 0.0
C5202 C 0.61499 0.93157 0.54006 0.0
H5203 H 0.59096 0.92506 0.52952 0.0
H5204 H 0.59693 0.92766 0.53675 0.0
H5205 H 0.59286 0.93441 0.53111 0.0
H5206 H 0.60235 0.9433 0.53381 0.0
H5207 H 0.60468 0.94891 0.5455 0.0
H5208 H 0.84331 0.86972 0.30138 0.0
H5209 H 0.84854 0.86767 0.2894 0.0
H5210 H 0.83132 0.8529 0.28439 0.0
H5211 H 0.82594 0.85509 0.2962 0.0
H5212 H 0.85343 0.85492 0.28313 0.0
H5213 H 0.83097 0.86635 0.26707 0.0
H5214 H 0.83181 0.86782 0.27665 0.0
H5215 H 0.82821 0.85947 0.27329 0.0
C5216 C 0.84058 0.8661 0.2977 0.0
C5217 C 0.83418 0.86259 0.29979 0.0
C5218 C 0.84361 0.8649 0.29086 0.0
C5219 C 0.84028 0.86021 0.28593 0.0
C5220 C 0.83393 0.85665 0.28802 0.0
H5221 H 0.84993 0.84565 0.24213 0.0
H5222 H 0.84487 0.8474 0.25422 0.0
C5223 C 0.83091 0.85784 0.29485 0.0
C5224 C 0.8435 0.85892 0.27866 0.0
H5225 H 0.84002 0.86004 0.26057 0.0
C5226 C 0.85051 0.85608 0.2782 0.0
C5227 C 0.83969 0.8604 0.2722 0.0
C5228 C 0.83228 0.86374 0.2723 0.0
C5229 C 0.85375 0.85456 0.27149 0.0
C5230 C 0.84994 0.85604 0.26504 0.0
C5231 C 0.84294 0.85887 0.2655 0.0
C5232 C 0.85317 0.8548 0.25776 0.0
C5233 C 0.86116 0.85122 0.27139 0.0
C5234 C 0.8595 0.85839 0.25567 0.0
C5235 C 0.86243 0.85736 0.24878 0.0
C5236 C 0.85907 0.85275 0.24375 0.0
C5237 C 0.85272 0.84916 0.24586 0.0
C5238 C 0.84979 0.8502 0.25277 0.0
H5239 H 0.86246 0.84857 0.27661 0.0
H5240 H 0.86166 0.84717 0.26701 0.0
H5241 H 0.86523 0.8555 0.27045 0.0
H5242 H 0.86214 0.86207 0.25935 0.0
H5243 H 0.86736 0.86017 0.2474 0.0
H5244 H 0.91682 0.07524 0.04464 0.0
H5245 H 0.91933 0.08086 0.03299 0.0
H5246 H 0.90931 0.10052 0.04027 0.0
H5247 H 0.90673 0.09492 0.05196 0.0
H5248 H 0.90995 0.0864 0.02296 0.0
H5249 H 0.9285 0.10783 0.03253 0.0
H5250 H 0.92591 0.10029 0.03811 0.0
H5251 H 0.91989 0.10779 0.03694 0.0
C5252 C 0.9151 0.08075 0.04377 0.0
C5253 C 0.91155 0.08461 0.04927 0.0
C5254 C 0.91658 0.08397 0.0371 0.0
C5255 C 0.91461 0.09115 0.03575 0.0
C5256 C 0.91104 0.09503 0.04121 0.0
H5257 H 0.91787 0.1189 0.99786 0.0
H5258 H 0.91547 0.11373 1.00975 0.0
C5259 C 0.90956 0.09181 0.0479 0.0
C5260 C 0.91612 0.09447 0.02857 0.0
H5261 H 0.92496 0.10836 0.02025 0.0
C5262 C 0.91326 0.09119 0.02237 0.0
C5263 C 0.92042 0.10073 0.02778 0.0
C5264 C 0.92392 0.10434 0.03418 0.0
C5265 C 0.9145 0.09403 0.01544 0.0
C5266 C 0.91882 0.10027 0.01464 0.0
C5267 C 0.92165 0.10358 0.02084 0.0
C5268 C 0.92046 0.10345 1.00743 0.0
C5269 C 0.91103 0.09041 1.00903 0.0
C5270 C 0.92418 0.09945 1.00217 0.0
C5271 C 0.92561 0.10242 0.99536 0.0
C5272 C 0.92338 0.10947 0.99364 0.0
C5273 C 0.91975 0.11349 0.99898 0.0
C5274 C 0.91834 0.11053 1.00579 0.0
H5275 H 0.90644 0.08692 1.01067 0.0
H5276 H 0.90905 0.09445 1.00509 0.0
H5277 H 0.91507 0.08696 1.00629 0.0
H5278 H 0.92602 0.09404 1.00335 0.0
H5279 H 0.92853 0.09919 0.99146 0.0
H5280 H 0.73154 0.69485 0.8738 0.0
H5281 H 0.74328 0.68954 0.87101 0.0
H5282 H 0.73432 0.67951 0.85205 0.0
H5283 H 0.7226 0.68498 0.85469 0.0
H5284 H 0.74742 0.67521 0.8695 0.0
H5285 H 0.75182 0.69008 0.84389 0.0
H5286 H 0.7449 0.69258 0.85027 0.0
H5287 H 0.74353 0.6851 0.84426 0.0
C5288 C 0.73206 0.69157 0.869 0.0
C5289 C 0.7261 0.6904 0.86445 0.0
C5290 C 0.73879 0.68849 0.86743 0.0
C5291 C 0.73974 0.68422 0.86125 0.0
C5292 C 0.73377 0.6829 0.85678 0.0
H5293 H 0.77716 0.66212 0.84283 0.0
H5294 H 0.76509 0.66683 0.8454 0.0
C5295 C 0.72703 0.68596 0.85835 0.0
C5296 C 0.74697 0.68113 0.85953 0.0
H5297 H 0.76036 0.68105 0.84681 0.0
C5298 C 0.75025 0.6765 0.86454 0.0
C5299 C 0.75068 0.6828 0.85305 0.0
C5300 C 0.7476 0.68796 0.84758 0.0
C5301 C 0.75707 0.67344 0.86324 0.0
C5302 C 0.76081 0.67515 0.85679 0.0
C5303 C 0.7575 0.67973 0.85175 0.0
C5304 C 0.76817 0.67231 0.85523 0.0
C5305 C 0.76016 0.66829 0.86872 0.0
C5306 C 0.77397 0.67391 0.85982 0.0
C5307 C 0.78088 0.6712 0.85838 0.0
C5308 C 0.78217 0.66685 0.85228 0.0
C5309 C 0.77636 0.66536 0.84762 0.0
C5310 C 0.76945 0.66808 0.84907 0.0
H5311 H 0.75591 0.66603 0.87228 0.0
H5312 H 0.76304 0.66377 0.86604 0.0
H5313 H 0.76407 0.67122 0.87217 0.0
H5314 H 0.77317 0.67726 0.86453 0.0
H5315 H 0.78518 0.67242 0.86213 0.0
H5316 H 0.23198 0.82447 0.16368 0.0
H5317 H 0.24367 0.82994 0.16632 0.0
H5318 H 0.23423 0.8511 0.16462 0.0
H5319 H 0.22251 0.84568 0.16189 0.0
H5320 H 0.25194 0.83932 0.1581 0.0
H5321 H 0.24443 0.85209 0.18412 0.0
H5322 H 0.2389 0.84533 0.17982 0.0
H5323 H 0.2387 0.85449 0.17669 0.0
C5324 C 0.23238 0.83029 0.1638 0.0
C5325 C 0.22626 0.83462 0.16256 0.0
C5326 C 0.23908 0.83341 0.16536 0.0
C5327 C 0.23983 0.84093 0.16578 0.0
C5328 C 0.23377 0.84528 0.16449 0.0
H5329 H 0.27606 0.86979 0.17364 0.0
H5330 H 0.26428 0.86439 0.17127 0.0
C5331 C 0.22705 0.84216 0.16292 0.0
C5332 C 0.24701 0.84419 0.16741 0.0
H5333 H 0.25595 0.85502 0.17939 0.0
C5334 C 0.25282 0.84273 0.16277 0.0
C5335 C 0.24818 0.84866 0.17351 0.0
C5336 C 0.24225 0.8502 0.17886 0.0
C5337 C 0.25971 0.84569 0.16398 0.0
C5338 C 0.26088 0.85014 0.17008 0.0
C5339 C 0.25507 0.85161 0.17472 0.0
C5340 C 0.26807 0.85337 0.17169 0.0
C5341 C 0.26562 0.84417 0.15859 0.0
C5342 C 0.27415 0.849 0.17287 0.0
C5343 C 0.28092 0.85208 0.17419 0.0
C5344 C 0.28179 0.85962 0.17439 0.0
C5345 C 0.27565 0.86398 0.1734 0.0
C5346 C 0.26888 0.86089 0.17209 0.0
H5347 H 0.26342 0.84234 0.15333 0.0
H5348 H 0.26899 0.84904 0.15767 0.0
H5349 H 0.26914 0.83983 0.16071 0.0
H5350 H 0.27365 0.84318 0.17274 0.0
H5351 H 0.28551 0.84854 0.17488 0.0
H5352 H 0.94879 0.47987 0.92026 0.0
H5353 H 0.94327 0.49163 0.92243 0.0
H5354 H 0.9252 0.48566 0.9091 0.0
H5355 H 0.93059 0.47377 0.90708 0.0
H5356 H 0.93955 0.5023 0.91269 0.0
H5357 H 0.9153 0.49279 0.92744 0.0
H5358 H 0.923 0.48707 0.92581 0.0
H5359 H 0.91656 0.4887 0.91875 0.0
C5360 C 0.94359 0.481 0.91786 0.0
C5361 C 0.94011 0.47581 0.91354 0.0
C5362 C 0.94046 0.48777 0.91907 0.0
C5363 C 0.93376 0.48952 0.91603 0.0
C5364 C 0.93031 0.4844 0.91163 0.0
H5365 H 0.90658 0.52778 0.91687 0.0
H5366 H 0.91191 0.5159 0.91486 0.0
C5367 C 0.93344 0.47762 0.91041 0.0
C5368 C 0.93049 0.49675 0.91737 0.0
H5369 H 0.91569 0.50521 0.92443 0.0
C5370 C 0.93435 0.50293 0.91529 0.0
C5371 C 0.92369 0.4976 0.92074 0.0
C5372 C 0.91941 0.4912 0.92338 0.0
C5373 C 0.93155 0.50991 0.91637 0.0
C5374 C 0.92476 0.51076 0.91977 0.0
C5375 C 0.9209 0.50457 0.92184 0.0
C5376 C 0.92152 0.518 0.92112 0.0
C5377 C 0.93582 0.51629 0.9137 0.0
C5378 C 0.92506 0.52314 0.92542 0.0
C5379 C 0.92205 0.52999 0.92654 0.0
C5380 C 0.91539 0.53185 0.92341 0.0
C5381 C 0.91178 0.52662 0.91925 0.0
C5382 C 0.9148 0.51978 0.91814 0.0
H5383 H 0.93986 0.51469 0.90957 0.0
H5384 H 0.93222 0.52045 0.91133 0.0
H5385 H 0.93876 0.51875 0.91829 0.0
H5386 H 0.93018 0.52186 0.92791 0.0
H5387 H 0.92501 0.53386 0.92974 0.0
H5388 H 0.29949 0.18172 0.65447 0.0
H5389 H 0.28747 0.17665 0.65661 0.0
H5390 H 0.28447 0.19118 0.6745 0.0
H5391 H 0.29633 0.19644 0.67227 0.0
H5392 H 0.28193 0.16986 0.66887 0.0
H5393 H 0.26626 0.19456 0.6627 0.0
H5394 H 0.27565 0.1936 0.66032 0.0
H5395 H 0.27311 0.19584 0.66941 0.0
C5396 C 0.29624 0.1839 0.65881 0.0
C5397 C 0.29891 0.18952 0.66318 0.0
C5398 C 0.28938 0.18096 0.66006 0.0
C5399 C 0.285 0.1836 0.66565 0.0
C5400 C 0.28767 0.18914 0.67007 0.0
H5401 H 0.2419 0.17324 0.68171 0.0
H5402 H 0.25405 0.1781 0.67991 0.0
C5403 C 0.29452 0.19208 0.66883 0.0
C5404 C 0.27769 0.18049 0.66696 0.0
H5405 H 0.25978 0.1848 0.66784 0.0
C5406 C 0.27709 0.17312 0.66861 0.0
C5407 C 0.27135 0.18473 0.66665 0.0
C5408 C 0.27159 0.1926 0.66461 0.0
C5409 C 0.27036 0.16992 0.67008 0.0
C5410 C 0.26402 0.17417 0.66976 0.0
C5411 C 0.26462 0.18154 0.66812 0.0
C5412 C 0.25669 0.17106 0.67098 0.0
C5413 C 0.27012 0.16206 0.67213 0.0
C5414 C 0.25408 0.16551 0.66655 0.0
C5415 C 0.24715 0.16268 0.66759 0.0
C5416 C 0.24262 0.16538 0.67307 0.0
C5417 C 0.24525 0.17095 0.6775 0.0
C5418 C 0.25219 0.17378 0.67645 0.0
H5419 H 0.27543 0.16014 0.67414 0.0
H5420 H 0.266 0.16105 0.67636 0.0
H5421 H 0.26871 0.15881 0.66731 0.0
H5422 H 0.25737 0.1634 0.66221 0.0
H5423 H 0.24537 0.15835 0.66411 0.0
H5424 H 0.09437 0.05088 0.9057 0.0
H5425 H 0.09988 0.03915 0.90829 0.0
H5426 H 0.08099 0.0329 0.92031 0.0
H5427 H 0.07547 0.04458 0.91778 0.0
H5428 H 0.10323 0.03251 0.92128 0.0
H5429 H 0.08318 0.01616 0.90634 0.0
H5430 H 0.08383 0.02581 0.90535 0.0
H5431 H 0.07922 0.02198 0.91298 0.0
C5432 C 0.0914 0.04703 0.90892 0.0
C5433 C 0.08443 0.04868 0.91146 0.0
C5434 C 0.09455 0.0403 0.91038 0.0
C5435 C 0.0908 0.03506 0.91437 0.0
C5436 C 0.08392 0.03676 0.91704 0.0
H5437 H 0.09968 0.99156 0.92971 0.0
H5438 H 0.0946 1.00347 0.92719 0.0
C5439 C 0.08077 0.04346 0.91559 0.0
C5440 C 0.0941 0.02787 0.91584 0.0
H5441 H 0.09138 1.00973 0.9138 0.0
C5442 C 0.10066 0.02753 0.9196 0.0
C5443 C 0.09075 0.02135 0.91366 0.0
C5444 C 0.08389 0.02131 0.9093 0.0
C5445 C 0.10387 0.02089 0.92139 0.0
C5446 C 0.1005 0.01438 0.91926 0.0
C5447 C 0.09396 0.01471 0.91547 0.0
C5448 C 0.10368 1.00716 0.92086 0.0
C5449 C 0.11076 0.0209 0.9257 0.0
C5450 C 0.11045 1.00521 0.91808 0.0
C5451 C 0.11335 0.99837 0.91947 0.0
C5452 C 0.10955 0.99329 0.92365 0.0
C5453 C 0.10275 0.99527 0.9264 0.0
C5454 C 0.09984 1.00211 0.925 0.0
H5455 H 0.11164 0.02613 0.92848 0.0
H5456 H 0.11074 0.01653 0.92979 0.0
H5457 H 0.11539 0.01997 0.92201 0.0
H5458 H 0.11344 1.00893 0.91473 0.0
H5459 H 0.11852 0.99702 0.91712 0.0
H5460 H 0.79802 0.34024 0.37323 0.0
H5461 H 0.78626 0.34584 0.37097 0.0
H5462 H 0.78606 0.33682 0.34954 0.0
H5463 H 0.7978 0.33127 0.35172 0.0
H5464 H 0.78178 0.35567 0.36032 0.0
H5465 H 0.76684 0.32988 0.35785 0.0
H5466 H 0.77582 0.33039 0.36157 0.0
H5467 H 0.7745 0.33059 0.35196 0.0
C5468 C 0.79551 0.3395 0.36801 0.0
C5469 C 0.79885 0.33522 0.36269 0.0
C5470 C 0.78876 0.34268 0.36674 0.0
C5471 C 0.78519 0.34163 0.36014 0.0
C5472 C 0.7886 0.33755 0.35475 0.0
H5473 H 0.74399 0.35535 0.34196 0.0
H5474 H 0.75592 0.35011 0.34413 0.0
C5475 C 0.79533 0.33438 0.35601 0.0
C5476 C 0.77792 0.34483 0.35885 0.0
H5477 H 0.76047 0.34051 0.35472 0.0
C5478 C 0.77711 0.35235 0.35913 0.0
C5479 C 0.77182 0.34051 0.35728 0.0
C5480 C 0.77224 0.33239 0.35721 0.0
C5481 C 0.77043 0.35568 0.35775 0.0
C5482 C 0.76433 0.35136 0.35617 0.0
C5483 C 0.76513 0.34383 0.3559 0.0
C5484 C 0.75704 0.35453 0.35487 0.0
C5485 C 0.77001 0.3638 0.35781 0.0
C5486 C 0.75362 0.35866 0.36022 0.0
C5487 C 0.74679 0.36163 0.35901 0.0
C5488 C 0.74317 0.36053 0.35242 0.0
C5489 C 0.74657 0.35628 0.34711 0.0
C5490 C 0.75341 0.35331 0.34833 0.0
H5491 H 0.7754 0.3663 0.35712 0.0
H5492 H 0.76639 0.3658 0.35348 0.0
H5493 H 0.7678 0.36561 0.36308 0.0
H5494 H 0.7562 0.35952 0.36539 0.0
H5495 H 0.74429 0.36472 0.3633 0.0
H5496 H 0.94434 0.54358 0.62403 0.0
H5497 H 0.939 0.53188 0.62116 0.0
H5498 H 0.92907 0.54099 0.60223 0.0
H5499 H 0.93459 0.55267 0.60493 0.0
H5500 H 0.92474 0.52775 0.61963 0.0
H5501 H 0.93956 0.52354 0.59395 0.0
H5502 H 0.94205 0.53043 0.60036 0.0
H5503 H 0.93457 0.53182 0.59436 0.0
C5504 C 0.94107 0.5431 0.61922 0.0
C5505 C 0.93996 0.54909 0.61468 0.0
C5506 C 0.93798 0.5364 0.61761 0.0
C5507 C 0.93373 0.53549 0.61141 0.0
C5508 C 0.93245 0.5415 0.60697 0.0
H5509 H 0.91143 0.49832 0.59283 0.0
H5510 H 0.91622 0.51034 0.59547 0.0
C5511 C 0.93554 0.54821 0.60857 0.0
C5512 C 0.93063 0.52828 0.60964 0.0
H5513 H 0.93051 0.515 0.59682 0.0
C5514 C 0.92602 0.52496 0.61465 0.0
C5515 C 0.93228 0.52462 0.60313 0.0
C5516 C 0.93743 0.52774 0.59766 0.0
C5517 C 0.92295 0.51815 0.61331 0.0
C5518 C 0.92464 0.51447 0.60683 0.0
C5519 C 0.92921 0.51781 0.60179 0.0
C5520 C 0.92177 0.50713 0.60521 0.0
C5521 C 0.91783 0.51501 0.61879 0.0
C5522 C 0.92339 0.50127 0.60972 0.0
C5523 C 0.92063 0.49439 0.60824 0.0
C5524 C 0.91622 0.49319 0.60218 0.0
C5525 C 0.91472 0.49905 0.5976 0.0
C5526 C 0.91749 0.50593 0.59908 0.0
H5527 H 0.9156 0.51922 0.62242 0.0
H5528 H 0.91328 0.51218 0.61611 0.0
H5529 H 0.92075 0.51104 0.62217 0.0
H5530 H 0.92679 0.50201 0.61441 0.0
H5531 H 0.92187 0.49004 0.61194 0.0
H5532 H 0.6159 0.52708 0.09606 0.0
H5533 H 0.61091 0.515 0.09801 0.0
H5534 H 0.59417 0.52402 0.11138 0.0
H5535 H 0.59898 0.53611 0.1093 0.0
H5536 H 0.60914 0.50759 0.11093 0.0
H5537 H 0.58271 0.5114 0.09754 0.0
H5538 H 0.59012 0.51759 0.09633 0.0
H5539 H 0.58462 0.51805 0.10431 0.0
C5540 C 0.61108 0.52652 0.09932 0.0
C5541 C 0.60784 0.53261 0.1025 0.0
C5542 C 0.60827 0.51959 0.10047 0.0
C5543 C 0.6021 0.51859 0.10477 0.0
C5544 C 0.59885 0.52465 0.10794 0.0
H5545 H 0.57727 0.48194 0.12026 0.0
H5546 H 0.58245 0.49383 0.11782 0.0
C5547 C 0.60166 0.53157 0.10681 0.0
C5548 C 0.59921 0.5112 0.10613 0.0
H5549 H 0.5841 0.50075 0.10455 0.0
C5550 C 0.60368 0.50608 0.10948 0.0
C5551 C 0.59208 0.50921 0.10426 0.0
C5552 C 0.58712 0.51432 0.10035 0.0
C5553 C 0.60116 0.49912 0.11118 0.0
C5554 C 0.59401 0.49715 0.10936 0.0
C5555 C 0.58956 0.50225 0.10597 0.0
C5556 C 0.59102 0.48985 0.11097 0.0
C5557 C 0.60612 0.49399 0.11508 0.0
C5558 C 0.59408 0.48363 0.10792 0.0
C5559 C 0.59115 0.4768 0.10933 0.0
C5560 C 0.58507 0.47603 0.11383 0.0
C5561 C 0.58202 0.48229 0.11687 0.0
C5562 C 0.58494 0.48911 0.11544 0.0
H5563 H 0.61067 0.49687 0.1177 0.0
H5564 H 0.60315 0.49089 0.11926 0.0
H5565 H 0.60842 0.49011 0.11115 0.0
H5566 H 0.59869 0.48405 0.10436 0.0
H5567 H 0.59367 0.47212 0.10692 0.0
H5568 H 0.65451 0.79351 0.82885 0.0
H5569 H 0.65726 0.78183 0.83429 0.0
H5570 H 0.67306 0.79188 0.84803 0.0
H5571 H 0.6704 0.8036 0.84258 0.0
H5572 H 0.67037 0.77455 0.83442 0.0
H5573 H 0.66121 0.7801 0.86239 0.0
H5574 H 0.65881 0.7858 0.85488 0.0
H5575 H 0.6676 0.78646 0.85888 0.0
C5576 C 0.65859 0.79326 0.83303 0.0
C5577 C 0.66223 0.79953 0.83526 0.0
C5578 C 0.66013 0.78656 0.83615 0.0
C5579 C 0.66531 0.78596 0.84164 0.0
C5580 C 0.66893 0.79221 0.84392 0.0
H5581 H 0.68141 0.74875 0.86598 0.0
H5582 H 0.6796 0.76079 0.86085 0.0
C5583 C 0.66739 0.79892 0.8408 0.0
C5584 C 0.66709 0.77875 0.84474 0.0
H5585 H 0.66713 0.76897 0.86038 0.0
C5586 C 0.66965 0.77333 0.84009 0.0
C5587 C 0.6662 0.77715 0.85215 0.0
C5588 C 0.66325 0.78265 0.85737 0.0
C5589 C 0.67137 0.7664 0.84266 0.0
C5590 C 0.67037 0.76476 0.85005 0.0
C5591 C 0.6679 0.77021 0.85472 0.0
C5592 C 0.67166 0.75739 0.85302 0.0
C5593 C 0.67436 0.76093 0.83743 0.0
C5594 C 0.66778 0.75145 0.85036 0.0
C5595 C 0.66884 0.74455 0.85325 0.0
C5596 C 0.67377 0.74342 0.85891 0.0
C5597 C 0.67766 0.74938 0.86156 0.0
C5598 C 0.67658 0.75629 0.85866 0.0
H5599 H 0.67679 0.76356 0.83262 0.0
H5600 H 0.6785 0.75748 0.84003 0.0
H5601 H 0.66992 0.7574 0.83552 0.0
H5602 H 0.66385 0.75216 0.84611 0.0
H5603 H 0.6658 0.7401 0.85102 0.0
H5604 H 0.52816 0.41657 0.11929 0.0
H5605 H 0.51626 0.4147 0.11396 0.0
H5606 H 0.52192 0.42873 0.09631 0.0
H5607 H 0.53394 0.43044 0.10148 0.0
H5608 H 0.50542 0.42435 0.11074 0.0
H5609 H 0.51489 0.4108 0.08578 0.0
H5610 H 0.52068 0.41223 0.09347 0.0
H5611 H 0.51886 0.41949 0.0873 0.0
C5612 C 0.52692 0.4192 0.11423 0.0
C5613 C 0.53208 0.4236 0.11079 0.0
C5614 C 0.52008 0.41816 0.11121 0.0
C5615 C 0.51821 0.42146 0.10466 0.0
C5616 C 0.52327 0.42599 0.10129 0.0
H5617 H 0.47984 0.42105 0.07764 0.0
H5618 H 0.49159 0.42327 0.08314 0.0
C5619 C 0.53013 0.42704 0.10431 0.0
C5620 C 0.51095 0.42019 0.10141 0.0
H5621 H 0.50246 0.41369 0.08639 0.0
C5622 C 0.50478 0.422 0.10542 0.0
C5623 C 0.51009 0.41711 0.09448 0.0
C5624 C 0.51647 0.41473 0.09002 0.0
C5625 C 0.49779 0.42094 0.10264 0.0
C5626 C 0.49693 0.41786 0.0957 0.0
C5627 C 0.5031 0.41605 0.0917 0.0
C5628 C 0.48968 0.41653 0.09246 0.0
C5629 C 0.4914 0.42329 0.1071 0.0
C5630 C 0.48467 0.41192 0.09581 0.0
C5631 C 0.47789 0.41067 0.0927 0.0
C5632 C 0.47597 0.41398 0.08614 0.0
C5633 C 0.48105 0.41851 0.08276 0.0
C5634 C 0.48781 0.41975 0.08588 0.0
H5635 H 0.49298 0.42723 0.11133 0.0
H5636 H 0.48718 0.42576 0.10366 0.0
H5637 H 0.48904 0.41852 0.10982 0.0
H5638 H 0.48602 0.40925 0.10082 0.0
H5639 H 0.47413 0.40718 0.09548 0.0
H5640 H 0.86144 0.22215 0.347 0.0
H5641 H 0.85852 0.2339 0.35229 0.0
H5642 H 0.86146 0.24397 0.33155 0.0
H5643 H 0.86415 0.23225 0.32618 0.0
H5644 H 0.86678 0.24641 0.35298 0.0
H5645 H 0.8417 0.25145 0.33755 0.0
H5646 H 0.84591 0.24269 0.33795 0.0
H5647 H 0.84938 0.2495 0.33199 0.0
C5648 C 0.86139 0.22684 0.34354 0.0
C5649 C 0.86302 0.22621 0.33614 0.0
C5650 C 0.85975 0.23358 0.34658 0.0
C5651 C 0.85965 0.23982 0.3423 0.0
C5652 C 0.86136 0.23923 0.33495 0.0
H5653 H 0.85235 0.28559 0.34988 0.0
H5654 H 0.85468 0.27364 0.34477 0.0
C5655 C 0.863 0.23251 0.3319 0.0
C5656 C 0.8579 0.24698 0.34555 0.0
H5657 H 0.84632 0.26128 0.34435 0.0
C5658 C 0.86228 0.24964 0.35113 0.0
C5659 C 0.85204 0.25122 0.34312 0.0
C5660 C 0.84694 0.24855 0.33737 0.0
C5661 C 0.86106 0.25646 0.35422 0.0
C5662 C 0.8552 0.26071 0.35178 0.0
C5663 C 0.85081 0.25804 0.34622 0.0
C5664 C 0.85357 0.26796 0.3549 0.0
C5665 C 0.86618 0.25913 0.35995 0.0
C5666 C 0.85201 0.26875 0.36227 0.0
C5667 C 0.85065 0.27558 0.36521 0.0
C5668 C 0.85076 0.28179 0.36083 0.0
C5669 C 0.85215 0.28094 0.35341 0.0
C5670 C 0.85352 0.27411 0.35048 0.0
H5671 H 0.87139 0.25618 0.35981 0.0
H5672 H 0.86728 0.26498 0.35929 0.0
H5673 H 0.86372 0.25829 0.36534 0.0
H5674 H 0.85182 0.26408 0.36577 0.0
H5675 H 0.84946 0.27599 0.37091 0.0
H5676 H 0.05361 0.60467 0.59199 0.0
H5677 H 0.04185 0.60205 0.59741 0.0
H5678 H 0.0323 0.61926 0.58508 0.0
H5679 H 0.04402 0.62196 0.57969 0.0
H5680 H 0.03242 0.61068 0.60552 0.0
H5681 H 0.01953 0.60205 0.57996 0.0
H5682 H 0.02916 0.60308 0.58086 0.0
H5683 H 0.02353 0.61085 0.57957 0.0
C5684 C 0.04903 0.60796 0.59048 0.0
C5685 C 0.04979 0.6135 0.58534 0.0
C5686 C 0.04229 0.60642 0.59357 0.0
C5687 C 0.03615 0.61036 0.59155 0.0
C5688 C 0.03692 0.61602 0.58659 0.0
H5689 H 0.99061 0.60989 0.6026 0.0
H5690 H 1.0026 0.61223 0.59763 0.0
C5691 C 0.04364 0.61756 0.5835 0.0
C5692 C 0.02894 0.60857 0.59466 0.0
H5693 H 1.01182 0.60347 0.59009 0.0
C5694 C 0.02793 0.60906 0.60215 0.0
C5695 C 0.02306 0.60646 0.59027 0.0
C5696 C 0.02386 0.60551 0.58223 0.0
C5697 C 0.02118 0.60768 0.60535 0.0
C5698 C 0.01528 0.60561 0.60095 0.0
C5699 C 0.01631 0.60507 0.59346 0.0
C5700 C 1.00798 0.60407 0.60399 0.0
C5701 C 0.02037 0.60867 0.61339 0.0
C5702 C 1.00695 0.59861 0.60914 0.0
C5703 C 1.00008 0.59724 0.61199 0.0
C5704 C 0.99405 0.60125 0.6097 0.0
C5705 C 0.99509 0.60663 0.60444 0.0
C5706 C 1.00196 0.60801 0.60161 0.0
H5707 H 0.02473 0.61209 0.61565 0.0
H5708 H 0.01509 0.61115 0.61474 0.0
H5709 H 0.02065 0.60333 0.61607 0.0
H5710 H 1.01145 0.59536 0.61093 0.0
H5711 H 0.99948 0.59298 0.61593 0.0
H5712 H 0.66394 0.28487 0.67417 0.0
H5713 H 0.66199 0.27278 0.67903 0.0
H5714 H 0.67893 0.26453 0.6654 0.0
H5715 H 0.68089 0.27661 0.66047 0.0
H5716 H 0.65799 0.26038 0.67176 0.0
H5717 H 0.6845 0.25643 0.68506 0.0
H5718 H 0.68142 0.26516 0.68204 0.0
H5719 H 0.68502 0.25878 0.67568 0.0
C5720 C 0.66725 0.28049 0.67218 0.0
C5721 C 0.67258 0.28175 0.6669 0.0
C5722 C 0.66615 0.27357 0.67499 0.0
C5723 C 0.67036 0.26773 0.67266 0.0
C5724 C 0.6757 0.26896 0.66742 0.0
H5725 H 0.67001 0.22185 0.68403 0.0
H5726 H 0.67234 0.23355 0.67836 0.0
C5727 C 0.67682 0.27589 0.6646 0.0
C5728 C 0.66896 0.26034 0.67554 0.0
H5729 H 0.67665 0.24636 0.68478 0.0
C5730 C 0.66207 0.25732 0.67462 0.0
C5731 C 0.67429 0.25632 0.67924 0.0
C5732 C 0.68171 0.25934 0.68063 0.0
C5733 C 0.66038 0.25041 0.67726 0.0
C5734 C 0.66567 0.24643 0.68105 0.0
C5735 C 0.67259 0.2494 0.68188 0.0
C5736 C 0.66409 0.23925 0.68433 0.0
C5737 C 0.65296 0.2474 0.67585 0.0
C5738 C 0.6587 0.23852 0.6896 0.0
C5739 C 0.65731 0.23183 0.69282 0.0
C5740 C 0.66133 0.22568 0.69088 0.0
C5741 C 0.66673 0.22642 0.68558 0.0
C5742 C 0.66812 0.23313 0.68238 0.0
H5743 H 0.65033 0.25009 0.67119 0.0
H5744 H 0.65319 0.24151 0.67478 0.0
H5745 H 0.64952 0.2483 0.68067 0.0
H5746 H 0.6556 0.24317 0.69131 0.0
H5747 H 0.65308 0.23147 0.69682 0.0
H5748 H 0.05334 0.42195 0.93308 0.0
H5749 H 0.04136 0.42445 0.9281 0.0
H5750 H 0.03243 0.40718 0.94084 0.0
H5751 H 0.04433 0.40476 0.94597 0.0
H5752 H 0.03192 0.41541 0.92032 0.0
H5753 H 0.01949 0.42436 0.94604 0.0
H5754 H 0.02912 0.42354 0.94488 0.0
H5755 H 0.0237 0.41566 0.94648 0.0
C5756 C 0.04882 0.41872 0.93487 0.0
C5757 C 0.04982 0.41318 0.93997 0.0
C5758 C 0.04198 0.42013 0.93198 0.0
C5759 C 0.03596 0.41608 0.93417 0.0
C5760 C 0.03695 0.41046 0.93915 0.0
H5761 H 0.99027 0.41531 0.92421 0.0
H5762 H 1.00242 0.4134 0.92894 0.0
C5763 C 0.04379 0.40903 0.94202 0.0
C5764 C 0.02865 0.4177 0.93122 0.0
H5765 H 1.01158 0.42266 0.93613 0.0
C5766 C 0.02748 0.41704 0.92377 0.0
C5767 C 0.02285 0.41983 0.93572 0.0
C5768 C 0.02384 0.42096 0.94371 0.0
C5769 C 0.02063 0.41825 0.92072 0.0
C5770 C 0.01482 0.42033 0.92522 0.0
C5771 C 0.01602 0.42106 0.93267 0.0
C5772 C 1.00741 0.42163 0.92235 0.0
C5773 C 0.01964 0.41707 0.91273 0.0
C5774 C 1.00611 0.42698 0.91714 0.0
C5775 C 0.99915 0.42806 0.91439 0.0
C5776 C 0.99332 0.42383 0.91679 0.0
C5777 C 0.99463 0.41859 0.92213 0.0
C5778 C 1.00158 0.41752 0.92488 0.0
H5779 H 0.02405 0.41373 0.9104 0.0
H5780 H 0.01441 0.41439 0.91159 0.0
H5781 H 0.01968 0.42236 0.90994 0.0
H5782 H 1.01048 0.43033 0.9152 0.0
H5783 H 0.99838 0.43212 0.91026 0.0
H5784 H 0.85598 0.80397 0.18325 0.0
H5785 H 0.85339 0.79227 0.17768 0.0
H5786 H 0.86707 0.78178 0.19324 0.0
H5787 H 0.86975 0.79343 0.1988 0.0
H5788 H 0.86259 0.78185 0.17157 0.0
H5789 H 0.8481 0.77069 0.19525 0.0
H5790 H 0.8501 0.78017 0.19434 0.0
H5791 H 0.85697 0.77398 0.19725 0.0
C5792 C 0.85851 0.79919 0.18545 0.0
C5793 C 0.86303 0.79967 0.19153 0.0
C5794 C 0.85698 0.79249 0.18228 0.0
C5795 C 0.85991 0.78611 0.18513 0.0
C5796 C 0.86459 0.78659 0.19106 0.0
H5797 H 0.85749 0.74037 0.17518 0.0
H5798 H 0.85987 0.75229 0.1803 0.0
C5799 C 0.86611 0.79327 0.19423 0.0
C5800 C 0.85812 0.77897 0.18189 0.0
H5801 H 0.85074 0.76252 0.18576 0.0
C5802 C 0.85996 0.77764 0.17466 0.0
C5803 C 0.85469 0.77346 0.18591 0.0
C5804 C 0.85228 0.77464 0.1936 0.0
C5805 C 0.85864 0.7709 0.1714 0.0
C5806 C 0.85524 0.76537 0.17544 0.0
C5807 C 0.85335 0.76673 0.18266 0.0
C5808 C 0.85366 0.75811 0.17232 0.0
C5809 C 0.8611 0.76971 0.16374 0.0
C5810 C 0.84927 0.75736 0.1662 0.0
C5811 C 0.84788 0.75053 0.16326 0.0
C5812 C 0.85081 0.74427 0.16641 0.0
C5813 C 0.85508 0.74504 0.17264 0.0
C5814 C 0.85648 0.75187 0.17556 0.0
H5815 H 0.86529 0.77367 0.16211 0.0
H5816 H 0.8633 0.76419 0.16301 0.0
H5817 H 0.85643 0.77036 0.16005 0.0
H5818 H 0.84686 0.76205 0.16371 0.0
H5819 H 0.84446 0.75015 0.15855 0.0
H5820 H 0.52732 0.59284 0.41085 0.0
H5821 H 0.5152 0.59475 0.41576 0.0
H5822 H 0.52275 0.61352 0.4272 0.0
H5823 H 0.53486 0.61162 0.42238 0.0
H5824 H 0.51025 0.59544 0.43004 0.0
H5825 H 0.50549 0.62141 0.41601 0.0
H5826 H 0.51275 0.61541 0.41357 0.0
H5827 H 0.5136 0.62122 0.42128 0.0
C5828 C 0.52643 0.59734 0.41446 0.0
C5829 C 0.53209 0.60211 0.41615 0.0
C5830 C 0.51948 0.59845 0.41724 0.0
C5831 C 0.51801 0.60437 0.42174 0.0
C5832 C 0.52368 0.60902 0.42359 0.0
H5833 H 0.48042 0.62122 0.44425 0.0
H5834 H 0.49235 0.61899 0.43906 0.0
C5835 C 0.53063 0.60792 0.42082 0.0
C5836 C 0.51057 0.60565 0.42455 0.0
H5837 H 0.49692 0.61804 0.42491 0.0
C5838 C 0.50731 0.60036 0.42888 0.0
C5839 C 0.50673 0.61208 0.42305 0.0
C5840 C 0.50978 0.61783 0.41817 0.0
C5841 C 0.50042 0.6014 0.4319 0.0
C5842 C 0.49659 0.60784 0.43043 0.0
C5843 C 0.49984 0.61311 0.42606 0.0
C5844 C 0.48925 0.60926 0.43343 0.0
C5845 C 0.49739 0.59566 0.43681 0.0
C5846 C 0.48346 0.60463 0.43187 0.0
C5847 C 0.47661 0.6059 0.43482 0.0
C5848 C 0.47536 0.61188 0.43934 0.0
C5849 C 0.48114 0.6166 0.44074 0.0
C5850 C 0.48799 0.61531 0.4378 0.0
H5851 H 0.50168 0.59205 0.43892 0.0
H5852 H 0.49448 0.59809 0.44144 0.0
H5853 H 0.49352 0.59229 0.43373 0.0
H5854 H 0.48422 0.60003 0.42836 0.0
H5855 H 0.47227 0.60222 0.4335 0.0
H5856 H 0.8706 0.67429 0.74949 0.0
H5857 H 0.86526 0.67187 0.76132 0.0
H5858 H 0.84406 0.67207 0.75183 0.0
H5859 H 0.84937 0.67427 0.73994 0.0
H5860 H 0.85539 0.67966 0.76944 0.0
H5861 H 0.84424 0.65281 0.76244 0.0
H5862 H 0.85073 0.65739 0.75682 0.0
H5863 H 0.84138 0.65993 0.75654 0.0
C5864 C 0.8648 0.67376 0.74989 0.0
C5865 C 0.86043 0.67441 0.74372 0.0
C5866 C 0.86175 0.67242 0.75668 0.0
C5867 C 0.85426 0.67165 0.75747 0.0
C5868 C 0.84986 0.67249 0.75135 0.0
H5869 H 0.82559 0.66281 0.79357 0.0
H5870 H 0.831 0.66548 0.78185 0.0
C5871 C 0.85291 0.67384 0.74456 0.0
C5872 C 0.85108 0.67 0.76468 0.0
H5873 H 0.84089 0.65762 0.77381 0.0
C5874 C 0.85225 0.67483 0.7704 0.0
C5875 C 0.84697 0.66369 0.76595 0.0
C5876 C 0.8458 0.65812 0.76014 0.0
C5877 C 0.84932 0.67359 0.77731 0.0
C5878 C 0.8452 0.66729 0.77857 0.0
C5879 C 0.84404 0.66246 0.77285 0.0
C5880 C 0.84197 0.66563 0.78577 0.0
C5881 C 0.85051 0.67914 0.78313 0.0
C5882 C 0.84634 0.6647 0.79189 0.0
C5883 C 0.84326 0.66312 0.79862 0.0
C5884 C 0.83574 0.66237 0.79938 0.0
C5885 C 0.8314 0.66323 0.7932 0.0
C5886 C 0.83448 0.66481 0.78649 0.0
H5887 H 0.85212 0.68444 0.78085 0.0
H5888 H 0.84557 0.67989 0.78643 0.0
H5889 H 0.85489 0.67728 0.78675 0.0
H5890 H 0.85214 0.66514 0.79146 0.0
H5891 H 0.84678 0.66239 0.80321 0.0
H5892 H 0.60932 0.60076 0.99015 0.0
H5893 H 0.61134 0.59597 1.00226 0.0
H5894 H 0.59613 0.61125 1.01094 0.0
H5895 H 0.5941 0.61612 0.99884 0.0
H5896 H 0.61655 0.60311 0.01432 0.0
H5897 H 0.58915 0.59233 0.01972 0.0
H5898 H 0.5921 0.59488 1.0108 0.0
H5899 H 0.58938 0.60167 0.01716 0.0
C5900 C 0.6064 0.60312 0.99463 0.0
C5901 C 0.60154 0.60884 0.99348 0.0
C5902 C 0.60755 0.60035 1.00156 0.0
C5903 C 0.60384 0.60318 1.00753 0.0
C5904 C 0.59895 0.60886 1.00642 0.0
H5905 H 0.60516 0.5926 0.05362 0.0
H5906 H 0.60283 0.59827 0.04191 0.0
C5907 C 0.59779 0.61164 0.99947 0.0
C5908 C 0.6053 0.60033 0.01492 0.0
H5909 H 0.59743 0.59208 0.02943 0.0
C5910 C 0.61236 0.60069 0.01761 0.0
C5911 C 0.59984 0.5972 0.01925 0.0
C5912 C 0.5922 0.59643 0.01658 0.0
C5913 C 0.61412 0.59805 0.02451 0.0
C5914 C 0.60869 0.59482 0.02881 0.0
C5915 C 0.6016 0.59455 0.02615 0.0
C5916 C 0.61029 0.59153 0.03598 0.0
C5917 C 0.62176 0.59885 0.02717 0.0
C5918 C 0.61523 0.58582 0.03657 0.0
C5919 C 0.61661 0.5826 0.04326 0.0
C5920 C 0.61304 0.58496 0.04954 0.0
C5921 C 0.60809 0.5907 0.04893 0.0
C5922 C 0.60671 0.59391 0.04223 0.0
H5923 H 0.62465 0.60322 0.02427 0.0
H5924 H 0.62189 0.60003 0.03305 0.0
H5925 H 0.62472 0.59374 0.02621 0.0
H5926 H 0.61797 0.58379 0.03183 0.0
H5927 H 0.62049 0.57825 0.04351 0.0
H5928 H 0.65483 0.3507 0.24996 0.0
H5929 H 0.66016 0.35314 0.26178 0.0
H5930 H 0.68116 0.35485 0.25197 0.0
H5931 H 0.67585 0.35261 0.2401 0.0
H5932 H 0.67086 0.34577 0.26943 0.0
H5933 H 0.67958 0.37371 0.2633 0.0
H5934 H 0.67333 0.36884 0.25767 0.0
H5935 H 0.68283 0.36707 0.25705 0.0
C5936 C 0.66058 0.35166 0.25029 0.0
C5937 C 0.66489 0.35151 0.24403 0.0
C5938 C 0.66363 0.353 0.25708 0.0
C5939 C 0.67105 0.3543 0.25778 0.0
C5940 C 0.6754 0.354 0.25157 0.0
H5941 H 0.69968 0.36433 0.29356 0.0
H5942 H 0.69424 0.36163 0.28186 0.0
C5943 C 0.67236 0.35263 0.24478 0.0
C5944 C 0.67423 0.35594 0.26499 0.0
H5945 H 0.68354 0.36878 0.2744 0.0
C5946 C 0.67361 0.35081 0.27053 0.0
C5947 C 0.67781 0.36252 0.26644 0.0
C5948 C 0.67839 0.36839 0.26083 0.0
C5949 C 0.67659 0.35202 0.27741 0.0
C5950 C 0.68019 0.3586 0.27885 0.0
C5951 C 0.6808 0.36373 0.27331 0.0
C5952 C 0.68344 0.36025 0.28604 0.0
C5953 C 0.67603 0.34615 0.28301 0.0
C5954 C 0.67918 0.36048 0.29231 0.0
C5955 C 0.68227 0.36206 0.29903 0.0
C5956 C 0.6897 0.36352 0.29963 0.0
C5957 C 0.69393 0.36335 0.29332 0.0
C5958 C 0.69083 0.36176 0.28661 0.0
H5959 H 0.67486 0.34082 0.28053 0.0
H5960 H 0.68109 0.34572 0.28619 0.0
H5961 H 0.67157 0.34744 0.28678 0.0
H5962 H 0.67343 0.35951 0.292 0.0
H5963 H 0.67882 0.36226 0.30373 0.0
H5964 H 0.91114 0.44931 0.54339 0.0
H5965 H 0.91368 0.44383 0.53167 0.0
H5966 H 0.91624 0.42311 0.54187 0.0
H5967 H 0.91345 0.4285 0.5536 0.0
H5968 H 0.92591 0.43666 0.52704 0.0
H5969 H 0.90216 0.41853 0.52565 0.0
H5970 H 0.90282 0.42578 0.53211 0.0
H5971 H 0.90751 0.41745 0.53364 0.0
C5972 C 0.91212 0.44356 0.54315 0.0
C5973 C 0.91202 0.43935 0.54947 0.0
C5974 C 0.91364 0.44045 0.53643 0.0
C5975 C 0.91505 0.43303 0.53585 0.0
C5976 C 0.91503 0.42882 0.54214 0.0
H5977 H 0.92519 0.40464 0.4997 0.0
H5978 H 0.92303 0.40994 0.51159 0.0
C5979 C 0.91351 0.43193 0.54887 0.0
C5980 C 0.91671 0.42978 0.52867 0.0
H5981 H 0.91102 0.41709 0.51655 0.0
C5982 C 0.92264 0.4324 0.52474 0.0
C5983 C 0.91245 0.4242 0.52565 0.0
C5984 C 0.90584 0.42136 0.52944 0.0
C5985 C 0.92449 0.42953 0.51795 0.0
C5986 C 0.92022 0.42398 0.51492 0.0
C5987 C 0.9143 0.42134 0.51886 0.0
C5988 C 0.92176 0.42084 0.50766 0.0
C5989 C 0.93111 0.43238 0.51416 0.0
C5990 C 0.92173 0.42518 0.50145 0.0
C5991 C 0.92295 0.42216 0.49462 0.0
C5992 C 0.92416 0.41471 0.49383 0.0
C5993 C 0.9242 0.41038 0.50007 0.0
C5994 C 0.92299 0.41341 0.50689 0.0
H5995 H 0.93485 0.43508 0.51798 0.0
H5996 H 0.93406 0.42798 0.51137 0.0
H5997 H 0.92945 0.43641 0.51007 0.0
H5998 H 0.92062 0.4309 0.50186 0.0
H5999 H 0.92275 0.42565 0.48994 0.0
H6000 H 0.82449 0.36188 0.73237 0.0
H6001 H 0.83008 0.35937 0.74403 0.0
H6002 H 0.85112 0.36044 0.7342 0.0
H6003 H 0.84559 0.36323 0.72255 0.0
H6004 H 0.83875 0.34808 0.74814 0.0
H6005 H 0.85346 0.37392 0.75132 0.0
H6006 H 0.84651 0.37267 0.74463 0.0
H6007 H 0.85545 0.36925 0.74307 0.0
C6008 C 0.83032 0.36171 0.73269 0.0
C6009 C 0.83457 0.36284 0.72649 0.0
C6010 C 0.8335 0.3602 0.73936 0.0
C6011 C 0.84103 0.35982 0.74004 0.0
C6012 C 0.84531 0.36085 0.73387 0.0
H6013 H 0.86999 0.35129 0.77608 0.0
H6014 H 0.86461 0.35344 0.76424 0.0
C6015 C 0.84212 0.36236 0.72717 0.0
C6016 C 0.84437 0.35819 0.74719 0.0
H6017 H 0.85599 0.36479 0.7599 0.0
C6018 C 0.8425 0.35175 0.75072 0.0
C6019 C 0.84927 0.36297 0.75058 0.0
C6020 C 0.85125 0.37012 0.74725 0.0
C6021 C 0.84548 0.3499 0.75745 0.0
C6022 C 0.85037 0.35468 0.76084 0.0
C6023 C 0.85225 0.36112 0.75731 0.0
C6024 C 0.85359 0.35314 0.76806 0.0
C6025 C 0.84347 0.34277 0.7608 0.0
C6026 C 0.84921 0.35229 0.77419 0.0
C6027 C 0.85228 0.35108 0.78099 0.0
C6028 C 0.85982 0.35076 0.78184 0.0
C6029 C 0.86418 0.35159 0.77567 0.0
C6030 C 0.86111 0.35279 0.76888 0.0
H6031 H 0.8413 0.33894 0.75674 0.0
H6032 H 0.84819 0.34024 0.76348 0.0
H6033 H 0.83924 0.34366 0.76494 0.0
H6034 H 0.8434 0.3527 0.77374 0.0
H6035 H 0.84874 0.35059 0.78562 0.0
H6036 H 0.9121 0.60814 0.03303 0.0
H6037 H 0.91007 0.60311 0.02103 0.0
H6038 H 0.93288 0.60404 0.01669 0.0
H6039 H 0.93501 0.6088 0.02881 0.0
H6040 H 0.91289 0.60879 1.00773 0.0
H6041 H 0.92831 0.58343 1.0112 0.0
H6042 H 0.92592 0.58915 0.0187 0.0
H6043 H 0.93348 0.59139 0.01304 0.0
C6044 C 0.91672 0.60717 0.02959 0.0
C6045 C 0.92374 0.60884 0.03197 0.0
C6046 C 0.91553 0.60434 0.02268 0.0
C6047 C 0.92132 0.60308 0.01797 0.0
C6048 C 0.92832 0.60482 0.02027 0.0
H6049 H 0.92494 0.58678 0.97401 0.0
H6050 H 0.92699 0.59213 0.98589 0.0
C6051 C 0.92952 0.60763 0.02719 0.0
C6052 C 0.91999 0.60008 1.0106 0.0
H6053 H 0.92427 0.58609 0.99935 0.0
C6054 C 0.91535 0.60381 1.00592 0.0
C6055 C 0.9232 0.59358 1.00821 0.0
C6056 C 0.92795 0.58911 0.01307 0.0
C6057 C 0.91394 0.6013 0.99889 0.0
C6058 C 0.91717 0.5948 0.99649 0.0
C6059 C 0.92181 0.59108 1.00117 0.0
C6060 C 0.91581 0.59176 0.98916 0.0
C6061 C 0.90914 0.6057 0.99403 0.0
C6062 C 0.90883 0.58974 0.98702 0.0
C6063 C 0.90763 0.58664 0.98022 0.0
C6064 C 0.9134 0.58543 0.97542 0.0
C6065 C 0.92037 0.58752 0.97758 0.0
C6066 C 0.92156 0.59062 0.98437 0.0
H6067 H 0.90865 0.61136 0.99594 0.0
H6068 H 0.91121 0.60574 0.98841 0.0
H6069 H 0.90366 0.6033 0.99399 0.0
H6070 H 0.90432 0.59042 0.99066 0.0
H6071 H 0.90221 0.585 0.97881 0.0
H6072 H 0.65992 0.68176 0.27696 0.0
H6073 H 0.66469 0.67962 0.26481 0.0
H6074 H 0.67866 0.66306 0.27316 0.0
H6075 H 0.67399 0.66519 0.2853 0.0
H6076 H 0.67885 0.6803 0.25932 0.0
H6077 H 0.6679 0.65259 0.25697 0.0
H6078 H 0.66495 0.65882 0.26386 0.0
H6079 H 0.6733 0.654 0.26488 0.0
C6080 C 0.66406 0.67771 0.27623 0.0
C6081 C 0.6665 0.6736 0.28214 0.0
C6082 C 0.66675 0.67646 0.26926 0.0
C6083 C 0.67193 0.67107 0.26803 0.0
C6084 C 0.67453 0.66711 0.27393 0.0
H6085 H 0.69583 0.65372 0.23184 0.0
H6086 H 0.69041 0.65657 0.24351 0.0
C6087 C 0.67185 0.66835 0.28089 0.0
C6088 C 0.67464 0.66957 0.26059 0.0
H6089 H 0.67624 0.65623 0.24794 0.0
C6090 C 0.67823 0.67506 0.2568 0.0
C6091 C 0.67383 0.66273 0.2573 0.0
C6092 C 0.66973 0.65671 0.26092 0.0
C6093 C 0.68124 0.67382 0.24993 0.0
C6094 C 0.68051 0.66695 0.24667 0.0
C6095 C 0.67683 0.6615 0.25043 0.0
C6096 C 0.68371 0.66522 0.23948 0.0
C6097 C 0.68538 0.67983 0.24632 0.0
C6098 C 0.68168 0.66903 0.23325 0.0
C6099 C 0.68481 0.66744 0.22655 0.0
C6100 C 0.69005 0.66197 0.2259 0.0
C6101 C 0.69193 0.65805 0.23213 0.0
C6102 C 0.68879 0.65965 0.23882 0.0
H6103 H 0.687 0.68407 0.25023 0.0
H6104 H 0.6903 0.67773 0.24362 0.0
H6105 H 0.68192 0.68238 0.24217 0.0
H6106 H 0.67766 0.67326 0.23357 0.0
H6107 H 0.68325 0.67061 0.2219 0.0
H6108 H 0.60529 0.44887 0.48078 0.0
H6109 H 0.60327 0.44331 0.49255 0.0
H6110 H 0.61524 0.42457 0.48579 0.0
H6111 H 0.61726 0.43008 0.47396 0.0
H6112 H 0.59637 0.43062 0.49612 0.0
H6113 H 0.62496 0.42961 0.50481 0.0
H6114 H 0.62201 0.43487 0.49718 0.0
H6115 H 0.62327 0.42529 0.49631 0.0
C6116 C 0.60747 0.44354 0.48176 0.0
C6117 C 0.61145 0.43994 0.47638 0.0
C6118 C 0.60633 0.44038 0.48853 0.0
C6119 C 0.60918 0.43356 0.49013 0.0
C6120 C 0.61312 0.42991 0.48477 0.0
H6121 H 0.60777 0.40565 0.5279 0.0
H6122 H 0.60952 0.41095 0.51596 0.0
C6123 C 0.61427 0.43307 0.47799 0.0
C6124 C 0.6079 0.43024 0.49735 0.0
H6125 H 0.61648 0.42363 0.51228 0.0
C6126 C 0.60077 0.42912 0.49967 0.0
C6127 C 0.61363 0.42827 0.502 0.0
C6128 C 0.6214 0.42962 0.5 0.0
C6129 C 0.59922 0.42598 0.50641 0.0
C6130 C 0.60495 0.42401 0.51105 0.0
C6131 C 0.61208 0.42512 0.50873 0.0
C6132 C 0.60368 0.42076 0.51831 0.0
C6133 C 0.59145 0.42465 0.50843 0.0
C6134 C 0.59984 0.42452 0.52367 0.0
C6135 C 0.59885 0.4215 0.53054 0.0
C6136 C 0.60173 0.41469 0.53225 0.0
C6137 C 0.60555 0.41095 0.52684 0.0
C6138 C 0.60654 0.41396 0.51998 0.0
H6139 H 0.58788 0.42465 0.50362 0.0
H6140 H 0.59083 0.41942 0.51127 0.0
H6141 H 0.5896 0.429 0.5121 0.0
H6142 H 0.59772 0.42984 0.52258 0.0
H6143 H 0.59598 0.4246 0.53458 0.0
H6144 H 0.73973 0.85085 0.66837 0.0
H6145 H 0.75168 0.84573 0.6661 0.0
H6146 H 0.76146 0.86331 0.67773 0.0
H6147 H 0.74952 0.86838 0.68017 0.0
H6148 H 0.7633 0.85216 0.65874 0.0
H6149 H 0.77085 0.84552 0.68694 0.0
H6150 H 0.76169 0.84748 0.68431 0.0
H6151 H 0.76805 0.85468 0.68554 0.0
C6152 C 0.74441 0.85358 0.67055 0.0
C6153 C 0.74363 0.86003 0.67449 0.0
C6154 C 0.75125 0.85066 0.6692 0.0
C6155 C 0.75748 0.85408 0.67181 0.0
C6156 C 0.75674 0.8605 0.67575 0.0
H6157 H 0.80348 0.84383 0.66868 0.0
H6158 H 0.79183 0.84961 0.67102 0.0
C6159 C 0.7499 0.86344 0.67708 0.0
C6160 C 0.76476 0.85103 0.6702 0.0
H6161 H 0.77993 0.84411 0.67806 0.0
C6162 C 0.76693 0.85038 0.66296 0.0
C6163 C 0.76952 0.84875 0.6757 0.0
C6164 C 0.76741 0.84907 0.68356 0.0
C6165 C 0.77373 0.84759 0.66109 0.0
C6166 C 0.77847 0.84522 0.66659 0.0
C6167 C 0.77632 0.84593 0.67383 0.0
C6168 C 0.78559 0.84184 0.66495 0.0
C6169 C 0.77584 0.84734 0.65323 0.0
C6170 C 0.78599 0.83553 0.66078 0.0
C6171 C 0.79265 0.83224 0.65939 0.0
C6172 C 0.79909 0.83515 0.66219 0.0
C6173 C 0.79867 0.84149 0.66635 0.0
C6174 C 0.79199 0.84477 0.66774 0.0
H6175 H 0.77265 0.85123 0.64997 0.0
H6176 H 0.78165 0.84855 0.6525 0.0
H6177 H 0.77478 0.84186 0.65109 0.0
H6178 H 0.78114 0.83307 0.65868 0.0
H6179 H 0.79275 0.82741 0.65612 0.0
H6180 H 0.24891 0.65971 0.34386 0.0
H6181 H 0.26101 0.66456 0.34601 0.0
H6182 H 0.25241 0.67893 0.36214 0.0
H6183 H 0.24032 0.67417 0.36 0.0
H6184 H 0.26645 0.67864 0.34497 0.0
H6185 H 0.26853 0.66861 0.37306 0.0
H6186 H 0.2617 0.66547 0.36688 0.0
H6187 H 0.26065 0.67397 0.37142 0.0
C6188 C 0.24957 0.66395 0.34782 0.0
C6189 C 0.24361 0.66648 0.3518 0.0
C6190 C 0.25651 0.66669 0.34907 0.0
C6191 C 0.25766 0.67201 0.35435 0.0
C6192 C 0.25171 0.67469 0.35818 0.0
H6193 H 0.29368 0.6965 0.37118 0.0
H6194 H 0.28203 0.69099 0.36844 0.0
C6195 C 0.24478 0.67196 0.35694 0.0
C6196 C 0.26507 0.67479 0.35583 0.0
H6197 H 0.27757 0.67685 0.36923 0.0
C6198 C 0.26891 0.6782 0.35026 0.0
C6199 C 0.2683 0.67421 0.36273 0.0
C6200 C 0.26462 0.67031 0.36885 0.0
C6201 C 0.27577 0.68124 0.35145 0.0
C6202 C 0.27895 0.68075 0.35838 0.0
C6203 C 0.27515 0.67725 0.36392 0.0
C6204 C 0.28613 0.68399 0.36005 0.0
C6205 C 0.27943 0.68517 0.34534 0.0
C6206 C 0.29238 0.6818 0.35636 0.0
C6207 C 0.29907 0.68499 0.35789 0.0
C6208 C 0.29968 0.69041 0.36318 0.0
C6209 C 0.29343 0.69244 0.36699 0.0
C6210 C 0.28675 0.68926 0.36545 0.0
H6211 H 0.27557 0.68665 0.34101 0.0
H6212 H 0.28211 0.69015 0.3473 0.0
H6213 H 0.28361 0.68162 0.34294 0.0
H6214 H 0.29209 0.67764 0.35228 0.0
H6215 H 0.30374 0.6833 0.35482 0.0
H6216 H 0.59179 0.05283 0.60497 0.0
H6217 H 0.5971 0.04103 0.60234 0.0
H6218 H 0.58435 0.03149 0.61928 0.0
H6219 H 0.57906 0.04325 0.62198 0.0
H6220 H 0.60494 0.03146 0.61096 0.0
H6221 H 0.5794 0.01885 0.60193 0.0
H6222 H 0.58038 0.02847 0.60304 0.0
H6223 H 0.57889 0.02279 0.61076 0.0
C6224 C 0.59016 0.04824 0.60819 0.0
C6225 C 0.58493 0.04902 0.61366 0.0
C6226 C 0.59318 0.04148 0.60665 0.0
C6227 C 0.59103 0.03532 0.6105 0.0
C6228 C 0.58597 0.03611 0.61609 0.0
H6229 H 0.60157 0.98978 0.61068 0.0
H6230 H 0.59675 1.00187 0.61276 0.0
C6231 C 0.58295 0.04286 0.61764 0.0
C6232 C 0.59408 0.02809 0.60872 0.0
H6233 H 0.58938 1.011 0.60359 0.0
C6234 C 0.60155 0.027 0.6093 0.0
C6235 C 0.58966 0.02226 0.60654 0.0
C6236 C 0.58164 0.02314 0.60546 0.0
C6237 C 0.60468 0.02021 0.60797 0.0
C6238 C 0.60025 0.01435 0.60587 0.0
C6239 C 0.59279 0.01547 0.60522 0.0
C6240 C 0.6032 1.00699 0.6045 0.0
C6241 C 0.61269 0.01931 0.60906 0.0
C6242 C 0.60836 1.00578 0.59907 0.0
C6243 C 0.61117 0.99885 0.59789 0.0
C6244 C 0.60887 0.99296 0.6021 0.0
C6245 C 0.60358 0.99418 0.60742 0.0
C6246 C 0.60078 1.0011 0.60859 0.0
H6247 H 0.61499 0.02372 0.6124 0.0
H6248 H 0.61392 0.01408 0.61169 0.0
H6249 H 0.61543 0.01941 0.60374 0.0
H6250 H 0.61022 1.0102 0.59573 0.0
H6251 H 0.61526 0.99815 0.59377 0.0
H6252 H 0.22211 0.34424 0.85522 0.0
H6253 H 0.23408 0.34923 0.85268 0.0
H6254 H 0.2436 0.33389 0.86729 0.0
H6255 H 0.2317 0.32876 0.86973 0.0
H6256 H 0.24429 0.35538 0.86209 0.0
H6257 H 0.25533 0.33097 0.84877 0.0
H6258 H 0.24581 0.3322 0.85039 0.0
H6259 H 0.25164 0.32936 0.85758 0.0
C6260 C 0.22675 0.34189 0.85786 0.0
C6261 C 0.22591 0.33606 0.86266 0.0
C6262 C 0.23359 0.34478 0.85642 0.0
C6263 C 0.23977 0.34187 0.8597 0.0
C6264 C 0.23894 0.33615 0.8646 0.0
H6265 H 0.28573 0.35063 0.85907 0.0
H6266 H 0.27357 0.34593 0.86103 0.0
C6267 C 0.23211 0.33327 0.86605 0.0
C6268 C 0.24706 0.34486 0.85806 0.0
H6269 H 0.26366 0.34033 0.85141 0.0
C6270 C 0.24851 0.3521 0.85971 0.0
C6271 C 0.25258 0.34059 0.85495 0.0
C6272 C 0.25127 0.33287 0.85275 0.0
C6273 C 0.25537 0.35514 0.85852 0.0
C6274 C 0.26091 0.35085 0.85546 0.0
C6275 C 0.25943 0.34362 0.85376 0.0
C6276 C 0.26832 0.35372 0.85413 0.0
C6277 C 0.25669 0.36284 0.86077 0.0
C6278 C 0.26947 0.3596 0.84948 0.0
C6279 C 0.27644 0.36234 0.84838 0.0
C6280 C 0.28242 0.35924 0.85188 0.0
C6281 C 0.28125 0.35325 0.85639 0.0
C6282 C 0.2743 0.35051 0.85748 0.0
H6283 H 0.25256 0.36476 0.86467 0.0
H6284 H 0.2621 0.36346 0.86325 0.0
H6285 H 0.25644 0.36636 0.85594 0.0
H6286 H 0.26498 0.36208 0.84671 0.0
H6287 H 0.2771 0.36698 0.8449 0.0
H6288 H 0.44591 0.48179 0.6218 0.0
H6289 H 0.4405 0.49347 0.619 0.0
H6290 H 0.42777 0.48361 0.60224 0.0
H6291 H 0.43322 0.4719 0.60495 0.0
H6292 H 0.44105 0.50095 0.60592 0.0
H6293 H 0.4127 0.4951 0.61361 0.0
H6294 H 0.42013 0.48944 0.61634 0.0
H6295 H 0.41662 0.48884 0.60733 0.0
C6296 C 0.44197 0.48208 0.6175 0.0
C6297 C 0.44002 0.47586 0.6136 0.0
C6298 C 0.43885 0.48878 0.61593 0.0
C6299 C 0.43367 0.48943 0.61046 0.0
C6300 C 0.43165 0.48324 0.60659 0.0
H6301 H 0.40992 0.52685 0.59393 0.0
H6302 H 0.41499 0.51478 0.59575 0.0
C6303 C 0.43477 0.47653 0.60816 0.0
C6304 C 0.43062 0.49665 0.60864 0.0
H6305 H 0.41495 0.50636 0.60805 0.0
C6306 C 0.43534 0.50213 0.6064 0.0
C6307 C 0.42316 0.49819 0.60921 0.0
C6308 C 0.41785 0.49261 0.61181 0.0
C6309 C 0.43282 0.50908 0.60468 0.0
C6310 C 0.42539 0.51067 0.60537 0.0
C6311 C 0.42064 0.50516 0.60752 0.0
C6312 C 0.42245 0.51805 0.60409 0.0
C6313 C 0.43816 0.51462 0.60202 0.0
C6314 C 0.42492 0.52393 0.60818 0.0
C6315 C 0.42207 0.53084 0.60712 0.0
C6316 C 0.41663 0.53205 0.60197 0.0
C6317 C 0.41417 0.52615 0.59786 0.0
C6318 C 0.41703 0.51923 0.59894 0.0
H6319 H 0.44306 0.51204 0.59975 0.0
H6320 H 0.43573 0.51814 0.59783 0.0
H6321 H 0.43986 0.51806 0.60662 0.0
H6322 H 0.429 0.52316 0.61228 0.0
H6323 H 0.42415 0.53524 0.61034 0.0
H6324 H 0.73123 0.19645 0.15581 0.0
H6325 H 0.74309 0.19123 0.15826 0.0
H6326 H 0.73357 0.17681 0.1738 0.0
H6327 H 0.72166 0.18187 0.17126 0.0
H6328 H 0.75049 0.19084 0.17147 0.0
H6329 H 0.74557 0.16317 0.16116 0.0
H6330 H 0.73973 0.17066 0.15903 0.0
H6331 H 0.7391 0.16629 0.16766 0.0
C6332 C 0.73162 0.19208 0.15966 0.0
C6333 C 0.72545 0.18956 0.1633 0.0
C6334 C 0.73843 0.18914 0.1611 0.0
C6335 C 0.73923 0.18357 0.16615 0.0
C6336 C 0.73309 0.18102 0.16979 0.0
H6337 H 0.77662 0.15934 0.18167 0.0
H6338 H 0.76455 0.16437 0.17984 0.0
C6339 C 0.72628 0.18398 0.16838 0.0
C6340 C 0.74653 0.18058 0.16777 0.0
H6341 H 0.75661 0.16515 0.16723 0.0
C6342 C 0.75184 0.18522 0.17052 0.0
C6343 C 0.74828 0.17325 0.16657 0.0
C6344 C 0.7429 0.16805 0.16339 0.0
C6345 C 0.75881 0.18273 0.17218 0.0
C6346 C 0.76059 0.17541 0.17092 0.0
C6347 C 0.75526 0.17075 0.16821 0.0
C6348 C 0.76798 0.17252 0.17222 0.0
C6349 C 0.76415 0.18794 0.17542 0.0
C6350 C 0.77395 0.17538 0.16854 0.0
C6351 C 0.78087 0.17254 0.16961 0.0
C6352 C 0.78199 0.16672 0.17436 0.0
C6353 C 0.776 0.16388 0.17805 0.0
C6354 C 0.76907 0.16672 0.17697 0.0
H6355 H 0.76142 0.19262 0.17796 0.0
H6356 H 0.76757 0.18525 0.17953 0.0
H6357 H 0.76772 0.19003 0.17109 0.0
H6358 H 0.77326 0.17976 0.16474 0.0
H6359 H 0.78534 0.17492 0.16671 0.0
H6360 H 0.57866 0.98199 0.90426 0.0
H6361 H 0.5841 0.99367 0.90703 0.0
H6362 H 0.59778 0.9836 0.92288 0.0
H6363 H 0.59231 0.97189 0.92019 0.0
H6364 H 0.58419 1.00089 0.92026 0.0
H6365 H 0.61214 0.99544 0.911 0.0
H6366 H 0.60463 0.98977 0.90854 0.0
H6367 H 0.60861 0.98903 0.91734 0.0
C6368 C 0.58282 0.98224 0.90835 0.0
C6369 C 0.58502 0.97596 0.912 0.0
C6370 C 0.58595 0.98893 0.9099 0.0
C6371 C 0.59141 0.98953 0.91511 0.0
C6372 C 0.59368 0.98327 0.91873 0.0
H6373 H 0.61572 0.02678 0.93122 0.0
H6374 H 0.61063 0.01472 0.92939 0.0
C6375 C 0.59055 0.97656 0.91718 0.0
C6376 C 0.5945 0.99674 0.91692 0.0
H6377 H 0.61011 1.00656 0.91692 0.0
C6378 C 0.58986 1.00213 0.91952 0.0
C6379 C 0.6019 0.99836 0.916 0.0
C6380 C 0.60712 0.99288 0.91301 0.0
C6381 C 0.59241 1.00906 0.92126 0.0
C6382 C 0.59979 1.01073 0.92023 0.0
C6383 C 0.60445 1.0053 0.91772 0.0
C6384 C 0.60273 0.01811 0.92152 0.0
C6385 C 0.58717 0.0145 0.9243 0.0
C6386 C 0.60002 0.02405 0.91769 0.0
C6387 C 0.60288 0.03096 0.91876 0.0
C6388 C 0.60857 0.03211 0.92365 0.0
C6389 C 0.61127 0.02614 0.92749 0.0
C6390 C 0.60841 0.01922 0.92641 0.0
H6391 H 0.58241 1.01184 0.92677 0.0
H6392 H 0.58979 0.01795 0.92844 0.0
H6393 H 0.58522 0.01802 0.91988 0.0
H6394 H 0.59574 0.02334 0.91379 0.0
H6395 H 0.6006 0.03541 0.91575 0.0
H6396 H 0.90502 0.99938 0.42368 0.0
H6397 H 0.91049 1.01116 0.42142 0.0
H6398 H 0.93164 1.00164 0.42269 0.0
H6399 H 0.92622 0.98979 0.42473 0.0
H6400 H 0.91998 0.01933 0.42962 0.0
H6401 H 0.93243 1.01211 0.40337 0.0
H6402 H 0.92572 1.00654 0.40768 0.0
H6403 H 0.93493 1.00626 0.41067 0.0
C6404 C 0.91084 0.99976 0.42341 0.0
C6405 C 0.91516 0.99358 0.42432 0.0
C6406 C 0.91396 1.00653 0.42217 0.0
C6407 C 0.92148 1.00729 0.42175 0.0
C6408 C 0.92582 1.00118 0.42284 0.0
H6409 H 0.95056 0.04332 0.41396 0.0
H6410 H 0.94505 0.03163 0.41652 0.0
C6411 C 0.92271 0.99441 0.4241 0.0
C6412 C 0.92476 0.01448 0.42021 0.0
H6413 H 0.93555 0.0235 0.40826 0.0
C6414 C 0.92336 0.02025 0.42493 0.0
C6415 C 0.92917 0.01571 0.41409 0.0
C6416 C 0.93061 1.00985 0.40862 0.0
C6417 C 0.92636 0.02713 0.42378 0.0
C6418 C 0.93078 0.02834 0.41767 0.0
C6419 C 0.93218 0.02258 0.41295 0.0
C6420 C 0.93407 0.03552 0.4161 0.0
C6421 C 0.9249 0.033 0.42923 0.0
C6422 C 0.92975 0.04163 0.4149 0.0
C6423 C 0.93289 0.04834 0.41338 0.0
C6424 C 0.94044 0.0491 0.41297 0.0
C6425 C 0.94474 0.04295 0.41412 0.0
C6426 C 0.94159 0.03625 0.41563 0.0
H6427 H 0.92303 0.03077 0.43446 0.0
H6428 H 0.9298 0.0363 0.43019 0.0
H6429 H 0.92062 0.0366 0.42713 0.0
H6430 H 0.92393 0.04119 0.41506 0.0
H6431 H 0.92939 0.05291 0.41241 0.0
H6432 H 0.35506 0.22322 0.18409 0.0
H6433 H 0.3526 0.23492 0.17849 0.0
H6434 H 0.37022 0.24434 0.19035 0.0
H6435 H 0.37288 0.23264 0.19576 0.0
H6436 H 0.3488 0.24773 0.18497 0.0
H6437 H 0.37444 0.25124 0.17006 0.0
H6438 H 0.37175 0.2427 0.17386 0.0
H6439 H 0.37575 0.24952 0.17948 0.0
C6440 C 0.35851 0.22774 0.18541 0.0
C6441 C 0.3642 0.22694 0.19038 0.0
C6442 C 0.35705 0.23445 0.18224 0.0
C6443 C 0.36128 0.24052 0.18391 0.0
C6444 C 0.36696 0.23973 0.18885 0.0
H6445 H 0.3612 0.28619 0.17401 0.0
H6446 H 0.36325 0.27407 0.17875 0.0
C6447 C 0.36842 0.23304 0.19201 0.0
C6448 C 0.3596 0.24771 0.18071 0.0
H6449 H 0.36695 0.26163 0.1711 0.0
C6450 C 0.35275 0.25074 0.18188 0.0
C6451 C 0.36474 0.25167 0.17667 0.0
C6452 C 0.37206 0.24859 0.17487 0.0
C6453 C 0.35099 0.25767 0.17933 0.0
C6454 C 0.35617 0.26166 0.17539 0.0
C6455 C 0.36299 0.2586 0.17414 0.0
C6456 C 0.3547 0.26907 0.17261 0.0
C6457 C 0.34366 0.26075 0.18106 0.0
C6458 C 0.34921 0.27033 0.16755 0.0
C6459 C 0.34803 0.27728 0.16478 0.0
C6460 C 0.35235 0.28312 0.16698 0.0
C6461 C 0.35782 0.28183 0.1721 0.0
C6462 C 0.35899 0.27489 0.17485 0.0
H6463 H 0.341 0.25781 0.18555 0.0
H6464 H 0.34406 0.26654 0.18253 0.0
H6465 H 0.34015 0.26029 0.17623 0.0
H6466 H 0.34591 0.26592 0.16561 0.0
H6467 H 0.34385 0.27802 0.16078 0.0
H6468 H 0.54348 0.62008 0.94736 0.0
H6469 H 0.53158 0.61766 0.94223 0.0
H6470 H 0.54108 0.60277 0.92711 0.0
H6471 H 0.55301 0.60516 0.93221 0.0
H6472 H 0.52635 0.61952 0.9285 0.0
H6473 H 0.52519 0.59057 0.9359 0.0
H6474 H 0.53187 0.59662 0.93956 0.0
H6475 H 0.53295 0.59298 0.93063 0.0
C6476 C 0.54306 0.61633 0.9429 0.0
C6477 C 0.54923 0.61279 0.94024 0.0
C6478 C 0.53624 0.61493 0.93999 0.0
C6479 C 0.53539 0.60993 0.93436 0.0
C6480 C 0.54155 0.6065 0.93158 0.0
H6481 H 0.49794 0.59498 0.90986 0.0
H6482 H 0.51007 0.59706 0.91467 0.0
C6483 C 0.54838 0.60789 0.9345 0.0
C6484 C 0.52808 0.60841 0.93135 0.0
H6485 H 0.51579 0.59495 0.92844 0.0
C6486 C 0.52404 0.61415 0.92852 0.0
C6487 C 0.52504 0.60139 0.93134 0.0
C6488 C 0.52895 0.59504 0.93458 0.0
C6489 C 0.51712 0.61307 0.9256 0.0
C6490 C 0.51406 0.60607 0.92563 0.0
C6491 C 0.51812 0.60031 0.92841 0.0
C6492 C 0.50665 0.60463 0.92286 0.0
C6493 C 0.51319 0.61943 0.92239 0.0
C6494 C 0.50064 0.60805 0.92596 0.0
C6495 C 0.4937 0.60685 0.92325 0.0
C6496 C 0.49257 0.60216 0.91738 0.0
C6497 C 0.49858 0.59858 0.91441 0.0
C6498 C 0.50553 0.5998 0.91713 0.0
H6499 H 0.51695 0.62388 0.92099 0.0
H6500 H 0.51019 0.61783 0.91746 0.0
H6501 H 0.50926 0.62153 0.92638 0.0
H6502 H 0.50132 0.61166 0.93051 0.0
H6503 H 0.4892 0.60958 0.92578 0.0
H6504 H 0.17 0.749 0.65597 0.0
H6505 H 0.16802 0.7609 0.66128 0.0
H6506 H 0.17482 0.75286 0.68199 0.0
H6507 H 0.17677 0.74091 0.67674 0.0
H6508 H 0.15872 0.76477 0.67236 0.0
H6509 H 0.18697 0.77108 0.67983 0.0
H6510 H 0.18467 0.76385 0.67373 0.0
H6511 H 0.18374 0.76265 0.68331 0.0
C6512 C 0.17106 0.74974 0.66167 0.0
C6513 C 0.17355 0.74395 0.66592 0.0
C6514 C 0.16996 0.75657 0.66469 0.0
C6515 C 0.17135 0.75783 0.67202 0.0
C6516 C 0.17386 0.75208 0.67629 0.0
H6517 H 0.16667 0.79447 0.70089 0.0
H6518 H 0.16887 0.78274 0.69531 0.0
C6519 C 0.17497 0.74524 0.67327 0.0
C6520 C 0.16995 0.76507 0.67524 0.0
H6521 H 0.17796 0.77905 0.68421 0.0
C6522 C 0.16293 0.76791 0.67492 0.0
C6523 C 0.17544 0.76918 0.67859 0.0
C6524 C 0.18314 0.76658 0.67885 0.0
C6525 C 0.16123 0.77465 0.67798 0.0
C6526 C 0.16672 0.77876 0.68134 0.0
C6527 C 0.17374 0.77592 0.68164 0.0
C6528 C 0.16529 0.78594 0.68468 0.0
C6529 C 0.15352 0.77722 0.67776 0.0
C6530 C 0.16259 0.79171 0.68057 0.0
C6531 C 0.16134 0.79847 0.68376 0.0
C6532 C 0.16283 0.79963 0.69111 0.0
C6533 C 0.16556 0.79383 0.6952 0.0
C6534 C 0.16679 0.78709 0.69202 0.0
H6535 H 0.1497 0.7727 0.67678 0.0
H6536 H 0.15199 0.77993 0.68288 0.0
H6537 H 0.15289 0.78115 0.6733 0.0
H6538 H 0.16155 0.79103 0.67487 0.0
H6539 H 0.15935 0.80282 0.68042 0.0
H6540 H 0.02774 0.43295 0.4128 0.0
H6541 H 0.01568 0.43116 0.4179 0.0
H6542 H 0.02254 0.41097 0.42712 0.0
H6543 H 0.03464 0.41282 0.42227 0.0
H6544 H 1.00601 0.42008 0.41531 0.0
H6545 H 0.01315 0.42076 0.44432 0.0
H6546 H 0.01924 0.4238 0.43736 0.0
H6547 H 0.01831 0.41433 0.43925 0.0
C6548 C 0.02673 0.42819 0.41602 0.0
C6549 C 0.0322 0.42304 0.41712 0.0
C6550 C 0.0198 0.42714 0.41889 0.0
C6551 C 0.0182 0.42097 0.42298 0.0
C6552 C 0.02365 0.41584 0.4241 0.0
H6553 H 0.98019 0.40279 0.44363 0.0
H6554 H 0.99211 0.40512 0.43845 0.0
C6555 C 0.03056 0.41687 0.42124 0.0
C6556 C 1.01079 0.41976 0.42588 0.0
H6557 H 1.00136 0.4166 0.44143 0.0
C6558 C 1.00498 0.41937 0.42103 0.0
C6559 C 1.00943 0.41882 0.43334 0.0
C6560 C 0.01535 0.41952 0.43888 0.0
C6561 C 0.99792 0.4179 0.42341 0.0
C6562 C 0.99658 0.41689 0.43086 0.0
C6563 C 1.00238 0.41733 0.43572 0.0
C6564 C 0.98922 0.41539 0.43375 0.0
C6565 C 0.99199 0.41723 0.41789 0.0
C6566 C 0.98361 0.42038 0.43286 0.0
C6567 C 0.97676 0.41905 0.43578 0.0
C6568 C 0.97537 0.41269 0.4397 0.0
C6569 C 0.98101 0.40768 0.44056 0.0
C6570 C 0.98786 0.40903 0.43765 0.0
H6571 H 0.99416 0.41627 0.41239 0.0
H6572 H 0.98825 0.41277 0.41929 0.0
H6573 H 0.98885 0.42232 0.41776 0.0
H6574 H 0.98454 0.42538 0.42999 0.0
H6575 H 0.97255 0.42301 0.43497 0.0
H6576 H 0.357 0.79509 0.32519 0.0
H6577 H 0.3544 0.78343 0.33075 0.0
H6578 H 0.3661 0.78984 0.34978 0.0
H6579 H 0.36877 0.80152 0.34424 0.0
H6580 H 0.36383 0.77293 0.33539 0.0
H6581 H 0.34717 0.78262 0.35829 0.0
H6582 H 0.3494 0.78827 0.35069 0.0
H6583 H 0.35589 0.78677 0.35772 0.0
C6584 C 0.35906 0.79402 0.33055 0.0
C6585 C 0.36312 0.79928 0.33425 0.0
C6586 C 0.35753 0.78735 0.33374 0.0
C6587 C 0.35996 0.78576 0.34073 0.0
C6588 C 0.36401 0.79098 0.34445 0.0
H6589 H 0.35803 0.74792 0.36838 0.0
H6590 H 0.36005 0.75978 0.363 0.0
C6591 C 0.36555 0.79767 0.34126 0.0
C6592 C 0.35843 0.77856 0.344 0.0
H6593 H 0.35044 0.77024 0.35841 0.0
C6594 C 0.36087 0.77235 0.34041 0.0
C6595 C 0.35458 0.77778 0.35055 0.0
C6596 C 0.35154 0.7842 0.35452 0.0
C6597 C 0.35968 0.76541 0.34324 0.0
C6598 C 0.35583 0.76462 0.3498 0.0
C6599 C 0.35339 0.77083 0.35339 0.0
C6600 C 0.3544 0.75741 0.35308 0.0
C6601 C 0.36274 0.75899 0.33928 0.0
C6602 C 0.35043 0.75213 0.34937 0.0
C6603 C 0.34929 0.7453 0.35242 0.0
C6604 C 0.35209 0.74359 0.35927 0.0
C6605 C 0.35591 0.74897 0.36304 0.0
C6606 C 0.35703 0.75579 0.35999 0.0
H6607 H 0.36707 0.76059 0.33546 0.0
H6608 H 0.36496 0.75496 0.34312 0.0
H6609 H 0.35839 0.75636 0.33613 0.0
H6610 H 0.34821 0.75328 0.34409 0.0
H6611 H 0.34635 0.7413 0.34933 0.0
H6612 H 0.03563 0.61129 0.10197 0.0
H6613 H 0.02351 0.61331 0.09724 0.0
H6614 H 0.01556 0.59543 0.10977 0.0
H6615 H 0.02764 0.59352 0.11474 0.0
H6616 H 0.01463 0.60448 0.08935 0.0
H6617 H 1.0016 0.61137 0.11543 0.0
H6618 H 1.01126 0.61092 0.11438 0.0
H6619 H 1.00608 0.60279 0.11534 0.0
C6620 C 0.0313 0.60782 0.1038 0.0
C6621 C 0.03264 0.60228 0.10882 0.0
C6622 C 0.02437 0.60896 0.10104 0.0
C6623 C 0.01857 0.60462 0.10324 0.0
C6624 C 0.0199 0.59896 0.10811 0.0
H6625 H 0.97282 0.60476 0.09138 0.0
H6626 H 0.98461 0.60202 0.09664 0.0
C6627 C 0.02684 0.59782 0.11088 0.0
C6628 C 1.01118 0.60598 0.10034 0.0
H6629 H 0.99394 0.61039 0.10526 0.0
C6630 C 1.01012 0.60578 0.09284 0.0
C6631 C 1.00526 0.60767 0.10487 0.0
C6632 C 1.00609 0.60827 0.11295 0.0
C6633 C 1.00332 0.60717 0.08976 0.0
C6634 C 0.99742 0.60893 0.09429 0.0
C6635 C 0.99845 0.60904 0.10179 0.0
C6636 C 0.99018 0.61078 0.09131 0.0
C6637 C 1.0025 0.60661 0.08168 0.0
C6638 C 0.98932 0.61672 0.0867 0.0
C6639 C 0.98257 0.61833 0.08372 0.0
C6640 C 0.97649 0.61406 0.08529 0.0
C6641 C 0.97734 0.60822 0.09008 0.0
C6642 C 0.9841 0.60662 0.09307 0.0
H6643 H 1.00689 0.60337 0.07922 0.0
H6644 H 0.99724 0.60415 0.08023 0.0
H6645 H 1.00271 0.6121 0.07931 0.0
H6646 H 0.99388 0.62013 0.0854 0.0
H6647 H 0.98212 0.62296 0.08019 0.0
H6648 H 0.1531 0.232 0.82874 0.0
H6649 H 0.15592 0.24368 0.83418 0.0
H6650 H 0.17264 0.23378 0.8469 0.0
H6651 H 0.17001 0.22211 0.84132 0.0
H6652 H 0.15565 0.24812 0.84843 0.0
H6653 H 0.18337 0.25043 0.83737 0.0
H6654 H 0.17698 0.24384 0.83412 0.0
H6655 H 0.18175 0.24233 0.84242 0.0
C6656 C 0.15743 0.2323 0.83265 0.0
C6657 C 0.16137 0.22608 0.83453 0.0
C6658 C 0.159 0.23899 0.83579 0.0
C6659 C 0.16458 0.23966 0.84086 0.0
C6660 C 0.16841 0.23344 0.84289 0.0
H6661 H 0.18193 0.27626 0.86502 0.0
H6662 H 0.1793 0.2643 0.86006 0.0
C6663 C 0.16684 0.22674 0.83976 0.0
C6664 C 0.16632 0.24684 0.84405 0.0
H6665 H 0.17976 0.25937 0.84576 0.0
C6666 C 0.16092 0.25058 0.84783 0.0
C6667 C 0.1732 0.25008 0.84328 0.0
C6668 C 0.17915 0.24651 0.83902 0.0
C6669 C 0.16222 0.25739 0.85092 0.0
C6670 C 0.16908 0.26064 0.85012 0.0
C6671 C 0.1745 0.25689 0.84638 0.0
C6672 C 0.17072 0.26795 0.85306 0.0
C6673 C 0.15627 0.26098 0.85515 0.0
C6674 C 0.16687 0.27403 0.8507 0.0
C6675 C 0.16835 0.28087 0.85354 0.0
C6676 C 0.17374 0.28183 0.8588 0.0
C6677 C 0.17768 0.27574 0.86106 0.0
C6678 C 0.1762 0.26889 0.8582 0.0
H6679 H 0.1521 0.25705 0.85689 0.0
H6680 H 0.15843 0.26375 0.85999 0.0
H6681 H 0.15361 0.26508 0.85169 0.0
H6682 H 0.1627 0.27348 0.84665 0.0
H6683 H 0.16516 0.28541 0.85171 0.0
H6684 H 0.5437 0.40165 0.58009 0.0
H6685 H 0.53196 0.40446 0.58543 0.0
H6686 H 0.54124 0.42274 0.59636 0.0
H6687 H 0.55296 0.4201 0.59088 0.0
H6688 H 0.52774 0.4054 0.59979 0.0
H6689 H 0.524 0.43173 0.58607 0.0
H6690 H 0.5308 0.42533 0.58333 0.0
H6691 H 0.53224 0.43097 0.59108 0.0
C6692 C 0.54324 0.40631 0.58358 0.0
C6693 C 0.5493 0.41068 0.585 0.0
C6694 C 0.53653 0.40789 0.58667 0.0
C6695 C 0.53566 0.41389 0.5912 0.0
C6696 C 0.54172 0.41817 0.59277 0.0
H6697 H 0.49864 0.43208 0.61409 0.0
H6698 H 0.51063 0.42946 0.60921 0.0
C6699 C 0.54845 0.41659 0.58969 0.0
C6700 C 0.52845 0.41562 0.59433 0.0
H6701 H 0.51534 0.42859 0.59494 0.0
C6702 C 0.52502 0.41047 0.59871 0.0
C6703 C 0.52489 0.42223 0.59294 0.0
C6704 C 0.52813 0.42787 0.58805 0.0
C6705 C 0.51821 0.41177 0.6018 0.0
C6706 C 0.51463 0.41837 0.60038 0.0
C6707 C 0.51807 0.42354 0.59604 0.0
C6708 C 0.5073 0.41998 0.60329 0.0
C6709 C 0.51497 0.40613 0.60669 0.0
C6710 C 0.50138 0.4156 0.60151 0.0
C6711 C 0.49452 0.41707 0.60432 0.0
C6712 C 0.49339 0.42298 0.60896 0.0
C6713 C 0.49931 0.42743 0.61063 0.0
C6714 C 0.50618 0.42596 0.6078 0.0
H6715 H 0.51913 0.40237 0.60878 0.0
H6716 H 0.51215 0.40866 0.61133 0.0
H6717 H 0.51098 0.40292 0.6036 0.0
H6718 H 0.50207 0.41103 0.59794 0.0
H6719 H 0.49013 0.41348 0.60295 0.0
H6720 H 0.15745 0.35931 0.27835 0.0
H6721 H 0.16256 0.36121 0.26635 0.0
H6722 H 0.18027 0.34713 0.27159 0.0
H6723 H 0.17521 0.34521 0.28365 0.0
H6724 H 0.17565 0.36707 0.26267 0.0
H6725 H 0.17374 0.33911 0.25224 0.0
H6726 H 0.16906 0.34203 0.26026 0.0
H6727 H 0.1785 0.33985 0.26064 0.0
C6728 C 0.16245 0.35662 0.27698 0.0
C6729 C 0.16591 0.35211 0.28201 0.0
C6730 C 0.16534 0.35769 0.27008 0.0
C6731 C 0.17176 0.35425 0.268 0.0
C6732 C 0.17523 0.34972 0.27299 0.0
H6733 H 0.19927 0.35578 0.23005 0.0
H6734 H 0.19365 0.35343 0.24174 0.0
C6735 C 0.17233 0.34863 0.2799 0.0
C6736 C 0.17493 0.35565 0.26073 0.0
H6737 H 0.18038 0.34744 0.24512 0.0
C6738 C 0.17665 0.36278 0.25882 0.0
C6739 C 0.17624 0.35006 0.25569 0.0
C6740 C 0.17423 0.34234 0.25726 0.0
C6741 C 0.17976 0.36445 0.25209 0.0
C6742 C 0.18109 0.35886 0.24706 0.0
C6743 C 0.17936 0.35173 0.24896 0.0
C6744 C 0.18441 0.36028 0.23986 0.0
C6745 C 0.18178 0.37217 0.25053 0.0
C6746 C 0.18105 0.36483 0.23482 0.0
C6747 C 0.18429 0.36624 0.22812 0.0
C6748 C 0.19096 0.3631 0.22629 0.0
C6749 C 0.19422 0.35842 0.2313 0.0
C6750 C 0.19098 0.35702 0.23798 0.0
H6751 H 0.18213 0.37544 0.25554 0.0
H6752 H 0.18703 0.37248 0.24766 0.0
H6753 H 0.1776 0.37462 0.24702 0.0
H6754 H 0.17591 0.36731 0.23606 0.0
H6755 H 0.18162 0.36989 0.22443 0.0
H6756 H 0.41523 0.40821 0.02936 0.0
H6757 H 0.41305 0.41328 0.01739 0.0
H6758 H 0.42943 0.42933 0.02116 0.0
H6759 H 0.43185 0.42411 0.03303 0.0
H6760 H 0.4085 0.4267 0.01356 0.0
H6761 H 0.43543 0.42162 1.00163 0.0
H6762 H 0.43256 0.41753 1.00998 0.0
H6763 H 0.43576 0.42669 1.00987 0.0
C6764 C 0.41847 0.41274 0.02761 0.0
C6765 C 0.42377 0.41569 0.03218 0.0
C6766 C 0.41717 0.41568 0.02077 0.0
C6767 C 0.42115 0.42162 0.01829 0.0
C6768 C 0.42639 0.42465 0.02286 0.0
H6769 H 0.42038 0.44867 0.98007 0.0
H6770 H 0.42271 0.44295 0.99171 0.0
C6771 C 0.4277 0.4217 0.0297 0.0
C6772 C 0.41966 0.42477 1.01102 0.0
H6773 H 0.42751 0.42911 0.99489 0.0
C6774 C 0.41265 0.42718 1.00946 0.0
C6775 C 0.42506 0.42541 1.00565 0.0
C6776 C 0.43261 0.42262 1.00682 0.0
C6777 C 0.41094 0.43034 1.00277 0.0
C6778 C 0.41635 0.43103 0.99743 0.0
C6779 C 0.42335 0.42859 0.99897 0.0
C6780 C 0.41491 0.43441 0.99027 0.0
C6781 C 0.40339 0.43311 1.00157 0.0
C6782 C 0.40981 0.43147 0.98549 0.0
C6783 C 0.40842 0.43477 0.97882 0.0
C6784 C 0.41211 0.44108 0.97676 0.0
C6785 C 0.41732 0.44391 0.98151 0.0
C6786 C 0.41871 0.44061 0.98816 0.0
H6787 H 0.40042 0.43381 1.00673 0.0
H6788 H 0.40346 0.43835 0.99868 0.0
H6789 H 0.40037 0.42918 0.99822 0.0
H6790 H 0.40691 0.42661 0.98691 0.0
H6791 H 0.40437 0.43244 0.97533 0.0
H6792 H 0.32809 0.65327 0.73224 0.0
H6793 H 0.33352 0.65601 0.74393 0.0
H6794 H 0.34669 0.67239 0.73401 0.0
H6795 H 0.34111 0.66986 0.72232 0.0
H6796 H 0.34768 0.65537 0.7484 0.0
H6797 H 0.33747 0.68342 0.75063 0.0
H6798 H 0.33408 0.67714 0.74403 0.0
H6799 H 0.34254 0.68162 0.74257 0.0
C6800 C 0.33209 0.65751 0.73254 0.0
C6801 C 0.33409 0.66138 0.72631 0.0
C6802 C 0.33523 0.65904 0.73923 0.0
C6803 C 0.34043 0.6645 0.7399 0.0
C6804 C 0.34258 0.66826 0.73368 0.0
H6805 H 0.36447 0.68072 0.77727 0.0
H6806 H 0.35964 0.67861 0.76515 0.0
C6807 C 0.33944 0.66673 0.72697 0.0
C6808 C 0.34363 0.66617 0.74711 0.0
H6809 H 0.34553 0.67951 0.75972 0.0
C6810 C 0.34719 0.66065 0.75087 0.0
C6811 C 0.34303 0.67306 0.75035 0.0
C6812 C 0.33902 0.67914 0.74673 0.0
C6813 C 0.3502 0.66184 0.75774 0.0
C6814 C 0.34953 0.6687 0.76102 0.0
C6815 C 0.34605 0.67425 0.75722 0.0
C6816 C 0.35229 0.67017 0.76844 0.0
C6817 C 0.35419 0.65575 0.76137 0.0
C6818 C 0.34964 0.66628 0.77437 0.0
C6819 C 0.35236 0.6675 0.78131 0.0
C6820 C 0.35778 0.67268 0.78251 0.0
C6821 C 0.36027 0.67672 0.77658 0.0
C6822 C 0.35754 0.6755 0.76963 0.0
H6823 H 0.35594 0.65159 0.75742 0.0
H6824 H 0.359 0.65777 0.76429 0.0
H6825 H 0.35056 0.65312 0.76533 0.0
H6826 H 0.34545 0.66228 0.77363 0.0
H6827 H 0.35018 0.66439 0.78575 0.0
H6828 H 0.10524 0.59122 0.47275 0.0
H6829 H 0.10272 0.59677 0.48448 0.0
H6830 H 0.12085 0.58556 0.4937 0.0
H6831 H 0.12356 0.5802 0.48197 0.0
H6832 H 0.09931 0.59021 0.49737 0.0
H6833 H 0.12446 0.60601 0.50047 0.0
H6834 H 0.12178 0.60208 0.49198 0.0
H6835 H 0.12607 0.59663 0.49875 0.0
C6836 C 0.10878 0.59004 0.47724 0.0
C6837 C 0.11462 0.58526 0.47637 0.0
C6838 C 0.10729 0.59317 0.48397 0.0
C6839 C 0.11165 0.59167 0.48998 0.0
C6840 C 0.11749 0.58692 0.48913 0.0
H6841 H 0.11186 0.60167 0.53563 0.0
H6842 H 0.11388 0.59697 0.52347 0.0
C6843 C 0.11898 0.58379 0.48242 0.0
C6844 C 0.10995 0.59484 0.49719 0.0
H6845 H 0.11715 0.60475 0.51098 0.0
C6846 C 0.10319 0.59345 0.50032 0.0
C6847 C 0.115 0.59907 0.50105 0.0
C6848 C 0.12221 0.6011 0.49787 0.0
C6849 C 0.10143 0.59597 0.50727 0.0
C6850 C 0.10652 0.60009 0.51118 0.0
C6851 C 0.11325 0.60156 0.50801 0.0
C6852 C 0.10506 0.60283 0.51861 0.0
C6853 C 0.09421 0.594 0.51047 0.0
C6854 C 0.09943 0.60772 0.51996 0.0
C6855 C 0.09827 0.61046 0.52692 0.0
C6856 C 0.10276 0.60841 0.5327 0.0
C6857 C 0.10836 0.60346 0.53132 0.0
C6858 C 0.10951 0.60074 0.52436 0.0
H6859 H 0.09166 0.58942 0.50756 0.0
H6860 H 0.09475 0.59255 0.51625 0.0
H6861 H 0.09054 0.59871 0.51008 0.0
H6862 H 0.09601 0.60954 0.51559 0.0
H6863 H 0.09399 0.61433 0.52774 0.0
H6864 H 0.18651 0.67396 0.30188 0.0
H6865 H 0.18123 0.676 0.28998 0.0
H6866 H 0.18701 0.65441 0.28363 0.0
H6867 H 0.19235 0.65233 0.29551 0.0
H6868 H 0.18782 0.67553 0.27659 0.0
H6869 H 0.16584 0.65532 0.27792 0.0
H6870 H 0.17077 0.6582 0.2858 0.0
H6871 H 0.17462 0.65168 0.27974 0.0
C6872 C 0.18667 0.66963 0.29796 0.0
C6873 C 0.18986 0.66296 0.2997 0.0
C6874 C 0.18362 0.67081 0.29115 0.0
C6875 C 0.18363 0.66534 0.28591 0.0
C6876 C 0.18678 0.65867 0.28762 0.0
H6877 H 0.16986 0.66181 0.24124 0.0
H6878 H 0.17484 0.66003 0.25331 0.0
C6879 C 0.18983 0.65748 0.29444 0.0
C6880 C 0.18056 0.66671 0.27859 0.0
H6881 H 0.16799 0.66072 0.26651 0.0
C6882 C 0.18345 0.67232 0.2744 0.0
C6883 C 0.17486 0.66252 0.27571 0.0
C6884 C 0.17129 0.65663 0.28004 0.0
C6885 C 0.18093 0.67375 0.26738 0.0
C6886 C 0.17526 0.66954 0.26449 0.0
C6887 C 0.17234 0.66395 0.2687 0.0
C6888 C 0.17232 0.67077 0.25709 0.0
C6889 C 0.18452 0.67963 0.26305 0.0
C6890 C 0.16919 0.67739 0.25517 0.0
C6891 C 0.1663 0.67843 0.24825 0.0
C6892 C 0.16641 0.67284 0.24311 0.0
C6893 C 0.16957 0.66622 0.24507 0.0
C6894 C 0.17246 0.66519 0.25197 0.0
H6895 H 0.18991 0.68103 0.26523 0.0
H6896 H 0.18513 0.67801 0.25731 0.0
H6897 H 0.18112 0.68455 0.26324 0.0
H6898 H 0.16887 0.68174 0.25906 0.0
H6899 H 0.16382 0.68356 0.24699 0.0
H6900 H 0.11292 0.45071 0.04339 0.0
H6901 H 0.11023 0.44527 0.03169 0.0
H6902 H 0.11068 0.42414 0.04135 0.0
H6903 H 0.11344 0.42953 0.05309 0.0
H6904 H 0.11814 0.43543 0.02367 0.0
H6905 H 0.09142 0.42399 0.03073 0.0
H6906 H 0.09591 0.43058 0.03631 0.0
H6907 H 0.09859 0.42127 0.03663 0.0
C6908 C 0.11251 0.44489 0.04304 0.0
C6909 C 0.11341 0.44057 0.04923 0.0
C6910 C 0.11093 0.44179 0.03634 0.0
C6911 C 0.11014 0.4343 0.03563 0.0
C6912 C 0.11109 0.42995 0.04177 0.0
H6913 H 0.10177 0.4055 0.99944 0.0
H6914 H 0.10412 0.4109 1.01125 0.0
C6915 C 0.11268 0.43305 0.04849 0.0
C6916 C 0.10851 0.43105 0.02845 0.0
H6917 H 0.09624 0.42072 0.01934 0.0
C6918 C 0.11333 0.43224 0.02272 0.0
C6919 C 0.10225 0.42687 0.02719 0.0
C6920 C 0.0967 0.42564 0.03301 0.0
C6921 C 0.11214 0.42928 0.01583 0.0
C6922 C 0.10586 0.42512 0.01456 0.0
C6923 C 0.10104 0.42391 0.02029 0.0
C6924 C 0.10426 0.42189 1.00736 0.0
C6925 C 0.11771 0.43049 1.01002 0.0
C6926 C 0.1034 0.42626 1.00122 0.0
C6927 C 0.10209 0.42318 0.99444 0.0
C6928 C 0.10158 0.41565 0.99362 0.0
C6929 C 0.10225 0.41131 0.99982 0.0
C6930 C 0.10355 0.41439 1.0066 0.0
H6931 H 0.12299 0.43211 1.01231 0.0
H6932 H 0.11848 0.42556 1.00671 0.0
H6933 H 0.11586 0.43489 1.0064 0.0
H6934 H 0.10377 0.43207 1.00168 0.0
H6935 H 0.10164 0.4267 0.9898 0.0
H6936 H 0.36512 0.34372 0.74894 0.0
H6937 H 0.36005 0.34618 0.7609 0.0
H6938 H 0.34733 0.36346 0.752 0.0
H6939 H 0.35235 0.36104 0.74005 0.0
H6940 H 0.36066 0.35836 0.76925 0.0
H6941 H 0.33217 0.35211 0.76285 0.0
H6942 H 0.3395 0.34969 0.75692 0.0
H6943 H 0.33603 0.35875 0.75696 0.0
C6944 C 0.36124 0.34805 0.74952 0.0
C6945 C 0.35912 0.35215 0.74349 0.0
C6946 C 0.35833 0.34944 0.75637 0.0
C6947 C 0.3532 0.35492 0.75736 0.0
C6948 C 0.35113 0.35907 0.75137 0.0
H6949 H 0.33 0.37333 0.79373 0.0
H6950 H 0.33542 0.37058 0.78202 0.0
C6951 C 0.35401 0.35768 0.74452 0.0
C6952 C 0.35017 0.35644 0.76468 0.0
H6953 H 0.33437 0.35789 0.77409 0.0
C6954 C 0.35492 0.35821 0.77032 0.0
C6955 C 0.34267 0.35625 0.7661 0.0
C6956 C 0.3373 0.35403 0.76041 0.0
C6957 C 0.35236 0.35995 0.77726 0.0
C6958 C 0.34485 0.35983 0.77865 0.0
C6959 C 0.34012 0.35802 0.77303 0.0
C6960 C 0.34177 0.36161 0.78589 0.0
C6961 C 0.35771 0.3621 0.78299 0.0
C6962 C 0.34351 0.35747 0.79199 0.0
C6963 C 0.34039 0.35902 0.79872 0.0
C6964 C 0.33541 0.3647 0.79949 0.0
C6965 C 0.33373 0.36885 0.79335 0.0
C6966 C 0.33685 0.36731 0.78664 0.0
H6967 H 0.36297 0.36371 0.78062 0.0
H6968 H 0.35562 0.36663 0.7863 0.0
H6969 H 0.35868 0.35744 0.78662 0.0
H6970 H 0.34717 0.35294 0.79154 0.0
H6971 H 0.34173 0.35561 0.80327 0.0
H6972 H 0.42029 0.59129 0.55313 0.0
H6973 H 0.42278 0.59684 0.5414 0.0
H6974 H 0.40542 0.58465 0.53192 0.0
H6975 H 0.40274 0.57927 0.54364 0.0
H6976 H 0.42676 0.59031 0.52862 0.0
H6977 H 0.40097 0.60488 0.52492 0.0
H6978 H 0.40368 0.60118 0.5335 0.0
H6979 H 0.39977 0.59545 0.52672 0.0
C6980 C 0.41691 0.58989 0.54858 0.0
C6981 C 0.41129 0.58484 0.54937 0.0
C6982 C 0.41838 0.59303 0.54186 0.0
C6983 C 0.41424 0.59125 0.53577 0.0
C6984 C 0.40862 0.58623 0.53654 0.0
H6985 H 0.41436 0.60086 0.49005 0.0
H6986 H 0.41234 0.5962 0.50221 0.0
C6987 C 0.40715 0.58308 0.54325 0.0
C6988 C 0.41592 0.59444 0.52857 0.0
H6989 H 0.40853 0.60389 0.51457 0.0
C6990 C 0.4228 0.59334 0.52557 0.0
C6991 C 0.41076 0.5984 0.52457 0.0
C6992 C 0.40341 0.60012 0.52761 0.0
C6993 C 0.42457 0.59587 0.51863 0.0
C6994 C 0.41936 0.59973 0.51459 0.0
C6995 C 0.41252 0.60091 0.51763 0.0
C6996 C 0.42082 0.60246 0.50716 0.0
C6997 C 0.43193 0.59421 0.51558 0.0
C6998 C 0.42627 0.60757 0.50586 0.0
C6999 C 0.42743 0.61029 0.49889 0.0
C7000 C 0.42313 0.608 0.49306 0.0
C7001 C 0.41772 0.60284 0.4944 0.0
C7002 C 0.41657 0.60013 0.50136 0.0
H7003 H 0.43462 0.58977 0.51856 0.0
H7004 H 0.43156 0.5927 0.5098 0.0
H7005 H 0.43537 0.59908 0.51601 0.0
H7006 H 0.42954 0.60957 0.51026 0.0
H7007 H 0.43157 0.61433 0.49811 0.0
H7008 H 0.23248 0.19921 0.36962 0.0
H7009 H 0.24406 0.19353 0.36696 0.0
H7010 H 0.23308 0.17587 0.35659 0.0
H7011 H 0.22147 0.18166 0.35898 0.0
H7012 H 0.24962 0.18049 0.37098 0.0
H7013 H 0.24745 0.18174 0.34115 0.0
H7014 H 0.24144 0.18663 0.34704 0.0
H7015 H 0.24009 0.17716 0.34546 0.0
C7016 C 0.23251 0.19416 0.3667 0.0
C7017 C 0.226 0.19095 0.36445 0.0
C7018 C 0.23916 0.19088 0.36523 0.0
C7019 C 0.23949 0.18433 0.36145 0.0
C7020 C 0.233 0.181 0.35937 0.0
H7021 H 0.27544 0.15695 0.34793 0.0
H7022 H 0.26355 0.1621 0.3505 0.0
C7023 C 0.22634 0.18428 0.36083 0.0
C7024 C 0.24662 0.18098 0.35977 0.0
H7025 H 0.25742 0.17532 0.3459 0.0
C7026 C 0.25133 0.17938 0.36549 0.0
C7027 C 0.24887 0.17952 0.35261 0.0
C7028 C 0.24424 0.1814 0.3462 0.0
C7029 C 0.25816 0.17631 0.36426 0.0
C7030 C 0.26042 0.17487 0.3571 0.0
C7031 C 0.2557 0.17641 0.35139 0.0
C7032 C 0.26767 0.17182 0.35545 0.0
C7033 C 0.26285 0.1745 0.37065 0.0
C7034 C 0.27397 0.17561 0.35725 0.0
C7035 C 0.28079 0.17268 0.3558 0.0
C7036 C 0.28147 0.16588 0.35249 0.0
C7037 C 0.27513 0.16215 0.35057 0.0
C7038 C 0.26832 0.16511 0.352 0.0
H7039 H 0.25968 0.1742 0.37573 0.0
H7040 H 0.26566 0.16928 0.36982 0.0
H7041 H 0.26699 0.17876 0.37131 0.0
H7042 H 0.27362 0.18086 0.3598 0.0
H7043 H 0.28552 0.17569 0.3574 0.0
H7044 H 0.78051 0.3531 0.68365 0.0
H7045 H 0.76867 0.34774 0.68127 0.0
H7046 H 0.7674 0.35943 0.66122 0.0
H7047 H 0.7793 0.36459 0.66341 0.0
H7048 H 0.75541 0.35433 0.67932 0.0
H7049 H 0.76292 0.339 0.65475 0.0
H7050 H 0.76955 0.34285 0.66074 0.0
H7051 H 0.76501 0.34843 0.65424 0.0
C7052 C 0.77776 0.35446 0.67869 0.0
C7053 C 0.78091 0.35928 0.67372 0.0
C7054 C 0.77096 0.35143 0.67735 0.0
C7055 C 0.76717 0.35308 0.67101 0.0
C7056 C 0.77025 0.35794 0.66609 0.0
H7057 H 0.72535 0.34026 0.65334 0.0
H7058 H 0.73697 0.3461 0.65573 0.0
C7059 C 0.77704 0.36097 0.66741 0.0
C7060 C 0.75993 0.34986 0.6696 0.0
H7061 H 0.75044 0.33962 0.65754 0.0
C7062 C 0.75434 0.35109 0.67458 0.0
C7063 C 0.75849 0.34563 0.66339 0.0
C7064 C 0.76432 0.34383 0.658 0.0
C7065 C 0.74736 0.34832 0.67346 0.0
C7066 C 0.74593 0.34409 0.66726 0.0
C7067 C 0.75151 0.34288 0.66228 0.0
C7068 C 0.73874 0.34072 0.66593 0.0
C7069 C 0.74154 0.35007 0.67887 0.0
C7070 C 0.73587 0.33573 0.67084 0.0
C7071 C 0.72922 0.33241 0.66951 0.0
C7072 C 0.72529 0.33396 0.6632 0.0
C7073 C 0.72817 0.33899 0.65829 0.0
C7074 C 0.73484 0.3423 0.65963 0.0
H7075 H 0.74291 0.35492 0.68211 0.0
H7076 H 0.73629 0.35101 0.67615 0.0
H7077 H 0.7409 0.34547 0.68264 0.0
H7078 H 0.73882 0.33431 0.67567 0.0
H7079 H 0.72716 0.32863 0.67345 0.0
H7080 H 0.44932 0.97941 0.4199 0.0
H7081 H 0.44361 0.99102 0.42233 0.0
H7082 H 0.4265 0.98574 0.40752 0.0
H7083 H 0.43221 0.97409 0.40503 0.0
H7084 H 0.44068 1.00213 0.41303 0.0
H7085 H 0.41526 0.99214 0.42524 0.0
H7086 H 0.423 0.9864 0.42385 0.0
H7087 H 0.41711 0.98852 0.41645 0.0
C7088 C 0.44436 0.98071 0.41712 0.0
C7089 C 0.44125 0.97578 0.41224 0.0
C7090 C 0.44107 0.98735 0.41855 0.0
C7091 C 0.43457 0.98925 0.41519 0.0
C7092 C 0.43143 0.98435 0.41032 0.0
H7093 H 0.40801 0.02806 0.41557 0.0
H7094 H 0.41327 0.01619 0.41334 0.0
C7095 C 0.43472 0.97769 0.40889 0.0
C7096 C 0.43122 0.99644 0.41663 0.0
H7097 H 0.41593 1.00469 0.42283 0.0
C7098 C 0.43528 1.00268 0.4152 0.0
C7099 C 0.42417 0.99718 0.41945 0.0
C7100 C 0.41964 0.99071 0.42141 0.0
C7101 C 0.43244 1.00962 0.41642 0.0
C7102 C 0.42539 1.01036 0.41926 0.0
C7103 C 0.42133 1.00413 0.42066 0.0
C7104 C 0.42214 0.01757 0.42078 0.0
C7105 C 0.43697 0.01609 0.4145 0.0
C7106 C 0.42529 0.02229 0.4258 0.0
C7107 C 0.42226 0.02909 0.42714 0.0
C7108 C 0.41598 0.03133 0.42351 0.0
C7109 C 0.41279 0.02652 0.41855 0.0
C7110 C 0.41581 0.01973 0.41723 0.0
H7111 H 0.4414 0.01467 0.41071 0.0
H7112 H 0.43363 0.02039 0.41201 0.0
H7113 H 0.43944 0.01831 0.41948 0.0
H7114 H 0.43008 0.02069 0.42873 0.0
H7115 H 0.4248 0.03255 0.43108 0.0
H7116 H 0.80211 0.67965 0.16031 0.0
H7117 H 0.79035 0.67425 0.16298 0.0
H7118 H 0.78135 0.6954 0.16632 0.0
H7119 H 0.79305 0.70084 0.16372 0.0
H7120 H 0.7818 0.67516 0.17538 0.0
H7121 H 0.76732 0.6866 0.15187 0.0
H7122 H 0.77702 0.68661 0.15253 0.0
H7123 H 0.7718 0.69323 0.15732 0.0
C7124 C 0.79764 0.68316 0.16164 0.0
C7125 C 0.79855 0.6907 0.16172 0.0
C7126 C 0.79091 0.68006 0.16314 0.0
C7127 C 0.78491 0.68441 0.16473 0.0
C7128 C 0.78583 0.69192 0.16493 0.0
H7129 H 0.73965 0.67643 0.17496 0.0
H7130 H 0.75157 0.68176 0.17297 0.0
C7131 C 0.79255 0.69503 0.16343 0.0
C7132 C 0.77774 0.68112 0.1663 0.0
H7133 H 0.76015 0.68082 0.16076 0.0
C7134 C 0.77708 0.67636 0.17216 0.0
C7135 C 0.77155 0.6827 0.16212 0.0
C7136 C 0.77194 0.68751 0.15557 0.0
C7137 C 0.7704 0.67327 0.17403 0.0
C7138 C 0.76421 0.67486 0.16985 0.0
C7139 C 0.76487 0.67961 0.16399 0.0
C7140 C 0.75702 0.67157 0.17139 0.0
C7141 C 0.77 0.66846 0.18058 0.0
C7142 C 0.75608 0.66406 0.17115 0.0
C7143 C 0.74927 0.661 0.17232 0.0
C7144 C 0.74322 0.66536 0.17372 0.0
C7145 C 0.74419 0.67289 0.174 0.0
C7146 C 0.751 0.67595 0.17281 0.0
H7147 H 0.7746 0.6694 0.1843 0.0
H7148 H 0.7649 0.66932 0.18359 0.0
H7149 H 0.7702 0.66274 0.17882 0.0
H7150 H 0.76059 0.66056 0.16993 0.0
H7151 H 0.74877 0.65518 0.17213 0.0
H7152 H 0.5756 0.54531 0.41867 0.0
H7153 H 0.58122 0.53368 0.42123 0.0
H7154 H 0.59976 0.53982 0.40861 0.0
H7155 H 0.59415 0.55148 0.40599 0.0
H7156 H 0.58539 0.523 0.41189 0.0
H7157 H 0.60909 0.5329 0.42719 0.0
H7158 H 0.60144 0.53857 0.42518 0.0
H7159 H 0.60815 0.53683 0.4184 0.0
C7160 C 0.58086 0.54419 0.41639 0.0
C7161 C 0.5844 0.54937 0.4121 0.0
C7162 C 0.58409 0.53754 0.4179 0.0
C7163 C 0.59097 0.53588 0.4152 0.0
C7164 C 0.59453 0.54101 0.4109 0.0
H7165 H 0.61801 0.49743 0.4171 0.0
H7166 H 0.61283 0.50931 0.41472 0.0
C7167 C 0.5913 0.54769 0.4094 0.0
C7168 C 0.59427 0.52869 0.41672 0.0
H7169 H 0.60893 0.52044 0.42427 0.0
C7170 C 0.59052 0.52245 0.41462 0.0
C7171 C 0.60098 0.52795 0.42028 0.0
C7172 C 0.60513 0.53441 0.42296 0.0
C7173 C 0.59333 0.51551 0.4159 0.0
C7174 C 0.60003 0.51477 0.41947 0.0
C7175 C 0.6038 0.52101 0.42154 0.0
C7176 C 0.60322 0.50756 0.42109 0.0
C7177 C 0.58917 0.50904 0.41326 0.0
C7178 C 0.59962 0.50263 0.42558 0.0
C7179 C 0.60259 0.49583 0.42701 0.0
C7180 C 0.60927 0.49379 0.424 0.0
C7181 C 0.61291 0.4988 0.41959 0.0
C7182 C 0.60994 0.5056 0.41818 0.0
H7183 H 0.58517 0.51054 0.40906 0.0
H7184 H 0.59285 0.5049 0.411 0.0
H7185 H 0.5862 0.50661 0.41785 0.0
H7186 H 0.59451 0.50406 0.42802 0.0
H7187 H 0.59968 0.49219 0.43053 0.0
H7188 H 0.29242 0.82584 0.86916 0.0
H7189 H 0.28087 0.83154 0.86645 0.0
H7190 H 0.29195 0.84927 0.85629 0.0
H7191 H 0.30354 0.84347 0.85875 0.0
H7192 H 0.27526 0.84458 0.8705 0.0
H7193 H 0.27775 0.84345 0.84069 0.0
H7194 H 0.28369 0.83852 0.8466 0.0
H7195 H 0.28507 0.848 0.84509 0.0
C7196 C 0.29242 0.83092 0.86628 0.0
C7197 C 0.29895 0.83414 0.86411 0.0
C7198 C 0.28579 0.8342 0.86477 0.0
C7199 C 0.2855 0.84078 0.86104 0.0
C7200 C 0.292 0.84412 0.85904 0.0
H7201 H 0.24977 0.86821 0.84722 0.0
H7202 H 0.2616 0.86299 0.84986 0.0
C7203 C 0.29865 0.84083 0.86054 0.0
C7204 C 0.27838 0.84413 0.85932 0.0
H7205 H 0.26772 0.84984 0.84538 0.0
C7206 C 0.27361 0.8457 0.865 0.0
C7207 C 0.2762 0.84562 0.85215 0.0
C7208 C 0.28091 0.84375 0.84577 0.0
C7209 C 0.2668 0.84879 0.86373 0.0
C7210 C 0.26461 0.85025 0.85656 0.0
C7211 C 0.26939 0.84872 0.85087 0.0
C7212 C 0.25738 0.85334 0.85485 0.0
C7213 C 0.26205 0.85059 0.87009 0.0
C7214 C 0.25104 0.8496 0.85665 0.0
C7215 C 0.24426 0.85258 0.85517 0.0
C7216 C 0.24364 0.85937 0.85183 0.0
C7217 C 0.25002 0.86302 0.8499 0.0
C7218 C 0.2568 0.86003 0.85136 0.0
H7219 H 0.26518 0.8509 0.87519 0.0
H7220 H 0.25923 0.85581 0.86925 0.0
H7221 H 0.25792 0.84632 0.87073 0.0
H7222 H 0.25134 0.84437 0.85923 0.0
H7223 H 0.23949 0.84962 0.85678 0.0
H7224 H 0.40953 0.99773 0.0953 0.0
H7225 H 0.41451 1.00982 0.09718 0.0
H7226 H 0.42965 1.00122 0.11255 0.0
H7227 H 0.42487 0.98911 0.11055 0.0
H7228 H 0.41507 0.01781 0.1098 0.0
H7229 H 0.4427 0.01303 0.09946 0.0
H7230 H 0.43536 1.00687 0.09779 0.0
H7231 H 0.44 1.00675 0.10631 0.0
C7232 C 0.414 0.99838 0.09899 0.0
C7233 C 0.4168 0.99241 0.10275 0.0
C7234 C 0.41681 1.00532 0.1001 0.0
C7235 C 0.42253 1.00644 0.10494 0.0
C7236 C 0.42534 1.00049 0.10869 0.0
H7237 H 0.44626 0.04348 0.12121 0.0
H7238 H 0.44111 0.03156 0.11887 0.0
C7239 C 0.42253 0.99357 0.10759 0.0
C7240 C 0.42539 0.01385 0.10626 0.0
H7241 H 0.44078 0.024 0.10583 0.0
C7242 C 0.42068 0.01918 0.10888 0.0
C7243 C 0.43272 0.01565 0.10508 0.0
C7244 C 0.43798 1.0103 0.10194 0.0
C7245 C 0.42313 0.02618 0.11052 0.0
C7246 C 0.43047 0.02796 0.1094 0.0
C7247 C 0.43516 0.02264 0.10673 0.0
C7248 C 0.4334 0.03529 0.11097 0.0
C7249 C 0.41787 0.03155 0.11363 0.0
C7250 C 0.43081 0.04138 0.1073 0.0
C7251 C 0.43372 0.04823 0.10865 0.0
C7252 C 0.43931 0.04915 0.1137 0.0
C7253 C 0.44188 0.04302 0.11738 0.0
C7254 C 0.43898 0.03618 0.116 0.0
H7255 H 0.41301 0.02887 0.11589 0.0
H7256 H 0.42043 0.03482 0.11794 0.0
H7257 H 0.41608 0.03527 0.1093 0.0
H7258 H 0.42659 0.04084 0.1033 0.0
H7259 H 0.43156 0.05281 0.10575 0.0
H7260 H 0.11639 0.0258 0.5952 0.0
H7261 H 0.11118 0.01391 0.59758 0.0
H7262 H 0.09574 0.02354 0.61206 0.0
H7263 H 0.10089 0.03543 0.60969 0.0
H7264 H 0.11004 1.00637 0.6102 0.0
H7265 H 0.08275 1.01158 0.59929 0.0
H7266 H 0.09024 0.01755 0.59764 0.0
H7267 H 0.0854 0.01796 0.60605 0.0
C7268 C 0.11189 0.0254 0.59889 0.0
C7269 C 0.10905 0.03161 0.60221 0.0
C7270 C 0.1089 0.01858 0.60024 0.0
C7271 C 0.10298 0.01781 0.60491 0.0
C7272 C 0.10017 0.02399 0.60828 0.0
H7273 H 0.07796 0.98217 0.62213 0.0
H7274 H 0.08355 0.99379 0.61938 0.0
C7275 C 0.10314 0.03081 0.60692 0.0
C7276 C 0.09989 1.01053 0.60643 0.0
H7277 H 0.08423 1.0008 0.60608 0.0
C7278 C 0.10441 1.00514 0.60925 0.0
C7279 C 0.09253 1.00889 0.60519 0.0
C7280 C 0.08746 0.01427 0.60181 0.0
C7281 C 0.10174 0.99826 0.61104 0.0
C7282 C 0.09437 0.99666 0.60988 0.0
C7283 C 0.08987 1.00202 0.607 0.0
C7284 C 0.09118 0.98949 0.61168 0.0
C7285 C 0.10681 0.99282 0.61433 0.0
C7286 C 0.09359 0.98317 0.60826 0.0
C7287 C 0.09038 0.97649 0.6098 0.0
C7288 C 0.08464 0.97599 0.61476 0.0
C7289 C 0.08229 0.98234 0.61821 0.0
C7290 C 0.0855 0.989 0.61667 0.0
H7291 H 0.11174 0.99541 0.61652 0.0
H7292 H 0.10412 0.98979 0.61874 0.0
H7293 H 0.10849 0.9889 0.61013 0.0
H7294 H 0.09786 0.98341 0.60428 0.0
H7295 H 0.09226 0.97176 0.60695 0.0
H7296 H 0.11393 0.14318 0.41883 0.0
H7297 H 0.12304 0.15031 0.41253 0.0
H7298 H 0.12997 0.15941 0.43276 0.0
H7299 H 0.12103 0.1521 0.43915 0.0
H7300 H 0.12468 0.16507 0.41183 0.0
H7301 H 0.14897 0.15266 0.42409 0.0
H7302 H 0.14013 0.14867 0.42484 0.0
H7303 H 0.1426 0.15614 0.43051 0.0
C7304 C 0.11746 0.1466 0.42198 0.0
C7305 C 0.11675 0.14698 0.42954 0.0
C7306 C 0.12264 0.15073 0.41834 0.0
C7307 C 0.12729 0.15533 0.42216 0.0
C7308 C 0.12656 0.1558 0.42969 0.0
H7309 H 0.16218 0.18411 0.40883 0.0
H7310 H 0.15295 0.17747 0.41553 0.0
C7311 C 0.12137 0.15167 0.43334 0.0
C7312 C 0.13276 0.15974 0.41821 0.0
H7313 H 0.15087 0.16288 0.41668 0.0
C7314 C 0.13041 0.16458 0.41288 0.0
C7315 C 0.14025 0.15912 0.41958 0.0
C7316 C 0.14316 0.15383 0.42502 0.0
C7317 C 0.1353 0.16886 0.40896 0.0
C7318 C 0.14279 0.16821 0.41028 0.0
C7319 C 0.14514 0.1634 0.41565 0.0
C7320 C 0.14829 0.1724 0.40613 0.0
C7321 C 0.13237 0.17417 0.40353 0.0
C7322 C 0.1488 0.17174 0.39859 0.0
C7323 C 0.15409 0.17553 0.39473 0.0
C7324 C 0.15905 0.18003 0.39832 0.0
C7325 C 0.15852 0.18066 0.40587 0.0
C7326 C 0.15322 0.17688 0.40973 0.0
H7327 H 0.12664 0.1755 0.40463 0.0
H7328 H 0.13556 0.17924 0.40353 0.0
H7329 H 0.13269 0.17176 0.39806 0.0
H7330 H 0.1452 0.16818 0.39569 0.0
H7331 H 0.1544 0.17479 0.38895 0.0
H7332 H 0.12797 0.86057 0.66882 0.0
H7333 H 0.1211 0.86992 0.6626 0.0
H7334 H 0.11926 0.88185 0.68248 0.0
H7335 H 0.12612 0.87248 0.68877 0.0
H7336 H 0.10726 0.87474 0.66502 0.0
H7337 H 0.12669 0.89718 0.66867 0.0
H7338 H 0.12907 0.8879 0.67033 0.0
H7339 H 0.124 0.8929 0.67692 0.0
C7340 C 0.12608 0.86516 0.6719 0.0
C7341 C 0.12762 0.86574 0.67932 0.0
C7342 C 0.12217 0.87053 0.66832 0.0
C7343 C 0.11973 0.87666 0.67203 0.0
C7344 C 0.12122 0.87726 0.67944 0.0
H7345 H 0.09491 0.91451 0.65914 0.0
H7346 H 0.10141 0.90514 0.66574 0.0
C7347 C 0.12515 0.87189 0.68304 0.0
C7348 C 0.11548 0.8823 0.66816 0.0
H7349 H 0.11533 0.90019 0.66367 0.0
C7350 C 0.10904 0.8803 0.66471 0.0
C7351 C 0.11778 0.88957 0.66775 0.0
C7352 C 0.12479 0.89203 0.67105 0.0
C7353 C 0.1048 0.88536 0.66096 0.0
C7354 C 0.10712 0.89263 0.66052 0.0
C7355 C 0.11354 0.89464 0.664 0.0
C7356 C 0.10298 0.89822 0.65648 0.0
C7357 C 0.0978 0.88291 0.65763 0.0
C7358 C 0.1017 0.89751 0.64904 0.0
C7359 C 0.098 0.90289 0.64522 0.0
C7360 C 0.09553 0.90915 0.64874 0.0
C7361 C 0.0968 0.90982 0.65621 0.0
C7362 C 0.1005 0.90445 0.66001 0.0
H7363 H 0.09585 0.8778 0.66008 0.0
H7364 H 0.09355 0.88708 0.65825 0.0
H7365 H 0.09864 0.88194 0.65178 0.0
H7366 H 0.10369 0.89285 0.64614 0.0
H7367 H 0.09724 0.90222 0.63947 0.0
H7368 H 0.41029 0.88266 0.91888 0.0
H7369 H 0.40119 0.87556 0.91253 0.0
H7370 H 0.39539 0.86508 0.93245 0.0
H7371 H 0.40432 0.87234 0.93891 0.0
H7372 H 0.40008 0.86073 0.9111 0.0
H7373 H 0.37584 0.87162 0.92487 0.0
H7374 H 0.38455 0.87591 0.92548 0.0
H7375 H 0.38257 0.86808 0.93085 0.0
C7376 C 0.407 0.87894 0.92195 0.0
C7377 C 0.40803 0.87815 0.92944 0.0
C7378 C 0.40183 0.87483 0.91829 0.0
C7379 C 0.39751 0.86984 0.92201 0.0
C7380 C 0.39855 0.86898 0.92947 0.0
H7381 H 0.36312 0.8406 0.90841 0.0
H7382 H 0.37233 0.84722 0.91514 0.0
C7383 C 0.40373 0.87309 0.93315 0.0
C7384 C 0.39205 0.86546 0.91803 0.0
H7385 H 0.37402 0.86175 0.91697 0.0
C7386 C 0.39438 0.86097 0.91238 0.0
C7387 C 0.3846 0.86573 0.91969 0.0
C7388 C 0.38171 0.87064 0.92551 0.0
C7389 C 0.3895 0.85671 0.90841 0.0
C7390 C 0.38204 0.85704 0.91003 0.0
C7391 C 0.37972 0.86149 0.91572 0.0
C7392 C 0.37655 0.85288 0.90586 0.0
C7393 C 0.39242 0.85179 0.90263 0.0
C7394 C 0.37578 0.85387 0.89838 0.0
C7395 C 0.37051 0.85009 0.8945 0.0
C7396 C 0.36581 0.84527 0.89802 0.0
C7397 C 0.36658 0.8443 0.90552 0.0
C7398 C 0.37187 0.84808 0.90938 0.0
H7399 H 0.39822 0.85059 0.90347 0.0
H7400 H 0.3894 0.84662 0.90246 0.0
H7401 H 0.39186 0.85446 0.8973 0.0
H7402 H 0.37918 0.85768 0.89554 0.0
H7403 H 0.36999 0.85109 0.88877 0.0
H7404 H 0.39427 0.16282 0.16888 0.0
H7405 H 0.40132 0.15362 0.16261 0.0
H7406 H 0.40799 0.14476 0.18303 0.0
H7407 H 0.40073 0.15379 0.18936 0.0
H7408 H 0.41589 0.15093 0.16303 0.0
H7409 H 0.40082 0.1269 0.17256 0.0
H7410 H 0.3974 0.13595 0.17359 0.0
H7411 H 0.40414 0.13256 0.17967 0.0
C7412 C 0.39713 0.15885 0.17206 0.0
C7413 C 0.39685 0.15904 0.17966 0.0
C7414 C 0.40122 0.15362 0.16845 0.0
C7415 C 0.40512 0.14841 0.17232 0.0
C7416 C 0.40493 0.14862 0.1799 0.0
H7417 H 0.43263 0.11244 0.15921 0.0
H7418 H 0.42608 0.12173 0.16592 0.0
C7419 C 0.40083 0.15385 0.18352 0.0
C7420 C 0.40948 0.14288 0.1684 0.0
H7421 H 0.41154 0.12471 0.16596 0.0
C7422 C 0.41492 0.1452 0.16366 0.0
C7423 C 0.40825 0.13539 0.16922 0.0
C7424 C 0.4023 0.13253 0.17398 0.0
C7425 C 0.41921 0.14025 0.1598 0.0
C7426 C 0.41794 0.13276 0.16058 0.0
C7427 C 0.41253 0.13044 0.16535 0.0
C7428 C 0.42211 0.12724 0.15644 0.0
C7429 C 0.42515 0.14311 0.15502 0.0
C7430 C 0.42205 0.12718 0.14886 0.0
C7431 C 0.42579 0.12186 0.145 0.0
C7432 C 0.42963 0.11641 0.14862 0.0
C7433 C 0.42968 0.11649 0.15623 0.0
C7434 C 0.42595 0.12183 0.16008 0.0
H7435 H 0.42674 0.14867 0.15657 0.0
H7436 H 0.42999 0.13959 0.15526 0.0
H7437 H 0.42322 0.14326 0.14936 0.0
H7438 H 0.41899 0.13118 0.14591 0.0
H7439 H 0.4255 0.1219 0.13917 0.0
H7440 H 0.1108 0.87741 0.10711 0.0
H7441 H 0.12017 0.87056 0.11332 0.0
H7442 H 0.13199 0.86857 0.09339 0.0
H7443 H 0.12261 0.87542 0.08711 0.0
H7444 H 0.12488 0.85675 0.11106 0.0
H7445 H 0.14747 0.87593 0.10699 0.0
H7446 H 0.1382 0.87836 0.10533 0.0
H7447 H 0.14313 0.87315 0.09879 0.0
C7448 C 0.11537 0.8755 0.10402 0.0
C7449 C 0.11592 0.87698 0.09658 0.0
C7450 C 0.12075 0.8716 0.1076 0.0
C7451 C 0.12685 0.86911 0.10387 0.0
C7452 C 0.12743 0.87056 0.09644 0.0
H7453 H 0.16451 0.84405 0.11695 0.0
H7454 H 0.15518 0.85052 0.11026 0.0
C7455 C 0.12204 0.87448 0.09285 0.0
C7456 C 0.13249 0.86486 0.10774 0.0
H7457 H 0.15041 0.8646 0.11211 0.0
C7458 C 0.13046 0.85848 0.1113 0.0
C7459 C 0.13979 0.86709 0.10807 0.0
C7460 C 0.14229 0.87404 0.10465 0.0
C7461 C 0.1355 0.85426 0.11509 0.0
C7462 C 0.14278 0.85651 0.11544 0.0
C7463 C 0.14483 0.86286 0.11184 0.0
C7464 C 0.14836 0.85239 0.11954 0.0
C7465 C 0.133 0.84733 0.11855 0.0
C7466 C 0.14768 0.85129 0.12701 0.0
C7467 C 0.15303 0.84761 0.13088 0.0
C7468 C 0.15924 0.84497 0.12737 0.0
C7469 C 0.15987 0.84606 0.11987 0.0
C7470 C 0.15452 0.84975 0.11602 0.0
H7471 H 0.12785 0.8454 0.11618 0.0
H7472 H 0.13712 0.84303 0.11796 0.0
H7473 H 0.13209 0.84827 0.12439 0.0
H7474 H 0.14306 0.85341 0.1299 0.0
H7475 H 0.1524 0.847 0.13665 0.0
H7476 H 0.39943 0.87258 0.3372 0.0
H7477 H 0.40633 0.8819 0.34353 0.0
H7478 H 0.40491 0.86963 0.36322 0.0
H7479 H 0.398 0.86033 0.35697 0.0
H7480 H 0.40281 0.89035 0.35536 0.0
H7481 H 0.42647 0.87329 0.36178 0.0
H7482 H 0.4197 0.8706 0.35533 0.0
H7483 H 0.41809 0.86956 0.36485 0.0
C7484 C 0.40055 0.87187 0.34289 0.0
C7485 C 0.3982 0.86564 0.34653 0.0
C7486 C 0.40453 0.8772 0.3465 0.0
C7487 C 0.40629 0.87642 0.35383 0.0
C7488 C 0.40382 0.87028 0.35752 0.0
H7489 H 0.42833 0.90228 0.38629 0.0
H7490 H 0.42183 0.89299 0.37953 0.0
C7491 C 0.39985 0.86496 0.35392 0.0
C7492 C 0.41058 0.88206 0.35767 0.0
H7493 H 0.42591 0.88472 0.36758 0.0
C7494 C 0.40789 0.88913 0.35798 0.0
C7495 C 0.41721 0.88048 0.36112 0.0
C7496 C 0.42058 0.87309 0.36071 0.0
C7497 C 0.41154 0.8946 0.36178 0.0
C7498 C 0.41814 0.89301 0.36527 0.0
C7499 C 0.42085 0.88595 0.36493 0.0
C7500 C 0.42231 0.8986 0.36932 0.0
C7501 C 0.40819 0.902 0.36218 0.0
C7502 C 0.42491 0.90479 0.36581 0.0
C7503 C 0.42867 0.9101 0.36966 0.0
C7504 C 0.42996 0.90934 0.37711 0.0
C7505 C 0.42751 0.90304 0.38056 0.0
C7506 C 0.42374 0.89773 0.37671 0.0
H7507 H 0.40234 0.90186 0.36088 0.0
H7508 H 0.40888 0.90439 0.36762 0.0
H7509 H 0.41087 0.90559 0.35821 0.0
H7510 H 0.42405 0.90551 0.36008 0.0
H7511 H 0.4306 0.91479 0.36677 0.0
H7512 H 0.36286 0.18335 0.61733 0.0
H7513 H 0.37193 0.1765 0.61061 0.0
H7514 H 0.38029 0.16799 0.63055 0.0
H7515 H 0.37111 0.17465 0.6373 0.0
H7516 H 0.38698 0.17676 0.61124 0.0
H7517 H 0.37658 0.14975 0.61877 0.0
H7518 H 0.37145 0.1579 0.62016 0.0
H7519 H 0.37851 0.15547 0.62634 0.0
C7520 C 0.36658 0.17998 0.62029 0.0
C7521 C 0.36619 0.17953 0.62787 0.0
C7522 C 0.37181 0.1761 0.61644 0.0
C7523 C 0.37673 0.17162 0.62005 0.0
C7524 C 0.37647 0.17129 0.62762 0.0
H7525 H 0.41176 0.14323 0.60731 0.0
H7526 H 0.40272 0.15039 0.61367 0.0
C7527 C 0.37126 0.17518 0.63148 0.0
C7528 C 0.38213 0.16731 0.61591 0.0
H7529 H 0.38782 0.15007 0.61266 0.0
C7530 C 0.38714 0.17092 0.61152 0.0
C7531 C 0.38234 0.15968 0.61625 0.0
C7532 C 0.3769 0.15545 0.62058 0.0
C7533 C 0.39246 0.16714 0.60762 0.0
C7534 C 0.39271 0.15951 0.60801 0.0
C7535 C 0.38766 0.15591 0.61237 0.0
C7536 C 0.39821 0.15517 0.60404 0.0
C7537 C 0.3979 0.17136 0.60329 0.0
C7538 C 0.39866 0.15537 0.59647 0.0
C7539 C 0.40382 0.15122 0.59279 0.0
C7540 C 0.40863 0.14674 0.59659 0.0
C7541 C 0.40811 0.14652 0.60418 0.0
C7542 C 0.40295 0.15066 0.60784 0.0
H7543 H 0.39815 0.17709 0.60501 0.0
H7544 H 0.40337 0.16897 0.60379 0.0
H7545 H 0.39634 0.17123 0.59751 0.0
H7546 H 0.39496 0.15867 0.59339 0.0
H7547 H 0.40397 0.15146 0.58696 0.0
H7548 H 0.1339 0.16004 0.85687 0.0
H7549 H 0.12674 0.15086 0.86302 0.0
H7550 H 0.11463 0.14719 0.84353 0.0
H7551 H 0.12173 0.15645 0.83734 0.0
H7552 H 0.11185 0.1507 0.86526 0.0
H7553 H 0.12043 0.12672 0.84948 0.0
H7554 H 0.12528 0.13516 0.8492 0.0
H7555 H 0.11705 0.13411 0.84421 0.0
C7556 C 0.12971 0.15731 0.85387 0.0
C7557 C 0.1284 0.15904 0.84659 0.0
C7558 C 0.12563 0.15202 0.8574 0.0
C7559 C 0.12018 0.14826 0.85374 0.0
C7560 C 0.11889 0.14991 0.84645 0.0
H7561 H 0.09046 0.1144 0.86833 0.0
H7562 H 0.09669 0.1237 0.8613 0.0
C7563 C 0.12297 0.15521 0.84291 0.0
C7564 C 0.11571 0.14282 0.85766 0.0
H7565 H 0.11122 0.12494 0.85813 0.0
C7566 C 0.11172 0.14507 0.8637 0.0
C7567 C 0.11549 0.13547 0.85561 0.0
C7568 C 0.11983 0.13268 0.84931 0.0
C7569 C 0.10752 0.14019 0.86772 0.0
C7570 C 0.10741 0.13281 0.86576 0.0
C7571 C 0.1113 0.13058 0.85965 0.0
C7572 C 0.10345 0.12729 0.8701 0.0
C7573 C 0.10315 0.14302 0.87398 0.0
C7574 C 0.10517 0.12616 0.87739 0.0
C7575 C 0.10158 0.12088 0.88144 0.0
C7576 C 0.0962 0.11655 0.87829 0.0
C7577 C 0.09448 0.1177 0.87098 0.0
C7578 C 0.09809 0.12298 0.86693 0.0
H7579 H 0.1021 0.1489 0.87345 0.0
H7580 H 0.09791 0.14017 0.87443 0.0
H7581 H 0.10619 0.14216 0.87906 0.0
H7582 H 0.10937 0.12931 0.87995 0.0
H7583 H 0.10302 0.12021 0.88706 0.0
H7584 H 0.18037 0.40876 0.16516 0.0
H7585 H 0.17362 0.41534 0.15594 0.0
H7586 H 0.17137 0.39579 0.14357 0.0
H7587 H 0.17789 0.38911 0.15288 0.0
H7588 H 0.17627 0.4175 0.14146 0.0
H7589 H 0.1506 0.40262 0.14504 0.0
H7590 H 0.15792 0.40198 0.15141 0.0
H7591 H 0.15817 0.39691 0.14314 0.0
C7592 C 0.17838 0.40583 0.16051 0.0
C7593 C 0.17964 0.39836 0.15983 0.0
C7594 C 0.17456 0.40962 0.15521 0.0
C7595 C 0.17185 0.40605 0.14911 0.0
C7596 C 0.17326 0.39865 0.1483 0.0
H7597 H 0.14746 0.41862 0.11118 0.0
H7598 H 0.15434 0.41243 0.12053 0.0
C7599 C 0.17708 0.39485 0.1536 0.0
C7600 C 0.1676 0.41009 0.14358 0.0
H7601 H 0.15126 0.41059 0.13505 0.0
C7602 C 0.17079 0.41601 0.14009 0.0
C7603 C 0.16043 0.40817 0.14179 0.0
C7604 C 0.15654 0.40212 0.14558 0.0
C7605 C 0.16709 0.41994 0.13474 0.0
C7606 C 0.15994 0.41798 0.13291 0.0
C7607 C 0.15673 0.41209 0.13643 0.0
C7608 C 0.15574 0.42186 0.12724 0.0
C7609 C 0.17094 0.42603 0.13097 0.0
C7610 C 0.15411 0.42924 0.12791 0.0
C7611 C 0.15018 0.43283 0.12252 0.0
C7612 C 0.14778 0.42912 0.11634 0.0
C7613 C 0.14932 0.4217 0.11577 0.0
C7614 C 0.15323 0.41813 0.12115 0.0
H7615 H 0.17687 0.42569 0.13168 0.0
H7616 H 0.16972 0.42603 0.12511 0.0
H7617 H 0.1691 0.43124 0.13326 0.0
H7618 H 0.15585 0.43222 0.13261 0.0
H7619 H 0.14913 0.43853 0.12315 0.0
H7620 H 0.64426 0.10695 0.91204 0.0
H7621 H 0.65133 0.11329 0.90291 0.0
H7622 H 0.659 0.09297 0.89463 0.0
H7623 H 0.65173 0.08656 0.90359 0.0
H7624 H 0.66602 0.1133 0.90061 0.0
H7625 H 0.65192 0.10286 0.87638 0.0
H7626 H 0.64828 0.10189 0.88536 0.0
H7627 H 0.65531 0.09597 0.88227 0.0
C7628 C 0.64735 0.1038 0.90821 0.0
C7629 C 0.64734 0.09621 0.90855 0.0
C7630 C 0.65145 0.10745 0.90302 0.0
C7631 C 0.65563 0.10363 0.89799 0.0
C7632 C 0.65571 0.09606 0.89834 0.0
H7633 H 0.68352 0.11707 0.86238 0.0
H7634 H 0.67695 0.11029 0.87161 0.0
C7635 C 0.65161 0.09239 0.90354 0.0
C7636 C 0.66 0.10759 0.89249 0.0
H7637 H 0.66244 0.1098 0.87433 0.0
C7638 C 0.66522 0.11254 0.89486 0.0
C7639 C 0.65899 0.10661 0.88498 0.0
C7640 C 0.65328 0.1016 0.88207 0.0
C7641 C 0.6695 0.11646 0.88995 0.0
C7642 C 0.66845 0.11552 0.88244 0.0
C7643 C 0.66326 0.11053 0.88008 0.0
C7644 C 0.67261 0.1197 0.87695 0.0
C7645 C 0.67521 0.12146 0.89287 0.0
C7646 C 0.67234 0.12728 0.87681 0.0
C7647 C 0.67609 0.13118 0.87152 0.0
C7648 C 0.68015 0.1276 0.86619 0.0
C7649 C 0.6804 0.12001 0.86634 0.0
C7650 C 0.67666 0.11612 0.87164 0.0
H7651 H 0.67674 0.12002 0.89849 0.0
H7652 H 0.68013 0.12135 0.88946 0.0
H7653 H 0.67309 0.12705 0.89293 0.0
H7654 H 0.66911 0.13018 0.88071 0.0
H7655 H 0.67564 0.137 0.87151 0.0
H7656 H 0.8553 0.88947 0.36781 0.0
H7657 H 0.86158 0.89677 0.37679 0.0
H7658 H 0.84424 0.91222 0.3765 0.0
H7659 H 0.83793 0.90499 0.36742 0.0
H7660 H 0.86629 0.9111 0.37537 0.0
H7661 H 0.84699 0.90838 0.39815 0.0
H7662 H 0.8468 0.90248 0.3904 0.0
H7663 H 0.84315 0.91142 0.38979 0.0
C7664 C 0.85281 0.89443 0.36962 0.0
C7665 C 0.84609 0.89663 0.36683 0.0
C7666 C 0.85641 0.89859 0.3748 0.0
C7667 C 0.85337 0.90502 0.37739 0.0
C7668 C 0.84664 0.90721 0.37469 0.0
H7669 H 0.8692 0.9363 0.40927 0.0
H7670 H 0.86219 0.93007 0.39996 0.0
C7671 C 0.84303 0.90305 0.3695 0.0
C7672 C 0.85742 0.90953 0.3827 0.0
H7673 H 0.85685 0.91626 0.39988 0.0
C7674 C 0.86422 0.91222 0.38073 0.0
C7675 C 0.85471 0.91105 0.38968 0.0
C7676 C 0.84754 0.90815 0.39218 0.0
C7677 C 0.86837 0.91639 0.38553 0.0
C7678 C 0.86574 0.91779 0.39257 0.0
C7679 C 0.85888 0.91519 0.3945 0.0
C7680 C 0.87012 0.92172 0.39808 0.0
C7681 C 0.8755 0.91935 0.38295 0.0
C7682 C 0.87691 0.91912 0.40018 0.0
C7683 C 0.88096 0.9227 0.40545 0.0
C7684 C 0.8783 0.92896 0.40884 0.0
C7685 C 0.87149 0.93157 0.40672 0.0
C7686 C 0.86744 0.92797 0.40143 0.0
H7687 H 0.87569 0.91974 0.37697 0.0
H7688 H 0.87656 0.92478 0.38525 0.0
H7689 H 0.87989 0.91568 0.38467 0.0
H7690 H 0.87905 0.91424 0.39779 0.0
H7691 H 0.88619 0.92054 0.40687 0.0
H7692 H 0.84154 0.11678 0.1628 0.0
H7693 H 0.84836 0.11012 0.15366 0.0
H7694 H 0.85664 0.13011 0.1452 0.0
H7695 H 0.85001 0.1368 0.15444 0.0
H7696 H 0.84797 0.11072 0.13862 0.0
H7697 H 0.87501 0.11851 0.14873 0.0
H7698 H 0.86689 0.11985 0.15394 0.0
H7699 H 0.8692 0.12602 0.14682 0.0
C7700 C 0.84485 0.11977 0.15903 0.0
C7701 C 0.84525 0.12735 0.15942 0.0
C7702 C 0.84872 0.11595 0.15377 0.0
C7703 C 0.85313 0.11959 0.1488 0.0
C7704 C 0.8534 0.12716 0.14905 0.0
H7705 H 0.88133 0.10684 0.11355 0.0
H7706 H 0.8742 0.11323 0.12261 0.0
C7707 C 0.84952 0.13099 0.1543 0.0
C7708 C 0.85742 0.11548 0.14337 0.0
H7709 H 0.87464 0.11234 0.13752 0.0
C7710 C 0.8538 0.11104 0.1384 0.0
C7711 C 0.86504 0.11589 0.14308 0.0
C7712 C 0.86929 0.12026 0.14846 0.0
C7713 C 0.85757 0.10715 0.13307 0.0
C7714 C 0.86519 0.10759 0.13275 0.0
C7715 C 0.8688 0.112 0.13774 0.0
C7716 C 0.86952 0.10361 0.12725 0.0
C7717 C 0.85334 0.10275 0.12769 0.0
C7718 C 0.86936 0.09604 0.12687 0.0
C7719 C 0.87348 0.09235 0.1217 0.0
C7720 C 0.87791 0.09613 0.11681 0.0
C7721 C 0.87809 0.10371 0.11727 0.0
C7722 C 0.87397 0.10739 0.12243 0.0
H7723 H 0.8476 0.10444 0.12748 0.0
H7724 H 0.85569 0.10323 0.1222 0.0
H7725 H 0.85351 0.09699 0.1293 0.0
H7726 H 0.86611 0.09298 0.13063 0.0
H7727 H 0.87328 0.08652 0.12162 0.0
H7728 H 0.38131 0.60688 0.61352 0.0
H7729 H 0.37424 0.61322 0.62266 0.0
H7730 H 0.36602 0.59293 0.63046 0.0
H7731 H 0.37328 0.58652 0.6215 0.0
H7732 H 0.35953 0.61351 0.62473 0.0
H7733 H 0.37299 0.60234 0.64899 0.0
H7734 H 0.37675 0.60144 0.64005 0.0
H7735 H 0.36954 0.59563 0.64293 0.0
C7736 C 0.3781 0.60374 0.61725 0.0
C7737 C 0.37795 0.59615 0.61678 0.0
C7738 C 0.374 0.60739 0.62244 0.0
C7739 C 0.36966 0.60357 0.62734 0.0
C7740 C 0.36942 0.59601 0.62685 0.0
H7741 H 0.34136 0.61683 0.66266 0.0
H7742 H 0.34797 0.61013 0.65341 0.0
C7743 C 0.37353 0.59235 0.62165 0.0
C7744 C 0.36528 0.60753 0.63283 0.0
H7745 H 0.36256 0.60944 0.65099 0.0
C7746 C 0.36021 0.61264 0.63048 0.0
C7747 C 0.36614 0.60638 0.64034 0.0
C7748 C 0.37169 0.6012 0.64325 0.0
C7749 C 0.35593 0.61654 0.63538 0.0
C7750 C 0.35682 0.61543 0.64289 0.0
C7751 C 0.36186 0.6103 0.64525 0.0
C7752 C 0.35263 0.61958 0.6484 0.0
C7753 C 0.35038 0.62172 0.63247 0.0
C7754 C 0.35306 0.62714 0.64873 0.0
C7755 C 0.34928 0.63099 0.65403 0.0
C7756 C 0.34504 0.62738 0.65919 0.0
C7757 C 0.34462 0.6198 0.65884 0.0
C7758 C 0.34839 0.61596 0.65352 0.0
H7759 H 0.34894 0.62045 0.62679 0.0
H7760 H 0.34538 0.62163 0.63578 0.0
H7761 H 0.3526 0.62727 0.6326 0.0
H7762 H 0.35643 0.63006 0.64496 0.0
H7763 H 0.34985 0.6368 0.6542 0.0
H7764 H 0.14509 0.60685 0.41256 0.0
H7765 H 0.15215 0.61318 0.40341 0.0
H7766 H 0.15833 0.59285 0.394 0.0
H7767 H 0.15106 0.58646 0.40298 0.0
H7768 H 0.16669 0.61252 0.4005 0.0
H7769 H 0.15112 0.60386 0.37648 0.0
H7770 H 0.14779 0.6027 0.38555 0.0
H7771 H 0.15437 0.59656 0.38194 0.0
C7772 C 0.14784 0.6037 0.40848 0.0
C7773 C 0.14742 0.59612 0.4085 0.0
C7774 C 0.15194 0.60735 0.40328 0.0
C7775 C 0.1557 0.60352 0.39793 0.0
C7776 C 0.15537 0.59595 0.39797 0.0
H7777 H 0.18295 0.6169 0.36182 0.0
H7778 H 0.17638 0.61012 0.37105 0.0
C7779 C 0.15126 0.59229 0.40318 0.0
C7780 C 0.16006 0.60747 0.39242 0.0
H7781 H 0.16192 0.6103 0.37428 0.0
C7782 C 0.16563 0.61205 0.39477 0.0
C7783 C 0.15871 0.60686 0.38493 0.0
C7784 C 0.15263 0.60228 0.38205 0.0
C7785 C 0.16992 0.61594 0.38985 0.0
C7786 C 0.16853 0.61536 0.38236 0.0
C7787 C 0.163 0.61075 0.38001 0.0
C7788 C 0.1727 0.61954 0.37686 0.0
C7789 C 0.17599 0.62052 0.39273 0.0
C7790 C 0.17281 0.62711 0.377 0.0
C7791 C 0.17655 0.63102 0.37171 0.0
C7792 C 0.18024 0.62745 0.3661 0.0
C7793 C 0.18012 0.61985 0.36599 0.0
C7794 C 0.17639 0.61596 0.37129 0.0
H7795 H 0.17764 0.61881 0.39822 0.0
H7796 H 0.18077 0.62028 0.38912 0.0
H7797 H 0.17418 0.62621 0.39305 0.0
H7798 H 0.16987 0.63003 0.38112 0.0
H7799 H 0.17639 0.63685 0.37191 0.0
H7800 H 0.35251 0.38854 0.87158 0.0
H7801 H 0.35896 0.39573 0.88056 0.0
H7802 H 0.34782 0.4148 0.87336 0.0
H7803 H 0.34138 0.40766 0.86433 0.0
H7804 H 0.36816 0.40727 0.87827 0.0
H7805 H 0.34493 0.41579 0.89515 0.0
H7806 H 0.34429 0.40859 0.88862 0.0
H7807 H 0.34405 0.41783 0.88572 0.0
C7808 C 0.35142 0.39427 0.87189 0.0
C7809 C 0.3464 0.3975 0.8672 0.0
C7810 C 0.3551 0.39837 0.87705 0.0
C7811 C 0.35383 0.40581 0.87771 0.0
C7812 C 0.34879 0.40905 0.87308 0.0
H7813 H 0.37266 0.43854 0.90636 0.0
H7814 H 0.36593 0.43234 0.89681 0.0
C7815 C 0.3451 0.40495 0.86791 0.0
C7816 C 0.35799 0.41016 0.88306 0.0
H7817 H 0.35626 0.42097 0.89793 0.0
C7818 C 0.36555 0.41026 0.88257 0.0
C7819 C 0.3546 0.41411 0.88866 0.0
C7820 C 0.34653 0.41405 0.88964 0.0
C7821 C 0.3698 0.41418 0.88749 0.0
C7822 C 0.36642 0.41803 0.89316 0.0
C7823 C 0.35886 0.41803 0.89359 0.0
C7824 C 0.37066 0.42187 0.89884 0.0
C7825 C 0.37787 0.41426 0.88647 0.0
C7826 C 0.37553 0.41807 0.90321 0.0
C7827 C 0.37942 0.4216 0.90863 0.0
C7828 C 0.37849 0.42904 0.90989 0.0
C7829 C 0.3736 0.43284 0.9055 0.0
C7830 C 0.3697 0.42929 0.90007 0.0
H7831 H 0.3794 0.41296 0.88082 0.0
H7832 H 0.38018 0.41959 0.88791 0.0
H7833 H 0.38033 0.41012 0.89002 0.0
H7834 H 0.37628 0.41233 0.90248 0.0
H7835 H 0.38318 0.41849 0.91183 0.0
H7836 H 0.85939 0.8466 0.61763 0.0
H7837 H 0.86874 0.85303 0.6109 0.0
H7838 H 0.88232 0.85307 0.62975 0.0
H7839 H 0.87297 0.8467 0.63655 0.0
H7840 H 0.8747 0.86648 0.61373 0.0
H7841 H 0.89591 0.84541 0.6142 0.0
H7842 H 0.88662 0.84354 0.61645 0.0
H7843 H 0.89245 0.84775 0.62295 0.0
C7844 C 0.86435 0.84798 0.62037 0.0
C7845 C 0.8654 0.84611 0.62766 0.0
C7846 C 0.86971 0.85164 0.61649 0.0
C7847 C 0.87628 0.85347 0.61977 0.0
C7848 C 0.87737 0.85159 0.62704 0.0
H7849 H 0.91473 0.87686 0.6067 0.0
H7850 H 0.90533 0.87011 0.61301 0.0
C7851 C 0.87201 0.84793 0.63093 0.0
C7852 C 0.88187 0.85757 0.61567 0.0
H7853 H 0.89938 0.85696 0.60991 0.0
C7854 C 0.88008 0.86438 0.61286 0.0
C7855 C 0.88891 0.85485 0.61453 0.0
C7856 C 0.89109 0.84746 0.61713 0.0
C7857 C 0.88517 0.86859 0.6091 0.0
C7858 C 0.89222 0.86588 0.60798 0.0
C7859 C 0.89399 0.85905 0.61076 0.0
C7860 C 0.89788 0.87007 0.60405 0.0
C7861 C 0.88299 0.876 0.60655 0.0
C7862 C 0.89688 0.87227 0.59686 0.0
C7863 C 0.90227 0.87614 0.59322 0.0
C7864 C 0.90883 0.87783 0.59664 0.0
C7865 C 0.90981 0.87558 0.60384 0.0
C7866 C 0.90442 0.87174 0.60748 0.0
H7867 H 0.87816 0.87802 0.60948 0.0
H7868 H 0.88745 0.87992 0.60728 0.0
H7869 H 0.88164 0.87576 0.60073 0.0
H7870 H 0.89196 0.87091 0.59403 0.0
H7871 H 0.90136 0.87768 0.58766 0.0
H7872 H 0.92984 0.12372 0.38626 0.0
H7873 H 0.92345 0.13303 0.37941 0.0
H7874 H 0.92152 0.11851 0.36137 0.0
H7875 H 0.92797 0.10921 0.36811 0.0
H7876 H 0.92662 0.13948 0.36596 0.0
H7877 H 0.9006 0.12475 0.36491 0.0
H7878 H 0.90778 0.12224 0.37097 0.0
H7879 H 0.90819 0.11973 0.36162 0.0
C7880 C 0.92813 0.12251 0.38081 0.0
C7881 C 0.92938 0.11566 0.37778 0.0
C7882 C 0.92443 0.12784 0.37691 0.0
C7883 C 0.92186 0.12643 0.36992 0.0
C7884 C 0.92328 0.11967 0.36681 0.0
H7885 H 0.89702 0.15118 0.33837 0.0
H7886 H 0.90387 0.14191 0.34482 0.0
C7887 C 0.92697 0.11435 0.37069 0.0
C7888 C 0.91774 0.13203 0.36587 0.0
H7889 H 0.90142 0.13544 0.35798 0.0
C7890 C 0.9211 0.13861 0.36424 0.0
C7891 C 0.91054 0.13089 0.36359 0.0
C7892 C 0.90653 0.12405 0.36541 0.0
C7893 C 0.91752 0.14403 0.36031 0.0
C7894 C 0.9103 0.14291 0.35806 0.0
C7895 C 0.90695 0.13631 0.35967 0.0
C7896 C 0.9061 0.14856 0.35415 0.0
C7897 C 0.92157 0.15083 0.35845 0.0
C7898 C 0.90493 0.15535 0.35728 0.0
C7899 C 0.901 0.16065 0.35361 0.0
C7900 C 0.89808 0.15929 0.34673 0.0
C7901 C 0.89914 0.15242 0.34367 0.0
C7902 C 0.90309 0.14712 0.34734 0.0
H7903 H 0.9275 0.15001 0.35867 0.0
H7904 H 0.92012 0.15279 0.35298 0.0
H7905 H 0.92016 0.1551 0.36241 0.0
H7906 H 0.907 0.15654 0.3626 0.0
H7907 H 0.90016 0.1658 0.35624 0.0
H7908 H 0.62247 0.13857 0.09893 0.0
H7909 H 0.63163 0.14542 0.10552 0.0
H7910 H 0.62053 0.1652 0.10049 0.0
H7911 H 0.6114 0.15841 0.09384 0.0
H7912 H 0.64088 0.15652 0.10096 0.0
H7913 H 0.62246 0.16624 0.12247 0.0
H7914 H 0.62006 0.15902 0.1164 0.0
H7915 H 0.61954 0.16824 0.11346 0.0
C7916 C 0.62201 0.14438 0.09915 0.0
C7917 C 0.61614 0.14791 0.09587 0.0
C7918 C 0.62724 0.14829 0.10296 0.0
C7919 C 0.62671 0.15582 0.10363 0.0
C7920 C 0.62097 0.15938 0.10022 0.0
H7921 H 0.65292 0.1883 0.12583 0.0
H7922 H 0.6437 0.18195 0.11879 0.0
C7923 C 0.61574 0.15548 0.0964 0.0
C7924 C 0.63219 0.15994 0.10785 0.0
H7925 H 0.6343 0.17099 0.12249 0.0
C7926 C 0.63944 0.15966 0.10567 0.0
C7927 C 0.63033 0.16408 0.114 0.0
C7928 C 0.62269 0.16439 0.11678 0.0
C7929 C 0.64485 0.16347 0.10941 0.0
C7930 C 0.643 0.16755 0.1156 0.0
C7931 C 0.63574 0.16787 0.11775 0.0
C7932 C 0.64853 0.17141 0.12 0.0
C7933 C 0.65247 0.16319 0.10658 0.0
C7934 C 0.65424 0.1676 0.12318 0.0
C7935 C 0.65951 0.1712 0.12722 0.0
C7936 C 0.65918 0.17872 0.12823 0.0
C7937 C 0.65334 0.18251 0.1252 0.0
C7938 C 0.64808 0.17889 0.12114 0.0
H7939 H 0.65263 0.16167 0.10079 0.0
H7940 H 0.65522 0.16846 0.10725 0.0
H7941 H 0.65554 0.15906 0.10963 0.0
H7942 H 0.65462 0.1618 0.12258 0.0
H7943 H 0.66381 0.16807 0.1296 0.0
H7944 H 0.62346 0.87025 0.83747 0.0
H7945 H 0.61658 0.8797 0.84365 0.0
H7946 H 0.62596 0.87335 0.86393 0.0
H7947 H 0.63301 0.86408 0.8578 0.0
H7948 H 0.60639 0.87835 0.85457 0.0
H7949 H 0.62931 0.89498 0.86404 0.0
H7950 H 0.63032 0.88808 0.85724 0.0
H7951 H 0.63001 0.88569 0.86664 0.0
C7952 C 0.62415 0.87093 0.84323 0.0
C7953 C 0.62882 0.86638 0.84712 0.0
C7954 C 0.62016 0.87631 0.84677 0.0
C7955 C 0.6208 0.87732 0.85426 0.0
C7956 C 0.62545 0.87279 0.85814 0.0
H7957 H 0.60121 0.90454 0.88705 0.0
H7958 H 0.60788 0.89541 0.88023 0.0
C7959 C 0.62943 0.86741 0.85462 0.0
C7960 C 0.61646 0.88294 0.85807 0.0
H7961 H 0.61784 0.8976 0.86918 0.0
C7962 C 0.6089 0.88259 0.85772 0.0
C7963 C 0.61971 0.88848 0.86219 0.0
C7964 C 0.62778 0.88939 0.86251 0.0
C7965 C 0.60452 0.8875 0.86153 0.0
C7966 C 0.60777 0.89299 0.86572 0.0
C7967 C 0.61533 0.89338 0.86601 0.0
C7968 C 0.60346 0.89839 0.86986 0.0
C7969 C 0.59644 0.88663 0.86119 0.0
C7970 C 0.59874 0.90314 0.86632 0.0
C7971 C 0.59488 0.90835 0.87022 0.0
C7972 C 0.59566 0.90897 0.87775 0.0
C7973 C 0.60037 0.90417 0.88128 0.0
C7974 C 0.60424 0.89897 0.87738 0.0
H7975 H 0.59487 0.88115 0.85935 0.0
H7976 H 0.59394 0.88764 0.86654 0.0
H7977 H 0.5942 0.89059 0.85731 0.0
H7978 H 0.59812 0.90289 0.86052 0.0
H7979 H 0.59127 0.9119 0.86731 0.0
H7980 H 0.9156 0.14792 0.91872 0.0
H7981 H 0.90636 0.15484 0.9124 0.0
H7982 H 0.89291 0.15429 0.93136 0.0
H7983 H 0.90224 0.14754 0.93782 0.0
H7984 H 0.89221 0.15119 0.90933 0.0
H7985 H 0.8931 0.17575 0.92641 0.0
H7986 H 0.90003 0.16892 0.92671 0.0
H7987 H 0.8916 0.16752 0.93128 0.0
C7988 C 0.91073 0.14935 0.9216 0.0
C7989 C 0.90973 0.14721 0.92883 0.0
C7990 C 0.90542 0.15327 0.91795 0.0
C7991 C 0.89897 0.1552 0.92142 0.0
C7992 C 0.89789 0.153 0.9286 0.0
H7993 H 0.86057 0.17862 0.90772 0.0
H7994 H 0.8698 0.17195 0.91435 0.0
C7995 C 0.90321 0.14905 0.93226 0.0
C7996 C 0.89335 0.15939 0.91746 0.0
H7997 H 0.88389 0.17523 0.91758 0.0
C7998 C 0.89041 0.15645 0.91112 0.0
C7999 C 0.89098 0.16627 0.91979 0.0
C8000 C 0.89412 0.16985 0.92638 0.0
C8001 C 0.8851 0.16013 0.90713 0.0
C8002 C 0.88276 0.16703 0.90944 0.0
C8003 C 0.88568 0.16996 0.91579 0.0
C8004 C 0.87723 0.17125 0.90538 0.0
C8005 C 0.88193 0.1565 0.90058 0.0
C8006 C 0.87836 0.17324 0.89815 0.0
C8007 C 0.87305 0.17701 0.89431 0.0
C8008 C 0.86649 0.17894 0.89762 0.0
C8009 C 0.86548 0.17712 0.90494 0.0
C8010 C 0.87078 0.17334 0.90876 0.0
H8011 H 0.8828 0.15058 0.90068 0.0
H8012 H 0.87605 0.15756 0.90017 0.0
H8013 H 0.88458 0.15866 0.89566 0.0
H8014 H 0.88335 0.17184 0.89545 0.0
H8015 H 0.87404 0.17828 0.88869 0.0
H8016 H 0.6198 0.15903 0.68605 0.0
H8017 H 0.61279 0.14974 0.67979 0.0
H8018 H 0.63005 0.14703 0.66444 0.0
H8019 H 0.63717 0.15609 0.67079 0.0
H8020 H 0.60787 0.14953 0.66576 0.0
H8021 H 0.62613 0.12636 0.6703 0.0
H8022 H 0.62697 0.13472 0.67521 0.0
H8023 H 0.6306 0.13392 0.66624 0.0
C8024 C 0.62216 0.15637 0.68142 0.0
C8025 C 0.62908 0.15833 0.67896 0.0
C8026 C 0.61812 0.15109 0.6778 0.0
C8027 C 0.62091 0.14759 0.67168 0.0
C8028 C 0.62781 0.14953 0.66922 0.0
H8029 H 0.60652 0.11686 0.63966 0.0
H8030 H 0.61276 0.12588 0.64695 0.0
C8031 C 0.63185 0.1548 0.67282 0.0
C8032 C 0.61656 0.14209 0.66772 0.0
H8033 H 0.61695 0.12475 0.66143 0.0
C8034 C 0.60983 0.14409 0.66487 0.0
C8035 C 0.61908 0.13497 0.66656 0.0
C8036 C 0.62606 0.13233 0.6698 0.0
C8037 C 0.60569 0.13926 0.6607 0.0
C8038 C 0.60829 0.1322 0.65942 0.0
C8039 C 0.61496 0.13017 0.66237 0.0
C8040 C 0.60429 0.12687 0.65491 0.0
C8041 C 0.59867 0.14184 0.65751 0.0
C8042 C 0.59742 0.12439 0.65693 0.0
C8043 C 0.59382 0.11917 0.65278 0.0
C8044 C 0.59704 0.11628 0.64652 0.0
C8045 C 0.6039 0.11886 0.64449 0.0
C8046 C 0.60748 0.12405 0.64864 0.0
H8047 H 0.59826 0.14782 0.65757 0.0
H8048 H 0.59807 0.13993 0.65187 0.0
H8049 H 0.59413 0.13964 0.66072 0.0
H8050 H 0.59489 0.12637 0.66181 0.0
H8051 H 0.58861 0.11726 0.65459 0.0
H8052 H 0.65861 0.8394 0.40485 0.0
H8053 H 0.64927 0.84561 0.41185 0.0
H8054 H 0.64805 0.86214 0.39557 0.0
H8055 H 0.65716 0.85587 0.38844 0.0
H8056 H 0.64941 0.8593 0.4177 0.0
H8057 H 0.62699 0.85696 0.39815 0.0
H8058 H 0.63516 0.85174 0.39736 0.0
H8059 H 0.63492 0.86095 0.3943 0.0
C8060 C 0.65627 0.84429 0.40269 0.0
C8061 C 0.65866 0.84711 0.39604 0.0
C8062 C 0.65096 0.84787 0.40674 0.0
C8063 C 0.64786 0.85431 0.40421 0.0
C8064 C 0.65023 0.85712 0.39759 0.0
H8065 H 0.61777 0.88664 0.41931 0.0
H8066 H 0.62677 0.87937 0.41299 0.0
C8067 C 0.65553 0.85356 0.39355 0.0
C8068 C 0.64232 0.85822 0.40858 0.0
H8069 H 0.62531 0.86529 0.40782 0.0
C8070 C 0.64411 0.86055 0.41557 0.0
C8071 C 0.6354 0.85986 0.40582 0.0
C8072 C 0.63296 0.85719 0.39852 0.0
C8073 C 0.63927 0.86466 0.41975 0.0
C8074 C 0.6324 0.86642 0.41693 0.0
C8075 C 0.63058 0.86399 0.40998 0.0
C8076 C 0.62708 0.8709 0.42099 0.0
C8077 C 0.64164 0.86729 0.42708 0.0
C8078 C 0.62421 0.86857 0.42761 0.0
C8079 C 0.61901 0.87271 0.43124 0.0
C8080 C 0.61651 0.87926 0.42831 0.0
C8081 C 0.61946 0.88159 0.4217 0.0
C8082 C 0.62464 0.87745 0.41808 0.0
H8083 H 0.64759 0.86697 0.42774 0.0
H8084 H 0.63992 0.87295 0.42798 0.0
H8085 H 0.63912 0.86389 0.4313 0.0
H8086 H 0.62588 0.86347 0.42991 0.0
H8087 H 0.6168 0.87068 0.43625 0.0
H8088 H 0.89023 0.86543 0.16886 0.0
H8089 H 0.89743 0.87449 0.16257 0.0
H8090 H 0.91005 0.87786 0.18178 0.0
H8091 H 0.90303 0.8686 0.18806 0.0
H8092 H 0.89945 0.8888 0.16539 0.0
H8093 H 0.92568 0.87446 0.16679 0.0
H8094 H 0.91723 0.87011 0.16889 0.0
H8095 H 0.92145 0.87594 0.17538 0.0
C8096 C 0.89459 0.86803 0.17174 0.0
C8097 C 0.89608 0.86619 0.17897 0.0
C8098 C 0.89868 0.87325 0.16814 0.0
C8099 C 0.90439 0.87678 0.17164 0.0
C8100 C 0.90579 0.87511 0.1789 0.0
H8101 H 0.93431 0.91017 0.15633 0.0
H8102 H 0.92778 0.90129 0.16363 0.0
C8103 C 0.9017 0.86987 0.18252 0.0
C8104 C 0.90876 0.88227 0.16767 0.0
H8105 H 0.92584 0.88623 0.16186 0.0
C8106 C 0.90522 0.88823 0.16462 0.0
C8107 C 0.91631 0.88155 0.16667 0.0
C8108 C 0.9204 0.87514 0.16954 0.0
C8109 C 0.90899 0.89347 0.16063 0.0
C8110 C 0.91651 0.89271 0.15954 0.0
C8111 C 0.92008 0.88682 0.16269 0.0
C8112 C 0.9207 0.89788 0.15502 0.0
C8113 C 0.90489 0.89985 0.1577 0.0
C8114 C 0.91904 0.8988 0.14769 0.0
C8115 C 0.92279 0.90383 0.14348 0.0
C8116 C 0.92833 0.90807 0.14649 0.0
C8117 C 0.93013 0.90698 0.15379 0.0
C8118 C 0.92637 0.90193 0.158 0.0
H8119 H 0.8997 0.90067 0.16059 0.0
H8120 H 0.90813 0.90487 0.15811 0.0
H8121 H 0.90365 0.8989 0.15192 0.0
H8122 H 0.91482 0.89562 0.14521 0.0
H8123 H 0.92135 0.90438 0.13785 0.0
H8124 H 0.86737 0.59474 0.91487 0.0
H8125 H 0.86062 0.6013 0.90564 0.0
H8126 H 0.88024 0.60476 0.89366 0.0
H8127 H 0.88704 0.59823 0.90288 0.0
H8128 H 0.86214 0.61539 0.90127 0.0
H8129 H 0.86687 0.59708 0.87811 0.0
H8130 H 0.86871 0.59447 0.8873 0.0
H8131 H 0.875 0.60003 0.88244 0.0
C8132 C 0.87027 0.59689 0.91028 0.0
C8133 C 0.87777 0.59593 0.90964 0.0
C8134 C 0.86638 0.60063 0.90498 0.0
C8135 C 0.86988 0.60346 0.89889 0.0
C8136 C 0.87737 0.60249 0.89822 0.0
H8137 H 0.85736 0.62972 0.8622 0.0
H8138 H 0.86361 0.6226 0.87134 0.0
C8139 C 0.88126 0.59874 0.90351 0.0
C8140 C 0.86575 0.60766 0.8934 0.0
H8141 H 0.86161 0.60846 0.87544 0.0
C8142 C 0.86198 0.61385 0.89563 0.0
C8143 C 0.86554 0.60567 0.88603 0.0
C8144 C 0.86919 0.59891 0.88332 0.0
C8145 C 0.85817 0.61817 0.89069 0.0
C8146 C 0.858 0.6162 0.88331 0.0
C8147 C 0.86174 0.60999 0.88108 0.0
C8148 C 0.8541 0.62057 0.87778 0.0
C8149 C 0.85455 0.62493 0.89339 0.0
C8150 C 0.84664 0.62176 0.87829 0.0
C8151 C 0.84303 0.62591 0.87308 0.0
C8152 C 0.84681 0.62893 0.86722 0.0
C8153 C 0.85428 0.62762 0.86669 0.0
C8154 C 0.85786 0.62349 0.87189 0.0
H8155 H 0.85673 0.62666 0.8987 0.0
H8156 H 0.8552 0.62943 0.88949 0.0
H8157 H 0.8487 0.62389 0.89407 0.0
H8158 H 0.84357 0.61946 0.8827 0.0
H8159 H 0.8373 0.62681 0.8737 0.0
H8160 H 0.34658 0.90723 0.16605 0.0
H8161 H 0.35301 0.91398 0.15672 0.0
H8162 H 0.35274 0.89529 0.14292 0.0
H8163 H 0.34636 0.88846 0.15224 0.0
H8164 H 0.36637 0.91109 0.15063 0.0
H8165 H 0.3452 0.91102 0.12954 0.0
H8166 H 0.34335 0.90869 0.13881 0.0
H8167 H 0.34747 0.90222 0.13287 0.0
C8168 C 0.34789 0.90453 0.16104 0.0
C8169 C 0.34593 0.89727 0.15993 0.0
C8170 C 0.35155 0.90842 0.15569 0.0
C8171 C 0.3533 0.90519 0.14907 0.0
C8172 C 0.35132 0.89796 0.14791 0.0
H8173 H 0.37671 0.91841 0.11063 0.0
H8174 H 0.36991 0.91207 0.11997 0.0
C8175 C 0.34766 0.89406 0.15326 0.0
C8176 C 0.35741 0.9093 0.14349 0.0
H8177 H 0.35677 0.91523 0.12603 0.0
C8178 C 0.36425 0.91203 0.14527 0.0
C8179 C 0.35467 0.91053 0.13647 0.0
C8180 C 0.34724 0.90803 0.1343 0.0
C8181 C 0.36848 0.9158 0.1402 0.0
C8182 C 0.36574 0.91701 0.13317 0.0
C8183 C 0.35889 0.91431 0.1314 0.0
C8184 C 0.36994 0.92096 0.12753 0.0
C8185 C 0.37592 0.91826 0.14236 0.0
C8186 C 0.3722 0.92812 0.1286 0.0
C8187 C 0.37609 0.93179 0.12324 0.0
C8188 C 0.37776 0.92841 0.11664 0.0
C8189 C 0.37545 0.92124 0.11558 0.0
C8190 C 0.37158 0.91758 0.12095 0.0
H8191 H 0.37794 0.91527 0.14714 0.0
H8192 H 0.37982 0.91753 0.13786 0.0
H8193 H 0.37574 0.92407 0.14376 0.0
H8194 H 0.37087 0.93091 0.13355 0.0
H8195 H 0.37766 0.93732 0.12421 0.0
H8196 H 0.18782 0.12362 0.65516 0.0
H8197 H 0.18161 0.11681 0.64567 0.0
H8198 H 0.1612 0.12511 0.65306 0.0
H8199 H 0.16735 0.13209 0.66237 0.0
H8200 H 0.17116 0.10614 0.64703 0.0
H8201 H 0.16025 0.12924 0.63156 0.0
H8202 H 0.16723 0.13027 0.63826 0.0
H8203 H 0.15795 0.12949 0.64096 0.0
C8204 C 0.18202 0.12409 0.6547 0.0
C8205 C 0.1781 0.12843 0.65955 0.0
C8206 C 0.17847 0.12015 0.6493 0.0
C8207 C 0.17093 0.12051 0.64857 0.0
C8208 C 0.16702 0.12483 0.65341 0.0
H8209 H 0.13823 0.10057 0.62152 0.0
H8210 H 0.14499 0.10719 0.63072 0.0
C8211 C 0.17055 0.12876 0.6588 0.0
C8212 C 0.16713 0.11621 0.64292 0.0
H8213 H 0.15554 0.11767 0.62864 0.0
C8214 C 0.16779 0.10867 0.64297 0.0
C8215 C 0.16271 0.11949 0.63762 0.0
C8216 C 0.16203 0.12757 0.63703 0.0
C8217 C 0.16402 0.10431 0.63802 0.0
C8218 C 0.15955 0.10759 0.63277 0.0
C8219 C 0.15894 0.11514 0.63268 0.0
C8220 C 0.15545 0.10331 0.62732 0.0
C8221 C 0.16471 0.09623 0.63857 0.0
C8222 C 0.15905 0.09891 0.6223 0.0
C8223 C 0.15519 0.09508 0.61705 0.0
C8224 C 0.14762 0.09557 0.61665 0.0
C8225 C 0.14403 0.09996 0.62171 0.0
C8226 C 0.1479 0.1038 0.62695 0.0
H8227 H 0.16675 0.09454 0.64395 0.0
H8228 H 0.15944 0.09355 0.6376 0.0
H8229 H 0.16857 0.09429 0.63443 0.0
H8230 H 0.16488 0.09852 0.62238 0.0
H8231 H 0.15815 0.09173 0.6133 0.0
H8232 H 0.17549 0.88847 0.8722 0.0
H8233 H 0.16882 0.89525 0.88136 0.0
H8234 H 0.17591 0.9152 0.87179 0.0
H8235 H 0.18264 0.90847 0.86265 0.0
H8236 H 0.17349 0.90533 0.89152 0.0
H8237 H 0.15407 0.91788 0.87254 0.0
H8238 H 0.15976 0.9104 0.87 0.0
H8239 H 0.16337 0.91939 0.87032 0.0
C8240 C 0.17571 0.8943 0.87207 0.0
C8241 C 0.17959 0.8979 0.86662 0.0
C8242 C 0.17184 0.89818 0.8773 0.0
C8243 C 0.17173 0.90575 0.8772 0.0
C8244 C 0.17575 0.90937 0.87188 0.0
H8245 H 0.15046 0.93816 0.90432 0.0
H8246 H 0.15756 0.93189 0.89507 0.0
C8247 C 0.1796 0.9055 0.86665 0.0
C8248 C 0.16749 0.90985 0.88268 0.0
H8249 H 0.15364 0.92188 0.88467 0.0
C8250 C 0.16914 0.90894 0.89002 0.0
C8251 C 0.16182 0.91458 0.88074 0.0
C8252 C 0.15959 0.91559 0.87298 0.0
C8253 C 0.16535 0.91267 0.89544 0.0
C8254 C 0.15963 0.91735 0.89351 0.0
C8255 C 0.15802 0.91831 0.88617 0.0
C8256 C 0.15517 0.92118 0.89903 0.0
C8257 C 0.16761 0.91167 0.90319 0.0
C8258 C 0.15131 0.91726 0.90424 0.0
C8259 C 0.14724 0.92083 0.90951 0.0
C8260 C 0.14687 0.92841 0.9097 0.0
C8261 C 0.15058 0.93232 0.90434 0.0
C8262 C 0.15467 0.92874 0.89906 0.0
H8263 H 0.17324 0.90967 0.9036 0.0
H8264 H 0.16717 0.9168 0.90626 0.0
H8265 H 0.16403 0.90763 0.90578 0.0
H8266 H 0.15142 0.91143 0.90422 0.0
H8267 H 0.14432 0.91762 0.91342 0.0
H8268 H 0.68162 0.40882 0.36271 0.0
H8269 H 0.675 0.41549 0.37198 0.0
H8270 H 0.66877 0.39548 0.38201 0.0
H8271 H 0.67533 0.38876 0.37274 0.0
H8272 H 0.66047 0.41505 0.37532 0.0
H8273 H 0.67665 0.40684 0.39906 0.0
H8274 H 0.67972 0.40548 0.38991 0.0
H8275 H 0.67328 0.39939 0.39387 0.0
C8276 C 0.67884 0.40582 0.36687 0.0
C8277 C 0.67904 0.39823 0.36696 0.0
C8278 C 0.67507 0.40966 0.3722 0.0
C8279 C 0.67145 0.40601 0.37777 0.0
C8280 C 0.67165 0.39844 0.37788 0.0
H8281 H 0.64429 0.41818 0.41393 0.0
H8282 H 0.65126 0.41201 0.40461 0.0
C8283 C 0.67542 0.39459 0.37256 0.0
C8284 C 0.66728 0.41013 0.38331 0.0
H8285 H 0.66567 0.41298 0.40147 0.0
C8286 C 0.66164 0.41464 0.38103 0.0
C8287 C 0.66879 0.40959 0.39078 0.0
C8288 C 0.67498 0.40512 0.39356 0.0
C8289 C 0.65735 0.41846 0.38601 0.0
C8290 C 0.65883 0.41789 0.39349 0.0
C8291 C 0.66451 0.41342 0.39575 0.0
C8292 C 0.65447 0.42176 0.39907 0.0
C8293 C 0.65115 0.42292 0.38322 0.0
C8294 C 0.65396 0.42932 0.39912 0.0
C8295 C 0.64997 0.43289 0.40448 0.0
C8296 C 0.64646 0.42897 0.40997 0.0
C8297 C 0.64699 0.4214 0.40988 0.0
C8298 C 0.65096 0.41785 0.40451 0.0
H8299 H 0.64957 0.42129 0.37768 0.0
H8300 H 0.64637 0.42243 0.3868 0.0
H8301 H 0.65277 0.42867 0.38306 0.0
H8302 H 0.65675 0.43249 0.39508 0.0
H8303 H 0.64978 0.43872 0.40443 0.0
H8304 H 0.88674 0.42469 0.62202 0.0
H8305 H 0.8799 0.41801 0.63113 0.0
H8306 H 0.86006 0.42641 0.62247 0.0
H8307 H 0.86684 0.43314 0.61338 0.0
H8308 H 0.8703 0.42268 0.6418 0.0
H8309 H 0.85644 0.40469 0.62232 0.0
H8310 H 0.8641 0.41015 0.61983 0.0
H8311 H 0.85529 0.41413 0.62054 0.0
C8312 C 0.88092 0.42519 0.62209 0.0
C8313 C 0.87736 0.42943 0.6169 0.0
C8314 C 0.87701 0.42132 0.62729 0.0
C8315 C 0.86944 0.42158 0.62741 0.0
C8316 C 0.86588 0.42596 0.62238 0.0
H8317 H 0.83652 0.40059 0.65392 0.0
H8318 H 0.84308 0.40798 0.64514 0.0
C8319 C 0.86978 0.42982 0.61718 0.0
C8320 C 0.8653 0.41729 0.63282 0.0
H8321 H 0.85266 0.40395 0.6345 0.0
C8322 C 0.86646 0.41857 0.6402 0.0
C8323 C 0.86026 0.41193 0.63076 0.0
C8324 C 0.85897 0.41008 0.62294 0.0
C8325 C 0.86267 0.41473 0.64555 0.0
C8326 C 0.85766 0.40934 0.64348 0.0
C8327 C 0.85648 0.40808 0.6361 0.0
C8328 C 0.85368 0.40488 0.64888 0.0
C8329 C 0.86395 0.41661 0.65336 0.0
C8330 C 0.85743 0.40059 0.65386 0.0
C8331 C 0.8537 0.39639 0.65892 0.0
C8332 C 0.8461 0.39633 0.6591 0.0
C8333 C 0.84236 0.40057 0.65403 0.0
C8334 C 0.84611 0.40477 0.64897 0.0
H8335 H 0.86625 0.4221 0.65396 0.0
H8336 H 0.85887 0.4163 0.65652 0.0
H8337 H 0.86785 0.41272 0.6557 0.0
H8338 H 0.86326 0.40045 0.65382 0.0
H8339 H 0.85679 0.39328 0.66277 0.0
H8340 H 0.67409 0.6368 0.15411 0.0
H8341 H 0.66743 0.62997 0.14499 0.0
H8342 H 0.67611 0.61014 0.15343 0.0
H8343 H 0.6828 0.61693 0.16255 0.0
H8344 H 0.67211 0.62076 0.13424 0.0
H8345 H 0.6546 0.60595 0.15346 0.0
H8346 H 0.65994 0.61363 0.15613 0.0
H8347 H 0.66407 0.60491 0.15512 0.0
C8348 C 0.67464 0.63099 0.154 0.0
C8349 C 0.67897 0.62743 0.15912 0.0
C8350 C 0.67079 0.62708 0.14879 0.0
C8351 C 0.67114 0.61952 0.14859 0.0
C8352 C 0.67559 0.61595 0.15358 0.0
H8353 H 0.65096 0.58708 0.12068 0.0
H8354 H 0.65805 0.59335 0.12992 0.0
C8355 C 0.67943 0.61986 0.15879 0.0
C8356 C 0.66692 0.61538 0.14311 0.0
H8357 H 0.65386 0.60248 0.14118 0.0
C8358 C 0.66811 0.61678 0.13576 0.0
C8359 C 0.6617 0.61015 0.14508 0.0
C8360 C 0.65994 0.6086 0.15287 0.0
C8361 C 0.6643 0.61306 0.13035 0.0
C8362 C 0.65904 0.60788 0.13231 0.0
C8363 C 0.65789 0.60644 0.13966 0.0
C8364 C 0.65457 0.60404 0.12682 0.0
C8365 C 0.66605 0.61463 0.12255 0.0
C8366 C 0.6501 0.60793 0.12211 0.0
C8367 C 0.64602 0.60436 0.11685 0.0
C8368 C 0.64627 0.5968 0.11618 0.0
C8369 C 0.6506 0.5929 0.12105 0.0
C8370 C 0.65469 0.59648 0.12632 0.0
H8371 H 0.67148 0.61711 0.12196 0.0
H8372 H 0.66586 0.60964 0.11925 0.0
H8373 H 0.66203 0.61848 0.12037 0.0
H8374 H 0.64975 0.61374 0.12251 0.0
H8375 H 0.64263 0.60755 0.11333 0.0
H8376 H 0.61056 0.64748 0.91912 0.0
H8377 H 0.61991 0.65434 0.91288 0.0
H8378 H 0.63198 0.65597 0.93267 0.0
H8379 H 0.62261 0.64911 0.93898 0.0
H8380 H 0.62472 0.6681 0.91532 0.0
H8381 H 0.64725 0.64873 0.91872 0.0
H8382 H 0.63799 0.64632 0.92047 0.0
H8383 H 0.64302 0.65141 0.92701 0.0
C8384 C 0.61518 0.64932 0.92217 0.0
C8385 C 0.6158 0.64774 0.92958 0.0
C8386 C 0.62055 0.65322 0.91857 0.0
C8387 C 0.62672 0.65561 0.92226 0.0
C8388 C 0.62736 0.65406 0.92965 0.0
H8389 H 0.66428 0.68058 0.90821 0.0
H8390 H 0.65512 0.67418 0.91526 0.0
C8391 C 0.62199 0.65013 0.93327 0.0
C8392 C 0.63233 0.65989 0.91836 0.0
H8393 H 0.65015 0.66005 0.91357 0.0
C8394 C 0.63027 0.66633 0.91493 0.0
C8395 C 0.6396 0.65761 0.91785 0.0
C8396 C 0.64211 0.65061 0.92115 0.0
C8397 C 0.63527 0.67055 0.91108 0.0
C8398 C 0.64252 0.66823 0.91051 0.0
C8399 C 0.6446 0.66184 0.914 0.0
C8400 C 0.648 0.6723 0.90623 0.0
C8401 C 0.63275 0.67753 0.90774 0.0
C8402 C 0.64708 0.67335 0.89878 0.0
C8403 C 0.6523 0.67705 0.89473 0.0
C8404 C 0.65858 0.67976 0.89803 0.0
C8405 C 0.65947 0.67868 0.9055 0.0
C8406 C 0.65426 0.67496 0.90953 0.0
H8407 H 0.6277 0.6795 0.91029 0.0
H8408 H 0.63694 0.68178 0.90823 0.0
H8409 H 0.63166 0.67664 0.90193 0.0
H8410 H 0.64237 0.67124 0.89606 0.0
H8411 H 0.65139 0.6778 0.88901 0.0
H8412 H 0.59318 0.40066 0.14138 0.0
H8413 H 0.59932 0.39119 0.14823 0.0
H8414 H 0.60584 0.40686 0.16411 0.0
H8415 H 0.59952 0.41629 0.15745 0.0
H8416 H 0.61374 0.39019 0.15154 0.0
H8417 H 0.59775 0.39102 0.1768 0.0
H8418 H 0.59477 0.3953 0.16858 0.0
H8419 H 0.60135 0.39962 0.17424 0.0
C8420 C 0.5958 0.40208 0.1464 0.0
C8421 C 0.59583 0.40927 0.14884 0.0
C8422 C 0.59936 0.39666 0.15029 0.0
C8423 C 0.60298 0.39827 0.15675 0.0
C8424 C 0.60298 0.40543 0.15923 0.0
H8425 H 0.63052 0.37419 0.18645 0.0
H8426 H 0.62344 0.38341 0.18016 0.0
C8427 C 0.59943 0.41085 0.15535 0.0
C8428 C 0.60703 0.39255 0.16072 0.0
H8429 H 0.60865 0.38425 0.17713 0.0
C8430 C 0.61258 0.38886 0.15712 0.0
C8431 C 0.60557 0.39082 0.16803 0.0
C8432 C 0.59949 0.39434 0.17213 0.0
C8433 C 0.61679 0.38361 0.16063 0.0
C8434 C 0.61533 0.38188 0.16794 0.0
C8435 C 0.60978 0.38557 0.17155 0.0
C8436 C 0.61948 0.37622 0.17189 0.0
C8437 C 0.62287 0.38008 0.15653 0.0
C8438 C 0.61949 0.36905 0.16944 0.0
C8439 C 0.62351 0.36376 0.17303 0.0
C8440 C 0.6276 0.36548 0.1792 0.0
C8441 C 0.62742 0.37264 0.18175 0.0
C8442 C 0.6234 0.37793 0.17814 0.0
H8443 H 0.62451 0.38333 0.15177 0.0
H8444 H 0.62765 0.37928 0.16005 0.0
H8445 H 0.62107 0.37472 0.15457 0.0
H8446 H 0.61636 0.36753 0.16475 0.0
H8447 H 0.62335 0.35829 0.171 0.0
H8448 H 0.86066 0.35752 0.39617 0.0
H8449 H 0.86993 0.36371 0.40319 0.0
H8450 H 0.88096 0.34353 0.40649 0.0
H8451 H 0.87186 0.33733 0.39923 0.0
H8452 H 0.87402 0.36191 0.41727 0.0
H8453 H 0.89719 0.35624 0.39919 0.0
H8454 H 0.88797 0.35478 0.39646 0.0
H8455 H 0.89245 0.34832 0.40212 0.0
C8456 C 0.86511 0.35439 0.39828 0.0
C8457 C 0.86552 0.34691 0.39704 0.0
C8458 C 0.87039 0.35794 0.40236 0.0
C8459 C 0.87623 0.35413 0.40529 0.0
C8460 C 0.8766 0.34664 0.40417 0.0
H8461 H 0.91346 0.36693 0.43113 0.0
H8462 H 0.9041 0.3603 0.42462 0.0
C8463 C 0.87133 0.34308 0.40008 0.0
C8464 C 0.88182 0.35798 0.40961 0.0
H8465 H 0.89987 0.3617 0.41042 0.0
C8466 C 0.87967 0.36188 0.41576 0.0
C8467 C 0.88921 0.35795 0.40767 0.0
C8468 C 0.89186 0.35416 0.40096 0.0
C8469 C 0.88469 0.36564 0.42004 0.0
C8470 C 0.89207 0.36563 0.41807 0.0
C8471 C 0.89423 0.36171 0.41195 0.0
C8472 C 0.89764 0.3697 0.42223 0.0
C8473 C 0.88205 0.36947 0.42672 0.0
C8474 C 0.89717 0.37722 0.42305 0.0
C8475 C 0.90254 0.38104 0.42675 0.0
C8476 C 0.90855 0.37745 0.42969 0.0
C8477 C 0.90897 0.36991 0.42888 0.0
C8478 C 0.9036 0.36609 0.42518 0.0
H8479 H 0.87677 0.36733 0.42856 0.0
H8480 H 0.88599 0.36896 0.4312 0.0
H8481 H 0.88136 0.37529 0.4255 0.0
H8482 H 0.89272 0.38017 0.42069 0.0
H8483 H 0.90208 0.38685 0.42714 0.0
H8484 H 0.8969 0.66478 0.66845 0.0
H8485 H 0.9038 0.65542 0.66227 0.0
H8486 H 0.90628 0.64395 0.68233 0.0
H8487 H 0.89939 0.65333 0.68859 0.0
H8488 H 0.91778 0.65101 0.6645 0.0
H8489 H 0.899 0.62814 0.66896 0.0
H8490 H 0.89641 0.63739 0.6705 0.0
H8491 H 0.90177 0.63267 0.67706 0.0
C8492 C 0.89893 0.66029 0.67158 0.0
C8493 C 0.89758 0.65984 0.67905 0.0
C8494 C 0.90286 0.65491 0.66801 0.0
C8495 C 0.9055 0.64891 0.67179 0.0
C8496 C 0.90417 0.64843 0.67924 0.0
H8497 H 0.93092 0.61155 0.65803 0.0
H8498 H 0.9245 0.62074 0.66502 0.0
C8499 C 0.90022 0.65381 0.68282 0.0
C8500 C 0.90981 0.6433 0.66793 0.0
H8501 H 0.91025 0.62537 0.66358 0.0
C8502 C 0.91612 0.64541 0.66429 0.0
C8503 C 0.90768 0.63597 0.66766 0.0
C8504 C 0.90081 0.63339 0.67119 0.0
C8505 C 0.92036 0.64042 0.66046 0.0
C8506 C 0.91819 0.6331 0.66013 0.0
C8507 C 0.91193 0.63097 0.66383 0.0
C8508 C 0.92227 0.62762 0.65587 0.0
C8509 C 0.92721 0.643 0.6569 0.0
C8510 C 0.92314 0.62838 0.64838 0.0
C8511 C 0.92685 0.62315 0.64437 0.0
C8512 C 0.92976 0.617 0.64774 0.0
C8513 C 0.92887 0.61626 0.65525 0.0
C8514 C 0.92514 0.62148 0.65926 0.0
H8515 H 0.92913 0.64814 0.65928 0.0
H8516 H 0.93155 0.63891 0.65737 0.0
H8517 H 0.92616 0.64394 0.65108 0.0
H8518 H 0.92088 0.63299 0.64561 0.0
H8519 H 0.92745 0.62395 0.63861 0.0
H8520 H 0.61818 0.38559 0.60576 0.0
H8521 H 0.62718 0.37835 0.61209 0.0
H8522 H 0.62577 0.36206 0.59557 0.0
H8523 H 0.61669 0.36923 0.58923 0.0
H8524 H 0.62556 0.36439 0.6176 0.0
H8525 H 0.64757 0.36528 0.59728 0.0
H8526 H 0.63999 0.37138 0.59704 0.0
H8527 H 0.639 0.36227 0.59393 0.0
C8528 C 0.61976 0.38046 0.60346 0.0
C8529 C 0.61666 0.37801 0.59697 0.0
C8530 C 0.62494 0.37633 0.60708 0.0
C8531 C 0.62722 0.36968 0.60429 0.0
C8532 C 0.62421 0.36723 0.59777 0.0
H8533 H 0.65849 0.33806 0.6206 0.0
H8534 H 0.64915 0.34426 0.61361 0.0
C8535 C 0.61901 0.37136 0.59414 0.0
C8536 C 0.63254 0.36521 0.60836 0.0
H8537 H 0.64942 0.35782 0.60746 0.0
C8538 C 0.63078 0.36297 0.61538 0.0
C8539 C 0.63934 0.36329 0.60546 0.0
C8540 C 0.64164 0.36572 0.59804 0.0
C8541 C 0.6356 0.35885 0.61956 0.0
C8542 C 0.64246 0.35705 0.61672 0.0
C8543 C 0.64418 0.3592 0.60965 0.0
C8544 C 0.648 0.35315 0.62107 0.0
C8545 C 0.63323 0.35638 0.62694 0.0
C8546 C 0.65051 0.35608 0.62759 0.0
C8547 C 0.6558 0.35252 0.63163 0.0
C8548 C 0.65879 0.34596 0.62923 0.0
C8549 C 0.65626 0.34303 0.62268 0.0
C8550 C 0.65095 0.34661 0.61864 0.0
H8551 H 0.62726 0.35626 0.62742 0.0
H8552 H 0.63536 0.35093 0.62819 0.0
H8553 H 0.63531 0.3602 0.63105 0.0
H8554 H 0.64843 0.36118 0.62954 0.0
H8555 H 0.65755 0.35491 0.63666 0.0
H8556 H 0.89318 0.36376 0.85738 0.0
H8557 H 0.90021 0.3729 0.86375 0.0
H8558 H 0.90907 0.38024 0.84354 0.0
H8559 H 0.90185 0.37128 0.83708 0.0
H8560 H 0.91494 0.37471 0.86436 0.0
H8561 H 0.90219 0.39902 0.85251 0.0
H8562 H 0.8983 0.39015 0.85165 0.0
H8563 H 0.9057 0.3928 0.84597 0.0
C8564 C 0.89652 0.36739 0.85425 0.0
C8565 C 0.89687 0.36679 0.84668 0.0
C8566 C 0.9006 0.37258 0.85792 0.0
C8567 C 0.9051 0.37735 0.85414 0.0
C8568 C 0.90553 0.37673 0.84659 0.0
H8569 H 0.93365 0.41235 0.86768 0.0
H8570 H 0.92704 0.40315 0.8609 0.0
C8571 C 0.90145 0.37153 0.8429 0.0
C8572 C 0.90947 0.38282 0.85812 0.0
H8573 H 0.91246 0.40094 0.85984 0.0
C8574 C 0.91438 0.38044 0.86338 0.0
C8575 C 0.90878 0.39031 0.85685 0.0
C8576 C 0.90341 0.39325 0.85149 0.0
C8577 C 0.91865 0.38533 0.86733 0.0
C8578 C 0.91791 0.39283 0.86609 0.0
C8579 C 0.91305 0.3952 0.8608 0.0
C8580 C 0.92208 0.39831 0.87028 0.0
C8581 C 0.92402 0.38238 0.87268 0.0
C8582 C 0.92147 0.39872 0.87783 0.0
C8583 C 0.92524 0.40398 0.88173 0.0
C8584 C 0.92966 0.40903 0.87818 0.0
C8585 C 0.93025 0.40861 0.87061 0.0
C8586 C 0.92649 0.40333 0.86672 0.0
H8587 H 0.92541 0.37667 0.8715 0.0
H8588 H 0.92906 0.38561 0.87268 0.0
H8589 H 0.92165 0.3826 0.87817 0.0
H8590 H 0.91796 0.39504 0.88071 0.0
H8591 H 0.92453 0.40421 0.88753 0.0
H8592 H 0.86441 0.66916 0.13298 0.0
H8593 H 0.87349 0.66271 0.12594 0.0
H8594 H 0.87935 0.68249 0.11524 0.0
H8595 H 0.87044 0.68905 0.12245 0.0
H8596 H 0.87457 0.66108 0.11117 0.0
H8597 H 0.89888 0.67493 0.12173 0.0
H8598 H 0.89018 0.67565 0.12604 0.0
H8599 H 0.89217 0.6809 0.11813 0.0
C8600 C 0.8677 0.67219 0.12923 0.0
C8601 C 0.8667 0.67967 0.12836 0.0
C8602 C 0.87286 0.66846 0.12515 0.0
C8603 C 0.87719 0.67211 0.12011 0.0
C8604 C 0.87618 0.67956 0.11918 0.0
H8605 H 0.91129 0.65822 0.09063 0.0
H8606 H 0.9021 0.66499 0.09726 0.0
C8607 C 0.87102 0.6833 0.12326 0.0
C8608 C 0.88263 0.66807 0.11574 0.0
H8609 H 0.90063 0.66698 0.11188 0.0
C8610 C 0.88027 0.66236 0.11135 0.0
C8611 C 0.89008 0.66973 0.11594 0.0
C8612 C 0.89301 0.67559 0.12075 0.0
C8613 C 0.88512 0.65835 0.10709 0.0
C8614 C 0.89258 0.65998 0.10732 0.0
C8615 C 0.89493 0.66571 0.11168 0.0
C8616 C 0.89804 0.65577 0.10315 0.0
C8617 C 0.88218 0.6525 0.10226 0.0
C8618 C 0.89888 0.64832 0.10425 0.0
C8619 C 0.90415 0.64443 0.10047 0.0
C8620 C 0.90877 0.6479 0.09553 0.0
C8621 C 0.9079 0.65536 0.09444 0.0
C8622 C 0.90262 0.65925 0.09821 0.0
H8623 H 0.87635 0.65329 0.10114 0.0
H8624 H 0.88513 0.6523 0.09705 0.0
H8625 H 0.88282 0.64721 0.10498 0.0
H8626 H 0.89555 0.64553 0.10815 0.0
H8627 H 0.90473 0.63873 0.10157 0.0
H8628 H 0.59324 0.61205 0.36662 0.0
H8629 H 0.60006 0.62125 0.36007 0.0
H8630 H 0.60556 0.63153 0.38017 0.0
H8631 H 0.59895 0.62223 0.38679 0.0
H8632 H 0.59857 0.63617 0.35953 0.0
H8633 H 0.62525 0.62877 0.37077 0.0
H8634 H 0.61744 0.62305 0.37167 0.0
H8635 H 0.61856 0.63071 0.3775 0.0
C8636 C 0.59595 0.61623 0.36967 0.0
C8637 C 0.59558 0.61633 0.37726 0.0
C8638 C 0.59981 0.62152 0.3659 0.0
C8639 C 0.60345 0.62703 0.36962 0.0
C8640 C 0.60293 0.62727 0.37718 0.0
H8641 H 0.63032 0.66342 0.35733 0.0
H8642 H 0.62312 0.65432 0.36357 0.0
C8643 C 0.59906 0.62198 0.38096 0.0
C8644 C 0.60776 0.63251 0.36558 0.0
H8645 H 0.62475 0.63948 0.36381 0.0
C8646 C 0.6043 0.63687 0.36044 0.0
C8647 C 0.61525 0.63343 0.36675 0.0
C8648 C 0.61937 0.6287 0.37192 0.0
C8649 C 0.60807 0.64221 0.35657 0.0
C8650 C 0.61555 0.64316 0.35777 0.0
C8651 C 0.61902 0.63878 0.36289 0.0
C8652 C 0.61988 0.64872 0.35387 0.0
C8653 C 0.60397 0.64692 0.35137 0.0
C8654 C 0.62055 0.64859 0.34631 0.0
C8655 C 0.62472 0.65378 0.34271 0.0
C8656 C 0.62837 0.6592 0.34658 0.0
C8657 C 0.6277 0.65928 0.35415 0.0
C8658 C 0.62354 0.6541 0.35774 0.0
H8659 H 0.59807 0.64678 0.35243 0.0
H8660 H 0.60584 0.6526 0.35169 0.0
H8661 H 0.6049 0.64496 0.34579 0.0
H8662 H 0.61793 0.64441 0.3432 0.0
H8663 H 0.62519 0.65346 0.3369 0.0
H8664 H 0.6736 0.88838 0.65319 0.0
H8665 H 0.6671 0.89557 0.64426 0.0
H8666 H 0.67712 0.91487 0.65245 0.0
H8667 H 0.6836 0.90772 0.66145 0.0
H8668 H 0.65731 0.90665 0.64673 0.0
H8669 H 0.68057 0.91669 0.63076 0.0
H8670 H 0.68134 0.90929 0.63703 0.0
H8671 H 0.68112 0.91842 0.64028 0.0
C8672 C 0.67443 0.89415 0.65311 0.0
C8673 C 0.67915 0.89745 0.65807 0.0
C8674 C 0.67072 0.89827 0.64797 0.0
C8675 C 0.67167 0.90577 0.64761 0.0
C8676 C 0.67641 0.90908 0.6525 0.0
H8677 H 0.65214 0.93857 0.61953 0.0
H8678 H 0.65891 0.93236 0.62903 0.0
C8679 C 0.68012 0.90497 0.65766 0.0
C8680 C 0.66746 0.91012 0.64229 0.0
H8681 H 0.6691 0.92145 0.62782 0.0
C8682 C 0.65989 0.90988 0.64259 0.0
C8683 C 0.67081 0.91438 0.63691 0.0
C8684 C 0.67891 0.91469 0.63616 0.0
C8685 C 0.65561 0.91378 0.63769 0.0
C8686 C 0.65895 0.91794 0.63222 0.0
C8687 C 0.66652 0.91827 0.63199 0.0
C8688 C 0.6547 0.92177 0.62656 0.0
C8689 C 0.64752 0.91348 0.6385 0.0
C8690 C 0.6501 0.9179 0.62195 0.0
C8691 C 0.64619 0.92144 0.61655 0.0
C8692 C 0.64682 0.92894 0.61555 0.0
C8693 C 0.65144 0.93281 0.62018 0.0
C8694 C 0.65536 0.92925 0.62559 0.0
H8695 H 0.64591 0.91195 0.64406 0.0
H8696 H 0.64502 0.91875 0.63717 0.0
H8697 H 0.64532 0.90936 0.63476 0.0
H8698 H 0.64959 0.91211 0.62248 0.0
H8699 H 0.64265 0.91827 0.61316 0.0
H8700 H 0.41402 0.38007 0.10774 0.0
H8701 H 0.40468 0.37311 0.11391 0.0
H8702 H 0.39399 0.36939 0.09362 0.0
H8703 H 0.40343 0.37619 0.08735 0.0
H8704 H 0.38992 0.37544 0.11464 0.0
H8705 H 0.39571 0.349 0.10184 0.0
H8706 H 0.40188 0.35651 0.10133 0.0
H8707 H 0.39406 0.35623 0.09562 0.0
C8708 C 0.40973 0.3777 0.10455 0.0
C8709 C 0.40955 0.37865 0.09701 0.0
C8710 C 0.40436 0.37376 0.10811 0.0
C8711 C 0.39868 0.37061 0.10423 0.0
C8712 C 0.39839 0.37164 0.09672 0.0
H8713 H 0.36155 0.34466 0.11719 0.0
H8714 H 0.37072 0.35146 0.11058 0.0
C8715 C 0.40376 0.37561 0.09315 0.0
C8716 C 0.39302 0.36637 0.1081 0.0
H8717 H 0.38544 0.3496 0.10941 0.0
C8718 C 0.38895 0.36978 0.11351 0.0
C8719 C 0.39174 0.35899 0.10662 0.0
C8720 C 0.39611 0.35493 0.10109 0.0
C8721 C 0.3836 0.36607 0.1174 0.0
C8722 C 0.38235 0.35867 0.11597 0.0
C8723 C 0.38639 0.35526 0.11053 0.0
C8724 C 0.37687 0.35438 0.12004 0.0
C8725 C 0.3792 0.37016 0.1229 0.0
C8726 C 0.37732 0.35361 0.12757 0.0
C8727 C 0.37205 0.34975 0.13139 0.0
C8728 C 0.3662 0.34653 0.12776 0.0
C8729 C 0.36588 0.34716 0.12019 0.0
C8730 C 0.37116 0.35102 0.11639 0.0
H8731 H 0.37941 0.37607 0.12195 0.0
H8732 H 0.37348 0.36841 0.12282 0.0
H8733 H 0.38141 0.3691 0.12836 0.0
H8734 H 0.38175 0.35602 0.13051 0.0
H8735 H 0.37247 0.34944 0.1372 0.0
H8736 H 0.41735 0.61228 0.8818 0.0
H8737 H 0.41096 0.62128 0.87462 0.0
H8738 H 0.43123 0.63042 0.86789 0.0
H8739 H 0.43769 0.62148 0.87512 0.0
H8740 H 0.41118 0.6362 0.87561 0.0
H8741 H 0.42089 0.62743 0.84868 0.0
H8742 H 0.42189 0.62193 0.85665 0.0
H8743 H 0.42793 0.62934 0.85504 0.0
C8744 C 0.42048 0.61623 0.87884 0.0
C8745 C 0.42807 0.61612 0.87907 0.0
C8746 C 0.4168 0.62136 0.8747 0.0
C8747 C 0.42059 0.62648 0.87061 0.0
C8748 C 0.42817 0.62643 0.87085 0.0
H8749 H 0.4073 0.66231 0.84309 0.0
H8750 H 0.41401 0.65326 0.84996 0.0
C8751 C 0.43186 0.6213 0.875 0.0
C8752 C 0.4166 0.63196 0.86626 0.0
H8753 H 0.41411 0.63826 0.84909 0.0
C8754 C 0.4118 0.63663 0.86981 0.0
C8755 C 0.41742 0.63255 0.85869 0.0
C8756 C 0.42226 0.62751 0.85451 0.0
C8757 C 0.40789 0.64192 0.86602 0.0
C8758 C 0.40867 0.64248 0.85844 0.0
C8759 C 0.4135 0.63783 0.8549 0.0
C8760 C 0.40454 0.64786 0.85411 0.0
C8761 C 0.40307 0.64696 0.87021 0.0
C8762 C 0.39696 0.64778 0.85402 0.0
C8763 C 0.3931 0.65298 0.85011 0.0
C8764 C 0.39672 0.65837 0.84618 0.0
C8765 C 0.40431 0.65832 0.84614 0.0
C8766 C 0.40817 0.65312 0.85004 0.0
H8767 H 0.40453 0.64712 0.87602 0.0
H8768 H 0.40336 0.65252 0.86801 0.0
H8769 H 0.39741 0.64508 0.8698 0.0
H8770 H 0.39402 0.64371 0.85699 0.0
H8771 H 0.38727 0.65285 0.85032 0.0
H8772 H 0.11238 0.64464 0.60792 0.0
H8773 H 0.12137 0.6518 0.61434 0.0
H8774 H 0.13149 0.65729 0.59414 0.0
H8775 H 0.12255 0.65006 0.58766 0.0
H8776 H 0.13625 0.65029 0.61471 0.0
H8777 H 0.12878 0.67702 0.60356 0.0
H8778 H 0.12305 0.66921 0.60269 0.0
H8779 H 0.13072 0.6703 0.59686 0.0
C8780 C 0.11654 0.64731 0.60482 0.0
C8781 C 0.11671 0.64674 0.59724 0.0
C8782 C 0.12167 0.65145 0.60851 0.0
C8783 C 0.12706 0.65518 0.60474 0.0
C8784 C 0.12729 0.6546 0.59718 0.0
H8785 H 0.16339 0.68197 0.61804 0.0
H8786 H 0.15431 0.67513 0.61135 0.0
C8787 C 0.12216 0.65045 0.59347 0.0
C8788 C 0.13254 0.65952 0.60874 0.0
H8789 H 0.13935 0.67655 0.61073 0.0
C8790 C 0.13691 0.65604 0.61386 0.0
C8791 C 0.13342 0.66702 0.60763 0.0
C8792 C 0.12871 0.67114 0.60244 0.0
C8793 C 0.14218 0.65982 0.61779 0.0
C8794 C 0.14305 0.66733 0.61671 0.0
C8795 C 0.1387 0.6708 0.61157 0.0
C8796 C 0.14845 0.67164 0.62082 0.0
C8797 C 0.14691 0.65568 0.62296 0.0
C8798 C 0.14813 0.6721 0.62838 0.0
C8799 C 0.15334 0.67599 0.63224 0.0
C8800 C 0.159 0.67954 0.62862 0.0
C8801 C 0.1592 0.67922 0.62103 0.0
C8802 C 0.15397 0.67534 0.61718 0.0
H8803 H 0.1469 0.64981 0.62177 0.0
H8804 H 0.15256 0.65766 0.62276 0.0
H8805 H 0.14486 0.65643 0.62853 0.0
H8806 H 0.14385 0.66942 0.63131 0.0
H8807 H 0.15303 0.67606 0.63807 0.0
H8808 H 0.11764 0.36285 0.34264 0.0
H8809 H 0.11085 0.37204 0.34924 0.0
H8810 H 0.13074 0.38108 0.35716 0.0
H8811 H 0.13756 0.3719 0.35059 0.0
H8812 H 0.1104 0.37466 0.36383 0.0
H8813 H 0.12055 0.39888 0.34957 0.0
H8814 H 0.12187 0.38987 0.34613 0.0
H8815 H 0.12758 0.3933 0.35317 0.0
C8816 C 0.12058 0.36679 0.34578 0.0
C8817 C 0.12817 0.36662 0.34604 0.0
C8818 C 0.11669 0.37206 0.34954 0.0
C8819 C 0.12027 0.37734 0.35363 0.0
C8820 C 0.12784 0.3772 0.35391 0.0
H8821 H 0.10735 0.41235 0.382 0.0
H8822 H 0.11375 0.40325 0.37494 0.0
C8823 C 0.13174 0.37193 0.35014 0.0
C8824 C 0.11608 0.3828 0.35782 0.0
H8825 H 0.11379 0.40094 0.36027 0.0
C8826 C 0.1111 0.38041 0.36301 0.0
C8827 C 0.11699 0.39031 0.35678 0.0
C8828 C 0.12198 0.39326 0.35106 0.0
C8829 C 0.10717 0.38529 0.3673 0.0
C8830 C 0.10812 0.3928 0.3663 0.0
C8831 C 0.11306 0.39519 0.36107 0.0
C8832 C 0.10412 0.39826 0.37067 0.0
C8833 C 0.10218 0.38234 0.37302 0.0
C8834 C 0.09655 0.39856 0.3706 0.0
C8835 C 0.09285 0.40373 0.3747 0.0
C8836 C 0.09663 0.40877 0.37895 0.0
C8837 C 0.10422 0.40849 0.37893 0.0
C8838 C 0.10791 0.40332 0.37483 0.0
H8839 H 0.10348 0.37666 0.37439 0.0
H8840 H 0.10244 0.38563 0.37802 0.0
H8841 H 0.09656 0.38249 0.37099 0.0
H8842 H 0.09349 0.39482 0.36733 0.0
H8843 H 0.08701 0.40373 0.37459 0.0
H8844 H 0.40484 0.65217 0.43789 0.0
H8845 H 0.39588 0.65932 0.43134 0.0
H8846 H 0.40176 0.64861 0.41155 0.0
H8847 H 0.41074 0.64149 0.41802 0.0
H8848 H 0.39755 0.66883 0.41987 0.0
H8849 H 0.37997 0.64604 0.41183 0.0
H8850 H 0.38687 0.64517 0.41863 0.0
H8851 H 0.38922 0.64489 0.40921 0.0
C8852 C 0.40425 0.65134 0.43214 0.0
C8853 C 0.4085 0.64618 0.42852 0.0
C8854 C 0.3991 0.65542 0.4284 0.0
C8855 C 0.39803 0.65442 0.42096 0.0
C8856 C 0.40233 0.64936 0.41731 0.0
H8857 H 0.37057 0.67338 0.38795 0.0
H8858 H 0.37972 0.66673 0.39475 0.0
C8859 C 0.40747 0.64528 0.42104 0.0
C8860 C 0.39255 0.65877 0.41698 0.0
H8861 H 0.37758 0.65735 0.4063 0.0
C8862 C 0.39316 0.66632 0.41694 0.0
C8863 C 0.3868 0.65551 0.41314 0.0
C8864 C 0.38561 0.64746 0.41324 0.0
C8865 C 0.3883 0.67067 0.41305 0.0
C8866 C 0.3826 0.66741 0.40916 0.0
C8867 C 0.38196 0.65986 0.40924 0.0
C8868 C 0.37721 0.6717 0.40501 0.0
C8869 C 0.38944 0.67872 0.41297 0.0
C8870 C 0.37271 0.67671 0.40849 0.0
C8871 C 0.36749 0.68055 0.4046 0.0
C8872 C 0.36661 0.67946 0.39713 0.0
C8873 C 0.37115 0.67445 0.39366 0.0
C8874 C 0.37636 0.6706 0.39756 0.0
H8875 H 0.39503 0.68019 0.41457 0.0
H8876 H 0.38835 0.681 0.40754 0.0
H8877 H 0.38568 0.68128 0.41686 0.0
H8878 H 0.37316 0.67758 0.41424 0.0
H8879 H 0.36414 0.68439 0.40745 0.0
H8880 H 0.12006 0.65884 0.18635 0.0
H8881 H 0.11305 0.64953 0.18013 0.0
H8882 H 0.12968 0.64774 0.16397 0.0
H8883 H 0.13682 0.65682 0.17027 0.0
H8884 H 0.10751 0.64955 0.16634 0.0
H8885 H 0.1266 0.62682 0.16937 0.0
H8886 H 0.12744 0.63506 0.17448 0.0
H8887 H 0.13068 0.63461 0.16534 0.0
C8888 C 0.12229 0.65638 0.18154 0.0
C8889 C 0.12904 0.6586 0.17884 0.0
C8890 C 0.11824 0.65109 0.17795 0.0
C8891 C 0.12086 0.64784 0.17162 0.0
C8892 C 0.12758 0.65004 0.16892 0.0
H8893 H 0.10595 0.6177 0.13929 0.0
H8894 H 0.11224 0.62668 0.14659 0.0
C8895 C 0.13163 0.65532 0.17249 0.0
C8896 C 0.11649 0.64233 0.16769 0.0
H8897 H 0.11711 0.62521 0.16085 0.0
C8898 C 0.10958 0.6442 0.1652 0.0
C8899 C 0.11916 0.63533 0.1662 0.0
C8900 C 0.12635 0.6328 0.16905 0.0
C8901 C 0.1054 0.63938 0.16107 0.0
C8902 C 0.10815 0.63245 0.15945 0.0
C8903 C 0.115 0.63053 0.16204 0.0
C8904 C 0.10411 0.62714 0.15494 0.0
C8905 C 0.09818 0.64184 0.15827 0.0
C8906 C 0.09742 0.62437 0.15719 0.0
C8907 C 0.09381 0.61917 0.15304 0.0
C8908 C 0.09683 0.61658 0.14655 0.0
C8909 C 0.1035 0.61945 0.1443 0.0
C8910 C 0.10709 0.62463 0.14845 0.0
H8911 H 0.09758 0.64779 0.15856 0.0
H8912 H 0.09738 0.64009 0.1526 0.0
H8913 H 0.09384 0.63939 0.1616 0.0
H8914 H 0.09506 0.62611 0.16224 0.0
H8915 H 0.08875 0.61703 0.15502 0.0
H8916 H 0.12249 0.37597 0.93826 0.0
H8917 H 0.13184 0.36918 0.93182 0.0
H8918 H 0.12034 0.37215 0.91186 0.0
H8919 H 0.1111 0.37908 0.91819 0.0
H8920 H 0.13042 0.35641 0.92366 0.0
H8921 H 0.14072 0.37873 0.90663 0.0
H8922 H 0.1351 0.38026 0.91444 0.0
H8923 H 0.13114 0.37744 0.90605 0.0
C8924 C 0.12199 0.37526 0.93249 0.0
C8925 C 0.11601 0.37809 0.92876 0.0
C8926 C 0.12733 0.37133 0.92882 0.0
C8927 C 0.12686 0.37021 0.92133 0.0
C8928 C 0.1209 0.37302 0.91761 0.0
H8929 H 0.15248 0.34826 0.88859 0.0
H8930 H 0.14322 0.35477 0.8954 0.0
C8931 C 0.11556 0.37692 0.92126 0.0
C8932 C 0.13248 0.36597 0.91742 0.0
H8933 H 0.14476 0.36694 0.90368 0.0
C8934 C 0.13359 0.35873 0.91932 0.0
C8935 C 0.13661 0.36897 0.91174 0.0
C8936 C 0.1359 0.37679 0.90962 0.0
C8937 C 0.13858 0.35437 0.9156 0.0
C8938 C 0.14269 0.35736 0.90989 0.0
C8939 C 0.1416 0.36462 0.90802 0.0
C8940 C 0.14818 0.35309 0.90582 0.0
C8941 C 0.13924 0.34653 0.91768 0.0
C8942 C 0.15409 0.34997 0.90938 0.0
C8943 C 0.15937 0.34619 0.90551 0.0
C8944 C 0.15892 0.34548 0.89795 0.0
C8945 C 0.15297 0.34859 0.8944 0.0
C8946 C 0.14769 0.35237 0.89829 0.0
H8947 H 0.13439 0.34461 0.92063 0.0
H8948 H 0.14005 0.34308 0.91286 0.0
H8949 H 0.14396 0.34586 0.92129 0.0
H8950 H 0.15469 0.35056 0.91516 0.0
H8951 H 0.16382 0.34383 0.90845 0.0
H8952 H 0.39606 0.3612 0.66825 0.0
H8953 H 0.40306 0.37046 0.66202 0.0
H8954 H 0.4063 0.38162 0.68215 0.0
H8955 H 0.39945 0.37225 0.68848 0.0
H8956 H 0.4006 0.38523 0.66099 0.0
H8957 H 0.42687 0.37985 0.67427 0.0
H8958 H 0.4194 0.37362 0.67474 0.0
H8959 H 0.41951 0.38153 0.68035 0.0
C8960 C 0.39833 0.36557 0.67139 0.0
C8961 C 0.39723 0.36592 0.6789 0.0
C8962 C 0.4023 0.3709 0.66779 0.0
C8963 C 0.40532 0.37669 0.67161 0.0
C8964 C 0.40415 0.37714 0.67909 0.0
H8965 H 0.43127 0.41373 0.65851 0.0
H8966 H 0.42444 0.40461 0.66514 0.0
C8967 C 0.40015 0.37181 0.6827 0.0
C8968 C 0.40959 0.3823 0.66771 0.0
H8969 H 0.42633 0.38996 0.66651 0.0
C8970 C 0.40623 0.38625 0.66219 0.0
C8971 C 0.41694 0.38365 0.66927 0.0
C8972 C 0.42093 0.37941 0.67493 0.0
C8973 C 0.40997 0.39157 0.65827 0.0
C8974 C 0.41734 0.39289 0.65978 0.0
C8975 C 0.42069 0.38896 0.66533 0.0
C8976 C 0.42165 0.39834 0.6557 0.0
C8977 C 0.40594 0.39585 0.65265 0.0
C8978 C 0.42252 0.39782 0.64818 0.0
C8979 C 0.42639 0.40307 0.64436 0.0
C8980 C 0.42954 0.40897 0.64796 0.0
C8981 C 0.42883 0.40936 0.65552 0.0
C8982 C 0.42495 0.40411 0.65934 0.0
H8983 H 0.40002 0.39563 0.65354 0.0
H8984 H 0.40765 0.40158 0.65266 0.0
H8985 H 0.40707 0.39356 0.64724 0.0
H8986 H 0.42016 0.39335 0.64526 0.0
H8987 H 0.42677 0.40259 0.63855 0.0
H8988 H 0.35567 0.13563 0.36732 0.0
H8989 H 0.36201 0.12835 0.37626 0.0
H8990 H 0.34414 0.11351 0.37693 0.0
H8991 H 0.33787 0.12062 0.36775 0.0
H8992 H 0.35849 0.12474 0.39003 0.0
H8993 H 0.36087 0.09988 0.37353 0.0
H8994 H 0.35815 0.10841 0.36973 0.0
H8995 H 0.35179 0.10303 0.37469 0.0
C8996 C 0.3531 0.13078 0.36929 0.0
C8997 C 0.34627 0.12869 0.36671 0.0
C8998 C 0.35673 0.12663 0.37446 0.0
C8999 C 0.35363 0.12028 0.37719 0.0
C9000 C 0.34673 0.11828 0.37479 0.0
H9001 H 0.36948 0.08937 0.40939 0.0
H9002 H 0.36218 0.09587 0.40051 0.0
C9003 C 0.3431 0.12242 0.3696 0.0
C9004 C 0.35764 0.11586 0.38261 0.0
H9005 H 0.36487 0.09915 0.38563 0.0
C9006 C 0.35988 0.11915 0.38906 0.0
C9007 C 0.35947 0.10854 0.38137 0.0
C9008 C 0.35751 0.10476 0.37443 0.0
C9009 C 0.36386 0.11534 0.39428 0.0
C9010 C 0.36576 0.10806 0.393 0.0
C9011 C 0.36342 0.10472 0.38661 0.0
C9012 C 0.37031 0.1039 0.39816 0.0
C9013 C 0.36593 0.11914 0.40117 0.0
C9014 C 0.37739 0.10611 0.39967 0.0
C9015 C 0.3816 0.10237 0.4047 0.0
C9016 C 0.37885 0.0963 0.40835 0.0
C9017 C 0.37182 0.09397 0.40666 0.0
C9018 C 0.36761 0.09771 0.40161 0.0
H9019 H 0.36254 0.12398 0.40215 0.0
H9020 H 0.36544 0.11547 0.40587 0.0
H9021 H 0.37163 0.12093 0.40079 0.0
H9022 H 0.37966 0.11075 0.39696 0.0
H9023 H 0.38703 0.10424 0.40571 0.0
loop_
_geom_bond_atom_site_label_1
_geom_bond_atom_site_label_2
_geom_bond_distance
_geom_bond_site_symmetry_2
_ccdc_geom_bond_type
C0 C1 1.264 . S
C0 C5 1.479 . S
C0 C10 1.465 . S
C1 C0 1.264 . S
C1 C3 1.339 . S
C1 H28 0.931 . S
C2 C3 1.395 . S
C2 C4 1.320 . S
C3 C1 1.339 . S
C3 C2 1.395 . S
C3 H29 0.929 . S
C4 C2 1.320 . S
C4 C5 1.405 . S
C4 H30 0.930 . S
C5 C0 1.479 . S
C5 C4 1.405 . S
C5 H31 0.931 . S
U6 O7 2.454 . S
U6 O8 2.458 . S
U6 C9 2.984 . S
U6 C10 2.847 . S
U6 C23 2.882 . S
U6 O24 2.441 . S
U6 O25 2.420 . S
U6 O26 2.455 . S
U6 O27 2.449 . S
O7 U6 2.454 . S
O7 C9 1.353 . S
O8 U6 2.458 . S
O8 C9 1.286 . S
C9 U6 2.984 . S
C9 O7 1.353 . S
C9 O8 1.286 . S
C9 C11 1.363 . S
C10 C0 1.465 . S
C10 U6 2.847 . S
C10 O24 1.249 . S
C10 O25 1.202 . S
C11 C9 1.363 . S
C11 C13 1.408 . S
C11 C16 1.342 . S
C12 C13 1.310 . S
C12 C15 1.461 . S
C12 H32 0.932 . S
C13 C11 1.408 . S
C13 C12 1.310 . S
C13 H33 0.930 . S
C14 C15 1.474 . S
C14 C16 1.285 . S
C14 H34 0.929 . S
C15 C12 1.461 . S
C15 C14 1.474 . S
C16 C11 1.342 . S
C16 C14 1.285 . S
C16 H35 0.930 . S
C17 C20 1.424 . S
C17 C22 1.245 . S
C17 C23 1.428 . S
C18 C21 1.260 . S
C18 C22 1.477 . S
C18 H36 0.932 . S
C19 C20 1.384 . S
C19 C21 1.479 . S
C19 H37 0.929 . S
C20 C17 1.424 . S
C20 C19 1.384 . S
C20 H38 0.928 . S
C21 C18 1.260 . S
C21 C19 1.479 . S
C22 C17 1.245 . S
C22 C18 1.477 . S
C22 H39 0.932 . S
C23 U6 2.882 . S
C23 C17 1.428 . S
C23 O26 1.301 . S
C23 O27 1.282 . S
O24 U6 2.441 . S
O24 C10 1.249 . S
O25 U6 2.420 . S
O25 C10 1.202 . S
O26 U6 2.455 . S
O26 C23 1.301 . S
O27 U6 2.449 . S
O27 C23 1.282 . S
H28 C1 0.931 . S
H29 C3 0.929 . S
H30 C4 0.930 . S
H31 C5 0.931 . S
H32 C12 0.932 . S
H33 C13 0.930 . S
H34 C14 0.929 . S
H35 C16 0.930 . S
H36 C18 0.932 . S
H37 C19 0.929 . S
H38 C20 0.928 . S
H39 C22 0.932 . S
C40 C41 1.264 . S
C40 C45 1.479 . S
C40 C50 1.465 . S
C41 C40 1.264 . S
C41 C43 1.339 . S
C41 H68 0.931 . S
C42 C43 1.395 . S
C42 C44 1.320 . S
C43 C41 1.339 . S
C43 C42 1.395 . S
C43 H69 0.929 . S
C44 C42 1.320 . S
C44 C45 1.405 . S
C44 H70 0.930 . S
C45 C40 1.479 . S
C45 C44 1.405 . S
C45 H71 0.931 . S
U46 O47 2.454 . S
U46 O48 2.458 . S
U46 C49 2.984 . S
U46 C50 2.847 . S
U46 C63 2.882 . S
U46 O64 2.441 . S
U46 O65 2.420 . S
U46 O66 2.455 . S
U46 O67 2.449 . S
O47 U46 2.454 . S
O47 C49 1.353 . S
O48 U46 2.458 . S
O48 C49 1.286 . S
C49 U46 2.984 . S
C49 O47 1.353 . S
C49 O48 1.286 . S
C49 C51 1.363 . S
C50 C40 1.465 . S
C50 U46 2.847 . S
C50 O64 1.249 . S
C50 O65 1.202 . S
C51 C49 1.363 . S
C51 C53 1.408 . S
C51 C56 1.342 . S
C52 C53 1.310 . S
C52 C55 1.461 . S
C52 H72 0.932 . S
C53 C51 1.408 . S
C53 C52 1.310 . S
C53 H73 0.930 . S
C54 C55 1.474 . S
C54 C56 1.285 . S
C54 H74 0.929 . S
C55 C52 1.461 . S
C55 C54 1.474 . S
C56 C51 1.342 . S
C56 C54 1.285 . S
C56 H75 0.930 . S
C57 C60 1.424 . S
C57 C62 1.245 . S
C57 C63 1.428 . S
C58 C61 1.260 . S
C58 C62 1.477 . S
C58 H76 0.932 . S
C59 C60 1.384 . S
C59 C61 1.479 . S
C59 H77 0.929 . S
C60 C57 1.424 . S
C60 C59 1.384 . S
C60 H78 0.928 . S
C61 C58 1.260 . S
C61 C59 1.479 . S
C62 C57 1.245 . S
C62 C58 1.477 . S
C62 H79 0.932 . S
C63 U46 2.882 . S
C63 C57 1.428 . S
C63 O66 1.301 . S
C63 O67 1.282 . S
O64 U46 2.441 . S
O64 C50 1.249 . S
O65 U46 2.420 . S
O65 C50 1.202 . S
O66 U46 2.455 . S
O66 C63 1.301 . S
O67 U46 2.449 . S
O67 C63 1.282 . S
H68 C41 0.931 . S
H69 C43 0.929 . S
H70 C44 0.930 . S
H71 C45 0.931 . S
H72 C52 0.932 . S
H73 C53 0.930 . S
H74 C54 0.929 . S
H75 C56 0.930 . S
H76 C58 0.932 . S
H77 C59 0.929 . S
H78 C60 0.928 . S
H79 C62 0.932 . S
C80 C81 1.264 . S
C80 C85 1.479 . S
C80 C90 1.465 . S
C81 C80 1.264 . S
C81 C83 1.339 . S
C81 H108 0.931 . S
C82 C83 1.395 . S
C82 C84 1.320 . S
C83 C81 1.339 . S
C83 C82 1.395 . S
C83 H109 0.929 . S
C84 C82 1.320 . S
C84 C85 1.405 . S
C84 H110 0.930 . S
C85 C80 1.479 . S
C85 C84 1.405 . S
C85 H111 0.931 . S
U86 O87 2.454 . S
U86 O88 2.458 . S
U86 C89 2.984 . S
U86 C90 2.847 . S
U86 C103 2.882 . S
U86 O104 2.441 . S
U86 O105 2.420 . S
U86 O106 2.455 . S
U86 O107 2.449 . S
O87 U86 2.454 . S
O87 C89 1.353 . S
O88 U86 2.458 . S
O88 C89 1.286 . S
C89 U86 2.984 . S
C89 O87 1.353 . S
C89 O88 1.286 . S
C89 C91 1.363 . S
C90 C80 1.465 . S
C90 U86 2.847 . S
C90 O104 1.249 . S
C90 O105 1.202 . S
C91 C89 1.363 . S
C91 C93 1.408 . S
C91 C96 1.342 . S
C92 C93 1.310 . S
C92 C95 1.461 . S
C92 H112 0.932 . S
C93 C91 1.408 . S
C93 C92 1.310 . S
C93 H113 0.930 . S
C94 C95 1.474 . S
C94 C96 1.285 . S
C94 H114 0.929 . S
C95 C92 1.461 . S
C95 C94 1.474 . S
C96 C91 1.342 . S
C96 C94 1.285 . S
C96 H115 0.930 . S
C97 C100 1.424 . S
C97 C102 1.245 . S
C97 C103 1.428 . S
C98 C101 1.260 . S
C98 C102 1.477 . S
C98 H116 0.932 . S
C99 C100 1.384 . S
C99 C101 1.479 . S
C99 H117 0.929 . S
C100 C97 1.424 . S
C100 C99 1.384 . S
C100 H118 0.928 . S
C101 C98 1.260 . S
C101 C99 1.479 . S
C102 C97 1.245 . S
C102 C98 1.477 . S
C102 H119 0.932 . S
C103 U86 2.882 . S
C103 C97 1.428 . S
C103 O106 1.301 . S
C103 O107 1.282 . S
O104 U86 2.441 . S
O104 C90 1.249 . S
O105 U86 2.420 . S
O105 C90 1.202 . S
O106 U86 2.455 . S
O106 C103 1.301 . S
O107 U86 2.449 . S
O107 C103 1.282 . S
H108 C81 0.931 . S
H109 C83 0.929 . S
H110 C84 0.930 . S
H111 C85 0.931 . S
H112 C92 0.932 . S
H113 C93 0.930 . S
H114 C94 0.929 . S
H115 C96 0.930 . S
H116 C98 0.932 . S
H117 C99 0.929 . S
H118 C100 0.928 . S
H119 C102 0.932 . S
C120 C121 1.264 . S
C120 C125 1.479 . S
C120 C130 1.465 . S
C121 C120 1.264 . S
C121 C123 1.339 . S
C121 H148 0.931 . S
C122 C123 1.395 . S
C122 C124 1.320 . S
C123 C121 1.339 . S
C123 C122 1.395 . S
C123 H149 0.929 . S
C124 C122 1.320 . S
C124 C125 1.405 . S
C124 H150 0.930 . S
C125 C120 1.479 . S
C125 C124 1.405 . S
C125 H151 0.931 . S
U126 O127 2.454 . S
U126 O128 2.458 . S
U126 C129 2.984 . S
U126 C130 2.847 . S
U126 C143 2.882 . S
U126 O144 2.441 . S
U126 O145 2.420 . S
U126 O146 2.455 . S
U126 O147 2.449 . S
O127 U126 2.454 . S
O127 C129 1.353 . S
O128 U126 2.458 . S
O128 C129 1.286 . S
C129 U126 2.984 . S
C129 O127 1.353 . S
C129 O128 1.286 . S
C129 C131 1.363 . S
C130 C120 1.465 . S
C130 U126 2.847 . S
C130 O144 1.249 . S
C130 O145 1.202 . S
C131 C129 1.363 . S
C131 C133 1.408 . S
C131 C136 1.342 . S
C132 C133 1.310 . S
C132 C135 1.461 . S
C132 H152 0.932 . S
C133 C131 1.408 . S
C133 C132 1.310 . S
C133 H153 0.930 . S
C134 C135 1.474 . S
C134 C136 1.285 . S
C134 H154 0.929 . S
C135 C132 1.461 . S
C135 C134 1.474 . S
C136 C131 1.342 . S
C136 C134 1.285 . S
C136 H155 0.930 . S
C137 C140 1.424 . S
C137 C142 1.245 . S
C137 C143 1.428 . S
C138 C141 1.260 . S
C138 C142 1.477 . S
C138 H156 0.932 . S
C139 C140 1.384 . S
C139 C141 1.479 . S
C139 H157 0.929 . S
C140 C137 1.424 . S
C140 C139 1.384 . S
C140 H158 0.928 . S
C141 C138 1.260 . S
C141 C139 1.479 . S
C142 C137 1.245 . S
C142 C138 1.477 . S
C142 H159 0.932 . S
C143 U126 2.882 . S
C143 C137 1.428 . S
C143 O146 1.301 . S
C143 O147 1.282 . S
O144 U126 2.441 . S
O144 C130 1.249 . S
O145 U126 2.420 . S
O145 C130 1.202 . S
O146 U126 2.455 . S
O146 C143 1.301 . S
O147 U126 2.449 . S
O147 C143 1.282 . S
H148 C121 0.931 . S
H149 C123 0.929 . S
H150 C124 0.930 . S
H151 C125 0.931 . S
H152 C132 0.932 . S
H153 C133 0.930 . S
H154 C134 0.929 . S
H155 C136 0.930 . S
H156 C138 0.932 . S
H157 C139 0.929 . S
H158 C140 0.928 . S
H159 C142 0.932 . S
C160 C161 1.264 . S
C160 C165 1.479 . S
C160 C170 1.465 . S
C161 C160 1.264 . S
C161 C163 1.339 . S
C161 H188 0.931 . S
C162 C163 1.395 . S
C162 C164 1.320 . S
C163 C161 1.339 . S
C163 C162 1.395 . S
C163 H189 0.929 . S
C164 C162 1.320 . S
C164 C165 1.405 . S
C164 H190 0.930 . S
C165 C160 1.479 . S
C165 C164 1.405 . S
C165 H191 0.931 . S
U166 O167 2.454 . S
U166 O168 2.458 . S
U166 C169 2.984 . S
U166 C170 2.847 . S
U166 C183 2.882 . S
U166 O184 2.441 . S
U166 O185 2.420 . S
U166 O186 2.455 . S
U166 O187 2.449 . S
O167 U166 2.454 . S
O167 C169 1.353 . S
O168 U166 2.458 . S
O168 C169 1.286 . S
C169 U166 2.984 . S
C169 O167 1.353 . S
C169 O168 1.286 . S
C169 C171 1.363 . S
C170 C160 1.465 . S
C170 U166 2.847 . S
C170 O184 1.249 . S
C170 O185 1.202 . S
C171 C169 1.363 . S
C171 C173 1.408 . S
C171 C176 1.342 . S
C172 C173 1.310 . S
C172 C175 1.461 . S
C172 H192 0.932 . S
C173 C171 1.408 . S
C173 C172 1.310 . S
C173 H193 0.930 . S
C174 C175 1.474 . S
C174 C176 1.285 . S
C174 H194 0.929 . S
C175 C172 1.461 . S
C175 C174 1.474 . S
C176 C171 1.342 . S
C176 C174 1.285 . S
C176 H195 0.930 . S
C177 C180 1.424 . S
C177 C182 1.245 . S
C177 C183 1.428 . S
C178 C181 1.260 . S
C178 C182 1.477 . S
C178 H196 0.932 . S
C179 C180 1.384 . S
C179 C181 1.479 . S
C179 H197 0.929 . S
C180 C177 1.424 . S
C180 C179 1.384 . S
C180 H198 0.928 . S
C181 C178 1.260 . S
C181 C179 1.479 . S
C182 C177 1.245 . S
C182 C178 1.477 . S
C182 H199 0.932 . S
C183 U166 2.882 . S
C183 C177 1.428 . S
C183 O186 1.301 . S
C183 O187 1.282 . S
O184 U166 2.441 . S
O184 C170 1.249 . S
O185 U166 2.420 . S
O185 C170 1.202 . S
O186 U166 2.455 . S
O186 C183 1.301 . S
O187 U166 2.449 . S
O187 C183 1.282 . S
H188 C161 0.931 . S
H189 C163 0.929 . S
H190 C164 0.930 . S
H191 C165 0.931 . S
H192 C172 0.932 . S
H193 C173 0.930 . S
H194 C174 0.929 . S
H195 C176 0.930 . S
H196 C178 0.932 . S
H197 C179 0.929 . S
H198 C180 0.928 . S
H199 C182 0.932 . S
C200 C201 1.264 . S
C200 C205 1.479 . S
C200 C210 1.465 . S
C201 C200 1.264 . S
C201 C203 1.339 . S
C201 H228 0.931 . S
C202 C203 1.395 . S
C202 C204 1.320 . S
C203 C201 1.339 . S
C203 C202 1.395 . S
C203 H229 0.929 . S
C204 C202 1.320 . S
C204 C205 1.405 . S
C204 H230 0.930 . S
C205 C200 1.479 . S
C205 C204 1.405 . S
C205 H231 0.931 . S
U206 O207 2.454 . S
U206 O208 2.458 . S
U206 C209 2.984 . S
U206 C210 2.847 . S
U206 C223 2.882 . S
U206 O224 2.441 . S
U206 O225 2.420 . S
U206 O226 2.455 . S
U206 O227 2.449 . S
O207 U206 2.454 . S
O207 C209 1.353 . S
O208 U206 2.458 . S
O208 C209 1.286 . S
C209 U206 2.984 . S
C209 O207 1.353 . S
C209 O208 1.286 . S
C209 C211 1.363 . S
C210 C200 1.465 . S
C210 U206 2.847 . S
C210 O224 1.249 . S
C210 O225 1.202 . S
C211 C209 1.363 . S
C211 C213 1.408 . S
C211 C216 1.342 . S
C212 C213 1.310 . S
C212 C215 1.461 . S
C212 H232 0.932 . S
C213 C211 1.408 . S
C213 C212 1.310 . S
C213 H233 0.930 . S
C214 C215 1.474 . S
C214 C216 1.285 . S
C214 H234 0.929 . S
C215 C212 1.461 . S
C215 C214 1.474 . S
C216 C211 1.342 . S
C216 C214 1.285 . S
C216 H235 0.930 . S
C217 C220 1.424 . S
C217 C222 1.245 . S
C217 C223 1.428 . S
C218 C221 1.260 . S
C218 C222 1.477 . S
C218 H236 0.932 . S
C219 C220 1.384 . S
C219 C221 1.479 . S
C219 H237 0.929 . S
C220 C217 1.424 . S
C220 C219 1.384 . S
C220 H238 0.928 . S
C221 C218 1.260 . S
C221 C219 1.479 . S
C222 C217 1.245 . S
C222 C218 1.477 . S
C222 H239 0.932 . S
C223 U206 2.882 . S
C223 C217 1.428 . S
C223 O226 1.301 . S
C223 O227 1.282 . S
O224 U206 2.441 . S
O224 C210 1.249 . S
O225 U206 2.420 . S
O225 C210 1.202 . S
O226 U206 2.455 . S
O226 C223 1.301 . S
O227 U206 2.449 . S
O227 C223 1.282 . S
H228 C201 0.931 . S
H229 C203 0.929 . S
H230 C204 0.930 . S
H231 C205 0.931 . S
H232 C212 0.932 . S
H233 C213 0.930 . S
H234 C214 0.929 . S
H235 C216 0.930 . S
H236 C218 0.932 . S
H237 C219 0.929 . S
H238 C220 0.928 . S
H239 C222 0.932 . S
C240 C241 1.264 . S
C240 C245 1.479 . S
C240 C250 1.465 . S
C241 C240 1.264 . S
C241 C243 1.339 . S
C241 H268 0.931 . S
C242 C243 1.395 . S
C242 C244 1.320 . S
C243 C241 1.339 . S
C243 C242 1.395 . S
C243 H269 0.929 . S
C244 C242 1.320 . S
C244 C245 1.405 . S
C244 H270 0.930 . S
C245 C240 1.479 . S
C245 C244 1.405 . S
C245 H271 0.931 . S
U246 O247 2.454 . S
U246 O248 2.458 . S
U246 C249 2.984 . S
U246 C250 2.847 . S
U246 C263 2.882 . S
U246 O264 2.441 . S
U246 O265 2.420 . S
U246 O266 2.455 . S
U246 O267 2.449 . S
O247 U246 2.454 . S
O247 C249 1.353 . S
O248 U246 2.458 . S
O248 C249 1.286 . S
C249 U246 2.984 . S
C249 O247 1.353 . S
C249 O248 1.286 . S
C249 C251 1.363 . S
C250 C240 1.465 . S
C250 U246 2.847 . S
C250 O264 1.249 . S
C250 O265 1.202 . S
C251 C249 1.363 . S
C251 C253 1.408 . S
C251 C256 1.342 . S
C252 C253 1.310 . S
C252 C255 1.461 . S
C252 H272 0.932 . S
C253 C251 1.408 . S
C253 C252 1.310 . S
C253 H273 0.930 . S
C254 C255 1.474 . S
C254 C256 1.285 . S
C254 H274 0.929 . S
C255 C252 1.461 . S
C255 C254 1.474 . S
C256 C251 1.342 . S
C256 C254 1.285 . S
C256 H275 0.930 . S
C257 C260 1.424 . S
C257 C262 1.245 . S
C257 C263 1.428 . S
C258 C261 1.260 . S
C258 C262 1.477 . S
C258 H276 0.932 . S
C259 C260 1.384 . S
C259 C261 1.479 . S
C259 H277 0.929 . S
C260 C257 1.424 . S
C260 C259 1.384 . S
C260 H278 0.928 . S
C261 C258 1.260 . S
C261 C259 1.479 . S
C262 C257 1.245 . S
C262 C258 1.477 . S
C262 H279 0.932 . S
C263 U246 2.882 . S
C263 C257 1.428 . S
C263 O266 1.301 . S
C263 O267 1.282 . S
O264 U246 2.441 . S
O264 C250 1.249 . S
O265 U246 2.420 . S
O265 C250 1.202 . S
O266 U246 2.455 . S
O266 C263 1.301 . S
O267 U246 2.449 . S
O267 C263 1.282 . S
H268 C241 0.931 . S
H269 C243 0.929 . S
H270 C244 0.930 . S
H271 C245 0.931 . S
H272 C252 0.932 . S
H273 C253 0.930 . S
H274 C254 0.929 . S
H275 C256 0.930 . S
H276 C258 0.932 . S
H277 C259 0.929 . S
H278 C260 0.928 . S
H279 C262 0.932 . S
C280 C281 1.264 . S
C280 C285 1.479 . S
C280 C290 1.465 . S
C281 C280 1.264 . S
C281 C283 1.339 . S
C281 H308 0.931 . S
C282 C283 1.395 . S
C282 C284 1.320 . S
C283 C281 1.339 . S
C283 C282 1.395 . S
C283 H309 0.929 . S
C284 C282 1.320 . S
C284 C285 1.405 . S
C284 H310 0.930 . S
C285 C280 1.479 . S
C285 C284 1.405 . S
C285 H311 0.931 . S
U286 O287 2.454 . S
U286 O288 2.458 . S
U286 C289 2.984 . S
U286 C290 2.847 . S
U286 C303 2.882 . S
U286 O304 2.441 . S
U286 O305 2.420 . S
U286 O306 2.455 . S
U286 O307 2.449 . S
O287 U286 2.454 . S
O287 C289 1.353 . S
O288 U286 2.458 . S
O288 C289 1.286 . S
C289 U286 2.984 . S
C289 O287 1.353 . S
C289 O288 1.286 . S
C289 C291 1.363 . S
C290 C280 1.465 . S
C290 U286 2.847 . S
C290 O304 1.249 . S
C290 O305 1.202 . S
C291 C289 1.363 . S
C291 C293 1.408 . S
C291 C296 1.342 . S
C292 C293 1.310 . S
C292 C295 1.461 . S
C292 H312 0.932 . S
C293 C291 1.408 . S
C293 C292 1.310 . S
C293 H313 0.930 . S
C294 C295 1.474 . S
C294 C296 1.285 . S
C294 H314 0.929 . S
C295 C292 1.461 . S
C295 C294 1.474 . S
C296 C291 1.342 . S
C296 C294 1.285 . S
C296 H315 0.930 . S
C297 C300 1.424 . S
C297 C302 1.245 . S
C297 C303 1.428 . S
C298 C301 1.260 . S
C298 C302 1.477 . S
C298 H316 0.932 . S
C299 C300 1.384 . S
C299 C301 1.479 . S
C299 H317 0.929 . S
C300 C297 1.424 . S
C300 C299 1.384 . S
C300 H318 0.928 . S
C301 C298 1.260 . S
C301 C299 1.479 . S
C302 C297 1.245 . S
C302 C298 1.477 . S
C302 H319 0.932 . S
C303 U286 2.882 . S
C303 C297 1.428 . S
C303 O306 1.301 . S
C303 O307 1.282 . S
O304 U286 2.441 . S
O304 C290 1.249 . S
O305 U286 2.420 . S
O305 C290 1.202 . S
O306 U286 2.455 . S
O306 C303 1.301 . S
O307 U286 2.449 . S
O307 C303 1.282 . S
H308 C281 0.931 . S
H309 C283 0.929 . S
H310 C284 0.930 . S
H311 C285 0.931 . S
H312 C292 0.932 . S
H313 C293 0.930 . S
H314 C294 0.929 . S
H315 C296 0.930 . S
H316 C298 0.932 . S
H317 C299 0.929 . S
H318 C300 0.928 . S
H319 C302 0.932 . S
C320 C321 1.264 . S
C320 C325 1.479 . S
C320 C330 1.465 . S
C321 C320 1.264 . S
C321 C323 1.339 . S
C321 H348 0.931 . S
C322 C323 1.395 . S
C322 C324 1.320 . S
C323 C321 1.339 . S
C323 C322 1.395 . S
C323 H349 0.929 . S
C324 C322 1.320 . S
C324 C325 1.405 . S
C324 H350 0.930 . S
C325 C320 1.479 . S
C325 C324 1.405 . S
C325 H351 0.931 . S
U326 O327 2.454 . S
U326 O328 2.458 . S
U326 C329 2.984 . S
U326 C330 2.847 . S
U326 C343 2.882 . S
U326 O344 2.441 . S
U326 O345 2.420 . S
U326 O346 2.455 . S
U326 O347 2.449 . S
O327 U326 2.454 . S
O327 C329 1.353 . S
O328 U326 2.458 . S
O328 C329 1.286 . S
C329 U326 2.984 . S
C329 O327 1.353 . S
C329 O328 1.286 . S
C329 C331 1.363 . S
C330 C320 1.465 . S
C330 U326 2.847 . S
C330 O344 1.249 . S
C330 O345 1.202 . S
C331 C329 1.363 . S
C331 C333 1.408 . S
C331 C336 1.342 . S
C332 C333 1.310 . S
C332 C335 1.461 . S
C332 H352 0.932 . S
C333 C331 1.408 . S
C333 C332 1.310 . S
C333 H353 0.930 . S
C334 C335 1.474 . S
C334 C336 1.285 . S
C334 H354 0.929 . S
C335 C332 1.461 . S
C335 C334 1.474 . S
C336 C331 1.342 . S
C336 C334 1.285 . S
C336 H355 0.930 . S
C337 C340 1.424 . S
C337 C342 1.245 . S
C337 C343 1.428 . S
C338 C341 1.260 . S
C338 C342 1.477 . S
C338 H356 0.932 . S
C339 C340 1.384 . S
C339 C341 1.479 . S
C339 H357 0.929 . S
C340 C337 1.424 . S
C340 C339 1.384 . S
C340 H358 0.928 . S
C341 C338 1.260 . S
C341 C339 1.479 . S
C342 C337 1.245 . S
C342 C338 1.477 . S
C342 H359 0.932 . S
C343 U326 2.882 . S
C343 C337 1.428 . S
C343 O346 1.301 . S
C343 O347 1.282 . S
O344 U326 2.441 . S
O344 C330 1.249 . S
O345 U326 2.420 . S
O345 C330 1.202 . S
O346 U326 2.455 . S
O346 C343 1.301 . S
O347 U326 2.449 . S
O347 C343 1.282 . S
H348 C321 0.931 . S
H349 C323 0.929 . S
H350 C324 0.930 . S
H351 C325 0.931 . S
H352 C332 0.932 . S
H353 C333 0.930 . S
H354 C334 0.929 . S
H355 C336 0.930 . S
H356 C338 0.932 . S
H357 C339 0.929 . S
H358 C340 0.928 . S
H359 C342 0.932 . S
C360 C361 1.264 . S
C360 C365 1.479 . S
C360 C370 1.465 . S
C361 C360 1.264 . S
C361 C363 1.339 . S
C361 H388 0.931 . S
C362 C363 1.395 . S
C362 C364 1.320 . S
C363 C361 1.339 . S
C363 C362 1.395 . S
C363 H389 0.929 . S
C364 C362 1.320 . S
C364 C365 1.405 . S
C364 H390 0.930 . S
C365 C360 1.479 . S
C365 C364 1.405 . S
C365 H391 0.931 . S
U366 O367 2.454 . S
U366 O368 2.458 . S
U366 C369 2.984 . S
U366 C370 2.847 . S
U366 C383 2.882 . S
U366 O384 2.441 . S
U366 O385 2.420 . S
U366 O386 2.455 . S
U366 O387 2.449 . S
O367 U366 2.454 . S
O367 C369 1.353 . S
O368 U366 2.458 . S
O368 C369 1.286 . S
C369 U366 2.984 . S
C369 O367 1.353 . S
C369 O368 1.286 . S
C369 C371 1.363 . S
C370 C360 1.465 . S
C370 U366 2.847 . S
C370 O384 1.249 . S
C370 O385 1.202 . S
C371 C369 1.363 . S
C371 C373 1.408 . S
C371 C376 1.342 . S
C372 C373 1.310 . S
C372 C375 1.461 . S
C372 H392 0.932 . S
C373 C371 1.408 . S
C373 C372 1.310 . S
C373 H393 0.930 . S
C374 C375 1.474 . S
C374 C376 1.285 . S
C374 H394 0.929 . S
C375 C372 1.461 . S
C375 C374 1.474 . S
C376 C371 1.342 . S
C376 C374 1.285 . S
C376 H395 0.930 . S
C377 C380 1.424 . S
C377 C382 1.245 . S
C377 C383 1.428 . S
C378 C381 1.260 . S
C378 C382 1.477 . S
C378 H396 0.932 . S
C379 C380 1.384 . S
C379 C381 1.479 . S
C379 H397 0.929 . S
C380 C377 1.424 . S
C380 C379 1.384 . S
C380 H398 0.928 . S
C381 C378 1.260 . S
C381 C379 1.479 . S
C382 C377 1.245 . S
C382 C378 1.477 . S
C382 H399 0.932 . S
C383 U366 2.882 . S
C383 C377 1.428 . S
C383 O386 1.301 . S
C383 O387 1.282 . S
O384 U366 2.441 . S
O384 C370 1.249 . S
O385 U366 2.420 . S
O385 C370 1.202 . S
O386 U366 2.455 . S
O386 C383 1.301 . S
O387 U366 2.449 . S
O387 C383 1.282 . S
H388 C361 0.931 . S
H389 C363 0.929 . S
H390 C364 0.930 . S
H391 C365 0.931 . S
H392 C372 0.932 . S
H393 C373 0.930 . S
H394 C374 0.929 . S
H395 C376 0.930 . S
H396 C378 0.932 . S
H397 C379 0.929 . S
H398 C380 0.928 . S
H399 C382 0.932 . S
C400 C401 1.264 . S
C400 C405 1.479 . S
C400 C410 1.465 . S
C401 C400 1.264 . S
C401 C403 1.339 . S
C401 H428 0.931 . S
C402 C403 1.395 . S
C402 C404 1.320 . S
C403 C401 1.339 . S
C403 C402 1.395 . S
C403 H429 0.929 . S
C404 C402 1.320 . S
C404 C405 1.405 . S
C404 H430 0.930 . S
C405 C400 1.479 . S
C405 C404 1.405 . S
C405 H431 0.931 . S
U406 O407 2.454 . S
U406 O408 2.458 . S
U406 C409 2.984 . S
U406 C410 2.847 . S
U406 C423 2.882 . S
U406 O424 2.441 . S
U406 O425 2.420 . S
U406 O426 2.455 . S
U406 O427 2.449 . S
O407 U406 2.454 . S
O407 C409 1.353 . S
O408 U406 2.458 . S
O408 C409 1.286 . S
C409 U406 2.984 . S
C409 O407 1.353 . S
C409 O408 1.286 . S
C409 C411 1.363 . S
C410 C400 1.465 . S
C410 U406 2.847 . S
C410 O424 1.249 . S
C410 O425 1.202 . S
C411 C409 1.363 . S
C411 C413 1.408 . S
C411 C416 1.342 . S
C412 C413 1.310 . S
C412 C415 1.461 . S
C412 H432 0.932 . S
C413 C411 1.408 . S
C413 C412 1.310 . S
C413 H433 0.930 . S
C414 C415 1.474 . S
C414 C416 1.285 . S
C414 H434 0.929 . S
C415 C412 1.461 . S
C415 C414 1.474 . S
C416 C411 1.342 . S
C416 C414 1.285 . S
C416 H435 0.930 . S
C417 C420 1.424 . S
C417 C422 1.245 . S
C417 C423 1.428 . S
C418 C421 1.260 . S
C418 C422 1.477 . S
C418 H436 0.932 . S
C419 C420 1.384 . S
C419 C421 1.479 . S
C419 H437 0.929 . S
C420 C417 1.424 . S
C420 C419 1.384 . S
C420 H438 0.928 . S
C421 C418 1.260 . S
C421 C419 1.479 . S
C422 C417 1.245 . S
C422 C418 1.477 . S
C422 H439 0.932 . S
C423 U406 2.882 . S
C423 C417 1.428 . S
C423 O426 1.301 . S
C423 O427 1.282 . S
O424 U406 2.441 . S
O424 C410 1.249 . S
O425 U406 2.420 . S
O425 C410 1.202 . S
O426 U406 2.455 . S
O426 C423 1.301 . S
O427 U406 2.449 . S
O427 C423 1.282 . S
H428 C401 0.931 . S
H429 C403 0.929 . S
H430 C404 0.930 . S
H431 C405 0.931 . S
H432 C412 0.932 . S
H433 C413 0.930 . S
H434 C414 0.929 . S
H435 C416 0.930 . S
H436 C418 0.932 . S
H437 C419 0.929 . S
H438 C420 0.928 . S
H439 C422 0.932 . S
C440 C441 1.264 . S
C440 C445 1.479 . S
C440 C450 1.465 . S
C441 C440 1.264 . S
C441 C443 1.339 . S
C441 H468 0.931 . S
C442 C443 1.395 . S
C442 C444 1.320 . S
C443 C441 1.339 . S
C443 C442 1.395 . S
C443 H469 0.929 . S
C444 C442 1.320 . S
C444 C445 1.405 . S
C444 H470 0.930 . S
C445 C440 1.479 . S
C445 C444 1.405 . S
C445 H471 0.931 . S
U446 O447 2.454 . S
U446 O448 2.458 . S
U446 C449 2.984 . S
U446 C450 2.847 . S
U446 C463 2.882 . S
U446 O464 2.441 . S
U446 O465 2.420 . S
U446 O466 2.455 . S
U446 O467 2.449 . S
O447 U446 2.454 . S
O447 C449 1.353 . S
O448 U446 2.458 . S
O448 C449 1.286 . S
C449 U446 2.984 . S
C449 O447 1.353 . S
C449 O448 1.286 . S
C449 C451 1.363 . S
C450 C440 1.465 . S
C450 U446 2.847 . S
C450 O464 1.249 . S
C450 O465 1.202 . S
C451 C449 1.363 . S
C451 C453 1.408 . S
C451 C456 1.342 . S
C452 C453 1.310 . S
C452 C455 1.461 . S
C452 H472 0.932 . S
C453 C451 1.408 . S
C453 C452 1.310 . S
C453 H473 0.930 . S
C454 C455 1.474 . S
C454 C456 1.285 . S
C454 H474 0.929 . S
C455 C452 1.461 . S
C455 C454 1.474 . S
C456 C451 1.342 . S
C456 C454 1.285 . S
C456 H475 0.930 . S
C457 C460 1.424 . S
C457 C462 1.245 . S
C457 C463 1.428 . S
C458 C461 1.260 . S
C458 C462 1.477 . S
C458 H476 0.932 . S
C459 C460 1.384 . S
C459 C461 1.479 . S
C459 H477 0.929 . S
C460 C457 1.424 . S
C460 C459 1.384 . S
C460 H478 0.928 . S
C461 C458 1.260 . S
C461 C459 1.479 . S
C462 C457 1.245 . S
C462 C458 1.477 . S
C462 H479 0.932 . S
C463 U446 2.882 . S
C463 C457 1.428 . S
C463 O466 1.301 . S
C463 O467 1.282 . S
O464 U446 2.441 . S
O464 C450 1.249 . S
O465 U446 2.420 . S
O465 C450 1.202 . S
O466 U446 2.455 . S
O466 C463 1.301 . S
O467 U446 2.449 . S
O467 C463 1.282 . S
H468 C441 0.931 . S
H469 C443 0.929 . S
H470 C444 0.930 . S
H471 C445 0.931 . S
H472 C452 0.932 . S
H473 C453 0.930 . S
H474 C454 0.929 . S
H475 C456 0.930 . S
H476 C458 0.932 . S
H477 C459 0.929 . S
H478 C460 0.928 . S
H479 C462 0.932 . S
C480 C481 1.264 . S
C480 C485 1.479 . S
C480 C490 1.465 . S
C481 C480 1.264 . S
C481 C483 1.339 . S
C481 H508 0.931 . S
C482 C483 1.395 . S
C482 C484 1.320 . S
C483 C481 1.339 . S
C483 C482 1.395 . S
C483 H509 0.929 . S
C484 C482 1.320 . S
C484 C485 1.405 . S
C484 H510 0.930 . S
C485 C480 1.479 . S
C485 C484 1.405 . S
C485 H511 0.931 . S
U486 O487 2.454 . S
U486 O488 2.458 . S
U486 C489 2.984 . S
U486 C490 2.847 . S
U486 C503 2.882 . S
U486 O504 2.441 . S
U486 O505 2.420 . S
U486 O506 2.455 . S
U486 O507 2.449 . S
O487 U486 2.454 . S
O487 C489 1.353 . S
O488 U486 2.458 . S
O488 C489 1.286 . S
C489 U486 2.984 . S
C489 O487 1.353 . S
C489 O488 1.286 . S
C489 C491 1.363 . S
C490 C480 1.465 . S
C490 U486 2.847 . S
C490 O504 1.249 . S
C490 O505 1.202 . S
C491 C489 1.363 . S
C491 C493 1.408 . S
C491 C496 1.342 . S
C492 C493 1.310 . S
C492 C495 1.461 . S
C492 H512 0.932 . S
C493 C491 1.408 . S
C493 C492 1.310 . S
C493 H513 0.930 . S
C494 C495 1.474 . S
C494 C496 1.285 . S
C494 H514 0.929 . S
C495 C492 1.461 . S
C495 C494 1.474 . S
C496 C491 1.342 . S
C496 C494 1.285 . S
C496 H515 0.930 . S
C497 C500 1.424 . S
C497 C502 1.245 . S
C497 C503 1.428 . S
C498 C501 1.260 . S
C498 C502 1.477 . S
C498 H516 0.932 . S
C499 C500 1.384 . S
C499 C501 1.479 . S
C499 H517 0.929 . S
C500 C497 1.424 . S
C500 C499 1.384 . S
C500 H518 0.928 . S
C501 C498 1.260 . S
C501 C499 1.479 . S
C502 C497 1.245 . S
C502 C498 1.477 . S
C502 H519 0.932 . S
C503 U486 2.882 . S
C503 C497 1.428 . S
C503 O506 1.301 . S
C503 O507 1.282 . S
O504 U486 2.441 . S
O504 C490 1.249 . S
O505 U486 2.420 . S
O505 C490 1.202 . S
O506 U486 2.455 . S
O506 C503 1.301 . S
O507 U486 2.449 . S
O507 C503 1.282 . S
H508 C481 0.931 . S
H509 C483 0.929 . S
H510 C484 0.930 . S
H511 C485 0.931 . S
H512 C492 0.932 . S
H513 C493 0.930 . S
H514 C494 0.929 . S
H515 C496 0.930 . S
H516 C498 0.932 . S
H517 C499 0.929 . S
H518 C500 0.928 . S
H519 C502 0.932 . S
C520 C521 1.264 . S
C520 C525 1.479 . S
C520 C530 1.465 . S
C521 C520 1.264 . S
C521 C523 1.339 . S
C521 H548 0.931 . S
C522 C523 1.395 . S
C522 C524 1.320 . S
C523 C521 1.339 . S
C523 C522 1.395 . S
C523 H549 0.929 . S
C524 C522 1.320 . S
C524 C525 1.405 . S
C524 H550 0.930 . S
C525 C520 1.479 . S
C525 C524 1.405 . S
C525 H551 0.931 . S
U526 O527 2.454 . S
U526 O528 2.458 . S
U526 C529 2.984 . S
U526 C530 2.847 . S
U526 C543 2.882 . S
U526 O544 2.441 . S
U526 O545 2.420 . S
U526 O546 2.455 . S
U526 O547 2.449 . S
O527 U526 2.454 . S
O527 C529 1.353 . S
O528 U526 2.458 . S
O528 C529 1.286 . S
C529 U526 2.984 . S
C529 O527 1.353 . S
C529 O528 1.286 . S
C529 C531 1.363 . S
C530 C520 1.465 . S
C530 U526 2.847 . S
C530 O544 1.249 . S
C530 O545 1.202 . S
C531 C529 1.363 . S
C531 C533 1.408 . S
C531 C536 1.342 . S
C532 C533 1.310 . S
C532 C535 1.461 . S
C532 H552 0.932 . S
C533 C531 1.408 . S
C533 C532 1.310 . S
C533 H553 0.930 . S
C534 C535 1.474 . S
C534 C536 1.285 . S
C534 H554 0.929 . S
C535 C532 1.461 . S
C535 C534 1.474 . S
C536 C531 1.342 . S
C536 C534 1.285 . S
C536 H555 0.930 . S
C537 C540 1.424 . S
C537 C542 1.245 . S
C537 C543 1.428 . S
C538 C541 1.260 . S
C538 C542 1.477 . S
C538 H556 0.932 . S
C539 C540 1.384 . S
C539 C541 1.479 . S
C539 H557 0.929 . S
C540 C537 1.424 . S
C540 C539 1.384 . S
C540 H558 0.928 . S
C541 C538 1.260 . S
C541 C539 1.479 . S
C542 C537 1.245 . S
C542 C538 1.477 . S
C542 H559 0.932 . S
C543 U526 2.882 . S
C543 C537 1.428 . S
C543 O546 1.301 . S
C543 O547 1.282 . S
O544 U526 2.441 . S
O544 C530 1.249 . S
O545 U526 2.420 . S
O545 C530 1.202 . S
O546 U526 2.455 . S
O546 C543 1.301 . S
O547 U526 2.449 . S
O547 C543 1.282 . S
H548 C521 0.931 . S
H549 C523 0.929 . S
H550 C524 0.930 . S
H551 C525 0.931 . S
H552 C532 0.932 . S
H553 C533 0.930 . S
H554 C534 0.929 . S
H555 C536 0.930 . S
H556 C538 0.932 . S
H557 C539 0.929 . S
H558 C540 0.928 . S
H559 C542 0.932 . S
C560 C561 1.264 . S
C560 C565 1.479 . S
C560 C570 1.465 . S
C561 C560 1.264 . S
C561 C563 1.339 . S
C561 H588 0.931 . S
C562 C563 1.395 . S
C562 C564 1.320 . S
C563 C561 1.339 . S
C563 C562 1.395 . S
C563 H589 0.929 . S
C564 C562 1.320 . S
C564 C565 1.405 . S
C564 H590 0.930 . S
C565 C560 1.479 . S
C565 C564 1.405 . S
C565 H591 0.931 . S
U566 O567 2.454 . S
U566 O568 2.458 . S
U566 C569 2.984 . S
U566 C570 2.847 . S
U566 C583 2.882 . S
U566 O584 2.441 . S
U566 O585 2.420 . S
U566 O586 2.455 . S
U566 O587 2.449 . S
O567 U566 2.454 . S
O567 C569 1.353 . S
O568 U566 2.458 . S
O568 C569 1.286 . S
C569 U566 2.984 . S
C569 O567 1.353 . S
C569 O568 1.286 . S
C569 C571 1.363 . S
C570 C560 1.465 . S
C570 U566 2.847 . S
C570 O584 1.249 . S
C570 O585 1.202 . S
C571 C569 1.363 . S
C571 C573 1.408 . S
C571 C576 1.342 . S
C572 C573 1.310 . S
C572 C575 1.461 . S
C572 H592 0.932 . S
C573 C571 1.408 . S
C573 C572 1.310 . S
C573 H593 0.930 . S
C574 C575 1.474 . S
C574 C576 1.285 . S
C574 H594 0.929 . S
C575 C572 1.461 . S
C575 C574 1.474 . S
C576 C571 1.342 . S
C576 C574 1.285 . S
C576 H595 0.930 . S
C577 C580 1.424 . S
C577 C582 1.245 . S
C577 C583 1.428 . S
C578 C581 1.260 . S
C578 C582 1.477 . S
C578 H596 0.932 . S
C579 C580 1.384 . S
C579 C581 1.479 . S
C579 H597 0.929 . S
C580 C577 1.424 . S
C580 C579 1.384 . S
C580 H598 0.928 . S
C581 C578 1.260 . S
C581 C579 1.479 . S
C582 C577 1.245 . S
C582 C578 1.477 . S
C582 H599 0.932 . S
C583 U566 2.882 . S
C583 C577 1.428 . S
C583 O586 1.301 . S
C583 O587 1.282 . S
O584 U566 2.441 . S
O584 C570 1.249 . S
O585 U566 2.420 . S
O585 C570 1.202 . S
O586 U566 2.455 . S
O586 C583 1.301 . S
O587 U566 2.449 . S
O587 C583 1.282 . S
H588 C561 0.931 . S
H589 C563 0.929 . S
H590 C564 0.930 . S
H591 C565 0.931 . S
H592 C572 0.932 . S
H593 C573 0.930 . S
H594 C574 0.929 . S
H595 C576 0.930 . S
H596 C578 0.932 . S
H597 C579 0.929 . S
H598 C580 0.928 . S
H599 C582 0.932 . S
C600 C601 1.264 . S
C600 C605 1.479 . S
C600 C610 1.465 . S
C601 C600 1.264 . S
C601 C603 1.339 . S
C601 H628 0.931 . S
C602 C603 1.395 . S
C602 C604 1.320 . S
C603 C601 1.339 . S
C603 C602 1.395 . S
C603 H629 0.929 . S
C604 C602 1.320 . S
C604 C605 1.405 . S
C604 H630 0.930 . S
C605 C600 1.479 . S
C605 C604 1.405 . S
C605 H631 0.931 . S
U606 O607 2.454 . S
U606 O608 2.458 . S
U606 C609 2.984 . S
U606 C610 2.847 . S
U606 C623 2.882 . S
U606 O624 2.441 . S
U606 O625 2.420 . S
U606 O626 2.455 . S
U606 O627 2.449 . S
O607 U606 2.454 . S
O607 C609 1.353 . S
O608 U606 2.458 . S
O608 C609 1.286 . S
C609 U606 2.984 . S
C609 O607 1.353 . S
C609 O608 1.286 . S
C609 C611 1.363 . S
C610 C600 1.465 . S
C610 U606 2.847 . S
C610 O624 1.249 . S
C610 O625 1.202 . S
C611 C609 1.363 . S
C611 C613 1.408 . S
C611 C616 1.342 . S
C612 C613 1.310 . S
C612 C615 1.461 . S
C612 H632 0.932 . S
C613 C611 1.408 . S
C613 C612 1.310 . S
C613 H633 0.930 . S
C614 C615 1.474 . S
C614 C616 1.285 . S
C614 H634 0.929 . S
C615 C612 1.461 . S
C615 C614 1.474 . S
C616 C611 1.342 . S
C616 C614 1.285 . S
C616 H635 0.930 . S
C617 C620 1.424 . S
C617 C622 1.245 . S
C617 C623 1.428 . S
C618 C621 1.260 . S
C618 C622 1.477 . S
C618 H636 0.932 . S
C619 C620 1.384 . S
C619 C621 1.479 . S
C619 H637 0.929 . S
C620 C617 1.424 . S
C620 C619 1.384 . S
C620 H638 0.928 . S
C621 C618 1.260 . S
C621 C619 1.479 . S
C622 C617 1.245 . S
C622 C618 1.477 . S
C622 H639 0.932 . S
C623 U606 2.882 . S
C623 C617 1.428 . S
C623 O626 1.301 . S
C623 O627 1.282 . S
O624 U606 2.441 . S
O624 C610 1.249 . S
O625 U606 2.420 . S
O625 C610 1.202 . S
O626 U606 2.455 . S
O626 C623 1.301 . S
O627 U606 2.449 . S
O627 C623 1.282 . S
H628 C601 0.931 . S
H629 C603 0.929 . S
H630 C604 0.930 . S
H631 C605 0.931 . S
H632 C612 0.932 . S
H633 C613 0.930 . S
H634 C614 0.929 . S
H635 C616 0.930 . S
H636 C618 0.932 . S
H637 C619 0.929 . S
H638 C620 0.928 . S
H639 C622 0.932 . S
C640 C641 1.264 . S
C640 C645 1.479 . S
C640 C650 1.465 . S
C641 C640 1.264 . S
C641 C643 1.339 . S
C641 H668 0.931 . S
C642 C643 1.395 . S
C642 C644 1.320 . S
C643 C641 1.339 . S
C643 C642 1.395 . S
C643 H669 0.929 . S
C644 C642 1.320 . S
C644 C645 1.405 . S
C644 H670 0.930 . S
C645 C640 1.479 . S
C645 C644 1.405 . S
C645 H671 0.931 . S
U646 O647 2.454 . S
U646 O648 2.458 . S
U646 C649 2.984 . S
U646 C650 2.847 . S
U646 C663 2.882 . S
U646 O664 2.441 . S
U646 O665 2.420 . S
U646 O666 2.455 . S
U646 O667 2.449 . S
O647 U646 2.454 . S
O647 C649 1.353 . S
O648 U646 2.458 . S
O648 C649 1.286 . S
C649 U646 2.984 . S
C649 O647 1.353 . S
C649 O648 1.286 . S
C649 C651 1.363 . S
C650 C640 1.465 . S
C650 U646 2.847 . S
C650 O664 1.249 . S
C650 O665 1.202 . S
C651 C649 1.363 . S
C651 C653 1.408 . S
C651 C656 1.342 . S
C652 C653 1.310 . S
C652 C655 1.461 . S
C652 H672 0.932 . S
C653 C651 1.408 . S
C653 C652 1.310 . S
C653 H673 0.930 . S
C654 C655 1.474 . S
C654 C656 1.285 . S
C654 H674 0.929 . S
C655 C652 1.461 . S
C655 C654 1.474 . S
C656 C651 1.342 . S
C656 C654 1.285 . S
C656 H675 0.930 . S
C657 C660 1.424 . S
C657 C662 1.245 . S
C657 C663 1.428 . S
C658 C661 1.260 . S
C658 C662 1.477 . S
C658 H676 0.932 . S
C659 C660 1.384 . S
C659 C661 1.479 . S
C659 H677 0.929 . S
C660 C657 1.424 . S
C660 C659 1.384 . S
C660 H678 0.928 . S
C661 C658 1.260 . S
C661 C659 1.479 . S
C662 C657 1.245 . S
C662 C658 1.477 . S
C662 H679 0.932 . S
C663 U646 2.882 . S
C663 C657 1.428 . S
C663 O666 1.301 . S
C663 O667 1.282 . S
O664 U646 2.441 . S
O664 C650 1.249 . S
O665 U646 2.420 . S
O665 C650 1.202 . S
O666 U646 2.455 . S
O666 C663 1.301 . S
O667 U646 2.449 . S
O667 C663 1.282 . S
H668 C641 0.931 . S
H669 C643 0.929 . S
H670 C644 0.930 . S
H671 C645 0.931 . S
H672 C652 0.932 . S
H673 C653 0.930 . S
H674 C654 0.929 . S
H675 C656 0.930 . S
H676 C658 0.932 . S
H677 C659 0.929 . S
H678 C660 0.928 . S
H679 C662 0.932 . S
C680 C681 1.264 . S
C680 C685 1.479 . S
C680 C690 1.465 . S
C681 C680 1.264 . S
C681 C683 1.339 . S
C681 H708 0.931 . S
C682 C683 1.395 . S
C682 C684 1.320 . S
C683 C681 1.339 . S
C683 C682 1.395 . S
C683 H709 0.929 . S
C684 C682 1.320 . S
C684 C685 1.405 . S
C684 H710 0.930 . S
C685 C680 1.479 . S
C685 C684 1.405 . S
C685 H711 0.931 . S
U686 O687 2.454 . S
U686 O688 2.458 . S
U686 C689 2.984 . S
U686 C690 2.847 . S
U686 C703 2.882 . S
U686 O704 2.441 . S
U686 O705 2.420 . S
U686 O706 2.455 . S
U686 O707 2.449 . S
O687 U686 2.454 . S
O687 C689 1.353 . S
O688 U686 2.458 . S
O688 C689 1.286 . S
C689 U686 2.984 . S
C689 O687 1.353 . S
C689 O688 1.286 . S
C689 C691 1.363 . S
C690 C680 1.465 . S
C690 U686 2.847 . S
C690 O704 1.249 . S
C690 O705 1.202 . S
C691 C689 1.363 . S
C691 C693 1.408 . S
C691 C696 1.342 . S
C692 C693 1.310 . S
C692 C695 1.461 . S
C692 H712 0.932 . S
C693 C691 1.408 . S
C693 C692 1.310 . S
C693 H713 0.930 . S
C694 C695 1.474 . S
C694 C696 1.285 . S
C694 H714 0.929 . S
C695 C692 1.461 . S
C695 C694 1.474 . S
C696 C691 1.342 . S
C696 C694 1.285 . S
C696 H715 0.930 . S
C697 C700 1.424 . S
C697 C702 1.245 . S
C697 C703 1.428 . S
C698 C701 1.260 . S
C698 C702 1.477 . S
C698 H716 0.932 . S
C699 C700 1.384 . S
C699 C701 1.479 . S
C699 H717 0.929 . S
C700 C697 1.424 . S
C700 C699 1.384 . S
C700 H718 0.928 . S
C701 C698 1.260 . S
C701 C699 1.479 . S
C702 C697 1.245 . S
C702 C698 1.477 . S
C702 H719 0.932 . S
C703 U686 2.882 . S
C703 C697 1.428 . S
C703 O706 1.301 . S
C703 O707 1.282 . S
O704 U686 2.441 . S
O704 C690 1.249 . S
O705 U686 2.420 . S
O705 C690 1.202 . S
O706 U686 2.455 . S
O706 C703 1.301 . S
O707 U686 2.449 . S
O707 C703 1.282 . S
H708 C681 0.931 . S
H709 C683 0.929 . S
H710 C684 0.930 . S
H711 C685 0.931 . S
H712 C692 0.932 . S
H713 C693 0.930 . S
H714 C694 0.929 . S
H715 C696 0.930 . S
H716 C698 0.932 . S
H717 C699 0.929 . S
H718 C700 0.928 . S
H719 C702 0.932 . S
C720 C721 1.264 . S
C720 C725 1.479 . S
C720 C730 1.465 . S
C721 C720 1.264 . S
C721 C723 1.339 . S
C721 H748 0.931 . S
C722 C723 1.395 . S
C722 C724 1.320 . S
C723 C721 1.339 . S
C723 C722 1.395 . S
C723 H749 0.929 . S
C724 C722 1.320 . S
C724 C725 1.405 . S
C724 H750 0.930 . S
C725 C720 1.479 . S
C725 C724 1.405 . S
C725 H751 0.931 . S
U726 O727 2.454 . S
U726 O728 2.458 . S
U726 C729 2.984 . S
U726 C730 2.847 . S
U726 C743 2.882 . S
U726 O744 2.441 . S
U726 O745 2.420 . S
U726 O746 2.455 . S
U726 O747 2.449 . S
O727 U726 2.454 . S
O727 C729 1.353 . S
O728 U726 2.458 . S
O728 C729 1.286 . S
C729 U726 2.984 . S
C729 O727 1.353 . S
C729 O728 1.286 . S
C729 C731 1.363 . S
C730 C720 1.465 . S
C730 U726 2.847 . S
C730 O744 1.249 . S
C730 O745 1.202 . S
C731 C729 1.363 . S
C731 C733 1.408 . S
C731 C736 1.342 . S
C732 C733 1.310 . S
C732 C735 1.461 . S
C732 H752 0.932 . S
C733 C731 1.408 . S
C733 C732 1.310 . S
C733 H753 0.930 . S
C734 C735 1.474 . S
C734 C736 1.285 . S
C734 H754 0.929 . S
C735 C732 1.461 . S
C735 C734 1.474 . S
C736 C731 1.342 . S
C736 C734 1.285 . S
C736 H755 0.930 . S
C737 C740 1.424 . S
C737 C742 1.245 . S
C737 C743 1.428 . S
C738 C741 1.260 . S
C738 C742 1.477 . S
C738 H756 0.932 . S
C739 C740 1.384 . S
C739 C741 1.479 . S
C739 H757 0.929 . S
C740 C737 1.424 . S
C740 C739 1.384 . S
C740 H758 0.928 . S
C741 C738 1.260 . S
C741 C739 1.479 . S
C742 C737 1.245 . S
C742 C738 1.477 . S
C742 H759 0.932 . S
C743 U726 2.882 . S
C743 C737 1.428 . S
C743 O746 1.301 . S
C743 O747 1.282 . S
O744 U726 2.441 . S
O744 C730 1.249 . S
O745 U726 2.420 . S
O745 C730 1.202 . S
O746 U726 2.455 . S
O746 C743 1.301 . S
O747 U726 2.449 . S
O747 C743 1.282 . S
H748 C721 0.931 . S
H749 C723 0.929 . S
H750 C724 0.930 . S
H751 C725 0.931 . S
H752 C732 0.932 . S
H753 C733 0.930 . S
H754 C734 0.929 . S
H755 C736 0.930 . S
H756 C738 0.932 . S
H757 C739 0.929 . S
H758 C740 0.928 . S
H759 C742 0.932 . S
C760 C761 1.264 . S
C760 C765 1.479 . S
C760 C770 1.465 . S
C761 C760 1.264 . S
C761 C763 1.339 . S
C761 H788 0.931 . S
C762 C763 1.395 . S
C762 C764 1.320 . S
C763 C761 1.339 . S
C763 C762 1.395 . S
C763 H789 0.929 . S
C764 C762 1.320 . S
C764 C765 1.405 . S
C764 H790 0.930 . S
C765 C760 1.479 . S
C765 C764 1.405 . S
C765 H791 0.931 . S
U766 O767 2.454 . S
U766 O768 2.458 . S
U766 C769 2.984 . S
U766 C770 2.847 . S
U766 C783 2.882 . S
U766 O784 2.441 . S
U766 O785 2.420 . S
U766 O786 2.455 . S
U766 O787 2.449 . S
O767 U766 2.454 . S
O767 C769 1.353 . S
O768 U766 2.458 . S
O768 C769 1.286 . S
C769 U766 2.984 . S
C769 O767 1.353 . S
C769 O768 1.286 . S
C769 C771 1.363 . S
C770 C760 1.465 . S
C770 U766 2.847 . S
C770 O784 1.249 . S
C770 O785 1.202 . S
C771 C769 1.363 . S
C771 C773 1.408 . S
C771 C776 1.342 . S
C772 C773 1.310 . S
C772 C775 1.461 . S
C772 H792 0.932 . S
C773 C771 1.408 . S
C773 C772 1.310 . S
C773 H793 0.930 . S
C774 C775 1.474 . S
C774 C776 1.285 . S
C774 H794 0.929 . S
C775 C772 1.461 . S
C775 C774 1.474 . S
C776 C771 1.342 . S
C776 C774 1.285 . S
C776 H795 0.930 . S
C777 C780 1.424 . S
C777 C782 1.245 . S
C777 C783 1.428 . S
C778 C781 1.260 . S
C778 C782 1.477 . S
C778 H796 0.932 . S
C779 C780 1.384 . S
C779 C781 1.479 . S
C779 H797 0.929 . S
C780 C777 1.424 . S
C780 C779 1.384 . S
C780 H798 0.928 . S
C781 C778 1.260 . S
C781 C779 1.479 . S
C782 C777 1.245 . S
C782 C778 1.477 . S
C782 H799 0.932 . S
C783 U766 2.882 . S
C783 C777 1.428 . S
C783 O786 1.301 . S
C783 O787 1.282 . S
O784 U766 2.441 . S
O784 C770 1.249 . S
O785 U766 2.420 . S
O785 C770 1.202 . S
O786 U766 2.455 . S
O786 C783 1.301 . S
O787 U766 2.449 . S
O787 C783 1.282 . S
H788 C761 0.931 . S
H789 C763 0.929 . S
H790 C764 0.930 . S
H791 C765 0.931 . S
H792 C772 0.932 . S
H793 C773 0.930 . S
H794 C774 0.929 . S
H795 C776 0.930 . S
H796 C778 0.932 . S
H797 C779 0.929 . S
H798 C780 0.928 . S
H799 C782 0.932 . S
C800 C801 1.264 . S
C800 C805 1.479 . S
C800 C810 1.465 . S
C801 C800 1.264 . S
C801 C803 1.339 . S
C801 H828 0.931 . S
C802 C803 1.395 . S
C802 C804 1.320 . S
C803 C801 1.339 . S
C803 C802 1.395 . S
C803 H829 0.929 . S
C804 C802 1.320 . S
C804 C805 1.405 . S
C804 H830 0.930 . S
C805 C800 1.479 . S
C805 C804 1.405 . S
C805 H831 0.931 . S
U806 O807 2.454 . S
U806 O808 2.458 . S
U806 C809 2.984 . S
U806 C810 2.847 . S
U806 C823 2.882 . S
U806 O824 2.441 . S
U806 O825 2.420 . S
U806 O826 2.455 . S
U806 O827 2.449 . S
O807 U806 2.454 . S
O807 C809 1.353 . S
O808 U806 2.458 . S
O808 C809 1.286 . S
C809 U806 2.984 . S
C809 O807 1.353 . S
C809 O808 1.286 . S
C809 C811 1.363 . S
C810 C800 1.465 . S
C810 U806 2.847 . S
C810 O824 1.249 . S
C810 O825 1.202 . S
C811 C809 1.363 . S
C811 C813 1.408 . S
C811 C816 1.342 . S
C812 C813 1.310 . S
C812 C815 1.461 . S
C812 H832 0.932 . S
C813 C811 1.408 . S
C813 C812 1.310 . S
C813 H833 0.930 . S
C814 C815 1.474 . S
C814 C816 1.285 . S
C814 H834 0.929 . S
C815 C812 1.461 . S
C815 C814 1.474 . S
C816 C811 1.342 . S
C816 C814 1.285 . S
C816 H835 0.930 . S
C817 C820 1.424 . S
C817 C822 1.245 . S
C817 C823 1.428 . S
C818 C821 1.260 . S
C818 C822 1.477 . S
C818 H836 0.932 . S
C819 C820 1.384 . S
C819 C821 1.479 . S
C819 H837 0.929 . S
C820 C817 1.424 . S
C820 C819 1.384 . S
C820 H838 0.928 . S
C821 C818 1.260 . S
C821 C819 1.479 . S
C822 C817 1.245 . S
C822 C818 1.477 . S
C822 H839 0.932 . S
C823 U806 2.882 . S
C823 C817 1.428 . S
C823 O826 1.301 . S
C823 O827 1.282 . S
O824 U806 2.441 . S
O824 C810 1.249 . S
O825 U806 2.420 . S
O825 C810 1.202 . S
O826 U806 2.455 . S
O826 C823 1.301 . S
O827 U806 2.449 . S
O827 C823 1.282 . S
H828 C801 0.931 . S
H829 C803 0.929 . S
H830 C804 0.930 . S
H831 C805 0.931 . S
H832 C812 0.932 . S
H833 C813 0.930 . S
H834 C814 0.929 . S
H835 C816 0.930 . S
H836 C818 0.932 . S
H837 C819 0.929 . S
H838 C820 0.928 . S
H839 C822 0.932 . S
C840 C841 1.264 . S
C840 C845 1.479 . S
C840 C850 1.465 . S
C841 C840 1.264 . S
C841 C843 1.339 . S
C841 H868 0.931 . S
C842 C843 1.395 . S
C842 C844 1.320 . S
C843 C841 1.339 . S
C843 C842 1.395 . S
C843 H869 0.929 . S
C844 C842 1.320 . S
C844 C845 1.405 . S
C844 H870 0.930 . S
C845 C840 1.479 . S
C845 C844 1.405 . S
C845 H871 0.931 . S
U846 O847 2.454 . S
U846 O848 2.458 . S
U846 C849 2.984 . S
U846 C850 2.847 . S
U846 C863 2.882 . S
U846 O864 2.441 . S
U846 O865 2.420 . S
U846 O866 2.455 . S
U846 O867 2.449 . S
O847 U846 2.454 . S
O847 C849 1.353 . S
O848 U846 2.458 . S
O848 C849 1.286 . S
C849 U846 2.984 . S
C849 O847 1.353 . S
C849 O848 1.286 . S
C849 C851 1.363 . S
C850 C840 1.465 . S
C850 U846 2.847 . S
C850 O864 1.249 . S
C850 O865 1.202 . S
C851 C849 1.363 . S
C851 C853 1.408 . S
C851 C856 1.342 . S
C852 C853 1.310 . S
C852 C855 1.461 . S
C852 H872 0.932 . S
C853 C851 1.408 . S
C853 C852 1.310 . S
C853 H873 0.930 . S
C854 C855 1.474 . S
C854 C856 1.285 . S
C854 H874 0.929 . S
C855 C852 1.461 . S
C855 C854 1.474 . S
C856 C851 1.342 . S
C856 C854 1.285 . S
C856 H875 0.930 . S
C857 C860 1.424 . S
C857 C862 1.245 . S
C857 C863 1.428 . S
C858 C861 1.260 . S
C858 C862 1.477 . S
C858 H876 0.932 . S
C859 C860 1.384 . S
C859 C861 1.479 . S
C859 H877 0.929 . S
C860 C857 1.424 . S
C860 C859 1.384 . S
C860 H878 0.928 . S
C861 C858 1.260 . S
C861 C859 1.479 . S
C862 C857 1.245 . S
C862 C858 1.477 . S
C862 H879 0.932 . S
C863 U846 2.882 . S
C863 C857 1.428 . S
C863 O866 1.301 . S
C863 O867 1.282 . S
O864 U846 2.441 . S
O864 C850 1.249 . S
O865 U846 2.420 . S
O865 C850 1.202 . S
O866 U846 2.455 . S
O866 C863 1.301 . S
O867 U846 2.449 . S
O867 C863 1.282 . S
H868 C841 0.931 . S
H869 C843 0.929 . S
H870 C844 0.930 . S
H871 C845 0.931 . S
H872 C852 0.932 . S
H873 C853 0.930 . S
H874 C854 0.929 . S
H875 C856 0.930 . S
H876 C858 0.932 . S
H877 C859 0.929 . S
H878 C860 0.928 . S
H879 C862 0.932 . S
C880 C881 1.264 . S
C880 C885 1.479 . S
C880 C890 1.465 . S
C881 C880 1.264 . S
C881 C883 1.339 . S
C881 H908 0.931 . S
C882 C883 1.395 . S
C882 C884 1.320 . S
C883 C881 1.339 . S
C883 C882 1.395 . S
C883 H909 0.929 . S
C884 C882 1.320 . S
C884 C885 1.405 . S
C884 H910 0.930 . S
C885 C880 1.479 . S
C885 C884 1.405 . S
C885 H911 0.931 . S
U886 O887 2.454 . S
U886 O888 2.458 . S
U886 C889 2.984 . S
U886 C890 2.847 . S
U886 C903 2.882 . S
U886 O904 2.441 . S
U886 O905 2.420 . S
U886 O906 2.455 . S
U886 O907 2.449 . S
O887 U886 2.454 . S
O887 C889 1.353 . S
O888 U886 2.458 . S
O888 C889 1.286 . S
C889 U886 2.984 . S
C889 O887 1.353 . S
C889 O888 1.286 . S
C889 C891 1.363 . S
C890 C880 1.465 . S
C890 U886 2.847 . S
C890 O904 1.249 . S
C890 O905 1.202 . S
C891 C889 1.363 . S
C891 C893 1.408 . S
C891 C896 1.342 . S
C892 C893 1.310 . S
C892 C895 1.461 . S
C892 H912 0.932 . S
C893 C891 1.408 . S
C893 C892 1.310 . S
C893 H913 0.930 . S
C894 C895 1.474 . S
C894 C896 1.285 . S
C894 H914 0.929 . S
C895 C892 1.461 . S
C895 C894 1.474 . S
C896 C891 1.342 . S
C896 C894 1.285 . S
C896 H915 0.930 . S
C897 C900 1.424 . S
C897 C902 1.245 . S
C897 C903 1.428 . S
C898 C901 1.260 . S
C898 C902 1.477 . S
C898 H916 0.932 . S
C899 C900 1.384 . S
C899 C901 1.479 . S
C899 H917 0.929 . S
C900 C897 1.424 . S
C900 C899 1.384 . S
C900 H918 0.928 . S
C901 C898 1.260 . S
C901 C899 1.479 . S
C902 C897 1.245 . S
C902 C898 1.477 . S
C902 H919 0.932 . S
C903 U886 2.882 . S
C903 C897 1.428 . S
C903 O906 1.301 . S
C903 O907 1.282 . S
O904 U886 2.441 . S
O904 C890 1.249 . S
O905 U886 2.420 . S
O905 C890 1.202 . S
O906 U886 2.455 . S
O906 C903 1.301 . S
O907 U886 2.449 . S
O907 C903 1.282 . S
H908 C881 0.931 . S
H909 C883 0.929 . S
H910 C884 0.930 . S
H911 C885 0.931 . S
H912 C892 0.932 . S
H913 C893 0.930 . S
H914 C894 0.929 . S
H915 C896 0.930 . S
H916 C898 0.932 . S
H917 C899 0.929 . S
H918 C900 0.928 . S
H919 C902 0.932 . S
C920 C921 1.264 . S
C920 C925 1.479 . S
C920 C930 1.465 . S
C921 C920 1.264 . S
C921 C923 1.339 . S
C921 H948 0.931 . S
C922 C923 1.395 . S
C922 C924 1.320 . S
C923 C921 1.339 . S
C923 C922 1.395 . S
C923 H949 0.929 . S
C924 C922 1.320 . S
C924 C925 1.405 . S
C924 H950 0.930 . S
C925 C920 1.479 . S
C925 C924 1.405 . S
C925 H951 0.931 . S
U926 O927 2.454 . S
U926 O928 2.458 . S
U926 C929 2.984 . S
U926 C930 2.847 . S
U926 C943 2.882 . S
U926 O944 2.441 . S
U926 O945 2.420 . S
U926 O946 2.455 . S
U926 O947 2.449 . S
O927 U926 2.454 . S
O927 C929 1.353 . S
O928 U926 2.458 . S
O928 C929 1.286 . S
C929 U926 2.984 . S
C929 O927 1.353 . S
C929 O928 1.286 . S
C929 C931 1.363 . S
C930 C920 1.465 . S
C930 U926 2.847 . S
C930 O944 1.249 . S
C930 O945 1.202 . S
C931 C929 1.363 . S
C931 C933 1.408 . S
C931 C936 1.342 . S
C932 C933 1.310 . S
C932 C935 1.461 . S
C932 H952 0.932 . S
C933 C931 1.408 . S
C933 C932 1.310 . S
C933 H953 0.930 . S
C934 C935 1.474 . S
C934 C936 1.285 . S
C934 H954 0.929 . S
C935 C932 1.461 . S
C935 C934 1.474 . S
C936 C931 1.342 . S
C936 C934 1.285 . S
C936 H955 0.930 . S
C937 C940 1.424 . S
C937 C942 1.245 . S
C937 C943 1.428 . S
C938 C941 1.260 . S
C938 C942 1.477 . S
C938 H956 0.932 . S
C939 C940 1.384 . S
C939 C941 1.479 . S
C939 H957 0.929 . S
C940 C937 1.424 . S
C940 C939 1.384 . S
C940 H958 0.928 . S
C941 C938 1.260 . S
C941 C939 1.479 . S
C942 C937 1.245 . S
C942 C938 1.477 . S
C942 H959 0.932 . S
C943 U926 2.882 . S
C943 C937 1.428 . S
C943 O946 1.301 . S
C943 O947 1.282 . S
O944 U926 2.441 . S
O944 C930 1.249 . S
O945 U926 2.420 . S
O945 C930 1.202 . S
O946 U926 2.455 . S
O946 C943 1.301 . S
O947 U926 2.449 . S
O947 C943 1.282 . S
H948 C921 0.931 . S
H949 C923 0.929 . S
H950 C924 0.930 . S
H951 C925 0.931 . S
H952 C932 0.932 . S
H953 C933 0.930 . S
H954 C934 0.929 . S
H955 C936 0.930 . S
H956 C938 0.932 . S
H957 C939 0.929 . S
H958 C940 0.928 . S
H959 C942 0.932 . S
C960 C961 1.264 . S
C960 C965 1.479 . S
C960 C970 1.465 . S
C961 C960 1.264 . S
C961 C963 1.339 . S
C961 H988 0.931 . S
C962 C963 1.395 . S
C962 C964 1.320 . S
C963 C961 1.339 . S
C963 C962 1.395 . S
C963 H989 0.929 . S
C964 C962 1.320 . S
C964 C965 1.405 . S
C964 H990 0.930 . S
C965 C960 1.479 . S
C965 C964 1.405 . S
C965 H991 0.931 . S
U966 O967 2.454 . S
U966 O968 2.458 . S
U966 C969 2.984 . S
U966 C970 2.847 . S
U966 C983 2.882 . S
U966 O984 2.441 . S
U966 O985 2.420 . S
U966 O986 2.455 . S
U966 O987 2.449 . S
O967 U966 2.454 . S
O967 C969 1.353 . S
O968 U966 2.458 . S
O968 C969 1.286 . S
C969 U966 2.984 . S
C969 O967 1.353 . S
C969 O968 1.286 . S
C969 C971 1.363 . S
C970 C960 1.465 . S
C970 U966 2.847 . S
C970 O984 1.249 . S
C970 O985 1.202 . S
C971 C969 1.363 . S
C971 C973 1.408 . S
C971 C976 1.342 . S
C972 C973 1.310 . S
C972 C975 1.461 . S
C972 H992 0.932 . S
C973 C971 1.408 . S
C973 C972 1.310 . S
C973 H993 0.930 . S
C974 C975 1.474 . S
C974 C976 1.285 . S
C974 H994 0.929 . S
C975 C972 1.461 . S
C975 C974 1.474 . S
C976 C971 1.342 . S
C976 C974 1.285 . S
C976 H995 0.930 . S
C977 C980 1.424 . S
C977 C982 1.245 . S
C977 C983 1.428 . S
C978 C981 1.260 . S
C978 C982 1.477 . S
C978 H996 0.932 . S
C979 C980 1.384 . S
C979 C981 1.479 . S
C979 H997 0.929 . S
C980 C977 1.424 . S
C980 C979 1.384 . S
C980 H998 0.928 . S
C981 C978 1.260 . S
C981 C979 1.479 . S
C982 C977 1.245 . S
C982 C978 1.477 . S
C982 H999 0.932 . S
C983 U966 2.882 . S
C983 C977 1.428 . S
C983 O986 1.301 . S
C983 O987 1.282 . S
O984 U966 2.441 . S
O984 C970 1.249 . S
O985 U966 2.420 . S
O985 C970 1.202 . S
O986 U966 2.455 . S
O986 C983 1.301 . S
O987 U966 2.449 . S
O987 C983 1.282 . S
H988 C961 0.931 . S
H989 C963 0.929 . S
H990 C964 0.930 . S
H991 C965 0.931 . S
H992 C972 0.932 . S
H993 C973 0.930 . S
H994 C974 0.929 . S
H995 C976 0.930 . S
H996 C978 0.932 . S
H997 C979 0.929 . S
H998 C980 0.928 . S
H999 C982 0.932 . S
C1000 C1001 1.264 . S
C1000 C1005 1.479 . S
C1000 C1010 1.465 . S
C1001 C1000 1.264 . S
C1001 C1003 1.339 . S
C1001 H1028 0.931 . S
C1002 C1003 1.395 . S
C1002 C1004 1.320 . S
C1003 C1001 1.339 . S
C1003 C1002 1.395 . S
C1003 H1029 0.929 . S
C1004 C1002 1.320 . S
C1004 C1005 1.405 . S
C1004 H1030 0.930 . S
C1005 C1000 1.479 . S
C1005 C1004 1.405 . S
C1005 H1031 0.931 . S
U1006 O1007 2.454 . S
U1006 O1008 2.458 . S
U1006 C1009 2.984 . S
U1006 C1010 2.847 . S
U1006 C1023 2.882 . S
U1006 O1024 2.441 . S
U1006 O1025 2.420 . S
U1006 O1026 2.455 . S
U1006 O1027 2.449 . S
O1007 U1006 2.454 . S
O1007 C1009 1.353 . S
O1008 U1006 2.458 . S
O1008 C1009 1.286 . S
C1009 U1006 2.984 . S
C1009 O1007 1.353 . S
C1009 O1008 1.286 . S
C1009 C1011 1.363 . S
C1010 C1000 1.465 . S
C1010 U1006 2.847 . S
C1010 O1024 1.249 . S
C1010 O1025 1.202 . S
C1011 C1009 1.363 . S
C1011 C1013 1.408 . S
C1011 C1016 1.342 . S
C1012 C1013 1.310 . S
C1012 C1015 1.461 . S
C1012 H1032 0.932 . S
C1013 C1011 1.408 . S
C1013 C1012 1.310 . S
C1013 H1033 0.930 . S
C1014 C1015 1.474 . S
C1014 C1016 1.285 . S
C1014 H1034 0.929 . S
C1015 C1012 1.461 . S
C1015 C1014 1.474 . S
C1016 C1011 1.342 . S
C1016 C1014 1.285 . S
C1016 H1035 0.930 . S
C1017 C1020 1.424 . S
C1017 C1022 1.245 . S
C1017 C1023 1.428 . S
C1018 C1021 1.260 . S
C1018 C1022 1.477 . S
C1018 H1036 0.932 . S
C1019 C1020 1.384 . S
C1019 C1021 1.479 . S
C1019 H1037 0.929 . S
C1020 C1017 1.424 . S
C1020 C1019 1.384 . S
C1020 H1038 0.928 . S
C1021 C1018 1.260 . S
C1021 C1019 1.479 . S
C1022 C1017 1.245 . S
C1022 C1018 1.477 . S
C1022 H1039 0.932 . S
C1023 U1006 2.882 . S
C1023 C1017 1.428 . S
C1023 O1026 1.301 . S
C1023 O1027 1.282 . S
O1024 U1006 2.441 . S
O1024 C1010 1.249 . S
O1025 U1006 2.420 . S
O1025 C1010 1.202 . S
O1026 U1006 2.455 . S
O1026 C1023 1.301 . S
O1027 U1006 2.449 . S
O1027 C1023 1.282 . S
H1028 C1001 0.931 . S
H1029 C1003 0.929 . S
H1030 C1004 0.930 . S
H1031 C1005 0.931 . S
H1032 C1012 0.932 . S
H1033 C1013 0.930 . S
H1034 C1014 0.929 . S
H1035 C1016 0.930 . S
H1036 C1018 0.932 . S
H1037 C1019 0.929 . S
H1038 C1020 0.928 . S
H1039 C1022 0.932 . S
C1040 C1041 1.264 . S
C1040 C1045 1.479 . S
C1040 C1050 1.465 . S
C1041 C1040 1.264 . S
C1041 C1043 1.339 . S
C1041 H1068 0.931 . S
C1042 C1043 1.395 . S
C1042 C1044 1.320 . S
C1043 C1041 1.339 . S
C1043 C1042 1.395 . S
C1043 H1069 0.929 . S
C1044 C1042 1.320 . S
C1044 C1045 1.405 . S
C1044 H1070 0.930 . S
C1045 C1040 1.479 . S
C1045 C1044 1.405 . S
C1045 H1071 0.931 . S
U1046 O1047 2.454 . S
U1046 O1048 2.458 . S
U1046 C1049 2.984 . S
U1046 C1050 2.847 . S
U1046 C1063 2.882 . S
U1046 O1064 2.441 . S
U1046 O1065 2.420 . S
U1046 O1066 2.455 . S
U1046 O1067 2.449 . S
O1047 U1046 2.454 . S
O1047 C1049 1.353 . S
O1048 U1046 2.458 . S
O1048 C1049 1.286 . S
C1049 U1046 2.984 . S
C1049 O1047 1.353 . S
C1049 O1048 1.286 . S
C1049 C1051 1.363 . S
C1050 C1040 1.465 . S
C1050 U1046 2.847 . S
C1050 O1064 1.249 . S
C1050 O1065 1.202 . S
C1051 C1049 1.363 . S
C1051 C1053 1.408 . S
C1051 C1056 1.342 . S
C1052 C1053 1.310 . S
C1052 C1055 1.461 . S
C1052 H1072 0.932 . S
C1053 C1051 1.408 . S
C1053 C1052 1.310 . S
C1053 H1073 0.930 . S
C1054 C1055 1.474 . S
C1054 C1056 1.285 . S
C1054 H1074 0.929 . S
C1055 C1052 1.461 . S
C1055 C1054 1.474 . S
C1056 C1051 1.342 . S
C1056 C1054 1.285 . S
C1056 H1075 0.930 . S
C1057 C1060 1.424 . S
C1057 C1062 1.245 . S
C1057 C1063 1.428 . S
C1058 C1061 1.260 . S
C1058 C1062 1.477 . S
C1058 H1076 0.932 . S
C1059 C1060 1.384 . S
C1059 C1061 1.479 . S
C1059 H1077 0.929 . S
C1060 C1057 1.424 . S
C1060 C1059 1.384 . S
C1060 H1078 0.928 . S
C1061 C1058 1.260 . S
C1061 C1059 1.479 . S
C1062 C1057 1.245 . S
C1062 C1058 1.477 . S
C1062 H1079 0.932 . S
C1063 U1046 2.882 . S
C1063 C1057 1.428 . S
C1063 O1066 1.301 . S
C1063 O1067 1.282 . S
O1064 U1046 2.441 . S
O1064 C1050 1.249 . S
O1065 U1046 2.420 . S
O1065 C1050 1.202 . S
O1066 U1046 2.455 . S
O1066 C1063 1.301 . S
O1067 U1046 2.449 . S
O1067 C1063 1.282 . S
H1068 C1041 0.931 . S
H1069 C1043 0.929 . S
H1070 C1044 0.930 . S
H1071 C1045 0.931 . S
H1072 C1052 0.932 . S
H1073 C1053 0.930 . S
H1074 C1054 0.929 . S
H1075 C1056 0.930 . S
H1076 C1058 0.932 . S
H1077 C1059 0.929 . S
H1078 C1060 0.928 . S
H1079 C1062 0.932 . S
C1080 C1081 1.264 . S
C1080 C1085 1.479 . S
C1080 C1090 1.465 . S
C1081 C1080 1.264 . S
C1081 C1083 1.339 . S
C1081 H1108 0.931 . S
C1082 C1083 1.395 . S
C1082 C1084 1.320 . S
C1083 C1081 1.339 . S
C1083 C1082 1.395 . S
C1083 H1109 0.929 . S
C1084 C1082 1.320 . S
C1084 C1085 1.405 . S
C1084 H1110 0.930 . S
C1085 C1080 1.479 . S
C1085 C1084 1.405 . S
C1085 H1111 0.931 . S
U1086 O1087 2.454 . S
U1086 O1088 2.458 . S
U1086 C1089 2.984 . S
U1086 C1090 2.847 . S
U1086 C1103 2.882 . S
U1086 O1104 2.441 . S
U1086 O1105 2.420 . S
U1086 O1106 2.455 . S
U1086 O1107 2.449 . S
O1087 U1086 2.454 . S
O1087 C1089 1.353 . S
O1088 U1086 2.458 . S
O1088 C1089 1.286 . S
C1089 U1086 2.984 . S
C1089 O1087 1.353 . S
C1089 O1088 1.286 . S
C1089 C1091 1.363 . S
C1090 C1080 1.465 . S
C1090 U1086 2.847 . S
C1090 O1104 1.249 . S
C1090 O1105 1.202 . S
C1091 C1089 1.363 . S
C1091 C1093 1.408 . S
C1091 C1096 1.342 . S
C1092 C1093 1.310 . S
C1092 C1095 1.461 . S
C1092 H1112 0.932 . S
C1093 C1091 1.408 . S
C1093 C1092 1.310 . S
C1093 H1113 0.930 . S
C1094 C1095 1.474 . S
C1094 C1096 1.285 . S
C1094 H1114 0.929 . S
C1095 C1092 1.461 . S
C1095 C1094 1.474 . S
C1096 C1091 1.342 . S
C1096 C1094 1.285 . S
C1096 H1115 0.930 . S
C1097 C1100 1.424 . S
C1097 C1102 1.245 . S
C1097 C1103 1.428 . S
C1098 C1101 1.260 . S
C1098 C1102 1.477 . S
C1098 H1116 0.932 . S
C1099 C1100 1.384 . S
C1099 C1101 1.479 . S
C1099 H1117 0.929 . S
C1100 C1097 1.424 . S
C1100 C1099 1.384 . S
C1100 H1118 0.928 . S
C1101 C1098 1.260 . S
C1101 C1099 1.479 . S
C1102 C1097 1.245 . S
C1102 C1098 1.477 . S
C1102 H1119 0.932 . S
C1103 U1086 2.882 . S
C1103 C1097 1.428 . S
C1103 O1106 1.301 . S
C1103 O1107 1.282 . S
O1104 U1086 2.441 . S
O1104 C1090 1.249 . S
O1105 U1086 2.420 . S
O1105 C1090 1.202 . S
O1106 U1086 2.455 . S
O1106 C1103 1.301 . S
O1107 U1086 2.449 . S
O1107 C1103 1.282 . S
H1108 C1081 0.931 . S
H1109 C1083 0.929 . S
H1110 C1084 0.930 . S
H1111 C1085 0.931 . S
H1112 C1092 0.932 . S
H1113 C1093 0.930 . S
H1114 C1094 0.929 . S
H1115 C1096 0.930 . S
H1116 C1098 0.932 . S
H1117 C1099 0.929 . S
H1118 C1100 0.928 . S
H1119 C1102 0.932 . S
C1120 C1121 1.264 . S
C1120 C1125 1.479 . S
C1120 C1130 1.465 . S
C1121 C1120 1.264 . S
C1121 C1123 1.339 . S
C1121 H1148 0.931 . S
C1122 C1123 1.395 . S
C1122 C1124 1.320 . S
C1123 C1121 1.339 . S
C1123 C1122 1.395 . S
C1123 H1149 0.929 . S
C1124 C1122 1.320 . S
C1124 C1125 1.405 . S
C1124 H1150 0.930 . S
C1125 C1120 1.479 . S
C1125 C1124 1.405 . S
C1125 H1151 0.931 . S
U1126 O1127 2.454 . S
U1126 O1128 2.458 . S
U1126 C1129 2.984 . S
U1126 C1130 2.847 . S
U1126 C1143 2.882 . S
U1126 O1144 2.441 . S
U1126 O1145 2.420 . S
U1126 O1146 2.455 . S
U1126 O1147 2.449 . S
O1127 U1126 2.454 . S
O1127 C1129 1.353 . S
O1128 U1126 2.458 . S
O1128 C1129 1.286 . S
C1129 U1126 2.984 . S
C1129 O1127 1.353 . S
C1129 O1128 1.286 . S
C1129 C1131 1.363 . S
C1130 C1120 1.465 . S
C1130 U1126 2.847 . S
C1130 O1144 1.249 . S
C1130 O1145 1.202 . S
C1131 C1129 1.363 . S
C1131 C1133 1.408 . S
C1131 C1136 1.342 . S
C1132 C1133 1.310 . S
C1132 C1135 1.461 . S
C1132 H1152 0.932 . S
C1133 C1131 1.408 . S
C1133 C1132 1.310 . S
C1133 H1153 0.930 . S
C1134 C1135 1.474 . S
C1134 C1136 1.285 . S
C1134 H1154 0.929 . S
C1135 C1132 1.461 . S
C1135 C1134 1.474 . S
C1136 C1131 1.342 . S
C1136 C1134 1.285 . S
C1136 H1155 0.930 . S
C1137 C1140 1.424 . S
C1137 C1142 1.245 . S
C1137 C1143 1.428 . S
C1138 C1141 1.260 . S
C1138 C1142 1.477 . S
C1138 H1156 0.932 . S
C1139 C1140 1.384 . S
C1139 C1141 1.479 . S
C1139 H1157 0.929 . S
C1140 C1137 1.424 . S
C1140 C1139 1.384 . S
C1140 H1158 0.928 . S
C1141 C1138 1.260 . S
C1141 C1139 1.479 . S
C1142 C1137 1.245 . S
C1142 C1138 1.477 . S
C1142 H1159 0.932 . S
C1143 U1126 2.882 . S
C1143 C1137 1.428 . S
C1143 O1146 1.301 . S
C1143 O1147 1.282 . S
O1144 U1126 2.441 . S
O1144 C1130 1.249 . S
O1145 U1126 2.420 . S
O1145 C1130 1.202 . S
O1146 U1126 2.455 . S
O1146 C1143 1.301 . S
O1147 U1126 2.449 . S
O1147 C1143 1.282 . S
H1148 C1121 0.931 . S
H1149 C1123 0.929 . S
H1150 C1124 0.930 . S
H1151 C1125 0.931 . S
H1152 C1132 0.932 . S
H1153 C1133 0.930 . S
H1154 C1134 0.929 . S
H1155 C1136 0.930 . S
H1156 C1138 0.932 . S
H1157 C1139 0.929 . S
H1158 C1140 0.928 . S
H1159 C1142 0.932 . S
C1160 C1161 1.264 . S
C1160 C1165 1.479 . S
C1160 C1170 1.465 . S
C1161 C1160 1.264 . S
C1161 C1163 1.339 . S
C1161 H1188 0.931 . S
C1162 C1163 1.395 . S
C1162 C1164 1.320 . S
C1163 C1161 1.339 . S
C1163 C1162 1.395 . S
C1163 H1189 0.929 . S
C1164 C1162 1.320 . S
C1164 C1165 1.405 . S
C1164 H1190 0.930 . S
C1165 C1160 1.479 . S
C1165 C1164 1.405 . S
C1165 H1191 0.931 . S
U1166 O1167 2.454 . S
U1166 O1168 2.458 . S
U1166 C1169 2.984 . S
U1166 C1170 2.847 . S
U1166 C1183 2.882 . S
U1166 O1184 2.441 . S
U1166 O1185 2.420 . S
U1166 O1186 2.455 . S
U1166 O1187 2.449 . S
O1167 U1166 2.454 . S
O1167 C1169 1.353 . S
O1168 U1166 2.458 . S
O1168 C1169 1.286 . S
C1169 U1166 2.984 . S
C1169 O1167 1.353 . S
C1169 O1168 1.286 . S
C1169 C1171 1.363 . S
C1170 C1160 1.465 . S
C1170 U1166 2.847 . S
C1170 O1184 1.249 . S
C1170 O1185 1.202 . S
C1171 C1169 1.363 . S
C1171 C1173 1.408 . S
C1171 C1176 1.342 . S
C1172 C1173 1.310 . S
C1172 C1175 1.461 . S
C1172 H1192 0.932 . S
C1173 C1171 1.408 . S
C1173 C1172 1.310 . S
C1173 H1193 0.930 . S
C1174 C1175 1.474 . S
C1174 C1176 1.285 . S
C1174 H1194 0.929 . S
C1175 C1172 1.461 . S
C1175 C1174 1.474 . S
C1176 C1171 1.342 . S
C1176 C1174 1.285 . S
C1176 H1195 0.930 . S
C1177 C1180 1.424 . S
C1177 C1182 1.245 . S
C1177 C1183 1.428 . S
C1178 C1181 1.260 . S
C1178 C1182 1.477 . S
C1178 H1196 0.932 . S
C1179 C1180 1.384 . S
C1179 C1181 1.479 . S
C1179 H1197 0.929 . S
C1180 C1177 1.424 . S
C1180 C1179 1.384 . S
C1180 H1198 0.928 . S
C1181 C1178 1.260 . S
C1181 C1179 1.479 . S
C1182 C1177 1.245 . S
C1182 C1178 1.477 . S
C1182 H1199 0.932 . S
C1183 U1166 2.882 . S
C1183 C1177 1.428 . S
C1183 O1186 1.301 . S
C1183 O1187 1.282 . S
O1184 U1166 2.441 . S
O1184 C1170 1.249 . S
O1185 U1166 2.420 . S
O1185 C1170 1.202 . S
O1186 U1166 2.455 . S
O1186 C1183 1.301 . S
O1187 U1166 2.449 . S
O1187 C1183 1.282 . S
H1188 C1161 0.931 . S
H1189 C1163 0.929 . S
H1190 C1164 0.930 . S
H1191 C1165 0.931 . S
H1192 C1172 0.932 . S
H1193 C1173 0.930 . S
H1194 C1174 0.929 . S
H1195 C1176 0.930 . S
H1196 C1178 0.932 . S
H1197 C1179 0.929 . S
H1198 C1180 0.928 . S
H1199 C1182 0.932 . S
C1200 C1201 1.264 . S
C1200 C1205 1.479 . S
C1200 C1210 1.465 . S
C1201 C1200 1.264 . S
C1201 C1203 1.339 . S
C1201 H1228 0.931 . S
C1202 C1203 1.395 . S
C1202 C1204 1.320 . S
C1203 C1201 1.339 . S
C1203 C1202 1.395 . S
C1203 H1229 0.929 . S
C1204 C1202 1.320 . S
C1204 C1205 1.405 . S
C1204 H1230 0.930 . S
C1205 C1200 1.479 . S
C1205 C1204 1.405 . S
C1205 H1231 0.931 . S
U1206 O1207 2.454 . S
U1206 O1208 2.458 . S
U1206 C1209 2.984 . S
U1206 C1210 2.847 . S
U1206 C1223 2.882 . S
U1206 O1224 2.441 . S
U1206 O1225 2.420 . S
U1206 O1226 2.455 . S
U1206 O1227 2.449 . S
O1207 U1206 2.454 . S
O1207 C1209 1.353 . S
O1208 U1206 2.458 . S
O1208 C1209 1.286 . S
C1209 U1206 2.984 . S
C1209 O1207 1.353 . S
C1209 O1208 1.286 . S
C1209 C1211 1.363 . S
C1210 C1200 1.465 . S
C1210 U1206 2.847 . S
C1210 O1224 1.249 . S
C1210 O1225 1.202 . S
C1211 C1209 1.363 . S
C1211 C1213 1.408 . S
C1211 C1216 1.342 . S
C1212 C1213 1.310 . S
C1212 C1215 1.461 . S
C1212 H1232 0.932 . S
C1213 C1211 1.408 . S
C1213 C1212 1.310 . S
C1213 H1233 0.930 . S
C1214 C1215 1.474 . S
C1214 C1216 1.285 . S
C1214 H1234 0.929 . S
C1215 C1212 1.461 . S
C1215 C1214 1.474 . S
C1216 C1211 1.342 . S
C1216 C1214 1.285 . S
C1216 H1235 0.930 . S
C1217 C1220 1.424 . S
C1217 C1222 1.245 . S
C1217 C1223 1.428 . S
C1218 C1221 1.260 . S
C1218 C1222 1.477 . S
C1218 H1236 0.932 . S
C1219 C1220 1.384 . S
C1219 C1221 1.479 . S
C1219 H1237 0.929 . S
C1220 C1217 1.424 . S
C1220 C1219 1.384 . S
C1220 H1238 0.928 . S
C1221 C1218 1.260 . S
C1221 C1219 1.479 . S
C1222 C1217 1.245 . S
C1222 C1218 1.477 . S
C1222 H1239 0.932 . S
C1223 U1206 2.882 . S
C1223 C1217 1.428 . S
C1223 O1226 1.301 . S
C1223 O1227 1.282 . S
O1224 U1206 2.441 . S
O1224 C1210 1.249 . S
O1225 U1206 2.420 . S
O1225 C1210 1.202 . S
O1226 U1206 2.455 . S
O1226 C1223 1.301 . S
O1227 U1206 2.449 . S
O1227 C1223 1.282 . S
H1228 C1201 0.931 . S
H1229 C1203 0.929 . S
H1230 C1204 0.930 . S
H1231 C1205 0.931 . S
H1232 C1212 0.932 . S
H1233 C1213 0.930 . S
H1234 C1214 0.929 . S
H1235 C1216 0.930 . S
H1236 C1218 0.932 . S
H1237 C1219 0.929 . S
H1238 C1220 0.928 . S
H1239 C1222 0.932 . S
C1240 C1241 1.264 . S
C1240 C1245 1.479 . S
C1240 C1250 1.465 . S
C1241 C1240 1.264 . S
C1241 C1243 1.339 . S
C1241 H1268 0.931 . S
C1242 C1243 1.395 . S
C1242 C1244 1.320 . S
C1243 C1241 1.339 . S
C1243 C1242 1.395 . S
C1243 H1269 0.929 . S
C1244 C1242 1.320 . S
C1244 C1245 1.405 . S
C1244 H1270 0.930 . S
C1245 C1240 1.479 . S
C1245 C1244 1.405 . S
C1245 H1271 0.931 . S
U1246 O1247 2.454 . S
U1246 O1248 2.458 . S
U1246 C1249 2.984 . S
U1246 C1250 2.847 . S
U1246 C1263 2.882 . S
U1246 O1264 2.441 . S
U1246 O1265 2.420 . S
U1246 O1266 2.455 . S
U1246 O1267 2.449 . S
O1247 U1246 2.454 . S
O1247 C1249 1.353 . S
O1248 U1246 2.458 . S
O1248 C1249 1.286 . S
C1249 U1246 2.984 . S
C1249 O1247 1.353 . S
C1249 O1248 1.286 . S
C1249 C1251 1.363 . S
C1250 C1240 1.465 . S
C1250 U1246 2.847 . S
C1250 O1264 1.249 . S
C1250 O1265 1.202 . S
C1251 C1249 1.363 . S
C1251 C1253 1.408 . S
C1251 C1256 1.342 . S
C1252 C1253 1.310 . S
C1252 C1255 1.461 . S
C1252 H1272 0.932 . S
C1253 C1251 1.408 . S
C1253 C1252 1.310 . S
C1253 H1273 0.930 . S
C1254 C1255 1.474 . S
C1254 C1256 1.285 . S
C1254 H1274 0.929 . S
C1255 C1252 1.461 . S
C1255 C1254 1.474 . S
C1256 C1251 1.342 . S
C1256 C1254 1.285 . S
C1256 H1275 0.930 . S
C1257 C1260 1.424 . S
C1257 C1262 1.245 . S
C1257 C1263 1.428 . S
C1258 C1261 1.260 . S
C1258 C1262 1.477 . S
C1258 H1276 0.932 . S
C1259 C1260 1.384 . S
C1259 C1261 1.479 . S
C1259 H1277 0.929 . S
C1260 C1257 1.424 . S
C1260 C1259 1.384 . S
C1260 H1278 0.928 . S
C1261 C1258 1.260 . S
C1261 C1259 1.479 . S
C1262 C1257 1.245 . S
C1262 C1258 1.477 . S
C1262 H1279 0.932 . S
C1263 U1246 2.882 . S
C1263 C1257 1.428 . S
C1263 O1266 1.301 . S
C1263 O1267 1.282 . S
O1264 U1246 2.441 . S
O1264 C1250 1.249 . S
O1265 U1246 2.420 . S
O1265 C1250 1.202 . S
O1266 U1246 2.455 . S
O1266 C1263 1.301 . S
O1267 U1246 2.449 . S
O1267 C1263 1.282 . S
H1268 C1241 0.931 . S
H1269 C1243 0.929 . S
H1270 C1244 0.930 . S
H1271 C1245 0.931 . S
H1272 C1252 0.932 . S
H1273 C1253 0.930 . S
H1274 C1254 0.929 . S
H1275 C1256 0.930 . S
H1276 C1258 0.932 . S
H1277 C1259 0.929 . S
H1278 C1260 0.928 . S
H1279 C1262 0.932 . S
C1280 C1281 1.264 . S
C1280 C1285 1.479 . S
C1280 C1290 1.465 . S
C1281 C1280 1.264 . S
C1281 C1283 1.339 . S
C1281 H1308 0.931 . S
C1282 C1283 1.395 . S
C1282 C1284 1.320 . S
C1283 C1281 1.339 . S
C1283 C1282 1.395 . S
C1283 H1309 0.929 . S
C1284 C1282 1.320 . S
C1284 C1285 1.405 . S
C1284 H1310 0.930 . S
C1285 C1280 1.479 . S
C1285 C1284 1.405 . S
C1285 H1311 0.931 . S
U1286 O1287 2.454 . S
U1286 O1288 2.458 . S
U1286 C1289 2.984 . S
U1286 C1290 2.847 . S
U1286 C1303 2.882 . S
U1286 O1304 2.441 . S
U1286 O1305 2.420 . S
U1286 O1306 2.455 . S
U1286 O1307 2.449 . S
O1287 U1286 2.454 . S
O1287 C1289 1.353 . S
O1288 U1286 2.458 . S
O1288 C1289 1.286 . S
C1289 U1286 2.984 . S
C1289 O1287 1.353 . S
C1289 O1288 1.286 . S
C1289 C1291 1.363 . S
C1290 C1280 1.465 . S
C1290 U1286 2.847 . S
C1290 O1304 1.249 . S
C1290 O1305 1.202 . S
C1291 C1289 1.363 . S
C1291 C1293 1.408 . S
C1291 C1296 1.342 . S
C1292 C1293 1.310 . S
C1292 C1295 1.461 . S
C1292 H1312 0.932 . S
C1293 C1291 1.408 . S
C1293 C1292 1.310 . S
C1293 H1313 0.930 . S
C1294 C1295 1.474 . S
C1294 C1296 1.285 . S
C1294 H1314 0.929 . S
C1295 C1292 1.461 . S
C1295 C1294 1.474 . S
C1296 C1291 1.342 . S
C1296 C1294 1.285 . S
C1296 H1315 0.930 . S
C1297 C1300 1.424 . S
C1297 C1302 1.245 . S
C1297 C1303 1.428 . S
C1298 C1301 1.260 . S
C1298 C1302 1.477 . S
C1298 H1316 0.932 . S
C1299 C1300 1.384 . S
C1299 C1301 1.479 . S
C1299 H1317 0.929 . S
C1300 C1297 1.424 . S
C1300 C1299 1.384 . S
C1300 H1318 0.928 . S
C1301 C1298 1.260 . S
C1301 C1299 1.479 . S
C1302 C1297 1.245 . S
C1302 C1298 1.477 . S
C1302 H1319 0.932 . S
C1303 U1286 2.882 . S
C1303 C1297 1.428 . S
C1303 O1306 1.301 . S
C1303 O1307 1.282 . S
O1304 U1286 2.441 . S
O1304 C1290 1.249 . S
O1305 U1286 2.420 . S
O1305 C1290 1.202 . S
O1306 U1286 2.455 . S
O1306 C1303 1.301 . S
O1307 U1286 2.449 . S
O1307 C1303 1.282 . S
H1308 C1281 0.931 . S
H1309 C1283 0.929 . S
H1310 C1284 0.930 . S
H1311 C1285 0.931 . S
H1312 C1292 0.932 . S
H1313 C1293 0.930 . S
H1314 C1294 0.929 . S
H1315 C1296 0.930 . S
H1316 C1298 0.932 . S
H1317 C1299 0.929 . S
H1318 C1300 0.928 . S
H1319 C1302 0.932 . S
C1320 C1321 1.264 . S
C1320 C1325 1.479 . S
C1320 C1330 1.465 . S
C1321 C1320 1.264 . S
C1321 C1323 1.339 . S
C1321 H1348 0.931 . S
C1322 C1323 1.395 . S
C1322 C1324 1.320 . S
C1323 C1321 1.339 . S
C1323 C1322 1.395 . S
C1323 H1349 0.929 . S
C1324 C1322 1.320 . S
C1324 C1325 1.405 . S
C1324 H1350 0.930 . S
C1325 C1320 1.479 . S
C1325 C1324 1.405 . S
C1325 H1351 0.931 . S
U1326 O1327 2.454 . S
U1326 O1328 2.458 . S
U1326 C1329 2.984 . S
U1326 C1330 2.847 . S
U1326 C1343 2.882 . S
U1326 O1344 2.441 . S
U1326 O1345 2.420 . S
U1326 O1346 2.455 . S
U1326 O1347 2.449 . S
O1327 U1326 2.454 . S
O1327 C1329 1.353 . S
O1328 U1326 2.458 . S
O1328 C1329 1.286 . S
C1329 U1326 2.984 . S
C1329 O1327 1.353 . S
C1329 O1328 1.286 . S
C1329 C1331 1.363 . S
C1330 C1320 1.465 . S
C1330 U1326 2.847 . S
C1330 O1344 1.249 . S
C1330 O1345 1.202 . S
C1331 C1329 1.363 . S
C1331 C1333 1.408 . S
C1331 C1336 1.342 . S
C1332 C1333 1.310 . S
C1332 C1335 1.461 . S
C1332 H1352 0.932 . S
C1333 C1331 1.408 . S
C1333 C1332 1.310 . S
C1333 H1353 0.930 . S
C1334 C1335 1.474 . S
C1334 C1336 1.285 . S
C1334 H1354 0.929 . S
C1335 C1332 1.461 . S
C1335 C1334 1.474 . S
C1336 C1331 1.342 . S
C1336 C1334 1.285 . S
C1336 H1355 0.930 . S
C1337 C1340 1.424 . S
C1337 C1342 1.245 . S
C1337 C1343 1.428 . S
C1338 C1341 1.260 . S
C1338 C1342 1.477 . S
C1338 H1356 0.932 . S
C1339 C1340 1.384 . S
C1339 C1341 1.479 . S
C1339 H1357 0.929 . S
C1340 C1337 1.424 . S
C1340 C1339 1.384 . S
C1340 H1358 0.928 . S
C1341 C1338 1.260 . S
C1341 C1339 1.479 . S
C1342 C1337 1.245 . S
C1342 C1338 1.477 . S
C1342 H1359 0.932 . S
C1343 U1326 2.882 . S
C1343 C1337 1.428 . S
C1343 O1346 1.301 . S
C1343 O1347 1.282 . S
O1344 U1326 2.441 . S
O1344 C1330 1.249 . S
O1345 U1326 2.420 . S
O1345 C1330 1.202 . S
O1346 U1326 2.455 . S
O1346 C1343 1.301 . S
O1347 U1326 2.449 . S
O1347 C1343 1.282 . S
H1348 C1321 0.931 . S
H1349 C1323 0.929 . S
H1350 C1324 0.930 . S
H1351 C1325 0.931 . S
H1352 C1332 0.932 . S
H1353 C1333 0.930 . S
H1354 C1334 0.929 . S
H1355 C1336 0.930 . S
H1356 C1338 0.932 . S
H1357 C1339 0.929 . S
H1358 C1340 0.928 . S
H1359 C1342 0.932 . S
C1360 C1361 1.264 . S
C1360 C1365 1.479 . S
C1360 C1370 1.465 . S
C1361 C1360 1.264 . S
C1361 C1363 1.339 . S
C1361 H1388 0.931 . S
C1362 C1363 1.395 . S
C1362 C1364 1.320 . S
C1363 C1361 1.339 . S
C1363 C1362 1.395 . S
C1363 H1389 0.929 . S
C1364 C1362 1.320 . S
C1364 C1365 1.405 . S
C1364 H1390 0.930 . S
C1365 C1360 1.479 . S
C1365 C1364 1.405 . S
C1365 H1391 0.931 . S
U1366 O1367 2.454 . S
U1366 O1368 2.458 . S
U1366 C1369 2.984 . S
U1366 C1370 2.847 . S
U1366 C1383 2.882 . S
U1366 O1384 2.441 . S
U1366 O1385 2.420 . S
U1366 O1386 2.455 . S
U1366 O1387 2.449 . S
O1367 U1366 2.454 . S
O1367 C1369 1.353 . S
O1368 U1366 2.458 . S
O1368 C1369 1.286 . S
C1369 U1366 2.984 . S
C1369 O1367 1.353 . S
C1369 O1368 1.286 . S
C1369 C1371 1.363 . S
C1370 C1360 1.465 . S
C1370 U1366 2.847 . S
C1370 O1384 1.249 . S
C1370 O1385 1.202 . S
C1371 C1369 1.363 . S
C1371 C1373 1.408 . S
C1371 C1376 1.342 . S
C1372 C1373 1.310 . S
C1372 C1375 1.461 . S
C1372 H1392 0.932 . S
C1373 C1371 1.408 . S
C1373 C1372 1.310 . S
C1373 H1393 0.930 . S
C1374 C1375 1.474 . S
C1374 C1376 1.285 . S
C1374 H1394 0.929 . S
C1375 C1372 1.461 . S
C1375 C1374 1.474 . S
C1376 C1371 1.342 . S
C1376 C1374 1.285 . S
C1376 H1395 0.930 . S
C1377 C1380 1.424 . S
C1377 C1382 1.245 . S
C1377 C1383 1.428 . S
C1378 C1381 1.260 . S
C1378 C1382 1.477 . S
C1378 H1396 0.932 . S
C1379 C1380 1.384 . S
C1379 C1381 1.479 . S
C1379 H1397 0.929 . S
C1380 C1377 1.424 . S
C1380 C1379 1.384 . S
C1380 H1398 0.928 . S
C1381 C1378 1.260 . S
C1381 C1379 1.479 . S
C1382 C1377 1.245 . S
C1382 C1378 1.477 . S
C1382 H1399 0.932 . S
C1383 U1366 2.882 . S
C1383 C1377 1.428 . S
C1383 O1386 1.301 . S
C1383 O1387 1.282 . S
O1384 U1366 2.441 . S
O1384 C1370 1.249 . S
O1385 U1366 2.420 . S
O1385 C1370 1.202 . S
O1386 U1366 2.455 . S
O1386 C1383 1.301 . S
O1387 U1366 2.449 . S
O1387 C1383 1.282 . S
H1388 C1361 0.931 . S
H1389 C1363 0.929 . S
H1390 C1364 0.930 . S
H1391 C1365 0.931 . S
H1392 C1372 0.932 . S
H1393 C1373 0.930 . S
H1394 C1374 0.929 . S
H1395 C1376 0.930 . S
H1396 C1378 0.932 . S
H1397 C1379 0.929 . S
H1398 C1380 0.928 . S
H1399 C1382 0.932 . S
C1400 C1401 1.264 . S
C1400 C1405 1.479 . S
C1400 C1410 1.465 . S
C1401 C1400 1.264 . S
C1401 C1403 1.339 . S
C1401 H1428 0.931 . S
C1402 C1403 1.395 . S
C1402 C1404 1.320 . S
C1403 C1401 1.339 . S
C1403 C1402 1.395 . S
C1403 H1429 0.929 . S
C1404 C1402 1.320 . S
C1404 C1405 1.405 . S
C1404 H1430 0.930 . S
C1405 C1400 1.479 . S
C1405 C1404 1.405 . S
C1405 H1431 0.931 . S
U1406 O1407 2.454 . S
U1406 O1408 2.458 . S
U1406 C1409 2.984 . S
U1406 C1410 2.847 . S
U1406 C1423 2.882 . S
U1406 O1424 2.441 . S
U1406 O1425 2.420 . S
U1406 O1426 2.455 . S
U1406 O1427 2.449 . S
O1407 U1406 2.454 . S
O1407 C1409 1.353 . S
O1408 U1406 2.458 . S
O1408 C1409 1.286 . S
C1409 U1406 2.984 . S
C1409 O1407 1.353 . S
C1409 O1408 1.286 . S
C1409 C1411 1.363 . S
C1410 C1400 1.465 . S
C1410 U1406 2.847 . S
C1410 O1424 1.249 . S
C1410 O1425 1.202 . S
C1411 C1409 1.363 . S
C1411 C1413 1.408 . S
C1411 C1416 1.342 . S
C1412 C1413 1.310 . S
C1412 C1415 1.461 . S
C1412 H1432 0.932 . S
C1413 C1411 1.408 . S
C1413 C1412 1.310 . S
C1413 H1433 0.930 . S
C1414 C1415 1.474 . S
C1414 C1416 1.285 . S
C1414 H1434 0.929 . S
C1415 C1412 1.461 . S
C1415 C1414 1.474 . S
C1416 C1411 1.342 . S
C1416 C1414 1.285 . S
C1416 H1435 0.930 . S
C1417 C1420 1.424 . S
C1417 C1422 1.245 . S
C1417 C1423 1.428 . S
C1418 C1421 1.260 . S
C1418 C1422 1.477 . S
C1418 H1436 0.932 . S
C1419 C1420 1.384 . S
C1419 C1421 1.479 . S
C1419 H1437 0.929 . S
C1420 C1417 1.424 . S
C1420 C1419 1.384 . S
C1420 H1438 0.928 . S
C1421 C1418 1.260 . S
C1421 C1419 1.479 . S
C1422 C1417 1.245 . S
C1422 C1418 1.477 . S
C1422 H1439 0.932 . S
C1423 U1406 2.882 . S
C1423 C1417 1.428 . S
C1423 O1426 1.301 . S
C1423 O1427 1.282 . S
O1424 U1406 2.441 . S
O1424 C1410 1.249 . S
O1425 U1406 2.420 . S
O1425 C1410 1.202 . S
O1426 U1406 2.455 . S
O1426 C1423 1.301 . S
O1427 U1406 2.449 . S
O1427 C1423 1.282 . S
H1428 C1401 0.931 . S
H1429 C1403 0.929 . S
H1430 C1404 0.930 . S
H1431 C1405 0.931 . S
H1432 C1412 0.932 . S
H1433 C1413 0.930 . S
H1434 C1414 0.929 . S
H1435 C1416 0.930 . S
H1436 C1418 0.932 . S
H1437 C1419 0.929 . S
H1438 C1420 0.928 . S
H1439 C1422 0.932 . S
C1440 C1441 1.264 . S
C1440 C1445 1.479 . S
C1440 C1450 1.465 . S
C1441 C1440 1.264 . S
C1441 C1443 1.339 . S
C1441 H1468 0.931 . S
C1442 C1443 1.395 . S
C1442 C1444 1.320 . S
C1443 C1441 1.339 . S
C1443 C1442 1.395 . S
C1443 H1469 0.929 . S
C1444 C1442 1.320 . S
C1444 C1445 1.405 . S
C1444 H1470 0.930 . S
C1445 C1440 1.479 . S
C1445 C1444 1.405 . S
C1445 H1471 0.931 . S
U1446 O1447 2.454 . S
U1446 O1448 2.458 . S
U1446 C1449 2.984 . S
U1446 C1450 2.847 . S
U1446 C1463 2.882 . S
U1446 O1464 2.441 . S
U1446 O1465 2.420 . S
U1446 O1466 2.455 . S
U1446 O1467 2.449 . S
O1447 U1446 2.454 . S
O1447 C1449 1.353 . S
O1448 U1446 2.458 . S
O1448 C1449 1.286 . S
C1449 U1446 2.984 . S
C1449 O1447 1.353 . S
C1449 O1448 1.286 . S
C1449 C1451 1.363 . S
C1450 C1440 1.465 . S
C1450 U1446 2.847 . S
C1450 O1464 1.249 . S
C1450 O1465 1.202 . S
C1451 C1449 1.363 . S
C1451 C1453 1.408 . S
C1451 C1456 1.342 . S
C1452 C1453 1.310 . S
C1452 C1455 1.461 . S
C1452 H1472 0.932 . S
C1453 C1451 1.408 . S
C1453 C1452 1.310 . S
C1453 H1473 0.930 . S
C1454 C1455 1.474 . S
C1454 C1456 1.285 . S
C1454 H1474 0.929 . S
C1455 C1452 1.461 . S
C1455 C1454 1.474 . S
C1456 C1451 1.342 . S
C1456 C1454 1.285 . S
C1456 H1475 0.930 . S
C1457 C1460 1.424 . S
C1457 C1462 1.245 . S
C1457 C1463 1.428 . S
C1458 C1461 1.260 . S
C1458 C1462 1.477 . S
C1458 H1476 0.932 . S
C1459 C1460 1.384 . S
C1459 C1461 1.479 . S
C1459 H1477 0.929 . S
C1460 C1457 1.424 . S
C1460 C1459 1.384 . S
C1460 H1478 0.928 . S
C1461 C1458 1.260 . S
C1461 C1459 1.479 . S
C1462 C1457 1.245 . S
C1462 C1458 1.477 . S
C1462 H1479 0.932 . S
C1463 U1446 2.882 . S
C1463 C1457 1.428 . S
C1463 O1466 1.301 . S
C1463 O1467 1.282 . S
O1464 U1446 2.441 . S
O1464 C1450 1.249 . S
O1465 U1446 2.420 . S
O1465 C1450 1.202 . S
O1466 U1446 2.455 . S
O1466 C1463 1.301 . S
O1467 U1446 2.449 . S
O1467 C1463 1.282 . S
H1468 C1441 0.931 . S
H1469 C1443 0.929 . S
H1470 C1444 0.930 . S
H1471 C1445 0.931 . S
H1472 C1452 0.932 . S
H1473 C1453 0.930 . S
H1474 C1454 0.929 . S
H1475 C1456 0.930 . S
H1476 C1458 0.932 . S
H1477 C1459 0.929 . S
H1478 C1460 0.928 . S
H1479 C1462 0.932 . S
C1480 C1481 1.264 . S
C1480 C1485 1.479 . S
C1480 C1490 1.465 . S
C1481 C1480 1.264 . S
C1481 C1483 1.339 . S
C1481 H1508 0.931 . S
C1482 C1483 1.395 . S
C1482 C1484 1.320 . S
C1483 C1481 1.339 . S
C1483 C1482 1.395 . S
C1483 H1509 0.929 . S
C1484 C1482 1.320 . S
C1484 C1485 1.405 . S
C1484 H1510 0.930 . S
C1485 C1480 1.479 . S
C1485 C1484 1.405 . S
C1485 H1511 0.931 . S
U1486 O1487 2.454 . S
U1486 O1488 2.458 . S
U1486 C1489 2.984 . S
U1486 C1490 2.847 . S
U1486 C1503 2.882 . S
U1486 O1504 2.441 . S
U1486 O1505 2.420 . S
U1486 O1506 2.455 . S
U1486 O1507 2.449 . S
O1487 U1486 2.454 . S
O1487 C1489 1.353 . S
O1488 U1486 2.458 . S
O1488 C1489 1.286 . S
C1489 U1486 2.984 . S
C1489 O1487 1.353 . S
C1489 O1488 1.286 . S
C1489 C1491 1.363 . S
C1490 C1480 1.465 . S
C1490 U1486 2.847 . S
C1490 O1504 1.249 . S
C1490 O1505 1.202 . S
C1491 C1489 1.363 . S
C1491 C1493 1.408 . S
C1491 C1496 1.342 . S
C1492 C1493 1.310 . S
C1492 C1495 1.461 . S
C1492 H1512 0.932 . S
C1493 C1491 1.408 . S
C1493 C1492 1.310 . S
C1493 H1513 0.930 . S
C1494 C1495 1.474 . S
C1494 C1496 1.285 . S
C1494 H1514 0.929 . S
C1495 C1492 1.461 . S
C1495 C1494 1.474 . S
C1496 C1491 1.342 . S
C1496 C1494 1.285 . S
C1496 H1515 0.930 . S
C1497 C1500 1.424 . S
C1497 C1502 1.245 . S
C1497 C1503 1.428 . S
C1498 C1501 1.260 . S
C1498 C1502 1.477 . S
C1498 H1516 0.932 . S
C1499 C1500 1.384 . S
C1499 C1501 1.479 . S
C1499 H1517 0.929 . S
C1500 C1497 1.424 . S
C1500 C1499 1.384 . S
C1500 H1518 0.928 . S
C1501 C1498 1.260 . S
C1501 C1499 1.479 . S
C1502 C1497 1.245 . S
C1502 C1498 1.477 . S
C1502 H1519 0.932 . S
C1503 U1486 2.882 . S
C1503 C1497 1.428 . S
C1503 O1506 1.301 . S
C1503 O1507 1.282 . S
O1504 U1486 2.441 . S
O1504 C1490 1.249 . S
O1505 U1486 2.420 . S
O1505 C1490 1.202 . S
O1506 U1486 2.455 . S
O1506 C1503 1.301 . S
O1507 U1486 2.449 . S
O1507 C1503 1.282 . S
H1508 C1481 0.931 . S
H1509 C1483 0.929 . S
H1510 C1484 0.930 . S
H1511 C1485 0.931 . S
H1512 C1492 0.932 . S
H1513 C1493 0.930 . S
H1514 C1494 0.929 . S
H1515 C1496 0.930 . S
H1516 C1498 0.932 . S
H1517 C1499 0.929 . S
H1518 C1500 0.928 . S
H1519 C1502 0.932 . S
C1520 C1521 1.264 . S
C1520 C1525 1.479 . S
C1520 C1530 1.465 . S
C1521 C1520 1.264 . S
C1521 C1523 1.339 . S
C1521 H1548 0.931 . S
C1522 C1523 1.395 . S
C1522 C1524 1.320 . S
C1523 C1521 1.339 . S
C1523 C1522 1.395 . S
C1523 H1549 0.929 . S
C1524 C1522 1.320 . S
C1524 C1525 1.405 . S
C1524 H1550 0.930 . S
C1525 C1520 1.479 . S
C1525 C1524 1.405 . S
C1525 H1551 0.931 . S
U1526 O1527 2.454 . S
U1526 O1528 2.458 . S
U1526 C1529 2.984 . S
U1526 C1530 2.847 . S
U1526 C1543 2.882 . S
U1526 O1544 2.441 . S
U1526 O1545 2.420 . S
U1526 O1546 2.455 . S
U1526 O1547 2.449 . S
O1527 U1526 2.454 . S
O1527 C1529 1.353 . S
O1528 U1526 2.458 . S
O1528 C1529 1.286 . S
C1529 U1526 2.984 . S
C1529 O1527 1.353 . S
C1529 O1528 1.286 . S
C1529 C1531 1.363 . S
C1530 C1520 1.465 . S
C1530 U1526 2.847 . S
C1530 O1544 1.249 . S
C1530 O1545 1.202 . S
C1531 C1529 1.363 . S
C1531 C1533 1.408 . S
C1531 C1536 1.342 . S
C1532 C1533 1.310 . S
C1532 C1535 1.461 . S
C1532 H1552 0.932 . S
C1533 C1531 1.408 . S
C1533 C1532 1.310 . S
C1533 H1553 0.930 . S
C1534 C1535 1.474 . S
C1534 C1536 1.285 . S
C1534 H1554 0.929 . S
C1535 C1532 1.461 . S
C1535 C1534 1.474 . S
C1536 C1531 1.342 . S
C1536 C1534 1.285 . S
C1536 H1555 0.930 . S
C1537 C1540 1.424 . S
C1537 C1542 1.245 . S
C1537 C1543 1.428 . S
C1538 C1541 1.260 . S
C1538 C1542 1.477 . S
C1538 H1556 0.932 . S
C1539 C1540 1.384 . S
C1539 C1541 1.479 . S
C1539 H1557 0.929 . S
C1540 C1537 1.424 . S
C1540 C1539 1.384 . S
C1540 H1558 0.928 . S
C1541 C1538 1.260 . S
C1541 C1539 1.479 . S
C1542 C1537 1.245 . S
C1542 C1538 1.477 . S
C1542 H1559 0.932 . S
C1543 U1526 2.882 . S
C1543 C1537 1.428 . S
C1543 O1546 1.301 . S
C1543 O1547 1.282 . S
O1544 U1526 2.441 . S
O1544 C1530 1.249 . S
O1545 U1526 2.420 . S
O1545 C1530 1.202 . S
O1546 U1526 2.455 . S
O1546 C1543 1.301 . S
O1547 U1526 2.449 . S
O1547 C1543 1.282 . S
H1548 C1521 0.931 . S
H1549 C1523 0.929 . S
H1550 C1524 0.930 . S
H1551 C1525 0.931 . S
H1552 C1532 0.932 . S
H1553 C1533 0.930 . S
H1554 C1534 0.929 . S
H1555 C1536 0.930 . S
H1556 C1538 0.932 . S
H1557 C1539 0.929 . S
H1558 C1540 0.928 . S
H1559 C1542 0.932 . S
C1560 C1561 1.264 . S
C1560 C1565 1.479 . S
C1560 C1570 1.465 . S
C1561 C1560 1.264 . S
C1561 C1563 1.339 . S
C1561 H1588 0.931 . S
C1562 C1563 1.395 . S
C1562 C1564 1.320 . S
C1563 C1561 1.339 . S
C1563 C1562 1.395 . S
C1563 H1589 0.929 . S
C1564 C1562 1.320 . S
C1564 C1565 1.405 . S
C1564 H1590 0.930 . S
C1565 C1560 1.479 . S
C1565 C1564 1.405 . S
C1565 H1591 0.931 . S
U1566 O1567 2.454 . S
U1566 O1568 2.458 . S
U1566 C1569 2.984 . S
U1566 C1570 2.847 . S
U1566 C1583 2.882 . S
U1566 O1584 2.441 . S
U1566 O1585 2.420 . S
U1566 O1586 2.455 . S
U1566 O1587 2.449 . S
O1567 U1566 2.454 . S
O1567 C1569 1.353 . S
O1568 U1566 2.458 . S
O1568 C1569 1.286 . S
C1569 U1566 2.984 . S
C1569 O1567 1.353 . S
C1569 O1568 1.286 . S
C1569 C1571 1.363 . S
C1570 C1560 1.465 . S
C1570 U1566 2.847 . S
C1570 O1584 1.249 . S
C1570 O1585 1.202 . S
C1571 C1569 1.363 . S
C1571 C1573 1.408 . S
C1571 C1576 1.342 . S
C1572 C1573 1.310 . S
C1572 C1575 1.461 . S
C1572 H1592 0.932 . S
C1573 C1571 1.408 . S
C1573 C1572 1.310 . S
C1573 H1593 0.930 . S
C1574 C1575 1.474 . S
C1574 C1576 1.285 . S
C1574 H1594 0.929 . S
C1575 C1572 1.461 . S
C1575 C1574 1.474 . S
C1576 C1571 1.342 . S
C1576 C1574 1.285 . S
C1576 H1595 0.930 . S
C1577 C1580 1.424 . S
C1577 C1582 1.245 . S
C1577 C1583 1.428 . S
C1578 C1581 1.260 . S
C1578 C1582 1.477 . S
C1578 H1596 0.932 . S
C1579 C1580 1.384 . S
C1579 C1581 1.479 . S
C1579 H1597 0.929 . S
C1580 C1577 1.424 . S
C1580 C1579 1.384 . S
C1580 H1598 0.928 . S
C1581 C1578 1.260 . S
C1581 C1579 1.479 . S
C1582 C1577 1.245 . S
C1582 C1578 1.477 . S
C1582 H1599 0.932 . S
C1583 U1566 2.882 . S
C1583 C1577 1.428 . S
C1583 O1586 1.301 . S
C1583 O1587 1.282 . S
O1584 U1566 2.441 . S
O1584 C1570 1.249 . S
O1585 U1566 2.420 . S
O1585 C1570 1.202 . S
O1586 U1566 2.455 . S
O1586 C1583 1.301 . S
O1587 U1566 2.449 . S
O1587 C1583 1.282 . S
H1588 C1561 0.931 . S
H1589 C1563 0.929 . S
H1590 C1564 0.930 . S
H1591 C1565 0.931 . S
H1592 C1572 0.932 . S
H1593 C1573 0.930 . S
H1594 C1574 0.929 . S
H1595 C1576 0.930 . S
H1596 C1578 0.932 . S
H1597 C1579 0.929 . S
H1598 C1580 0.928 . S
H1599 C1582 0.932 . S
C1600 C1601 1.264 . S
C1600 C1605 1.479 . S
C1600 C1610 1.465 . S
C1601 C1600 1.264 . S
C1601 C1603 1.339 . S
C1601 H1628 0.931 . S
C1602 C1603 1.395 . S
C1602 C1604 1.320 . S
C1603 C1601 1.339 . S
C1603 C1602 1.395 . S
C1603 H1629 0.929 . S
C1604 C1602 1.320 . S
C1604 C1605 1.405 . S
C1604 H1630 0.930 . S
C1605 C1600 1.479 . S
C1605 C1604 1.405 . S
C1605 H1631 0.931 . S
U1606 O1607 2.454 . S
U1606 O1608 2.458 . S
U1606 C1609 2.984 . S
U1606 C1610 2.847 . S
U1606 C1623 2.882 . S
U1606 O1624 2.441 . S
U1606 O1625 2.420 . S
U1606 O1626 2.455 . S
U1606 O1627 2.449 . S
O1607 U1606 2.454 . S
O1607 C1609 1.353 . S
O1608 U1606 2.458 . S
O1608 C1609 1.286 . S
C1609 U1606 2.984 . S
C1609 O1607 1.353 . S
C1609 O1608 1.286 . S
C1609 C1611 1.363 . S
C1610 C1600 1.465 . S
C1610 U1606 2.847 . S
C1610 O1624 1.249 . S
C1610 O1625 1.202 . S
C1611 C1609 1.363 . S
C1611 C1613 1.408 . S
C1611 C1616 1.342 . S
C1612 C1613 1.310 . S
C1612 C1615 1.461 . S
C1612 H1632 0.932 . S
C1613 C1611 1.408 . S
C1613 C1612 1.310 . S
C1613 H1633 0.930 . S
C1614 C1615 1.474 . S
C1614 C1616 1.285 . S
C1614 H1634 0.929 . S
C1615 C1612 1.461 . S
C1615 C1614 1.474 . S
C1616 C1611 1.342 . S
C1616 C1614 1.285 . S
C1616 H1635 0.930 . S
C1617 C1620 1.424 . S
C1617 C1622 1.245 . S
C1617 C1623 1.428 . S
C1618 C1621 1.260 . S
C1618 C1622 1.477 . S
C1618 H1636 0.932 . S
C1619 C1620 1.384 . S
C1619 C1621 1.479 . S
C1619 H1637 0.929 . S
C1620 C1617 1.424 . S
C1620 C1619 1.384 . S
C1620 H1638 0.928 . S
C1621 C1618 1.260 . S
C1621 C1619 1.479 . S
C1622 C1617 1.245 . S
C1622 C1618 1.477 . S
C1622 H1639 0.932 . S
C1623 U1606 2.882 . S
C1623 C1617 1.428 . S
C1623 O1626 1.301 . S
C1623 O1627 1.282 . S
O1624 U1606 2.441 . S
O1624 C1610 1.249 . S
O1625 U1606 2.420 . S
O1625 C1610 1.202 . S
O1626 U1606 2.455 . S
O1626 C1623 1.301 . S
O1627 U1606 2.449 . S
O1627 C1623 1.282 . S
H1628 C1601 0.931 . S
H1629 C1603 0.929 . S
H1630 C1604 0.930 . S
H1631 C1605 0.931 . S
H1632 C1612 0.932 . S
H1633 C1613 0.930 . S
H1634 C1614 0.929 . S
H1635 C1616 0.930 . S
H1636 C1618 0.932 . S
H1637 C1619 0.929 . S
H1638 C1620 0.928 . S
H1639 C1622 0.932 . S
C1640 C1641 1.264 . S
C1640 C1645 1.479 . S
C1640 C1650 1.465 . S
C1641 C1640 1.264 . S
C1641 C1643 1.339 . S
C1641 H1668 0.931 . S
C1642 C1643 1.395 . S
C1642 C1644 1.320 . S
C1643 C1641 1.339 . S
C1643 C1642 1.395 . S
C1643 H1669 0.929 . S
C1644 C1642 1.320 . S
C1644 C1645 1.405 . S
C1644 H1670 0.930 . S
C1645 C1640 1.479 . S
C1645 C1644 1.405 . S
C1645 H1671 0.931 . S
U1646 O1647 2.454 . S
U1646 O1648 2.458 . S
U1646 C1649 2.984 . S
U1646 C1650 2.847 . S
U1646 C1663 2.882 . S
U1646 O1664 2.441 . S
U1646 O1665 2.420 . S
U1646 O1666 2.455 . S
U1646 O1667 2.449 . S
O1647 U1646 2.454 . S
O1647 C1649 1.353 . S
O1648 U1646 2.458 . S
O1648 C1649 1.286 . S
C1649 U1646 2.984 . S
C1649 O1647 1.353 . S
C1649 O1648 1.286 . S
C1649 C1651 1.363 . S
C1650 C1640 1.465 . S
C1650 U1646 2.847 . S
C1650 O1664 1.249 . S
C1650 O1665 1.202 . S
C1651 C1649 1.363 . S
C1651 C1653 1.408 . S
C1651 C1656 1.342 . S
C1652 C1653 1.310 . S
C1652 C1655 1.461 . S
C1652 H1672 0.932 . S
C1653 C1651 1.408 . S
C1653 C1652 1.310 . S
C1653 H1673 0.930 . S
C1654 C1655 1.474 . S
C1654 C1656 1.285 . S
C1654 H1674 0.929 . S
C1655 C1652 1.461 . S
C1655 C1654 1.474 . S
C1656 C1651 1.342 . S
C1656 C1654 1.285 . S
C1656 H1675 0.930 . S
C1657 C1660 1.424 . S
C1657 C1662 1.245 . S
C1657 C1663 1.428 . S
C1658 C1661 1.260 . S
C1658 C1662 1.477 . S
C1658 H1676 0.932 . S
C1659 C1660 1.384 . S
C1659 C1661 1.479 . S
C1659 H1677 0.929 . S
C1660 C1657 1.424 . S
C1660 C1659 1.384 . S
C1660 H1678 0.928 . S
C1661 C1658 1.260 . S
C1661 C1659 1.479 . S
C1662 C1657 1.245 . S
C1662 C1658 1.477 . S
C1662 H1679 0.932 . S
C1663 U1646 2.882 . S
C1663 C1657 1.428 . S
C1663 O1666 1.301 . S
C1663 O1667 1.282 . S
O1664 U1646 2.441 . S
O1664 C1650 1.249 . S
O1665 U1646 2.420 . S
O1665 C1650 1.202 . S
O1666 U1646 2.455 . S
O1666 C1663 1.301 . S
O1667 U1646 2.449 . S
O1667 C1663 1.282 . S
H1668 C1641 0.931 . S
H1669 C1643 0.929 . S
H1670 C1644 0.930 . S
H1671 C1645 0.931 . S
H1672 C1652 0.932 . S
H1673 C1653 0.930 . S
H1674 C1654 0.929 . S
H1675 C1656 0.930 . S
H1676 C1658 0.932 . S
H1677 C1659 0.929 . S
H1678 C1660 0.928 . S
H1679 C1662 0.932 . S
C1680 C1681 1.264 . S
C1680 C1685 1.479 . S
C1680 C1690 1.465 . S
C1681 C1680 1.264 . S
C1681 C1683 1.339 . S
C1681 H1708 0.931 . S
C1682 C1683 1.395 . S
C1682 C1684 1.320 . S
C1683 C1681 1.339 . S
C1683 C1682 1.395 . S
C1683 H1709 0.929 . S
C1684 C1682 1.320 . S
C1684 C1685 1.405 . S
C1684 H1710 0.930 . S
C1685 C1680 1.479 . S
C1685 C1684 1.405 . S
C1685 H1711 0.931 . S
U1686 O1687 2.454 . S
U1686 O1688 2.458 . S
U1686 C1689 2.984 . S
U1686 C1690 2.847 . S
U1686 C1703 2.882 . S
U1686 O1704 2.441 . S
U1686 O1705 2.420 . S
U1686 O1706 2.455 . S
U1686 O1707 2.449 . S
O1687 U1686 2.454 . S
O1687 C1689 1.353 . S
O1688 U1686 2.458 . S
O1688 C1689 1.286 . S
C1689 U1686 2.984 . S
C1689 O1687 1.353 . S
C1689 O1688 1.286 . S
C1689 C1691 1.363 . S
C1690 C1680 1.465 . S
C1690 U1686 2.847 . S
C1690 O1704 1.249 . S
C1690 O1705 1.202 . S
C1691 C1689 1.363 . S
C1691 C1693 1.408 . S
C1691 C1696 1.342 . S
C1692 C1693 1.310 . S
C1692 C1695 1.461 . S
C1692 H1712 0.932 . S
C1693 C1691 1.408 . S
C1693 C1692 1.310 . S
C1693 H1713 0.930 . S
C1694 C1695 1.474 . S
C1694 C1696 1.285 . S
C1694 H1714 0.929 . S
C1695 C1692 1.461 . S
C1695 C1694 1.474 . S
C1696 C1691 1.342 . S
C1696 C1694 1.285 . S
C1696 H1715 0.930 . S
C1697 C1700 1.424 . S
C1697 C1702 1.245 . S
C1697 C1703 1.428 . S
C1698 C1701 1.260 . S
C1698 C1702 1.477 . S
C1698 H1716 0.932 . S
C1699 C1700 1.384 . S
C1699 C1701 1.479 . S
C1699 H1717 0.929 . S
C1700 C1697 1.424 . S
C1700 C1699 1.384 . S
C1700 H1718 0.928 . S
C1701 C1698 1.260 . S
C1701 C1699 1.479 . S
C1702 C1697 1.245 . S
C1702 C1698 1.477 . S
C1702 H1719 0.932 . S
C1703 U1686 2.882 . S
C1703 C1697 1.428 . S
C1703 O1706 1.301 . S
C1703 O1707 1.282 . S
O1704 U1686 2.441 . S
O1704 C1690 1.249 . S
O1705 U1686 2.420 . S
O1705 C1690 1.202 . S
O1706 U1686 2.455 . S
O1706 C1703 1.301 . S
O1707 U1686 2.449 . S
O1707 C1703 1.282 . S
H1708 C1681 0.931 . S
H1709 C1683 0.929 . S
H1710 C1684 0.930 . S
H1711 C1685 0.931 . S
H1712 C1692 0.932 . S
H1713 C1693 0.930 . S
H1714 C1694 0.929 . S
H1715 C1696 0.930 . S
H1716 C1698 0.932 . S
H1717 C1699 0.929 . S
H1718 C1700 0.928 . S
H1719 C1702 0.932 . S
C1720 C1721 1.264 . S
C1720 C1725 1.479 . S
C1720 C1730 1.465 . S
C1721 C1720 1.264 . S
C1721 C1723 1.339 . S
C1721 H1748 0.931 . S
C1722 C1723 1.395 . S
C1722 C1724 1.320 . S
C1723 C1721 1.339 . S
C1723 C1722 1.395 . S
C1723 H1749 0.929 . S
C1724 C1722 1.320 . S
C1724 C1725 1.405 . S
C1724 H1750 0.930 . S
C1725 C1720 1.479 . S
C1725 C1724 1.405 . S
C1725 H1751 0.931 . S
U1726 O1727 2.454 . S
U1726 O1728 2.458 . S
U1726 C1729 2.984 . S
U1726 C1730 2.847 . S
U1726 C1743 2.882 . S
U1726 O1744 2.441 . S
U1726 O1745 2.420 . S
U1726 O1746 2.455 . S
U1726 O1747 2.449 . S
O1727 U1726 2.454 . S
O1727 C1729 1.353 . S
O1728 U1726 2.458 . S
O1728 C1729 1.286 . S
C1729 U1726 2.984 . S
C1729 O1727 1.353 . S
C1729 O1728 1.286 . S
C1729 C1731 1.363 . S
C1730 C1720 1.465 . S
C1730 U1726 2.847 . S
C1730 O1744 1.249 . S
C1730 O1745 1.202 . S
C1731 C1729 1.363 . S
C1731 C1733 1.408 . S
C1731 C1736 1.342 . S
C1732 C1733 1.310 . S
C1732 C1735 1.461 . S
C1732 H1752 0.932 . S
C1733 C1731 1.408 . S
C1733 C1732 1.310 . S
C1733 H1753 0.930 . S
C1734 C1735 1.474 . S
C1734 C1736 1.285 . S
C1734 H1754 0.929 . S
C1735 C1732 1.461 . S
C1735 C1734 1.474 . S
C1736 C1731 1.342 . S
C1736 C1734 1.285 . S
C1736 H1755 0.930 . S
C1737 C1740 1.424 . S
C1737 C1742 1.245 . S
C1737 C1743 1.428 . S
C1738 C1741 1.260 . S
C1738 C1742 1.477 . S
C1738 H1756 0.932 . S
C1739 C1740 1.384 . S
C1739 C1741 1.479 . S
C1739 H1757 0.929 . S
C1740 C1737 1.424 . S
C1740 C1739 1.384 . S
C1740 H1758 0.928 . S
C1741 C1738 1.260 . S
C1741 C1739 1.479 . S
C1742 C1737 1.245 . S
C1742 C1738 1.477 . S
C1742 H1759 0.932 . S
C1743 U1726 2.882 . S
C1743 C1737 1.428 . S
C1743 O1746 1.301 . S
C1743 O1747 1.282 . S
O1744 U1726 2.441 . S
O1744 C1730 1.249 . S
O1745 U1726 2.420 . S
O1745 C1730 1.202 . S
O1746 U1726 2.455 . S
O1746 C1743 1.301 . S
O1747 U1726 2.449 . S
O1747 C1743 1.282 . S
H1748 C1721 0.931 . S
H1749 C1723 0.929 . S
H1750 C1724 0.930 . S
H1751 C1725 0.931 . S
H1752 C1732 0.932 . S
H1753 C1733 0.930 . S
H1754 C1734 0.929 . S
H1755 C1736 0.930 . S
H1756 C1738 0.932 . S
H1757 C1739 0.929 . S
H1758 C1740 0.928 . S
H1759 C1742 0.932 . S
C1760 C1761 1.264 . S
C1760 C1765 1.479 . S
C1760 C1770 1.465 . S
C1761 C1760 1.264 . S
C1761 C1763 1.339 . S
C1761 H1788 0.931 . S
C1762 C1763 1.395 . S
C1762 C1764 1.320 . S
C1763 C1761 1.339 . S
C1763 C1762 1.395 . S
C1763 H1789 0.929 . S
C1764 C1762 1.320 . S
C1764 C1765 1.405 . S
C1764 H1790 0.930 . S
C1765 C1760 1.479 . S
C1765 C1764 1.405 . S
C1765 H1791 0.931 . S
U1766 O1767 2.454 . S
U1766 O1768 2.458 . S
U1766 C1769 2.984 . S
U1766 C1770 2.847 . S
U1766 C1783 2.882 . S
U1766 O1784 2.441 . S
U1766 O1785 2.420 . S
U1766 O1786 2.455 . S
U1766 O1787 2.449 . S
O1767 U1766 2.454 . S
O1767 C1769 1.353 . S
O1768 U1766 2.458 . S
O1768 C1769 1.286 . S
C1769 U1766 2.984 . S
C1769 O1767 1.353 . S
C1769 O1768 1.286 . S
C1769 C1771 1.363 . S
C1770 C1760 1.465 . S
C1770 U1766 2.847 . S
C1770 O1784 1.249 . S
C1770 O1785 1.202 . S
C1771 C1769 1.363 . S
C1771 C1773 1.408 . S
C1771 C1776 1.342 . S
C1772 C1773 1.310 . S
C1772 C1775 1.461 . S
C1772 H1792 0.932 . S
C1773 C1771 1.408 . S
C1773 C1772 1.310 . S
C1773 H1793 0.930 . S
C1774 C1775 1.474 . S
C1774 C1776 1.285 . S
C1774 H1794 0.929 . S
C1775 C1772 1.461 . S
C1775 C1774 1.474 . S
C1776 C1771 1.342 . S
C1776 C1774 1.285 . S
C1776 H1795 0.930 . S
C1777 C1780 1.424 . S
C1777 C1782 1.245 . S
C1777 C1783 1.428 . S
C1778 C1781 1.260 . S
C1778 C1782 1.477 . S
C1778 H1796 0.932 . S
C1779 C1780 1.384 . S
C1779 C1781 1.479 . S
C1779 H1797 0.929 . S
C1780 C1777 1.424 . S
C1780 C1779 1.384 . S
C1780 H1798 0.928 . S
C1781 C1778 1.260 . S
C1781 C1779 1.479 . S
C1782 C1777 1.245 . S
C1782 C1778 1.477 . S
C1782 H1799 0.932 . S
C1783 U1766 2.882 . S
C1783 C1777 1.428 . S
C1783 O1786 1.301 . S
C1783 O1787 1.282 . S
O1784 U1766 2.441 . S
O1784 C1770 1.249 . S
O1785 U1766 2.420 . S
O1785 C1770 1.202 . S
O1786 U1766 2.455 . S
O1786 C1783 1.301 . S
O1787 U1766 2.449 . S
O1787 C1783 1.282 . S
H1788 C1761 0.931 . S
H1789 C1763 0.929 . S
H1790 C1764 0.930 . S
H1791 C1765 0.931 . S
H1792 C1772 0.932 . S
H1793 C1773 0.930 . S
H1794 C1774 0.929 . S
H1795 C1776 0.930 . S
H1796 C1778 0.932 . S
H1797 C1779 0.929 . S
H1798 C1780 0.928 . S
H1799 C1782 0.932 . S
C1800 C1801 1.264 . S
C1800 C1805 1.479 . S
C1800 C1810 1.465 . S
C1801 C1800 1.264 . S
C1801 C1803 1.339 . S
C1801 H1828 0.931 . S
C1802 C1803 1.395 . S
C1802 C1804 1.320 . S
C1803 C1801 1.339 . S
C1803 C1802 1.395 . S
C1803 H1829 0.929 . S
C1804 C1802 1.320 . S
C1804 C1805 1.405 . S
C1804 H1830 0.930 . S
C1805 C1800 1.479 . S
C1805 C1804 1.405 . S
C1805 H1831 0.931 . S
U1806 O1807 2.454 . S
U1806 O1808 2.458 . S
U1806 C1809 2.984 . S
U1806 C1810 2.847 . S
U1806 C1823 2.882 . S
U1806 O1824 2.441 . S
U1806 O1825 2.420 . S
U1806 O1826 2.455 . S
U1806 O1827 2.449 . S
O1807 U1806 2.454 . S
O1807 C1809 1.353 . S
O1808 U1806 2.458 . S
O1808 C1809 1.286 . S
C1809 U1806 2.984 . S
C1809 O1807 1.353 . S
C1809 O1808 1.286 . S
C1809 C1811 1.363 . S
C1810 C1800 1.465 . S
C1810 U1806 2.847 . S
C1810 O1824 1.249 . S
C1810 O1825 1.202 . S
C1811 C1809 1.363 . S
C1811 C1813 1.408 . S
C1811 C1816 1.342 . S
C1812 C1813 1.310 . S
C1812 C1815 1.461 . S
C1812 H1832 0.932 . S
C1813 C1811 1.408 . S
C1813 C1812 1.310 . S
C1813 H1833 0.930 . S
C1814 C1815 1.474 . S
C1814 C1816 1.285 . S
C1814 H1834 0.929 . S
C1815 C1812 1.461 . S
C1815 C1814 1.474 . S
C1816 C1811 1.342 . S
C1816 C1814 1.285 . S
C1816 H1835 0.930 . S
C1817 C1820 1.424 . S
C1817 C1822 1.245 . S
C1817 C1823 1.428 . S
C1818 C1821 1.260 . S
C1818 C1822 1.477 . S
C1818 H1836 0.932 . S
C1819 C1820 1.384 . S
C1819 C1821 1.479 . S
C1819 H1837 0.929 . S
C1820 C1817 1.424 . S
C1820 C1819 1.384 . S
C1820 H1838 0.928 . S
C1821 C1818 1.260 . S
C1821 C1819 1.479 . S
C1822 C1817 1.245 . S
C1822 C1818 1.477 . S
C1822 H1839 0.932 . S
C1823 U1806 2.882 . S
C1823 C1817 1.428 . S
C1823 O1826 1.301 . S
C1823 O1827 1.282 . S
O1824 U1806 2.441 . S
O1824 C1810 1.249 . S
O1825 U1806 2.420 . S
O1825 C1810 1.202 . S
O1826 U1806 2.455 . S
O1826 C1823 1.301 . S
O1827 U1806 2.449 . S
O1827 C1823 1.282 . S
H1828 C1801 0.931 . S
H1829 C1803 0.929 . S
H1830 C1804 0.930 . S
H1831 C1805 0.931 . S
H1832 C1812 0.932 . S
H1833 C1813 0.930 . S
H1834 C1814 0.929 . S
H1835 C1816 0.930 . S
H1836 C1818 0.932 . S
H1837 C1819 0.929 . S
H1838 C1820 0.928 . S
H1839 C1822 0.932 . S
C1840 C1841 1.264 . S
C1840 C1845 1.479 . S
C1840 C1850 1.465 . S
C1841 C1840 1.264 . S
C1841 C1843 1.339 . S
C1841 H1868 0.931 . S
C1842 C1843 1.395 . S
C1842 C1844 1.320 . S
C1843 C1841 1.339 . S
C1843 C1842 1.395 . S
C1843 H1869 0.929 . S
C1844 C1842 1.320 . S
C1844 C1845 1.405 . S
C1844 H1870 0.930 . S
C1845 C1840 1.479 . S
C1845 C1844 1.405 . S
C1845 H1871 0.931 . S
U1846 O1847 2.454 . S
U1846 O1848 2.458 . S
U1846 C1849 2.984 . S
U1846 C1850 2.847 . S
U1846 C1863 2.882 . S
U1846 O1864 2.441 . S
U1846 O1865 2.420 . S
U1846 O1866 2.455 . S
U1846 O1867 2.449 . S
O1847 U1846 2.454 . S
O1847 C1849 1.353 . S
O1848 U1846 2.458 . S
O1848 C1849 1.286 . S
C1849 U1846 2.984 . S
C1849 O1847 1.353 . S
C1849 O1848 1.286 . S
C1849 C1851 1.363 . S
C1850 C1840 1.465 . S
C1850 U1846 2.847 . S
C1850 O1864 1.249 . S
C1850 O1865 1.202 . S
C1851 C1849 1.363 . S
C1851 C1853 1.408 . S
C1851 C1856 1.342 . S
C1852 C1853 1.310 . S
C1852 C1855 1.461 . S
C1852 H1872 0.932 . S
C1853 C1851 1.408 . S
C1853 C1852 1.310 . S
C1853 H1873 0.930 . S
C1854 C1855 1.474 . S
C1854 C1856 1.285 . S
C1854 H1874 0.929 . S
C1855 C1852 1.461 . S
C1855 C1854 1.474 . S
C1856 C1851 1.342 . S
C1856 C1854 1.285 . S
C1856 H1875 0.930 . S
C1857 C1860 1.424 . S
C1857 C1862 1.245 . S
C1857 C1863 1.428 . S
C1858 C1861 1.260 . S
C1858 C1862 1.477 . S
C1858 H1876 0.932 . S
C1859 C1860 1.384 . S
C1859 C1861 1.479 . S
C1859 H1877 0.929 . S
C1860 C1857 1.424 . S
C1860 C1859 1.384 . S
C1860 H1878 0.928 . S
C1861 C1858 1.260 . S
C1861 C1859 1.479 . S
C1862 C1857 1.245 . S
C1862 C1858 1.477 . S
C1862 H1879 0.932 . S
C1863 U1846 2.882 . S
C1863 C1857 1.428 . S
C1863 O1866 1.301 . S
C1863 O1867 1.282 . S
O1864 U1846 2.441 . S
O1864 C1850 1.249 . S
O1865 U1846 2.420 . S
O1865 C1850 1.202 . S
O1866 U1846 2.455 . S
O1866 C1863 1.301 . S
O1867 U1846 2.449 . S
O1867 C1863 1.282 . S
H1868 C1841 0.931 . S
H1869 C1843 0.929 . S
H1870 C1844 0.930 . S
H1871 C1845 0.931 . S
H1872 C1852 0.932 . S
H1873 C1853 0.930 . S
H1874 C1854 0.929 . S
H1875 C1856 0.930 . S
H1876 C1858 0.932 . S
H1877 C1859 0.929 . S
H1878 C1860 0.928 . S
H1879 C1862 0.932 . S
C1880 C1881 1.264 . S
C1880 C1885 1.479 . S
C1880 C1890 1.465 . S
C1881 C1880 1.264 . S
C1881 C1883 1.339 . S
C1881 H1908 0.931 . S
C1882 C1883 1.395 . S
C1882 C1884 1.320 . S
C1883 C1881 1.339 . S
C1883 C1882 1.395 . S
C1883 H1909 0.929 . S
C1884 C1882 1.320 . S
C1884 C1885 1.405 . S
C1884 H1910 0.930 . S
C1885 C1880 1.479 . S
C1885 C1884 1.405 . S
C1885 H1911 0.931 . S
U1886 O1887 2.454 . S
U1886 O1888 2.458 . S
U1886 C1889 2.984 . S
U1886 C1890 2.847 . S
U1886 C1903 2.882 . S
U1886 O1904 2.441 . S
U1886 O1905 2.420 . S
U1886 O1906 2.455 . S
U1886 O1907 2.449 . S
O1887 U1886 2.454 . S
O1887 C1889 1.353 . S
O1888 U1886 2.458 . S
O1888 C1889 1.286 . S
C1889 U1886 2.984 . S
C1889 O1887 1.353 . S
C1889 O1888 1.286 . S
C1889 C1891 1.363 . S
C1890 C1880 1.465 . S
C1890 U1886 2.847 . S
C1890 O1904 1.249 . S
C1890 O1905 1.202 . S
C1891 C1889 1.363 . S
C1891 C1893 1.408 . S
C1891 C1896 1.342 . S
C1892 C1893 1.310 . S
C1892 C1895 1.461 . S
C1892 H1912 0.932 . S
C1893 C1891 1.408 . S
C1893 C1892 1.310 . S
C1893 H1913 0.930 . S
C1894 C1895 1.474 . S
C1894 C1896 1.285 . S
C1894 H1914 0.929 . S
C1895 C1892 1.461 . S
C1895 C1894 1.474 . S
C1896 C1891 1.342 . S
C1896 C1894 1.285 . S
C1896 H1915 0.930 . S
C1897 C1900 1.424 . S
C1897 C1902 1.245 . S
C1897 C1903 1.428 . S
C1898 C1901 1.260 . S
C1898 C1902 1.477 . S
C1898 H1916 0.932 . S
C1899 C1900 1.384 . S
C1899 C1901 1.479 . S
C1899 H1917 0.929 . S
C1900 C1897 1.424 . S
C1900 C1899 1.384 . S
C1900 H1918 0.928 . S
C1901 C1898 1.260 . S
C1901 C1899 1.479 . S
C1902 C1897 1.245 . S
C1902 C1898 1.477 . S
C1902 H1919 0.932 . S
C1903 U1886 2.882 . S
C1903 C1897 1.428 . S
C1903 O1906 1.301 . S
C1903 O1907 1.282 . S
O1904 U1886 2.441 . S
O1904 C1890 1.249 . S
O1905 U1886 2.420 . S
O1905 C1890 1.202 . S
O1906 U1886 2.455 . S
O1906 C1903 1.301 . S
O1907 U1886 2.449 . S
O1907 C1903 1.282 . S
H1908 C1881 0.931 . S
H1909 C1883 0.929 . S
H1910 C1884 0.930 . S
H1911 C1885 0.931 . S
H1912 C1892 0.932 . S
H1913 C1893 0.930 . S
H1914 C1894 0.929 . S
H1915 C1896 0.930 . S
H1916 C1898 0.932 . S
H1917 C1899 0.929 . S
H1918 C1900 0.928 . S
H1919 C1902 0.932 . S
C1920 C1921 1.264 . S
C1920 C1925 1.479 . S
C1920 C1930 1.465 . S
C1921 C1920 1.264 . S
C1921 C1923 1.339 . S
C1921 H1948 0.931 . S
C1922 C1923 1.395 . S
C1922 C1924 1.320 . S
C1923 C1921 1.339 . S
C1923 C1922 1.395 . S
C1923 H1949 0.929 . S
C1924 C1922 1.320 . S
C1924 C1925 1.405 . S
C1924 H1950 0.930 . S
C1925 C1920 1.479 . S
C1925 C1924 1.405 . S
C1925 H1951 0.931 . S
U1926 O1927 2.454 . S
U1926 O1928 2.458 . S
U1926 C1929 2.984 . S
U1926 C1930 2.847 . S
U1926 C1943 2.882 . S
U1926 O1944 2.441 . S
U1926 O1945 2.420 . S
U1926 O1946 2.455 . S
U1926 O1947 2.449 . S
O1927 U1926 2.454 . S
O1927 C1929 1.353 . S
O1928 U1926 2.458 . S
O1928 C1929 1.286 . S
C1929 U1926 2.984 . S
C1929 O1927 1.353 . S
C1929 O1928 1.286 . S
C1929 C1931 1.363 . S
C1930 C1920 1.465 . S
C1930 U1926 2.847 . S
C1930 O1944 1.249 . S
C1930 O1945 1.202 . S
C1931 C1929 1.363 . S
C1931 C1933 1.408 . S
C1931 C1936 1.342 . S
C1932 C1933 1.310 . S
C1932 C1935 1.461 . S
C1932 H1952 0.932 . S
C1933 C1931 1.408 . S
C1933 C1932 1.310 . S
C1933 H1953 0.930 . S
C1934 C1935 1.474 . S
C1934 C1936 1.285 . S
C1934 H1954 0.929 . S
C1935 C1932 1.461 . S
C1935 C1934 1.474 . S
C1936 C1931 1.342 . S
C1936 C1934 1.285 . S
C1936 H1955 0.930 . S
C1937 C1940 1.424 . S
C1937 C1942 1.245 . S
C1937 C1943 1.428 . S
C1938 C1941 1.260 . S
C1938 C1942 1.477 . S
C1938 H1956 0.932 . S
C1939 C1940 1.384 . S
C1939 C1941 1.479 . S
C1939 H1957 0.929 . S
C1940 C1937 1.424 . S
C1940 C1939 1.384 . S
C1940 H1958 0.928 . S
C1941 C1938 1.260 . S
C1941 C1939 1.479 . S
C1942 C1937 1.245 . S
C1942 C1938 1.477 . S
C1942 H1959 0.932 . S
C1943 U1926 2.882 . S
C1943 C1937 1.428 . S
C1943 O1946 1.301 . S
C1943 O1947 1.282 . S
O1944 U1926 2.441 . S
O1944 C1930 1.249 . S
O1945 U1926 2.420 . S
O1945 C1930 1.202 . S
O1946 U1926 2.455 . S
O1946 C1943 1.301 . S
O1947 U1926 2.449 . S
O1947 C1943 1.282 . S
H1948 C1921 0.931 . S
H1949 C1923 0.929 . S
H1950 C1924 0.930 . S
H1951 C1925 0.931 . S
H1952 C1932 0.932 . S
H1953 C1933 0.930 . S
H1954 C1934 0.929 . S
H1955 C1936 0.930 . S
H1956 C1938 0.932 . S
H1957 C1939 0.929 . S
H1958 C1940 0.928 . S
H1959 C1942 0.932 . S
C1960 C1961 1.264 . S
C1960 C1965 1.479 . S
C1960 C1970 1.465 . S
C1961 C1960 1.264 . S
C1961 C1963 1.339 . S
C1961 H1988 0.931 . S
C1962 C1963 1.395 . S
C1962 C1964 1.320 . S
C1963 C1961 1.339 . S
C1963 C1962 1.395 . S
C1963 H1989 0.929 . S
C1964 C1962 1.320 . S
C1964 C1965 1.405 . S
C1964 H1990 0.930 . S
C1965 C1960 1.479 . S
C1965 C1964 1.405 . S
C1965 H1991 0.931 . S
U1966 O1967 2.454 . S
U1966 O1968 2.458 . S
U1966 C1969 2.984 . S
U1966 C1970 2.847 . S
U1966 C1983 2.882 . S
U1966 O1984 2.441 . S
U1966 O1985 2.420 . S
U1966 O1986 2.455 . S
U1966 O1987 2.449 . S
O1967 U1966 2.454 . S
O1967 C1969 1.353 . S
O1968 U1966 2.458 . S
O1968 C1969 1.286 . S
C1969 U1966 2.984 . S
C1969 O1967 1.353 . S
C1969 O1968 1.286 . S
C1969 C1971 1.363 . S
C1970 C1960 1.465 . S
C1970 U1966 2.847 . S
C1970 O1984 1.249 . S
C1970 O1985 1.202 . S
C1971 C1969 1.363 . S
C1971 C1973 1.408 . S
C1971 C1976 1.342 . S
C1972 C1973 1.310 . S
C1972 C1975 1.461 . S
C1972 H1992 0.932 . S
C1973 C1971 1.408 . S
C1973 C1972 1.310 . S
C1973 H1993 0.930 . S
C1974 C1975 1.474 . S
C1974 C1976 1.285 . S
C1974 H1994 0.929 . S
C1975 C1972 1.461 . S
C1975 C1974 1.474 . S
C1976 C1971 1.342 . S
C1976 C1974 1.285 . S
C1976 H1995 0.930 . S
C1977 C1980 1.424 . S
C1977 C1982 1.245 . S
C1977 C1983 1.428 . S
C1978 C1981 1.260 . S
C1978 C1982 1.477 . S
C1978 H1996 0.932 . S
C1979 C1980 1.384 . S
C1979 C1981 1.479 . S
C1979 H1997 0.929 . S
C1980 C1977 1.424 . S
C1980 C1979 1.384 . S
C1980 H1998 0.928 . S
C1981 C1978 1.260 . S
C1981 C1979 1.479 . S
C1982 C1977 1.245 . S
C1982 C1978 1.477 . S
C1982 H1999 0.932 . S
C1983 U1966 2.882 . S
C1983 C1977 1.428 . S
C1983 O1986 1.301 . S
C1983 O1987 1.282 . S
O1984 U1966 2.441 . S
O1984 C1970 1.249 . S
O1985 U1966 2.420 . S
O1985 C1970 1.202 . S
O1986 U1966 2.455 . S
O1986 C1983 1.301 . S
O1987 U1966 2.449 . S
O1987 C1983 1.282 . S
H1988 C1961 0.931 . S
H1989 C1963 0.929 . S
H1990 C1964 0.930 . S
H1991 C1965 0.931 . S
H1992 C1972 0.932 . S
H1993 C1973 0.930 . S
H1994 C1974 0.929 . S
H1995 C1976 0.930 . S
H1996 C1978 0.932 . S
H1997 C1979 0.929 . S
H1998 C1980 0.928 . S
H1999 C1982 0.932 . S
C2000 C2001 1.264 . S
C2000 C2005 1.479 . S
C2000 C2010 1.465 . S
C2001 C2000 1.264 . S
C2001 C2003 1.339 . S
C2001 H2028 0.931 . S
C2002 C2003 1.395 . S
C2002 C2004 1.320 . S
C2003 C2001 1.339 . S
C2003 C2002 1.395 . S
C2003 H2029 0.929 . S
C2004 C2002 1.320 . S
C2004 C2005 1.405 . S
C2004 H2030 0.930 . S
C2005 C2000 1.479 . S
C2005 C2004 1.405 . S
C2005 H2031 0.931 . S
U2006 O2007 2.454 . S
U2006 O2008 2.458 . S
U2006 C2009 2.984 . S
U2006 C2010 2.847 . S
U2006 C2023 2.882 . S
U2006 O2024 2.441 . S
U2006 O2025 2.420 . S
U2006 O2026 2.455 . S
U2006 O2027 2.449 . S
O2007 U2006 2.454 . S
O2007 C2009 1.353 . S
O2008 U2006 2.458 . S
O2008 C2009 1.286 . S
C2009 U2006 2.984 . S
C2009 O2007 1.353 . S
C2009 O2008 1.286 . S
C2009 C2011 1.363 . S
C2010 C2000 1.465 . S
C2010 U2006 2.847 . S
C2010 O2024 1.249 . S
C2010 O2025 1.202 . S
C2011 C2009 1.363 . S
C2011 C2013 1.408 . S
C2011 C2016 1.342 . S
C2012 C2013 1.310 . S
C2012 C2015 1.461 . S
C2012 H2032 0.932 . S
C2013 C2011 1.408 . S
C2013 C2012 1.310 . S
C2013 H2033 0.930 . S
C2014 C2015 1.474 . S
C2014 C2016 1.285 . S
C2014 H2034 0.929 . S
C2015 C2012 1.461 . S
C2015 C2014 1.474 . S
C2016 C2011 1.342 . S
C2016 C2014 1.285 . S
C2016 H2035 0.930 . S
C2017 C2020 1.424 . S
C2017 C2022 1.245 . S
C2017 C2023 1.428 . S
C2018 C2021 1.260 . S
C2018 C2022 1.477 . S
C2018 H2036 0.932 . S
C2019 C2020 1.384 . S
C2019 C2021 1.479 . S
C2019 H2037 0.929 . S
C2020 C2017 1.424 . S
C2020 C2019 1.384 . S
C2020 H2038 0.928 . S
C2021 C2018 1.260 . S
C2021 C2019 1.479 . S
C2022 C2017 1.245 . S
C2022 C2018 1.477 . S
C2022 H2039 0.932 . S
C2023 U2006 2.882 . S
C2023 C2017 1.428 . S
C2023 O2026 1.301 . S
C2023 O2027 1.282 . S
O2024 U2006 2.441 . S
O2024 C2010 1.249 . S
O2025 U2006 2.420 . S
O2025 C2010 1.202 . S
O2026 U2006 2.455 . S
O2026 C2023 1.301 . S
O2027 U2006 2.449 . S
O2027 C2023 1.282 . S
H2028 C2001 0.931 . S
H2029 C2003 0.929 . S
H2030 C2004 0.930 . S
H2031 C2005 0.931 . S
H2032 C2012 0.932 . S
H2033 C2013 0.930 . S
H2034 C2014 0.929 . S
H2035 C2016 0.930 . S
H2036 C2018 0.932 . S
H2037 C2019 0.929 . S
H2038 C2020 0.928 . S
H2039 C2022 0.932 . S
C2040 C2041 1.264 . S
C2040 C2045 1.479 . S
C2040 C2050 1.465 . S
C2041 C2040 1.264 . S
C2041 C2043 1.339 . S
C2041 H2068 0.931 . S
C2042 C2043 1.395 . S
C2042 C2044 1.320 . S
C2043 C2041 1.339 . S
C2043 C2042 1.395 . S
C2043 H2069 0.929 . S
C2044 C2042 1.320 . S
C2044 C2045 1.405 . S
C2044 H2070 0.930 . S
C2045 C2040 1.479 . S
C2045 C2044 1.405 . S
C2045 H2071 0.931 . S
U2046 O2047 2.454 . S
U2046 O2048 2.458 . S
U2046 C2049 2.984 . S
U2046 C2050 2.847 . S
U2046 C2063 2.882 . S
U2046 O2064 2.441 . S
U2046 O2065 2.420 . S
U2046 O2066 2.455 . S
U2046 O2067 2.449 . S
O2047 U2046 2.454 . S
O2047 C2049 1.353 . S
O2048 U2046 2.458 . S
O2048 C2049 1.286 . S
C2049 U2046 2.984 . S
C2049 O2047 1.353 . S
C2049 O2048 1.286 . S
C2049 C2051 1.363 . S
C2050 C2040 1.465 . S
C2050 U2046 2.847 . S
C2050 O2064 1.249 . S
C2050 O2065 1.202 . S
C2051 C2049 1.363 . S
C2051 C2053 1.408 . S
C2051 C2056 1.342 . S
C2052 C2053 1.310 . S
C2052 C2055 1.461 . S
C2052 H2072 0.932 . S
C2053 C2051 1.408 . S
C2053 C2052 1.310 . S
C2053 H2073 0.930 . S
C2054 C2055 1.474 . S
C2054 C2056 1.285 . S
C2054 H2074 0.929 . S
C2055 C2052 1.461 . S
C2055 C2054 1.474 . S
C2056 C2051 1.342 . S
C2056 C2054 1.285 . S
C2056 H2075 0.930 . S
C2057 C2060 1.424 . S
C2057 C2062 1.245 . S
C2057 C2063 1.428 . S
C2058 C2061 1.260 . S
C2058 C2062 1.477 . S
C2058 H2076 0.932 . S
C2059 C2060 1.384 . S
C2059 C2061 1.479 . S
C2059 H2077 0.929 . S
C2060 C2057 1.424 . S
C2060 C2059 1.384 . S
C2060 H2078 0.928 . S
C2061 C2058 1.260 . S
C2061 C2059 1.479 . S
C2062 C2057 1.245 . S
C2062 C2058 1.477 . S
C2062 H2079 0.932 . S
C2063 U2046 2.882 . S
C2063 C2057 1.428 . S
C2063 O2066 1.301 . S
C2063 O2067 1.282 . S
O2064 U2046 2.441 . S
O2064 C2050 1.249 . S
O2065 U2046 2.420 . S
O2065 C2050 1.202 . S
O2066 U2046 2.455 . S
O2066 C2063 1.301 . S
O2067 U2046 2.449 . S
O2067 C2063 1.282 . S
H2068 C2041 0.931 . S
H2069 C2043 0.929 . S
H2070 C2044 0.930 . S
H2071 C2045 0.931 . S
H2072 C2052 0.932 . S
H2073 C2053 0.930 . S
H2074 C2054 0.929 . S
H2075 C2056 0.930 . S
H2076 C2058 0.932 . S
H2077 C2059 0.929 . S
H2078 C2060 0.928 . S
H2079 C2062 0.932 . S
C2080 C2081 1.264 . S
C2080 C2085 1.479 . S
C2080 C2090 1.465 . S
C2081 C2080 1.264 . S
C2081 C2083 1.339 . S
C2081 H2108 0.931 . S
C2082 C2083 1.395 . S
C2082 C2084 1.320 . S
C2083 C2081 1.339 . S
C2083 C2082 1.395 . S
C2083 H2109 0.929 . S
C2084 C2082 1.320 . S
C2084 C2085 1.405 . S
C2084 H2110 0.930 . S
C2085 C2080 1.479 . S
C2085 C2084 1.405 . S
C2085 H2111 0.931 . S
U2086 O2087 2.454 . S
U2086 O2088 2.458 . S
U2086 C2089 2.984 . S
U2086 C2090 2.847 . S
U2086 C2103 2.882 . S
U2086 O2104 2.441 . S
U2086 O2105 2.420 . S
U2086 O2106 2.455 . S
U2086 O2107 2.449 . S
O2087 U2086 2.454 . S
O2087 C2089 1.353 . S
O2088 U2086 2.458 . S
O2088 C2089 1.286 . S
C2089 U2086 2.984 . S
C2089 O2087 1.353 . S
C2089 O2088 1.286 . S
C2089 C2091 1.363 . S
C2090 C2080 1.465 . S
C2090 U2086 2.847 . S
C2090 O2104 1.249 . S
C2090 O2105 1.202 . S
C2091 C2089 1.363 . S
C2091 C2093 1.408 . S
C2091 C2096 1.342 . S
C2092 C2093 1.310 . S
C2092 C2095 1.461 . S
C2092 H2112 0.932 . S
C2093 C2091 1.408 . S
C2093 C2092 1.310 . S
C2093 H2113 0.930 . S
C2094 C2095 1.474 . S
C2094 C2096 1.285 . S
C2094 H2114 0.929 . S
C2095 C2092 1.461 . S
C2095 C2094 1.474 . S
C2096 C2091 1.342 . S
C2096 C2094 1.285 . S
C2096 H2115 0.930 . S
C2097 C2100 1.424 . S
C2097 C2102 1.245 . S
C2097 C2103 1.428 . S
C2098 C2101 1.260 . S
C2098 C2102 1.477 . S
C2098 H2116 0.932 . S
C2099 C2100 1.384 . S
C2099 C2101 1.479 . S
C2099 H2117 0.929 . S
C2100 C2097 1.424 . S
C2100 C2099 1.384 . S
C2100 H2118 0.928 . S
C2101 C2098 1.260 . S
C2101 C2099 1.479 . S
C2102 C2097 1.245 . S
C2102 C2098 1.477 . S
C2102 H2119 0.932 . S
C2103 U2086 2.882 . S
C2103 C2097 1.428 . S
C2103 O2106 1.301 . S
C2103 O2107 1.282 . S
O2104 U2086 2.441 . S
O2104 C2090 1.249 . S
O2105 U2086 2.420 . S
O2105 C2090 1.202 . S
O2106 U2086 2.455 . S
O2106 C2103 1.301 . S
O2107 U2086 2.449 . S
O2107 C2103 1.282 . S
H2108 C2081 0.931 . S
H2109 C2083 0.929 . S
H2110 C2084 0.930 . S
H2111 C2085 0.931 . S
H2112 C2092 0.932 . S
H2113 C2093 0.930 . S
H2114 C2094 0.929 . S
H2115 C2096 0.930 . S
H2116 C2098 0.932 . S
H2117 C2099 0.929 . S
H2118 C2100 0.928 . S
H2119 C2102 0.932 . S
C2120 C2121 1.264 . S
C2120 C2125 1.479 . S
C2120 C2130 1.465 . S
C2121 C2120 1.264 . S
C2121 C2123 1.339 . S
C2121 H2148 0.931 . S
C2122 C2123 1.395 . S
C2122 C2124 1.320 . S
C2123 C2121 1.339 . S
C2123 C2122 1.395 . S
C2123 H2149 0.929 . S
C2124 C2122 1.320 . S
C2124 C2125 1.405 . S
C2124 H2150 0.930 . S
C2125 C2120 1.479 . S
C2125 C2124 1.405 . S
C2125 H2151 0.931 . S
U2126 O2127 2.454 . S
U2126 O2128 2.458 . S
U2126 C2129 2.984 . S
U2126 C2130 2.847 . S
U2126 C2143 2.882 . S
U2126 O2144 2.441 . S
U2126 O2145 2.420 . S
U2126 O2146 2.455 . S
U2126 O2147 2.449 . S
O2127 U2126 2.454 . S
O2127 C2129 1.353 . S
O2128 U2126 2.458 . S
O2128 C2129 1.286 . S
C2129 U2126 2.984 . S
C2129 O2127 1.353 . S
C2129 O2128 1.286 . S
C2129 C2131 1.363 . S
C2130 C2120 1.465 . S
C2130 U2126 2.847 . S
C2130 O2144 1.249 . S
C2130 O2145 1.202 . S
C2131 C2129 1.363 . S
C2131 C2133 1.408 . S
C2131 C2136 1.342 . S
C2132 C2133 1.310 . S
C2132 C2135 1.461 . S
C2132 H2152 0.932 . S
C2133 C2131 1.408 . S
C2133 C2132 1.310 . S
C2133 H2153 0.930 . S
C2134 C2135 1.474 . S
C2134 C2136 1.285 . S
C2134 H2154 0.929 . S
C2135 C2132 1.461 . S
C2135 C2134 1.474 . S
C2136 C2131 1.342 . S
C2136 C2134 1.285 . S
C2136 H2155 0.930 . S
C2137 C2140 1.424 . S
C2137 C2142 1.245 . S
C2137 C2143 1.428 . S
C2138 C2141 1.260 . S
C2138 C2142 1.477 . S
C2138 H2156 0.932 . S
C2139 C2140 1.384 . S
C2139 C2141 1.479 . S
C2139 H2157 0.929 . S
C2140 C2137 1.424 . S
C2140 C2139 1.384 . S
C2140 H2158 0.928 . S
C2141 C2138 1.260 . S
C2141 C2139 1.479 . S
C2142 C2137 1.245 . S
C2142 C2138 1.477 . S
C2142 H2159 0.932 . S
C2143 U2126 2.882 . S
C2143 C2137 1.428 . S
C2143 O2146 1.301 . S
C2143 O2147 1.282 . S
O2144 U2126 2.441 . S
O2144 C2130 1.249 . S
O2145 U2126 2.420 . S
O2145 C2130 1.202 . S
O2146 U2126 2.455 . S
O2146 C2143 1.301 . S
O2147 U2126 2.449 . S
O2147 C2143 1.282 . S
H2148 C2121 0.931 . S
H2149 C2123 0.929 . S
H2150 C2124 0.930 . S
H2151 C2125 0.931 . S
H2152 C2132 0.932 . S
H2153 C2133 0.930 . S
H2154 C2134 0.929 . S
H2155 C2136 0.930 . S
H2156 C2138 0.932 . S
H2157 C2139 0.929 . S
H2158 C2140 0.928 . S
H2159 C2142 0.932 . S
C2160 C2161 1.264 . S
C2160 C2165 1.479 . S
C2160 C2170 1.465 . S
C2161 C2160 1.264 . S
C2161 C2163 1.339 . S
C2161 H2188 0.931 . S
C2162 C2163 1.395 . S
C2162 C2164 1.320 . S
C2163 C2161 1.339 . S
C2163 C2162 1.395 . S
C2163 H2189 0.929 . S
C2164 C2162 1.320 . S
C2164 C2165 1.405 . S
C2164 H2190 0.930 . S
C2165 C2160 1.479 . S
C2165 C2164 1.405 . S
C2165 H2191 0.931 . S
U2166 O2167 2.454 . S
U2166 O2168 2.458 . S
U2166 C2169 2.984 . S
U2166 C2170 2.847 . S
U2166 C2183 2.882 . S
U2166 O2184 2.441 . S
U2166 O2185 2.420 . S
U2166 O2186 2.455 . S
U2166 O2187 2.449 . S
O2167 U2166 2.454 . S
O2167 C2169 1.353 . S
O2168 U2166 2.458 . S
O2168 C2169 1.286 . S
C2169 U2166 2.984 . S
C2169 O2167 1.353 . S
C2169 O2168 1.286 . S
C2169 C2171 1.363 . S
C2170 C2160 1.465 . S
C2170 U2166 2.847 . S
C2170 O2184 1.249 . S
C2170 O2185 1.202 . S
C2171 C2169 1.363 . S
C2171 C2173 1.408 . S
C2171 C2176 1.342 . S
C2172 C2173 1.310 . S
C2172 C2175 1.461 . S
C2172 H2192 0.932 . S
C2173 C2171 1.408 . S
C2173 C2172 1.310 . S
C2173 H2193 0.930 . S
C2174 C2175 1.474 . S
C2174 C2176 1.285 . S
C2174 H2194 0.929 . S
C2175 C2172 1.461 . S
C2175 C2174 1.474 . S
C2176 C2171 1.342 . S
C2176 C2174 1.285 . S
C2176 H2195 0.930 . S
C2177 C2180 1.424 . S
C2177 C2182 1.245 . S
C2177 C2183 1.428 . S
C2178 C2181 1.260 . S
C2178 C2182 1.477 . S
C2178 H2196 0.932 . S
C2179 C2180 1.384 . S
C2179 C2181 1.479 . S
C2179 H2197 0.929 . S
C2180 C2177 1.424 . S
C2180 C2179 1.384 . S
C2180 H2198 0.928 . S
C2181 C2178 1.260 . S
C2181 C2179 1.479 . S
C2182 C2177 1.245 . S
C2182 C2178 1.477 . S
C2182 H2199 0.932 . S
C2183 U2166 2.882 . S
C2183 C2177 1.428 . S
C2183 O2186 1.301 . S
C2183 O2187 1.282 . S
O2184 U2166 2.441 . S
O2184 C2170 1.249 . S
O2185 U2166 2.420 . S
O2185 C2170 1.202 . S
O2186 U2166 2.455 . S
O2186 C2183 1.301 . S
O2187 U2166 2.449 . S
O2187 C2183 1.282 . S
H2188 C2161 0.931 . S
H2189 C2163 0.929 . S
H2190 C2164 0.930 . S
H2191 C2165 0.931 . S
H2192 C2172 0.932 . S
H2193 C2173 0.930 . S
H2194 C2174 0.929 . S
H2195 C2176 0.930 . S
H2196 C2178 0.932 . S
H2197 C2179 0.929 . S
H2198 C2180 0.928 . S
H2199 C2182 0.932 . S
C2200 C2201 1.264 . S
C2200 C2205 1.479 . S
C2200 C2210 1.465 . S
C2201 C2200 1.264 . S
C2201 C2203 1.339 . S
C2201 H2228 0.931 . S
C2202 C2203 1.395 . S
C2202 C2204 1.320 . S
C2203 C2201 1.339 . S
C2203 C2202 1.395 . S
C2203 H2229 0.929 . S
C2204 C2202 1.320 . S
C2204 C2205 1.405 . S
C2204 H2230 0.930 . S
C2205 C2200 1.479 . S
C2205 C2204 1.405 . S
C2205 H2231 0.931 . S
U2206 O2207 2.454 . S
U2206 O2208 2.458 . S
U2206 C2209 2.984 . S
U2206 C2210 2.847 . S
U2206 C2223 2.882 . S
U2206 O2224 2.441 . S
U2206 O2225 2.420 . S
U2206 O2226 2.455 . S
U2206 O2227 2.449 . S
O2207 U2206 2.454 . S
O2207 C2209 1.353 . S
O2208 U2206 2.458 . S
O2208 C2209 1.286 . S
C2209 U2206 2.984 . S
C2209 O2207 1.353 . S
C2209 O2208 1.286 . S
C2209 C2211 1.363 . S
C2210 C2200 1.465 . S
C2210 U2206 2.847 . S
C2210 O2224 1.249 . S
C2210 O2225 1.202 . S
C2211 C2209 1.363 . S
C2211 C2213 1.408 . S
C2211 C2216 1.342 . S
C2212 C2213 1.310 . S
C2212 C2215 1.461 . S
C2212 H2232 0.932 . S
C2213 C2211 1.408 . S
C2213 C2212 1.310 . S
C2213 H2233 0.930 . S
C2214 C2215 1.474 . S
C2214 C2216 1.285 . S
C2214 H2234 0.929 . S
C2215 C2212 1.461 . S
C2215 C2214 1.474 . S
C2216 C2211 1.342 . S
C2216 C2214 1.285 . S
C2216 H2235 0.930 . S
C2217 C2220 1.424 . S
C2217 C2222 1.245 . S
C2217 C2223 1.428 . S
C2218 C2221 1.260 . S
C2218 C2222 1.477 . S
C2218 H2236 0.932 . S
C2219 C2220 1.384 . S
C2219 C2221 1.479 . S
C2219 H2237 0.929 . S
C2220 C2217 1.424 . S
C2220 C2219 1.384 . S
C2220 H2238 0.928 . S
C2221 C2218 1.260 . S
C2221 C2219 1.479 . S
C2222 C2217 1.245 . S
C2222 C2218 1.477 . S
C2222 H2239 0.932 . S
C2223 U2206 2.882 . S
C2223 C2217 1.428 . S
C2223 O2226 1.301 . S
C2223 O2227 1.282 . S
O2224 U2206 2.441 . S
O2224 C2210 1.249 . S
O2225 U2206 2.420 . S
O2225 C2210 1.202 . S
O2226 U2206 2.455 . S
O2226 C2223 1.301 . S
O2227 U2206 2.449 . S
O2227 C2223 1.282 . S
H2228 C2201 0.931 . S
H2229 C2203 0.929 . S
H2230 C2204 0.930 . S
H2231 C2205 0.931 . S
H2232 C2212 0.932 . S
H2233 C2213 0.930 . S
H2234 C2214 0.929 . S
H2235 C2216 0.930 . S
H2236 C2218 0.932 . S
H2237 C2219 0.929 . S
H2238 C2220 0.928 . S
H2239 C2222 0.932 . S
C2240 C2241 1.264 . S
C2240 C2245 1.479 . S
C2240 C2250 1.465 . S
C2241 C2240 1.264 . S
C2241 C2243 1.339 . S
C2241 H2268 0.931 . S
C2242 C2243 1.395 . S
C2242 C2244 1.320 . S
C2243 C2241 1.339 . S
C2243 C2242 1.395 . S
C2243 H2269 0.929 . S
C2244 C2242 1.320 . S
C2244 C2245 1.405 . S
C2244 H2270 0.930 . S
C2245 C2240 1.479 . S
C2245 C2244 1.405 . S
C2245 H2271 0.931 . S
U2246 O2247 2.454 . S
U2246 O2248 2.458 . S
U2246 C2249 2.984 . S
U2246 C2250 2.847 . S
U2246 C2263 2.882 . S
U2246 O2264 2.441 . S
U2246 O2265 2.420 . S
U2246 O2266 2.455 . S
U2246 O2267 2.449 . S
O2247 U2246 2.454 . S
O2247 C2249 1.353 . S
O2248 U2246 2.458 . S
O2248 C2249 1.286 . S
C2249 U2246 2.984 . S
C2249 O2247 1.353 . S
C2249 O2248 1.286 . S
C2249 C2251 1.363 . S
C2250 C2240 1.465 . S
C2250 U2246 2.847 . S
C2250 O2264 1.249 . S
C2250 O2265 1.202 . S
C2251 C2249 1.363 . S
C2251 C2253 1.408 . S
C2251 C2256 1.342 . S
C2252 C2253 1.310 . S
C2252 C2255 1.461 . S
C2252 H2272 0.932 . S
C2253 C2251 1.408 . S
C2253 C2252 1.310 . S
C2253 H2273 0.930 . S
C2254 C2255 1.474 . S
C2254 C2256 1.285 . S
C2254 H2274 0.929 . S
C2255 C2252 1.461 . S
C2255 C2254 1.474 . S
C2256 C2251 1.342 . S
C2256 C2254 1.285 . S
C2256 H2275 0.930 . S
C2257 C2260 1.424 . S
C2257 C2262 1.245 . S
C2257 C2263 1.428 . S
C2258 C2261 1.260 . S
C2258 C2262 1.477 . S
C2258 H2276 0.932 . S
C2259 C2260 1.384 . S
C2259 C2261 1.479 . S
C2259 H2277 0.929 . S
C2260 C2257 1.424 . S
C2260 C2259 1.384 . S
C2260 H2278 0.928 . S
C2261 C2258 1.260 . S
C2261 C2259 1.479 . S
C2262 C2257 1.245 . S
C2262 C2258 1.477 . S
C2262 H2279 0.932 . S
C2263 U2246 2.882 . S
C2263 C2257 1.428 . S
C2263 O2266 1.301 . S
C2263 O2267 1.282 . S
O2264 U2246 2.441 . S
O2264 C2250 1.249 . S
O2265 U2246 2.420 . S
O2265 C2250 1.202 . S
O2266 U2246 2.455 . S
O2266 C2263 1.301 . S
O2267 U2246 2.449 . S
O2267 C2263 1.282 . S
H2268 C2241 0.931 . S
H2269 C2243 0.929 . S
H2270 C2244 0.930 . S
H2271 C2245 0.931 . S
H2272 C2252 0.932 . S
H2273 C2253 0.930 . S
H2274 C2254 0.929 . S
H2275 C2256 0.930 . S
H2276 C2258 0.932 . S
H2277 C2259 0.929 . S
H2278 C2260 0.928 . S
H2279 C2262 0.932 . S
C2280 C2281 1.264 . S
C2280 C2285 1.479 . S
C2280 C2290 1.465 . S
C2281 C2280 1.264 . S
C2281 C2283 1.339 . S
C2281 H2308 0.931 . S
C2282 C2283 1.395 . S
C2282 C2284 1.320 . S
C2283 C2281 1.339 . S
C2283 C2282 1.395 . S
C2283 H2309 0.929 . S
C2284 C2282 1.320 . S
C2284 C2285 1.405 . S
C2284 H2310 0.930 . S
C2285 C2280 1.479 . S
C2285 C2284 1.405 . S
C2285 H2311 0.931 . S
U2286 O2287 2.454 . S
U2286 O2288 2.458 . S
U2286 C2289 2.984 . S
U2286 C2290 2.847 . S
U2286 C2303 2.882 . S
U2286 O2304 2.441 . S
U2286 O2305 2.420 . S
U2286 O2306 2.455 . S
U2286 O2307 2.449 . S
O2287 U2286 2.454 . S
O2287 C2289 1.353 . S
O2288 U2286 2.458 . S
O2288 C2289 1.286 . S
C2289 U2286 2.984 . S
C2289 O2287 1.353 . S
C2289 O2288 1.286 . S
C2289 C2291 1.363 . S
C2290 C2280 1.465 . S
C2290 U2286 2.847 . S
C2290 O2304 1.249 . S
C2290 O2305 1.202 . S
C2291 C2289 1.363 . S
C2291 C2293 1.408 . S
C2291 C2296 1.342 . S
C2292 C2293 1.310 . S
C2292 C2295 1.461 . S
C2292 H2312 0.932 . S
C2293 C2291 1.408 . S
C2293 C2292 1.310 . S
C2293 H2313 0.930 . S
C2294 C2295 1.474 . S
C2294 C2296 1.285 . S
C2294 H2314 0.929 . S
C2295 C2292 1.461 . S
C2295 C2294 1.474 . S
C2296 C2291 1.342 . S
C2296 C2294 1.285 . S
C2296 H2315 0.930 . S
C2297 C2300 1.424 . S
C2297 C2302 1.245 . S
C2297 C2303 1.428 . S
C2298 C2301 1.260 . S
C2298 C2302 1.477 . S
C2298 H2316 0.932 . S
C2299 C2300 1.384 . S
C2299 C2301 1.479 . S
C2299 H2317 0.929 . S
C2300 C2297 1.424 . S
C2300 C2299 1.384 . S
C2300 H2318 0.928 . S
C2301 C2298 1.260 . S
C2301 C2299 1.479 . S
C2302 C2297 1.245 . S
C2302 C2298 1.477 . S
C2302 H2319 0.932 . S
C2303 U2286 2.882 . S
C2303 C2297 1.428 . S
C2303 O2306 1.301 . S
C2303 O2307 1.282 . S
O2304 U2286 2.441 . S
O2304 C2290 1.249 . S
O2305 U2286 2.420 . S
O2305 C2290 1.202 . S
O2306 U2286 2.455 . S
O2306 C2303 1.301 . S
O2307 U2286 2.449 . S
O2307 C2303 1.282 . S
H2308 C2281 0.931 . S
H2309 C2283 0.929 . S
H2310 C2284 0.930 . S
H2311 C2285 0.931 . S
H2312 C2292 0.932 . S
H2313 C2293 0.930 . S
H2314 C2294 0.929 . S
H2315 C2296 0.930 . S
H2316 C2298 0.932 . S
H2317 C2299 0.929 . S
H2318 C2300 0.928 . S
H2319 C2302 0.932 . S
C2320 C2321 1.264 . S
C2320 C2325 1.479 . S
C2320 C2330 1.465 . S
C2321 C2320 1.264 . S
C2321 C2323 1.339 . S
C2321 H2348 0.931 . S
C2322 C2323 1.395 . S
C2322 C2324 1.320 . S
C2323 C2321 1.339 . S
C2323 C2322 1.395 . S
C2323 H2349 0.929 . S
C2324 C2322 1.320 . S
C2324 C2325 1.405 . S
C2324 H2350 0.930 . S
C2325 C2320 1.479 . S
C2325 C2324 1.405 . S
C2325 H2351 0.931 . S
U2326 O2327 2.454 . S
U2326 O2328 2.458 . S
U2326 C2329 2.984 . S
U2326 C2330 2.847 . S
U2326 C2343 2.882 . S
U2326 O2344 2.441 . S
U2326 O2345 2.420 . S
U2326 O2346 2.455 . S
U2326 O2347 2.449 . S
O2327 U2326 2.454 . S
O2327 C2329 1.353 . S
O2328 U2326 2.458 . S
O2328 C2329 1.286 . S
C2329 U2326 2.984 . S
C2329 O2327 1.353 . S
C2329 O2328 1.286 . S
C2329 C2331 1.363 . S
C2330 C2320 1.465 . S
C2330 U2326 2.847 . S
C2330 O2344 1.249 . S
C2330 O2345 1.202 . S
C2331 C2329 1.363 . S
C2331 C2333 1.408 . S
C2331 C2336 1.342 . S
C2332 C2333 1.310 . S
C2332 C2335 1.461 . S
C2332 H2352 0.932 . S
C2333 C2331 1.408 . S
C2333 C2332 1.310 . S
C2333 H2353 0.930 . S
C2334 C2335 1.474 . S
C2334 C2336 1.285 . S
C2334 H2354 0.929 . S
C2335 C2332 1.461 . S
C2335 C2334 1.474 . S
C2336 C2331 1.342 . S
C2336 C2334 1.285 . S
C2336 H2355 0.930 . S
C2337 C2340 1.424 . S
C2337 C2342 1.245 . S
C2337 C2343 1.428 . S
C2338 C2341 1.260 . S
C2338 C2342 1.477 . S
C2338 H2356 0.932 . S
C2339 C2340 1.384 . S
C2339 C2341 1.479 . S
C2339 H2357 0.929 . S
C2340 C2337 1.424 . S
C2340 C2339 1.384 . S
C2340 H2358 0.928 . S
C2341 C2338 1.260 . S
C2341 C2339 1.479 . S
C2342 C2337 1.245 . S
C2342 C2338 1.477 . S
C2342 H2359 0.932 . S
C2343 U2326 2.882 . S
C2343 C2337 1.428 . S
C2343 O2346 1.301 . S
C2343 O2347 1.282 . S
O2344 U2326 2.441 . S
O2344 C2330 1.249 . S
O2345 U2326 2.420 . S
O2345 C2330 1.202 . S
O2346 U2326 2.455 . S
O2346 C2343 1.301 . S
O2347 U2326 2.449 . S
O2347 C2343 1.282 . S
H2348 C2321 0.931 . S
H2349 C2323 0.929 . S
H2350 C2324 0.930 . S
H2351 C2325 0.931 . S
H2352 C2332 0.932 . S
H2353 C2333 0.930 . S
H2354 C2334 0.929 . S
H2355 C2336 0.930 . S
H2356 C2338 0.932 . S
H2357 C2339 0.929 . S
H2358 C2340 0.928 . S
H2359 C2342 0.932 . S
C2360 C2361 1.264 . S
C2360 C2365 1.479 . S
C2360 C2370 1.465 . S
C2361 C2360 1.264 . S
C2361 C2363 1.339 . S
C2361 H2388 0.931 . S
C2362 C2363 1.395 . S
C2362 C2364 1.320 . S
C2363 C2361 1.339 . S
C2363 C2362 1.395 . S
C2363 H2389 0.929 . S
C2364 C2362 1.320 . S
C2364 C2365 1.405 . S
C2364 H2390 0.930 . S
C2365 C2360 1.479 . S
C2365 C2364 1.405 . S
C2365 H2391 0.931 . S
U2366 O2367 2.454 . S
U2366 O2368 2.458 . S
U2366 C2369 2.984 . S
U2366 C2370 2.847 . S
U2366 C2383 2.882 . S
U2366 O2384 2.441 . S
U2366 O2385 2.420 . S
U2366 O2386 2.455 . S
U2366 O2387 2.449 . S
O2367 U2366 2.454 . S
O2367 C2369 1.353 . S
O2368 U2366 2.458 . S
O2368 C2369 1.286 . S
C2369 U2366 2.984 . S
C2369 O2367 1.353 . S
C2369 O2368 1.286 . S
C2369 C2371 1.363 . S
C2370 C2360 1.465 . S
C2370 U2366 2.847 . S
C2370 O2384 1.249 . S
C2370 O2385 1.202 . S
C2371 C2369 1.363 . S
C2371 C2373 1.408 . S
C2371 C2376 1.342 . S
C2372 C2373 1.310 . S
C2372 C2375 1.461 . S
C2372 H2392 0.932 . S
C2373 C2371 1.408 . S
C2373 C2372 1.310 . S
C2373 H2393 0.930 . S
C2374 C2375 1.474 . S
C2374 C2376 1.285 . S
C2374 H2394 0.929 . S
C2375 C2372 1.461 . S
C2375 C2374 1.474 . S
C2376 C2371 1.342 . S
C2376 C2374 1.285 . S
C2376 H2395 0.930 . S
C2377 C2380 1.424 . S
C2377 C2382 1.245 . S
C2377 C2383 1.428 . S
C2378 C2381 1.260 . S
C2378 C2382 1.477 . S
C2378 H2396 0.932 . S
C2379 C2380 1.384 . S
C2379 C2381 1.479 . S
C2379 H2397 0.929 . S
C2380 C2377 1.424 . S
C2380 C2379 1.384 . S
C2380 H2398 0.928 . S
C2381 C2378 1.260 . S
C2381 C2379 1.479 . S
C2382 C2377 1.245 . S
C2382 C2378 1.477 . S
C2382 H2399 0.932 . S
C2383 U2366 2.882 . S
C2383 C2377 1.428 . S
C2383 O2386 1.301 . S
C2383 O2387 1.282 . S
O2384 U2366 2.441 . S
O2384 C2370 1.249 . S
O2385 U2366 2.420 . S
O2385 C2370 1.202 . S
O2386 U2366 2.455 . S
O2386 C2383 1.301 . S
O2387 U2366 2.449 . S
O2387 C2383 1.282 . S
H2388 C2361 0.931 . S
H2389 C2363 0.929 . S
H2390 C2364 0.930 . S
H2391 C2365 0.931 . S
H2392 C2372 0.932 . S
H2393 C2373 0.930 . S
H2394 C2374 0.929 . S
H2395 C2376 0.930 . S
H2396 C2378 0.932 . S
H2397 C2379 0.929 . S
H2398 C2380 0.928 . S
H2399 C2382 0.932 . S
C2400 C2401 1.264 . S
C2400 C2405 1.479 . S
C2400 C2410 1.465 . S
C2401 C2400 1.264 . S
C2401 C2403 1.339 . S
C2401 H2428 0.931 . S
C2402 C2403 1.395 . S
C2402 C2404 1.320 . S
C2403 C2401 1.339 . S
C2403 C2402 1.395 . S
C2403 H2429 0.929 . S
C2404 C2402 1.320 . S
C2404 C2405 1.405 . S
C2404 H2430 0.930 . S
C2405 C2400 1.479 . S
C2405 C2404 1.405 . S
C2405 H2431 0.931 . S
U2406 O2407 2.454 . S
U2406 O2408 2.458 . S
U2406 C2409 2.984 . S
U2406 C2410 2.847 . S
U2406 C2423 2.882 . S
U2406 O2424 2.441 . S
U2406 O2425 2.420 . S
U2406 O2426 2.455 . S
U2406 O2427 2.449 . S
O2407 U2406 2.454 . S
O2407 C2409 1.353 . S
O2408 U2406 2.458 . S
O2408 C2409 1.286 . S
C2409 U2406 2.984 . S
C2409 O2407 1.353 . S
C2409 O2408 1.286 . S
C2409 C2411 1.363 . S
C2410 C2400 1.465 . S
C2410 U2406 2.847 . S
C2410 O2424 1.249 . S
C2410 O2425 1.202 . S
C2411 C2409 1.363 . S
C2411 C2413 1.408 . S
C2411 C2416 1.342 . S
C2412 C2413 1.310 . S
C2412 C2415 1.461 . S
C2412 H2432 0.932 . S
C2413 C2411 1.408 . S
C2413 C2412 1.310 . S
C2413 H2433 0.930 . S
C2414 C2415 1.474 . S
C2414 C2416 1.285 . S
C2414 H2434 0.929 . S
C2415 C2412 1.461 . S
C2415 C2414 1.474 . S
C2416 C2411 1.342 . S
C2416 C2414 1.285 . S
C2416 H2435 0.930 . S
C2417 C2420 1.424 . S
C2417 C2422 1.245 . S
C2417 C2423 1.428 . S
C2418 C2421 1.260 . S
C2418 C2422 1.477 . S
C2418 H2436 0.932 . S
C2419 C2420 1.384 . S
C2419 C2421 1.479 . S
C2419 H2437 0.929 . S
C2420 C2417 1.424 . S
C2420 C2419 1.384 . S
C2420 H2438 0.928 . S
C2421 C2418 1.260 . S
C2421 C2419 1.479 . S
C2422 C2417 1.245 . S
C2422 C2418 1.477 . S
C2422 H2439 0.932 . S
C2423 U2406 2.882 . S
C2423 C2417 1.428 . S
C2423 O2426 1.301 . S
C2423 O2427 1.282 . S
O2424 U2406 2.441 . S
O2424 C2410 1.249 . S
O2425 U2406 2.420 . S
O2425 C2410 1.202 . S
O2426 U2406 2.455 . S
O2426 C2423 1.301 . S
O2427 U2406 2.449 . S
O2427 C2423 1.282 . S
H2428 C2401 0.931 . S
H2429 C2403 0.929 . S
H2430 C2404 0.930 . S
H2431 C2405 0.931 . S
H2432 C2412 0.932 . S
H2433 C2413 0.930 . S
H2434 C2414 0.929 . S
H2435 C2416 0.930 . S
H2436 C2418 0.932 . S
H2437 C2419 0.929 . S
H2438 C2420 0.928 . S
H2439 C2422 0.932 . S
C2440 C2441 1.264 . S
C2440 C2445 1.479 . S
C2440 C2450 1.465 . S
C2441 C2440 1.264 . S
C2441 C2443 1.339 . S
C2441 H2468 0.931 . S
C2442 C2443 1.395 . S
C2442 C2444 1.320 . S
C2443 C2441 1.339 . S
C2443 C2442 1.395 . S
C2443 H2469 0.929 . S
C2444 C2442 1.320 . S
C2444 C2445 1.405 . S
C2444 H2470 0.930 . S
C2445 C2440 1.479 . S
C2445 C2444 1.405 . S
C2445 H2471 0.931 . S
U2446 O2447 2.454 . S
U2446 O2448 2.458 . S
U2446 C2449 2.984 . S
U2446 C2450 2.847 . S
U2446 C2463 2.882 . S
U2446 O2464 2.441 . S
U2446 O2465 2.420 . S
U2446 O2466 2.455 . S
U2446 O2467 2.449 . S
O2447 U2446 2.454 . S
O2447 C2449 1.353 . S
O2448 U2446 2.458 . S
O2448 C2449 1.286 . S
C2449 U2446 2.984 . S
C2449 O2447 1.353 . S
C2449 O2448 1.286 . S
C2449 C2451 1.363 . S
C2450 C2440 1.465 . S
C2450 U2446 2.847 . S
C2450 O2464 1.249 . S
C2450 O2465 1.202 . S
C2451 C2449 1.363 . S
C2451 C2453 1.408 . S
C2451 C2456 1.342 . S
C2452 C2453 1.310 . S
C2452 C2455 1.461 . S
C2452 H2472 0.932 . S
C2453 C2451 1.408 . S
C2453 C2452 1.310 . S
C2453 H2473 0.930 . S
C2454 C2455 1.474 . S
C2454 C2456 1.285 . S
C2454 H2474 0.929 . S
C2455 C2452 1.461 . S
C2455 C2454 1.474 . S
C2456 C2451 1.342 . S
C2456 C2454 1.285 . S
C2456 H2475 0.930 . S
C2457 C2460 1.424 . S
C2457 C2462 1.245 . S
C2457 C2463 1.428 . S
C2458 C2461 1.260 . S
C2458 C2462 1.477 . S
C2458 H2476 0.932 . S
C2459 C2460 1.384 . S
C2459 C2461 1.479 . S
C2459 H2477 0.929 . S
C2460 C2457 1.424 . S
C2460 C2459 1.384 . S
C2460 H2478 0.928 . S
C2461 C2458 1.260 . S
C2461 C2459 1.479 . S
C2462 C2457 1.245 . S
C2462 C2458 1.477 . S
C2462 H2479 0.932 . S
C2463 U2446 2.882 . S
C2463 C2457 1.428 . S
C2463 O2466 1.301 . S
C2463 O2467 1.282 . S
O2464 U2446 2.441 . S
O2464 C2450 1.249 . S
O2465 U2446 2.420 . S
O2465 C2450 1.202 . S
O2466 U2446 2.455 . S
O2466 C2463 1.301 . S
O2467 U2446 2.449 . S
O2467 C2463 1.282 . S
H2468 C2441 0.931 . S
H2469 C2443 0.929 . S
H2470 C2444 0.930 . S
H2471 C2445 0.931 . S
H2472 C2452 0.932 . S
H2473 C2453 0.930 . S
H2474 C2454 0.929 . S
H2475 C2456 0.930 . S
H2476 C2458 0.932 . S
H2477 C2459 0.929 . S
H2478 C2460 0.928 . S
H2479 C2462 0.932 . S
C2480 C2481 1.264 . S
C2480 C2485 1.479 . S
C2480 C2490 1.465 . S
C2481 C2480 1.264 . S
C2481 C2483 1.339 . S
C2481 H2508 0.931 . S
C2482 C2483 1.395 . S
C2482 C2484 1.320 . S
C2483 C2481 1.339 . S
C2483 C2482 1.395 . S
C2483 H2509 0.929 . S
C2484 C2482 1.320 . S
C2484 C2485 1.405 . S
C2484 H2510 0.930 . S
C2485 C2480 1.479 . S
C2485 C2484 1.405 . S
C2485 H2511 0.931 . S
U2486 O2487 2.454 . S
U2486 O2488 2.458 . S
U2486 C2489 2.984 . S
U2486 C2490 2.847 . S
U2486 C2503 2.882 . S
U2486 O2504 2.441 . S
U2486 O2505 2.420 . S
U2486 O2506 2.455 . S
U2486 O2507 2.449 . S
O2487 U2486 2.454 . S
O2487 C2489 1.353 . S
O2488 U2486 2.458 . S
O2488 C2489 1.286 . S
C2489 U2486 2.984 . S
C2489 O2487 1.353 . S
C2489 O2488 1.286 . S
C2489 C2491 1.363 . S
C2490 C2480 1.465 . S
C2490 U2486 2.847 . S
C2490 O2504 1.249 . S
C2490 O2505 1.202 . S
C2491 C2489 1.363 . S
C2491 C2493 1.408 . S
C2491 C2496 1.342 . S
C2492 C2493 1.310 . S
C2492 C2495 1.461 . S
C2492 H2512 0.932 . S
C2493 C2491 1.408 . S
C2493 C2492 1.310 . S
C2493 H2513 0.930 . S
C2494 C2495 1.474 . S
C2494 C2496 1.285 . S
C2494 H2514 0.929 . S
C2495 C2492 1.461 . S
C2495 C2494 1.474 . S
C2496 C2491 1.342 . S
C2496 C2494 1.285 . S
C2496 H2515 0.930 . S
C2497 C2500 1.424 . S
C2497 C2502 1.245 . S
C2497 C2503 1.428 . S
C2498 C2501 1.260 . S
C2498 C2502 1.477 . S
C2498 H2516 0.932 . S
C2499 C2500 1.384 . S
C2499 C2501 1.479 . S
C2499 H2517 0.929 . S
C2500 C2497 1.424 . S
C2500 C2499 1.384 . S
C2500 H2518 0.928 . S
C2501 C2498 1.260 . S
C2501 C2499 1.479 . S
C2502 C2497 1.245 . S
C2502 C2498 1.477 . S
C2502 H2519 0.932 . S
C2503 U2486 2.882 . S
C2503 C2497 1.428 . S
C2503 O2506 1.301 . S
C2503 O2507 1.282 . S
O2504 U2486 2.441 . S
O2504 C2490 1.249 . S
O2505 U2486 2.420 . S
O2505 C2490 1.202 . S
O2506 U2486 2.455 . S
O2506 C2503 1.301 . S
O2507 U2486 2.449 . S
O2507 C2503 1.282 . S
H2508 C2481 0.931 . S
H2509 C2483 0.929 . S
H2510 C2484 0.930 . S
H2511 C2485 0.931 . S
H2512 C2492 0.932 . S
H2513 C2493 0.930 . S
H2514 C2494 0.929 . S
H2515 C2496 0.930 . S
H2516 C2498 0.932 . S
H2517 C2499 0.929 . S
H2518 C2500 0.928 . S
H2519 C2502 0.932 . S
C2520 C2521 1.264 . S
C2520 C2525 1.479 . S
C2520 C2530 1.465 . S
C2521 C2520 1.264 . S
C2521 C2523 1.339 . S
C2521 H2548 0.931 . S
C2522 C2523 1.395 . S
C2522 C2524 1.320 . S
C2523 C2521 1.339 . S
C2523 C2522 1.395 . S
C2523 H2549 0.929 . S
C2524 C2522 1.320 . S
C2524 C2525 1.405 . S
C2524 H2550 0.930 . S
C2525 C2520 1.479 . S
C2525 C2524 1.405 . S
C2525 H2551 0.931 . S
U2526 O2527 2.454 . S
U2526 O2528 2.458 . S
U2526 C2529 2.984 . S
U2526 C2530 2.847 . S
U2526 C2543 2.882 . S
U2526 O2544 2.441 . S
U2526 O2545 2.420 . S
U2526 O2546 2.455 . S
U2526 O2547 2.449 . S
O2527 U2526 2.454 . S
O2527 C2529 1.353 . S
O2528 U2526 2.458 . S
O2528 C2529 1.286 . S
C2529 U2526 2.984 . S
C2529 O2527 1.353 . S
C2529 O2528 1.286 . S
C2529 C2531 1.363 . S
C2530 C2520 1.465 . S
C2530 U2526 2.847 . S
C2530 O2544 1.249 . S
C2530 O2545 1.202 . S
C2531 C2529 1.363 . S
C2531 C2533 1.408 . S
C2531 C2536 1.342 . S
C2532 C2533 1.310 . S
C2532 C2535 1.461 . S
C2532 H2552 0.932 . S
C2533 C2531 1.408 . S
C2533 C2532 1.310 . S
C2533 H2553 0.930 . S
C2534 C2535 1.474 . S
C2534 C2536 1.285 . S
C2534 H2554 0.929 . S
C2535 C2532 1.461 . S
C2535 C2534 1.474 . S
C2536 C2531 1.342 . S
C2536 C2534 1.285 . S
C2536 H2555 0.930 . S
C2537 C2540 1.424 . S
C2537 C2542 1.245 . S
C2537 C2543 1.428 . S
C2538 C2541 1.260 . S
C2538 C2542 1.477 . S
C2538 H2556 0.932 . S
C2539 C2540 1.384 . S
C2539 C2541 1.479 . S
C2539 H2557 0.929 . S
C2540 C2537 1.424 . S
C2540 C2539 1.384 . S
C2540 H2558 0.928 . S
C2541 C2538 1.260 . S
C2541 C2539 1.479 . S
C2542 C2537 1.245 . S
C2542 C2538 1.477 . S
C2542 H2559 0.932 . S
C2543 U2526 2.882 . S
C2543 C2537 1.428 . S
C2543 O2546 1.301 . S
C2543 O2547 1.282 . S
O2544 U2526 2.441 . S
O2544 C2530 1.249 . S
O2545 U2526 2.420 . S
O2545 C2530 1.202 . S
O2546 U2526 2.455 . S
O2546 C2543 1.301 . S
O2547 U2526 2.449 . S
O2547 C2543 1.282 . S
H2548 C2521 0.931 . S
H2549 C2523 0.929 . S
H2550 C2524 0.930 . S
H2551 C2525 0.931 . S
H2552 C2532 0.932 . S
H2553 C2533 0.930 . S
H2554 C2534 0.929 . S
H2555 C2536 0.930 . S
H2556 C2538 0.932 . S
H2557 C2539 0.929 . S
H2558 C2540 0.928 . S
H2559 C2542 0.932 . S
C2560 C2561 1.264 . S
C2560 C2565 1.479 . S
C2560 C2570 1.465 . S
C2561 C2560 1.264 . S
C2561 C2563 1.339 . S
C2561 H2588 0.931 . S
C2562 C2563 1.395 . S
C2562 C2564 1.320 . S
C2563 C2561 1.339 . S
C2563 C2562 1.395 . S
C2563 H2589 0.929 . S
C2564 C2562 1.320 . S
C2564 C2565 1.405 . S
C2564 H2590 0.930 . S
C2565 C2560 1.479 . S
C2565 C2564 1.405 . S
C2565 H2591 0.931 . S
U2566 O2567 2.454 . S
U2566 O2568 2.458 . S
U2566 C2569 2.984 . S
U2566 C2570 2.847 . S
U2566 C2583 2.882 . S
U2566 O2584 2.441 . S
U2566 O2585 2.420 . S
U2566 O2586 2.455 . S
U2566 O2587 2.449 . S
O2567 U2566 2.454 . S
O2567 C2569 1.353 . S
O2568 U2566 2.458 . S
O2568 C2569 1.286 . S
C2569 U2566 2.984 . S
C2569 O2567 1.353 . S
C2569 O2568 1.286 . S
C2569 C2571 1.363 . S
C2570 C2560 1.465 . S
C2570 U2566 2.847 . S
C2570 O2584 1.249 . S
C2570 O2585 1.202 . S
C2571 C2569 1.363 . S
C2571 C2573 1.408 . S
C2571 C2576 1.342 . S
C2572 C2573 1.310 . S
C2572 C2575 1.461 . S
C2572 H2592 0.932 . S
C2573 C2571 1.408 . S
C2573 C2572 1.310 . S
C2573 H2593 0.930 . S
C2574 C2575 1.474 . S
C2574 C2576 1.285 . S
C2574 H2594 0.929 . S
C2575 C2572 1.461 . S
C2575 C2574 1.474 . S
C2576 C2571 1.342 . S
C2576 C2574 1.285 . S
C2576 H2595 0.930 . S
C2577 C2580 1.424 . S
C2577 C2582 1.245 . S
C2577 C2583 1.428 . S
C2578 C2581 1.260 . S
C2578 C2582 1.477 . S
C2578 H2596 0.932 . S
C2579 C2580 1.384 . S
C2579 C2581 1.479 . S
C2579 H2597 0.929 . S
C2580 C2577 1.424 . S
C2580 C2579 1.384 . S
C2580 H2598 0.928 . S
C2581 C2578 1.260 . S
C2581 C2579 1.479 . S
C2582 C2577 1.245 . S
C2582 C2578 1.477 . S
C2582 H2599 0.932 . S
C2583 U2566 2.882 . S
C2583 C2577 1.428 . S
C2583 O2586 1.301 . S
C2583 O2587 1.282 . S
O2584 U2566 2.441 . S
O2584 C2570 1.249 . S
O2585 U2566 2.420 . S
O2585 C2570 1.202 . S
O2586 U2566 2.455 . S
O2586 C2583 1.301 . S
O2587 U2566 2.449 . S
O2587 C2583 1.282 . S
H2588 C2561 0.931 . S
H2589 C2563 0.929 . S
H2590 C2564 0.930 . S
H2591 C2565 0.931 . S
H2592 C2572 0.932 . S
H2593 C2573 0.930 . S
H2594 C2574 0.929 . S
H2595 C2576 0.930 . S
H2596 C2578 0.932 . S
H2597 C2579 0.929 . S
H2598 C2580 0.928 . S
H2599 C2582 0.932 . S
C2600 C2601 1.264 . S
C2600 C2605 1.479 . S
C2600 C2610 1.465 . S
C2601 C2600 1.264 . S
C2601 C2603 1.339 . S
C2601 H2628 0.931 . S
C2602 C2603 1.395 . S
C2602 C2604 1.320 . S
C2603 C2601 1.339 . S
C2603 C2602 1.395 . S
C2603 H2629 0.929 . S
C2604 C2602 1.320 . S
C2604 C2605 1.405 . S
C2604 H2630 0.930 . S
C2605 C2600 1.479 . S
C2605 C2604 1.405 . S
C2605 H2631 0.931 . S
U2606 O2607 2.454 . S
U2606 O2608 2.458 . S
U2606 C2609 2.984 . S
U2606 C2610 2.847 . S
U2606 C2623 2.882 . S
U2606 O2624 2.441 . S
U2606 O2625 2.420 . S
U2606 O2626 2.455 . S
U2606 O2627 2.449 . S
O2607 U2606 2.454 . S
O2607 C2609 1.353 . S
O2608 U2606 2.458 . S
O2608 C2609 1.286 . S
C2609 U2606 2.984 . S
C2609 O2607 1.353 . S
C2609 O2608 1.286 . S
C2609 C2611 1.363 . S
C2610 C2600 1.465 . S
C2610 U2606 2.847 . S
C2610 O2624 1.249 . S
C2610 O2625 1.202 . S
C2611 C2609 1.363 . S
C2611 C2613 1.408 . S
C2611 C2616 1.342 . S
C2612 C2613 1.310 . S
C2612 C2615 1.461 . S
C2612 H2632 0.932 . S
C2613 C2611 1.408 . S
C2613 C2612 1.310 . S
C2613 H2633 0.930 . S
C2614 C2615 1.474 . S
C2614 C2616 1.285 . S
C2614 H2634 0.929 . S
C2615 C2612 1.461 . S
C2615 C2614 1.474 . S
C2616 C2611 1.342 . S
C2616 C2614 1.285 . S
C2616 H2635 0.930 . S
C2617 C2620 1.424 . S
C2617 C2622 1.245 . S
C2617 C2623 1.428 . S
C2618 C2621 1.260 . S
C2618 C2622 1.477 . S
C2618 H2636 0.932 . S
C2619 C2620 1.384 . S
C2619 C2621 1.479 . S
C2619 H2637 0.929 . S
C2620 C2617 1.424 . S
C2620 C2619 1.384 . S
C2620 H2638 0.928 . S
C2621 C2618 1.260 . S
C2621 C2619 1.479 . S
C2622 C2617 1.245 . S
C2622 C2618 1.477 . S
C2622 H2639 0.932 . S
C2623 U2606 2.882 . S
C2623 C2617 1.428 . S
C2623 O2626 1.301 . S
C2623 O2627 1.282 . S
O2624 U2606 2.441 . S
O2624 C2610 1.249 . S
O2625 U2606 2.420 . S
O2625 C2610 1.202 . S
O2626 U2606 2.455 . S
O2626 C2623 1.301 . S
O2627 U2606 2.449 . S
O2627 C2623 1.282 . S
H2628 C2601 0.931 . S
H2629 C2603 0.929 . S
H2630 C2604 0.930 . S
H2631 C2605 0.931 . S
H2632 C2612 0.932 . S
H2633 C2613 0.930 . S
H2634 C2614 0.929 . S
H2635 C2616 0.930 . S
H2636 C2618 0.932 . S
H2637 C2619 0.929 . S
H2638 C2620 0.928 . S
H2639 C2622 0.932 . S
C2640 C2641 1.264 . S
C2640 C2645 1.479 . S
C2640 C2650 1.465 . S
C2641 C2640 1.264 . S
C2641 C2643 1.339 . S
C2641 H2668 0.931 . S
C2642 C2643 1.395 . S
C2642 C2644 1.320 . S
C2643 C2641 1.339 . S
C2643 C2642 1.395 . S
C2643 H2669 0.929 . S
C2644 C2642 1.320 . S
C2644 C2645 1.405 . S
C2644 H2670 0.930 . S
C2645 C2640 1.479 . S
C2645 C2644 1.405 . S
C2645 H2671 0.931 . S
U2646 O2647 2.454 . S
U2646 O2648 2.458 . S
U2646 C2649 2.984 . S
U2646 C2650 2.847 . S
U2646 C2663 2.882 . S
U2646 O2664 2.441 . S
U2646 O2665 2.420 . S
U2646 O2666 2.455 . S
U2646 O2667 2.449 . S
O2647 U2646 2.454 . S
O2647 C2649 1.353 . S
O2648 U2646 2.458 . S
O2648 C2649 1.286 . S
C2649 U2646 2.984 . S
C2649 O2647 1.353 . S
C2649 O2648 1.286 . S
C2649 C2651 1.363 . S
C2650 C2640 1.465 . S
C2650 U2646 2.847 . S
C2650 O2664 1.249 . S
C2650 O2665 1.202 . S
C2651 C2649 1.363 . S
C2651 C2653 1.408 . S
C2651 C2656 1.342 . S
C2652 C2653 1.310 . S
C2652 C2655 1.461 . S
C2652 H2672 0.932 . S
C2653 C2651 1.408 . S
C2653 C2652 1.310 . S
C2653 H2673 0.930 . S
C2654 C2655 1.474 . S
C2654 C2656 1.285 . S
C2654 H2674 0.929 . S
C2655 C2652 1.461 . S
C2655 C2654 1.474 . S
C2656 C2651 1.342 . S
C2656 C2654 1.285 . S
C2656 H2675 0.930 . S
C2657 C2660 1.424 . S
C2657 C2662 1.245 . S
C2657 C2663 1.428 . S
C2658 C2661 1.260 . S
C2658 C2662 1.477 . S
C2658 H2676 0.932 . S
C2659 C2660 1.384 . S
C2659 C2661 1.479 . S
C2659 H2677 0.929 . S
C2660 C2657 1.424 . S
C2660 C2659 1.384 . S
C2660 H2678 0.928 . S
C2661 C2658 1.260 . S
C2661 C2659 1.479 . S
C2662 C2657 1.245 . S
C2662 C2658 1.477 . S
C2662 H2679 0.932 . S
C2663 U2646 2.882 . S
C2663 C2657 1.428 . S
C2663 O2666 1.301 . S
C2663 O2667 1.282 . S
O2664 U2646 2.441 . S
O2664 C2650 1.249 . S
O2665 U2646 2.420 . S
O2665 C2650 1.202 . S
O2666 U2646 2.455 . S
O2666 C2663 1.301 . S
O2667 U2646 2.449 . S
O2667 C2663 1.282 . S
H2668 C2641 0.931 . S
H2669 C2643 0.929 . S
H2670 C2644 0.930 . S
H2671 C2645 0.931 . S
H2672 C2652 0.932 . S
H2673 C2653 0.930 . S
H2674 C2654 0.929 . S
H2675 C2656 0.930 . S
H2676 C2658 0.932 . S
H2677 C2659 0.929 . S
H2678 C2660 0.928 . S
H2679 C2662 0.932 . S
C2680 C2681 1.264 . S
C2680 C2685 1.479 . S
C2680 C2690 1.465 . S
C2681 C2680 1.264 . S
C2681 C2683 1.339 . S
C2681 H2708 0.931 . S
C2682 C2683 1.395 . S
C2682 C2684 1.320 . S
C2683 C2681 1.339 . S
C2683 C2682 1.395 . S
C2683 H2709 0.929 . S
C2684 C2682 1.320 . S
C2684 C2685 1.405 . S
C2684 H2710 0.930 . S
C2685 C2680 1.479 . S
C2685 C2684 1.405 . S
C2685 H2711 0.931 . S
U2686 O2687 2.454 . S
U2686 O2688 2.458 . S
U2686 C2689 2.984 . S
U2686 C2690 2.847 . S
U2686 C2703 2.882 . S
U2686 O2704 2.441 . S
U2686 O2705 2.420 . S
U2686 O2706 2.455 . S
U2686 O2707 2.449 . S
O2687 U2686 2.454 . S
O2687 C2689 1.353 . S
O2688 U2686 2.458 . S
O2688 C2689 1.286 . S
C2689 U2686 2.984 . S
C2689 O2687 1.353 . S
C2689 O2688 1.286 . S
C2689 C2691 1.363 . S
C2690 C2680 1.465 . S
C2690 U2686 2.847 . S
C2690 O2704 1.249 . S
C2690 O2705 1.202 . S
C2691 C2689 1.363 . S
C2691 C2693 1.408 . S
C2691 C2696 1.342 . S
C2692 C2693 1.310 . S
C2692 C2695 1.461 . S
C2692 H2712 0.932 . S
C2693 C2691 1.408 . S
C2693 C2692 1.310 . S
C2693 H2713 0.930 . S
C2694 C2695 1.474 . S
C2694 C2696 1.285 . S
C2694 H2714 0.929 . S
C2695 C2692 1.461 . S
C2695 C2694 1.474 . S
C2696 C2691 1.342 . S
C2696 C2694 1.285 . S
C2696 H2715 0.930 . S
C2697 C2700 1.424 . S
C2697 C2702 1.245 . S
C2697 C2703 1.428 . S
C2698 C2701 1.260 . S
C2698 C2702 1.477 . S
C2698 H2716 0.932 . S
C2699 C2700 1.384 . S
C2699 C2701 1.479 . S
C2699 H2717 0.929 . S
C2700 C2697 1.424 . S
C2700 C2699 1.384 . S
C2700 H2718 0.928 . S
C2701 C2698 1.260 . S
C2701 C2699 1.479 . S
C2702 C2697 1.245 . S
C2702 C2698 1.477 . S
C2702 H2719 0.932 . S
C2703 U2686 2.882 . S
C2703 C2697 1.428 . S
C2703 O2706 1.301 . S
C2703 O2707 1.282 . S
O2704 U2686 2.441 . S
O2704 C2690 1.249 . S
O2705 U2686 2.420 . S
O2705 C2690 1.202 . S
O2706 U2686 2.455 . S
O2706 C2703 1.301 . S
O2707 U2686 2.449 . S
O2707 C2703 1.282 . S
H2708 C2681 0.931 . S
H2709 C2683 0.929 . S
H2710 C2684 0.930 . S
H2711 C2685 0.931 . S
H2712 C2692 0.932 . S
H2713 C2693 0.930 . S
H2714 C2694 0.929 . S
H2715 C2696 0.930 . S
H2716 C2698 0.932 . S
H2717 C2699 0.929 . S
H2718 C2700 0.928 . S
H2719 C2702 0.932 . S
C2720 C2721 1.264 . S
C2720 C2725 1.479 . S
C2720 C2730 1.465 . S
C2721 C2720 1.264 . S
C2721 C2723 1.339 . S
C2721 H2748 0.931 . S
C2722 C2723 1.395 . S
C2722 C2724 1.320 . S
C2723 C2721 1.339 . S
C2723 C2722 1.395 . S
C2723 H2749 0.929 . S
C2724 C2722 1.320 . S
C2724 C2725 1.405 . S
C2724 H2750 0.930 . S
C2725 C2720 1.479 . S
C2725 C2724 1.405 . S
C2725 H2751 0.931 . S
U2726 O2727 2.454 . S
U2726 O2728 2.458 . S
U2726 C2729 2.984 . S
U2726 C2730 2.847 . S
U2726 C2743 2.882 . S
U2726 O2744 2.441 . S
U2726 O2745 2.420 . S
U2726 O2746 2.455 . S
U2726 O2747 2.449 . S
O2727 U2726 2.454 . S
O2727 C2729 1.353 . S
O2728 U2726 2.458 . S
O2728 C2729 1.286 . S
C2729 U2726 2.984 . S
C2729 O2727 1.353 . S
C2729 O2728 1.286 . S
C2729 C2731 1.363 . S
C2730 C2720 1.465 . S
C2730 U2726 2.847 . S
C2730 O2744 1.249 . S
C2730 O2745 1.202 . S
C2731 C2729 1.363 . S
C2731 C2733 1.408 . S
C2731 C2736 1.342 . S
C2732 C2733 1.310 . S
C2732 C2735 1.461 . S
C2732 H2752 0.932 . S
C2733 C2731 1.408 . S
C2733 C2732 1.310 . S
C2733 H2753 0.930 . S
C2734 C2735 1.474 . S
C2734 C2736 1.285 . S
C2734 H2754 0.929 . S
C2735 C2732 1.461 . S
C2735 C2734 1.474 . S
C2736 C2731 1.342 . S
C2736 C2734 1.285 . S
C2736 H2755 0.930 . S
C2737 C2740 1.424 . S
C2737 C2742 1.245 . S
C2737 C2743 1.428 . S
C2738 C2741 1.260 . S
C2738 C2742 1.477 . S
C2738 H2756 0.932 . S
C2739 C2740 1.384 . S
C2739 C2741 1.479 . S
C2739 H2757 0.929 . S
C2740 C2737 1.424 . S
C2740 C2739 1.384 . S
C2740 H2758 0.928 . S
C2741 C2738 1.260 . S
C2741 C2739 1.479 . S
C2742 C2737 1.245 . S
C2742 C2738 1.477 . S
C2742 H2759 0.932 . S
C2743 U2726 2.882 . S
C2743 C2737 1.428 . S
C2743 O2746 1.301 . S
C2743 O2747 1.282 . S
O2744 U2726 2.441 . S
O2744 C2730 1.249 . S
O2745 U2726 2.420 . S
O2745 C2730 1.202 . S
O2746 U2726 2.455 . S
O2746 C2743 1.301 . S
O2747 U2726 2.449 . S
O2747 C2743 1.282 . S
H2748 C2721 0.931 . S
H2749 C2723 0.929 . S
H2750 C2724 0.930 . S
H2751 C2725 0.931 . S
H2752 C2732 0.932 . S
H2753 C2733 0.930 . S
H2754 C2734 0.929 . S
H2755 C2736 0.930 . S
H2756 C2738 0.932 . S
H2757 C2739 0.929 . S
H2758 C2740 0.928 . S
H2759 C2742 0.932 . S
C2760 C2761 1.264 . S
C2760 C2765 1.479 . S
C2760 C2770 1.465 . S
C2761 C2760 1.264 . S
C2761 C2763 1.339 . S
C2761 H2788 0.931 . S
C2762 C2763 1.395 . S
C2762 C2764 1.320 . S
C2763 C2761 1.339 . S
C2763 C2762 1.395 . S
C2763 H2789 0.929 . S
C2764 C2762 1.320 . S
C2764 C2765 1.405 . S
C2764 H2790 0.930 . S
C2765 C2760 1.479 . S
C2765 C2764 1.405 . S
C2765 H2791 0.931 . S
U2766 O2767 2.454 . S
U2766 O2768 2.458 . S
U2766 C2769 2.984 . S
U2766 C2770 2.847 . S
U2766 C2783 2.882 . S
U2766 O2784 2.441 . S
U2766 O2785 2.420 . S
U2766 O2786 2.455 . S
U2766 O2787 2.449 . S
O2767 U2766 2.454 . S
O2767 C2769 1.353 . S
O2768 U2766 2.458 . S
O2768 C2769 1.286 . S
C2769 U2766 2.984 . S
C2769 O2767 1.353 . S
C2769 O2768 1.286 . S
C2769 C2771 1.363 . S
C2770 C2760 1.465 . S
C2770 U2766 2.847 . S
C2770 O2784 1.249 . S
C2770 O2785 1.202 . S
C2771 C2769 1.363 . S
C2771 C2773 1.408 . S
C2771 C2776 1.342 . S
C2772 C2773 1.310 . S
C2772 C2775 1.461 . S
C2772 H2792 0.932 . S
C2773 C2771 1.408 . S
C2773 C2772 1.310 . S
C2773 H2793 0.930 . S
C2774 C2775 1.474 . S
C2774 C2776 1.285 . S
C2774 H2794 0.929 . S
C2775 C2772 1.461 . S
C2775 C2774 1.474 . S
C2776 C2771 1.342 . S
C2776 C2774 1.285 . S
C2776 H2795 0.930 . S
C2777 C2780 1.424 . S
C2777 C2782 1.245 . S
C2777 C2783 1.428 . S
C2778 C2781 1.260 . S
C2778 C2782 1.477 . S
C2778 H2796 0.932 . S
C2779 C2780 1.384 . S
C2779 C2781 1.479 . S
C2779 H2797 0.929 . S
C2780 C2777 1.424 . S
C2780 C2779 1.384 . S
C2780 H2798 0.928 . S
C2781 C2778 1.260 . S
C2781 C2779 1.479 . S
C2782 C2777 1.245 . S
C2782 C2778 1.477 . S
C2782 H2799 0.932 . S
C2783 U2766 2.882 . S
C2783 C2777 1.428 . S
C2783 O2786 1.301 . S
C2783 O2787 1.282 . S
O2784 U2766 2.441 . S
O2784 C2770 1.249 . S
O2785 U2766 2.420 . S
O2785 C2770 1.202 . S
O2786 U2766 2.455 . S
O2786 C2783 1.301 . S
O2787 U2766 2.449 . S
O2787 C2783 1.282 . S
H2788 C2761 0.931 . S
H2789 C2763 0.929 . S
H2790 C2764 0.930 . S
H2791 C2765 0.931 . S
H2792 C2772 0.932 . S
H2793 C2773 0.930 . S
H2794 C2774 0.929 . S
H2795 C2776 0.930 . S
H2796 C2778 0.932 . S
H2797 C2779 0.929 . S
H2798 C2780 0.928 . S
H2799 C2782 0.932 . S
C2800 C2801 1.264 . S
C2800 C2805 1.479 . S
C2800 C2810 1.465 . S
C2801 C2800 1.264 . S
C2801 C2803 1.339 . S
C2801 H2828 0.931 . S
C2802 C2803 1.395 . S
C2802 C2804 1.320 . S
C2803 C2801 1.339 . S
C2803 C2802 1.395 . S
C2803 H2829 0.929 . S
C2804 C2802 1.320 . S
C2804 C2805 1.405 . S
C2804 H2830 0.930 . S
C2805 C2800 1.479 . S
C2805 C2804 1.405 . S
C2805 H2831 0.931 . S
U2806 O2807 2.454 . S
U2806 O2808 2.458 . S
U2806 C2809 2.984 . S
U2806 C2810 2.847 . S
U2806 C2823 2.882 . S
U2806 O2824 2.441 . S
U2806 O2825 2.420 . S
U2806 O2826 2.455 . S
U2806 O2827 2.449 . S
O2807 U2806 2.454 . S
O2807 C2809 1.353 . S
O2808 U2806 2.458 . S
O2808 C2809 1.286 . S
C2809 U2806 2.984 . S
C2809 O2807 1.353 . S
C2809 O2808 1.286 . S
C2809 C2811 1.363 . S
C2810 C2800 1.465 . S
C2810 U2806 2.847 . S
C2810 O2824 1.249 . S
C2810 O2825 1.202 . S
C2811 C2809 1.363 . S
C2811 C2813 1.408 . S
C2811 C2816 1.342 . S
C2812 C2813 1.310 . S
C2812 C2815 1.461 . S
C2812 H2832 0.932 . S
C2813 C2811 1.408 . S
C2813 C2812 1.310 . S
C2813 H2833 0.930 . S
C2814 C2815 1.474 . S
C2814 C2816 1.285 . S
C2814 H2834 0.929 . S
C2815 C2812 1.461 . S
C2815 C2814 1.474 . S
C2816 C2811 1.342 . S
C2816 C2814 1.285 . S
C2816 H2835 0.930 . S
C2817 C2820 1.424 . S
C2817 C2822 1.245 . S
C2817 C2823 1.428 . S
C2818 C2821 1.260 . S
C2818 C2822 1.477 . S
C2818 H2836 0.932 . S
C2819 C2820 1.384 . S
C2819 C2821 1.479 . S
C2819 H2837 0.929 . S
C2820 C2817 1.424 . S
C2820 C2819 1.384 . S
C2820 H2838 0.928 . S
C2821 C2818 1.260 . S
C2821 C2819 1.479 . S
C2822 C2817 1.245 . S
C2822 C2818 1.477 . S
C2822 H2839 0.932 . S
C2823 U2806 2.882 . S
C2823 C2817 1.428 . S
C2823 O2826 1.301 . S
C2823 O2827 1.282 . S
O2824 U2806 2.441 . S
O2824 C2810 1.249 . S
O2825 U2806 2.420 . S
O2825 C2810 1.202 . S
O2826 U2806 2.455 . S
O2826 C2823 1.301 . S
O2827 U2806 2.449 . S
O2827 C2823 1.282 . S
H2828 C2801 0.931 . S
H2829 C2803 0.929 . S
H2830 C2804 0.930 . S
H2831 C2805 0.931 . S
H2832 C2812 0.932 . S
H2833 C2813 0.930 . S
H2834 C2814 0.929 . S
H2835 C2816 0.930 . S
H2836 C2818 0.932 . S
H2837 C2819 0.929 . S
H2838 C2820 0.928 . S
H2839 C2822 0.932 . S
C2840 C2841 1.264 . S
C2840 C2845 1.479 . S
C2840 C2850 1.465 . S
C2841 C2840 1.264 . S
C2841 C2843 1.339 . S
C2841 H2868 0.931 . S
C2842 C2843 1.395 . S
C2842 C2844 1.320 . S
C2843 C2841 1.339 . S
C2843 C2842 1.395 . S
C2843 H2869 0.929 . S
C2844 C2842 1.320 . S
C2844 C2845 1.405 . S
C2844 H2870 0.930 . S
C2845 C2840 1.479 . S
C2845 C2844 1.405 . S
C2845 H2871 0.931 . S
U2846 O2847 2.454 . S
U2846 O2848 2.458 . S
U2846 C2849 2.984 . S
U2846 C2850 2.847 . S
U2846 C2863 2.882 . S
U2846 O2864 2.441 . S
U2846 O2865 2.420 . S
U2846 O2866 2.455 . S
U2846 O2867 2.449 . S
O2847 U2846 2.454 . S
O2847 C2849 1.353 . S
O2848 U2846 2.458 . S
O2848 C2849 1.286 . S
C2849 U2846 2.984 . S
C2849 O2847 1.353 . S
C2849 O2848 1.286 . S
C2849 C2851 1.363 . S
C2850 C2840 1.465 . S
C2850 U2846 2.847 . S
C2850 O2864 1.249 . S
C2850 O2865 1.202 . S
C2851 C2849 1.363 . S
C2851 C2853 1.408 . S
C2851 C2856 1.342 . S
C2852 C2853 1.310 . S
C2852 C2855 1.461 . S
C2852 H2872 0.932 . S
C2853 C2851 1.408 . S
C2853 C2852 1.310 . S
C2853 H2873 0.930 . S
C2854 C2855 1.474 . S
C2854 C2856 1.285 . S
C2854 H2874 0.929 . S
C2855 C2852 1.461 . S
C2855 C2854 1.474 . S
C2856 C2851 1.342 . S
C2856 C2854 1.285 . S
C2856 H2875 0.930 . S
C2857 C2860 1.424 . S
C2857 C2862 1.245 . S
C2857 C2863 1.428 . S
C2858 C2861 1.260 . S
C2858 C2862 1.477 . S
C2858 H2876 0.932 . S
C2859 C2860 1.384 . S
C2859 C2861 1.479 . S
C2859 H2877 0.929 . S
C2860 C2857 1.424 . S
C2860 C2859 1.384 . S
C2860 H2878 0.928 . S
C2861 C2858 1.260 . S
C2861 C2859 1.479 . S
C2862 C2857 1.245 . S
C2862 C2858 1.477 . S
C2862 H2879 0.932 . S
C2863 U2846 2.882 . S
C2863 C2857 1.428 . S
C2863 O2866 1.301 . S
C2863 O2867 1.282 . S
O2864 U2846 2.441 . S
O2864 C2850 1.249 . S
O2865 U2846 2.420 . S
O2865 C2850 1.202 . S
O2866 U2846 2.455 . S
O2866 C2863 1.301 . S
O2867 U2846 2.449 . S
O2867 C2863 1.282 . S
H2868 C2841 0.931 . S
H2869 C2843 0.929 . S
H2870 C2844 0.930 . S
H2871 C2845 0.931 . S
H2872 C2852 0.932 . S
H2873 C2853 0.930 . S
H2874 C2854 0.929 . S
H2875 C2856 0.930 . S
H2876 C2858 0.932 . S
H2877 C2859 0.929 . S
H2878 C2860 0.928 . S
H2879 C2862 0.932 . S
C2880 C2881 1.264 . S
C2880 C2885 1.479 . S
C2880 C2890 1.465 . S
C2881 C2880 1.264 . S
C2881 C2883 1.339 . S
C2881 H2908 0.931 . S
C2882 C2883 1.395 . S
C2882 C2884 1.320 . S
C2883 C2881 1.339 . S
C2883 C2882 1.395 . S
C2883 H2909 0.929 . S
C2884 C2882 1.320 . S
C2884 C2885 1.405 . S
C2884 H2910 0.930 . S
C2885 C2880 1.479 . S
C2885 C2884 1.405 . S
C2885 H2911 0.931 . S
U2886 O2887 2.454 . S
U2886 O2888 2.458 . S
U2886 C2889 2.984 . S
U2886 C2890 2.847 . S
U2886 C2903 2.882 . S
U2886 O2904 2.441 . S
U2886 O2905 2.420 . S
U2886 O2906 2.455 . S
U2886 O2907 2.449 . S
O2887 U2886 2.454 . S
O2887 C2889 1.353 . S
O2888 U2886 2.458 . S
O2888 C2889 1.286 . S
C2889 U2886 2.984 . S
C2889 O2887 1.353 . S
C2889 O2888 1.286 . S
C2889 C2891 1.363 . S
C2890 C2880 1.465 . S
C2890 U2886 2.847 . S
C2890 O2904 1.249 . S
C2890 O2905 1.202 . S
C2891 C2889 1.363 . S
C2891 C2893 1.408 . S
C2891 C2896 1.342 . S
C2892 C2893 1.310 . S
C2892 C2895 1.461 . S
C2892 H2912 0.932 . S
C2893 C2891 1.408 . S
C2893 C2892 1.310 . S
C2893 H2913 0.930 . S
C2894 C2895 1.474 . S
C2894 C2896 1.285 . S
C2894 H2914 0.929 . S
C2895 C2892 1.461 . S
C2895 C2894 1.474 . S
C2896 C2891 1.342 . S
C2896 C2894 1.285 . S
C2896 H2915 0.930 . S
C2897 C2900 1.424 . S
C2897 C2902 1.245 . S
C2897 C2903 1.428 . S
C2898 C2901 1.260 . S
C2898 C2902 1.477 . S
C2898 H2916 0.932 . S
C2899 C2900 1.384 . S
C2899 C2901 1.479 . S
C2899 H2917 0.929 . S
C2900 C2897 1.424 . S
C2900 C2899 1.384 . S
C2900 H2918 0.928 . S
C2901 C2898 1.260 . S
C2901 C2899 1.479 . S
C2902 C2897 1.245 . S
C2902 C2898 1.477 . S
C2902 H2919 0.932 . S
C2903 U2886 2.882 . S
C2903 C2897 1.428 . S
C2903 O2906 1.301 . S
C2903 O2907 1.282 . S
O2904 U2886 2.441 . S
O2904 C2890 1.249 . S
O2905 U2886 2.420 . S
O2905 C2890 1.202 . S
O2906 U2886 2.455 . S
O2906 C2903 1.301 . S
O2907 U2886 2.449 . S
O2907 C2903 1.282 . S
H2908 C2881 0.931 . S
H2909 C2883 0.929 . S
H2910 C2884 0.930 . S
H2911 C2885 0.931 . S
H2912 C2892 0.932 . S
H2913 C2893 0.930 . S
H2914 C2894 0.929 . S
H2915 C2896 0.930 . S
H2916 C2898 0.932 . S
H2917 C2899 0.929 . S
H2918 C2900 0.928 . S
H2919 C2902 0.932 . S
C2920 C2921 1.264 . S
C2920 C2925 1.479 . S
C2920 C2930 1.465 . S
C2921 C2920 1.264 . S
C2921 C2923 1.339 . S
C2921 H2948 0.931 . S
C2922 C2923 1.395 . S
C2922 C2924 1.320 . S
C2923 C2921 1.339 . S
C2923 C2922 1.395 . S
C2923 H2949 0.929 . S
C2924 C2922 1.320 . S
C2924 C2925 1.405 . S
C2924 H2950 0.930 . S
C2925 C2920 1.479 . S
C2925 C2924 1.405 . S
C2925 H2951 0.931 . S
U2926 O2927 2.454 . S
U2926 O2928 2.458 . S
U2926 C2929 2.984 . S
U2926 C2930 2.847 . S
U2926 C2943 2.882 . S
U2926 O2944 2.441 . S
U2926 O2945 2.420 . S
U2926 O2946 2.455 . S
U2926 O2947 2.449 . S
O2927 U2926 2.454 . S
O2927 C2929 1.353 . S
O2928 U2926 2.458 . S
O2928 C2929 1.286 . S
C2929 U2926 2.984 . S
C2929 O2927 1.353 . S
C2929 O2928 1.286 . S
C2929 C2931 1.363 . S
C2930 C2920 1.465 . S
C2930 U2926 2.847 . S
C2930 O2944 1.249 . S
C2930 O2945 1.202 . S
C2931 C2929 1.363 . S
C2931 C2933 1.408 . S
C2931 C2936 1.342 . S
C2932 C2933 1.310 . S
C2932 C2935 1.461 . S
C2932 H2952 0.932 . S
C2933 C2931 1.408 . S
C2933 C2932 1.310 . S
C2933 H2953 0.930 . S
C2934 C2935 1.474 . S
C2934 C2936 1.285 . S
C2934 H2954 0.929 . S
C2935 C2932 1.461 . S
C2935 C2934 1.474 . S
C2936 C2931 1.342 . S
C2936 C2934 1.285 . S
C2936 H2955 0.930 . S
C2937 C2940 1.424 . S
C2937 C2942 1.245 . S
C2937 C2943 1.428 . S
C2938 C2941 1.260 . S
C2938 C2942 1.477 . S
C2938 H2956 0.932 . S
C2939 C2940 1.384 . S
C2939 C2941 1.479 . S
C2939 H2957 0.929 . S
C2940 C2937 1.424 . S
C2940 C2939 1.384 . S
C2940 H2958 0.928 . S
C2941 C2938 1.260 . S
C2941 C2939 1.479 . S
C2942 C2937 1.245 . S
C2942 C2938 1.477 . S
C2942 H2959 0.932 . S
C2943 U2926 2.882 . S
C2943 C2937 1.428 . S
C2943 O2946 1.301 . S
C2943 O2947 1.282 . S
O2944 U2926 2.441 . S
O2944 C2930 1.249 . S
O2945 U2926 2.420 . S
O2945 C2930 1.202 . S
O2946 U2926 2.455 . S
O2946 C2943 1.301 . S
O2947 U2926 2.449 . S
O2947 C2943 1.282 . S
H2948 C2921 0.931 . S
H2949 C2923 0.929 . S
H2950 C2924 0.930 . S
H2951 C2925 0.931 . S
H2952 C2932 0.932 . S
H2953 C2933 0.930 . S
H2954 C2934 0.929 . S
H2955 C2936 0.930 . S
H2956 C2938 0.932 . S
H2957 C2939 0.929 . S
H2958 C2940 0.928 . S
H2959 C2942 0.932 . S
C2960 C2961 1.264 . S
C2960 C2965 1.479 . S
C2960 C2970 1.465 . S
C2961 C2960 1.264 . S
C2961 C2963 1.339 . S
C2961 H2988 0.931 . S
C2962 C2963 1.395 . S
C2962 C2964 1.320 . S
C2963 C2961 1.339 . S
C2963 C2962 1.395 . S
C2963 H2989 0.929 . S
C2964 C2962 1.320 . S
C2964 C2965 1.405 . S
C2964 H2990 0.930 . S
C2965 C2960 1.479 . S
C2965 C2964 1.405 . S
C2965 H2991 0.931 . S
U2966 O2967 2.454 . S
U2966 O2968 2.458 . S
U2966 C2969 2.984 . S
U2966 C2970 2.847 . S
U2966 C2983 2.882 . S
U2966 O2984 2.441 . S
U2966 O2985 2.420 . S
U2966 O2986 2.455 . S
U2966 O2987 2.449 . S
O2967 U2966 2.454 . S
O2967 C2969 1.353 . S
O2968 U2966 2.458 . S
O2968 C2969 1.286 . S
C2969 U2966 2.984 . S
C2969 O2967 1.353 . S
C2969 O2968 1.286 . S
C2969 C2971 1.363 . S
C2970 C2960 1.465 . S
C2970 U2966 2.847 . S
C2970 O2984 1.249 . S
C2970 O2985 1.202 . S
C2971 C2969 1.363 . S
C2971 C2973 1.408 . S
C2971 C2976 1.342 . S
C2972 C2973 1.310 . S
C2972 C2975 1.461 . S
C2972 H2992 0.932 . S
C2973 C2971 1.408 . S
C2973 C2972 1.310 . S
C2973 H2993 0.930 . S
C2974 C2975 1.474 . S
C2974 C2976 1.285 . S
C2974 H2994 0.929 . S
C2975 C2972 1.461 . S
C2975 C2974 1.474 . S
C2976 C2971 1.342 . S
C2976 C2974 1.285 . S
C2976 H2995 0.930 . S
C2977 C2980 1.424 . S
C2977 C2982 1.245 . S
C2977 C2983 1.428 . S
C2978 C2981 1.260 . S
C2978 C2982 1.477 . S
C2978 H2996 0.932 . S
C2979 C2980 1.384 . S
C2979 C2981 1.479 . S
C2979 H2997 0.929 . S
C2980 C2977 1.424 . S
C2980 C2979 1.384 . S
C2980 H2998 0.928 . S
C2981 C2978 1.260 . S
C2981 C2979 1.479 . S
C2982 C2977 1.245 . S
C2982 C2978 1.477 . S
C2982 H2999 0.932 . S
C2983 U2966 2.882 . S
C2983 C2977 1.428 . S
C2983 O2986 1.301 . S
C2983 O2987 1.282 . S
O2984 U2966 2.441 . S
O2984 C2970 1.249 . S
O2985 U2966 2.420 . S
O2985 C2970 1.202 . S
O2986 U2966 2.455 . S
O2986 C2983 1.301 . S
O2987 U2966 2.449 . S
O2987 C2983 1.282 . S
H2988 C2961 0.931 . S
H2989 C2963 0.929 . S
H2990 C2964 0.930 . S
H2991 C2965 0.931 . S
H2992 C2972 0.932 . S
H2993 C2973 0.930 . S
H2994 C2974 0.929 . S
H2995 C2976 0.930 . S
H2996 C2978 0.932 . S
H2997 C2979 0.929 . S
H2998 C2980 0.928 . S
H2999 C2982 0.932 . S
C3000 C3001 1.264 . S
C3000 C3005 1.479 . S
C3000 C3010 1.465 . S
C3001 C3000 1.264 . S
C3001 C3003 1.339 . S
C3001 H3028 0.931 . S
C3002 C3003 1.395 . S
C3002 C3004 1.320 . S
C3003 C3001 1.339 . S
C3003 C3002 1.395 . S
C3003 H3029 0.929 . S
C3004 C3002 1.320 . S
C3004 C3005 1.405 . S
C3004 H3030 0.930 . S
C3005 C3000 1.479 . S
C3005 C3004 1.405 . S
C3005 H3031 0.931 . S
U3006 O3007 2.454 . S
U3006 O3008 2.458 . S
U3006 C3009 2.984 . S
U3006 C3010 2.847 . S
U3006 C3023 2.882 . S
U3006 O3024 2.441 . S
U3006 O3025 2.420 . S
U3006 O3026 2.455 . S
U3006 O3027 2.449 . S
O3007 U3006 2.454 . S
O3007 C3009 1.353 . S
O3008 U3006 2.458 . S
O3008 C3009 1.286 . S
C3009 U3006 2.984 . S
C3009 O3007 1.353 . S
C3009 O3008 1.286 . S
C3009 C3011 1.363 . S
C3010 C3000 1.465 . S
C3010 U3006 2.847 . S
C3010 O3024 1.249 . S
C3010 O3025 1.202 . S
C3011 C3009 1.363 . S
C3011 C3013 1.408 . S
C3011 C3016 1.342 . S
C3012 C3013 1.310 . S
C3012 C3015 1.461 . S
C3012 H3032 0.932 . S
C3013 C3011 1.408 . S
C3013 C3012 1.310 . S
C3013 H3033 0.930 . S
C3014 C3015 1.474 . S
C3014 C3016 1.285 . S
C3014 H3034 0.929 . S
C3015 C3012 1.461 . S
C3015 C3014 1.474 . S
C3016 C3011 1.342 . S
C3016 C3014 1.285 . S
C3016 H3035 0.930 . S
C3017 C3020 1.424 . S
C3017 C3022 1.245 . S
C3017 C3023 1.428 . S
C3018 C3021 1.260 . S
C3018 C3022 1.477 . S
C3018 H3036 0.932 . S
C3019 C3020 1.384 . S
C3019 C3021 1.479 . S
C3019 H3037 0.929 . S
C3020 C3017 1.424 . S
C3020 C3019 1.384 . S
C3020 H3038 0.928 . S
C3021 C3018 1.260 . S
C3021 C3019 1.479 . S
C3022 C3017 1.245 . S
C3022 C3018 1.477 . S
C3022 H3039 0.932 . S
C3023 U3006 2.882 . S
C3023 C3017 1.428 . S
C3023 O3026 1.301 . S
C3023 O3027 1.282 . S
O3024 U3006 2.441 . S
O3024 C3010 1.249 . S
O3025 U3006 2.420 . S
O3025 C3010 1.202 . S
O3026 U3006 2.455 . S
O3026 C3023 1.301 . S
O3027 U3006 2.449 . S
O3027 C3023 1.282 . S
H3028 C3001 0.931 . S
H3029 C3003 0.929 . S
H3030 C3004 0.930 . S
H3031 C3005 0.931 . S
H3032 C3012 0.932 . S
H3033 C3013 0.930 . S
H3034 C3014 0.929 . S
H3035 C3016 0.930 . S
H3036 C3018 0.932 . S
H3037 C3019 0.929 . S
H3038 C3020 0.928 . S
H3039 C3022 0.932 . S
C3040 C3041 1.264 . S
C3040 C3045 1.479 . S
C3040 C3050 1.465 . S
C3041 C3040 1.264 . S
C3041 C3043 1.339 . S
C3041 H3068 0.931 . S
C3042 C3043 1.395 . S
C3042 C3044 1.320 . S
C3043 C3041 1.339 . S
C3043 C3042 1.395 . S
C3043 H3069 0.929 . S
C3044 C3042 1.320 . S
C3044 C3045 1.405 . S
C3044 H3070 0.930 . S
C3045 C3040 1.479 . S
C3045 C3044 1.405 . S
C3045 H3071 0.931 . S
U3046 O3047 2.454 . S
U3046 O3048 2.458 . S
U3046 C3049 2.984 . S
U3046 C3050 2.847 . S
U3046 C3063 2.882 . S
U3046 O3064 2.441 . S
U3046 O3065 2.420 . S
U3046 O3066 2.455 . S
U3046 O3067 2.449 . S
O3047 U3046 2.454 . S
O3047 C3049 1.353 . S
O3048 U3046 2.458 . S
O3048 C3049 1.286 . S
C3049 U3046 2.984 . S
C3049 O3047 1.353 . S
C3049 O3048 1.286 . S
C3049 C3051 1.363 . S
C3050 C3040 1.465 . S
C3050 U3046 2.847 . S
C3050 O3064 1.249 . S
C3050 O3065 1.202 . S
C3051 C3049 1.363 . S
C3051 C3053 1.408 . S
C3051 C3056 1.342 . S
C3052 C3053 1.310 . S
C3052 C3055 1.461 . S
C3052 H3072 0.932 . S
C3053 C3051 1.408 . S
C3053 C3052 1.310 . S
C3053 H3073 0.930 . S
C3054 C3055 1.474 . S
C3054 C3056 1.285 . S
C3054 H3074 0.929 . S
C3055 C3052 1.461 . S
C3055 C3054 1.474 . S
C3056 C3051 1.342 . S
C3056 C3054 1.285 . S
C3056 H3075 0.930 . S
C3057 C3060 1.424 . S
C3057 C3062 1.245 . S
C3057 C3063 1.428 . S
C3058 C3061 1.260 . S
C3058 C3062 1.477 . S
C3058 H3076 0.932 . S
C3059 C3060 1.384 . S
C3059 C3061 1.479 . S
C3059 H3077 0.929 . S
C3060 C3057 1.424 . S
C3060 C3059 1.384 . S
C3060 H3078 0.928 . S
C3061 C3058 1.260 . S
C3061 C3059 1.479 . S
C3062 C3057 1.245 . S
C3062 C3058 1.477 . S
C3062 H3079 0.932 . S
C3063 U3046 2.882 . S
C3063 C3057 1.428 . S
C3063 O3066 1.301 . S
C3063 O3067 1.282 . S
O3064 U3046 2.441 . S
O3064 C3050 1.249 . S
O3065 U3046 2.420 . S
O3065 C3050 1.202 . S
O3066 U3046 2.455 . S
O3066 C3063 1.301 . S
O3067 U3046 2.449 . S
O3067 C3063 1.282 . S
H3068 C3041 0.931 . S
H3069 C3043 0.929 . S
H3070 C3044 0.930 . S
H3071 C3045 0.931 . S
H3072 C3052 0.932 . S
H3073 C3053 0.930 . S
H3074 C3054 0.929 . S
H3075 C3056 0.930 . S
H3076 C3058 0.932 . S
H3077 C3059 0.929 . S
H3078 C3060 0.928 . S
H3079 C3062 0.932 . S
C3080 C3081 1.264 . S
C3080 C3085 1.479 . S
C3080 C3090 1.465 . S
C3081 C3080 1.264 . S
C3081 C3083 1.339 . S
C3081 H3108 0.931 . S
C3082 C3083 1.395 . S
C3082 C3084 1.320 . S
C3083 C3081 1.339 . S
C3083 C3082 1.395 . S
C3083 H3109 0.929 . S
C3084 C3082 1.320 . S
C3084 C3085 1.405 . S
C3084 H3110 0.930 . S
C3085 C3080 1.479 . S
C3085 C3084 1.405 . S
C3085 H3111 0.931 . S
U3086 O3087 2.454 . S
U3086 O3088 2.458 . S
U3086 C3089 2.984 . S
U3086 C3090 2.847 . S
U3086 C3103 2.882 . S
U3086 O3104 2.441 . S
U3086 O3105 2.420 . S
U3086 O3106 2.455 . S
U3086 O3107 2.449 . S
O3087 U3086 2.454 . S
O3087 C3089 1.353 . S
O3088 U3086 2.458 . S
O3088 C3089 1.286 . S
C3089 U3086 2.984 . S
C3089 O3087 1.353 . S
C3089 O3088 1.286 . S
C3089 C3091 1.363 . S
C3090 C3080 1.465 . S
C3090 U3086 2.847 . S
C3090 O3104 1.249 . S
C3090 O3105 1.202 . S
C3091 C3089 1.363 . S
C3091 C3093 1.408 . S
C3091 C3096 1.342 . S
C3092 C3093 1.310 . S
C3092 C3095 1.461 . S
C3092 H3112 0.932 . S
C3093 C3091 1.408 . S
C3093 C3092 1.310 . S
C3093 H3113 0.930 . S
C3094 C3095 1.474 . S
C3094 C3096 1.285 . S
C3094 H3114 0.929 . S
C3095 C3092 1.461 . S
C3095 C3094 1.474 . S
C3096 C3091 1.342 . S
C3096 C3094 1.285 . S
C3096 H3115 0.930 . S
C3097 C3100 1.424 . S
C3097 C3102 1.245 . S
C3097 C3103 1.428 . S
C3098 C3101 1.260 . S
C3098 C3102 1.477 . S
C3098 H3116 0.932 . S
C3099 C3100 1.384 . S
C3099 C3101 1.479 . S
C3099 H3117 0.929 . S
C3100 C3097 1.424 . S
C3100 C3099 1.384 . S
C3100 H3118 0.928 . S
C3101 C3098 1.260 . S
C3101 C3099 1.479 . S
C3102 C3097 1.245 . S
C3102 C3098 1.477 . S
C3102 H3119 0.932 . S
C3103 U3086 2.882 . S
C3103 C3097 1.428 . S
C3103 O3106 1.301 . S
C3103 O3107 1.282 . S
O3104 U3086 2.441 . S
O3104 C3090 1.249 . S
O3105 U3086 2.420 . S
O3105 C3090 1.202 . S
O3106 U3086 2.455 . S
O3106 C3103 1.301 . S
O3107 U3086 2.449 . S
O3107 C3103 1.282 . S
H3108 C3081 0.931 . S
H3109 C3083 0.929 . S
H3110 C3084 0.930 . S
H3111 C3085 0.931 . S
H3112 C3092 0.932 . S
H3113 C3093 0.930 . S
H3114 C3094 0.929 . S
H3115 C3096 0.930 . S
H3116 C3098 0.932 . S
H3117 C3099 0.929 . S
H3118 C3100 0.928 . S
H3119 C3102 0.932 . S
C3120 C3121 1.264 . S
C3120 C3125 1.479 . S
C3120 C3130 1.465 . S
C3121 C3120 1.264 . S
C3121 C3123 1.339 . S
C3121 H3148 0.931 . S
C3122 C3123 1.395 . S
C3122 C3124 1.320 . S
C3123 C3121 1.339 . S
C3123 C3122 1.395 . S
C3123 H3149 0.929 . S
C3124 C3122 1.320 . S
C3124 C3125 1.405 . S
C3124 H3150 0.930 . S
C3125 C3120 1.479 . S
C3125 C3124 1.405 . S
C3125 H3151 0.931 . S
U3126 O3127 2.454 . S
U3126 O3128 2.458 . S
U3126 C3129 2.984 . S
U3126 C3130 2.847 . S
U3126 C3143 2.882 . S
U3126 O3144 2.441 . S
U3126 O3145 2.420 . S
U3126 O3146 2.455 . S
U3126 O3147 2.449 . S
O3127 U3126 2.454 . S
O3127 C3129 1.353 . S
O3128 U3126 2.458 . S
O3128 C3129 1.286 . S
C3129 U3126 2.984 . S
C3129 O3127 1.353 . S
C3129 O3128 1.286 . S
C3129 C3131 1.363 . S
C3130 C3120 1.465 . S
C3130 U3126 2.847 . S
C3130 O3144 1.249 . S
C3130 O3145 1.202 . S
C3131 C3129 1.363 . S
C3131 C3133 1.408 . S
C3131 C3136 1.342 . S
C3132 C3133 1.310 . S
C3132 C3135 1.461 . S
C3132 H3152 0.932 . S
C3133 C3131 1.408 . S
C3133 C3132 1.310 . S
C3133 H3153 0.930 . S
C3134 C3135 1.474 . S
C3134 C3136 1.285 . S
C3134 H3154 0.929 . S
C3135 C3132 1.461 . S
C3135 C3134 1.474 . S
C3136 C3131 1.342 . S
C3136 C3134 1.285 . S
C3136 H3155 0.930 . S
C3137 C3140 1.424 . S
C3137 C3142 1.245 . S
C3137 C3143 1.428 . S
C3138 C3141 1.260 . S
C3138 C3142 1.477 . S
C3138 H3156 0.932 . S
C3139 C3140 1.384 . S
C3139 C3141 1.479 . S
C3139 H3157 0.929 . S
C3140 C3137 1.424 . S
C3140 C3139 1.384 . S
C3140 H3158 0.928 . S
C3141 C3138 1.260 . S
C3141 C3139 1.479 . S
C3142 C3137 1.245 . S
C3142 C3138 1.477 . S
C3142 H3159 0.932 . S
C3143 U3126 2.882 . S
C3143 C3137 1.428 . S
C3143 O3146 1.301 . S
C3143 O3147 1.282 . S
O3144 U3126 2.441 . S
O3144 C3130 1.249 . S
O3145 U3126 2.420 . S
O3145 C3130 1.202 . S
O3146 U3126 2.455 . S
O3146 C3143 1.301 . S
O3147 U3126 2.449 . S
O3147 C3143 1.282 . S
H3148 C3121 0.931 . S
H3149 C3123 0.929 . S
H3150 C3124 0.930 . S
H3151 C3125 0.931 . S
H3152 C3132 0.932 . S
H3153 C3133 0.930 . S
H3154 C3134 0.929 . S
H3155 C3136 0.930 . S
H3156 C3138 0.932 . S
H3157 C3139 0.929 . S
H3158 C3140 0.928 . S
H3159 C3142 0.932 . S
C3160 C3161 1.264 . S
C3160 C3165 1.479 . S
C3160 C3170 1.465 . S
C3161 C3160 1.264 . S
C3161 C3163 1.339 . S
C3161 H3188 0.931 . S
C3162 C3163 1.395 . S
C3162 C3164 1.320 . S
C3163 C3161 1.339 . S
C3163 C3162 1.395 . S
C3163 H3189 0.929 . S
C3164 C3162 1.320 . S
C3164 C3165 1.405 . S
C3164 H3190 0.930 . S
C3165 C3160 1.479 . S
C3165 C3164 1.405 . S
C3165 H3191 0.931 . S
U3166 O3167 2.454 . S
U3166 O3168 2.458 . S
U3166 C3169 2.984 . S
U3166 C3170 2.847 . S
U3166 C3183 2.882 . S
U3166 O3184 2.441 . S
U3166 O3185 2.420 . S
U3166 O3186 2.455 . S
U3166 O3187 2.449 . S
O3167 U3166 2.454 . S
O3167 C3169 1.353 . S
O3168 U3166 2.458 . S
O3168 C3169 1.286 . S
C3169 U3166 2.984 . S
C3169 O3167 1.353 . S
C3169 O3168 1.286 . S
C3169 C3171 1.363 . S
C3170 C3160 1.465 . S
C3170 U3166 2.847 . S
C3170 O3184 1.249 . S
C3170 O3185 1.202 . S
C3171 C3169 1.363 . S
C3171 C3173 1.408 . S
C3171 C3176 1.342 . S
C3172 C3173 1.310 . S
C3172 C3175 1.461 . S
C3172 H3192 0.932 . S
C3173 C3171 1.408 . S
C3173 C3172 1.310 . S
C3173 H3193 0.930 . S
C3174 C3175 1.474 . S
C3174 C3176 1.285 . S
C3174 H3194 0.929 . S
C3175 C3172 1.461 . S
C3175 C3174 1.474 . S
C3176 C3171 1.342 . S
C3176 C3174 1.285 . S
C3176 H3195 0.930 . S
C3177 C3180 1.424 . S
C3177 C3182 1.245 . S
C3177 C3183 1.428 . S
C3178 C3181 1.260 . S
C3178 C3182 1.477 . S
C3178 H3196 0.932 . S
C3179 C3180 1.384 . S
C3179 C3181 1.479 . S
C3179 H3197 0.929 . S
C3180 C3177 1.424 . S
C3180 C3179 1.384 . S
C3180 H3198 0.928 . S
C3181 C3178 1.260 . S
C3181 C3179 1.479 . S
C3182 C3177 1.245 . S
C3182 C3178 1.477 . S
C3182 H3199 0.932 . S
C3183 U3166 2.882 . S
C3183 C3177 1.428 . S
C3183 O3186 1.301 . S
C3183 O3187 1.282 . S
O3184 U3166 2.441 . S
O3184 C3170 1.249 . S
O3185 U3166 2.420 . S
O3185 C3170 1.202 . S
O3186 U3166 2.455 . S
O3186 C3183 1.301 . S
O3187 U3166 2.449 . S
O3187 C3183 1.282 . S
H3188 C3161 0.931 . S
H3189 C3163 0.929 . S
H3190 C3164 0.930 . S
H3191 C3165 0.931 . S
H3192 C3172 0.932 . S
H3193 C3173 0.930 . S
H3194 C3174 0.929 . S
H3195 C3176 0.930 . S
H3196 C3178 0.932 . S
H3197 C3179 0.929 . S
H3198 C3180 0.928 . S
H3199 C3182 0.932 . S
C3200 C3201 1.264 . S
C3200 C3205 1.479 . S
C3200 C3210 1.465 . S
C3201 C3200 1.264 . S
C3201 C3203 1.339 . S
C3201 H3228 0.931 . S
C3202 C3203 1.395 . S
C3202 C3204 1.320 . S
C3203 C3201 1.339 . S
C3203 C3202 1.395 . S
C3203 H3229 0.929 . S
C3204 C3202 1.320 . S
C3204 C3205 1.405 . S
C3204 H3230 0.930 . S
C3205 C3200 1.479 . S
C3205 C3204 1.405 . S
C3205 H3231 0.931 . S
U3206 O3207 2.454 . S
U3206 O3208 2.458 . S
U3206 C3209 2.984 . S
U3206 C3210 2.847 . S
U3206 C3223 2.882 . S
U3206 O3224 2.441 . S
U3206 O3225 2.420 . S
U3206 O3226 2.455 . S
U3206 O3227 2.449 . S
O3207 U3206 2.454 . S
O3207 C3209 1.353 . S
O3208 U3206 2.458 . S
O3208 C3209 1.286 . S
C3209 U3206 2.984 . S
C3209 O3207 1.353 . S
C3209 O3208 1.286 . S
C3209 C3211 1.363 . S
C3210 C3200 1.465 . S
C3210 U3206 2.847 . S
C3210 O3224 1.249 . S
C3210 O3225 1.202 . S
C3211 C3209 1.363 . S
C3211 C3213 1.408 . S
C3211 C3216 1.342 . S
C3212 C3213 1.310 . S
C3212 C3215 1.461 . S
C3212 H3232 0.932 . S
C3213 C3211 1.408 . S
C3213 C3212 1.310 . S
C3213 H3233 0.930 . S
C3214 C3215 1.474 . S
C3214 C3216 1.285 . S
C3214 H3234 0.929 . S
C3215 C3212 1.461 . S
C3215 C3214 1.474 . S
C3216 C3211 1.342 . S
C3216 C3214 1.285 . S
C3216 H3235 0.930 . S
C3217 C3220 1.424 . S
C3217 C3222 1.245 . S
C3217 C3223 1.428 . S
C3218 C3221 1.260 . S
C3218 C3222 1.477 . S
C3218 H3236 0.932 . S
C3219 C3220 1.384 . S
C3219 C3221 1.479 . S
C3219 H3237 0.929 . S
C3220 C3217 1.424 . S
C3220 C3219 1.384 . S
C3220 H3238 0.928 . S
C3221 C3218 1.260 . S
C3221 C3219 1.479 . S
C3222 C3217 1.245 . S
C3222 C3218 1.477 . S
C3222 H3239 0.932 . S
C3223 U3206 2.882 . S
C3223 C3217 1.428 . S
C3223 O3226 1.301 . S
C3223 O3227 1.282 . S
O3224 U3206 2.441 . S
O3224 C3210 1.249 . S
O3225 U3206 2.420 . S
O3225 C3210 1.202 . S
O3226 U3206 2.455 . S
O3226 C3223 1.301 . S
O3227 U3206 2.449 . S
O3227 C3223 1.282 . S
H3228 C3201 0.931 . S
H3229 C3203 0.929 . S
H3230 C3204 0.930 . S
H3231 C3205 0.931 . S
H3232 C3212 0.932 . S
H3233 C3213 0.930 . S
H3234 C3214 0.929 . S
H3235 C3216 0.930 . S
H3236 C3218 0.932 . S
H3237 C3219 0.929 . S
H3238 C3220 0.928 . S
H3239 C3222 0.932 . S
C3240 C3241 1.264 . S
C3240 C3245 1.479 . S
C3240 C3250 1.465 . S
C3241 C3240 1.264 . S
C3241 C3243 1.339 . S
C3241 H3268 0.931 . S
C3242 C3243 1.395 . S
C3242 C3244 1.320 . S
C3243 C3241 1.339 . S
C3243 C3242 1.395 . S
C3243 H3269 0.929 . S
C3244 C3242 1.320 . S
C3244 C3245 1.405 . S
C3244 H3270 0.930 . S
C3245 C3240 1.479 . S
C3245 C3244 1.405 . S
C3245 H3271 0.931 . S
U3246 O3247 2.454 . S
U3246 O3248 2.458 . S
U3246 C3249 2.984 . S
U3246 C3250 2.847 . S
U3246 C3263 2.882 . S
U3246 O3264 2.441 . S
U3246 O3265 2.420 . S
U3246 O3266 2.455 . S
U3246 O3267 2.449 . S
O3247 U3246 2.454 . S
O3247 C3249 1.353 . S
O3248 U3246 2.458 . S
O3248 C3249 1.286 . S
C3249 U3246 2.984 . S
C3249 O3247 1.353 . S
C3249 O3248 1.286 . S
C3249 C3251 1.363 . S
C3250 C3240 1.465 . S
C3250 U3246 2.847 . S
C3250 O3264 1.249 . S
C3250 O3265 1.202 . S
C3251 C3249 1.363 . S
C3251 C3253 1.408 . S
C3251 C3256 1.342 . S
C3252 C3253 1.310 . S
C3252 C3255 1.461 . S
C3252 H3272 0.932 . S
C3253 C3251 1.408 . S
C3253 C3252 1.310 . S
C3253 H3273 0.930 . S
C3254 C3255 1.474 . S
C3254 C3256 1.285 . S
C3254 H3274 0.929 . S
C3255 C3252 1.461 . S
C3255 C3254 1.474 . S
C3256 C3251 1.342 . S
C3256 C3254 1.285 . S
C3256 H3275 0.930 . S
C3257 C3260 1.424 . S
C3257 C3262 1.245 . S
C3257 C3263 1.428 . S
C3258 C3261 1.260 . S
C3258 C3262 1.477 . S
C3258 H3276 0.932 . S
C3259 C3260 1.384 . S
C3259 C3261 1.479 . S
C3259 H3277 0.929 . S
C3260 C3257 1.424 . S
C3260 C3259 1.384 . S
C3260 H3278 0.928 . S
C3261 C3258 1.260 . S
C3261 C3259 1.479 . S
C3262 C3257 1.245 . S
C3262 C3258 1.477 . S
C3262 H3279 0.932 . S
C3263 U3246 2.882 . S
C3263 C3257 1.428 . S
C3263 O3266 1.301 . S
C3263 O3267 1.282 . S
O3264 U3246 2.441 . S
O3264 C3250 1.249 . S
O3265 U3246 2.420 . S
O3265 C3250 1.202 . S
O3266 U3246 2.455 . S
O3266 C3263 1.301 . S
O3267 U3246 2.449 . S
O3267 C3263 1.282 . S
H3268 C3241 0.931 . S
H3269 C3243 0.929 . S
H3270 C3244 0.930 . S
H3271 C3245 0.931 . S
H3272 C3252 0.932 . S
H3273 C3253 0.930 . S
H3274 C3254 0.929 . S
H3275 C3256 0.930 . S
H3276 C3258 0.932 . S
H3277 C3259 0.929 . S
H3278 C3260 0.928 . S
H3279 C3262 0.932 . S
C3280 C3281 1.264 . S
C3280 C3285 1.479 . S
C3280 C3290 1.465 . S
C3281 C3280 1.264 . S
C3281 C3283 1.339 . S
C3281 H3308 0.931 . S
C3282 C3283 1.395 . S
C3282 C3284 1.320 . S
C3283 C3281 1.339 . S
C3283 C3282 1.395 . S
C3283 H3309 0.929 . S
C3284 C3282 1.320 . S
C3284 C3285 1.405 . S
C3284 H3310 0.930 . S
C3285 C3280 1.479 . S
C3285 C3284 1.405 . S
C3285 H3311 0.931 . S
U3286 O3287 2.454 . S
U3286 O3288 2.458 . S
U3286 C3289 2.984 . S
U3286 C3290 2.847 . S
U3286 C3303 2.882 . S
U3286 O3304 2.441 . S
U3286 O3305 2.420 . S
U3286 O3306 2.455 . S
U3286 O3307 2.449 . S
O3287 U3286 2.454 . S
O3287 C3289 1.353 . S
O3288 U3286 2.458 . S
O3288 C3289 1.286 . S
C3289 U3286 2.984 . S
C3289 O3287 1.353 . S
C3289 O3288 1.286 . S
C3289 C3291 1.363 . S
C3290 C3280 1.465 . S
C3290 U3286 2.847 . S
C3290 O3304 1.249 . S
C3290 O3305 1.202 . S
C3291 C3289 1.363 . S
C3291 C3293 1.408 . S
C3291 C3296 1.342 . S
C3292 C3293 1.310 . S
C3292 C3295 1.461 . S
C3292 H3312 0.932 . S
C3293 C3291 1.408 . S
C3293 C3292 1.310 . S
C3293 H3313 0.930 . S
C3294 C3295 1.474 . S
C3294 C3296 1.285 . S
C3294 H3314 0.929 . S
C3295 C3292 1.461 . S
C3295 C3294 1.474 . S
C3296 C3291 1.342 . S
C3296 C3294 1.285 . S
C3296 H3315 0.930 . S
C3297 C3300 1.424 . S
C3297 C3302 1.245 . S
C3297 C3303 1.428 . S
C3298 C3301 1.260 . S
C3298 C3302 1.477 . S
C3298 H3316 0.932 . S
C3299 C3300 1.384 . S
C3299 C3301 1.479 . S
C3299 H3317 0.929 . S
C3300 C3297 1.424 . S
C3300 C3299 1.384 . S
C3300 H3318 0.928 . S
C3301 C3298 1.260 . S
C3301 C3299 1.479 . S
C3302 C3297 1.245 . S
C3302 C3298 1.477 . S
C3302 H3319 0.932 . S
C3303 U3286 2.882 . S
C3303 C3297 1.428 . S
C3303 O3306 1.301 . S
C3303 O3307 1.282 . S
O3304 U3286 2.441 . S
O3304 C3290 1.249 . S
O3305 U3286 2.420 . S
O3305 C3290 1.202 . S
O3306 U3286 2.455 . S
O3306 C3303 1.301 . S
O3307 U3286 2.449 . S
O3307 C3303 1.282 . S
H3308 C3281 0.931 . S
H3309 C3283 0.929 . S
H3310 C3284 0.930 . S
H3311 C3285 0.931 . S
H3312 C3292 0.932 . S
H3313 C3293 0.930 . S
H3314 C3294 0.929 . S
H3315 C3296 0.930 . S
H3316 C3298 0.932 . S
H3317 C3299 0.929 . S
H3318 C3300 0.928 . S
H3319 C3302 0.932 . S
C3320 C3321 1.264 . S
C3320 C3325 1.479 . S
C3320 C3330 1.465 . S
C3321 C3320 1.264 . S
C3321 C3323 1.339 . S
C3321 H3348 0.931 . S
C3322 C3323 1.395 . S
C3322 C3324 1.320 . S
C3323 C3321 1.339 . S
C3323 C3322 1.395 . S
C3323 H3349 0.929 . S
C3324 C3322 1.320 . S
C3324 C3325 1.405 . S
C3324 H3350 0.930 . S
C3325 C3320 1.479 . S
C3325 C3324 1.405 . S
C3325 H3351 0.931 . S
U3326 O3327 2.454 . S
U3326 O3328 2.458 . S
U3326 C3329 2.984 . S
U3326 C3330 2.847 . S
U3326 C3343 2.882 . S
U3326 O3344 2.441 . S
U3326 O3345 2.420 . S
U3326 O3346 2.455 . S
U3326 O3347 2.449 . S
O3327 U3326 2.454 . S
O3327 C3329 1.353 . S
O3328 U3326 2.458 . S
O3328 C3329 1.286 . S
C3329 U3326 2.984 . S
C3329 O3327 1.353 . S
C3329 O3328 1.286 . S
C3329 C3331 1.363 . S
C3330 C3320 1.465 . S
C3330 U3326 2.847 . S
C3330 O3344 1.249 . S
C3330 O3345 1.202 . S
C3331 C3329 1.363 . S
C3331 C3333 1.408 . S
C3331 C3336 1.342 . S
C3332 C3333 1.310 . S
C3332 C3335 1.461 . S
C3332 H3352 0.932 . S
C3333 C3331 1.408 . S
C3333 C3332 1.310 . S
C3333 H3353 0.930 . S
C3334 C3335 1.474 . S
C3334 C3336 1.285 . S
C3334 H3354 0.929 . S
C3335 C3332 1.461 . S
C3335 C3334 1.474 . S
C3336 C3331 1.342 . S
C3336 C3334 1.285 . S
C3336 H3355 0.930 . S
C3337 C3340 1.424 . S
C3337 C3342 1.245 . S
C3337 C3343 1.428 . S
C3338 C3341 1.260 . S
C3338 C3342 1.477 . S
C3338 H3356 0.932 . S
C3339 C3340 1.384 . S
C3339 C3341 1.479 . S
C3339 H3357 0.929 . S
C3340 C3337 1.424 . S
C3340 C3339 1.384 . S
C3340 H3358 0.928 . S
C3341 C3338 1.260 . S
C3341 C3339 1.479 . S
C3342 C3337 1.245 . S
C3342 C3338 1.477 . S
C3342 H3359 0.932 . S
C3343 U3326 2.882 . S
C3343 C3337 1.428 . S
C3343 O3346 1.301 . S
C3343 O3347 1.282 . S
O3344 U3326 2.441 . S
O3344 C3330 1.249 . S
O3345 U3326 2.420 . S
O3345 C3330 1.202 . S
O3346 U3326 2.455 . S
O3346 C3343 1.301 . S
O3347 U3326 2.449 . S
O3347 C3343 1.282 . S
H3348 C3321 0.931 . S
H3349 C3323 0.929 . S
H3350 C3324 0.930 . S
H3351 C3325 0.931 . S
H3352 C3332 0.932 . S
H3353 C3333 0.930 . S
H3354 C3334 0.929 . S
H3355 C3336 0.930 . S
H3356 C3338 0.932 . S
H3357 C3339 0.929 . S
H3358 C3340 0.928 . S
H3359 C3342 0.932 . S
C3360 C3361 1.264 . S
C3360 C3365 1.479 . S
C3360 C3370 1.465 . S
C3361 C3360 1.264 . S
C3361 C3363 1.339 . S
C3361 H3388 0.931 . S
C3362 C3363 1.395 . S
C3362 C3364 1.320 . S
C3363 C3361 1.339 . S
C3363 C3362 1.395 . S
C3363 H3389 0.929 . S
C3364 C3362 1.320 . S
C3364 C3365 1.405 . S
C3364 H3390 0.930 . S
C3365 C3360 1.479 . S
C3365 C3364 1.405 . S
C3365 H3391 0.931 . S
U3366 O3367 2.454 . S
U3366 O3368 2.458 . S
U3366 C3369 2.984 . S
U3366 C3370 2.847 . S
U3366 C3383 2.882 . S
U3366 O3384 2.441 . S
U3366 O3385 2.420 . S
U3366 O3386 2.455 . S
U3366 O3387 2.449 . S
O3367 U3366 2.454 . S
O3367 C3369 1.353 . S
O3368 U3366 2.458 . S
O3368 C3369 1.286 . S
C3369 U3366 2.984 . S
C3369 O3367 1.353 . S
C3369 O3368 1.286 . S
C3369 C3371 1.363 . S
C3370 C3360 1.465 . S
C3370 U3366 2.847 . S
C3370 O3384 1.249 . S
C3370 O3385 1.202 . S
C3371 C3369 1.363 . S
C3371 C3373 1.408 . S
C3371 C3376 1.342 . S
C3372 C3373 1.310 . S
C3372 C3375 1.461 . S
C3372 H3392 0.932 . S
C3373 C3371 1.408 . S
C3373 C3372 1.310 . S
C3373 H3393 0.930 . S
C3374 C3375 1.474 . S
C3374 C3376 1.285 . S
C3374 H3394 0.929 . S
C3375 C3372 1.461 . S
C3375 C3374 1.474 . S
C3376 C3371 1.342 . S
C3376 C3374 1.285 . S
C3376 H3395 0.930 . S
C3377 C3380 1.424 . S
C3377 C3382 1.245 . S
C3377 C3383 1.428 . S
C3378 C3381 1.260 . S
C3378 C3382 1.477 . S
C3378 H3396 0.932 . S
C3379 C3380 1.384 . S
C3379 C3381 1.479 . S
C3379 H3397 0.929 . S
C3380 C3377 1.424 . S
C3380 C3379 1.384 . S
C3380 H3398 0.928 . S
C3381 C3378 1.260 . S
C3381 C3379 1.479 . S
C3382 C3377 1.245 . S
C3382 C3378 1.477 . S
C3382 H3399 0.932 . S
C3383 U3366 2.882 . S
C3383 C3377 1.428 . S
C3383 O3386 1.301 . S
C3383 O3387 1.282 . S
O3384 U3366 2.441 . S
O3384 C3370 1.249 . S
O3385 U3366 2.420 . S
O3385 C3370 1.202 . S
O3386 U3366 2.455 . S
O3386 C3383 1.301 . S
O3387 U3366 2.449 . S
O3387 C3383 1.282 . S
H3388 C3361 0.931 . S
H3389 C3363 0.929 . S
H3390 C3364 0.930 . S
H3391 C3365 0.931 . S
H3392 C3372 0.932 . S
H3393 C3373 0.930 . S
H3394 C3374 0.929 . S
H3395 C3376 0.930 . S
H3396 C3378 0.932 . S
H3397 C3379 0.929 . S
H3398 C3380 0.928 . S
H3399 C3382 0.932 . S
C3400 C3401 1.264 . S
C3400 C3405 1.479 . S
C3400 C3410 1.465 . S
C3401 C3400 1.264 . S
C3401 C3403 1.339 . S
C3401 H3428 0.931 . S
C3402 C3403 1.395 . S
C3402 C3404 1.320 . S
C3403 C3401 1.339 . S
C3403 C3402 1.395 . S
C3403 H3429 0.929 . S
C3404 C3402 1.320 . S
C3404 C3405 1.405 . S
C3404 H3430 0.930 . S
C3405 C3400 1.479 . S
C3405 C3404 1.405 . S
C3405 H3431 0.931 . S
U3406 O3407 2.454 . S
U3406 O3408 2.458 . S
U3406 C3409 2.984 . S
U3406 C3410 2.847 . S
U3406 C3423 2.882 . S
U3406 O3424 2.441 . S
U3406 O3425 2.420 . S
U3406 O3426 2.455 . S
U3406 O3427 2.449 . S
O3407 U3406 2.454 . S
O3407 C3409 1.353 . S
O3408 U3406 2.458 . S
O3408 C3409 1.286 . S
C3409 U3406 2.984 . S
C3409 O3407 1.353 . S
C3409 O3408 1.286 . S
C3409 C3411 1.363 . S
C3410 C3400 1.465 . S
C3410 U3406 2.847 . S
C3410 O3424 1.249 . S
C3410 O3425 1.202 . S
C3411 C3409 1.363 . S
C3411 C3413 1.408 . S
C3411 C3416 1.342 . S
C3412 C3413 1.310 . S
C3412 C3415 1.461 . S
C3412 H3432 0.932 . S
C3413 C3411 1.408 . S
C3413 C3412 1.310 . S
C3413 H3433 0.930 . S
C3414 C3415 1.474 . S
C3414 C3416 1.285 . S
C3414 H3434 0.929 . S
C3415 C3412 1.461 . S
C3415 C3414 1.474 . S
C3416 C3411 1.342 . S
C3416 C3414 1.285 . S
C3416 H3435 0.930 . S
C3417 C3420 1.424 . S
C3417 C3422 1.245 . S
C3417 C3423 1.428 . S
C3418 C3421 1.260 . S
C3418 C3422 1.477 . S
C3418 H3436 0.932 . S
C3419 C3420 1.384 . S
C3419 C3421 1.479 . S
C3419 H3437 0.929 . S
C3420 C3417 1.424 . S
C3420 C3419 1.384 . S
C3420 H3438 0.928 . S
C3421 C3418 1.260 . S
C3421 C3419 1.479 . S
C3422 C3417 1.245 . S
C3422 C3418 1.477 . S
C3422 H3439 0.932 . S
C3423 U3406 2.882 . S
C3423 C3417 1.428 . S
C3423 O3426 1.301 . S
C3423 O3427 1.282 . S
O3424 U3406 2.441 . S
O3424 C3410 1.249 . S
O3425 U3406 2.420 . S
O3425 C3410 1.202 . S
O3426 U3406 2.455 . S
O3426 C3423 1.301 . S
O3427 U3406 2.449 . S
O3427 C3423 1.282 . S
H3428 C3401 0.931 . S
H3429 C3403 0.929 . S
H3430 C3404 0.930 . S
H3431 C3405 0.931 . S
H3432 C3412 0.932 . S
H3433 C3413 0.930 . S
H3434 C3414 0.929 . S
H3435 C3416 0.930 . S
H3436 C3418 0.932 . S
H3437 C3419 0.929 . S
H3438 C3420 0.928 . S
H3439 C3422 0.932 . S
C3440 C3441 1.264 . S
C3440 C3445 1.479 . S
C3440 C3450 1.465 . S
C3441 C3440 1.264 . S
C3441 C3443 1.339 . S
C3441 H3468 0.931 . S
C3442 C3443 1.395 . S
C3442 C3444 1.320 . S
C3443 C3441 1.339 . S
C3443 C3442 1.395 . S
C3443 H3469 0.929 . S
C3444 C3442 1.320 . S
C3444 C3445 1.405 . S
C3444 H3470 0.930 . S
C3445 C3440 1.479 . S
C3445 C3444 1.405 . S
C3445 H3471 0.931 . S
U3446 O3447 2.454 . S
U3446 O3448 2.458 . S
U3446 C3449 2.984 . S
U3446 C3450 2.847 . S
U3446 C3463 2.882 . S
U3446 O3464 2.441 . S
U3446 O3465 2.420 . S
U3446 O3466 2.455 . S
U3446 O3467 2.449 . S
O3447 U3446 2.454 . S
O3447 C3449 1.353 . S
O3448 U3446 2.458 . S
O3448 C3449 1.286 . S
C3449 U3446 2.984 . S
C3449 O3447 1.353 . S
C3449 O3448 1.286 . S
C3449 C3451 1.363 . S
C3450 C3440 1.465 . S
C3450 U3446 2.847 . S
C3450 O3464 1.249 . S
C3450 O3465 1.202 . S
C3451 C3449 1.363 . S
C3451 C3453 1.408 . S
C3451 C3456 1.342 . S
C3452 C3453 1.310 . S
C3452 C3455 1.461 . S
C3452 H3472 0.932 . S
C3453 C3451 1.408 . S
C3453 C3452 1.310 . S
C3453 H3473 0.930 . S
C3454 C3455 1.474 . S
C3454 C3456 1.285 . S
C3454 H3474 0.929 . S
C3455 C3452 1.461 . S
C3455 C3454 1.474 . S
C3456 C3451 1.342 . S
C3456 C3454 1.285 . S
C3456 H3475 0.930 . S
C3457 C3460 1.424 . S
C3457 C3462 1.245 . S
C3457 C3463 1.428 . S
C3458 C3461 1.260 . S
C3458 C3462 1.477 . S
C3458 H3476 0.932 . S
C3459 C3460 1.384 . S
C3459 C3461 1.479 . S
C3459 H3477 0.929 . S
C3460 C3457 1.424 . S
C3460 C3459 1.384 . S
C3460 H3478 0.928 . S
C3461 C3458 1.260 . S
C3461 C3459 1.479 . S
C3462 C3457 1.245 . S
C3462 C3458 1.477 . S
C3462 H3479 0.932 . S
C3463 U3446 2.882 . S
C3463 C3457 1.428 . S
C3463 O3466 1.301 . S
C3463 O3467 1.282 . S
O3464 U3446 2.441 . S
O3464 C3450 1.249 . S
O3465 U3446 2.420 . S
O3465 C3450 1.202 . S
O3466 U3446 2.455 . S
O3466 C3463 1.301 . S
O3467 U3446 2.449 . S
O3467 C3463 1.282 . S
H3468 C3441 0.931 . S
H3469 C3443 0.929 . S
H3470 C3444 0.930 . S
H3471 C3445 0.931 . S
H3472 C3452 0.932 . S
H3473 C3453 0.930 . S
H3474 C3454 0.929 . S
H3475 C3456 0.930 . S
H3476 C3458 0.932 . S
H3477 C3459 0.929 . S
H3478 C3460 0.928 . S
H3479 C3462 0.932 . S
C3480 C3481 1.264 . S
C3480 C3485 1.479 . S
C3480 C3490 1.465 . S
C3481 C3480 1.264 . S
C3481 C3483 1.339 . S
C3481 H3508 0.931 . S
C3482 C3483 1.395 . S
C3482 C3484 1.320 . S
C3483 C3481 1.339 . S
C3483 C3482 1.395 . S
C3483 H3509 0.929 . S
C3484 C3482 1.320 . S
C3484 C3485 1.405 . S
C3484 H3510 0.930 . S
C3485 C3480 1.479 . S
C3485 C3484 1.405 . S
C3485 H3511 0.931 . S
U3486 O3487 2.454 . S
U3486 O3488 2.458 . S
U3486 C3489 2.984 . S
U3486 C3490 2.847 . S
U3486 C3503 2.882 . S
U3486 O3504 2.441 . S
U3486 O3505 2.420 . S
U3486 O3506 2.455 . S
U3486 O3507 2.449 . S
O3487 U3486 2.454 . S
O3487 C3489 1.353 . S
O3488 U3486 2.458 . S
O3488 C3489 1.286 . S
C3489 U3486 2.984 . S
C3489 O3487 1.353 . S
C3489 O3488 1.286 . S
C3489 C3491 1.363 . S
C3490 C3480 1.465 . S
C3490 U3486 2.847 . S
C3490 O3504 1.249 . S
C3490 O3505 1.202 . S
C3491 C3489 1.363 . S
C3491 C3493 1.408 . S
C3491 C3496 1.342 . S
C3492 C3493 1.310 . S
C3492 C3495 1.461 . S
C3492 H3512 0.932 . S
C3493 C3491 1.408 . S
C3493 C3492 1.310 . S
C3493 H3513 0.930 . S
C3494 C3495 1.474 . S
C3494 C3496 1.285 . S
C3494 H3514 0.929 . S
C3495 C3492 1.461 . S
C3495 C3494 1.474 . S
C3496 C3491 1.342 . S
C3496 C3494 1.285 . S
C3496 H3515 0.930 . S
C3497 C3500 1.424 . S
C3497 C3502 1.245 . S
C3497 C3503 1.428 . S
C3498 C3501 1.260 . S
C3498 C3502 1.477 . S
C3498 H3516 0.932 . S
C3499 C3500 1.384 . S
C3499 C3501 1.479 . S
C3499 H3517 0.929 . S
C3500 C3497 1.424 . S
C3500 C3499 1.384 . S
C3500 H3518 0.928 . S
C3501 C3498 1.260 . S
C3501 C3499 1.479 . S
C3502 C3497 1.245 . S
C3502 C3498 1.477 . S
C3502 H3519 0.932 . S
C3503 U3486 2.882 . S
C3503 C3497 1.428 . S
C3503 O3506 1.301 . S
C3503 O3507 1.282 . S
O3504 U3486 2.441 . S
O3504 C3490 1.249 . S
O3505 U3486 2.420 . S
O3505 C3490 1.202 . S
O3506 U3486 2.455 . S
O3506 C3503 1.301 . S
O3507 U3486 2.449 . S
O3507 C3503 1.282 . S
H3508 C3481 0.931 . S
H3509 C3483 0.929 . S
H3510 C3484 0.930 . S
H3511 C3485 0.931 . S
H3512 C3492 0.932 . S
H3513 C3493 0.930 . S
H3514 C3494 0.929 . S
H3515 C3496 0.930 . S
H3516 C3498 0.932 . S
H3517 C3499 0.929 . S
H3518 C3500 0.928 . S
H3519 C3502 0.932 . S
C3520 C3521 1.264 . S
C3520 C3525 1.479 . S
C3520 C3530 1.465 . S
C3521 C3520 1.264 . S
C3521 C3523 1.339 . S
C3521 H3548 0.931 . S
C3522 C3523 1.395 . S
C3522 C3524 1.320 . S
C3523 C3521 1.339 . S
C3523 C3522 1.395 . S
C3523 H3549 0.929 . S
C3524 C3522 1.320 . S
C3524 C3525 1.405 . S
C3524 H3550 0.930 . S
C3525 C3520 1.479 . S
C3525 C3524 1.405 . S
C3525 H3551 0.931 . S
U3526 O3527 2.454 . S
U3526 O3528 2.458 . S
U3526 C3529 2.984 . S
U3526 C3530 2.847 . S
U3526 C3543 2.882 . S
U3526 O3544 2.441 . S
U3526 O3545 2.420 . S
U3526 O3546 2.455 . S
U3526 O3547 2.449 . S
O3527 U3526 2.454 . S
O3527 C3529 1.353 . S
O3528 U3526 2.458 . S
O3528 C3529 1.286 . S
C3529 U3526 2.984 . S
C3529 O3527 1.353 . S
C3529 O3528 1.286 . S
C3529 C3531 1.363 . S
C3530 C3520 1.465 . S
C3530 U3526 2.847 . S
C3530 O3544 1.249 . S
C3530 O3545 1.202 . S
C3531 C3529 1.363 . S
C3531 C3533 1.408 . S
C3531 C3536 1.342 . S
C3532 C3533 1.310 . S
C3532 C3535 1.461 . S
C3532 H3552 0.932 . S
C3533 C3531 1.408 . S
C3533 C3532 1.310 . S
C3533 H3553 0.930 . S
C3534 C3535 1.474 . S
C3534 C3536 1.285 . S
C3534 H3554 0.929 . S
C3535 C3532 1.461 . S
C3535 C3534 1.474 . S
C3536 C3531 1.342 . S
C3536 C3534 1.285 . S
C3536 H3555 0.930 . S
C3537 C3540 1.424 . S
C3537 C3542 1.245 . S
C3537 C3543 1.428 . S
C3538 C3541 1.260 . S
C3538 C3542 1.477 . S
C3538 H3556 0.932 . S
C3539 C3540 1.384 . S
C3539 C3541 1.479 . S
C3539 H3557 0.929 . S
C3540 C3537 1.424 . S
C3540 C3539 1.384 . S
C3540 H3558 0.928 . S
C3541 C3538 1.260 . S
C3541 C3539 1.479 . S
C3542 C3537 1.245 . S
C3542 C3538 1.477 . S
C3542 H3559 0.932 . S
C3543 U3526 2.882 . S
C3543 C3537 1.428 . S
C3543 O3546 1.301 . S
C3543 O3547 1.282 . S
O3544 U3526 2.441 . S
O3544 C3530 1.249 . S
O3545 U3526 2.420 . S
O3545 C3530 1.202 . S
O3546 U3526 2.455 . S
O3546 C3543 1.301 . S
O3547 U3526 2.449 . S
O3547 C3543 1.282 . S
H3548 C3521 0.931 . S
H3549 C3523 0.929 . S
H3550 C3524 0.930 . S
H3551 C3525 0.931 . S
H3552 C3532 0.932 . S
H3553 C3533 0.930 . S
H3554 C3534 0.929 . S
H3555 C3536 0.930 . S
H3556 C3538 0.932 . S
H3557 C3539 0.929 . S
H3558 C3540 0.928 . S
H3559 C3542 0.932 . S
C3560 C3561 1.264 . S
C3560 C3565 1.479 . S
C3560 C3570 1.465 . S
C3561 C3560 1.264 . S
C3561 C3563 1.339 . S
C3561 H3588 0.931 . S
C3562 C3563 1.395 . S
C3562 C3564 1.320 . S
C3563 C3561 1.339 . S
C3563 C3562 1.395 . S
C3563 H3589 0.929 . S
C3564 C3562 1.320 . S
C3564 C3565 1.405 . S
C3564 H3590 0.930 . S
C3565 C3560 1.479 . S
C3565 C3564 1.405 . S
C3565 H3591 0.931 . S
U3566 O3567 2.454 . S
U3566 O3568 2.458 . S
U3566 C3569 2.984 . S
U3566 C3570 2.847 . S
U3566 C3583 2.882 . S
U3566 O3584 2.441 . S
U3566 O3585 2.420 . S
U3566 O3586 2.455 . S
U3566 O3587 2.449 . S
O3567 U3566 2.454 . S
O3567 C3569 1.353 . S
O3568 U3566 2.458 . S
O3568 C3569 1.286 . S
C3569 U3566 2.984 . S
C3569 O3567 1.353 . S
C3569 O3568 1.286 . S
C3569 C3571 1.363 . S
C3570 C3560 1.465 . S
C3570 U3566 2.847 . S
C3570 O3584 1.249 . S
C3570 O3585 1.202 . S
C3571 C3569 1.363 . S
C3571 C3573 1.408 . S
C3571 C3576 1.342 . S
C3572 C3573 1.310 . S
C3572 C3575 1.461 . S
C3572 H3592 0.932 . S
C3573 C3571 1.408 . S
C3573 C3572 1.310 . S
C3573 H3593 0.930 . S
C3574 C3575 1.474 . S
C3574 C3576 1.285 . S
C3574 H3594 0.929 . S
C3575 C3572 1.461 . S
C3575 C3574 1.474 . S
C3576 C3571 1.342 . S
C3576 C3574 1.285 . S
C3576 H3595 0.930 . S
C3577 C3580 1.424 . S
C3577 C3582 1.245 . S
C3577 C3583 1.428 . S
C3578 C3581 1.260 . S
C3578 C3582 1.477 . S
C3578 H3596 0.932 . S
C3579 C3580 1.384 . S
C3579 C3581 1.479 . S
C3579 H3597 0.929 . S
C3580 C3577 1.424 . S
C3580 C3579 1.384 . S
C3580 H3598 0.928 . S
C3581 C3578 1.260 . S
C3581 C3579 1.479 . S
C3582 C3577 1.245 . S
C3582 C3578 1.477 . S
C3582 H3599 0.932 . S
C3583 U3566 2.882 . S
C3583 C3577 1.428 . S
C3583 O3586 1.301 . S
C3583 O3587 1.282 . S
O3584 U3566 2.441 . S
O3584 C3570 1.249 . S
O3585 U3566 2.420 . S
O3585 C3570 1.202 . S
O3586 U3566 2.455 . S
O3586 C3583 1.301 . S
O3587 U3566 2.449 . S
O3587 C3583 1.282 . S
H3588 C3561 0.931 . S
H3589 C3563 0.929 . S
H3590 C3564 0.930 . S
H3591 C3565 0.931 . S
H3592 C3572 0.932 . S
H3593 C3573 0.930 . S
H3594 C3574 0.929 . S
H3595 C3576 0.930 . S
H3596 C3578 0.932 . S
H3597 C3579 0.929 . S
H3598 C3580 0.928 . S
H3599 C3582 0.932 . S
C3600 C3601 1.264 . S
C3600 C3605 1.479 . S
C3600 C3610 1.465 . S
C3601 C3600 1.264 . S
C3601 C3603 1.339 . S
C3601 H3628 0.931 . S
C3602 C3603 1.395 . S
C3602 C3604 1.320 . S
C3603 C3601 1.339 . S
C3603 C3602 1.395 . S
C3603 H3629 0.929 . S
C3604 C3602 1.320 . S
C3604 C3605 1.405 . S
C3604 H3630 0.930 . S
C3605 C3600 1.479 . S
C3605 C3604 1.405 . S
C3605 H3631 0.931 . S
U3606 O3607 2.454 . S
U3606 O3608 2.458 . S
U3606 C3609 2.984 . S
U3606 C3610 2.847 . S
U3606 C3623 2.882 . S
U3606 O3624 2.441 . S
U3606 O3625 2.420 . S
U3606 O3626 2.455 . S
U3606 O3627 2.449 . S
O3607 U3606 2.454 . S
O3607 C3609 1.353 . S
O3608 U3606 2.458 . S
O3608 C3609 1.286 . S
C3609 U3606 2.984 . S
C3609 O3607 1.353 . S
C3609 O3608 1.286 . S
C3609 C3611 1.363 . S
C3610 C3600 1.465 . S
C3610 U3606 2.847 . S
C3610 O3624 1.249 . S
C3610 O3625 1.202 . S
C3611 C3609 1.363 . S
C3611 C3613 1.408 . S
C3611 C3616 1.342 . S
C3612 C3613 1.310 . S
C3612 C3615 1.461 . S
C3612 H3632 0.932 . S
C3613 C3611 1.408 . S
C3613 C3612 1.310 . S
C3613 H3633 0.930 . S
C3614 C3615 1.474 . S
C3614 C3616 1.285 . S
C3614 H3634 0.929 . S
C3615 C3612 1.461 . S
C3615 C3614 1.474 . S
C3616 C3611 1.342 . S
C3616 C3614 1.285 . S
C3616 H3635 0.930 . S
C3617 C3620 1.424 . S
C3617 C3622 1.245 . S
C3617 C3623 1.428 . S
C3618 C3621 1.260 . S
C3618 C3622 1.477 . S
C3618 H3636 0.932 . S
C3619 C3620 1.384 . S
C3619 C3621 1.479 . S
C3619 H3637 0.929 . S
C3620 C3617 1.424 . S
C3620 C3619 1.384 . S
C3620 H3638 0.928 . S
C3621 C3618 1.260 . S
C3621 C3619 1.479 . S
C3622 C3617 1.245 . S
C3622 C3618 1.477 . S
C3622 H3639 0.932 . S
C3623 U3606 2.882 . S
C3623 C3617 1.428 . S
C3623 O3626 1.301 . S
C3623 O3627 1.282 . S
O3624 U3606 2.441 . S
O3624 C3610 1.249 . S
O3625 U3606 2.420 . S
O3625 C3610 1.202 . S
O3626 U3606 2.455 . S
O3626 C3623 1.301 . S
O3627 U3606 2.449 . S
O3627 C3623 1.282 . S
H3628 C3601 0.931 . S
H3629 C3603 0.929 . S
H3630 C3604 0.930 . S
H3631 C3605 0.931 . S
H3632 C3612 0.932 . S
H3633 C3613 0.930 . S
H3634 C3614 0.929 . S
H3635 C3616 0.930 . S
H3636 C3618 0.932 . S
H3637 C3619 0.929 . S
H3638 C3620 0.928 . S
H3639 C3622 0.932 . S
C3640 C3641 1.264 . S
C3640 C3645 1.479 . S
C3640 C3650 1.465 . S
C3641 C3640 1.264 . S
C3641 C3643 1.339 . S
C3641 H3668 0.931 . S
C3642 C3643 1.395 . S
C3642 C3644 1.320 . S
C3643 C3641 1.339 . S
C3643 C3642 1.395 . S
C3643 H3669 0.929 . S
C3644 C3642 1.320 . S
C3644 C3645 1.405 . S
C3644 H3670 0.930 . S
C3645 C3640 1.479 . S
C3645 C3644 1.405 . S
C3645 H3671 0.931 . S
U3646 O3647 2.454 . S
U3646 O3648 2.458 . S
U3646 C3649 2.984 . S
U3646 C3650 2.847 . S
U3646 C3663 2.882 . S
U3646 O3664 2.441 . S
U3646 O3665 2.420 . S
U3646 O3666 2.455 . S
U3646 O3667 2.449 . S
O3647 U3646 2.454 . S
O3647 C3649 1.353 . S
O3648 U3646 2.458 . S
O3648 C3649 1.286 . S
C3649 U3646 2.984 . S
C3649 O3647 1.353 . S
C3649 O3648 1.286 . S
C3649 C3651 1.363 . S
C3650 C3640 1.465 . S
C3650 U3646 2.847 . S
C3650 O3664 1.249 . S
C3650 O3665 1.202 . S
C3651 C3649 1.363 . S
C3651 C3653 1.408 . S
C3651 C3656 1.342 . S
C3652 C3653 1.310 . S
C3652 C3655 1.461 . S
C3652 H3672 0.932 . S
C3653 C3651 1.408 . S
C3653 C3652 1.310 . S
C3653 H3673 0.930 . S
C3654 C3655 1.474 . S
C3654 C3656 1.285 . S
C3654 H3674 0.929 . S
C3655 C3652 1.461 . S
C3655 C3654 1.474 . S
C3656 C3651 1.342 . S
C3656 C3654 1.285 . S
C3656 H3675 0.930 . S
C3657 C3660 1.424 . S
C3657 C3662 1.245 . S
C3657 C3663 1.428 . S
C3658 C3661 1.260 . S
C3658 C3662 1.477 . S
C3658 H3676 0.932 . S
C3659 C3660 1.384 . S
C3659 C3661 1.479 . S
C3659 H3677 0.929 . S
C3660 C3657 1.424 . S
C3660 C3659 1.384 . S
C3660 H3678 0.928 . S
C3661 C3658 1.260 . S
C3661 C3659 1.479 . S
C3662 C3657 1.245 . S
C3662 C3658 1.477 . S
C3662 H3679 0.932 . S
C3663 U3646 2.882 . S
C3663 C3657 1.428 . S
C3663 O3666 1.301 . S
C3663 O3667 1.282 . S
O3664 U3646 2.441 . S
O3664 C3650 1.249 . S
O3665 U3646 2.420 . S
O3665 C3650 1.202 . S
O3666 U3646 2.455 . S
O3666 C3663 1.301 . S
O3667 U3646 2.449 . S
O3667 C3663 1.282 . S
H3668 C3641 0.931 . S
H3669 C3643 0.929 . S
H3670 C3644 0.930 . S
H3671 C3645 0.931 . S
H3672 C3652 0.932 . S
H3673 C3653 0.930 . S
H3674 C3654 0.929 . S
H3675 C3656 0.930 . S
H3676 C3658 0.932 . S
H3677 C3659 0.929 . S
H3678 C3660 0.928 . S
H3679 C3662 0.932 . S
C3680 C3681 1.264 . S
C3680 C3685 1.479 . S
C3680 C3690 1.465 . S
C3681 C3680 1.264 . S
C3681 C3683 1.339 . S
C3681 H3708 0.931 . S
C3682 C3683 1.395 . S
C3682 C3684 1.320 . S
C3683 C3681 1.339 . S
C3683 C3682 1.395 . S
C3683 H3709 0.929 . S
C3684 C3682 1.320 . S
C3684 C3685 1.405 . S
C3684 H3710 0.930 . S
C3685 C3680 1.479 . S
C3685 C3684 1.405 . S
C3685 H3711 0.931 . S
U3686 O3687 2.454 . S
U3686 O3688 2.458 . S
U3686 C3689 2.984 . S
U3686 C3690 2.847 . S
U3686 C3703 2.882 . S
U3686 O3704 2.441 . S
U3686 O3705 2.420 . S
U3686 O3706 2.455 . S
U3686 O3707 2.449 . S
O3687 U3686 2.454 . S
O3687 C3689 1.353 . S
O3688 U3686 2.458 . S
O3688 C3689 1.286 . S
C3689 U3686 2.984 . S
C3689 O3687 1.353 . S
C3689 O3688 1.286 . S
C3689 C3691 1.363 . S
C3690 C3680 1.465 . S
C3690 U3686 2.847 . S
C3690 O3704 1.249 . S
C3690 O3705 1.202 . S
C3691 C3689 1.363 . S
C3691 C3693 1.408 . S
C3691 C3696 1.342 . S
C3692 C3693 1.310 . S
C3692 C3695 1.461 . S
C3692 H3712 0.932 . S
C3693 C3691 1.408 . S
C3693 C3692 1.310 . S
C3693 H3713 0.930 . S
C3694 C3695 1.474 . S
C3694 C3696 1.285 . S
C3694 H3714 0.929 . S
C3695 C3692 1.461 . S
C3695 C3694 1.474 . S
C3696 C3691 1.342 . S
C3696 C3694 1.285 . S
C3696 H3715 0.930 . S
C3697 C3700 1.424 . S
C3697 C3702 1.245 . S
C3697 C3703 1.428 . S
C3698 C3701 1.260 . S
C3698 C3702 1.477 . S
C3698 H3716 0.932 . S
C3699 C3700 1.384 . S
C3699 C3701 1.479 . S
C3699 H3717 0.929 . S
C3700 C3697 1.424 . S
C3700 C3699 1.384 . S
C3700 H3718 0.928 . S
C3701 C3698 1.260 . S
C3701 C3699 1.479 . S
C3702 C3697 1.245 . S
C3702 C3698 1.477 . S
C3702 H3719 0.932 . S
C3703 U3686 2.882 . S
C3703 C3697 1.428 . S
C3703 O3706 1.301 . S
C3703 O3707 1.282 . S
O3704 U3686 2.441 . S
O3704 C3690 1.249 . S
O3705 U3686 2.420 . S
O3705 C3690 1.202 . S
O3706 U3686 2.455 . S
O3706 C3703 1.301 . S
O3707 U3686 2.449 . S
O3707 C3703 1.282 . S
H3708 C3681 0.931 . S
H3709 C3683 0.929 . S
H3710 C3684 0.930 . S
H3711 C3685 0.931 . S
H3712 C3692 0.932 . S
H3713 C3693 0.930 . S
H3714 C3694 0.929 . S
H3715 C3696 0.930 . S
H3716 C3698 0.932 . S
H3717 C3699 0.929 . S
H3718 C3700 0.928 . S
H3719 C3702 0.932 . S
C3720 C3721 1.264 . S
C3720 C3725 1.479 . S
C3720 C3730 1.465 . S
C3721 C3720 1.264 . S
C3721 C3723 1.339 . S
C3721 H3748 0.931 . S
C3722 C3723 1.395 . S
C3722 C3724 1.320 . S
C3723 C3721 1.339 . S
C3723 C3722 1.395 . S
C3723 H3749 0.929 . S
C3724 C3722 1.320 . S
C3724 C3725 1.405 . S
C3724 H3750 0.930 . S
C3725 C3720 1.479 . S
C3725 C3724 1.405 . S
C3725 H3751 0.931 . S
U3726 O3727 2.454 . S
U3726 O3728 2.458 . S
U3726 C3729 2.984 . S
U3726 C3730 2.847 . S
U3726 C3743 2.882 . S
U3726 O3744 2.441 . S
U3726 O3745 2.420 . S
U3726 O3746 2.455 . S
U3726 O3747 2.449 . S
O3727 U3726 2.454 . S
O3727 C3729 1.353 . S
O3728 U3726 2.458 . S
O3728 C3729 1.286 . S
C3729 U3726 2.984 . S
C3729 O3727 1.353 . S
C3729 O3728 1.286 . S
C3729 C3731 1.363 . S
C3730 C3720 1.465 . S
C3730 U3726 2.847 . S
C3730 O3744 1.249 . S
C3730 O3745 1.202 . S
C3731 C3729 1.363 . S
C3731 C3733 1.408 . S
C3731 C3736 1.342 . S
C3732 C3733 1.310 . S
C3732 C3735 1.461 . S
C3732 H3752 0.932 . S
C3733 C3731 1.408 . S
C3733 C3732 1.310 . S
C3733 H3753 0.930 . S
C3734 C3735 1.474 . S
C3734 C3736 1.285 . S
C3734 H3754 0.929 . S
C3735 C3732 1.461 . S
C3735 C3734 1.474 . S
C3736 C3731 1.342 . S
C3736 C3734 1.285 . S
C3736 H3755 0.930 . S
C3737 C3740 1.424 . S
C3737 C3742 1.245 . S
C3737 C3743 1.428 . S
C3738 C3741 1.260 . S
C3738 C3742 1.477 . S
C3738 H3756 0.932 . S
C3739 C3740 1.384 . S
C3739 C3741 1.479 . S
C3739 H3757 0.929 . S
C3740 C3737 1.424 . S
C3740 C3739 1.384 . S
C3740 H3758 0.928 . S
C3741 C3738 1.260 . S
C3741 C3739 1.479 . S
C3742 C3737 1.245 . S
C3742 C3738 1.477 . S
C3742 H3759 0.932 . S
C3743 U3726 2.882 . S
C3743 C3737 1.428 . S
C3743 O3746 1.301 . S
C3743 O3747 1.282 . S
O3744 U3726 2.441 . S
O3744 C3730 1.249 . S
O3745 U3726 2.420 . S
O3745 C3730 1.202 . S
O3746 U3726 2.455 . S
O3746 C3743 1.301 . S
O3747 U3726 2.449 . S
O3747 C3743 1.282 . S
H3748 C3721 0.931 . S
H3749 C3723 0.929 . S
H3750 C3724 0.930 . S
H3751 C3725 0.931 . S
H3752 C3732 0.932 . S
H3753 C3733 0.930 . S
H3754 C3734 0.929 . S
H3755 C3736 0.930 . S
H3756 C3738 0.932 . S
H3757 C3739 0.929 . S
H3758 C3740 0.928 . S
H3759 C3742 0.932 . S
C3760 C3761 1.264 . S
C3760 C3765 1.479 . S
C3760 C3770 1.465 . S
C3761 C3760 1.264 . S
C3761 C3763 1.339 . S
C3761 H3788 0.931 . S
C3762 C3763 1.395 . S
C3762 C3764 1.320 . S
C3763 C3761 1.339 . S
C3763 C3762 1.395 . S
C3763 H3789 0.929 . S
C3764 C3762 1.320 . S
C3764 C3765 1.405 . S
C3764 H3790 0.930 . S
C3765 C3760 1.479 . S
C3765 C3764 1.405 . S
C3765 H3791 0.931 . S
U3766 O3767 2.454 . S
U3766 O3768 2.458 . S
U3766 C3769 2.984 . S
U3766 C3770 2.847 . S
U3766 C3783 2.882 . S
U3766 O3784 2.441 . S
U3766 O3785 2.420 . S
U3766 O3786 2.455 . S
U3766 O3787 2.449 . S
O3767 U3766 2.454 . S
O3767 C3769 1.353 . S
O3768 U3766 2.458 . S
O3768 C3769 1.286 . S
C3769 U3766 2.984 . S
C3769 O3767 1.353 . S
C3769 O3768 1.286 . S
C3769 C3771 1.363 . S
C3770 C3760 1.465 . S
C3770 U3766 2.847 . S
C3770 O3784 1.249 . S
C3770 O3785 1.202 . S
C3771 C3769 1.363 . S
C3771 C3773 1.408 . S
C3771 C3776 1.342 . S
C3772 C3773 1.310 . S
C3772 C3775 1.461 . S
C3772 H3792 0.932 . S
C3773 C3771 1.408 . S
C3773 C3772 1.310 . S
C3773 H3793 0.930 . S
C3774 C3775 1.474 . S
C3774 C3776 1.285 . S
C3774 H3794 0.929 . S
C3775 C3772 1.461 . S
C3775 C3774 1.474 . S
C3776 C3771 1.342 . S
C3776 C3774 1.285 . S
C3776 H3795 0.930 . S
C3777 C3780 1.424 . S
C3777 C3782 1.245 . S
C3777 C3783 1.428 . S
C3778 C3781 1.260 . S
C3778 C3782 1.477 . S
C3778 H3796 0.932 . S
C3779 C3780 1.384 . S
C3779 C3781 1.479 . S
C3779 H3797 0.929 . S
C3780 C3777 1.424 . S
C3780 C3779 1.384 . S
C3780 H3798 0.928 . S
C3781 C3778 1.260 . S
C3781 C3779 1.479 . S
C3782 C3777 1.245 . S
C3782 C3778 1.477 . S
C3782 H3799 0.932 . S
C3783 U3766 2.882 . S
C3783 C3777 1.428 . S
C3783 O3786 1.301 . S
C3783 O3787 1.282 . S
O3784 U3766 2.441 . S
O3784 C3770 1.249 . S
O3785 U3766 2.420 . S
O3785 C3770 1.202 . S
O3786 U3766 2.455 . S
O3786 C3783 1.301 . S
O3787 U3766 2.449 . S
O3787 C3783 1.282 . S
H3788 C3761 0.931 . S
H3789 C3763 0.929 . S
H3790 C3764 0.930 . S
H3791 C3765 0.931 . S
H3792 C3772 0.932 . S
H3793 C3773 0.930 . S
H3794 C3774 0.929 . S
H3795 C3776 0.930 . S
H3796 C3778 0.932 . S
H3797 C3779 0.929 . S
H3798 C3780 0.928 . S
H3799 C3782 0.932 . S
C3800 C3801 1.264 . S
C3800 C3805 1.479 . S
C3800 C3810 1.465 . S
C3801 C3800 1.264 . S
C3801 C3803 1.339 . S
C3801 H3828 0.931 . S
C3802 C3803 1.395 . S
C3802 C3804 1.320 . S
C3803 C3801 1.339 . S
C3803 C3802 1.395 . S
C3803 H3829 0.929 . S
C3804 C3802 1.320 . S
C3804 C3805 1.405 . S
C3804 H3830 0.930 . S
C3805 C3800 1.479 . S
C3805 C3804 1.405 . S
C3805 H3831 0.931 . S
U3806 O3807 2.454 . S
U3806 O3808 2.458 . S
U3806 C3809 2.984 . S
U3806 C3810 2.847 . S
U3806 C3823 2.882 . S
U3806 O3824 2.441 . S
U3806 O3825 2.420 . S
U3806 O3826 2.455 . S
U3806 O3827 2.449 . S
O3807 U3806 2.454 . S
O3807 C3809 1.353 . S
O3808 U3806 2.458 . S
O3808 C3809 1.286 . S
C3809 U3806 2.984 . S
C3809 O3807 1.353 . S
C3809 O3808 1.286 . S
C3809 C3811 1.363 . S
C3810 C3800 1.465 . S
C3810 U3806 2.847 . S
C3810 O3824 1.249 . S
C3810 O3825 1.202 . S
C3811 C3809 1.363 . S
C3811 C3813 1.408 . S
C3811 C3816 1.342 . S
C3812 C3813 1.310 . S
C3812 C3815 1.461 . S
C3812 H3832 0.932 . S
C3813 C3811 1.408 . S
C3813 C3812 1.310 . S
C3813 H3833 0.930 . S
C3814 C3815 1.474 . S
C3814 C3816 1.285 . S
C3814 H3834 0.929 . S
C3815 C3812 1.461 . S
C3815 C3814 1.474 . S
C3816 C3811 1.342 . S
C3816 C3814 1.285 . S
C3816 H3835 0.930 . S
C3817 C3820 1.424 . S
C3817 C3822 1.245 . S
C3817 C3823 1.428 . S
C3818 C3821 1.260 . S
C3818 C3822 1.477 . S
C3818 H3836 0.932 . S
C3819 C3820 1.384 . S
C3819 C3821 1.479 . S
C3819 H3837 0.929 . S
C3820 C3817 1.424 . S
C3820 C3819 1.384 . S
C3820 H3838 0.928 . S
C3821 C3818 1.260 . S
C3821 C3819 1.479 . S
C3822 C3817 1.245 . S
C3822 C3818 1.477 . S
C3822 H3839 0.932 . S
C3823 U3806 2.882 . S
C3823 C3817 1.428 . S
C3823 O3826 1.301 . S
C3823 O3827 1.282 . S
O3824 U3806 2.441 . S
O3824 C3810 1.249 . S
O3825 U3806 2.420 . S
O3825 C3810 1.202 . S
O3826 U3806 2.455 . S
O3826 C3823 1.301 . S
O3827 U3806 2.449 . S
O3827 C3823 1.282 . S
H3828 C3801 0.931 . S
H3829 C3803 0.929 . S
H3830 C3804 0.930 . S
H3831 C3805 0.931 . S
H3832 C3812 0.932 . S
H3833 C3813 0.930 . S
H3834 C3814 0.929 . S
H3835 C3816 0.930 . S
H3836 C3818 0.932 . S
H3837 C3819 0.929 . S
H3838 C3820 0.928 . S
H3839 C3822 0.932 . S
H3840 C3848 0.929 . S
H3841 C3850 0.930 . S
H3842 C3852 0.930 . S
H3843 C3855 0.929 . S
H3844 C3858 0.930 . S
H3845 C3860 0.960 . S
H3846 C3860 0.960 . S
H3847 C3860 0.960 . S
C3848 H3840 0.929 . S
C3848 C3849 1.377 . S
C3848 C3850 1.384 . S
C3849 C3848 1.377 . S
C3849 C3855 1.390 . S
C3850 H3841 0.930 . S
C3850 C3848 1.384 . S
C3850 C3851 1.372 . S
C3851 C3850 1.372 . S
C3851 C3852 1.400 . S
C3851 C3856 1.490 . S
C3852 H3842 0.930 . S
C3852 C3851 1.400 . S
C3852 C3855 1.386 . S
H3853 C3869 0.930 . S
H3854 C3870 0.931 . S
C3855 H3843 0.929 . S
C3855 C3849 1.390 . S
C3855 C3852 1.386 . S
C3856 C3851 1.490 . S
C3856 C3858 1.395 . S
C3856 C3859 1.403 . S
H3857 C3863 0.930 . S
C3858 H3844 0.930 . S
C3858 C3856 1.395 . S
C3858 C3861 1.403 . S
C3859 C3856 1.403 . S
C3859 C3860 1.524 . S
C3859 C3863 1.400 . S
C3860 H3845 0.960 . S
C3860 H3846 0.960 . S
C3860 H3847 0.960 . S
C3860 C3859 1.524 . S
C3861 C3858 1.403 . S
C3861 C3862 1.392 . S
C3861 C3865 1.495 . S
C3862 C3861 1.392 . S
C3862 C3863 1.385 . S
C3862 C3864 1.478 . S
C3863 H3857 0.930 . S
C3863 C3859 1.400 . S
C3863 C3862 1.385 . S
C3864 C3862 1.478 . S
C3864 C3866 1.381 . S
C3864 C3870 1.383 . S
C3865 C3861 1.495 . S
C3865 H3871 0.959 . S
C3865 H3872 0.961 . S
C3865 H3873 0.960 . S
C3866 C3864 1.381 . S
C3866 C3867 1.394 . S
C3866 H3874 0.930 . S
C3867 C3866 1.394 . S
C3867 C3868 1.383 . S
C3867 H3875 0.929 . S
C3868 C3867 1.383 . S
C3868 C3869 1.377 . S
C3869 H3853 0.930 . S
C3869 C3868 1.377 . S
C3869 C3870 1.379 . S
C3870 H3854 0.931 . S
C3870 C3864 1.383 . S
C3870 C3869 1.379 . S
H3871 C3865 0.959 . S
H3872 C3865 0.961 . S
H3873 C3865 0.960 . S
H3874 C3866 0.930 . S
H3875 C3867 0.929 . S
H3876 C3884 0.929 . S
H3877 C3886 0.930 . S
H3878 C3888 0.930 . S
H3879 C3891 0.929 . S
H3880 C3894 0.907 1_455 S
H3881 C3896 0.960 . S
H3882 C3896 0.960 . S
H3883 C3896 0.960 . S
C3884 H3876 0.929 . S
C3884 C3885 1.377 . S
C3884 C3886 1.384 . S
C3885 C3884 1.377 . S
C3885 C3891 1.390 . S
C3886 H3877 0.930 . S
C3886 C3884 1.384 . S
C3886 C3887 1.372 . S
C3887 C3886 1.372 . S
C3887 C3888 1.400 . S
C3887 C3892 1.490 1_455 S
C3888 H3878 0.930 . S
C3888 C3887 1.400 . S
C3888 C3891 1.386 . S
H3889 C3905 0.930 . S
H3890 C3906 0.931 . S
C3891 H3879 0.929 . S
C3891 C3885 1.390 . S
C3891 C3888 1.386 . S
C3892 C3887 1.490 1_655 S
C3892 C3894 1.395 . S
C3892 C3895 1.403 . S
H3893 C3899 0.930 . S
C3894 H3880 0.907 1_655 S
C3894 C3892 1.395 . S
C3894 C3897 1.403 . S
C3895 C3892 1.403 . S
C3895 C3896 1.524 . S
C3895 C3899 1.400 . S
C3896 H3881 0.960 . S
C3896 H3882 0.960 . S
C3896 H3883 0.960 . S
C3896 C3895 1.524 . S
C3897 C3894 1.403 . S
C3897 C3898 1.392 . S
C3897 C3901 1.495 . S
C3898 C3897 1.392 . S
C3898 C3899 1.385 . S
C3898 C3900 1.478 . S
C3899 H3893 0.930 . S
C3899 C3895 1.400 . S
C3899 C3898 1.385 . S
C3900 C3898 1.478 . S
C3900 C3902 1.381 . S
C3900 C3906 1.383 . S
C3901 C3897 1.495 . S
C3901 H3907 0.959 . S
C3901 H3908 0.961 . S
C3901 H3909 0.960 . S
C3902 C3900 1.381 . S
C3902 C3903 1.394 . S
C3902 H3910 0.930 . S
C3903 C3902 1.394 . S
C3903 C3904 1.383 . S
C3903 H3911 0.929 . S
C3904 C3903 1.383 . S
C3904 C3905 1.377 . S
C3905 H3889 0.930 . S
C3905 C3904 1.377 . S
C3905 C3906 1.379 . S
C3906 H3890 0.931 . S
C3906 C3900 1.383 . S
C3906 C3905 1.379 . S
H3907 C3901 0.959 . S
H3908 C3901 0.961 . S
H3909 C3901 0.960 . S
H3910 C3902 0.930 . S
H3911 C3903 0.929 . S
H3912 C3920 0.929 . S
H3913 C3922 0.930 . S
H3914 C3924 0.930 . S
H3915 C3927 0.929 . S
H3916 C3930 0.930 . S
H3917 C3932 0.960 . S
H3918 C3932 0.960 . S
H3919 C3932 0.960 . S
C3920 H3912 0.929 . S
C3920 C3921 1.377 . S
C3920 C3922 1.384 . S
C3921 C3920 1.377 . S
C3921 C3927 1.390 . S
C3922 H3913 0.930 . S
C3922 C3920 1.384 . S
C3922 C3923 1.372 . S
C3923 C3922 1.372 . S
C3923 C3924 1.400 . S
C3923 C3928 1.490 . S
C3924 H3914 0.930 . S
C3924 C3923 1.400 . S
C3924 C3927 1.386 . S
H3925 C3941 0.930 . S
H3926 C3942 0.931 . S
C3927 H3915 0.929 . S
C3927 C3921 1.390 . S
C3927 C3924 1.386 . S
C3928 C3923 1.490 . S
C3928 C3930 1.395 . S
C3928 C3931 1.403 . S
H3929 C3935 0.930 . S
C3930 H3916 0.930 . S
C3930 C3928 1.395 . S
C3930 C3933 1.403 . S
C3931 C3928 1.403 . S
C3931 C3932 1.524 . S
C3931 C3935 1.400 . S
C3932 H3917 0.960 . S
C3932 H3918 0.960 . S
C3932 H3919 0.960 . S
C3932 C3931 1.524 . S
C3933 C3930 1.403 . S
C3933 C3934 1.392 . S
C3933 C3937 1.495 . S
C3934 C3933 1.392 . S
C3934 C3935 1.385 . S
C3934 C3936 1.478 . S
C3935 H3929 0.930 . S
C3935 C3931 1.400 . S
C3935 C3934 1.385 . S
C3936 C3934 1.478 . S
C3936 C3938 1.381 . S
C3936 C3942 1.383 . S
C3937 C3933 1.495 . S
C3937 H3943 0.959 . S
C3937 H3944 0.961 . S
C3937 H3945 0.960 . S
C3938 C3936 1.381 . S
C3938 C3939 1.394 . S
C3938 H3946 0.930 . S
C3939 C3938 1.394 . S
C3939 C3940 1.383 . S
C3939 H3947 0.929 . S
C3940 C3939 1.383 . S
C3940 C3941 1.377 . S
C3941 H3925 0.930 . S
C3941 C3940 1.377 . S
C3941 C3942 1.379 . S
C3942 H3926 0.931 . S
C3942 C3936 1.383 . S
C3942 C3941 1.379 . S
H3943 C3937 0.959 . S
H3944 C3937 0.961 . S
H3945 C3937 0.960 . S
H3946 C3938 0.930 . S
H3947 C3939 0.929 . S
H3948 C3956 0.929 . S
H3949 C3958 0.930 . S
H3950 C3960 0.930 . S
H3951 C3963 0.929 . S
H3952 C3966 0.930 . S
H3953 C3968 0.960 . S
H3954 C3968 0.960 . S
H3955 C3968 0.960 . S
C3956 H3948 0.929 . S
C3956 C3957 1.377 . S
C3956 C3958 1.384 . S
C3957 C3956 1.377 . S
C3957 C3963 1.390 . S
C3958 H3949 0.930 . S
C3958 C3956 1.384 . S
C3958 C3959 1.372 . S
C3959 C3958 1.372 . S
C3959 C3960 1.400 . S
C3959 C3964 1.490 . S
C3960 H3950 0.930 . S
C3960 C3959 1.400 . S
C3960 C3963 1.386 . S
H3961 C3977 0.930 . S
H3962 C3978 0.931 . S
C3963 H3951 0.929 . S
C3963 C3957 1.390 . S
C3963 C3960 1.386 . S
C3964 C3959 1.490 . S
C3964 C3966 1.395 . S
C3964 C3967 1.403 . S
H3965 C3971 0.930 . S
C3966 H3952 0.930 . S
C3966 C3964 1.395 . S
C3966 C3969 1.403 . S
C3967 C3964 1.403 . S
C3967 C3968 1.524 . S
C3967 C3971 1.400 . S
C3968 H3953 0.960 . S
C3968 H3954 0.960 . S
C3968 H3955 0.960 . S
C3968 C3967 1.524 . S
C3969 C3966 1.403 . S
C3969 C3970 1.392 . S
C3969 C3973 1.495 . S
C3970 C3969 1.392 . S
C3970 C3971 1.385 . S
C3970 C3972 1.478 . S
C3971 H3965 0.930 . S
C3971 C3967 1.400 . S
C3971 C3970 1.385 . S
C3972 C3970 1.478 . S
C3972 C3974 1.381 . S
C3972 C3978 1.383 . S
C3973 C3969 1.495 . S
C3973 H3979 0.959 . S
C3973 H3980 0.961 . S
C3973 H3981 0.960 . S
C3974 C3972 1.381 . S
C3974 C3975 1.394 . S
C3974 H3982 0.930 . S
C3975 C3974 1.394 . S
C3975 C3976 1.383 . S
C3975 H3983 0.929 . S
C3976 C3975 1.383 . S
C3976 C3977 1.377 . S
C3977 H3961 0.930 . S
C3977 C3976 1.377 . S
C3977 C3978 1.379 . S
C3978 H3962 0.931 . S
C3978 C3972 1.383 . S
C3978 C3977 1.379 . S
H3979 C3973 0.959 . S
H3980 C3973 0.961 . S
H3981 C3973 0.960 . S
H3982 C3974 0.930 . S
H3983 C3975 0.929 . S
H3984 C3992 0.929 . S
H3985 C3994 0.930 . S
H3986 C3996 0.930 . S
H3987 C3999 0.929 . S
H3988 C4002 0.930 . S
H3989 C4004 0.960 . S
H3990 C4004 0.960 . S
H3991 C4004 0.960 . S
C3992 H3984 0.929 . S
C3992 C3993 1.377 . S
C3992 C3994 1.384 . S
C3993 C3992 1.377 . S
C3993 C3999 1.390 . S
C3994 H3985 0.930 . S
C3994 C3992 1.384 . S
C3994 C3995 1.372 . S
C3995 C3994 1.372 . S
C3995 C3996 1.400 . S
C3995 C4000 1.490 . S
C3996 H3986 0.930 . S
C3996 C3995 1.400 . S
C3996 C3999 1.386 . S
H3997 C4013 0.930 . S
H3998 C4014 0.931 . S
C3999 H3987 0.929 . S
C3999 C3993 1.390 . S
C3999 C3996 1.386 . S
C4000 C3995 1.490 . S
C4000 C4002 1.395 . S
C4000 C4003 1.403 . S
H4001 C4007 0.930 . S
C4002 H3988 0.930 . S
C4002 C4000 1.395 . S
C4002 C4005 1.403 . S
C4003 C4000 1.403 . S
C4003 C4004 1.524 . S
C4003 C4007 1.400 . S
C4004 H3989 0.960 . S
C4004 H3990 0.960 . S
C4004 H3991 0.960 . S
C4004 C4003 1.524 . S
C4005 C4002 1.403 . S
C4005 C4006 1.392 . S
C4005 C4009 1.495 . S
C4006 C4005 1.392 . S
C4006 C4007 1.385 . S
C4006 C4008 1.478 . S
C4007 H4001 0.930 . S
C4007 C4003 1.400 . S
C4007 C4006 1.385 . S
C4008 C4006 1.478 . S
C4008 C4010 1.381 . S
C4008 C4014 1.383 . S
C4009 C4005 1.495 . S
C4009 H4015 0.959 . S
C4009 H4016 0.961 . S
C4009 H4017 0.960 . S
C4010 C4008 1.381 . S
C4010 C4011 1.394 . S
C4010 H4018 0.930 . S
C4011 C4010 1.394 . S
C4011 C4012 1.383 . S
C4011 H4019 0.929 . S
C4012 C4011 1.383 . S
C4012 C4013 1.377 . S
C4013 H3997 0.930 . S
C4013 C4012 1.377 . S
C4013 C4014 1.379 . S
C4014 H3998 0.931 . S
C4014 C4008 1.383 . S
C4014 C4013 1.379 . S
H4015 C4009 0.959 . S
H4016 C4009 0.961 . S
H4017 C4009 0.960 . S
H4018 C4010 0.930 . S
H4019 C4011 0.929 . S
H4020 C4028 0.929 . S
H4021 C4030 0.930 . S
H4022 C4032 0.930 . S
H4023 C4035 0.929 . S
H4024 C4038 0.930 . S
H4025 C4040 0.960 . S
H4026 C4040 0.960 . S
H4027 C4040 0.960 . S
C4028 H4020 0.929 . S
C4028 C4029 1.377 . S
C4028 C4030 1.384 . S
C4029 C4028 1.377 . S
C4029 C4035 1.390 . S
C4030 H4021 0.930 . S
C4030 C4028 1.384 . S
C4030 C4031 1.372 . S
C4031 C4030 1.372 . S
C4031 C4032 1.400 . S
C4031 C4036 1.490 . S
C4032 H4022 0.930 . S
C4032 C4031 1.400 . S
C4032 C4035 1.386 . S
H4033 C4049 0.930 . S
H4034 C4050 0.931 . S
C4035 H4023 0.929 . S
C4035 C4029 1.390 . S
C4035 C4032 1.386 . S
C4036 C4031 1.490 . S
C4036 C4038 1.395 . S
C4036 C4039 1.403 . S
H4037 C4043 0.930 . S
C4038 H4024 0.930 . S
C4038 C4036 1.395 . S
C4038 C4041 1.403 . S
C4039 C4036 1.403 . S
C4039 C4040 1.524 . S
C4039 C4043 1.400 . S
C4040 H4025 0.960 . S
C4040 H4026 0.960 . S
C4040 H4027 0.960 . S
C4040 C4039 1.524 . S
C4041 C4038 1.403 . S
C4041 C4042 1.392 . S
C4041 C4045 1.495 . S
C4042 C4041 1.392 . S
C4042 C4043 1.385 . S
C4042 C4044 1.478 . S
C4043 H4037 0.930 . S
C4043 C4039 1.400 . S
C4043 C4042 1.385 . S
C4044 C4042 1.478 . S
C4044 C4046 1.381 . S
C4044 C4050 1.383 . S
C4045 C4041 1.495 . S
C4045 H4051 0.959 . S
C4045 H4052 0.961 . S
C4045 H4053 0.960 . S
C4046 C4044 1.381 . S
C4046 C4047 1.394 . S
C4046 H4054 0.930 . S
C4047 C4046 1.394 . S
C4047 C4048 1.383 . S
C4047 H4055 0.929 . S
C4048 C4047 1.383 . S
C4048 C4049 1.377 . S
C4049 H4033 0.930 . S
C4049 C4048 1.377 . S
C4049 C4050 1.379 . S
C4050 H4034 0.931 . S
C4050 C4044 1.383 . S
C4050 C4049 1.379 . S
H4051 C4045 0.959 . S
H4052 C4045 0.961 . S
H4053 C4045 0.960 . S
H4054 C4046 0.930 . S
H4055 C4047 0.929 . S
H4056 C4064 0.929 . S
H4057 C4066 0.930 . S
H4058 C4068 0.930 . S
H4059 C4071 0.929 . S
H4060 C4074 0.930 . S
H4061 C4076 0.960 . S
H4062 C4076 0.960 . S
H4063 C4076 0.960 . S
C4064 H4056 0.929 . S
C4064 C4065 1.377 . S
C4064 C4066 1.384 . S
C4065 C4064 1.377 . S
C4065 C4071 1.390 . S
C4066 H4057 0.930 . S
C4066 C4064 1.384 . S
C4066 C4067 1.372 . S
C4067 C4066 1.372 . S
C4067 C4068 1.400 . S
C4067 C4072 1.490 . S
C4068 H4058 0.930 . S
C4068 C4067 1.400 . S
C4068 C4071 1.386 . S
H4069 C4085 0.930 . S
H4070 C4086 0.931 . S
C4071 H4059 0.929 . S
C4071 C4065 1.390 . S
C4071 C4068 1.386 . S
C4072 C4067 1.490 . S
C4072 C4074 1.395 . S
C4072 C4075 1.403 . S
H4073 C4079 0.930 . S
C4074 H4060 0.930 . S
C4074 C4072 1.395 . S
C4074 C4077 1.403 . S
C4075 C4072 1.403 . S
C4075 C4076 1.524 . S
C4075 C4079 1.400 . S
C4076 H4061 0.960 . S
C4076 H4062 0.960 . S
C4076 H4063 0.960 . S
C4076 C4075 1.524 . S
C4077 C4074 1.403 . S
C4077 C4078 1.392 . S
C4077 C4081 1.495 . S
C4078 C4077 1.392 . S
C4078 C4079 1.385 . S
C4078 C4080 1.478 . S
C4079 H4073 0.930 . S
C4079 C4075 1.400 . S
C4079 C4078 1.385 . S
C4080 C4078 1.478 . S
C4080 C4082 1.381 . S
C4080 C4086 1.383 . S
C4081 C4077 1.495 . S
C4081 H4087 0.959 . S
C4081 H4088 0.961 . S
C4081 H4089 0.960 . S
C4082 C4080 1.381 . S
C4082 C4083 1.394 . S
C4082 H4090 0.930 . S
C4083 C4082 1.394 . S
C4083 C4084 1.383 . S
C4083 H4091 0.929 . S
C4084 C4083 1.383 . S
C4084 C4085 1.377 . S
C4085 H4069 0.930 . S
C4085 C4084 1.377 . S
C4085 C4086 1.379 . S
C4086 H4070 0.931 . S
C4086 C4080 1.383 . S
C4086 C4085 1.379 . S
H4087 C4081 0.959 . S
H4088 C4081 0.961 . S
H4089 C4081 0.960 . S
H4090 C4082 0.930 . S
H4091 C4083 0.929 . S
H4092 C4100 0.929 . S
H4093 C4102 0.930 . S
H4094 C4104 0.930 . S
H4095 C4107 0.929 . S
H4096 C4110 0.930 . S
H4097 C4112 0.960 . S
H4098 C4112 0.960 . S
H4099 C4112 0.960 . S
C4100 H4092 0.929 . S
C4100 C4101 1.377 . S
C4100 C4102 1.384 . S
C4101 C4100 1.377 . S
C4101 C4107 1.390 . S
C4102 H4093 0.930 . S
C4102 C4100 1.384 . S
C4102 C4103 1.372 . S
C4103 C4102 1.372 . S
C4103 C4104 1.400 . S
C4103 C4108 1.490 . S
C4104 H4094 0.930 . S
C4104 C4103 1.400 . S
C4104 C4107 1.386 . S
H4105 C4121 0.930 . S
H4106 C4122 0.931 . S
C4107 H4095 0.929 . S
C4107 C4101 1.390 . S
C4107 C4104 1.386 . S
C4108 C4103 1.490 . S
C4108 C4110 1.395 . S
C4108 C4111 1.403 . S
H4109 C4115 1.056 . S
C4110 H4096 0.930 . S
C4110 C4108 1.395 . S
C4110 C4113 1.403 . S
C4111 C4108 1.403 . S
C4111 C4112 1.524 . S
C4111 C4115 1.400 . S
C4112 H4097 0.960 . S
C4112 H4098 0.960 . S
C4112 H4099 0.960 . S
C4112 C4111 1.524 . S
C4113 C4110 1.403 . S
C4113 C4114 1.392 . S
C4113 C4117 1.495 . S
C4114 C4113 1.392 . S
C4114 C4115 1.385 . S
C4114 C4116 1.478 1_655 S
C4115 H4109 1.056 . S
C4115 C4111 1.400 . S
C4115 C4114 1.385 . S
C4116 C4114 1.478 1_455 S
C4116 C4118 1.381 . S
C4116 C4122 1.383 . S
C4117 C4113 1.495 . S
C4117 H4123 0.959 . S
C4117 H4124 0.961 . S
C4117 H4125 0.960 . S
C4118 C4116 1.381 . S
C4118 C4119 1.394 . S
C4118 H4126 0.930 . S
C4119 C4118 1.394 . S
C4119 C4120 1.383 . S
C4119 H4127 0.929 . S
C4120 C4119 1.383 . S
C4120 C4121 1.377 . S
C4121 H4105 0.930 . S
C4121 C4120 1.377 . S
C4121 C4122 1.379 . S
C4122 H4106 0.931 . S
C4122 C4116 1.383 . S
C4122 C4121 1.379 . S
H4123 C4117 0.959 . S
H4124 C4117 0.961 . S
H4125 C4117 0.960 . S
H4126 C4118 0.930 . S
H4127 C4119 0.929 . S
H4128 C4136 0.929 . S
H4129 C4138 0.930 . S
H4130 C4140 0.930 . S
H4131 C4143 0.929 . S
H4132 C4146 0.930 . S
H4133 C4148 0.960 . S
H4134 C4148 0.960 . S
H4135 C4148 0.960 . S
C4136 H4128 0.929 . S
C4136 C4137 1.377 . S
C4136 C4138 1.384 . S
C4137 C4136 1.377 . S
C4137 C4143 1.390 . S
C4138 H4129 0.930 . S
C4138 C4136 1.384 . S
C4138 C4139 1.372 . S
C4139 C4138 1.372 . S
C4139 C4140 1.400 . S
C4139 C4144 1.490 . S
C4140 H4130 0.930 . S
C4140 C4139 1.400 . S
C4140 C4143 1.386 . S
H4141 C4157 0.930 . S
H4142 C4158 0.931 . S
C4143 H4131 0.929 . S
C4143 C4137 1.390 . S
C4143 C4140 1.386 . S
C4144 C4139 1.490 . S
C4144 C4146 1.395 . S
C4144 C4147 1.403 . S
H4145 C4151 0.930 . S
C4146 H4132 0.930 . S
C4146 C4144 1.395 . S
C4146 C4149 1.403 . S
C4147 C4144 1.403 . S
C4147 C4148 1.524 . S
C4147 C4151 1.400 . S
C4148 H4133 0.960 . S
C4148 H4134 0.960 . S
C4148 H4135 0.960 . S
C4148 C4147 1.524 . S
C4149 C4146 1.403 . S
C4149 C4150 1.392 . S
C4149 C4153 1.495 . S
C4150 C4149 1.392 . S
C4150 C4151 1.385 . S
C4150 C4152 1.478 . S
C4151 H4145 0.930 . S
C4151 C4147 1.400 . S
C4151 C4150 1.385 . S
C4152 C4150 1.478 . S
C4152 C4154 1.381 . S
C4152 C4158 1.383 . S
C4153 C4149 1.495 . S
C4153 H4159 0.959 . S
C4153 H4160 0.961 . S
C4153 H4161 0.960 . S
C4154 C4152 1.381 . S
C4154 C4155 1.394 . S
C4154 H4162 0.930 . S
C4155 C4154 1.394 . S
C4155 C4156 1.383 . S
C4155 H4163 0.929 . S
C4156 C4155 1.383 . S
C4156 C4157 1.377 . S
C4157 H4141 0.930 . S
C4157 C4156 1.377 . S
C4157 C4158 1.379 . S
C4158 H4142 0.931 . S
C4158 C4152 1.383 . S
C4158 C4157 1.379 . S
H4159 C4153 0.959 . S
H4160 C4153 0.961 . S
H4161 C4153 0.960 . S
H4162 C4154 0.930 . S
H4163 C4155 0.929 . S
H4164 C4172 0.929 . S
H4165 C4174 0.930 . S
H4166 C4176 0.930 . S
H4167 C4179 0.929 . S
H4168 C4182 0.930 . S
H4169 C4184 0.960 . S
H4170 C4184 0.960 . S
H4171 C4184 0.960 . S
C4172 H4164 0.929 . S
C4172 C4173 1.377 . S
C4172 C4174 1.384 . S
C4173 C4172 1.377 . S
C4173 C4179 1.390 . S
C4174 H4165 0.930 . S
C4174 C4172 1.384 . S
C4174 C4175 1.372 . S
C4175 C4174 1.372 . S
C4175 C4176 1.400 . S
C4175 C4180 1.490 . S
C4176 H4166 0.930 . S
C4176 C4175 1.400 . S
C4176 C4179 1.386 . S
H4177 C4193 0.930 . S
H4178 C4194 0.931 . S
C4179 H4167 0.929 . S
C4179 C4173 1.390 . S
C4179 C4176 1.386 . S
C4180 C4175 1.490 . S
C4180 C4182 1.395 . S
C4180 C4183 1.403 . S
H4181 C4187 0.930 . S
C4182 H4168 0.930 . S
C4182 C4180 1.395 . S
C4182 C4185 1.403 . S
C4183 C4180 1.403 . S
C4183 C4184 1.524 . S
C4183 C4187 1.400 . S
C4184 H4169 0.960 . S
C4184 H4170 0.960 . S
C4184 H4171 0.960 . S
C4184 C4183 1.524 . S
C4185 C4182 1.403 . S
C4185 C4186 1.392 . S
C4185 C4189 1.495 . S
C4186 C4185 1.392 . S
C4186 C4187 1.385 . S
C4186 C4188 1.478 . S
C4187 H4181 0.930 . S
C4187 C4183 1.400 . S
C4187 C4186 1.385 . S
C4188 C4186 1.478 . S
C4188 C4190 1.381 . S
C4188 C4194 1.383 . S
C4189 C4185 1.495 . S
C4189 H4195 0.959 . S
C4189 H4196 0.961 . S
C4189 H4197 0.960 . S
C4190 C4188 1.381 . S
C4190 C4191 1.394 . S
C4190 H4198 0.930 . S
C4191 C4190 1.394 . S
C4191 C4192 1.383 . S
C4191 H4199 0.929 . S
C4192 C4191 1.383 . S
C4192 C4193 1.377 . S
C4193 H4177 0.930 . S
C4193 C4192 1.377 . S
C4193 C4194 1.379 . S
C4194 H4178 0.931 . S
C4194 C4188 1.383 . S
C4194 C4193 1.379 . S
H4195 C4189 0.959 . S
H4196 C4189 0.961 . S
H4197 C4189 0.960 . S
H4198 C4190 0.930 . S
H4199 C4191 0.929 . S
H4200 C4208 0.929 . S
H4201 C4210 0.930 . S
H4202 C4212 0.930 . S
H4203 C4215 0.929 . S
H4204 C4218 0.930 . S
H4205 C4220 0.960 . S
H4206 C4220 0.960 . S
H4207 C4220 0.960 . S
C4208 H4200 0.929 . S
C4208 C4209 1.377 . S
C4208 C4210 1.384 . S
C4209 C4208 1.377 . S
C4209 C4215 1.390 . S
C4210 H4201 0.930 . S
C4210 C4208 1.384 . S
C4210 C4211 1.372 . S
C4211 C4210 1.372 . S
C4211 C4212 1.400 . S
C4211 C4216 1.490 . S
C4212 H4202 0.930 . S
C4212 C4211 1.400 . S
C4212 C4215 1.386 . S
H4213 C4229 0.930 . S
H4214 C4230 0.931 . S
C4215 H4203 0.929 . S
C4215 C4209 1.390 . S
C4215 C4212 1.386 . S
C4216 C4211 1.490 . S
C4216 C4218 1.395 . S
C4216 C4219 1.403 . S
H4217 C4223 0.930 . S
C4218 H4204 0.930 . S
C4218 C4216 1.395 . S
C4218 C4221 1.403 . S
C4219 C4216 1.403 . S
C4219 C4220 1.524 . S
C4219 C4223 1.400 . S
C4220 H4205 0.960 . S
C4220 H4206 0.960 . S
C4220 H4207 0.960 . S
C4220 C4219 1.524 . S
C4221 C4218 1.403 . S
C4221 C4222 1.392 . S
C4221 C4225 1.495 . S
C4222 C4221 1.392 . S
C4222 C4223 1.385 . S
C4222 C4224 1.478 . S
C4223 H4217 0.930 . S
C4223 C4219 1.400 . S
C4223 C4222 1.385 . S
C4224 C4222 1.478 . S
C4224 C4226 1.381 . S
C4224 C4230 1.383 . S
C4225 C4221 1.495 . S
C4225 H4231 0.959 . S
C4225 H4232 0.961 . S
C4225 H4233 0.960 . S
C4226 C4224 1.381 . S
C4226 C4227 1.394 . S
C4226 H4234 0.930 . S
C4227 C4226 1.394 . S
C4227 C4228 1.383 . S
C4227 H4235 0.929 . S
C4228 C4227 1.383 . S
C4228 C4229 1.377 . S
C4229 H4213 0.930 . S
C4229 C4228 1.377 . S
C4229 C4230 1.379 . S
C4230 H4214 0.931 . S
C4230 C4224 1.383 . S
C4230 C4229 1.379 . S
H4231 C4225 0.959 . S
H4232 C4225 0.961 . S
H4233 C4225 0.960 . S
H4234 C4226 0.930 . S
H4235 C4227 0.929 . S
H4236 C4244 0.929 . S
H4237 C4246 0.930 . S
H4238 C4248 0.930 1_554 S
H4239 C4251 0.929 . S
H4240 C4254 0.930 . S
H4241 C4256 0.960 . S
H4242 C4256 0.954 . S
H4243 C4256 0.960 . S
C4244 H4236 0.929 . S
C4244 C4245 1.377 . S
C4244 C4246 1.384 . S
C4245 C4244 1.377 . S
C4245 C4251 1.390 . S
C4246 H4237 0.930 . S
C4246 C4244 1.384 . S
C4246 C4247 1.372 . S
C4247 C4246 1.372 . S
C4247 C4248 1.400 . S
C4247 C4252 1.490 1_556 S
C4248 H4238 0.930 1_556 S
C4248 C4247 1.400 . S
C4248 C4251 1.386 . S
H4249 C4265 0.930 . S
H4250 C4266 0.931 . S
C4251 H4239 0.929 . S
C4251 C4245 1.390 . S
C4251 C4248 1.386 . S
C4252 C4247 1.490 1_554 S
C4252 C4254 1.395 . S
C4252 C4255 1.403 . S
H4253 C4259 0.930 . S
C4254 H4240 0.930 . S
C4254 C4252 1.395 . S
C4254 C4257 1.403 . S
C4255 C4252 1.403 . S
C4255 C4256 1.524 . S
C4255 C4259 1.400 . S
C4256 H4241 0.960 . S
C4256 H4242 0.954 . S
C4256 H4243 0.960 . S
C4256 C4255 1.524 . S
C4257 C4254 1.403 . S
C4257 C4258 1.392 . S
C4257 C4261 1.495 . S
C4258 C4257 1.392 . S
C4258 C4259 1.385 . S
C4258 C4260 1.478 . S
C4259 H4253 0.930 . S
C4259 C4255 1.400 . S
C4259 C4258 1.385 . S
C4260 C4258 1.478 . S
C4260 C4262 1.381 . S
C4260 C4266 1.383 . S
C4261 C4257 1.495 . S
C4261 H4267 0.959 . S
C4261 H4268 0.961 . S
C4261 H4269 0.960 . S
C4262 C4260 1.381 . S
C4262 C4263 1.394 . S
C4262 H4270 0.930 . S
C4263 C4262 1.394 . S
C4263 C4264 1.383 . S
C4263 H4271 0.929 . S
C4264 C4263 1.383 . S
C4264 C4265 1.377 . S
C4265 H4249 0.930 . S
C4265 C4264 1.377 . S
C4265 C4266 1.379 . S
C4266 H4250 0.931 . S
C4266 C4260 1.383 . S
C4266 C4265 1.379 . S
H4267 C4261 0.959 . S
H4268 C4261 0.961 . S
H4269 C4261 0.960 . S
H4270 C4262 0.930 . S
H4271 C4263 0.929 . S
H4272 C4280 0.929 . S
H4273 C4282 0.930 . S
H4274 C4284 0.930 . S
H4275 C4287 0.929 . S
H4276 C4290 0.930 . S
H4277 C4292 0.960 . S
H4278 C4292 0.960 . S
H4279 C4292 0.960 . S
C4280 H4272 0.929 . S
C4280 C4281 1.377 . S
C4280 C4282 1.384 . S
C4281 C4280 1.377 . S
C4281 C4287 1.390 . S
C4282 H4273 0.930 . S
C4282 C4280 1.384 . S
C4282 C4283 1.372 . S
C4283 C4282 1.372 . S
C4283 C4284 1.400 . S
C4283 C4288 1.490 . S
C4284 H4274 0.930 . S
C4284 C4283 1.400 . S
C4284 C4287 1.386 . S
H4285 C4301 0.930 . S
H4286 C4302 0.931 . S
C4287 H4275 0.929 . S
C4287 C4281 1.390 . S
C4287 C4284 1.386 . S
C4288 C4283 1.490 . S
C4288 C4290 1.395 . S
C4288 C4291 1.403 . S
H4289 C4295 0.930 . S
C4290 H4276 0.930 . S
C4290 C4288 1.395 . S
C4290 C4293 1.403 . S
C4291 C4288 1.403 . S
C4291 C4292 1.524 . S
C4291 C4295 1.400 . S
C4292 H4277 0.960 . S
C4292 H4278 0.960 . S
C4292 H4279 0.960 . S
C4292 C4291 1.524 . S
C4293 C4290 1.403 . S
C4293 C4294 1.392 . S
C4293 C4297 1.495 . S
C4294 C4293 1.392 . S
C4294 C4295 1.385 . S
C4294 C4296 1.478 . S
C4295 H4289 0.930 . S
C4295 C4291 1.400 . S
C4295 C4294 1.385 . S
C4296 C4294 1.478 . S
C4296 C4298 1.381 . S
C4296 C4302 1.383 . S
C4297 C4293 1.495 . S
C4297 H4303 0.959 . S
C4297 H4304 0.961 . S
C4297 H4305 0.960 . S
C4298 C4296 1.381 . S
C4298 C4299 1.394 . S
C4298 H4306 0.930 . S
C4299 C4298 1.394 . S
C4299 C4300 1.383 . S
C4299 H4307 0.929 . S
C4300 C4299 1.383 . S
C4300 C4301 1.377 . S
C4301 H4285 0.930 . S
C4301 C4300 1.377 . S
C4301 C4302 1.379 . S
C4302 H4286 0.931 . S
C4302 C4296 1.383 . S
C4302 C4301 1.379 . S
H4303 C4297 0.959 . S
H4304 C4297 0.961 . S
H4305 C4297 0.960 . S
H4306 C4298 0.930 . S
H4307 C4299 0.929 . S
H4308 C4316 0.929 . S
H4309 C4318 0.930 . S
H4310 C4320 0.930 . S
H4311 C4323 0.929 . S
H4312 C4326 0.930 . S
H4313 C4328 0.960 . S
H4314 C4328 0.960 . S
H4315 C4328 0.960 . S
C4316 H4308 0.929 . S
C4316 C4317 1.377 . S
C4316 C4318 1.384 . S
C4317 C4316 1.377 . S
C4317 C4323 1.390 . S
C4318 H4309 0.930 . S
C4318 C4316 1.384 . S
C4318 C4319 1.372 . S
C4319 C4318 1.372 . S
C4319 C4320 1.400 . S
C4319 C4324 1.490 . S
C4320 H4310 0.930 . S
C4320 C4319 1.400 . S
C4320 C4323 1.386 . S
H4321 C4337 0.930 . S
H4322 C4338 0.931 . S
C4323 H4311 0.929 . S
C4323 C4317 1.390 . S
C4323 C4320 1.386 . S
C4324 C4319 1.490 . S
C4324 C4326 1.395 . S
C4324 C4327 1.403 . S
H4325 C4331 0.930 . S
C4326 H4312 0.930 . S
C4326 C4324 1.395 . S
C4326 C4329 1.403 . S
C4327 C4324 1.403 . S
C4327 C4328 1.524 . S
C4327 C4331 1.400 . S
C4328 H4313 0.960 . S
C4328 H4314 0.960 . S
C4328 H4315 0.960 . S
C4328 C4327 1.524 . S
C4329 C4326 1.403 . S
C4329 C4330 1.392 . S
C4329 C4333 1.495 . S
C4330 C4329 1.392 . S
C4330 C4331 1.385 . S
C4330 C4332 1.478 . S
C4331 H4325 0.930 . S
C4331 C4327 1.400 . S
C4331 C4330 1.385 . S
C4332 C4330 1.478 . S
C4332 C4334 1.381 . S
C4332 C4338 1.383 . S
C4333 C4329 1.495 . S
C4333 H4339 0.959 . S
C4333 H4340 0.961 . S
C4333 H4341 0.960 . S
C4334 C4332 1.381 . S
C4334 C4335 1.394 . S
C4334 H4342 0.930 . S
C4335 C4334 1.394 . S
C4335 C4336 1.383 . S
C4335 H4343 0.929 . S
C4336 C4335 1.383 . S
C4336 C4337 1.377 . S
C4337 H4321 0.930 . S
C4337 C4336 1.377 . S
C4337 C4338 1.379 . S
C4338 H4322 0.931 . S
C4338 C4332 1.383 . S
C4338 C4337 1.379 . S
H4339 C4333 0.959 . S
H4340 C4333 0.961 . S
H4341 C4333 0.960 . S
H4342 C4334 0.930 . S
H4343 C4335 0.929 . S
H4344 C4352 0.929 . S
H4345 C4354 0.930 . S
H4346 C4356 0.930 . S
H4347 C4359 0.929 . S
H4348 C4362 0.930 . S
H4349 C4364 0.960 . S
H4350 C4364 0.960 . S
H4351 C4364 0.960 . S
C4352 H4344 0.929 . S
C4352 C4353 1.377 . S
C4352 C4354 1.384 . S
C4353 C4352 1.377 . S
C4353 C4359 1.390 . S
C4354 H4345 0.930 . S
C4354 C4352 1.384 . S
C4354 C4355 1.372 . S
C4355 C4354 1.372 . S
C4355 C4356 1.400 . S
C4355 C4360 1.490 . S
C4356 H4346 0.930 . S
C4356 C4355 1.400 . S
C4356 C4359 1.386 . S
H4357 C4373 0.930 . S
H4358 C4374 0.931 . S
C4359 H4347 0.929 . S
C4359 C4353 1.390 . S
C4359 C4356 1.386 . S
C4360 C4355 1.490 . S
C4360 C4362 1.395 . S
C4360 C4363 1.403 . S
H4361 C4367 0.930 . S
C4362 H4348 0.930 . S
C4362 C4360 1.395 . S
C4362 C4365 1.403 . S
C4363 C4360 1.403 . S
C4363 C4364 1.524 . S
C4363 C4367 1.400 . S
C4364 H4349 0.960 . S
C4364 H4350 0.960 . S
C4364 H4351 0.960 . S
C4364 C4363 1.524 . S
C4365 C4362 1.403 . S
C4365 C4366 1.392 . S
C4365 C4369 1.495 . S
C4366 C4365 1.392 . S
C4366 C4367 1.385 . S
C4366 C4368 1.478 . S
C4367 H4361 0.930 . S
C4367 C4363 1.400 . S
C4367 C4366 1.385 . S
C4368 C4366 1.478 . S
C4368 C4370 1.381 . S
C4368 C4374 1.383 . S
C4369 C4365 1.495 . S
C4369 H4375 0.959 . S
C4369 H4376 0.961 . S
C4369 H4377 0.960 . S
C4370 C4368 1.381 . S
C4370 C4371 1.394 . S
C4370 H4378 0.930 . S
C4371 C4370 1.394 . S
C4371 C4372 1.383 . S
C4371 H4379 0.929 . S
C4372 C4371 1.383 . S
C4372 C4373 1.377 . S
C4373 H4357 0.930 . S
C4373 C4372 1.377 . S
C4373 C4374 1.379 . S
C4374 H4358 0.931 . S
C4374 C4368 1.383 . S
C4374 C4373 1.379 . S
H4375 C4369 0.959 . S
H4376 C4369 0.961 . S
H4377 C4369 0.960 . S
H4378 C4370 0.930 . S
H4379 C4371 0.929 . S
H4380 C4388 0.929 . S
H4381 C4390 0.930 . S
H4382 C4392 0.930 . S
H4383 C4395 0.929 . S
H4384 C4398 0.930 . S
H4385 C4400 0.960 . S
H4386 C4400 0.960 . S
H4387 C4400 0.960 . S
C4388 H4380 0.929 . S
C4388 C4389 1.377 . S
C4388 C4390 1.384 . S
C4389 C4388 1.377 . S
C4389 C4395 1.390 . S
C4390 H4381 0.930 . S
C4390 C4388 1.384 . S
C4390 C4391 1.372 . S
C4391 C4390 1.372 . S
C4391 C4392 1.400 . S
C4391 C4396 1.490 . S
C4392 H4382 0.930 . S
C4392 C4391 1.400 . S
C4392 C4395 1.386 . S
H4393 C4409 0.930 . S
H4394 C4410 0.899 1_556 S
C4395 H4383 0.929 . S
C4395 C4389 1.390 . S
C4395 C4392 1.386 . S
C4396 C4391 1.490 . S
C4396 C4398 1.395 . S
C4396 C4399 1.403 . S
H4397 C4403 0.930 . S
C4398 H4384 0.930 . S
C4398 C4396 1.395 . S
C4398 C4401 1.403 . S
C4399 C4396 1.403 . S
C4399 C4400 1.524 . S
C4399 C4403 1.400 . S
C4400 H4385 0.960 . S
C4400 H4386 0.960 . S
C4400 H4387 0.960 . S
C4400 C4399 1.524 . S
C4401 C4398 1.403 . S
C4401 C4402 1.392 . S
C4401 C4405 1.495 . S
C4402 C4401 1.392 . S
C4402 C4403 1.385 . S
C4402 C4404 1.478 1_556 S
C4403 H4397 0.930 . S
C4403 C4399 1.400 . S
C4403 C4402 1.385 . S
C4404 C4402 1.478 1_554 S
C4404 C4406 1.381 . S
C4404 C4410 1.383 . S
C4405 C4401 1.495 . S
C4405 H4411 0.959 . S
C4405 H4412 0.961 . S
C4405 H4413 0.960 . S
C4406 C4404 1.381 . S
C4406 C4407 1.394 . S
C4406 H4414 0.930 . S
C4407 C4406 1.394 . S
C4407 C4408 1.383 . S
C4407 H4415 0.929 . S
C4408 C4407 1.383 . S
C4408 C4409 1.377 . S
C4409 H4393 0.930 . S
C4409 C4408 1.377 . S
C4409 C4410 1.379 . S
C4410 H4394 0.899 1_554 S
C4410 C4404 1.383 . S
C4410 C4409 1.379 . S
H4411 C4405 0.959 . S
H4412 C4405 0.961 . S
H4413 C4405 0.960 . S
H4414 C4406 0.930 . S
H4415 C4407 0.929 . S
H4416 C4424 0.929 . S
H4417 C4426 0.930 . S
H4418 C4428 0.930 . S
H4419 C4431 0.929 . S
H4420 C4434 0.930 . S
H4421 C4436 0.960 . S
H4422 C4436 0.960 . S
H4423 C4436 0.960 . S
C4424 H4416 0.929 . S
C4424 C4425 1.377 . S
C4424 C4426 1.384 . S
C4425 C4424 1.377 . S
C4425 C4431 1.390 . S
C4426 H4417 0.930 . S
C4426 C4424 1.384 . S
C4426 C4427 1.372 . S
C4427 C4426 1.372 . S
C4427 C4428 1.400 . S
C4427 C4432 1.490 . S
C4428 H4418 0.930 . S
C4428 C4427 1.400 . S
C4428 C4431 1.386 . S
H4429 C4445 0.930 . S
H4430 C4446 0.931 . S
C4431 H4419 0.929 . S
C4431 C4425 1.390 . S
C4431 C4428 1.386 . S
C4432 C4427 1.490 . S
C4432 C4434 1.395 . S
C4432 C4435 1.403 . S
H4433 C4439 0.930 . S
C4434 H4420 0.930 . S
C4434 C4432 1.395 . S
C4434 C4437 1.403 . S
C4435 C4432 1.403 . S
C4435 C4436 1.524 . S
C4435 C4439 1.400 . S
C4436 H4421 0.960 . S
C4436 H4422 0.960 . S
C4436 H4423 0.960 . S
C4436 C4435 1.524 . S
C4437 C4434 1.403 . S
C4437 C4438 1.392 . S
C4437 C4441 1.495 . S
C4438 C4437 1.392 . S
C4438 C4439 1.385 . S
C4438 C4440 1.478 . S
C4439 H4433 0.930 . S
C4439 C4435 1.400 . S
C4439 C4438 1.385 . S
C4440 C4438 1.478 . S
C4440 C4442 1.381 . S
C4440 C4446 1.383 . S
C4441 C4437 1.495 . S
C4441 H4447 0.959 . S
C4441 H4448 0.961 . S
C4441 H4449 0.960 . S
C4442 C4440 1.381 . S
C4442 C4443 1.394 . S
C4442 H4450 0.930 . S
C4443 C4442 1.394 . S
C4443 C4444 1.383 . S
C4443 H4451 0.929 . S
C4444 C4443 1.383 . S
C4444 C4445 1.377 . S
C4445 H4429 0.930 . S
C4445 C4444 1.377 . S
C4445 C4446 1.379 . S
C4446 H4430 0.931 . S
C4446 C4440 1.383 . S
C4446 C4445 1.379 . S
H4447 C4441 0.959 . S
H4448 C4441 0.961 . S
H4449 C4441 0.960 . S
H4450 C4442 0.930 . S
H4451 C4443 0.929 . S
H4452 C4460 0.929 . S
H4453 C4462 0.930 . S
H4454 C4464 0.930 . S
H4455 C4467 0.929 . S
H4456 C4470 0.930 . S
H4457 C4472 0.960 . S
H4458 C4472 0.960 . S
H4459 C4472 0.960 . S
C4460 H4452 0.929 . S
C4460 C4461 1.377 . S
C4460 C4462 1.384 . S
C4461 C4460 1.377 . S
C4461 C4467 1.390 . S
C4462 H4453 0.930 . S
C4462 C4460 1.384 . S
C4462 C4463 1.372 . S
C4463 C4462 1.372 . S
C4463 C4464 1.400 . S
C4463 C4468 1.490 . S
C4464 H4454 0.930 . S
C4464 C4463 1.400 . S
C4464 C4467 1.386 . S
H4465 C4481 0.930 . S
H4466 C4482 0.931 . S
C4467 H4455 0.929 . S
C4467 C4461 1.390 . S
C4467 C4464 1.386 . S
C4468 C4463 1.490 . S
C4468 C4470 1.395 . S
C4468 C4471 1.403 . S
H4469 C4475 0.930 . S
C4470 H4456 0.930 . S
C4470 C4468 1.395 . S
C4470 C4473 1.403 . S
C4471 C4468 1.403 . S
C4471 C4472 1.524 . S
C4471 C4475 1.400 . S
C4472 H4457 0.960 . S
C4472 H4458 0.960 . S
C4472 H4459 0.960 . S
C4472 C4471 1.524 . S
C4473 C4470 1.403 . S
C4473 C4474 1.392 . S
C4473 C4477 1.495 . S
C4474 C4473 1.392 . S
C4474 C4475 1.385 . S
C4474 C4476 1.478 . S
C4475 H4469 0.930 . S
C4475 C4471 1.400 . S
C4475 C4474 1.385 . S
C4476 C4474 1.478 . S
C4476 C4478 1.381 . S
C4476 C4482 1.383 . S
C4477 C4473 1.495 . S
C4477 H4483 0.959 . S
C4477 H4484 0.961 . S
C4477 H4485 0.960 . S
C4478 C4476 1.381 . S
C4478 C4479 1.394 . S
C4478 H4486 0.930 . S
C4479 C4478 1.394 . S
C4479 C4480 1.383 . S
C4479 H4487 0.929 . S
C4480 C4479 1.383 . S
C4480 C4481 1.377 . S
C4481 H4465 0.930 . S
C4481 C4480 1.377 . S
C4481 C4482 1.379 . S
C4482 H4466 0.931 . S
C4482 C4476 1.383 . S
C4482 C4481 1.379 . S
H4483 C4477 0.959 . S
H4484 C4477 0.961 . S
H4485 C4477 0.960 . S
H4486 C4478 0.930 . S
H4487 C4479 0.929 . S
H4488 C4496 0.929 . S
H4489 C4498 0.930 . S
H4490 C4500 0.930 . S
H4491 C4503 0.929 . S
H4492 C4506 0.930 . S
H4493 C4508 0.960 . S
H4494 C4508 0.960 . S
H4495 C4508 0.960 . S
C4496 H4488 0.929 . S
C4496 C4497 1.377 . S
C4496 C4498 1.384 . S
C4497 C4496 1.377 . S
C4497 C4503 1.390 . S
C4498 H4489 0.930 . S
C4498 C4496 1.384 . S
C4498 C4499 1.372 . S
C4499 C4498 1.372 . S
C4499 C4500 1.400 . S
C4499 C4504 1.490 . S
C4500 H4490 0.930 . S
C4500 C4499 1.400 . S
C4500 C4503 1.386 . S
H4501 C4517 0.930 . S
H4502 C4518 0.931 . S
C4503 H4491 0.929 . S
C4503 C4497 1.390 . S
C4503 C4500 1.386 . S
C4504 C4499 1.490 . S
C4504 C4506 1.395 . S
C4504 C4507 1.403 . S
H4505 C4511 0.930 . S
C4506 H4492 0.930 . S
C4506 C4504 1.395 . S
C4506 C4509 1.403 . S
C4507 C4504 1.403 . S
C4507 C4508 1.524 . S
C4507 C4511 1.400 . S
C4508 H4493 0.960 . S
C4508 H4494 0.960 . S
C4508 H4495 0.960 . S
C4508 C4507 1.524 . S
C4509 C4506 1.403 . S
C4509 C4510 1.392 . S
C4509 C4513 1.495 . S
C4510 C4509 1.392 . S
C4510 C4511 1.385 . S
C4510 C4512 1.478 . S
C4511 H4505 0.930 . S
C4511 C4507 1.400 . S
C4511 C4510 1.385 . S
C4512 C4510 1.478 . S
C4512 C4514 1.381 . S
C4512 C4518 1.383 . S
C4513 C4509 1.495 . S
C4513 H4519 0.959 . S
C4513 H4520 0.961 . S
C4513 H4521 0.960 . S
C4514 C4512 1.381 . S
C4514 C4515 1.394 . S
C4514 H4522 0.930 . S
C4515 C4514 1.394 . S
C4515 C4516 1.383 . S
C4515 H4523 0.929 . S
C4516 C4515 1.383 . S
C4516 C4517 1.377 . S
C4517 H4501 0.930 . S
C4517 C4516 1.377 . S
C4517 C4518 1.379 . S
C4518 H4502 0.931 . S
C4518 C4512 1.383 . S
C4518 C4517 1.379 . S
H4519 C4513 0.959 . S
H4520 C4513 0.961 . S
H4521 C4513 0.960 . S
H4522 C4514 0.930 . S
H4523 C4515 0.929 . S
H4524 C4532 0.929 . S
H4525 C4534 0.930 . S
H4526 C4536 0.930 . S
H4527 C4539 0.929 . S
H4528 C4542 0.930 . S
H4529 C4544 0.960 . S
H4530 C4544 0.960 . S
H4531 C4544 0.960 . S
C4532 H4524 0.929 . S
C4532 C4533 1.377 . S
C4532 C4534 1.384 . S
C4533 C4532 1.377 . S
C4533 C4539 1.390 . S
C4534 H4525 0.930 . S
C4534 C4532 1.384 . S
C4534 C4535 1.372 . S
C4535 C4534 1.372 . S
C4535 C4536 1.400 . S
C4535 C4540 1.490 . S
C4536 H4526 0.930 . S
C4536 C4535 1.400 . S
C4536 C4539 1.386 . S
H4537 C4553 0.930 . S
H4538 C4554 0.931 . S
C4539 H4527 0.929 . S
C4539 C4533 1.390 . S
C4539 C4536 1.386 . S
C4540 C4535 1.490 . S
C4540 C4542 1.395 . S
C4540 C4543 1.403 . S
H4541 C4547 0.930 . S
C4542 H4528 0.930 . S
C4542 C4540 1.395 . S
C4542 C4545 1.403 . S
C4543 C4540 1.403 . S
C4543 C4544 1.524 . S
C4543 C4547 1.400 . S
C4544 H4529 0.960 . S
C4544 H4530 0.960 . S
C4544 H4531 0.960 . S
C4544 C4543 1.524 . S
C4545 C4542 1.403 . S
C4545 C4546 1.392 . S
C4545 C4549 1.495 . S
C4546 C4545 1.392 . S
C4546 C4547 1.385 . S
C4546 C4548 1.478 . S
C4547 H4541 0.930 . S
C4547 C4543 1.400 . S
C4547 C4546 1.385 . S
C4548 C4546 1.478 . S
C4548 C4550 1.381 . S
C4548 C4554 1.383 . S
C4549 C4545 1.495 . S
C4549 H4555 0.959 . S
C4549 H4556 0.961 . S
C4549 H4557 0.960 . S
C4550 C4548 1.381 . S
C4550 C4551 1.394 . S
C4550 H4558 0.930 . S
C4551 C4550 1.394 . S
C4551 C4552 1.383 . S
C4551 H4559 0.929 . S
C4552 C4551 1.383 . S
C4552 C4553 1.377 . S
C4553 H4537 0.930 . S
C4553 C4552 1.377 . S
C4553 C4554 1.379 . S
C4554 H4538 0.931 . S
C4554 C4548 1.383 . S
C4554 C4553 1.379 . S
H4555 C4549 0.959 . S
H4556 C4549 0.961 . S
H4557 C4549 0.960 . S
H4558 C4550 0.930 . S
H4559 C4551 0.929 . S
H4560 C4568 0.929 . S
H4561 C4570 0.930 . S
H4562 C4572 0.930 . S
H4563 C4575 0.929 . S
H4564 C4578 0.930 . S
H4565 C4580 0.960 . S
H4566 C4580 0.960 . S
H4567 C4580 0.960 . S
C4568 H4560 0.929 . S
C4568 C4569 1.377 . S
C4568 C4570 1.384 . S
C4569 C4568 1.377 . S
C4569 C4575 1.390 . S
C4570 H4561 0.930 . S
C4570 C4568 1.384 . S
C4570 C4571 1.372 . S
C4571 C4570 1.372 . S
C4571 C4572 1.400 . S
C4571 C4576 1.490 . S
C4572 H4562 0.930 . S
C4572 C4571 1.400 . S
C4572 C4575 1.386 . S
H4573 C4589 0.930 . S
H4574 C4590 0.993 . S
C4575 H4563 0.929 . S
C4575 C4569 1.390 . S
C4575 C4572 1.386 . S
C4576 C4571 1.490 . S
C4576 C4578 1.395 . S
C4576 C4579 1.403 . S
H4577 C4583 0.930 . S
C4578 H4564 0.930 . S
C4578 C4576 1.395 . S
C4578 C4581 1.403 . S
C4579 C4576 1.403 . S
C4579 C4580 1.524 . S
C4579 C4583 1.400 . S
C4580 H4565 0.960 . S
C4580 H4566 0.960 . S
C4580 H4567 0.960 . S
C4580 C4579 1.524 . S
C4581 C4578 1.403 . S
C4581 C4582 1.392 . S
C4581 C4585 1.495 1_565 S
C4582 C4581 1.392 . S
C4582 C4583 1.385 . S
C4582 C4584 1.478 1_565 S
C4583 H4577 0.930 . S
C4583 C4579 1.400 . S
C4583 C4582 1.385 . S
C4584 C4582 1.478 1_545 S
C4584 C4586 1.381 . S
C4584 C4590 1.383 . S
C4585 C4581 1.495 1_545 S
C4585 H4591 0.984 . S
C4585 H4592 0.961 . S
C4585 H4593 0.960 . S
C4586 C4584 1.381 . S
C4586 C4587 1.394 . S
C4586 H4594 0.930 . S
C4587 C4586 1.394 . S
C4587 C4588 1.383 . S
C4587 H4595 0.929 . S
C4588 C4587 1.383 . S
C4588 C4589 1.377 . S
C4589 H4573 0.930 . S
C4589 C4588 1.377 . S
C4589 C4590 1.379 . S
C4590 H4574 0.993 . S
C4590 C4584 1.383 . S
C4590 C4589 1.379 . S
H4591 C4585 0.984 . S
H4592 C4585 0.961 . S
H4593 C4585 0.960 . S
H4594 C4586 0.930 . S
H4595 C4587 0.929 . S
H4596 C4604 0.929 . S
H4597 C4606 0.930 . S
H4598 C4608 0.930 . S
H4599 C4611 0.929 . S
H4600 C4614 0.930 . S
H4601 C4616 0.960 . S
H4602 C4616 0.960 . S
H4603 C4616 0.960 . S
C4604 H4596 0.929 . S
C4604 C4605 1.377 . S
C4604 C4606 1.384 . S
C4605 C4604 1.377 . S
C4605 C4611 1.390 . S
C4606 H4597 0.930 . S
C4606 C4604 1.384 . S
C4606 C4607 1.372 . S
C4607 C4606 1.372 . S
C4607 C4608 1.400 . S
C4607 C4612 1.490 . S
C4608 H4598 0.930 . S
C4608 C4607 1.400 . S
C4608 C4611 1.386 . S
H4609 C4625 0.930 . S
H4610 C4626 0.931 . S
C4611 H4599 0.929 . S
C4611 C4605 1.390 . S
C4611 C4608 1.386 . S
C4612 C4607 1.490 . S
C4612 C4614 1.395 . S
C4612 C4615 1.403 . S
H4613 C4619 0.930 . S
C4614 H4600 0.930 . S
C4614 C4612 1.395 . S
C4614 C4617 1.403 . S
C4615 C4612 1.403 . S
C4615 C4616 1.524 . S
C4615 C4619 1.400 . S
C4616 H4601 0.960 . S
C4616 H4602 0.960 . S
C4616 H4603 0.960 . S
C4616 C4615 1.524 . S
C4617 C4614 1.403 . S
C4617 C4618 1.392 . S
C4617 C4621 1.495 . S
C4618 C4617 1.392 . S
C4618 C4619 1.385 . S
C4618 C4620 1.478 . S
C4619 H4613 0.930 . S
C4619 C4615 1.400 . S
C4619 C4618 1.385 . S
C4620 C4618 1.478 . S
C4620 C4622 1.381 . S
C4620 C4626 1.383 . S
C4621 C4617 1.495 . S
C4621 H4627 0.959 . S
C4621 H4628 0.961 . S
C4621 H4629 0.960 . S
C4622 C4620 1.381 . S
C4622 C4623 1.394 . S
C4622 H4630 0.930 . S
C4623 C4622 1.394 . S
C4623 C4624 1.383 . S
C4623 H4631 0.929 . S
C4624 C4623 1.383 . S
C4624 C4625 1.377 . S
C4625 H4609 0.930 . S
C4625 C4624 1.377 . S
C4625 C4626 1.379 . S
C4626 H4610 0.931 . S
C4626 C4620 1.383 . S
C4626 C4625 1.379 . S
H4627 C4621 0.959 . S
H4628 C4621 0.961 . S
H4629 C4621 0.960 . S
H4630 C4622 0.930 . S
H4631 C4623 0.929 . S
H4632 C4640 0.929 . S
H4633 C4642 0.930 . S
H4634 C4644 0.930 . S
H4635 C4647 0.929 . S
H4636 C4650 0.930 . S
H4637 C4652 0.960 . S
H4638 C4652 0.960 . S
H4639 C4652 0.960 . S
C4640 H4632 0.929 . S
C4640 C4641 1.377 . S
C4640 C4642 1.384 . S
C4641 C4640 1.377 . S
C4641 C4647 1.390 . S
C4642 H4633 0.930 . S
C4642 C4640 1.384 . S
C4642 C4643 1.372 . S
C4643 C4642 1.372 . S
C4643 C4644 1.400 . S
C4643 C4648 1.490 . S
C4644 H4634 0.930 . S
C4644 C4643 1.400 . S
C4644 C4647 1.386 . S
H4645 C4661 0.930 . S
H4646 C4662 0.931 . S
C4647 H4635 0.929 . S
C4647 C4641 1.390 . S
C4647 C4644 1.386 . S
C4648 C4643 1.490 . S
C4648 C4650 1.395 . S
C4648 C4651 1.403 . S
H4649 C4655 0.930 . S
C4650 H4636 0.930 . S
C4650 C4648 1.395 . S
C4650 C4653 1.403 . S
C4651 C4648 1.403 . S
C4651 C4652 1.524 . S
C4651 C4655 1.400 . S
C4652 H4637 0.960 . S
C4652 H4638 0.960 . S
C4652 H4639 0.960 . S
C4652 C4651 1.524 . S
C4653 C4650 1.403 . S
C4653 C4654 1.392 . S
C4653 C4657 1.495 . S
C4654 C4653 1.392 . S
C4654 C4655 1.385 . S
C4654 C4656 1.478 . S
C4655 H4649 0.930 . S
C4655 C4651 1.400 . S
C4655 C4654 1.385 . S
C4656 C4654 1.478 . S
C4656 C4658 1.381 . S
C4656 C4662 1.383 . S
C4657 C4653 1.495 . S
C4657 H4663 0.959 . S
C4657 H4664 0.961 . S
C4657 H4665 0.960 . S
C4658 C4656 1.381 . S
C4658 C4659 1.394 . S
C4658 H4666 0.930 . S
C4659 C4658 1.394 . S
C4659 C4660 1.383 . S
C4659 H4667 0.929 . S
C4660 C4659 1.383 . S
C4660 C4661 1.377 . S
C4661 H4645 0.930 . S
C4661 C4660 1.377 . S
C4661 C4662 1.379 . S
C4662 H4646 0.931 . S
C4662 C4656 1.383 . S
C4662 C4661 1.379 . S
H4663 C4657 0.959 . S
H4664 C4657 0.961 . S
H4665 C4657 0.960 . S
H4666 C4658 0.930 . S
H4667 C4659 0.929 . S
H4668 C4676 0.929 . S
H4669 C4678 0.930 . S
H4670 C4680 0.930 . S
H4671 C4683 0.929 . S
H4672 C4686 0.930 . S
H4673 C4688 0.960 . S
H4674 C4688 0.960 . S
H4675 C4688 0.960 . S
C4676 H4668 0.929 . S
C4676 C4677 1.377 . S
C4676 C4678 1.384 . S
C4677 C4676 1.377 . S
C4677 C4683 1.390 . S
C4678 H4669 0.930 . S
C4678 C4676 1.384 . S
C4678 C4679 1.372 . S
C4679 C4678 1.372 . S
C4679 C4680 1.400 . S
C4679 C4684 1.490 . S
C4680 H4670 0.930 . S
C4680 C4679 1.400 . S
C4680 C4683 1.386 . S
H4681 C4697 0.930 . S
H4682 C4698 0.931 . S
C4683 H4671 0.929 . S
C4683 C4677 1.390 . S
C4683 C4680 1.386 . S
C4684 C4679 1.490 . S
C4684 C4686 1.395 . S
C4684 C4687 1.403 . S
H4685 C4691 0.930 . S
C4686 H4672 0.930 . S
C4686 C4684 1.395 . S
C4686 C4689 1.403 . S
C4687 C4684 1.403 . S
C4687 C4688 1.524 . S
C4687 C4691 1.400 . S
C4688 H4673 0.960 . S
C4688 H4674 0.960 . S
C4688 H4675 0.960 . S
C4688 C4687 1.524 . S
C4689 C4686 1.403 . S
C4689 C4690 1.392 . S
C4689 C4693 1.495 . S
C4690 C4689 1.392 . S
C4690 C4691 1.385 . S
C4690 C4692 1.478 . S
C4691 H4685 0.930 . S
C4691 C4687 1.400 . S
C4691 C4690 1.385 . S
C4692 C4690 1.478 . S
C4692 C4694 1.381 . S
C4692 C4698 1.383 . S
C4693 C4689 1.495 . S
C4693 H4699 0.959 . S
C4693 H4700 0.961 . S
C4693 H4701 0.960 . S
C4694 C4692 1.381 . S
C4694 C4695 1.394 . S
C4694 H4702 0.930 . S
C4695 C4694 1.394 . S
C4695 C4696 1.383 . S
C4695 H4703 0.929 . S
C4696 C4695 1.383 . S
C4696 C4697 1.377 . S
C4697 H4681 0.930 . S
C4697 C4696 1.377 . S
C4697 C4698 1.379 . S
C4698 H4682 0.931 . S
C4698 C4692 1.383 . S
C4698 C4697 1.379 . S
H4699 C4693 0.959 . S
H4700 C4693 0.961 . S
H4701 C4693 0.960 . S
H4702 C4694 0.930 . S
H4703 C4695 0.929 . S
H4704 C4712 0.929 . S
H4705 C4714 0.930 . S
H4706 C4716 0.930 . S
H4707 C4719 0.929 . S
H4708 C4722 0.930 . S
H4709 C4724 0.960 . S
H4710 C4724 0.960 . S
H4711 C4724 0.960 . S
C4712 H4704 0.929 . S
C4712 C4713 1.377 . S
C4712 C4714 1.384 . S
C4713 C4712 1.377 . S
C4713 C4719 1.390 . S
C4714 H4705 0.930 . S
C4714 C4712 1.384 . S
C4714 C4715 1.372 . S
C4715 C4714 1.372 . S
C4715 C4716 1.400 . S
C4715 C4720 1.490 . S
C4716 H4706 0.930 . S
C4716 C4715 1.400 . S
C4716 C4719 1.386 . S
H4717 C4733 0.930 . S
H4718 C4734 0.931 . S
C4719 H4707 0.929 . S
C4719 C4713 1.390 . S
C4719 C4716 1.386 . S
C4720 C4715 1.490 . S
C4720 C4722 1.395 . S
C4720 C4723 1.403 . S
H4721 C4727 0.930 . S
C4722 H4708 0.930 . S
C4722 C4720 1.395 . S
C4722 C4725 1.403 . S
C4723 C4720 1.403 . S
C4723 C4724 1.524 . S
C4723 C4727 1.400 . S
C4724 H4709 0.960 . S
C4724 H4710 0.960 . S
C4724 H4711 0.960 . S
C4724 C4723 1.524 . S
C4725 C4722 1.403 . S
C4725 C4726 1.392 . S
C4725 C4729 1.495 . S
C4726 C4725 1.392 . S
C4726 C4727 1.385 . S
C4726 C4728 1.478 . S
C4727 H4721 0.930 . S
C4727 C4723 1.400 . S
C4727 C4726 1.385 . S
C4728 C4726 1.478 . S
C4728 C4730 1.381 . S
C4728 C4734 1.383 . S
C4729 C4725 1.495 . S
C4729 H4735 0.959 . S
C4729 H4736 0.961 . S
C4729 H4737 0.960 . S
C4730 C4728 1.381 . S
C4730 C4731 1.394 . S
C4730 H4738 0.930 . S
C4731 C4730 1.394 . S
C4731 C4732 1.383 . S
C4731 H4739 0.929 . S
C4732 C4731 1.383 . S
C4732 C4733 1.377 . S
C4733 H4717 0.930 . S
C4733 C4732 1.377 . S
C4733 C4734 1.379 . S
C4734 H4718 0.931 . S
C4734 C4728 1.383 . S
C4734 C4733 1.379 . S
H4735 C4729 0.959 . S
H4736 C4729 0.961 . S
H4737 C4729 0.960 . S
H4738 C4730 0.930 . S
H4739 C4731 0.929 . S
H4740 C4748 0.929 . S
H4741 C4750 0.930 . S
H4742 C4752 0.930 . S
H4743 C4755 0.929 . S
H4744 C4758 0.930 . S
H4745 C4760 0.960 . S
H4746 C4760 0.960 . S
H4747 C4760 0.960 . S
C4748 H4740 0.929 . S
C4748 C4749 1.377 . S
C4748 C4750 1.384 . S
C4749 C4748 1.377 . S
C4749 C4755 1.390 . S
C4750 H4741 0.930 . S
C4750 C4748 1.384 . S
C4750 C4751 1.372 . S
C4751 C4750 1.372 . S
C4751 C4752 1.400 . S
C4751 C4756 1.490 . S
C4752 H4742 0.930 . S
C4752 C4751 1.400 . S
C4752 C4755 1.386 . S
H4753 C4769 0.930 . S
H4754 C4770 0.931 . S
C4755 H4743 0.929 . S
C4755 C4749 1.390 . S
C4755 C4752 1.386 . S
C4756 C4751 1.490 . S
C4756 C4758 1.395 . S
C4756 C4759 1.403 . S
H4757 C4763 0.930 . S
C4758 H4744 0.930 . S
C4758 C4756 1.395 . S
C4758 C4761 1.403 . S
C4759 C4756 1.403 . S
C4759 C4760 1.524 . S
C4759 C4763 1.400 . S
C4760 H4745 0.960 . S
C4760 H4746 0.960 . S
C4760 H4747 0.960 . S
C4760 C4759 1.524 . S
C4761 C4758 1.403 . S
C4761 C4762 1.392 . S
C4761 C4765 1.602 . S
C4762 C4761 1.392 . S
C4762 C4763 1.385 . S
C4762 C4764 1.478 1_455 S
C4763 H4757 0.930 . S
C4763 C4759 1.400 . S
C4763 C4762 1.385 . S
C4764 C4762 1.478 1_655 S
C4764 C4766 1.381 . S
C4764 C4770 1.383 . S
C4765 C4761 1.602 . S
C4765 H4771 1.039 . S
C4765 H4772 0.829 1_455 S
C4765 H4773 0.937 1_455 S
C4766 C4764 1.381 . S
C4766 C4767 1.394 . S
C4766 H4774 0.930 . S
C4767 C4766 1.394 . S
C4767 C4768 1.383 . S
C4767 H4775 0.929 . S
C4768 C4767 1.383 . S
C4768 C4769 1.377 . S
C4769 H4753 0.930 . S
C4769 C4768 1.377 . S
C4769 C4770 1.379 . S
C4770 H4754 0.931 . S
C4770 C4764 1.383 . S
C4770 C4769 1.379 . S
H4771 C4765 1.039 . S
H4772 C4765 0.829 1_655 S
H4773 C4765 0.937 1_655 S
H4774 C4766 0.930 . S
H4775 C4767 0.929 . S
H4776 C4784 0.929 . S
H4777 C4786 0.930 . S
H4778 C4788 0.930 . S
H4779 C4791 0.929 . S
H4780 C4794 0.930 . S
H4781 C4796 0.960 . S
H4782 C4796 0.960 . S
H4783 C4796 0.960 . S
C4784 H4776 0.929 . S
C4784 C4785 1.377 . S
C4784 C4786 1.384 . S
C4785 C4784 1.377 . S
C4785 C4791 1.390 . S
C4786 H4777 0.930 . S
C4786 C4784 1.384 . S
C4786 C4787 1.372 . S
C4787 C4786 1.372 . S
C4787 C4788 1.400 . S
C4787 C4792 1.490 . S
C4788 H4778 0.930 . S
C4788 C4787 1.400 . S
C4788 C4791 1.386 . S
H4789 C4805 0.930 . S
H4790 C4806 0.931 . S
C4791 H4779 0.929 . S
C4791 C4785 1.390 . S
C4791 C4788 1.386 . S
C4792 C4787 1.490 . S
C4792 C4794 1.395 . S
C4792 C4795 1.403 . S
H4793 C4799 0.930 . S
C4794 H4780 0.930 . S
C4794 C4792 1.395 . S
C4794 C4797 1.403 . S
C4795 C4792 1.403 . S
C4795 C4796 1.524 . S
C4795 C4799 1.400 . S
C4796 H4781 0.960 . S
C4796 H4782 0.960 . S
C4796 H4783 0.960 . S
C4796 C4795 1.524 . S
C4797 C4794 1.403 . S
C4797 C4798 1.392 . S
C4797 C4801 1.495 . S
C4798 C4797 1.392 . S
C4798 C4799 1.385 . S
C4798 C4800 1.478 . S
C4799 H4793 0.930 . S
C4799 C4795 1.400 . S
C4799 C4798 1.385 . S
C4800 C4798 1.478 . S
C4800 C4802 1.381 . S
C4800 C4806 1.383 . S
C4801 C4797 1.495 . S
C4801 H4807 0.959 . S
C4801 H4808 0.961 . S
C4801 H4809 0.960 . S
C4802 C4800 1.381 . S
C4802 C4803 1.394 . S
C4802 H4810 0.930 . S
C4803 C4802 1.394 . S
C4803 C4804 1.383 . S
C4803 H4811 0.929 . S
C4804 C4803 1.383 . S
C4804 C4805 1.377 . S
C4805 H4789 0.930 . S
C4805 C4804 1.377 . S
C4805 C4806 1.379 . S
C4806 H4790 0.931 . S
C4806 C4800 1.383 . S
C4806 C4805 1.379 . S
H4807 C4801 0.959 . S
H4808 C4801 0.961 . S
H4809 C4801 0.960 . S
H4810 C4802 0.930 . S
H4811 C4803 0.929 . S
H4812 C4820 0.929 . S
H4813 C4822 0.930 . S
H4814 C4824 0.930 . S
H4815 C4827 0.929 . S
H4816 C4830 0.930 . S
H4817 C4832 0.960 . S
H4818 C4832 0.960 . S
H4819 C4832 0.960 . S
C4820 H4812 0.929 . S
C4820 C4821 1.377 . S
C4820 C4822 1.384 . S
C4821 C4820 1.377 . S
C4821 C4827 1.390 . S
C4822 H4813 0.930 . S
C4822 C4820 1.384 . S
C4822 C4823 1.372 . S
C4823 C4822 1.372 . S
C4823 C4824 1.400 . S
C4823 C4828 1.490 . S
C4824 H4814 0.930 . S
C4824 C4823 1.400 . S
C4824 C4827 1.386 . S
H4825 C4841 0.930 . S
H4826 C4842 0.931 . S
C4827 H4815 0.929 . S
C4827 C4821 1.390 . S
C4827 C4824 1.386 . S
C4828 C4823 1.490 . S
C4828 C4830 1.395 . S
C4828 C4831 1.403 . S
H4829 C4835 0.930 . S
C4830 H4816 0.930 . S
C4830 C4828 1.395 . S
C4830 C4833 1.403 . S
C4831 C4828 1.403 . S
C4831 C4832 1.524 . S
C4831 C4835 1.400 . S
C4832 H4817 0.960 . S
C4832 H4818 0.960 . S
C4832 H4819 0.960 . S
C4832 C4831 1.524 . S
C4833 C4830 1.403 . S
C4833 C4834 1.392 . S
C4833 C4837 1.495 . S
C4834 C4833 1.392 . S
C4834 C4835 1.385 . S
C4834 C4836 1.478 . S
C4835 H4829 0.930 . S
C4835 C4831 1.400 . S
C4835 C4834 1.385 . S
C4836 C4834 1.478 . S
C4836 C4838 1.381 . S
C4836 C4842 1.383 . S
C4837 C4833 1.495 . S
C4837 H4843 0.959 . S
C4837 H4844 0.961 . S
C4837 H4845 0.960 . S
C4838 C4836 1.381 . S
C4838 C4839 1.394 . S
C4838 H4846 0.930 . S
C4839 C4838 1.394 . S
C4839 C4840 1.383 . S
C4839 H4847 0.929 . S
C4840 C4839 1.383 . S
C4840 C4841 1.377 . S
C4841 H4825 0.930 . S
C4841 C4840 1.377 . S
C4841 C4842 1.379 . S
C4842 H4826 0.931 . S
C4842 C4836 1.383 . S
C4842 C4841 1.379 . S
H4843 C4837 0.959 . S
H4844 C4837 0.961 . S
H4845 C4837 0.960 . S
H4846 C4838 0.930 . S
H4847 C4839 0.929 . S
H4848 C4856 0.929 . S
H4849 C4858 0.930 . S
H4850 C4860 0.930 . S
H4851 C4863 0.929 . S
H4852 C4866 0.930 . S
H4853 C4868 0.960 . S
H4854 C4868 0.960 . S
H4855 C4868 0.960 . S
C4856 H4848 0.929 . S
C4856 C4857 1.377 . S
C4856 C4858 1.384 . S
C4857 C4856 1.377 . S
C4857 C4863 1.390 . S
C4858 H4849 0.930 . S
C4858 C4856 1.384 . S
C4858 C4859 1.372 . S
C4859 C4858 1.372 . S
C4859 C4860 1.400 . S
C4859 C4864 1.490 . S
C4860 H4850 0.930 . S
C4860 C4859 1.400 . S
C4860 C4863 1.386 . S
H4861 C4877 0.930 . S
H4862 C4878 0.931 . S
C4863 H4851 0.929 . S
C4863 C4857 1.390 . S
C4863 C4860 1.386 . S
C4864 C4859 1.490 . S
C4864 C4866 1.395 . S
C4864 C4867 1.403 . S
H4865 C4871 0.930 . S
C4866 H4852 0.930 . S
C4866 C4864 1.395 . S
C4866 C4869 1.403 . S
C4867 C4864 1.403 . S
C4867 C4868 1.524 . S
C4867 C4871 1.400 . S
C4868 H4853 0.960 . S
C4868 H4854 0.960 . S
C4868 H4855 0.960 . S
C4868 C4867 1.524 . S
C4869 C4866 1.403 . S
C4869 C4870 1.392 . S
C4869 C4873 1.495 . S
C4870 C4869 1.392 . S
C4870 C4871 1.385 . S
C4870 C4872 1.478 . S
C4871 H4865 0.930 . S
C4871 C4867 1.400 . S
C4871 C4870 1.385 . S
C4872 C4870 1.478 . S
C4872 C4874 1.381 . S
C4872 C4878 1.383 . S
C4873 C4869 1.495 . S
C4873 H4879 0.959 . S
C4873 H4880 0.961 . S
C4873 H4881 0.960 . S
C4874 C4872 1.381 . S
C4874 C4875 1.394 . S
C4874 H4882 0.930 . S
C4875 C4874 1.394 . S
C4875 C4876 1.383 . S
C4875 H4883 0.929 . S
C4876 C4875 1.383 . S
C4876 C4877 1.377 . S
C4877 H4861 0.930 . S
C4877 C4876 1.377 . S
C4877 C4878 1.379 . S
C4878 H4862 0.931 . S
C4878 C4872 1.383 . S
C4878 C4877 1.379 . S
H4879 C4873 0.959 . S
H4880 C4873 0.961 . S
H4881 C4873 0.960 . S
H4882 C4874 0.930 . S
H4883 C4875 0.929 . S
H4884 C4892 0.929 . S
H4885 C4894 0.930 . S
H4886 C4896 0.930 . S
H4887 C4899 0.929 . S
H4888 C4902 0.930 . S
H4889 C4904 0.960 . S
H4890 C4904 0.960 . S
H4891 C4904 0.960 . S
C4892 H4884 0.929 . S
C4892 C4893 1.377 . S
C4892 C4894 1.384 . S
C4893 C4892 1.377 . S
C4893 C4899 1.390 . S
C4894 H4885 0.930 . S
C4894 C4892 1.384 . S
C4894 C4895 1.372 . S
C4895 C4894 1.372 . S
C4895 C4896 1.400 . S
C4895 C4900 1.490 . S
C4896 H4886 0.930 . S
C4896 C4895 1.400 . S
C4896 C4899 1.386 . S
H4897 C4913 0.930 . S
H4898 C4914 0.931 . S
C4899 H4887 0.929 . S
C4899 C4893 1.390 . S
C4899 C4896 1.386 . S
C4900 C4895 1.490 . S
C4900 C4902 1.395 . S
C4900 C4903 1.403 . S
H4901 C4907 0.930 . S
C4902 H4888 0.930 . S
C4902 C4900 1.395 . S
C4902 C4905 1.403 . S
C4903 C4900 1.403 . S
C4903 C4904 1.524 . S
C4903 C4907 1.400 . S
C4904 H4889 0.960 . S
C4904 H4890 0.960 . S
C4904 H4891 0.960 . S
C4904 C4903 1.524 . S
C4905 C4902 1.403 . S
C4905 C4906 1.392 . S
C4905 C4909 1.495 . S
C4906 C4905 1.392 . S
C4906 C4907 1.385 . S
C4906 C4908 1.478 . S
C4907 H4901 0.930 . S
C4907 C4903 1.400 . S
C4907 C4906 1.385 . S
C4908 C4906 1.478 . S
C4908 C4910 1.381 . S
C4908 C4914 1.383 . S
C4909 C4905 1.495 . S
C4909 H4915 0.959 . S
C4909 H4916 0.961 . S
C4909 H4917 0.960 . S
C4910 C4908 1.381 . S
C4910 C4911 1.394 . S
C4910 H4918 0.930 . S
C4911 C4910 1.394 . S
C4911 C4912 1.383 . S
C4911 H4919 0.929 . S
C4912 C4911 1.383 . S
C4912 C4913 1.377 . S
C4913 H4897 0.930 . S
C4913 C4912 1.377 . S
C4913 C4914 1.379 . S
C4914 H4898 0.931 . S
C4914 C4908 1.383 . S
C4914 C4913 1.379 . S
H4915 C4909 0.959 . S
H4916 C4909 0.961 . S
H4917 C4909 0.960 . S
H4918 C4910 0.930 . S
H4919 C4911 0.929 . S
H4920 C4928 0.929 . S
H4921 C4930 0.930 . S
H4922 C4932 0.930 . S
H4923 C4935 0.929 . S
H4924 C4938 0.930 . S
H4925 C4940 0.960 . S
H4926 C4940 0.960 . S
H4927 C4940 0.960 . S
C4928 H4920 0.929 . S
C4928 C4929 1.377 . S
C4928 C4930 1.384 . S
C4929 C4928 1.377 . S
C4929 C4935 1.390 . S
C4930 H4921 0.930 . S
C4930 C4928 1.384 . S
C4930 C4931 1.372 . S
C4931 C4930 1.372 . S
C4931 C4932 1.400 . S
C4931 C4936 1.490 . S
C4932 H4922 0.930 . S
C4932 C4931 1.400 . S
C4932 C4935 1.386 . S
H4933 C4949 0.930 . S
H4934 C4950 0.931 . S
C4935 H4923 0.929 . S
C4935 C4929 1.390 . S
C4935 C4932 1.386 . S
C4936 C4931 1.490 . S
C4936 C4938 1.395 . S
C4936 C4939 1.403 . S
H4937 C4943 0.930 . S
C4938 H4924 0.930 . S
C4938 C4936 1.395 . S
C4938 C4941 1.403 . S
C4939 C4936 1.403 . S
C4939 C4940 1.524 . S
C4939 C4943 1.400 . S
C4940 H4925 0.960 . S
C4940 H4926 0.960 . S
C4940 H4927 0.960 . S
C4940 C4939 1.524 . S
C4941 C4938 1.403 . S
C4941 C4942 1.392 . S
C4941 C4945 1.495 . S
C4942 C4941 1.392 . S
C4942 C4943 1.385 . S
C4942 C4944 1.478 . S
C4943 H4937 0.930 . S
C4943 C4939 1.400 . S
C4943 C4942 1.385 . S
C4944 C4942 1.478 . S
C4944 C4946 1.381 . S
C4944 C4950 1.383 . S
C4945 C4941 1.495 . S
C4945 H4951 0.959 . S
C4945 H4952 0.961 . S
C4945 H4953 0.960 . S
C4946 C4944 1.381 . S
C4946 C4947 1.394 . S
C4946 H4954 0.930 . S
C4947 C4946 1.394 . S
C4947 C4948 1.383 . S
C4947 H4955 0.929 . S
C4948 C4947 1.383 . S
C4948 C4949 1.377 . S
C4949 H4933 0.930 . S
C4949 C4948 1.377 . S
C4949 C4950 1.379 . S
C4950 H4934 0.931 . S
C4950 C4944 1.383 . S
C4950 C4949 1.379 . S
H4951 C4945 0.959 . S
H4952 C4945 0.961 . S
H4953 C4945 0.960 . S
H4954 C4946 0.930 . S
H4955 C4947 0.929 . S
H4956 C4964 0.929 . S
H4957 C4966 0.930 . S
H4958 C4968 0.930 1_455 S
H4959 C4971 0.929 . S
H4960 C4974 1.041 . S
H4961 C4976 0.960 . S
H4962 C4976 0.960 . S
H4963 C4976 0.960 . S
C4964 H4956 0.929 . S
C4964 C4965 1.377 . S
C4964 C4966 1.384 . S
C4965 C4964 1.377 . S
C4965 C4971 1.390 . S
C4966 H4957 0.930 . S
C4966 C4964 1.384 . S
C4966 C4967 1.372 . S
C4967 C4966 1.372 . S
C4967 C4968 1.400 . S
C4967 C4972 1.490 1_655 S
C4968 H4958 0.930 1_655 S
C4968 C4967 1.400 . S
C4968 C4971 1.386 . S
H4969 C4985 0.930 . S
H4970 C4986 0.931 . S
C4971 H4959 0.929 . S
C4971 C4965 1.390 . S
C4971 C4968 1.386 . S
C4972 C4967 1.490 1_455 S
C4972 C4974 1.395 . S
C4972 C4975 1.403 . S
H4973 C4979 0.930 . S
C4974 H4960 1.041 . S
C4974 C4972 1.395 . S
C4974 C4977 1.403 . S
C4975 C4972 1.403 . S
C4975 C4976 1.524 . S
C4975 C4979 1.400 . S
C4976 H4961 0.960 . S
C4976 H4962 0.960 . S
C4976 H4963 0.960 . S
C4976 C4975 1.524 . S
C4977 C4974 1.403 . S
C4977 C4978 1.392 . S
C4977 C4981 1.495 . S
C4978 C4977 1.392 . S
C4978 C4979 1.385 . S
C4978 C4980 1.478 . S
C4979 H4973 0.930 . S
C4979 C4975 1.400 . S
C4979 C4978 1.385 . S
C4980 C4978 1.478 . S
C4980 C4982 1.381 . S
C4980 C4986 1.383 . S
C4981 C4977 1.495 . S
C4981 H4987 0.959 . S
C4981 H4988 0.961 . S
C4981 H4989 0.960 . S
C4982 C4980 1.381 . S
C4982 C4983 1.394 . S
C4982 H4990 0.930 . S
C4983 C4982 1.394 . S
C4983 C4984 1.383 . S
C4983 H4991 0.929 . S
C4984 C4983 1.383 . S
C4984 C4985 1.377 . S
C4985 H4969 0.930 . S
C4985 C4984 1.377 . S
C4985 C4986 1.379 . S
C4986 H4970 0.931 . S
C4986 C4980 1.383 . S
C4986 C4985 1.379 . S
H4987 C4981 0.959 . S
H4988 C4981 0.961 . S
H4989 C4981 0.960 . S
H4990 C4982 0.930 . S
H4991 C4983 0.929 . S
H4992 C5000 0.929 . S
H4993 C5002 0.930 . S
H4994 C5004 0.930 . S
H4995 C5007 0.929 . S
H4996 C5010 0.930 . S
H4997 C5012 0.960 . S
H4998 C5012 0.960 . S
H4999 C5012 0.960 . S
C5000 H4992 0.929 . S
C5000 C5001 1.377 . S
C5000 C5002 1.384 . S
C5001 C5000 1.377 . S
C5001 C5007 1.390 . S
C5002 H4993 0.930 . S
C5002 C5000 1.384 . S
C5002 C5003 1.372 . S
C5003 C5002 1.372 . S
C5003 C5004 1.400 . S
C5003 C5008 1.490 . S
C5004 H4994 0.930 . S
C5004 C5003 1.400 . S
C5004 C5007 1.386 . S
H5005 C5021 0.930 . S
H5006 C5022 0.931 . S
C5007 H4995 0.929 . S
C5007 C5001 1.390 . S
C5007 C5004 1.386 . S
C5008 C5003 1.490 . S
C5008 C5010 1.395 . S
C5008 C5011 1.403 . S
H5009 C5015 0.930 . S
C5010 H4996 0.930 . S
C5010 C5008 1.395 . S
C5010 C5013 1.403 . S
C5011 C5008 1.403 . S
C5011 C5012 1.524 . S
C5011 C5015 1.400 . S
C5012 H4997 0.960 . S
C5012 H4998 0.960 . S
C5012 H4999 0.960 . S
C5012 C5011 1.524 . S
C5013 C5010 1.403 . S
C5013 C5014 1.392 . S
C5013 C5017 1.495 . S
C5014 C5013 1.392 . S
C5014 C5015 1.385 . S
C5014 C5016 1.478 . S
C5015 H5009 0.930 . S
C5015 C5011 1.400 . S
C5015 C5014 1.385 . S
C5016 C5014 1.478 . S
C5016 C5018 1.381 . S
C5016 C5022 1.383 . S
C5017 C5013 1.495 . S
C5017 H5023 0.959 . S
C5017 H5024 0.961 . S
C5017 H5025 0.960 . S
C5018 C5016 1.381 . S
C5018 C5019 1.394 . S
C5018 H5026 0.930 . S
C5019 C5018 1.394 . S
C5019 C5020 1.383 . S
C5019 H5027 0.929 . S
C5020 C5019 1.383 . S
C5020 C5021 1.377 . S
C5021 H5005 0.930 . S
C5021 C5020 1.377 . S
C5021 C5022 1.379 . S
C5022 H5006 0.931 . S
C5022 C5016 1.383 . S
C5022 C5021 1.379 . S
H5023 C5017 0.959 . S
H5024 C5017 0.961 . S
H5025 C5017 0.960 . S
H5026 C5018 0.930 . S
H5027 C5019 0.929 . S
H5028 C5036 0.929 . S
H5029 C5038 0.930 . S
H5030 C5040 0.930 . S
H5031 C5043 0.929 . S
H5032 C5046 0.930 . S
H5033 C5048 0.960 . S
H5034 C5048 0.960 . S
H5035 C5048 0.960 . S
C5036 H5028 0.929 . S
C5036 C5037 1.377 . S
C5036 C5038 1.384 . S
C5037 C5036 1.377 . S
C5037 C5043 1.390 . S
C5038 H5029 0.930 . S
C5038 C5036 1.384 . S
C5038 C5039 1.372 . S
C5039 C5038 1.372 . S
C5039 C5040 1.400 . S
C5039 C5044 1.490 . S
C5040 H5030 0.930 . S
C5040 C5039 1.400 . S
C5040 C5043 1.386 . S
H5041 C5057 0.930 . S
H5042 C5058 0.931 . S
C5043 H5031 0.929 . S
C5043 C5037 1.390 . S
C5043 C5040 1.386 . S
C5044 C5039 1.490 . S
C5044 C5046 1.395 . S
C5044 C5047 1.403 . S
H5045 C5051 0.930 . S
C5046 H5032 0.930 . S
C5046 C5044 1.395 . S
C5046 C5049 1.403 . S
C5047 C5044 1.403 . S
C5047 C5048 1.524 . S
C5047 C5051 1.400 . S
C5048 H5033 0.960 . S
C5048 H5034 0.960 . S
C5048 H5035 0.960 . S
C5048 C5047 1.524 . S
C5049 C5046 1.403 . S
C5049 C5050 1.392 . S
C5049 C5053 1.495 . S
C5050 C5049 1.392 . S
C5050 C5051 1.385 . S
C5050 C5052 1.478 . S
C5051 H5045 0.930 . S
C5051 C5047 1.400 . S
C5051 C5050 1.385 . S
C5052 C5050 1.478 . S
C5052 C5054 1.381 . S
C5052 C5058 1.383 . S
C5053 C5049 1.495 . S
C5053 H5059 0.959 . S
C5053 H5060 0.961 . S
C5053 H5061 0.960 . S
C5054 C5052 1.381 . S
C5054 C5055 1.394 . S
C5054 H5062 0.930 . S
C5055 C5054 1.394 . S
C5055 C5056 1.383 . S
C5055 H5063 0.929 . S
C5056 C5055 1.383 . S
C5056 C5057 1.377 . S
C5057 H5041 0.930 . S
C5057 C5056 1.377 . S
C5057 C5058 1.379 . S
C5058 H5042 0.931 . S
C5058 C5052 1.383 . S
C5058 C5057 1.379 . S
H5059 C5053 0.959 . S
H5060 C5053 0.961 . S
H5061 C5053 0.960 . S
H5062 C5054 0.930 . S
H5063 C5055 0.929 . S
H5064 C5072 0.929 . S
H5065 C5074 0.930 . S
H5066 C5076 0.930 . S
H5067 C5079 0.929 . S
H5068 C5082 0.930 . S
H5069 C5084 0.960 . S
H5070 C5084 0.960 . S
H5071 C5084 0.960 . S
C5072 H5064 0.929 . S
C5072 C5073 1.377 . S
C5072 C5074 1.384 . S
C5073 C5072 1.377 . S
C5073 C5079 1.390 . S
C5074 H5065 0.930 . S
C5074 C5072 1.384 . S
C5074 C5075 1.372 . S
C5075 C5074 1.372 . S
C5075 C5076 1.400 . S
C5075 C5080 1.490 . S
C5076 H5066 0.930 . S
C5076 C5075 1.400 . S
C5076 C5079 1.386 . S
H5077 C5093 0.930 . S
H5078 C5094 0.931 . S
C5079 H5067 0.929 . S
C5079 C5073 1.390 . S
C5079 C5076 1.386 . S
C5080 C5075 1.490 . S
C5080 C5082 1.395 . S
C5080 C5083 1.403 . S
H5081 C5087 0.930 . S
C5082 H5068 0.930 . S
C5082 C5080 1.395 . S
C5082 C5085 1.403 . S
C5083 C5080 1.403 . S
C5083 C5084 1.524 . S
C5083 C5087 1.400 . S
C5084 H5069 0.960 . S
C5084 H5070 0.960 . S
C5084 H5071 0.960 . S
C5084 C5083 1.524 . S
C5085 C5082 1.403 . S
C5085 C5086 1.392 . S
C5085 C5089 1.495 . S
C5086 C5085 1.392 . S
C5086 C5087 1.385 . S
C5086 C5088 1.478 . S
C5087 H5081 0.930 . S
C5087 C5083 1.400 . S
C5087 C5086 1.385 . S
C5088 C5086 1.478 . S
C5088 C5090 1.381 . S
C5088 C5094 1.383 . S
C5089 C5085 1.495 . S
C5089 H5095 0.959 . S
C5089 H5096 0.961 . S
C5089 H5097 0.960 . S
C5090 C5088 1.381 . S
C5090 C5091 1.394 . S
C5090 H5098 0.930 . S
C5091 C5090 1.394 . S
C5091 C5092 1.383 . S
C5091 H5099 0.929 . S
C5092 C5091 1.383 . S
C5092 C5093 1.377 . S
C5093 H5077 0.930 . S
C5093 C5092 1.377 . S
C5093 C5094 1.379 . S
C5094 H5078 0.931 . S
C5094 C5088 1.383 . S
C5094 C5093 1.379 . S
H5095 C5089 0.959 . S
H5096 C5089 0.961 . S
H5097 C5089 0.960 . S
H5098 C5090 0.930 . S
H5099 C5091 0.929 . S
H5100 C5108 0.929 . S
H5101 C5110 0.930 1_556 S
H5102 C5112 0.930 . S
H5103 C5115 0.929 . S
H5104 C5118 0.930 . S
H5105 C5120 0.960 . S
H5106 C5120 0.960 . S
H5107 C5120 0.960 1_554 S
C5108 H5100 0.929 . S
C5108 C5109 1.377 . S
C5108 C5110 1.384 . S
C5109 C5108 1.377 . S
C5109 C5115 1.390 . S
C5110 H5101 0.930 1_554 S
C5110 C5108 1.384 . S
C5110 C5111 1.372 . S
C5111 C5110 1.372 . S
C5111 C5112 1.400 . S
C5111 C5116 1.490 1_554 S
C5112 H5102 0.930 . S
C5112 C5111 1.400 . S
C5112 C5115 1.386 . S
H5113 C5129 0.930 . S
H5114 C5130 0.931 . S
C5115 H5103 0.929 . S
C5115 C5109 1.390 . S
C5115 C5112 1.386 . S
C5116 C5111 1.490 1_556 S
C5116 C5118 1.395 . S
C5116 C5119 1.403 . S
H5117 C5123 0.930 . S
C5118 H5104 0.930 . S
C5118 C5116 1.395 . S
C5118 C5121 1.403 . S
C5119 C5116 1.403 . S
C5119 C5120 1.524 . S
C5119 C5123 1.400 . S
C5120 H5105 0.960 . S
C5120 H5106 0.960 . S
C5120 H5107 0.960 1_556 S
C5120 C5119 1.524 . S
C5121 C5118 1.403 . S
C5121 C5122 1.392 . S
C5121 C5125 1.495 . S
C5122 C5121 1.392 . S
C5122 C5123 1.385 . S
C5122 C5124 1.478 . S
C5123 H5117 0.930 . S
C5123 C5119 1.400 . S
C5123 C5122 1.385 . S
C5124 C5122 1.478 . S
C5124 C5126 1.381 . S
C5124 C5130 1.383 . S
C5125 C5121 1.495 . S
C5125 H5131 0.959 . S
C5125 H5132 0.961 . S
C5125 H5133 0.960 . S
C5126 C5124 1.381 . S
C5126 C5127 1.394 . S
C5126 H5134 0.930 . S
C5127 C5126 1.394 . S
C5127 C5128 1.383 . S
C5127 H5135 0.929 . S
C5128 C5127 1.383 . S
C5128 C5129 1.377 . S
C5129 H5113 0.930 . S
C5129 C5128 1.377 . S
C5129 C5130 1.379 . S
C5130 H5114 0.931 . S
C5130 C5124 1.383 . S
C5130 C5129 1.379 . S
H5131 C5125 0.959 . S
H5132 C5125 0.961 . S
H5133 C5125 0.960 . S
H5134 C5126 0.930 . S
H5135 C5127 0.929 . S
H5136 C5144 0.929 . S
H5137 C5146 0.930 . S
H5138 C5148 0.930 . S
H5139 C5151 0.929 . S
H5140 C5154 0.930 . S
H5141 C5156 0.960 . S
H5142 C5156 0.960 . S
H5143 C5156 0.960 . S
C5144 H5136 0.929 . S
C5144 C5145 1.377 . S
C5144 C5146 1.384 . S
C5145 C5144 1.377 . S
C5145 C5151 1.390 . S
C5146 H5137 0.930 . S
C5146 C5144 1.384 . S
C5146 C5147 1.372 . S
C5147 C5146 1.372 . S
C5147 C5148 1.400 . S
C5147 C5152 1.490 . S
C5148 H5138 0.930 . S
C5148 C5147 1.400 . S
C5148 C5151 1.386 . S
H5149 C5165 0.930 . S
H5150 C5166 0.931 . S
C5151 H5139 0.929 . S
C5151 C5145 1.390 . S
C5151 C5148 1.386 . S
C5152 C5147 1.490 . S
C5152 C5154 1.395 . S
C5152 C5155 1.403 . S
H5153 C5159 0.930 . S
C5154 H5140 0.930 . S
C5154 C5152 1.395 . S
C5154 C5157 1.403 . S
C5155 C5152 1.403 . S
C5155 C5156 1.524 . S
C5155 C5159 1.400 . S
C5156 H5141 0.960 . S
C5156 H5142 0.960 . S
C5156 H5143 0.960 . S
C5156 C5155 1.524 . S
C5157 C5154 1.403 . S
C5157 C5158 1.392 . S
C5157 C5161 1.495 . S
C5158 C5157 1.392 . S
C5158 C5159 1.385 . S
C5158 C5160 1.478 . S
C5159 H5153 0.930 . S
C5159 C5155 1.400 . S
C5159 C5158 1.385 . S
C5160 C5158 1.478 . S
C5160 C5162 1.381 . S
C5160 C5166 1.383 . S
C5161 C5157 1.495 . S
C5161 H5167 0.959 . S
C5161 H5168 0.961 . S
C5161 H5169 0.960 . S
C5162 C5160 1.381 . S
C5162 C5163 1.394 . S
C5162 H5170 0.930 . S
C5163 C5162 1.394 . S
C5163 C5164 1.383 . S
C5163 H5171 0.929 . S
C5164 C5163 1.383 . S
C5164 C5165 1.377 . S
C5165 H5149 0.930 . S
C5165 C5164 1.377 . S
C5165 C5166 1.379 . S
C5166 H5150 0.931 . S
C5166 C5160 1.383 . S
C5166 C5165 1.379 . S
H5167 C5161 0.959 . S
H5168 C5161 0.961 . S
H5169 C5161 0.960 . S
H5170 C5162 0.930 . S
H5171 C5163 0.929 . S
H5172 C5180 0.929 . S
H5173 C5182 0.930 . S
H5174 C5184 0.930 . S
H5175 C5187 0.929 . S
H5176 C5190 0.930 . S
H5177 C5192 0.960 . S
H5178 C5192 0.960 . S
H5179 C5192 0.960 . S
C5180 H5172 0.929 . S
C5180 C5181 1.377 . S
C5180 C5182 1.384 . S
C5181 C5180 1.377 . S
C5181 C5187 1.390 . S
C5182 H5173 0.930 . S
C5182 C5180 1.384 . S
C5182 C5183 1.372 . S
C5183 C5182 1.372 . S
C5183 C5184 1.400 . S
C5183 C5188 1.490 . S
C5184 H5174 0.930 . S
C5184 C5183 1.400 . S
C5184 C5187 1.386 . S
H5185 C5201 0.930 . S
H5186 C5202 0.931 . S
C5187 H5175 0.929 . S
C5187 C5181 1.390 . S
C5187 C5184 1.386 . S
C5188 C5183 1.490 . S
C5188 C5190 1.395 . S
C5188 C5191 1.403 . S
H5189 C5195 0.930 . S
C5190 H5176 0.930 . S
C5190 C5188 1.395 . S
C5190 C5193 1.403 . S
C5191 C5188 1.403 . S
C5191 C5192 1.524 . S
C5191 C5195 1.400 . S
C5192 H5177 0.960 . S
C5192 H5178 0.960 . S
C5192 H5179 0.960 . S
C5192 C5191 1.524 . S
C5193 C5190 1.403 . S
C5193 C5194 1.392 . S
C5193 C5197 1.495 . S
C5194 C5193 1.392 . S
C5194 C5195 1.385 . S
C5194 C5196 1.478 . S
C5195 H5189 0.930 . S
C5195 C5191 1.400 . S
C5195 C5194 1.385 . S
C5196 C5194 1.478 . S
C5196 C5198 1.381 . S
C5196 C5202 1.383 . S
C5197 C5193 1.495 . S
C5197 H5203 0.959 . S
C5197 H5204 0.961 . S
C5197 H5205 0.960 . S
C5198 C5196 1.381 . S
C5198 C5199 1.394 . S
C5198 H5206 0.930 . S
C5199 C5198 1.394 . S
C5199 C5200 1.383 . S
C5199 H5207 0.929 . S
C5200 C5199 1.383 . S
C5200 C5201 1.377 . S
C5201 H5185 0.930 . S
C5201 C5200 1.377 . S
C5201 C5202 1.379 . S
C5202 H5186 0.931 . S
C5202 C5196 1.383 . S
C5202 C5201 1.379 . S
H5203 C5197 0.959 . S
H5204 C5197 0.961 . S
H5205 C5197 0.960 . S
H5206 C5198 0.930 . S
H5207 C5199 0.929 . S
H5208 C5216 0.929 . S
H5209 C5218 0.930 . S
H5210 C5220 0.930 . S
H5211 C5223 0.929 . S
H5212 C5226 0.930 . S
H5213 C5228 0.960 . S
H5214 C5228 0.960 . S
H5215 C5228 0.960 . S
C5216 H5208 0.929 . S
C5216 C5217 1.377 . S
C5216 C5218 1.384 . S
C5217 C5216 1.377 . S
C5217 C5223 1.390 . S
C5218 H5209 0.930 . S
C5218 C5216 1.384 . S
C5218 C5219 1.372 . S
C5219 C5218 1.372 . S
C5219 C5220 1.400 . S
C5219 C5224 1.490 . S
C5220 H5210 0.930 . S
C5220 C5219 1.400 . S
C5220 C5223 1.386 . S
H5221 C5237 0.930 . S
H5222 C5238 0.931 . S
C5223 H5211 0.929 . S
C5223 C5217 1.390 . S
C5223 C5220 1.386 . S
C5224 C5219 1.490 . S
C5224 C5226 1.395 . S
C5224 C5227 1.403 . S
H5225 C5231 0.930 . S
C5226 H5212 0.930 . S
C5226 C5224 1.395 . S
C5226 C5229 1.403 . S
C5227 C5224 1.403 . S
C5227 C5228 1.524 . S
C5227 C5231 1.400 . S
C5228 H5213 0.960 . S
C5228 H5214 0.960 . S
C5228 H5215 0.960 . S
C5228 C5227 1.524 . S
C5229 C5226 1.403 . S
C5229 C5230 1.392 . S
C5229 C5233 1.495 . S
C5230 C5229 1.392 . S
C5230 C5231 1.385 . S
C5230 C5232 1.478 . S
C5231 H5225 0.930 . S
C5231 C5227 1.400 . S
C5231 C5230 1.385 . S
C5232 C5230 1.478 . S
C5232 C5234 1.381 . S
C5232 C5238 1.383 . S
C5233 C5229 1.495 . S
C5233 H5239 0.959 . S
C5233 H5240 0.961 . S
C5233 H5241 0.960 . S
C5234 C5232 1.381 . S
C5234 C5235 1.394 . S
C5234 H5242 0.930 . S
C5235 C5234 1.394 . S
C5235 C5236 1.383 . S
C5235 H5243 0.929 . S
C5236 C5235 1.383 . S
C5236 C5237 1.377 . S
C5237 H5221 0.930 . S
C5237 C5236 1.377 . S
C5237 C5238 1.379 . S
C5238 H5222 0.931 . S
C5238 C5232 1.383 . S
C5238 C5237 1.379 . S
H5239 C5233 0.959 . S
H5240 C5233 0.961 . S
H5241 C5233 0.960 . S
H5242 C5234 0.930 . S
H5243 C5235 0.929 . S
H5244 C5252 0.929 . S
H5245 C5254 0.930 . S
H5246 C5256 0.930 . S
H5247 C5259 0.929 . S
H5248 C5262 0.930 . S
H5249 C5264 0.960 . S
H5250 C5264 0.960 . S
H5251 C5264 0.960 . S
C5252 H5244 0.929 . S
C5252 C5253 1.377 . S
C5252 C5254 1.384 . S
C5253 C5252 1.377 . S
C5253 C5259 1.390 . S
C5254 H5245 0.930 . S
C5254 C5252 1.384 . S
C5254 C5255 1.372 . S
C5255 C5254 1.372 . S
C5255 C5256 1.400 . S
C5255 C5260 1.490 . S
C5256 H5246 0.930 . S
C5256 C5255 1.400 . S
C5256 C5259 1.386 . S
H5257 C5273 0.930 . S
H5258 C5274 0.931 . S
C5259 H5247 0.929 . S
C5259 C5253 1.390 . S
C5259 C5256 1.386 . S
C5260 C5255 1.490 . S
C5260 C5262 1.395 . S
C5260 C5263 1.403 . S
H5261 C5267 0.930 . S
C5262 H5248 0.930 . S
C5262 C5260 1.395 . S
C5262 C5265 1.403 . S
C5263 C5260 1.403 . S
C5263 C5264 1.524 . S
C5263 C5267 1.400 . S
C5264 H5249 0.960 . S
C5264 H5250 0.960 . S
C5264 H5251 0.960 . S
C5264 C5263 1.524 . S
C5265 C5262 1.403 . S
C5265 C5266 1.392 . S
C5265 C5269 1.495 1_554 S
C5266 C5265 1.392 . S
C5266 C5267 1.385 . S
C5266 C5268 1.478 1_554 S
C5267 H5261 0.930 . S
C5267 C5263 1.400 . S
C5267 C5266 1.385 . S
C5268 C5266 1.478 1_556 S
C5268 C5270 1.381 . S
C5268 C5274 1.383 . S
C5269 C5265 1.495 1_556 S
C5269 H5275 0.945 1_556 S
C5269 H5276 0.961 . S
C5269 H5277 0.960 . S
C5270 C5268 1.381 . S
C5270 C5271 1.394 . S
C5270 H5278 0.930 . S
C5271 C5270 1.394 . S
C5271 C5272 1.383 . S
C5271 H5279 0.929 . S
C5272 C5271 1.383 . S
C5272 C5273 1.377 . S
C5273 H5257 0.930 . S
C5273 C5272 1.377 . S
C5273 C5274 1.379 . S
C5274 H5258 0.931 . S
C5274 C5268 1.383 . S
C5274 C5273 1.379 . S
H5275 C5269 0.945 1_554 S
H5276 C5269 0.961 . S
H5277 C5269 0.960 . S
H5278 C5270 0.930 . S
H5279 C5271 0.929 . S
H5280 C5288 0.929 . S
H5281 C5290 0.930 . S
H5282 C5292 0.930 . S
H5283 C5295 0.929 . S
H5284 C5298 0.930 . S
H5285 C5300 0.960 . S
H5286 C5300 0.960 . S
H5287 C5300 0.960 . S
C5288 H5280 0.929 . S
C5288 C5289 1.377 . S
C5288 C5290 1.384 . S
C5289 C5288 1.377 . S
C5289 C5295 1.390 . S
C5290 H5281 0.930 . S
C5290 C5288 1.384 . S
C5290 C5291 1.372 . S
C5291 C5290 1.372 . S
C5291 C5292 1.400 . S
C5291 C5296 1.490 . S
C5292 H5282 0.930 . S
C5292 C5291 1.400 . S
C5292 C5295 1.386 . S
H5293 C5309 0.930 . S
H5294 C5310 0.931 . S
C5295 H5283 0.929 . S
C5295 C5289 1.390 . S
C5295 C5292 1.386 . S
C5296 C5291 1.490 . S
C5296 C5298 1.395 . S
C5296 C5299 1.403 . S
H5297 C5303 0.930 . S
C5298 H5284 0.930 . S
C5298 C5296 1.395 . S
C5298 C5301 1.403 . S
C5299 C5296 1.403 . S
C5299 C5300 1.524 . S
C5299 C5303 1.400 . S
C5300 H5285 0.960 . S
C5300 H5286 0.960 . S
C5300 H5287 0.960 . S
C5300 C5299 1.524 . S
C5301 C5298 1.403 . S
C5301 C5302 1.392 . S
C5301 C5305 1.495 . S
C5302 C5301 1.392 . S
C5302 C5303 1.385 . S
C5302 C5304 1.478 . S
C5303 H5297 0.930 . S
C5303 C5299 1.400 . S
C5303 C5302 1.385 . S
C5304 C5302 1.478 . S
C5304 C5306 1.381 . S
C5304 C5310 1.383 . S
C5305 C5301 1.495 . S
C5305 H5311 0.959 . S
C5305 H5312 0.961 . S
C5305 H5313 0.960 . S
C5306 C5304 1.381 . S
C5306 C5307 1.394 . S
C5306 H5314 0.930 . S
C5307 C5306 1.394 . S
C5307 C5308 1.383 . S
C5307 H5315 0.929 . S
C5308 C5307 1.383 . S
C5308 C5309 1.377 . S
C5309 H5293 0.930 . S
C5309 C5308 1.377 . S
C5309 C5310 1.379 . S
C5310 H5294 0.931 . S
C5310 C5304 1.383 . S
C5310 C5309 1.379 . S
H5311 C5305 0.959 . S
H5312 C5305 0.961 . S
H5313 C5305 0.960 . S
H5314 C5306 0.930 . S
H5315 C5307 0.929 . S
H5316 C5324 0.929 . S
H5317 C5326 0.930 . S
H5318 C5328 0.930 . S
H5319 C5331 0.929 . S
H5320 C5334 0.930 . S
H5321 C5336 0.960 . S
H5322 C5336 0.960 . S
H5323 C5336 0.960 . S
C5324 H5316 0.929 . S
C5324 C5325 1.377 . S
C5324 C5326 1.384 . S
C5325 C5324 1.377 . S
C5325 C5331 1.390 . S
C5326 H5317 0.930 . S
C5326 C5324 1.384 . S
C5326 C5327 1.372 . S
C5327 C5326 1.372 . S
C5327 C5328 1.400 . S
C5327 C5332 1.490 . S
C5328 H5318 0.930 . S
C5328 C5327 1.400 . S
C5328 C5331 1.386 . S
H5329 C5345 0.930 . S
H5330 C5346 0.931 . S
C5331 H5319 0.929 . S
C5331 C5325 1.390 . S
C5331 C5328 1.386 . S
C5332 C5327 1.490 . S
C5332 C5334 1.395 . S
C5332 C5335 1.403 . S
H5333 C5339 0.930 . S
C5334 H5320 0.930 . S
C5334 C5332 1.395 . S
C5334 C5337 1.403 . S
C5335 C5332 1.403 . S
C5335 C5336 1.524 . S
C5335 C5339 1.400 . S
C5336 H5321 0.960 . S
C5336 H5322 0.960 . S
C5336 H5323 0.960 . S
C5336 C5335 1.524 . S
C5337 C5334 1.403 . S
C5337 C5338 1.392 . S
C5337 C5341 1.495 . S
C5338 C5337 1.392 . S
C5338 C5339 1.385 . S
C5338 C5340 1.478 . S
C5339 H5333 0.930 . S
C5339 C5335 1.400 . S
C5339 C5338 1.385 . S
C5340 C5338 1.478 . S
C5340 C5342 1.381 . S
C5340 C5346 1.383 . S
C5341 C5337 1.495 . S
C5341 H5347 0.959 . S
C5341 H5348 0.961 . S
C5341 H5349 0.960 . S
C5342 C5340 1.381 . S
C5342 C5343 1.394 . S
C5342 H5350 0.930 . S
C5343 C5342 1.394 . S
C5343 C5344 1.383 . S
C5343 H5351 0.929 . S
C5344 C5343 1.383 . S
C5344 C5345 1.377 . S
C5345 H5329 0.930 . S
C5345 C5344 1.377 . S
C5345 C5346 1.379 . S
C5346 H5330 0.931 . S
C5346 C5340 1.383 . S
C5346 C5345 1.379 . S
H5347 C5341 0.959 . S
H5348 C5341 0.961 . S
H5349 C5341 0.960 . S
H5350 C5342 0.930 . S
H5351 C5343 0.929 . S
H5352 C5360 0.929 . S
H5353 C5362 0.930 . S
H5354 C5364 0.930 . S
H5355 C5367 0.929 . S
H5356 C5370 0.930 . S
H5357 C5372 0.960 . S
H5358 C5372 0.960 . S
H5359 C5372 0.960 . S
C5360 H5352 0.929 . S
C5360 C5361 1.377 . S
C5360 C5362 1.384 . S
C5361 C5360 1.377 . S
C5361 C5367 1.390 . S
C5362 H5353 0.930 . S
C5362 C5360 1.384 . S
C5362 C5363 1.372 . S
C5363 C5362 1.372 . S
C5363 C5364 1.400 . S
C5363 C5368 1.490 . S
C5364 H5354 0.930 . S
C5364 C5363 1.400 . S
C5364 C5367 1.386 . S
H5365 C5381 0.930 . S
H5366 C5382 0.931 . S
C5367 H5355 0.929 . S
C5367 C5361 1.390 . S
C5367 C5364 1.386 . S
C5368 C5363 1.490 . S
C5368 C5370 1.395 . S
C5368 C5371 1.403 . S
H5369 C5375 0.930 . S
C5370 H5356 0.930 . S
C5370 C5368 1.395 . S
C5370 C5373 1.403 . S
C5371 C5368 1.403 . S
C5371 C5372 1.524 . S
C5371 C5375 1.400 . S
C5372 H5357 0.960 . S
C5372 H5358 0.960 . S
C5372 H5359 0.960 . S
C5372 C5371 1.524 . S
C5373 C5370 1.403 . S
C5373 C5374 1.392 . S
C5373 C5377 1.495 . S
C5374 C5373 1.392 . S
C5374 C5375 1.385 . S
C5374 C5376 1.478 . S
C5375 H5369 0.930 . S
C5375 C5371 1.400 . S
C5375 C5374 1.385 . S
C5376 C5374 1.478 . S
C5376 C5378 1.381 . S
C5376 C5382 1.383 . S
C5377 C5373 1.495 . S
C5377 H5383 0.959 . S
C5377 H5384 0.961 . S
C5377 H5385 0.960 . S
C5378 C5376 1.381 . S
C5378 C5379 1.394 . S
C5378 H5386 0.930 . S
C5379 C5378 1.394 . S
C5379 C5380 1.383 . S
C5379 H5387 0.929 . S
C5380 C5379 1.383 . S
C5380 C5381 1.377 . S
C5381 H5365 0.930 . S
C5381 C5380 1.377 . S
C5381 C5382 1.379 . S
C5382 H5366 0.931 . S
C5382 C5376 1.383 . S
C5382 C5381 1.379 . S
H5383 C5377 0.959 . S
H5384 C5377 0.961 . S
H5385 C5377 0.960 . S
H5386 C5378 0.930 . S
H5387 C5379 0.929 . S
H5388 C5396 0.929 . S
H5389 C5398 0.930 . S
H5390 C5400 0.930 . S
H5391 C5403 0.929 . S
H5392 C5406 0.930 . S
H5393 C5408 0.960 . S
H5394 C5408 0.960 . S
H5395 C5408 0.960 . S
C5396 H5388 0.929 . S
C5396 C5397 1.377 . S
C5396 C5398 1.384 . S
C5397 C5396 1.377 . S
C5397 C5403 1.390 . S
C5398 H5389 0.930 . S
C5398 C5396 1.384 . S
C5398 C5399 1.372 . S
C5399 C5398 1.372 . S
C5399 C5400 1.400 . S
C5399 C5404 1.490 . S
C5400 H5390 0.930 . S
C5400 C5399 1.400 . S
C5400 C5403 1.386 . S
H5401 C5417 0.930 . S
H5402 C5418 0.931 . S
C5403 H5391 0.929 . S
C5403 C5397 1.390 . S
C5403 C5400 1.386 . S
C5404 C5399 1.490 . S
C5404 C5406 1.395 . S
C5404 C5407 1.403 . S
H5405 C5411 0.930 . S
C5406 H5392 0.930 . S
C5406 C5404 1.395 . S
C5406 C5409 1.403 . S
C5407 C5404 1.403 . S
C5407 C5408 1.524 . S
C5407 C5411 1.400 . S
C5408 H5393 0.960 . S
C5408 H5394 0.960 . S
C5408 H5395 0.960 . S
C5408 C5407 1.524 . S
C5409 C5406 1.403 . S
C5409 C5410 1.392 . S
C5409 C5413 1.495 . S
C5410 C5409 1.392 . S
C5410 C5411 1.385 . S
C5410 C5412 1.478 . S
C5411 H5405 0.930 . S
C5411 C5407 1.400 . S
C5411 C5410 1.385 . S
C5412 C5410 1.478 . S
C5412 C5414 1.381 . S
C5412 C5418 1.383 . S
C5413 C5409 1.495 . S
C5413 H5419 0.959 . S
C5413 H5420 0.961 . S
C5413 H5421 0.960 . S
C5414 C5412 1.381 . S
C5414 C5415 1.394 . S
C5414 H5422 0.930 . S
C5415 C5414 1.394 . S
C5415 C5416 1.383 . S
C5415 H5423 0.929 . S
C5416 C5415 1.383 . S
C5416 C5417 1.377 . S
C5417 H5401 0.930 . S
C5417 C5416 1.377 . S
C5417 C5418 1.379 . S
C5418 H5402 0.931 . S
C5418 C5412 1.383 . S
C5418 C5417 1.379 . S
H5419 C5413 0.959 . S
H5420 C5413 0.961 . S
H5421 C5413 0.960 . S
H5422 C5414 0.930 . S
H5423 C5415 0.929 . S
H5424 C5432 0.929 . S
H5425 C5434 0.930 . S
H5426 C5436 0.930 . S
H5427 C5439 0.929 . S
H5428 C5442 0.930 . S
H5429 C5444 0.960 . S
H5430 C5444 0.960 . S
H5431 C5444 0.960 . S
C5432 H5424 0.929 . S
C5432 C5433 1.377 . S
C5432 C5434 1.384 . S
C5433 C5432 1.377 . S
C5433 C5439 1.390 . S
C5434 H5425 0.930 . S
C5434 C5432 1.384 . S
C5434 C5435 1.372 . S
C5435 C5434 1.372 . S
C5435 C5436 1.400 . S
C5435 C5440 1.490 . S
C5436 H5426 0.930 . S
C5436 C5435 1.400 . S
C5436 C5439 1.386 . S
H5437 C5453 0.930 . S
H5438 C5454 1.022 . S
C5439 H5427 0.929 . S
C5439 C5433 1.390 . S
C5439 C5436 1.386 . S
C5440 C5435 1.490 . S
C5440 C5442 1.395 . S
C5440 C5443 1.403 . S
H5441 C5447 0.930 . S
C5442 H5428 0.930 . S
C5442 C5440 1.395 . S
C5442 C5445 1.403 . S
C5443 C5440 1.403 . S
C5443 C5444 1.524 . S
C5443 C5447 1.400 . S
C5444 H5429 0.960 . S
C5444 H5430 0.960 . S
C5444 H5431 0.960 . S
C5444 C5443 1.524 . S
C5445 C5442 1.403 . S
C5445 C5446 1.392 . S
C5445 C5449 1.495 . S
C5446 C5445 1.392 . S
C5446 C5447 1.385 . S
C5446 C5448 1.478 1_545 S
C5447 H5441 0.930 . S
C5447 C5443 1.400 . S
C5447 C5446 1.385 . S
C5448 C5446 1.478 1_565 S
C5448 C5450 1.381 . S
C5448 C5454 1.383 . S
C5449 C5445 1.495 . S
C5449 H5455 0.959 . S
C5449 H5456 0.961 . S
C5449 H5457 0.960 . S
C5450 C5448 1.381 . S
C5450 C5451 1.394 . S
C5450 H5458 0.930 . S
C5451 C5450 1.394 . S
C5451 C5452 1.383 . S
C5451 H5459 0.929 . S
C5452 C5451 1.383 . S
C5452 C5453 1.377 . S
C5453 H5437 0.930 . S
C5453 C5452 1.377 . S
C5453 C5454 1.379 . S
C5454 H5438 1.022 . S
C5454 C5448 1.383 . S
C5454 C5453 1.379 . S
H5455 C5449 0.959 . S
H5456 C5449 0.961 . S
H5457 C5449 0.960 . S
H5458 C5450 0.930 . S
H5459 C5451 0.929 . S
H5460 C5468 0.929 . S
H5461 C5470 0.930 . S
H5462 C5472 0.930 . S
H5463 C5475 0.929 . S
H5464 C5478 0.930 . S
H5465 C5480 0.960 . S
H5466 C5480 0.960 . S
H5467 C5480 0.960 . S
C5468 H5460 0.929 . S
C5468 C5469 1.377 . S
C5468 C5470 1.384 . S
C5469 C5468 1.377 . S
C5469 C5475 1.390 . S
C5470 H5461 0.930 . S
C5470 C5468 1.384 . S
C5470 C5471 1.372 . S
C5471 C5470 1.372 . S
C5471 C5472 1.400 . S
C5471 C5476 1.490 . S
C5472 H5462 0.930 . S
C5472 C5471 1.400 . S
C5472 C5475 1.386 . S
H5473 C5489 0.930 . S
H5474 C5490 0.931 . S
C5475 H5463 0.929 . S
C5475 C5469 1.390 . S
C5475 C5472 1.386 . S
C5476 C5471 1.490 . S
C5476 C5478 1.395 . S
C5476 C5479 1.403 . S
H5477 C5483 0.930 . S
C5478 H5464 0.930 . S
C5478 C5476 1.395 . S
C5478 C5481 1.403 . S
C5479 C5476 1.403 . S
C5479 C5480 1.524 . S
C5479 C5483 1.400 . S
C5480 H5465 0.960 . S
C5480 H5466 0.960 . S
C5480 H5467 0.960 . S
C5480 C5479 1.524 . S
C5481 C5478 1.403 . S
C5481 C5482 1.392 . S
C5481 C5485 1.495 . S
C5482 C5481 1.392 . S
C5482 C5483 1.385 . S
C5482 C5484 1.478 . S
C5483 H5477 0.930 . S
C5483 C5479 1.400 . S
C5483 C5482 1.385 . S
C5484 C5482 1.478 . S
C5484 C5486 1.381 . S
C5484 C5490 1.383 . S
C5485 C5481 1.495 . S
C5485 H5491 0.959 . S
C5485 H5492 0.961 . S
C5485 H5493 0.960 . S
C5486 C5484 1.381 . S
C5486 C5487 1.394 . S
C5486 H5494 0.930 . S
C5487 C5486 1.394 . S
C5487 C5488 1.383 . S
C5487 H5495 0.929 . S
C5488 C5487 1.383 . S
C5488 C5489 1.377 . S
C5489 H5473 0.930 . S
C5489 C5488 1.377 . S
C5489 C5490 1.379 . S
C5490 H5474 0.931 . S
C5490 C5484 1.383 . S
C5490 C5489 1.379 . S
H5491 C5485 0.959 . S
H5492 C5485 0.961 . S
H5493 C5485 0.960 . S
H5494 C5486 0.930 . S
H5495 C5487 0.929 . S
H5496 C5504 0.929 . S
H5497 C5506 0.930 . S
H5498 C5508 0.930 . S
H5499 C5511 0.929 . S
H5500 C5514 0.930 . S
H5501 C5516 0.960 . S
H5502 C5516 0.960 . S
H5503 C5516 0.960 . S
C5504 H5496 0.929 . S
C5504 C5505 1.377 . S
C5504 C5506 1.384 . S
C5505 C5504 1.377 . S
C5505 C5511 1.390 . S
C5506 H5497 0.930 . S
C5506 C5504 1.384 . S
C5506 C5507 1.372 . S
C5507 C5506 1.372 . S
C5507 C5508 1.400 . S
C5507 C5512 1.490 . S
C5508 H5498 0.930 . S
C5508 C5507 1.400 . S
C5508 C5511 1.386 . S
H5509 C5525 0.930 . S
H5510 C5526 0.931 . S
C5511 H5499 0.929 . S
C5511 C5505 1.390 . S
C5511 C5508 1.386 . S
C5512 C5507 1.490 . S
C5512 C5514 1.395 . S
C5512 C5515 1.403 . S
H5513 C5519 0.930 . S
C5514 H5500 0.930 . S
C5514 C5512 1.395 . S
C5514 C5517 1.403 . S
C5515 C5512 1.403 . S
C5515 C5516 1.524 . S
C5515 C5519 1.400 . S
C5516 H5501 0.960 . S
C5516 H5502 0.960 . S
C5516 H5503 0.960 . S
C5516 C5515 1.524 . S
C5517 C5514 1.403 . S
C5517 C5518 1.392 . S
C5517 C5521 1.495 . S
C5518 C5517 1.392 . S
C5518 C5519 1.385 . S
C5518 C5520 1.478 . S
C5519 H5513 0.930 . S
C5519 C5515 1.400 . S
C5519 C5518 1.385 . S
C5520 C5518 1.478 . S
C5520 C5522 1.381 . S
C5520 C5526 1.383 . S
C5521 C5517 1.495 . S
C5521 H5527 0.959 . S
C5521 H5528 0.961 . S
C5521 H5529 0.960 . S
C5522 C5520 1.381 . S
C5522 C5523 1.394 . S
C5522 H5530 0.930 . S
C5523 C5522 1.394 . S
C5523 C5524 1.383 . S
C5523 H5531 0.929 . S
C5524 C5523 1.383 . S
C5524 C5525 1.377 . S
C5525 H5509 0.930 . S
C5525 C5524 1.377 . S
C5525 C5526 1.379 . S
C5526 H5510 0.931 . S
C5526 C5520 1.383 . S
C5526 C5525 1.379 . S
H5527 C5521 0.959 . S
H5528 C5521 0.961 . S
H5529 C5521 0.960 . S
H5530 C5522 0.930 . S
H5531 C5523 0.929 . S
H5532 C5540 0.929 . S
H5533 C5542 0.930 . S
H5534 C5544 0.930 . S
H5535 C5547 0.929 . S
H5536 C5550 0.930 . S
H5537 C5552 0.960 . S
H5538 C5552 0.960 . S
H5539 C5552 0.960 . S
C5540 H5532 0.929 . S
C5540 C5541 1.377 . S
C5540 C5542 1.384 . S
C5541 C5540 1.377 . S
C5541 C5547 1.390 . S
C5542 H5533 0.930 . S
C5542 C5540 1.384 . S
C5542 C5543 1.372 . S
C5543 C5542 1.372 . S
C5543 C5544 1.400 . S
C5543 C5548 1.490 . S
C5544 H5534 0.930 . S
C5544 C5543 1.400 . S
C5544 C5547 1.386 . S
H5545 C5561 0.930 . S
H5546 C5562 0.931 . S
C5547 H5535 0.929 . S
C5547 C5541 1.390 . S
C5547 C5544 1.386 . S
C5548 C5543 1.490 . S
C5548 C5550 1.395 . S
C5548 C5551 1.403 . S
H5549 C5555 0.930 . S
C5550 H5536 0.930 . S
C5550 C5548 1.395 . S
C5550 C5553 1.403 . S
C5551 C5548 1.403 . S
C5551 C5552 1.524 . S
C5551 C5555 1.400 . S
C5552 H5537 0.960 . S
C5552 H5538 0.960 . S
C5552 H5539 0.960 . S
C5552 C5551 1.524 . S
C5553 C5550 1.403 . S
C5553 C5554 1.392 . S
C5553 C5557 1.495 . S
C5554 C5553 1.392 . S
C5554 C5555 1.385 . S
C5554 C5556 1.478 . S
C5555 H5549 0.930 . S
C5555 C5551 1.400 . S
C5555 C5554 1.385 . S
C5556 C5554 1.478 . S
C5556 C5558 1.381 . S
C5556 C5562 1.383 . S
C5557 C5553 1.495 . S
C5557 H5563 0.959 . S
C5557 H5564 0.961 . S
C5557 H5565 0.960 . S
C5558 C5556 1.381 . S
C5558 C5559 1.394 . S
C5558 H5566 0.930 . S
C5559 C5558 1.394 . S
C5559 C5560 1.383 . S
C5559 H5567 0.929 . S
C5560 C5559 1.383 . S
C5560 C5561 1.377 . S
C5561 H5545 0.930 . S
C5561 C5560 1.377 . S
C5561 C5562 1.379 . S
C5562 H5546 0.931 . S
C5562 C5556 1.383 . S
C5562 C5561 1.379 . S
H5563 C5557 0.959 . S
H5564 C5557 0.961 . S
H5565 C5557 0.960 . S
H5566 C5558 0.930 . S
H5567 C5559 0.929 . S
H5568 C5576 0.929 . S
H5569 C5578 0.930 . S
H5570 C5580 0.930 . S
H5571 C5583 0.929 . S
H5572 C5586 0.930 . S
H5573 C5588 0.960 . S
H5574 C5588 0.960 . S
H5575 C5588 0.960 . S
C5576 H5568 0.929 . S
C5576 C5577 1.377 . S
C5576 C5578 1.384 . S
C5577 C5576 1.377 . S
C5577 C5583 1.390 . S
C5578 H5569 0.930 . S
C5578 C5576 1.384 . S
C5578 C5579 1.372 . S
C5579 C5578 1.372 . S
C5579 C5580 1.400 . S
C5579 C5584 1.490 . S
C5580 H5570 0.930 . S
C5580 C5579 1.400 . S
C5580 C5583 1.386 . S
H5581 C5597 0.930 . S
H5582 C5598 0.931 . S
C5583 H5571 0.929 . S
C5583 C5577 1.390 . S
C5583 C5580 1.386 . S
C5584 C5579 1.490 . S
C5584 C5586 1.395 . S
C5584 C5587 1.403 . S
H5585 C5591 0.930 . S
C5586 H5572 0.930 . S
C5586 C5584 1.395 . S
C5586 C5589 1.403 . S
C5587 C5584 1.403 . S
C5587 C5588 1.524 . S
C5587 C5591 1.400 . S
C5588 H5573 0.960 . S
C5588 H5574 0.960 . S
C5588 H5575 0.960 . S
C5588 C5587 1.524 . S
C5589 C5586 1.403 . S
C5589 C5590 1.392 . S
C5589 C5593 1.495 . S
C5590 C5589 1.392 . S
C5590 C5591 1.385 . S
C5590 C5592 1.478 . S
C5591 H5585 0.930 . S
C5591 C5587 1.400 . S
C5591 C5590 1.385 . S
C5592 C5590 1.478 . S
C5592 C5594 1.381 . S
C5592 C5598 1.383 . S
C5593 C5589 1.495 . S
C5593 H5599 0.959 . S
C5593 H5600 0.961 . S
C5593 H5601 0.960 . S
C5594 C5592 1.381 . S
C5594 C5595 1.394 . S
C5594 H5602 0.930 . S
C5595 C5594 1.394 . S
C5595 C5596 1.383 . S
C5595 H5603 0.929 . S
C5596 C5595 1.383 . S
C5596 C5597 1.377 . S
C5597 H5581 0.930 . S
C5597 C5596 1.377 . S
C5597 C5598 1.379 . S
C5598 H5582 0.931 . S
C5598 C5592 1.383 . S
C5598 C5597 1.379 . S
H5599 C5593 0.959 . S
H5600 C5593 0.961 . S
H5601 C5593 0.960 . S
H5602 C5594 0.930 . S
H5603 C5595 0.929 . S
H5604 C5612 0.929 . S
H5605 C5614 0.930 . S
H5606 C5616 0.930 . S
H5607 C5619 0.929 . S
H5608 C5622 0.930 . S
H5609 C5624 0.960 . S
H5610 C5624 0.960 . S
H5611 C5624 0.960 . S
C5612 H5604 0.929 . S
C5612 C5613 1.377 . S
C5612 C5614 1.384 . S
C5613 C5612 1.377 . S
C5613 C5619 1.390 . S
C5614 H5605 0.930 . S
C5614 C5612 1.384 . S
C5614 C5615 1.372 . S
C5615 C5614 1.372 . S
C5615 C5616 1.400 . S
C5615 C5620 1.490 . S
C5616 H5606 0.930 . S
C5616 C5615 1.400 . S
C5616 C5619 1.386 . S
H5617 C5633 0.930 . S
H5618 C5634 0.931 . S
C5619 H5607 0.929 . S
C5619 C5613 1.390 . S
C5619 C5616 1.386 . S
C5620 C5615 1.490 . S
C5620 C5622 1.395 . S
C5620 C5623 1.403 . S
H5621 C5627 0.930 . S
C5622 H5608 0.930 . S
C5622 C5620 1.395 . S
C5622 C5625 1.403 . S
C5623 C5620 1.403 . S
C5623 C5624 1.524 . S
C5623 C5627 1.400 . S
C5624 H5609 0.960 . S
C5624 H5610 0.960 . S
C5624 H5611 0.960 . S
C5624 C5623 1.524 . S
C5625 C5622 1.403 . S
C5625 C5626 1.392 . S
C5625 C5629 1.495 . S
C5626 C5625 1.392 . S
C5626 C5627 1.385 . S
C5626 C5628 1.478 . S
C5627 H5621 0.930 . S
C5627 C5623 1.400 . S
C5627 C5626 1.385 . S
C5628 C5626 1.478 . S
C5628 C5630 1.381 . S
C5628 C5634 1.383 . S
C5629 C5625 1.495 . S
C5629 H5635 0.959 . S
C5629 H5636 0.961 . S
C5629 H5637 0.960 . S
C5630 C5628 1.381 . S
C5630 C5631 1.394 . S
C5630 H5638 0.930 . S
C5631 C5630 1.394 . S
C5631 C5632 1.383 . S
C5631 H5639 0.929 . S
C5632 C5631 1.383 . S
C5632 C5633 1.377 . S
C5633 H5617 0.930 . S
C5633 C5632 1.377 . S
C5633 C5634 1.379 . S
C5634 H5618 0.931 . S
C5634 C5628 1.383 . S
C5634 C5633 1.379 . S
H5635 C5629 0.959 . S
H5636 C5629 0.961 . S
H5637 C5629 0.960 . S
H5638 C5630 0.930 . S
H5639 C5631 0.929 . S
H5640 C5648 0.929 . S
H5641 C5650 0.930 . S
H5642 C5652 0.930 . S
H5643 C5655 0.929 . S
H5644 C5658 0.930 . S
H5645 C5660 0.960 . S
H5646 C5660 0.960 . S
H5647 C5660 0.960 . S
C5648 H5640 0.929 . S
C5648 C5649 1.377 . S
C5648 C5650 1.384 . S
C5649 C5648 1.377 . S
C5649 C5655 1.390 . S
C5650 H5641 0.930 . S
C5650 C5648 1.384 . S
C5650 C5651 1.372 . S
C5651 C5650 1.372 . S
C5651 C5652 1.400 . S
C5651 C5656 1.490 . S
C5652 H5642 0.930 . S
C5652 C5651 1.400 . S
C5652 C5655 1.386 . S
H5653 C5669 0.930 . S
H5654 C5670 0.931 . S
C5655 H5643 0.929 . S
C5655 C5649 1.390 . S
C5655 C5652 1.386 . S
C5656 C5651 1.490 . S
C5656 C5658 1.395 . S
C5656 C5659 1.403 . S
H5657 C5663 0.930 . S
C5658 H5644 0.930 . S
C5658 C5656 1.395 . S
C5658 C5661 1.403 . S
C5659 C5656 1.403 . S
C5659 C5660 1.524 . S
C5659 C5663 1.400 . S
C5660 H5645 0.960 . S
C5660 H5646 0.960 . S
C5660 H5647 0.960 . S
C5660 C5659 1.524 . S
C5661 C5658 1.403 . S
C5661 C5662 1.392 . S
C5661 C5665 1.495 . S
C5662 C5661 1.392 . S
C5662 C5663 1.385 . S
C5662 C5664 1.478 . S
C5663 H5657 0.930 . S
C5663 C5659 1.400 . S
C5663 C5662 1.385 . S
C5664 C5662 1.478 . S
C5664 C5666 1.381 . S
C5664 C5670 1.383 . S
C5665 C5661 1.495 . S
C5665 H5671 0.959 . S
C5665 H5672 0.961 . S
C5665 H5673 0.960 . S
C5666 C5664 1.381 . S
C5666 C5667 1.394 . S
C5666 H5674 0.930 . S
C5667 C5666 1.394 . S
C5667 C5668 1.383 . S
C5667 H5675 0.929 . S
C5668 C5667 1.383 . S
C5668 C5669 1.377 . S
C5669 H5653 0.930 . S
C5669 C5668 1.377 . S
C5669 C5670 1.379 . S
C5670 H5654 0.931 . S
C5670 C5664 1.383 . S
C5670 C5669 1.379 . S
H5671 C5665 0.959 . S
H5672 C5665 0.961 . S
H5673 C5665 0.960 . S
H5674 C5666 0.930 . S
H5675 C5667 0.929 . S
H5676 C5684 0.929 . S
H5677 C5686 0.930 . S
H5678 C5688 0.930 . S
H5679 C5691 0.929 . S
H5680 C5694 0.930 . S
H5681 C5696 0.960 . S
H5682 C5696 0.960 . S
H5683 C5696 0.960 . S
C5684 H5676 0.929 . S
C5684 C5685 1.377 . S
C5684 C5686 1.384 . S
C5685 C5684 1.377 . S
C5685 C5691 1.390 . S
C5686 H5677 0.930 . S
C5686 C5684 1.384 . S
C5686 C5687 1.372 . S
C5687 C5686 1.372 . S
C5687 C5688 1.400 . S
C5687 C5692 1.490 . S
C5688 H5678 0.930 . S
C5688 C5687 1.400 . S
C5688 C5691 1.386 . S
H5689 C5705 0.930 . S
H5690 C5706 0.931 . S
C5691 H5679 0.929 . S
C5691 C5685 1.390 . S
C5691 C5688 1.386 . S
C5692 C5687 1.490 . S
C5692 C5694 1.395 . S
C5692 C5695 1.403 . S
H5693 C5699 0.930 . S
C5694 H5680 0.930 . S
C5694 C5692 1.395 . S
C5694 C5697 1.403 . S
C5695 C5692 1.403 . S
C5695 C5696 1.524 . S
C5695 C5699 1.400 . S
C5696 H5681 0.960 . S
C5696 H5682 0.960 . S
C5696 H5683 0.960 . S
C5696 C5695 1.524 . S
C5697 C5694 1.403 . S
C5697 C5698 1.392 . S
C5697 C5701 1.495 . S
C5698 C5697 1.392 . S
C5698 C5699 1.385 . S
C5698 C5700 1.478 1_455 S
C5699 H5693 0.930 . S
C5699 C5695 1.400 . S
C5699 C5698 1.385 . S
C5700 C5698 1.478 1_655 S
C5700 C5702 1.381 . S
C5700 C5706 1.383 . S
C5701 C5697 1.495 . S
C5701 H5707 0.959 . S
C5701 H5708 0.961 . S
C5701 H5709 0.960 . S
C5702 C5700 1.381 . S
C5702 C5703 1.394 . S
C5702 H5710 0.930 1_655 S
C5703 C5702 1.394 . S
C5703 C5704 1.383 . S
C5703 H5711 0.929 . S
C5704 C5703 1.383 . S
C5704 C5705 1.377 . S
C5705 H5689 0.930 . S
C5705 C5704 1.377 . S
C5705 C5706 1.379 . S
C5706 H5690 0.931 . S
C5706 C5700 1.383 . S
C5706 C5705 1.379 . S
H5707 C5701 0.959 . S
H5708 C5701 0.961 . S
H5709 C5701 0.960 . S
H5710 C5702 0.930 1_455 S
H5711 C5703 0.929 . S
H5712 C5720 0.929 . S
H5713 C5722 0.930 . S
H5714 C5724 0.930 . S
H5715 C5727 0.929 . S
H5716 C5730 0.930 . S
H5717 C5732 0.960 . S
H5718 C5732 0.960 . S
H5719 C5732 0.960 . S
C5720 H5712 0.929 . S
C5720 C5721 1.377 . S
C5720 C5722 1.384 . S
C5721 C5720 1.377 . S
C5721 C5727 1.390 . S
C5722 H5713 0.930 . S
C5722 C5720 1.384 . S
C5722 C5723 1.372 . S
C5723 C5722 1.372 . S
C5723 C5724 1.400 . S
C5723 C5728 1.490 . S
C5724 H5714 0.930 . S
C5724 C5723 1.400 . S
C5724 C5727 1.386 . S
H5725 C5741 0.930 . S
H5726 C5742 0.931 . S
C5727 H5715 0.929 . S
C5727 C5721 1.390 . S
C5727 C5724 1.386 . S
C5728 C5723 1.490 . S
C5728 C5730 1.395 . S
C5728 C5731 1.403 . S
H5729 C5735 0.930 . S
C5730 H5716 0.930 . S
C5730 C5728 1.395 . S
C5730 C5733 1.403 . S
C5731 C5728 1.403 . S
C5731 C5732 1.524 . S
C5731 C5735 1.400 . S
C5732 H5717 0.960 . S
C5732 H5718 0.960 . S
C5732 H5719 0.960 . S
C5732 C5731 1.524 . S
C5733 C5730 1.403 . S
C5733 C5734 1.392 . S
C5733 C5737 1.495 . S
C5734 C5733 1.392 . S
C5734 C5735 1.385 . S
C5734 C5736 1.478 . S
C5735 H5729 0.930 . S
C5735 C5731 1.400 . S
C5735 C5734 1.385 . S
C5736 C5734 1.478 . S
C5736 C5738 1.381 . S
C5736 C5742 1.383 . S
C5737 C5733 1.495 . S
C5737 H5743 0.959 . S
C5737 H5744 0.961 . S
C5737 H5745 0.960 . S
C5738 C5736 1.381 . S
C5738 C5739 1.394 . S
C5738 H5746 0.930 . S
C5739 C5738 1.394 . S
C5739 C5740 1.383 . S
C5739 H5747 0.929 . S
C5740 C5739 1.383 . S
C5740 C5741 1.377 . S
C5741 H5725 0.930 . S
C5741 C5740 1.377 . S
C5741 C5742 1.379 . S
C5742 H5726 0.931 . S
C5742 C5736 1.383 . S
C5742 C5741 1.379 . S
H5743 C5737 0.959 . S
H5744 C5737 0.961 . S
H5745 C5737 0.960 . S
H5746 C5738 0.930 . S
H5747 C5739 0.929 . S
H5748 C5756 0.929 . S
H5749 C5758 0.930 . S
H5750 C5760 0.930 . S
H5751 C5763 0.929 . S
H5752 C5766 0.930 . S
H5753 C5768 0.960 . S
H5754 C5768 0.960 . S
H5755 C5768 0.960 . S
C5756 H5748 0.929 . S
C5756 C5757 1.377 . S
C5756 C5758 1.384 . S
C5757 C5756 1.377 . S
C5757 C5763 1.390 . S
C5758 H5749 0.930 . S
C5758 C5756 1.384 . S
C5758 C5759 1.372 . S
C5759 C5758 1.372 . S
C5759 C5760 1.400 . S
C5759 C5764 1.490 . S
C5760 H5750 0.930 . S
C5760 C5759 1.400 . S
C5760 C5763 1.386 . S
H5761 C5777 0.930 . S
H5762 C5778 0.931 . S
C5763 H5751 0.929 . S
C5763 C5757 1.390 . S
C5763 C5760 1.386 . S
C5764 C5759 1.490 . S
C5764 C5766 1.395 . S
C5764 C5767 1.403 . S
H5765 C5771 1.038 . S
C5766 H5752 0.930 . S
C5766 C5764 1.395 . S
C5766 C5769 1.403 . S
C5767 C5764 1.403 . S
C5767 C5768 1.524 . S
C5767 C5771 1.400 . S
C5768 H5753 0.960 . S
C5768 H5754 0.960 . S
C5768 H5755 0.960 . S
C5768 C5767 1.524 . S
C5769 C5766 1.403 . S
C5769 C5770 1.392 . S
C5769 C5773 1.495 . S
C5770 C5769 1.392 . S
C5770 C5771 1.385 . S
C5770 C5772 1.478 1_455 S
C5771 H5765 1.038 . S
C5771 C5767 1.400 . S
C5771 C5770 1.385 . S
C5772 C5770 1.478 1_655 S
C5772 C5774 1.381 . S
C5772 C5778 1.383 . S
C5773 C5769 1.495 . S
C5773 H5779 0.959 . S
C5773 H5780 0.961 . S
C5773 H5781 0.960 . S
C5774 C5772 1.381 . S
C5774 C5775 1.394 . S
C5774 H5782 0.872 1_655 S
C5775 C5774 1.394 . S
C5775 C5776 1.383 . S
C5775 H5783 0.929 . S
C5776 C5775 1.383 . S
C5776 C5777 1.377 . S
C5777 H5761 0.930 . S
C5777 C5776 1.377 . S
C5777 C5778 1.379 . S
C5778 H5762 0.931 . S
C5778 C5772 1.383 . S
C5778 C5777 1.379 . S
H5779 C5773 0.959 . S
H5780 C5773 0.961 . S
H5781 C5773 0.960 . S
H5782 C5774 0.872 1_455 S
H5783 C5775 0.929 . S
H5784 C5792 0.929 . S
H5785 C5794 0.930 . S
H5786 C5796 0.930 . S
H5787 C5799 0.929 . S
H5788 C5802 0.930 . S
H5789 C5804 0.960 . S
H5790 C5804 0.960 . S
H5791 C5804 0.960 . S
C5792 H5784 0.929 . S
C5792 C5793 1.377 . S
C5792 C5794 1.384 . S
C5793 C5792 1.377 . S
C5793 C5799 1.390 . S
C5794 H5785 0.930 . S
C5794 C5792 1.384 . S
C5794 C5795 1.372 . S
C5795 C5794 1.372 . S
C5795 C5796 1.400 . S
C5795 C5800 1.490 . S
C5796 H5786 0.930 . S
C5796 C5795 1.400 . S
C5796 C5799 1.386 . S
H5797 C5813 0.930 . S
H5798 C5814 0.931 . S
C5799 H5787 0.929 . S
C5799 C5793 1.390 . S
C5799 C5796 1.386 . S
C5800 C5795 1.490 . S
C5800 C5802 1.395 . S
C5800 C5803 1.403 . S
H5801 C5807 0.930 . S
C5802 H5788 0.930 . S
C5802 C5800 1.395 . S
C5802 C5805 1.403 . S
C5803 C5800 1.403 . S
C5803 C5804 1.524 . S
C5803 C5807 1.400 . S
C5804 H5789 0.960 . S
C5804 H5790 0.960 . S
C5804 H5791 0.960 . S
C5804 C5803 1.524 . S
C5805 C5802 1.403 . S
C5805 C5806 1.392 . S
C5805 C5809 1.495 . S
C5806 C5805 1.392 . S
C5806 C5807 1.385 . S
C5806 C5808 1.478 . S
C5807 H5801 0.930 . S
C5807 C5803 1.400 . S
C5807 C5806 1.385 . S
C5808 C5806 1.478 . S
C5808 C5810 1.381 . S
C5808 C5814 1.383 . S
C5809 C5805 1.495 . S
C5809 H5815 0.959 . S
C5809 H5816 0.961 . S
C5809 H5817 0.960 . S
C5810 C5808 1.381 . S
C5810 C5811 1.394 . S
C5810 H5818 0.930 . S
C5811 C5810 1.394 . S
C5811 C5812 1.383 . S
C5811 H5819 0.929 . S
C5812 C5811 1.383 . S
C5812 C5813 1.377 . S
C5813 H5797 0.930 . S
C5813 C5812 1.377 . S
C5813 C5814 1.379 . S
C5814 H5798 0.931 . S
C5814 C5808 1.383 . S
C5814 C5813 1.379 . S
H5815 C5809 0.959 . S
H5816 C5809 0.961 . S
H5817 C5809 0.960 . S
H5818 C5810 0.930 . S
H5819 C5811 0.929 . S
H5820 C5828 0.929 . S
H5821 C5830 0.930 . S
H5822 C5832 0.930 . S
H5823 C5835 0.929 . S
H5824 C5838 0.930 . S
H5825 C5840 0.960 . S
H5826 C5840 0.960 . S
H5827 C5840 0.960 . S
C5828 H5820 0.929 . S
C5828 C5829 1.377 . S
C5828 C5830 1.384 . S
C5829 C5828 1.377 . S
C5829 C5835 1.390 . S
C5830 H5821 0.930 . S
C5830 C5828 1.384 . S
C5830 C5831 1.372 . S
C5831 C5830 1.372 . S
C5831 C5832 1.400 . S
C5831 C5836 1.490 . S
C5832 H5822 0.930 . S
C5832 C5831 1.400 . S
C5832 C5835 1.386 . S
H5833 C5849 0.930 . S
H5834 C5850 0.931 . S
C5835 H5823 0.929 . S
C5835 C5829 1.390 . S
C5835 C5832 1.386 . S
C5836 C5831 1.490 . S
C5836 C5838 1.395 . S
C5836 C5839 1.403 . S
H5837 C5843 0.930 . S
C5838 H5824 0.930 . S
C5838 C5836 1.395 . S
C5838 C5841 1.403 . S
C5839 C5836 1.403 . S
C5839 C5840 1.524 . S
C5839 C5843 1.400 . S
C5840 H5825 0.960 . S
C5840 H5826 0.960 . S
C5840 H5827 0.960 . S
C5840 C5839 1.524 . S
C5841 C5838 1.403 . S
C5841 C5842 1.392 . S
C5841 C5845 1.495 . S
C5842 C5841 1.392 . S
C5842 C5843 1.385 . S
C5842 C5844 1.478 . S
C5843 H5837 0.930 . S
C5843 C5839 1.400 . S
C5843 C5842 1.385 . S
C5844 C5842 1.478 . S
C5844 C5846 1.381 . S
C5844 C5850 1.383 . S
C5845 C5841 1.495 . S
C5845 H5851 0.959 . S
C5845 H5852 0.961 . S
C5845 H5853 0.960 . S
C5846 C5844 1.381 . S
C5846 C5847 1.394 . S
C5846 H5854 0.930 . S
C5847 C5846 1.394 . S
C5847 C5848 1.383 . S
C5847 H5855 0.929 . S
C5848 C5847 1.383 . S
C5848 C5849 1.377 . S
C5849 H5833 0.930 . S
C5849 C5848 1.377 . S
C5849 C5850 1.379 . S
C5850 H5834 0.931 . S
C5850 C5844 1.383 . S
C5850 C5849 1.379 . S
H5851 C5845 0.959 . S
H5852 C5845 0.961 . S
H5853 C5845 0.960 . S
H5854 C5846 0.930 . S
H5855 C5847 0.929 . S
H5856 C5864 0.929 . S
H5857 C5866 0.930 . S
H5858 C5868 0.930 . S
H5859 C5871 0.929 . S
H5860 C5874 0.930 . S
H5861 C5876 0.960 . S
H5862 C5876 0.960 . S
H5863 C5876 0.960 . S
C5864 H5856 0.929 . S
C5864 C5865 1.377 . S
C5864 C5866 1.384 . S
C5865 C5864 1.377 . S
C5865 C5871 1.390 . S
C5866 H5857 0.930 . S
C5866 C5864 1.384 . S
C5866 C5867 1.372 . S
C5867 C5866 1.372 . S
C5867 C5868 1.400 . S
C5867 C5872 1.490 . S
C5868 H5858 0.930 . S
C5868 C5867 1.400 . S
C5868 C5871 1.386 . S
H5869 C5885 0.930 . S
H5870 C5886 0.931 . S
C5871 H5859 0.929 . S
C5871 C5865 1.390 . S
C5871 C5868 1.386 . S
C5872 C5867 1.490 . S
C5872 C5874 1.395 . S
C5872 C5875 1.403 . S
H5873 C5879 0.930 . S
C5874 H5860 0.930 . S
C5874 C5872 1.395 . S
C5874 C5877 1.403 . S
C5875 C5872 1.403 . S
C5875 C5876 1.524 . S
C5875 C5879 1.400 . S
C5876 H5861 0.960 . S
C5876 H5862 0.960 . S
C5876 H5863 0.960 . S
C5876 C5875 1.524 . S
C5877 C5874 1.403 . S
C5877 C5878 1.392 . S
C5877 C5881 1.495 . S
C5878 C5877 1.392 . S
C5878 C5879 1.385 . S
C5878 C5880 1.478 . S
C5879 H5873 0.930 . S
C5879 C5875 1.400 . S
C5879 C5878 1.385 . S
C5880 C5878 1.478 . S
C5880 C5882 1.381 . S
C5880 C5886 1.383 . S
C5881 C5877 1.495 . S
C5881 H5887 0.959 . S
C5881 H5888 0.961 . S
C5881 H5889 0.960 . S
C5882 C5880 1.381 . S
C5882 C5883 1.394 . S
C5882 H5890 0.930 . S
C5883 C5882 1.394 . S
C5883 C5884 1.383 . S
C5883 H5891 0.929 . S
C5884 C5883 1.383 . S
C5884 C5885 1.377 . S
C5885 H5869 0.930 . S
C5885 C5884 1.377 . S
C5885 C5886 1.379 . S
C5886 H5870 0.931 . S
C5886 C5880 1.383 . S
C5886 C5885 1.379 . S
H5887 C5881 0.959 . S
H5888 C5881 0.961 . S
H5889 C5881 0.960 . S
H5890 C5882 0.930 . S
H5891 C5883 0.929 . S
H5892 C5900 0.929 . S
H5893 C5902 0.930 . S
H5894 C5904 0.930 1_554 S
H5895 C5907 0.929 . S
H5896 C5910 0.930 . S
H5897 C5912 0.960 . S
H5898 C5912 0.960 . S
H5899 C5912 0.960 . S
C5900 H5892 0.929 . S
C5900 C5901 1.377 . S
C5900 C5902 1.384 . S
C5901 C5900 1.377 . S
C5901 C5907 1.390 . S
C5902 H5893 0.930 . S
C5902 C5900 1.384 . S
C5902 C5903 1.372 . S
C5903 C5902 1.372 . S
C5903 C5904 1.400 . S
C5903 C5908 1.490 1_556 S
C5904 H5894 0.930 1_556 S
C5904 C5903 1.400 . S
C5904 C5907 1.386 . S
H5905 C5921 0.930 . S
H5906 C5922 0.931 . S
C5907 H5895 0.929 . S
C5907 C5901 1.390 . S
C5907 C5904 1.386 . S
C5908 C5903 1.490 1_554 S
C5908 C5910 1.395 . S
C5908 C5911 1.403 . S
H5909 C5915 0.930 . S
C5910 H5896 0.930 . S
C5910 C5908 1.395 . S
C5910 C5913 1.403 . S
C5911 C5908 1.403 . S
C5911 C5912 1.524 . S
C5911 C5915 1.400 . S
C5912 H5897 0.960 . S
C5912 H5898 0.960 . S
C5912 H5899 0.960 . S
C5912 C5911 1.524 . S
C5913 C5910 1.403 . S
C5913 C5914 1.392 . S
C5913 C5917 1.495 . S
C5914 C5913 1.392 . S
C5914 C5915 1.385 . S
C5914 C5916 1.478 . S
C5915 H5909 0.930 . S
C5915 C5911 1.400 . S
C5915 C5914 1.385 . S
C5916 C5914 1.478 . S
C5916 C5918 1.381 . S
C5916 C5922 1.383 . S
C5917 C5913 1.495 . S
C5917 H5923 0.959 . S
C5917 H5924 0.961 . S
C5917 H5925 0.960 . S
C5918 C5916 1.381 . S
C5918 C5919 1.394 . S
C5918 H5926 0.930 . S
C5919 C5918 1.394 . S
C5919 C5920 1.383 . S
C5919 H5927 0.929 . S
C5920 C5919 1.383 . S
C5920 C5921 1.377 . S
C5921 H5905 0.930 . S
C5921 C5920 1.377 . S
C5921 C5922 1.379 . S
C5922 H5906 0.931 . S
C5922 C5916 1.383 . S
C5922 C5921 1.379 . S
H5923 C5917 0.959 . S
H5924 C5917 0.961 . S
H5925 C5917 0.960 . S
H5926 C5918 0.930 . S
H5927 C5919 0.929 . S
H5928 C5936 0.929 . S
H5929 C5938 0.930 . S
H5930 C5940 0.930 . S
H5931 C5943 0.929 . S
H5932 C5946 0.930 . S
H5933 C5948 0.960 . S
H5934 C5948 0.960 . S
H5935 C5948 0.960 . S
C5936 H5928 0.929 . S
C5936 C5937 1.377 . S
C5936 C5938 1.384 . S
C5937 C5936 1.377 . S
C5937 C5943 1.390 . S
C5938 H5929 0.930 . S
C5938 C5936 1.384 . S
C5938 C5939 1.372 . S
C5939 C5938 1.372 . S
C5939 C5940 1.400 . S
C5939 C5944 1.490 . S
C5940 H5930 0.930 . S
C5940 C5939 1.400 . S
C5940 C5943 1.386 . S
H5941 C5957 0.930 . S
H5942 C5958 0.931 . S
C5943 H5931 0.929 . S
C5943 C5937 1.390 . S
C5943 C5940 1.386 . S
C5944 C5939 1.490 . S
C5944 C5946 1.395 . S
C5944 C5947 1.403 . S
H5945 C5951 0.930 . S
C5946 H5932 0.930 . S
C5946 C5944 1.395 . S
C5946 C5949 1.403 . S
C5947 C5944 1.403 . S
C5947 C5948 1.524 . S
C5947 C5951 1.400 . S
C5948 H5933 0.960 . S
C5948 H5934 0.960 . S
C5948 H5935 0.960 . S
C5948 C5947 1.524 . S
C5949 C5946 1.403 . S
C5949 C5950 1.392 . S
C5949 C5953 1.495 . S
C5950 C5949 1.392 . S
C5950 C5951 1.385 . S
C5950 C5952 1.478 . S
C5951 H5945 0.930 . S
C5951 C5947 1.400 . S
C5951 C5950 1.385 . S
C5952 C5950 1.478 . S
C5952 C5954 1.381 . S
C5952 C5958 1.383 . S
C5953 C5949 1.495 . S
C5953 H5959 0.959 . S
C5953 H5960 0.961 . S
C5953 H5961 0.960 . S
C5954 C5952 1.381 . S
C5954 C5955 1.394 . S
C5954 H5962 0.930 . S
C5955 C5954 1.394 . S
C5955 C5956 1.383 . S
C5955 H5963 0.929 . S
C5956 C5955 1.383 . S
C5956 C5957 1.377 . S
C5957 H5941 0.930 . S
C5957 C5956 1.377 . S
C5957 C5958 1.379 . S
C5958 H5942 0.931 . S
C5958 C5952 1.383 . S
C5958 C5957 1.379 . S
H5959 C5953 0.959 . S
H5960 C5953 0.961 . S
H5961 C5953 0.960 . S
H5962 C5954 0.930 . S
H5963 C5955 0.929 . S
H5964 C5972 0.929 . S
H5965 C5974 0.930 . S
H5966 C5976 0.930 . S
H5967 C5979 0.929 . S
H5968 C5982 0.930 . S
H5969 C5984 0.960 . S
H5970 C5984 0.960 . S
H5971 C5984 0.960 . S
C5972 H5964 0.929 . S
C5972 C5973 1.377 . S
C5972 C5974 1.384 . S
C5973 C5972 1.377 . S
C5973 C5979 1.390 . S
C5974 H5965 0.930 . S
C5974 C5972 1.384 . S
C5974 C5975 1.372 . S
C5975 C5974 1.372 . S
C5975 C5976 1.400 . S
C5975 C5980 1.490 . S
C5976 H5966 0.930 . S
C5976 C5975 1.400 . S
C5976 C5979 1.386 . S
H5977 C5993 0.930 . S
H5978 C5994 0.931 . S
C5979 H5967 0.929 . S
C5979 C5973 1.390 . S
C5979 C5976 1.386 . S
C5980 C5975 1.490 . S
C5980 C5982 1.395 . S
C5980 C5983 1.403 . S
H5981 C5987 0.930 . S
C5982 H5968 0.930 . S
C5982 C5980 1.395 . S
C5982 C5985 1.403 . S
C5983 C5980 1.403 . S
C5983 C5984 1.524 . S
C5983 C5987 1.400 . S
C5984 H5969 0.960 . S
C5984 H5970 0.960 . S
C5984 H5971 0.960 . S
C5984 C5983 1.524 . S
C5985 C5982 1.403 . S
C5985 C5986 1.392 . S
C5985 C5989 1.495 . S
C5986 C5985 1.392 . S
C5986 C5987 1.385 . S
C5986 C5988 1.478 . S
C5987 H5981 0.930 . S
C5987 C5983 1.400 . S
C5987 C5986 1.385 . S
C5988 C5986 1.478 . S
C5988 C5990 1.381 . S
C5988 C5994 1.383 . S
C5989 C5985 1.495 . S
C5989 H5995 0.959 . S
C5989 H5996 0.961 . S
C5989 H5997 0.960 . S
C5990 C5988 1.381 . S
C5990 C5991 1.394 . S
C5990 H5998 0.930 . S
C5991 C5990 1.394 . S
C5991 C5992 1.383 . S
C5991 H5999 0.929 . S
C5992 C5991 1.383 . S
C5992 C5993 1.377 . S
C5993 H5977 0.930 . S
C5993 C5992 1.377 . S
C5993 C5994 1.379 . S
C5994 H5978 0.931 . S
C5994 C5988 1.383 . S
C5994 C5993 1.379 . S
H5995 C5989 0.959 . S
H5996 C5989 0.961 . S
H5997 C5989 0.960 . S
H5998 C5990 0.930 . S
H5999 C5991 0.929 . S
H6000 C6008 0.929 . S
H6001 C6010 0.930 . S
H6002 C6012 0.930 . S
H6003 C6015 0.929 . S
H6004 C6018 0.930 . S
H6005 C6020 0.960 . S
H6006 C6020 0.960 . S
H6007 C6020 0.960 . S
C6008 H6000 0.929 . S
C6008 C6009 1.377 . S
C6008 C6010 1.384 . S
C6009 C6008 1.377 . S
C6009 C6015 1.390 . S
C6010 H6001 0.930 . S
C6010 C6008 1.384 . S
C6010 C6011 1.372 . S
C6011 C6010 1.372 . S
C6011 C6012 1.400 . S
C6011 C6016 1.490 . S
C6012 H6002 0.930 . S
C6012 C6011 1.400 . S
C6012 C6015 1.386 . S
H6013 C6029 0.930 . S
H6014 C6030 0.931 . S
C6015 H6003 0.929 . S
C6015 C6009 1.390 . S
C6015 C6012 1.386 . S
C6016 C6011 1.490 . S
C6016 C6018 1.395 . S
C6016 C6019 1.403 . S
H6017 C6023 0.930 . S
C6018 H6004 0.930 . S
C6018 C6016 1.395 . S
C6018 C6021 1.403 . S
C6019 C6016 1.403 . S
C6019 C6020 1.524 . S
C6019 C6023 1.400 . S
C6020 H6005 0.960 . S
C6020 H6006 0.960 . S
C6020 H6007 0.960 . S
C6020 C6019 1.524 . S
C6021 C6018 1.403 . S
C6021 C6022 1.392 . S
C6021 C6025 1.495 . S
C6022 C6021 1.392 . S
C6022 C6023 1.385 . S
C6022 C6024 1.478 . S
C6023 H6017 0.930 . S
C6023 C6019 1.400 . S
C6023 C6022 1.385 . S
C6024 C6022 1.478 . S
C6024 C6026 1.381 . S
C6024 C6030 1.383 . S
C6025 C6021 1.495 . S
C6025 H6031 0.959 . S
C6025 H6032 0.961 . S
C6025 H6033 0.960 . S
C6026 C6024 1.381 . S
C6026 C6027 1.394 . S
C6026 H6034 0.930 . S
C6027 C6026 1.394 . S
C6027 C6028 1.383 . S
C6027 H6035 0.929 . S
C6028 C6027 1.383 . S
C6028 C6029 1.377 . S
C6029 H6013 0.930 . S
C6029 C6028 1.377 . S
C6029 C6030 1.379 . S
C6030 H6014 0.931 . S
C6030 C6024 1.383 . S
C6030 C6029 1.379 . S
H6031 C6025 0.959 . S
H6032 C6025 0.961 . S
H6033 C6025 0.960 . S
H6034 C6026 0.930 . S
H6035 C6027 0.929 . S
H6036 C6044 0.929 . S
H6037 C6046 0.930 . S
H6038 C6048 0.930 . S
H6039 C6051 0.929 . S
H6040 C6054 0.930 . S
H6041 C6056 0.959 1_556 S
H6042 C6056 0.962 . S
H6043 C6056 0.961 . S
C6044 H6036 0.929 . S
C6044 C6045 1.377 . S
C6044 C6046 1.384 . S
C6045 C6044 1.377 . S
C6045 C6051 1.390 . S
C6046 H6037 0.930 . S
C6046 C6044 1.384 . S
C6046 C6047 1.372 . S
C6047 C6046 1.372 . S
C6047 C6048 1.400 . S
C6047 C6052 1.490 1_554 S
C6048 H6038 0.930 . S
C6048 C6047 1.400 . S
C6048 C6051 1.386 . S
H6049 C6065 0.930 . S
H6050 C6066 0.931 . S
C6051 H6039 0.929 . S
C6051 C6045 1.390 . S
C6051 C6048 1.386 . S
C6052 C6047 1.490 1_556 S
C6052 C6054 1.395 . S
C6052 C6055 1.403 . S
H6053 C6059 0.930 . S
C6054 H6040 0.930 . S
C6054 C6052 1.395 . S
C6054 C6057 1.403 . S
C6055 C6052 1.403 . S
C6055 C6056 1.522 1_556 S
C6055 C6059 1.400 . S
C6056 H6041 0.959 1_554 S
C6056 H6042 0.962 . S
C6056 H6043 0.961 . S
C6056 C6055 1.522 1_554 S
C6057 C6054 1.403 . S
C6057 C6058 1.392 . S
C6057 C6061 1.495 . S
C6058 C6057 1.392 . S
C6058 C6059 1.385 . S
C6058 C6060 1.478 . S
C6059 H6053 0.930 . S
C6059 C6055 1.400 . S
C6059 C6058 1.385 . S
C6060 C6058 1.478 . S
C6060 C6062 1.381 . S
C6060 C6066 1.383 . S
C6061 C6057 1.495 . S
C6061 H6067 0.959 . S
C6061 H6068 0.961 . S
C6061 H6069 0.960 . S
C6062 C6060 1.381 . S
C6062 C6063 1.394 . S
C6062 H6070 0.930 . S
C6063 C6062 1.394 . S
C6063 C6064 1.383 . S
C6063 H6071 0.929 . S
C6064 C6063 1.383 . S
C6064 C6065 1.377 . S
C6065 H6049 0.930 . S
C6065 C6064 1.377 . S
C6065 C6066 1.379 . S
C6066 H6050 0.931 . S
C6066 C6060 1.383 . S
C6066 C6065 1.379 . S
H6067 C6061 0.959 . S
H6068 C6061 0.961 . S
H6069 C6061 0.960 . S
H6070 C6062 0.930 . S
H6071 C6063 0.929 . S
H6072 C6080 0.929 . S
H6073 C6082 0.930 . S
H6074 C6084 0.930 . S
H6075 C6087 0.929 . S
H6076 C6090 0.930 . S
H6077 C6092 0.960 . S
H6078 C6092 0.960 . S
H6079 C6092 0.960 . S
C6080 H6072 0.929 . S
C6080 C6081 1.377 . S
C6080 C6082 1.384 . S
C6081 C6080 1.377 . S
C6081 C6087 1.390 . S
C6082 H6073 0.930 . S
C6082 C6080 1.384 . S
C6082 C6083 1.372 . S
C6083 C6082 1.372 . S
C6083 C6084 1.400 . S
C6083 C6088 1.490 . S
C6084 H6074 0.930 . S
C6084 C6083 1.400 . S
C6084 C6087 1.386 . S
H6085 C6101 0.930 . S
H6086 C6102 0.931 . S
C6087 H6075 0.929 . S
C6087 C6081 1.390 . S
C6087 C6084 1.386 . S
C6088 C6083 1.490 . S
C6088 C6090 1.395 . S
C6088 C6091 1.403 . S
H6089 C6095 0.930 . S
C6090 H6076 0.930 . S
C6090 C6088 1.395 . S
C6090 C6093 1.403 . S
C6091 C6088 1.403 . S
C6091 C6092 1.524 . S
C6091 C6095 1.400 . S
C6092 H6077 0.960 . S
C6092 H6078 0.960 . S
C6092 H6079 0.960 . S
C6092 C6091 1.524 . S
C6093 C6090 1.403 . S
C6093 C6094 1.392 . S
C6093 C6097 1.495 . S
C6094 C6093 1.392 . S
C6094 C6095 1.385 . S
C6094 C6096 1.478 . S
C6095 H6089 0.930 . S
C6095 C6091 1.400 . S
C6095 C6094 1.385 . S
C6096 C6094 1.478 . S
C6096 C6098 1.381 . S
C6096 C6102 1.383 . S
C6097 C6093 1.495 . S
C6097 H6103 0.959 . S
C6097 H6104 0.961 . S
C6097 H6105 0.960 . S
C6098 C6096 1.381 . S
C6098 C6099 1.394 . S
C6098 H6106 0.930 . S
C6099 C6098 1.394 . S
C6099 C6100 1.383 . S
C6099 H6107 0.929 . S
C6100 C6099 1.383 . S
C6100 C6101 1.377 . S
C6101 H6085 0.930 . S
C6101 C6100 1.377 . S
C6101 C6102 1.379 . S
C6102 H6086 0.931 . S
C6102 C6096 1.383 . S
C6102 C6101 1.379 . S
H6103 C6097 0.959 . S
H6104 C6097 0.961 . S
H6105 C6097 0.960 . S
H6106 C6098 0.930 . S
H6107 C6099 0.929 . S
H6108 C6116 0.929 . S
H6109 C6118 0.930 . S
H6110 C6120 0.930 . S
H6111 C6123 0.929 . S
H6112 C6126 0.930 . S
H6113 C6128 0.960 . S
H6114 C6128 0.960 . S
H6115 C6128 0.960 . S
C6116 H6108 0.929 . S
C6116 C6117 1.377 . S
C6116 C6118 1.384 . S
C6117 C6116 1.377 . S
C6117 C6123 1.390 . S
C6118 H6109 0.930 . S
C6118 C6116 1.384 . S
C6118 C6119 1.372 . S
C6119 C6118 1.372 . S
C6119 C6120 1.400 . S
C6119 C6124 1.490 . S
C6120 H6110 0.930 . S
C6120 C6119 1.400 . S
C6120 C6123 1.386 . S
H6121 C6137 0.930 . S
H6122 C6138 0.931 . S
C6123 H6111 0.929 . S
C6123 C6117 1.390 . S
C6123 C6120 1.386 . S
C6124 C6119 1.490 . S
C6124 C6126 1.395 . S
C6124 C6127 1.403 . S
H6125 C6131 0.930 . S
C6126 H6112 0.930 . S
C6126 C6124 1.395 . S
C6126 C6129 1.403 . S
C6127 C6124 1.403 . S
C6127 C6128 1.524 . S
C6127 C6131 1.400 . S
C6128 H6113 0.960 . S
C6128 H6114 0.960 . S
C6128 H6115 0.960 . S
C6128 C6127 1.524 . S
C6129 C6126 1.403 . S
C6129 C6130 1.392 . S
C6129 C6133 1.495 . S
C6130 C6129 1.392 . S
C6130 C6131 1.385 . S
C6130 C6132 1.478 . S
C6131 H6125 0.930 . S
C6131 C6127 1.400 . S
C6131 C6130 1.385 . S
C6132 C6130 1.478 . S
C6132 C6134 1.381 . S
C6132 C6138 1.383 . S
C6133 C6129 1.495 . S
C6133 H6139 0.959 . S
C6133 H6140 0.961 . S
C6133 H6141 0.960 . S
C6134 C6132 1.381 . S
C6134 C6135 1.394 . S
C6134 H6142 0.930 . S
C6135 C6134 1.394 . S
C6135 C6136 1.383 . S
C6135 H6143 0.929 . S
C6136 C6135 1.383 . S
C6136 C6137 1.377 . S
C6137 H6121 0.930 . S
C6137 C6136 1.377 . S
C6137 C6138 1.379 . S
C6138 H6122 0.931 . S
C6138 C6132 1.383 . S
C6138 C6137 1.379 . S
H6139 C6133 0.959 . S
H6140 C6133 0.961 . S
H6141 C6133 0.960 . S
H6142 C6134 0.930 . S
H6143 C6135 0.929 . S
H6144 C6152 0.929 . S
H6145 C6154 0.930 . S
H6146 C6156 0.930 . S
H6147 C6159 0.929 . S
H6148 C6162 0.930 . S
H6149 C6164 0.960 . S
H6150 C6164 0.960 . S
H6151 C6164 0.960 . S
C6152 H6144 0.929 . S
C6152 C6153 1.377 . S
C6152 C6154 1.384 . S
C6153 C6152 1.377 . S
C6153 C6159 1.390 . S
C6154 H6145 0.930 . S
C6154 C6152 1.384 . S
C6154 C6155 1.372 . S
C6155 C6154 1.372 . S
C6155 C6156 1.400 . S
C6155 C6160 1.490 . S
C6156 H6146 0.930 . S
C6156 C6155 1.400 . S
C6156 C6159 1.386 . S
H6157 C6173 0.930 . S
H6158 C6174 0.931 . S
C6159 H6147 0.929 . S
C6159 C6153 1.390 . S
C6159 C6156 1.386 . S
C6160 C6155 1.490 . S
C6160 C6162 1.395 . S
C6160 C6163 1.403 . S
H6161 C6167 0.930 . S
C6162 H6148 0.930 . S
C6162 C6160 1.395 . S
C6162 C6165 1.403 . S
C6163 C6160 1.403 . S
C6163 C6164 1.524 . S
C6163 C6167 1.400 . S
C6164 H6149 0.960 . S
C6164 H6150 0.960 . S
C6164 H6151 0.960 . S
C6164 C6163 1.524 . S
C6165 C6162 1.403 . S
C6165 C6166 1.392 . S
C6165 C6169 1.495 . S
C6166 C6165 1.392 . S
C6166 C6167 1.385 . S
C6166 C6168 1.478 . S
C6167 H6161 0.930 . S
C6167 C6163 1.400 . S
C6167 C6166 1.385 . S
C6168 C6166 1.478 . S
C6168 C6170 1.381 . S
C6168 C6174 1.383 . S
C6169 C6165 1.495 . S
C6169 H6175 0.959 . S
C6169 H6176 0.961 . S
C6169 H6177 0.960 . S
C6170 C6168 1.381 . S
C6170 C6171 1.394 . S
C6170 H6178 0.930 . S
C6171 C6170 1.394 . S
C6171 C6172 1.383 . S
C6171 H6179 0.929 . S
C6172 C6171 1.383 . S
C6172 C6173 1.377 . S
C6173 H6157 0.930 . S
C6173 C6172 1.377 . S
C6173 C6174 1.379 . S
C6174 H6158 0.931 . S
C6174 C6168 1.383 . S
C6174 C6173 1.379 . S
H6175 C6169 0.959 . S
H6176 C6169 0.961 . S
H6177 C6169 0.960 . S
H6178 C6170 0.930 . S
H6179 C6171 0.929 . S
H6180 C6188 0.929 . S
H6181 C6190 0.930 . S
H6182 C6192 0.930 . S
H6183 C6195 0.929 . S
H6184 C6198 0.930 . S
H6185 C6200 0.960 . S
H6186 C6200 0.960 . S
H6187 C6200 0.960 . S
C6188 H6180 0.929 . S
C6188 C6189 1.377 . S
C6188 C6190 1.384 . S
C6189 C6188 1.377 . S
C6189 C6195 1.390 . S
C6190 H6181 0.930 . S
C6190 C6188 1.384 . S
C6190 C6191 1.372 . S
C6191 C6190 1.372 . S
C6191 C6192 1.400 . S
C6191 C6196 1.490 . S
C6192 H6182 0.930 . S
C6192 C6191 1.400 . S
C6192 C6195 1.386 . S
H6193 C6209 0.930 . S
H6194 C6210 0.931 . S
C6195 H6183 0.929 . S
C6195 C6189 1.390 . S
C6195 C6192 1.386 . S
C6196 C6191 1.490 . S
C6196 C6198 1.395 . S
C6196 C6199 1.403 . S
H6197 C6203 0.930 . S
C6198 H6184 0.930 . S
C6198 C6196 1.395 . S
C6198 C6201 1.403 . S
C6199 C6196 1.403 . S
C6199 C6200 1.524 . S
C6199 C6203 1.400 . S
C6200 H6185 0.960 . S
C6200 H6186 0.960 . S
C6200 H6187 0.960 . S
C6200 C6199 1.524 . S
C6201 C6198 1.403 . S
C6201 C6202 1.392 . S
C6201 C6205 1.495 . S
C6202 C6201 1.392 . S
C6202 C6203 1.385 . S
C6202 C6204 1.478 . S
C6203 H6197 0.930 . S
C6203 C6199 1.400 . S
C6203 C6202 1.385 . S
C6204 C6202 1.478 . S
C6204 C6206 1.381 . S
C6204 C6210 1.383 . S
C6205 C6201 1.495 . S
C6205 H6211 0.959 . S
C6205 H6212 0.961 . S
C6205 H6213 0.960 . S
C6206 C6204 1.381 . S
C6206 C6207 1.394 . S
C6206 H6214 0.930 . S
C6207 C6206 1.394 . S
C6207 C6208 1.383 . S
C6207 H6215 0.929 . S
C6208 C6207 1.383 . S
C6208 C6209 1.377 . S
C6209 H6193 0.930 . S
C6209 C6208 1.377 . S
C6209 C6210 1.379 . S
C6210 H6194 0.931 . S
C6210 C6204 1.383 . S
C6210 C6209 1.379 . S
H6211 C6205 0.959 . S
H6212 C6205 0.961 . S
H6213 C6205 0.960 . S
H6214 C6206 0.930 . S
H6215 C6207 0.929 . S
H6216 C6224 0.929 . S
H6217 C6226 0.930 . S
H6218 C6228 0.930 . S
H6219 C6231 0.929 . S
H6220 C6234 0.930 . S
H6221 C6236 0.960 . S
H6222 C6236 0.960 . S
H6223 C6236 0.960 . S
C6224 H6216 0.929 . S
C6224 C6225 1.377 . S
C6224 C6226 1.384 . S
C6225 C6224 1.377 . S
C6225 C6231 1.390 . S
C6226 H6217 0.930 . S
C6226 C6224 1.384 . S
C6226 C6227 1.372 . S
C6227 C6226 1.372 . S
C6227 C6228 1.400 . S
C6227 C6232 1.490 . S
C6228 H6218 0.930 . S
C6228 C6227 1.400 . S
C6228 C6231 1.386 . S
H6229 C6245 0.930 . S
H6230 C6246 0.931 . S
C6231 H6219 0.929 . S
C6231 C6225 1.390 . S
C6231 C6228 1.386 . S
C6232 C6227 1.490 . S
C6232 C6234 1.395 . S
C6232 C6235 1.403 . S
H6233 C6239 0.930 . S
C6234 H6220 0.930 . S
C6234 C6232 1.395 . S
C6234 C6237 1.403 . S
C6235 C6232 1.403 . S
C6235 C6236 1.524 . S
C6235 C6239 1.400 . S
C6236 H6221 0.960 . S
C6236 H6222 0.960 . S
C6236 H6223 0.960 . S
C6236 C6235 1.524 . S
C6237 C6234 1.403 . S
C6237 C6238 1.392 . S
C6237 C6241 1.495 . S
C6238 C6237 1.392 . S
C6238 C6239 1.385 . S
C6238 C6240 1.478 1_545 S
C6239 H6233 0.930 . S
C6239 C6235 1.400 . S
C6239 C6238 1.385 . S
C6240 C6238 1.478 1_565 S
C6240 C6242 1.381 . S
C6240 C6246 1.383 . S
C6241 C6237 1.495 . S
C6241 H6247 0.959 . S
C6241 H6248 0.961 . S
C6241 H6249 0.960 . S
C6242 C6240 1.381 . S
C6242 C6243 1.394 . S
C6242 H6250 0.930 1_565 S
C6243 C6242 1.394 . S
C6243 C6244 1.383 . S
C6243 H6251 0.929 . S
C6244 C6243 1.383 . S
C6244 C6245 1.377 . S
C6245 H6229 0.930 . S
C6245 C6244 1.377 . S
C6245 C6246 1.379 . S
C6246 H6230 0.931 . S
C6246 C6240 1.383 . S
C6246 C6245 1.379 . S
H6247 C6241 0.959 . S
H6248 C6241 0.961 . S
H6249 C6241 0.960 . S
H6250 C6242 0.930 1_545 S
H6251 C6243 0.929 . S
H6252 C6260 0.929 . S
H6253 C6262 0.930 . S
H6254 C6264 0.930 . S
H6255 C6267 0.929 . S
H6256 C6270 0.930 . S
H6257 C6272 0.960 . S
H6258 C6272 0.960 . S
H6259 C6272 0.960 . S
C6260 H6252 0.929 . S
C6260 C6261 1.377 . S
C6260 C6262 1.384 . S
C6261 C6260 1.377 . S
C6261 C6267 1.390 . S
C6262 H6253 0.930 . S
C6262 C6260 1.384 . S
C6262 C6263 1.372 . S
C6263 C6262 1.372 . S
C6263 C6264 1.400 . S
C6263 C6268 1.490 . S
C6264 H6254 0.930 . S
C6264 C6263 1.400 . S
C6264 C6267 1.386 . S
H6265 C6281 0.930 . S
H6266 C6282 0.931 . S
C6267 H6255 0.929 . S
C6267 C6261 1.390 . S
C6267 C6264 1.386 . S
C6268 C6263 1.490 . S
C6268 C6270 1.395 . S
C6268 C6271 1.403 . S
H6269 C6275 0.930 . S
C6270 H6256 0.930 . S
C6270 C6268 1.395 . S
C6270 C6273 1.403 . S
C6271 C6268 1.403 . S
C6271 C6272 1.524 . S
C6271 C6275 1.400 . S
C6272 H6257 0.960 . S
C6272 H6258 0.960 . S
C6272 H6259 0.960 . S
C6272 C6271 1.524 . S
C6273 C6270 1.403 . S
C6273 C6274 1.392 . S
C6273 C6277 1.495 . S
C6274 C6273 1.392 . S
C6274 C6275 1.385 . S
C6274 C6276 1.478 . S
C6275 H6269 0.930 . S
C6275 C6271 1.400 . S
C6275 C6274 1.385 . S
C6276 C6274 1.478 . S
C6276 C6278 1.381 . S
C6276 C6282 1.383 . S
C6277 C6273 1.495 . S
C6277 H6283 0.959 . S
C6277 H6284 0.961 . S
C6277 H6285 0.960 . S
C6278 C6276 1.381 . S
C6278 C6279 1.394 . S
C6278 H6286 0.930 . S
C6279 C6278 1.394 . S
C6279 C6280 1.383 . S
C6279 H6287 0.929 . S
C6280 C6279 1.383 . S
C6280 C6281 1.377 . S
C6281 H6265 0.930 . S
C6281 C6280 1.377 . S
C6281 C6282 1.379 . S
C6282 H6266 0.931 . S
C6282 C6276 1.383 . S
C6282 C6281 1.379 . S
H6283 C6277 0.959 . S
H6284 C6277 0.961 . S
H6285 C6277 0.960 . S
H6286 C6278 0.930 . S
H6287 C6279 0.929 . S
H6288 C6296 0.929 . S
H6289 C6298 0.930 . S
H6290 C6300 0.930 . S
H6291 C6303 0.929 . S
H6292 C6306 0.930 . S
H6293 C6308 0.960 . S
H6294 C6308 0.960 . S
H6295 C6308 0.960 . S
C6296 H6288 0.929 . S
C6296 C6297 1.377 . S
C6296 C6298 1.384 . S
C6297 C6296 1.377 . S
C6297 C6303 1.390 . S
C6298 H6289 0.930 . S
C6298 C6296 1.384 . S
C6298 C6299 1.372 . S
C6299 C6298 1.372 . S
C6299 C6300 1.400 . S
C6299 C6304 1.490 . S
C6300 H6290 0.930 . S
C6300 C6299 1.400 . S
C6300 C6303 1.386 . S
H6301 C6317 0.930 . S
H6302 C6318 0.931 . S
C6303 H6291 0.929 . S
C6303 C6297 1.390 . S
C6303 C6300 1.386 . S
C6304 C6299 1.490 . S
C6304 C6306 1.395 . S
C6304 C6307 1.403 . S
H6305 C6311 0.930 . S
C6306 H6292 0.930 . S
C6306 C6304 1.395 . S
C6306 C6309 1.403 . S
C6307 C6304 1.403 . S
C6307 C6308 1.524 . S
C6307 C6311 1.400 . S
C6308 H6293 0.960 . S
C6308 H6294 0.960 . S
C6308 H6295 0.960 . S
C6308 C6307 1.524 . S
C6309 C6306 1.403 . S
C6309 C6310 1.392 . S
C6309 C6313 1.495 . S
C6310 C6309 1.392 . S
C6310 C6311 1.385 . S
C6310 C6312 1.478 . S
C6311 H6305 0.930 . S
C6311 C6307 1.400 . S
C6311 C6310 1.385 . S
C6312 C6310 1.478 . S
C6312 C6314 1.381 . S
C6312 C6318 1.383 . S
C6313 C6309 1.495 . S
C6313 H6319 0.959 . S
C6313 H6320 0.961 . S
C6313 H6321 0.960 . S
C6314 C6312 1.381 . S
C6314 C6315 1.394 . S
C6314 H6322 0.930 . S
C6315 C6314 1.394 . S
C6315 C6316 1.383 . S
C6315 H6323 0.929 . S
C6316 C6315 1.383 . S
C6316 C6317 1.377 . S
C6317 H6301 0.930 . S
C6317 C6316 1.377 . S
C6317 C6318 1.379 . S
C6318 H6302 0.931 . S
C6318 C6312 1.383 . S
C6318 C6317 1.379 . S
H6319 C6313 0.959 . S
H6320 C6313 0.961 . S
H6321 C6313 0.960 . S
H6322 C6314 0.930 . S
H6323 C6315 0.929 . S
H6324 C6332 0.929 . S
H6325 C6334 0.930 . S
H6326 C6336 0.930 . S
H6327 C6339 0.929 . S
H6328 C6342 0.930 . S
H6329 C6344 0.960 . S
H6330 C6344 0.960 . S
H6331 C6344 0.960 . S
C6332 H6324 0.929 . S
C6332 C6333 1.377 . S
C6332 C6334 1.384 . S
C6333 C6332 1.377 . S
C6333 C6339 1.390 . S
C6334 H6325 0.930 . S
C6334 C6332 1.384 . S
C6334 C6335 1.372 . S
C6335 C6334 1.372 . S
C6335 C6336 1.400 . S
C6335 C6340 1.490 . S
C6336 H6326 0.930 . S
C6336 C6335 1.400 . S
C6336 C6339 1.386 . S
H6337 C6353 0.930 . S
H6338 C6354 0.931 . S
C6339 H6327 0.929 . S
C6339 C6333 1.390 . S
C6339 C6336 1.386 . S
C6340 C6335 1.490 . S
C6340 C6342 1.395 . S
C6340 C6343 1.403 . S
H6341 C6347 0.930 . S
C6342 H6328 0.930 . S
C6342 C6340 1.395 . S
C6342 C6345 1.403 . S
C6343 C6340 1.403 . S
C6343 C6344 1.524 . S
C6343 C6347 1.400 . S
C6344 H6329 0.960 . S
C6344 H6330 0.960 . S
C6344 H6331 0.960 . S
C6344 C6343 1.524 . S
C6345 C6342 1.403 . S
C6345 C6346 1.392 . S
C6345 C6349 1.495 . S
C6346 C6345 1.392 . S
C6346 C6347 1.385 . S
C6346 C6348 1.478 . S
C6347 H6341 0.930 . S
C6347 C6343 1.400 . S
C6347 C6346 1.385 . S
C6348 C6346 1.478 . S
C6348 C6350 1.381 . S
C6348 C6354 1.383 . S
C6349 C6345 1.495 . S
C6349 H6355 0.959 . S
C6349 H6356 0.961 . S
C6349 H6357 0.960 . S
C6350 C6348 1.381 . S
C6350 C6351 1.394 . S
C6350 H6358 0.930 . S
C6351 C6350 1.394 . S
C6351 C6352 1.383 . S
C6351 H6359 0.929 . S
C6352 C6351 1.383 . S
C6352 C6353 1.377 . S
C6353 H6337 0.930 . S
C6353 C6352 1.377 . S
C6353 C6354 1.379 . S
C6354 H6338 0.931 . S
C6354 C6348 1.383 . S
C6354 C6353 1.379 . S
H6355 C6349 0.959 . S
H6356 C6349 0.961 . S
H6357 C6349 0.960 . S
H6358 C6350 0.930 . S
H6359 C6351 0.929 . S
H6360 C6368 0.929 . S
H6361 C6370 0.930 . S
H6362 C6372 0.930 . S
H6363 C6375 0.929 . S
H6364 C6378 0.930 . S
H6365 C6380 0.960 . S
H6366 C6380 0.960 . S
H6367 C6380 0.960 . S
C6368 H6360 0.929 . S
C6368 C6369 1.377 . S
C6368 C6370 1.384 . S
C6369 C6368 1.377 . S
C6369 C6375 1.390 . S
C6370 H6361 0.930 . S
C6370 C6368 1.384 . S
C6370 C6371 1.372 . S
C6371 C6370 1.372 . S
C6371 C6372 1.400 . S
C6371 C6376 1.490 . S
C6372 H6362 0.930 . S
C6372 C6371 1.400 . S
C6372 C6375 1.386 . S
H6373 C6389 0.930 . S
H6374 C6390 0.931 1_565 S
C6375 H6363 0.929 . S
C6375 C6369 1.390 . S
C6375 C6372 1.386 . S
C6376 C6371 1.490 . S
C6376 C6378 1.395 . S
C6376 C6379 1.403 . S
H6377 C6383 0.930 . S
C6378 H6364 0.930 . S
C6378 C6376 1.395 . S
C6378 C6381 1.403 . S
C6379 C6376 1.403 . S
C6379 C6380 1.524 . S
C6379 C6383 1.400 . S
C6380 H6365 0.960 . S
C6380 H6366 0.960 . S
C6380 H6367 0.960 . S
C6380 C6379 1.524 . S
C6381 C6378 1.403 . S
C6381 C6382 1.392 . S
C6381 C6385 1.495 . S
C6382 C6381 1.392 . S
C6382 C6383 1.385 . S
C6382 C6384 1.478 1_565 S
C6383 H6377 0.930 . S
C6383 C6379 1.400 . S
C6383 C6382 1.385 . S
C6384 C6382 1.478 1_545 S
C6384 C6386 1.381 . S
C6384 C6390 1.383 . S
C6385 C6381 1.495 . S
C6385 H6391 0.959 . S
C6385 H6392 0.971 . S
C6385 H6393 0.960 1_565 S
C6386 C6384 1.381 . S
C6386 C6387 1.394 . S
C6386 H6394 0.930 . S
C6387 C6386 1.394 . S
C6387 C6388 1.383 . S
C6387 H6395 0.929 . S
C6388 C6387 1.383 . S
C6388 C6389 1.377 . S
C6389 H6373 0.930 . S
C6389 C6388 1.377 . S
C6389 C6390 1.379 . S
C6390 H6374 0.931 1_545 S
C6390 C6384 1.383 . S
C6390 C6389 1.379 . S
H6391 C6385 0.959 . S
H6392 C6385 0.971 . S
H6393 C6385 0.960 1_545 S
H6394 C6386 0.930 . S
H6395 C6387 0.929 . S
H6396 C6404 0.929 . S
H6397 C6406 0.930 . S
H6398 C6408 0.930 . S
H6399 C6411 0.929 . S
H6400 C6414 0.930 . S
H6401 C6416 0.950 1_545 S
H6402 C6416 0.960 . S
H6403 C6416 0.960 . S
C6404 H6396 0.929 . S
C6404 C6405 1.377 . S
C6404 C6406 1.384 . S
C6405 C6404 1.377 . S
C6405 C6411 1.390 . S
C6406 H6397 0.930 . S
C6406 C6404 1.384 . S
C6406 C6407 1.372 . S
C6407 C6406 1.372 . S
C6407 C6408 1.400 . S
C6407 C6412 1.490 1_565 S
C6408 H6398 0.930 . S
C6408 C6407 1.400 . S
C6408 C6411 1.386 . S
H6409 C6425 0.930 . S
H6410 C6426 0.931 . S
C6411 H6399 0.929 . S
C6411 C6405 1.390 . S
C6411 C6408 1.386 . S
C6412 C6407 1.490 1_545 S
C6412 C6414 1.395 . S
C6412 C6415 1.403 . S
H6413 C6419 0.930 . S
C6414 H6400 0.930 . S
C6414 C6412 1.395 . S
C6414 C6417 1.403 . S
C6415 C6412 1.403 . S
C6415 C6416 1.524 1_545 S
C6415 C6419 1.400 . S
C6416 H6401 0.950 1_565 S
C6416 H6402 0.960 . S
C6416 H6403 0.960 . S
C6416 C6415 1.524 1_565 S
C6417 C6414 1.403 . S
C6417 C6418 1.392 . S
C6417 C6421 1.495 . S
C6418 C6417 1.392 . S
C6418 C6419 1.385 . S
C6418 C6420 1.478 . S
C6419 H6413 0.930 . S
C6419 C6415 1.400 . S
C6419 C6418 1.385 . S
C6420 C6418 1.478 . S
C6420 C6422 1.381 . S
C6420 C6426 1.383 . S
C6421 C6417 1.495 . S
C6421 H6427 0.959 . S
C6421 H6428 0.961 . S
C6421 H6429 0.960 . S
C6422 C6420 1.381 . S
C6422 C6423 1.394 . S
C6422 H6430 0.930 . S
C6423 C6422 1.394 . S
C6423 C6424 1.383 . S
C6423 H6431 0.929 . S
C6424 C6423 1.383 . S
C6424 C6425 1.377 . S
C6425 H6409 0.930 . S
C6425 C6424 1.377 . S
C6425 C6426 1.379 . S
C6426 H6410 0.931 . S
C6426 C6420 1.383 . S
C6426 C6425 1.379 . S
H6427 C6421 0.959 . S
H6428 C6421 0.961 . S
H6429 C6421 0.960 . S
H6430 C6422 0.930 . S
H6431 C6423 0.929 . S
H6432 C6440 0.929 . S
H6433 C6442 0.930 . S
H6434 C6444 0.930 . S
H6435 C6447 0.929 . S
H6436 C6450 0.930 . S
H6437 C6452 0.960 . S
H6438 C6452 0.960 . S
H6439 C6452 0.960 . S
C6440 H6432 0.929 . S
C6440 C6441 1.377 . S
C6440 C6442 1.384 . S
C6441 C6440 1.377 . S
C6441 C6447 1.390 . S
C6442 H6433 0.930 . S
C6442 C6440 1.384 . S
C6442 C6443 1.372 . S
C6443 C6442 1.372 . S
C6443 C6444 1.400 . S
C6443 C6448 1.490 . S
C6444 H6434 0.930 . S
C6444 C6443 1.400 . S
C6444 C6447 1.386 . S
H6445 C6461 0.930 . S
H6446 C6462 0.931 . S
C6447 H6435 0.929 . S
C6447 C6441 1.390 . S
C6447 C6444 1.386 . S
C6448 C6443 1.490 . S
C6448 C6450 1.395 . S
C6448 C6451 1.403 . S
H6449 C6455 0.930 . S
C6450 H6436 0.930 . S
C6450 C6448 1.395 . S
C6450 C6453 1.403 . S
C6451 C6448 1.403 . S
C6451 C6452 1.524 . S
C6451 C6455 1.400 . S
C6452 H6437 0.960 . S
C6452 H6438 0.960 . S
C6452 H6439 0.960 . S
C6452 C6451 1.524 . S
C6453 C6450 1.403 . S
C6453 C6454 1.392 . S
C6453 C6457 1.495 . S
C6454 C6453 1.392 . S
C6454 C6455 1.385 . S
C6454 C6456 1.478 . S
C6455 H6449 0.930 . S
C6455 C6451 1.400 . S
C6455 C6454 1.385 . S
C6456 C6454 1.478 . S
C6456 C6458 1.381 . S
C6456 C6462 1.383 . S
C6457 C6453 1.495 . S
C6457 H6463 0.959 . S
C6457 H6464 0.961 . S
C6457 H6465 0.960 . S
C6458 C6456 1.381 . S
C6458 C6459 1.394 . S
C6458 H6466 0.930 . S
C6459 C6458 1.394 . S
C6459 C6460 1.383 . S
C6459 H6467 0.929 . S
C6460 C6459 1.383 . S
C6460 C6461 1.377 . S
C6461 H6445 0.930 . S
C6461 C6460 1.377 . S
C6461 C6462 1.379 . S
C6462 H6446 0.931 . S
C6462 C6456 1.383 . S
C6462 C6461 1.379 . S
H6463 C6457 0.959 . S
H6464 C6457 0.961 . S
H6465 C6457 0.960 . S
H6466 C6458 0.930 . S
H6467 C6459 0.929 . S
H6468 C6476 0.929 . S
H6469 C6478 0.930 . S
H6470 C6480 0.930 . S
H6471 C6483 0.929 . S
H6472 C6486 0.930 . S
H6473 C6488 0.960 . S
H6474 C6488 0.960 . S
H6475 C6488 0.960 . S
C6476 H6468 0.929 . S
C6476 C6477 1.377 . S
C6476 C6478 1.384 . S
C6477 C6476 1.377 . S
C6477 C6483 1.390 . S
C6478 H6469 0.930 . S
C6478 C6476 1.384 . S
C6478 C6479 1.372 . S
C6479 C6478 1.372 . S
C6479 C6480 1.400 . S
C6479 C6484 1.490 . S
C6480 H6470 0.930 . S
C6480 C6479 1.400 . S
C6480 C6483 1.386 . S
H6481 C6497 0.930 . S
H6482 C6498 0.931 . S
C6483 H6471 0.929 . S
C6483 C6477 1.390 . S
C6483 C6480 1.386 . S
C6484 C6479 1.490 . S
C6484 C6486 1.395 . S
C6484 C6487 1.403 . S
H6485 C6491 0.930 . S
C6486 H6472 0.930 . S
C6486 C6484 1.395 . S
C6486 C6489 1.403 . S
C6487 C6484 1.403 . S
C6487 C6488 1.524 . S
C6487 C6491 1.400 . S
C6488 H6473 0.960 . S
C6488 H6474 0.960 . S
C6488 H6475 0.960 . S
C6488 C6487 1.524 . S
C6489 C6486 1.403 . S
C6489 C6490 1.392 . S
C6489 C6493 1.495 . S
C6490 C6489 1.392 . S
C6490 C6491 1.385 . S
C6490 C6492 1.478 . S
C6491 H6485 0.930 . S
C6491 C6487 1.400 . S
C6491 C6490 1.385 . S
C6492 C6490 1.478 . S
C6492 C6494 1.381 . S
C6492 C6498 1.383 . S
C6493 C6489 1.495 . S
C6493 H6499 0.959 . S
C6493 H6500 0.961 . S
C6493 H6501 0.960 . S
C6494 C6492 1.381 . S
C6494 C6495 1.394 . S
C6494 H6502 0.930 . S
C6495 C6494 1.394 . S
C6495 C6496 1.383 . S
C6495 H6503 0.929 . S
C6496 C6495 1.383 . S
C6496 C6497 1.377 . S
C6497 H6481 0.930 . S
C6497 C6496 1.377 . S
C6497 C6498 1.379 . S
C6498 H6482 0.931 . S
C6498 C6492 1.383 . S
C6498 C6497 1.379 . S
H6499 C6493 0.959 . S
H6500 C6493 0.961 . S
H6501 C6493 0.960 . S
H6502 C6494 0.930 . S
H6503 C6495 0.929 . S
H6504 C6512 0.929 . S
H6505 C6514 0.930 . S
H6506 C6516 0.930 . S
H6507 C6519 0.929 . S
H6508 C6522 0.930 . S
H6509 C6524 0.960 . S
H6510 C6524 0.960 . S
H6511 C6524 0.960 . S
C6512 H6504 0.929 . S
C6512 C6513 1.377 . S
C6512 C6514 1.384 . S
C6513 C6512 1.377 . S
C6513 C6519 1.390 . S
C6514 H6505 0.930 . S
C6514 C6512 1.384 . S
C6514 C6515 1.372 . S
C6515 C6514 1.372 . S
C6515 C6516 1.400 . S
C6515 C6520 1.490 . S
C6516 H6506 0.930 . S
C6516 C6515 1.400 . S
C6516 C6519 1.386 . S
H6517 C6533 0.930 . S
H6518 C6534 0.931 . S
C6519 H6507 0.929 . S
C6519 C6513 1.390 . S
C6519 C6516 1.386 . S
C6520 C6515 1.490 . S
C6520 C6522 1.395 . S
C6520 C6523 1.403 . S
H6521 C6527 0.930 . S
C6522 H6508 0.930 . S
C6522 C6520 1.395 . S
C6522 C6525 1.403 . S
C6523 C6520 1.403 . S
C6523 C6524 1.524 . S
C6523 C6527 1.400 . S
C6524 H6509 0.960 . S
C6524 H6510 0.960 . S
C6524 H6511 0.960 . S
C6524 C6523 1.524 . S
C6525 C6522 1.403 . S
C6525 C6526 1.392 . S
C6525 C6529 1.495 . S
C6526 C6525 1.392 . S
C6526 C6527 1.385 . S
C6526 C6528 1.478 . S
C6527 H6521 0.930 . S
C6527 C6523 1.400 . S
C6527 C6526 1.385 . S
C6528 C6526 1.478 . S
C6528 C6530 1.381 . S
C6528 C6534 1.383 . S
C6529 C6525 1.495 . S
C6529 H6535 0.959 . S
C6529 H6536 0.961 . S
C6529 H6537 0.960 . S
C6530 C6528 1.381 . S
C6530 C6531 1.394 . S
C6530 H6538 0.930 . S
C6531 C6530 1.394 . S
C6531 C6532 1.383 . S
C6531 H6539 0.929 . S
C6532 C6531 1.383 . S
C6532 C6533 1.377 . S
C6533 H6517 0.930 . S
C6533 C6532 1.377 . S
C6533 C6534 1.379 . S
C6534 H6518 0.931 . S
C6534 C6528 1.383 . S
C6534 C6533 1.379 . S
H6535 C6529 0.959 . S
H6536 C6529 0.961 . S
H6537 C6529 0.960 . S
H6538 C6530 0.930 . S
H6539 C6531 0.929 . S
H6540 C6548 0.929 . S
H6541 C6550 1.004 . S
H6542 C6552 0.930 . S
H6543 C6555 0.929 . S
H6544 C6558 0.930 . S
H6545 C6560 0.949 1_655 S
H6546 C6560 0.960 . S
H6547 C6560 0.960 . S
C6548 H6540 0.929 . S
C6548 C6549 1.377 . S
C6548 C6550 1.384 . S
C6549 C6548 1.377 . S
C6549 C6555 1.390 . S
C6550 H6541 1.004 . S
C6550 C6548 1.384 . S
C6550 C6551 1.372 . S
C6551 C6550 1.372 . S
C6551 C6552 1.400 . S
C6551 C6556 1.490 1_455 S
C6552 H6542 0.930 . S
C6552 C6551 1.400 . S
C6552 C6555 1.386 . S
H6553 C6569 0.930 . S
H6554 C6570 0.931 . S
C6555 H6543 0.929 . S
C6555 C6549 1.390 . S
C6555 C6552 1.386 . S
C6556 C6551 1.490 1_655 S
C6556 C6558 1.395 . S
C6556 C6559 1.403 . S
H6557 C6563 0.930 . S
C6558 H6544 0.930 . S
C6558 C6556 1.395 . S
C6558 C6561 1.403 . S
C6559 C6556 1.403 . S
C6559 C6560 1.524 1_655 S
C6559 C6563 1.400 . S
C6560 H6545 0.949 1_455 S
C6560 H6546 0.960 . S
C6560 H6547 0.960 . S
C6560 C6559 1.524 1_455 S
C6561 C6558 1.403 . S
C6561 C6562 1.392 . S
C6561 C6565 1.495 . S
C6562 C6561 1.392 . S
C6562 C6563 1.385 . S
C6562 C6564 1.478 . S
C6563 H6557 0.930 . S
C6563 C6559 1.400 . S
C6563 C6562 1.385 . S
C6564 C6562 1.478 . S
C6564 C6566 1.381 . S
C6564 C6570 1.383 . S
C6565 C6561 1.495 . S
C6565 H6571 0.959 . S
C6565 H6572 0.961 . S
C6565 H6573 0.960 . S
C6566 C6564 1.381 . S
C6566 C6567 1.394 . S
C6566 H6574 0.930 . S
C6567 C6566 1.394 . S
C6567 C6568 1.383 . S
C6567 H6575 0.929 . S
C6568 C6567 1.383 . S
C6568 C6569 1.377 . S
C6569 H6553 0.930 . S
C6569 C6568 1.377 . S
C6569 C6570 1.379 . S
C6570 H6554 0.931 . S
C6570 C6564 1.383 . S
C6570 C6569 1.379 . S
H6571 C6565 0.959 . S
H6572 C6565 0.961 . S
H6573 C6565 0.960 . S
H6574 C6566 0.930 . S
H6575 C6567 0.929 . S
H6576 C6584 0.929 . S
H6577 C6586 0.930 . S
H6578 C6588 0.930 . S
H6579 C6591 0.929 . S
H6580 C6594 0.930 . S
H6581 C6596 0.960 . S
H6582 C6596 0.960 . S
H6583 C6596 0.960 . S
C6584 H6576 0.929 . S
C6584 C6585 1.377 . S
C6584 C6586 1.384 . S
C6585 C6584 1.377 . S
C6585 C6591 1.390 . S
C6586 H6577 0.930 . S
C6586 C6584 1.384 . S
C6586 C6587 1.372 . S
C6587 C6586 1.372 . S
C6587 C6588 1.400 . S
C6587 C6592 1.490 . S
C6588 H6578 0.930 . S
C6588 C6587 1.400 . S
C6588 C6591 1.386 . S
H6589 C6605 0.930 . S
H6590 C6606 0.931 . S
C6591 H6579 0.929 . S
C6591 C6585 1.390 . S
C6591 C6588 1.386 . S
C6592 C6587 1.490 . S
C6592 C6594 1.395 . S
C6592 C6595 1.403 . S
H6593 C6599 0.930 . S
C6594 H6580 0.930 . S
C6594 C6592 1.395 . S
C6594 C6597 1.403 . S
C6595 C6592 1.403 . S
C6595 C6596 1.524 . S
C6595 C6599 1.400 . S
C6596 H6581 0.960 . S
C6596 H6582 0.960 . S
C6596 H6583 0.960 . S
C6596 C6595 1.524 . S
C6597 C6594 1.403 . S
C6597 C6598 1.392 . S
C6597 C6601 1.495 . S
C6598 C6597 1.392 . S
C6598 C6599 1.385 . S
C6598 C6600 1.478 . S
C6599 H6593 0.930 . S
C6599 C6595 1.400 . S
C6599 C6598 1.385 . S
C6600 C6598 1.478 . S
C6600 C6602 1.381 . S
C6600 C6606 1.383 . S
C6601 C6597 1.495 . S
C6601 H6607 0.959 . S
C6601 H6608 0.961 . S
C6601 H6609 0.960 . S
C6602 C6600 1.381 . S
C6602 C6603 1.394 . S
C6602 H6610 0.930 . S
C6603 C6602 1.394 . S
C6603 C6604 1.383 . S
C6603 H6611 0.929 . S
C6604 C6603 1.383 . S
C6604 C6605 1.377 . S
C6605 H6589 0.930 . S
C6605 C6604 1.377 . S
C6605 C6606 1.379 . S
C6606 H6590 0.931 . S
C6606 C6600 1.383 . S
C6606 C6605 1.379 . S
H6607 C6601 0.959 . S
H6608 C6601 0.961 . S
H6609 C6601 0.960 . S
H6610 C6602 0.930 . S
H6611 C6603 0.929 . S
H6612 C6620 0.929 . S
H6613 C6622 0.930 . S
H6614 C6624 0.930 1_655 S
H6615 C6627 0.929 . S
H6616 C6630 0.930 . S
H6617 C6632 0.960 . S
H6618 C6632 0.960 . S
H6619 C6632 0.960 . S
C6620 H6612 0.929 . S
C6620 C6621 1.377 . S
C6620 C6622 1.384 . S
C6621 C6620 1.377 . S
C6621 C6627 1.390 . S
C6622 H6613 0.930 . S
C6622 C6620 1.384 . S
C6622 C6623 1.372 . S
C6623 C6622 1.372 . S
C6623 C6624 1.400 . S
C6623 C6628 1.490 1_455 S
C6624 H6614 0.930 1_455 S
C6624 C6623 1.400 . S
C6624 C6627 1.386 . S
H6625 C6641 0.930 . S
H6626 C6642 0.931 . S
C6627 H6615 0.929 . S
C6627 C6621 1.390 . S
C6627 C6624 1.386 . S
C6628 C6623 1.490 1_655 S
C6628 C6630 1.395 . S
C6628 C6631 1.403 . S
H6629 C6635 0.930 . S
C6630 H6616 0.930 . S
C6630 C6628 1.395 . S
C6630 C6633 1.403 . S
C6631 C6628 1.403 . S
C6631 C6632 1.524 . S
C6631 C6635 1.400 . S
C6632 H6617 0.960 . S
C6632 H6618 0.960 . S
C6632 H6619 0.960 . S
C6632 C6631 1.524 . S
C6633 C6630 1.403 . S
C6633 C6634 1.392 . S
C6633 C6637 1.495 . S
C6634 C6633 1.392 . S
C6634 C6635 1.385 . S
C6634 C6636 1.478 . S
C6635 H6629 0.930 . S
C6635 C6631 1.400 . S
C6635 C6634 1.385 . S
C6636 C6634 1.478 . S
C6636 C6638 1.381 . S
C6636 C6642 1.383 . S
C6637 C6633 1.495 . S
C6637 H6643 0.959 . S
C6637 H6644 0.961 . S
C6637 H6645 0.960 . S
C6638 C6636 1.381 . S
C6638 C6639 1.394 . S
C6638 H6646 0.930 . S
C6639 C6638 1.394 . S
C6639 C6640 1.383 . S
C6639 H6647 0.929 . S
C6640 C6639 1.383 . S
C6640 C6641 1.377 . S
C6641 H6625 0.930 . S
C6641 C6640 1.377 . S
C6641 C6642 1.379 . S
C6642 H6626 0.931 . S
C6642 C6636 1.383 . S
C6642 C6641 1.379 . S
H6643 C6637 0.959 . S
H6644 C6637 0.961 . S
H6645 C6637 0.960 . S
H6646 C6638 0.930 . S
H6647 C6639 0.929 . S
H6648 C6656 0.929 . S
H6649 C6658 0.930 . S
H6650 C6660 0.930 . S
H6651 C6663 0.929 . S
H6652 C6666 0.930 . S
H6653 C6668 0.960 . S
H6654 C6668 0.960 . S
H6655 C6668 0.960 . S
C6656 H6648 0.929 . S
C6656 C6657 1.377 . S
C6656 C6658 1.384 . S
C6657 C6656 1.377 . S
C6657 C6663 1.390 . S
C6658 H6649 0.930 . S
C6658 C6656 1.384 . S
C6658 C6659 1.372 . S
C6659 C6658 1.372 . S
C6659 C6660 1.400 . S
C6659 C6664 1.490 . S
C6660 H6650 0.930 . S
C6660 C6659 1.400 . S
C6660 C6663 1.386 . S
H6661 C6677 0.930 . S
H6662 C6678 0.931 . S
C6663 H6651 0.929 . S
C6663 C6657 1.390 . S
C6663 C6660 1.386 . S
C6664 C6659 1.490 . S
C6664 C6666 1.395 . S
C6664 C6667 1.403 . S
H6665 C6671 0.930 . S
C6666 H6652 0.930 . S
C6666 C6664 1.395 . S
C6666 C6669 1.403 . S
C6667 C6664 1.403 . S
C6667 C6668 1.524 . S
C6667 C6671 1.400 . S
C6668 H6653 0.960 . S
C6668 H6654 0.960 . S
C6668 H6655 0.960 . S
C6668 C6667 1.524 . S
C6669 C6666 1.403 . S
C6669 C6670 1.392 . S
C6669 C6673 1.495 . S
C6670 C6669 1.392 . S
C6670 C6671 1.385 . S
C6670 C6672 1.478 . S
C6671 H6665 0.930 . S
C6671 C6667 1.400 . S
C6671 C6670 1.385 . S
C6672 C6670 1.478 . S
C6672 C6674 1.381 . S
C6672 C6678 1.383 . S
C6673 C6669 1.495 . S
C6673 H6679 0.959 . S
C6673 H6680 0.961 . S
C6673 H6681 0.960 . S
C6674 C6672 1.381 . S
C6674 C6675 1.394 . S
C6674 H6682 0.930 . S
C6675 C6674 1.394 . S
C6675 C6676 1.383 . S
C6675 H6683 0.929 . S
C6676 C6675 1.383 . S
C6676 C6677 1.377 . S
C6677 H6661 0.930 . S
C6677 C6676 1.377 . S
C6677 C6678 1.379 . S
C6678 H6662 0.931 . S
C6678 C6672 1.383 . S
C6678 C6677 1.379 . S
H6679 C6673 0.959 . S
H6680 C6673 0.961 . S
H6681 C6673 0.960 . S
H6682 C6674 0.930 . S
H6683 C6675 0.929 . S
H6684 C6692 0.929 . S
H6685 C6694 0.930 . S
H6686 C6696 0.930 . S
H6687 C6699 0.929 . S
H6688 C6702 0.930 . S
H6689 C6704 0.960 . S
H6690 C6704 0.960 . S
H6691 C6704 0.960 . S
C6692 H6684 0.929 . S
C6692 C6693 1.377 . S
C6692 C6694 1.384 . S
C6693 C6692 1.377 . S
C6693 C6699 1.390 . S
C6694 H6685 0.930 . S
C6694 C6692 1.384 . S
C6694 C6695 1.372 . S
C6695 C6694 1.372 . S
C6695 C6696 1.400 . S
C6695 C6700 1.490 . S
C6696 H6686 0.930 . S
C6696 C6695 1.400 . S
C6696 C6699 1.386 . S
H6697 C6713 0.930 . S
H6698 C6714 0.931 . S
C6699 H6687 0.929 . S
C6699 C6693 1.390 . S
C6699 C6696 1.386 . S
C6700 C6695 1.490 . S
C6700 C6702 1.395 . S
C6700 C6703 1.403 . S
H6701 C6707 0.930 . S
C6702 H6688 0.930 . S
C6702 C6700 1.395 . S
C6702 C6705 1.403 . S
C6703 C6700 1.403 . S
C6703 C6704 1.524 . S
C6703 C6707 1.400 . S
C6704 H6689 0.960 . S
C6704 H6690 0.960 . S
C6704 H6691 0.960 . S
C6704 C6703 1.524 . S
C6705 C6702 1.403 . S
C6705 C6706 1.392 . S
C6705 C6709 1.495 . S
C6706 C6705 1.392 . S
C6706 C6707 1.385 . S
C6706 C6708 1.478 . S
C6707 H6701 0.930 . S
C6707 C6703 1.400 . S
C6707 C6706 1.385 . S
C6708 C6706 1.478 . S
C6708 C6710 1.381 . S
C6708 C6714 1.383 . S
C6709 C6705 1.495 . S
C6709 H6715 0.959 . S
C6709 H6716 0.961 . S
C6709 H6717 0.960 . S
C6710 C6708 1.381 . S
C6710 C6711 1.394 . S
C6710 H6718 0.930 . S
C6711 C6710 1.394 . S
C6711 C6712 1.383 . S
C6711 H6719 0.929 . S
C6712 C6711 1.383 . S
C6712 C6713 1.377 . S
C6713 H6697 0.930 . S
C6713 C6712 1.377 . S
C6713 C6714 1.379 . S
C6714 H6698 0.931 . S
C6714 C6708 1.383 . S
C6714 C6713 1.379 . S
H6715 C6709 0.959 . S
H6716 C6709 0.961 . S
H6717 C6709 0.960 . S
H6718 C6710 0.930 . S
H6719 C6711 0.929 . S
H6720 C6728 0.929 . S
H6721 C6730 0.930 . S
H6722 C6732 0.930 . S
H6723 C6735 0.929 . S
H6724 C6738 0.930 . S
H6725 C6740 0.960 . S
H6726 C6740 0.960 . S
H6727 C6740 0.960 . S
C6728 H6720 0.929 . S
C6728 C6729 1.377 . S
C6728 C6730 1.384 . S
C6729 C6728 1.377 . S
C6729 C6735 1.390 . S
C6730 H6721 0.930 . S
C6730 C6728 1.384 . S
C6730 C6731 1.372 . S
C6731 C6730 1.372 . S
C6731 C6732 1.400 . S
C6731 C6736 1.490 . S
C6732 H6722 0.930 . S
C6732 C6731 1.400 . S
C6732 C6735 1.386 . S
H6733 C6749 0.930 . S
H6734 C6750 0.931 . S
C6735 H6723 0.929 . S
C6735 C6729 1.390 . S
C6735 C6732 1.386 . S
C6736 C6731 1.490 . S
C6736 C6738 1.395 . S
C6736 C6739 1.403 . S
H6737 C6743 0.930 . S
C6738 H6724 0.930 . S
C6738 C6736 1.395 . S
C6738 C6741 1.403 . S
C6739 C6736 1.403 . S
C6739 C6740 1.524 . S
C6739 C6743 1.400 . S
C6740 H6725 0.960 . S
C6740 H6726 0.960 . S
C6740 H6727 0.960 . S
C6740 C6739 1.524 . S
C6741 C6738 1.403 . S
C6741 C6742 1.392 . S
C6741 C6745 1.495 . S
C6742 C6741 1.392 . S
C6742 C6743 1.385 . S
C6742 C6744 1.478 . S
C6743 H6737 0.930 . S
C6743 C6739 1.400 . S
C6743 C6742 1.385 . S
C6744 C6742 1.478 . S
C6744 C6746 1.381 . S
C6744 C6750 1.383 . S
C6745 C6741 1.495 . S
C6745 H6751 0.959 . S
C6745 H6752 0.961 . S
C6745 H6753 0.960 . S
C6746 C6744 1.381 . S
C6746 C6747 1.394 . S
C6746 H6754 0.930 . S
C6747 C6746 1.394 . S
C6747 C6748 1.383 . S
C6747 H6755 0.929 . S
C6748 C6747 1.383 . S
C6748 C6749 1.377 . S
C6749 H6733 0.930 . S
C6749 C6748 1.377 . S
C6749 C6750 1.379 . S
C6750 H6734 0.931 . S
C6750 C6744 1.383 . S
C6750 C6749 1.379 . S
H6751 C6745 0.959 . S
H6752 C6745 0.961 . S
H6753 C6745 0.960 . S
H6754 C6746 0.930 . S
H6755 C6747 0.929 . S
H6756 C6764 0.929 . S
H6757 C6766 0.930 . S
H6758 C6768 0.930 . S
H6759 C6771 0.929 . S
H6760 C6774 0.940 1_554 S
H6761 C6776 0.960 . S
H6762 C6776 0.960 . S
H6763 C6776 0.960 . S
C6764 H6756 0.929 . S
C6764 C6765 1.377 . S
C6764 C6766 1.384 . S
C6765 C6764 1.377 . S
C6765 C6771 1.390 . S
C6766 H6757 0.930 . S
C6766 C6764 1.384 . S
C6766 C6767 1.372 . S
C6767 C6766 1.372 . S
C6767 C6768 1.400 . S
C6767 C6772 1.490 1_554 S
C6768 H6758 0.930 . S
C6768 C6767 1.400 . S
C6768 C6771 1.386 . S
H6769 C6785 0.930 . S
H6770 C6786 0.931 . S
C6771 H6759 0.929 . S
C6771 C6765 1.390 . S
C6771 C6768 1.386 . S
C6772 C6767 1.490 1_556 S
C6772 C6774 1.395 . S
C6772 C6775 1.403 . S
H6773 C6779 0.930 . S
C6774 H6760 0.940 1_556 S
C6774 C6772 1.395 . S
C6774 C6777 1.403 . S
C6775 C6772 1.403 . S
C6775 C6776 1.524 . S
C6775 C6779 1.400 . S
C6776 H6761 0.960 . S
C6776 H6762 0.960 . S
C6776 H6763 0.960 . S
C6776 C6775 1.524 . S
C6777 C6774 1.403 . S
C6777 C6778 1.392 . S
C6777 C6781 1.495 . S
C6778 C6777 1.392 . S
C6778 C6779 1.385 . S
C6778 C6780 1.478 . S
C6779 H6773 0.930 . S
C6779 C6775 1.400 . S
C6779 C6778 1.385 . S
C6780 C6778 1.478 . S
C6780 C6782 1.381 . S
C6780 C6786 1.383 . S
C6781 C6777 1.495 . S
C6781 H6787 0.959 . S
C6781 H6788 0.961 . S
C6781 H6789 0.960 . S
C6782 C6780 1.381 . S
C6782 C6783 1.394 . S
C6782 H6790 0.930 . S
C6783 C6782 1.394 . S
C6783 C6784 1.383 . S
C6783 H6791 0.929 . S
C6784 C6783 1.383 . S
C6784 C6785 1.377 . S
C6785 H6769 0.930 . S
C6785 C6784 1.377 . S
C6785 C6786 1.379 . S
C6786 H6770 0.931 . S
C6786 C6780 1.383 . S
C6786 C6785 1.379 . S
H6787 C6781 0.959 . S
H6788 C6781 0.961 . S
H6789 C6781 0.960 . S
H6790 C6782 0.930 . S
H6791 C6783 0.929 . S
H6792 C6800 0.929 . S
H6793 C6802 0.930 . S
H6794 C6804 0.930 . S
H6795 C6807 0.929 . S
H6796 C6810 0.930 . S
H6797 C6812 0.960 . S
H6798 C6812 0.960 . S
H6799 C6812 0.960 . S
C6800 H6792 0.929 . S
C6800 C6801 1.377 . S
C6800 C6802 1.384 . S
C6801 C6800 1.377 . S
C6801 C6807 1.390 . S
C6802 H6793 0.930 . S
C6802 C6800 1.384 . S
C6802 C6803 1.372 . S
C6803 C6802 1.372 . S
C6803 C6804 1.400 . S
C6803 C6808 1.490 . S
C6804 H6794 0.930 . S
C6804 C6803 1.400 . S
C6804 C6807 1.386 . S
H6805 C6821 0.930 . S
H6806 C6822 0.931 . S
C6807 H6795 0.929 . S
C6807 C6801 1.390 . S
C6807 C6804 1.386 . S
C6808 C6803 1.490 . S
C6808 C6810 1.395 . S
C6808 C6811 1.403 . S
H6809 C6815 0.930 . S
C6810 H6796 0.930 . S
C6810 C6808 1.395 . S
C6810 C6813 1.403 . S
C6811 C6808 1.403 . S
C6811 C6812 1.524 . S
C6811 C6815 1.400 . S
C6812 H6797 0.960 . S
C6812 H6798 0.960 . S
C6812 H6799 0.960 . S
C6812 C6811 1.524 . S
C6813 C6810 1.403 . S
C6813 C6814 1.392 . S
C6813 C6817 1.495 . S
C6814 C6813 1.392 . S
C6814 C6815 1.385 . S
C6814 C6816 1.478 . S
C6815 H6809 0.930 . S
C6815 C6811 1.400 . S
C6815 C6814 1.385 . S
C6816 C6814 1.478 . S
C6816 C6818 1.381 . S
C6816 C6822 1.383 . S
C6817 C6813 1.495 . S
C6817 H6823 0.959 . S
C6817 H6824 0.961 . S
C6817 H6825 0.960 . S
C6818 C6816 1.381 . S
C6818 C6819 1.394 . S
C6818 H6826 0.930 . S
C6819 C6818 1.394 . S
C6819 C6820 1.383 . S
C6819 H6827 0.929 . S
C6820 C6819 1.383 . S
C6820 C6821 1.377 . S
C6821 H6805 0.930 . S
C6821 C6820 1.377 . S
C6821 C6822 1.379 . S
C6822 H6806 0.931 . S
C6822 C6816 1.383 . S
C6822 C6821 1.379 . S
H6823 C6817 0.959 . S
H6824 C6817 0.961 . S
H6825 C6817 0.960 . S
H6826 C6818 0.930 . S
H6827 C6819 0.929 . S
H6828 C6836 0.929 . S
H6829 C6838 0.930 . S
H6830 C6840 0.930 . S
H6831 C6843 0.929 . S
H6832 C6846 0.930 . S
H6833 C6848 0.960 . S
H6834 C6848 0.960 . S
H6835 C6848 0.960 . S
C6836 H6828 0.929 . S
C6836 C6837 1.377 . S
C6836 C6838 1.384 . S
C6837 C6836 1.377 . S
C6837 C6843 1.390 . S
C6838 H6829 0.930 . S
C6838 C6836 1.384 . S
C6838 C6839 1.372 . S
C6839 C6838 1.372 . S
C6839 C6840 1.400 . S
C6839 C6844 1.490 . S
C6840 H6830 0.930 . S
C6840 C6839 1.400 . S
C6840 C6843 1.386 . S
H6841 C6857 0.930 . S
H6842 C6858 0.931 . S
C6843 H6831 0.929 . S
C6843 C6837 1.390 . S
C6843 C6840 1.386 . S
C6844 C6839 1.490 . S
C6844 C6846 1.395 . S
C6844 C6847 1.403 . S
H6845 C6851 0.930 . S
C6846 H6832 0.930 . S
C6846 C6844 1.395 . S
C6846 C6849 1.403 . S
C6847 C6844 1.403 . S
C6847 C6848 1.524 . S
C6847 C6851 1.400 . S
C6848 H6833 0.960 . S
C6848 H6834 0.960 . S
C6848 H6835 0.960 . S
C6848 C6847 1.524 . S
C6849 C6846 1.403 . S
C6849 C6850 1.392 . S
C6849 C6853 1.495 . S
C6850 C6849 1.392 . S
C6850 C6851 1.385 . S
C6850 C6852 1.478 . S
C6851 H6845 0.930 . S
C6851 C6847 1.400 . S
C6851 C6850 1.385 . S
C6852 C6850 1.478 . S
C6852 C6854 1.381 . S
C6852 C6858 1.383 . S
C6853 C6849 1.495 . S
C6853 H6859 0.959 . S
C6853 H6860 0.961 . S
C6853 H6861 0.960 . S
C6854 C6852 1.381 . S
C6854 C6855 1.394 . S
C6854 H6862 0.930 . S
C6855 C6854 1.394 . S
C6855 C6856 1.383 . S
C6855 H6863 0.929 . S
C6856 C6855 1.383 . S
C6856 C6857 1.377 . S
C6857 H6841 0.930 . S
C6857 C6856 1.377 . S
C6857 C6858 1.379 . S
C6858 H6842 0.931 . S
C6858 C6852 1.383 . S
C6858 C6857 1.379 . S
H6859 C6853 0.959 . S
H6860 C6853 0.961 . S
H6861 C6853 0.960 . S
H6862 C6854 0.930 . S
H6863 C6855 0.929 . S
H6864 C6872 0.929 . S
H6865 C6874 0.930 . S
H6866 C6876 0.930 . S
H6867 C6879 0.929 . S
H6868 C6882 0.930 . S
H6869 C6884 0.960 . S
H6870 C6884 0.960 . S
H6871 C6884 0.960 . S
C6872 H6864 0.929 . S
C6872 C6873 1.377 . S
C6872 C6874 1.384 . S
C6873 C6872 1.377 . S
C6873 C6879 1.390 . S
C6874 H6865 0.930 . S
C6874 C6872 1.384 . S
C6874 C6875 1.372 . S
C6875 C6874 1.372 . S
C6875 C6876 1.400 . S
C6875 C6880 1.490 . S
C6876 H6866 0.930 . S
C6876 C6875 1.400 . S
C6876 C6879 1.386 . S
H6877 C6893 0.930 . S
H6878 C6894 0.931 . S
C6879 H6867 0.929 . S
C6879 C6873 1.390 . S
C6879 C6876 1.386 . S
C6880 C6875 1.490 . S
C6880 C6882 1.395 . S
C6880 C6883 1.403 . S
H6881 C6887 0.930 . S
C6882 H6868 0.930 . S
C6882 C6880 1.395 . S
C6882 C6885 1.403 . S
C6883 C6880 1.403 . S
C6883 C6884 1.524 . S
C6883 C6887 1.400 . S
C6884 H6869 0.960 . S
C6884 H6870 0.960 . S
C6884 H6871 0.960 . S
C6884 C6883 1.524 . S
C6885 C6882 1.403 . S
C6885 C6886 1.392 . S
C6885 C6889 1.495 . S
C6886 C6885 1.392 . S
C6886 C6887 1.385 . S
C6886 C6888 1.478 . S
C6887 H6881 0.930 . S
C6887 C6883 1.400 . S
C6887 C6886 1.385 . S
C6888 C6886 1.478 . S
C6888 C6890 1.381 . S
C6888 C6894 1.383 . S
C6889 C6885 1.495 . S
C6889 H6895 0.959 . S
C6889 H6896 0.961 . S
C6889 H6897 0.960 . S
C6890 C6888 1.381 . S
C6890 C6891 1.394 . S
C6890 H6898 0.930 . S
C6891 C6890 1.394 . S
C6891 C6892 1.383 . S
C6891 H6899 0.929 . S
C6892 C6891 1.383 . S
C6892 C6893 1.377 . S
C6893 H6877 0.930 . S
C6893 C6892 1.377 . S
C6893 C6894 1.379 . S
C6894 H6878 0.931 . S
C6894 C6888 1.383 . S
C6894 C6893 1.379 . S
H6895 C6889 0.959 . S
H6896 C6889 0.961 . S
H6897 C6889 0.960 . S
H6898 C6890 0.930 . S
H6899 C6891 0.929 . S
H6900 C6908 0.929 . S
H6901 C6910 0.930 . S
H6902 C6912 0.930 . S
H6903 C6915 0.929 . S
H6904 C6918 0.930 . S
H6905 C6920 0.960 . S
H6906 C6920 0.960 . S
H6907 C6920 0.960 . S
C6908 H6900 0.929 . S
C6908 C6909 1.377 . S
C6908 C6910 1.384 . S
C6909 C6908 1.377 . S
C6909 C6915 1.390 . S
C6910 H6901 0.930 . S
C6910 C6908 1.384 . S
C6910 C6911 1.372 . S
C6911 C6910 1.372 . S
C6911 C6912 1.400 . S
C6911 C6916 1.490 . S
C6912 H6902 0.930 . S
C6912 C6911 1.400 . S
C6912 C6915 1.386 . S
H6913 C6929 0.930 . S
H6914 C6930 0.931 . S
C6915 H6903 0.929 . S
C6915 C6909 1.390 . S
C6915 C6912 1.386 . S
C6916 C6911 1.490 . S
C6916 C6918 1.395 . S
C6916 C6919 1.403 . S
H6917 C6923 0.930 . S
C6918 H6904 0.930 . S
C6918 C6916 1.395 . S
C6918 C6921 1.403 . S
C6919 C6916 1.403 . S
C6919 C6920 1.524 . S
C6919 C6923 1.400 . S
C6920 H6905 0.960 . S
C6920 H6906 0.960 . S
C6920 H6907 0.960 . S
C6920 C6919 1.524 . S
C6921 C6918 1.403 . S
C6921 C6922 1.392 . S
C6921 C6925 1.495 1_554 S
C6922 C6921 1.392 . S
C6922 C6923 1.385 . S
C6922 C6924 1.478 1_554 S
C6923 H6917 0.930 . S
C6923 C6919 1.400 . S
C6923 C6922 1.385 . S
C6924 C6922 1.478 1_556 S
C6924 C6926 1.381 . S
C6924 C6930 1.383 . S
C6925 C6921 1.495 1_556 S
C6925 H6931 1.000 . S
C6925 H6932 0.961 . S
C6925 H6933 0.960 . S
C6926 C6924 1.381 . S
C6926 C6927 1.394 . S
C6926 H6934 0.930 . S
C6927 C6926 1.394 . S
C6927 C6928 1.383 . S
C6927 H6935 0.929 . S
C6928 C6927 1.383 . S
C6928 C6929 1.377 . S
C6929 H6913 0.930 . S
C6929 C6928 1.377 . S
C6929 C6930 1.379 . S
C6930 H6914 0.931 . S
C6930 C6924 1.383 . S
C6930 C6929 1.379 . S
H6931 C6925 1.000 . S
H6932 C6925 0.961 . S
H6933 C6925 0.960 . S
H6934 C6926 0.930 . S
H6935 C6927 0.929 . S
H6936 C6944 0.929 . S
H6937 C6946 0.930 . S
H6938 C6948 0.930 . S
H6939 C6951 0.929 . S
H6940 C6954 0.930 . S
H6941 C6956 0.960 . S
H6942 C6956 0.960 . S
H6943 C6956 0.960 . S
C6944 H6936 0.929 . S
C6944 C6945 1.377 . S
C6944 C6946 1.384 . S
C6945 C6944 1.377 . S
C6945 C6951 1.390 . S
C6946 H6937 0.930 . S
C6946 C6944 1.384 . S
C6946 C6947 1.372 . S
C6947 C6946 1.372 . S
C6947 C6948 1.400 . S
C6947 C6952 1.490 . S
C6948 H6938 0.930 . S
C6948 C6947 1.400 . S
C6948 C6951 1.386 . S
H6949 C6965 0.930 . S
H6950 C6966 0.931 . S
C6951 H6939 0.929 . S
C6951 C6945 1.390 . S
C6951 C6948 1.386 . S
C6952 C6947 1.490 . S
C6952 C6954 1.395 . S
C6952 C6955 1.403 . S
H6953 C6959 0.930 . S
C6954 H6940 0.930 . S
C6954 C6952 1.395 . S
C6954 C6957 1.403 . S
C6955 C6952 1.403 . S
C6955 C6956 1.524 . S
C6955 C6959 1.400 . S
C6956 H6941 0.960 . S
C6956 H6942 0.960 . S
C6956 H6943 0.960 . S
C6956 C6955 1.524 . S
C6957 C6954 1.403 . S
C6957 C6958 1.392 . S
C6957 C6961 1.495 . S
C6958 C6957 1.392 . S
C6958 C6959 1.385 . S
C6958 C6960 1.478 . S
C6959 H6953 0.930 . S
C6959 C6955 1.400 . S
C6959 C6958 1.385 . S
C6960 C6958 1.478 . S
C6960 C6962 1.381 . S
C6960 C6966 1.383 . S
C6961 C6957 1.495 . S
C6961 H6967 0.959 . S
C6961 H6968 0.961 . S
C6961 H6969 0.960 . S
C6962 C6960 1.381 . S
C6962 C6963 1.394 . S
C6962 H6970 0.930 . S
C6963 C6962 1.394 . S
C6963 C6964 1.383 . S
C6963 H6971 0.929 . S
C6964 C6963 1.383 . S
C6964 C6965 1.377 . S
C6965 H6949 0.930 . S
C6965 C6964 1.377 . S
C6965 C6966 1.379 . S
C6966 H6950 0.931 . S
C6966 C6960 1.383 . S
C6966 C6965 1.379 . S
H6967 C6961 0.959 . S
H6968 C6961 0.961 . S
H6969 C6961 0.960 . S
H6970 C6962 0.930 . S
H6971 C6963 0.929 . S
H6972 C6980 0.929 . S
H6973 C6982 0.930 . S
H6974 C6984 0.930 . S
H6975 C6987 0.929 . S
H6976 C6990 0.930 . S
H6977 C6992 0.960 . S
H6978 C6992 0.960 . S
H6979 C6992 0.960 . S
C6980 H6972 0.929 . S
C6980 C6981 1.377 . S
C6980 C6982 1.384 . S
C6981 C6980 1.377 . S
C6981 C6987 1.390 . S
C6982 H6973 0.930 . S
C6982 C6980 1.384 . S
C6982 C6983 1.372 . S
C6983 C6982 1.372 . S
C6983 C6984 1.400 . S
C6983 C6988 1.490 . S
C6984 H6974 0.930 . S
C6984 C6983 1.400 . S
C6984 C6987 1.386 . S
H6985 C7001 0.930 . S
H6986 C7002 0.931 . S
C6987 H6975 0.929 . S
C6987 C6981 1.390 . S
C6987 C6984 1.386 . S
C6988 C6983 1.490 . S
C6988 C6990 1.395 . S
C6988 C6991 1.403 . S
H6989 C6995 0.930 . S
C6990 H6976 0.930 . S
C6990 C6988 1.395 . S
C6990 C6993 1.403 . S
C6991 C6988 1.403 . S
C6991 C6992 1.524 . S
C6991 C6995 1.400 . S
C6992 H6977 0.960 . S
C6992 H6978 0.960 . S
C6992 H6979 0.960 . S
C6992 C6991 1.524 . S
C6993 C6990 1.403 . S
C6993 C6994 1.392 . S
C6993 C6997 1.495 . S
C6994 C6993 1.392 . S
C6994 C6995 1.385 . S
C6994 C6996 1.478 . S
C6995 H6989 0.930 . S
C6995 C6991 1.400 . S
C6995 C6994 1.385 . S
C6996 C6994 1.478 . S
C6996 C6998 1.381 . S
C6996 C7002 1.383 . S
C6997 C6993 1.495 . S
C6997 H7003 0.959 . S
C6997 H7004 0.961 . S
C6997 H7005 0.960 . S
C6998 C6996 1.381 . S
C6998 C6999 1.394 . S
C6998 H7006 0.930 . S
C6999 C6998 1.394 . S
C6999 C7000 1.383 . S
C6999 H7007 0.929 . S
C7000 C6999 1.383 . S
C7000 C7001 1.377 . S
C7001 H6985 0.930 . S
C7001 C7000 1.377 . S
C7001 C7002 1.379 . S
C7002 H6986 0.931 . S
C7002 C6996 1.383 . S
C7002 C7001 1.379 . S
H7003 C6997 0.959 . S
H7004 C6997 0.961 . S
H7005 C6997 0.960 . S
H7006 C6998 0.930 . S
H7007 C6999 0.929 . S
H7008 C7016 0.929 . S
H7009 C7018 0.930 . S
H7010 C7020 0.930 . S
H7011 C7023 0.929 . S
H7012 C7026 0.930 . S
H7013 C7028 0.960 . S
H7014 C7028 0.960 . S
H7015 C7028 0.960 . S
C7016 H7008 0.929 . S
C7016 C7017 1.377 . S
C7016 C7018 1.384 . S
C7017 C7016 1.377 . S
C7017 C7023 1.390 . S
C7018 H7009 0.930 . S
C7018 C7016 1.384 . S
C7018 C7019 1.372 . S
C7019 C7018 1.372 . S
C7019 C7020 1.400 . S
C7019 C7024 1.490 . S
C7020 H7010 0.930 . S
C7020 C7019 1.400 . S
C7020 C7023 1.386 . S
H7021 C7037 0.930 . S
H7022 C7038 0.931 . S
C7023 H7011 0.929 . S
C7023 C7017 1.390 . S
C7023 C7020 1.386 . S
C7024 C7019 1.490 . S
C7024 C7026 1.395 . S
C7024 C7027 1.403 . S
H7025 C7031 0.930 . S
C7026 H7012 0.930 . S
C7026 C7024 1.395 . S
C7026 C7029 1.403 . S
C7027 C7024 1.403 . S
C7027 C7028 1.524 . S
C7027 C7031 1.400 . S
C7028 H7013 0.960 . S
C7028 H7014 0.960 . S
C7028 H7015 0.960 . S
C7028 C7027 1.524 . S
C7029 C7026 1.403 . S
C7029 C7030 1.392 . S
C7029 C7033 1.495 . S
C7030 C7029 1.392 . S
C7030 C7031 1.385 . S
C7030 C7032 1.478 . S
C7031 H7025 0.930 . S
C7031 C7027 1.400 . S
C7031 C7030 1.385 . S
C7032 C7030 1.478 . S
C7032 C7034 1.381 . S
C7032 C7038 1.383 . S
C7033 C7029 1.495 . S
C7033 H7039 0.959 . S
C7033 H7040 0.961 . S
C7033 H7041 0.960 . S
C7034 C7032 1.381 . S
C7034 C7035 1.394 . S
C7034 H7042 0.930 . S
C7035 C7034 1.394 . S
C7035 C7036 1.383 . S
C7035 H7043 0.929 . S
C7036 C7035 1.383 . S
C7036 C7037 1.377 . S
C7037 H7021 0.930 . S
C7037 C7036 1.377 . S
C7037 C7038 1.379 . S
C7038 H7022 0.931 . S
C7038 C7032 1.383 . S
C7038 C7037 1.379 . S
H7039 C7033 0.959 . S
H7040 C7033 0.961 . S
H7041 C7033 0.960 . S
H7042 C7034 0.930 . S
H7043 C7035 0.929 . S
H7044 C7052 0.929 . S
H7045 C7054 0.930 . S
H7046 C7056 0.930 . S
H7047 C7059 0.929 . S
H7048 C7062 0.930 . S
H7049 C7064 0.960 . S
H7050 C7064 0.960 . S
H7051 C7064 0.960 . S
C7052 H7044 0.929 . S
C7052 C7053 1.377 . S
C7052 C7054 1.384 . S
C7053 C7052 1.377 . S
C7053 C7059 1.390 . S
C7054 H7045 0.930 . S
C7054 C7052 1.384 . S
C7054 C7055 1.372 . S
C7055 C7054 1.372 . S
C7055 C7056 1.400 . S
C7055 C7060 1.490 . S
C7056 H7046 0.930 . S
C7056 C7055 1.400 . S
C7056 C7059 1.386 . S
H7057 C7073 0.930 . S
H7058 C7074 0.931 . S
C7059 H7047 0.929 . S
C7059 C7053 1.390 . S
C7059 C7056 1.386 . S
C7060 C7055 1.490 . S
C7060 C7062 1.395 . S
C7060 C7063 1.403 . S
H7061 C7067 0.930 . S
C7062 H7048 0.930 . S
C7062 C7060 1.395 . S
C7062 C7065 1.403 . S
C7063 C7060 1.403 . S
C7063 C7064 1.524 . S
C7063 C7067 1.400 . S
C7064 H7049 0.960 . S
C7064 H7050 0.960 . S
C7064 H7051 0.960 . S
C7064 C7063 1.524 . S
C7065 C7062 1.403 . S
C7065 C7066 1.392 . S
C7065 C7069 1.495 . S
C7066 C7065 1.392 . S
C7066 C7067 1.385 . S
C7066 C7068 1.478 . S
C7067 H7061 0.930 . S
C7067 C7063 1.400 . S
C7067 C7066 1.385 . S
C7068 C7066 1.478 . S
C7068 C7070 1.381 . S
C7068 C7074 1.383 . S
C7069 C7065 1.495 . S
C7069 H7075 0.959 . S
C7069 H7076 0.961 . S
C7069 H7077 0.960 . S
C7070 C7068 1.381 . S
C7070 C7071 1.394 . S
C7070 H7078 0.930 . S
C7071 C7070 1.394 . S
C7071 C7072 1.383 . S
C7071 H7079 0.929 . S
C7072 C7071 1.383 . S
C7072 C7073 1.377 . S
C7073 H7057 0.930 . S
C7073 C7072 1.377 . S
C7073 C7074 1.379 . S
C7074 H7058 0.931 . S
C7074 C7068 1.383 . S
C7074 C7073 1.379 . S
H7075 C7069 0.959 . S
H7076 C7069 0.961 . S
H7077 C7069 0.960 . S
H7078 C7070 0.930 . S
H7079 C7071 0.929 . S
H7080 C7088 0.929 . S
H7081 C7090 0.930 . S
H7082 C7092 0.930 . S
H7083 C7095 0.929 . S
H7084 C7098 0.930 . S
H7085 C7100 0.960 . S
H7086 C7100 0.960 . S
H7087 C7100 0.960 . S
C7088 H7080 0.929 . S
C7088 C7089 1.377 . S
C7088 C7090 1.384 . S
C7089 C7088 1.377 . S
C7089 C7095 1.390 . S
C7090 H7081 0.930 . S
C7090 C7088 1.384 . S
C7090 C7091 1.372 . S
C7091 C7090 1.372 . S
C7091 C7092 1.400 . S
C7091 C7096 1.490 . S
C7092 H7082 0.930 . S
C7092 C7091 1.400 . S
C7092 C7095 1.386 . S
H7093 C7109 0.930 . S
H7094 C7110 0.931 . S
C7095 H7083 0.929 . S
C7095 C7089 1.390 . S
C7095 C7092 1.386 . S
C7096 C7091 1.490 . S
C7096 C7098 1.395 . S
C7096 C7099 1.403 . S
H7097 C7103 0.930 . S
C7098 H7084 0.930 . S
C7098 C7096 1.395 . S
C7098 C7101 1.403 . S
C7099 C7096 1.403 . S
C7099 C7100 1.524 . S
C7099 C7103 1.400 . S
C7100 H7085 0.960 . S
C7100 H7086 0.960 . S
C7100 H7087 0.960 . S
C7100 C7099 1.524 . S
C7101 C7098 1.403 . S
C7101 C7102 1.392 . S
C7101 C7105 1.429 1_565 S
C7102 C7101 1.392 . S
C7102 C7103 1.385 . S
C7102 C7104 1.478 1_565 S
C7103 H7097 0.930 . S
C7103 C7099 1.400 . S
C7103 C7102 1.385 . S
C7104 C7102 1.478 1_545 S
C7104 C7106 1.381 . S
C7104 C7110 1.383 . S
C7105 C7101 1.429 1_545 S
C7105 H7111 0.930 1_545 S
C7105 H7112 1.035 . S
C7105 H7113 0.993 . S
C7106 C7104 1.381 . S
C7106 C7107 1.394 . S
C7106 H7114 0.930 . S
C7107 C7106 1.394 . S
C7107 C7108 1.383 . S
C7107 H7115 0.929 . S
C7108 C7107 1.383 . S
C7108 C7109 1.377 . S
C7109 H7093 0.930 . S
C7109 C7108 1.377 . S
C7109 C7110 1.379 . S
C7110 H7094 0.931 . S
C7110 C7104 1.383 . S
C7110 C7109 1.379 . S
H7111 C7105 0.930 1_565 S
H7112 C7105 1.035 . S
H7113 C7105 0.993 . S
H7114 C7106 0.930 . S
H7115 C7107 0.929 . S
H7116 C7124 0.929 . S
H7117 C7126 0.930 . S
H7118 C7128 0.930 . S
H7119 C7131 0.929 . S
H7120 C7134 0.930 . S
H7121 C7136 0.960 . S
H7122 C7136 0.960 . S
H7123 C7136 0.960 . S
C7124 H7116 0.929 . S
C7124 C7125 1.377 . S
C7124 C7126 1.384 . S
C7125 C7124 1.377 . S
C7125 C7131 1.390 . S
C7126 H7117 0.930 . S
C7126 C7124 1.384 . S
C7126 C7127 1.372 . S
C7127 C7126 1.372 . S
C7127 C7128 1.400 . S
C7127 C7132 1.490 . S
C7128 H7118 0.930 . S
C7128 C7127 1.400 . S
C7128 C7131 1.386 . S
H7129 C7145 0.930 . S
H7130 C7146 0.931 . S
C7131 H7119 0.929 . S
C7131 C7125 1.390 . S
C7131 C7128 1.386 . S
C7132 C7127 1.490 . S
C7132 C7134 1.395 . S
C7132 C7135 1.403 . S
H7133 C7139 0.930 . S
C7134 H7120 0.930 . S
C7134 C7132 1.395 . S
C7134 C7137 1.403 . S
C7135 C7132 1.403 . S
C7135 C7136 1.524 . S
C7135 C7139 1.400 . S
C7136 H7121 0.960 . S
C7136 H7122 0.960 . S
C7136 H7123 0.960 . S
C7136 C7135 1.524 . S
C7137 C7134 1.403 . S
C7137 C7138 1.392 . S
C7137 C7141 1.495 . S
C7138 C7137 1.392 . S
C7138 C7139 1.385 . S
C7138 C7140 1.478 . S
C7139 H7133 0.930 . S
C7139 C7135 1.400 . S
C7139 C7138 1.385 . S
C7140 C7138 1.478 . S
C7140 C7142 1.381 . S
C7140 C7146 1.383 . S
C7141 C7137 1.495 . S
C7141 H7147 0.959 . S
C7141 H7148 0.961 . S
C7141 H7149 0.960 . S
C7142 C7140 1.381 . S
C7142 C7143 1.394 . S
C7142 H7150 0.930 . S
C7143 C7142 1.394 . S
C7143 C7144 1.383 . S
C7143 H7151 0.929 . S
C7144 C7143 1.383 . S
C7144 C7145 1.377 . S
C7145 H7129 0.930 . S
C7145 C7144 1.377 . S
C7145 C7146 1.379 . S
C7146 H7130 0.931 . S
C7146 C7140 1.383 . S
C7146 C7145 1.379 . S
H7147 C7141 0.959 . S
H7148 C7141 0.961 . S
H7149 C7141 0.960 . S
H7150 C7142 0.930 . S
H7151 C7143 0.929 . S
H7152 C7160 0.929 . S
H7153 C7162 0.930 . S
H7154 C7164 0.930 . S
H7155 C7167 0.929 . S
H7156 C7170 0.930 . S
H7157 C7172 0.960 . S
H7158 C7172 0.960 . S
H7159 C7172 0.960 . S
C7160 H7152 0.929 . S
C7160 C7161 1.377 . S
C7160 C7162 1.384 . S
C7161 C7160 1.377 . S
C7161 C7167 1.390 . S
C7162 H7153 0.930 . S
C7162 C7160 1.384 . S
C7162 C7163 1.372 . S
C7163 C7162 1.372 . S
C7163 C7164 1.400 . S
C7163 C7168 1.490 . S
C7164 H7154 0.930 . S
C7164 C7163 1.400 . S
C7164 C7167 1.386 . S
H7165 C7181 0.930 . S
H7166 C7182 0.931 . S
C7167 H7155 0.929 . S
C7167 C7161 1.390 . S
C7167 C7164 1.386 . S
C7168 C7163 1.490 . S
C7168 C7170 1.395 . S
C7168 C7171 1.403 . S
H7169 C7175 0.930 . S
C7170 H7156 0.930 . S
C7170 C7168 1.395 . S
C7170 C7173 1.403 . S
C7171 C7168 1.403 . S
C7171 C7172 1.524 . S
C7171 C7175 1.400 . S
C7172 H7157 0.960 . S
C7172 H7158 0.960 . S
C7172 H7159 0.960 . S
C7172 C7171 1.524 . S
C7173 C7170 1.403 . S
C7173 C7174 1.392 . S
C7173 C7177 1.495 . S
C7174 C7173 1.392 . S
C7174 C7175 1.385 . S
C7174 C7176 1.478 . S
C7175 H7169 0.930 . S
C7175 C7171 1.400 . S
C7175 C7174 1.385 . S
C7176 C7174 1.478 . S
C7176 C7178 1.381 . S
C7176 C7182 1.383 . S
C7177 C7173 1.495 . S
C7177 H7183 0.959 . S
C7177 H7184 0.961 . S
C7177 H7185 0.960 . S
C7178 C7176 1.381 . S
C7178 C7179 1.394 . S
C7178 H7186 0.930 . S
C7179 C7178 1.394 . S
C7179 C7180 1.383 . S
C7179 H7187 0.929 . S
C7180 C7179 1.383 . S
C7180 C7181 1.377 . S
C7181 H7165 0.930 . S
C7181 C7180 1.377 . S
C7181 C7182 1.379 . S
C7182 H7166 0.931 . S
C7182 C7176 1.383 . S
C7182 C7181 1.379 . S
H7183 C7177 0.959 . S
H7184 C7177 0.961 . S
H7185 C7177 0.960 . S
H7186 C7178 0.930 . S
H7187 C7179 0.929 . S
H7188 C7196 0.929 . S
H7189 C7198 0.930 . S
H7190 C7200 0.930 . S
H7191 C7203 0.929 . S
H7192 C7206 0.930 . S
H7193 C7208 0.960 . S
H7194 C7208 0.960 . S
H7195 C7208 0.960 . S
C7196 H7188 0.929 . S
C7196 C7197 1.377 . S
C7196 C7198 1.384 . S
C7197 C7196 1.377 . S
C7197 C7203 1.390 . S
C7198 H7189 0.930 . S
C7198 C7196 1.384 . S
C7198 C7199 1.372 . S
C7199 C7198 1.372 . S
C7199 C7200 1.400 . S
C7199 C7204 1.490 . S
C7200 H7190 0.930 . S
C7200 C7199 1.400 . S
C7200 C7203 1.386 . S
H7201 C7217 0.930 . S
H7202 C7218 0.931 . S
C7203 H7191 0.929 . S
C7203 C7197 1.390 . S
C7203 C7200 1.386 . S
C7204 C7199 1.490 . S
C7204 C7206 1.395 . S
C7204 C7207 1.403 . S
H7205 C7211 0.930 . S
C7206 H7192 0.930 . S
C7206 C7204 1.395 . S
C7206 C7209 1.403 . S
C7207 C7204 1.403 . S
C7207 C7208 1.524 . S
C7207 C7211 1.400 . S
C7208 H7193 0.960 . S
C7208 H7194 0.960 . S
C7208 H7195 0.960 . S
C7208 C7207 1.524 . S
C7209 C7206 1.403 . S
C7209 C7210 1.392 . S
C7209 C7213 1.495 . S
C7210 C7209 1.392 . S
C7210 C7211 1.385 . S
C7210 C7212 1.478 . S
C7211 H7205 0.930 . S
C7211 C7207 1.400 . S
C7211 C7210 1.385 . S
C7212 C7210 1.478 . S
C7212 C7214 1.381 . S
C7212 C7218 1.383 . S
C7213 C7209 1.495 . S
C7213 H7219 0.959 . S
C7213 H7220 0.961 . S
C7213 H7221 0.960 . S
C7214 C7212 1.381 . S
C7214 C7215 1.394 . S
C7214 H7222 0.930 . S
C7215 C7214 1.394 . S
C7215 C7216 1.383 . S
C7215 H7223 0.929 . S
C7216 C7215 1.383 . S
C7216 C7217 1.377 . S
C7217 H7201 0.930 . S
C7217 C7216 1.377 . S
C7217 C7218 1.379 . S
C7218 H7202 0.931 . S
C7218 C7212 1.383 . S
C7218 C7217 1.379 . S
H7219 C7213 0.959 . S
H7220 C7213 0.961 . S
H7221 C7213 0.960 . S
H7222 C7214 0.930 . S
H7223 C7215 0.929 . S
H7224 C7232 0.929 . S
H7225 C7234 0.943 1_545 S
H7226 C7236 0.930 . S
H7227 C7239 0.929 . S
H7228 C7242 0.930 . S
H7229 C7244 0.917 1_545 S
H7230 C7244 1.042 . S
H7231 C7244 1.081 . S
C7232 H7224 0.929 . S
C7232 C7233 1.377 . S
C7232 C7234 1.384 . S
C7233 C7232 1.377 . S
C7233 C7239 1.390 . S
C7234 H7225 0.943 1_565 S
C7234 C7232 1.384 . S
C7234 C7235 1.372 . S
C7235 C7234 1.372 . S
C7235 C7236 1.400 . S
C7235 C7240 1.490 1_565 S
C7236 H7226 0.930 . S
C7236 C7235 1.400 . S
C7236 C7239 1.386 . S
H7237 C7253 0.930 . S
H7238 C7254 0.931 . S
C7239 H7227 0.929 . S
C7239 C7233 1.390 . S
C7239 C7236 1.386 . S
C7240 C7235 1.490 1_545 S
C7240 C7242 1.395 . S
C7240 C7243 1.403 . S
H7241 C7247 0.930 . S
C7242 H7228 0.930 . S
C7242 C7240 1.395 . S
C7242 C7245 1.403 . S
C7243 C7240 1.403 . S
C7243 C7244 1.393 1_545 S
C7243 C7247 1.400 . S
C7244 H7229 0.917 1_565 S
C7244 H7230 1.042 . S
C7244 H7231 1.081 . S
C7244 C7243 1.393 1_565 S
C7245 C7242 1.403 . S
C7245 C7246 1.392 . S
C7245 C7249 1.495 . S
C7246 C7245 1.392 . S
C7246 C7247 1.385 . S
C7246 C7248 1.478 . S
C7247 H7241 0.930 . S
C7247 C7243 1.400 . S
C7247 C7246 1.385 . S
C7248 C7246 1.478 . S
C7248 C7250 1.381 . S
C7248 C7254 1.383 . S
C7249 C7245 1.495 . S
C7249 H7255 0.959 . S
C7249 H7256 0.961 . S
C7249 H7257 0.960 . S
C7250 C7248 1.381 . S
C7250 C7251 1.394 . S
C7250 H7258 0.930 . S
C7251 C7250 1.394 . S
C7251 C7252 1.383 . S
C7251 H7259 0.929 . S
C7252 C7251 1.383 . S
C7252 C7253 1.377 . S
C7253 H7237 0.930 . S
C7253 C7252 1.377 . S
C7253 C7254 1.379 . S
C7254 H7238 0.931 . S
C7254 C7248 1.383 . S
C7254 C7253 1.379 . S
H7255 C7249 0.959 . S
H7256 C7249 0.961 . S
H7257 C7249 0.960 . S
H7258 C7250 0.930 . S
H7259 C7251 0.929 . S
H7260 C7268 0.929 . S
H7261 C7270 0.930 1_565 S
H7262 C7272 0.930 . S
H7263 C7275 0.929 . S
H7264 C7278 0.930 . S
H7265 C7280 0.960 . S
H7266 C7280 0.960 . S
H7267 C7280 1.082 . S
C7268 H7260 0.929 . S
C7268 C7269 1.377 . S
C7268 C7270 1.384 . S
C7269 C7268 1.377 . S
C7269 C7275 1.390 . S
C7270 H7261 0.930 1_545 S
C7270 C7268 1.384 . S
C7270 C7271 1.372 . S
C7271 C7270 1.372 . S
C7271 C7272 1.400 . S
C7271 C7276 1.490 1_545 S
C7272 H7262 0.930 . S
C7272 C7271 1.400 . S
C7272 C7275 1.386 . S
H7273 C7289 0.930 . S
H7274 C7290 0.931 . S
C7275 H7263 0.929 . S
C7275 C7269 1.390 . S
C7275 C7272 1.386 . S
C7276 C7271 1.490 1_565 S
C7276 C7278 1.395 . S
C7276 C7279 1.403 . S
H7277 C7283 0.930 . S
C7278 H7264 0.930 . S
C7278 C7276 1.395 . S
C7278 C7281 1.403 . S
C7279 C7276 1.403 . S
C7279 C7280 1.524 . S
C7279 C7283 1.400 . S
C7280 H7265 0.960 . S
C7280 H7266 0.960 . S
C7280 H7267 1.082 . S
C7280 C7279 1.524 . S
C7281 C7278 1.403 . S
C7281 C7282 1.392 . S
C7281 C7285 1.495 . S
C7282 C7281 1.392 . S
C7282 C7283 1.385 . S
C7282 C7284 1.478 . S
C7283 H7277 0.930 . S
C7283 C7279 1.400 . S
C7283 C7282 1.385 . S
C7284 C7282 1.478 . S
C7284 C7286 1.381 . S
C7284 C7290 1.383 . S
C7285 C7281 1.495 . S
C7285 H7291 0.959 . S
C7285 H7292 0.961 . S
C7285 H7293 0.960 . S
C7286 C7284 1.381 . S
C7286 C7287 1.394 . S
C7286 H7294 0.930 . S
C7287 C7286 1.394 . S
C7287 C7288 1.383 . S
C7287 H7295 0.929 . S
C7288 C7287 1.383 . S
C7288 C7289 1.377 . S
C7289 H7273 0.930 . S
C7289 C7288 1.377 . S
C7289 C7290 1.379 . S
C7290 H7274 0.931 . S
C7290 C7284 1.383 . S
C7290 C7289 1.379 . S
H7291 C7285 0.959 . S
H7292 C7285 0.961 . S
H7293 C7285 0.960 . S
H7294 C7286 0.930 . S
H7295 C7287 0.929 . S
H7296 C7304 0.929 . S
H7297 C7306 0.930 . S
H7298 C7308 0.930 . S
H7299 C7311 0.929 . S
H7300 C7314 0.930 . S
H7301 C7316 0.960 . S
H7302 C7316 0.960 . S
H7303 C7316 0.960 . S
C7304 H7296 0.929 . S
C7304 C7305 1.377 . S
C7304 C7306 1.384 . S
C7305 C7304 1.377 . S
C7305 C7311 1.390 . S
C7306 H7297 0.930 . S
C7306 C7304 1.384 . S
C7306 C7307 1.372 . S
C7307 C7306 1.372 . S
C7307 C7308 1.400 . S
C7307 C7312 1.490 . S
C7308 H7298 0.930 . S
C7308 C7307 1.400 . S
C7308 C7311 1.386 . S
H7309 C7325 0.930 . S
H7310 C7326 0.931 . S
C7311 H7299 0.929 . S
C7311 C7305 1.390 . S
C7311 C7308 1.386 . S
C7312 C7307 1.490 . S
C7312 C7314 1.395 . S
C7312 C7315 1.403 . S
H7313 C7319 0.930 . S
C7314 H7300 0.930 . S
C7314 C7312 1.395 . S
C7314 C7317 1.403 . S
C7315 C7312 1.403 . S
C7315 C7316 1.524 . S
C7315 C7319 1.400 . S
C7316 H7301 0.960 . S
C7316 H7302 0.960 . S
C7316 H7303 0.960 . S
C7316 C7315 1.524 . S
C7317 C7314 1.403 . S
C7317 C7318 1.392 . S
C7317 C7321 1.495 . S
C7318 C7317 1.392 . S
C7318 C7319 1.385 . S
C7318 C7320 1.478 . S
C7319 H7313 0.930 . S
C7319 C7315 1.400 . S
C7319 C7318 1.385 . S
C7320 C7318 1.478 . S
C7320 C7322 1.381 . S
C7320 C7326 1.383 . S
C7321 C7317 1.495 . S
C7321 H7327 0.959 . S
C7321 H7328 0.961 . S
C7321 H7329 0.960 . S
C7322 C7320 1.381 . S
C7322 C7323 1.394 . S
C7322 H7330 0.930 . S
C7323 C7322 1.394 . S
C7323 C7324 1.383 . S
C7323 H7331 0.929 . S
C7324 C7323 1.383 . S
C7324 C7325 1.377 . S
C7325 H7309 0.930 . S
C7325 C7324 1.377 . S
C7325 C7326 1.379 . S
C7326 H7310 0.931 . S
C7326 C7320 1.383 . S
C7326 C7325 1.379 . S
H7327 C7321 0.959 . S
H7328 C7321 0.961 . S
H7329 C7321 0.960 . S
H7330 C7322 0.930 . S
H7331 C7323 0.929 . S
H7332 C7340 0.929 . S
H7333 C7342 0.930 . S
H7334 C7344 0.930 . S
H7335 C7347 0.929 . S
H7336 C7350 0.930 . S
H7337 C7352 0.960 . S
H7338 C7352 0.960 . S
H7339 C7352 0.960 . S
C7340 H7332 0.929 . S
C7340 C7341 1.377 . S
C7340 C7342 1.384 . S
C7341 C7340 1.377 . S
C7341 C7347 1.390 . S
C7342 H7333 0.930 . S
C7342 C7340 1.384 . S
C7342 C7343 1.372 . S
C7343 C7342 1.372 . S
C7343 C7344 1.400 . S
C7343 C7348 1.490 . S
C7344 H7334 0.930 . S
C7344 C7343 1.400 . S
C7344 C7347 1.386 . S
H7345 C7361 0.930 . S
H7346 C7362 0.931 . S
C7347 H7335 0.929 . S
C7347 C7341 1.390 . S
C7347 C7344 1.386 . S
C7348 C7343 1.490 . S
C7348 C7350 1.395 . S
C7348 C7351 1.403 . S
H7349 C7355 0.930 . S
C7350 H7336 0.930 . S
C7350 C7348 1.395 . S
C7350 C7353 1.403 . S
C7351 C7348 1.403 . S
C7351 C7352 1.524 . S
C7351 C7355 1.400 . S
C7352 H7337 0.960 . S
C7352 H7338 0.960 . S
C7352 H7339 0.960 . S
C7352 C7351 1.524 . S
C7353 C7350 1.403 . S
C7353 C7354 1.392 . S
C7353 C7357 1.495 . S
C7354 C7353 1.392 . S
C7354 C7355 1.385 . S
C7354 C7356 1.478 . S
C7355 H7349 0.930 . S
C7355 C7351 1.400 . S
C7355 C7354 1.385 . S
C7356 C7354 1.478 . S
C7356 C7358 1.381 . S
C7356 C7362 1.383 . S
C7357 C7353 1.495 . S
C7357 H7363 0.959 . S
C7357 H7364 0.961 . S
C7357 H7365 0.960 . S
C7358 C7356 1.381 . S
C7358 C7359 1.394 . S
C7358 H7366 0.930 . S
C7359 C7358 1.394 . S
C7359 C7360 1.383 . S
C7359 H7367 0.929 . S
C7360 C7359 1.383 . S
C7360 C7361 1.377 . S
C7361 H7345 0.930 . S
C7361 C7360 1.377 . S
C7361 C7362 1.379 . S
C7362 H7346 0.931 . S
C7362 C7356 1.383 . S
C7362 C7361 1.379 . S
H7363 C7357 0.959 . S
H7364 C7357 0.961 . S
H7365 C7357 0.960 . S
H7366 C7358 0.930 . S
H7367 C7359 0.929 . S
H7368 C7376 0.929 . S
H7369 C7378 0.930 . S
H7370 C7380 0.930 . S
H7371 C7383 0.929 . S
H7372 C7386 0.930 . S
H7373 C7388 0.960 . S
H7374 C7388 0.960 . S
H7375 C7388 0.960 . S
C7376 H7368 0.929 . S
C7376 C7377 1.377 . S
C7376 C7378 1.384 . S
C7377 C7376 1.377 . S
C7377 C7383 1.390 . S
C7378 H7369 0.930 . S
C7378 C7376 1.384 . S
C7378 C7379 1.372 . S
C7379 C7378 1.372 . S
C7379 C7380 1.400 . S
C7379 C7384 1.490 . S
C7380 H7370 0.930 . S
C7380 C7379 1.400 . S
C7380 C7383 1.386 . S
H7381 C7397 0.930 . S
H7382 C7398 0.931 . S
C7383 H7371 0.929 . S
C7383 C7377 1.390 . S
C7383 C7380 1.386 . S
C7384 C7379 1.490 . S
C7384 C7386 1.395 . S
C7384 C7387 1.403 . S
H7385 C7391 0.930 . S
C7386 H7372 0.930 . S
C7386 C7384 1.395 . S
C7386 C7389 1.403 . S
C7387 C7384 1.403 . S
C7387 C7388 1.524 . S
C7387 C7391 1.400 . S
C7388 H7373 0.960 . S
C7388 H7374 0.960 . S
C7388 H7375 0.960 . S
C7388 C7387 1.524 . S
C7389 C7386 1.403 . S
C7389 C7390 1.392 . S
C7389 C7393 1.495 . S
C7390 C7389 1.392 . S
C7390 C7391 1.385 . S
C7390 C7392 1.478 . S
C7391 H7385 0.930 . S
C7391 C7387 1.400 . S
C7391 C7390 1.385 . S
C7392 C7390 1.478 . S
C7392 C7394 1.381 . S
C7392 C7398 1.383 . S
C7393 C7389 1.495 . S
C7393 H7399 0.959 . S
C7393 H7400 0.961 . S
C7393 H7401 0.960 . S
C7394 C7392 1.381 . S
C7394 C7395 1.394 . S
C7394 H7402 0.930 . S
C7395 C7394 1.394 . S
C7395 C7396 1.383 . S
C7395 H7403 0.929 . S
C7396 C7395 1.383 . S
C7396 C7397 1.377 . S
C7397 H7381 0.930 . S
C7397 C7396 1.377 . S
C7397 C7398 1.379 . S
C7398 H7382 0.931 . S
C7398 C7392 1.383 . S
C7398 C7397 1.379 . S
H7399 C7393 0.959 . S
H7400 C7393 0.961 . S
H7401 C7393 0.960 . S
H7402 C7394 0.930 . S
H7403 C7395 0.929 . S
H7404 C7412 0.929 . S
H7405 C7414 0.930 . S
H7406 C7416 0.930 . S
H7407 C7419 0.929 . S
H7408 C7422 0.930 . S
H7409 C7424 0.960 . S
H7410 C7424 0.960 . S
H7411 C7424 0.960 . S
C7412 H7404 0.929 . S
C7412 C7413 1.377 . S
C7412 C7414 1.384 . S
C7413 C7412 1.377 . S
C7413 C7419 1.390 . S
C7414 H7405 0.930 . S
C7414 C7412 1.384 . S
C7414 C7415 1.372 . S
C7415 C7414 1.372 . S
C7415 C7416 1.400 . S
C7415 C7420 1.490 . S
C7416 H7406 0.930 . S
C7416 C7415 1.400 . S
C7416 C7419 1.386 . S
H7417 C7433 0.930 . S
H7418 C7434 0.931 . S
C7419 H7407 0.929 . S
C7419 C7413 1.390 . S
C7419 C7416 1.386 . S
C7420 C7415 1.490 . S
C7420 C7422 1.395 . S
C7420 C7423 1.403 . S
H7421 C7427 0.930 . S
C7422 H7408 0.930 . S
C7422 C7420 1.395 . S
C7422 C7425 1.403 . S
C7423 C7420 1.403 . S
C7423 C7424 1.524 . S
C7423 C7427 1.400 . S
C7424 H7409 0.960 . S
C7424 H7410 0.960 . S
C7424 H7411 0.960 . S
C7424 C7423 1.524 . S
C7425 C7422 1.403 . S
C7425 C7426 1.392 . S
C7425 C7429 1.495 . S
C7426 C7425 1.392 . S
C7426 C7427 1.385 . S
C7426 C7428 1.478 . S
C7427 H7421 0.930 . S
C7427 C7423 1.400 . S
C7427 C7426 1.385 . S
C7428 C7426 1.478 . S
C7428 C7430 1.381 . S
C7428 C7434 1.383 . S
C7429 C7425 1.495 . S
C7429 H7435 0.959 . S
C7429 H7436 0.961 . S
C7429 H7437 0.960 . S
C7430 C7428 1.381 . S
C7430 C7431 1.394 . S
C7430 H7438 0.930 . S
C7431 C7430 1.394 . S
C7431 C7432 1.383 . S
C7431 H7439 0.929 . S
C7432 C7431 1.383 . S
C7432 C7433 1.377 . S
C7433 H7417 0.930 . S
C7433 C7432 1.377 . S
C7433 C7434 1.379 . S
C7434 H7418 0.931 . S
C7434 C7428 1.383 . S
C7434 C7433 1.379 . S
H7435 C7429 0.959 . S
H7436 C7429 0.961 . S
H7437 C7429 0.960 . S
H7438 C7430 0.930 . S
H7439 C7431 0.929 . S
H7440 C7448 0.929 . S
H7441 C7450 0.930 . S
H7442 C7452 0.930 . S
H7443 C7455 0.929 . S
H7444 C7458 0.930 . S
H7445 C7460 0.960 . S
H7446 C7460 0.960 . S
H7447 C7460 0.960 . S
C7448 H7440 0.929 . S
C7448 C7449 1.377 . S
C7448 C7450 1.384 . S
C7449 C7448 1.377 . S
C7449 C7455 1.390 . S
C7450 H7441 0.930 . S
C7450 C7448 1.384 . S
C7450 C7451 1.372 . S
C7451 C7450 1.372 . S
C7451 C7452 1.400 . S
C7451 C7456 1.490 . S
C7452 H7442 0.930 . S
C7452 C7451 1.400 . S
C7452 C7455 1.386 . S
H7453 C7469 0.930 . S
H7454 C7470 0.931 . S
C7455 H7443 0.929 . S
C7455 C7449 1.390 . S
C7455 C7452 1.386 . S
C7456 C7451 1.490 . S
C7456 C7458 1.395 . S
C7456 C7459 1.403 . S
H7457 C7463 0.930 . S
C7458 H7444 0.930 . S
C7458 C7456 1.395 . S
C7458 C7461 1.403 . S
C7459 C7456 1.403 . S
C7459 C7460 1.524 . S
C7459 C7463 1.400 . S
C7460 H7445 0.960 . S
C7460 H7446 0.960 . S
C7460 H7447 0.960 . S
C7460 C7459 1.524 . S
C7461 C7458 1.403 . S
C7461 C7462 1.392 . S
C7461 C7465 1.495 . S
C7462 C7461 1.392 . S
C7462 C7463 1.385 . S
C7462 C7464 1.478 . S
C7463 H7457 0.930 . S
C7463 C7459 1.400 . S
C7463 C7462 1.385 . S
C7464 C7462 1.478 . S
C7464 C7466 1.381 . S
C7464 C7470 1.383 . S
C7465 C7461 1.495 . S
C7465 H7471 0.959 . S
C7465 H7472 0.961 . S
C7465 H7473 0.960 . S
C7466 C7464 1.381 . S
C7466 C7467 1.394 . S
C7466 H7474 0.930 . S
C7467 C7466 1.394 . S
C7467 C7468 1.383 . S
C7467 H7475 0.929 . S
C7468 C7467 1.383 . S
C7468 C7469 1.377 . S
C7469 H7453 0.930 . S
C7469 C7468 1.377 . S
C7469 C7470 1.379 . S
C7470 H7454 0.931 . S
C7470 C7464 1.383 . S
C7470 C7469 1.379 . S
H7471 C7465 0.959 . S
H7472 C7465 0.961 . S
H7473 C7465 0.960 . S
H7474 C7466 0.930 . S
H7475 C7467 0.929 . S
H7476 C7484 0.929 . S
H7477 C7486 0.930 . S
H7478 C7488 0.930 . S
H7479 C7491 0.929 . S
H7480 C7494 0.930 . S
H7481 C7496 0.960 . S
H7482 C7496 0.960 . S
H7483 C7496 0.960 . S
C7484 H7476 0.929 . S
C7484 C7485 1.377 . S
C7484 C7486 1.384 . S
C7485 C7484 1.377 . S
C7485 C7491 1.390 . S
C7486 H7477 0.930 . S
C7486 C7484 1.384 . S
C7486 C7487 1.372 . S
C7487 C7486 1.372 . S
C7487 C7488 1.400 . S
C7487 C7492 1.490 . S
C7488 H7478 0.930 . S
C7488 C7487 1.400 . S
C7488 C7491 1.386 . S
H7489 C7505 0.930 . S
H7490 C7506 0.931 . S
C7491 H7479 0.929 . S
C7491 C7485 1.390 . S
C7491 C7488 1.386 . S
C7492 C7487 1.490 . S
C7492 C7494 1.395 . S
C7492 C7495 1.403 . S
H7493 C7499 0.930 . S
C7494 H7480 0.930 . S
C7494 C7492 1.395 . S
C7494 C7497 1.403 . S
C7495 C7492 1.403 . S
C7495 C7496 1.524 . S
C7495 C7499 1.400 . S
C7496 H7481 0.960 . S
C7496 H7482 0.960 . S
C7496 H7483 0.960 . S
C7496 C7495 1.524 . S
C7497 C7494 1.403 . S
C7497 C7498 1.392 . S
C7497 C7501 1.495 . S
C7498 C7497 1.392 . S
C7498 C7499 1.385 . S
C7498 C7500 1.478 . S
C7499 H7493 0.930 . S
C7499 C7495 1.400 . S
C7499 C7498 1.385 . S
C7500 C7498 1.478 . S
C7500 C7502 1.381 . S
C7500 C7506 1.383 . S
C7501 C7497 1.495 . S
C7501 H7507 0.959 . S
C7501 H7508 0.961 . S
C7501 H7509 0.960 . S
C7502 C7500 1.381 . S
C7502 C7503 1.394 . S
C7502 H7510 0.930 . S
C7503 C7502 1.394 . S
C7503 C7504 1.383 . S
C7503 H7511 0.929 . S
C7504 C7503 1.383 . S
C7504 C7505 1.377 . S
C7505 H7489 0.930 . S
C7505 C7504 1.377 . S
C7505 C7506 1.379 . S
C7506 H7490 0.931 . S
C7506 C7500 1.383 . S
C7506 C7505 1.379 . S
H7507 C7501 0.959 . S
H7508 C7501 0.961 . S
H7509 C7501 0.960 . S
H7510 C7502 0.930 . S
H7511 C7503 0.929 . S
H7512 C7520 0.929 . S
H7513 C7522 0.930 . S
H7514 C7524 0.930 . S
H7515 C7527 0.929 . S
H7516 C7530 0.930 . S
H7517 C7532 0.960 . S
H7518 C7532 0.960 . S
H7519 C7532 0.960 . S
C7520 H7512 0.929 . S
C7520 C7521 1.377 . S
C7520 C7522 1.384 . S
C7521 C7520 1.377 . S
C7521 C7527 1.390 . S
C7522 H7513 0.930 . S
C7522 C7520 1.384 . S
C7522 C7523 1.372 . S
C7523 C7522 1.372 . S
C7523 C7524 1.400 . S
C7523 C7528 1.490 . S
C7524 H7514 0.930 . S
C7524 C7523 1.400 . S
C7524 C7527 1.386 . S
H7525 C7541 0.930 . S
H7526 C7542 0.931 . S
C7527 H7515 0.929 . S
C7527 C7521 1.390 . S
C7527 C7524 1.386 . S
C7528 C7523 1.490 . S
C7528 C7530 1.395 . S
C7528 C7531 1.403 . S
H7529 C7535 0.930 . S
C7530 H7516 0.930 . S
C7530 C7528 1.395 . S
C7530 C7533 1.403 . S
C7531 C7528 1.403 . S
C7531 C7532 1.524 . S
C7531 C7535 1.400 . S
C7532 H7517 0.960 . S
C7532 H7518 0.960 . S
C7532 H7519 0.960 . S
C7532 C7531 1.524 . S
C7533 C7530 1.403 . S
C7533 C7534 1.392 . S
C7533 C7537 1.495 . S
C7534 C7533 1.392 . S
C7534 C7535 1.385 . S
C7534 C7536 1.478 . S
C7535 H7529 0.930 . S
C7535 C7531 1.400 . S
C7535 C7534 1.385 . S
C7536 C7534 1.478 . S
C7536 C7538 1.381 . S
C7536 C7542 1.383 . S
C7537 C7533 1.495 . S
C7537 H7543 0.959 . S
C7537 H7544 0.961 . S
C7537 H7545 0.960 . S
C7538 C7536 1.381 . S
C7538 C7539 1.394 . S
C7538 H7546 0.930 . S
C7539 C7538 1.394 . S
C7539 C7540 1.383 . S
C7539 H7547 0.929 . S
C7540 C7539 1.383 . S
C7540 C7541 1.377 . S
C7541 H7525 0.930 . S
C7541 C7540 1.377 . S
C7541 C7542 1.379 . S
C7542 H7526 0.931 . S
C7542 C7536 1.383 . S
C7542 C7541 1.379 . S
H7543 C7537 0.959 . S
H7544 C7537 0.961 . S
H7545 C7537 0.960 . S
H7546 C7538 0.930 . S
H7547 C7539 0.929 . S
H7548 C7556 0.929 . S
H7549 C7558 0.930 . S
H7550 C7560 0.930 . S
H7551 C7563 0.929 . S
H7552 C7566 0.930 . S
H7553 C7568 0.960 . S
H7554 C7568 0.960 . S
H7555 C7568 0.960 . S
C7556 H7548 0.929 . S
C7556 C7557 1.377 . S
C7556 C7558 1.384 . S
C7557 C7556 1.377 . S
C7557 C7563 1.390 . S
C7558 H7549 0.930 . S
C7558 C7556 1.384 . S
C7558 C7559 1.372 . S
C7559 C7558 1.372 . S
C7559 C7560 1.400 . S
C7559 C7564 1.490 . S
C7560 H7550 0.930 . S
C7560 C7559 1.400 . S
C7560 C7563 1.386 . S
H7561 C7577 0.930 . S
H7562 C7578 0.931 . S
C7563 H7551 0.929 . S
C7563 C7557 1.390 . S
C7563 C7560 1.386 . S
C7564 C7559 1.490 . S
C7564 C7566 1.395 . S
C7564 C7567 1.403 . S
H7565 C7571 0.930 . S
C7566 H7552 0.930 . S
C7566 C7564 1.395 . S
C7566 C7569 1.403 . S
C7567 C7564 1.403 . S
C7567 C7568 1.524 . S
C7567 C7571 1.400 . S
C7568 H7553 0.960 . S
C7568 H7554 0.960 . S
C7568 H7555 0.960 . S
C7568 C7567 1.524 . S
C7569 C7566 1.403 . S
C7569 C7570 1.392 . S
C7569 C7573 1.495 . S
C7570 C7569 1.392 . S
C7570 C7571 1.385 . S
C7570 C7572 1.478 . S
C7571 H7565 0.930 . S
C7571 C7567 1.400 . S
C7571 C7570 1.385 . S
C7572 C7570 1.478 . S
C7572 C7574 1.381 . S
C7572 C7578 1.383 . S
C7573 C7569 1.495 . S
C7573 H7579 0.959 . S
C7573 H7580 0.961 . S
C7573 H7581 0.960 . S
C7574 C7572 1.381 . S
C7574 C7575 1.394 . S
C7574 H7582 0.930 . S
C7575 C7574 1.394 . S
C7575 C7576 1.383 . S
C7575 H7583 0.929 . S
C7576 C7575 1.383 . S
C7576 C7577 1.377 . S
C7577 H7561 0.930 . S
C7577 C7576 1.377 . S
C7577 C7578 1.379 . S
C7578 H7562 0.931 . S
C7578 C7572 1.383 . S
C7578 C7577 1.379 . S
H7579 C7573 0.959 . S
H7580 C7573 0.961 . S
H7581 C7573 0.960 . S
H7582 C7574 0.930 . S
H7583 C7575 0.929 . S
H7584 C7592 0.929 . S
H7585 C7594 0.930 . S
H7586 C7596 0.930 . S
H7587 C7599 0.929 . S
H7588 C7602 0.930 . S
H7589 C7604 0.960 . S
H7590 C7604 0.960 . S
H7591 C7604 0.960 . S
C7592 H7584 0.929 . S
C7592 C7593 1.377 . S
C7592 C7594 1.384 . S
C7593 C7592 1.377 . S
C7593 C7599 1.390 . S
C7594 H7585 0.930 . S
C7594 C7592 1.384 . S
C7594 C7595 1.372 . S
C7595 C7594 1.372 . S
C7595 C7596 1.400 . S
C7595 C7600 1.490 . S
C7596 H7586 0.930 . S
C7596 C7595 1.400 . S
C7596 C7599 1.386 . S
H7597 C7613 0.930 . S
H7598 C7614 0.931 . S
C7599 H7587 0.929 . S
C7599 C7593 1.390 . S
C7599 C7596 1.386 . S
C7600 C7595 1.490 . S
C7600 C7602 1.395 . S
C7600 C7603 1.403 . S
H7601 C7607 0.930 . S
C7602 H7588 0.930 . S
C7602 C7600 1.395 . S
C7602 C7605 1.403 . S
C7603 C7600 1.403 . S
C7603 C7604 1.524 . S
C7603 C7607 1.400 . S
C7604 H7589 0.960 . S
C7604 H7590 0.960 . S
C7604 H7591 0.960 . S
C7604 C7603 1.524 . S
C7605 C7602 1.403 . S
C7605 C7606 1.392 . S
C7605 C7609 1.495 . S
C7606 C7605 1.392 . S
C7606 C7607 1.385 . S
C7606 C7608 1.478 . S
C7607 H7601 0.930 . S
C7607 C7603 1.400 . S
C7607 C7606 1.385 . S
C7608 C7606 1.478 . S
C7608 C7610 1.381 . S
C7608 C7614 1.383 . S
C7609 C7605 1.495 . S
C7609 H7615 0.959 . S
C7609 H7616 0.961 . S
C7609 H7617 0.960 . S
C7610 C7608 1.381 . S
C7610 C7611 1.394 . S
C7610 H7618 0.930 . S
C7611 C7610 1.394 . S
C7611 C7612 1.383 . S
C7611 H7619 0.929 . S
C7612 C7611 1.383 . S
C7612 C7613 1.377 . S
C7613 H7597 0.930 . S
C7613 C7612 1.377 . S
C7613 C7614 1.379 . S
C7614 H7598 0.931 . S
C7614 C7608 1.383 . S
C7614 C7613 1.379 . S
H7615 C7609 0.959 . S
H7616 C7609 0.961 . S
H7617 C7609 0.960 . S
H7618 C7610 0.930 . S
H7619 C7611 0.929 . S
H7620 C7628 0.929 . S
H7621 C7630 0.930 . S
H7622 C7632 0.930 . S
H7623 C7635 0.929 . S
H7624 C7638 0.930 . S
H7625 C7640 0.960 . S
H7626 C7640 0.960 . S
H7627 C7640 0.960 . S
C7628 H7620 0.929 . S
C7628 C7629 1.377 . S
C7628 C7630 1.384 . S
C7629 C7628 1.377 . S
C7629 C7635 1.390 . S
C7630 H7621 0.930 . S
C7630 C7628 1.384 . S
C7630 C7631 1.372 . S
C7631 C7630 1.372 . S
C7631 C7632 1.400 . S
C7631 C7636 1.490 . S
C7632 H7622 0.930 . S
C7632 C7631 1.400 . S
C7632 C7635 1.386 . S
H7633 C7649 0.930 . S
H7634 C7650 0.931 . S
C7635 H7623 0.929 . S
C7635 C7629 1.390 . S
C7635 C7632 1.386 . S
C7636 C7631 1.490 . S
C7636 C7638 1.395 . S
C7636 C7639 1.403 . S
H7637 C7643 0.930 . S
C7638 H7624 0.930 . S
C7638 C7636 1.395 . S
C7638 C7641 1.403 . S
C7639 C7636 1.403 . S
C7639 C7640 1.524 . S
C7639 C7643 1.400 . S
C7640 H7625 0.960 . S
C7640 H7626 0.960 . S
C7640 H7627 0.960 . S
C7640 C7639 1.524 . S
C7641 C7638 1.403 . S
C7641 C7642 1.392 . S
C7641 C7645 1.495 . S
C7642 C7641 1.392 . S
C7642 C7643 1.385 . S
C7642 C7644 1.478 . S
C7643 H7637 0.930 . S
C7643 C7639 1.400 . S
C7643 C7642 1.385 . S
C7644 C7642 1.478 . S
C7644 C7646 1.381 . S
C7644 C7650 1.383 . S
C7645 C7641 1.495 . S
C7645 H7651 0.959 . S
C7645 H7652 0.961 . S
C7645 H7653 0.960 . S
C7646 C7644 1.381 . S
C7646 C7647 1.394 . S
C7646 H7654 0.930 . S
C7647 C7646 1.394 . S
C7647 C7648 1.383 . S
C7647 H7655 0.929 . S
C7648 C7647 1.383 . S
C7648 C7649 1.377 . S
C7649 H7633 0.930 . S
C7649 C7648 1.377 . S
C7649 C7650 1.379 . S
C7650 H7634 0.931 . S
C7650 C7644 1.383 . S
C7650 C7649 1.379 . S
H7651 C7645 0.959 . S
H7652 C7645 0.961 . S
H7653 C7645 0.960 . S
H7654 C7646 0.930 . S
H7655 C7647 0.929 . S
H7656 C7664 0.929 . S
H7657 C7666 0.930 . S
H7658 C7668 0.930 . S
H7659 C7671 0.929 . S
H7660 C7674 0.930 . S
H7661 C7676 0.960 . S
H7662 C7676 0.960 . S
H7663 C7676 0.960 . S
C7664 H7656 0.929 . S
C7664 C7665 1.377 . S
C7664 C7666 1.384 . S
C7665 C7664 1.377 . S
C7665 C7671 1.390 . S
C7666 H7657 0.930 . S
C7666 C7664 1.384 . S
C7666 C7667 1.372 . S
C7667 C7666 1.372 . S
C7667 C7668 1.400 . S
C7667 C7672 1.490 . S
C7668 H7658 0.930 . S
C7668 C7667 1.400 . S
C7668 C7671 1.386 . S
H7669 C7685 0.930 . S
H7670 C7686 0.931 . S
C7671 H7659 0.929 . S
C7671 C7665 1.390 . S
C7671 C7668 1.386 . S
C7672 C7667 1.490 . S
C7672 C7674 1.395 . S
C7672 C7675 1.403 . S
H7673 C7679 0.930 . S
C7674 H7660 0.930 . S
C7674 C7672 1.395 . S
C7674 C7677 1.403 . S
C7675 C7672 1.403 . S
C7675 C7676 1.524 . S
C7675 C7679 1.400 . S
C7676 H7661 0.960 . S
C7676 H7662 0.960 . S
C7676 H7663 0.960 . S
C7676 C7675 1.524 . S
C7677 C7674 1.403 . S
C7677 C7678 1.392 . S
C7677 C7681 1.495 . S
C7678 C7677 1.392 . S
C7678 C7679 1.385 . S
C7678 C7680 1.478 . S
C7679 H7673 0.930 . S
C7679 C7675 1.400 . S
C7679 C7678 1.385 . S
C7680 C7678 1.478 . S
C7680 C7682 1.381 . S
C7680 C7686 1.383 . S
C7681 C7677 1.495 . S
C7681 H7687 0.959 . S
C7681 H7688 0.961 . S
C7681 H7689 0.960 . S
C7682 C7680 1.381 . S
C7682 C7683 1.394 . S
C7682 H7690 0.930 . S
C7683 C7682 1.394 . S
C7683 C7684 1.383 . S
C7683 H7691 0.929 . S
C7684 C7683 1.383 . S
C7684 C7685 1.377 . S
C7685 H7669 0.930 . S
C7685 C7684 1.377 . S
C7685 C7686 1.379 . S
C7686 H7670 0.931 . S
C7686 C7680 1.383 . S
C7686 C7685 1.379 . S
H7687 C7681 0.959 . S
H7688 C7681 0.961 . S
H7689 C7681 0.960 . S
H7690 C7682 0.930 . S
H7691 C7683 0.929 . S
H7692 C7700 0.929 . S
H7693 C7702 0.930 . S
H7694 C7704 0.930 . S
H7695 C7707 0.929 . S
H7696 C7710 0.930 . S
H7697 C7712 0.960 . S
H7698 C7712 0.960 . S
H7699 C7712 0.960 . S
C7700 H7692 0.929 . S
C7700 C7701 1.377 . S
C7700 C7702 1.384 . S
C7701 C7700 1.377 . S
C7701 C7707 1.390 . S
C7702 H7693 0.930 . S
C7702 C7700 1.384 . S
C7702 C7703 1.372 . S
C7703 C7702 1.372 . S
C7703 C7704 1.400 . S
C7703 C7708 1.490 . S
C7704 H7694 0.930 . S
C7704 C7703 1.400 . S
C7704 C7707 1.386 . S
H7705 C7721 0.930 . S
H7706 C7722 0.931 . S
C7707 H7695 0.929 . S
C7707 C7701 1.390 . S
C7707 C7704 1.386 . S
C7708 C7703 1.490 . S
C7708 C7710 1.395 . S
C7708 C7711 1.403 . S
H7709 C7715 0.930 . S
C7710 H7696 0.930 . S
C7710 C7708 1.395 . S
C7710 C7713 1.403 . S
C7711 C7708 1.403 . S
C7711 C7712 1.524 . S
C7711 C7715 1.400 . S
C7712 H7697 0.960 . S
C7712 H7698 0.960 . S
C7712 H7699 0.960 . S
C7712 C7711 1.524 . S
C7713 C7710 1.403 . S
C7713 C7714 1.392 . S
C7713 C7717 1.495 . S
C7714 C7713 1.392 . S
C7714 C7715 1.385 . S
C7714 C7716 1.478 . S
C7715 H7709 0.930 . S
C7715 C7711 1.400 . S
C7715 C7714 1.385 . S
C7716 C7714 1.478 . S
C7716 C7718 1.381 . S
C7716 C7722 1.383 . S
C7717 C7713 1.495 . S
C7717 H7723 0.959 . S
C7717 H7724 0.961 . S
C7717 H7725 0.960 . S
C7718 C7716 1.381 . S
C7718 C7719 1.394 . S
C7718 H7726 0.930 . S
C7719 C7718 1.394 . S
C7719 C7720 1.383 . S
C7719 H7727 0.929 . S
C7720 C7719 1.383 . S
C7720 C7721 1.377 . S
C7721 H7705 0.930 . S
C7721 C7720 1.377 . S
C7721 C7722 1.379 . S
C7722 H7706 0.931 . S
C7722 C7716 1.383 . S
C7722 C7721 1.379 . S
H7723 C7717 0.959 . S
H7724 C7717 0.961 . S
H7725 C7717 0.960 . S
H7726 C7718 0.930 . S
H7727 C7719 0.929 . S
H7728 C7736 0.929 . S
H7729 C7738 0.930 . S
H7730 C7740 0.930 . S
H7731 C7743 0.929 . S
H7732 C7746 0.930 . S
H7733 C7748 0.960 . S
H7734 C7748 0.960 . S
H7735 C7748 0.960 . S
C7736 H7728 0.929 . S
C7736 C7737 1.377 . S
C7736 C7738 1.384 . S
C7737 C7736 1.377 . S
C7737 C7743 1.390 . S
C7738 H7729 0.930 . S
C7738 C7736 1.384 . S
C7738 C7739 1.372 . S
C7739 C7738 1.372 . S
C7739 C7740 1.400 . S
C7739 C7744 1.490 . S
C7740 H7730 0.930 . S
C7740 C7739 1.400 . S
C7740 C7743 1.386 . S
H7741 C7757 0.930 . S
H7742 C7758 0.931 . S
C7743 H7731 0.929 . S
C7743 C7737 1.390 . S
C7743 C7740 1.386 . S
C7744 C7739 1.490 . S
C7744 C7746 1.395 . S
C7744 C7747 1.403 . S
H7745 C7751 0.930 . S
C7746 H7732 0.930 . S
C7746 C7744 1.395 . S
C7746 C7749 1.403 . S
C7747 C7744 1.403 . S
C7747 C7748 1.524 . S
C7747 C7751 1.400 . S
C7748 H7733 0.960 . S
C7748 H7734 0.960 . S
C7748 H7735 0.960 . S
C7748 C7747 1.524 . S
C7749 C7746 1.403 . S
C7749 C7750 1.392 . S
C7749 C7753 1.495 . S
C7750 C7749 1.392 . S
C7750 C7751 1.385 . S
C7750 C7752 1.478 . S
C7751 H7745 0.930 . S
C7751 C7747 1.400 . S
C7751 C7750 1.385 . S
C7752 C7750 1.478 . S
C7752 C7754 1.381 . S
C7752 C7758 1.383 . S
C7753 C7749 1.495 . S
C7753 H7759 0.959 . S
C7753 H7760 0.961 . S
C7753 H7761 0.960 . S
C7754 C7752 1.381 . S
C7754 C7755 1.394 . S
C7754 H7762 0.930 . S
C7755 C7754 1.394 . S
C7755 C7756 1.383 . S
C7755 H7763 0.929 . S
C7756 C7755 1.383 . S
C7756 C7757 1.377 . S
C7757 H7741 0.930 . S
C7757 C7756 1.377 . S
C7757 C7758 1.379 . S
C7758 H7742 0.931 . S
C7758 C7752 1.383 . S
C7758 C7757 1.379 . S
H7759 C7753 0.959 . S
H7760 C7753 0.961 . S
H7761 C7753 0.960 . S
H7762 C7754 0.930 . S
H7763 C7755 0.929 . S
H7764 C7772 0.929 . S
H7765 C7774 0.930 . S
H7766 C7776 0.930 . S
H7767 C7779 0.929 . S
H7768 C7782 0.930 . S
H7769 C7784 0.960 . S
H7770 C7784 0.960 . S
H7771 C7784 0.960 . S
C7772 H7764 0.929 . S
C7772 C7773 1.377 . S
C7772 C7774 1.384 . S
C7773 C7772 1.377 . S
C7773 C7779 1.390 . S
C7774 H7765 0.930 . S
C7774 C7772 1.384 . S
C7774 C7775 1.372 . S
C7775 C7774 1.372 . S
C7775 C7776 1.400 . S
C7775 C7780 1.490 . S
C7776 H7766 0.930 . S
C7776 C7775 1.400 . S
C7776 C7779 1.386 . S
H7777 C7793 0.930 . S
H7778 C7794 0.931 . S
C7779 H7767 0.929 . S
C7779 C7773 1.390 . S
C7779 C7776 1.386 . S
C7780 C7775 1.490 . S
C7780 C7782 1.395 . S
C7780 C7783 1.403 . S
H7781 C7787 0.930 . S
C7782 H7768 0.930 . S
C7782 C7780 1.395 . S
C7782 C7785 1.403 . S
C7783 C7780 1.403 . S
C7783 C7784 1.524 . S
C7783 C7787 1.400 . S
C7784 H7769 0.960 . S
C7784 H7770 0.960 . S
C7784 H7771 0.960 . S
C7784 C7783 1.524 . S
C7785 C7782 1.403 . S
C7785 C7786 1.392 . S
C7785 C7789 1.495 . S
C7786 C7785 1.392 . S
C7786 C7787 1.385 . S
C7786 C7788 1.478 . S
C7787 H7781 0.930 . S
C7787 C7783 1.400 . S
C7787 C7786 1.385 . S
C7788 C7786 1.478 . S
C7788 C7790 1.381 . S
C7788 C7794 1.383 . S
C7789 C7785 1.495 . S
C7789 H7795 0.959 . S
C7789 H7796 0.961 . S
C7789 H7797 0.960 . S
C7790 C7788 1.381 . S
C7790 C7791 1.394 . S
C7790 H7798 0.930 . S
C7791 C7790 1.394 . S
C7791 C7792 1.383 . S
C7791 H7799 0.929 . S
C7792 C7791 1.383 . S
C7792 C7793 1.377 . S
C7793 H7777 0.930 . S
C7793 C7792 1.377 . S
C7793 C7794 1.379 . S
C7794 H7778 0.931 . S
C7794 C7788 1.383 . S
C7794 C7793 1.379 . S
H7795 C7789 0.959 . S
H7796 C7789 0.961 . S
H7797 C7789 0.960 . S
H7798 C7790 0.930 . S
H7799 C7791 0.929 . S
H7800 C7808 0.929 . S
H7801 C7810 0.930 . S
H7802 C7812 0.930 . S
H7803 C7815 0.929 . S
H7804 C7818 0.930 . S
H7805 C7820 0.960 . S
H7806 C7820 0.960 . S
H7807 C7820 0.960 . S
C7808 H7800 0.929 . S
C7808 C7809 1.377 . S
C7808 C7810 1.384 . S
C7809 C7808 1.377 . S
C7809 C7815 1.390 . S
C7810 H7801 0.930 . S
C7810 C7808 1.384 . S
C7810 C7811 1.372 . S
C7811 C7810 1.372 . S
C7811 C7812 1.400 . S
C7811 C7816 1.490 . S
C7812 H7802 0.930 . S
C7812 C7811 1.400 . S
C7812 C7815 1.386 . S
H7813 C7829 0.930 . S
H7814 C7830 0.931 . S
C7815 H7803 0.929 . S
C7815 C7809 1.390 . S
C7815 C7812 1.386 . S
C7816 C7811 1.490 . S
C7816 C7818 1.395 . S
C7816 C7819 1.403 . S
H7817 C7823 0.930 . S
C7818 H7804 0.930 . S
C7818 C7816 1.395 . S
C7818 C7821 1.403 . S
C7819 C7816 1.403 . S
C7819 C7820 1.524 . S
C7819 C7823 1.400 . S
C7820 H7805 0.960 . S
C7820 H7806 0.960 . S
C7820 H7807 0.960 . S
C7820 C7819 1.524 . S
C7821 C7818 1.403 . S
C7821 C7822 1.392 . S
C7821 C7825 1.495 . S
C7822 C7821 1.392 . S
C7822 C7823 1.385 . S
C7822 C7824 1.478 . S
C7823 H7817 0.930 . S
C7823 C7819 1.400 . S
C7823 C7822 1.385 . S
C7824 C7822 1.478 . S
C7824 C7826 1.381 . S
C7824 C7830 1.383 . S
C7825 C7821 1.495 . S
C7825 H7831 0.959 . S
C7825 H7832 0.961 . S
C7825 H7833 0.960 . S
C7826 C7824 1.381 . S
C7826 C7827 1.394 . S
C7826 H7834 0.930 . S
C7827 C7826 1.394 . S
C7827 C7828 1.383 . S
C7827 H7835 0.929 . S
C7828 C7827 1.383 . S
C7828 C7829 1.377 . S
C7829 H7813 0.930 . S
C7829 C7828 1.377 . S
C7829 C7830 1.379 . S
C7830 H7814 0.931 . S
C7830 C7824 1.383 . S
C7830 C7829 1.379 . S
H7831 C7825 0.959 . S
H7832 C7825 0.961 . S
H7833 C7825 0.960 . S
H7834 C7826 0.930 . S
H7835 C7827 0.929 . S
H7836 C7844 0.929 . S
H7837 C7846 0.930 . S
H7838 C7848 0.930 . S
H7839 C7851 0.929 . S
H7840 C7854 0.930 . S
H7841 C7856 0.960 . S
H7842 C7856 0.960 . S
H7843 C7856 0.960 . S
C7844 H7836 0.929 . S
C7844 C7845 1.377 . S
C7844 C7846 1.384 . S
C7845 C7844 1.377 . S
C7845 C7851 1.390 . S
C7846 H7837 0.930 . S
C7846 C7844 1.384 . S
C7846 C7847 1.372 . S
C7847 C7846 1.372 . S
C7847 C7848 1.400 . S
C7847 C7852 1.490 . S
C7848 H7838 0.930 . S
C7848 C7847 1.400 . S
C7848 C7851 1.386 . S
H7849 C7865 0.930 . S
H7850 C7866 0.931 . S
C7851 H7839 0.929 . S
C7851 C7845 1.390 . S
C7851 C7848 1.386 . S
C7852 C7847 1.490 . S
C7852 C7854 1.395 . S
C7852 C7855 1.403 . S
H7853 C7859 0.930 . S
C7854 H7840 0.930 . S
C7854 C7852 1.395 . S
C7854 C7857 1.403 . S
C7855 C7852 1.403 . S
C7855 C7856 1.524 . S
C7855 C7859 1.400 . S
C7856 H7841 0.960 . S
C7856 H7842 0.960 . S
C7856 H7843 0.960 . S
C7856 C7855 1.524 . S
C7857 C7854 1.403 . S
C7857 C7858 1.392 . S
C7857 C7861 1.495 . S
C7858 C7857 1.392 . S
C7858 C7859 1.385 . S
C7858 C7860 1.478 . S
C7859 H7853 0.930 . S
C7859 C7855 1.400 . S
C7859 C7858 1.385 . S
C7860 C7858 1.478 . S
C7860 C7862 1.381 . S
C7860 C7866 1.383 . S
C7861 C7857 1.495 . S
C7861 H7867 0.959 . S
C7861 H7868 0.961 . S
C7861 H7869 0.960 . S
C7862 C7860 1.381 . S
C7862 C7863 1.394 . S
C7862 H7870 0.930 . S
C7863 C7862 1.394 . S
C7863 C7864 1.383 . S
C7863 H7871 0.929 . S
C7864 C7863 1.383 . S
C7864 C7865 1.377 . S
C7865 H7849 0.930 . S
C7865 C7864 1.377 . S
C7865 C7866 1.379 . S
C7866 H7850 0.931 . S
C7866 C7860 1.383 . S
C7866 C7865 1.379 . S
H7867 C7861 0.959 . S
H7868 C7861 0.961 . S
H7869 C7861 0.960 . S
H7870 C7862 0.930 . S
H7871 C7863 0.929 . S
H7872 C7880 0.929 . S
H7873 C7882 0.930 . S
H7874 C7884 0.930 . S
H7875 C7887 0.929 . S
H7876 C7890 0.930 . S
H7877 C7892 0.960 . S
H7878 C7892 0.960 . S
H7879 C7892 0.960 . S
C7880 H7872 0.929 . S
C7880 C7881 1.377 . S
C7880 C7882 1.384 . S
C7881 C7880 1.377 . S
C7881 C7887 1.390 . S
C7882 H7873 0.930 . S
C7882 C7880 1.384 . S
C7882 C7883 1.372 . S
C7883 C7882 1.372 . S
C7883 C7884 1.400 . S
C7883 C7888 1.490 . S
C7884 H7874 0.930 . S
C7884 C7883 1.400 . S
C7884 C7887 1.386 . S
H7885 C7901 0.930 . S
H7886 C7902 0.931 . S
C7887 H7875 0.929 . S
C7887 C7881 1.390 . S
C7887 C7884 1.386 . S
C7888 C7883 1.490 . S
C7888 C7890 1.395 . S
C7888 C7891 1.403 . S
H7889 C7895 0.930 . S
C7890 H7876 0.930 . S
C7890 C7888 1.395 . S
C7890 C7893 1.403 . S
C7891 C7888 1.403 . S
C7891 C7892 1.524 . S
C7891 C7895 1.400 . S
C7892 H7877 0.960 . S
C7892 H7878 0.960 . S
C7892 H7879 0.960 . S
C7892 C7891 1.524 . S
C7893 C7890 1.403 . S
C7893 C7894 1.392 . S
C7893 C7897 1.495 . S
C7894 C7893 1.392 . S
C7894 C7895 1.385 . S
C7894 C7896 1.478 . S
C7895 H7889 0.930 . S
C7895 C7891 1.400 . S
C7895 C7894 1.385 . S
C7896 C7894 1.478 . S
C7896 C7898 1.381 . S
C7896 C7902 1.383 . S
C7897 C7893 1.495 . S
C7897 H7903 0.959 . S
C7897 H7904 0.961 . S
C7897 H7905 0.960 . S
C7898 C7896 1.381 . S
C7898 C7899 1.394 . S
C7898 H7906 0.930 . S
C7899 C7898 1.394 . S
C7899 C7900 1.383 . S
C7899 H7907 0.929 . S
C7900 C7899 1.383 . S
C7900 C7901 1.377 . S
C7901 H7885 0.930 . S
C7901 C7900 1.377 . S
C7901 C7902 1.379 . S
C7902 H7886 0.931 . S
C7902 C7896 1.383 . S
C7902 C7901 1.379 . S
H7903 C7897 0.959 . S
H7904 C7897 0.961 . S
H7905 C7897 0.960 . S
H7906 C7898 0.930 . S
H7907 C7899 0.929 . S
H7908 C7916 0.929 . S
H7909 C7918 0.930 . S
H7910 C7920 0.930 . S
H7911 C7923 0.929 . S
H7912 C7926 0.930 . S
H7913 C7928 0.960 . S
H7914 C7928 0.960 . S
H7915 C7928 0.960 . S
C7916 H7908 0.929 . S
C7916 C7917 1.377 . S
C7916 C7918 1.384 . S
C7917 C7916 1.377 . S
C7917 C7923 1.390 . S
C7918 H7909 0.930 . S
C7918 C7916 1.384 . S
C7918 C7919 1.372 . S
C7919 C7918 1.372 . S
C7919 C7920 1.400 . S
C7919 C7924 1.490 . S
C7920 H7910 0.930 . S
C7920 C7919 1.400 . S
C7920 C7923 1.386 . S
H7921 C7937 0.930 . S
H7922 C7938 0.931 . S
C7923 H7911 0.929 . S
C7923 C7917 1.390 . S
C7923 C7920 1.386 . S
C7924 C7919 1.490 . S
C7924 C7926 1.395 . S
C7924 C7927 1.403 . S
H7925 C7931 0.930 . S
C7926 H7912 0.930 . S
C7926 C7924 1.395 . S
C7926 C7929 1.403 . S
C7927 C7924 1.403 . S
C7927 C7928 1.524 . S
C7927 C7931 1.400 . S
C7928 H7913 0.960 . S
C7928 H7914 0.960 . S
C7928 H7915 0.960 . S
C7928 C7927 1.524 . S
C7929 C7926 1.403 . S
C7929 C7930 1.392 . S
C7929 C7933 1.495 . S
C7930 C7929 1.392 . S
C7930 C7931 1.385 . S
C7930 C7932 1.478 . S
C7931 H7925 0.930 . S
C7931 C7927 1.400 . S
C7931 C7930 1.385 . S
C7932 C7930 1.478 . S
C7932 C7934 1.381 . S
C7932 C7938 1.383 . S
C7933 C7929 1.495 . S
C7933 H7939 0.959 . S
C7933 H7940 0.961 . S
C7933 H7941 0.960 . S
C7934 C7932 1.381 . S
C7934 C7935 1.394 . S
C7934 H7942 0.930 . S
C7935 C7934 1.394 . S
C7935 C7936 1.383 . S
C7935 H7943 0.929 . S
C7936 C7935 1.383 . S
C7936 C7937 1.377 . S
C7937 H7921 0.930 . S
C7937 C7936 1.377 . S
C7937 C7938 1.379 . S
C7938 H7922 0.931 . S
C7938 C7932 1.383 . S
C7938 C7937 1.379 . S
H7939 C7933 0.959 . S
H7940 C7933 0.961 . S
H7941 C7933 0.960 . S
H7942 C7934 0.930 . S
H7943 C7935 0.929 . S
H7944 C7952 0.929 . S
H7945 C7954 0.930 . S
H7946 C7956 0.930 . S
H7947 C7959 0.929 . S
H7948 C7962 0.930 . S
H7949 C7964 0.960 . S
H7950 C7964 0.960 . S
H7951 C7964 0.960 . S
C7952 H7944 0.929 . S
C7952 C7953 1.377 . S
C7952 C7954 1.384 . S
C7953 C7952 1.377 . S
C7953 C7959 1.390 . S
C7954 H7945 0.930 . S
C7954 C7952 1.384 . S
C7954 C7955 1.372 . S
C7955 C7954 1.372 . S
C7955 C7956 1.400 . S
C7955 C7960 1.490 . S
C7956 H7946 0.930 . S
C7956 C7955 1.400 . S
C7956 C7959 1.386 . S
H7957 C7973 0.930 . S
H7958 C7974 0.931 . S
C7959 H7947 0.929 . S
C7959 C7953 1.390 . S
C7959 C7956 1.386 . S
C7960 C7955 1.490 . S
C7960 C7962 1.395 . S
C7960 C7963 1.403 . S
H7961 C7967 0.930 . S
C7962 H7948 0.930 . S
C7962 C7960 1.395 . S
C7962 C7965 1.403 . S
C7963 C7960 1.403 . S
C7963 C7964 1.524 . S
C7963 C7967 1.400 . S
C7964 H7949 0.960 . S
C7964 H7950 0.960 . S
C7964 H7951 0.960 . S
C7964 C7963 1.524 . S
C7965 C7962 1.403 . S
C7965 C7966 1.392 . S
C7965 C7969 1.495 . S
C7966 C7965 1.392 . S
C7966 C7967 1.385 . S
C7966 C7968 1.478 . S
C7967 H7961 0.930 . S
C7967 C7963 1.400 . S
C7967 C7966 1.385 . S
C7968 C7966 1.478 . S
C7968 C7970 1.381 . S
C7968 C7974 1.383 . S
C7969 C7965 1.495 . S
C7969 H7975 0.959 . S
C7969 H7976 0.961 . S
C7969 H7977 0.960 . S
C7970 C7968 1.381 . S
C7970 C7971 1.394 . S
C7970 H7978 0.930 . S
C7971 C7970 1.394 . S
C7971 C7972 1.383 . S
C7971 H7979 0.929 . S
C7972 C7971 1.383 . S
C7972 C7973 1.377 . S
C7973 H7957 0.930 . S
C7973 C7972 1.377 . S
C7973 C7974 1.379 . S
C7974 H7958 0.931 . S
C7974 C7968 1.383 . S
C7974 C7973 1.379 . S
H7975 C7969 0.959 . S
H7976 C7969 0.961 . S
H7977 C7969 0.960 . S
H7978 C7970 0.930 . S
H7979 C7971 0.929 . S
H7980 C7988 0.929 . S
H7981 C7990 0.930 . S
H7982 C7992 0.930 . S
H7983 C7995 0.929 . S
H7984 C7998 0.930 . S
H7985 C8000 0.960 . S
H7986 C8000 0.960 . S
H7987 C8000 0.960 . S
C7988 H7980 0.929 . S
C7988 C7989 1.377 . S
C7988 C7990 1.384 . S
C7989 C7988 1.377 . S
C7989 C7995 1.390 . S
C7990 H7981 0.930 . S
C7990 C7988 1.384 . S
C7990 C7991 1.372 . S
C7991 C7990 1.372 . S
C7991 C7992 1.400 . S
C7991 C7996 1.490 . S
C7992 H7982 0.930 . S
C7992 C7991 1.400 . S
C7992 C7995 1.386 . S
H7993 C8009 0.930 . S
H7994 C8010 0.931 . S
C7995 H7983 0.929 . S
C7995 C7989 1.390 . S
C7995 C7992 1.386 . S
C7996 C7991 1.490 . S
C7996 C7998 1.395 . S
C7996 C7999 1.403 . S
H7997 C8003 0.930 . S
C7998 H7984 0.930 . S
C7998 C7996 1.395 . S
C7998 C8001 1.403 . S
C7999 C7996 1.403 . S
C7999 C8000 1.524 . S
C7999 C8003 1.400 . S
C8000 H7985 0.960 . S
C8000 H7986 0.960 . S
C8000 H7987 0.960 . S
C8000 C7999 1.524 . S
C8001 C7998 1.403 . S
C8001 C8002 1.392 . S
C8001 C8005 1.495 . S
C8002 C8001 1.392 . S
C8002 C8003 1.385 . S
C8002 C8004 1.478 . S
C8003 H7997 0.930 . S
C8003 C7999 1.400 . S
C8003 C8002 1.385 . S
C8004 C8002 1.478 . S
C8004 C8006 1.381 . S
C8004 C8010 1.383 . S
C8005 C8001 1.495 . S
C8005 H8011 0.959 . S
C8005 H8012 0.961 . S
C8005 H8013 0.960 . S
C8006 C8004 1.381 . S
C8006 C8007 1.394 . S
C8006 H8014 0.930 . S
C8007 C8006 1.394 . S
C8007 C8008 1.383 . S
C8007 H8015 0.929 . S
C8008 C8007 1.383 . S
C8008 C8009 1.377 . S
C8009 H7993 0.930 . S
C8009 C8008 1.377 . S
C8009 C8010 1.379 . S
C8010 H7994 0.931 . S
C8010 C8004 1.383 . S
C8010 C8009 1.379 . S
H8011 C8005 0.959 . S
H8012 C8005 0.961 . S
H8013 C8005 0.960 . S
H8014 C8006 0.930 . S
H8015 C8007 0.929 . S
H8016 C8024 0.929 . S
H8017 C8026 0.930 . S
H8018 C8028 0.930 . S
H8019 C8031 0.929 . S
H8020 C8034 0.930 . S
H8021 C8036 0.960 . S
H8022 C8036 0.960 . S
H8023 C8036 0.960 . S
C8024 H8016 0.929 . S
C8024 C8025 1.377 . S
C8024 C8026 1.384 . S
C8025 C8024 1.377 . S
C8025 C8031 1.390 . S
C8026 H8017 0.930 . S
C8026 C8024 1.384 . S
C8026 C8027 1.372 . S
C8027 C8026 1.372 . S
C8027 C8028 1.400 . S
C8027 C8032 1.490 . S
C8028 H8018 0.930 . S
C8028 C8027 1.400 . S
C8028 C8031 1.386 . S
H8029 C8045 0.930 . S
H8030 C8046 0.931 . S
C8031 H8019 0.929 . S
C8031 C8025 1.390 . S
C8031 C8028 1.386 . S
C8032 C8027 1.490 . S
C8032 C8034 1.395 . S
C8032 C8035 1.403 . S
H8033 C8039 0.930 . S
C8034 H8020 0.930 . S
C8034 C8032 1.395 . S
C8034 C8037 1.403 . S
C8035 C8032 1.403 . S
C8035 C8036 1.524 . S
C8035 C8039 1.400 . S
C8036 H8021 0.960 . S
C8036 H8022 0.960 . S
C8036 H8023 0.960 . S
C8036 C8035 1.524 . S
C8037 C8034 1.403 . S
C8037 C8038 1.392 . S
C8037 C8041 1.495 . S
C8038 C8037 1.392 . S
C8038 C8039 1.385 . S
C8038 C8040 1.478 . S
C8039 H8033 0.930 . S
C8039 C8035 1.400 . S
C8039 C8038 1.385 . S
C8040 C8038 1.478 . S
C8040 C8042 1.381 . S
C8040 C8046 1.383 . S
C8041 C8037 1.495 . S
C8041 H8047 0.959 . S
C8041 H8048 0.961 . S
C8041 H8049 0.960 . S
C8042 C8040 1.381 . S
C8042 C8043 1.394 . S
C8042 H8050 0.930 . S
C8043 C8042 1.394 . S
C8043 C8044 1.383 . S
C8043 H8051 0.929 . S
C8044 C8043 1.383 . S
C8044 C8045 1.377 . S
C8045 H8029 0.930 . S
C8045 C8044 1.377 . S
C8045 C8046 1.379 . S
C8046 H8030 0.931 . S
C8046 C8040 1.383 . S
C8046 C8045 1.379 . S
H8047 C8041 0.959 . S
H8048 C8041 0.961 . S
H8049 C8041 0.960 . S
H8050 C8042 0.930 . S
H8051 C8043 0.929 . S
H8052 C8060 0.929 . S
H8053 C8062 0.930 . S
H8054 C8064 0.930 . S
H8055 C8067 0.929 . S
H8056 C8070 0.930 . S
H8057 C8072 0.960 . S
H8058 C8072 0.960 . S
H8059 C8072 0.960 . S
C8060 H8052 0.929 . S
C8060 C8061 1.377 . S
C8060 C8062 1.384 . S
C8061 C8060 1.377 . S
C8061 C8067 1.390 . S
C8062 H8053 0.930 . S
C8062 C8060 1.384 . S
C8062 C8063 1.372 . S
C8063 C8062 1.372 . S
C8063 C8064 1.400 . S
C8063 C8068 1.490 . S
C8064 H8054 0.930 . S
C8064 C8063 1.400 . S
C8064 C8067 1.386 . S
H8065 C8081 0.930 . S
H8066 C8082 0.931 . S
C8067 H8055 0.929 . S
C8067 C8061 1.390 . S
C8067 C8064 1.386 . S
C8068 C8063 1.490 . S
C8068 C8070 1.395 . S
C8068 C8071 1.403 . S
H8069 C8075 0.930 . S
C8070 H8056 0.930 . S
C8070 C8068 1.395 . S
C8070 C8073 1.403 . S
C8071 C8068 1.403 . S
C8071 C8072 1.524 . S
C8071 C8075 1.400 . S
C8072 H8057 0.960 . S
C8072 H8058 0.960 . S
C8072 H8059 0.960 . S
C8072 C8071 1.524 . S
C8073 C8070 1.403 . S
C8073 C8074 1.392 . S
C8073 C8077 1.495 . S
C8074 C8073 1.392 . S
C8074 C8075 1.385 . S
C8074 C8076 1.478 . S
C8075 H8069 0.930 . S
C8075 C8071 1.400 . S
C8075 C8074 1.385 . S
C8076 C8074 1.478 . S
C8076 C8078 1.381 . S
C8076 C8082 1.383 . S
C8077 C8073 1.495 . S
C8077 H8083 0.959 . S
C8077 H8084 0.961 . S
C8077 H8085 0.960 . S
C8078 C8076 1.381 . S
C8078 C8079 1.394 . S
C8078 H8086 0.930 . S
C8079 C8078 1.394 . S
C8079 C8080 1.383 . S
C8079 H8087 0.929 . S
C8080 C8079 1.383 . S
C8080 C8081 1.377 . S
C8081 H8065 0.930 . S
C8081 C8080 1.377 . S
C8081 C8082 1.379 . S
C8082 H8066 0.931 . S
C8082 C8076 1.383 . S
C8082 C8081 1.379 . S
H8083 C8077 0.959 . S
H8084 C8077 0.961 . S
H8085 C8077 0.960 . S
H8086 C8078 0.930 . S
H8087 C8079 0.929 . S
H8088 C8096 0.929 . S
H8089 C8098 0.930 . S
H8090 C8100 0.930 . S
H8091 C8103 0.929 . S
H8092 C8106 0.930 . S
H8093 C8108 0.960 . S
H8094 C8108 0.960 . S
H8095 C8108 0.960 . S
C8096 H8088 0.929 . S
C8096 C8097 1.377 . S
C8096 C8098 1.384 . S
C8097 C8096 1.377 . S
C8097 C8103 1.390 . S
C8098 H8089 0.930 . S
C8098 C8096 1.384 . S
C8098 C8099 1.372 . S
C8099 C8098 1.372 . S
C8099 C8100 1.400 . S
C8099 C8104 1.490 . S
C8100 H8090 0.930 . S
C8100 C8099 1.400 . S
C8100 C8103 1.386 . S
H8101 C8117 0.930 . S
H8102 C8118 0.931 . S
C8103 H8091 0.929 . S
C8103 C8097 1.390 . S
C8103 C8100 1.386 . S
C8104 C8099 1.490 . S
C8104 C8106 1.395 . S
C8104 C8107 1.403 . S
H8105 C8111 0.930 . S
C8106 H8092 0.930 . S
C8106 C8104 1.395 . S
C8106 C8109 1.403 . S
C8107 C8104 1.403 . S
C8107 C8108 1.524 . S
C8107 C8111 1.400 . S
C8108 H8093 0.960 . S
C8108 H8094 0.960 . S
C8108 H8095 0.960 . S
C8108 C8107 1.524 . S
C8109 C8106 1.403 . S
C8109 C8110 1.392 . S
C8109 C8113 1.495 . S
C8110 C8109 1.392 . S
C8110 C8111 1.385 . S
C8110 C8112 1.478 . S
C8111 H8105 0.930 . S
C8111 C8107 1.400 . S
C8111 C8110 1.385 . S
C8112 C8110 1.478 . S
C8112 C8114 1.381 . S
C8112 C8118 1.383 . S
C8113 C8109 1.495 . S
C8113 H8119 0.959 . S
C8113 H8120 0.961 . S
C8113 H8121 0.960 . S
C8114 C8112 1.381 . S
C8114 C8115 1.394 . S
C8114 H8122 0.930 . S
C8115 C8114 1.394 . S
C8115 C8116 1.383 . S
C8115 H8123 0.929 . S
C8116 C8115 1.383 . S
C8116 C8117 1.377 . S
C8117 H8101 0.930 . S
C8117 C8116 1.377 . S
C8117 C8118 1.379 . S
C8118 H8102 0.931 . S
C8118 C8112 1.383 . S
C8118 C8117 1.379 . S
H8119 C8113 0.959 . S
H8120 C8113 0.961 . S
H8121 C8113 0.960 . S
H8122 C8114 0.930 . S
H8123 C8115 0.929 . S
H8124 C8132 0.929 . S
H8125 C8134 0.930 . S
H8126 C8136 0.930 . S
H8127 C8139 0.929 . S
H8128 C8142 0.930 . S
H8129 C8144 0.960 . S
H8130 C8144 0.960 . S
H8131 C8144 0.960 . S
C8132 H8124 0.929 . S
C8132 C8133 1.377 . S
C8132 C8134 1.384 . S
C8133 C8132 1.377 . S
C8133 C8139 1.390 . S
C8134 H8125 0.930 . S
C8134 C8132 1.384 . S
C8134 C8135 1.372 . S
C8135 C8134 1.372 . S
C8135 C8136 1.400 . S
C8135 C8140 1.490 . S
C8136 H8126 0.930 . S
C8136 C8135 1.400 . S
C8136 C8139 1.386 . S
H8137 C8153 0.930 . S
H8138 C8154 0.931 . S
C8139 H8127 0.929 . S
C8139 C8133 1.390 . S
C8139 C8136 1.386 . S
C8140 C8135 1.490 . S
C8140 C8142 1.395 . S
C8140 C8143 1.403 . S
H8141 C8147 0.930 . S
C8142 H8128 0.930 . S
C8142 C8140 1.395 . S
C8142 C8145 1.403 . S
C8143 C8140 1.403 . S
C8143 C8144 1.524 . S
C8143 C8147 1.400 . S
C8144 H8129 0.960 . S
C8144 H8130 0.960 . S
C8144 H8131 0.960 . S
C8144 C8143 1.524 . S
C8145 C8142 1.403 . S
C8145 C8146 1.392 . S
C8145 C8149 1.495 . S
C8146 C8145 1.392 . S
C8146 C8147 1.385 . S
C8146 C8148 1.478 . S
C8147 H8141 0.930 . S
C8147 C8143 1.400 . S
C8147 C8146 1.385 . S
C8148 C8146 1.478 . S
C8148 C8150 1.381 . S
C8148 C8154 1.383 . S
C8149 C8145 1.495 . S
C8149 H8155 0.959 . S
C8149 H8156 0.961 . S
C8149 H8157 0.960 . S
C8150 C8148 1.381 . S
C8150 C8151 1.394 . S
C8150 H8158 0.930 . S
C8151 C8150 1.394 . S
C8151 C8152 1.383 . S
C8151 H8159 0.929 . S
C8152 C8151 1.383 . S
C8152 C8153 1.377 . S
C8153 H8137 0.930 . S
C8153 C8152 1.377 . S
C8153 C8154 1.379 . S
C8154 H8138 0.931 . S
C8154 C8148 1.383 . S
C8154 C8153 1.379 . S
H8155 C8149 0.959 . S
H8156 C8149 0.961 . S
H8157 C8149 0.960 . S
H8158 C8150 0.930 . S
H8159 C8151 0.929 . S
H8160 C8168 0.929 . S
H8161 C8170 0.930 . S
H8162 C8172 0.930 . S
H8163 C8175 0.929 . S
H8164 C8178 0.930 . S
H8165 C8180 0.960 . S
H8166 C8180 0.960 . S
H8167 C8180 0.960 . S
C8168 H8160 0.929 . S
C8168 C8169 1.377 . S
C8168 C8170 1.384 . S
C8169 C8168 1.377 . S
C8169 C8175 1.390 . S
C8170 H8161 0.930 . S
C8170 C8168 1.384 . S
C8170 C8171 1.372 . S
C8171 C8170 1.372 . S
C8171 C8172 1.400 . S
C8171 C8176 1.490 . S
C8172 H8162 0.930 . S
C8172 C8171 1.400 . S
C8172 C8175 1.386 . S
H8173 C8189 0.930 . S
H8174 C8190 0.931 . S
C8175 H8163 0.929 . S
C8175 C8169 1.390 . S
C8175 C8172 1.386 . S
C8176 C8171 1.490 . S
C8176 C8178 1.395 . S
C8176 C8179 1.403 . S
H8177 C8183 0.930 . S
C8178 H8164 0.930 . S
C8178 C8176 1.395 . S
C8178 C8181 1.403 . S
C8179 C8176 1.403 . S
C8179 C8180 1.524 . S
C8179 C8183 1.400 . S
C8180 H8165 0.960 . S
C8180 H8166 0.960 . S
C8180 H8167 0.960 . S
C8180 C8179 1.524 . S
C8181 C8178 1.403 . S
C8181 C8182 1.392 . S
C8181 C8185 1.495 . S
C8182 C8181 1.392 . S
C8182 C8183 1.385 . S
C8182 C8184 1.478 . S
C8183 H8177 0.930 . S
C8183 C8179 1.400 . S
C8183 C8182 1.385 . S
C8184 C8182 1.478 . S
C8184 C8186 1.381 . S
C8184 C8190 1.383 . S
C8185 C8181 1.495 . S
C8185 H8191 0.959 . S
C8185 H8192 0.961 . S
C8185 H8193 0.960 . S
C8186 C8184 1.381 . S
C8186 C8187 1.394 . S
C8186 H8194 0.930 . S
C8187 C8186 1.394 . S
C8187 C8188 1.383 . S
C8187 H8195 0.929 . S
C8188 C8187 1.383 . S
C8188 C8189 1.377 . S
C8189 H8173 0.930 . S
C8189 C8188 1.377 . S
C8189 C8190 1.379 . S
C8190 H8174 0.931 . S
C8190 C8184 1.383 . S
C8190 C8189 1.379 . S
H8191 C8185 0.959 . S
H8192 C8185 0.961 . S
H8193 C8185 0.960 . S
H8194 C8186 0.930 . S
H8195 C8187 0.929 . S
H8196 C8204 0.929 . S
H8197 C8206 0.930 . S
H8198 C8208 0.930 . S
H8199 C8211 0.929 . S
H8200 C8214 0.930 . S
H8201 C8216 0.960 . S
H8202 C8216 0.960 . S
H8203 C8216 0.960 . S
C8204 H8196 0.929 . S
C8204 C8205 1.377 . S
C8204 C8206 1.384 . S
C8205 C8204 1.377 . S
C8205 C8211 1.390 . S
C8206 H8197 0.930 . S
C8206 C8204 1.384 . S
C8206 C8207 1.372 . S
C8207 C8206 1.372 . S
C8207 C8208 1.400 . S
C8207 C8212 1.490 . S
C8208 H8198 0.930 . S
C8208 C8207 1.400 . S
C8208 C8211 1.386 . S
H8209 C8225 0.930 . S
H8210 C8226 0.931 . S
C8211 H8199 0.929 . S
C8211 C8205 1.390 . S
C8211 C8208 1.386 . S
C8212 C8207 1.490 . S
C8212 C8214 1.395 . S
C8212 C8215 1.403 . S
H8213 C8219 0.930 . S
C8214 H8200 0.930 . S
C8214 C8212 1.395 . S
C8214 C8217 1.403 . S
C8215 C8212 1.403 . S
C8215 C8216 1.524 . S
C8215 C8219 1.400 . S
C8216 H8201 0.960 . S
C8216 H8202 0.960 . S
C8216 H8203 0.960 . S
C8216 C8215 1.524 . S
C8217 C8214 1.403 . S
C8217 C8218 1.392 . S
C8217 C8221 1.495 . S
C8218 C8217 1.392 . S
C8218 C8219 1.385 . S
C8218 C8220 1.478 . S
C8219 H8213 0.930 . S
C8219 C8215 1.400 . S
C8219 C8218 1.385 . S
C8220 C8218 1.478 . S
C8220 C8222 1.381 . S
C8220 C8226 1.383 . S
C8221 C8217 1.495 . S
C8221 H8227 0.959 . S
C8221 H8228 0.961 . S
C8221 H8229 0.960 . S
C8222 C8220 1.381 . S
C8222 C8223 1.394 . S
C8222 H8230 0.930 . S
C8223 C8222 1.394 . S
C8223 C8224 1.383 . S
C8223 H8231 0.929 . S
C8224 C8223 1.383 . S
C8224 C8225 1.377 . S
C8225 H8209 0.930 . S
C8225 C8224 1.377 . S
C8225 C8226 1.379 . S
C8226 H8210 0.931 . S
C8226 C8220 1.383 . S
C8226 C8225 1.379 . S
H8227 C8221 0.959 . S
H8228 C8221 0.961 . S
H8229 C8221 0.960 . S
H8230 C8222 0.930 . S
H8231 C8223 0.929 . S
H8232 C8240 0.929 . S
H8233 C8242 0.930 . S
H8234 C8244 0.930 . S
H8235 C8247 0.929 . S
H8236 C8250 0.930 . S
H8237 C8252 0.960 . S
H8238 C8252 0.960 . S
H8239 C8252 0.960 . S
C8240 H8232 0.929 . S
C8240 C8241 1.377 . S
C8240 C8242 1.384 . S
C8241 C8240 1.377 . S
C8241 C8247 1.390 . S
C8242 H8233 0.930 . S
C8242 C8240 1.384 . S
C8242 C8243 1.372 . S
C8243 C8242 1.372 . S
C8243 C8244 1.400 . S
C8243 C8248 1.490 . S
C8244 H8234 0.930 . S
C8244 C8243 1.400 . S
C8244 C8247 1.386 . S
H8245 C8261 0.930 . S
H8246 C8262 0.931 . S
C8247 H8235 0.929 . S
C8247 C8241 1.390 . S
C8247 C8244 1.386 . S
C8248 C8243 1.490 . S
C8248 C8250 1.395 . S
C8248 C8251 1.403 . S
H8249 C8255 0.930 . S
C8250 H8236 0.930 . S
C8250 C8248 1.395 . S
C8250 C8253 1.403 . S
C8251 C8248 1.403 . S
C8251 C8252 1.524 . S
C8251 C8255 1.400 . S
C8252 H8237 0.960 . S
C8252 H8238 0.960 . S
C8252 H8239 0.960 . S
C8252 C8251 1.524 . S
C8253 C8250 1.403 . S
C8253 C8254 1.392 . S
C8253 C8257 1.495 . S
C8254 C8253 1.392 . S
C8254 C8255 1.385 . S
C8254 C8256 1.478 . S
C8255 H8249 0.930 . S
C8255 C8251 1.400 . S
C8255 C8254 1.385 . S
C8256 C8254 1.478 . S
C8256 C8258 1.381 . S
C8256 C8262 1.383 . S
C8257 C8253 1.495 . S
C8257 H8263 0.959 . S
C8257 H8264 0.961 . S
C8257 H8265 0.960 . S
C8258 C8256 1.381 . S
C8258 C8259 1.394 . S
C8258 H8266 0.930 . S
C8259 C8258 1.394 . S
C8259 C8260 1.383 . S
C8259 H8267 0.929 . S
C8260 C8259 1.383 . S
C8260 C8261 1.377 . S
C8261 H8245 0.930 . S
C8261 C8260 1.377 . S
C8261 C8262 1.379 . S
C8262 H8246 0.931 . S
C8262 C8256 1.383 . S
C8262 C8261 1.379 . S
H8263 C8257 0.959 . S
H8264 C8257 0.961 . S
H8265 C8257 0.960 . S
H8266 C8258 0.930 . S
H8267 C8259 0.929 . S
H8268 C8276 0.929 . S
H8269 C8278 0.930 . S
H8270 C8280 0.930 . S
H8271 C8283 0.929 . S
H8272 C8286 0.930 . S
H8273 C8288 0.960 . S
H8274 C8288 0.960 . S
H8275 C8288 0.960 . S
C8276 H8268 0.929 . S
C8276 C8277 1.377 . S
C8276 C8278 1.384 . S
C8277 C8276 1.377 . S
C8277 C8283 1.390 . S
C8278 H8269 0.930 . S
C8278 C8276 1.384 . S
C8278 C8279 1.372 . S
C8279 C8278 1.372 . S
C8279 C8280 1.400 . S
C8279 C8284 1.490 . S
C8280 H8270 0.930 . S
C8280 C8279 1.400 . S
C8280 C8283 1.386 . S
H8281 C8297 0.930 . S
H8282 C8298 0.931 . S
C8283 H8271 0.929 . S
C8283 C8277 1.390 . S
C8283 C8280 1.386 . S
C8284 C8279 1.490 . S
C8284 C8286 1.395 . S
C8284 C8287 1.403 . S
H8285 C8291 0.930 . S
C8286 H8272 0.930 . S
C8286 C8284 1.395 . S
C8286 C8289 1.403 . S
C8287 C8284 1.403 . S
C8287 C8288 1.524 . S
C8287 C8291 1.400 . S
C8288 H8273 0.960 . S
C8288 H8274 0.960 . S
C8288 H8275 0.960 . S
C8288 C8287 1.524 . S
C8289 C8286 1.403 . S
C8289 C8290 1.392 . S
C8289 C8293 1.495 . S
C8290 C8289 1.392 . S
C8290 C8291 1.385 . S
C8290 C8292 1.478 . S
C8291 H8285 0.930 . S
C8291 C8287 1.400 . S
C8291 C8290 1.385 . S
C8292 C8290 1.478 . S
C8292 C8294 1.381 . S
C8292 C8298 1.383 . S
C8293 C8289 1.495 . S
C8293 H8299 0.959 . S
C8293 H8300 0.961 . S
C8293 H8301 0.960 . S
C8294 C8292 1.381 . S
C8294 C8295 1.394 . S
C8294 H8302 0.930 . S
C8295 C8294 1.394 . S
C8295 C8296 1.383 . S
C8295 H8303 0.929 . S
C8296 C8295 1.383 . S
C8296 C8297 1.377 . S
C8297 H8281 0.930 . S
C8297 C8296 1.377 . S
C8297 C8298 1.379 . S
C8298 H8282 0.931 . S
C8298 C8292 1.383 . S
C8298 C8297 1.379 . S
H8299 C8293 0.959 . S
H8300 C8293 0.961 . S
H8301 C8293 0.960 . S
H8302 C8294 0.930 . S
H8303 C8295 0.929 . S
H8304 C8312 0.929 . S
H8305 C8314 0.930 . S
H8306 C8316 0.930 . S
H8307 C8319 0.929 . S
H8308 C8322 0.930 . S
H8309 C8324 0.960 . S
H8310 C8324 0.960 . S
H8311 C8324 0.960 . S
C8312 H8304 0.929 . S
C8312 C8313 1.377 . S
C8312 C8314 1.384 . S
C8313 C8312 1.377 . S
C8313 C8319 1.390 . S
C8314 H8305 0.930 . S
C8314 C8312 1.384 . S
C8314 C8315 1.372 . S
C8315 C8314 1.372 . S
C8315 C8316 1.400 . S
C8315 C8320 1.490 . S
C8316 H8306 0.930 . S
C8316 C8315 1.400 . S
C8316 C8319 1.386 . S
H8317 C8333 0.930 . S
H8318 C8334 0.931 . S
C8319 H8307 0.929 . S
C8319 C8313 1.390 . S
C8319 C8316 1.386 . S
C8320 C8315 1.490 . S
C8320 C8322 1.395 . S
C8320 C8323 1.403 . S
H8321 C8327 0.930 . S
C8322 H8308 0.930 . S
C8322 C8320 1.395 . S
C8322 C8325 1.403 . S
C8323 C8320 1.403 . S
C8323 C8324 1.524 . S
C8323 C8327 1.400 . S
C8324 H8309 0.960 . S
C8324 H8310 0.960 . S
C8324 H8311 0.960 . S
C8324 C8323 1.524 . S
C8325 C8322 1.403 . S
C8325 C8326 1.392 . S
C8325 C8329 1.495 . S
C8326 C8325 1.392 . S
C8326 C8327 1.385 . S
C8326 C8328 1.478 . S
C8327 H8321 0.930 . S
C8327 C8323 1.400 . S
C8327 C8326 1.385 . S
C8328 C8326 1.478 . S
C8328 C8330 1.381 . S
C8328 C8334 1.383 . S
C8329 C8325 1.495 . S
C8329 H8335 0.959 . S
C8329 H8336 0.961 . S
C8329 H8337 0.960 . S
C8330 C8328 1.381 . S
C8330 C8331 1.394 . S
C8330 H8338 0.930 . S
C8331 C8330 1.394 . S
C8331 C8332 1.383 . S
C8331 H8339 0.929 . S
C8332 C8331 1.383 . S
C8332 C8333 1.377 . S
C8333 H8317 0.930 . S
C8333 C8332 1.377 . S
C8333 C8334 1.379 . S
C8334 H8318 0.931 . S
C8334 C8328 1.383 . S
C8334 C8333 1.379 . S
H8335 C8329 0.959 . S
H8336 C8329 0.961 . S
H8337 C8329 0.960 . S
H8338 C8330 0.930 . S
H8339 C8331 0.929 . S
H8340 C8348 0.929 . S
H8341 C8350 0.930 . S
H8342 C8352 0.930 . S
H8343 C8355 0.929 . S
H8344 C8358 0.930 . S
H8345 C8360 0.960 . S
H8346 C8360 0.960 . S
H8347 C8360 0.960 . S
C8348 H8340 0.929 . S
C8348 C8349 1.377 . S
C8348 C8350 1.384 . S
C8349 C8348 1.377 . S
C8349 C8355 1.390 . S
C8350 H8341 0.930 . S
C8350 C8348 1.384 . S
C8350 C8351 1.372 . S
C8351 C8350 1.372 . S
C8351 C8352 1.400 . S
C8351 C8356 1.490 . S
C8352 H8342 0.930 . S
C8352 C8351 1.400 . S
C8352 C8355 1.386 . S
H8353 C8369 0.930 . S
H8354 C8370 0.931 . S
C8355 H8343 0.929 . S
C8355 C8349 1.390 . S
C8355 C8352 1.386 . S
C8356 C8351 1.490 . S
C8356 C8358 1.395 . S
C8356 C8359 1.403 . S
H8357 C8363 0.930 . S
C8358 H8344 0.930 . S
C8358 C8356 1.395 . S
C8358 C8361 1.403 . S
C8359 C8356 1.403 . S
C8359 C8360 1.524 . S
C8359 C8363 1.400 . S
C8360 H8345 0.960 . S
C8360 H8346 0.960 . S
C8360 H8347 0.960 . S
C8360 C8359 1.524 . S
C8361 C8358 1.403 . S
C8361 C8362 1.392 . S
C8361 C8365 1.495 . S
C8362 C8361 1.392 . S
C8362 C8363 1.385 . S
C8362 C8364 1.478 . S
C8363 H8357 0.930 . S
C8363 C8359 1.400 . S
C8363 C8362 1.385 . S
C8364 C8362 1.478 . S
C8364 C8366 1.381 . S
C8364 C8370 1.383 . S
C8365 C8361 1.495 . S
C8365 H8371 0.959 . S
C8365 H8372 0.961 . S
C8365 H8373 0.960 . S
C8366 C8364 1.381 . S
C8366 C8367 1.394 . S
C8366 H8374 0.930 . S
C8367 C8366 1.394 . S
C8367 C8368 1.383 . S
C8367 H8375 0.929 . S
C8368 C8367 1.383 . S
C8368 C8369 1.377 . S
C8369 H8353 0.930 . S
C8369 C8368 1.377 . S
C8369 C8370 1.379 . S
C8370 H8354 0.931 . S
C8370 C8364 1.383 . S
C8370 C8369 1.379 . S
H8371 C8365 0.959 . S
H8372 C8365 0.961 . S
H8373 C8365 0.960 . S
H8374 C8366 0.930 . S
H8375 C8367 0.929 . S
H8376 C8384 0.929 . S
H8377 C8386 0.930 . S
H8378 C8388 0.930 . S
H8379 C8391 0.929 . S
H8380 C8394 0.930 . S
H8381 C8396 0.960 . S
H8382 C8396 0.960 . S
H8383 C8396 0.960 . S
C8384 H8376 0.929 . S
C8384 C8385 1.377 . S
C8384 C8386 1.384 . S
C8385 C8384 1.377 . S
C8385 C8391 1.390 . S
C8386 H8377 0.930 . S
C8386 C8384 1.384 . S
C8386 C8387 1.372 . S
C8387 C8386 1.372 . S
C8387 C8388 1.400 . S
C8387 C8392 1.490 . S
C8388 H8378 0.930 . S
C8388 C8387 1.400 . S
C8388 C8391 1.386 . S
H8389 C8405 0.930 . S
H8390 C8406 0.931 . S
C8391 H8379 0.929 . S
C8391 C8385 1.390 . S
C8391 C8388 1.386 . S
C8392 C8387 1.490 . S
C8392 C8394 1.395 . S
C8392 C8395 1.403 . S
H8393 C8399 0.930 . S
C8394 H8380 0.930 . S
C8394 C8392 1.395 . S
C8394 C8397 1.403 . S
C8395 C8392 1.403 . S
C8395 C8396 1.524 . S
C8395 C8399 1.400 . S
C8396 H8381 0.960 . S
C8396 H8382 0.960 . S
C8396 H8383 0.960 . S
C8396 C8395 1.524 . S
C8397 C8394 1.403 . S
C8397 C8398 1.392 . S
C8397 C8401 1.495 . S
C8398 C8397 1.392 . S
C8398 C8399 1.385 . S
C8398 C8400 1.478 . S
C8399 H8393 0.930 . S
C8399 C8395 1.400 . S
C8399 C8398 1.385 . S
C8400 C8398 1.478 . S
C8400 C8402 1.381 . S
C8400 C8406 1.383 . S
C8401 C8397 1.495 . S
C8401 H8407 0.959 . S
C8401 H8408 0.961 . S
C8401 H8409 0.960 . S
C8402 C8400 1.381 . S
C8402 C8403 1.394 . S
C8402 H8410 0.930 . S
C8403 C8402 1.394 . S
C8403 C8404 1.383 . S
C8403 H8411 0.929 . S
C8404 C8403 1.383 . S
C8404 C8405 1.377 . S
C8405 H8389 0.930 . S
C8405 C8404 1.377 . S
C8405 C8406 1.379 . S
C8406 H8390 0.931 . S
C8406 C8400 1.383 . S
C8406 C8405 1.379 . S
H8407 C8401 0.959 . S
H8408 C8401 0.961 . S
H8409 C8401 0.960 . S
H8410 C8402 0.930 . S
H8411 C8403 0.929 . S
H8412 C8420 0.929 . S
H8413 C8422 0.930 . S
H8414 C8424 0.930 . S
H8415 C8427 0.929 . S
H8416 C8430 0.930 . S
H8417 C8432 0.960 . S
H8418 C8432 0.960 . S
H8419 C8432 0.960 . S
C8420 H8412 0.929 . S
C8420 C8421 1.377 . S
C8420 C8422 1.384 . S
C8421 C8420 1.377 . S
C8421 C8427 1.390 . S
C8422 H8413 0.930 . S
C8422 C8420 1.384 . S
C8422 C8423 1.372 . S
C8423 C8422 1.372 . S
C8423 C8424 1.400 . S
C8423 C8428 1.490 . S
C8424 H8414 0.930 . S
C8424 C8423 1.400 . S
C8424 C8427 1.386 . S
H8425 C8441 0.930 . S
H8426 C8442 0.931 . S
C8427 H8415 0.929 . S
C8427 C8421 1.390 . S
C8427 C8424 1.386 . S
C8428 C8423 1.490 . S
C8428 C8430 1.395 . S
C8428 C8431 1.403 . S
H8429 C8435 0.930 . S
C8430 H8416 0.930 . S
C8430 C8428 1.395 . S
C8430 C8433 1.403 . S
C8431 C8428 1.403 . S
C8431 C8432 1.524 . S
C8431 C8435 1.400 . S
C8432 H8417 0.960 . S
C8432 H8418 0.960 . S
C8432 H8419 0.960 . S
C8432 C8431 1.524 . S
C8433 C8430 1.403 . S
C8433 C8434 1.392 . S
C8433 C8437 1.495 . S
C8434 C8433 1.392 . S
C8434 C8435 1.385 . S
C8434 C8436 1.478 . S
C8435 H8429 0.930 . S
C8435 C8431 1.400 . S
C8435 C8434 1.385 . S
C8436 C8434 1.478 . S
C8436 C8438 1.381 . S
C8436 C8442 1.383 . S
C8437 C8433 1.495 . S
C8437 H8443 0.959 . S
C8437 H8444 0.961 . S
C8437 H8445 0.960 . S
C8438 C8436 1.381 . S
C8438 C8439 1.394 . S
C8438 H8446 0.930 . S
C8439 C8438 1.394 . S
C8439 C8440 1.383 . S
C8439 H8447 0.929 . S
C8440 C8439 1.383 . S
C8440 C8441 1.377 . S
C8441 H8425 0.930 . S
C8441 C8440 1.377 . S
C8441 C8442 1.379 . S
C8442 H8426 0.931 . S
C8442 C8436 1.383 . S
C8442 C8441 1.379 . S
H8443 C8437 0.959 . S
H8444 C8437 0.961 . S
H8445 C8437 0.960 . S
H8446 C8438 0.930 . S
H8447 C8439 0.929 . S
H8448 C8456 0.929 . S
H8449 C8458 0.930 . S
H8450 C8460 0.930 . S
H8451 C8463 0.929 . S
H8452 C8466 0.930 . S
H8453 C8468 0.960 . S
H8454 C8468 0.960 . S
H8455 C8468 0.960 . S
C8456 H8448 0.929 . S
C8456 C8457 1.377 . S
C8456 C8458 1.384 . S
C8457 C8456 1.377 . S
C8457 C8463 1.390 . S
C8458 H8449 0.930 . S
C8458 C8456 1.384 . S
C8458 C8459 1.372 . S
C8459 C8458 1.372 . S
C8459 C8460 1.400 . S
C8459 C8464 1.490 . S
C8460 H8450 0.930 . S
C8460 C8459 1.400 . S
C8460 C8463 1.386 . S
H8461 C8477 0.930 . S
H8462 C8478 0.931 . S
C8463 H8451 0.929 . S
C8463 C8457 1.390 . S
C8463 C8460 1.386 . S
C8464 C8459 1.490 . S
C8464 C8466 1.395 . S
C8464 C8467 1.403 . S
H8465 C8471 0.930 . S
C8466 H8452 0.930 . S
C8466 C8464 1.395 . S
C8466 C8469 1.403 . S
C8467 C8464 1.403 . S
C8467 C8468 1.524 . S
C8467 C8471 1.400 . S
C8468 H8453 0.960 . S
C8468 H8454 0.960 . S
C8468 H8455 0.960 . S
C8468 C8467 1.524 . S
C8469 C8466 1.403 . S
C8469 C8470 1.392 . S
C8469 C8473 1.495 . S
C8470 C8469 1.392 . S
C8470 C8471 1.385 . S
C8470 C8472 1.478 . S
C8471 H8465 0.930 . S
C8471 C8467 1.400 . S
C8471 C8470 1.385 . S
C8472 C8470 1.478 . S
C8472 C8474 1.381 . S
C8472 C8478 1.383 . S
C8473 C8469 1.495 . S
C8473 H8479 0.959 . S
C8473 H8480 0.961 . S
C8473 H8481 0.960 . S
C8474 C8472 1.381 . S
C8474 C8475 1.394 . S
C8474 H8482 0.930 . S
C8475 C8474 1.394 . S
C8475 C8476 1.383 . S
C8475 H8483 0.929 . S
C8476 C8475 1.383 . S
C8476 C8477 1.377 . S
C8477 H8461 0.930 . S
C8477 C8476 1.377 . S
C8477 C8478 1.379 . S
C8478 H8462 0.931 . S
C8478 C8472 1.383 . S
C8478 C8477 1.379 . S
H8479 C8473 0.959 . S
H8480 C8473 0.961 . S
H8481 C8473 0.960 . S
H8482 C8474 0.930 . S
H8483 C8475 0.929 . S
H8484 C8492 0.929 . S
H8485 C8494 0.930 . S
H8486 C8496 0.930 . S
H8487 C8499 0.929 . S
H8488 C8502 0.930 . S
H8489 C8504 0.960 . S
H8490 C8504 0.960 . S
H8491 C8504 0.960 . S
C8492 H8484 0.929 . S
C8492 C8493 1.377 . S
C8492 C8494 1.384 . S
C8493 C8492 1.377 . S
C8493 C8499 1.390 . S
C8494 H8485 0.930 . S
C8494 C8492 1.384 . S
C8494 C8495 1.372 . S
C8495 C8494 1.372 . S
C8495 C8496 1.400 . S
C8495 C8500 1.490 . S
C8496 H8486 0.930 . S
C8496 C8495 1.400 . S
C8496 C8499 1.386 . S
H8497 C8513 0.930 . S
H8498 C8514 0.931 . S
C8499 H8487 0.929 . S
C8499 C8493 1.390 . S
C8499 C8496 1.386 . S
C8500 C8495 1.490 . S
C8500 C8502 1.395 . S
C8500 C8503 1.403 . S
H8501 C8507 0.930 . S
C8502 H8488 0.930 . S
C8502 C8500 1.395 . S
C8502 C8505 1.403 . S
C8503 C8500 1.403 . S
C8503 C8504 1.524 . S
C8503 C8507 1.400 . S
C8504 H8489 0.960 . S
C8504 H8490 0.960 . S
C8504 H8491 0.960 . S
C8504 C8503 1.524 . S
C8505 C8502 1.403 . S
C8505 C8506 1.392 . S
C8505 C8509 1.495 . S
C8506 C8505 1.392 . S
C8506 C8507 1.385 . S
C8506 C8508 1.478 . S
C8507 H8501 0.930 . S
C8507 C8503 1.400 . S
C8507 C8506 1.385 . S
C8508 C8506 1.478 . S
C8508 C8510 1.381 . S
C8508 C8514 1.383 . S
C8509 C8505 1.495 . S
C8509 H8515 0.959 . S
C8509 H8516 0.961 . S
C8509 H8517 0.960 . S
C8510 C8508 1.381 . S
C8510 C8511 1.394 . S
C8510 H8518 0.930 . S
C8511 C8510 1.394 . S
C8511 C8512 1.383 . S
C8511 H8519 0.929 . S
C8512 C8511 1.383 . S
C8512 C8513 1.377 . S
C8513 H8497 0.930 . S
C8513 C8512 1.377 . S
C8513 C8514 1.379 . S
C8514 H8498 0.931 . S
C8514 C8508 1.383 . S
C8514 C8513 1.379 . S
H8515 C8509 0.959 . S
H8516 C8509 0.961 . S
H8517 C8509 0.960 . S
H8518 C8510 0.930 . S
H8519 C8511 0.929 . S
H8520 C8528 0.929 . S
H8521 C8530 0.930 . S
H8522 C8532 0.930 . S
H8523 C8535 0.929 . S
H8524 C8538 0.930 . S
H8525 C8540 0.960 . S
H8526 C8540 0.960 . S
H8527 C8540 0.960 . S
C8528 H8520 0.929 . S
C8528 C8529 1.377 . S
C8528 C8530 1.384 . S
C8529 C8528 1.377 . S
C8529 C8535 1.390 . S
C8530 H8521 0.930 . S
C8530 C8528 1.384 . S
C8530 C8531 1.372 . S
C8531 C8530 1.372 . S
C8531 C8532 1.400 . S
C8531 C8536 1.490 . S
C8532 H8522 0.930 . S
C8532 C8531 1.400 . S
C8532 C8535 1.386 . S
H8533 C8549 0.930 . S
H8534 C8550 0.931 . S
C8535 H8523 0.929 . S
C8535 C8529 1.390 . S
C8535 C8532 1.386 . S
C8536 C8531 1.490 . S
C8536 C8538 1.395 . S
C8536 C8539 1.403 . S
H8537 C8543 0.930 . S
C8538 H8524 0.930 . S
C8538 C8536 1.395 . S
C8538 C8541 1.403 . S
C8539 C8536 1.403 . S
C8539 C8540 1.524 . S
C8539 C8543 1.400 . S
C8540 H8525 0.960 . S
C8540 H8526 0.960 . S
C8540 H8527 0.960 . S
C8540 C8539 1.524 . S
C8541 C8538 1.403 . S
C8541 C8542 1.392 . S
C8541 C8545 1.495 . S
C8542 C8541 1.392 . S
C8542 C8543 1.385 . S
C8542 C8544 1.478 . S
C8543 H8537 0.930 . S
C8543 C8539 1.400 . S
C8543 C8542 1.385 . S
C8544 C8542 1.478 . S
C8544 C8546 1.381 . S
C8544 C8550 1.383 . S
C8545 C8541 1.495 . S
C8545 H8551 0.959 . S
C8545 H8552 0.961 . S
C8545 H8553 0.960 . S
C8546 C8544 1.381 . S
C8546 C8547 1.394 . S
C8546 H8554 0.930 . S
C8547 C8546 1.394 . S
C8547 C8548 1.383 . S
C8547 H8555 0.929 . S
C8548 C8547 1.383 . S
C8548 C8549 1.377 . S
C8549 H8533 0.930 . S
C8549 C8548 1.377 . S
C8549 C8550 1.379 . S
C8550 H8534 0.931 . S
C8550 C8544 1.383 . S
C8550 C8549 1.379 . S
H8551 C8545 0.959 . S
H8552 C8545 0.961 . S
H8553 C8545 0.960 . S
H8554 C8546 0.930 . S
H8555 C8547 0.929 . S
H8556 C8564 0.929 . S
H8557 C8566 0.930 . S
H8558 C8568 0.930 . S
H8559 C8571 0.929 . S
H8560 C8574 0.930 . S
H8561 C8576 0.960 . S
H8562 C8576 0.960 . S
H8563 C8576 0.960 . S
C8564 H8556 0.929 . S
C8564 C8565 1.377 . S
C8564 C8566 1.384 . S
C8565 C8564 1.377 . S
C8565 C8571 1.390 . S
C8566 H8557 0.930 . S
C8566 C8564 1.384 . S
C8566 C8567 1.372 . S
C8567 C8566 1.372 . S
C8567 C8568 1.400 . S
C8567 C8572 1.490 . S
C8568 H8558 0.930 . S
C8568 C8567 1.400 . S
C8568 C8571 1.386 . S
H8569 C8585 0.930 . S
H8570 C8586 0.931 . S
C8571 H8559 0.929 . S
C8571 C8565 1.390 . S
C8571 C8568 1.386 . S
C8572 C8567 1.490 . S
C8572 C8574 1.395 . S
C8572 C8575 1.403 . S
H8573 C8579 0.930 . S
C8574 H8560 0.930 . S
C8574 C8572 1.395 . S
C8574 C8577 1.403 . S
C8575 C8572 1.403 . S
C8575 C8576 1.524 . S
C8575 C8579 1.400 . S
C8576 H8561 0.960 . S
C8576 H8562 0.960 . S
C8576 H8563 0.960 . S
C8576 C8575 1.524 . S
C8577 C8574 1.403 . S
C8577 C8578 1.392 . S
C8577 C8581 1.495 . S
C8578 C8577 1.392 . S
C8578 C8579 1.385 . S
C8578 C8580 1.478 . S
C8579 H8573 0.930 . S
C8579 C8575 1.400 . S
C8579 C8578 1.385 . S
C8580 C8578 1.478 . S
C8580 C8582 1.381 . S
C8580 C8586 1.383 . S
C8581 C8577 1.495 . S
C8581 H8587 0.959 . S
C8581 H8588 0.961 . S
C8581 H8589 0.960 . S
C8582 C8580 1.381 . S
C8582 C8583 1.394 . S
C8582 H8590 0.930 . S
C8583 C8582 1.394 . S
C8583 C8584 1.383 . S
C8583 H8591 0.929 . S
C8584 C8583 1.383 . S
C8584 C8585 1.377 . S
C8585 H8569 0.930 . S
C8585 C8584 1.377 . S
C8585 C8586 1.379 . S
C8586 H8570 0.931 . S
C8586 C8580 1.383 . S
C8586 C8585 1.379 . S
H8587 C8581 0.959 . S
H8588 C8581 0.961 . S
H8589 C8581 0.960 . S
H8590 C8582 0.930 . S
H8591 C8583 0.929 . S
H8592 C8600 0.929 . S
H8593 C8602 0.930 . S
H8594 C8604 0.930 . S
H8595 C8607 0.929 . S
H8596 C8610 0.930 . S
H8597 C8612 0.960 . S
H8598 C8612 0.960 . S
H8599 C8612 0.960 . S
C8600 H8592 0.929 . S
C8600 C8601 1.377 . S
C8600 C8602 1.384 . S
C8601 C8600 1.377 . S
C8601 C8607 1.390 . S
C8602 H8593 0.930 . S
C8602 C8600 1.384 . S
C8602 C8603 1.372 . S
C8603 C8602 1.372 . S
C8603 C8604 1.400 . S
C8603 C8608 1.490 . S
C8604 H8594 0.930 . S
C8604 C8603 1.400 . S
C8604 C8607 1.386 . S
H8605 C8621 0.930 . S
H8606 C8622 0.931 . S
C8607 H8595 0.929 . S
C8607 C8601 1.390 . S
C8607 C8604 1.386 . S
C8608 C8603 1.490 . S
C8608 C8610 1.395 . S
C8608 C8611 1.403 . S
H8609 C8615 0.930 . S
C8610 H8596 0.930 . S
C8610 C8608 1.395 . S
C8610 C8613 1.403 . S
C8611 C8608 1.403 . S
C8611 C8612 1.524 . S
C8611 C8615 1.400 . S
C8612 H8597 0.960 . S
C8612 H8598 0.960 . S
C8612 H8599 0.960 . S
C8612 C8611 1.524 . S
C8613 C8610 1.403 . S
C8613 C8614 1.392 . S
C8613 C8617 1.495 . S
C8614 C8613 1.392 . S
C8614 C8615 1.385 . S
C8614 C8616 1.478 . S
C8615 H8609 0.930 . S
C8615 C8611 1.400 . S
C8615 C8614 1.385 . S
C8616 C8614 1.478 . S
C8616 C8618 1.381 . S
C8616 C8622 1.383 . S
C8617 C8613 1.495 . S
C8617 H8623 0.959 . S
C8617 H8624 0.961 . S
C8617 H8625 0.960 . S
C8618 C8616 1.381 . S
C8618 C8619 1.394 . S
C8618 H8626 0.930 . S
C8619 C8618 1.394 . S
C8619 C8620 1.383 . S
C8619 H8627 0.929 . S
C8620 C8619 1.383 . S
C8620 C8621 1.377 . S
C8621 H8605 0.930 . S
C8621 C8620 1.377 . S
C8621 C8622 1.379 . S
C8622 H8606 0.931 . S
C8622 C8616 1.383 . S
C8622 C8621 1.379 . S
H8623 C8617 0.959 . S
H8624 C8617 0.961 . S
H8625 C8617 0.960 . S
H8626 C8618 0.930 . S
H8627 C8619 0.929 . S
H8628 C8636 0.929 . S
H8629 C8638 0.930 . S
H8630 C8640 0.930 . S
H8631 C8643 0.929 . S
H8632 C8646 0.930 . S
H8633 C8648 0.960 . S
H8634 C8648 0.960 . S
H8635 C8648 0.960 . S
C8636 H8628 0.929 . S
C8636 C8637 1.377 . S
C8636 C8638 1.384 . S
C8637 C8636 1.377 . S
C8637 C8643 1.390 . S
C8638 H8629 0.930 . S
C8638 C8636 1.384 . S
C8638 C8639 1.372 . S
C8639 C8638 1.372 . S
C8639 C8640 1.400 . S
C8639 C8644 1.490 . S
C8640 H8630 0.930 . S
C8640 C8639 1.400 . S
C8640 C8643 1.386 . S
H8641 C8657 0.930 . S
H8642 C8658 0.931 . S
C8643 H8631 0.929 . S
C8643 C8637 1.390 . S
C8643 C8640 1.386 . S
C8644 C8639 1.490 . S
C8644 C8646 1.395 . S
C8644 C8647 1.403 . S
H8645 C8651 0.930 . S
C8646 H8632 0.930 . S
C8646 C8644 1.395 . S
C8646 C8649 1.403 . S
C8647 C8644 1.403 . S
C8647 C8648 1.524 . S
C8647 C8651 1.400 . S
C8648 H8633 0.960 . S
C8648 H8634 0.960 . S
C8648 H8635 0.960 . S
C8648 C8647 1.524 . S
C8649 C8646 1.403 . S
C8649 C8650 1.392 . S
C8649 C8653 1.495 . S
C8650 C8649 1.392 . S
C8650 C8651 1.385 . S
C8650 C8652 1.478 . S
C8651 H8645 0.930 . S
C8651 C8647 1.400 . S
C8651 C8650 1.385 . S
C8652 C8650 1.478 . S
C8652 C8654 1.381 . S
C8652 C8658 1.383 . S
C8653 C8649 1.495 . S
C8653 H8659 0.959 . S
C8653 H8660 0.961 . S
C8653 H8661 0.960 . S
C8654 C8652 1.381 . S
C8654 C8655 1.394 . S
C8654 H8662 0.930 . S
C8655 C8654 1.394 . S
C8655 C8656 1.383 . S
C8655 H8663 0.929 . S
C8656 C8655 1.383 . S
C8656 C8657 1.377 . S
C8657 H8641 0.930 . S
C8657 C8656 1.377 . S
C8657 C8658 1.379 . S
C8658 H8642 0.931 . S
C8658 C8652 1.383 . S
C8658 C8657 1.379 . S
H8659 C8653 0.959 . S
H8660 C8653 0.961 . S
H8661 C8653 0.960 . S
H8662 C8654 0.930 . S
H8663 C8655 0.929 . S
H8664 C8672 0.929 . S
H8665 C8674 0.930 . S
H8666 C8676 0.930 . S
H8667 C8679 0.929 . S
H8668 C8682 0.930 . S
H8669 C8684 0.960 . S
H8670 C8684 0.960 . S
H8671 C8684 0.960 . S
C8672 H8664 0.929 . S
C8672 C8673 1.377 . S
C8672 C8674 1.384 . S
C8673 C8672 1.377 . S
C8673 C8679 1.390 . S
C8674 H8665 0.930 . S
C8674 C8672 1.384 . S
C8674 C8675 1.372 . S
C8675 C8674 1.372 . S
C8675 C8676 1.400 . S
C8675 C8680 1.490 . S
C8676 H8666 0.930 . S
C8676 C8675 1.400 . S
C8676 C8679 1.386 . S
H8677 C8693 0.930 . S
H8678 C8694 0.931 . S
C8679 H8667 0.929 . S
C8679 C8673 1.390 . S
C8679 C8676 1.386 . S
C8680 C8675 1.490 . S
C8680 C8682 1.395 . S
C8680 C8683 1.403 . S
H8681 C8687 0.930 . S
C8682 H8668 0.930 . S
C8682 C8680 1.395 . S
C8682 C8685 1.403 . S
C8683 C8680 1.403 . S
C8683 C8684 1.524 . S
C8683 C8687 1.400 . S
C8684 H8669 0.960 . S
C8684 H8670 0.960 . S
C8684 H8671 0.960 . S
C8684 C8683 1.524 . S
C8685 C8682 1.403 . S
C8685 C8686 1.392 . S
C8685 C8689 1.495 . S
C8686 C8685 1.392 . S
C8686 C8687 1.385 . S
C8686 C8688 1.478 . S
C8687 H8681 0.930 . S
C8687 C8683 1.400 . S
C8687 C8686 1.385 . S
C8688 C8686 1.478 . S
C8688 C8690 1.381 . S
C8688 C8694 1.383 . S
C8689 C8685 1.495 . S
C8689 H8695 0.959 . S
C8689 H8696 0.961 . S
C8689 H8697 0.960 . S
C8690 C8688 1.381 . S
C8690 C8691 1.394 . S
C8690 H8698 0.930 . S
C8691 C8690 1.394 . S
C8691 C8692 1.383 . S
C8691 H8699 0.929 . S
C8692 C8691 1.383 . S
C8692 C8693 1.377 . S
C8693 H8677 0.930 . S
C8693 C8692 1.377 . S
C8693 C8694 1.379 . S
C8694 H8678 0.931 . S
C8694 C8688 1.383 . S
C8694 C8693 1.379 . S
H8695 C8689 0.959 . S
H8696 C8689 0.961 . S
H8697 C8689 0.960 . S
H8698 C8690 0.930 . S
H8699 C8691 0.929 . S
H8700 C8708 0.929 . S
H8701 C8710 0.930 . S
H8702 C8712 0.930 . S
H8703 C8715 0.929 . S
H8704 C8718 0.930 . S
H8705 C8720 0.960 . S
H8706 C8720 0.960 . S
H8707 C8720 0.960 . S
C8708 H8700 0.929 . S
C8708 C8709 1.377 . S
C8708 C8710 1.384 . S
C8709 C8708 1.377 . S
C8709 C8715 1.390 . S
C8710 H8701 0.930 . S
C8710 C8708 1.384 . S
C8710 C8711 1.372 . S
C8711 C8710 1.372 . S
C8711 C8712 1.400 . S
C8711 C8716 1.490 . S
C8712 H8702 0.930 . S
C8712 C8711 1.400 . S
C8712 C8715 1.386 . S
H8713 C8729 0.930 . S
H8714 C8730 0.931 . S
C8715 H8703 0.929 . S
C8715 C8709 1.390 . S
C8715 C8712 1.386 . S
C8716 C8711 1.490 . S
C8716 C8718 1.395 . S
C8716 C8719 1.403 . S
H8717 C8723 0.930 . S
C8718 H8704 0.930 . S
C8718 C8716 1.395 . S
C8718 C8721 1.403 . S
C8719 C8716 1.403 . S
C8719 C8720 1.524 . S
C8719 C8723 1.400 . S
C8720 H8705 0.960 . S
C8720 H8706 0.960 . S
C8720 H8707 0.960 . S
C8720 C8719 1.524 . S
C8721 C8718 1.403 . S
C8721 C8722 1.392 . S
C8721 C8725 1.495 . S
C8722 C8721 1.392 . S
C8722 C8723 1.385 . S
C8722 C8724 1.478 . S
C8723 H8717 0.930 . S
C8723 C8719 1.400 . S
C8723 C8722 1.385 . S
C8724 C8722 1.478 . S
C8724 C8726 1.381 . S
C8724 C8730 1.383 . S
C8725 C8721 1.495 . S
C8725 H8731 0.959 . S
C8725 H8732 0.961 . S
C8725 H8733 0.960 . S
C8726 C8724 1.381 . S
C8726 C8727 1.394 . S
C8726 H8734 0.930 . S
C8727 C8726 1.394 . S
C8727 C8728 1.383 . S
C8727 H8735 0.929 . S
C8728 C8727 1.383 . S
C8728 C8729 1.377 . S
C8729 H8713 0.930 . S
C8729 C8728 1.377 . S
C8729 C8730 1.379 . S
C8730 H8714 0.931 . S
C8730 C8724 1.383 . S
C8730 C8729 1.379 . S
H8731 C8725 0.959 . S
H8732 C8725 0.961 . S
H8733 C8725 0.960 . S
H8734 C8726 0.930 . S
H8735 C8727 0.929 . S
H8736 C8744 0.929 . S
H8737 C8746 0.930 . S
H8738 C8748 0.930 . S
H8739 C8751 0.929 . S
H8740 C8754 0.930 . S
H8741 C8756 0.960 . S
H8742 C8756 0.960 . S
H8743 C8756 0.960 . S
C8744 H8736 0.929 . S
C8744 C8745 1.377 . S
C8744 C8746 1.384 . S
C8745 C8744 1.377 . S
C8745 C8751 1.390 . S
C8746 H8737 0.930 . S
C8746 C8744 1.384 . S
C8746 C8747 1.372 . S
C8747 C8746 1.372 . S
C8747 C8748 1.400 . S
C8747 C8752 1.490 . S
C8748 H8738 0.930 . S
C8748 C8747 1.400 . S
C8748 C8751 1.386 . S
H8749 C8765 0.930 . S
H8750 C8766 0.931 . S
C8751 H8739 0.929 . S
C8751 C8745 1.390 . S
C8751 C8748 1.386 . S
C8752 C8747 1.490 . S
C8752 C8754 1.395 . S
C8752 C8755 1.403 . S
H8753 C8759 0.930 . S
C8754 H8740 0.930 . S
C8754 C8752 1.395 . S
C8754 C8757 1.403 . S
C8755 C8752 1.403 . S
C8755 C8756 1.524 . S
C8755 C8759 1.400 . S
C8756 H8741 0.960 . S
C8756 H8742 0.960 . S
C8756 H8743 0.960 . S
C8756 C8755 1.524 . S
C8757 C8754 1.403 . S
C8757 C8758 1.392 . S
C8757 C8761 1.495 . S
C8758 C8757 1.392 . S
C8758 C8759 1.385 . S
C8758 C8760 1.478 . S
C8759 H8753 0.930 . S
C8759 C8755 1.400 . S
C8759 C8758 1.385 . S
C8760 C8758 1.478 . S
C8760 C8762 1.381 . S
C8760 C8766 1.383 . S
C8761 C8757 1.495 . S
C8761 H8767 0.959 . S
C8761 H8768 0.961 . S
C8761 H8769 0.960 . S
C8762 C8760 1.381 . S
C8762 C8763 1.394 . S
C8762 H8770 0.930 . S
C8763 C8762 1.394 . S
C8763 C8764 1.383 . S
C8763 H8771 0.929 . S
C8764 C8763 1.383 . S
C8764 C8765 1.377 . S
C8765 H8749 0.930 . S
C8765 C8764 1.377 . S
C8765 C8766 1.379 . S
C8766 H8750 0.931 . S
C8766 C8760 1.383 . S
C8766 C8765 1.379 . S
H8767 C8761 0.959 . S
H8768 C8761 0.961 . S
H8769 C8761 0.960 . S
H8770 C8762 0.930 . S
H8771 C8763 0.929 . S
H8772 C8780 0.929 . S
H8773 C8782 0.930 . S
H8774 C8784 0.930 . S
H8775 C8787 0.929 . S
H8776 C8790 0.930 . S
H8777 C8792 0.960 . S
H8778 C8792 0.960 . S
H8779 C8792 0.960 . S
C8780 H8772 0.929 . S
C8780 C8781 1.377 . S
C8780 C8782 1.384 . S
C8781 C8780 1.377 . S
C8781 C8787 1.390 . S
C8782 H8773 0.930 . S
C8782 C8780 1.384 . S
C8782 C8783 1.372 . S
C8783 C8782 1.372 . S
C8783 C8784 1.400 . S
C8783 C8788 1.490 . S
C8784 H8774 0.930 . S
C8784 C8783 1.400 . S
C8784 C8787 1.386 . S
H8785 C8801 0.930 . S
H8786 C8802 0.931 . S
C8787 H8775 0.929 . S
C8787 C8781 1.390 . S
C8787 C8784 1.386 . S
C8788 C8783 1.490 . S
C8788 C8790 1.395 . S
C8788 C8791 1.403 . S
H8789 C8795 0.930 . S
C8790 H8776 0.930 . S
C8790 C8788 1.395 . S
C8790 C8793 1.403 . S
C8791 C8788 1.403 . S
C8791 C8792 1.524 . S
C8791 C8795 1.400 . S
C8792 H8777 0.960 . S
C8792 H8778 0.960 . S
C8792 H8779 0.960 . S
C8792 C8791 1.524 . S
C8793 C8790 1.403 . S
C8793 C8794 1.392 . S
C8793 C8797 1.495 . S
C8794 C8793 1.392 . S
C8794 C8795 1.385 . S
C8794 C8796 1.478 . S
C8795 H8789 0.930 . S
C8795 C8791 1.400 . S
C8795 C8794 1.385 . S
C8796 C8794 1.478 . S
C8796 C8798 1.381 . S
C8796 C8802 1.383 . S
C8797 C8793 1.495 . S
C8797 H8803 0.959 . S
C8797 H8804 0.961 . S
C8797 H8805 0.960 . S
C8798 C8796 1.381 . S
C8798 C8799 1.394 . S
C8798 H8806 0.930 . S
C8799 C8798 1.394 . S
C8799 C8800 1.383 . S
C8799 H8807 0.929 . S
C8800 C8799 1.383 . S
C8800 C8801 1.377 . S
C8801 H8785 0.930 . S
C8801 C8800 1.377 . S
C8801 C8802 1.379 . S
C8802 H8786 0.931 . S
C8802 C8796 1.383 . S
C8802 C8801 1.379 . S
H8803 C8797 0.959 . S
H8804 C8797 0.961 . S
H8805 C8797 0.960 . S
H8806 C8798 0.930 . S
H8807 C8799 0.929 . S
H8808 C8816 0.929 . S
H8809 C8818 0.930 . S
H8810 C8820 0.930 . S
H8811 C8823 0.929 . S
H8812 C8826 0.930 . S
H8813 C8828 0.960 . S
H8814 C8828 0.960 . S
H8815 C8828 0.960 . S
C8816 H8808 0.929 . S
C8816 C8817 1.377 . S
C8816 C8818 1.384 . S
C8817 C8816 1.377 . S
C8817 C8823 1.390 . S
C8818 H8809 0.930 . S
C8818 C8816 1.384 . S
C8818 C8819 1.372 . S
C8819 C8818 1.372 . S
C8819 C8820 1.400 . S
C8819 C8824 1.490 . S
C8820 H8810 0.930 . S
C8820 C8819 1.400 . S
C8820 C8823 1.386 . S
H8821 C8837 0.930 . S
H8822 C8838 0.931 . S
C8823 H8811 0.929 . S
C8823 C8817 1.390 . S
C8823 C8820 1.386 . S
C8824 C8819 1.490 . S
C8824 C8826 1.395 . S
C8824 C8827 1.403 . S
H8825 C8831 0.930 . S
C8826 H8812 0.930 . S
C8826 C8824 1.395 . S
C8826 C8829 1.403 . S
C8827 C8824 1.403 . S
C8827 C8828 1.524 . S
C8827 C8831 1.400 . S
C8828 H8813 0.960 . S
C8828 H8814 0.960 . S
C8828 H8815 0.960 . S
C8828 C8827 1.524 . S
C8829 C8826 1.403 . S
C8829 C8830 1.392 . S
C8829 C8833 1.495 . S
C8830 C8829 1.392 . S
C8830 C8831 1.385 . S
C8830 C8832 1.478 . S
C8831 H8825 0.930 . S
C8831 C8827 1.400 . S
C8831 C8830 1.385 . S
C8832 C8830 1.478 . S
C8832 C8834 1.381 . S
C8832 C8838 1.383 . S
C8833 C8829 1.495 . S
C8833 H8839 0.959 . S
C8833 H8840 0.961 . S
C8833 H8841 0.960 . S
C8834 C8832 1.381 . S
C8834 C8835 1.394 . S
C8834 H8842 0.930 . S
C8835 C8834 1.394 . S
C8835 C8836 1.383 . S
C8835 H8843 0.929 . S
C8836 C8835 1.383 . S
C8836 C8837 1.377 . S
C8837 H8821 0.930 . S
C8837 C8836 1.377 . S
C8837 C8838 1.379 . S
C8838 H8822 0.931 . S
C8838 C8832 1.383 . S
C8838 C8837 1.379 . S
H8839 C8833 0.959 . S
H8840 C8833 0.961 . S
H8841 C8833 0.960 . S
H8842 C8834 0.930 . S
H8843 C8835 0.929 . S
H8844 C8852 0.929 . S
H8845 C8854 0.930 . S
H8846 C8856 0.930 . S
H8847 C8859 0.929 . S
H8848 C8862 0.930 . S
H8849 C8864 0.960 . S
H8850 C8864 0.960 . S
H8851 C8864 0.960 . S
C8852 H8844 0.929 . S
C8852 C8853 1.377 . S
C8852 C8854 1.384 . S
C8853 C8852 1.377 . S
C8853 C8859 1.390 . S
C8854 H8845 0.930 . S
C8854 C8852 1.384 . S
C8854 C8855 1.372 . S
C8855 C8854 1.372 . S
C8855 C8856 1.400 . S
C8855 C8860 1.490 . S
C8856 H8846 0.930 . S
C8856 C8855 1.400 . S
C8856 C8859 1.386 . S
H8857 C8873 0.930 . S
H8858 C8874 0.931 . S
C8859 H8847 0.929 . S
C8859 C8853 1.390 . S
C8859 C8856 1.386 . S
C8860 C8855 1.490 . S
C8860 C8862 1.395 . S
C8860 C8863 1.403 . S
H8861 C8867 0.930 . S
C8862 H8848 0.930 . S
C8862 C8860 1.395 . S
C8862 C8865 1.403 . S
C8863 C8860 1.403 . S
C8863 C8864 1.524 . S
C8863 C8867 1.400 . S
C8864 H8849 0.960 . S
C8864 H8850 0.960 . S
C8864 H8851 0.960 . S
C8864 C8863 1.524 . S
C8865 C8862 1.403 . S
C8865 C8866 1.392 . S
C8865 C8869 1.495 . S
C8866 C8865 1.392 . S
C8866 C8867 1.385 . S
C8866 C8868 1.478 . S
C8867 H8861 0.930 . S
C8867 C8863 1.400 . S
C8867 C8866 1.385 . S
C8868 C8866 1.478 . S
C8868 C8870 1.381 . S
C8868 C8874 1.383 . S
C8869 C8865 1.495 . S
C8869 H8875 0.959 . S
C8869 H8876 0.961 . S
C8869 H8877 0.960 . S
C8870 C8868 1.381 . S
C8870 C8871 1.394 . S
C8870 H8878 0.930 . S
C8871 C8870 1.394 . S
C8871 C8872 1.383 . S
C8871 H8879 0.929 . S
C8872 C8871 1.383 . S
C8872 C8873 1.377 . S
C8873 H8857 0.930 . S
C8873 C8872 1.377 . S
C8873 C8874 1.379 . S
C8874 H8858 0.931 . S
C8874 C8868 1.383 . S
C8874 C8873 1.379 . S
H8875 C8869 0.959 . S
H8876 C8869 0.961 . S
H8877 C8869 0.960 . S
H8878 C8870 0.930 . S
H8879 C8871 0.929 . S
H8880 C8888 0.929 . S
H8881 C8890 0.930 . S
H8882 C8892 0.930 . S
H8883 C8895 0.929 . S
H8884 C8898 0.930 . S
H8885 C8900 0.960 . S
H8886 C8900 0.960 . S
H8887 C8900 0.960 . S
C8888 H8880 0.929 . S
C8888 C8889 1.377 . S
C8888 C8890 1.384 . S
C8889 C8888 1.377 . S
C8889 C8895 1.390 . S
C8890 H8881 0.930 . S
C8890 C8888 1.384 . S
C8890 C8891 1.372 . S
C8891 C8890 1.372 . S
C8891 C8892 1.400 . S
C8891 C8896 1.490 . S
C8892 H8882 0.930 . S
C8892 C8891 1.400 . S
C8892 C8895 1.386 . S
H8893 C8909 0.930 . S
H8894 C8910 0.931 . S
C8895 H8883 0.929 . S
C8895 C8889 1.390 . S
C8895 C8892 1.386 . S
C8896 C8891 1.490 . S
C8896 C8898 1.395 . S
C8896 C8899 1.403 . S
H8897 C8903 0.930 . S
C8898 H8884 0.930 . S
C8898 C8896 1.395 . S
C8898 C8901 1.403 . S
C8899 C8896 1.403 . S
C8899 C8900 1.524 . S
C8899 C8903 1.400 . S
C8900 H8885 0.960 . S
C8900 H8886 0.960 . S
C8900 H8887 0.960 . S
C8900 C8899 1.524 . S
C8901 C8898 1.403 . S
C8901 C8902 1.392 . S
C8901 C8905 1.495 . S
C8902 C8901 1.392 . S
C8902 C8903 1.385 . S
C8902 C8904 1.478 . S
C8903 H8897 0.930 . S
C8903 C8899 1.400 . S
C8903 C8902 1.385 . S
C8904 C8902 1.478 . S
C8904 C8906 1.381 . S
C8904 C8910 1.383 . S
C8905 C8901 1.495 . S
C8905 H8911 0.959 . S
C8905 H8912 0.961 . S
C8905 H8913 0.960 . S
C8906 C8904 1.381 . S
C8906 C8907 1.394 . S
C8906 H8914 0.930 . S
C8907 C8906 1.394 . S
C8907 C8908 1.383 . S
C8907 H8915 0.929 . S
C8908 C8907 1.383 . S
C8908 C8909 1.377 . S
C8909 H8893 0.930 . S
C8909 C8908 1.377 . S
C8909 C8910 1.379 . S
C8910 H8894 0.931 . S
C8910 C8904 1.383 . S
C8910 C8909 1.379 . S
H8911 C8905 0.959 . S
H8912 C8905 0.961 . S
H8913 C8905 0.960 . S
H8914 C8906 0.930 . S
H8915 C8907 0.929 . S
H8916 C8924 0.929 . S
H8917 C8926 0.930 . S
H8918 C8928 0.930 . S
H8919 C8931 0.929 . S
H8920 C8934 0.930 . S
H8921 C8936 0.960 . S
H8922 C8936 0.960 . S
H8923 C8936 0.960 . S
C8924 H8916 0.929 . S
C8924 C8925 1.377 . S
C8924 C8926 1.384 . S
C8925 C8924 1.377 . S
C8925 C8931 1.390 . S
C8926 H8917 0.930 . S
C8926 C8924 1.384 . S
C8926 C8927 1.372 . S
C8927 C8926 1.372 . S
C8927 C8928 1.400 . S
C8927 C8932 1.490 . S
C8928 H8918 0.930 . S
C8928 C8927 1.400 . S
C8928 C8931 1.386 . S
H8929 C8945 0.930 . S
H8930 C8946 0.931 . S
C8931 H8919 0.929 . S
C8931 C8925 1.390 . S
C8931 C8928 1.386 . S
C8932 C8927 1.490 . S
C8932 C8934 1.395 . S
C8932 C8935 1.403 . S
H8933 C8939 0.930 . S
C8934 H8920 0.930 . S
C8934 C8932 1.395 . S
C8934 C8937 1.403 . S
C8935 C8932 1.403 . S
C8935 C8936 1.524 . S
C8935 C8939 1.400 . S
C8936 H8921 0.960 . S
C8936 H8922 0.960 . S
C8936 H8923 0.960 . S
C8936 C8935 1.524 . S
C8937 C8934 1.403 . S
C8937 C8938 1.392 . S
C8937 C8941 1.495 . S
C8938 C8937 1.392 . S
C8938 C8939 1.385 . S
C8938 C8940 1.478 . S
C8939 H8933 0.930 . S
C8939 C8935 1.400 . S
C8939 C8938 1.385 . S
C8940 C8938 1.478 . S
C8940 C8942 1.381 . S
C8940 C8946 1.383 . S
C8941 C8937 1.495 . S
C8941 H8947 0.959 . S
C8941 H8948 0.961 . S
C8941 H8949 0.960 . S
C8942 C8940 1.381 . S
C8942 C8943 1.394 . S
C8942 H8950 0.930 . S
C8943 C8942 1.394 . S
C8943 C8944 1.383 . S
C8943 H8951 0.929 . S
C8944 C8943 1.383 . S
C8944 C8945 1.377 . S
C8945 H8929 0.930 . S
C8945 C8944 1.377 . S
C8945 C8946 1.379 . S
C8946 H8930 0.931 . S
C8946 C8940 1.383 . S
C8946 C8945 1.379 . S
H8947 C8941 0.959 . S
H8948 C8941 0.961 . S
H8949 C8941 0.960 . S
H8950 C8942 0.930 . S
H8951 C8943 0.929 . S
H8952 C8960 0.929 . S
H8953 C8962 0.930 . S
H8954 C8964 0.930 . S
H8955 C8967 0.929 . S
H8956 C8970 0.930 . S
H8957 C8972 0.960 . S
H8958 C8972 0.960 . S
H8959 C8972 0.960 . S
C8960 H8952 0.929 . S
C8960 C8961 1.377 . S
C8960 C8962 1.384 . S
C8961 C8960 1.377 . S
C8961 C8967 1.390 . S
C8962 H8953 0.930 . S
C8962 C8960 1.384 . S
C8962 C8963 1.372 . S
C8963 C8962 1.372 . S
C8963 C8964 1.400 . S
C8963 C8968 1.490 . S
C8964 H8954 0.930 . S
C8964 C8963 1.400 . S
C8964 C8967 1.386 . S
H8965 C8981 0.930 . S
H8966 C8982 0.931 . S
C8967 H8955 0.929 . S
C8967 C8961 1.390 . S
C8967 C8964 1.386 . S
C8968 C8963 1.490 . S
C8968 C8970 1.395 . S
C8968 C8971 1.403 . S
H8969 C8975 0.930 . S
C8970 H8956 0.930 . S
C8970 C8968 1.395 . S
C8970 C8973 1.403 . S
C8971 C8968 1.403 . S
C8971 C8972 1.524 . S
C8971 C8975 1.400 . S
C8972 H8957 0.960 . S
C8972 H8958 0.960 . S
C8972 H8959 0.960 . S
C8972 C8971 1.524 . S
C8973 C8970 1.403 . S
C8973 C8974 1.392 . S
C8973 C8977 1.495 . S
C8974 C8973 1.392 . S
C8974 C8975 1.385 . S
C8974 C8976 1.478 . S
C8975 H8969 0.930 . S
C8975 C8971 1.400 . S
C8975 C8974 1.385 . S
C8976 C8974 1.478 . S
C8976 C8978 1.381 . S
C8976 C8982 1.383 . S
C8977 C8973 1.495 . S
C8977 H8983 0.959 . S
C8977 H8984 0.961 . S
C8977 H8985 0.960 . S
C8978 C8976 1.381 . S
C8978 C8979 1.394 . S
C8978 H8986 0.930 . S
C8979 C8978 1.394 . S
C8979 C8980 1.383 . S
C8979 H8987 0.929 . S
C8980 C8979 1.383 . S
C8980 C8981 1.377 . S
C8981 H8965 0.930 . S
C8981 C8980 1.377 . S
C8981 C8982 1.379 . S
C8982 H8966 0.931 . S
C8982 C8976 1.383 . S
C8982 C8981 1.379 . S
H8983 C8977 0.959 . S
H8984 C8977 0.961 . S
H8985 C8977 0.960 . S
H8986 C8978 0.930 . S
H8987 C8979 0.929 . S
H8988 C8996 0.929 . S
H8989 C8998 0.930 . S
H8990 C9000 0.930 . S
H8991 C9003 0.929 . S
H8992 C9006 0.930 . S
H8993 C9008 0.960 . S
H8994 C9008 0.960 . S
H8995 C9008 0.960 . S
C8996 H8988 0.929 . S
C8996 C8997 1.377 . S
C8996 C8998 1.384 . S
C8997 C8996 1.377 . S
C8997 C9003 1.390 . S
C8998 H8989 0.930 . S
C8998 C8996 1.384 . S
C8998 C8999 1.372 . S
C8999 C8998 1.372 . S
C8999 C9000 1.400 . S
C8999 C9004 1.490 . S
C9000 H8990 0.930 . S
C9000 C8999 1.400 . S
C9000 C9003 1.386 . S
H9001 C9017 0.930 . S
H9002 C9018 0.931 . S
C9003 H8991 0.929 . S
C9003 C8997 1.390 . S
C9003 C9000 1.386 . S
C9004 C8999 1.490 . S
C9004 C9006 1.395 . S
C9004 C9007 1.403 . S
H9005 C9011 0.930 . S
C9006 H8992 0.930 . S
C9006 C9004 1.395 . S
C9006 C9009 1.403 . S
C9007 C9004 1.403 . S
C9007 C9008 1.524 . S
C9007 C9011 1.400 . S
C9008 H8993 0.960 . S
C9008 H8994 0.960 . S
C9008 H8995 0.960 . S
C9008 C9007 1.524 . S
C9009 C9006 1.403 . S
C9009 C9010 1.392 . S
C9009 C9013 1.495 . S
C9010 C9009 1.392 . S
C9010 C9011 1.385 . S
C9010 C9012 1.478 . S
C9011 H9005 0.930 . S
C9011 C9007 1.400 . S
C9011 C9010 1.385 . S
C9012 C9010 1.478 . S
C9012 C9014 1.381 . S
C9012 C9018 1.383 . S
C9013 C9009 1.495 . S
C9013 H9019 0.959 . S
C9013 H9020 0.961 . S
C9013 H9021 0.960 . S
C9014 C9012 1.381 . S
C9014 C9015 1.394 . S
C9014 H9022 0.930 . S
C9015 C9014 1.394 . S
C9015 C9016 1.383 . S
C9015 H9023 0.929 . S
C9016 C9015 1.383 . S
C9016 C9017 1.377 . S
C9017 H9001 0.930 . S
C9017 C9016 1.377 . S
C9017 C9018 1.379 . S
C9018 H9002 0.931 . S
C9018 C9012 1.383 . S
C9018 C9017 1.379 . S
H9019 C9013 0.959 . S
H9020 C9013 0.961 . S
H9021 C9013 0.960 . S
H9022 C9014 0.930 . S
H9023 C9015 0.929 . S
C3849 C2 1.508 . S
C3868 C3221 1.492 . S
C3885 C42 1.508 . S
C3904 C1341 1.506 . S
C3921 C3301 1.493 . S
C3940 C82 1.500 . S
C3957 C1421 1.494 . S
C3976 C122 1.494 . S
C3993 C162 1.509 . S
C4012 C3381 1.500 . S
C4029 C202 1.507 . S
C4048 C1501 1.481 . S
C4065 C3461 1.495 . S
C4084 C242 1.508 . S
C4101 C1581 1.497 . S
C4120 C282 1.500 . S
C4137 C322 1.509 . S
C4156 C3541 1.508 . S
C4173 C362 1.509 . S
C4192 C3821 1.509 . S
C4209 C402 1.507 . S
C4228 C3741 1.505 . S
C4245 C442 1.509 . S
C4264 C3781 1.499 . S
C4281 C1661 1.496 . S
C4300 C482 1.497 . S
C4317 C522 1.506 . S
C4336 C3621 1.479 . S
C4353 C1741 1.494 . S
C4372 C562 1.504 . S
C4389 C1781 1.499 . S
C4408 C602 1.506 . S
C4425 C2901 1.493 . S
C4444 C642 1.493 . S
C4461 C1141 1.497 . S
C4480 C682 1.511 . S
C4497 C3101 1.498 . S
C4516 C722 1.506 . S
C4533 C762 1.505 . S
C4552 C1221 1.477 . S
C4569 C1261 1.497 . S
C4588 C802 1.513 . S
C4605 C842 1.508 . S
C4624 C2981 1.508 . S
C4641 C3021 1.499 . S
C4660 C882 1.512 . S
C4677 C922 1.507 . S
C4696 C2941 1.487 . S
C4713 C2261 1.508 . S
C4732 C962 1.495 . S
C4749 C381 1.511 . S
C4768 C1002 1.485 . S
C4785 C1042 1.495 . S
C4804 C2341 1.498 . S
C4821 C1082 1.495 . S
C4840 C461 1.513 . S
C4857 C1122 1.497 . S
C4876 C2421 1.498 . S
C4893 C541 1.511 . S
C4912 C1162 1.475 . S
C4929 C2501 1.511 . S
C4948 C1202 1.486 . S
C4965 C1242 1.492 . S
C4984 C621 1.502 . S
C5001 C2581 1.508 . S
C5020 C1282 1.489 . S
C5037 C2861 1.508 . S
C5056 C1322 1.503 . S
C5073 C2781 1.509 . S
C5092 C1362 1.477 . S
C5109 C1402 1.497 . S
C5128 C2821 1.506 . S
C5145 C701 1.508 . S
C5164 C1442 1.497 . S
C5181 C1482 1.492 . S
C5200 C2661 1.515 . S
C5217 C781 1.508 . S
C5236 C1522 1.507 . S
C5253 C821 1.511 . S
C5272 C1562 1.478 . S
C5289 C1941 1.509 . S
C5308 C1602 1.481 . S
C5325 C181 1.511 . S
C5344 C1642 1.475 . S
C5361 C2141 1.510 . S
C5380 C1682 1.474 . S
C5397 C261 1.508 . S
C5416 C1722 1.507 . S
C5433 C301 1.508 . S
C5452 C1762 1.500 . S
C5469 C2021 1.508 . S
C5488 C1802 1.499 . S
C5505 C2061 1.509 . S
C5524 C1842 1.477 . S
C5541 C1882 1.496 . S
C5560 C1981 1.511 . S
C5577 C1301 1.498 . S
C5596 C1922 1.514 . S
C5613 C1962 1.506 . S
C5632 C3261 1.477 . S
C5649 C1381 1.494 . S
C5668 C2002 1.502 . S
C5685 C3341 1.493 . S
C5704 C2042 1.495 . S
C5721 C2082 1.509 . S
C5740 C1461 1.506 . S
C5757 C3421 1.494 . S
C5776 C2122 1.494 . S
C5793 C1541 1.493 . S
C5812 C2162 1.496 . S
C5829 C2202 1.506 . S
C5848 C3501 1.494 . S
C5865 C2242 1.506 . S
C5884 C1621 1.479 . S
C5901 C2282 1.509 . S
C5920 C1901 1.507 . S
C5937 C2322 1.506 . S
C5956 C1821 1.478 . S
C5973 C1861 1.498 . S
C5992 C2362 1.505 . S
C6009 C3581 1.498 . S
C6028 C2402 1.504 . S
C6045 C2442 1.507 . S
C6064 C1701 1.485 . S
C6081 C2482 1.505 . S
C6100 C3661 1.483 . S
C6117 C3701 1.499 . S
C6136 C2522 1.508 . S
C6153 C2562 1.509 . S
C6172 C981 1.509 . S
C6189 C2602 1.505 . S
C6208 C3061 1.480 . S
C6225 C1181 1.493 . S
C6244 C2642 1.493 . S
C6261 C3141 1.494 . S
C6280 C2682 1.494 . S
C6297 C3181 1.499 . S
C6316 C2722 1.514 . S
C6333 C1061 1.497 . S
C6352 C2762 1.513 . S
C6369 C1101 1.499 . S
C6388 C2802 1.514 . S
C6405 C2842 1.506 . S
C6424 C1021 1.479 . S
C6441 C341 1.511 . S
C6460 C2882 1.498 . S
C6477 C2301 1.508 . S
C6496 C2922 1.491 . S
C6513 C2962 1.498 . S
C6532 C421 1.500 . S
C6549 C3002 1.494 . S
C6568 C2381 1.514 . S
C6585 C501 1.511 . S
C6604 C3042 1.476 . S
C6621 C3082 1.492 . S
C6640 C2461 1.503 . S
C6657 C581 1.509 . S
C6676 C3122 1.477 . S
C6693 C2541 1.509 . S
C6712 C3162 1.479 . S
C6729 C3202 1.496 . S
C6748 C661 1.498 . S
C6765 C3242 1.495 . S
C6784 C941 1.498 . S
C6801 C861 1.509 . S
C6820 C3282 1.482 . S
C6837 C901 1.511 . S
C6856 C3322 1.498 . S
C6873 C2621 1.511 . S
C6892 C3362 1.485 . S
C6909 C741 1.511 . S
C6928 C3402 1.475 . S
C6945 C3442 1.497 . S
C6964 C2701 1.506 . S
C6981 C2741 1.511 . S
C7000 C3482 1.497 . S
C7017 C21 1.510 . S
C7036 C3522 1.475 . S
C7053 C3562 1.493 . S
C7072 C2101 1.515 . S
C7089 C221 1.511 . S
C7108 C3602 1.480 . S
C7125 C2181 1.508 . S
C7144 C3642 1.506 . S
C7161 C2221 1.511 . S
C7180 C3682 1.479 . S
C7197 C101 1.510 . S
C7216 C3722 1.475 . S
C7233 C3762 1.495 . S
C7252 C141 1.513 . S
C7269 C3802 1.498 . S
C7288 C61 1.503 . S
C7305 C375 1.510 . S
C7324 C15 1.506 . S
C7341 C415 1.510 . S
C7360 C55 1.506 . S
C7377 C455 1.510 . S
C7396 C95 1.506 . S
C7413 C335 1.510 . S
C7432 C135 1.507 . S
C7449 C615 1.510 . S
C7468 C175 1.506 . S
C7485 C495 1.510 . S
C7504 C215 1.508 . S
C7521 C255 1.510 . S
C7540 C535 1.507 . S
C7557 C575 1.510 . S
C7576 C295 1.505 . S
C7593 C655 1.510 . S
C7612 C735 1.508 . S
C7629 C2815 1.510 . S
C7648 C695 1.507 . S
C7665 C775 1.510 . S
C7684 C2855 1.505 . S
C7701 C2775 1.510 . S
C7720 C815 1.507 . S
C7737 C2735 1.510 . S
C7756 C855 1.506 . S
C7773 C895 1.510 . S
C7792 C2615 1.507 . S
C7809 C2695 1.510 . S
C7828 C935 1.506 . S
C7845 C975 1.510 . S
C7864 C1335 1.503 . S
C7881 C1015 1.509 . S
C7900 C1375 1.510 . S
C7917 C1415 1.509 . S
C7936 C1055 1.509 . S
C7953 C1295 1.509 . S
C7972 C1095 1.507 . S
C7989 C1575 1.510 . S
C8008 C1135 1.504 . S
C8025 C1455 1.510 . S
C8044 C1175 1.505 . S
C8061 C1215 1.509 . S
C8080 C1495 1.505 . S
C8097 C1535 1.510 . S
C8116 C1255 1.507 . S
C8133 C1695 1.510 . S
C8152 C1615 1.503 . S
C8169 C1655 1.510 . S
C8188 C3775 1.503 . S
C8205 C1735 1.509 . S
C8224 C3815 1.507 . S
C8241 C3735 1.509 . S
C8260 C1775 1.509 . S
C8277 C1815 1.510 . S
C8296 C3695 1.503 . S
C8313 C1855 1.509 . S
C8332 C3575 1.510 . S
C8349 C3655 1.509 . S
C8368 C1895 1.509 . S
C8385 C2295 1.510 . S
C8404 C1935 1.505 . S
C8421 C1975 1.510 . S
C8440 C2335 1.507 . S
C8457 C2015 1.510 . S
C8476 C2375 1.507 . S
C8493 C2255 1.510 . S
C8512 C2055 1.505 . S
C8529 C2535 1.510 . S
C8548 C2095 1.505 . S
C8565 C2415 1.510 . S
C8584 C2135 1.506 . S
C8601 C2175 1.510 . S
C8620 C2455 1.506 . S
C8637 C2215 1.510 . S
C8656 C2495 1.507 . S
C8673 C2575 1.510 . S
C8692 C2655 1.505 . S
C8709 C3255 1.510 . S
C8728 C2895 1.506 . S
C8745 C2935 1.510 . S
C8764 C3295 1.503 . S
C8781 C3335 1.510 . S
C8800 C2975 1.503 . S
C8817 C3215 1.510 . S
C8836 C3015 1.503 . S
C8853 C3495 1.509 . S
C8872 C3055 1.509 . S
C8889 C3375 1.509 . S
C8908 C3095 1.505 . S
C8925 C3415 1.509 . S
C8944 C3135 1.508 . S
C8961 C3455 1.510 . S
C8980 C3175 1.505 . S
C8997 C3535 1.510 . S
C9016 C3615 1.508 . S
