# Generated by pormake.
# Topology unl, (4)-cn, num edge types: 1
# Building blocks:
#     Node 0, Type 0, BuildingBlock: QUQFOY_clean_sbu_3, # of connection points: 4
#     Node 1, Type 0, BuildingBlock: QUQFOY_clean_sbu_3, # of connection points: 4
#     Node 2, Type 0, BuildingBlock: QUQFOY_clean_sbu_3, # of connection points: 4
#     Node 3, Type 0, BuildingBlock: QUQFOY_clean_sbu_3, # of connection points: 4
#     Node 4, Type 0, BuildingBlock: QUQFOY_clean_sbu_3, # of connection points: 4
#     Node 5, Type 0, BuildingBlock: QUQFOY_clean_sbu_3, # of connection points: 4
#     Node 6, Type 0, BuildingBlock: QUQFOY_clean_sbu_3, # of connection points: 4
#     Node 7, Type 0, BuildingBlock: QUQFOY_clean_sbu_3, # of connection points: 4
#     Node 8, Type 0, BuildingBlock: QUQFOY_clean_sbu_3, # of connection points: 4
#     Node 9, Type 0, BuildingBlock: QUQFOY_clean_sbu_3, # of connection points: 4
#     Node 10, Type 0, BuildingBlock: QUQFOY_clean_sbu_3, # of connection points: 4
#     Node 11, Type 0, BuildingBlock: QUQFOY_clean_sbu_3, # of connection points: 4
#     Node 12, Type 0, BuildingBlock: QUQFOY_clean_sbu_3, # of connection points: 4
#     Node 13, Type 0, BuildingBlock: QUQFOY_clean_sbu_3, # of connection points: 4
#     Node 14, Type 0, BuildingBlock: QUQFOY_clean_sbu_3, # of connection points: 4
#     Node 15, Type 0, BuildingBlock: QUQFOY_clean_sbu_3, # of connection points: 4
#     Node 16, Type 0, BuildingBlock: QUQFOY_clean_sbu_3, # of connection points: 4
#     Node 17, Type 0, BuildingBlock: QUQFOY_clean_sbu_3, # of connection points: 4
#     Node 18, Type 0, BuildingBlock: QUQFOY_clean_sbu_3, # of connection points: 4
#     Node 19, Type 0, BuildingBlock: QUQFOY_clean_sbu_3, # of connection points: 4
#     Node 20, Type 0, BuildingBlock: QUQFOY_clean_sbu_3, # of connection points: 4
#     Node 21, Type 0, BuildingBlock: QUQFOY_clean_sbu_3, # of connection points: 4
#     Node 22, Type 0, BuildingBlock: QUQFOY_clean_sbu_3, # of connection points: 4
#     Node 23, Type 0, BuildingBlock: QUQFOY_clean_sbu_3, # of connection points: 4
#     Node 24, Type 0, BuildingBlock: QUQFOY_clean_sbu_3, # of connection points: 4
#     Node 25, Type 0, BuildingBlock: QUQFOY_clean_sbu_3, # of connection points: 4
#     Node 26, Type 0, BuildingBlock: QUQFOY_clean_sbu_3, # of connection points: 4
#     Node 27, Type 0, BuildingBlock: QUQFOY_clean_sbu_3, # of connection points: 4
#     Node 28, Type 0, BuildingBlock: QUQFOY_clean_sbu_3, # of connection points: 4
#     Node 29, Type 0, BuildingBlock: QUQFOY_clean_sbu_3, # of connection points: 4
#     Node 30, Type 0, BuildingBlock: QUQFOY_clean_sbu_3, # of connection points: 4
#     Node 31, Type 0, BuildingBlock: QUQFOY_clean_sbu_3, # of connection points: 4
#     Node 32, Type 0, BuildingBlock: QUQFOY_clean_sbu_3, # of connection points: 4
#     Node 33, Type 0, BuildingBlock: QUQFOY_clean_sbu_3, # of connection points: 4
#     Node 34, Type 0, BuildingBlock: QUQFOY_clean_sbu_3, # of connection points: 4
#     Node 35, Type 0, BuildingBlock: QUQFOY_clean_sbu_3, # of connection points: 4
#     Edge 36, Type (0, 0), BuildingBlock: MIFKUJ_clean_linker_0, # of connection points: 2
#     Edge 37, Type (0, 0), BuildingBlock: MIFKUJ_clean_linker_0, # of connection points: 2
#     Edge 38, Type (0, 0), BuildingBlock: MIFKUJ_clean_linker_0, # of connection points: 2
#     Edge 39, Type (0, 0), BuildingBlock: MIFKUJ_clean_linker_0, # of connection points: 2
#     Edge 40, Type (0, 0), BuildingBlock: MIFKUJ_clean_linker_0, # of connection points: 2
#     Edge 41, Type (0, 0), BuildingBlock: MIFKUJ_clean_linker_0, # of connection points: 2
#     Edge 42, Type (0, 0), BuildingBlock: MIFKUJ_clean_linker_0, # of connection points: 2
#     Edge 43, Type (0, 0), BuildingBlock: MIFKUJ_clean_linker_0, # of connection points: 2
#     Edge 44, Type (0, 0), BuildingBlock: MIFKUJ_clean_linker_0, # of connection points: 2
#     Edge 45, Type (0, 0), BuildingBlock: MIFKUJ_clean_linker_0, # of connection points: 2
#     Edge 46, Type (0, 0), BuildingBlock: MIFKUJ_clean_linker_0, # of connection points: 2
#     Edge 47, Type (0, 0), BuildingBlock: MIFKUJ_clean_linker_0, # of connection points: 2
#     Edge 48, Type (0, 0), BuildingBlock: MIFKUJ_clean_linker_0, # of connection points: 2
#     Edge 49, Type (0, 0), BuildingBlock: MIFKUJ_clean_linker_0, # of connection points: 2
#     Edge 50, Type (0, 0), BuildingBlock: MIFKUJ_clean_linker_0, # of connection points: 2
#     Edge 51, Type (0, 0), BuildingBlock: MIFKUJ_clean_linker_0, # of connection points: 2
#     Edge 52, Type (0, 0), BuildingBlock: MIFKUJ_clean_linker_0, # of connection points: 2
#     Edge 53, Type (0, 0), BuildingBlock: MIFKUJ_clean_linker_0, # of connection points: 2
#     Edge 54, Type (0, 0), BuildingBlock: MIFKUJ_clean_linker_0, # of connection points: 2
#     Edge 55, Type (0, 0), BuildingBlock: MIFKUJ_clean_linker_0, # of connection points: 2
#     Edge 56, Type (0, 0), BuildingBlock: MIFKUJ_clean_linker_0, # of connection points: 2
#     Edge 57, Type (0, 0), BuildingBlock: MIFKUJ_clean_linker_0, # of connection points: 2
#     Edge 58, Type (0, 0), BuildingBlock: MIFKUJ_clean_linker_0, # of connection points: 2
#     Edge 59, Type (0, 0), BuildingBlock: MIFKUJ_clean_linker_0, # of connection points: 2
#     Edge 60, Type (0, 0), BuildingBlock: MIFKUJ_clean_linker_0, # of connection points: 2
#     Edge 61, Type (0, 0), BuildingBlock: MIFKUJ_clean_linker_0, # of connection points: 2
#     Edge 62, Type (0, 0), BuildingBlock: MIFKUJ_clean_linker_0, # of connection points: 2
#     Edge 63, Type (0, 0), BuildingBlock: MIFKUJ_clean_linker_0, # of connection points: 2
#     Edge 64, Type (0, 0), BuildingBlock: MIFKUJ_clean_linker_0, # of connection points: 2
#     Edge 65, Type (0, 0), BuildingBlock: MIFKUJ_clean_linker_0, # of connection points: 2
#     Edge 66, Type (0, 0), BuildingBlock: MIFKUJ_clean_linker_0, # of connection points: 2
#     Edge 67, Type (0, 0), BuildingBlock: MIFKUJ_clean_linker_0, # of connection points: 2
#     Edge 68, Type (0, 0), BuildingBlock: MIFKUJ_clean_linker_0, # of connection points: 2
#     Edge 69, Type (0, 0), BuildingBlock: MIFKUJ_clean_linker_0, # of connection points: 2
#     Edge 70, Type (0, 0), BuildingBlock: MIFKUJ_clean_linker_0, # of connection points: 2
#     Edge 71, Type (0, 0), BuildingBlock: MIFKUJ_clean_linker_0, # of connection points: 2
#     Edge 72, Type (0, 0), BuildingBlock: MIFKUJ_clean_linker_0, # of connection points: 2
#     Edge 73, Type (0, 0), BuildingBlock: MIFKUJ_clean_linker_0, # of connection points: 2
#     Edge 74, Type (0, 0), BuildingBlock: MIFKUJ_clean_linker_0, # of connection points: 2
#     Edge 75, Type (0, 0), BuildingBlock: MIFKUJ_clean_linker_0, # of connection points: 2
#     Edge 76, Type (0, 0), BuildingBlock: MIFKUJ_clean_linker_0, # of connection points: 2
#     Edge 77, Type (0, 0), BuildingBlock: MIFKUJ_clean_linker_0, # of connection points: 2
#     Edge 78, Type (0, 0), BuildingBlock: MIFKUJ_clean_linker_0, # of connection points: 2
#     Edge 79, Type (0, 0), BuildingBlock: MIFKUJ_clean_linker_0, # of connection points: 2
#     Edge 80, Type (0, 0), BuildingBlock: MIFKUJ_clean_linker_0, # of connection points: 2
#     Edge 81, Type (0, 0), BuildingBlock: MIFKUJ_clean_linker_0, # of connection points: 2
#     Edge 82, Type (0, 0), BuildingBlock: MIFKUJ_clean_linker_0, # of connection points: 2
#     Edge 83, Type (0, 0), BuildingBlock: MIFKUJ_clean_linker_0, # of connection points: 2
#     Edge 84, Type (0, 0), BuildingBlock: MIFKUJ_clean_linker_0, # of connection points: 2
#     Edge 85, Type (0, 0), BuildingBlock: MIFKUJ_clean_linker_0, # of connection points: 2
#     Edge 86, Type (0, 0), BuildingBlock: MIFKUJ_clean_linker_0, # of connection points: 2
#     Edge 87, Type (0, 0), BuildingBlock: MIFKUJ_clean_linker_0, # of connection points: 2
#     Edge 88, Type (0, 0), BuildingBlock: MIFKUJ_clean_linker_0, # of connection points: 2
#     Edge 89, Type (0, 0), BuildingBlock: MIFKUJ_clean_linker_0, # of connection points: 2
#     Edge 90, Type (0, 0), BuildingBlock: MIFKUJ_clean_linker_0, # of connection points: 2
#     Edge 91, Type (0, 0), BuildingBlock: MIFKUJ_clean_linker_0, # of connection points: 2
#     Edge 92, Type (0, 0), BuildingBlock: MIFKUJ_clean_linker_0, # of connection points: 2
#     Edge 93, Type (0, 0), BuildingBlock: MIFKUJ_clean_linker_0, # of connection points: 2
#     Edge 94, Type (0, 0), BuildingBlock: MIFKUJ_clean_linker_0, # of connection points: 2
#     Edge 95, Type (0, 0), BuildingBlock: MIFKUJ_clean_linker_0, # of connection points: 2
#     Edge 96, Type (0, 0), BuildingBlock: MIFKUJ_clean_linker_0, # of connection points: 2
#     Edge 97, Type (0, 0), BuildingBlock: MIFKUJ_clean_linker_0, # of connection points: 2
#     Edge 98, Type (0, 0), BuildingBlock: MIFKUJ_clean_linker_0, # of connection points: 2
#     Edge 99, Type (0, 0), BuildingBlock: MIFKUJ_clean_linker_0, # of connection points: 2
#     Edge 100, Type (0, 0), BuildingBlock: MIFKUJ_clean_linker_0, # of connection points: 2
#     Edge 101, Type (0, 0), BuildingBlock: MIFKUJ_clean_linker_0, # of connection points: 2
#     Edge 102, Type (0, 0), BuildingBlock: MIFKUJ_clean_linker_0, # of connection points: 2
#     Edge 103, Type (0, 0), BuildingBlock: MIFKUJ_clean_linker_0, # of connection points: 2
#     Edge 104, Type (0, 0), BuildingBlock: MIFKUJ_clean_linker_0, # of connection points: 2
#     Edge 105, Type (0, 0), BuildingBlock: MIFKUJ_clean_linker_0, # of connection points: 2
#     Edge 106, Type (0, 0), BuildingBlock: MIFKUJ_clean_linker_0, # of connection points: 2
#     Edge 107, Type (0, 0), BuildingBlock: MIFKUJ_clean_linker_0, # of connection points: 2
# Relax obj value: 0.040
# Max RMSD: 0.120
# Mean RMSD: 0.120
data_MOF--net-unl--node1-QUQFOY_clean_sbu_3--edge1-MIFKUJ_clean_linker_0
_symmetry_space_group_name_H-M    P1
_symmetry_Int_Tables_number       1
_symmetry_cell_setting            triclinic
loop_
_symmetry_equiv_pos_as_xyz
'x, y, z'
_cell_length_a     85.887176
_cell_length_b     85.794599
_cell_length_c     53.549837
_cell_angle_alpha  89.966319
_cell_angle_beta   89.997275
_cell_angle_gamma 120.03306
loop_
_atom_site_label
_atom_site_type_symbol
_atom_site_fract_x
_atom_site_fract_y
_atom_site_fract_z
_atom_type_partial_charge
C0 C 0.1609 0.05993 0.10398 0.0
O1 O 0.14871 0.06258 0.11289 0.0
Cd2 Cd 0.15299 0.08928 0.13364 0.0
O3 O 0.17741 0.07212 0.10513 0.0
Cd4 Cd 0.19487 0.10341 0.12042 0.0
C5 C 0.17221 0.11814 0.08446 0.0
O6 O 0.17875 0.09952 0.15939 0.0
O7 O 0.19812 0.12679 0.14937 0.0
O8 O 0.21981 0.09921 0.13313 0.0
C9 C 0.18662 0.11609 0.16492 0.0
O10 O 0.15954 0.11106 0.10044 0.0
C11 C 0.23168 0.11298 0.12152 0.0
O12 O 0.18584 0.11602 0.08591 0.0
O13 O 0.22619 0.1216 0.10837 0.0
C14 C 0.93628 0.10163 0.11486 0.0
O15 O 0.93229 0.08604 0.12255 0.0
Cd16 Cd 0.90505 0.06424 0.14306 0.0
O17 O 0.92519 0.10732 0.11717 0.0
Cd18 Cd 0.89393 0.09453 0.13263 0.0
C19 C 0.87701 0.05793 0.09441 0.0
O20 O 0.89616 0.07999 0.1706 0.0
O21 O 0.86954 0.07383 0.15973 0.0
O22 O 0.89777 0.12308 0.1483 0.0
C23 C 0.87945 0.07182 0.17537 0.0
O24 O 0.88282 0.05078 0.10992 0.0
C25 C 0.88494 0.12221 0.13535 0.0
O26 O 0.8807 0.07421 0.09682 0.0
O27 O 0.87726 0.10913 0.12021 0.0
C28 C 0.88952 0.82372 0.08964 0.0
O29 O 0.90417 0.8349 0.10015 0.0
Cd30 Cd 0.9246 0.82789 0.12101 0.0
O31 O 0.88408 0.80691 0.09011 0.0
Cd32 Cd 0.89572 0.78774 0.10683 0.0
C33 C 0.93251 0.80874 0.07014 0.0
O34 O 0.90814 0.80223 0.14698 0.0
O35 O 0.91665 0.78407 0.13325 0.0
O36 O 0.86627 0.76388 0.12071 0.0
C37 C 0.9166 0.79387 0.15089 0.0
O38 O 0.93882 0.82108 0.08665 0.0
C39 C 0.8673 0.75143 0.10935 0.0
O40 O 0.91646 0.7956 0.07167 0.0
O41 O 0.88094 0.75617 0.09547 0.0
C42 C 0.05969 0.17873 0.39015 0.0
O43 O 0.05782 0.1656 0.37698 0.0
Cd44 Cd 0.08314 0.16371 0.36196 0.0
O45 O 0.0751 0.19267 0.39314 0.0
Cd46 Cd 0.10632 0.2056 0.37793 0.0
C47 C 0.10904 0.17585 0.4159 0.0
O48 O 0.1012 0.19012 0.33802 0.0
O49 O 0.12844 0.20387 0.35203 0.0
O50 O 0.10663 0.23293 0.36558 0.0
C51 C 0.11759 0.19475 0.3348 0.0
O52 O 0.09896 0.16384 0.40019 0.0
C53 C 0.12116 0.24347 0.37691 0.0
O54 O 0.11355 0.1923 0.4128 0.0
O55 O 0.12837 0.23628 0.3897 0.0
C56 C 0.81532 0.87727 0.38247 0.0
O57 O 0.82792 0.89047 0.37082 0.0
Cd58 Cd 0.8264 0.91506 0.35177 0.0
O59 O 0.79975 0.87564 0.38407 0.0
Cd60 Cd 0.78455 0.89214 0.36983 0.0
C61 C 0.81331 0.92858 0.40422 0.0
O62 O 0.79895 0.90283 0.32935 0.0
O63 O 0.78316 0.9142 0.34276 0.0
O64 O 0.75676 0.86482 0.35893 0.0
C65 C 0.79291 0.91342 0.32564 0.0
O66 O 0.82503 0.93214 0.38724 0.0
C67 C 0.74677 0.86857 0.37212 0.0
O68 O 0.79798 0.91428 0.40334 0.0
O69 O 0.75455 0.88273 0.38536 0.0
C70 C 0.09949 0.92497 0.38021 0.0
O71 O 0.08543 0.92418 0.37127 0.0
Cd72 Cd 0.05862 0.89628 0.36249 0.0
O73 O 0.10042 0.91069 0.38272 0.0
Cd74 Cd 0.08198 0.87814 0.37323 0.0
C75 C 0.05409 0.8751 0.41916 0.0
O76 O 0.06573 0.87841 0.33595 0.0
O77 O 0.05471 0.8532 0.35588 0.0
O78 O 0.10754 0.87842 0.35326 0.0
C79 C 0.05421 0.86174 0.33687 0.0
O80 O 0.04824 0.88215 0.40348 0.0
C81 C 0.10658 0.86548 0.36599 0.0
O82 O 0.0673 0.87291 0.41372 0.0
O83 O 0.09448 0.85879 0.38273 0.0
C84 C 0.81104 0.94147 0.8888 0.0
O85 O 0.8247 0.94439 0.87601 0.0
Cd86 Cd 0.8284 0.92129 0.85628 0.0
O87 O 0.79729 0.92574 0.88998 0.0
Cd88 Cd 0.78664 0.89547 0.87217 0.0
C89 C 0.81817 0.89276 0.9068 0.0
O90 O 0.80229 0.90308 0.83191 0.0
O91 O 0.7895 0.87529 0.8438 0.0
O92 O 0.75744 0.89139 0.86071 0.0
C93 C 0.7983 0.88699 0.82727 0.0
O94 O 0.8298 0.90381 0.89143 0.0
C95 C 0.74846 0.87671 0.87263 0.0
O96 O 0.80159 0.88796 0.90469 0.0
O97 O 0.75733 0.87134 0.88546 0.0
C98 C 0.0587 0.88076 0.87809 0.0
O99 O 0.05926 0.89417 0.86711 0.0
Cd100 Cd 0.08655 0.92081 0.85535 0.0
O101 O 0.07307 0.8802 0.88186 0.0
Cd102 Cd 0.1056 0.89819 0.8726 0.0
C103 C 0.10854 0.93024 0.9121 0.0
O104 O 0.10431 0.91133 0.83287 0.0
O105 O 0.13052 0.92208 0.84984 0.0
O106 O 0.10583 0.87134 0.85911 0.0
C107 C 0.12114 0.92208 0.83161 0.0
O108 O 0.10046 0.93416 0.89544 0.0
C109 C 0.11873 0.87374 0.87326 0.0
O110 O 0.11165 0.91734 0.90898 0.0
O111 O 0.12496 0.88715 0.88796 0.0
C112 C 0.10992 0.17647 0.88293 0.0
O113 O 0.09741 0.16267 0.87221 0.0
Cd114 Cd 0.0695 0.16002 0.85958 0.0
O115 O 0.10907 0.19083 0.88493 0.0
Cd116 Cd 0.0892 0.20261 0.87208 0.0
C117 C 0.06039 0.17421 0.91537 0.0
O118 O 0.07585 0.18527 0.83419 0.0
O119 O 0.06287 0.19894 0.85031 0.0
O120 O 0.11421 0.22978 0.85464 0.0
C121 C 0.06364 0.18944 0.83277 0.0
O122 O 0.05703 0.16163 0.89988 0.0
C123 C 0.11103 0.24055 0.86692 0.0
O124 O 0.07192 0.19052 0.91039 0.0
O125 O 0.09817 0.23363 0.88254 0.0
C126 C 0.93559 0.82728 0.61681 0.0
O127 O 0.93555 0.84113 0.62507 0.0
Cd128 Cd 0.90918 0.84238 0.63632 0.0
O129 O 0.92109 0.81211 0.61573 0.0
Cd130 Cd 0.88906 0.79914 0.62787 0.0
C131 C 0.88381 0.82396 0.583 0.0
O132 O 0.89249 0.81796 0.66401 0.0
O133 O 0.86558 0.80151 0.64976 0.0
O134 O 0.88776 0.77276 0.64725 0.0
C135 C 0.87586 0.81266 0.66596 0.0
O136 O 0.89245 0.83752 0.5973 0.0
C137 C 0.87437 0.76144 0.63449 0.0
O138 O 0.88147 0.80856 0.58899 0.0
O139 O 0.86839 0.76773 0.61798 0.0
C140 C 0.168 0.09686 0.59703 0.0
O141 O 0.15603 0.08207 0.60643 0.0
Cd142 Cd 0.16094 0.05934 0.62453 0.0
O143 O 0.18445 0.10093 0.59666 0.0
Cd144 Cd 0.20216 0.08675 0.60967 0.0
C145 C 0.17817 0.0507 0.57207 0.0
O146 O 0.18728 0.07452 0.64933 0.0
O147 O 0.20547 0.06571 0.63698 0.0
O148 O 0.22705 0.11578 0.62252 0.0
C149 C 0.195 0.06553 0.65377 0.0
O150 O 0.16597 0.04494 0.58876 0.0
C151 C 0.23892 0.11412 0.61059 0.0
O152 O 0.1922 0.06618 0.57392 0.0
O153 O 0.23345 0.10019 0.59706 0.0
C154 C 0.88149 0.05796 0.59998 0.0
O155 O 0.89529 0.05881 0.61006 0.0
Cd156 Cd 0.91977 0.08524 0.62873 0.0
O157 O 0.87911 0.07147 0.60031 0.0
Cd158 Cd 0.89466 0.10236 0.61707 0.0
C159 C 0.9299 0.11374 0.57867 0.0
O160 O 0.90707 0.09788 0.6557 0.0
O161 O 0.91719 0.12534 0.64389 0.0
O162 O 0.86708 0.10089 0.63158 0.0
C163 C 0.91704 0.11454 0.66013 0.0
O164 O 0.93511 0.10593 0.59402 0.0
C165 C 0.8698 0.11488 0.61973 0.0
O166 O 0.91494 0.11322 0.58154 0.0
O167 O 0.88353 0.1223 0.60566 0.0
C168 C 0.83652 0.39101 0.44073 0.0
O169 O 0.82444 0.39285 0.45182 0.0
Cd170 Cd 0.82888 0.41927 0.47395 0.0
O171 O 0.85293 0.40348 0.4415 0.0
Cd172 Cd 0.87082 0.43371 0.46015 0.0
C173 C 0.84848 0.44962 0.42592 0.0
O174 O 0.85479 0.42973 0.49948 0.0
O175 O 0.87418 0.45691 0.48882 0.0
O176 O 0.8954 0.42924 0.47374 0.0
C177 C 0.86283 0.4464 0.50467 0.0
O178 O 0.83553 0.44166 0.44136 0.0
C179 C 0.90739 0.44269 0.46172 0.0
O180 O 0.86233 0.44785 0.42725 0.0
O181 O 0.90208 0.45113 0.44785 0.0
C182 C 0.59432 0.43722 0.43978 0.0
O183 O 0.59154 0.42251 0.44947 0.0
Cd184 Cd 0.56434 0.40005 0.46914 0.0
O185 O 0.58205 0.44145 0.43981 0.0
Cd186 Cd 0.55047 0.42762 0.45417 0.0
C187 C 0.53679 0.39048 0.4183 0.0
O188 O 0.55323 0.41528 0.49387 0.0
O189 O 0.52628 0.40657 0.48127 0.0
O190 O 0.55432 0.45652 0.4675 0.0
C191 C 0.53647 0.40622 0.49807 0.0
O192 O 0.54345 0.38491 0.43494 0.0
C193 C 0.54099 0.45497 0.45515 0.0
O194 O 0.53884 0.40624 0.41931 0.0
O195 O 0.53279 0.44119 0.44129 0.0
C196 C 0.55568 0.16327 0.43562 0.0
O197 O 0.57044 0.17527 0.44492 0.0
Cd198 Cd 0.59386 0.16988 0.45844 0.0
O199 O 0.55228 0.14707 0.43365 0.0
Cd200 Cd 0.56783 0.13008 0.44378 0.0
C201 C 0.60059 0.15419 0.40278 0.0
O202 O 0.58181 0.14347 0.48378 0.0
O203 O 0.59312 0.1297 0.46364 0.0
O204 O 0.54007 0.10506 0.46005 0.0
C205 C 0.59237 0.13715 0.48366 0.0
O206 O 0.60683 0.16602 0.41999 0.0
C207 C 0.54143 0.093 0.44816 0.0
O208 O 0.58537 0.13993 0.40524 0.0
O209 O 0.55451 0.09831 0.43303 0.0
C210 C 0.7269 0.50154 0.70606 0.0
O211 O 0.72971 0.48986 0.69566 0.0
Cd212 Cd 0.75677 0.49419 0.67635 0.0
O213 O 0.73908 0.51812 0.7065 0.0
Cd214 Cd 0.77063 0.53696 0.69194 0.0
C215 C 0.78349 0.51249 0.72823 0.0
O216 O 0.76799 0.52128 0.65347 0.0
O217 O 0.79488 0.54146 0.66333 0.0
O218 O 0.7675 0.56279 0.6802 0.0
C219 C 0.78458 0.52928 0.64824 0.0
O220 O 0.77622 0.49972 0.71241 0.0
C221 C 0.78036 0.57381 0.69403 0.0
O222 O 0.78256 0.52678 0.72569 0.0
O223 O 0.78792 0.56739 0.70764 0.0
C224 C 0.48774 0.22623 0.73109 0.0
O225 O 0.50007 0.24135 0.72302 0.0
Cd226 Cd 0.49594 0.26472 0.70523 0.0
O227 O 0.47125 0.22188 0.7293 0.0
Cd228 Cd 0.45402 0.23567 0.71285 0.0
C229 C 0.47337 0.26929 0.755 0.0
O230 O 0.47205 0.25092 0.67613 0.0
O231 O 0.45251 0.25836 0.68728 0.0
O232 O 0.43069 0.20748 0.69484 0.0
C233 C 0.46428 0.25989 0.67169 0.0
O234 O 0.48692 0.27652 0.74044 0.0
C235 C 0.41781 0.20822 0.70535 0.0
O236 O 0.46009 0.25368 0.75063 0.0
O237 O 0.42196 0.22112 0.72046 0.0
C238 C 0.76974 0.26754 0.7132 0.0
O239 O 0.75499 0.26487 0.70396 0.0
Cd240 Cd 0.73104 0.23586 0.69133 0.0
O241 O 0.77302 0.25465 0.71492 0.0
Cd242 Cd 0.75808 0.22241 0.70433 0.0
C243 C 0.72624 0.21391 0.74689 0.0
O244 O 0.74284 0.22158 0.66552 0.0
O245 O 0.73313 0.19628 0.68472 0.0
O246 O 0.78555 0.22479 0.68767 0.0
C247 C 0.73267 0.20462 0.66546 0.0
O248 O 0.7191 0.21901 0.7303 0.0
C249 C 0.78455 0.21199 0.70082 0.0
O250 O 0.74147 0.21518 0.74329 0.0
O251 O 0.77175 0.20478 0.71647 0.0
C252 C 0.48035 0.26778 0.21801 0.0
O253 O 0.49402 0.26865 0.2075 0.0
Cd254 Cd 0.49582 0.24326 0.19305 0.0
O255 O 0.46555 0.2529 0.21919 0.0
Cd256 Cd 0.45288 0.22138 0.20493 0.0
C257 C 0.48026 0.21822 0.24731 0.0
O258 O 0.47042 0.22584 0.16716 0.0
O259 O 0.45549 0.19869 0.18131 0.0
O260 O 0.42597 0.22036 0.18856 0.0
C261 C 0.46571 0.20938 0.1646 0.0
O262 O 0.49312 0.22757 0.23227 0.0
C263 C 0.41507 0.20606 0.20014 0.0
O264 O 0.46419 0.2143 0.24238 0.0
O265 O 0.42182 0.19945 0.21491 0.0
C266 C 0.72581 0.21756 0.20602 0.0
O267 O 0.72661 0.23116 0.19531 0.0
Cd268 Cd 0.75342 0.25723 0.18085 0.0
O269 O 0.73993 0.21637 0.20879 0.0
Cd270 Cd 0.77229 0.23422 0.19776 0.0
C271 C 0.77719 0.26782 0.23601 0.0
O272 O 0.76989 0.24664 0.15809 0.0
O273 O 0.79651 0.2585 0.17371 0.0
O274 O 0.77343 0.20769 0.18424 0.0
C275 C 0.78651 0.2579 0.15592 0.0
O276 O 0.76989 0.27227 0.21882 0.0
C277 C 0.7867 0.2107 0.19803 0.0
O278 O 0.77858 0.25376 0.23407 0.0
O279 O 0.79261 0.22415 0.21262 0.0
C280 C 0.78264 0.50955 0.23056 0.0
O281 O 0.76991 0.49575 0.22014 0.0
Cd282 Cd 0.7428 0.49357 0.20477 0.0
O283 O 0.78246 0.52431 0.2315 0.0
Cd284 Cd 0.76324 0.53628 0.21561 0.0
C285 C 0.73121 0.5094 0.25683 0.0
O286 O 0.75152 0.51845 0.17755 0.0
O287 O 0.73865 0.53322 0.18979 0.0
O288 O 0.78923 0.56312 0.1991 0.0
C289 C 0.73996 0.52322 0.17355 0.0
O290 O 0.72831 0.4964 0.24243 0.0
C291 C 0.78549 0.57411 0.20962 0.0
O292 O 0.74357 0.52544 0.25205 0.0
O293 O 0.77198 0.56749 0.22413 0.0
C294 C 0.60439 0.15824 0.94488 0.0
O295 O 0.60544 0.17119 0.95769 0.0
Cd296 Cd 0.57968 0.17122 0.97553 0.0
O297 O 0.58954 0.14352 0.94272 0.0
Cd298 Cd 0.5584 0.12918 0.95843 0.0
C299 C 0.55214 0.15846 0.92345 0.0
O300 O 0.56334 0.14417 -0.00113 0.0
O301 O 0.53592 0.12868 0.98585 0.0
O302 O 0.5585 0.10171 0.96947 0.0
C303 C 0.54674 0.13831 0.00279 0.0
O304 O 0.56161 0.1704 0.93961 0.0
C305 C 0.54418 0.09135 0.95758 0.0
O306 O 0.54959 0.14253 0.92507 0.0
O307 O 0.5371 0.09875 0.94498 0.0
C308 C 0.83605 0.44822 0.93267 0.0
O309 O 0.82258 0.43549 0.94369 0.0
Cd310 Cd 0.82249 0.40927 0.95989 0.0
O311 O 0.85087 0.44828 0.93142 0.0
Cd312 Cd 0.86439 0.43039 0.94551 0.0
C313 C 0.83642 0.39778 0.90595 0.0
O314 O 0.84851 0.4179 0.985 0.0
O315 O 0.86376 0.40637 0.96945 0.0
O316 O 0.89016 0.45792 0.96021 0.0
C317 C 0.85426 0.4069 0.98716 0.0
O318 O 0.82426 0.39443 0.92213 0.0
C319 C 0.90179 0.45524 0.94944 0.0
O320 O 0.8524 0.41086 0.9089 0.0
O321 O 0.89593 0.44135 0.93569 0.0
C322 C 0.55052 0.39301 0.94137 0.0
O323 O 0.56242 0.39059 0.95177 0.0
Cd324 Cd 0.59155 0.41552 0.96172 0.0
O325 O 0.55289 0.4088 0.93872 0.0
Cd326 Cd 0.57448 0.44008 0.95116 0.0
C327 C 0.60215 0.44023 0.90692 0.0
O328 O 0.58751 0.43521 0.98905 0.0
O329 O 0.60117 0.46191 0.9729 0.0
O330 O 0.54946 0.442 0.96856 0.0
C331 C 0.60005 0.45149 0.99045 0.0
O332 O 0.60469 0.43004 0.92165 0.0
C333 C 0.55318 0.45657 0.95753 0.0
O334 O 0.59122 0.44562 0.91254 0.0
O335 O 0.56657 0.46321 0.94279 0.0
C336 C 0.49201 0.71979 0.78505 0.0
O337 O 0.48037 0.72338 0.79369 0.0
Cd338 Cd 0.48516 0.75004 0.81502 0.0
O339 O 0.50877 0.73106 0.78704 0.0
Cd340 Cd 0.52712 0.76191 0.80379 0.0
C341 C 0.5071 0.77897 0.7669 0.0
O342 O 0.51017 0.7589 0.8415 0.0
O343 O 0.52994 0.78588 0.8314 0.0
O344 O 0.55207 0.75809 0.81834 0.0
C345 C 0.51776 0.77554 0.84647 0.0
O346 O 0.49419 0.77294 0.78252 0.0
C347 C 0.56387 0.77141 0.80587 0.0
O348 O 0.5197 0.77529 0.76865 0.0
O349 O 0.55829 0.77943 0.79167 0.0
C350 C 0.26483 0.76816 0.77077 0.0
O351 O 0.26114 0.75232 0.77658 0.0
Cd352 Cd 0.23194 0.72862 0.7889 0.0
O353 O 0.25275 0.7726 0.7717 0.0
Cd354 Cd 0.22052 0.75741 0.78225 0.0
C355 C 0.2097 0.7279 0.73568 0.0
O356 O 0.21903 0.73952 0.81858 0.0
O357 O 0.19402 0.73134 0.79941 0.0
O358 O 0.22386 0.7838 0.8041 0.0
C359 C 0.20205 0.72969 0.8182 0.0
O360 O 0.21384 0.71909 0.75081 0.0
C361 C 0.21132 0.78429 0.79219 0.0
O362 O 0.21262 0.74358 0.74104 0.0
O363 O 0.2038 0.77285 0.77483 0.0
C364 C 0.22494 0.49798 0.77899 0.0
O365 O 0.24034 0.50925 0.78752 0.0
Cd366 Cd 0.26215 0.50288 0.80548 0.0
O367 O 0.21944 0.48115 0.77934 0.0
Cd368 Cd 0.23175 0.46181 0.7925 0.0
C369 C 0.26761 0.48295 0.75358 0.0
O370 O 0.24611 0.47714 0.83101 0.0
O371 O 0.25302 0.45767 0.81814 0.0
O372 O 0.20265 0.43776 0.80731 0.0
C373 C 0.25474 0.46896 0.83469 0.0
O374 O 0.27494 0.49523 0.77005 0.0
C375 C 0.20314 0.42551 0.79458 0.0
O376 O 0.2514 0.47021 0.75578 0.0
O377 O 0.21646 0.43042 0.77999 0.0
C378 C 0.38289 0.83859 0.04566 0.0
O379 O 0.3817 0.82524 0.03371 0.0
Cd380 Cd 0.40478 0.82437 0.00934 0.0
O381 O 0.39722 0.85393 0.04478 0.0
Cd382 Cd 0.42721 0.86801 0.02479 0.0
C383 C 0.43672 0.83899 0.05603 0.0
O384 O 0.41871 0.85138 0.98588 0.0
O385 O 0.44704 0.86913 0.99159 0.0
O386 O 0.427 0.89569 0.01566 0.0
C387 C 0.43462 0.85753 0.97792 0.0
O388 O 0.42593 0.82658 0.04133 0.0
C389 C 0.44198 0.90585 0.02627 0.0
O390 O 0.43905 0.85487 0.0547 0.0
O391 O 0.44946 0.89823 0.03739 0.0
C392 C 0.14581 0.55178 0.05815 0.0
O393 O 0.1592 0.56491 0.04763 0.0
Cd394 Cd 0.15871 0.59112 0.03335 0.0
O395 O 0.13101 0.5517 0.06042 0.0
Cd396 Cd 0.11834 0.57094 0.04859 0.0
C397 C 0.1464 0.60284 0.0883 0.0
O398 O 0.13264 0.5819 0.00798 0.0
O399 O 0.12123 0.59662 0.02533 0.0
O400 O 0.09174 0.54386 0.03468 0.0
C401 C 0.12821 0.5939 0.00617 0.0
O402 O 0.15815 0.60671 0.07128 0.0
C403 C 0.08058 0.54735 0.04513 0.0
O404 O 0.13063 0.58932 0.08601 0.0
O405 O 0.08702 0.56151 0.05839 0.0
C406 C 0.44606 0.60099 0.04752 0.0
O407 O 0.43408 0.60188 0.0347 0.0
Cd408 Cd 0.40935 0.57593 0.01513 0.0
O409 O 0.44656 0.58643 0.04881 0.0
Cd410 Cd 0.43139 0.5558 0.03159 0.0
C411 C 0.3947 0.54685 0.06568 0.0
O412 O 0.4219 0.56145 0.9914 0.0
O413 O 0.411 0.53365 0.00196 0.0
O414 O 0.4604 0.55895 0.02177 0.0
C415 C 0.41192 0.54496 0.98598 0.0
O416 O 0.39188 0.55623 0.04976 0.0
C417 C 0.45722 0.54447 0.03261 0.0
O418 O 0.40866 0.54526 0.06431 0.0
O419 O 0.44227 0.5357 0.04393 0.0
C420 C 0.15489 0.6064 0.54571 0.0
O421 O 0.16843 0.60699 0.53523 0.0
Cd422 Cd 0.17051 0.58078 0.52615 0.0
O423 O 0.1407 0.59136 0.54987 0.0
Cd424 Cd 0.1287 0.55892 0.54117 0.0
C425 C 0.15785 0.55912 0.58339 0.0
O426 O 0.1446 0.56106 0.50244 0.0
O427 O 0.13142 0.53514 0.52075 0.0
O428 O 0.10109 0.55615 0.52471 0.0
C429 C 0.14028 0.54459 0.5022 0.0
O430 O 0.17 0.56773 0.56707 0.0
C431 C 0.09069 0.54278 0.53826 0.0
O432 O 0.14155 0.5547 0.57932 0.0
O433 O 0.09804 0.53745 0.55408 0.0
C434 C 0.38565 0.54587 0.55037 0.0
O435 O 0.3834 0.55783 0.53973 0.0
Cd436 Cd 0.40833 0.58649 0.5281 0.0
O437 O 0.40131 0.54779 0.55208 0.0
Cd438 Cd 0.43254 0.5686 0.53829 0.0
C439 C 0.43267 0.59606 0.58309 0.0
O440 O 0.42803 0.58239 0.50094 0.0
O441 O 0.45452 0.59584 0.51762 0.0
O442 O 0.43479 0.54404 0.51948 0.0
C443 C 0.44428 0.59505 0.50003 0.0
O444 O 0.42278 0.59897 0.56829 0.0
C445 C 0.44898 0.54725 0.53111 0.0
O446 O 0.438 0.58509 0.57732 0.0
O447 O 0.45517 0.56005 0.54685 0.0
C448 C 0.45454 0.85024 0.56941 0.0
O449 O 0.44348 0.83677 0.55655 0.0
Cd450 Cd 0.417 0.83432 0.53762 0.0
O451 O 0.45336 0.86446 0.5702 0.0
Cd452 Cd 0.43529 0.87656 0.55111 0.0
C453 C 0.40191 0.84781 0.58882 0.0
O454 O 0.42483 0.85971 0.51183 0.0
O455 O 0.41104 0.87336 0.52514 0.0
O456 O 0.46178 0.90352 0.53625 0.0
C457 C 0.4128 0.86397 0.50834 0.0
O458 O 0.40034 0.83564 0.57367 0.0
C459 C 0.45772 0.91442 0.54633 0.0
O460 O 0.41411 0.8642 0.58584 0.0
O461 O 0.44371 0.90767 0.55994 0.0
C462 C 0.26517 0.4909 0.25988 0.0
O463 O 0.26521 0.50424 0.27025 0.0
Cd464 Cd 0.23948 0.5033 0.28933 0.0
O465 O 0.25128 0.47526 0.26074 0.0
Cd466 Cd 0.22104 0.46064 0.28003 0.0
C467 C 0.20902 0.4837 0.24111 0.0
O468 O 0.22724 0.47879 0.31783 0.0
O469 O 0.19932 0.46109 0.30846 0.0
O470 O 0.22455 0.4359 0.2955 0.0
C471 C 0.21081 0.47226 0.32359 0.0
O472 O 0.21842 0.49728 0.25504 0.0
C473 C 0.20985 0.42367 0.28626 0.0
O474 O 0.20836 0.46874 0.24505 0.0
O475 O 0.20096 0.42874 0.27294 0.0
C476 C 0.49736 0.77022 0.25172 0.0
O477 O 0.48475 0.75515 0.25946 0.0
Cd478 Cd 0.48695 0.73319 0.2847 0.0
O479 O 0.51369 0.77551 0.25732 0.0
Cd480 Cd 0.52905 0.76181 0.28 0.0
C481 C 0.5112 0.72554 0.24141 0.0
O482 O 0.50903 0.74856 0.3159 0.0
O483 O 0.52867 0.7403 0.30999 0.0
O484 O 0.55329 0.79008 0.2972 0.0
C485 C 0.51635 0.73977 0.32357 0.0
O486 O 0.49716 0.71873 0.25502 0.0
C487 C 0.56575 0.78797 0.28791 0.0
O488 O 0.52402 0.74154 0.24498 0.0
O489 O 0.56097 0.77441 0.27385 0.0
C490 C 0.22463 0.7284 0.28531 0.0
O491 O 0.23824 0.7288 0.29532 0.0
Cd492 Cd 0.26343 0.75525 0.31256 0.0
O493 O 0.22287 0.7423 0.2854 0.0
Cd494 Cd 0.2388 0.77349 0.30179 0.0
C495 C 0.27329 0.78353 0.26195 0.0
O496 O 0.2515 0.76863 0.33965 0.0
O497 O 0.26117 0.79628 0.32944 0.0
O498 O 0.21081 0.77112 0.31647 0.0
C499 C 0.26156 0.78517 0.34465 0.0
O500 O 0.27781 0.77466 0.27642 0.0
C501 C 0.21286 0.7848 0.30444 0.0
O502 O 0.25921 0.78451 0.2662 0.0
O503 O 0.22669 0.7928 0.29062 0.0
H504 H 0.18205 0.04547 0.09217 0.0
H505 H 0.17418 0.01955 0.06519 0.0
H506 H 0.1206 0.01133 0.05649 0.0
H507 H 0.12811 0.03657 0.08429 0.0
H508 H 0.11836 0.98041 0.05758 0.0
H509 H 0.15591 0.03594 0.0134 0.0
H510 H 0.18315 0.06537 0.00615 0.0
H511 H 0.21522 0.03985 0.00355 0.0
H512 H 0.18818 0.01028 0.0111 0.0
H513 H 0.09487 0.94986 0.93267 0.0
H514 H 0.1049 0.96808 0.97065 0.0
H515 H 0.14561 0.95337 0.98167 0.0
H516 H 0.13539 0.93469 0.94387 0.0
H517 H 0.15676 0.99278 0.98256 0.0
H518 H 0.11547 0.93574 0.01973 0.0
H519 H 0.08647 0.90747 0.0234 0.0
H520 H 0.05941 0.93749 0.03533 0.0
H521 H 0.08822 0.96596 0.03135 0.0
C522 C 0.16852 0.03794 0.08479 0.0
C523 C 0.15575 0.04315 0.09013 0.0
C524 C 0.16406 0.02319 0.0693 0.0
C525 C 0.14692 0.01373 0.05834 0.0
C526 C 0.13392 0.0184 0.06467 0.0
C527 C 0.13825 0.0329 0.08053 0.0
C528 C 0.14274 -0.00021 0.03901 0.0
C529 C 0.12677 0.98315 0.04119 0.0
C530 C 0.15383 0.00321 0.01773 0.0
C531 C 0.17008 0.02095 0.01313 0.0
C532 C 0.1688 0.03663 0.01146 0.0
C533 C 0.18419 0.05333 0.00727 0.0
C534 C 0.20092 0.05449 0.00448 0.0
C535 C 0.20227 0.03894 0.00578 0.0
C536 C 0.18691 0.02221 0.01001 0.0
C537 C 0.10591 0.95042 0.94322 0.0
C538 C 0.11437 0.94088 0.93533 0.0
C539 C 0.11155 0.96076 0.96493 0.0
C540 C 0.1259 0.96193 0.97889 0.0
C541 C 0.13445 0.9525 0.9711 0.0
C542 C 0.12858 0.94185 0.9496 0.0
C543 C 0.1323 0.9737 0.00104 0.0
C544 C 0.14863 0.98994 -0.00072 0.0
C545 C 0.12134 0.9701 0.02236 0.0
C546 C 0.10401 0.95299 0.02506 0.0
C547 C 0.10332 0.93632 0.02294 0.0
C548 C 0.08692 0.92026 0.02512 0.0
C549 C 0.0711 0.92068 0.02955 0.0
C550 C 0.07167 0.93718 0.03189 0.0
C551 C 0.08804 0.95329 0.02971 0.0
H552 H 0.05841 0.90823 0.03121 0.0
H553 H 0.21282 0.06743 0.00123 0.0
H554 H 0.95322 0.13767 0.10404 0.0
H555 H 0.97884 0.15436 0.07602 0.0
H556 H 0.98231 0.10638 0.06463 0.0
H557 H 0.95738 0.08994 0.09344 0.0
H558 H 0.01439 0.1336 0.06362 0.0
H559 H 0.95842 0.11951 0.02427 0.0
H560 H 0.92979 0.1194 0.01973 0.0
H561 H 0.95842 0.1772 0.01749 0.0
H562 H 0.98722 0.17763 0.02233 0.0
H563 H 0.04331 0.14142 0.93812 0.0
H564 H 0.02655 0.13341 0.97732 0.0
H565 H 0.03896 0.18839 0.98658 0.0
H566 H 0.05593 0.1966 0.94728 0.0
H567 H 0.002 0.16222 0.99163 0.0
H568 H 0.05911 0.17388 0.02346 0.0
H569 H 0.08622 0.17092 0.02363 0.0
H570 H 0.05358 0.11397 0.03558 0.0
H571 H 0.02622 0.11653 0.03513 0.0
C572 C 0.95967 0.13079 0.09589 0.0
C573 C 0.95315 0.11244 0.10073 0.0
C574 C 0.97426 0.14031 0.0798 0.0
C575 C 0.98224 0.13152 0.06771 0.0
C576 C 0.97638 0.11348 0.07365 0.0
C577 C 0.96205 0.10406 0.0901 0.0
C578 C -0.00436 0.14051 0.04743 0.0
C579 C 0.01166 0.13984 0.04789 0.0
C580 C 0.99221 0.14883 0.02694 0.0
C581 C 0.97493 0.14861 0.02398 0.0
C582 C 0.95859 0.13219 0.02299 0.0
C583 C 0.94234 0.13207 0.02033 0.0
C584 C 0.94228 0.14829 0.01841 0.0
C585 C 0.95848 0.16465 0.01905 0.0
C586 C 0.97477 0.16485 0.02174 0.0
C587 C 0.04253 0.15184 0.9485 0.0
C588 C 0.05083 0.16962 0.93955 0.0
C589 C 0.03307 0.14726 0.97098 0.0
C590 C 0.03164 0.16035 0.98486 0.0
C591 C 0.04 0.17814 0.97612 0.0
C592 C 0.04969 0.1828 0.95374 0.0
C593 C 0.02053 0.15507 0.00775 0.0
C594 C 0.0049 0.15636 0.00768 0.0
C595 C 0.02411 0.14692 0.02821 0.0
C596 C 0.04059 0.1454 0.02918 0.0
C597 C 0.05769 0.16071 0.02604 0.0
C598 C 0.07311 0.15911 0.02622 0.0
C599 C 0.07162 0.14227 0.02967 0.0
C600 C 0.05471 0.12701 0.03299 0.0
C601 C 0.03925 0.12853 0.03282 0.0
H602 H 0.08357 0.14105 0.0297 0.0
H603 H 0.92968 0.14817 0.01635 0.0
H604 H 0.85218 0.90588 0.9247 0.0
H605 H 0.86214 0.89296 0.95726 0.0
H606 H 0.80761 0.84947 0.96696 0.0
H607 H 0.79744 0.8627 0.93491 0.0
H608 H 0.82289 0.85982 0.0106 0.0
H609 H 0.83897 0.84384 0.93396 0.0
H610 H 0.85223 0.84846 0.89188 0.0
H611 H 0.9048 0.88297 0.92232 0.0
H612 H 0.89182 0.87883 0.96455 0.0
H613 H 0.85504 0.80487 0.07158 0.0
H614 H 0.84066 0.81575 0.04217 0.0
H615 H 0.88808 0.8684 0.04278 0.0
H616 H 0.90239 0.85788 0.07244 0.0
H617 H 0.87441 0.85048 0.99332 0.0
H618 H 0.85603 0.86658 0.07046 0.0
H619 H 0.84141 0.85988 0.11179 0.0
H620 H 0.79116 0.82144 0.07851 0.0
H621 H 0.80557 0.82774 0.037 0.0
C622 C 0.8423 0.89357 0.93378 0.0
C623 C 0.82405 0.88522 0.9271 0.0
C624 C 0.84802 0.88616 0.95232 0.0
C625 C 0.83568 0.87003 0.96418 0.0
C626 C 0.81738 0.86188 0.95798 0.0
C627 C 0.81159 0.86944 0.93964 0.0
C628 C 0.84199 0.86169 0.98291 0.0
C629 C 0.83397 0.85753 0.00666 0.0
C630 C 0.85647 0.85869 0.97781 0.0
C631 C 0.86438 0.86114 0.95243 0.0
C632 C 0.85334 0.85253 0.93167 0.0
C633 C 0.86081 0.85505 0.90779 0.0
C634 C 0.87934 0.86602 0.90443 0.0
C635 C 0.89044 0.87448 0.92496 0.0
C636 C 0.88304 0.87205 0.94888 0.0
C637 C 0.86228 0.81884 0.06575 0.0
C638 C 0.87985 0.83051 0.07433 0.0
C639 C 0.85406 0.825 0.04898 0.0
C640 C 0.8634 0.84282 0.04033 0.0
C641 C 0.88073 0.85459 0.04928 0.0
C642 C 0.88882 0.84856 0.06633 0.0
C643 C 0.85555 0.84906 0.02096 0.0
C644 C 0.86325 0.85271 -0.00293 0.0
C645 C 0.84058 0.85122 0.02577 0.0
C646 C 0.83193 0.84747 0.05069 0.0
C647 C 0.84191 0.85656 0.07199 0.0
C648 C 0.83366 0.85287 0.09544 0.0
C649 C 0.81538 0.8402 0.09779 0.0
C650 C 0.80532 0.83123 0.07667 0.0
C651 C 0.81352 0.83486 0.05318 0.0
H652 H 0.80901 0.83737 0.11595 0.0
H653 H 0.8851 0.86794 0.88593 0.0
H654 H 0.9193 0.11967 0.53332 0.0
H655 H 0.93839 0.13437 0.49679 0.0
H656 H 0.98528 0.14474 0.53921 0.0
H657 H 0.96631 0.12962 0.5755 0.0
H658 H 0.98561 0.17536 0.50575 0.0
H659 H 0.97334 0.11235 0.50841 0.0
H660 H 0.95183 0.07968 0.50962 0.0
H661 H 0.92683 0.0839 0.4425 0.0
H662 H 0.94804 0.11667 0.44115 0.0
H663 H 0.06064 0.19184 0.43636 0.0
H664 H 0.03532 0.18431 0.46375 0.0
H665 H -0.00146 0.15425 0.40413 0.0
H666 H 0.02414 0.16066 0.37721 0.0
H667 H 0.98775 0.13499 0.44123 0.0
H668 H 0.00351 0.19577 0.43145 0.0
H669 H 0.02289 0.22874 0.42888 0.0
H670 H 0.03824 0.23043 0.50557 0.0
H671 H 0.01916 0.19745 0.50854 0.0
C672 C 0.9337 0.12522 0.53488 0.0
C673 C 0.94136 0.12343 0.55713 0.0
C674 C 0.94453 0.13362 0.51408 0.0
C675 C 0.96316 0.14065 0.51551 0.0
C676 C 0.9709 0.13945 0.53794 0.0
C677 C 0.96006 0.13071 0.55852 0.0
C678 C 0.97457 0.14806 0.4932 0.0
C679 C 0.98619 0.16667 0.49152 0.0
C680 C 0.97457 0.13666 0.47426 0.0
C681 C 0.9621 0.11695 0.47486 0.0
C682 C 0.96315 0.10632 0.49404 0.0
C683 C 0.95104 0.08779 0.49473 0.0
C684 C 0.93793 0.07973 0.4762 0.0
C685 C 0.93696 0.09017 0.45687 0.0
C686 C 0.94902 0.10871 0.45614 0.0
C687 C 0.04715 0.18396 0.42892 0.0
C688 C 0.0443 0.17682 0.40471 0.0
C689 C 0.03261 0.17976 0.44456 0.0
C690 C 0.01487 0.16894 0.436 0.0
C691 C 0.01205 0.16261 0.41126 0.0
C692 C 0.02665 0.16631 0.39584 0.0
C693 C -0.00042 0.16257 0.4538 0.0
C694 C 0.98709 0.14401 0.45481 0.0
C695 C -0.0015 0.17417 0.47174 0.0
C696 C 0.00992 0.19408 0.47017 0.0
C697 C 0.01109 0.20315 0.44774 0.0
C698 C 0.02202 0.22185 0.44622 0.0
C699 C 0.0318 0.23167 0.46704 0.0
C700 C 0.03064 0.22281 0.48946 0.0
C701 C 0.01973 0.20411 0.49109 0.0
H702 H 0.04026 0.24614 0.46582 0.0
H703 H 0.92855 0.06538 0.47678 0.0
H704 H 0.8477 0.87863 0.38678 0.0
H705 H 0.85584 0.86275 0.41707 0.0
H706 H 0.80065 0.83249 0.44164 0.0
H707 H 0.79242 0.84861 0.41166 0.0
H708 H 0.82186 0.8484 0.47954 0.0
H709 H 0.82151 0.81151 0.41328 0.0
H710 H 0.82841 0.80443 0.37155 0.0
H711 H 0.88484 0.8335 0.38848 0.0
H712 H 0.87831 0.84099 0.43019 0.0
H713 H 0.8634 0.798 0.54855 0.0
H714 H 0.8488 0.80141 0.51133 0.0
H715 H 0.8718 0.85801 0.52712 0.0
H716 H 0.88625 0.85476 0.56436 0.0
H717 H 0.86144 0.82215 0.4689 0.0
H718 H 0.84099 0.87027 0.51538 0.0
H719 H 0.83325 0.87638 0.5572 0.0
H720 H 0.81567 0.82195 0.57941 0.0
H721 H 0.82301 0.81542 0.5376 0.0
C722 C 0.83718 0.86831 0.39819 0.0
C723 C 0.81944 0.86508 0.39701 0.0
C724 C 0.84185 0.85914 0.41544 0.0
C725 C 0.82886 0.84641 0.43164 0.0
C726 C 0.81091 0.84229 0.42936 0.0
C727 C 0.80622 0.85151 0.41217 0.0
C728 C 0.83448 0.83933 0.45298 0.0
C729 C 0.83034 0.84246 0.47715 0.0
C730 C 0.8454 0.83142 0.44992 0.0
C731 C 0.84941 0.82689 0.42486 0.0
C732 C 0.8354 0.81651 0.40806 0.0
C733 C 0.83924 0.8124 0.3844 0.0
C734 C 0.85705 0.81853 0.37735 0.0
C735 C 0.87105 0.82876 0.39396 0.0
C736 C 0.86728 0.83291 0.41764 0.0
C737 C 0.86543 0.8112 0.54404 0.0
C738 C 0.87587 0.82608 0.55958 0.0
C739 C 0.85711 0.81311 0.52273 0.0
C740 C 0.85902 0.82989 0.51671 0.0
C741 C 0.86992 0.84487 0.53169 0.0
C742 C 0.87821 0.84298 0.55295 0.0
C743 C 0.84927 0.83182 0.49521 0.0
C744 C 0.85269 0.82779 0.47114 0.0
C745 C 0.8375 0.83873 0.4983 0.0
C746 C 0.83267 0.8424 0.52338 0.0
C747 C 0.83536 0.85957 0.52913 0.0
C748 C 0.83107 0.86311 0.55285 0.0
C749 C 0.82401 0.84958 0.57097 0.0
C750 C 0.82118 0.83244 0.56539 0.0
C751 C 0.82542 0.82881 0.54168 0.0
H752 H 0.82072 0.85238 0.5893 0.0
H753 H 0.85999 0.81533 0.35903 0.0
H754 H 0.10253 0.95821 0.37711 0.0
H755 H 0.12197 0.98463 0.40228 0.0
H756 H 0.14754 0.95676 0.43364 0.0
H757 H 0.12845 0.93045 0.40821 0.0
H758 H 0.11911 0.9834 0.45063 0.0
H759 H 0.18836 0.98631 0.45779 0.0
H760 H 0.20946 0.98298 0.43013 0.0
H761 H 0.18833 0.99688 0.36666 0.0
H762 H 0.16728 0.00056 0.39396 0.0
H763 H 0.15541 0.01468 0.56711 0.0
H764 H 0.14736 0.99701 0.52879 0.0
H765 H 0.18565 0.04388 0.48757 0.0
H766 H 0.19415 0.06166 0.52616 0.0
H767 H 0.18426 0.01313 0.47015 0.0
H768 H 0.14259 0.03327 0.48813 0.0
H769 H 0.12173 0.03799 0.51442 0.0
H770 H 0.08805 0.98083 0.52335 0.0
H771 H 0.10886 0.97578 0.49743 0.0
C772 C 0.11263 0.95787 0.38883 0.0
C773 C 0.11373 0.94211 0.39095 0.0
C774 C 0.12374 0.97299 0.40321 0.0
C775 C 0.13614 0.97265 0.41995 0.0
C776 C 0.13823 0.95744 0.42066 0.0
C777 C 0.12719 0.94233 0.40618 0.0
C778 C 0.14473 0.9868 0.43931 0.0
C779 C 0.1334 0.99003 0.45465 0.0
C780 C 0.16339 0.99561 0.44448 0.0
C781 C 0.17614 0.99358 0.42794 0.0
C782 C 0.18827 0.98875 0.43796 0.0
C783 C 0.20022 0.98678 0.42233 0.0
C784 C 0.20021 0.98967 0.39665 0.0
C785 C 0.18828 0.99458 0.38655 0.0
C786 C 0.17631 0.99658 0.40209 0.0
C787 C 0.16231 0.0212 0.54997 0.0
C788 C 0.17521 0.03962 0.54955 0.0
C789 C 0.15769 0.01108 0.52809 0.0
C790 C 0.16561 0.01925 0.50527 0.0
C791 C 0.17931 0.03737 0.50499 0.0
C792 C 0.18412 0.04749 0.52702 0.0
C793 C 0.1585 0.00913 0.48169 0.0
C794 C 0.17004 0.00666 0.46573 0.0
C795 C 0.14004 0.00118 0.47561 0.0
C796 C 0.12735 0.00416 0.49095 0.0
C797 C 0.13079 0.02172 0.49581 0.0
C798 C 0.11897 0.02445 0.51065 0.0
C799 C 0.10359 0.00972 0.52058 0.0
C800 C 0.09997 0.99223 0.51565 0.0
C801 C 0.11177 0.98942 0.50087 0.0
H802 H 0.09446 0.01187 0.53207 0.0
H803 H 0.20946 0.98813 0.38459 0.0
H804 H 0.87705 0.06955 0.04701 0.0
H805 H 0.86164 0.05102 0.01058 0.0
H806 H 0.83659 0.00374 0.05758 0.0
H807 H 0.85292 0.02211 0.09362 0.0
H808 H 0.84858 0.99599 0.02041 0.0
H809 H 0.81322 0.02439 0.02844 0.0
H810 H 0.80706 0.04942 0.0326 0.0
H811 H 0.83225 0.07058 0.96174 0.0
H812 H 0.83879 0.0458 0.95729 0.0
H813 H 0.79018 0.93752 0.92939 0.0
H814 H 0.79702 0.95953 0.96256 0.0
H815 H 0.84154 -0.00031 0.91966 0.0
H816 H 0.83508 0.97765 0.88646 0.0
H817 H 0.81756 0.01055 0.95398 0.0
H818 H 0.85575 0.98249 0.95138 0.0
H819 H 0.8588 0.95547 0.94758 0.0
H820 H 0.82402 0.93174 0.01083 0.0
H821 H 0.82054 0.95853 0.01469 0.0
C822 C 0.86807 0.05523 0.04952 0.0
C823 C 0.86622 0.0472 0.073 0.0
C824 C 0.85915 0.04464 0.02874 0.0
C825 C 0.84775 0.02594 0.03126 0.0
C826 C 0.84537 0.01809 0.05503 0.0
C827 C 0.85467 0.02858 0.07563 0.0
C828 C 0.83952 0.01431 0.00898 0.0
C829 C 0.84156 -0.00086 0.00622 0.0
C830 C 0.83054 0.01839 0.99005 0.0
C831 C 0.82664 0.03332 0.99264 0.0
C832 C 0.81757 0.03446 0.01383 0.0
C833 C 0.81399 0.04859 0.01622 0.0
C834 C 0.8193 0.06161 -0.00252 0.0
C835 C 0.82817 0.0605 0.97626 0.0
C836 C 0.83179 0.0464 0.97378 0.0
C837 C 0.80107 0.95118 0.92658 0.0
C838 C 0.81228 0.95578 0.90547 0.0
C839 C 0.80492 0.96374 0.94555 0.0
C840 C 0.8198 0.98113 0.9435 0.0
C841 C 0.82993 0.98631 0.92143 0.0
C842 C 0.82629 0.97368 0.90259 0.0
C843 C 0.8267 0.99256 0.96591 0.0
C844 C 0.82448 0.00758 0.96851 0.0
C845 C 0.83522 0.98823 0.98501 0.0
C846 C 0.83774 0.97239 0.98315 0.0
C847 C 0.84866 0.97145 0.96435 0.0
C848 C 0.85047 0.95619 0.9622 0.0
C849 C 0.84156 0.94187 0.97891 0.0
C850 C 0.83089 0.94283 -0.00212 0.0
C851 C 0.829 0.95804 6e-05 0.0
H852 H 0.84296 0.93006 0.97719 0.0
H853 H 0.81651 0.07254 -0.00063 0.0
H854 H 0.96873 0.83036 0.06527 0.0
H855 H 0.98652 0.83686 0.02723 0.0
H856 H 0.9394 0.79839 0.98677 0.0
H857 H 0.92146 0.79148 0.02505 0.0
H858 H 0.97047 0.79865 0.971 0.0
H859 H 0.95027 0.84098 0.98422 0.0
H860 H 0.94547 0.86256 0.00871 0.0
H861 H 0.00252 0.89618 0.01829 0.0
H862 H 0.00763 0.87467 0.99415 0.0
H863 H 0.0254 0.87734 0.87357 0.0
H864 H -0.00103 0.85863 0.89915 0.0
H865 H 0.02705 0.83462 0.93451 0.0
H866 H 0.05339 0.853 0.90874 0.0
H867 H 0.00018 0.86322 0.94747 0.0
H868 H -0.00255 0.79435 0.96045 0.0
H869 H 0.00111 0.77251 0.93486 0.0
H870 H 0.98745 0.79154 0.86888 0.0
H871 H 0.98344 0.8133 0.8941 0.0
C872 C 0.96217 0.82306 0.0484 0.0
C873 C 0.94363 0.81062 0.04806 0.0
C874 C 0.97236 0.82679 0.02668 0.0
C875 C 0.96417 0.81837 0.00413 0.0
C876 C 0.94593 0.80507 0.00401 0.0
C877 C 0.93571 0.80119 0.02586 0.0
C878 C 0.97438 0.82475 0.98051 0.0
C879 C 0.97694 0.81273 0.9657 0.0
C880 C 0.98233 0.84303 0.9733 0.0
C881 C 0.97932 0.85615 0.98749 0.0
C882 C 0.96178 0.85293 0.99165 0.0
C883 C 0.95901 0.86515 0.00547 0.0
C884 C 0.97368 0.88072 0.01508 0.0
C885 C 0.99116 0.88412 0.01084 0.0
C886 C 0.99401 0.87192 -0.00294 0.0
C887 C 0.0258 0.86773 0.8863 0.0
C888 C 0.04162 0.86688 0.88942 0.0
C889 C 0.01067 0.85704 0.9009 0.0
C890 C 0.01106 0.84529 0.91881 0.0
C891 C 0.02634 0.84342 0.92061 0.0
C892 C 0.04147 0.85405 0.90594 0.0
C893 C -0.00315 0.83727 0.93816 0.0
C894 C 0.99355 0.84905 0.95236 0.0
C895 C 0.98807 0.81877 0.94447 0.0
C896 C 0.99027 0.80556 0.92918 0.0
C897 C -0.00487 0.79382 0.9405 0.0
C898 C -0.00271 0.78146 0.92605 0.0
C899 C 0.99456 0.78067 0.90026 0.0
C900 C 0.98962 0.79221 0.88886 0.0
C901 C 0.98743 0.80458 0.90322 0.0
H902 H -0.00375 0.7711 0.8891 0.0
H903 H 0.9715 0.89016 0.02579 0.0
H904 H 0.1131 0.1465 0.88786 0.0
H905 H 0.1296 0.14107 0.92047 0.0
H906 H 0.15415 0.19652 0.94358 0.0
H907 H 0.13754 0.20215 0.91109 0.0
H908 H 0.17675 0.17945 0.9489 0.0
H909 H 0.12014 0.17322 0.97215 0.0
H910 H 0.08788 0.16301 0.96727 0.0
H911 H 0.07542 0.10793 0.96996 0.0
H912 H 0.10768 0.11783 0.97428 0.0
H913 H 0.1538 0.13625 0.08421 0.0
H914 H 0.14899 0.15142 0.04902 0.0
H915 H 0.18127 0.13769 0.00213 0.0
H916 H 0.18684 0.12325 0.03774 0.0
H917 H 0.13159 0.13763 0.0099 0.0
H918 H 0.1979 0.16556 0.95231 0.0
H919 H 0.23048 0.17916 0.9598 0.0
H920 H 0.22446 0.1969 0.03225 0.0
H921 H 0.19189 0.18363 0.02507 0.0
C922 C 0.12242 0.15773 0.89931 0.0
C923 C 0.12368 0.17467 0.89724 0.0
C924 C 0.13185 0.15458 0.91792 0.0
C925 C 0.1428 0.16833 0.93459 0.0
C926 C 0.1457 0.18575 0.93087 0.0
C927 C 0.13614 0.18891 0.91233 0.0
C928 C 0.14864 0.16371 0.95799 0.0
C929 C 0.16698 0.17031 0.96232 0.0
C930 C 0.13581 0.15233 0.97579 0.0
C931 C 0.11637 0.14627 0.97318 0.0
C932 C 0.11055 0.15893 0.97137 0.0
C933 C 0.09227 0.1532 0.96872 0.0
C934 C 0.07962 0.13483 0.96816 0.0
C935 C 0.08524 0.12216 0.97029 0.0
C936 C 0.10353 0.12782 0.97282 0.0
C937 C 0.16008 0.1367 0.06647 0.0
C938 C 0.17062 0.12851 0.06363 0.0
C939 C 0.15732 0.14536 0.04636 0.0
C940 C 0.16478 0.14576 0.02287 0.0
C941 C 0.17566 0.13791 0.02014 0.0
C942 C 0.17875 0.12956 0.04046 0.0
C943 C 0.15987 0.15301 0.00093 0.0
C944 C 0.14155 0.14685 -0.00327 0.0
C945 C 0.17281 0.16529 0.98381 0.0
C946 C 0.19242 0.17344 0.98822 0.0
C947 C 0.20354 0.17242 0.9698 0.0
C948 C 0.222 0.18006 0.974 0.0
C949 C 0.22953 0.18884 0.99651 0.0
C950 C 0.2186 0.19004 0.01485 0.0
C951 C 0.20014 0.18244 0.01075 0.0
H952 H 0.24382 0.19474 -0.00027 0.0
H953 H 0.06546 0.13043 0.96625 0.0
H954 H 0.9384 0.80677 0.58027 0.0
H955 H 0.96484 0.81427 0.55516 0.0
H956 H -0.00299 0.85992 0.60278 0.0
H957 H 0.97023 0.85298 0.62715 0.0
H958 H 0.00227 0.8712 0.55942 0.0
H959 H 0.00494 0.82282 0.59549 0.0
H960 H 0.99442 0.79222 0.61161 0.0
H961 H 0.97769 0.77049 0.53794 0.0
H962 H 0.98785 0.80091 0.5214 0.0
H963 H 0.06441 0.86238 0.45927 0.0
H964 H 0.05036 0.85436 0.50069 0.0
H965 H 0.01018 0.86717 0.47632 0.0
H966 H 0.02419 0.87546 0.43533 0.0
H967 H 0.01774 0.82945 0.51669 0.0
H968 H 1e-05 0.88702 0.52054 0.0
H969 H 0.01355 0.91875 0.50749 0.0
H970 H 0.066 0.9241 0.50813 0.0
H971 H 0.05282 0.89248 0.52154 0.0
C972 C 0.9512 0.81812 0.58581 0.0
C973 C 0.95222 0.82942 0.60547 0.0
C974 C 0.9664 0.82235 0.57151 0.0
C975 C 0.98304 0.83767 0.57704 0.0
C976 C 0.98434 0.84811 0.59799 0.0
C977 C 0.96904 0.84412 0.61194 0.0
C978 C -0.0019 0.84421 0.55882 0.0
C979 C 0.00582 0.86208 0.55041 0.0
C980 C 0.00327 0.83258 0.54743 0.0
C981 C -0.00287 0.81419 0.55721 0.0
C982 C -0.00108 0.81151 0.58273 0.0
C983 C 0.99303 0.79419 0.59195 0.0
C984 C 0.98538 0.77942 0.57582 0.0
C985 C 0.98363 0.78195 0.55042 0.0
C986 C 0.98949 0.79924 0.5411 0.0
C987 C 0.05259 0.8635 0.46277 0.0
C988 C 0.0455 0.8697 0.44404 0.0
C989 C 0.04458 0.85889 0.48642 0.0
C990 C 0.02943 0.86047 0.4917 0.0
C991 C 0.02212 0.86624 0.47284 0.0
C992 C 0.03011 0.87091 0.44934 0.0
C993 C 0.02088 0.85597 0.5167 0.0
C994 C 0.01446 0.83858 0.52627 0.0
C995 C 0.01736 0.86819 0.52975 0.0
C996 C 0.02539 0.88732 0.52195 0.0
C997 C 0.01445 0.89498 0.51806 0.0
C998 C 0.02206 0.91295 0.51056 0.0
C999 C 0.04062 0.92342 0.50695 0.0
C1000 C 0.05162 0.91596 0.51088 0.0
C1001 C 0.04408 0.89801 0.5184 0.0
H1002 H 0.04649 0.93732 0.50113 0.0
H1003 H 0.98082 0.76602 0.58299 0.0
H1004 H 0.13849 0.19716 0.44459 0.0
H1005 H 0.14989 0.18784 0.48022 0.0
H1006 H 0.10569 0.13349 0.47282 0.0
H1007 H 0.0944 0.14255 0.43697 0.0
H1008 H 0.11379 0.14862 0.52388 0.0
H1009 H 0.14193 0.14048 0.44963 0.0
H1010 H 0.16019 0.15114 0.41124 0.0
H1011 H 0.20494 0.19096 0.45355 0.0
H1012 H 0.18683 0.18069 0.49215 0.0
H1013 H 0.13439 0.08813 0.58166 0.0
H1014 H 0.12589 0.10611 0.55616 0.0
H1015 H 0.18051 0.15049 0.55862 0.0
H1016 H 0.18931 0.13214 0.58333 0.0
H1017 H 0.16977 0.14587 0.51359 0.0
H1018 H 0.14409 0.15152 0.58888 0.0
H1019 H 0.12647 0.14189 0.62787 0.0
H1020 H 0.07827 0.1091 0.58598 0.0
H1021 H 0.09563 0.11832 0.54674 0.0
C1022 C 0.13116 0.18325 0.45066 0.0
C1023 C 0.11561 0.17055 0.43796 0.0
C1024 C 0.13768 0.17798 0.47096 0.0
C1025 C 0.12859 0.16002 0.47903 0.0
C1026 C 0.11282 0.14743 0.46683 0.0
C1027 C 0.10647 0.15261 0.4463 0.0
C1028 C 0.13584 0.15403 0.49952 0.0
C1029 C 0.12599 0.14793 0.52175 0.0
C1030 C 0.1521 0.15383 0.49688 0.0
C1031 C 0.16296 0.15999 0.47369 0.0
C1032 C 0.1556 0.15164 0.4507 0.0
C1033 C 0.16594 0.15758 0.42891 0.0
C1034 C 0.18369 0.17177 0.42994 0.0
C1035 C 0.19117 0.18001 0.45277 0.0
C1036 C 0.18088 0.17413 0.4746 0.0
C1037 C 0.14456 0.10182 0.57717 0.0
C1038 C 0.16254 0.1087 0.58446 0.0
C1039 C 0.13964 0.11217 0.56269 0.0
C1040 C 0.15249 0.12979 0.55572 0.0
C1041 C 0.17035 0.13694 0.56378 0.0
C1042 C 0.17535 0.12646 0.57792 0.0
C1043 C 0.14752 0.13996 0.5381 0.0
C1044 C 0.15777 0.14686 0.51624 0.0
C1045 C 0.13175 0.14112 0.54129 0.0
C1046 C 0.1212 0.13555 0.56485 0.0
C1047 C 0.12975 0.14216 0.58798 0.0
C1048 C 0.11981 0.13679 0.61013 0.0
C1049 C 0.10127 0.12487 0.6094 0.0
C1050 C 0.09263 0.11833 0.58651 0.0
C1051 C 0.10252 0.12365 0.5643 0.0
H1052 H 0.09359 0.12073 0.62657 0.0
H1053 H 0.19168 0.17634 0.41306 0.0
H1054 H 0.87695 0.02412 0.60312 0.0
H1055 H 0.86108 -0.00052 0.5734 0.0
H1056 H 0.84377 0.03149 0.5325 0.0
H1057 H 0.85889 0.05579 0.56271 0.0
H1058 H 0.81895 -0.00211 0.5292 0.0
H1059 H 0.88307 0.03116 0.51659 0.0
H1060 H 0.91488 0.04421 0.52884 0.0
H1061 H 0.90587 0.99145 0.54627 0.0
H1062 H 0.87395 0.97811 0.53427 0.0
H1063 H 0.842 0.96259 0.40831 0.0
H1064 H 0.85019 0.98294 0.44384 0.0
H1065 H 0.80347 0.94329 0.48402 0.0
H1066 H 0.79494 0.92293 0.44822 0.0
H1067 H 0.85943 0.97973 0.4888 0.0
H1068 H 0.78949 0.96501 0.52438 0.0
H1069 H 0.75942 0.95601 0.50748 0.0
H1070 H 0.78273 0.97811 0.43601 0.0
H1071 H 0.81293 0.98745 0.45257 0.0
C1072 C 0.86941 0.02573 0.58811 0.0
C1073 C 0.86937 0.04197 0.58502 0.0
C1074 C 0.86041 0.01168 0.57109 0.0
C1075 C 0.85166 0.01384 0.55034 0.0
C1076 C 0.8505 0.02953 0.54828 0.0
C1077 C 0.8592 0.04345 0.56556 0.0
C1078 C 0.84531 0.00068 0.52953 0.0
C1079 C 0.82773 0.99379 0.52048 0.0
C1080 C 0.85693 0.99571 0.51769 0.0
C1081 C 0.87611 0.00367 0.52479 0.0
C1082 C 0.88786 0.02236 0.52317 0.0
C1083 C 0.90591 0.02981 0.53005 0.0
C1084 C 0.91237 0.01867 0.53842 0.0
C1085 C 0.90083 6e-05 0.53983 0.0
C1086 C 0.88277 0.99255 0.53296 0.0
C1087 C 0.8334 0.9582 0.42465 0.0
C1088 C 0.81784 0.94111 0.42547 0.0
C1089 C 0.83812 0.96985 0.44497 0.0
C1090 C 0.82743 0.96466 0.46657 0.0
C1091 C 0.8118 0.94767 0.46742 0.0
C1092 C 0.80697 0.93603 0.44697 0.0
C1093 C 0.83305 0.97692 0.48838 0.0
C1094 C 0.85053 0.98362 0.49767 0.0
C1095 C 0.82155 0.98222 0.49976 0.0
C1096 C 0.80344 0.97671 0.48965 0.0
C1097 C 0.78819 0.96797 0.50508 0.0
C1098 C 0.77112 0.96282 0.49555 0.0
C1099 C 0.76916 0.96642 0.47066 0.0
C1100 C 0.78426 0.97525 0.45526 0.0
C1101 C 0.80135 0.98045 0.46469 0.0
H1102 H 0.75593 0.96241 0.46333 0.0
H1103 H 0.92634 0.02446 0.54374 0.0
H1104 H 0.78794 0.30339 0.23999 0.0
H1105 H 0.79898 0.32233 0.27705 0.0
H1106 H 0.79204 0.27678 0.32029 0.0
H1107 H 0.78182 0.25796 0.2828 0.0
H1108 H 0.7841 0.32231 0.31735 0.0
H1109 H 0.82054 0.29059 0.36982 0.0
H1110 H 0.83723 0.27479 0.36035 0.0
H1111 H 0.85159 0.30015 0.28831 0.0
H1112 H 0.83519 0.31626 0.29748 0.0
H1113 H 0.8032 0.36104 0.43605 0.0
H1114 H 0.79354 0.33742 0.40454 0.0
H1115 H 0.84784 0.36176 0.37654 0.0
H1116 H 0.85772 0.38519 0.40832 0.0
H1117 H 0.83208 0.32618 0.37305 0.0
H1118 H 0.81837 0.37155 0.34939 0.0
H1119 H 0.80582 0.39163 0.35418 0.0
H1120 H 0.75264 0.34582 0.36059 0.0
H1121 H 0.76498 0.32542 0.35607 0.0
C1122 C 0.78887 0.29743 0.25737 0.0
C1123 C 0.78406 0.27921 0.25851 0.0
C1124 C 0.79514 0.30826 0.27858 0.0
C1125 C 0.79647 0.30106 0.30151 0.0
C1126 C 0.79152 0.28278 0.30275 0.0
C1127 C 0.7856 0.27201 0.28135 0.0
C1128 C 0.8026 0.31268 0.32409 0.0
C1129 C 0.79454 0.32305 0.32953 0.0
C1130 C 0.81644 0.31395 0.33987 0.0
C1131 C 0.82646 0.30445 0.33424 0.0
C1132 C 0.8273 0.29282 0.35199 0.0
C1133 C 0.8367 0.28381 0.34667 0.0
C1134 C 0.8454 0.28641 0.32371 0.0
C1135 C 0.84478 0.29809 0.30605 0.0
C1136 C 0.83542 0.30714 0.31128 0.0
C1137 C 0.81317 0.36119 0.42351 0.0
C1138 C 0.83119 0.37516 0.42449 0.0
C1139 C 0.80761 0.3477 0.40546 0.0
C1140 C 0.81991 0.34804 0.38788 0.0
C1141 C 0.83812 0.36126 0.38987 0.0
C1142 C 0.84372 0.37469 0.40803 0.0
C1143 C 0.81356 0.3357 0.36611 0.0
C1144 C 0.82151 0.32521 0.36092 0.0
C1145 C 0.80014 0.33484 0.3499 0.0
C1146 C 0.79261 0.34698 0.35271 0.0
C1147 C 0.80401 0.36576 0.35203 0.0
C1148 C 0.79693 0.3772 0.35466 0.0
C1149 C 0.77842 0.37002 0.35779 0.0
C1150 C 0.76697 0.35136 0.35822 0.0
C1151 C 0.774 0.33985 0.35561 0.0
H1152 H 0.77295 0.3789 0.35981 0.0
H1153 H 0.85266 0.27942 0.31962 0.0
H1154 H 0.60775 0.47193 0.42352 0.0
H1155 H 0.63445 0.48956 0.39768 0.0
H1156 H 0.64566 0.44582 0.3992 0.0
H1157 H 0.61953 0.4285 0.42575 0.0
H1158 H 0.67578 0.47578 0.40071 0.0
H1159 H 0.62224 0.45235 0.35013 0.0
H1160 H 0.59258 0.44781 0.33774 0.0
H1161 H 0.61545 0.50484 0.32813 0.0
H1162 H 0.64521 0.50972 0.34077 0.0
H1163 H 0.71286 0.47764 0.28179 0.0
H1164 H 0.69317 0.47093 0.31799 0.0
H1165 H 0.70386 0.52568 0.31853 0.0
H1166 H 0.72401 0.53268 0.28248 0.0
H1167 H 0.66544 0.49606 0.31873 0.0
H1168 H 0.72104 0.51711 0.36282 0.0
H1169 H 0.74988 0.51864 0.37215 0.0
H1170 H 0.72195 0.4624 0.39074 0.0
H1171 H 0.69294 0.46046 0.38116 0.0
C1172 C 0.61606 0.46619 0.41863 0.0
C1173 C 0.61142 0.44875 0.42648 0.0
C1174 C 0.63128 0.47625 0.40378 0.0
C1175 C 0.64187 0.46887 0.39606 0.0
C1176 C 0.63771 0.45181 0.40487 0.0
C1177 C 0.6227 0.44188 0.42002 0.0
C1178 C 0.65658 0.47826 0.37759 0.0
C1179 C 0.67349 0.4802 0.3828 0.0
C1180 C 0.65373 0.48432 0.35432 0.0
C1181 C 0.63588 0.48142 0.34671 0.0
C1182 C 0.6209 0.46393 0.34556 0.0
C1183 C 0.60409 0.46129 0.33846 0.0
C1184 C 0.60212 0.47603 0.33224 0.0
C1185 C 0.61698 0.49344 0.33302 0.0
C1186 C 0.63383 0.49615 0.34014 0.0
C1187 C 0.71113 0.4883 0.28969 0.0
C1188 C 0.71993 0.50568 0.2793 0.0
C1189 C 0.69995 0.48446 0.31041 0.0
C1190 C 0.69719 0.49784 0.32089 0.0
C1191 C 0.70595 0.51523 0.31067 0.0
C1192 C 0.71744 0.51919 0.29018 0.0
C1193 C 0.68437 0.49318 0.34176 0.0
C1194 C 0.66781 0.49205 0.33692 0.0
C1195 C 0.68739 0.48747 0.36509 0.0
C1196 C 0.70481 0.48862 0.37112 0.0
C1197 C 0.72105 0.50503 0.36872 0.0
C1198 C 0.73743 0.50598 0.37408 0.0
C1199 C 0.73775 0.49062 0.38199 0.0
C1200 C 0.72168 0.47429 0.38461 0.0
C1201 C 0.70526 0.47326 0.37925 0.0
H1202 H 0.75045 0.49139 0.38613 0.0
H1203 H 0.58909 0.47396 0.32674 0.0
H1204 H 0.51995 0.1418 0.4246 0.0
H1205 H 0.5012 0.15002 0.3998 0.0
H1206 H 0.54537 0.20467 0.39476 0.0
H1207 H 0.56372 0.19678 0.42059 0.0
H1208 H 0.51631 0.2059 0.3951 0.0
H1209 H 0.53685 0.17116 0.34939 0.0
H1210 H 0.54042 0.14486 0.34089 0.0
H1211 H 0.48306 0.11095 0.33639 0.0
H1212 H 0.47917 0.13705 0.34518 0.0
H1213 H 0.51224 0.23321 0.27182 0.0
H1214 H 0.51931 0.22263 0.3102 0.0
H1215 H 0.46458 0.17877 0.31451 0.0
H1216 H 0.45727 0.18946 0.27613 0.0
H1217 H 0.49289 0.16939 0.31796 0.0
H1218 H 0.47536 0.2093 0.35506 0.0
H1219 H 0.47585 0.2382 0.35851 0.0
H1220 H 0.53246 0.26537 0.37414 0.0
H1221 H 0.53238 0.23667 0.37042 0.0
C1222 C 0.52549 0.15564 0.41864 0.0
C1223 C 0.54337 0.16859 0.42424 0.0
C1224 C 0.5148 0.16032 0.40439 0.0
C1225 C 0.52203 0.17786 0.39481 0.0
C1226 C 0.53948 0.19104 0.40183 0.0
C1227 C 0.55 0.18649 0.41655 0.0
C1228 C 0.5123 0.18218 0.37557 0.0
C1229 C 0.51116 0.19788 0.37828 0.0
C1230 C 0.50542 0.17167 0.35362 0.0
C1231 C 0.50771 0.15599 0.34826 0.0
C1232 C 0.525 0.15807 0.34675 0.0
C1233 C 0.52708 0.14321 0.34187 0.0
C1234 C 0.51197 0.12623 0.33819 0.0
C1235 C 0.49475 0.1241 0.33931 0.0
C1236 C 0.4926 0.13891 0.34424 0.0
C1237 C 0.50168 0.22135 0.28097 0.0
C1238 C 0.48423 0.21208 0.27094 0.0
C1239 C 0.50571 0.21541 0.30295 0.0
C1240 C 0.49242 0.20001 0.31516 0.0
C1241 C 0.47495 0.19074 0.30533 0.0
C1242 C 0.47082 0.19686 0.2835 0.0
C1243 C 0.49725 0.19317 0.33741 0.0
C1244 C 0.49756 0.17707 0.33514 0.0
C1245 C 0.50388 0.20362 0.35934 0.0
C1246 C 0.50386 0.22081 0.3624 0.0
C1247 C 0.48793 0.22144 0.35916 0.0
C1248 C 0.48813 0.23779 0.36118 0.0
C1249 C 0.50417 0.2536 0.36659 0.0
C1250 C 0.52004 0.2531 0.37003 0.0
C1251 C 0.51991 0.23679 0.36802 0.0
H1252 H 0.50431 0.26626 0.36805 0.0
H1253 H 0.51361 0.11474 0.33441 0.0
H1254 H 0.61892 0.42484 0.88261 0.0
H1255 H 0.63746 0.43571 0.84512 0.0
H1256 H 0.62779 0.48039 0.8409 0.0
H1257 H 0.60859 0.46916 0.87797 0.0
H1258 H 0.62793 0.46879 0.79565 0.0
H1259 H 0.66723 0.48548 0.86559 0.0
H1260 H 0.67959 0.48138 0.90501 0.0
H1261 H 0.69195 0.44418 0.86897 0.0
H1262 H 0.67943 0.44786 0.8294 0.0
H1263 H 0.7143 0.52207 0.72787 0.0
H1264 H 0.68967 0.51184 0.7582 0.0
H1265 H 0.67781 0.45711 0.74863 0.0
H1266 H 0.70196 0.46698 0.71805 0.0
H1267 H 0.68901 0.4763 0.80057 0.0
H1268 H 0.64808 0.46038 0.73 0.0
H1269 H 0.63713 0.46723 0.69129 0.0
H1270 H 0.63013 0.50709 0.73009 0.0
H1271 H 0.64131 0.50065 0.76897 0.0
C1272 C 0.62065 0.43693 0.87363 0.0
C1273 C 0.61246 0.44626 0.88338 0.0
C1274 C 0.6313 0.44316 0.85225 0.0
C1275 C 0.63436 0.45911 0.84054 0.0
C1276 C 0.62569 0.46811 0.8497 0.0
C1277 C 0.61476 0.4617 0.87091 0.0
C1278 C 0.64709 0.46659 0.81928 0.0
C1279 C 0.64135 0.47063 0.79685 0.0
C1280 C 0.66466 0.46908 0.82081 0.0
C1281 C 0.67224 0.46683 0.84458 0.0
C1282 C 0.67246 0.47632 0.86611 0.0
C1283 C 0.67952 0.47409 0.88848 0.0
C1284 C 0.68652 0.46249 0.88951 0.0
C1285 C 0.68651 0.45314 0.86815 0.0
C1286 C 0.67945 0.4553 0.84574 0.0
C1287 C 0.70616 0.50781 0.73175 0.0
C1288 C 0.71021 0.49537 0.7207 0.0
C1289 C 0.6921 0.50201 0.74901 0.0
C1290 C 0.68206 0.48377 0.75555 0.0
C1291 C 0.68544 0.47124 0.74367 0.0
C1292 C 0.69925 0.47694 0.72618 0.0
C1293 C 0.66963 0.47798 0.77699 0.0
C1294 C 0.67556 0.47444 0.7995 0.0
C1295 C 0.65247 0.47634 0.77564 0.0
C1296 C 0.64576 0.4802 0.7523 0.0
C1297 C 0.64442 0.47076 0.73021 0.0
C1298 C 0.63811 0.47452 0.70825 0.0
C1299 C 0.633 0.48764 0.70821 0.0
C1300 C 0.63413 0.49697 0.73014 0.0
C1301 C 0.64044 0.49325 0.75214 0.0
H1302 H 0.62812 0.49053 0.69119 0.0
H1303 H 0.69198 0.46078 0.90684 0.0
H1304 H 0.46556 0.19562 0.75746 0.0
H1305 H 0.47466 0.18005 0.78721 0.0
H1306 H 0.53025 0.21521 0.76736 0.0
H1307 H 0.52133 0.23075 0.73745 0.0
H1308 H 0.52324 0.18099 0.77703 0.0
H1309 H 0.51224 0.22581 0.81375 0.0
H1310 H 0.49382 0.23974 0.82305 0.0
H1311 H 0.45598 0.19229 0.86286 0.0
H1312 H 0.47379 0.17775 0.85288 0.0
H1313 H 0.55457 0.19095 0.9144 0.0
H1314 H 0.54189 0.19915 0.87946 0.0
H1315 H 0.51857 0.14519 0.85029 0.0
H1316 H 0.53143 0.13688 0.88507 0.0
H1317 H 0.50813 0.18716 0.8646 0.0
H1318 H 0.51974 0.14797 0.78609 0.0
H1319 H 0.54025 0.13651 0.776 0.0
H1320 H 0.58155 0.17798 0.82106 0.0
H1321 H 0.56138 0.18982 0.83113 0.0
C1322 C 0.47969 0.19979 0.75898 0.0
C1323 C 0.49275 0.21463 0.74537 0.0
C1324 C 0.48486 0.19088 0.77603 0.0
C1325 C 0.50313 0.1967 0.77975 0.0
C1326 C 0.51607 0.21056 0.7648 0.0
C1327 C 0.51094 0.21949 0.7478 0.0
C1328 C 0.509 0.18981 0.80095 0.0
C1329 C 0.51978 0.18214 0.79617 0.0
C1330 C 0.5048 0.19173 0.82593 0.0
C1331 C 0.49424 0.20059 0.83228 0.0
C1332 C 0.49991 0.21826 0.82427 0.0
C1333 C 0.48958 0.22628 0.82969 0.0
C1334 C 0.47378 0.21694 0.84361 0.0
C1335 C 0.46823 0.19951 0.85207 0.0
C1336 C 0.47839 0.19134 0.84645 0.0
C1337 C 0.54675 0.18079 0.90059 0.0
C1338 C 0.54411 0.16328 0.90248 0.0
C1339 C 0.53944 0.18549 0.88067 0.0
C1340 C 0.5294 0.17282 0.8622 0.0
C1341 C 0.52647 0.15524 0.8642 0.0
C1342 C 0.5338 0.15051 0.88412 0.0
C1343 C 0.52229 0.17821 0.8407 0.0
C1344 C 0.51131 0.18568 0.84545 0.0
C1345 C 0.52665 0.17649 0.81574 0.0
C1346 C 0.53897 0.16962 0.80959 0.0
C1347 C 0.53322 0.15466 0.79378 0.0
C1348 C 0.54478 0.1481 0.78807 0.0
C1349 C 0.56217 0.15647 0.79796 0.0
C1350 C 0.56805 0.17146 0.8135 0.0
C1351 C 0.55655 0.17809 0.81923 0.0
H1352 H 0.57109 0.15137 0.79354 0.0
H1353 H 0.46585 0.2232 0.84786 0.0
H1354 H 0.85879 0.39863 0.86858 0.0
H1355 H 0.85048 0.37894 0.83197 0.0
H1356 H 0.79503 0.35158 0.85574 0.0
H1357 H 0.80318 0.37083 0.89237 0.0
H1358 H 0.80425 0.32803 0.8429 0.0
H1359 H 0.8096 0.3817 0.80759 0.0
H1360 H 0.82442 0.41407 0.79755 0.0
H1361 H 0.86559 0.4103 0.75713 0.0
H1362 H 0.85114 0.37794 0.76723 0.0
H1363 H 0.76698 0.29799 0.71398 0.0
H1364 H 0.78252 0.32348 0.74246 0.0
H1365 H 0.81514 0.30176 0.76918 0.0
H1366 H 0.79977 0.27626 0.74081 0.0
H1367 H 0.81804 0.35036 0.75559 0.0
H1368 H 0.81002 0.2999 0.83333 0.0
H1369 H 0.79097 0.26755 0.84298 0.0
H1370 H 0.74841 0.26525 0.79817 0.0
H1371 H 0.76703 0.29762 0.78875 0.0
C1372 C 0.84483 0.38844 0.86596 0.0
C1373 C 0.83167 0.38627 0.88346 0.0
C1374 C 0.84009 0.37725 0.84499 0.0
C1375 C 0.82212 0.36384 0.84109 0.0
C1376 C 0.80899 0.36177 0.85844 0.0
C1377 C 0.81369 0.37284 0.87938 0.0
C1378 C 0.81686 0.35157 0.81934 0.0
C1379 C 0.8074 0.33296 0.82385 0.0
C1380 C 0.82064 0.35798 0.79444 0.0
C1381 C 0.82941 0.37744 0.78842 0.0
C1382 C 0.82191 0.38781 0.79676 0.0
C1383 C 0.83022 0.40614 0.79102 0.0
C1384 C 0.84596 0.41425 0.77678 0.0
C1385 C 0.85341 0.40401 0.7682 0.0
C1386 C 0.84516 0.38567 0.77392 0.0
C1387 C 0.77781 0.29888 0.72539 0.0
C1388 C 0.78188 0.2849 0.7255 0.0
C1389 C 0.78673 0.31351 0.74156 0.0
C1390 C 0.79973 0.31428 0.75813 0.0
C1391 C 0.805 0.30126 0.75663 0.0
C1392 C 0.79617 0.28669 0.7404 0.0
C1393 C 0.80572 0.32697 0.77933 0.0
C1394 C 0.81522 0.34555 0.77472 0.0
C1395 C 0.80145 0.32059 0.80417 0.0
C1396 C 0.79005 0.30113 0.81004 0.0
C1397 C 0.79658 0.29249 0.82561 0.0
C1398 C 0.78584 0.27416 0.83106 0.0
C1399 C 0.76851 0.26433 0.82112 0.0
C1400 C 0.76186 0.27285 0.80578 0.0
C1401 C 0.7725 0.29119 0.80038 0.0
H1402 H 0.76022 0.25015 0.82535 0.0
H1403 H 0.85237 0.42844 0.77233 0.0
H1404 H 0.53376 0.39984 0.37048 0.0
H1405 H 0.52008 0.37957 0.3349 0.0
H1406 H 0.50329 0.33375 0.38363 0.0
H1407 H 0.51776 0.35396 0.41881 0.0
H1408 H 0.51769 0.32892 0.34623 0.0
H1409 H 0.47309 0.34601 0.35568 0.0
H1410 H 0.46103 0.36661 0.35988 0.0
H1411 H 0.48187 0.38889 0.28752 0.0
H1412 H 0.49427 0.36859 0.28302 0.0
H1413 H 0.45481 0.27077 0.24502 0.0
H1414 H 0.4605 0.29327 0.27721 0.0
H1415 H 0.51663 0.32213 0.2571 0.0
H1416 H 0.51115 0.29999 0.2248 0.0
H1417 H 0.47889 0.33323 0.28111 0.0
H1418 H 0.53778 0.32319 0.31282 0.0
H1419 H 0.54646 0.29978 0.31135 0.0
H1420 H 0.49087 0.25868 0.30695 0.0
H1421 H 0.48186 0.2818 0.30889 0.0
C1422 C 0.52695 0.38543 0.37357 0.0
C1423 C 0.52692 0.37844 0.39731 0.0
C1424 C 0.51903 0.37384 0.35327 0.0
C1425 C 0.51052 0.35508 0.35655 0.0
C1426 C 0.50987 0.34815 0.38054 0.0
C1427 C 0.51812 0.35971 0.40065 0.0
C1428 C 0.50359 0.34267 0.33482 0.0
C1429 C 0.50913 0.32988 0.33216 0.0
C1430 C 0.49218 0.34364 0.31649 0.0
C1431 C 0.48474 0.35587 0.31911 0.0
C1432 C 0.47522 0.3554 0.34074 0.0
C1433 C 0.4683 0.367 0.34316 0.0
C1434 C 0.47072 0.37908 0.324 0.0
C1435 C 0.48002 0.37954 0.30236 0.0
C1436 C 0.48698 0.36797 0.29985 0.0
C1437 C 0.46826 0.28221 0.2469 0.0
C1438 C 0.4826 0.2834 0.23265 0.0
C1439 C 0.47145 0.29506 0.26525 0.0
C1440 C 0.48901 0.30912 0.26968 0.0
C1441 C 0.50301 0.31125 0.254 0.0
C1442 C 0.49983 0.29855 0.23555 0.0
C1443 C 0.4933 0.31995 0.29269 0.0
C1444 C 0.48736 0.33237 0.29544 0.0
C1445 C 0.50384 0.31828 0.31162 0.0
C1446 C 0.50917 0.30427 0.31063 0.0
C1447 C 0.52741 0.30916 0.31159 0.0
C1448 C 0.53239 0.29594 0.31069 0.0
C1449 C 0.51923 0.27776 0.30891 0.0
C1450 C 0.50106 0.27277 0.30815 0.0
C1451 C 0.49602 0.28593 0.30913 0.0
H1452 H 0.5231 0.26754 0.30825 0.0
H1453 H 0.46535 0.38806 0.32591 0.0
H1454 H 0.69247 0.21382 0.20035 0.0
H1455 H 0.66662 0.19735 0.2279 0.0
H1456 H 0.69504 0.17553 0.26782 0.0
H1457 H 0.72083 0.19166 0.24007 0.0
H1458 H 0.65852 0.15197 0.26792 0.0
H1459 H 0.7 0.2147 0.28606 0.0
H1460 H 0.71724 0.24709 0.27604 0.0
H1461 H 0.6681 0.24712 0.2613 0.0
H1462 H 0.65059 0.21462 0.2709 0.0
H1463 H 0.63591 0.17882 0.39574 0.0
H1464 H 0.65359 0.1848 0.35781 0.0
H1465 H 0.60725 0.14311 0.31939 0.0
H1466 H 0.58947 0.13665 0.35777 0.0
H1467 H 0.65005 0.19691 0.31522 0.0
H1468 H 0.62253 0.12655 0.27177 0.0
H1469 H 0.60821 0.09473 0.28483 0.0
H1470 H 0.63392 0.11085 0.35643 0.0
H1471 H 0.64856 0.14273 0.34368 0.0
C1472 C 0.69305 0.20512 0.21453 0.0
C1473 C 0.70886 0.20438 0.2184 0.0
C1474 C 0.67824 0.19569 0.23023 0.0
C1475 C 0.6791 0.18557 0.25022 0.0
C1476 C 0.69414 0.18334 0.25255 0.0
C1477 C 0.70892 0.19265 0.23672 0.0
C1478 C 0.66589 0.17986 0.27086 0.0
C1479 C 0.65648 0.16171 0.27814 0.0
C1480 C 0.66353 0.19267 0.28447 0.0
C1481 C 0.67401 0.21222 0.2789 0.0
C1482 C 0.69289 0.22159 0.28051 0.0
C1483 C 0.7027 0.23997 0.27493 0.0
C1484 C 0.69377 0.24915 0.26797 0.0
C1485 C 0.675 0.23998 0.26664 0.0
C1486 C 0.66512 0.22159 0.27215 0.0
C1487 C 0.62945 0.17084 0.37929 0.0
C1488 C 0.61126 0.1573 0.37975 0.0
C1489 C 0.63958 0.1743 0.35758 0.0
C1490 C 0.63177 0.16441 0.33574 0.0
C1491 C 0.61363 0.15076 0.3361 0.0
C1492 C 0.60347 0.14714 0.35801 0.0
C1493 C 0.64272 0.16898 0.31263 0.0
C1494 C 0.65174 0.18701 0.3048 0.0
C1495 C 0.64503 0.15612 0.29904 0.0
C1496 C 0.63644 0.13701 0.30687 0.0
C1497 C 0.62515 0.12328 0.29028 0.0
C1498 C 0.61698 0.10524 0.29763 0.0
C1499 C 0.6201 0.10077 0.32148 0.0
C1500 C 0.63145 0.11433 0.338 0.0
C1501 C 0.63967 0.13239 0.33074 0.0
H1502 H 0.61375 0.0868 0.32714 0.0
H1503 H 0.70139 0.26337 0.26366 0.0
H1504 H 0.82571 0.46306 0.42356 0.0
H1505 H 0.82027 0.47739 0.38788 0.0
H1506 H 0.86166 0.47437 0.3462 0.0
H1507 H 0.86752 0.46038 0.38215 0.0
H1508 H 0.86071 0.50551 0.33554 0.0
H1509 H 0.81922 0.4416 0.34079 0.0
H1510 H 0.79692 0.41376 0.36194 0.0
H1511 H 0.76166 0.43529 0.37082 0.0
H1512 H 0.78395 0.4635 0.35033 0.0
H1513 H 0.78972 0.48196 0.22752 0.0
H1514 H 0.80739 0.4753 0.2567 0.0
H1515 H 0.82398 0.52548 0.29483 0.0
H1516 H 0.80647 0.5324 0.26547 0.0
H1517 H 0.79799 0.47012 0.30458 0.0
H1518 H 0.86323 0.53701 0.32767 0.0
H1519 H 0.88576 0.56451 0.30599 0.0
H1520 H 0.87371 0.53548 0.23679 0.0
H1521 H 0.8513 0.50776 0.25811 0.0
C1522 C 0.83384 0.46566 0.40694 0.0
C1523 C 0.84682 0.46029 0.40549 0.0
C1524 C 0.83075 0.47389 0.3866 0.0
C1525 C 0.84033 0.47661 0.36427 0.0
C1526 C 0.85409 0.47234 0.36326 0.0
C1527 C 0.85736 0.46427 0.38377 0.0
C1528 C 0.83465 0.48209 0.34136 0.0
C1529 C 0.84701 0.49781 0.3287 0.0
C1530 C 0.81687 0.47181 0.33222 0.0
C1531 C 0.80333 0.45472 0.34419 0.0
C1532 C 0.80676 0.44045 0.34739 0.0
C1533 C 0.79412 0.42459 0.35925 0.0
C1534 C 0.77788 0.42273 0.36768 0.0
C1535 C 0.77425 0.43674 0.36428 0.0
C1536 C 0.78689 0.45268 0.35257 0.0
C1537 C 0.79749 0.49182 0.24171 0.0
C1538 C 0.79645 0.50757 0.24445 0.0
C1539 C 0.8076 0.48799 0.25836 0.0
C1540 C 0.81687 0.49981 0.27804 0.0
C1541 C 0.81704 0.51623 0.27965 0.0
C1542 C 0.80697 0.52013 0.26289 0.0
C1543 C 0.82393 0.49373 0.2988 0.0
C1544 C 0.81175 0.47783 0.3112 0.0
C1545 C 0.84187 0.50379 0.30744 0.0
C1546 C 0.85546 0.52034 0.29448 0.0
C1547 C 0.86544 0.53648 0.30785 0.0
C1548 C 0.87818 0.55211 0.29562 0.0
C1549 C 0.88112 0.55175 0.27001 0.0
C1550 C 0.87137 0.53575 0.2566 0.0
C1551 C 0.85862 0.52009 0.26875 0.0
H1552 H 0.89099 0.56387 0.26058 0.0
H1553 H 0.76812 0.41042 0.37683 0.0
H1554 H 0.60373 0.14343 0.90005 0.0
H1555 H 0.62891 0.15093 0.87243 0.0
H1556 H 0.66572 0.18623 0.92869 0.0
H1557 H 0.64014 0.17971 0.95577 0.0
H1558 H 0.67564 0.20278 0.88906 0.0
H1559 H 0.66306 0.14426 0.90835 0.0
H1560 H 0.64531 0.11158 0.91613 0.0
H1561 H 0.62763 0.10261 0.83982 0.0
H1562 H 0.64504 0.13524 0.83164 0.0
H1563 H 0.74073 0.2149 0.79268 0.0
H1564 H 0.72449 0.20326 0.83227 0.0
H1565 H 0.67405 0.18405 0.79376 0.0
H1566 H 0.69012 0.19601 0.75438 0.0
H1567 H 0.67795 0.15884 0.83119 0.0
H1568 H 0.6873 0.22056 0.81933 0.0
H1569 H 0.708 0.25311 0.81336 0.0
H1570 H 0.73627 0.25476 0.88034 0.0
H1571 H 0.71583 0.22215 0.88652 0.0
C1572 C 0.61721 0.15254 0.90673 0.0
C1573 C 0.62001 0.16096 0.93005 0.0
C1574 C 0.63169 0.15671 0.89097 0.0
C1575 C 0.64939 0.16886 0.89856 0.0
C1576 C 0.65225 0.17679 0.92235 0.0
C1577 C 0.63765 0.17303 0.93785 0.0
C1578 C 0.66449 0.17452 0.88056 0.0
C1579 C 0.67638 0.19304 0.87696 0.0
C1580 C 0.66581 0.16197 0.86471 0.0
C1581 C 0.65535 0.14226 0.86941 0.0
C1582 C 0.65532 0.13534 0.89325 0.0
C1583 C 0.64531 0.11681 0.89773 0.0
C1584 C 0.63534 0.10503 0.87849 0.0
C1585 C 0.63537 0.11175 0.85471 0.0
C1586 C 0.64535 0.13027 0.85012 0.0
C1587 C 0.72617 0.20806 0.79269 0.0
C1588 C 0.71664 0.20638 0.77055 0.0
C1589 C 0.71697 0.20143 0.81523 0.0
C1590 C 0.69814 0.19274 0.81574 0.0
C1591 C 0.6886 0.19063 0.79358 0.0
C1592 C 0.69778 0.19757 0.7712 0.0
C1593 C 0.68817 0.1868 0.83948 0.0
C1594 C 0.67737 0.16832 0.84401 0.0
C1595 C 0.68827 0.19929 0.85667 0.0
C1596 C 0.70016 0.21894 0.85328 0.0
C1597 C 0.69798 0.22786 0.83271 0.0
C1598 C 0.70965 0.24632 0.82931 0.0
C1599 C 0.72344 0.25599 0.84647 0.0
C1600 C 0.72557 0.24725 0.86708 0.0
C1601 C 0.71394 0.22879 0.87056 0.0
H1602 H 0.73247 0.27027 0.84378 0.0
H1603 H 0.6276 0.09069 0.882 0.0
H1604 H 0.86232 0.47857 0.90987 0.0
H1605 H 0.8581 0.49721 0.87921 0.0
H1606 H 0.80073 0.46646 0.89095 0.0
H1607 H 0.80485 0.44809 0.922 0.0
H1608 H 0.84203 0.48513 0.83689 0.0
H1609 H 0.78039 0.48929 0.87451 0.0
H1610 H 0.76926 0.49393 0.91467 0.0
H1611 H 0.82308 0.52118 0.94371 0.0
H1612 H 0.83458 0.51695 0.90362 0.0
H1613 H 0.78581 0.48298 0.74147 0.0
H1614 H 0.79931 0.47879 0.77897 0.0
H1615 H 0.81555 0.5329 0.80257 0.0
H1616 H 0.8016 0.53709 0.76526 0.0
H1617 H 0.80123 0.51038 0.84036 0.0
H1618 H 0.84658 0.52228 0.78033 0.0
H1619 H 0.85882 0.51915 0.74019 0.0
H1620 H 0.84112 0.46379 0.75685 0.0
H1621 H 0.8285 0.46648 0.79691 0.0
C1622 C 0.84884 0.47608 0.90641 0.0
C1623 C 0.8339 0.46171 0.91819 0.0
C1624 C 0.84646 0.48673 0.88884 0.0
C1625 C 0.82911 0.48324 0.88273 0.0
C1626 C 0.81427 0.46962 0.8956 0.0
C1627 C 0.81665 0.45905 0.91332 0.0
C1628 C 0.82625 0.49211 0.86083 0.0
C1629 C 0.83329 0.49086 0.83773 0.0
C1630 C 0.81513 0.49989 0.86195 0.0
C1631 C 0.80834 0.5027 0.88605 0.0
C1632 C 0.78988 0.49638 0.8894 0.0
C1633 C 0.78349 0.49891 0.91217 0.0
C1634 C 0.79545 0.50781 0.93174 0.0
C1635 C 0.81382 0.51424 0.92856 0.0
C1636 C 0.82028 0.51175 0.90582 0.0
C1637 C 0.79233 0.49406 0.75451 0.0
C1638 C 0.7926 0.51038 0.75035 0.0
C1639 C 0.80014 0.49167 0.77591 0.0
C1640 C 0.80865 0.50562 0.79341 0.0
C1641 C 0.80908 0.52198 0.78927 0.0
C1642 C 0.80115 0.52435 0.7679 0.0
C1643 C 0.81645 0.50271 0.81644 0.0
C1644 C 0.81029 0.50502 0.83967 0.0
C1645 C 0.82865 0.49619 0.81552 0.0
C1646 C 0.83651 0.49457 0.79161 0.0
C1647 C 0.84521 0.50941 0.77539 0.0
C1648 C 0.85222 0.50771 0.75264 0.0
C1649 C 0.85072 0.49128 0.74596 0.0
C1650 C 0.84227 0.47651 0.76205 0.0
C1651 C 0.83521 0.47813 0.7848 0.0
H1652 H 0.85613 0.48999 0.72832 0.0
H1653 H 0.79048 0.50975 0.94937 0.0
H1654 H 0.53254 0.39367 0.90021 0.0
H1655 H 0.51043 0.36809 0.87637 0.0
H1656 H 0.51011 0.33191 0.93283 0.0
H1657 H 0.53345 0.3577 0.95585 0.0
H1658 H 0.51367 0.32042 0.89275 0.0
H1659 H 0.47109 0.33662 0.91677 0.0
H1660 H 0.4582 0.35602 0.92579 0.0
H1661 H 0.46311 0.37115 0.84852 0.0
H1662 H 0.47628 0.35207 0.83905 0.0
H1663 H 0.45862 0.25494 0.80037 0.0
H1664 H 0.46264 0.27146 0.83954 0.0
H1665 H 0.49245 0.32177 0.8 0.0
H1666 H 0.48898 0.30543 0.76108 0.0
H1667 H 0.46563 0.31901 0.83972 0.0
H1668 H 0.51701 0.30903 0.82316 0.0
H1669 H 0.52946 0.28901 0.81575 0.0
H1670 H 0.5044 0.25986 0.88296 0.0
H1671 H 0.49169 0.27967 0.89063 0.0
C1672 C 0.52746 0.38029 0.90783 0.0
C1673 C 0.53477 0.37764 0.92977 0.0
C1674 C 0.51461 0.36559 0.89429 0.0
C1675 C 0.50827 0.34792 0.90287 0.0
C1676 C 0.51476 0.34535 0.92572 0.0
C1677 C 0.52807 0.36008 0.93889 0.0
C1678 C 0.49707 0.3324 0.88619 0.0
C1679 C 0.50274 0.31984 0.88187 0.0
C1680 C 0.48276 0.33143 0.87174 0.0
C1681 C 0.47473 0.34289 0.87722 0.0
C1682 C 0.46952 0.34415 0.90171 0.0
C1683 C 0.46215 0.35509 0.9069 0.0
C1684 C 0.45985 0.36481 0.88774 0.0
C1685 C 0.46488 0.36359 0.86334 0.0
C1686 C 0.47226 0.35267 0.85804 0.0
C1687 C 0.46572 0.26953 0.80001 0.0
C1688 C 0.47361 0.27896 0.77782 0.0
C1689 C 0.46796 0.2789 0.82232 0.0
C1690 C 0.47775 0.29777 0.8225 0.0
C1691 C 0.48473 0.30719 0.8001 0.0
C1692 C 0.48286 0.29786 0.77798 0.0
C1693 C 0.48282 0.30789 0.84617 0.0
C1694 C 0.47604 0.31935 0.85157 0.0
C1695 C 0.49578 0.30762 0.86205 0.0
C1696 C 0.50328 0.29568 0.85732 0.0
C1697 C 0.51405 0.29826 0.83624 0.0
C1698 C 0.5212 0.287 0.83204 0.0
C1699 C 0.51776 0.2732 0.84891 0.0
C1700 C 0.50709 0.27059 0.86995 0.0
C1701 C 0.49992 0.28182 0.87424 0.0
H1702 H 0.52334 0.26453 0.84567 0.0
H1703 H 0.45415 0.37329 0.89181 0.0
H1704 H 0.46087 0.60176 0.61309 0.0
H1705 H 0.47122 0.62011 0.65098 0.0
H1706 H 0.42695 0.63029 0.64544 0.0
H1707 H 0.41689 0.61247 0.60727 0.0
H1708 H 0.45658 0.66038 0.65241 0.0
H1709 H 0.42902 0.60198 0.69107 0.0
H1710 H 0.42355 0.57132 0.6989 0.0
H1711 H 0.47884 0.59283 0.71965 0.0
H1712 H 0.48469 0.62365 0.71185 0.0
H1713 H 0.45785 0.69632 0.7696 0.0
H1714 H 0.44858 0.67238 0.73882 0.0
H1715 H 0.50272 0.6817 0.73533 0.0
H1716 H 0.51234 0.70604 0.76599 0.0
H1717 H 0.47033 0.64212 0.73369 0.0
H1718 H 0.49712 0.7009 0.69422 0.0
H1719 H 0.50104 0.73121 0.68872 0.0
H1720 H 0.44509 0.70785 0.67036 0.0
H1721 H 0.44077 0.67739 0.67622 0.0
C1722 C 0.45326 0.60778 0.62011 0.0
C1723 C 0.43818 0.60584 0.60708 0.0
C1724 C 0.45914 0.61819 0.64183 0.0
C1725 C 0.44983 0.62654 0.65112 0.0
C1726 C 0.43442 0.62409 0.63854 0.0
C1727 C 0.42869 0.6139 0.61671 0.0
C1728 C 0.45667 0.63878 0.67296 0.0
C1729 C 0.45939 0.65625 0.6702 0.0
C1730 C 0.4608 0.63362 0.69606 0.0
C1731 C 0.45734 0.61511 0.70062 0.0
C1732 C 0.44005 0.60017 0.6971 0.0
C1733 C 0.43687 0.58276 0.70157 0.0
C1734 C 0.45085 0.58012 0.70964 0.0
C1735 C 0.46803 0.59489 0.71335 0.0
C1736 C 0.47128 0.61234 0.70896 0.0
C1737 C 0.46777 0.6931 0.76276 0.0
C1738 C 0.48591 0.70327 0.77002 0.0
C1739 C 0.46241 0.67937 0.74519 0.0
C1740 C 0.47501 0.67544 0.7348 0.0
C1741 C 0.49284 0.68459 0.74327 0.0
C1742 C 0.4983 0.69853 0.76067 0.0
C1743 C 0.46989 0.66338 0.71298 0.0
C1744 C 0.46757 0.64611 0.71576 0.0
C1745 C 0.46596 0.6686 0.68989 0.0
C1746 C 0.46859 0.68689 0.68592 0.0
C1747 C 0.48562 0.70224 0.68923 0.0
C1748 C 0.48792 0.71944 0.68601 0.0
C1749 C 0.47331 0.72146 0.67926 0.0
C1750 C 0.45639 0.70627 0.67563 0.0
C1751 C 0.45401 0.68903 0.67888 0.0
H1752 H 0.47512 0.73479 0.67679 0.0
H1753 H 0.44835 0.56662 0.71308 0.0
H1754 H 0.39518 0.86961 0.61912 0.0
H1755 H 0.37347 0.8602 0.65353 0.0
H1756 H 0.35924 0.80488 0.64145 0.0
H1757 H 0.38033 0.81404 0.60684 0.0
H1758 H 0.33028 0.80679 0.6462 0.0
H1759 H 0.38653 0.83109 0.69095 0.0
H1760 H 0.4172 0.85457 0.70272 0.0
H1761 H 0.39694 0.88858 0.72788 0.0
H1762 H 0.36616 0.86537 0.71596 0.0
H1763 H 0.2905 0.76049 0.75533 0.0
H1764 H 0.31618 0.77899 0.72847 0.0
H1765 H 0.30494 0.82254 0.73342 0.0
H1766 H 0.27888 0.80399 0.76007 0.0
H1767 H 0.34567 0.83026 0.73278 0.0
H1768 H 0.28817 0.8031 0.68908 0.0
H1769 H 0.25811 0.77755 0.67924 0.0
H1770 H 0.28211 0.74719 0.65263 0.0
H1771 H 0.31222 0.77233 0.66303 0.0
C1772 C 0.38744 0.85546 0.6239 0.0
C1773 C 0.3894 0.84256 0.6102 0.0
C1774 C 0.3751 0.85011 0.64361 0.0
C1775 C 0.36479 0.83184 0.65014 0.0
C1776 C 0.36695 0.81904 0.63666 0.0
C1777 C 0.37905 0.82431 0.61686 0.0
C1778 C 0.35129 0.8257 0.6705 0.0
C1779 C 0.33373 0.81195 0.6651 0.0
C1780 C 0.35562 0.83266 0.6951 0.0
C1781 C 0.37409 0.84659 0.70228 0.0
C1782 C 0.38864 0.84364 0.6988 0.0
C1783 C 0.40604 0.85688 0.70553 0.0
C1784 C 0.40903 0.87308 0.71596 0.0
C1785 C 0.39461 0.87604 0.71975 0.0
C1786 C 0.37719 0.86284 0.71302 0.0
C1787 C 0.29371 0.77416 0.75132 0.0
C1788 C 0.28248 0.78067 0.7595 0.0
C1789 C 0.30842 0.78471 0.736 0.0
C1790 C 0.31226 0.802 0.72891 0.0
C1791 C 0.30211 0.8092 0.73881 0.0
C1792 C 0.28721 0.79855 0.7539 0.0
C1793 C 0.32504 0.81119 0.70836 0.0
C1794 C 0.34231 0.82543 0.71372 0.0
C1795 C 0.32057 0.80457 0.68371 0.0
C1796 C 0.30244 0.78952 0.67713 0.0
C1797 C 0.28701 0.79089 0.68144 0.0
C1798 C 0.26995 0.77647 0.67574 0.0
C1799 C 0.26816 0.7607 0.66544 0.0
C1800 C 0.28345 0.75935 0.66074 0.0
C1801 C 0.30052 0.77367 0.66655 0.0
H1802 H 0.25494 0.74956 0.66103 0.0
H1803 H 0.4225 0.88331 0.72117 0.0
H1804 H 0.13553 0.53348 0.61686 0.0
H1805 H 0.1442 0.52318 0.65416 0.0
H1806 H 0.19988 0.56268 0.64087 0.0
H1807 H 0.19139 0.57258 0.6032 0.0
H1808 H 0.19737 0.53208 0.64984 0.0
H1809 H 0.17418 0.56646 0.68911 0.0
H1810 H 0.15188 0.57573 0.69847 0.0
H1811 H 0.11519 0.52273 0.72607 0.0
H1812 H 0.13719 0.51307 0.71656 0.0
H1813 H 0.23588 0.53252 0.76505 0.0
H1814 H 0.22071 0.54257 0.73624 0.0
H1815 H 0.17488 0.48891 0.73387 0.0
H1816 H 0.1901 0.4785 0.76243 0.0
H1817 H 0.17067 0.52492 0.73424 0.0
H1818 H 0.19496 0.49105 0.69131 0.0
H1819 H 0.21918 0.48401 0.68438 0.0
H1820 H 0.25565 0.53924 0.66532 0.0
H1821 H 0.23169 0.54664 0.6726 0.0
C1822 C 0.1496 0.54007 0.62204 0.0
C1823 C 0.16279 0.55378 0.60702 0.0
C1824 C 0.15453 0.53423 0.64343 0.0
C1825 C 0.17269 0.54223 0.65043 0.0
C1826 C 0.1858 0.55624 0.63579 0.0
C1827 C 0.18092 0.5619 0.61426 0.0
C1828 C 0.17827 0.53539 0.67211 0.0
C1829 C 0.19156 0.53068 0.66827 0.0
C1830 C 0.17053 0.53322 0.69617 0.0
C1831 C 0.15726 0.53899 0.70186 0.0
C1832 C 0.1613 0.55673 0.69697 0.0
C1833 C 0.14872 0.56207 0.70235 0.0
C1834 C 0.1321 0.54981 0.71279 0.0
C1835 C 0.12805 0.5322 0.71794 0.0
C1836 C 0.14057 0.52679 0.71258 0.0
C1837 C 0.2224 0.52289 0.75895 0.0
C1838 C 0.21429 0.50463 0.76576 0.0
C1839 C 0.21375 0.5287 0.74255 0.0
C1840 C 0.19677 0.51644 0.73298 0.0
C1841 C 0.18798 0.49853 0.74123 0.0
C1842 C 0.19674 0.49262 0.75741 0.0
C1843 C 0.18965 0.52182 0.71168 0.0
C1844 C 0.17621 0.52624 0.71564 0.0
C1845 C 0.19733 0.52394 0.68774 0.0
C1846 C 0.21161 0.51943 0.68275 0.0
C1847 C 0.20819 0.50171 0.68584 0.0
C1848 C 0.22185 0.49765 0.68183 0.0
C1849 C 0.23896 0.51118 0.67449 0.0
C1850 C 0.2424 0.52878 0.67105 0.0
C1851 C 0.22879 0.53291 0.6751 0.0
H1852 H 0.24953 0.50802 0.67141 0.0
H1853 H 0.12239 0.55397 0.71695 0.0
H1854 H 0.38013 0.8638 0.07381 0.0
H1855 H 0.35924 0.85806 0.10825 0.0
H1856 H 0.33255 0.80113 0.09254 0.0
H1857 H 0.35296 0.80675 0.05777 0.0
H1858 H 0.3088 0.80983 0.10823 0.0
H1859 H 0.36725 0.82077 0.13504 0.0
H1860 H 0.40031 0.83848 0.13851 0.0
H1861 H 0.39653 0.88109 0.17483 0.0
H1862 H 0.36343 0.86369 0.17126 0.0
H1863 H 0.30354 0.78343 0.24648 0.0
H1864 H 0.32063 0.79628 0.20826 0.0
H1865 H 0.28544 0.81669 0.18849 0.0
H1866 H 0.26799 0.80356 0.22658 0.0
H1867 H 0.33955 0.82934 0.19021 0.0
H1868 H 0.2803 0.81378 0.12456 0.0
H1869 H 0.24768 0.79251 0.12128 0.0
H1870 H 0.25368 0.75322 0.1634 0.0
H1871 H 0.28635 0.77417 0.16663 0.0
C1872 C 0.36956 0.8501 0.07733 0.0
C1873 C 0.36841 0.8357 0.06329 0.0
C1874 C 0.35766 0.84684 0.09707 0.0
C1875 C 0.3446 0.82913 0.1033 0.0
C1876 C 0.34257 0.81491 0.08814 0.0
C1877 C 0.35432 0.81815 0.06828 0.0
C1878 C 0.33429 0.82509 0.12692 0.0
C1879 C 0.31549 0.81429 0.12614 0.0
C1880 C 0.34305 0.83062 0.15034 0.0
C1881 C 0.36291 0.84104 0.15262 0.0
C1882 C 0.37349 0.83397 0.14361 0.0
C1883 C 0.39222 0.84394 0.14561 0.0
C1884 C 0.40051 0.86092 0.15681 0.0
C1885 C 0.39009 0.86795 0.1661 0.0
C1886 C 0.37134 0.85804 0.1641 0.0
C1887 C 0.29944 0.79071 0.2341 0.0
C1888 C 0.28429 0.79232 0.23951 0.0
C1889 C 0.30929 0.79813 0.2123 0.0
C1890 C 0.30421 0.8073 0.19543 0.0
C1891 C 0.28944 0.80945 0.2011 0.0
C1892 C 0.27952 0.80197 0.22291 0.0
C1893 C 0.31407 0.81394 0.17154 0.0
C1894 C 0.3328 0.82524 0.17229 0.0
C1895 C 0.30529 0.80841 0.14815 0.0
C1896 C 0.28571 0.79563 0.1461 0.0
C1897 C 0.27465 0.80059 0.13307 0.0
C1898 C 0.25616 0.78859 0.13122 0.0
C1899 C 0.2486 0.77155 0.14221 0.0
C1900 C 0.25954 0.76645 0.15499 0.0
C1901 C 0.27803 0.77839 0.15686 0.0
H1902 H 0.23428 0.76229 0.14078 0.0
H1903 H 0.41502 0.86862 0.15835 0.0
H1904 H 0.17671 0.55038 0.06345 0.0
H1905 H 0.18126 0.52986 0.08968 0.0
H1906 H 0.12447 0.50003 0.10621 0.0
H1907 H 0.11986 0.52089 0.08044 0.0
H1908 H 0.14222 0.50901 0.14719 0.0
H1909 H 0.14559 0.48014 0.07449 0.0
H1910 H 0.15442 0.4771 0.03177 0.0
H1911 H 0.20975 0.50243 0.05436 0.0
H1912 H 0.20131 0.50588 0.09714 0.0
H1913 H 0.18847 0.45833 0.20599 0.0
H1914 H 0.17158 0.46166 0.17149 0.0
H1915 H 0.18977 0.51634 0.19427 0.0
H1916 H 0.20644 0.51315 0.2287 0.0
H1917 H 0.18294 0.4846 0.13192 0.0
H1918 H 0.15751 0.5263 0.18694 0.0
H1919 H 0.14701 0.5274 0.22941 0.0
H1920 H 0.13181 0.47204 0.24104 0.0
H1921 H 0.14196 0.47052 0.19851 0.0
C1922 C 0.1651 0.53923 0.07219 0.0
C1923 C 0.14796 0.53743 0.07013 0.0
C1924 C 0.1677 0.52738 0.08706 0.0
C1925 C 0.15319 0.51332 0.09986 0.0
C1926 C 0.13587 0.5108 0.09654 0.0
C1927 C 0.13326 0.52274 0.0818 0.0
C1928 C 0.15666 0.50312 0.11931 0.0
C1929 C 0.1509 0.50342 0.14374 0.0
C1930 C 0.16759 0.49538 0.11478 0.0
C1931 C 0.1728 0.49331 0.08906 0.0
C1932 C 0.15966 0.48517 0.07033 0.0
C1933 C 0.16459 0.48336 0.04609 0.0
C1934 C 0.18263 0.48958 0.04035 0.0
C1935 C 0.19577 0.4976 0.05884 0.0
C1936 C 0.19092 0.49945 0.08311 0.0
C1937 C 0.18881 0.47104 0.20369 0.0
C1938 C 0.19876 0.48546 0.22017 0.0
C1939 C 0.17918 0.47291 0.18396 0.0
C1940 C 0.17923 0.48914 0.18058 0.0
C1941 C 0.18927 0.50357 0.19685 0.0
C1942 C 0.19888 0.50174 0.21647 0.0
C1943 C 0.16929 0.4915 0.15972 0.0
C1944 C 0.17386 0.48975 0.13514 0.0
C1945 C 0.15696 0.49758 0.16401 0.0
C1946 C 0.15058 0.49833 0.18953 0.0
C1947 C 0.15181 0.51432 0.19848 0.0
C1948 C 0.14595 0.51503 0.22259 0.0
C1949 C 0.13877 0.49981 0.23793 0.0
C1950 C 0.13741 0.48384 0.22916 0.0
C1951 C 0.14324 0.48305 0.20507 0.0
H1952 H 0.13426 0.50039 0.25659 0.0
H1953 H 0.18642 0.48817 0.02157 0.0
H1954 H 0.52735 0.73852 0.19639 0.0
H1955 H 0.52375 0.72094 0.15849 0.0
H1956 H 0.49287 0.67176 0.2001 0.0
H1957 H 0.4959 0.68919 0.2378 0.0
H1958 H 0.52084 0.67421 0.16049 0.0
H1959 H 0.46875 0.68321 0.17594 0.0
H1960 H 0.4566 0.7035 0.18316 0.0
H1961 H 0.48095 0.73166 0.11505 0.0
H1962 H 0.49348 0.71166 0.10766 0.0
H1963 H 0.46002 0.59979 0.09228 0.0
H1964 H 0.47801 0.62469 0.12024 0.0
H1965 H 0.4792 0.66217 0.06527 0.0
H1966 H 0.45987 0.63687 0.03788 0.0
H1967 H 0.47294 0.67152 0.10571 0.0
H1968 H 0.51832 0.65859 0.08347 0.0
H1969 H 0.5326 0.64039 0.07469 0.0
H1970 H 0.52528 0.62298 0.15113 0.0
H1971 H 0.51072 0.64085 0.16032 0.0
C1972 C 0.52016 0.72396 0.19754 0.0
C1973 C 0.51178 0.71516 0.2199 0.0
C1974 C 0.51814 0.71398 0.17594 0.0
C1975 C 0.50808 0.69513 0.17666 0.0
C1976 C 0.50078 0.68632 0.19934 0.0
C1977 C 0.50242 0.69627 0.22076 0.0
C1978 C 0.50305 0.68453 0.15342 0.0
C1979 C 0.51041 0.67354 0.14834 0.0
C1980 C 0.49003 0.68438 0.13718 0.0
C1981 C 0.48221 0.69611 0.14141 0.0
C1982 C 0.47163 0.69382 0.16262 0.0
C1983 C 0.46466 0.70525 0.16672 0.0
C1984 C 0.46805 0.7189 0.14961 0.0
C1985 C 0.47837 0.7211 0.12831 0.0
C1986 C 0.4854 0.70973 0.12416 0.0
C1987 C 0.46434 0.61336 0.08599 0.0
C1988 C 0.45861 0.61644 0.06292 0.0
C1989 C 0.47482 0.62767 0.10192 0.0
C1990 C 0.48043 0.64547 0.09474 0.0
C1991 C 0.47513 0.6486 0.07127 0.0
C1992 C 0.46413 0.63418 0.05561 0.0
C1993 C 0.49025 0.66044 0.11281 0.0
C1994 C 0.48376 0.67233 0.11711 0.0
C1995 C 0.50445 0.66173 0.12788 0.0
C1996 C 0.51335 0.65104 0.12255 0.0
C1997 C 0.51967 0.65081 0.09839 0.0
C1998 C 0.52782 0.64055 0.09334 0.0
C1999 C 0.52983 0.63052 0.11233 0.0
C2000 C 0.52373 0.63077 0.13643 0.0
C2001 C 0.51555 0.64099 0.14159 0.0
H2002 H 0.53613 0.62258 0.10838 0.0
H2003 H 0.46266 0.72774 0.15282 0.0
H2004 H 0.13478 0.60949 0.58262 0.0
H2005 H 0.14184 0.6365 0.60599 0.0
H2006 H 0.18563 0.66837 0.55542 0.0
H2007 H 0.17909 0.64109 0.53259 0.0
H2008 H 0.19792 0.67453 0.59903 0.0
H2009 H 0.14814 0.67528 0.56381 0.0
H2010 H 0.11714 0.66368 0.54883 0.0
H2011 H 0.09712 0.64813 0.62352 0.0
H2012 H 0.12796 0.65938 0.63894 0.0
H2013 H 0.21686 0.74411 0.68999 0.0
H2014 H 0.20529 0.72933 0.64941 0.0
H2015 H 0.17231 0.67873 0.68698 0.0
H2016 H 0.18433 0.69321 0.72733 0.0
H2017 H 0.15613 0.68971 0.6422 0.0
H2018 H 0.20575 0.6806 0.67113 0.0
H2019 H 0.2369 0.69206 0.68549 0.0
H2020 H 0.25695 0.72476 0.61958 0.0
H2021 H 0.22584 0.71368 0.60507 0.0
C2022 C 0.1456 0.62231 0.57602 0.0
C2023 C 0.15655 0.62314 0.55599 0.0
C2024 C 0.14956 0.63784 0.58932 0.0
C2025 C 0.16425 0.65458 0.58247 0.0
C2026 C 0.17427 0.65562 0.56115 0.0
C2027 C 0.17053 0.64002 0.54812 0.0
C2028 C 0.17083 0.6701 0.59987 0.0
C2029 C 0.18883 0.67823 0.60776 0.0
C2030 C 0.15907 0.67493 0.61163 0.0
C2031 C 0.14042 0.66815 0.60253 0.0
C2032 C 0.13713 0.66928 0.57704 0.0
C2033 C 0.11957 0.66278 0.56847 0.0
C2034 C 0.10517 0.65516 0.58521 0.0
C2035 C 0.10829 0.65405 0.61058 0.0
C2036 C 0.12582 0.66053 0.61925 0.0
C2037 C 0.20692 0.7299 0.6895 0.0
C2038 C 0.2015 0.71971 0.71161 0.0
C2039 C 0.20032 0.72153 0.66643 0.0
C2040 C 0.18788 0.70303 0.66539 0.0
C2041 C 0.18177 0.69307 0.68755 0.0
C2042 C 0.18874 0.70129 0.71048 0.0
C2043 C 0.18279 0.6934 0.64134 0.0
C2044 C 0.16518 0.6864 0.6325 0.0
C2045 C 0.19489 0.68972 0.62841 0.0
C2046 C 0.21353 0.69654 0.63723 0.0
C2047 C 0.21681 0.69041 0.65988 0.0
C2048 C 0.23444 0.69679 0.66801 0.0
C2049 C 0.24889 0.70915 0.65349 0.0
C2050 C 0.24574 0.71519 0.63082 0.0
C2051 C 0.22812 0.70889 0.62266 0.0
H2052 H 0.26253 0.71399 0.65977 0.0
H2053 H 0.09158 0.65013 0.57853 0.0
H2054 H 0.25653 0.47814 0.70522 0.0
H2055 H 0.27498 0.48333 0.66796 0.0
H2056 H 0.32037 0.49434 0.71473 0.0
H2057 H 0.30224 0.49053 0.75187 0.0
H2058 H 0.33172 0.51796 0.68271 0.0
H2059 H 0.29532 0.45425 0.67571 0.0
H2060 H 0.26745 0.42474 0.67412 0.0
H2061 H 0.25057 0.44115 0.6086 0.0
H2062 H 0.27823 0.47086 0.60997 0.0
H2063 H 0.38736 0.52319 0.58465 0.0
H2064 H 0.36468 0.5056 0.61604 0.0
H2065 H 0.32734 0.51824 0.58047 0.0
H2066 H 0.35002 0.53612 0.54905 0.0
H2067 H 0.31249 0.48064 0.60587 0.0
H2068 H 0.34956 0.54645 0.61899 0.0
H2069 H 0.37932 0.5741 0.62055 0.0
H2070 H 0.39664 0.55009 0.67632 0.0
H2071 H 0.36709 0.52228 0.67487 0.0
C2072 C 0.2704 0.48145 0.70741 0.0
C2073 C 0.27804 0.48396 0.73126 0.0
C2074 C 0.28092 0.48428 0.68613 0.0
C2075 C 0.29909 0.48899 0.68837 0.0
C2076 C 0.30646 0.49081 0.71238 0.0
C2077 C 0.29611 0.48858 0.7336 0.0
C2078 C 0.31081 0.49347 0.66592 0.0
C2079 C 0.32751 0.50952 0.66619 0.0
C2080 C 0.30544 0.48271 0.64401 0.0
C2081 C 0.28879 0.46485 0.64308 0.0
C2082 C 0.2856 0.45162 0.66106 0.0
C2083 C 0.26986 0.43485 0.66018 0.0
C2084 C 0.25723 0.43109 0.64131 0.0
C2085 C 0.26035 0.44409 0.62322 0.0
C2086 C 0.27608 0.46089 0.62402 0.0
C2087 C 0.37415 0.52177 0.58293 0.0
C2088 C 0.37061 0.53137 0.56463 0.0
C2089 C 0.36119 0.51166 0.60088 0.0
C2090 C 0.34448 0.51083 0.60063 0.0
C2091 C 0.34019 0.51874 0.58088 0.0
C2092 C 0.35321 0.52903 0.56303 0.0
C2093 C 0.33304 0.50484 0.62315 0.0
C2094 C 0.31651 0.48875 0.62271 0.0
C2095 C 0.33868 0.51526 0.64518 0.0
C2096 C 0.35619 0.53226 0.64669 0.0
C2097 C 0.35976 0.54707 0.63151 0.0
C2098 C 0.37658 0.56278 0.63239 0.0
C2099 C 0.38989 0.56387 0.64852 0.0
C2100 C 0.38635 0.54928 0.66387 0.0
C2101 C 0.36956 0.53355 0.66305 0.0
H2102 H 0.40292 0.57602 0.64915 0.0
H2103 H 0.24505 0.4181 0.64066 0.0
H2104 H 0.50673 0.81019 0.77053 0.0
H2105 H 0.50461 0.82803 0.73634 0.0
H2106 H 0.50443 0.79015 0.68302 0.0
H2107 H 0.50788 0.77312 0.71726 0.0
H2108 H 0.52126 0.82148 0.66337 0.0
H2109 H 0.46454 0.78874 0.70702 0.0
H2110 H 0.44495 0.77979 0.74419 0.0
H2111 H 0.45833 0.83468 0.75535 0.0
H2112 H 0.47821 0.84399 0.71843 0.0
H2113 H 0.46402 0.82418 0.56879 0.0
H2114 H 0.4797 0.8177 0.60167 0.0
H2115 H 0.48849 0.86496 0.64187 0.0
H2116 H 0.47296 0.87167 0.609 0.0
H2117 H 0.47029 0.83307 0.6692 0.0
H2118 H 0.52378 0.86421 0.62022 0.0
H2119 H 0.5422 0.87157 0.58205 0.0
H2120 H 0.53295 0.81757 0.57917 0.0
H2121 H 0.51425 0.80979 0.61713 0.0
C2122 C 0.50645 0.8059 0.75143 0.0
C2123 C 0.50726 0.79031 0.74632 0.0
C2124 C 0.50517 0.816 0.73193 0.0
C2125 C 0.50383 0.81017 0.70708 0.0
C2126 C 0.50538 0.79491 0.702 0.0
C2127 C 0.50726 0.78515 0.7215 0.0
C2128 C 0.49969 0.8192 0.68655 0.0
C2129 C 0.51004 0.8239 0.6646 0.0
C2130 C 0.48526 0.82273 0.68827 0.0
C2131 C 0.47298 0.81708 0.71011 0.0
C2132 C 0.46334 0.7989 0.71746 0.0
C2133 C 0.4522 0.79377 0.73848 0.0
C2134 C 0.45041 0.80666 0.75213 0.0
C2135 C 0.45972 0.82471 0.74474 0.0
C2136 C 0.47093 0.82992 0.72378 0.0
C2137 C 0.46968 0.83346 0.5843 0.0
C2138 C 0.4671 0.84835 0.58637 0.0
C2139 C 0.47869 0.82976 0.60304 0.0
C2140 C 0.4852 0.84084 0.62419 0.0
C2141 C 0.48355 0.85627 0.62565 0.0
C2142 C 0.47473 0.8601 0.60679 0.0
C2143 C 0.49168 0.83506 0.64597 0.0
C2144 C 0.48168 0.8309 0.66814 0.0
C2145 C 0.50618 0.83174 0.64423 0.0
C2146 C 0.51749 0.83638 0.62145 0.0
C2147 C 0.52555 0.85385 0.61134 0.0
C2148 C 0.53606 0.85811 0.58976 0.0
C2149 C 0.53871 0.84504 0.57816 0.0
C2150 C 0.53088 0.82768 0.58816 0.0
C2151 C 0.52034 0.82335 0.60974 0.0
H2152 H 0.54686 0.84836 0.56146 0.0
H2153 H 0.44183 0.80267 0.76845 0.0
H2154 H 0.2658 0.47032 0.22153 0.0
H2155 H 0.29033 0.47801 0.19222 0.0
H2156 H 0.32454 0.52589 0.23484 0.0
H2157 H 0.29972 0.51866 0.26357 0.0
H2158 H 0.32612 0.53476 0.18964 0.0
H2159 H 0.33166 0.4885 0.23033 0.0
H2160 H 0.32152 0.45837 0.248 0.0
H2161 H 0.30411 0.43471 0.17542 0.0
H2162 H 0.31393 0.46467 0.15735 0.0
H2163 H 0.3993 0.53189 0.10827 0.0
H2164 H 0.37918 0.52046 0.14439 0.0
H2165 H 0.34099 0.53075 0.10622 0.0
H2166 H 0.3611 0.54248 0.07032 0.0
H2167 H 0.34524 0.49384 0.15316 0.0
H2168 H 0.32381 0.54803 0.14614 0.0
H2169 H 0.33625 0.57923 0.13115 0.0
H2170 H 0.38989 0.58898 0.1425 0.0
H2171 H 0.37777 0.55793 0.15789 0.0
C2172 C 0.27866 0.4823 0.22494 0.0
C2173 C 0.28082 0.49397 0.24473 0.0
C2174 C 0.29273 0.48665 0.20821 0.0
C2175 C 0.30936 0.5025 0.21134 0.0
C2176 C 0.31181 0.51364 0.23194 0.0
C2177 C 0.29764 0.50948 0.24838 0.0
C2178 C 0.32347 0.50843 0.19179 0.0
C2179 C 0.33036 0.52581 0.18187 0.0
C2180 C 0.32926 0.4969 0.18176 0.0
C2181 C 0.32343 0.47884 0.19252 0.0
C2182 C 0.32557 0.47687 0.21816 0.0
C2183 C 0.31989 0.45982 0.22824 0.0
C2184 C 0.31215 0.44464 0.21285 0.0
C2185 C 0.31011 0.44648 0.18732 0.0
C2186 C 0.31575 0.4635 0.17714 0.0
C2187 C 0.38655 0.53158 0.10749 0.0
C2188 C 0.38192 0.53836 0.08658 0.0
C2189 C 0.37506 0.525 0.12812 0.0
C2190 C 0.35876 0.52506 0.12814 0.0
C2191 C 0.35369 0.53093 0.10678 0.0
C2192 C 0.3652 0.53763 0.08627 0.0
C2193 C 0.34742 0.51992 0.15088 0.0
C2194 C 0.34106 0.50276 0.16125 0.0
C2195 C 0.34245 0.5318 0.16183 0.0
C2196 C 0.34986 0.5506 0.15297 0.0
C2197 C 0.33825 0.55686 0.14555 0.0
C2198 C 0.34525 0.57452 0.13696 0.0
C2199 C 0.36385 0.58606 0.13581 0.0
C2200 C 0.37549 0.58 0.14333 0.0
C2201 C 0.36856 0.56237 0.15196 0.0
H2202 H 0.36924 0.59972 0.12912 0.0
H2203 H 0.30776 0.43145 0.2207 0.0
H2204 H 0.51866 0.80545 0.23706 0.0
H2205 H 0.51232 0.82117 0.20366 0.0
H2206 H 0.46069 0.7738 0.1913 0.0
H2207 H 0.46662 0.7582 0.22476 0.0
H2208 H 0.48542 0.79027 0.14709 0.0
H2209 H 0.45844 0.80384 0.21836 0.0
H2210 H 0.45978 0.81666 0.26004 0.0
H2211 H 0.5008 0.86862 0.23438 0.0
H2212 H 0.49986 0.85601 0.19261 0.0
H2213 H 0.42907 0.80564 0.07132 0.0
H2214 H 0.44361 0.79801 0.10416 0.0
H2215 H 0.48059 0.85445 0.11724 0.0
H2216 H 0.46549 0.86226 0.08484 0.0
H2217 H 0.46985 0.83814 0.15985 0.0
H2218 H 0.49374 0.82683 0.08709 0.0
H2219 H 0.49327 0.81512 0.04491 0.0
H2220 H 0.46136 0.76095 0.07183 0.0
H2221 H 0.46133 0.77232 0.1141 0.0
C2222 C 0.50587 0.79849 0.22744 0.0
C2223 C 0.49313 0.78059 0.23359 0.0
C2224 C 0.5023 0.80746 0.20838 0.0
C2225 C 0.48611 0.79854 0.19503 0.0
C2226 C 0.4733 0.78083 0.2014 0.0
C2227 C 0.47668 0.772 0.22066 0.0
C2228 C 0.48246 0.80729 0.17388 0.0
C2229 C 0.48198 0.80072 0.14976 0.0
C2230 C 0.47873 0.82139 0.17743 0.0
C2231 C 0.47926 0.82893 0.2025 0.0
C2232 C 0.46788 0.81795 0.22169 0.0
C2233 C 0.46854 0.82519 0.24531 0.0
C2234 C 0.48042 0.84343 0.24989 0.0
C2235 C 0.49164 0.85448 0.23083 0.0
C2236 C 0.49104 0.8473 0.20718 0.0
C2237 C 0.44036 0.81648 0.08104 0.0
C2238 C 0.44616 0.83457 0.07541 0.0
C2239 C 0.44876 0.81208 0.09975 0.0
C2240 C 0.46347 0.82564 0.11285 0.0
C2241 C 0.46933 0.84375 0.1073 0.0
C2242 C 0.46072 0.84819 0.08876 0.0
C2243 C 0.47213 0.82069 0.1329 0.0
C2244 C 0.47364 0.82797 0.15687 0.0
C2245 C 0.47714 0.80744 0.1291 0.0
C2246 C 0.47747 0.80046 0.1038 0.0
C2247 C 0.48655 0.81242 0.08402 0.0
C2248 C 0.48638 0.80584 0.06008 0.0
C2249 C 0.47729 0.78731 0.05569 0.0
C2250 C 0.4684 0.77531 0.07526 0.0
C2251 C 0.4685 0.78182 0.09923 0.0
H2252 H 0.47711 0.78224 0.03713 0.0
H2253 H 0.4809 0.84901 0.26818 0.0
H2254 H 0.20095 0.72604 0.24948 0.0
H2255 H 0.1834 0.70082 0.22154 0.0
H2256 H 0.20122 0.66882 0.26143 0.0
H2257 H 0.21945 0.69434 0.28883 0.0
H2258 H 0.20632 0.66689 0.21539 0.0
H2259 H 0.15588 0.65896 0.26161 0.0
H2260 H 0.13576 0.66762 0.28251 0.0
H2261 H 0.12473 0.68418 0.2122 0.0
H2262 H 0.14499 0.67586 0.1909 0.0
H2263 H 0.12802 0.59529 0.13268 0.0
H2264 H 0.13767 0.61311 0.17117 0.0
H2265 H 0.18544 0.65352 0.13377 0.0
H2266 H 0.17618 0.63568 0.09563 0.0
H2267 H 0.14452 0.6458 0.18429 0.0
H2268 H 0.22068 0.67042 0.17143 0.0
H2269 H 0.23976 0.65939 0.15319 0.0
H2270 H 0.19721 0.60477 0.16284 0.0
H2271 H 0.17797 0.61545 0.18146 0.0
C2272 C 0.20085 0.71352 0.25264 0.0
C2273 C 0.2117 0.71222 0.27125 0.0
C2274 C 0.1907 0.69903 0.23671 0.0
C2275 C 0.19086 0.68282 0.23942 0.0
C2276 C 0.20093 0.6812 0.25888 0.0
C2277 C 0.21132 0.69579 0.27457 0.0
C2278 C 0.18219 0.66841 0.22034 0.0
C2279 C 0.19273 0.66217 0.20882 0.0
C2280 C 0.16434 0.66192 0.21199 0.0
C2281 C 0.15205 0.66687 0.22467 0.0
C2282 C 0.14926 0.66456 0.25062 0.0
C2283 C 0.13781 0.66939 0.26254 0.0
C2284 C 0.12899 0.67647 0.2487 0.0
C2285 C 0.13157 0.67869 0.2229 0.0
C2286 C 0.14301 0.67389 0.21088 0.0
C2287 C 0.14055 0.608 0.13266 0.0
C2288 C 0.15144 0.61397 0.11118 0.0
C2289 C 0.14602 0.61817 0.15465 0.0
C2290 C 0.16243 0.63446 0.15547 0.0
C2291 C 0.17293 0.64077 0.13375 0.0
C2292 C 0.16759 0.63057 0.11192 0.0
C2293 C 0.1689 0.64488 0.17901 0.0
C2294 C 0.15798 0.65035 0.19124 0.0
C2295 C 0.18625 0.65031 0.18852 0.0
C2296 C 0.19784 0.64376 0.17768 0.0
C2297 C 0.21543 0.65605 0.16979 0.0
C2298 C 0.22627 0.64986 0.15936 0.0
C2299 C 0.21968 0.6314 0.15681 0.0
C2300 C 0.20227 0.61907 0.16476 0.0
C2301 C 0.19139 0.62519 0.17523 0.0
H2302 H 0.22809 0.62663 0.1487 0.0
H2303 H 0.12014 0.68021 0.25797 0.0
H2304 H 0.15163 0.20784 0.31766 0.0
H2305 H 0.16203 0.19407 0.28683 0.0
H2306 H 0.10744 0.15132 0.27539 0.0
H2307 H 0.09685 0.1652 0.30603 0.0
H2308 H 0.1334 0.14025 0.2874 0.0
H2309 H 0.1251 0.17891 0.23053 0.0
H2310 H 0.12882 0.20779 0.21567 0.0
H2311 H 0.18611 0.23035 0.21337 0.0
H2312 H 0.18275 0.20168 0.22857 0.0
H2313 H 0.15381 0.09876 0.1876 0.0
H2314 H 0.14126 0.1118 0.21616 0.0
H2315 H 0.19179 0.16193 0.21593 0.0
H2316 H 0.20412 0.14916 0.18648 0.0
H2317 H 0.16621 0.16867 0.20904 0.0
H2318 H 0.17612 0.13238 0.26759 0.0
H2319 H 0.17418 0.10475 0.28459 0.0
H2320 H 0.11658 0.07925 0.28661 0.0
H2321 H 0.11816 0.10666 0.26931 0.0
C2322 C 0.14182 0.19565 0.3083 0.0
C2323 C 0.12346 0.18754 0.31422 0.0
C2324 C 0.14777 0.18784 0.2907 0.0
C2325 C 0.13547 0.17173 0.27894 0.0
C2326 C 0.11707 0.16379 0.28434 0.0
C2327 C 0.11106 0.17176 0.30169 0.0
C2328 C 0.14209 0.16266 0.26222 0.0
C2329 C 0.1403 0.14625 0.27001 0.0
C2330 C 0.15162 0.17092 0.24011 0.0
C2331 C 0.15367 0.18818 0.23091 0.0
C2332 C 0.1385 0.19007 0.22708 0.0
C2333 C 0.14054 0.2064 0.21854 0.0
C2334 C 0.15769 0.22091 0.21363 0.0
C2335 C 0.17283 0.21911 0.2172 0.0
C2336 C 0.17086 0.20281 0.22575 0.0
C2337 C 0.16232 0.11246 0.19398 0.0
C2338 C 0.17991 0.12299 0.18485 0.0
C2339 C 0.15515 0.1199 0.21035 0.0
C2340 C 0.16562 0.13783 0.21833 0.0
C2341 C 0.18344 0.14811 0.20993 0.0
C2342 C 0.19049 0.14078 0.19322 0.0
C2343 C 0.15772 0.14622 0.23426 0.0
C2344 C 0.15926 0.16255 0.22635 0.0
C2345 C 0.14825 0.13804 0.25653 0.0
C2346 C 0.14725 0.12152 0.2669 0.0
C2347 C 0.16303 0.12083 0.27146 0.0
C2348 C 0.16199 0.10522 0.2812 0.0
C2349 C 0.14526 0.09023 0.28661 0.0
C2350 C 0.12953 0.09085 0.28237 0.0
C2351 C 0.13048 0.10643 0.27262 0.0
H2352 H 0.14449 0.07816 0.29415 0.0
H2353 H 0.15925 0.23354 0.20702 0.0
H2354 H 0.82435 0.92559 0.29997 0.0
H2355 H 0.83896 0.9523 0.27317 0.0
H2356 H 0.79298 0.95954 0.28076 0.0
H2357 H 0.77841 0.93303 0.3079 0.0
H2358 H 0.80886 0.96569 0.23072 0.0
H2359 H 0.82434 0.98228 0.31731 0.0
H2360 H 0.83553 0.97958 0.35857 0.0
H2361 H 0.88653 0.99321 0.32614 0.0
H2362 H 0.87551 0.99565 0.28457 0.0
H2363 H 0.84526 0.05537 0.19343 0.0
H2364 H 0.83063 0.02839 0.2195 0.0
H2365 H 0.88055 0.02792 0.2246 0.0
H2366 H 0.89542 0.05526 0.19916 0.0
H2367 H 0.86289 0.01773 0.26772 0.0
H2368 H 0.84842 0.00196 0.18158 0.0
H2369 H 0.83754 0.00385 0.1397 0.0
H2370 H 0.78537 0.98791 0.16998 0.0
H2371 H 0.79603 0.9862 0.21214 0.0
C2372 C 0.8172 0.93264 0.29548 0.0
C2373 C 0.80032 0.92737 0.30611 0.0
C2374 C 0.82558 0.9479 0.28028 0.0
C2375 C 0.81707 0.95789 0.27528 0.0
C2376 C 0.79972 0.95196 0.2845 0.0
C2377 C 0.79146 0.93688 0.3 0.0
C2378 C 0.82681 0.97533 0.2622 0.0
C2379 C 0.82057 0.97714 0.23883 0.0
C2380 C 0.84227 0.99006 0.27273 0.0
C2381 C 0.84903 0.98895 0.29779 0.0
C2382 C 0.83789 0.98455 0.31894 0.0
C2383 C 0.84421 0.98309 0.34239 0.0
C2384 C 0.86172 0.98618 0.34497 0.0
C2385 C 0.87296 0.9908 0.32411 0.0
C2386 C 0.86669 0.99222 0.3006 0.0
C2387 C 0.8532 0.04967 0.20046 0.0
C2388 C 0.87144 0.05728 0.19407 0.0
C2389 C 0.8448 0.03422 0.21522 0.0
C2390 C 0.8544 0.0259 0.22342 0.0
C2391 C 0.87287 0.03407 0.21831 0.0
C2392 C 0.88135 0.04969 0.20378 0.0
C2393 C 0.84494 0.00821 0.23613 0.0
C2394 C 0.85122 0.00631 0.25947 0.0
C2395 C 0.8296 0.99333 0.22545 0.0
C2396 C 0.82307 0.99411 0.20006 0.0
C2397 C 0.83466 -0.00104 0.17934 0.0
C2398 C 0.82853 -1e-05 0.15554 0.0
C2399 C 0.81079 0.99604 0.15219 0.0
C2400 C 0.79912 0.99099 0.17261 0.0
C2401 C 0.80519 0.98998 0.19646 0.0
H2402 H 0.80607 0.99685 0.13375 0.0
H2403 H 0.86658 0.98503 0.36313 0.0
H2404 H 0.93711 0.77884 0.16245 0.0
H2405 H 0.95892 0.78733 0.19631 0.0
H2406 H 0.94501 0.82642 0.22226 0.0
H2407 H 0.92303 0.8179 0.18852 0.0
H2408 H 0.98826 0.8196 0.20293 0.0
H2409 H 0.95138 0.83099 0.28565 0.0
H2410 H 0.9205 0.81848 0.30182 0.0
H2411 H 0.90497 0.76803 0.26591 0.0
H2412 H 0.93581 0.78015 0.24983 0.0
H2413 H 0.04943 0.87679 0.29471 0.0
H2414 H 0.02482 0.86261 0.26455 0.0
H2415 H 0.00149 0.8132 0.3069 0.0
H2416 H 0.02598 0.82729 0.33721 0.0
H2417 H 0.97631 0.822 0.2931 0.0
H2418 H 0.0233 0.81603 0.25443 0.0
H2419 H 0.05393 0.82649 0.23864 0.0
H2420 H 0.04857 0.86183 0.18701 0.0
H2421 H 0.01797 0.85177 0.20275 0.0
C2422 C 0.93854 0.78911 0.17552 0.0
C2423 C 0.92845 0.7978 0.17274 0.0
C2424 C 0.95103 0.79396 0.19482 0.0
C2425 C 0.95356 0.80748 0.21177 0.0
C2426 C 0.94312 0.81581 0.20952 0.0
C2427 C 0.93061 0.81097 0.19019 0.0
C2428 C 0.96792 0.81366 0.2308 0.0
C2429 C 0.98563 0.82007 0.22265 0.0
C2430 C 0.96443 0.81404 0.25654 0.0
C2431 C 0.94588 0.80655 0.26634 0.0
C2432 C 0.9414 0.81721 0.28129 0.0
C2433 C 0.9239 0.81018 0.29043 0.0
C2434 C 0.91077 0.79249 0.28483 0.0
C2435 C 0.91513 0.78176 0.27015 0.0
C2436 C 0.93262 0.78871 0.26099 0.0
C2437 C 0.03909 0.86289 0.29756 0.0
C2438 C 0.03965 0.85314 0.31828 0.0
C2439 C 0.02507 0.85481 0.28031 0.0
C2440 C 0.01142 0.83684 0.28346 0.0
C2441 C 0.0119 0.8271 0.30419 0.0
C2442 C 0.02593 0.83515 0.3214 0.0
C2443 C -0.00336 0.82823 0.26512 0.0
C2444 C 0.97889 0.82143 0.27338 0.0
C2445 C 3e-05 0.82722 0.23951 0.0
C2446 C 0.0184 0.83326 0.22993 0.0
C2447 C 0.0287 0.82614 0.23985 0.0
C2448 C 0.04605 0.83198 0.23088 0.0
C2449 C 0.05321 0.84485 0.21188 0.0
C2450 C 0.04301 0.85187 0.20175 0.0
C2451 C 0.02566 0.8461 0.21067 0.0
H2452 H 0.06664 0.84935 0.20496 0.0
H2453 H 0.89723 0.78709 0.29192 0.0
H2454 H 0.84134 0.79977 0.6809 0.0
H2455 H 0.82953 0.81506 0.70644 0.0
H2456 H 0.88309 0.86066 0.71443 0.0
H2457 H 0.89509 0.84504 0.68966 0.0
H2458 H 0.86573 0.85437 0.75684 0.0
H2459 H 0.85203 0.86045 0.67184 0.0
H2460 H 0.83996 0.84975 0.62959 0.0
H2461 H 0.78695 0.81735 0.65999 0.0
H2462 H 0.79872 0.82763 0.70245 0.0
H2463 H 0.83015 0.90839 0.80341 0.0
H2464 H 0.84481 0.8986 0.77277 0.0
H2465 H 0.79824 0.84529 0.77282 0.0
H2466 H 0.78377 0.85483 0.80377 0.0
H2467 H 0.81438 0.8594 0.72395 0.0
H2468 H 0.82881 0.85011 0.80838 0.0
H2469 H 0.84036 0.86016 0.85101 0.0
H2470 H 0.89191 0.89875 0.82115 0.0
H2471 H 0.88055 0.88909 0.7783 0.0
C2472 C 0.85061 0.81299 0.68829 0.0
C2473 C 0.86909 0.82129 0.68319 0.0
C2474 C 0.84384 0.82178 0.70271 0.0
C2475 C 0.85536 0.83922 0.71175 0.0
C2476 C 0.87394 0.84727 0.70746 0.0
C2477 C 0.88077 0.83833 0.69336 0.0
C2478 C 0.84794 0.84902 0.72555 0.0
C2479 C 0.85476 0.85579 0.74939 0.0
C2480 C 0.83345 0.85069 0.71598 0.0
C2481 C 0.82629 0.84474 0.69037 0.0
C2482 C 0.83781 0.85098 0.66953 0.0
C2483 C 0.83102 0.84499 0.64554 0.0
C2484 C 0.81271 0.83285 0.64213 0.0
C2485 C 0.80113 0.82674 0.66267 0.0
C2486 C 0.80785 0.83267 0.6867 0.0
C2487 C 0.82293 0.89471 0.79642 0.0
C2488 C 0.8059 0.8823 0.80593 0.0
C2489 C 0.83131 0.88914 0.77906 0.0
C2490 C 0.82258 0.87123 0.77075 0.0
C2491 C 0.80513 0.85917 0.77904 0.0
C2492 C 0.79693 0.86461 0.79673 0.0
C2493 C 0.83207 0.86447 0.75512 0.0
C2494 C 0.8256 0.85826 0.73104 0.0
C2495 C 0.84688 0.86334 0.7644 0.0
C2496 C 0.85376 0.86906 0.79014 0.0
C2497 C 0.84255 0.86086 0.8109 0.0
C2498 C 0.84907 0.86645 0.8351 0.0
C2499 C 0.86683 0.88014 0.83878 0.0
C2500 C 0.87813 0.88819 0.81827 0.0
C2501 C 0.87166 0.88266 0.79402 0.0
H2502 H 0.87185 0.88448 0.85752 0.0
H2503 H 0.80746 0.82818 0.62358 0.0
H2504 H 0.21281 0.04949 0.67314 0.0
H2505 H 0.20189 0.02583 0.70491 0.0
H2506 H 0.15304 0.0282 0.712 0.0
H2507 H 0.16426 0.05239 0.68114 0.0
H2508 H 0.16241 0.02315 0.75557 0.0
H2509 H 0.1561 0.9959 0.67511 0.0
H2510 H 0.16637 0.99156 0.63405 0.0
H2511 H 0.20325 0.9787 0.66995 0.0
H2512 H 0.19336 0.98321 0.71125 0.0
H2513 H 0.10427 0.93465 0.80148 0.0
H2514 H 0.11841 0.95959 0.7716 0.0
H2515 H 0.17018 0.96505 0.78706 0.0
H2516 H 0.15623 0.94039 0.8174 0.0
H2517 H 0.16037 0.96601 0.73319 0.0
H2518 H 0.16469 0.99274 0.81438 0.0
H2519 H 0.15221 0.9958 0.85434 0.0
H2520 H 0.11619 0.00816 0.8149 0.0
H2521 H 0.12827 0.00488 0.77466 0.0
C2522 C 0.19984 0.04508 0.68173 0.0
C2523 C 0.1893 0.05262 0.67459 0.0
C2524 C 0.19357 0.03151 0.69975 0.0
C2525 C 0.17645 0.02494 0.71038 0.0
C2526 C 0.16625 0.03301 0.70398 0.0
C2527 C 0.17267 0.04681 0.68633 0.0
C2528 C 0.16883 0.00925 0.72747 0.0
C2529 C 0.16184 0.01063 0.75052 0.0
C2530 C 0.16825 0.99293 0.72105 0.0
C2531 C 0.17412 0.99008 0.69626 0.0
C2532 C 0.16648 0.99226 0.67424 0.0
C2533 C 0.17222 0.98976 0.65093 0.0
C2534 C 0.18549 0.98491 0.64939 0.0
C2535 C 0.193 0.98249 0.67117 0.0
C2536 C 0.18732 0.98501 0.69454 0.0
C2537 C 0.11862 0.94102 0.79827 0.0
C2538 C 0.1292 0.9357 0.81177 0.0
C2539 C 0.12665 0.95526 0.7813 0.0
C2540 C 0.14529 0.96412 0.77736 0.0
C2541 C 0.15577 0.95831 0.78996 0.0
C2542 C 0.1478 0.94431 0.80727 0.0
C2543 C 0.15394 0.98001 0.76095 0.0
C2544 C 0.16108 0.97861 0.73812 0.0
C2545 C 0.15438 0.99619 0.76735 0.0
C2546 C 0.14725 -0.00163 0.79152 0.0
C2547 C 0.154 0.99595 0.81422 0.0
C2548 C 0.14702 -0.00224 0.83692 0.0
C2549 C 0.13338 0.00213 0.83716 0.0
C2550 C 0.12673 0.00475 0.81469 0.0
C2551 C 0.13365 0.00293 0.79193 0.0
H2552 H 0.12799 0.00352 0.85475 0.0
H2553 H 0.18991 0.98297 0.63132 0.0
H2554 H 0.92983 0.0958 0.68581 0.0
H2555 H 0.95462 0.1079 0.71578 0.0
H2556 H 0.95882 0.1601 0.71048 0.0
H2557 H 0.93457 0.14822 0.67974 0.0
H2558 H 0.99032 0.16417 0.70663 0.0
H2559 H 0.94152 0.13209 0.76335 0.0
H2560 H 0.91407 0.10612 0.78025 0.0
H2561 H 0.94212 0.07674 0.78871 0.0
H2562 H 0.96969 0.10246 0.77153 0.0
H2563 H 0.04223 0.2025 0.81749 0.0
H2564 H 0.01746 0.1889 0.78745 0.0
H2565 H 0.0279 0.14527 0.77549 0.0
H2566 H 0.05306 0.15903 0.80514 0.0
H2567 H 0.9898 0.13628 0.78804 0.0
H2568 H 0.03931 0.17078 0.73155 0.0
H2569 H 0.06621 0.19837 0.71692 0.0
H2570 H 0.03543 0.22515 0.71101 0.0
H2571 H 0.0084 0.19777 0.72598 0.0
C2572 C 0.93589 0.10978 0.69134 0.0
C2573 C 0.93035 0.12111 0.68047 0.0
C2574 C 0.95002 0.11668 0.70851 0.0
C2575 C 0.95853 0.1349 0.71552 0.0
C2576 C 0.95254 0.14603 0.70527 0.0
C2577 C 0.93864 0.13923 0.6878 0.0
C2578 C 0.97432 0.14264 0.7324 0.0
C2579 C 0.99007 0.15815 0.72456 0.0
C2580 C 0.97418 0.13464 0.75561 0.0
C2581 C 0.95762 0.11913 0.7659 0.0
C2582 C 0.9418 0.12003 0.76861 0.0
C2583 C 0.92622 0.10537 0.77828 0.0
C2584 C 0.92634 0.08977 0.78548 0.0
C2585 C 0.94204 0.08882 0.78309 0.0
C2586 C 0.95765 0.10344 0.77341 0.0
C2587 C 0.03934 0.19009 0.80829 0.0
C2588 C 0.04952 0.1818 0.81356 0.0
C2589 C 0.02523 0.18237 0.79119 0.0
C2590 C 0.02094 0.16613 0.77941 0.0
C2591 C 0.0311 0.15783 0.7845 0.0
C2592 C 0.04547 0.16574 0.80127 0.0
C2593 C 0.00552 0.1577 0.7622 0.0
C2594 C 0.98992 0.14213 0.77002 0.0
C2595 C 0.00565 0.16583 0.73923 0.0
C2596 C 0.02188 0.18228 0.73013 0.0
C2597 C 0.03832 0.1826 0.72737 0.0
C2598 C 0.05358 0.19819 0.71895 0.0
C2599 C 0.05254 0.21352 0.7131 0.0
C2600 C 0.03622 0.21327 0.71558 0.0
C2601 C 0.02092 0.19772 0.72401 0.0
H2602 H 0.06437 0.22557 0.70658 0.0
H2603 H 0.91427 0.07844 0.79297 0.0
H2604 H 0.76758 0.49557 0.62811 0.0
H2605 H 0.7814 0.48131 0.60429 0.0
H2606 H 0.83203 0.53118 0.60447 0.0
H2607 H 0.81843 0.54548 0.62885 0.0
H2608 H 0.82077 0.51072 0.55665 0.0
H2609 H 0.82998 0.50488 0.6443 0.0
H2610 H 0.82003 0.49695 0.68799 0.0
H2611 H 0.78472 0.44201 0.66648 0.0
H2612 H 0.79427 0.4497 0.62256 0.0
H2613 H 0.87934 0.48075 0.52193 0.0
H2614 H 0.86627 0.49439 0.54839 0.0
H2615 H 0.81843 0.44258 0.55781 0.0
H2616 H 0.83154 0.42873 0.53149 0.0
H2617 H 0.82776 0.46367 0.60092 0.0
H2618 H 0.81861 0.46898 0.51369 0.0
H2619 H 0.82803 0.47657 0.46978 0.0
H2620 H 0.86221 0.53203 0.48989 0.0
H2621 H 0.85323 0.5247 0.53403 0.0
C2622 C 0.78157 0.50359 0.62273 0.0
C2623 C 0.792 0.52159 0.63046 0.0
C2624 C 0.78944 0.49541 0.60923 0.0
C2625 C 0.80772 0.5052 0.60294 0.0
C2626 C 0.81789 0.52346 0.60928 0.0
C2627 C 0.81013 0.53157 0.62318 0.0
C2628 C 0.81645 0.49608 0.591 0.0
C2629 C 0.82251 0.50059 0.56636 0.0
C2630 C 0.81829 0.48262 0.60366 0.0
C2631 C 0.81268 0.47791 0.63009 0.0
C2632 C 0.81997 0.49115 0.64884 0.0
C2633 C 0.81443 0.48669 0.67366 0.0
C2634 C 0.80171 0.469 0.67999 0.0
C2635 C 0.79455 0.45572 0.66153 0.0
C2636 C 0.80003 0.46011 0.63668 0.0
C2637 C 0.86618 0.47218 0.53003 0.0
C2638 C 0.85633 0.45373 0.52436 0.0
C2639 C 0.85873 0.48 0.5451 0.0
C2640 C 0.84126 0.46954 0.55455 0.0
C2641 C 0.83191 0.45087 0.55053 0.0
C2642 C 0.83941 0.44299 0.53551 0.0
C2643 C 0.83222 0.47839 0.56655 0.0
C2644 C 0.82604 0.4738 0.59117 0.0
C2645 C 0.83017 0.49174 0.55382 0.0
C2646 C 0.83537 0.49626 0.52721 0.0
C2647 C 0.82823 0.48277 0.50878 0.0
C2648 C 0.83348 0.48703 0.48385 0.0
C2649 C 0.84574 0.50476 0.47705 0.0
C2650 C 0.85273 0.51829 0.49518 0.0
C2651 C 0.84756 0.51409 0.52017 0.0
H2652 H 0.84979 0.50803 0.45774 0.0
H2653 H 0.79744 0.46558 0.69921 0.0
H2654 H 0.44674 0.27601 0.65178 0.0
H2655 H 0.45864 0.30105 0.62197 0.0
H2656 H 0.50873 0.30089 0.61879 0.0
H2657 H 0.49682 0.27561 0.64821 0.0
H2658 H 0.51095 0.33566 0.62934 0.0
H2659 H 0.48469 0.28574 0.57146 0.0
H2660 H 0.4601 0.25729 0.55456 0.0
H2661 H 0.42819 0.28232 0.54239 0.0
H2662 H 0.45251 0.31087 0.55957 0.0
H2663 H 0.55451 0.395 0.52834 0.0
H2664 H 0.54156 0.37059 0.55886 0.0
H2665 H 0.48882 0.36329 0.54481 0.0
H2666 H 0.50164 0.38734 0.51366 0.0
H2667 H 0.48708 0.33225 0.54392 0.0
H2668 H 0.51189 0.38181 0.60014 0.0
H2669 H 0.53496 0.41052 0.61851 0.0
H2670 H 0.56761 0.38706 0.63594 0.0
H2671 H 0.54483 0.35826 0.61736 0.0
C2672 C 0.46021 0.2812 0.64451 0.0
C2673 C 0.47088 0.27391 0.65226 0.0
C2674 C 0.46696 0.29545 0.62753 0.0
C2675 C 0.48453 0.30275 0.61834 0.0
C2676 C 0.49514 0.29538 0.62579 0.0
C2677 C 0.48829 0.28092 0.64243 0.0
C2678 C 0.49204 0.31848 0.60156 0.0
C2679 C 0.50595 0.33494 0.61052 0.0
C2680 C 0.48494 0.31753 0.57747 0.0
C2681 C 0.47034 0.30039 0.56706 0.0
C2682 C 0.47236 0.28514 0.56541 0.0
C2683 C 0.45849 0.269 0.55572 0.0
C2684 C 0.44258 0.26798 0.54747 0.0
C2685 C 0.44052 0.28312 0.54882 0.0
C2686 C 0.45435 0.29929 0.55851 0.0
C2687 C 0.54019 0.38836 0.53202 0.0
C2688 C 0.52906 0.39302 0.51859 0.0
C2689 C 0.53281 0.37444 0.54953 0.0
C2690 C 0.51423 0.36518 0.55426 0.0
C2691 C 0.50318 0.37021 0.5414 0.0
C2692 C 0.51053 0.38399 0.52369 0.0
C2693 C 0.5062 0.3496 0.57155 0.0
C2694 C 0.49213 0.33311 0.56274 0.0
C2695 C 0.51296 0.35061 0.59597 0.0
C2696 C 0.52672 0.36792 0.60713 0.0
C2697 C 0.52405 0.38281 0.6077 0.0
C2698 C 0.53707 0.3991 0.61819 0.0
C2699 C 0.55276 0.40063 0.62833 0.0
C2700 C 0.55545 0.38586 0.62805 0.0
C2701 C 0.54249 0.36955 0.61757 0.0
H2702 H 0.56282 0.41324 0.63644 0.0
H2703 H 0.43185 0.25548 0.53998 0.0
H2704 H 0.62427 0.13771 0.48107 0.0
H2705 H 0.6468 0.14633 0.51386 0.0
H2706 H 0.61188 0.1531 0.56526 0.0
H2707 H 0.58968 0.14542 0.53198 0.0
H2708 H 0.64289 0.17981 0.56978 0.0
H2709 H 0.62093 0.11679 0.56876 0.0
H2710 H 0.61191 0.08704 0.55064 0.0
H2711 H 0.66589 0.10648 0.52489 0.0
H2712 H 0.6752 0.13643 0.54256 0.0
H2713 H 0.70504 0.16984 0.66568 0.0
H2714 H 0.68008 0.15575 0.63612 0.0
H2715 H 0.70391 0.20444 0.59211 0.0
H2716 H 0.72867 0.2188 0.62195 0.0
H2717 H 0.67611 0.14763 0.5882 0.0
H2718 H 0.67178 0.21231 0.57097 0.0
H2719 H 0.67831 0.24001 0.59352 0.0
H2720 H 0.67173 0.2131 0.66365 0.0
H2721 H 0.66489 0.18518 0.64154 0.0
C2722 C 0.62134 0.14088 0.49944 0.0
C2723 C 0.60528 0.14096 0.50404 0.0
C2724 C 0.63417 0.14568 0.51824 0.0
C2725 C 0.63096 0.15012 0.54219 0.0
C2726 C 0.61468 0.14975 0.54694 0.0
C2727 C 0.60201 0.14534 0.52796 0.0
C2728 C 0.64507 0.15635 0.56171 0.0
C2729 C 0.65004 0.17268 0.57386 0.0
C2730 C 0.65425 0.14692 0.56746 0.0
C2731 C 0.64873 0.12891 0.55684 0.0
C2732 C 0.63085 0.11476 0.55908 0.0
C2733 C 0.62569 0.09785 0.54891 0.0
C2734 C 0.63831 0.09488 0.53658 0.0
C2735 C 0.65613 0.10881 0.53444 0.0
C2736 C 0.66136 0.12574 0.54456 0.0
C2737 C 0.70503 0.17751 0.6496 0.0
C2738 C 0.71867 0.19551 0.64627 0.0
C2739 C 0.69079 0.16941 0.6327 0.0
C2740 C 0.68999 0.17916 0.6122 0.0
C2741 C 0.70409 0.19681 0.60813 0.0
C2742 C 0.71825 0.20498 0.62513 0.0
C2743 C 0.67405 0.17119 0.59568 0.0
C2744 C 0.6688 0.15462 0.58413 0.0
C2745 C 0.66417 0.18004 0.59112 0.0
C2746 C 0.66799 0.19671 0.60457 0.0
C2747 C 0.67164 0.21229 0.5912 0.0
C2748 C 0.67541 0.22803 0.6039 0.0
C2749 C 0.67549 0.22833 0.63 0.0
C2750 C 0.67172 0.21287 0.64344 0.0
C2751 C 0.66792 0.19709 0.63083 0.0
H2752 H 0.67843 0.24053 0.63979 0.0
H2753 H 0.63428 0.08178 0.52872 0.0
H2754 H 0.51353 0.12174 0.02344 0.0
H2755 H 0.50118 0.13474 0.05239 0.0
H2756 H 0.55283 0.18346 0.05621 0.0
H2757 H 0.56547 0.17016 0.02792 0.0
H2758 H 0.53651 0.17648 0.10034 0.0
H2759 H 0.52021 0.18015 0.01622 0.0
H2760 H 0.5081 0.16879 0.97421 0.0
H2761 H 0.45617 0.13314 0.00575 0.0
H2762 H 0.46804 0.14409 0.04801 0.0
H2763 H 0.49765 0.22951 0.14033 0.0
H2764 H 0.51278 0.21833 0.11282 0.0
H2765 H 0.4676 0.16443 0.1194 0.0
H2766 H 0.4526 0.1754 0.14727 0.0
H2767 H 0.48211 0.17648 0.06888 0.0
H2768 H 0.50002 0.17267 0.15359 0.0
H2769 H 0.51277 0.18528 0.1949 0.0
H2770 H 0.56274 0.22337 0.16053 0.0
H2771 H 0.55017 0.21115 0.11895 0.0
C2772 C 0.52233 0.13509 0.03085 0.0
C2773 C 0.54037 0.14505 0.02331 0.0
C2774 C 0.51525 0.14254 0.04725 0.0
C2775 C 0.52596 0.16026 0.05582 0.0
C2776 C 0.54431 0.16981 0.04961 0.0
C2777 C 0.55151 0.16221 0.03351 0.0
C2778 C 0.51766 0.16907 0.06993 0.0
C2779 C 0.52478 0.17671 0.09329 0.0
C2780 C 0.50231 0.16933 0.06074 0.0
C2781 C 0.49506 0.16285 0.03531 0.0
C2782 C 0.50623 0.16981 0.01422 0.0
C2783 C 0.49941 0.16345 0.99036 0.0
C2784 C 0.48139 0.15023 0.98732 0.0
C2785 C 0.47014 0.14337 0.00814 0.0
C2786 C 0.4769 0.14966 0.03205 0.0
C2787 C 0.49087 0.21531 0.13561 0.0
C2788 C 0.47399 0.20325 0.14592 0.0
C2789 C 0.49955 0.20898 0.12004 0.0
C2790 C 0.4913 0.19059 0.11432 0.0
C2791 C 0.47413 0.17868 0.12371 0.0
C2792 C 0.46561 0.18492 0.13961 0.0
C2793 C 0.5008 0.18356 0.0993 0.0
C2794 C 0.49392 0.17632 0.07576 0.0
C2795 C 0.51647 0.1839 0.10816 0.0
C2796 C 0.52408 0.19115 0.13315 0.0
C2797 C 0.51367 0.18385 0.15482 0.0
C2798 C 0.52087 0.1909 0.17829 0.0
C2799 C 0.53853 0.20515 0.18034 0.0
C2800 C 0.54905 0.21235 0.15892 0.0
C2801 C 0.54189 0.20536 0.1354 0.0
H2802 H 0.54409 0.2106 0.19852 0.0
H2803 H 0.47613 0.14531 0.96883 0.0
H2804 H 0.82372 0.39355 0.01535 0.0
H2805 H 0.81261 0.36863 0.04521 0.0
H2806 H 0.86108 0.36591 0.03507 0.0
H2807 H 0.87176 0.39017 0.0044 0.0
H2808 H 0.83455 0.33426 0.03208 0.0
H2809 H 0.85121 0.38197 0.0903 0.0
H2810 H 0.85244 0.40883 0.10895 0.0
H2811 H 0.79527 0.37937 0.12024 0.0
H2812 H 0.79366 0.35238 0.10133 0.0
H2813 H 0.82114 0.27904 0.14063 0.0
H2814 H 0.83276 0.30463 0.11173 0.0
H2815 H 0.77899 0.29512 0.1004 0.0
H2816 H 0.76719 0.26925 0.12879 0.0
H2817 H 0.80808 0.33259 0.11505 0.0
H2818 H 0.79338 0.28445 0.05564 0.0
H2819 H 0.79469 0.25825 0.03934 0.0
H2820 H 0.85218 0.29023 0.03362 0.0
H2821 H 0.85123 0.31656 0.05024 0.0
C2822 C 0.83208 0.38779 0.01984 0.0
C2823 C 0.84855 0.39369 0.00758 0.0
C2824 C 0.82577 0.37359 0.03695 0.0
C2825 C 0.83605 0.36543 0.04252 0.0
C2826 C 0.85284 0.37188 0.03097 0.0
C2827 C 0.85897 0.38578 0.01354 0.0
C2828 C 0.82888 0.34944 0.0591 0.0
C2829 C 0.82902 0.33406 0.05037 0.0
C2830 C 0.8214 0.34899 0.08285 0.0
C2831 C 0.82229 0.3652 0.09416 0.0
C2832 C 0.83887 0.38126 0.09656 0.0
C2833 C 0.83964 0.3965 0.10722 0.0
C2834 C 0.82393 0.39582 0.11571 0.0
C2835 C 0.80742 0.37988 0.11362 0.0
C2836 C 0.80658 0.3646 0.10295 0.0
C2837 C 0.81179 0.28228 0.13172 0.0
C2838 C 0.79328 0.27219 0.13686 0.0
C2839 C 0.81843 0.29687 0.1153 0.0
C2840 C 0.80669 0.3017 0.10413 0.0
C2841 C 0.7882 0.29153 0.10897 0.0
C2842 C 0.7815 0.27674 0.12501 0.0
C2843 C 0.81382 0.31768 0.08789 0.0
C2844 C 0.81366 0.33297 0.09673 0.0
C2845 C 0.82168 0.31822 0.06454 0.0
C2846 C 0.82225 0.30242 0.05444 0.0
C2847 C 0.80632 0.28585 0.05114 0.0
C2848 C 0.80699 0.27099 0.04179 0.0
C2849 C 0.82351 0.27256 0.03552 0.0
C2850 C 0.83939 0.28902 0.03852 0.0
C2851 C 0.83879 0.30392 0.04788 0.0
H2852 H 0.824 0.26104 0.02828 0.0
H2853 H 0.82456 0.40763 0.12396 0.0
H2854 H 0.60948 0.43152 0.01985 0.0
H2855 H 0.63381 0.44277 0.0506 0.0
H2856 H 0.64505 0.49709 0.0372 0.0
H2857 H 0.62138 0.48597 0.00568 0.0
H2858 H 0.67474 0.49745 0.03816 0.0
H2859 H 0.62321 0.4721 0.09156 0.0
H2860 H 0.59387 0.4488 0.10805 0.0
H2861 H 0.61621 0.41521 0.12591 0.0
H2862 H 0.64564 0.43823 0.10922 0.0
H2863 H 0.72116 0.53754 0.15255 0.0
H2864 H 0.69812 0.52419 0.12 0.0
H2865 H 0.70594 0.47837 0.11615 0.0
H2866 H 0.7294 0.49187 0.1483 0.0
H2867 H 0.6677 0.47253 0.1237 0.0
H2868 H 0.72062 0.50127 0.07093 0.0
H2869 H 0.74939 0.527 0.05694 0.0
H2870 H 0.72301 0.55716 0.04093 0.0
H2871 H 0.6941 0.53169 0.05519 0.0
C2872 C 0.61708 0.44583 0.02367 0.0
C2873 C 0.61362 0.4579 0.01043 0.0
C2874 C 0.63093 0.45225 0.04129 0.0
C2875 C 0.64118 0.47078 0.04639 0.0
C2876 C 0.63741 0.48276 0.0335 0.0
C2877 C 0.62384 0.47639 0.01557 0.0
C2878 C 0.65626 0.47785 0.0645 0.0
C2879 C 0.67309 0.49207 0.05692 0.0
C2880 C 0.65426 0.4707 0.0889 0.0
C2881 C 0.63657 0.4568 0.09887 0.0
C2882 C 0.62182 0.45968 0.0988 0.0
C2883 C 0.60519 0.44654 0.10823 0.0
C2884 C 0.60316 0.43051 0.11795 0.0
C2885 C 0.61779 0.42761 0.11833 0.0
C2886 C 0.63445 0.44071 0.10891 0.0
C2887 C 0.71808 0.5247 0.14459 0.0
C2888 C 0.72701 0.51571 0.15286 0.0
C2889 C 0.70497 0.51713 0.12605 0.0
C2890 C 0.70042 0.50035 0.11584 0.0
C2891 C 0.70936 0.49136 0.12391 0.0
C2892 C 0.72277 0.49911 0.14211 0.0
C2893 C 0.68589 0.49204 0.09725 0.0
C2894 C 0.66923 0.47769 0.1048 0.0
C2895 C 0.68789 0.49935 0.07308 0.0
C2896 C 0.70523 0.51463 0.06435 0.0
C2897 C 0.72098 0.51344 0.06465 0.0
C2898 C 0.73731 0.52797 0.05662 0.0
C2899 C 0.73804 0.54372 0.04811 0.0
C2900 C 0.72243 0.54496 0.04755 0.0
C2901 C 0.70607 0.53047 0.05558 0.0
H2902 H 0.75069 0.55495 0.0419 0.0
H2903 H 0.59027 0.42035 0.12525 0.0
H2904 H 0.41542 0.82223 0.96397 0.0
H2905 H 0.42667 0.80601 0.93895 0.0
H2906 H 0.4752 0.85604 0.92314 0.0
H2907 H 0.46429 0.87224 0.94865 0.0
H2908 H 0.46056 0.83039 0.88167 0.0
H2909 H 0.47738 0.83545 0.96912 0.0
H2910 H 0.47092 0.83157 0.0143 0.0
H2911 H 0.43842 0.77442 0.00429 0.0
H2912 H 0.44438 0.778 0.95893 0.0
H2913 H 0.52847 0.81077 0.85531 0.0
H2914 H 0.51132 0.8226 0.87624 0.0
H2915 H 0.47005 0.76862 0.89518 0.0
H2916 H 0.48717 0.75659 0.87427 0.0
H2917 H 0.47733 0.79305 0.93357 0.0
H2918 H 0.46363 0.7877 0.84646 0.0
H2919 H 0.46983 0.79179 0.80122 0.0
H2920 H 0.49611 0.84915 0.81016 0.0
H2921 H 0.49037 0.84544 0.85552 0.0
C2922 C 0.42826 0.82981 0.95458 0.0
C2923 C 0.4391 0.84844 0.95834 0.0
C2924 C 0.43467 0.82053 0.94041 0.0
C2925 C 0.45181 0.82987 0.92951 0.0
C2926 C 0.46195 0.84865 0.93147 0.0
C2927 C 0.45572 0.85786 0.94603 0.0
C2928 C 0.4601 0.82005 0.91843 0.0
C2929 C 0.46429 0.82225 0.89294 0.0
C2930 C 0.46459 0.8092 0.93325 0.0
C2931 C 0.46109 0.80702 0.96056 0.0
C2932 C 0.46867 0.82208 0.9765 0.0
C2933 C 0.46513 0.81993 0.00214 0.0
C2934 C 0.45418 0.80277 0.01213 0.0
C2935 C 0.44683 0.78771 0.99651 0.0
C2936 C 0.45028 0.78979 0.97082 0.0
C2937 C 0.51589 0.80141 0.86426 0.0
C2938 C 0.50906 0.78273 0.8629 0.0
C2939 C 0.50606 0.80819 0.87607 0.0
C2940 C 0.48926 0.79643 0.88671 0.0
C2941 C 0.48294 0.77787 0.88685 0.0
C2942 C 0.49274 0.77104 0.87496 0.0
C2943 C 0.47808 0.80359 0.89678 0.0
C2944 C 0.47337 0.80092 0.92213 0.0
C2945 C 0.47309 0.814 0.88179 0.0
C2946 C 0.4767 0.81628 0.85448 0.0
C2947 C 0.47089 0.8012 0.83884 0.0
C2948 C 0.4743 0.80345 0.81316 0.0
C2949 C 0.48338 0.82072 0.80285 0.0
C2950 C 0.48909 0.83578 0.81819 0.0
C2951 C 0.48576 0.83361 0.84388 0.0
H2952 H 0.48596 0.82245 0.78297 0.0
H2953 H 0.45146 0.80114 0.03199 0.0
H2954 H 0.21425 0.72556 0.86326 0.0
H2955 H 0.19899 0.70034 0.89227 0.0
H2956 H 0.15342 0.67506 0.84248 0.0
H2957 H 0.16832 0.70061 0.81391 0.0
H2958 H 0.14178 0.67045 0.88761 0.0
H2959 H 0.18497 0.6611 0.84548 0.0
H2960 H 0.21476 0.6688 0.8289 0.0
H2961 H 0.23599 0.67756 0.9034 0.0
H2962 H 0.20638 0.67017 0.92042 0.0
H2963 H 0.13926 0.58893 0.96059 0.0
H2964 H 0.14828 0.60913 0.92452 0.0
H2965 H 0.13751 0.64576 0.96626 0.0
H2966 H 0.12786 0.62535 0.00189 0.0
H2967 H 0.17485 0.64085 0.91934 0.0
H2968 H 0.12646 0.67002 0.92941 0.0
H2969 H 0.09497 0.65938 0.94135 0.0
H2970 H 0.08074 0.60518 0.9227 0.0
H2971 H 0.11207 0.61551 0.9103 0.0
C2972 C 0.20094 0.71466 0.8586 0.0
C2973 C 0.19252 0.71496 0.83629 0.0
C2974 C 0.19227 0.70022 0.87509 0.0
C2975 C 0.17522 0.68562 0.86927 0.0
C2976 C 0.1666 0.68613 0.8473 0.0
C2977 C 0.17514 0.70072 0.83098 0.0
C2978 C 0.16651 0.66979 0.88606 0.0
C2979 C 0.14897 0.66392 0.8945 0.0
C2980 C 0.17565 0.66084 0.89433 0.0
C2981 C 0.19348 0.66521 0.88421 0.0
C2982 C 0.19602 0.66478 0.85832 0.0
C2983 C 0.21287 0.66908 0.84884 0.0
C2984 C 0.22727 0.6737 0.86508 0.0
C2985 C 0.22483 0.67399 0.89084 0.0
C2986 C 0.20801 0.66973 0.90042 0.0
C2987 C 0.13864 0.60121 0.96192 0.0
C2988 C 0.13289 0.6056 0.98402 0.0
C2989 C 0.1438 0.61273 0.94134 0.0
C2990 C 0.14341 0.62888 0.94258 0.0
C2991 C 0.13753 0.63319 0.96462 0.0
C2992 C 0.13214 0.62157 0.98506 0.0
C2993 C 0.1503 0.64186 0.92156 0.0
C2994 C 0.16754 0.64722 0.91229 0.0
C2995 C 0.14061 0.64985 0.91186 0.0
C2996 C 0.12167 0.64354 0.91912 0.0
C2997 C 0.1166 0.65584 0.92774 0.0
C2998 C 0.09878 0.64986 0.93461 0.0
C2999 C 0.08588 0.63161 0.93285 0.0
C3000 C 0.09076 0.6193 0.92414 0.0
C3001 C 0.10856 0.62521 0.91723 0.0
H3002 H 0.07209 0.62701 0.93819 0.0
H3003 H 0.24031 0.67702 0.85771 0.0
H3004 H 0.39802 0.56385 0.96353 0.0
H3005 H 0.37211 0.55169 0.93526 0.0
H3006 H 0.37057 0.50068 0.93391 0.0
H3007 H 0.39616 0.5126 0.96262 0.0
H3008 H 0.3635 0.51402 0.88543 0.0
H3009 H 0.3456 0.50186 0.97277 0.0
H3010 H 0.34675 0.51133 0.01654 0.0
H3011 H 0.32802 0.5472 0.99426 0.0
H3012 H 0.3271 0.53819 0.95026 0.0
H3013 H 0.27545 0.45418 0.8465 0.0
H3014 H 0.30285 0.46775 0.87168 0.0
H3015 H 0.29551 0.51289 0.88812 0.0
H3016 H 0.26787 0.49921 0.86345 0.0
H3017 H 0.30786 0.50402 0.92805 0.0
H3018 H 0.32354 0.51549 0.84175 0.0
H3019 H 0.32315 0.50764 0.79738 0.0
H3020 H 0.34674 0.4753 0.81615 0.0
H3021 H 0.34699 0.48271 0.86072 0.0
C3022 C 0.39243 0.55019 0.95668 0.0
C3023 C 0.39893 0.53906 0.96533 0.0
C3024 C 0.37766 0.54329 0.94063 0.0
C3025 C 0.36946 0.5253 0.93275 0.0
C3026 C 0.37679 0.5146 0.93983 0.0
C3027 C 0.39133 0.52138 0.95626 0.0
C3028 C 0.35208 0.51703 0.91958 0.0
C3029 C 0.35128 0.51167 0.8947 0.0
C3030 C 0.33633 0.51439 0.93171 0.0
C3031 C 0.33648 0.51951 0.95821 0.0
C3032 C 0.34187 0.51188 0.97718 0.0
C3033 C 0.34247 0.51715 0.00203 0.0
C3034 C 0.33752 0.5299 0.00817 0.0
C3035 C 0.33189 0.53735 0.98947 0.0
C3036 C 0.33132 0.53217 0.96458 0.0
C3037 C 0.27953 0.46686 0.85579 0.0
C3038 C 0.26965 0.47574 0.85279 0.0
C3039 C 0.29522 0.47464 0.87005 0.0
C3040 C 0.30141 0.49152 0.88124 0.0
C3041 C 0.29102 0.49991 0.87948 0.0
C3042 C 0.27523 0.49207 0.86538 0.0
C3043 C 0.31913 0.5008 0.89378 0.0
C3044 C 0.32003 0.50638 0.91861 0.0
C3045 C 0.33502 0.50382 0.88146 0.0
C3046 C 0.33513 0.49953 0.85462 0.0
C3047 C 0.32854 0.50661 0.83645 0.0
C3048 C 0.32834 0.50224 0.81126 0.0
C3049 C 0.33488 0.49095 0.80396 0.0
C3050 C 0.34166 0.48403 0.82184 0.0
C3051 C 0.34184 0.48832 0.84707 0.0
H3052 H 0.33471 0.48758 0.78445 0.0
H3053 H 0.338 0.53397 0.02741 0.0
H3054 H 0.16782 0.56328 0.46947 0.0
H3055 H 0.18044 0.55096 0.43978 0.0
H3056 H 0.1405 0.49703 0.4616 0.0
H3057 H 0.1283 0.50932 0.49202 0.0
H3058 H 0.17114 0.49877 0.45904 0.0
H3059 H 0.13862 0.5162 0.4048 0.0
H3060 H 0.12886 0.53619 0.38613 0.0
H3061 H 0.18277 0.57208 0.3611 0.0
H3062 H 0.19291 0.55242 0.37993 0.0
H3063 H 0.17883 0.45534 0.34801 0.0
H3064 H 0.16812 0.46795 0.38027 0.0
H3065 H 0.21876 0.51777 0.3779 0.0
H3066 H 0.22979 0.50508 0.34605 0.0
H3067 H 0.18354 0.51826 0.3705 0.0
H3068 H 0.21445 0.49773 0.42546 0.0
H3069 H 0.22126 0.47504 0.44228 0.0
H3070 H 0.16596 0.44151 0.46344 0.0
H3071 H 0.15877 0.4639 0.44639 0.0
C3072 C 0.16165 0.5488 0.46776 0.0
C3073 C 0.14709 0.53724 0.483 0.0
C3074 C 0.16883 0.54177 0.45074 0.0
C3075 C 0.1613 0.52306 0.44827 0.0
C3076 C 0.14657 0.51151 0.46324 0.0
C3077 C 0.13957 0.51854 0.48053 0.0
C3078 C 0.16911 0.51552 0.43062 0.0
C3079 C 0.17364 0.50291 0.43961 0.0
C3080 C 0.17258 0.52103 0.40532 0.0
C3081 C 0.16656 0.53293 0.39402 0.0
C3082 C 0.14843 0.52843 0.3955 0.0
C3083 C 0.14282 0.53969 0.38485 0.0
C3084 C 0.1552 0.55542 0.3725 0.0
C3085 C 0.1732 0.5599 0.37071 0.0
C3086 C 0.17888 0.5487 0.38135 0.0
C3087 C 0.18776 0.46889 0.35463 0.0
C3088 C 0.20511 0.47926 0.34461 0.0
C3089 C 0.18164 0.47604 0.37301 0.0
C3090 C 0.19268 0.49374 0.3813 0.0
C3091 C 0.21012 0.50406 0.37165 0.0
C3092 C 0.2164 0.49678 0.35362 0.0
C3093 C 0.18556 0.50172 0.39906 0.0
C3094 C 0.18109 0.5143 0.38999 0.0
C3095 C 0.18172 0.49584 0.42408 0.0
C3096 C 0.18604 0.48241 0.43441 0.0
C3097 C 0.20371 0.48544 0.43347 0.0
C3098 C 0.20765 0.47265 0.4431 0.0
C3099 C 0.19404 0.45682 0.45386 0.0
C3100 C 0.17648 0.45377 0.45507 0.0
C3101 C 0.17247 0.46651 0.44545 0.0
H3102 H 0.19712 0.44694 0.46131 0.0
H3103 H 0.15083 0.56411 0.36426 0.0
H3104 H 0.42428 0.60437 0.47041 0.0
H3105 H 0.43549 0.62973 0.44127 0.0
H3106 H 0.49004 0.64295 0.45719 0.0
H3107 H 0.47893 0.61816 0.48703 0.0
H3108 H 0.4887 0.67202 0.4576 0.0
H3109 H 0.46743 0.62219 0.40121 0.0
H3110 H 0.44563 0.59296 0.38269 0.0
H3111 H 0.41073 0.61362 0.36408 0.0
H3112 H 0.43223 0.64292 0.38279 0.0
H3113 H 0.53259 0.7246 0.34953 0.0
H3114 H 0.5191 0.70099 0.3813 0.0
H3115 H 0.46931 0.70157 0.37561 0.0
H3116 H 0.48281 0.72546 0.34404 0.0
H3117 H 0.46677 0.66651 0.37056 0.0
H3118 H 0.49131 0.71791 0.42535 0.0
H3119 H 0.51527 0.74689 0.44187 0.0
H3120 H 0.54672 0.72242 0.46114 0.0
H3121 H 0.52305 0.69335 0.44439 0.0
C3122 C 0.43865 0.61262 0.46749 0.0
C3123 C 0.45075 0.60934 0.48095 0.0
C3124 C 0.44505 0.62707 0.4508 0.0
C3125 C 0.46363 0.63819 0.44686 0.0
C3126 C 0.47567 0.63465 0.45999 0.0
C3127 C 0.4693 0.62043 0.47696 0.0
C3128 C 0.47066 0.65384 0.42966 0.0
C3129 C 0.48401 0.67072 0.43849 0.0
C3130 C 0.46433 0.65229 0.40485 0.0
C3131 C 0.45134 0.63468 0.39366 0.0
C3132 C 0.45504 0.62045 0.39336 0.0
C3133 C 0.44275 0.60388 0.38279 0.0
C3134 C 0.42678 0.60142 0.37228 0.0
C3135 C 0.42309 0.61554 0.37227 0.0
C3136 C 0.43533 0.63213 0.38284 0.0
C3137 C 0.51884 0.71985 0.35528 0.0
C3138 C 0.50873 0.72682 0.34435 0.0
C3139 C 0.51118 0.70641 0.37342 0.0
C3140 C 0.49324 0.6996 0.38071 0.0
C3141 C 0.48318 0.70671 0.37016 0.0
C3142 C 0.49093 0.72039 0.35228 0.0
C3143 C 0.48484 0.68445 0.39852 0.0
C3144 C 0.47128 0.66771 0.38976 0.0
C3145 C 0.49125 0.68603 0.4232 0.0
C3146 C 0.50546 0.70348 0.43342 0.0
C3147 C 0.5034 0.71874 0.43292 0.0
C3148 C 0.51692 0.73518 0.44236 0.0
C3149 C 0.53253 0.7365 0.4525 0.0
C3150 C 0.53463 0.72138 0.45326 0.0
C3151 C 0.52115 0.70491 0.44382 0.0
H3152 H 0.54298 0.74924 0.4598 0.0
H3153 H 0.41729 0.58858 0.3641 0.0
H3154 H 0.39195 0.87672 0.49005 0.0
H3155 H 0.36642 0.8615 0.46177 0.0
H3156 H 0.37687 0.81749 0.4541 0.0
H3157 H 0.40293 0.83302 0.48199 0.0
H3158 H 0.36577 0.8243 0.41047 0.0
H3159 H 0.34514 0.81414 0.49463 0.0
H3160 H 0.34271 0.82236 0.53797 0.0
H3161 H 0.31997 0.854 0.51187 0.0
H3162 H 0.32254 0.8462 0.46832 0.0
H3163 H 0.27585 0.76622 0.36598 0.0
H3164 H 0.30164 0.77785 0.39447 0.0
H3165 H 0.3045 0.82948 0.39547 0.0
H3166 H 0.27902 0.81811 0.3666 0.0
H3167 H 0.30794 0.81535 0.44402 0.0
H3168 H 0.33133 0.82676 0.35928 0.0
H3169 H 0.33335 0.81745 0.3164 0.0
H3170 H 0.35009 0.78138 0.34501 0.0
H3171 H 0.34788 0.79028 0.38811 0.0
C3172 C 0.38898 0.86392 0.48204 0.0
C3173 C 0.39926 0.85593 0.48839 0.0
C3174 C 0.37435 0.8552 0.46599 0.0
C3175 C 0.36946 0.83814 0.45642 0.0
C3176 C 0.38034 0.83059 0.46149 0.0
C3177 C 0.39521 0.83947 0.47736 0.0
C3178 C 0.3525 0.82798 0.44219 0.0
C3179 C 0.35308 0.82207 0.41797 0.0
C3180 C 0.33593 0.82512 0.45197 0.0
C3181 C 0.33416 0.82968 0.47818 0.0
C3182 C 0.33973 0.82294 0.49811 0.0
C3183 C 0.33831 0.82752 0.52273 0.0
C3184 C 0.33122 0.83872 0.52767 0.0
C3185 C 0.32548 0.84533 0.50801 0.0
C3186 C 0.32689 0.84082 0.48335 0.0
C3187 C 0.28183 0.77997 0.37258 0.0
C3188 C 0.27553 0.79132 0.36408 0.0
C3189 C 0.29656 0.78658 0.38873 0.0
C3190 C 0.30495 0.80451 0.39685 0.0
C3191 C 0.29815 0.8156 0.38932 0.0
C3192 C 0.28366 0.80911 0.37284 0.0
C3193 C 0.32137 0.81208 0.41226 0.0
C3194 C 0.32063 0.81743 0.43671 0.0
C3195 C 0.3377 0.81422 0.40281 0.0
C3196 C 0.33922 0.80901 0.37692 0.0
C3197 C 0.33527 0.81672 0.35644 0.0
C3198 C 0.33648 0.81154 0.33209 0.0
C3199 C 0.34179 0.79879 0.32799 0.0
C3200 C 0.34595 0.79123 0.34822 0.0
C3201 C 0.34472 0.79634 0.37261 0.0
H3202 H 0.34272 0.7948 0.30913 0.0
H3203 H 0.33014 0.84225 0.54674 0.0
H3204 H 0.25963 0.14463 0.10469 0.0
H3205 H 0.29105 0.1585 0.11713 0.0
H3206 H 0.27917 0.1111 0.15979 0.0
H3207 H 0.24748 0.0973 0.14795 0.0
H3208 H 0.29703 0.14001 0.18728 0.0
H3209 H 0.30508 0.12298 0.10549 0.0
H3210 H 0.30224 0.12039 0.05965 0.0
H3211 H 0.33125 0.17799 0.05286 0.0
H3212 H 0.33406 0.18095 0.09868 0.0
H3213 H 0.38956 0.17261 0.21586 0.0
H3214 H 0.35829 0.15537 0.20221 0.0
H3215 H 0.36527 0.20075 0.15858 0.0
H3216 H 0.39671 0.21793 0.17167 0.0
H3217 H 0.35005 0.17089 0.1315 0.0
H3218 H 0.34042 0.18765 0.21358 0.0
H3219 H 0.34315 0.19006 0.25944 0.0
H3220 H 0.31708 0.1325 0.26552 0.0
H3221 H 0.3144 0.12975 0.21966 0.0
C3222 C 0.26374 0.13699 0.1163 0.0
C3223 C 0.25106 0.1199 0.12543 0.0
C3224 C 0.28176 0.14492 0.12334 0.0
C3225 C 0.2875 0.13581 0.1393 0.0
C3226 C 0.27501 0.11839 0.1475 0.0
C3227 C 0.25694 0.11049 0.14063 0.0
C3228 C 0.30616 0.1451 0.14907 0.0
C3229 C 0.30865 0.14646 0.17506 0.0
C3230 C 0.32128 0.15391 0.13315 0.0
C3231 C 0.31966 0.15218 0.10555 0.0
C3232 C 0.31074 0.1351 0.09424 0.0
C3233 C 0.30916 0.13357 0.06825 0.0
C3234 C 0.31653 0.14901 0.05336 0.0
C3235 C 0.32554 0.16604 0.06442 0.0
C3236 C 0.32715 0.16765 0.0904 0.0
C3237 C 0.38436 0.17903 0.20368 0.0
C3238 C 0.3956 0.19662 0.19479 0.0
C3239 C 0.36647 0.16915 0.19592 0.0
C3240 C 0.35943 0.17679 0.17944 0.0
C3241 C 0.37046 0.19457 0.17123 0.0
C3242 C 0.38839 0.2044 0.17883 0.0
C3243 C 0.34087 0.16598 0.16966 0.0
C3244 C 0.33842 0.16432 0.14368 0.0
C3245 C 0.32579 0.15686 0.18558 0.0
C3246 C 0.32738 0.15851 0.21317 0.0
C3247 C 0.3354 0.17551 0.22468 0.0
C3248 C 0.33691 0.17694 0.25068 0.0
C3249 C 0.33034 0.16145 0.26538 0.0
C3250 C 0.32219 0.14449 0.25411 0.0
C3251 C 0.32066 0.14299 0.22812 0.0
H3252 H 0.33152 0.16258 0.28551 0.0
H3253 H 0.31529 0.1478 0.03324 0.0
H3254 H 0.81666 0.21563 0.22278 0.0
H3255 H 0.83428 0.20101 0.21412 0.0
H3256 H 0.79574 0.16793 0.15812 0.0
H3257 H 0.77793 0.18231 0.16687 0.0
H3258 H 0.80712 0.14891 0.18517 0.0
H3259 H 0.83407 0.20567 0.14162 0.0
H3260 H 0.84753 0.23859 0.13809 0.0
H3261 H 0.88991 0.24633 0.1881 0.0
H3262 H 0.87654 0.21342 0.19219 0.0
H3263 H 0.85672 0.12201 0.11181 0.0
H3264 H 0.84136 0.13824 0.1241 0.0
H3265 H 0.88094 0.16586 0.18159 0.0
H3266 H 0.89649 0.14964 0.16939 0.0
H3267 H 0.87007 0.18794 0.15658 0.0
H3268 H 0.84365 0.13085 0.1983 0.0
H3269 H 0.8302 0.0979 0.2009 0.0
H3270 H 0.78673 0.09077 0.15365 0.0
H3271 H 0.80008 0.12372 0.15044 0.0
C3272 C 0.81178 0.20504 0.2089 0.0
C3273 C 0.79597 0.20021 0.19537 0.0
C3274 C 0.82193 0.19679 0.20387 0.0
C3275 C 0.81648 0.18363 0.18516 0.0
C3276 C 0.80022 0.17812 0.17256 0.0
C3277 C 0.79006 0.18635 0.17757 0.0
C3278 C 0.82807 0.17614 0.17789 0.0
C3279 C 0.82083 0.15743 0.17872 0.0
C3280 C 0.84609 0.18731 0.16998 0.0
C3281 C 0.8542 0.20709 0.16743 0.0
C3282 C 0.84618 0.21439 0.15201 0.0
C3283 C 0.8538 0.23305 0.14989 0.0
C3284 C 0.86953 0.24455 0.16292 0.0
C3285 C 0.8777 0.23741 0.17805 0.0
C3286 C 0.87011 0.21876 0.18027 0.0
C3287 C 0.86239 0.13178 0.12677 0.0
C3288 C 0.87773 0.13441 0.13981 0.0
C3289 C 0.85354 0.14098 0.13383 0.0
C3290 C 0.85984 0.15296 0.15405 0.0
C3291 C 0.87583 0.15657 0.16603 0.0
C3292 C 0.88469 0.1473 0.15903 0.0
C3293 C 0.84903 0.16074 0.16359 0.0
C3294 C 0.85641 0.17946 0.1632 0.0
C3295 C 0.83112 0.14959 0.17186 0.0
C3296 C 0.82295 0.12976 0.17395 0.0
C3297 C 0.83129 0.12226 0.18831 0.0
C3298 C 0.82368 0.10358 0.18991 0.0
C3299 C 0.80764 0.09225 0.1774 0.0
C3300 C 0.79916 0.09957 0.16331 0.0
C3301 C 0.80674 0.11825 0.1616 0.0
H3302 H 0.80177 0.07779 0.17867 0.0
H3303 H 0.87542 0.25899 0.16125 0.0
H3304 H 0.77706 0.59965 0.22337 0.0
H3305 H 0.79001 0.63025 0.20687 0.0
H3306 H 0.82815 0.62264 0.16386 0.0
H3307 H 0.81534 0.59206 0.1803 0.0
H3308 H 0.84334 0.65642 0.18483 0.0
H3309 H 0.79108 0.61676 0.13647 0.0
H3310 H 0.75918 0.59401 0.13015 0.0
H3311 H 0.74322 0.62982 0.16195 0.0
H3312 H 0.77506 0.6527 0.16881 0.0
H3313 H 0.86952 0.72251 0.09317 0.0
H3314 H 0.85362 0.69208 0.11036 0.0
H3315 H 0.82144 0.70645 0.15618 0.0
H3316 H 0.83742 0.73709 0.13923 0.0
H3317 H 0.8026 0.66995 0.13535 0.0
H3318 H 0.85519 0.7099 0.18282 0.0
H3319 H 0.8872 0.7327 0.18802 0.0
H3320 H 0.90254 0.69613 0.15723 0.0
H3321 H 0.87059 0.67322 0.15143 0.0
C3322 C 0.78842 0.6046 0.21076 0.0
C3323 C 0.79511 0.59341 0.20298 0.0
C3324 C 0.79572 0.62203 0.20124 0.0
C3325 C 0.80981 0.62855 0.18384 0.0
C3326 C 0.81721 0.6178 0.17719 0.0
C3327 C 0.80987 0.60034 0.18659 0.0
C3328 C 0.81627 0.64619 0.17157 0.0
C3329 C 0.83447 0.65931 0.17386 0.0
C3330 C 0.80458 0.65005 0.15762 0.0
C3331 C 0.78544 0.63636 0.15342 0.0
C3332 C 0.78077 0.61972 0.14232 0.0
C3333 C 0.7627 0.60681 0.1386 0.0
C3334 C 0.74918 0.61044 0.14571 0.0
C3335 C 0.75371 0.62702 0.15649 0.0
C3336 C 0.77176 0.63996 0.16029 0.0
C3337 C 0.85875 0.71911 0.10641 0.0
C3338 C 0.85488 0.73226 0.1151 0.0
C3339 C 0.84972 0.70173 0.11625 0.0
C3340 C 0.83662 0.69719 0.13479 0.0
C3341 C 0.8316 0.70978 0.14193 0.0
C3342 C 0.84074 0.72726 0.13224 0.0
C3343 C 0.82965 0.68003 0.14849 0.0
C3344 C 0.8114 0.66705 0.14647 0.0
C3345 C 0.84128 0.67626 0.16268 0.0
C3346 C 0.8605 0.68991 0.16645 0.0
C3347 C 0.86539 0.70678 0.17696 0.0
C3348 C 0.88352 0.71971 0.18005 0.0
C3349 C 0.8969 0.71588 0.1729 0.0
C3350 C 0.89216 0.69909 0.16272 0.0
C3351 C 0.87405 0.68612 0.15954 0.0
H3352 H 0.91093 0.72592 0.1753 0.0
H3353 H 0.7352 0.60044 0.14281 0.0
H3354 H 0.2263 0.40865 0.31265 0.0
H3355 H 0.2122 0.37806 0.32956 0.0
H3356 H 0.16239 0.36523 0.29317 0.0
H3357 H 0.17635 0.3957 0.2761 0.0
H3358 H 0.15868 0.35746 0.34416 0.0
H3359 H 0.18542 0.34721 0.27165 0.0
H3360 H 0.21014 0.35294 0.24288 0.0
H3361 H 0.23804 0.34358 0.30231 0.0
H3362 H 0.21358 0.33804 0.33154 0.0
H3363 H 0.10766 0.26249 0.35385 0.0
H3364 H 0.1241 0.29421 0.3419 0.0
H3365 H 0.17156 0.30052 0.37885 0.0
H3366 H 0.15518 0.26872 0.39088 0.0
H3367 H 0.17814 0.31255 0.33064 0.0
H3368 H 0.1507 0.32087 0.40264 0.0
H3369 H 0.12611 0.31514 0.43166 0.0
H3370 H 0.09982 0.32829 0.37406 0.0
H3371 H 0.12413 0.33386 0.34455 0.0
C3372 C 0.21244 0.39921 0.30787 0.0
C3373 C 0.2024 0.40458 0.29313 0.0
C3374 C 0.20442 0.38176 0.31755 0.0
C3375 C 0.18626 0.36948 0.31268 0.0
C3376 C 0.17641 0.37459 0.2972 0.0
C3377 C 0.18445 0.39196 0.28735 0.0
C3378 C 0.1772 0.35164 0.32487 0.0
C3379 C 0.16277 0.34753 0.34101 0.0
C3380 C 0.18302 0.33904 0.32138 0.0
C3381 C 0.19777 0.34242 0.30386 0.0
C3382 C 0.19691 0.34655 0.27865 0.0
C3383 C 0.21086 0.34972 0.26224 0.0
C3384 C 0.22568 0.34868 0.27078 0.0
C3385 C 0.22657 0.34441 0.29573 0.0
C3386 C 0.21266 0.34124 0.31223 0.0
C3387 C 0.12149 0.2707 0.35984 0.0
C3388 C 0.13017 0.26312 0.37319 0.0
C3389 C 0.13085 0.28883 0.35306 0.0
C3390 C 0.14903 0.29968 0.35952 0.0
C3391 C 0.15753 0.29233 0.37369 0.0
C3392 C 0.14814 0.27421 0.38064 0.0
C3393 C 0.15941 0.31823 0.34968 0.0
C3394 C 0.17412 0.32251 0.33399 0.0
C3395 C 0.15388 0.33101 0.35365 0.0
C3396 C 0.13917 0.32763 0.37131 0.0
C3397 C 0.13959 0.32239 0.39608 0.0
C3398 C 0.12572 0.3192 0.41264 0.0
C3399 C 0.11139 0.32131 0.40469 0.0
C3400 C 0.11092 0.32664 0.38018 0.0
C3401 C 0.12476 0.32984 0.36353 0.0
H3402 H 0.10066 0.31884 0.41754 0.0
H3403 H 0.23646 0.35113 0.25804 0.0
H3404 H 0.59432 0.78492 0.27264 0.0
H3405 H 0.62443 0.79964 0.29062 0.0
H3406 H 0.61039 0.831 0.33877 0.0
H3407 H 0.58002 0.81622 0.32088 0.0
H3408 H 0.64594 0.85045 0.31813 0.0
H3409 H 0.60842 0.7963 0.3634 0.0
H3410 H 0.58641 0.76399 0.3682 0.0
H3411 H 0.62294 0.75046 0.33279 0.0
H3412 H 0.64508 0.78272 0.3274 0.0
H3413 H 0.72237 0.87589 0.39388 0.0
H3414 H 0.69046 0.86234 0.38364 0.0
H3415 H 0.69461 0.82497 0.33409 0.0
H3416 H 0.72649 0.83834 0.34433 0.0
H3417 H 0.66267 0.80923 0.35997 0.0
H3418 H 0.69877 0.86301 0.31125 0.0
H3419 H 0.72077 0.89525 0.30551 0.0
H3420 H 0.68684 0.90938 0.34702 0.0
H3421 H 0.66475 0.87719 0.35332 0.0
C3422 C 0.59768 0.79517 0.28673 0.0
C3423 C 0.58473 0.79928 0.29552 0.0
C3424 C 0.61487 0.80351 0.29705 0.0
C3425 C 0.61946 0.81613 0.31631 0.0
C3426 C 0.60701 0.82119 0.324 0.0
C3427 C 0.5897 0.81276 0.31375 0.0
C3428 C 0.6369 0.82311 0.32923 0.0
C3429 C 0.64951 0.84152 0.3277 0.0
C3430 C 0.64155 0.81136 0.3414 0.0
C3431 C 0.62835 0.79194 0.34481 0.0
C3432 C 0.61171 0.78644 0.35646 0.0
C3433 C 0.59922 0.76813 0.35931 0.0
C3434 C 0.60326 0.75518 0.35076 0.0
C3435 C 0.61983 0.76051 0.33939 0.0
C3436 C 0.63236 0.77881 0.33645 0.0
C3437 C 0.71641 0.86454 0.38121 0.0
C3438 C 0.72698 0.8583 0.36969 0.0
C3439 C 0.6982 0.85688 0.3753 0.0
C3440 C 0.6903 0.8429 0.35777 0.0
C3441 C 0.7005 0.83582 0.34758 0.0
C3442 C 0.71872 0.84348 0.35344 0.0
C3443 C 0.67184 0.83653 0.34852 0.0
C3444 C 0.65903 0.81821 0.35073 0.0
C3445 C 0.66702 0.84837 0.33695 0.0
C3446 C 0.68021 0.86771 0.33301 0.0
C3447 C 0.69607 0.873 0.31933 0.0
C3448 C 0.70855 0.89125 0.31594 0.0
C3449 C 0.70523 0.90435 0.32596 0.0
C3450 C 0.68941 0.89922 0.33932 0.0
C3451 C 0.6769 0.88097 0.34279 0.0
H3452 H 0.71491 0.91848 0.32332 0.0
H3453 H 0.59357 0.74101 0.35299 0.0
H3454 H 0.1832 0.77145 0.33446 0.0
H3455 H 0.16455 0.78494 0.34302 0.0
H3456 H 0.19575 0.82753 0.29054 0.0
H3457 H 0.21462 0.81426 0.28212 0.0
H3458 H 0.19217 0.8408 0.33389 0.0
H3459 H 0.15293 0.79521 0.27688 0.0
H3460 H 0.13538 0.76454 0.25965 0.0
H3461 H 0.10405 0.74669 0.32694 0.0
H3462 H 0.12159 0.77721 0.34473 0.0
H3463 H 0.13411 0.87776 0.33235 0.0
H3464 H 0.15198 0.86386 0.32111 0.0
H3465 H 0.12333 0.82207 0.3757 0.0
H3466 H 0.10529 0.83583 0.38697 0.0
H3467 H 0.12552 0.8086 0.3302 0.0
H3468 H 0.16559 0.85453 0.38721 0.0
H3469 H 0.18309 0.88545 0.40362 0.0
H3470 H 0.21283 0.90289 0.33498 0.0
H3471 H 0.19533 0.87211 0.31802 0.0
C3472 C 0.18595 0.78356 0.3245 0.0
C3473 C 0.20041 0.79182 0.30766 0.0
C3474 C 0.17524 0.79122 0.32936 0.0
C3475 C 0.17873 0.8072 0.31733 0.0
C3476 C 0.19287 0.81522 0.30005 0.0
C3477 C 0.20359 0.80757 0.29519 0.0
C3478 C 0.16827 0.81607 0.32386 0.0
C3479 C 0.17761 0.83385 0.3327 0.0
C3480 C 0.14926 0.80685 0.32285 0.0
C3481 C 0.1387 0.78846 0.31223 0.0
C3482 C 0.1424 0.78471 0.28809 0.0
C3483 C 0.13244 0.76736 0.27821 0.0
C3484 C 0.11864 0.75367 0.29221 0.0
C3485 C 0.11476 0.75731 0.31612 0.0
C3486 C 0.1247 0.77463 0.32611 0.0
C3487 C 0.13171 0.8657 0.34213 0.0
C3488 C 0.11831 0.85789 0.36057 0.0
C3489 C 0.14195 0.8578 0.33571 0.0
C3490 C 0.13901 0.84199 0.34766 0.0
C3491 C 0.12578 0.83426 0.36625 0.0
C3492 C 0.11556 0.84219 0.37275 0.0
C3493 C 0.14943 0.83326 0.3403 0.0
C3494 C 0.14008 0.81553 0.33132 0.0
C3495 C 0.16844 0.84254 0.34106 0.0
C3496 C 0.17902 0.86105 0.35126 0.0
C3497 C 0.17576 0.86499 0.37553 0.0
C3498 C 0.1857 0.88249 0.38495 0.0
C3499 C 0.19903 0.89614 0.37033 0.0
C3500 C 0.20248 0.89231 0.34628 0.0
C3501 C 0.19257 0.87484 0.33676 0.0
H3502 H 0.20671 0.90967 0.37765 0.0
H3503 H 0.11094 0.74024 0.28452 0.0
H3504 H 0.72634 0.88432 0.84519 0.0
H3505 H 0.69478 0.86388 0.83497 0.0
H3506 H 0.69474 0.82289 0.88171 0.0
H3507 H 0.72628 0.84333 0.89228 0.0
H3508 H 0.68205 0.83199 0.81067 0.0
H3509 H 0.65114 0.79534 0.90296 0.0
H3510 H 0.65513 0.80074 0.94837 0.0
H3511 H 0.67682 0.85738 0.93624 0.0
H3512 H 0.67275 0.85228 0.8908 0.0
H3513 H 0.58027 0.75755 0.83508 0.0
H3514 H 0.61225 0.77217 0.84589 0.0
H3515 H 0.62295 0.81671 0.7975 0.0
H3516 H 0.59138 0.80198 0.78602 0.0
H3517 H 0.63098 0.80226 0.86988 0.0
H3518 H 0.66466 0.83836 0.77639 0.0
H3519 H 0.66072 0.83226 0.73116 0.0
H3520 H 0.63352 0.77539 0.74546 0.0
H3521 H 0.63751 0.78114 0.79077 0.0
C3522 C 0.71954 0.87108 0.85366 0.0
C3523 C 0.72881 0.86542 0.86948 0.0
C3524 C 0.70154 0.85939 0.84769 0.0
C3525 C 0.69246 0.84187 0.85752 0.0
C3526 C 0.70146 0.8364 0.87409 0.0
C3527 C 0.71948 0.84811 0.8801 0.0
C3528 C 0.67391 0.8291 0.84921 0.0
C3529 C 0.67082 0.82561 0.82355 0.0
C3530 C 0.65947 0.82018 0.86617 0.0
C3531 C 0.66184 0.82344 0.89347 0.0
C3532 C 0.65672 0.80894 0.91 0.0
C3533 C 0.659 0.81195 0.93574 0.0
C3534 C 0.66629 0.8294 0.94518 0.0
C3535 C 0.67125 0.84388 0.9289 0.0
C3536 C 0.66899 0.84094 0.90314 0.0
C3537 C 0.58955 0.77025 0.8263 0.0
C3538 C 0.58331 0.77862 0.80971 0.0
C3539 C 0.60779 0.77862 0.83258 0.0
C3540 C 0.62005 0.79548 0.82239 0.0
C3541 C 0.61388 0.80353 0.80521 0.0
C3542 C 0.59575 0.79511 0.79874 0.0
C3543 C 0.63896 0.80549 0.83117 0.0
C3544 C 0.64218 0.80843 0.85693 0.0
C3545 C 0.65358 0.8138 0.8143 0.0
C3546 C 0.65128 0.8102 0.78702 0.0
C3547 C 0.65792 0.82455 0.7699 0.0
C3548 C 0.65566 0.82115 0.74424 0.0
C3549 C 0.64684 0.80345 0.73545 0.0
C3550 C 0.6403 0.7891 0.7523 0.0
C3551 C 0.64253 0.79242 0.77798 0.0
H3552 H 0.64509 0.80085 0.71558 0.0
H3553 H 0.66804 0.83171 0.96511 0.0
H3554 H 0.22496 0.81048 0.82808 0.0
H3555 H 0.21052 0.82651 0.84551 0.0
H3556 H 0.16745 0.80053 0.79207 0.0
H3557 H 0.18175 0.78456 0.77446 0.0
H3558 H 0.19855 0.84938 0.82416 0.0
H3559 H 0.12822 0.78519 0.82525 0.0
H3560 H 0.11508 0.75226 0.82819 0.0
H3561 H 0.16171 0.75956 0.86786 0.0
H3562 H 0.17499 0.79251 0.86553 0.0
H3563 H 0.10819 0.84441 0.84343 0.0
H3564 H 0.12518 0.82933 0.83386 0.0
H3565 H 0.16572 0.8629 0.88741 0.0
H3566 H 0.14888 0.87823 0.89694 0.0
H3567 H 0.13766 0.81058 0.85994 0.0
H3568 H 0.20698 0.87521 0.86096 0.0
H3569 H 0.22007 0.90808 0.85663 0.0
H3570 H 0.17534 0.89976 0.81123 0.0
H3571 H 0.16214 0.86688 0.81499 0.0
C3572 C 0.21258 0.80844 0.81975 0.0
C3573 C 0.20439 0.79616 0.80005 0.0
C3574 C 0.20438 0.8176 0.82973 0.0
C3575 C 0.18782 0.81441 0.8203 0.0
C3576 C 0.18014 0.80294 0.79976 0.0
C3577 C 0.18837 0.7939 0.78967 0.0
C3578 C 0.17796 0.82224 0.83265 0.0
C3579 C 0.18538 0.84096 0.83241 0.0
C3580 C 0.1607 0.81115 0.84308 0.0
C3581 C 0.15267 0.79133 0.84498 0.0
C3582 C 0.13563 0.77976 0.8347 0.0
C3583 C 0.12816 0.7611 0.83625 0.0
C3584 C 0.13758 0.75382 0.84814 0.0
C3585 C 0.15446 0.76521 0.85858 0.0
C3586 C 0.16197 0.78388 0.85712 0.0
C3587 C 0.12056 0.84839 0.85349 0.0
C3588 C 0.12732 0.86264 0.87072 0.0
C3589 C 0.13023 0.83973 0.84804 0.0
C3590 C 0.14683 0.84523 0.85963 0.0
C3591 C 0.15305 0.85867 0.87801 0.0
C3592 C 0.14338 0.86734 0.8835 0.0
C3593 C 0.1581 0.83773 0.85108 0.0
C3594 C 0.15093 0.81904 0.85203 0.0
C3595 C 0.17556 0.84886 0.84122 0.0
C3596 C 0.18348 0.8686 0.83855 0.0
C3597 C 0.19998 0.88041 0.85001 0.0
C3598 C 0.20741 0.89904 0.84765 0.0
C3599 C 0.1985 0.906 0.83375 0.0
C3600 C 0.18218 0.89435 0.82208 0.0
C3601 C 0.17472 0.87572 0.82434 0.0
H3602 H 0.20427 0.92042 0.83197 0.0
H3603 H 0.13178 0.73937 0.84929 0.0
H3604 H 0.20298 0.39666 0.77305 0.0
H3605 H 0.18455 0.36511 0.78477 0.0
H3606 H 0.15527 0.37908 0.83707 0.0
H3607 H 0.17401 0.41085 0.82581 0.0
H3608 H 0.16657 0.35899 0.85894 0.0
H3609 H 0.1352 0.3547 0.78348 0.0
H3610 H 0.13165 0.35882 0.73869 0.0
H3611 H 0.15551 0.32678 0.71971 0.0
H3612 H 0.15944 0.32266 0.7644 0.0
H3613 H 0.10512 0.26636 0.88727 0.0
H3614 H 0.11895 0.29796 0.87486 0.0
H3615 H 0.15261 0.29044 0.82213 0.0
H3616 H 0.13868 0.25878 0.83417 0.0
H3617 H 0.13647 0.30718 0.80096 0.0
H3618 H 0.16971 0.31349 0.87652 0.0
H3619 H 0.17324 0.30946 0.92136 0.0
H3620 H 0.14542 0.3378 0.94002 0.0
H3621 H 0.14151 0.3418 0.89526 0.0
C3622 C 0.19239 0.393 0.78669 0.0
C3623 C 0.19 0.40626 0.79859 0.0
C3624 C 0.1818 0.37492 0.79332 0.0
C3625 C 0.16846 0.3697 0.81172 0.0
C3626 C 0.16551 0.38282 0.82284 0.0
C3627 C 0.17617 0.40095 0.81631 0.0
C3628 C 0.15874 0.35084 0.82077 0.0
C3629 C 0.15966 0.34766 0.84632 0.0
C3630 C 0.1501 0.33606 0.80424 0.0
C3631 C 0.14774 0.33848 0.77732 0.0
C3632 C 0.13982 0.34864 0.76976 0.0
C3633 C 0.13771 0.35096 0.74439 0.0
C3634 C 0.14338 0.3431 0.72637 0.0
C3635 C 0.15113 0.33287 0.73369 0.0
C3636 C 0.15328 0.33051 0.75904 0.0
C3637 C 0.11564 0.27149 0.87327 0.0
C3638 C 0.12081 0.26008 0.86168 0.0
C3639 C 0.12353 0.28956 0.86621 0.0
C3640 C 0.13682 0.29654 0.84759 0.0
C3641 C 0.14232 0.28528 0.83646 0.0
C3642 C 0.13442 0.26723 0.84347 0.0
C3643 C 0.14456 0.3154 0.839 0.0
C3644 C 0.14324 0.31854 0.81357 0.0
C3645 C 0.15279 0.33015 0.85563 0.0
C3646 C 0.15515 0.32777 0.88254 0.0
C3647 C 0.16421 0.31873 0.89018 0.0
C3648 C 0.1663 0.31648 0.91559 0.0
C3649 C 0.15951 0.32333 0.93353 0.0
C3650 C 0.15065 0.33248 0.9261 0.0
C3651 C 0.1485 0.33475 0.90072 0.0
H3652 H 0.16115 0.32157 0.95319 0.0
H3653 H 0.14174 0.34491 0.70673 0.0
H3654 H 0.88401 0.74418 0.66874 0.0
H3655 H 0.86736 0.71231 0.68016 0.0
H3656 H 0.82745 0.70283 0.62418 0.0
H3657 H 0.84394 0.7347 0.61276 0.0
H3658 H 0.81221 0.68789 0.66899 0.0
H3659 H 0.85701 0.68881 0.61449 0.0
H3660 H 0.88773 0.69932 0.59899 0.0
H3661 H 0.90177 0.68494 0.66881 0.0
H3662 H 0.87119 0.67457 0.68486 0.0
H3663 H 0.76879 0.5918 0.66401 0.0
H3664 H 0.78397 0.62426 0.6565 0.0
H3665 H 0.8236 0.6326 0.71236 0.0
H3666 H 0.80861 0.6002 0.71986 0.0
H3667 H 0.83897 0.64835 0.66859 0.0
H3668 H 0.79383 0.64656 0.72273 0.0
H3669 H 0.76307 0.63595 0.73812 0.0
H3670 H 0.74954 0.65177 0.66907 0.0
H3671 H 0.78016 0.66225 0.65312 0.0
C3672 C 0.8718 0.73528 0.65867 0.0
C3673 C 0.8653 0.74194 0.63983 0.0
C3674 C 0.86231 0.71707 0.66521 0.0
C3675 C 0.8462 0.70522 0.65296 0.0
C3676 C 0.83983 0.71179 0.63389 0.0
C3677 C 0.84933 0.72997 0.6273 0.0
C3678 C 0.83576 0.68606 0.66047 0.0
C3679 C 0.81796 0.67915 0.66861 0.0
C3680 C 0.84346 0.67485 0.66056 0.0
C3681 C 0.86186 0.68109 0.65096 0.0
C3682 C 0.86669 0.68804 0.62662 0.0
C3683 C 0.88407 0.69393 0.61772 0.0
C3684 C 0.89671 0.69284 0.63293 0.0
C3685 C 0.89197 0.6858 0.65706 0.0
C3686 C 0.87462 0.6799 0.66606 0.0
C3687 C 0.78052 0.60058 0.67505 0.0
C3688 C 0.78757 0.59344 0.69241 0.0
C3689 C 0.78916 0.61913 0.67077 0.0
C3690 C 0.80493 0.63082 0.68385 0.0
C3691 C 0.81149 0.62379 0.70201 0.0
C3692 C 0.80286 0.60527 0.70632 0.0
C3693 C 0.81539 0.65014 0.67715 0.0
C3694 C 0.83321 0.65708 0.66909 0.0
C3695 C 0.8077 0.66135 0.67713 0.0
C3696 C 0.78925 0.65503 0.68663 0.0
C3697 C 0.78425 0.64763 0.71073 0.0
C3698 C 0.76685 0.64167 0.71958 0.0
C3699 C 0.75435 0.64314 0.70455 0.0
C3700 C 0.75924 0.65062 0.68067 0.0
C3701 C 0.77662 0.65658 0.67173 0.0
H3702 H 0.74088 0.63853 0.71144 0.0
H3703 H 0.91015 0.69741 0.626 0.0
H3704 H 0.26709 0.11154 0.59183 0.0
H3705 H 0.29837 0.12824 0.60572 0.0
H3706 H 0.28578 0.16083 0.65361 0.0
H3707 H 0.25447 0.14428 0.63974 0.0
H3708 H 0.31938 0.18035 0.63157 0.0
H3709 H 0.28501 0.1252 0.67751 0.0
H3710 H 0.26501 0.09243 0.68208 0.0
H3711 H 0.30403 0.08305 0.64538 0.0
H3712 H 0.32416 0.11579 0.64024 0.0
H3713 H 0.38824 0.20956 0.72066 0.0
H3714 H 0.35805 0.19324 0.70285 0.0
H3715 H 0.37445 0.16355 0.65514 0.0
H3716 H 0.40479 0.17986 0.67283 0.0
H3717 H 0.33958 0.14253 0.67538 0.0
H3718 H 0.37458 0.19817 0.63119 0.0
H3719 H 0.39444 0.23102 0.62747 0.0
H3720 H 0.35411 0.23955 0.66173 0.0
H3721 H 0.33411 0.20673 0.66602 0.0
C3722 C 0.27105 0.12253 0.60488 0.0
C3723 C 0.25828 0.12646 0.61494 0.0
C3724 C 0.28891 0.13199 0.61287 0.0
C3725 C 0.29424 0.14549 0.63103 0.0
C3726 C 0.28186 0.15038 0.63967 0.0
C3727 C 0.26399 0.14089 0.63174 0.0
C3728 C 0.31225 0.15344 0.64259 0.0
C3729 C 0.32376 0.17212 0.64131 0.0
C3730 C 0.318 0.14261 0.65499 0.0
C3731 C 0.306 0.12293 0.65824 0.0
C3732 C 0.28927 0.11615 0.67024 0.0
C3733 C 0.27792 0.09758 0.67295 0.0
C3734 C 0.28323 0.08566 0.66396 0.0
C3735 C 0.29992 0.0923 0.6523 0.0
C3736 C 0.31131 0.11086 0.64948 0.0
C3737 C 0.38536 0.19932 0.70672 0.0
C3738 C 0.39893 0.19611 0.69796 0.0
C3739 C 0.36814 0.19009 0.69649 0.0
C3740 C 0.36419 0.17747 0.6774 0.0
C3741 C 0.37732 0.17334 0.66977 0.0
C3742 C 0.39462 0.18266 0.6799 0.0
C3743 C 0.34668 0.16943 0.66442 0.0
C3744 C 0.33526 0.15074 0.66548 0.0
C3745 C 0.34099 0.18025 0.65191 0.0
C3746 C 0.35291 0.2 0.64915 0.0
C3747 C 0.37 0.20705 0.63812 0.0
C3748 C 0.38128 0.22567 0.63588 0.0
C3749 C 0.37556 0.23737 0.64441 0.0
C3750 C 0.35853 0.23047 0.65515 0.0
C3751 C 0.34721 0.21187 0.65748 0.0
H3752 H 0.3843 0.25178 0.64266 0.0
H3753 H 0.27442 0.07129 0.66609 0.0
H3754 H 0.8406 0.10303 0.65039 0.0
H3755 H 0.82586 0.11979 0.66334 0.0
H3756 H 0.8602 0.1632 0.61372 0.0
H3757 H 0.87473 0.14641 0.60033 0.0
H3758 H 0.84217 0.15142 0.68723 0.0
H3759 H 0.83941 0.18641 0.59642 0.0
H3760 H 0.83538 0.1805 0.55112 0.0
H3761 H 0.80563 0.12359 0.5651 0.0
H3762 H 0.80927 0.12915 0.61047 0.0
H3763 H 0.81348 0.22497 0.66945 0.0
H3764 H 0.82964 0.2096 0.65648 0.0
H3765 H 0.79756 0.16599 0.70719 0.0
H3766 H 0.78177 0.18148 0.72072 0.0
H3767 H 0.81535 0.17865 0.63296 0.0
H3768 H 0.81915 0.14406 0.72419 0.0
H3769 H 0.82362 0.15037 0.76936 0.0
H3770 H 0.85203 0.20718 0.75447 0.0
H3771 H 0.84795 0.20122 0.70922 0.0
C3772 C 0.84473 0.11596 0.64182 0.0
C3773 C 0.85886 0.12344 0.62441 0.0
C3774 C 0.83636 0.12556 0.64934 0.0
C3775 C 0.84195 0.14273 0.63951 0.0
C3776 C 0.85552 0.14988 0.62132 0.0
C3777 C 0.86384 0.14027 0.61372 0.0
C3778 C 0.83457 0.15374 0.64966 0.0
C3779 C 0.83604 0.15715 0.67543 0.0
C3780 C 0.82722 0.16175 0.6341 0.0
C3781 C 0.82478 0.15821 0.60684 0.0
C3782 C 0.83196 0.17263 0.58982 0.0
C3783 C 0.82975 0.16935 0.56414 0.0
C3784 C 0.82031 0.15168 0.55524 0.0
C3785 C 0.813 0.13727 0.57202 0.0
C3786 C 0.81516 0.14048 0.59772 0.0
C3787 C 0.81018 0.21231 0.67826 0.0
C3788 C 0.79632 0.20439 0.69603 0.0
C3789 C 0.81936 0.20351 0.67074 0.0
C3790 C 0.81482 0.18666 0.68087 0.0
C3791 C 0.8015 0.17911 0.6994 0.0
C3792 C 0.79244 0.18797 0.70707 0.0
C3793 C 0.82284 0.17625 0.67059 0.0
C3794 C 0.82152 0.17296 0.64478 0.0
C3795 C 0.83041 0.16842 0.68611 0.0
C3796 C 0.83309 0.17218 0.7133 0.0
C3797 C 0.82641 0.1579 0.73055 0.0
C3798 C 0.82886 0.16142 0.75617 0.0
C3799 C 0.83805 0.17916 0.76478 0.0
C3800 C 0.84485 0.19344 0.74778 0.0
C3801 C 0.84245 0.19 0.72214 0.0
H3802 H 0.83993 0.18186 0.78462 0.0
H3803 H 0.81862 0.14916 0.53534 0.0
H3804 H 0.06563 0.51122 0.55993 0.0
H3805 H 0.0339 0.4928 0.54849 0.0
H3806 H 0.03985 0.53317 0.49522 0.0
H3807 H 0.07149 0.5517 0.50665 0.0
H3808 H 0.00819 0.51922 0.52076 0.0
H3809 H 0.04215 0.49715 0.47621 0.0
H3810 H 0.0629 0.48524 0.47262 0.0
H3811 H 0.02732 0.43944 0.51718 0.0
H3812 H 0.00648 0.45123 0.52134 0.0
H3813 H 0.93563 0.47224 0.44066 0.0
H3814 H 0.96685 0.48754 0.45466 0.0
H3815 H 0.95421 0.445 0.50773 0.0
H3816 H 0.92284 0.4295 0.49378 0.0
H3817 H 0.9884 0.45869 0.48518 0.0
H3818 H 0.95377 0.48003 0.52816 0.0
H3819 H 0.93285 0.49177 0.53133 0.0
H3820 H 0.96966 0.53886 0.48992 0.0
H3821 H 0.99067 0.52725 0.48614 0.0
C3822 C 0.06011 0.5163 0.54607 0.0
C3823 C 0.07108 0.53284 0.53404 0.0
C3824 C 0.04202 0.50572 0.53947 0.0
C3825 C 0.03465 0.51151 0.52073 0.0
C3826 C 0.04532 0.52844 0.50965 0.0
C3827 C 0.0634 0.539 0.51619 0.0
C3828 C 0.01606 0.49967 0.51176 0.0
C3829 C 0.00391 0.50605 0.51281 0.0
C3830 C 0.01039 0.48232 0.50191 0.0
C3831 C 0.02286 0.47517 0.49932 0.0
C3832 C 0.03883 0.48462 0.48541 0.0
C3833 C 0.05059 0.47787 0.48325 0.0
C3834 C 0.04646 0.46162 0.49473 0.0
C3835 C 0.03052 0.45205 0.50834 0.0
C3836 C 0.01872 0.45875 0.5106 0.0
C3837 C 0.93954 0.46591 0.45491 0.0
C3838 C 0.92673 0.44978 0.46636 0.0
C3839 C 0.95737 0.47471 0.46294 0.0
C3840 C 0.96268 0.46755 0.48255 0.0
C3841 C 0.95029 0.45076 0.49267 0.0
C3842 C 0.9324 0.44194 0.48467 0.0
C3843 C 0.98069 0.47839 0.49384 0.0
C3844 C 0.99268 0.47181 0.49329 0.0
C3845 C 0.98623 0.49556 0.5042 0.0
C3846 C 0.97372 0.50269 0.50667 0.0
C3847 C 0.95734 0.49283 0.51957 0.0
C3848 C 0.94548 0.49946 0.52149 0.0
C3849 C 0.9499 0.51603 0.51079 0.0
C3850 C 0.96623 0.52602 0.49818 0.0
C3851 C 0.97813 0.51942 0.49616 0.0
H3852 H 0.9407 0.52115 0.5123 0.0
H3853 H 0.05558 0.45642 0.49303 0.0
H3854 H 0.43816 0.5187 0.4996 0.0
H3855 H 0.455 0.50398 0.48721 0.0
H3856 H 0.49819 0.53869 0.53673 0.0
H3857 H 0.48144 0.55362 0.54913 0.0
H3858 H 0.51055 0.53701 0.49061 0.0
H3859 H 0.47154 0.49541 0.55187 0.0
H3860 H 0.44273 0.47537 0.57284 0.0
H3861 H 0.42328 0.44297 0.50667 0.0
H3862 H 0.45189 0.46297 0.48516 0.0
H3863 H 0.55509 0.48499 0.48467 0.0
H3864 H 0.54063 0.50225 0.49659 0.0
H3865 H 0.49641 0.47 0.44705 0.0
H3866 H 0.51072 0.45266 0.43508 0.0
H3867 H 0.48538 0.47091 0.49471 0.0
H3868 H 0.52488 0.51324 0.4335 0.0
H3869 H 0.55406 0.53332 0.41343 0.0
H3870 H 0.57312 0.56429 0.48087 0.0
H3871 H 0.54412 0.54424 0.50146 0.0
C3872 C 0.45115 0.52309 0.50806 0.0
C3873 C 0.45847 0.53731 0.52536 0.0
C3874 C 0.46075 0.51464 0.50099 0.0
C3875 C 0.4778 0.5202 0.51115 0.0
C3876 C 0.48505 0.53422 0.52868 0.0
C3877 C 0.47543 0.54266 0.53583 0.0
C3878 C 0.48824 0.51169 0.50277 0.0
C3879 C 0.50519 0.52258 0.49185 0.0
C3880 C 0.48107 0.49285 0.50399 0.0
C3881 C 0.46381 0.4808 0.51683 0.0
C3882 C 0.46106 0.4841 0.54171 0.0
C3883 C 0.44478 0.47273 0.55371 0.0
C3884 C 0.43116 0.45793 0.54107 0.0
C3885 C 0.43383 0.45445 0.51642 0.0
C3886 C 0.45008 0.46579 0.50433 0.0
C3887 C 0.54247 0.48182 0.47592 0.0
C3888 C 0.53398 0.4674 0.45905 0.0
C3889 C 0.53424 0.49171 0.48274 0.0
C3890 C 0.51743 0.48734 0.47275 0.0
C3891 C 0.50935 0.47351 0.45503 0.0
C3892 C 0.51759 0.46368 0.44813 0.0
C3893 C 0.50758 0.49618 0.48224 0.0
C3894 C 0.49076 0.48533 0.49348 0.0
C3895 C 0.51494 0.51505 0.48144 0.0
C3896 C 0.53239 0.52712 0.4691 0.0
C3897 C 0.53535 0.52423 0.44413 0.0
C3898 C 0.55185 0.53563 0.43264 0.0
C3899 C 0.56545 0.55004 0.44589 0.0
C3900 C 0.56257 0.5531 0.47064 0.0
C3901 C 0.5461 0.54174 0.48222 0.0
H3902 H 0.57821 0.55885 0.43696 0.0
H3903 H 0.41857 0.44913 0.5504 0.0
H3904 H 0.54638 0.06514 0.43482 0.0
H3905 H 0.53047 0.0345 0.4511 0.0
H3906 H 0.49423 0.04655 0.49138 0.0
H3907 H 0.51056 0.0775 0.47582 0.0
H3908 H 0.50659 0.03157 0.52135 0.0
H3909 H 0.48054 0.0172 0.43983 0.0
H3910 H 0.48017 0.01707 0.39379 0.0
H3911 H 0.51115 0.99036 0.39277 0.0
H3912 H 0.51192 0.99054 0.43882 0.0
H3913 H 0.44883 0.93991 0.55859 0.0
H3914 H 0.46229 0.97053 0.54216 0.0
H3915 H 0.50219 0.96328 0.50318 0.0
H3916 H 0.48859 0.93253 0.51913 0.0
H3917 H 0.48623 0.97556 0.47254 0.0
H3918 H 0.51289 0.99109 0.55456 0.0
H3919 H 0.51274 0.99118 0.60061 0.0
H3920 H 0.47956 0.01551 0.60044 0.0
H3921 H 0.47932 0.01536 0.55437 0.0
C3922 C 0.53478 0.06117 0.4467 0.0
C3923 C 0.52975 0.07373 0.45411 0.0
C3924 C 0.52565 0.04361 0.45597 0.0
C3925 C 0.51107 0.03817 0.47239 0.0
C3926 C 0.50547 0.05046 0.47881 0.0
C3927 C 0.51475 0.06811 0.4698 0.0
C3928 C 0.50269 0.02018 0.48443 0.0
C3929 C 0.50183 0.01928 0.51063 0.0
C3930 C 0.49687 0.00419 0.47051 0.0
C3931 C 0.4964 0.00402 0.44279 0.0
C3932 C 0.48739 0.01142 0.42979 0.0
C3933 C 0.48709 0.01131 0.40369 0.0
C3934 C 0.49567 0.00374 0.39036 0.0
C3935 C 0.50453 0.99623 0.40312 0.0
C3936 C 0.50488 0.99631 0.42922 0.0
C3937 C 0.46069 0.94495 0.54692 0.0
C3938 C 0.46761 0.93379 0.54006 0.0
C3939 C 0.46838 0.96247 0.53756 0.0
C3940 C 0.48324 0.96918 0.52143 0.0
C3941 C 0.49066 0.95833 0.51549 0.0
C3942 C 0.48293 0.94079 0.52473 0.0
C3943 C 0.49034 0.98702 0.50939 0.0
C3944 C 0.49092 0.98786 0.4832 0.0
C3945 C 0.49578 0.00293 0.52331 0.0
C3946 C 0.49594 0.00304 0.55101 0.0
C3947 C 0.50544 0.99632 0.56434 0.0
C3948 C 0.50545 0.99641 0.59045 0.0
C3949 C 0.4961 0.0033 0.60345 0.0
C3950 C 0.48677 0.01016 0.59036 0.0
C3951 C 0.48671 0.01009 0.56425 0.0
H3952 H 0.49613 0.00335 0.62366 0.0
H3953 H 0.49542 0.00368 0.37015 0.0
H3954 H 0.55684 0.07169 0.98123 0.0
H3955 H 0.53987 0.03969 0.99184 0.0
H3956 H 0.49359 0.03474 0.95295 0.0
H3957 H 0.5106 0.06652 0.94168 0.0
H3958 H 0.51135 0.02405 0.02062 0.0
H3959 H 0.46642 0.99207 0.93347 0.0
H3960 H 0.46809 0.99581 0.8877 0.0
H3961 H 0.5255 0.01948 0.89046 0.0
H3962 H 0.52416 0.01566 0.93619 0.0
H3963 H 0.42946 0.92591 0.00344 0.0
H3964 H 0.44672 0.95789 0.99273 0.0
H3965 H 0.49314 0.9621 0.03026 0.0
H3966 H 0.47589 0.93033 0.04152 0.0
H3967 H 0.47543 0.97307 0.96327 0.0
H3968 H 0.52054 0.00483 0.05003 0.0
H3969 H 0.51909 0.00092 0.09578 0.0
H3970 H 0.4617 0.97758 0.09368 0.0
H3971 H 0.46283 0.98156 0.04798 0.0
C3972 C 0.54317 0.06368 0.97447 0.0
C3973 C 0.53504 0.07162 0.96066 0.0
C3974 C 0.53347 0.04543 0.98065 0.0
C3975 C 0.51547 0.0348 0.97317 0.0
C3976 C 0.50754 0.04257 0.95859 0.0
C3977 C 0.51728 0.06077 0.95221 0.0
C3978 C 0.50459 0.01601 0.9822 0.0
C3979 C 0.50373 0.01285 0.00803 0.0
C3980 C 0.49422 0.00149 0.96585 0.0
C3981 C 0.49519 0.00373 0.9383 0.0
C3982 C 0.4794 -0.00199 0.9243 0.0
C3983 C 0.48029 0.00016 0.89836 0.0
C3984 C 0.4969 0.00793 0.88619 0.0
C3985 C 0.51265 0.01353 0.89992 0.0
C3986 C 0.51184 0.0114 0.92586 0.0
C3987 C 0.44322 0.93375 0.00988 0.0
C3988 C 0.45133 0.9256 0.02327 0.0
C3989 C 0.45309 0.95199 0.00364 0.0
C3990 C 0.4712 0.96238 0.0107 0.0
C3991 C 0.47911 0.95443 0.02491 0.0
C3992 C 0.46923 0.93623 0.03129 0.0
C3993 C 0.48219 0.98115 0.00167 0.0
C3994 C 0.48306 0.98429 0.97583 0.0
C3995 C 0.49261 0.99564 0.01801 0.0
C3996 C 0.49177 0.99334 0.04554 0.0
C3997 C 0.50762 -0.00107 0.05935 0.0
C3998 C 0.50685 0.99669 0.08526 0.0
C3999 C 0.49031 0.98895 0.09761 0.0
C4000 C 0.4745 0.9835 0.08408 0.0
C4001 C 0.47519 0.98572 0.05816 0.0
H4002 H 0.48974 0.98722 0.11768 0.0
H4003 H 0.49756 0.00959 0.86611 0.0
H4004 H 0.91832 0.48773 0.97312 0.0
H4005 H 0.94925 0.50402 0.98852 0.0
H4006 H 0.95965 0.46448 0.95481 0.0
H4007 H 0.92874 0.44814 0.93917 0.0
H4008 H 0.96815 0.46999 0.00546 0.0
H4009 H 0.97944 0.50498 0.93109 0.0
H4010 H 0.9747 0.52351 0.90018 0.0
H4011 H 0.98497 0.56318 0.95641 0.0
H4012 H 0.98952 0.54475 0.98778 0.0
H4013 H 0.06302 0.51469 0.02213 0.0
H4014 H 0.032 0.49904 0.00717 0.0
H4015 H 0.02339 0.54 0.04009 0.0
H4016 H 0.05448 0.55577 0.05518 0.0
H4017 H 0.01378 0.53399 0.99039 0.0
H4018 H 0.00281 0.49922 0.06469 0.0
H4019 H 0.00758 0.48075 0.09566 0.0
H4020 H -0.00334 0.4407 0.03975 0.0
H4021 H 0.99207 0.45906 0.00833 0.0
C4022 C 0.9273 0.4827 0.96855 0.0
C4023 C 0.92111 0.46662 0.95504 0.0
C4024 C 0.94496 0.49203 0.97734 0.0
C4025 C 0.95666 0.48539 0.97285 0.0
C4026 C 0.95076 0.46976 0.95849 0.0
C4027 C 0.93315 0.46052 0.94946 0.0
C4028 C 0.97459 0.49402 0.98474 0.0
C4029 C 0.97826 0.48391 0.0019 0.0
C4030 C 0.98746 0.51231 0.98063 0.0
C4031 C 0.98462 0.52338 0.96186 0.0
C4032 C 0.98051 0.51757 0.93694 0.0
C4033 C 0.9779 0.52807 0.91931 0.0
C4034 C 0.97948 0.54449 0.92634 0.0
C4035 C 0.98372 0.55045 0.951 0.0
C4036 C 0.98633 0.53998 0.96871 0.0
C4037 C 0.05443 0.52019 0.0266 0.0
C4038 C 0.06118 0.53648 0.03975 0.0
C4039 C 0.03671 0.51122 0.01807 0.0
C4040 C 0.02545 0.5184 0.02252 0.0
C4041 C 0.03192 0.53429 0.03646 0.0
C4042 C 0.04963 0.54321 0.04518 0.0
C4043 C 0.00738 0.50994 0.01106 0.0
C4044 C 0.00366 0.52008 0.994 0.0
C4045 C 0.99446 0.49167 0.01528 0.0
C4046 C -0.00273 0.48061 0.03409 0.0
C4047 C 0.00159 0.48655 0.05893 0.0
C4048 C 0.00423 0.47608 0.07659 0.0
C4049 C 0.00247 0.45958 0.06966 0.0
C4050 C -0.00196 0.45349 0.04508 0.0
C4051 C -0.0046 0.46392 0.02735 0.0
H4052 H 0.00451 0.45149 0.08336 0.0
H4053 H 0.97747 0.55261 0.91267 0.0
H4054 H 0.52136 0.44322 0.98235 0.0
H4055 H 0.506 0.45948 0.99472 0.0
H4056 H 0.54697 0.50731 0.95807 0.0
H4057 H 0.56243 0.49108 0.94546 0.0
H4058 H 0.53976 0.51338 0.00693 0.0
H4059 H 0.50768 0.4862 0.93196 0.0
H4060 H 0.49055 0.46166 0.90199 0.0
H4061 H 0.44879 0.43412 0.95638 0.0
H4062 H 0.46581 0.45838 0.98683 0.0
H4063 H 0.49067 0.56093 0.01154 0.0
H4064 H 0.50846 0.54689 0.00045 0.0
H4065 H 0.46891 0.49738 0.03529 0.0
H4066 H 0.45106 0.5113 0.04652 0.0
H4067 H 0.47615 0.49317 0.98613 0.0
H4068 H 0.5088 0.52062 0.0613 0.0
H4069 H 0.52605 0.54553 0.09072 0.0
H4070 H 0.56686 0.57312 0.03512 0.0
H4071 H 0.54972 0.54847 0.00523 0.0
C4072 C 0.527 0.45714 0.97668 0.0
C4073 C 0.54308 0.46589 0.96294 0.0
C4074 C 0.5182 0.46639 0.98373 0.0
C4075 C 0.52537 0.48455 0.97725 0.0
C4076 C 0.54128 0.49328 0.96323 0.0
C4077 C 0.55001 0.48398 0.95594 0.0
C4078 C 0.51649 0.4945 0.98595 0.0
C4079 C 0.52595 0.50918 0.00209 0.0
C4080 C 0.49837 0.48871 0.97998 0.0
C4081 C 0.48812 0.47403 0.96177 0.0
C4082 C 0.49493 0.47482 0.93762 0.0
C4083 C 0.48522 0.46098 0.92052 0.0
C4084 C 0.46861 0.44631 0.92729 0.0
C4085 C 0.46167 0.44548 0.95117 0.0
C4086 C 0.47133 0.45928 0.96835 0.0
C4087 C 0.48595 0.54717 0.01729 0.0
C4088 C 0.46942 0.53716 0.02974 0.0
C4089 C 0.49614 0.53919 0.01098 0.0
C4090 C 0.48992 0.5211 0.01699 0.0
C4091 C 0.47386 0.51135 0.03044 0.0
C4092 C 0.46374 0.51935 0.03693 0.0
C4093 C 0.49934 0.51191 0.00737 0.0
C4094 C 0.48998 0.4974 0.99096 0.0
C4095 C 0.51755 0.51792 0.01302 0.0
C4096 C 0.52787 0.53278 0.03094 0.0
C4097 C 0.52137 0.53208 0.05526 0.0
C4098 C 0.53114 0.54613 0.07204 0.0
C4099 C 0.54751 0.56092 0.06477 0.0
C4100 C 0.55416 0.56166 0.04072 0.0
C4101 C 0.54443 0.54765 0.02385 0.0
H4102 H 0.55507 0.57179 0.07779 0.0
H4103 H 0.46111 0.43561 0.91403 0.0
loop_
_geom_bond_atom_site_label_1
_geom_bond_atom_site_label_2
_geom_bond_distance
_geom_bond_site_symmetry_2
_ccdc_geom_bond_type
C0 O1 1.306 . S
C0 O3 1.160 . S
O1 C0 1.306 . S
O1 Cd2 2.228 . S
Cd2 O1 2.228 . S
Cd2 O6 2.273 . S
Cd2 O10 2.277 . S
O3 C0 1.160 . S
O3 Cd4 2.203 . S
Cd4 O3 2.203 . S
Cd4 O6 2.411 . S
Cd4 O7 2.333 . S
Cd4 O8 2.352 . S
Cd4 O12 2.277 . S
Cd4 O13 2.356 . S
C5 O10 1.209 . S
C5 O12 1.226 . S
O6 Cd2 2.273 . S
O6 Cd4 2.411 . S
O6 C9 1.320 . S
O7 Cd4 2.333 . S
O7 C9 1.214 . S
O8 Cd4 2.352 . S
O8 C11 1.258 . S
C9 O6 1.320 . S
C9 O7 1.214 . S
O10 Cd2 2.277 . S
O10 C5 1.209 . S
C11 O8 1.258 . S
C11 O13 1.282 . S
O12 Cd4 2.277 . S
O12 C5 1.226 . S
O13 Cd4 2.356 . S
O13 C11 1.282 . S
C14 O15 1.306 . S
C14 O17 1.160 . S
O15 C14 1.306 . S
O15 Cd16 2.228 . S
Cd16 O15 2.228 . S
Cd16 O20 2.273 . S
Cd16 O24 2.277 . S
O17 C14 1.160 . S
O17 Cd18 2.203 . S
Cd18 O17 2.203 . S
Cd18 O20 2.411 . S
Cd18 O21 2.333 . S
Cd18 O22 2.352 . S
Cd18 O26 2.277 . S
Cd18 O27 2.356 . S
C19 O24 1.209 . S
C19 O26 1.226 . S
O20 Cd16 2.273 . S
O20 Cd18 2.411 . S
O20 C23 1.320 . S
O21 Cd18 2.333 . S
O21 C23 1.214 . S
O22 Cd18 2.352 . S
O22 C25 1.258 . S
C23 O20 1.320 . S
C23 O21 1.214 . S
O24 Cd16 2.277 . S
O24 C19 1.209 . S
C25 O22 1.258 . S
C25 O27 1.282 . S
O26 Cd18 2.277 . S
O26 C19 1.226 . S
O27 Cd18 2.356 . S
O27 C25 1.282 . S
C28 O29 1.306 . S
C28 O31 1.160 . S
O29 C28 1.306 . S
O29 Cd30 2.228 . S
Cd30 O29 2.228 . S
Cd30 O34 2.273 . S
Cd30 O38 2.277 . S
O31 C28 1.160 . S
O31 Cd32 2.203 . S
Cd32 O31 2.203 . S
Cd32 O34 2.411 . S
Cd32 O35 2.333 . S
Cd32 O36 2.352 . S
Cd32 O40 2.277 . S
Cd32 O41 2.356 . S
C33 O38 1.209 . S
C33 O40 1.226 . S
O34 Cd30 2.273 . S
O34 Cd32 2.411 . S
O34 C37 1.320 . S
O35 Cd32 2.333 . S
O35 C37 1.214 . S
O36 Cd32 2.352 . S
O36 C39 1.258 . S
C37 O34 1.320 . S
C37 O35 1.214 . S
O38 Cd30 2.277 . S
O38 C33 1.209 . S
C39 O36 1.258 . S
C39 O41 1.282 . S
O40 Cd32 2.277 . S
O40 C33 1.226 . S
O41 Cd32 2.356 . S
O41 C39 1.282 . S
C42 O43 1.306 . S
C42 O45 1.160 . S
O43 C42 1.306 . S
O43 Cd44 2.228 . S
Cd44 O43 2.228 . S
Cd44 O48 2.273 . S
Cd44 O52 2.277 . S
O45 C42 1.160 . S
O45 Cd46 2.203 . S
Cd46 O45 2.203 . S
Cd46 O48 2.411 . S
Cd46 O49 2.333 . S
Cd46 O50 2.352 . S
Cd46 O54 2.277 . S
Cd46 O55 2.356 . S
C47 O52 1.209 . S
C47 O54 1.226 . S
O48 Cd44 2.273 . S
O48 Cd46 2.411 . S
O48 C51 1.320 . S
O49 Cd46 2.333 . S
O49 C51 1.214 . S
O50 Cd46 2.352 . S
O50 C53 1.258 . S
C51 O48 1.320 . S
C51 O49 1.214 . S
O52 Cd44 2.277 . S
O52 C47 1.209 . S
C53 O50 1.258 . S
C53 O55 1.282 . S
O54 Cd46 2.277 . S
O54 C47 1.226 . S
O55 Cd46 2.356 . S
O55 C53 1.282 . S
C56 O57 1.306 . S
C56 O59 1.160 . S
O57 C56 1.306 . S
O57 Cd58 2.228 . S
Cd58 O57 2.228 . S
Cd58 O62 2.273 . S
Cd58 O66 2.277 . S
O59 C56 1.160 . S
O59 Cd60 2.203 . S
Cd60 O59 2.203 . S
Cd60 O62 2.411 . S
Cd60 O63 2.333 . S
Cd60 O64 2.352 . S
Cd60 O68 2.277 . S
Cd60 O69 2.356 . S
C61 O66 1.209 . S
C61 O68 1.226 . S
O62 Cd58 2.273 . S
O62 Cd60 2.411 . S
O62 C65 1.320 . S
O63 Cd60 2.333 . S
O63 C65 1.214 . S
O64 Cd60 2.352 . S
O64 C67 1.258 . S
C65 O62 1.320 . S
C65 O63 1.214 . S
O66 Cd58 2.277 . S
O66 C61 1.209 . S
C67 O64 1.258 . S
C67 O69 1.282 . S
O68 Cd60 2.277 . S
O68 C61 1.226 . S
O69 Cd60 2.356 . S
O69 C67 1.282 . S
C70 O71 1.306 . S
C70 O73 1.160 . S
O71 C70 1.306 . S
O71 Cd72 2.228 . S
Cd72 O71 2.228 . S
Cd72 O76 2.273 . S
Cd72 O80 2.277 . S
O73 C70 1.160 . S
O73 Cd74 2.203 . S
Cd74 O73 2.203 . S
Cd74 O76 2.411 . S
Cd74 O77 2.333 . S
Cd74 O78 2.352 . S
Cd74 O82 2.277 . S
Cd74 O83 2.356 . S
C75 O80 1.209 . S
C75 O82 1.226 . S
O76 Cd72 2.273 . S
O76 Cd74 2.411 . S
O76 C79 1.320 . S
O77 Cd74 2.333 . S
O77 C79 1.214 . S
O78 Cd74 2.352 . S
O78 C81 1.258 . S
C79 O76 1.320 . S
C79 O77 1.214 . S
O80 Cd72 2.277 . S
O80 C75 1.209 . S
C81 O78 1.258 . S
C81 O83 1.282 . S
O82 Cd74 2.277 . S
O82 C75 1.226 . S
O83 Cd74 2.356 . S
O83 C81 1.282 . S
C84 O85 1.306 . S
C84 O87 1.160 . S
O85 C84 1.306 . S
O85 Cd86 2.228 . S
Cd86 O85 2.228 . S
Cd86 O90 2.273 . S
Cd86 O94 2.277 . S
O87 C84 1.160 . S
O87 Cd88 2.203 . S
Cd88 O87 2.203 . S
Cd88 O90 2.411 . S
Cd88 O91 2.333 . S
Cd88 O92 2.352 . S
Cd88 O96 2.277 . S
Cd88 O97 2.356 . S
C89 O94 1.209 . S
C89 O96 1.226 . S
O90 Cd86 2.273 . S
O90 Cd88 2.411 . S
O90 C93 1.320 . S
O91 Cd88 2.333 . S
O91 C93 1.214 . S
O92 Cd88 2.352 . S
O92 C95 1.258 . S
C93 O90 1.320 . S
C93 O91 1.214 . S
O94 Cd86 2.277 . S
O94 C89 1.209 . S
C95 O92 1.258 . S
C95 O97 1.282 . S
O96 Cd88 2.277 . S
O96 C89 1.226 . S
O97 Cd88 2.356 . S
O97 C95 1.282 . S
C98 O99 1.306 . S
C98 O101 1.160 . S
O99 C98 1.306 . S
O99 Cd100 2.228 . S
Cd100 O99 2.228 . S
Cd100 O104 2.273 . S
Cd100 O108 2.277 . S
O101 C98 1.160 . S
O101 Cd102 2.203 . S
Cd102 O101 2.203 . S
Cd102 O104 2.411 . S
Cd102 O105 2.333 . S
Cd102 O106 2.352 . S
Cd102 O110 2.277 . S
Cd102 O111 2.356 . S
C103 O108 1.209 . S
C103 O110 1.226 . S
O104 Cd100 2.273 . S
O104 Cd102 2.411 . S
O104 C107 1.320 . S
O105 Cd102 2.333 . S
O105 C107 1.214 . S
O106 Cd102 2.352 . S
O106 C109 1.258 . S
C107 O104 1.320 . S
C107 O105 1.214 . S
O108 Cd100 2.277 . S
O108 C103 1.209 . S
C109 O106 1.258 . S
C109 O111 1.282 . S
O110 Cd102 2.277 . S
O110 C103 1.226 . S
O111 Cd102 2.356 . S
O111 C109 1.282 . S
C112 O113 1.306 . S
C112 O115 1.160 . S
O113 C112 1.306 . S
O113 Cd114 2.228 . S
Cd114 O113 2.228 . S
Cd114 O118 2.273 . S
Cd114 O122 2.277 . S
O115 C112 1.160 . S
O115 Cd116 2.203 . S
Cd116 O115 2.203 . S
Cd116 O118 2.411 . S
Cd116 O119 2.333 . S
Cd116 O120 2.352 . S
Cd116 O124 2.277 . S
Cd116 O125 2.356 . S
C117 O122 1.209 . S
C117 O124 1.226 . S
O118 Cd114 2.273 . S
O118 Cd116 2.411 . S
O118 C121 1.320 . S
O119 Cd116 2.333 . S
O119 C121 1.214 . S
O120 Cd116 2.352 . S
O120 C123 1.258 . S
C121 O118 1.320 . S
C121 O119 1.214 . S
O122 Cd114 2.277 . S
O122 C117 1.209 . S
C123 O120 1.258 . S
C123 O125 1.282 . S
O124 Cd116 2.277 . S
O124 C117 1.226 . S
O125 Cd116 2.356 . S
O125 C123 1.282 . S
C126 O127 1.306 . S
C126 O129 1.160 . S
O127 C126 1.306 . S
O127 Cd128 2.228 . S
Cd128 O127 2.228 . S
Cd128 O132 2.273 . S
Cd128 O136 2.277 . S
O129 C126 1.160 . S
O129 Cd130 2.203 . S
Cd130 O129 2.203 . S
Cd130 O132 2.411 . S
Cd130 O133 2.333 . S
Cd130 O134 2.352 . S
Cd130 O138 2.277 . S
Cd130 O139 2.356 . S
C131 O136 1.209 . S
C131 O138 1.226 . S
O132 Cd128 2.273 . S
O132 Cd130 2.411 . S
O132 C135 1.320 . S
O133 Cd130 2.333 . S
O133 C135 1.214 . S
O134 Cd130 2.352 . S
O134 C137 1.258 . S
C135 O132 1.320 . S
C135 O133 1.214 . S
O136 Cd128 2.277 . S
O136 C131 1.209 . S
C137 O134 1.258 . S
C137 O139 1.282 . S
O138 Cd130 2.277 . S
O138 C131 1.226 . S
O139 Cd130 2.356 . S
O139 C137 1.282 . S
C140 O141 1.306 . S
C140 O143 1.160 . S
O141 C140 1.306 . S
O141 Cd142 2.228 . S
Cd142 O141 2.228 . S
Cd142 O146 2.273 . S
Cd142 O150 2.277 . S
O143 C140 1.160 . S
O143 Cd144 2.203 . S
Cd144 O143 2.203 . S
Cd144 O146 2.411 . S
Cd144 O147 2.333 . S
Cd144 O148 2.352 . S
Cd144 O152 2.277 . S
Cd144 O153 2.356 . S
C145 O150 1.209 . S
C145 O152 1.226 . S
O146 Cd142 2.273 . S
O146 Cd144 2.411 . S
O146 C149 1.320 . S
O147 Cd144 2.333 . S
O147 C149 1.214 . S
O148 Cd144 2.352 . S
O148 C151 1.258 . S
C149 O146 1.320 . S
C149 O147 1.214 . S
O150 Cd142 2.277 . S
O150 C145 1.209 . S
C151 O148 1.258 . S
C151 O153 1.282 . S
O152 Cd144 2.277 . S
O152 C145 1.226 . S
O153 Cd144 2.356 . S
O153 C151 1.282 . S
C154 O155 1.306 . S
C154 O157 1.160 . S
O155 C154 1.306 . S
O155 Cd156 2.228 . S
Cd156 O155 2.228 . S
Cd156 O160 2.273 . S
Cd156 O164 2.277 . S
O157 C154 1.160 . S
O157 Cd158 2.203 . S
Cd158 O157 2.203 . S
Cd158 O160 2.411 . S
Cd158 O161 2.333 . S
Cd158 O162 2.352 . S
Cd158 O166 2.277 . S
Cd158 O167 2.356 . S
C159 O164 1.209 . S
C159 O166 1.226 . S
O160 Cd156 2.273 . S
O160 Cd158 2.411 . S
O160 C163 1.320 . S
O161 Cd158 2.333 . S
O161 C163 1.214 . S
O162 Cd158 2.352 . S
O162 C165 1.258 . S
C163 O160 1.320 . S
C163 O161 1.214 . S
O164 Cd156 2.277 . S
O164 C159 1.209 . S
C165 O162 1.258 . S
C165 O167 1.282 . S
O166 Cd158 2.277 . S
O166 C159 1.226 . S
O167 Cd158 2.356 . S
O167 C165 1.282 . S
C168 O169 1.306 . S
C168 O171 1.160 . S
O169 C168 1.306 . S
O169 Cd170 2.228 . S
Cd170 O169 2.228 . S
Cd170 O174 2.273 . S
Cd170 O178 2.277 . S
O171 C168 1.160 . S
O171 Cd172 2.203 . S
Cd172 O171 2.203 . S
Cd172 O174 2.411 . S
Cd172 O175 2.333 . S
Cd172 O176 2.352 . S
Cd172 O180 2.277 . S
Cd172 O181 2.356 . S
C173 O178 1.209 . S
C173 O180 1.226 . S
O174 Cd170 2.273 . S
O174 Cd172 2.411 . S
O174 C177 1.320 . S
O175 Cd172 2.333 . S
O175 C177 1.214 . S
O176 Cd172 2.352 . S
O176 C179 1.258 . S
C177 O174 1.320 . S
C177 O175 1.214 . S
O178 Cd170 2.277 . S
O178 C173 1.209 . S
C179 O176 1.258 . S
C179 O181 1.282 . S
O180 Cd172 2.277 . S
O180 C173 1.226 . S
O181 Cd172 2.356 . S
O181 C179 1.282 . S
C182 O183 1.306 . S
C182 O185 1.160 . S
O183 C182 1.306 . S
O183 Cd184 2.228 . S
Cd184 O183 2.228 . S
Cd184 O188 2.273 . S
Cd184 O192 2.277 . S
O185 C182 1.160 . S
O185 Cd186 2.203 . S
Cd186 O185 2.203 . S
Cd186 O188 2.411 . S
Cd186 O189 2.333 . S
Cd186 O190 2.352 . S
Cd186 O194 2.277 . S
Cd186 O195 2.356 . S
C187 O192 1.209 . S
C187 O194 1.226 . S
O188 Cd184 2.273 . S
O188 Cd186 2.411 . S
O188 C191 1.320 . S
O189 Cd186 2.333 . S
O189 C191 1.214 . S
O190 Cd186 2.352 . S
O190 C193 1.258 . S
C191 O188 1.320 . S
C191 O189 1.214 . S
O192 Cd184 2.277 . S
O192 C187 1.209 . S
C193 O190 1.258 . S
C193 O195 1.282 . S
O194 Cd186 2.277 . S
O194 C187 1.226 . S
O195 Cd186 2.356 . S
O195 C193 1.282 . S
C196 O197 1.306 . S
C196 O199 1.160 . S
O197 C196 1.306 . S
O197 Cd198 2.228 . S
Cd198 O197 2.228 . S
Cd198 O202 2.273 . S
Cd198 O206 2.277 . S
O199 C196 1.160 . S
O199 Cd200 2.203 . S
Cd200 O199 2.203 . S
Cd200 O202 2.411 . S
Cd200 O203 2.333 . S
Cd200 O204 2.352 . S
Cd200 O208 2.277 . S
Cd200 O209 2.356 . S
C201 O206 1.209 . S
C201 O208 1.226 . S
O202 Cd198 2.273 . S
O202 Cd200 2.411 . S
O202 C205 1.320 . S
O203 Cd200 2.333 . S
O203 C205 1.214 . S
O204 Cd200 2.352 . S
O204 C207 1.258 . S
C205 O202 1.320 . S
C205 O203 1.214 . S
O206 Cd198 2.277 . S
O206 C201 1.209 . S
C207 O204 1.258 . S
C207 O209 1.282 . S
O208 Cd200 2.277 . S
O208 C201 1.226 . S
O209 Cd200 2.356 . S
O209 C207 1.282 . S
C210 O211 1.306 . S
C210 O213 1.160 . S
O211 C210 1.306 . S
O211 Cd212 2.228 . S
Cd212 O211 2.228 . S
Cd212 O216 2.273 . S
Cd212 O220 2.277 . S
O213 C210 1.160 . S
O213 Cd214 2.203 . S
Cd214 O213 2.203 . S
Cd214 O216 2.411 . S
Cd214 O217 2.333 . S
Cd214 O218 2.352 . S
Cd214 O222 2.277 . S
Cd214 O223 2.356 . S
C215 O220 1.209 . S
C215 O222 1.226 . S
O216 Cd212 2.273 . S
O216 Cd214 2.411 . S
O216 C219 1.320 . S
O217 Cd214 2.333 . S
O217 C219 1.214 . S
O218 Cd214 2.352 . S
O218 C221 1.258 . S
C219 O216 1.320 . S
C219 O217 1.214 . S
O220 Cd212 2.277 . S
O220 C215 1.209 . S
C221 O218 1.258 . S
C221 O223 1.282 . S
O222 Cd214 2.277 . S
O222 C215 1.226 . S
O223 Cd214 2.356 . S
O223 C221 1.282 . S
C224 O225 1.306 . S
C224 O227 1.160 . S
O225 C224 1.306 . S
O225 Cd226 2.228 . S
Cd226 O225 2.228 . S
Cd226 O230 2.273 . S
Cd226 O234 2.277 . S
O227 C224 1.160 . S
O227 Cd228 2.203 . S
Cd228 O227 2.203 . S
Cd228 O230 2.411 . S
Cd228 O231 2.333 . S
Cd228 O232 2.352 . S
Cd228 O236 2.277 . S
Cd228 O237 2.356 . S
C229 O234 1.209 . S
C229 O236 1.226 . S
O230 Cd226 2.273 . S
O230 Cd228 2.411 . S
O230 C233 1.320 . S
O231 Cd228 2.333 . S
O231 C233 1.214 . S
O232 Cd228 2.352 . S
O232 C235 1.258 . S
C233 O230 1.320 . S
C233 O231 1.214 . S
O234 Cd226 2.277 . S
O234 C229 1.209 . S
C235 O232 1.258 . S
C235 O237 1.282 . S
O236 Cd228 2.277 . S
O236 C229 1.226 . S
O237 Cd228 2.356 . S
O237 C235 1.282 . S
C238 O239 1.306 . S
C238 O241 1.160 . S
O239 C238 1.306 . S
O239 Cd240 2.228 . S
Cd240 O239 2.228 . S
Cd240 O244 2.273 . S
Cd240 O248 2.277 . S
O241 C238 1.160 . S
O241 Cd242 2.203 . S
Cd242 O241 2.203 . S
Cd242 O244 2.411 . S
Cd242 O245 2.333 . S
Cd242 O246 2.352 . S
Cd242 O250 2.277 . S
Cd242 O251 2.356 . S
C243 O248 1.209 . S
C243 O250 1.226 . S
O244 Cd240 2.273 . S
O244 Cd242 2.411 . S
O244 C247 1.320 . S
O245 Cd242 2.333 . S
O245 C247 1.214 . S
O246 Cd242 2.352 . S
O246 C249 1.258 . S
C247 O244 1.320 . S
C247 O245 1.214 . S
O248 Cd240 2.277 . S
O248 C243 1.209 . S
C249 O246 1.258 . S
C249 O251 1.282 . S
O250 Cd242 2.277 . S
O250 C243 1.226 . S
O251 Cd242 2.356 . S
O251 C249 1.282 . S
C252 O253 1.306 . S
C252 O255 1.160 . S
O253 C252 1.306 . S
O253 Cd254 2.228 . S
Cd254 O253 2.228 . S
Cd254 O258 2.273 . S
Cd254 O262 2.277 . S
O255 C252 1.160 . S
O255 Cd256 2.203 . S
Cd256 O255 2.203 . S
Cd256 O258 2.411 . S
Cd256 O259 2.333 . S
Cd256 O260 2.352 . S
Cd256 O264 2.277 . S
Cd256 O265 2.356 . S
C257 O262 1.209 . S
C257 O264 1.226 . S
O258 Cd254 2.273 . S
O258 Cd256 2.411 . S
O258 C261 1.320 . S
O259 Cd256 2.333 . S
O259 C261 1.214 . S
O260 Cd256 2.352 . S
O260 C263 1.258 . S
C261 O258 1.320 . S
C261 O259 1.214 . S
O262 Cd254 2.277 . S
O262 C257 1.209 . S
C263 O260 1.258 . S
C263 O265 1.282 . S
O264 Cd256 2.277 . S
O264 C257 1.226 . S
O265 Cd256 2.356 . S
O265 C263 1.282 . S
C266 O267 1.306 . S
C266 O269 1.160 . S
O267 C266 1.306 . S
O267 Cd268 2.228 . S
Cd268 O267 2.228 . S
Cd268 O272 2.273 . S
Cd268 O276 2.277 . S
O269 C266 1.160 . S
O269 Cd270 2.203 . S
Cd270 O269 2.203 . S
Cd270 O272 2.411 . S
Cd270 O273 2.333 . S
Cd270 O274 2.352 . S
Cd270 O278 2.277 . S
Cd270 O279 2.356 . S
C271 O276 1.209 . S
C271 O278 1.226 . S
O272 Cd268 2.273 . S
O272 Cd270 2.411 . S
O272 C275 1.320 . S
O273 Cd270 2.333 . S
O273 C275 1.214 . S
O274 Cd270 2.352 . S
O274 C277 1.258 . S
C275 O272 1.320 . S
C275 O273 1.214 . S
O276 Cd268 2.277 . S
O276 C271 1.209 . S
C277 O274 1.258 . S
C277 O279 1.282 . S
O278 Cd270 2.277 . S
O278 C271 1.226 . S
O279 Cd270 2.356 . S
O279 C277 1.282 . S
C280 O281 1.306 . S
C280 O283 1.160 . S
O281 C280 1.306 . S
O281 Cd282 2.228 . S
Cd282 O281 2.228 . S
Cd282 O286 2.273 . S
Cd282 O290 2.277 . S
O283 C280 1.160 . S
O283 Cd284 2.203 . S
Cd284 O283 2.203 . S
Cd284 O286 2.411 . S
Cd284 O287 2.333 . S
Cd284 O288 2.352 . S
Cd284 O292 2.277 . S
Cd284 O293 2.356 . S
C285 O290 1.209 . S
C285 O292 1.226 . S
O286 Cd282 2.273 . S
O286 Cd284 2.411 . S
O286 C289 1.320 . S
O287 Cd284 2.333 . S
O287 C289 1.214 . S
O288 Cd284 2.352 . S
O288 C291 1.258 . S
C289 O286 1.320 . S
C289 O287 1.214 . S
O290 Cd282 2.277 . S
O290 C285 1.209 . S
C291 O288 1.258 . S
C291 O293 1.282 . S
O292 Cd284 2.277 . S
O292 C285 1.226 . S
O293 Cd284 2.356 . S
O293 C291 1.282 . S
C294 O295 1.306 . S
C294 O297 1.160 . S
O295 C294 1.306 . S
O295 Cd296 2.228 . S
Cd296 O295 2.228 . S
Cd296 O300 2.273 . S
Cd296 O304 2.277 . S
O297 C294 1.160 . S
O297 Cd298 2.203 . S
Cd298 O297 2.203 . S
Cd298 O300 2.411 . S
Cd298 O301 2.333 . S
Cd298 O302 2.352 . S
Cd298 O306 2.277 . S
Cd298 O307 2.356 . S
C299 O304 1.209 . S
C299 O306 1.226 . S
O300 Cd296 2.273 . S
O300 Cd298 2.411 . S
O300 C303 1.320 . S
O301 Cd298 2.333 . S
O301 C303 1.214 . S
O302 Cd298 2.352 . S
O302 C305 1.258 . S
C303 O300 1.320 . S
C303 O301 1.214 . S
O304 Cd296 2.277 . S
O304 C299 1.209 . S
C305 O302 1.258 . S
C305 O307 1.282 . S
O306 Cd298 2.277 . S
O306 C299 1.226 . S
O307 Cd298 2.356 . S
O307 C305 1.282 . S
C308 O309 1.306 . S
C308 O311 1.160 . S
O309 C308 1.306 . S
O309 Cd310 2.228 . S
Cd310 O309 2.228 . S
Cd310 O314 2.273 . S
Cd310 O318 2.277 . S
O311 C308 1.160 . S
O311 Cd312 2.203 . S
Cd312 O311 2.203 . S
Cd312 O314 2.411 . S
Cd312 O315 2.333 . S
Cd312 O316 2.352 . S
Cd312 O320 2.277 . S
Cd312 O321 2.356 . S
C313 O318 1.209 . S
C313 O320 1.226 . S
O314 Cd310 2.273 . S
O314 Cd312 2.411 . S
O314 C317 1.320 . S
O315 Cd312 2.333 . S
O315 C317 1.214 . S
O316 Cd312 2.352 . S
O316 C319 1.258 . S
C317 O314 1.320 . S
C317 O315 1.214 . S
O318 Cd310 2.277 . S
O318 C313 1.209 . S
C319 O316 1.258 . S
C319 O321 1.282 . S
O320 Cd312 2.277 . S
O320 C313 1.226 . S
O321 Cd312 2.356 . S
O321 C319 1.282 . S
C322 O323 1.306 . S
C322 O325 1.160 . S
O323 C322 1.306 . S
O323 Cd324 2.228 . S
Cd324 O323 2.228 . S
Cd324 O328 2.273 . S
Cd324 O332 2.277 . S
O325 C322 1.160 . S
O325 Cd326 2.203 . S
Cd326 O325 2.203 . S
Cd326 O328 2.411 . S
Cd326 O329 2.333 . S
Cd326 O330 2.352 . S
Cd326 O334 2.277 . S
Cd326 O335 2.356 . S
C327 O332 1.209 . S
C327 O334 1.226 . S
O328 Cd324 2.273 . S
O328 Cd326 2.411 . S
O328 C331 1.320 . S
O329 Cd326 2.333 . S
O329 C331 1.214 . S
O330 Cd326 2.352 . S
O330 C333 1.258 . S
C331 O328 1.320 . S
C331 O329 1.214 . S
O332 Cd324 2.277 . S
O332 C327 1.209 . S
C333 O330 1.258 . S
C333 O335 1.282 . S
O334 Cd326 2.277 . S
O334 C327 1.226 . S
O335 Cd326 2.356 . S
O335 C333 1.282 . S
C336 O337 1.306 . S
C336 O339 1.160 . S
O337 C336 1.306 . S
O337 Cd338 2.228 . S
Cd338 O337 2.228 . S
Cd338 O342 2.273 . S
Cd338 O346 2.277 . S
O339 C336 1.160 . S
O339 Cd340 2.203 . S
Cd340 O339 2.203 . S
Cd340 O342 2.411 . S
Cd340 O343 2.333 . S
Cd340 O344 2.352 . S
Cd340 O348 2.277 . S
Cd340 O349 2.356 . S
C341 O346 1.209 . S
C341 O348 1.226 . S
O342 Cd338 2.273 . S
O342 Cd340 2.411 . S
O342 C345 1.320 . S
O343 Cd340 2.333 . S
O343 C345 1.214 . S
O344 Cd340 2.352 . S
O344 C347 1.258 . S
C345 O342 1.320 . S
C345 O343 1.214 . S
O346 Cd338 2.277 . S
O346 C341 1.209 . S
C347 O344 1.258 . S
C347 O349 1.282 . S
O348 Cd340 2.277 . S
O348 C341 1.226 . S
O349 Cd340 2.356 . S
O349 C347 1.282 . S
C350 O351 1.306 . S
C350 O353 1.160 . S
O351 C350 1.306 . S
O351 Cd352 2.228 . S
Cd352 O351 2.228 . S
Cd352 O356 2.273 . S
Cd352 O360 2.277 . S
O353 C350 1.160 . S
O353 Cd354 2.203 . S
Cd354 O353 2.203 . S
Cd354 O356 2.411 . S
Cd354 O357 2.333 . S
Cd354 O358 2.352 . S
Cd354 O362 2.277 . S
Cd354 O363 2.356 . S
C355 O360 1.209 . S
C355 O362 1.226 . S
O356 Cd352 2.273 . S
O356 Cd354 2.411 . S
O356 C359 1.320 . S
O357 Cd354 2.333 . S
O357 C359 1.214 . S
O358 Cd354 2.352 . S
O358 C361 1.258 . S
C359 O356 1.320 . S
C359 O357 1.214 . S
O360 Cd352 2.277 . S
O360 C355 1.209 . S
C361 O358 1.258 . S
C361 O363 1.282 . S
O362 Cd354 2.277 . S
O362 C355 1.226 . S
O363 Cd354 2.356 . S
O363 C361 1.282 . S
C364 O365 1.306 . S
C364 O367 1.160 . S
O365 C364 1.306 . S
O365 Cd366 2.228 . S
Cd366 O365 2.228 . S
Cd366 O370 2.273 . S
Cd366 O374 2.277 . S
O367 C364 1.160 . S
O367 Cd368 2.203 . S
Cd368 O367 2.203 . S
Cd368 O370 2.411 . S
Cd368 O371 2.333 . S
Cd368 O372 2.352 . S
Cd368 O376 2.277 . S
Cd368 O377 2.356 . S
C369 O374 1.209 . S
C369 O376 1.226 . S
O370 Cd366 2.273 . S
O370 Cd368 2.411 . S
O370 C373 1.320 . S
O371 Cd368 2.333 . S
O371 C373 1.214 . S
O372 Cd368 2.352 . S
O372 C375 1.258 . S
C373 O370 1.320 . S
C373 O371 1.214 . S
O374 Cd366 2.277 . S
O374 C369 1.209 . S
C375 O372 1.258 . S
C375 O377 1.282 . S
O376 Cd368 2.277 . S
O376 C369 1.226 . S
O377 Cd368 2.356 . S
O377 C375 1.282 . S
C378 O379 1.306 . S
C378 O381 1.160 . S
O379 C378 1.306 . S
O379 Cd380 2.228 . S
Cd380 O379 2.228 . S
Cd380 O384 2.273 . S
Cd380 O388 2.277 . S
O381 C378 1.160 . S
O381 Cd382 2.203 . S
Cd382 O381 2.203 . S
Cd382 O384 2.411 . S
Cd382 O385 2.333 . S
Cd382 O386 2.352 . S
Cd382 O390 2.277 . S
Cd382 O391 2.356 . S
C383 O388 1.209 . S
C383 O390 1.226 . S
O384 Cd380 2.273 . S
O384 Cd382 2.411 . S
O384 C387 1.320 . S
O385 Cd382 2.333 . S
O385 C387 1.214 . S
O386 Cd382 2.352 . S
O386 C389 1.258 . S
C387 O384 1.320 . S
C387 O385 1.214 . S
O388 Cd380 2.277 . S
O388 C383 1.209 . S
C389 O386 1.258 . S
C389 O391 1.282 . S
O390 Cd382 2.277 . S
O390 C383 1.226 . S
O391 Cd382 2.356 . S
O391 C389 1.282 . S
C392 O393 1.306 . S
C392 O395 1.160 . S
O393 C392 1.306 . S
O393 Cd394 2.228 . S
Cd394 O393 2.228 . S
Cd394 O398 2.273 . S
Cd394 O402 2.277 . S
O395 C392 1.160 . S
O395 Cd396 2.203 . S
Cd396 O395 2.203 . S
Cd396 O398 2.411 . S
Cd396 O399 2.333 . S
Cd396 O400 2.352 . S
Cd396 O404 2.277 . S
Cd396 O405 2.356 . S
C397 O402 1.209 . S
C397 O404 1.226 . S
O398 Cd394 2.273 . S
O398 Cd396 2.411 . S
O398 C401 1.320 . S
O399 Cd396 2.333 . S
O399 C401 1.214 . S
O400 Cd396 2.352 . S
O400 C403 1.258 . S
C401 O398 1.320 . S
C401 O399 1.214 . S
O402 Cd394 2.277 . S
O402 C397 1.209 . S
C403 O400 1.258 . S
C403 O405 1.282 . S
O404 Cd396 2.277 . S
O404 C397 1.226 . S
O405 Cd396 2.356 . S
O405 C403 1.282 . S
C406 O407 1.306 . S
C406 O409 1.160 . S
O407 C406 1.306 . S
O407 Cd408 2.228 . S
Cd408 O407 2.228 . S
Cd408 O412 2.273 . S
Cd408 O416 2.277 . S
O409 C406 1.160 . S
O409 Cd410 2.203 . S
Cd410 O409 2.203 . S
Cd410 O412 2.411 . S
Cd410 O413 2.333 . S
Cd410 O414 2.352 . S
Cd410 O418 2.277 . S
Cd410 O419 2.356 . S
C411 O416 1.209 . S
C411 O418 1.226 . S
O412 Cd408 2.273 . S
O412 Cd410 2.411 . S
O412 C415 1.320 . S
O413 Cd410 2.333 . S
O413 C415 1.214 . S
O414 Cd410 2.352 . S
O414 C417 1.258 . S
C415 O412 1.320 . S
C415 O413 1.214 . S
O416 Cd408 2.277 . S
O416 C411 1.209 . S
C417 O414 1.258 . S
C417 O419 1.282 . S
O418 Cd410 2.277 . S
O418 C411 1.226 . S
O419 Cd410 2.356 . S
O419 C417 1.282 . S
C420 O421 1.306 . S
C420 O423 1.160 . S
O421 C420 1.306 . S
O421 Cd422 2.228 . S
Cd422 O421 2.228 . S
Cd422 O426 2.273 . S
Cd422 O430 2.277 . S
O423 C420 1.160 . S
O423 Cd424 2.203 . S
Cd424 O423 2.203 . S
Cd424 O426 2.411 . S
Cd424 O427 2.333 . S
Cd424 O428 2.352 . S
Cd424 O432 2.277 . S
Cd424 O433 2.356 . S
C425 O430 1.209 . S
C425 O432 1.226 . S
O426 Cd422 2.273 . S
O426 Cd424 2.411 . S
O426 C429 1.320 . S
O427 Cd424 2.333 . S
O427 C429 1.214 . S
O428 Cd424 2.352 . S
O428 C431 1.258 . S
C429 O426 1.320 . S
C429 O427 1.214 . S
O430 Cd422 2.277 . S
O430 C425 1.209 . S
C431 O428 1.258 . S
C431 O433 1.282 . S
O432 Cd424 2.277 . S
O432 C425 1.226 . S
O433 Cd424 2.356 . S
O433 C431 1.282 . S
C434 O435 1.306 . S
C434 O437 1.160 . S
O435 C434 1.306 . S
O435 Cd436 2.228 . S
Cd436 O435 2.228 . S
Cd436 O440 2.273 . S
Cd436 O444 2.277 . S
O437 C434 1.160 . S
O437 Cd438 2.203 . S
Cd438 O437 2.203 . S
Cd438 O440 2.411 . S
Cd438 O441 2.333 . S
Cd438 O442 2.352 . S
Cd438 O446 2.277 . S
Cd438 O447 2.356 . S
C439 O444 1.209 . S
C439 O446 1.226 . S
O440 Cd436 2.273 . S
O440 Cd438 2.411 . S
O440 C443 1.320 . S
O441 Cd438 2.333 . S
O441 C443 1.214 . S
O442 Cd438 2.352 . S
O442 C445 1.258 . S
C443 O440 1.320 . S
C443 O441 1.214 . S
O444 Cd436 2.277 . S
O444 C439 1.209 . S
C445 O442 1.258 . S
C445 O447 1.282 . S
O446 Cd438 2.277 . S
O446 C439 1.226 . S
O447 Cd438 2.356 . S
O447 C445 1.282 . S
C448 O449 1.306 . S
C448 O451 1.160 . S
O449 C448 1.306 . S
O449 Cd450 2.228 . S
Cd450 O449 2.228 . S
Cd450 O454 2.273 . S
Cd450 O458 2.277 . S
O451 C448 1.160 . S
O451 Cd452 2.203 . S
Cd452 O451 2.203 . S
Cd452 O454 2.411 . S
Cd452 O455 2.333 . S
Cd452 O456 2.352 . S
Cd452 O460 2.277 . S
Cd452 O461 2.356 . S
C453 O458 1.209 . S
C453 O460 1.226 . S
O454 Cd450 2.273 . S
O454 Cd452 2.411 . S
O454 C457 1.320 . S
O455 Cd452 2.333 . S
O455 C457 1.214 . S
O456 Cd452 2.352 . S
O456 C459 1.258 . S
C457 O454 1.320 . S
C457 O455 1.214 . S
O458 Cd450 2.277 . S
O458 C453 1.209 . S
C459 O456 1.258 . S
C459 O461 1.282 . S
O460 Cd452 2.277 . S
O460 C453 1.226 . S
O461 Cd452 2.356 . S
O461 C459 1.282 . S
C462 O463 1.306 . S
C462 O465 1.160 . S
O463 C462 1.306 . S
O463 Cd464 2.228 . S
Cd464 O463 2.228 . S
Cd464 O468 2.273 . S
Cd464 O472 2.277 . S
O465 C462 1.160 . S
O465 Cd466 2.203 . S
Cd466 O465 2.203 . S
Cd466 O468 2.411 . S
Cd466 O469 2.333 . S
Cd466 O470 2.352 . S
Cd466 O474 2.277 . S
Cd466 O475 2.356 . S
C467 O472 1.209 . S
C467 O474 1.226 . S
O468 Cd464 2.273 . S
O468 Cd466 2.411 . S
O468 C471 1.320 . S
O469 Cd466 2.333 . S
O469 C471 1.214 . S
O470 Cd466 2.352 . S
O470 C473 1.258 . S
C471 O468 1.320 . S
C471 O469 1.214 . S
O472 Cd464 2.277 . S
O472 C467 1.209 . S
C473 O470 1.258 . S
C473 O475 1.282 . S
O474 Cd466 2.277 . S
O474 C467 1.226 . S
O475 Cd466 2.356 . S
O475 C473 1.282 . S
C476 O477 1.306 . S
C476 O479 1.160 . S
O477 C476 1.306 . S
O477 Cd478 2.228 . S
Cd478 O477 2.228 . S
Cd478 O482 2.273 . S
Cd478 O486 2.277 . S
O479 C476 1.160 . S
O479 Cd480 2.203 . S
Cd480 O479 2.203 . S
Cd480 O482 2.411 . S
Cd480 O483 2.333 . S
Cd480 O484 2.352 . S
Cd480 O488 2.277 . S
Cd480 O489 2.356 . S
C481 O486 1.209 . S
C481 O488 1.226 . S
O482 Cd478 2.273 . S
O482 Cd480 2.411 . S
O482 C485 1.320 . S
O483 Cd480 2.333 . S
O483 C485 1.214 . S
O484 Cd480 2.352 . S
O484 C487 1.258 . S
C485 O482 1.320 . S
C485 O483 1.214 . S
O486 Cd478 2.277 . S
O486 C481 1.209 . S
C487 O484 1.258 . S
C487 O489 1.282 . S
O488 Cd480 2.277 . S
O488 C481 1.226 . S
O489 Cd480 2.356 . S
O489 C487 1.282 . S
C490 O491 1.306 . S
C490 O493 1.160 . S
O491 C490 1.306 . S
O491 Cd492 2.228 . S
Cd492 O491 2.228 . S
Cd492 O496 2.273 . S
Cd492 O500 2.277 . S
O493 C490 1.160 . S
O493 Cd494 2.203 . S
Cd494 O493 2.203 . S
Cd494 O496 2.411 . S
Cd494 O497 2.333 . S
Cd494 O498 2.352 . S
Cd494 O502 2.277 . S
Cd494 O503 2.356 . S
C495 O500 1.209 . S
C495 O502 1.226 . S
O496 Cd492 2.273 . S
O496 Cd494 2.411 . S
O496 C499 1.320 . S
O497 Cd494 2.333 . S
O497 C499 1.214 . S
O498 Cd494 2.352 . S
O498 C501 1.258 . S
C499 O496 1.320 . S
C499 O497 1.214 . S
O500 Cd492 2.277 . S
O500 C495 1.209 . S
C501 O498 1.258 . S
C501 O503 1.282 . S
O502 Cd494 2.277 . S
O502 C495 1.226 . S
O503 Cd494 2.356 . S
O503 C501 1.282 . S
H504 C522 0.951 . S
H505 C524 0.951 . S
H506 C526 0.950 . S
H507 C527 0.950 . S
H508 C529 0.950 . S
H509 C532 0.950 . S
H510 C533 0.950 . S
H511 C535 0.950 . S
H512 C536 0.950 . S
H513 C537 0.951 . S
H514 C539 0.951 . S
H515 C541 0.950 . S
H516 C542 0.950 . S
H517 C544 0.950 . S
H518 C547 0.950 . S
H519 C548 0.950 . S
H520 C550 0.950 . S
H521 C551 0.950 1_545 S
C522 H504 0.951 . S
C522 C523 1.366 . S
C522 C524 1.388 . S
C523 C522 1.366 . S
C523 C527 1.385 . S
C524 H505 0.951 . S
C524 C522 1.388 . S
C524 C525 1.366 . S
C525 C524 1.366 . S
C525 C526 1.414 . S
C525 C528 1.499 . S
C526 H506 0.950 . S
C526 C525 1.414 . S
C526 C527 1.374 . S
C527 H507 0.950 . S
C527 C523 1.385 . S
C527 C526 1.374 . S
C528 C525 1.499 . S
C528 C529 1.373 . S
C528 C530 1.389 . S
C529 H508 0.950 . S
C529 C528 1.373 . S
C529 C545 1.377 . S
C530 C528 1.389 . S
C530 C531 1.524 1_554 S
C530 C544 1.377 1_554 S
C531 C530 1.524 1_556 S
C531 C532 1.397 . S
C531 C536 1.363 . S
C532 H509 0.950 . S
C532 C531 1.397 . S
C532 C533 1.334 . S
C533 H510 0.950 . S
C533 C532 1.334 . S
C533 C534 1.287 . S
C534 C533 1.287 . S
C534 C535 1.524 . S
C534 H553 0.913 . S
C535 H511 0.950 . S
C535 C534 1.524 . S
C535 C536 1.415 . S
C536 H512 0.950 . S
C536 C531 1.363 . S
C536 C535 1.415 . S
C537 H513 0.951 . S
C537 C538 1.366 . S
C537 C539 1.388 . S
C538 C537 1.366 . S
C538 C542 1.385 . S
C539 H514 0.951 . S
C539 C537 1.388 . S
C539 C540 1.366 . S
C540 C539 1.366 . S
C540 C541 1.414 . S
C540 C543 1.499 1_565 S
C541 H515 0.950 . S
C541 C540 1.414 . S
C541 C542 1.374 . S
C542 H516 0.950 . S
C542 C538 1.385 . S
C542 C541 1.374 . S
C543 C540 1.499 1_545 S
C543 C544 1.373 . S
C543 C545 1.389 1_556 S
C544 H517 0.950 . S
C544 C530 1.377 1_556 S
C544 C543 1.373 . S
C545 C529 1.377 . S
C545 C543 1.389 1_554 S
C545 C546 1.524 1_545 S
C546 C545 1.524 1_565 S
C546 C547 1.397 . S
C546 C551 1.363 . S
C547 H518 0.950 . S
C547 C546 1.397 . S
C547 C548 1.334 . S
C548 H519 0.950 . S
C548 C547 1.334 . S
C548 C549 1.287 . S
C549 C548 1.287 . S
C549 C550 1.524 . S
C549 H552 0.999 . S
C550 H520 0.950 . S
C550 C549 1.524 . S
C550 C551 1.415 . S
C551 H521 0.950 1_565 S
C551 C546 1.363 . S
C551 C550 1.415 . S
H552 C549 0.999 . S
H553 C534 0.913 . S
H554 C572 0.951 . S
H555 C574 0.951 . S
H556 C576 0.950 . S
H557 C577 0.950 . S
H558 C579 0.950 . S
H559 C582 0.950 . S
H560 C583 0.950 . S
H561 C585 0.946 1_554 S
H562 C586 0.950 . S
H563 C587 0.951 . S
H564 C589 0.951 . S
H565 C591 0.950 . S
H566 C592 0.950 . S
H567 C594 0.950 . S
H568 C597 0.950 . S
H569 C598 0.950 . S
H570 C600 0.950 . S
H571 C601 0.950 . S
C572 H554 0.951 . S
C572 C573 1.366 . S
C572 C574 1.388 . S
C573 C572 1.366 . S
C573 C577 1.385 . S
C574 H555 0.951 . S
C574 C572 1.388 . S
C574 C575 1.366 . S
C575 C574 1.366 . S
C575 C576 1.414 . S
C575 C578 1.499 . S
C576 H556 0.950 . S
C576 C575 1.414 . S
C576 C577 1.374 . S
C577 H557 0.950 . S
C577 C573 1.385 . S
C577 C576 1.374 . S
C578 C575 1.499 . S
C578 C579 1.373 . S
C578 C580 1.389 . S
C579 H558 0.950 . S
C579 C578 1.373 . S
C579 C595 1.377 . S
C580 C578 1.389 . S
C580 C581 1.524 . S
C580 C594 1.377 1_554 S
C581 C580 1.524 . S
C581 C582 1.397 1_554 S
C581 C586 1.363 . S
C582 H559 0.950 . S
C582 C581 1.397 1_556 S
C582 C583 1.334 . S
C583 H560 0.950 . S
C583 C582 1.334 . S
C583 C584 1.287 . S
C584 C583 1.287 . S
C584 C585 1.536 . S
C584 H603 0.913 . S
C585 H561 0.946 1_556 S
C585 C584 1.536 . S
C585 C586 1.409 1_556 S
C586 H562 0.950 . S
C586 C581 1.363 . S
C586 C585 1.409 1_554 S
C587 H563 0.951 . S
C587 C588 1.366 . S
C587 C589 1.388 . S
C588 C587 1.366 . S
C588 C592 1.385 . S
C589 H564 0.951 . S
C589 C587 1.388 . S
C589 C590 1.366 . S
C590 C589 1.366 . S
C590 C591 1.414 . S
C590 C593 1.499 1_455 S
C591 H565 0.950 . S
C591 C590 1.414 . S
C591 C592 1.374 . S
C592 H566 0.950 . S
C592 C588 1.385 . S
C592 C591 1.374 . S
C593 C590 1.499 1_655 S
C593 C594 1.373 . S
C593 C595 1.389 1_556 S
C594 H567 0.950 . S
C594 C580 1.377 1_556 S
C594 C593 1.373 . S
C595 C579 1.377 . S
C595 C593 1.389 1_554 S
C595 C596 1.467 1_655 S
C596 C595 1.467 1_455 S
C596 C597 1.431 . S
C596 C601 1.384 1_455 S
C597 H568 0.950 . S
C597 C596 1.431 . S
C597 C598 1.334 . S
C598 H569 0.950 . S
C598 C597 1.334 . S
C598 C599 1.287 . S
C599 C598 1.287 . S
C599 C600 1.524 . S
C599 H602 0.999 . S
C600 H570 0.950 . S
C600 C599 1.524 . S
C600 C601 1.415 1_455 S
C601 H571 0.950 . S
C601 C596 1.384 1_655 S
C601 C600 1.415 1_655 S
H602 C599 0.999 . S
H603 C584 0.913 . S
H604 C622 0.951 . S
H605 C624 0.951 . S
H606 C626 0.950 . S
H607 C627 0.950 . S
H608 C629 0.950 . S
H609 C632 0.950 . S
H610 C633 0.950 . S
H611 C635 0.950 . S
H612 C636 0.950 . S
H613 C637 0.951 . S
H614 C639 0.951 . S
H615 C641 0.950 . S
H616 C642 0.950 . S
H617 C644 0.950 . S
H618 C647 0.950 . S
H619 C648 0.950 . S
H620 C650 0.950 . S
H621 C651 0.950 . S
C622 H604 0.951 . S
C622 C623 1.366 . S
C622 C624 1.388 . S
C623 C622 1.366 . S
C623 C627 1.385 . S
C624 H605 0.951 . S
C624 C622 1.388 . S
C624 C625 1.366 . S
C625 C624 1.366 . S
C625 C626 1.414 . S
C625 C628 1.499 . S
C626 H606 0.950 . S
C626 C625 1.414 . S
C626 C627 1.374 . S
C627 H607 0.950 . S
C627 C623 1.385 . S
C627 C626 1.374 . S
C628 C625 1.499 . S
C628 C629 1.373 1_556 S
C628 C630 1.389 . S
C629 H608 0.950 . S
C629 C628 1.373 1_554 S
C629 C645 1.377 . S
C630 C628 1.389 . S
C630 C631 1.524 . S
C630 C644 1.377 . S
C631 C630 1.524 . S
C631 C632 1.397 . S
C631 C636 1.363 . S
C632 H609 0.950 . S
C632 C631 1.397 . S
C632 C633 1.334 . S
C633 H610 0.950 . S
C633 C632 1.334 . S
C633 C634 1.287 . S
C634 C633 1.287 . S
C634 C635 1.524 . S
C634 H653 0.913 . S
C635 H611 0.950 . S
C635 C634 1.524 . S
C635 C636 1.415 . S
C636 H612 0.950 . S
C636 C631 1.363 . S
C636 C635 1.415 . S
C637 H613 0.951 . S
C637 C638 1.366 . S
C637 C639 1.388 . S
C638 C637 1.366 . S
C638 C642 1.385 . S
C639 H614 0.951 . S
C639 C637 1.388 . S
C639 C640 1.366 . S
C640 C639 1.366 . S
C640 C641 1.414 . S
C640 C643 1.499 . S
C641 H615 0.950 . S
C641 C640 1.414 . S
C641 C642 1.374 . S
C642 H616 0.950 . S
C642 C638 1.385 . S
C642 C641 1.374 . S
C643 C640 1.499 . S
C643 C644 1.373 1_554 S
C643 C645 1.389 . S
C644 H617 0.950 . S
C644 C630 1.377 . S
C644 C643 1.373 1_556 S
C645 C629 1.377 . S
C645 C643 1.389 . S
C645 C646 1.524 . S
C646 C645 1.524 . S
C646 C647 1.397 . S
C646 C651 1.363 . S
C647 H618 0.950 . S
C647 C646 1.397 . S
C647 C648 1.334 . S
C648 H619 0.950 . S
C648 C647 1.334 . S
C648 C649 1.287 . S
C649 C648 1.287 . S
C649 C650 1.524 . S
C649 H652 0.999 . S
C650 H620 0.950 . S
C650 C649 1.524 . S
C650 C651 1.415 . S
C651 H621 0.950 . S
C651 C646 1.363 . S
C651 C650 1.415 . S
H652 C649 0.999 . S
H653 C634 0.913 . S
H654 C672 0.951 . S
H655 C674 0.951 . S
H656 C676 0.950 1_455 S
H657 C677 0.950 . S
H658 C679 0.950 . S
H659 C682 0.950 . S
H660 C683 0.950 . S
H661 C685 0.950 . S
H662 C686 0.950 . S
H663 C687 0.951 . S
H664 C689 0.951 . S
H665 C691 0.950 . S
H666 C692 0.950 . S
H667 C694 0.950 . S
H668 C697 0.950 . S
H669 C698 0.950 . S
H670 C700 0.950 . S
H671 C701 0.950 . S
C672 H654 0.951 . S
C672 C673 1.366 . S
C672 C674 1.388 . S
C673 C672 1.366 . S
C673 C677 1.385 . S
C674 H655 0.951 . S
C674 C672 1.388 . S
C674 C675 1.366 . S
C675 C674 1.366 . S
C675 C676 1.414 . S
C675 C678 1.499 1_655 S
C676 H656 0.950 1_655 S
C676 C675 1.414 . S
C676 C677 1.374 . S
C677 H657 0.950 . S
C677 C673 1.385 . S
C677 C676 1.374 . S
C678 C675 1.499 1_455 S
C678 C679 1.373 . S
C678 C680 1.389 . S
C679 H658 0.950 . S
C679 C678 1.373 . S
C679 C695 1.377 . S
C680 C678 1.389 . S
C680 C681 1.524 1_455 S
C680 C694 1.377 . S
C681 C680 1.524 1_655 S
C681 C682 1.397 . S
C681 C686 1.363 . S
C682 H659 0.950 . S
C682 C681 1.397 . S
C682 C683 1.334 . S
C683 H660 0.950 . S
C683 C682 1.334 . S
C683 C684 1.287 . S
C684 C683 1.287 . S
C684 C685 1.524 . S
C684 H703 0.913 . S
C685 H661 0.950 . S
C685 C684 1.524 . S
C685 C686 1.415 . S
C686 H662 0.950 . S
C686 C681 1.363 . S
C686 C685 1.415 . S
C687 H663 0.951 . S
C687 C688 1.366 . S
C687 C689 1.388 . S
C688 C687 1.366 . S
C688 C692 1.385 . S
C689 H664 0.951 . S
C689 C687 1.388 . S
C689 C690 1.366 . S
C690 C689 1.366 . S
C690 C691 1.414 . S
C690 C693 1.499 . S
C691 H665 0.950 . S
C691 C690 1.414 . S
C691 C692 1.374 . S
C692 H666 0.950 . S
C692 C688 1.385 . S
C692 C691 1.374 . S
C693 C690 1.499 . S
C693 C694 1.373 . S
C693 C695 1.389 . S
C694 H667 0.950 . S
C694 C680 1.377 . S
C694 C693 1.373 . S
C695 C679 1.377 . S
C695 C693 1.389 . S
C695 C696 1.524 . S
C696 C695 1.524 . S
C696 C697 1.397 . S
C696 C701 1.363 . S
C697 H668 0.950 . S
C697 C696 1.397 . S
C697 C698 1.334 . S
C698 H669 0.950 . S
C698 C697 1.334 . S
C698 C699 1.287 . S
C699 C698 1.287 . S
C699 C700 1.524 . S
C699 H702 0.999 . S
C700 H670 0.950 . S
C700 C699 1.524 . S
C700 C701 1.415 . S
C701 H671 0.950 . S
C701 C696 1.363 . S
C701 C700 1.415 . S
H702 C699 0.999 . S
H703 C684 0.913 . S
H704 C722 0.951 . S
H705 C724 0.951 . S
H706 C726 0.950 . S
H707 C727 0.950 . S
H708 C729 0.950 . S
H709 C732 0.950 . S
H710 C733 0.950 . S
H711 C735 0.950 . S
H712 C736 0.950 . S
H713 C737 0.951 . S
H714 C739 0.951 . S
H715 C741 0.950 . S
H716 C742 0.950 . S
H717 C744 0.950 . S
H718 C747 0.950 . S
H719 C748 0.950 . S
H720 C750 0.950 . S
H721 C751 0.950 . S
C722 H704 0.951 . S
C722 C723 1.366 . S
C722 C724 1.388 . S
C723 C722 1.366 . S
C723 C727 1.385 . S
C724 H705 0.951 . S
C724 C722 1.388 . S
C724 C725 1.366 . S
C725 C724 1.366 . S
C725 C726 1.414 . S
C725 C728 1.499 . S
C726 H706 0.950 . S
C726 C725 1.414 . S
C726 C727 1.374 . S
C727 H707 0.950 . S
C727 C723 1.385 . S
C727 C726 1.374 . S
C728 C725 1.499 . S
C728 C729 1.373 . S
C728 C730 1.389 . S
C729 H708 0.950 . S
C729 C728 1.373 . S
C729 C745 1.377 . S
C730 C728 1.389 . S
C730 C731 1.524 . S
C730 C744 1.377 . S
C731 C730 1.524 . S
C731 C732 1.397 . S
C731 C736 1.363 . S
C732 H709 0.950 . S
C732 C731 1.397 . S
C732 C733 1.334 . S
C733 H710 0.950 . S
C733 C732 1.334 . S
C733 C734 1.287 . S
C734 C733 1.287 . S
C734 C735 1.524 . S
C734 H753 0.913 . S
C735 H711 0.950 . S
C735 C734 1.524 . S
C735 C736 1.415 . S
C736 H712 0.950 . S
C736 C731 1.363 . S
C736 C735 1.415 . S
C737 H713 0.951 . S
C737 C738 1.366 . S
C737 C739 1.388 . S
C738 C737 1.366 . S
C738 C742 1.385 . S
C739 H714 0.951 . S
C739 C737 1.388 . S
C739 C740 1.366 . S
C740 C739 1.366 . S
C740 C741 1.414 . S
C740 C743 1.499 . S
C741 H715 0.950 . S
C741 C740 1.414 . S
C741 C742 1.374 . S
C742 H716 0.950 . S
C742 C738 1.385 . S
C742 C741 1.374 . S
C743 C740 1.499 . S
C743 C744 1.373 . S
C743 C745 1.389 . S
C744 H717 0.950 . S
C744 C730 1.377 . S
C744 C743 1.373 . S
C745 C729 1.377 . S
C745 C743 1.389 . S
C745 C746 1.524 . S
C746 C745 1.524 . S
C746 C747 1.397 . S
C746 C751 1.363 . S
C747 H718 0.950 . S
C747 C746 1.397 . S
C747 C748 1.334 . S
C748 H719 0.950 . S
C748 C747 1.334 . S
C748 C749 1.287 . S
C749 C748 1.287 . S
C749 C750 1.524 . S
C749 H752 0.999 . S
C750 H720 0.950 . S
C750 C749 1.524 . S
C750 C751 1.415 . S
C751 H721 0.950 . S
C751 C746 1.363 . S
C751 C750 1.415 . S
H752 C749 0.999 . S
H753 C734 0.913 . S
H754 C772 0.951 . S
H755 C774 0.951 . S
H756 C776 0.950 . S
H757 C777 0.950 . S
H758 C779 0.950 . S
H759 C782 0.950 . S
H760 C783 0.950 . S
H761 C785 0.950 1_545 S
H762 C786 0.950 . S
H763 C787 0.951 . S
H764 C789 0.888 1_565 S
H765 C791 0.950 . S
H766 C792 0.950 . S
H767 C794 0.993 . S
H768 C797 0.950 . S
H769 C798 0.950 . S
H770 C800 0.950 . S
H771 C801 0.950 . S
C772 H754 0.951 . S
C772 C773 1.366 . S
C772 C774 1.388 . S
C773 C772 1.366 . S
C773 C777 1.385 . S
C774 H755 0.951 . S
C774 C772 1.388 . S
C774 C775 1.366 . S
C775 C774 1.366 . S
C775 C776 1.414 . S
C775 C778 1.499 . S
C776 H756 0.950 . S
C776 C775 1.414 . S
C776 C777 1.374 . S
C777 H757 0.950 . S
C777 C773 1.385 . S
C777 C776 1.374 . S
C778 C775 1.499 . S
C778 C779 1.373 . S
C778 C780 1.389 . S
C779 H758 0.950 . S
C779 C778 1.373 . S
C779 C795 1.377 . S
C780 C778 1.389 . S
C780 C781 1.524 . S
C780 C794 1.377 . S
C781 C780 1.524 . S
C781 C782 1.397 . S
C781 C786 1.363 . S
C782 H759 0.950 . S
C782 C781 1.397 . S
C782 C783 1.334 . S
C783 H760 0.950 . S
C783 C782 1.334 . S
C783 C784 1.287 . S
C784 C783 1.287 . S
C784 C785 1.524 . S
C784 H803 0.913 . S
C785 H761 0.950 1_565 S
C785 C784 1.524 . S
C785 C786 1.415 . S
C786 H762 0.950 . S
C786 C781 1.363 . S
C786 C785 1.415 . S
C787 H763 0.951 . S
C787 C788 1.366 . S
C787 C789 1.428 . S
C788 C787 1.366 . S
C788 C792 1.385 . S
C789 H764 0.888 1_545 S
C789 C787 1.428 . S
C789 C790 1.390 . S
C790 C789 1.390 . S
C790 C791 1.414 . S
C790 C793 1.499 1_545 S
C791 H765 0.950 . S
C791 C790 1.414 . S
C791 C792 1.374 . S
C792 H766 0.950 . S
C792 C788 1.385 . S
C792 C791 1.374 . S
C793 C790 1.499 1_565 S
C793 C794 1.373 . S
C793 C795 1.389 . S
C794 H767 0.993 . S
C794 C780 1.377 . S
C794 C793 1.373 . S
C795 C779 1.377 . S
C795 C793 1.389 . S
C795 C796 1.524 . S
C796 C795 1.524 . S
C796 C797 1.397 . S
C796 C801 1.363 . S
C797 H768 0.950 . S
C797 C796 1.397 . S
C797 C798 1.334 . S
C798 H769 0.950 . S
C798 C797 1.334 . S
C798 C799 1.287 . S
C799 C798 1.287 . S
C799 C800 1.524 . S
C799 H802 0.999 . S
C800 H770 0.950 . S
C800 C799 1.524 . S
C800 C801 1.415 . S
C801 H771 0.950 . S
C801 C796 1.363 . S
C801 C800 1.415 . S
H802 C799 0.999 . S
H803 C784 0.913 . S
H804 C822 0.951 . S
H805 C824 0.951 . S
H806 C826 0.931 1_565 S
H807 C827 0.950 . S
H808 C829 0.950 . S
H809 C832 0.950 1_564 S
H810 C833 0.950 . S
H811 C835 0.950 . S
H812 C836 0.950 . S
H813 C837 0.951 . S
H814 C839 0.951 . S
H815 C841 0.950 . S
H816 C842 0.950 . S
H817 C844 0.950 . S
H818 C847 0.950 1_556 S
H819 C848 0.950 . S
H820 C850 0.950 . S
H821 C851 0.950 . S
C822 H804 0.951 . S
C822 C823 1.366 . S
C822 C824 1.388 . S
C823 C822 1.366 . S
C823 C827 1.385 . S
C824 H805 0.951 . S
C824 C822 1.388 . S
C824 C825 1.366 . S
C825 C824 1.366 . S
C825 C826 1.412 . S
C825 C828 1.499 1_545 S
C826 H806 0.931 1_545 S
C826 C825 1.412 . S
C826 C827 1.395 . S
C827 H807 0.950 . S
C827 C823 1.385 . S
C827 C826 1.395 . S
C828 C825 1.499 1_565 S
C828 C829 1.373 . S
C828 C830 1.389 1_554 S
C829 H808 0.950 . S
C829 C828 1.373 . S
C829 C845 1.377 . S
C830 C828 1.389 1_556 S
C830 C831 1.533 . S
C830 C844 1.377 . S
C831 C830 1.533 . S
C831 C832 1.391 1_565 S
C831 C836 1.361 1_565 S
C832 H809 0.950 1_546 S
C832 C831 1.391 1_545 S
C832 C833 1.334 . S
C833 H810 0.950 . S
C833 C832 1.334 . S
C833 C834 1.287 . S
C834 C833 1.287 . S
C834 C835 1.524 . S
C834 H853 0.913 . S
C835 H811 0.950 . S
C835 C834 1.524 . S
C835 C836 1.415 . S
C836 H812 0.950 . S
C836 C831 1.361 1_545 S
C836 C835 1.415 . S
C837 H813 0.951 . S
C837 C838 1.366 . S
C837 C839 1.388 . S
C838 C837 1.366 . S
C838 C842 1.385 . S
C839 H814 0.951 . S
C839 C837 1.388 . S
C839 C840 1.366 . S
C840 C839 1.366 . S
C840 C841 1.414 . S
C840 C843 1.499 . S
C841 H815 0.950 . S
C841 C840 1.414 . S
C841 C842 1.374 . S
C842 H816 0.950 . S
C842 C838 1.385 . S
C842 C841 1.374 . S
C843 C840 1.499 . S
C843 C844 1.373 . S
C843 C845 1.389 1_556 S
C844 H817 0.950 . S
C844 C830 1.377 . S
C844 C843 1.373 . S
C845 C829 1.377 . S
C845 C843 1.389 1_554 S
C845 C846 1.524 . S
C846 C845 1.524 . S
C846 C847 1.397 . S
C846 C851 1.363 . S
C847 H818 0.950 1_554 S
C847 C846 1.397 . S
C847 C848 1.334 . S
C848 H819 0.950 . S
C848 C847 1.334 . S
C848 C849 1.287 . S
C849 C848 1.287 . S
C849 C850 1.524 . S
C849 H852 0.999 . S
C850 H820 0.950 . S
C850 C849 1.524 . S
C850 C851 1.415 . S
C851 H821 0.950 . S
C851 C846 1.363 . S
C851 C850 1.415 . S
H852 C849 0.999 . S
H853 C834 0.913 . S
H854 C872 0.951 . S
H855 C874 0.928 1_455 S
H856 C876 0.970 . S
H857 C877 0.950 . S
H858 C879 0.950 . S
H859 C882 0.950 . S
H860 C883 0.950 . S
H861 C885 0.950 . S
H862 C886 0.950 . S
H863 C887 0.951 . S
H864 C889 0.951 . S
H865 C891 0.950 . S
H866 C892 0.950 . S
H867 C894 0.950 . S
H868 C897 0.950 . S
H869 C898 0.950 . S
H870 C900 0.950 . S
H871 C901 0.950 . S
C872 H854 0.951 . S
C872 C873 1.366 . S
C872 C874 1.403 . S
C873 C872 1.366 . S
C873 C877 1.385 . S
C874 H855 0.928 1_655 S
C874 C872 1.403 . S
C874 C875 1.373 . S
C875 C874 1.373 . S
C875 C876 1.414 . S
C875 C878 1.499 1_655 S
C876 H856 0.970 . S
C876 C875 1.414 . S
C876 C877 1.374 . S
C877 H857 0.950 . S
C877 C873 1.385 . S
C877 C876 1.374 . S
C878 C875 1.499 1_455 S
C878 C879 1.373 1_554 S
C878 C880 1.389 . S
C879 H858 0.950 . S
C879 C878 1.373 1_556 S
C879 C895 1.377 . S
C880 C878 1.389 . S
C880 C881 1.524 . S
C880 C894 1.377 . S
C881 C880 1.524 . S
C881 C882 1.397 . S
C881 C886 1.363 . S
C882 H859 0.950 . S
C882 C881 1.397 . S
C882 C883 1.334 . S
C883 H860 0.950 . S
C883 C882 1.334 . S
C883 C884 1.287 . S
C884 C883 1.287 . S
C884 C885 1.524 . S
C884 H903 0.913 . S
C885 H861 0.950 . S
C885 C884 1.524 . S
C885 C886 1.415 . S
C886 H862 0.950 . S
C886 C881 1.363 . S
C886 C885 1.415 . S
C887 H863 0.951 . S
C887 C888 1.366 . S
C887 C889 1.388 . S
C888 C887 1.366 . S
C888 C892 1.385 . S
C889 H864 0.951 . S
C889 C887 1.388 . S
C889 C890 1.366 . S
C890 C889 1.366 . S
C890 C891 1.414 . S
C890 C893 1.499 . S
C891 H865 0.950 . S
C891 C890 1.414 . S
C891 C892 1.374 . S
C892 H866 0.950 . S
C892 C888 1.385 . S
C892 C891 1.374 . S
C893 C890 1.499 . S
C893 C894 1.373 1_556 S
C893 C895 1.389 . S
C894 H867 0.950 . S
C894 C880 1.377 . S
C894 C893 1.373 1_554 S
C895 C879 1.377 . S
C895 C893 1.389 . S
C895 C896 1.524 . S
C896 C895 1.524 . S
C896 C897 1.397 . S
C896 C901 1.363 . S
C897 H868 0.950 . S
C897 C896 1.397 . S
C897 C898 1.334 . S
C898 H869 0.950 . S
C898 C897 1.334 . S
C898 C899 1.287 . S
C899 C898 1.287 . S
C899 C900 1.524 . S
C899 H902 0.999 . S
C900 H870 0.950 . S
C900 C899 1.524 . S
C900 C901 1.415 . S
C901 H871 0.950 . S
C901 C896 1.363 . S
C901 C900 1.415 . S
H902 C899 0.999 . S
H903 C884 0.913 . S
H904 C922 0.951 . S
H905 C924 0.951 . S
H906 C926 0.950 . S
H907 C927 0.950 . S
H908 C929 0.950 . S
H909 C932 0.950 . S
H910 C933 0.950 . S
H911 C935 0.950 . S
H912 C936 0.950 . S
H913 C937 0.951 . S
H914 C939 0.951 . S
H915 C941 0.950 . S
H916 C942 0.950 . S
H917 C944 0.962 . S
H918 C947 0.965 . S
H919 C948 0.950 1_556 S
H920 C950 0.950 . S
H921 C951 0.950 . S
C922 H904 0.951 . S
C922 C923 1.366 . S
C922 C924 1.388 . S
C923 C922 1.366 . S
C923 C927 1.385 . S
C924 H905 0.951 . S
C924 C922 1.388 . S
C924 C925 1.366 . S
C925 C924 1.366 . S
C925 C926 1.414 . S
C925 C928 1.499 . S
C926 H906 0.950 . S
C926 C925 1.414 . S
C926 C927 1.374 . S
C927 H907 0.950 . S
C927 C923 1.385 . S
C927 C926 1.374 . S
C928 C925 1.499 . S
C928 C929 1.373 . S
C928 C930 1.389 . S
C929 H908 0.950 . S
C929 C928 1.373 . S
C929 C945 1.377 1_556 S
C930 C928 1.389 . S
C930 C931 1.524 . S
C930 C944 1.354 1_556 S
C931 C930 1.524 . S
C931 C932 1.397 . S
C931 C936 1.363 . S
C932 H909 0.950 . S
C932 C931 1.397 . S
C932 C933 1.334 . S
C933 H910 0.950 . S
C933 C932 1.334 . S
C933 C934 1.287 . S
C934 C933 1.287 . S
C934 C935 1.524 . S
C934 H953 0.913 . S
C935 H911 0.950 . S
C935 C934 1.524 . S
C935 C936 1.415 . S
C936 H912 0.950 . S
C936 C931 1.363 . S
C936 C935 1.415 . S
C937 H913 0.951 . S
C937 C938 1.366 . S
C937 C939 1.388 . S
C938 C937 1.366 . S
C938 C942 1.385 . S
C939 H914 0.951 . S
C939 C937 1.388 . S
C939 C940 1.366 . S
C940 C939 1.366 . S
C940 C941 1.414 . S
C940 C943 1.499 . S
C941 H915 0.950 . S
C941 C940 1.414 . S
C941 C942 1.374 . S
C942 H916 0.950 . S
C942 C938 1.385 . S
C942 C941 1.374 . S
C943 C940 1.499 . S
C943 C944 1.387 . S
C943 C945 1.389 . S
C944 H917 0.962 . S
C944 C930 1.354 1_554 S
C944 C943 1.387 . S
C945 C929 1.377 1_554 S
C945 C943 1.389 . S
C945 C946 1.524 . S
C946 C945 1.524 . S
C946 C947 1.387 1_554 S
C946 C951 1.363 . S
C947 H918 0.965 . S
C947 C946 1.387 1_556 S
C947 C948 1.330 1_556 S
C948 H919 0.950 1_554 S
C948 C947 1.330 1_554 S
C948 C949 1.287 . S
C949 C948 1.287 . S
C949 C950 1.524 . S
C949 H952 0.999 . S
C950 H920 0.950 . S
C950 C949 1.524 . S
C950 C951 1.415 . S
C951 H921 0.950 . S
C951 C946 1.363 . S
C951 C950 1.415 . S
H952 C949 0.999 . S
H953 C934 0.913 . S
H954 C972 0.951 . S
H955 C974 0.951 . S
H956 C976 0.950 . S
H957 C977 0.950 . S
H958 C979 0.950 . S
H959 C982 0.950 . S
H960 C983 0.950 . S
H961 C985 0.950 . S
H962 C986 0.950 . S
H963 C987 0.951 . S
H964 C989 0.951 . S
H965 C991 0.950 1_655 S
H966 C992 0.950 . S
H967 C994 0.950 . S
H968 C997 0.950 . S
H969 C998 0.950 . S
H970 C1000 0.946 . S
H971 C1001 0.950 . S
C972 H954 0.951 . S
C972 C973 1.366 . S
C972 C974 1.388 . S
C973 C972 1.366 . S
C973 C977 1.385 . S
C974 H955 0.951 . S
C974 C972 1.388 . S
C974 C975 1.366 . S
C975 C974 1.366 . S
C975 C976 1.414 . S
C975 C978 1.499 . S
C976 H956 0.950 . S
C976 C975 1.414 . S
C976 C977 1.374 . S
C977 H957 0.950 . S
C977 C973 1.385 . S
C977 C976 1.374 . S
C978 C975 1.499 . S
C978 C979 1.373 . S
C978 C980 1.389 . S
C979 H958 0.950 . S
C979 C978 1.373 . S
C979 C995 1.377 . S
C980 C978 1.389 . S
C980 C981 1.524 . S
C980 C994 1.377 . S
C981 C980 1.524 . S
C981 C982 1.397 . S
C981 C986 1.363 . S
C982 H959 0.950 . S
C982 C981 1.397 . S
C982 C983 1.334 . S
C983 H960 0.950 . S
C983 C982 1.334 . S
C983 C984 1.287 . S
C984 C983 1.287 . S
C984 C985 1.524 . S
C984 H1003 0.913 . S
C985 H961 0.950 . S
C985 C984 1.524 . S
C985 C986 1.415 . S
C986 H962 0.950 . S
C986 C981 1.363 . S
C986 C985 1.415 . S
C987 H963 0.951 . S
C987 C988 1.366 . S
C987 C989 1.388 . S
C988 C987 1.366 . S
C988 C992 1.385 . S
C989 H964 0.951 . S
C989 C987 1.388 . S
C989 C990 1.366 . S
C990 C989 1.366 . S
C990 C991 1.414 . S
C990 C993 1.499 1_455 S
C991 H965 0.950 1_455 S
C991 C990 1.414 . S
C991 C992 1.374 . S
C992 H966 0.950 . S
C992 C988 1.385 . S
C992 C991 1.374 . S
C993 C990 1.499 1_655 S
C993 C994 1.373 . S
C993 C995 1.389 . S
C994 H967 0.950 . S
C994 C980 1.377 . S
C994 C993 1.373 . S
C995 C979 1.377 . S
C995 C993 1.389 . S
C995 C996 1.524 . S
C996 C995 1.524 . S
C996 C997 1.397 . S
C996 C1001 1.363 . S
C997 H968 0.950 . S
C997 C996 1.397 . S
C997 C998 1.334 . S
C998 H969 0.950 . S
C998 C997 1.334 . S
C998 C999 1.288 1_655 S
C999 C998 1.288 1_455 S
C999 C1000 1.525 . S
C999 H1002 0.998 . S
C1000 H970 0.946 . S
C1000 C999 1.525 . S
C1000 C1001 1.424 1_455 S
C1001 H971 0.950 . S
C1001 C996 1.363 . S
C1001 C1000 1.424 1_655 S
H1002 C999 0.998 . S
H1003 C984 0.913 . S
H1004 C1022 0.951 . S
H1005 C1024 0.951 . S
H1006 C1026 0.950 . S
H1007 C1027 0.950 . S
H1008 C1029 0.950 . S
H1009 C1032 0.950 . S
H1010 C1033 0.950 . S
H1011 C1035 0.950 . S
H1012 C1036 0.950 . S
H1013 C1037 0.951 . S
H1014 C1039 0.951 . S
H1015 C1041 0.950 . S
H1016 C1042 0.950 . S
H1017 C1044 0.950 . S
H1018 C1047 0.950 . S
H1019 C1048 0.950 . S
H1020 C1050 0.950 . S
H1021 C1051 0.950 . S
C1022 H1004 0.951 . S
C1022 C1023 1.366 . S
C1022 C1024 1.388 . S
C1023 C1022 1.366 . S
C1023 C1027 1.385 . S
C1024 H1005 0.951 . S
C1024 C1022 1.388 . S
C1024 C1025 1.366 . S
C1025 C1024 1.366 . S
C1025 C1026 1.414 . S
C1025 C1028 1.499 . S
C1026 H1006 0.950 . S
C1026 C1025 1.414 . S
C1026 C1027 1.374 . S
C1027 H1007 0.950 . S
C1027 C1023 1.385 . S
C1027 C1026 1.374 . S
C1028 C1025 1.499 . S
C1028 C1029 1.373 . S
C1028 C1030 1.389 . S
C1029 H1008 0.950 . S
C1029 C1028 1.373 . S
C1029 C1045 1.377 . S
C1030 C1028 1.389 . S
C1030 C1031 1.524 . S
C1030 C1044 1.377 . S
C1031 C1030 1.524 . S
C1031 C1032 1.397 . S
C1031 C1036 1.363 . S
C1032 H1009 0.950 . S
C1032 C1031 1.397 . S
C1032 C1033 1.334 . S
C1033 H1010 0.950 . S
C1033 C1032 1.334 . S
C1033 C1034 1.287 . S
C1034 C1033 1.287 . S
C1034 C1035 1.524 . S
C1034 H1053 0.913 . S
C1035 H1011 0.950 . S
C1035 C1034 1.524 . S
C1035 C1036 1.415 . S
C1036 H1012 0.950 . S
C1036 C1031 1.363 . S
C1036 C1035 1.415 . S
C1037 H1013 0.951 . S
C1037 C1038 1.366 . S
C1037 C1039 1.388 . S
C1038 C1037 1.366 . S
C1038 C1042 1.385 . S
C1039 H1014 0.951 . S
C1039 C1037 1.388 . S
C1039 C1040 1.366 . S
C1040 C1039 1.366 . S
C1040 C1041 1.414 . S
C1040 C1043 1.499 . S
C1041 H1015 0.950 . S
C1041 C1040 1.414 . S
C1041 C1042 1.374 . S
C1042 H1016 0.950 . S
C1042 C1038 1.385 . S
C1042 C1041 1.374 . S
C1043 C1040 1.499 . S
C1043 C1044 1.373 . S
C1043 C1045 1.389 . S
C1044 H1017 0.950 . S
C1044 C1030 1.377 . S
C1044 C1043 1.373 . S
C1045 C1029 1.377 . S
C1045 C1043 1.389 . S
C1045 C1046 1.524 . S
C1046 C1045 1.524 . S
C1046 C1047 1.397 . S
C1046 C1051 1.363 . S
C1047 H1018 0.950 . S
C1047 C1046 1.397 . S
C1047 C1048 1.334 . S
C1048 H1019 0.950 . S
C1048 C1047 1.334 . S
C1048 C1049 1.287 . S
C1049 C1048 1.287 . S
C1049 C1050 1.524 . S
C1049 H1052 0.999 . S
C1050 H1020 0.950 . S
C1050 C1049 1.524 . S
C1050 C1051 1.415 . S
C1051 H1021 0.950 . S
C1051 C1046 1.363 . S
C1051 C1050 1.415 . S
H1052 C1049 0.999 . S
H1053 C1034 0.913 . S
H1054 C1072 0.951 . S
H1055 C1074 0.951 . S
H1056 C1076 0.950 . S
H1057 C1077 0.950 . S
H1058 C1079 0.950 . S
H1059 C1082 0.950 . S
H1060 C1083 0.950 . S
H1061 C1085 0.950 . S
H1062 C1086 0.950 . S
H1063 C1087 0.951 . S
H1064 C1089 0.924 1_545 S
H1065 C1091 0.950 . S
H1066 C1092 0.950 . S
H1067 C1094 0.950 . S
H1068 C1097 0.950 . S
H1069 C1098 0.950 . S
H1070 C1100 0.950 . S
H1071 C1101 0.950 . S
C1072 H1054 0.951 . S
C1072 C1073 1.366 . S
C1072 C1074 1.388 . S
C1073 C1072 1.366 . S
C1073 C1077 1.385 . S
C1074 H1055 0.951 . S
C1074 C1072 1.388 . S
C1074 C1075 1.366 . S
C1075 C1074 1.366 . S
C1075 C1076 1.414 . S
C1075 C1078 1.499 . S
C1076 H1056 0.950 . S
C1076 C1075 1.414 . S
C1076 C1077 1.374 . S
C1077 H1057 0.950 . S
C1077 C1073 1.385 . S
C1077 C1076 1.374 . S
C1078 C1075 1.499 . S
C1078 C1079 1.373 . S
C1078 C1080 1.389 . S
C1079 H1058 0.950 . S
C1079 C1078 1.373 . S
C1079 C1095 1.377 . S
C1080 C1078 1.389 . S
C1080 C1081 1.524 . S
C1080 C1094 1.377 . S
C1081 C1080 1.524 . S
C1081 C1082 1.397 . S
C1081 C1086 1.363 . S
C1082 H1059 0.950 . S
C1082 C1081 1.397 . S
C1082 C1083 1.334 . S
C1083 H1060 0.950 . S
C1083 C1082 1.334 . S
C1083 C1084 1.287 . S
C1084 C1083 1.287 . S
C1084 C1085 1.524 . S
C1084 H1103 0.913 . S
C1085 H1061 0.950 . S
C1085 C1084 1.524 . S
C1085 C1086 1.415 . S
C1086 H1062 0.950 . S
C1086 C1081 1.363 . S
C1086 C1085 1.415 . S
C1087 H1063 0.951 . S
C1087 C1088 1.366 . S
C1087 C1089 1.410 . S
C1088 C1087 1.366 . S
C1088 C1092 1.385 . S
C1089 H1064 0.924 1_565 S
C1089 C1087 1.410 . S
C1089 C1090 1.371 . S
C1090 C1089 1.371 . S
C1090 C1091 1.414 . S
C1090 C1093 1.499 1_565 S
C1091 H1065 0.950 . S
C1091 C1090 1.414 . S
C1091 C1092 1.374 . S
C1092 H1066 0.950 . S
C1092 C1088 1.385 . S
C1092 C1091 1.374 . S
C1093 C1090 1.499 1_545 S
C1093 C1094 1.373 . S
C1093 C1095 1.389 . S
C1094 H1067 0.950 . S
C1094 C1080 1.377 . S
C1094 C1093 1.373 . S
C1095 C1079 1.377 . S
C1095 C1093 1.389 . S
C1095 C1096 1.524 . S
C1096 C1095 1.524 . S
C1096 C1097 1.397 . S
C1096 C1101 1.363 . S
C1097 H1068 0.950 . S
C1097 C1096 1.397 . S
C1097 C1098 1.334 . S
C1098 H1069 0.950 . S
C1098 C1097 1.334 . S
C1098 C1099 1.287 . S
C1099 C1098 1.287 . S
C1099 C1100 1.524 . S
C1099 H1102 0.999 . S
C1100 H1070 0.950 . S
C1100 C1099 1.524 . S
C1100 C1101 1.415 . S
C1101 H1071 0.950 . S
C1101 C1096 1.363 . S
C1101 C1100 1.415 . S
H1102 C1099 0.999 . S
H1103 C1084 0.913 . S
H1104 C1122 0.951 . S
H1105 C1124 0.951 . S
H1106 C1126 0.950 . S
H1107 C1127 0.950 . S
H1108 C1129 0.950 . S
H1109 C1132 0.950 . S
H1110 C1133 0.950 . S
H1111 C1135 0.950 . S
H1112 C1136 0.950 . S
H1113 C1137 0.951 . S
H1114 C1139 0.951 . S
H1115 C1141 0.950 . S
H1116 C1142 0.950 . S
H1117 C1144 0.950 . S
H1118 C1147 0.950 . S
H1119 C1148 0.950 . S
H1120 C1150 0.950 . S
H1121 C1151 0.950 . S
C1122 H1104 0.951 . S
C1122 C1123 1.366 . S
C1122 C1124 1.388 . S
C1123 C1122 1.366 . S
C1123 C1127 1.385 . S
C1124 H1105 0.951 . S
C1124 C1122 1.388 . S
C1124 C1125 1.366 . S
C1125 C1124 1.366 . S
C1125 C1126 1.414 . S
C1125 C1128 1.499 . S
C1126 H1106 0.950 . S
C1126 C1125 1.414 . S
C1126 C1127 1.374 . S
C1127 H1107 0.950 . S
C1127 C1123 1.385 . S
C1127 C1126 1.374 . S
C1128 C1125 1.499 . S
C1128 C1129 1.373 . S
C1128 C1130 1.389 . S
C1129 H1108 0.950 . S
C1129 C1128 1.373 . S
C1129 C1145 1.377 . S
C1130 C1128 1.389 . S
C1130 C1131 1.524 . S
C1130 C1144 1.377 . S
C1131 C1130 1.524 . S
C1131 C1132 1.397 . S
C1131 C1136 1.363 . S
C1132 H1109 0.950 . S
C1132 C1131 1.397 . S
C1132 C1133 1.334 . S
C1133 H1110 0.950 . S
C1133 C1132 1.334 . S
C1133 C1134 1.287 . S
C1134 C1133 1.287 . S
C1134 C1135 1.524 . S
C1134 H1153 0.913 . S
C1135 H1111 0.950 . S
C1135 C1134 1.524 . S
C1135 C1136 1.415 . S
C1136 H1112 0.950 . S
C1136 C1131 1.363 . S
C1136 C1135 1.415 . S
C1137 H1113 0.951 . S
C1137 C1138 1.366 . S
C1137 C1139 1.388 . S
C1138 C1137 1.366 . S
C1138 C1142 1.385 . S
C1139 H1114 0.951 . S
C1139 C1137 1.388 . S
C1139 C1140 1.366 . S
C1140 C1139 1.366 . S
C1140 C1141 1.414 . S
C1140 C1143 1.499 . S
C1141 H1115 0.950 . S
C1141 C1140 1.414 . S
C1141 C1142 1.374 . S
C1142 H1116 0.950 . S
C1142 C1138 1.385 . S
C1142 C1141 1.374 . S
C1143 C1140 1.499 . S
C1143 C1144 1.373 . S
C1143 C1145 1.389 . S
C1144 H1117 0.950 . S
C1144 C1130 1.377 . S
C1144 C1143 1.373 . S
C1145 C1129 1.377 . S
C1145 C1143 1.389 . S
C1145 C1146 1.524 . S
C1146 C1145 1.524 . S
C1146 C1147 1.397 . S
C1146 C1151 1.363 . S
C1147 H1118 0.950 . S
C1147 C1146 1.397 . S
C1147 C1148 1.334 . S
C1148 H1119 0.950 . S
C1148 C1147 1.334 . S
C1148 C1149 1.287 . S
C1149 C1148 1.287 . S
C1149 C1150 1.524 . S
C1149 H1152 0.999 . S
C1150 H1120 0.950 . S
C1150 C1149 1.524 . S
C1150 C1151 1.415 . S
C1151 H1121 0.950 . S
C1151 C1146 1.363 . S
C1151 C1150 1.415 . S
H1152 C1149 0.999 . S
H1153 C1134 0.913 . S
H1154 C1172 0.951 . S
H1155 C1174 0.951 . S
H1156 C1176 0.950 . S
H1157 C1177 0.950 . S
H1158 C1179 0.950 . S
H1159 C1182 0.950 . S
H1160 C1183 0.950 . S
H1161 C1185 0.950 . S
H1162 C1186 0.950 . S
H1163 C1187 0.951 . S
H1164 C1189 0.951 . S
H1165 C1191 0.950 . S
H1166 C1192 0.950 . S
H1167 C1194 0.950 . S
H1168 C1197 0.950 . S
H1169 C1198 0.950 . S
H1170 C1200 0.950 . S
H1171 C1201 0.950 . S
C1172 H1154 0.951 . S
C1172 C1173 1.366 . S
C1172 C1174 1.388 . S
C1173 C1172 1.366 . S
C1173 C1177 1.385 . S
C1174 H1155 0.951 . S
C1174 C1172 1.388 . S
C1174 C1175 1.366 . S
C1175 C1174 1.366 . S
C1175 C1176 1.414 . S
C1175 C1178 1.499 . S
C1176 H1156 0.950 . S
C1176 C1175 1.414 . S
C1176 C1177 1.374 . S
C1177 H1157 0.950 . S
C1177 C1173 1.385 . S
C1177 C1176 1.374 . S
C1178 C1175 1.499 . S
C1178 C1179 1.373 . S
C1178 C1180 1.389 . S
C1179 H1158 0.950 . S
C1179 C1178 1.373 . S
C1179 C1195 1.377 . S
C1180 C1178 1.389 . S
C1180 C1181 1.524 . S
C1180 C1194 1.377 . S
C1181 C1180 1.524 . S
C1181 C1182 1.397 . S
C1181 C1186 1.363 . S
C1182 H1159 0.950 . S
C1182 C1181 1.397 . S
C1182 C1183 1.334 . S
C1183 H1160 0.950 . S
C1183 C1182 1.334 . S
C1183 C1184 1.287 . S
C1184 C1183 1.287 . S
C1184 C1185 1.524 . S
C1184 H1203 0.913 . S
C1185 H1161 0.950 . S
C1185 C1184 1.524 . S
C1185 C1186 1.415 . S
C1186 H1162 0.950 . S
C1186 C1181 1.363 . S
C1186 C1185 1.415 . S
C1187 H1163 0.951 . S
C1187 C1188 1.366 . S
C1187 C1189 1.388 . S
C1188 C1187 1.366 . S
C1188 C1192 1.385 . S
C1189 H1164 0.951 . S
C1189 C1187 1.388 . S
C1189 C1190 1.366 . S
C1190 C1189 1.366 . S
C1190 C1191 1.414 . S
C1190 C1193 1.499 . S
C1191 H1165 0.950 . S
C1191 C1190 1.414 . S
C1191 C1192 1.374 . S
C1192 H1166 0.950 . S
C1192 C1188 1.385 . S
C1192 C1191 1.374 . S
C1193 C1190 1.499 . S
C1193 C1194 1.373 . S
C1193 C1195 1.389 . S
C1194 H1167 0.950 . S
C1194 C1180 1.377 . S
C1194 C1193 1.373 . S
C1195 C1179 1.377 . S
C1195 C1193 1.389 . S
C1195 C1196 1.524 . S
C1196 C1195 1.524 . S
C1196 C1197 1.397 . S
C1196 C1201 1.363 . S
C1197 H1168 0.950 . S
C1197 C1196 1.397 . S
C1197 C1198 1.334 . S
C1198 H1169 0.950 . S
C1198 C1197 1.334 . S
C1198 C1199 1.287 . S
C1199 C1198 1.287 . S
C1199 C1200 1.524 . S
C1199 H1202 0.999 . S
C1200 H1170 0.950 . S
C1200 C1199 1.524 . S
C1200 C1201 1.415 . S
C1201 H1171 0.950 . S
C1201 C1196 1.363 . S
C1201 C1200 1.415 . S
H1202 C1199 0.999 . S
H1203 C1184 0.913 . S
H1204 C1222 0.951 . S
H1205 C1224 0.951 . S
H1206 C1226 0.950 . S
H1207 C1227 0.950 . S
H1208 C1229 0.950 . S
H1209 C1232 0.950 . S
H1210 C1233 0.950 . S
H1211 C1235 0.950 . S
H1212 C1236 0.950 . S
H1213 C1237 0.951 . S
H1214 C1239 0.951 . S
H1215 C1241 0.950 . S
H1216 C1242 0.950 . S
H1217 C1244 0.950 . S
H1218 C1247 0.950 . S
H1219 C1248 0.950 . S
H1220 C1250 0.950 . S
H1221 C1251 0.950 . S
C1222 H1204 0.951 . S
C1222 C1223 1.366 . S
C1222 C1224 1.388 . S
C1223 C1222 1.366 . S
C1223 C1227 1.385 . S
C1224 H1205 0.951 . S
C1224 C1222 1.388 . S
C1224 C1225 1.366 . S
C1225 C1224 1.366 . S
C1225 C1226 1.414 . S
C1225 C1228 1.499 . S
C1226 H1206 0.950 . S
C1226 C1225 1.414 . S
C1226 C1227 1.374 . S
C1227 H1207 0.950 . S
C1227 C1223 1.385 . S
C1227 C1226 1.374 . S
C1228 C1225 1.499 . S
C1228 C1229 1.373 . S
C1228 C1230 1.389 . S
C1229 H1208 0.950 . S
C1229 C1228 1.373 . S
C1229 C1245 1.377 . S
C1230 C1228 1.389 . S
C1230 C1231 1.524 . S
C1230 C1244 1.377 . S
C1231 C1230 1.524 . S
C1231 C1232 1.397 . S
C1231 C1236 1.363 . S
C1232 H1209 0.950 . S
C1232 C1231 1.397 . S
C1232 C1233 1.334 . S
C1233 H1210 0.950 . S
C1233 C1232 1.334 . S
C1233 C1234 1.287 . S
C1234 C1233 1.287 . S
C1234 C1235 1.524 . S
C1234 H1253 0.913 . S
C1235 H1211 0.950 . S
C1235 C1234 1.524 . S
C1235 C1236 1.415 . S
C1236 H1212 0.950 . S
C1236 C1231 1.363 . S
C1236 C1235 1.415 . S
C1237 H1213 0.951 . S
C1237 C1238 1.366 . S
C1237 C1239 1.388 . S
C1238 C1237 1.366 . S
C1238 C1242 1.385 . S
C1239 H1214 0.951 . S
C1239 C1237 1.388 . S
C1239 C1240 1.366 . S
C1240 C1239 1.366 . S
C1240 C1241 1.414 . S
C1240 C1243 1.499 . S
C1241 H1215 0.950 . S
C1241 C1240 1.414 . S
C1241 C1242 1.374 . S
C1242 H1216 0.950 . S
C1242 C1238 1.385 . S
C1242 C1241 1.374 . S
C1243 C1240 1.499 . S
C1243 C1244 1.373 . S
C1243 C1245 1.389 . S
C1244 H1217 0.950 . S
C1244 C1230 1.377 . S
C1244 C1243 1.373 . S
C1245 C1229 1.377 . S
C1245 C1243 1.389 . S
C1245 C1246 1.524 . S
C1246 C1245 1.524 . S
C1246 C1247 1.397 . S
C1246 C1251 1.363 . S
C1247 H1218 0.950 . S
C1247 C1246 1.397 . S
C1247 C1248 1.334 . S
C1248 H1219 0.950 . S
C1248 C1247 1.334 . S
C1248 C1249 1.287 . S
C1249 C1248 1.287 . S
C1249 C1250 1.524 . S
C1249 H1252 0.999 . S
C1250 H1220 0.950 . S
C1250 C1249 1.524 . S
C1250 C1251 1.415 . S
C1251 H1221 0.950 . S
C1251 C1246 1.363 . S
C1251 C1250 1.415 . S
H1252 C1249 0.999 . S
H1253 C1234 0.913 . S
H1254 C1272 0.951 . S
H1255 C1274 0.951 . S
H1256 C1276 0.950 . S
H1257 C1277 0.950 . S
H1258 C1279 0.950 . S
H1259 C1282 0.950 . S
H1260 C1283 0.950 . S
H1261 C1285 0.950 . S
H1262 C1286 0.950 . S
H1263 C1287 0.951 . S
H1264 C1289 0.951 . S
H1265 C1291 0.950 . S
H1266 C1292 0.950 . S
H1267 C1294 0.950 . S
H1268 C1297 0.950 . S
H1269 C1298 0.950 . S
H1270 C1300 0.950 . S
H1271 C1301 0.950 . S
C1272 H1254 0.951 . S
C1272 C1273 1.366 . S
C1272 C1274 1.388 . S
C1273 C1272 1.366 . S
C1273 C1277 1.385 . S
C1274 H1255 0.951 . S
C1274 C1272 1.388 . S
C1274 C1275 1.366 . S
C1275 C1274 1.366 . S
C1275 C1276 1.414 . S
C1275 C1278 1.499 . S
C1276 H1256 0.950 . S
C1276 C1275 1.414 . S
C1276 C1277 1.374 . S
C1277 H1257 0.950 . S
C1277 C1273 1.385 . S
C1277 C1276 1.374 . S
C1278 C1275 1.499 . S
C1278 C1279 1.373 . S
C1278 C1280 1.389 . S
C1279 H1258 0.950 . S
C1279 C1278 1.373 . S
C1279 C1295 1.377 . S
C1280 C1278 1.389 . S
C1280 C1281 1.524 . S
C1280 C1294 1.377 . S
C1281 C1280 1.524 . S
C1281 C1282 1.397 . S
C1281 C1286 1.363 . S
C1282 H1259 0.950 . S
C1282 C1281 1.397 . S
C1282 C1283 1.334 . S
C1283 H1260 0.950 . S
C1283 C1282 1.334 . S
C1283 C1284 1.287 . S
C1284 C1283 1.287 . S
C1284 C1285 1.524 . S
C1284 H1303 0.913 . S
C1285 H1261 0.950 . S
C1285 C1284 1.524 . S
C1285 C1286 1.415 . S
C1286 H1262 0.950 . S
C1286 C1281 1.363 . S
C1286 C1285 1.415 . S
C1287 H1263 0.951 . S
C1287 C1288 1.366 . S
C1287 C1289 1.388 . S
C1288 C1287 1.366 . S
C1288 C1292 1.385 . S
C1289 H1264 0.951 . S
C1289 C1287 1.388 . S
C1289 C1290 1.366 . S
C1290 C1289 1.366 . S
C1290 C1291 1.414 . S
C1290 C1293 1.499 . S
C1291 H1265 0.950 . S
C1291 C1290 1.414 . S
C1291 C1292 1.374 . S
C1292 H1266 0.950 . S
C1292 C1288 1.385 . S
C1292 C1291 1.374 . S
C1293 C1290 1.499 . S
C1293 C1294 1.373 . S
C1293 C1295 1.389 . S
C1294 H1267 0.950 . S
C1294 C1280 1.377 . S
C1294 C1293 1.373 . S
C1295 C1279 1.377 . S
C1295 C1293 1.389 . S
C1295 C1296 1.524 . S
C1296 C1295 1.524 . S
C1296 C1297 1.397 . S
C1296 C1301 1.363 . S
C1297 H1268 0.950 . S
C1297 C1296 1.397 . S
C1297 C1298 1.334 . S
C1298 H1269 0.950 . S
C1298 C1297 1.334 . S
C1298 C1299 1.287 . S
C1299 C1298 1.287 . S
C1299 C1300 1.524 . S
C1299 H1302 0.999 . S
C1300 H1270 0.950 . S
C1300 C1299 1.524 . S
C1300 C1301 1.415 . S
C1301 H1271 0.950 . S
C1301 C1296 1.363 . S
C1301 C1300 1.415 . S
H1302 C1299 0.999 . S
H1303 C1284 0.913 . S
H1304 C1322 0.951 . S
H1305 C1324 0.951 . S
H1306 C1326 0.950 . S
H1307 C1327 0.950 . S
H1308 C1329 0.950 . S
H1309 C1332 0.950 . S
H1310 C1333 0.950 . S
H1311 C1335 0.950 . S
H1312 C1336 0.950 . S
H1313 C1337 0.951 . S
H1314 C1339 0.951 . S
H1315 C1341 0.950 . S
H1316 C1342 0.950 . S
H1317 C1344 0.950 . S
H1318 C1347 0.950 . S
H1319 C1348 0.950 . S
H1320 C1350 0.950 . S
H1321 C1351 0.950 . S
C1322 H1304 0.951 . S
C1322 C1323 1.366 . S
C1322 C1324 1.388 . S
C1323 C1322 1.366 . S
C1323 C1327 1.385 . S
C1324 H1305 0.951 . S
C1324 C1322 1.388 . S
C1324 C1325 1.366 . S
C1325 C1324 1.366 . S
C1325 C1326 1.414 . S
C1325 C1328 1.499 . S
C1326 H1306 0.950 . S
C1326 C1325 1.414 . S
C1326 C1327 1.374 . S
C1327 H1307 0.950 . S
C1327 C1323 1.385 . S
C1327 C1326 1.374 . S
C1328 C1325 1.499 . S
C1328 C1329 1.373 . S
C1328 C1330 1.389 . S
C1329 H1308 0.950 . S
C1329 C1328 1.373 . S
C1329 C1345 1.377 . S
C1330 C1328 1.389 . S
C1330 C1331 1.524 . S
C1330 C1344 1.377 . S
C1331 C1330 1.524 . S
C1331 C1332 1.397 . S
C1331 C1336 1.363 . S
C1332 H1309 0.950 . S
C1332 C1331 1.397 . S
C1332 C1333 1.334 . S
C1333 H1310 0.950 . S
C1333 C1332 1.334 . S
C1333 C1334 1.287 . S
C1334 C1333 1.287 . S
C1334 C1335 1.524 . S
C1334 H1353 0.913 . S
C1335 H1311 0.950 . S
C1335 C1334 1.524 . S
C1335 C1336 1.415 . S
C1336 H1312 0.950 . S
C1336 C1331 1.363 . S
C1336 C1335 1.415 . S
C1337 H1313 0.951 . S
C1337 C1338 1.366 . S
C1337 C1339 1.388 . S
C1338 C1337 1.366 . S
C1338 C1342 1.385 . S
C1339 H1314 0.951 . S
C1339 C1337 1.388 . S
C1339 C1340 1.366 . S
C1340 C1339 1.366 . S
C1340 C1341 1.414 . S
C1340 C1343 1.499 . S
C1341 H1315 0.950 . S
C1341 C1340 1.414 . S
C1341 C1342 1.374 . S
C1342 H1316 0.950 . S
C1342 C1338 1.385 . S
C1342 C1341 1.374 . S
C1343 C1340 1.499 . S
C1343 C1344 1.373 . S
C1343 C1345 1.389 . S
C1344 H1317 0.950 . S
C1344 C1330 1.377 . S
C1344 C1343 1.373 . S
C1345 C1329 1.377 . S
C1345 C1343 1.389 . S
C1345 C1346 1.524 . S
C1346 C1345 1.524 . S
C1346 C1347 1.397 . S
C1346 C1351 1.363 . S
C1347 H1318 0.950 . S
C1347 C1346 1.397 . S
C1347 C1348 1.334 . S
C1348 H1319 0.950 . S
C1348 C1347 1.334 . S
C1348 C1349 1.287 . S
C1349 C1348 1.287 . S
C1349 C1350 1.524 . S
C1349 H1352 0.999 . S
C1350 H1320 0.950 . S
C1350 C1349 1.524 . S
C1350 C1351 1.415 . S
C1351 H1321 0.950 . S
C1351 C1346 1.363 . S
C1351 C1350 1.415 . S
H1352 C1349 0.999 . S
H1353 C1334 0.913 . S
H1354 C1372 0.951 . S
H1355 C1374 0.951 . S
H1356 C1376 0.950 . S
H1357 C1377 0.950 . S
H1358 C1379 0.950 . S
H1359 C1382 0.950 . S
H1360 C1383 0.950 . S
H1361 C1385 0.950 . S
H1362 C1386 0.950 . S
H1363 C1387 0.951 . S
H1364 C1389 0.951 . S
H1365 C1391 0.950 . S
H1366 C1392 0.950 . S
H1367 C1394 0.950 . S
H1368 C1397 0.950 . S
H1369 C1398 0.950 . S
H1370 C1400 0.950 . S
H1371 C1401 0.950 . S
C1372 H1354 0.951 . S
C1372 C1373 1.366 . S
C1372 C1374 1.388 . S
C1373 C1372 1.366 . S
C1373 C1377 1.385 . S
C1374 H1355 0.951 . S
C1374 C1372 1.388 . S
C1374 C1375 1.366 . S
C1375 C1374 1.366 . S
C1375 C1376 1.414 . S
C1375 C1378 1.499 . S
C1376 H1356 0.950 . S
C1376 C1375 1.414 . S
C1376 C1377 1.374 . S
C1377 H1357 0.950 . S
C1377 C1373 1.385 . S
C1377 C1376 1.374 . S
C1378 C1375 1.499 . S
C1378 C1379 1.373 . S
C1378 C1380 1.389 . S
C1379 H1358 0.950 . S
C1379 C1378 1.373 . S
C1379 C1395 1.377 . S
C1380 C1378 1.389 . S
C1380 C1381 1.524 . S
C1380 C1394 1.377 . S
C1381 C1380 1.524 . S
C1381 C1382 1.397 . S
C1381 C1386 1.363 . S
C1382 H1359 0.950 . S
C1382 C1381 1.397 . S
C1382 C1383 1.334 . S
C1383 H1360 0.950 . S
C1383 C1382 1.334 . S
C1383 C1384 1.287 . S
C1384 C1383 1.287 . S
C1384 C1385 1.524 . S
C1384 H1403 0.913 . S
C1385 H1361 0.950 . S
C1385 C1384 1.524 . S
C1385 C1386 1.415 . S
C1386 H1362 0.950 . S
C1386 C1381 1.363 . S
C1386 C1385 1.415 . S
C1387 H1363 0.951 . S
C1387 C1388 1.366 . S
C1387 C1389 1.388 . S
C1388 C1387 1.366 . S
C1388 C1392 1.385 . S
C1389 H1364 0.951 . S
C1389 C1387 1.388 . S
C1389 C1390 1.366 . S
C1390 C1389 1.366 . S
C1390 C1391 1.414 . S
C1390 C1393 1.499 . S
C1391 H1365 0.950 . S
C1391 C1390 1.414 . S
C1391 C1392 1.374 . S
C1392 H1366 0.950 . S
C1392 C1388 1.385 . S
C1392 C1391 1.374 . S
C1393 C1390 1.499 . S
C1393 C1394 1.373 . S
C1393 C1395 1.389 . S
C1394 H1367 0.950 . S
C1394 C1380 1.377 . S
C1394 C1393 1.373 . S
C1395 C1379 1.377 . S
C1395 C1393 1.389 . S
C1395 C1396 1.524 . S
C1396 C1395 1.524 . S
C1396 C1397 1.397 . S
C1396 C1401 1.363 . S
C1397 H1368 0.950 . S
C1397 C1396 1.397 . S
C1397 C1398 1.334 . S
C1398 H1369 0.950 . S
C1398 C1397 1.334 . S
C1398 C1399 1.287 . S
C1399 C1398 1.287 . S
C1399 C1400 1.524 . S
C1399 H1402 0.999 . S
C1400 H1370 0.950 . S
C1400 C1399 1.524 . S
C1400 C1401 1.415 . S
C1401 H1371 0.950 . S
C1401 C1396 1.363 . S
C1401 C1400 1.415 . S
H1402 C1399 0.999 . S
H1403 C1384 0.913 . S
H1404 C1422 0.951 . S
H1405 C1424 0.951 . S
H1406 C1426 0.950 . S
H1407 C1427 0.950 . S
H1408 C1429 0.950 . S
H1409 C1432 0.950 . S
H1410 C1433 0.950 . S
H1411 C1435 0.950 . S
H1412 C1436 0.950 . S
H1413 C1437 0.951 . S
H1414 C1439 0.951 . S
H1415 C1441 0.950 . S
H1416 C1442 0.950 . S
H1417 C1444 0.950 . S
H1418 C1447 0.950 . S
H1419 C1448 0.950 . S
H1420 C1450 0.950 . S
H1421 C1451 0.950 . S
C1422 H1404 0.951 . S
C1422 C1423 1.366 . S
C1422 C1424 1.388 . S
C1423 C1422 1.366 . S
C1423 C1427 1.385 . S
C1424 H1405 0.951 . S
C1424 C1422 1.388 . S
C1424 C1425 1.366 . S
C1425 C1424 1.366 . S
C1425 C1426 1.414 . S
C1425 C1428 1.499 . S
C1426 H1406 0.950 . S
C1426 C1425 1.414 . S
C1426 C1427 1.374 . S
C1427 H1407 0.950 . S
C1427 C1423 1.385 . S
C1427 C1426 1.374 . S
C1428 C1425 1.499 . S
C1428 C1429 1.373 . S
C1428 C1430 1.389 . S
C1429 H1408 0.950 . S
C1429 C1428 1.373 . S
C1429 C1445 1.377 . S
C1430 C1428 1.389 . S
C1430 C1431 1.524 . S
C1430 C1444 1.377 . S
C1431 C1430 1.524 . S
C1431 C1432 1.397 . S
C1431 C1436 1.363 . S
C1432 H1409 0.950 . S
C1432 C1431 1.397 . S
C1432 C1433 1.334 . S
C1433 H1410 0.950 . S
C1433 C1432 1.334 . S
C1433 C1434 1.287 . S
C1434 C1433 1.287 . S
C1434 C1435 1.524 . S
C1434 H1453 0.913 . S
C1435 H1411 0.950 . S
C1435 C1434 1.524 . S
C1435 C1436 1.415 . S
C1436 H1412 0.950 . S
C1436 C1431 1.363 . S
C1436 C1435 1.415 . S
C1437 H1413 0.951 . S
C1437 C1438 1.366 . S
C1437 C1439 1.388 . S
C1438 C1437 1.366 . S
C1438 C1442 1.385 . S
C1439 H1414 0.951 . S
C1439 C1437 1.388 . S
C1439 C1440 1.366 . S
C1440 C1439 1.366 . S
C1440 C1441 1.414 . S
C1440 C1443 1.499 . S
C1441 H1415 0.950 . S
C1441 C1440 1.414 . S
C1441 C1442 1.374 . S
C1442 H1416 0.950 . S
C1442 C1438 1.385 . S
C1442 C1441 1.374 . S
C1443 C1440 1.499 . S
C1443 C1444 1.373 . S
C1443 C1445 1.389 . S
C1444 H1417 0.950 . S
C1444 C1430 1.377 . S
C1444 C1443 1.373 . S
C1445 C1429 1.377 . S
C1445 C1443 1.389 . S
C1445 C1446 1.524 . S
C1446 C1445 1.524 . S
C1446 C1447 1.397 . S
C1446 C1451 1.363 . S
C1447 H1418 0.950 . S
C1447 C1446 1.397 . S
C1447 C1448 1.334 . S
C1448 H1419 0.950 . S
C1448 C1447 1.334 . S
C1448 C1449 1.287 . S
C1449 C1448 1.287 . S
C1449 C1450 1.524 . S
C1449 H1452 0.999 . S
C1450 H1420 0.950 . S
C1450 C1449 1.524 . S
C1450 C1451 1.415 . S
C1451 H1421 0.950 . S
C1451 C1446 1.363 . S
C1451 C1450 1.415 . S
H1452 C1449 0.999 . S
H1453 C1434 0.913 . S
H1454 C1472 0.951 . S
H1455 C1474 0.951 . S
H1456 C1476 0.950 . S
H1457 C1477 0.950 . S
H1458 C1479 0.950 . S
H1459 C1482 0.950 . S
H1460 C1483 0.950 . S
H1461 C1485 0.950 . S
H1462 C1486 0.950 . S
H1463 C1487 0.951 . S
H1464 C1489 0.951 . S
H1465 C1491 0.950 . S
H1466 C1492 0.950 . S
H1467 C1494 0.950 . S
H1468 C1497 0.950 . S
H1469 C1498 0.950 . S
H1470 C1500 0.950 . S
H1471 C1501 0.950 . S
C1472 H1454 0.951 . S
C1472 C1473 1.366 . S
C1472 C1474 1.388 . S
C1473 C1472 1.366 . S
C1473 C1477 1.385 . S
C1474 H1455 0.951 . S
C1474 C1472 1.388 . S
C1474 C1475 1.366 . S
C1475 C1474 1.366 . S
C1475 C1476 1.414 . S
C1475 C1478 1.499 . S
C1476 H1456 0.950 . S
C1476 C1475 1.414 . S
C1476 C1477 1.374 . S
C1477 H1457 0.950 . S
C1477 C1473 1.385 . S
C1477 C1476 1.374 . S
C1478 C1475 1.499 . S
C1478 C1479 1.373 . S
C1478 C1480 1.389 . S
C1479 H1458 0.950 . S
C1479 C1478 1.373 . S
C1479 C1495 1.377 . S
C1480 C1478 1.389 . S
C1480 C1481 1.524 . S
C1480 C1494 1.377 . S
C1481 C1480 1.524 . S
C1481 C1482 1.397 . S
C1481 C1486 1.363 . S
C1482 H1459 0.950 . S
C1482 C1481 1.397 . S
C1482 C1483 1.334 . S
C1483 H1460 0.950 . S
C1483 C1482 1.334 . S
C1483 C1484 1.287 . S
C1484 C1483 1.287 . S
C1484 C1485 1.524 . S
C1484 H1503 0.913 . S
C1485 H1461 0.950 . S
C1485 C1484 1.524 . S
C1485 C1486 1.415 . S
C1486 H1462 0.950 . S
C1486 C1481 1.363 . S
C1486 C1485 1.415 . S
C1487 H1463 0.951 . S
C1487 C1488 1.366 . S
C1487 C1489 1.388 . S
C1488 C1487 1.366 . S
C1488 C1492 1.385 . S
C1489 H1464 0.951 . S
C1489 C1487 1.388 . S
C1489 C1490 1.366 . S
C1490 C1489 1.366 . S
C1490 C1491 1.414 . S
C1490 C1493 1.499 . S
C1491 H1465 0.950 . S
C1491 C1490 1.414 . S
C1491 C1492 1.374 . S
C1492 H1466 0.950 . S
C1492 C1488 1.385 . S
C1492 C1491 1.374 . S
C1493 C1490 1.499 . S
C1493 C1494 1.373 . S
C1493 C1495 1.389 . S
C1494 H1467 0.950 . S
C1494 C1480 1.377 . S
C1494 C1493 1.373 . S
C1495 C1479 1.377 . S
C1495 C1493 1.389 . S
C1495 C1496 1.524 . S
C1496 C1495 1.524 . S
C1496 C1497 1.397 . S
C1496 C1501 1.363 . S
C1497 H1468 0.950 . S
C1497 C1496 1.397 . S
C1497 C1498 1.334 . S
C1498 H1469 0.950 . S
C1498 C1497 1.334 . S
C1498 C1499 1.287 . S
C1499 C1498 1.287 . S
C1499 C1500 1.524 . S
C1499 H1502 0.999 . S
C1500 H1470 0.950 . S
C1500 C1499 1.524 . S
C1500 C1501 1.415 . S
C1501 H1471 0.950 . S
C1501 C1496 1.363 . S
C1501 C1500 1.415 . S
H1502 C1499 0.999 . S
H1503 C1484 0.913 . S
H1504 C1522 0.951 . S
H1505 C1524 0.951 . S
H1506 C1526 0.950 . S
H1507 C1527 0.950 . S
H1508 C1529 0.950 . S
H1509 C1532 0.950 . S
H1510 C1533 0.950 . S
H1511 C1535 0.950 . S
H1512 C1536 0.950 . S
H1513 C1537 0.951 . S
H1514 C1539 0.951 . S
H1515 C1541 0.950 . S
H1516 C1542 0.950 . S
H1517 C1544 0.950 . S
H1518 C1547 0.950 . S
H1519 C1548 0.950 . S
H1520 C1550 0.950 . S
H1521 C1551 0.950 . S
C1522 H1504 0.951 . S
C1522 C1523 1.366 . S
C1522 C1524 1.388 . S
C1523 C1522 1.366 . S
C1523 C1527 1.385 . S
C1524 H1505 0.951 . S
C1524 C1522 1.388 . S
C1524 C1525 1.366 . S
C1525 C1524 1.366 . S
C1525 C1526 1.414 . S
C1525 C1528 1.499 . S
C1526 H1506 0.950 . S
C1526 C1525 1.414 . S
C1526 C1527 1.374 . S
C1527 H1507 0.950 . S
C1527 C1523 1.385 . S
C1527 C1526 1.374 . S
C1528 C1525 1.499 . S
C1528 C1529 1.373 . S
C1528 C1530 1.389 . S
C1529 H1508 0.950 . S
C1529 C1528 1.373 . S
C1529 C1545 1.377 . S
C1530 C1528 1.389 . S
C1530 C1531 1.524 . S
C1530 C1544 1.377 . S
C1531 C1530 1.524 . S
C1531 C1532 1.397 . S
C1531 C1536 1.363 . S
C1532 H1509 0.950 . S
C1532 C1531 1.397 . S
C1532 C1533 1.334 . S
C1533 H1510 0.950 . S
C1533 C1532 1.334 . S
C1533 C1534 1.287 . S
C1534 C1533 1.287 . S
C1534 C1535 1.524 . S
C1534 H1553 0.913 . S
C1535 H1511 0.950 . S
C1535 C1534 1.524 . S
C1535 C1536 1.415 . S
C1536 H1512 0.950 . S
C1536 C1531 1.363 . S
C1536 C1535 1.415 . S
C1537 H1513 0.951 . S
C1537 C1538 1.366 . S
C1537 C1539 1.388 . S
C1538 C1537 1.366 . S
C1538 C1542 1.385 . S
C1539 H1514 0.951 . S
C1539 C1537 1.388 . S
C1539 C1540 1.366 . S
C1540 C1539 1.366 . S
C1540 C1541 1.414 . S
C1540 C1543 1.499 . S
C1541 H1515 0.950 . S
C1541 C1540 1.414 . S
C1541 C1542 1.374 . S
C1542 H1516 0.950 . S
C1542 C1538 1.385 . S
C1542 C1541 1.374 . S
C1543 C1540 1.499 . S
C1543 C1544 1.373 . S
C1543 C1545 1.389 . S
C1544 H1517 0.950 . S
C1544 C1530 1.377 . S
C1544 C1543 1.373 . S
C1545 C1529 1.377 . S
C1545 C1543 1.389 . S
C1545 C1546 1.524 . S
C1546 C1545 1.524 . S
C1546 C1547 1.397 . S
C1546 C1551 1.363 . S
C1547 H1518 0.950 . S
C1547 C1546 1.397 . S
C1547 C1548 1.334 . S
C1548 H1519 0.950 . S
C1548 C1547 1.334 . S
C1548 C1549 1.287 . S
C1549 C1548 1.287 . S
C1549 C1550 1.524 . S
C1549 H1552 0.999 . S
C1550 H1520 0.950 . S
C1550 C1549 1.524 . S
C1550 C1551 1.415 . S
C1551 H1521 0.950 . S
C1551 C1546 1.363 . S
C1551 C1550 1.415 . S
H1552 C1549 0.999 . S
H1553 C1534 0.913 . S
H1554 C1572 0.951 . S
H1555 C1574 0.951 . S
H1556 C1576 0.950 . S
H1557 C1577 0.950 . S
H1558 C1579 0.950 . S
H1559 C1582 0.950 . S
H1560 C1583 0.950 . S
H1561 C1585 0.950 . S
H1562 C1586 0.950 . S
H1563 C1587 0.951 . S
H1564 C1589 0.951 . S
H1565 C1591 0.950 . S
H1566 C1592 0.950 . S
H1567 C1594 0.950 . S
H1568 C1597 0.950 . S
H1569 C1598 0.950 . S
H1570 C1600 0.950 . S
H1571 C1601 0.950 . S
C1572 H1554 0.951 . S
C1572 C1573 1.366 . S
C1572 C1574 1.388 . S
C1573 C1572 1.366 . S
C1573 C1577 1.385 . S
C1574 H1555 0.951 . S
C1574 C1572 1.388 . S
C1574 C1575 1.366 . S
C1575 C1574 1.366 . S
C1575 C1576 1.414 . S
C1575 C1578 1.499 . S
C1576 H1556 0.950 . S
C1576 C1575 1.414 . S
C1576 C1577 1.374 . S
C1577 H1557 0.950 . S
C1577 C1573 1.385 . S
C1577 C1576 1.374 . S
C1578 C1575 1.499 . S
C1578 C1579 1.373 . S
C1578 C1580 1.389 . S
C1579 H1558 0.950 . S
C1579 C1578 1.373 . S
C1579 C1595 1.377 . S
C1580 C1578 1.389 . S
C1580 C1581 1.524 . S
C1580 C1594 1.377 . S
C1581 C1580 1.524 . S
C1581 C1582 1.397 . S
C1581 C1586 1.363 . S
C1582 H1559 0.950 . S
C1582 C1581 1.397 . S
C1582 C1583 1.334 . S
C1583 H1560 0.950 . S
C1583 C1582 1.334 . S
C1583 C1584 1.287 . S
C1584 C1583 1.287 . S
C1584 C1585 1.524 . S
C1584 H1603 0.913 . S
C1585 H1561 0.950 . S
C1585 C1584 1.524 . S
C1585 C1586 1.415 . S
C1586 H1562 0.950 . S
C1586 C1581 1.363 . S
C1586 C1585 1.415 . S
C1587 H1563 0.951 . S
C1587 C1588 1.366 . S
C1587 C1589 1.388 . S
C1588 C1587 1.366 . S
C1588 C1592 1.385 . S
C1589 H1564 0.951 . S
C1589 C1587 1.388 . S
C1589 C1590 1.366 . S
C1590 C1589 1.366 . S
C1590 C1591 1.414 . S
C1590 C1593 1.499 . S
C1591 H1565 0.950 . S
C1591 C1590 1.414 . S
C1591 C1592 1.374 . S
C1592 H1566 0.950 . S
C1592 C1588 1.385 . S
C1592 C1591 1.374 . S
C1593 C1590 1.499 . S
C1593 C1594 1.373 . S
C1593 C1595 1.389 . S
C1594 H1567 0.950 . S
C1594 C1580 1.377 . S
C1594 C1593 1.373 . S
C1595 C1579 1.377 . S
C1595 C1593 1.389 . S
C1595 C1596 1.524 . S
C1596 C1595 1.524 . S
C1596 C1597 1.397 . S
C1596 C1601 1.363 . S
C1597 H1568 0.950 . S
C1597 C1596 1.397 . S
C1597 C1598 1.334 . S
C1598 H1569 0.950 . S
C1598 C1597 1.334 . S
C1598 C1599 1.287 . S
C1599 C1598 1.287 . S
C1599 C1600 1.524 . S
C1599 H1602 0.999 . S
C1600 H1570 0.950 . S
C1600 C1599 1.524 . S
C1600 C1601 1.415 . S
C1601 H1571 0.950 . S
C1601 C1596 1.363 . S
C1601 C1600 1.415 . S
H1602 C1599 0.999 . S
H1603 C1584 0.913 . S
H1604 C1622 0.951 . S
H1605 C1624 0.951 . S
H1606 C1626 0.950 . S
H1607 C1627 0.950 . S
H1608 C1629 0.950 . S
H1609 C1632 0.950 . S
H1610 C1633 0.950 . S
H1611 C1635 0.950 . S
H1612 C1636 0.950 . S
H1613 C1637 0.951 . S
H1614 C1639 0.951 . S
H1615 C1641 0.950 . S
H1616 C1642 0.950 . S
H1617 C1644 0.950 . S
H1618 C1647 0.950 . S
H1619 C1648 0.950 . S
H1620 C1650 0.950 . S
H1621 C1651 0.950 . S
C1622 H1604 0.951 . S
C1622 C1623 1.366 . S
C1622 C1624 1.388 . S
C1623 C1622 1.366 . S
C1623 C1627 1.385 . S
C1624 H1605 0.951 . S
C1624 C1622 1.388 . S
C1624 C1625 1.366 . S
C1625 C1624 1.366 . S
C1625 C1626 1.414 . S
C1625 C1628 1.499 . S
C1626 H1606 0.950 . S
C1626 C1625 1.414 . S
C1626 C1627 1.374 . S
C1627 H1607 0.950 . S
C1627 C1623 1.385 . S
C1627 C1626 1.374 . S
C1628 C1625 1.499 . S
C1628 C1629 1.373 . S
C1628 C1630 1.389 . S
C1629 H1608 0.950 . S
C1629 C1628 1.373 . S
C1629 C1645 1.377 . S
C1630 C1628 1.389 . S
C1630 C1631 1.524 . S
C1630 C1644 1.377 . S
C1631 C1630 1.524 . S
C1631 C1632 1.397 . S
C1631 C1636 1.363 . S
C1632 H1609 0.950 . S
C1632 C1631 1.397 . S
C1632 C1633 1.334 . S
C1633 H1610 0.950 . S
C1633 C1632 1.334 . S
C1633 C1634 1.287 . S
C1634 C1633 1.287 . S
C1634 C1635 1.524 . S
C1634 H1653 0.913 . S
C1635 H1611 0.950 . S
C1635 C1634 1.524 . S
C1635 C1636 1.415 . S
C1636 H1612 0.950 . S
C1636 C1631 1.363 . S
C1636 C1635 1.415 . S
C1637 H1613 0.951 . S
C1637 C1638 1.366 . S
C1637 C1639 1.388 . S
C1638 C1637 1.366 . S
C1638 C1642 1.385 . S
C1639 H1614 0.951 . S
C1639 C1637 1.388 . S
C1639 C1640 1.366 . S
C1640 C1639 1.366 . S
C1640 C1641 1.414 . S
C1640 C1643 1.499 . S
C1641 H1615 0.950 . S
C1641 C1640 1.414 . S
C1641 C1642 1.374 . S
C1642 H1616 0.950 . S
C1642 C1638 1.385 . S
C1642 C1641 1.374 . S
C1643 C1640 1.499 . S
C1643 C1644 1.373 . S
C1643 C1645 1.389 . S
C1644 H1617 0.950 . S
C1644 C1630 1.377 . S
C1644 C1643 1.373 . S
C1645 C1629 1.377 . S
C1645 C1643 1.389 . S
C1645 C1646 1.524 . S
C1646 C1645 1.524 . S
C1646 C1647 1.397 . S
C1646 C1651 1.363 . S
C1647 H1618 0.950 . S
C1647 C1646 1.397 . S
C1647 C1648 1.334 . S
C1648 H1619 0.950 . S
C1648 C1647 1.334 . S
C1648 C1649 1.287 . S
C1649 C1648 1.287 . S
C1649 C1650 1.524 . S
C1649 H1652 0.999 . S
C1650 H1620 0.950 . S
C1650 C1649 1.524 . S
C1650 C1651 1.415 . S
C1651 H1621 0.950 . S
C1651 C1646 1.363 . S
C1651 C1650 1.415 . S
H1652 C1649 0.999 . S
H1653 C1634 0.913 . S
H1654 C1672 0.951 . S
H1655 C1674 0.951 . S
H1656 C1676 0.950 . S
H1657 C1677 0.950 . S
H1658 C1679 0.950 . S
H1659 C1682 0.950 . S
H1660 C1683 0.950 . S
H1661 C1685 0.950 . S
H1662 C1686 0.950 . S
H1663 C1687 0.951 . S
H1664 C1689 0.951 . S
H1665 C1691 0.950 . S
H1666 C1692 0.950 . S
H1667 C1694 0.950 . S
H1668 C1697 0.950 . S
H1669 C1698 0.950 . S
H1670 C1700 0.950 . S
H1671 C1701 0.950 . S
C1672 H1654 0.951 . S
C1672 C1673 1.366 . S
C1672 C1674 1.388 . S
C1673 C1672 1.366 . S
C1673 C1677 1.385 . S
C1674 H1655 0.951 . S
C1674 C1672 1.388 . S
C1674 C1675 1.366 . S
C1675 C1674 1.366 . S
C1675 C1676 1.414 . S
C1675 C1678 1.499 . S
C1676 H1656 0.950 . S
C1676 C1675 1.414 . S
C1676 C1677 1.374 . S
C1677 H1657 0.950 . S
C1677 C1673 1.385 . S
C1677 C1676 1.374 . S
C1678 C1675 1.499 . S
C1678 C1679 1.373 . S
C1678 C1680 1.389 . S
C1679 H1658 0.950 . S
C1679 C1678 1.373 . S
C1679 C1695 1.377 . S
C1680 C1678 1.389 . S
C1680 C1681 1.524 . S
C1680 C1694 1.377 . S
C1681 C1680 1.524 . S
C1681 C1682 1.397 . S
C1681 C1686 1.363 . S
C1682 H1659 0.950 . S
C1682 C1681 1.397 . S
C1682 C1683 1.334 . S
C1683 H1660 0.950 . S
C1683 C1682 1.334 . S
C1683 C1684 1.287 . S
C1684 C1683 1.287 . S
C1684 C1685 1.524 . S
C1684 H1703 0.913 . S
C1685 H1661 0.950 . S
C1685 C1684 1.524 . S
C1685 C1686 1.415 . S
C1686 H1662 0.950 . S
C1686 C1681 1.363 . S
C1686 C1685 1.415 . S
C1687 H1663 0.951 . S
C1687 C1688 1.366 . S
C1687 C1689 1.388 . S
C1688 C1687 1.366 . S
C1688 C1692 1.385 . S
C1689 H1664 0.951 . S
C1689 C1687 1.388 . S
C1689 C1690 1.366 . S
C1690 C1689 1.366 . S
C1690 C1691 1.414 . S
C1690 C1693 1.499 . S
C1691 H1665 0.950 . S
C1691 C1690 1.414 . S
C1691 C1692 1.374 . S
C1692 H1666 0.950 . S
C1692 C1688 1.385 . S
C1692 C1691 1.374 . S
C1693 C1690 1.499 . S
C1693 C1694 1.373 . S
C1693 C1695 1.389 . S
C1694 H1667 0.950 . S
C1694 C1680 1.377 . S
C1694 C1693 1.373 . S
C1695 C1679 1.377 . S
C1695 C1693 1.389 . S
C1695 C1696 1.524 . S
C1696 C1695 1.524 . S
C1696 C1697 1.397 . S
C1696 C1701 1.363 . S
C1697 H1668 0.950 . S
C1697 C1696 1.397 . S
C1697 C1698 1.334 . S
C1698 H1669 0.950 . S
C1698 C1697 1.334 . S
C1698 C1699 1.287 . S
C1699 C1698 1.287 . S
C1699 C1700 1.524 . S
C1699 H1702 0.999 . S
C1700 H1670 0.950 . S
C1700 C1699 1.524 . S
C1700 C1701 1.415 . S
C1701 H1671 0.950 . S
C1701 C1696 1.363 . S
C1701 C1700 1.415 . S
H1702 C1699 0.999 . S
H1703 C1684 0.913 . S
H1704 C1722 0.951 . S
H1705 C1724 0.951 . S
H1706 C1726 0.950 . S
H1707 C1727 0.950 . S
H1708 C1729 0.950 . S
H1709 C1732 0.950 . S
H1710 C1733 0.950 . S
H1711 C1735 0.950 . S
H1712 C1736 0.950 . S
H1713 C1737 0.951 . S
H1714 C1739 0.951 . S
H1715 C1741 0.950 . S
H1716 C1742 0.950 . S
H1717 C1744 0.950 . S
H1718 C1747 0.950 . S
H1719 C1748 0.950 . S
H1720 C1750 0.950 . S
H1721 C1751 0.950 . S
C1722 H1704 0.951 . S
C1722 C1723 1.366 . S
C1722 C1724 1.388 . S
C1723 C1722 1.366 . S
C1723 C1727 1.385 . S
C1724 H1705 0.951 . S
C1724 C1722 1.388 . S
C1724 C1725 1.366 . S
C1725 C1724 1.366 . S
C1725 C1726 1.414 . S
C1725 C1728 1.499 . S
C1726 H1706 0.950 . S
C1726 C1725 1.414 . S
C1726 C1727 1.374 . S
C1727 H1707 0.950 . S
C1727 C1723 1.385 . S
C1727 C1726 1.374 . S
C1728 C1725 1.499 . S
C1728 C1729 1.373 . S
C1728 C1730 1.389 . S
C1729 H1708 0.950 . S
C1729 C1728 1.373 . S
C1729 C1745 1.377 . S
C1730 C1728 1.389 . S
C1730 C1731 1.524 . S
C1730 C1744 1.377 . S
C1731 C1730 1.524 . S
C1731 C1732 1.397 . S
C1731 C1736 1.363 . S
C1732 H1709 0.950 . S
C1732 C1731 1.397 . S
C1732 C1733 1.334 . S
C1733 H1710 0.950 . S
C1733 C1732 1.334 . S
C1733 C1734 1.287 . S
C1734 C1733 1.287 . S
C1734 C1735 1.524 . S
C1734 H1753 0.913 . S
C1735 H1711 0.950 . S
C1735 C1734 1.524 . S
C1735 C1736 1.415 . S
C1736 H1712 0.950 . S
C1736 C1731 1.363 . S
C1736 C1735 1.415 . S
C1737 H1713 0.951 . S
C1737 C1738 1.366 . S
C1737 C1739 1.388 . S
C1738 C1737 1.366 . S
C1738 C1742 1.385 . S
C1739 H1714 0.951 . S
C1739 C1737 1.388 . S
C1739 C1740 1.366 . S
C1740 C1739 1.366 . S
C1740 C1741 1.414 . S
C1740 C1743 1.499 . S
C1741 H1715 0.950 . S
C1741 C1740 1.414 . S
C1741 C1742 1.374 . S
C1742 H1716 0.950 . S
C1742 C1738 1.385 . S
C1742 C1741 1.374 . S
C1743 C1740 1.499 . S
C1743 C1744 1.373 . S
C1743 C1745 1.389 . S
C1744 H1717 0.950 . S
C1744 C1730 1.377 . S
C1744 C1743 1.373 . S
C1745 C1729 1.377 . S
C1745 C1743 1.389 . S
C1745 C1746 1.524 . S
C1746 C1745 1.524 . S
C1746 C1747 1.397 . S
C1746 C1751 1.363 . S
C1747 H1718 0.950 . S
C1747 C1746 1.397 . S
C1747 C1748 1.334 . S
C1748 H1719 0.950 . S
C1748 C1747 1.334 . S
C1748 C1749 1.287 . S
C1749 C1748 1.287 . S
C1749 C1750 1.524 . S
C1749 H1752 0.999 . S
C1750 H1720 0.950 . S
C1750 C1749 1.524 . S
C1750 C1751 1.415 . S
C1751 H1721 0.950 . S
C1751 C1746 1.363 . S
C1751 C1750 1.415 . S
H1752 C1749 0.999 . S
H1753 C1734 0.913 . S
H1754 C1772 0.951 . S
H1755 C1774 0.951 . S
H1756 C1776 0.950 . S
H1757 C1777 0.950 . S
H1758 C1779 0.950 . S
H1759 C1782 0.950 . S
H1760 C1783 0.950 . S
H1761 C1785 0.950 . S
H1762 C1786 0.950 . S
H1763 C1787 0.951 . S
H1764 C1789 0.951 . S
H1765 C1791 0.950 . S
H1766 C1792 0.950 . S
H1767 C1794 0.950 . S
H1768 C1797 0.950 . S
H1769 C1798 0.950 . S
H1770 C1800 0.950 . S
H1771 C1801 0.950 . S
C1772 H1754 0.951 . S
C1772 C1773 1.366 . S
C1772 C1774 1.388 . S
C1773 C1772 1.366 . S
C1773 C1777 1.385 . S
C1774 H1755 0.951 . S
C1774 C1772 1.388 . S
C1774 C1775 1.366 . S
C1775 C1774 1.366 . S
C1775 C1776 1.414 . S
C1775 C1778 1.499 . S
C1776 H1756 0.950 . S
C1776 C1775 1.414 . S
C1776 C1777 1.374 . S
C1777 H1757 0.950 . S
C1777 C1773 1.385 . S
C1777 C1776 1.374 . S
C1778 C1775 1.499 . S
C1778 C1779 1.373 . S
C1778 C1780 1.389 . S
C1779 H1758 0.950 . S
C1779 C1778 1.373 . S
C1779 C1795 1.377 . S
C1780 C1778 1.389 . S
C1780 C1781 1.524 . S
C1780 C1794 1.377 . S
C1781 C1780 1.524 . S
C1781 C1782 1.397 . S
C1781 C1786 1.363 . S
C1782 H1759 0.950 . S
C1782 C1781 1.397 . S
C1782 C1783 1.334 . S
C1783 H1760 0.950 . S
C1783 C1782 1.334 . S
C1783 C1784 1.287 . S
C1784 C1783 1.287 . S
C1784 C1785 1.524 . S
C1784 H1803 0.913 . S
C1785 H1761 0.950 . S
C1785 C1784 1.524 . S
C1785 C1786 1.415 . S
C1786 H1762 0.950 . S
C1786 C1781 1.363 . S
C1786 C1785 1.415 . S
C1787 H1763 0.951 . S
C1787 C1788 1.366 . S
C1787 C1789 1.388 . S
C1788 C1787 1.366 . S
C1788 C1792 1.385 . S
C1789 H1764 0.951 . S
C1789 C1787 1.388 . S
C1789 C1790 1.366 . S
C1790 C1789 1.366 . S
C1790 C1791 1.414 . S
C1790 C1793 1.499 . S
C1791 H1765 0.950 . S
C1791 C1790 1.414 . S
C1791 C1792 1.374 . S
C1792 H1766 0.950 . S
C1792 C1788 1.385 . S
C1792 C1791 1.374 . S
C1793 C1790 1.499 . S
C1793 C1794 1.373 . S
C1793 C1795 1.389 . S
C1794 H1767 0.950 . S
C1794 C1780 1.377 . S
C1794 C1793 1.373 . S
C1795 C1779 1.377 . S
C1795 C1793 1.389 . S
C1795 C1796 1.524 . S
C1796 C1795 1.524 . S
C1796 C1797 1.397 . S
C1796 C1801 1.363 . S
C1797 H1768 0.950 . S
C1797 C1796 1.397 . S
C1797 C1798 1.334 . S
C1798 H1769 0.950 . S
C1798 C1797 1.334 . S
C1798 C1799 1.287 . S
C1799 C1798 1.287 . S
C1799 C1800 1.524 . S
C1799 H1802 0.999 . S
C1800 H1770 0.950 . S
C1800 C1799 1.524 . S
C1800 C1801 1.415 . S
C1801 H1771 0.950 . S
C1801 C1796 1.363 . S
C1801 C1800 1.415 . S
H1802 C1799 0.999 . S
H1803 C1784 0.913 . S
H1804 C1822 0.951 . S
H1805 C1824 0.951 . S
H1806 C1826 0.950 . S
H1807 C1827 0.950 . S
H1808 C1829 0.950 . S
H1809 C1832 0.950 . S
H1810 C1833 0.950 . S
H1811 C1835 0.950 . S
H1812 C1836 0.950 . S
H1813 C1837 0.951 . S
H1814 C1839 0.951 . S
H1815 C1841 0.950 . S
H1816 C1842 0.950 . S
H1817 C1844 0.950 . S
H1818 C1847 0.950 . S
H1819 C1848 0.950 . S
H1820 C1850 0.950 . S
H1821 C1851 0.950 . S
C1822 H1804 0.951 . S
C1822 C1823 1.366 . S
C1822 C1824 1.388 . S
C1823 C1822 1.366 . S
C1823 C1827 1.385 . S
C1824 H1805 0.951 . S
C1824 C1822 1.388 . S
C1824 C1825 1.366 . S
C1825 C1824 1.366 . S
C1825 C1826 1.414 . S
C1825 C1828 1.499 . S
C1826 H1806 0.950 . S
C1826 C1825 1.414 . S
C1826 C1827 1.374 . S
C1827 H1807 0.950 . S
C1827 C1823 1.385 . S
C1827 C1826 1.374 . S
C1828 C1825 1.499 . S
C1828 C1829 1.373 . S
C1828 C1830 1.389 . S
C1829 H1808 0.950 . S
C1829 C1828 1.373 . S
C1829 C1845 1.377 . S
C1830 C1828 1.389 . S
C1830 C1831 1.524 . S
C1830 C1844 1.377 . S
C1831 C1830 1.524 . S
C1831 C1832 1.397 . S
C1831 C1836 1.363 . S
C1832 H1809 0.950 . S
C1832 C1831 1.397 . S
C1832 C1833 1.334 . S
C1833 H1810 0.950 . S
C1833 C1832 1.334 . S
C1833 C1834 1.287 . S
C1834 C1833 1.287 . S
C1834 C1835 1.524 . S
C1834 H1853 0.913 . S
C1835 H1811 0.950 . S
C1835 C1834 1.524 . S
C1835 C1836 1.415 . S
C1836 H1812 0.950 . S
C1836 C1831 1.363 . S
C1836 C1835 1.415 . S
C1837 H1813 0.951 . S
C1837 C1838 1.366 . S
C1837 C1839 1.388 . S
C1838 C1837 1.366 . S
C1838 C1842 1.385 . S
C1839 H1814 0.951 . S
C1839 C1837 1.388 . S
C1839 C1840 1.366 . S
C1840 C1839 1.366 . S
C1840 C1841 1.414 . S
C1840 C1843 1.499 . S
C1841 H1815 0.950 . S
C1841 C1840 1.414 . S
C1841 C1842 1.374 . S
C1842 H1816 0.950 . S
C1842 C1838 1.385 . S
C1842 C1841 1.374 . S
C1843 C1840 1.499 . S
C1843 C1844 1.373 . S
C1843 C1845 1.389 . S
C1844 H1817 0.950 . S
C1844 C1830 1.377 . S
C1844 C1843 1.373 . S
C1845 C1829 1.377 . S
C1845 C1843 1.389 . S
C1845 C1846 1.524 . S
C1846 C1845 1.524 . S
C1846 C1847 1.397 . S
C1846 C1851 1.363 . S
C1847 H1818 0.950 . S
C1847 C1846 1.397 . S
C1847 C1848 1.334 . S
C1848 H1819 0.950 . S
C1848 C1847 1.334 . S
C1848 C1849 1.287 . S
C1849 C1848 1.287 . S
C1849 C1850 1.524 . S
C1849 H1852 0.999 . S
C1850 H1820 0.950 . S
C1850 C1849 1.524 . S
C1850 C1851 1.415 . S
C1851 H1821 0.950 . S
C1851 C1846 1.363 . S
C1851 C1850 1.415 . S
H1852 C1849 0.999 . S
H1853 C1834 0.913 . S
H1854 C1872 0.951 . S
H1855 C1874 0.951 . S
H1856 C1876 0.950 . S
H1857 C1877 0.950 . S
H1858 C1879 0.950 . S
H1859 C1882 0.950 . S
H1860 C1883 0.950 . S
H1861 C1885 0.950 . S
H1862 C1886 0.950 . S
H1863 C1887 0.951 . S
H1864 C1889 0.951 . S
H1865 C1891 0.950 . S
H1866 C1892 0.950 . S
H1867 C1894 0.950 . S
H1868 C1897 0.950 . S
H1869 C1898 0.950 . S
H1870 C1900 0.950 . S
H1871 C1901 0.950 . S
C1872 H1854 0.951 . S
C1872 C1873 1.366 . S
C1872 C1874 1.388 . S
C1873 C1872 1.366 . S
C1873 C1877 1.385 . S
C1874 H1855 0.951 . S
C1874 C1872 1.388 . S
C1874 C1875 1.366 . S
C1875 C1874 1.366 . S
C1875 C1876 1.414 . S
C1875 C1878 1.499 . S
C1876 H1856 0.950 . S
C1876 C1875 1.414 . S
C1876 C1877 1.374 . S
C1877 H1857 0.950 . S
C1877 C1873 1.385 . S
C1877 C1876 1.374 . S
C1878 C1875 1.499 . S
C1878 C1879 1.373 . S
C1878 C1880 1.389 . S
C1879 H1858 0.950 . S
C1879 C1878 1.373 . S
C1879 C1895 1.377 . S
C1880 C1878 1.389 . S
C1880 C1881 1.524 . S
C1880 C1894 1.377 . S
C1881 C1880 1.524 . S
C1881 C1882 1.397 . S
C1881 C1886 1.363 . S
C1882 H1859 0.950 . S
C1882 C1881 1.397 . S
C1882 C1883 1.334 . S
C1883 H1860 0.950 . S
C1883 C1882 1.334 . S
C1883 C1884 1.287 . S
C1884 C1883 1.287 . S
C1884 C1885 1.524 . S
C1884 H1903 0.913 . S
C1885 H1861 0.950 . S
C1885 C1884 1.524 . S
C1885 C1886 1.415 . S
C1886 H1862 0.950 . S
C1886 C1881 1.363 . S
C1886 C1885 1.415 . S
C1887 H1863 0.951 . S
C1887 C1888 1.366 . S
C1887 C1889 1.388 . S
C1888 C1887 1.366 . S
C1888 C1892 1.385 . S
C1889 H1864 0.951 . S
C1889 C1887 1.388 . S
C1889 C1890 1.366 . S
C1890 C1889 1.366 . S
C1890 C1891 1.414 . S
C1890 C1893 1.499 . S
C1891 H1865 0.950 . S
C1891 C1890 1.414 . S
C1891 C1892 1.374 . S
C1892 H1866 0.950 . S
C1892 C1888 1.385 . S
C1892 C1891 1.374 . S
C1893 C1890 1.499 . S
C1893 C1894 1.373 . S
C1893 C1895 1.389 . S
C1894 H1867 0.950 . S
C1894 C1880 1.377 . S
C1894 C1893 1.373 . S
C1895 C1879 1.377 . S
C1895 C1893 1.389 . S
C1895 C1896 1.524 . S
C1896 C1895 1.524 . S
C1896 C1897 1.397 . S
C1896 C1901 1.363 . S
C1897 H1868 0.950 . S
C1897 C1896 1.397 . S
C1897 C1898 1.334 . S
C1898 H1869 0.950 . S
C1898 C1897 1.334 . S
C1898 C1899 1.287 . S
C1899 C1898 1.287 . S
C1899 C1900 1.524 . S
C1899 H1902 0.999 . S
C1900 H1870 0.950 . S
C1900 C1899 1.524 . S
C1900 C1901 1.415 . S
C1901 H1871 0.950 . S
C1901 C1896 1.363 . S
C1901 C1900 1.415 . S
H1902 C1899 0.999 . S
H1903 C1884 0.913 . S
H1904 C1922 0.951 . S
H1905 C1924 0.951 . S
H1906 C1926 0.950 . S
H1907 C1927 0.950 . S
H1908 C1929 0.950 . S
H1909 C1932 0.950 . S
H1910 C1933 0.950 . S
H1911 C1935 0.950 . S
H1912 C1936 0.950 . S
H1913 C1937 0.951 . S
H1914 C1939 0.951 . S
H1915 C1941 0.950 . S
H1916 C1942 0.950 . S
H1917 C1944 0.950 . S
H1918 C1947 0.950 . S
H1919 C1948 0.950 . S
H1920 C1950 0.950 . S
H1921 C1951 0.950 . S
C1922 H1904 0.951 . S
C1922 C1923 1.366 . S
C1922 C1924 1.388 . S
C1923 C1922 1.366 . S
C1923 C1927 1.385 . S
C1924 H1905 0.951 . S
C1924 C1922 1.388 . S
C1924 C1925 1.366 . S
C1925 C1924 1.366 . S
C1925 C1926 1.414 . S
C1925 C1928 1.499 . S
C1926 H1906 0.950 . S
C1926 C1925 1.414 . S
C1926 C1927 1.374 . S
C1927 H1907 0.950 . S
C1927 C1923 1.385 . S
C1927 C1926 1.374 . S
C1928 C1925 1.499 . S
C1928 C1929 1.373 . S
C1928 C1930 1.389 . S
C1929 H1908 0.950 . S
C1929 C1928 1.373 . S
C1929 C1945 1.377 . S
C1930 C1928 1.389 . S
C1930 C1931 1.524 . S
C1930 C1944 1.377 . S
C1931 C1930 1.524 . S
C1931 C1932 1.397 . S
C1931 C1936 1.363 . S
C1932 H1909 0.950 . S
C1932 C1931 1.397 . S
C1932 C1933 1.334 . S
C1933 H1910 0.950 . S
C1933 C1932 1.334 . S
C1933 C1934 1.287 . S
C1934 C1933 1.287 . S
C1934 C1935 1.524 . S
C1934 H1953 0.913 . S
C1935 H1911 0.950 . S
C1935 C1934 1.524 . S
C1935 C1936 1.415 . S
C1936 H1912 0.950 . S
C1936 C1931 1.363 . S
C1936 C1935 1.415 . S
C1937 H1913 0.951 . S
C1937 C1938 1.366 . S
C1937 C1939 1.388 . S
C1938 C1937 1.366 . S
C1938 C1942 1.385 . S
C1939 H1914 0.951 . S
C1939 C1937 1.388 . S
C1939 C1940 1.366 . S
C1940 C1939 1.366 . S
C1940 C1941 1.414 . S
C1940 C1943 1.499 . S
C1941 H1915 0.950 . S
C1941 C1940 1.414 . S
C1941 C1942 1.374 . S
C1942 H1916 0.950 . S
C1942 C1938 1.385 . S
C1942 C1941 1.374 . S
C1943 C1940 1.499 . S
C1943 C1944 1.373 . S
C1943 C1945 1.389 . S
C1944 H1917 0.950 . S
C1944 C1930 1.377 . S
C1944 C1943 1.373 . S
C1945 C1929 1.377 . S
C1945 C1943 1.389 . S
C1945 C1946 1.524 . S
C1946 C1945 1.524 . S
C1946 C1947 1.397 . S
C1946 C1951 1.363 . S
C1947 H1918 0.950 . S
C1947 C1946 1.397 . S
C1947 C1948 1.334 . S
C1948 H1919 0.950 . S
C1948 C1947 1.334 . S
C1948 C1949 1.287 . S
C1949 C1948 1.287 . S
C1949 C1950 1.524 . S
C1949 H1952 0.999 . S
C1950 H1920 0.950 . S
C1950 C1949 1.524 . S
C1950 C1951 1.415 . S
C1951 H1921 0.950 . S
C1951 C1946 1.363 . S
C1951 C1950 1.415 . S
H1952 C1949 0.999 . S
H1953 C1934 0.913 . S
H1954 C1972 0.951 . S
H1955 C1974 0.951 . S
H1956 C1976 0.950 . S
H1957 C1977 0.950 . S
H1958 C1979 0.950 . S
H1959 C1982 0.950 . S
H1960 C1983 0.950 . S
H1961 C1985 0.950 . S
H1962 C1986 0.950 . S
H1963 C1987 0.951 . S
H1964 C1989 0.951 . S
H1965 C1991 0.950 . S
H1966 C1992 0.950 . S
H1967 C1994 0.950 . S
H1968 C1997 0.950 . S
H1969 C1998 0.950 . S
H1970 C2000 0.950 . S
H1971 C2001 0.950 . S
C1972 H1954 0.951 . S
C1972 C1973 1.366 . S
C1972 C1974 1.388 . S
C1973 C1972 1.366 . S
C1973 C1977 1.385 . S
C1974 H1955 0.951 . S
C1974 C1972 1.388 . S
C1974 C1975 1.366 . S
C1975 C1974 1.366 . S
C1975 C1976 1.414 . S
C1975 C1978 1.499 . S
C1976 H1956 0.950 . S
C1976 C1975 1.414 . S
C1976 C1977 1.374 . S
C1977 H1957 0.950 . S
C1977 C1973 1.385 . S
C1977 C1976 1.374 . S
C1978 C1975 1.499 . S
C1978 C1979 1.373 . S
C1978 C1980 1.389 . S
C1979 H1958 0.950 . S
C1979 C1978 1.373 . S
C1979 C1995 1.377 . S
C1980 C1978 1.389 . S
C1980 C1981 1.524 . S
C1980 C1994 1.377 . S
C1981 C1980 1.524 . S
C1981 C1982 1.397 . S
C1981 C1986 1.363 . S
C1982 H1959 0.950 . S
C1982 C1981 1.397 . S
C1982 C1983 1.334 . S
C1983 H1960 0.950 . S
C1983 C1982 1.334 . S
C1983 C1984 1.287 . S
C1984 C1983 1.287 . S
C1984 C1985 1.524 . S
C1984 H2003 0.913 . S
C1985 H1961 0.950 . S
C1985 C1984 1.524 . S
C1985 C1986 1.415 . S
C1986 H1962 0.950 . S
C1986 C1981 1.363 . S
C1986 C1985 1.415 . S
C1987 H1963 0.951 . S
C1987 C1988 1.366 . S
C1987 C1989 1.388 . S
C1988 C1987 1.366 . S
C1988 C1992 1.385 . S
C1989 H1964 0.951 . S
C1989 C1987 1.388 . S
C1989 C1990 1.366 . S
C1990 C1989 1.366 . S
C1990 C1991 1.414 . S
C1990 C1993 1.499 . S
C1991 H1965 0.950 . S
C1991 C1990 1.414 . S
C1991 C1992 1.374 . S
C1992 H1966 0.950 . S
C1992 C1988 1.385 . S
C1992 C1991 1.374 . S
C1993 C1990 1.499 . S
C1993 C1994 1.373 . S
C1993 C1995 1.389 . S
C1994 H1967 0.950 . S
C1994 C1980 1.377 . S
C1994 C1993 1.373 . S
C1995 C1979 1.377 . S
C1995 C1993 1.389 . S
C1995 C1996 1.524 . S
C1996 C1995 1.524 . S
C1996 C1997 1.397 . S
C1996 C2001 1.363 . S
C1997 H1968 0.950 . S
C1997 C1996 1.397 . S
C1997 C1998 1.334 . S
C1998 H1969 0.950 . S
C1998 C1997 1.334 . S
C1998 C1999 1.287 . S
C1999 C1998 1.287 . S
C1999 C2000 1.524 . S
C1999 H2002 0.999 . S
C2000 H1970 0.950 . S
C2000 C1999 1.524 . S
C2000 C2001 1.415 . S
C2001 H1971 0.950 . S
C2001 C1996 1.363 . S
C2001 C2000 1.415 . S
H2002 C1999 0.999 . S
H2003 C1984 0.913 . S
H2004 C2022 0.951 . S
H2005 C2024 0.951 . S
H2006 C2026 0.950 . S
H2007 C2027 0.950 . S
H2008 C2029 0.950 . S
H2009 C2032 0.950 . S
H2010 C2033 0.950 . S
H2011 C2035 0.950 . S
H2012 C2036 0.950 . S
H2013 C2037 0.951 . S
H2014 C2039 0.951 . S
H2015 C2041 0.950 . S
H2016 C2042 0.950 . S
H2017 C2044 0.950 . S
H2018 C2047 0.950 . S
H2019 C2048 0.950 . S
H2020 C2050 0.950 . S
H2021 C2051 0.950 . S
C2022 H2004 0.951 . S
C2022 C2023 1.366 . S
C2022 C2024 1.388 . S
C2023 C2022 1.366 . S
C2023 C2027 1.385 . S
C2024 H2005 0.951 . S
C2024 C2022 1.388 . S
C2024 C2025 1.366 . S
C2025 C2024 1.366 . S
C2025 C2026 1.414 . S
C2025 C2028 1.499 . S
C2026 H2006 0.950 . S
C2026 C2025 1.414 . S
C2026 C2027 1.374 . S
C2027 H2007 0.950 . S
C2027 C2023 1.385 . S
C2027 C2026 1.374 . S
C2028 C2025 1.499 . S
C2028 C2029 1.373 . S
C2028 C2030 1.389 . S
C2029 H2008 0.950 . S
C2029 C2028 1.373 . S
C2029 C2045 1.377 . S
C2030 C2028 1.389 . S
C2030 C2031 1.524 . S
C2030 C2044 1.377 . S
C2031 C2030 1.524 . S
C2031 C2032 1.397 . S
C2031 C2036 1.363 . S
C2032 H2009 0.950 . S
C2032 C2031 1.397 . S
C2032 C2033 1.334 . S
C2033 H2010 0.950 . S
C2033 C2032 1.334 . S
C2033 C2034 1.287 . S
C2034 C2033 1.287 . S
C2034 C2035 1.524 . S
C2034 H2053 0.913 . S
C2035 H2011 0.950 . S
C2035 C2034 1.524 . S
C2035 C2036 1.415 . S
C2036 H2012 0.950 . S
C2036 C2031 1.363 . S
C2036 C2035 1.415 . S
C2037 H2013 0.951 . S
C2037 C2038 1.366 . S
C2037 C2039 1.388 . S
C2038 C2037 1.366 . S
C2038 C2042 1.385 . S
C2039 H2014 0.951 . S
C2039 C2037 1.388 . S
C2039 C2040 1.366 . S
C2040 C2039 1.366 . S
C2040 C2041 1.414 . S
C2040 C2043 1.499 . S
C2041 H2015 0.950 . S
C2041 C2040 1.414 . S
C2041 C2042 1.374 . S
C2042 H2016 0.950 . S
C2042 C2038 1.385 . S
C2042 C2041 1.374 . S
C2043 C2040 1.499 . S
C2043 C2044 1.373 . S
C2043 C2045 1.389 . S
C2044 H2017 0.950 . S
C2044 C2030 1.377 . S
C2044 C2043 1.373 . S
C2045 C2029 1.377 . S
C2045 C2043 1.389 . S
C2045 C2046 1.524 . S
C2046 C2045 1.524 . S
C2046 C2047 1.397 . S
C2046 C2051 1.363 . S
C2047 H2018 0.950 . S
C2047 C2046 1.397 . S
C2047 C2048 1.334 . S
C2048 H2019 0.950 . S
C2048 C2047 1.334 . S
C2048 C2049 1.287 . S
C2049 C2048 1.287 . S
C2049 C2050 1.524 . S
C2049 H2052 0.999 . S
C2050 H2020 0.950 . S
C2050 C2049 1.524 . S
C2050 C2051 1.415 . S
C2051 H2021 0.950 . S
C2051 C2046 1.363 . S
C2051 C2050 1.415 . S
H2052 C2049 0.999 . S
H2053 C2034 0.913 . S
H2054 C2072 0.951 . S
H2055 C2074 0.951 . S
H2056 C2076 0.950 . S
H2057 C2077 0.950 . S
H2058 C2079 0.950 . S
H2059 C2082 0.950 . S
H2060 C2083 0.950 . S
H2061 C2085 0.950 . S
H2062 C2086 0.950 . S
H2063 C2087 0.951 . S
H2064 C2089 0.951 . S
H2065 C2091 0.950 . S
H2066 C2092 0.950 . S
H2067 C2094 0.950 . S
H2068 C2097 0.950 . S
H2069 C2098 0.950 . S
H2070 C2100 0.950 . S
H2071 C2101 0.950 . S
C2072 H2054 0.951 . S
C2072 C2073 1.366 . S
C2072 C2074 1.388 . S
C2073 C2072 1.366 . S
C2073 C2077 1.385 . S
C2074 H2055 0.951 . S
C2074 C2072 1.388 . S
C2074 C2075 1.366 . S
C2075 C2074 1.366 . S
C2075 C2076 1.414 . S
C2075 C2078 1.499 . S
C2076 H2056 0.950 . S
C2076 C2075 1.414 . S
C2076 C2077 1.374 . S
C2077 H2057 0.950 . S
C2077 C2073 1.385 . S
C2077 C2076 1.374 . S
C2078 C2075 1.499 . S
C2078 C2079 1.373 . S
C2078 C2080 1.389 . S
C2079 H2058 0.950 . S
C2079 C2078 1.373 . S
C2079 C2095 1.377 . S
C2080 C2078 1.389 . S
C2080 C2081 1.524 . S
C2080 C2094 1.377 . S
C2081 C2080 1.524 . S
C2081 C2082 1.397 . S
C2081 C2086 1.363 . S
C2082 H2059 0.950 . S
C2082 C2081 1.397 . S
C2082 C2083 1.334 . S
C2083 H2060 0.950 . S
C2083 C2082 1.334 . S
C2083 C2084 1.287 . S
C2084 C2083 1.287 . S
C2084 C2085 1.524 . S
C2084 H2103 0.913 . S
C2085 H2061 0.950 . S
C2085 C2084 1.524 . S
C2085 C2086 1.415 . S
C2086 H2062 0.950 . S
C2086 C2081 1.363 . S
C2086 C2085 1.415 . S
C2087 H2063 0.951 . S
C2087 C2088 1.366 . S
C2087 C2089 1.388 . S
C2088 C2087 1.366 . S
C2088 C2092 1.385 . S
C2089 H2064 0.951 . S
C2089 C2087 1.388 . S
C2089 C2090 1.366 . S
C2090 C2089 1.366 . S
C2090 C2091 1.414 . S
C2090 C2093 1.499 . S
C2091 H2065 0.950 . S
C2091 C2090 1.414 . S
C2091 C2092 1.374 . S
C2092 H2066 0.950 . S
C2092 C2088 1.385 . S
C2092 C2091 1.374 . S
C2093 C2090 1.499 . S
C2093 C2094 1.373 . S
C2093 C2095 1.389 . S
C2094 H2067 0.950 . S
C2094 C2080 1.377 . S
C2094 C2093 1.373 . S
C2095 C2079 1.377 . S
C2095 C2093 1.389 . S
C2095 C2096 1.524 . S
C2096 C2095 1.524 . S
C2096 C2097 1.397 . S
C2096 C2101 1.363 . S
C2097 H2068 0.950 . S
C2097 C2096 1.397 . S
C2097 C2098 1.334 . S
C2098 H2069 0.950 . S
C2098 C2097 1.334 . S
C2098 C2099 1.287 . S
C2099 C2098 1.287 . S
C2099 C2100 1.524 . S
C2099 H2102 0.999 . S
C2100 H2070 0.950 . S
C2100 C2099 1.524 . S
C2100 C2101 1.415 . S
C2101 H2071 0.950 . S
C2101 C2096 1.363 . S
C2101 C2100 1.415 . S
H2102 C2099 0.999 . S
H2103 C2084 0.913 . S
H2104 C2122 0.951 . S
H2105 C2124 0.951 . S
H2106 C2126 0.950 . S
H2107 C2127 0.950 . S
H2108 C2129 0.950 . S
H2109 C2132 0.950 . S
H2110 C2133 0.950 . S
H2111 C2135 0.950 . S
H2112 C2136 0.950 . S
H2113 C2137 0.951 . S
H2114 C2139 0.951 . S
H2115 C2141 0.950 . S
H2116 C2142 0.950 . S
H2117 C2144 0.950 . S
H2118 C2147 0.950 . S
H2119 C2148 0.950 . S
H2120 C2150 0.950 . S
H2121 C2151 0.950 . S
C2122 H2104 0.951 . S
C2122 C2123 1.366 . S
C2122 C2124 1.388 . S
C2123 C2122 1.366 . S
C2123 C2127 1.385 . S
C2124 H2105 0.951 . S
C2124 C2122 1.388 . S
C2124 C2125 1.366 . S
C2125 C2124 1.366 . S
C2125 C2126 1.414 . S
C2125 C2128 1.499 . S
C2126 H2106 0.950 . S
C2126 C2125 1.414 . S
C2126 C2127 1.374 . S
C2127 H2107 0.950 . S
C2127 C2123 1.385 . S
C2127 C2126 1.374 . S
C2128 C2125 1.499 . S
C2128 C2129 1.373 . S
C2128 C2130 1.389 . S
C2129 H2108 0.950 . S
C2129 C2128 1.373 . S
C2129 C2145 1.377 . S
C2130 C2128 1.389 . S
C2130 C2131 1.524 . S
C2130 C2144 1.377 . S
C2131 C2130 1.524 . S
C2131 C2132 1.397 . S
C2131 C2136 1.363 . S
C2132 H2109 0.950 . S
C2132 C2131 1.397 . S
C2132 C2133 1.334 . S
C2133 H2110 0.950 . S
C2133 C2132 1.334 . S
C2133 C2134 1.287 . S
C2134 C2133 1.287 . S
C2134 C2135 1.524 . S
C2134 H2153 0.913 . S
C2135 H2111 0.950 . S
C2135 C2134 1.524 . S
C2135 C2136 1.415 . S
C2136 H2112 0.950 . S
C2136 C2131 1.363 . S
C2136 C2135 1.415 . S
C2137 H2113 0.951 . S
C2137 C2138 1.366 . S
C2137 C2139 1.388 . S
C2138 C2137 1.366 . S
C2138 C2142 1.385 . S
C2139 H2114 0.951 . S
C2139 C2137 1.388 . S
C2139 C2140 1.366 . S
C2140 C2139 1.366 . S
C2140 C2141 1.414 . S
C2140 C2143 1.499 . S
C2141 H2115 0.950 . S
C2141 C2140 1.414 . S
C2141 C2142 1.374 . S
C2142 H2116 0.950 . S
C2142 C2138 1.385 . S
C2142 C2141 1.374 . S
C2143 C2140 1.499 . S
C2143 C2144 1.373 . S
C2143 C2145 1.389 . S
C2144 H2117 0.950 . S
C2144 C2130 1.377 . S
C2144 C2143 1.373 . S
C2145 C2129 1.377 . S
C2145 C2143 1.389 . S
C2145 C2146 1.524 . S
C2146 C2145 1.524 . S
C2146 C2147 1.397 . S
C2146 C2151 1.363 . S
C2147 H2118 0.950 . S
C2147 C2146 1.397 . S
C2147 C2148 1.334 . S
C2148 H2119 0.950 . S
C2148 C2147 1.334 . S
C2148 C2149 1.287 . S
C2149 C2148 1.287 . S
C2149 C2150 1.524 . S
C2149 H2152 0.999 . S
C2150 H2120 0.950 . S
C2150 C2149 1.524 . S
C2150 C2151 1.415 . S
C2151 H2121 0.950 . S
C2151 C2146 1.363 . S
C2151 C2150 1.415 . S
H2152 C2149 0.999 . S
H2153 C2134 0.913 . S
H2154 C2172 0.951 . S
H2155 C2174 0.951 . S
H2156 C2176 0.950 . S
H2157 C2177 0.950 . S
H2158 C2179 0.950 . S
H2159 C2182 0.950 . S
H2160 C2183 0.950 . S
H2161 C2185 0.950 . S
H2162 C2186 0.950 . S
H2163 C2187 0.951 . S
H2164 C2189 0.951 . S
H2165 C2191 0.950 . S
H2166 C2192 0.950 . S
H2167 C2194 0.950 . S
H2168 C2197 0.950 . S
H2169 C2198 0.950 . S
H2170 C2200 0.950 . S
H2171 C2201 0.950 . S
C2172 H2154 0.951 . S
C2172 C2173 1.366 . S
C2172 C2174 1.388 . S
C2173 C2172 1.366 . S
C2173 C2177 1.385 . S
C2174 H2155 0.951 . S
C2174 C2172 1.388 . S
C2174 C2175 1.366 . S
C2175 C2174 1.366 . S
C2175 C2176 1.414 . S
C2175 C2178 1.499 . S
C2176 H2156 0.950 . S
C2176 C2175 1.414 . S
C2176 C2177 1.374 . S
C2177 H2157 0.950 . S
C2177 C2173 1.385 . S
C2177 C2176 1.374 . S
C2178 C2175 1.499 . S
C2178 C2179 1.373 . S
C2178 C2180 1.389 . S
C2179 H2158 0.950 . S
C2179 C2178 1.373 . S
C2179 C2195 1.377 . S
C2180 C2178 1.389 . S
C2180 C2181 1.524 . S
C2180 C2194 1.377 . S
C2181 C2180 1.524 . S
C2181 C2182 1.397 . S
C2181 C2186 1.363 . S
C2182 H2159 0.950 . S
C2182 C2181 1.397 . S
C2182 C2183 1.334 . S
C2183 H2160 0.950 . S
C2183 C2182 1.334 . S
C2183 C2184 1.287 . S
C2184 C2183 1.287 . S
C2184 C2185 1.524 . S
C2184 H2203 0.913 . S
C2185 H2161 0.950 . S
C2185 C2184 1.524 . S
C2185 C2186 1.415 . S
C2186 H2162 0.950 . S
C2186 C2181 1.363 . S
C2186 C2185 1.415 . S
C2187 H2163 0.951 . S
C2187 C2188 1.366 . S
C2187 C2189 1.388 . S
C2188 C2187 1.366 . S
C2188 C2192 1.385 . S
C2189 H2164 0.951 . S
C2189 C2187 1.388 . S
C2189 C2190 1.366 . S
C2190 C2189 1.366 . S
C2190 C2191 1.414 . S
C2190 C2193 1.499 . S
C2191 H2165 0.950 . S
C2191 C2190 1.414 . S
C2191 C2192 1.374 . S
C2192 H2166 0.950 . S
C2192 C2188 1.385 . S
C2192 C2191 1.374 . S
C2193 C2190 1.499 . S
C2193 C2194 1.373 . S
C2193 C2195 1.389 . S
C2194 H2167 0.950 . S
C2194 C2180 1.377 . S
C2194 C2193 1.373 . S
C2195 C2179 1.377 . S
C2195 C2193 1.389 . S
C2195 C2196 1.524 . S
C2196 C2195 1.524 . S
C2196 C2197 1.397 . S
C2196 C2201 1.363 . S
C2197 H2168 0.950 . S
C2197 C2196 1.397 . S
C2197 C2198 1.334 . S
C2198 H2169 0.950 . S
C2198 C2197 1.334 . S
C2198 C2199 1.287 . S
C2199 C2198 1.287 . S
C2199 C2200 1.524 . S
C2199 H2202 0.999 . S
C2200 H2170 0.950 . S
C2200 C2199 1.524 . S
C2200 C2201 1.415 . S
C2201 H2171 0.950 . S
C2201 C2196 1.363 . S
C2201 C2200 1.415 . S
H2202 C2199 0.999 . S
H2203 C2184 0.913 . S
H2204 C2222 0.951 . S
H2205 C2224 0.951 . S
H2206 C2226 0.950 . S
H2207 C2227 0.950 . S
H2208 C2229 0.950 . S
H2209 C2232 0.950 . S
H2210 C2233 0.950 . S
H2211 C2235 0.950 . S
H2212 C2236 0.950 . S
H2213 C2237 0.951 . S
H2214 C2239 0.951 . S
H2215 C2241 0.950 . S
H2216 C2242 0.950 . S
H2217 C2244 0.950 . S
H2218 C2247 0.950 . S
H2219 C2248 0.950 . S
H2220 C2250 0.950 . S
H2221 C2251 0.950 . S
C2222 H2204 0.951 . S
C2222 C2223 1.366 . S
C2222 C2224 1.388 . S
C2223 C2222 1.366 . S
C2223 C2227 1.385 . S
C2224 H2205 0.951 . S
C2224 C2222 1.388 . S
C2224 C2225 1.366 . S
C2225 C2224 1.366 . S
C2225 C2226 1.414 . S
C2225 C2228 1.499 . S
C2226 H2206 0.950 . S
C2226 C2225 1.414 . S
C2226 C2227 1.374 . S
C2227 H2207 0.950 . S
C2227 C2223 1.385 . S
C2227 C2226 1.374 . S
C2228 C2225 1.499 . S
C2228 C2229 1.373 . S
C2228 C2230 1.389 . S
C2229 H2208 0.950 . S
C2229 C2228 1.373 . S
C2229 C2245 1.377 . S
C2230 C2228 1.389 . S
C2230 C2231 1.524 . S
C2230 C2244 1.377 . S
C2231 C2230 1.524 . S
C2231 C2232 1.397 . S
C2231 C2236 1.363 . S
C2232 H2209 0.950 . S
C2232 C2231 1.397 . S
C2232 C2233 1.334 . S
C2233 H2210 0.950 . S
C2233 C2232 1.334 . S
C2233 C2234 1.287 . S
C2234 C2233 1.287 . S
C2234 C2235 1.524 . S
C2234 H2253 0.913 . S
C2235 H2211 0.950 . S
C2235 C2234 1.524 . S
C2235 C2236 1.415 . S
C2236 H2212 0.950 . S
C2236 C2231 1.363 . S
C2236 C2235 1.415 . S
C2237 H2213 0.951 . S
C2237 C2238 1.366 . S
C2237 C2239 1.388 . S
C2238 C2237 1.366 . S
C2238 C2242 1.385 . S
C2239 H2214 0.951 . S
C2239 C2237 1.388 . S
C2239 C2240 1.366 . S
C2240 C2239 1.366 . S
C2240 C2241 1.414 . S
C2240 C2243 1.499 . S
C2241 H2215 0.950 . S
C2241 C2240 1.414 . S
C2241 C2242 1.374 . S
C2242 H2216 0.950 . S
C2242 C2238 1.385 . S
C2242 C2241 1.374 . S
C2243 C2240 1.499 . S
C2243 C2244 1.373 . S
C2243 C2245 1.389 . S
C2244 H2217 0.950 . S
C2244 C2230 1.377 . S
C2244 C2243 1.373 . S
C2245 C2229 1.377 . S
C2245 C2243 1.389 . S
C2245 C2246 1.524 . S
C2246 C2245 1.524 . S
C2246 C2247 1.397 . S
C2246 C2251 1.363 . S
C2247 H2218 0.950 . S
C2247 C2246 1.397 . S
C2247 C2248 1.334 . S
C2248 H2219 0.950 . S
C2248 C2247 1.334 . S
C2248 C2249 1.287 . S
C2249 C2248 1.287 . S
C2249 C2250 1.524 . S
C2249 H2252 0.999 . S
C2250 H2220 0.950 . S
C2250 C2249 1.524 . S
C2250 C2251 1.415 . S
C2251 H2221 0.950 . S
C2251 C2246 1.363 . S
C2251 C2250 1.415 . S
H2252 C2249 0.999 . S
H2253 C2234 0.913 . S
H2254 C2272 0.951 . S
H2255 C2274 0.951 . S
H2256 C2276 0.950 . S
H2257 C2277 0.950 . S
H2258 C2279 0.950 . S
H2259 C2282 0.950 . S
H2260 C2283 0.950 . S
H2261 C2285 0.950 . S
H2262 C2286 0.950 . S
H2263 C2287 0.951 . S
H2264 C2289 0.951 . S
H2265 C2291 0.950 . S
H2266 C2292 0.950 . S
H2267 C2294 0.950 . S
H2268 C2297 0.950 . S
H2269 C2298 0.950 . S
H2270 C2300 0.950 . S
H2271 C2301 0.950 . S
C2272 H2254 0.951 . S
C2272 C2273 1.366 . S
C2272 C2274 1.388 . S
C2273 C2272 1.366 . S
C2273 C2277 1.385 . S
C2274 H2255 0.951 . S
C2274 C2272 1.388 . S
C2274 C2275 1.366 . S
C2275 C2274 1.366 . S
C2275 C2276 1.414 . S
C2275 C2278 1.499 . S
C2276 H2256 0.950 . S
C2276 C2275 1.414 . S
C2276 C2277 1.374 . S
C2277 H2257 0.950 . S
C2277 C2273 1.385 . S
C2277 C2276 1.374 . S
C2278 C2275 1.499 . S
C2278 C2279 1.373 . S
C2278 C2280 1.389 . S
C2279 H2258 0.950 . S
C2279 C2278 1.373 . S
C2279 C2295 1.377 . S
C2280 C2278 1.389 . S
C2280 C2281 1.524 . S
C2280 C2294 1.377 . S
C2281 C2280 1.524 . S
C2281 C2282 1.397 . S
C2281 C2286 1.363 . S
C2282 H2259 0.950 . S
C2282 C2281 1.397 . S
C2282 C2283 1.334 . S
C2283 H2260 0.950 . S
C2283 C2282 1.334 . S
C2283 C2284 1.287 . S
C2284 C2283 1.287 . S
C2284 C2285 1.524 . S
C2284 H2303 0.913 . S
C2285 H2261 0.950 . S
C2285 C2284 1.524 . S
C2285 C2286 1.415 . S
C2286 H2262 0.950 . S
C2286 C2281 1.363 . S
C2286 C2285 1.415 . S
C2287 H2263 0.951 . S
C2287 C2288 1.366 . S
C2287 C2289 1.388 . S
C2288 C2287 1.366 . S
C2288 C2292 1.385 . S
C2289 H2264 0.951 . S
C2289 C2287 1.388 . S
C2289 C2290 1.366 . S
C2290 C2289 1.366 . S
C2290 C2291 1.414 . S
C2290 C2293 1.499 . S
C2291 H2265 0.950 . S
C2291 C2290 1.414 . S
C2291 C2292 1.374 . S
C2292 H2266 0.950 . S
C2292 C2288 1.385 . S
C2292 C2291 1.374 . S
C2293 C2290 1.499 . S
C2293 C2294 1.373 . S
C2293 C2295 1.389 . S
C2294 H2267 0.950 . S
C2294 C2280 1.377 . S
C2294 C2293 1.373 . S
C2295 C2279 1.377 . S
C2295 C2293 1.389 . S
C2295 C2296 1.524 . S
C2296 C2295 1.524 . S
C2296 C2297 1.397 . S
C2296 C2301 1.363 . S
C2297 H2268 0.950 . S
C2297 C2296 1.397 . S
C2297 C2298 1.334 . S
C2298 H2269 0.950 . S
C2298 C2297 1.334 . S
C2298 C2299 1.287 . S
C2299 C2298 1.287 . S
C2299 C2300 1.524 . S
C2299 H2302 0.999 . S
C2300 H2270 0.950 . S
C2300 C2299 1.524 . S
C2300 C2301 1.415 . S
C2301 H2271 0.950 . S
C2301 C2296 1.363 . S
C2301 C2300 1.415 . S
H2302 C2299 0.999 . S
H2303 C2284 0.913 . S
H2304 C2322 0.951 . S
H2305 C2324 0.951 . S
H2306 C2326 0.950 . S
H2307 C2327 0.950 . S
H2308 C2329 0.950 . S
H2309 C2332 0.950 . S
H2310 C2333 0.950 . S
H2311 C2335 0.950 . S
H2312 C2336 0.950 . S
H2313 C2337 0.951 . S
H2314 C2339 0.951 . S
H2315 C2341 0.950 . S
H2316 C2342 0.950 . S
H2317 C2344 0.950 . S
H2318 C2347 0.950 . S
H2319 C2348 0.950 . S
H2320 C2350 0.950 . S
H2321 C2351 0.950 . S
C2322 H2304 0.951 . S
C2322 C2323 1.366 . S
C2322 C2324 1.388 . S
C2323 C2322 1.366 . S
C2323 C2327 1.385 . S
C2324 H2305 0.951 . S
C2324 C2322 1.388 . S
C2324 C2325 1.366 . S
C2325 C2324 1.366 . S
C2325 C2326 1.414 . S
C2325 C2328 1.499 . S
C2326 H2306 0.950 . S
C2326 C2325 1.414 . S
C2326 C2327 1.374 . S
C2327 H2307 0.950 . S
C2327 C2323 1.385 . S
C2327 C2326 1.374 . S
C2328 C2325 1.499 . S
C2328 C2329 1.373 . S
C2328 C2330 1.389 . S
C2329 H2308 0.950 . S
C2329 C2328 1.373 . S
C2329 C2345 1.377 . S
C2330 C2328 1.389 . S
C2330 C2331 1.524 . S
C2330 C2344 1.377 . S
C2331 C2330 1.524 . S
C2331 C2332 1.397 . S
C2331 C2336 1.363 . S
C2332 H2309 0.950 . S
C2332 C2331 1.397 . S
C2332 C2333 1.334 . S
C2333 H2310 0.950 . S
C2333 C2332 1.334 . S
C2333 C2334 1.287 . S
C2334 C2333 1.287 . S
C2334 C2335 1.524 . S
C2334 H2353 0.913 . S
C2335 H2311 0.950 . S
C2335 C2334 1.524 . S
C2335 C2336 1.415 . S
C2336 H2312 0.950 . S
C2336 C2331 1.363 . S
C2336 C2335 1.415 . S
C2337 H2313 0.951 . S
C2337 C2338 1.366 . S
C2337 C2339 1.388 . S
C2338 C2337 1.366 . S
C2338 C2342 1.385 . S
C2339 H2314 0.951 . S
C2339 C2337 1.388 . S
C2339 C2340 1.366 . S
C2340 C2339 1.366 . S
C2340 C2341 1.414 . S
C2340 C2343 1.499 . S
C2341 H2315 0.950 . S
C2341 C2340 1.414 . S
C2341 C2342 1.374 . S
C2342 H2316 0.950 . S
C2342 C2338 1.385 . S
C2342 C2341 1.374 . S
C2343 C2340 1.499 . S
C2343 C2344 1.373 . S
C2343 C2345 1.389 . S
C2344 H2317 0.950 . S
C2344 C2330 1.377 . S
C2344 C2343 1.373 . S
C2345 C2329 1.377 . S
C2345 C2343 1.389 . S
C2345 C2346 1.524 . S
C2346 C2345 1.524 . S
C2346 C2347 1.397 . S
C2346 C2351 1.363 . S
C2347 H2318 0.950 . S
C2347 C2346 1.397 . S
C2347 C2348 1.334 . S
C2348 H2319 0.950 . S
C2348 C2347 1.334 . S
C2348 C2349 1.287 . S
C2349 C2348 1.287 . S
C2349 C2350 1.524 . S
C2349 H2352 0.999 . S
C2350 H2320 0.950 . S
C2350 C2349 1.524 . S
C2350 C2351 1.415 . S
C2351 H2321 0.950 . S
C2351 C2346 1.363 . S
C2351 C2350 1.415 . S
H2352 C2349 0.999 . S
H2353 C2334 0.913 . S
H2354 C2372 0.951 . S
H2355 C2374 0.951 . S
H2356 C2376 0.950 . S
H2357 C2377 0.950 . S
H2358 C2379 0.950 . S
H2359 C2382 0.950 . S
H2360 C2383 0.950 . S
H2361 C2385 0.950 . S
H2362 C2386 0.950 . S
H2363 C2387 0.951 . S
H2364 C2389 0.951 . S
H2365 C2391 0.950 . S
H2366 C2392 0.950 . S
H2367 C2394 0.950 . S
H2368 C2397 0.950 . S
H2369 C2398 0.950 . S
H2370 C2400 0.950 . S
H2371 C2401 0.950 . S
C2372 H2354 0.951 . S
C2372 C2373 1.366 . S
C2372 C2374 1.388 . S
C2373 C2372 1.366 . S
C2373 C2377 1.385 . S
C2374 H2355 0.951 . S
C2374 C2372 1.388 . S
C2374 C2375 1.366 . S
C2375 C2374 1.366 . S
C2375 C2376 1.414 . S
C2375 C2378 1.499 . S
C2376 H2356 0.950 . S
C2376 C2375 1.414 . S
C2376 C2377 1.374 . S
C2377 H2357 0.950 . S
C2377 C2373 1.385 . S
C2377 C2376 1.374 . S
C2378 C2375 1.499 . S
C2378 C2379 1.373 . S
C2378 C2380 1.389 . S
C2379 H2358 0.950 . S
C2379 C2378 1.373 . S
C2379 C2395 1.377 1_565 S
C2380 C2378 1.389 . S
C2380 C2381 1.524 . S
C2380 C2394 1.377 1_565 S
C2381 C2380 1.524 . S
C2381 C2382 1.397 . S
C2381 C2386 1.363 . S
C2382 H2359 0.950 . S
C2382 C2381 1.397 . S
C2382 C2383 1.334 . S
C2383 H2360 0.950 . S
C2383 C2382 1.334 . S
C2383 C2384 1.287 . S
C2384 C2383 1.287 . S
C2384 C2385 1.524 . S
C2384 H2403 0.913 . S
C2385 H2361 0.950 . S
C2385 C2384 1.524 . S
C2385 C2386 1.415 . S
C2386 H2362 0.950 . S
C2386 C2381 1.363 . S
C2386 C2385 1.415 . S
C2387 H2363 0.951 . S
C2387 C2388 1.366 . S
C2387 C2389 1.388 . S
C2388 C2387 1.366 . S
C2388 C2392 1.385 . S
C2389 H2364 0.951 . S
C2389 C2387 1.388 . S
C2389 C2390 1.366 . S
C2390 C2389 1.366 . S
C2390 C2391 1.414 . S
C2390 C2393 1.499 . S
C2391 H2365 0.950 . S
C2391 C2390 1.414 . S
C2391 C2392 1.374 . S
C2392 H2366 0.950 . S
C2392 C2388 1.385 . S
C2392 C2391 1.374 . S
C2393 C2390 1.499 . S
C2393 C2394 1.373 . S
C2393 C2395 1.389 . S
C2394 H2367 0.950 . S
C2394 C2380 1.377 1_545 S
C2394 C2393 1.373 . S
C2395 C2379 1.377 1_545 S
C2395 C2393 1.389 . S
C2395 C2396 1.524 . S
C2396 C2395 1.524 . S
C2396 C2397 1.397 . S
C2396 C2401 1.363 . S
C2397 H2368 0.950 . S
C2397 C2396 1.397 . S
C2397 C2398 1.334 . S
C2398 H2369 0.950 . S
C2398 C2397 1.334 . S
C2398 C2399 1.287 . S
C2399 C2398 1.287 . S
C2399 C2400 1.524 . S
C2399 H2402 0.999 . S
C2400 H2370 0.950 . S
C2400 C2399 1.524 . S
C2400 C2401 1.415 . S
C2401 H2371 0.950 . S
C2401 C2396 1.363 . S
C2401 C2400 1.415 . S
H2402 C2399 0.999 . S
H2403 C2384 0.913 . S
H2404 C2422 0.951 . S
H2405 C2424 0.951 . S
H2406 C2426 0.950 . S
H2407 C2427 0.950 . S
H2408 C2429 0.950 . S
H2409 C2432 0.950 . S
H2410 C2433 0.950 . S
H2411 C2435 0.950 . S
H2412 C2436 0.950 . S
H2413 C2437 0.951 . S
H2414 C2439 0.951 . S
H2415 C2441 0.950 . S
H2416 C2442 0.950 . S
H2417 C2444 0.950 . S
H2418 C2447 0.950 . S
H2419 C2448 0.950 . S
H2420 C2450 0.950 . S
H2421 C2451 0.950 . S
C2422 H2404 0.951 . S
C2422 C2423 1.366 . S
C2422 C2424 1.388 . S
C2423 C2422 1.366 . S
C2423 C2427 1.385 . S
C2424 H2405 0.951 . S
C2424 C2422 1.388 . S
C2424 C2425 1.366 . S
C2425 C2424 1.366 . S
C2425 C2426 1.414 . S
C2425 C2428 1.499 . S
C2426 H2406 0.950 . S
C2426 C2425 1.414 . S
C2426 C2427 1.374 . S
C2427 H2407 0.950 . S
C2427 C2423 1.385 . S
C2427 C2426 1.374 . S
C2428 C2425 1.499 . S
C2428 C2429 1.373 1_655 S
C2428 C2430 1.389 . S
C2429 H2408 0.950 . S
C2429 C2428 1.373 1_455 S
C2429 C2445 1.377 . S
C2430 C2428 1.389 . S
C2430 C2431 1.524 . S
C2430 C2444 1.377 . S
C2431 C2430 1.524 . S
C2431 C2432 1.397 . S
C2431 C2436 1.363 . S
C2432 H2409 0.950 . S
C2432 C2431 1.397 . S
C2432 C2433 1.334 . S
C2433 H2410 0.950 . S
C2433 C2432 1.334 . S
C2433 C2434 1.287 . S
C2434 C2433 1.287 . S
C2434 C2435 1.524 . S
C2434 H2453 0.913 . S
C2435 H2411 0.950 . S
C2435 C2434 1.524 . S
C2435 C2436 1.415 . S
C2436 H2412 0.950 . S
C2436 C2431 1.363 . S
C2436 C2435 1.415 . S
C2437 H2413 0.951 . S
C2437 C2438 1.366 . S
C2437 C2439 1.388 . S
C2438 C2437 1.366 . S
C2438 C2442 1.385 . S
C2439 H2414 0.951 . S
C2439 C2437 1.388 . S
C2439 C2440 1.366 . S
C2440 C2439 1.366 . S
C2440 C2441 1.414 . S
C2440 C2443 1.499 . S
C2441 H2415 0.950 . S
C2441 C2440 1.414 . S
C2441 C2442 1.374 . S
C2442 H2416 0.950 . S
C2442 C2438 1.385 . S
C2442 C2441 1.374 . S
C2443 C2440 1.499 . S
C2443 C2444 1.373 1_455 S
C2443 C2445 1.389 . S
C2444 H2417 0.950 . S
C2444 C2430 1.377 . S
C2444 C2443 1.373 1_655 S
C2445 C2429 1.377 . S
C2445 C2443 1.389 . S
C2445 C2446 1.524 . S
C2446 C2445 1.524 . S
C2446 C2447 1.397 . S
C2446 C2451 1.363 . S
C2447 H2418 0.950 . S
C2447 C2446 1.397 . S
C2447 C2448 1.334 . S
C2448 H2419 0.950 . S
C2448 C2447 1.334 . S
C2448 C2449 1.287 . S
C2449 C2448 1.287 . S
C2449 C2450 1.524 . S
C2449 H2452 0.999 . S
C2450 H2420 0.950 . S
C2450 C2449 1.524 . S
C2450 C2451 1.415 . S
C2451 H2421 0.950 . S
C2451 C2446 1.363 . S
C2451 C2450 1.415 . S
H2452 C2449 0.999 . S
H2453 C2434 0.913 . S
H2454 C2472 0.951 . S
H2455 C2474 0.951 . S
H2456 C2476 0.950 . S
H2457 C2477 0.950 . S
H2458 C2479 0.950 . S
H2459 C2482 0.950 . S
H2460 C2483 0.950 . S
H2461 C2485 0.950 . S
H2462 C2486 0.950 . S
H2463 C2487 0.951 . S
H2464 C2489 0.951 . S
H2465 C2491 0.950 . S
H2466 C2492 0.950 . S
H2467 C2494 0.950 . S
H2468 C2497 0.950 . S
H2469 C2498 0.950 . S
H2470 C2500 0.950 . S
H2471 C2501 0.950 . S
C2472 H2454 0.951 . S
C2472 C2473 1.366 . S
C2472 C2474 1.388 . S
C2473 C2472 1.366 . S
C2473 C2477 1.385 . S
C2474 H2455 0.951 . S
C2474 C2472 1.388 . S
C2474 C2475 1.366 . S
C2475 C2474 1.366 . S
C2475 C2476 1.414 . S
C2475 C2478 1.499 . S
C2476 H2456 0.950 . S
C2476 C2475 1.414 . S
C2476 C2477 1.374 . S
C2477 H2457 0.950 . S
C2477 C2473 1.385 . S
C2477 C2476 1.374 . S
C2478 C2475 1.499 . S
C2478 C2479 1.373 . S
C2478 C2480 1.389 . S
C2479 H2458 0.950 . S
C2479 C2478 1.373 . S
C2479 C2495 1.377 . S
C2480 C2478 1.389 . S
C2480 C2481 1.524 . S
C2480 C2494 1.377 . S
C2481 C2480 1.524 . S
C2481 C2482 1.397 . S
C2481 C2486 1.363 . S
C2482 H2459 0.950 . S
C2482 C2481 1.397 . S
C2482 C2483 1.334 . S
C2483 H2460 0.950 . S
C2483 C2482 1.334 . S
C2483 C2484 1.287 . S
C2484 C2483 1.287 . S
C2484 C2485 1.524 . S
C2484 H2503 0.913 . S
C2485 H2461 0.950 . S
C2485 C2484 1.524 . S
C2485 C2486 1.415 . S
C2486 H2462 0.950 . S
C2486 C2481 1.363 . S
C2486 C2485 1.415 . S
C2487 H2463 0.951 . S
C2487 C2488 1.366 . S
C2487 C2489 1.388 . S
C2488 C2487 1.366 . S
C2488 C2492 1.385 . S
C2489 H2464 0.951 . S
C2489 C2487 1.388 . S
C2489 C2490 1.366 . S
C2490 C2489 1.366 . S
C2490 C2491 1.414 . S
C2490 C2493 1.499 . S
C2491 H2465 0.950 . S
C2491 C2490 1.414 . S
C2491 C2492 1.374 . S
C2492 H2466 0.950 . S
C2492 C2488 1.385 . S
C2492 C2491 1.374 . S
C2493 C2490 1.499 . S
C2493 C2494 1.373 . S
C2493 C2495 1.389 . S
C2494 H2467 0.950 . S
C2494 C2480 1.377 . S
C2494 C2493 1.373 . S
C2495 C2479 1.377 . S
C2495 C2493 1.389 . S
C2495 C2496 1.524 . S
C2496 C2495 1.524 . S
C2496 C2497 1.397 . S
C2496 C2501 1.363 . S
C2497 H2468 0.950 . S
C2497 C2496 1.397 . S
C2497 C2498 1.334 . S
C2498 H2469 0.950 . S
C2498 C2497 1.334 . S
C2498 C2499 1.287 . S
C2499 C2498 1.287 . S
C2499 C2500 1.524 . S
C2499 H2502 0.999 . S
C2500 H2470 0.950 . S
C2500 C2499 1.524 . S
C2500 C2501 1.415 . S
C2501 H2471 0.950 . S
C2501 C2496 1.363 . S
C2501 C2500 1.415 . S
H2502 C2499 0.999 . S
H2503 C2484 0.913 . S
H2504 C2522 0.951 . S
H2505 C2524 0.951 . S
H2506 C2526 0.950 . S
H2507 C2527 0.950 . S
H2508 C2529 0.950 . S
H2509 C2532 0.950 . S
H2510 C2533 0.950 . S
H2511 C2535 0.950 . S
H2512 C2536 0.950 . S
H2513 C2537 0.951 . S
H2514 C2539 0.951 . S
H2515 C2541 0.950 . S
H2516 C2542 0.950 . S
H2517 C2544 0.950 . S
H2518 C2547 0.950 . S
H2519 C2548 0.950 . S
H2520 C2550 0.950 . S
H2521 C2551 0.950 . S
C2522 H2504 0.951 . S
C2522 C2523 1.366 . S
C2522 C2524 1.388 . S
C2523 C2522 1.366 . S
C2523 C2527 1.385 . S
C2524 H2505 0.951 . S
C2524 C2522 1.388 . S
C2524 C2525 1.366 . S
C2525 C2524 1.366 . S
C2525 C2526 1.414 . S
C2525 C2528 1.499 . S
C2526 H2506 0.950 . S
C2526 C2525 1.414 . S
C2526 C2527 1.374 . S
C2527 H2507 0.950 . S
C2527 C2523 1.385 . S
C2527 C2526 1.374 . S
C2528 C2525 1.499 . S
C2528 C2529 1.373 . S
C2528 C2530 1.389 . S
C2529 H2508 0.950 . S
C2529 C2528 1.373 . S
C2529 C2545 1.377 1_545 S
C2530 C2528 1.389 . S
C2530 C2531 1.524 . S
C2530 C2544 1.377 1_545 S
C2531 C2530 1.524 . S
C2531 C2532 1.397 . S
C2531 C2536 1.363 . S
C2532 H2509 0.950 . S
C2532 C2531 1.397 . S
C2532 C2533 1.334 . S
C2533 H2510 0.950 . S
C2533 C2532 1.334 . S
C2533 C2534 1.287 . S
C2534 C2533 1.287 . S
C2534 C2535 1.524 . S
C2534 H2553 0.913 . S
C2535 H2511 0.950 . S
C2535 C2534 1.524 . S
C2535 C2536 1.415 . S
C2536 H2512 0.950 . S
C2536 C2531 1.363 . S
C2536 C2535 1.415 . S
C2537 H2513 0.951 . S
C2537 C2538 1.366 . S
C2537 C2539 1.388 . S
C2538 C2537 1.366 . S
C2538 C2542 1.385 . S
C2539 H2514 0.951 . S
C2539 C2537 1.388 . S
C2539 C2540 1.366 . S
C2540 C2539 1.366 . S
C2540 C2541 1.414 . S
C2540 C2543 1.499 . S
C2541 H2515 0.950 . S
C2541 C2540 1.414 . S
C2541 C2542 1.374 . S
C2542 H2516 0.950 . S
C2542 C2538 1.385 . S
C2542 C2541 1.374 . S
C2543 C2540 1.499 . S
C2543 C2544 1.373 . S
C2543 C2545 1.389 . S
C2544 H2517 0.950 . S
C2544 C2530 1.377 1_565 S
C2544 C2543 1.373 . S
C2545 C2529 1.377 1_565 S
C2545 C2543 1.389 . S
C2545 C2546 1.524 . S
C2546 C2545 1.524 . S
C2546 C2547 1.397 . S
C2546 C2551 1.363 . S
C2547 H2518 0.950 . S
C2547 C2546 1.397 . S
C2547 C2548 1.334 . S
C2548 H2519 0.950 . S
C2548 C2547 1.334 . S
C2548 C2549 1.287 . S
C2549 C2548 1.287 . S
C2549 C2550 1.524 . S
C2549 H2552 0.999 . S
C2550 H2520 0.950 . S
C2550 C2549 1.524 . S
C2550 C2551 1.415 . S
C2551 H2521 0.950 . S
C2551 C2546 1.363 . S
C2551 C2550 1.415 . S
H2552 C2549 0.999 . S
H2553 C2534 0.913 . S
H2554 C2572 0.951 . S
H2555 C2574 0.951 . S
H2556 C2576 0.950 . S
H2557 C2577 0.950 . S
H2558 C2579 0.950 . S
H2559 C2582 0.950 . S
H2560 C2583 0.950 . S
H2561 C2585 0.950 . S
H2562 C2586 0.950 . S
H2563 C2587 0.951 . S
H2564 C2589 0.951 . S
H2565 C2591 0.950 . S
H2566 C2592 0.950 . S
H2567 C2594 0.950 . S
H2568 C2597 0.950 . S
H2569 C2598 0.950 . S
H2570 C2600 0.950 . S
H2571 C2601 0.950 . S
C2572 H2554 0.951 . S
C2572 C2573 1.366 . S
C2572 C2574 1.388 . S
C2573 C2572 1.366 . S
C2573 C2577 1.385 . S
C2574 H2555 0.951 . S
C2574 C2572 1.388 . S
C2574 C2575 1.366 . S
C2575 C2574 1.366 . S
C2575 C2576 1.414 . S
C2575 C2578 1.499 . S
C2576 H2556 0.950 . S
C2576 C2575 1.414 . S
C2576 C2577 1.374 . S
C2577 H2557 0.950 . S
C2577 C2573 1.385 . S
C2577 C2576 1.374 . S
C2578 C2575 1.499 . S
C2578 C2579 1.373 1_655 S
C2578 C2580 1.389 . S
C2579 H2558 0.950 . S
C2579 C2578 1.373 1_455 S
C2579 C2595 1.377 . S
C2580 C2578 1.389 . S
C2580 C2581 1.524 . S
C2580 C2594 1.377 . S
C2581 C2580 1.524 . S
C2581 C2582 1.397 . S
C2581 C2586 1.363 . S
C2582 H2559 0.950 . S
C2582 C2581 1.397 . S
C2582 C2583 1.334 . S
C2583 H2560 0.950 . S
C2583 C2582 1.334 . S
C2583 C2584 1.287 . S
C2584 C2583 1.287 . S
C2584 C2585 1.524 . S
C2584 H2603 0.913 . S
C2585 H2561 0.950 . S
C2585 C2584 1.524 . S
C2585 C2586 1.415 . S
C2586 H2562 0.950 . S
C2586 C2581 1.363 . S
C2586 C2585 1.415 . S
C2587 H2563 0.951 . S
C2587 C2588 1.366 . S
C2587 C2589 1.388 . S
C2588 C2587 1.366 . S
C2588 C2592 1.385 . S
C2589 H2564 0.951 . S
C2589 C2587 1.388 . S
C2589 C2590 1.366 . S
C2590 C2589 1.366 . S
C2590 C2591 1.414 . S
C2590 C2593 1.499 . S
C2591 H2565 0.950 . S
C2591 C2590 1.414 . S
C2591 C2592 1.374 . S
C2592 H2566 0.950 . S
C2592 C2588 1.385 . S
C2592 C2591 1.374 . S
C2593 C2590 1.499 . S
C2593 C2594 1.373 1_455 S
C2593 C2595 1.389 . S
C2594 H2567 0.950 . S
C2594 C2580 1.377 . S
C2594 C2593 1.373 1_655 S
C2595 C2579 1.377 . S
C2595 C2593 1.389 . S
C2595 C2596 1.524 . S
C2596 C2595 1.524 . S
C2596 C2597 1.397 . S
C2596 C2601 1.363 . S
C2597 H2568 0.950 . S
C2597 C2596 1.397 . S
C2597 C2598 1.334 . S
C2598 H2569 0.950 . S
C2598 C2597 1.334 . S
C2598 C2599 1.287 . S
C2599 C2598 1.287 . S
C2599 C2600 1.524 . S
C2599 H2602 0.999 . S
C2600 H2570 0.950 . S
C2600 C2599 1.524 . S
C2600 C2601 1.415 . S
C2601 H2571 0.950 . S
C2601 C2596 1.363 . S
C2601 C2600 1.415 . S
H2602 C2599 0.999 . S
H2603 C2584 0.913 . S
H2604 C2622 0.951 . S
H2605 C2624 0.951 . S
H2606 C2626 0.950 . S
H2607 C2627 0.950 . S
H2608 C2629 0.950 . S
H2609 C2632 0.950 . S
H2610 C2633 0.950 . S
H2611 C2635 0.950 . S
H2612 C2636 0.950 . S
H2613 C2637 0.951 . S
H2614 C2639 0.951 . S
H2615 C2641 0.950 . S
H2616 C2642 0.950 . S
H2617 C2644 0.950 . S
H2618 C2647 0.950 . S
H2619 C2648 0.950 . S
H2620 C2650 0.950 . S
H2621 C2651 0.950 . S
C2622 H2604 0.951 . S
C2622 C2623 1.366 . S
C2622 C2624 1.388 . S
C2623 C2622 1.366 . S
C2623 C2627 1.385 . S
C2624 H2605 0.951 . S
C2624 C2622 1.388 . S
C2624 C2625 1.366 . S
C2625 C2624 1.366 . S
C2625 C2626 1.414 . S
C2625 C2628 1.499 . S
C2626 H2606 0.950 . S
C2626 C2625 1.414 . S
C2626 C2627 1.374 . S
C2627 H2607 0.950 . S
C2627 C2623 1.385 . S
C2627 C2626 1.374 . S
C2628 C2625 1.499 . S
C2628 C2629 1.373 . S
C2628 C2630 1.389 . S
C2629 H2608 0.950 . S
C2629 C2628 1.373 . S
C2629 C2645 1.377 . S
C2630 C2628 1.389 . S
C2630 C2631 1.524 . S
C2630 C2644 1.377 . S
C2631 C2630 1.524 . S
C2631 C2632 1.397 . S
C2631 C2636 1.363 . S
C2632 H2609 0.950 . S
C2632 C2631 1.397 . S
C2632 C2633 1.334 . S
C2633 H2610 0.950 . S
C2633 C2632 1.334 . S
C2633 C2634 1.287 . S
C2634 C2633 1.287 . S
C2634 C2635 1.524 . S
C2634 H2653 0.913 . S
C2635 H2611 0.950 . S
C2635 C2634 1.524 . S
C2635 C2636 1.415 . S
C2636 H2612 0.950 . S
C2636 C2631 1.363 . S
C2636 C2635 1.415 . S
C2637 H2613 0.951 . S
C2637 C2638 1.366 . S
C2637 C2639 1.388 . S
C2638 C2637 1.366 . S
C2638 C2642 1.385 . S
C2639 H2614 0.951 . S
C2639 C2637 1.388 . S
C2639 C2640 1.366 . S
C2640 C2639 1.366 . S
C2640 C2641 1.414 . S
C2640 C2643 1.499 . S
C2641 H2615 0.950 . S
C2641 C2640 1.414 . S
C2641 C2642 1.374 . S
C2642 H2616 0.950 . S
C2642 C2638 1.385 . S
C2642 C2641 1.374 . S
C2643 C2640 1.499 . S
C2643 C2644 1.373 . S
C2643 C2645 1.389 . S
C2644 H2617 0.950 . S
C2644 C2630 1.377 . S
C2644 C2643 1.373 . S
C2645 C2629 1.377 . S
C2645 C2643 1.389 . S
C2645 C2646 1.524 . S
C2646 C2645 1.524 . S
C2646 C2647 1.397 . S
C2646 C2651 1.363 . S
C2647 H2618 0.950 . S
C2647 C2646 1.397 . S
C2647 C2648 1.334 . S
C2648 H2619 0.950 . S
C2648 C2647 1.334 . S
C2648 C2649 1.287 . S
C2649 C2648 1.287 . S
C2649 C2650 1.524 . S
C2649 H2652 0.999 . S
C2650 H2620 0.950 . S
C2650 C2649 1.524 . S
C2650 C2651 1.415 . S
C2651 H2621 0.950 . S
C2651 C2646 1.363 . S
C2651 C2650 1.415 . S
H2652 C2649 0.999 . S
H2653 C2634 0.913 . S
H2654 C2672 0.951 . S
H2655 C2674 0.951 . S
H2656 C2676 0.950 . S
H2657 C2677 0.950 . S
H2658 C2679 0.950 . S
H2659 C2682 0.950 . S
H2660 C2683 0.950 . S
H2661 C2685 0.950 . S
H2662 C2686 0.950 . S
H2663 C2687 0.951 . S
H2664 C2689 0.951 . S
H2665 C2691 0.950 . S
H2666 C2692 0.950 . S
H2667 C2694 0.950 . S
H2668 C2697 0.950 . S
H2669 C2698 0.950 . S
H2670 C2700 0.950 . S
H2671 C2701 0.950 . S
C2672 H2654 0.951 . S
C2672 C2673 1.366 . S
C2672 C2674 1.388 . S
C2673 C2672 1.366 . S
C2673 C2677 1.385 . S
C2674 H2655 0.951 . S
C2674 C2672 1.388 . S
C2674 C2675 1.366 . S
C2675 C2674 1.366 . S
C2675 C2676 1.414 . S
C2675 C2678 1.499 . S
C2676 H2656 0.950 . S
C2676 C2675 1.414 . S
C2676 C2677 1.374 . S
C2677 H2657 0.950 . S
C2677 C2673 1.385 . S
C2677 C2676 1.374 . S
C2678 C2675 1.499 . S
C2678 C2679 1.373 . S
C2678 C2680 1.389 . S
C2679 H2658 0.950 . S
C2679 C2678 1.373 . S
C2679 C2695 1.377 . S
C2680 C2678 1.389 . S
C2680 C2681 1.524 . S
C2680 C2694 1.377 . S
C2681 C2680 1.524 . S
C2681 C2682 1.397 . S
C2681 C2686 1.363 . S
C2682 H2659 0.950 . S
C2682 C2681 1.397 . S
C2682 C2683 1.334 . S
C2683 H2660 0.950 . S
C2683 C2682 1.334 . S
C2683 C2684 1.287 . S
C2684 C2683 1.287 . S
C2684 C2685 1.524 . S
C2684 H2703 0.913 . S
C2685 H2661 0.950 . S
C2685 C2684 1.524 . S
C2685 C2686 1.415 . S
C2686 H2662 0.950 . S
C2686 C2681 1.363 . S
C2686 C2685 1.415 . S
C2687 H2663 0.951 . S
C2687 C2688 1.366 . S
C2687 C2689 1.388 . S
C2688 C2687 1.366 . S
C2688 C2692 1.385 . S
C2689 H2664 0.951 . S
C2689 C2687 1.388 . S
C2689 C2690 1.366 . S
C2690 C2689 1.366 . S
C2690 C2691 1.414 . S
C2690 C2693 1.499 . S
C2691 H2665 0.950 . S
C2691 C2690 1.414 . S
C2691 C2692 1.374 . S
C2692 H2666 0.950 . S
C2692 C2688 1.385 . S
C2692 C2691 1.374 . S
C2693 C2690 1.499 . S
C2693 C2694 1.373 . S
C2693 C2695 1.389 . S
C2694 H2667 0.950 . S
C2694 C2680 1.377 . S
C2694 C2693 1.373 . S
C2695 C2679 1.377 . S
C2695 C2693 1.389 . S
C2695 C2696 1.524 . S
C2696 C2695 1.524 . S
C2696 C2697 1.397 . S
C2696 C2701 1.363 . S
C2697 H2668 0.950 . S
C2697 C2696 1.397 . S
C2697 C2698 1.334 . S
C2698 H2669 0.950 . S
C2698 C2697 1.334 . S
C2698 C2699 1.287 . S
C2699 C2698 1.287 . S
C2699 C2700 1.524 . S
C2699 H2702 0.999 . S
C2700 H2670 0.950 . S
C2700 C2699 1.524 . S
C2700 C2701 1.415 . S
C2701 H2671 0.950 . S
C2701 C2696 1.363 . S
C2701 C2700 1.415 . S
H2702 C2699 0.999 . S
H2703 C2684 0.913 . S
H2704 C2722 0.951 . S
H2705 C2724 0.951 . S
H2706 C2726 0.950 . S
H2707 C2727 0.950 . S
H2708 C2729 0.950 . S
H2709 C2732 0.950 . S
H2710 C2733 0.950 . S
H2711 C2735 0.950 . S
H2712 C2736 0.950 . S
H2713 C2737 0.951 . S
H2714 C2739 0.951 . S
H2715 C2741 0.950 . S
H2716 C2742 0.950 . S
H2717 C2744 0.950 . S
H2718 C2747 0.950 . S
H2719 C2748 0.950 . S
H2720 C2750 0.950 . S
H2721 C2751 0.950 . S
C2722 H2704 0.951 . S
C2722 C2723 1.366 . S
C2722 C2724 1.388 . S
C2723 C2722 1.366 . S
C2723 C2727 1.385 . S
C2724 H2705 0.951 . S
C2724 C2722 1.388 . S
C2724 C2725 1.366 . S
C2725 C2724 1.366 . S
C2725 C2726 1.414 . S
C2725 C2728 1.499 . S
C2726 H2706 0.950 . S
C2726 C2725 1.414 . S
C2726 C2727 1.374 . S
C2727 H2707 0.950 . S
C2727 C2723 1.385 . S
C2727 C2726 1.374 . S
C2728 C2725 1.499 . S
C2728 C2729 1.373 . S
C2728 C2730 1.389 . S
C2729 H2708 0.950 . S
C2729 C2728 1.373 . S
C2729 C2745 1.377 . S
C2730 C2728 1.389 . S
C2730 C2731 1.524 . S
C2730 C2744 1.377 . S
C2731 C2730 1.524 . S
C2731 C2732 1.397 . S
C2731 C2736 1.363 . S
C2732 H2709 0.950 . S
C2732 C2731 1.397 . S
C2732 C2733 1.334 . S
C2733 H2710 0.950 . S
C2733 C2732 1.334 . S
C2733 C2734 1.287 . S
C2734 C2733 1.287 . S
C2734 C2735 1.524 . S
C2734 H2753 0.913 . S
C2735 H2711 0.950 . S
C2735 C2734 1.524 . S
C2735 C2736 1.415 . S
C2736 H2712 0.950 . S
C2736 C2731 1.363 . S
C2736 C2735 1.415 . S
C2737 H2713 0.951 . S
C2737 C2738 1.366 . S
C2737 C2739 1.388 . S
C2738 C2737 1.366 . S
C2738 C2742 1.385 . S
C2739 H2714 0.951 . S
C2739 C2737 1.388 . S
C2739 C2740 1.366 . S
C2740 C2739 1.366 . S
C2740 C2741 1.414 . S
C2740 C2743 1.499 . S
C2741 H2715 0.950 . S
C2741 C2740 1.414 . S
C2741 C2742 1.374 . S
C2742 H2716 0.950 . S
C2742 C2738 1.385 . S
C2742 C2741 1.374 . S
C2743 C2740 1.499 . S
C2743 C2744 1.373 . S
C2743 C2745 1.389 . S
C2744 H2717 0.950 . S
C2744 C2730 1.377 . S
C2744 C2743 1.373 . S
C2745 C2729 1.377 . S
C2745 C2743 1.389 . S
C2745 C2746 1.524 . S
C2746 C2745 1.524 . S
C2746 C2747 1.397 . S
C2746 C2751 1.363 . S
C2747 H2718 0.950 . S
C2747 C2746 1.397 . S
C2747 C2748 1.334 . S
C2748 H2719 0.950 . S
C2748 C2747 1.334 . S
C2748 C2749 1.287 . S
C2749 C2748 1.287 . S
C2749 C2750 1.524 . S
C2749 H2752 0.999 . S
C2750 H2720 0.950 . S
C2750 C2749 1.524 . S
C2750 C2751 1.415 . S
C2751 H2721 0.950 . S
C2751 C2746 1.363 . S
C2751 C2750 1.415 . S
H2752 C2749 0.999 . S
H2753 C2734 0.913 . S
H2754 C2772 0.951 . S
H2755 C2774 0.951 . S
H2756 C2776 0.950 . S
H2757 C2777 0.950 . S
H2758 C2779 0.950 . S
H2759 C2782 0.950 . S
H2760 C2783 0.950 . S
H2761 C2785 0.950 . S
H2762 C2786 0.950 . S
H2763 C2787 0.951 . S
H2764 C2789 0.951 . S
H2765 C2791 0.950 . S
H2766 C2792 0.950 . S
H2767 C2794 0.950 . S
H2768 C2797 0.950 . S
H2769 C2798 0.950 . S
H2770 C2800 0.950 . S
H2771 C2801 0.950 . S
C2772 H2754 0.951 . S
C2772 C2773 1.342 1_554 S
C2772 C2774 1.388 . S
C2773 C2772 1.342 1_556 S
C2773 C2777 1.386 . S
C2774 H2755 0.951 . S
C2774 C2772 1.388 . S
C2774 C2775 1.366 . S
C2775 C2774 1.366 . S
C2775 C2776 1.414 . S
C2775 C2778 1.499 . S
C2776 H2756 0.950 . S
C2776 C2775 1.414 . S
C2776 C2777 1.374 1_554 S
C2777 H2757 0.950 . S
C2777 C2773 1.386 . S
C2777 C2776 1.374 1_556 S
C2778 C2775 1.499 . S
C2778 C2779 1.373 . S
C2778 C2780 1.389 . S
C2779 H2758 0.950 . S
C2779 C2778 1.373 . S
C2779 C2795 1.377 . S
C2780 C2778 1.389 . S
C2780 C2781 1.524 . S
C2780 C2794 1.377 . S
C2781 C2780 1.524 . S
C2781 C2782 1.397 . S
C2781 C2786 1.363 . S
C2782 H2759 0.950 . S
C2782 C2781 1.397 . S
C2782 C2783 1.334 . S
C2783 H2760 0.950 . S
C2783 C2782 1.334 . S
C2783 C2784 1.287 . S
C2784 C2783 1.287 . S
C2784 C2785 1.524 . S
C2784 H2803 0.913 . S
C2785 H2761 0.950 . S
C2785 C2784 1.524 . S
C2785 C2786 1.415 . S
C2786 H2762 0.950 . S
C2786 C2781 1.363 . S
C2786 C2785 1.415 . S
C2787 H2763 0.951 . S
C2787 C2788 1.366 . S
C2787 C2789 1.388 . S
C2788 C2787 1.366 . S
C2788 C2792 1.385 . S
C2789 H2764 0.951 . S
C2789 C2787 1.388 . S
C2789 C2790 1.366 . S
C2790 C2789 1.366 . S
C2790 C2791 1.414 . S
C2790 C2793 1.499 . S
C2791 H2765 0.950 . S
C2791 C2790 1.414 . S
C2791 C2792 1.374 . S
C2792 H2766 0.950 . S
C2792 C2788 1.385 . S
C2792 C2791 1.374 . S
C2793 C2790 1.499 . S
C2793 C2794 1.373 . S
C2793 C2795 1.389 . S
C2794 H2767 0.950 . S
C2794 C2780 1.377 . S
C2794 C2793 1.373 . S
C2795 C2779 1.377 . S
C2795 C2793 1.389 . S
C2795 C2796 1.524 . S
C2796 C2795 1.524 . S
C2796 C2797 1.397 . S
C2796 C2801 1.363 . S
C2797 H2768 0.950 . S
C2797 C2796 1.397 . S
C2797 C2798 1.334 . S
C2798 H2769 0.950 . S
C2798 C2797 1.334 . S
C2798 C2799 1.287 . S
C2799 C2798 1.287 . S
C2799 C2800 1.524 . S
C2799 H2802 0.999 . S
C2800 H2770 0.950 . S
C2800 C2799 1.524 . S
C2800 C2801 1.415 . S
C2801 H2771 0.950 . S
C2801 C2796 1.363 . S
C2801 C2800 1.415 . S
H2802 C2799 0.999 . S
H2803 C2784 0.913 . S
H2804 C2822 0.951 . S
H2805 C2824 0.951 . S
H2806 C2826 0.950 . S
H2807 C2827 0.950 1_556 S
H2808 C2829 0.950 . S
H2809 C2832 0.950 . S
H2810 C2833 0.950 . S
H2811 C2835 0.950 . S
H2812 C2836 0.950 . S
H2813 C2837 0.951 . S
H2814 C2839 0.951 . S
H2815 C2841 0.950 . S
H2816 C2842 0.950 . S
H2817 C2844 0.950 . S
H2818 C2847 0.950 . S
H2819 C2848 0.950 . S
H2820 C2850 0.950 . S
H2821 C2851 0.950 . S
C2822 H2804 0.951 . S
C2822 C2823 1.347 1_554 S
C2822 C2824 1.388 . S
C2823 C2822 1.347 1_556 S
C2823 C2827 1.378 1_556 S
C2824 H2805 0.951 . S
C2824 C2822 1.388 . S
C2824 C2825 1.366 . S
C2825 C2824 1.366 . S
C2825 C2826 1.414 . S
C2825 C2828 1.499 . S
C2826 H2806 0.950 . S
C2826 C2825 1.414 . S
C2826 C2827 1.374 . S
C2827 H2807 0.950 1_554 S
C2827 C2823 1.378 1_554 S
C2827 C2826 1.374 . S
C2828 C2825 1.499 . S
C2828 C2829 1.373 . S
C2828 C2830 1.389 . S
C2829 H2808 0.950 . S
C2829 C2828 1.373 . S
C2829 C2845 1.377 . S
C2830 C2828 1.389 . S
C2830 C2831 1.524 . S
C2830 C2844 1.377 . S
C2831 C2830 1.524 . S
C2831 C2832 1.397 . S
C2831 C2836 1.363 . S
C2832 H2809 0.950 . S
C2832 C2831 1.397 . S
C2832 C2833 1.334 . S
C2833 H2810 0.950 . S
C2833 C2832 1.334 . S
C2833 C2834 1.287 . S
C2834 C2833 1.287 . S
C2834 C2835 1.524 . S
C2834 H2853 0.913 . S
C2835 H2811 0.950 . S
C2835 C2834 1.524 . S
C2835 C2836 1.415 . S
C2836 H2812 0.950 . S
C2836 C2831 1.363 . S
C2836 C2835 1.415 . S
C2837 H2813 0.951 . S
C2837 C2838 1.366 . S
C2837 C2839 1.388 . S
C2838 C2837 1.366 . S
C2838 C2842 1.385 . S
C2839 H2814 0.951 . S
C2839 C2837 1.388 . S
C2839 C2840 1.366 . S
C2840 C2839 1.366 . S
C2840 C2841 1.414 . S
C2840 C2843 1.499 . S
C2841 H2815 0.950 . S
C2841 C2840 1.414 . S
C2841 C2842 1.374 . S
C2842 H2816 0.950 . S
C2842 C2838 1.385 . S
C2842 C2841 1.374 . S
C2843 C2840 1.499 . S
C2843 C2844 1.373 . S
C2843 C2845 1.389 . S
C2844 H2817 0.950 . S
C2844 C2830 1.377 . S
C2844 C2843 1.373 . S
C2845 C2829 1.377 . S
C2845 C2843 1.389 . S
C2845 C2846 1.524 . S
C2846 C2845 1.524 . S
C2846 C2847 1.397 . S
C2846 C2851 1.363 . S
C2847 H2818 0.950 . S
C2847 C2846 1.397 . S
C2847 C2848 1.334 . S
C2848 H2819 0.950 . S
C2848 C2847 1.334 . S
C2848 C2849 1.287 . S
C2849 C2848 1.287 . S
C2849 C2850 1.524 . S
C2849 H2852 0.999 . S
C2850 H2820 0.950 . S
C2850 C2849 1.524 . S
C2850 C2851 1.415 . S
C2851 H2821 0.950 . S
C2851 C2846 1.363 . S
C2851 C2850 1.415 . S
H2852 C2849 0.999 . S
H2853 C2834 0.913 . S
H2854 C2872 0.951 . S
H2855 C2874 0.951 . S
H2856 C2876 0.950 . S
H2857 C2877 0.950 1_556 S
H2858 C2879 0.950 . S
H2859 C2882 0.950 . S
H2860 C2883 0.950 . S
H2861 C2885 0.950 . S
H2862 C2886 0.950 . S
H2863 C2887 0.951 . S
H2864 C2889 0.951 . S
H2865 C2891 0.950 . S
H2866 C2892 0.950 . S
H2867 C2894 0.950 . S
H2868 C2897 0.950 . S
H2869 C2898 0.950 . S
H2870 C2900 0.950 . S
H2871 C2901 0.950 . S
C2872 H2854 0.951 . S
C2872 C2873 1.343 1_554 S
C2872 C2874 1.388 . S
C2873 C2872 1.343 1_556 S
C2873 C2877 1.382 1_556 S
C2874 H2855 0.951 . S
C2874 C2872 1.388 . S
C2874 C2875 1.366 . S
C2875 C2874 1.366 . S
C2875 C2876 1.414 . S
C2875 C2878 1.499 . S
C2876 H2856 0.950 . S
C2876 C2875 1.414 . S
C2876 C2877 1.374 . S
C2877 H2857 0.950 1_554 S
C2877 C2873 1.382 1_554 S
C2877 C2876 1.374 . S
C2878 C2875 1.499 . S
C2878 C2879 1.373 . S
C2878 C2880 1.389 . S
C2879 H2858 0.950 . S
C2879 C2878 1.373 . S
C2879 C2895 1.377 . S
C2880 C2878 1.389 . S
C2880 C2881 1.524 . S
C2880 C2894 1.377 . S
C2881 C2880 1.524 . S
C2881 C2882 1.397 . S
C2881 C2886 1.363 . S
C2882 H2859 0.950 . S
C2882 C2881 1.397 . S
C2882 C2883 1.334 . S
C2883 H2860 0.950 . S
C2883 C2882 1.334 . S
C2883 C2884 1.287 . S
C2884 C2883 1.287 . S
C2884 C2885 1.524 . S
C2884 H2903 0.913 . S
C2885 H2861 0.950 . S
C2885 C2884 1.524 . S
C2885 C2886 1.415 . S
C2886 H2862 0.950 . S
C2886 C2881 1.363 . S
C2886 C2885 1.415 . S
C2887 H2863 0.951 . S
C2887 C2888 1.366 . S
C2887 C2889 1.388 . S
C2888 C2887 1.366 . S
C2888 C2892 1.385 . S
C2889 H2864 0.951 . S
C2889 C2887 1.388 . S
C2889 C2890 1.366 . S
C2890 C2889 1.366 . S
C2890 C2891 1.414 . S
C2890 C2893 1.499 . S
C2891 H2865 0.950 . S
C2891 C2890 1.414 . S
C2891 C2892 1.374 . S
C2892 H2866 0.950 . S
C2892 C2888 1.385 . S
C2892 C2891 1.374 . S
C2893 C2890 1.499 . S
C2893 C2894 1.373 . S
C2893 C2895 1.389 . S
C2894 H2867 0.950 . S
C2894 C2880 1.377 . S
C2894 C2893 1.373 . S
C2895 C2879 1.377 . S
C2895 C2893 1.389 . S
C2895 C2896 1.524 . S
C2896 C2895 1.524 . S
C2896 C2897 1.397 . S
C2896 C2901 1.363 . S
C2897 H2868 0.950 . S
C2897 C2896 1.397 . S
C2897 C2898 1.334 . S
C2898 H2869 0.950 . S
C2898 C2897 1.334 . S
C2898 C2899 1.287 . S
C2899 C2898 1.287 . S
C2899 C2900 1.524 . S
C2899 H2902 0.999 . S
C2900 H2870 0.950 . S
C2900 C2899 1.524 . S
C2900 C2901 1.415 . S
C2901 H2871 0.950 . S
C2901 C2896 1.363 . S
C2901 C2900 1.415 . S
H2902 C2899 0.999 . S
H2903 C2884 0.913 . S
H2904 C2922 0.987 . S
H2905 C2924 0.951 . S
H2906 C2926 0.950 . S
H2907 C2927 0.950 . S
H2908 C2929 0.950 . S
H2909 C2932 0.950 . S
H2910 C2933 0.950 1_554 S
H2911 C2935 0.950 1_554 S
H2912 C2936 0.950 . S
H2913 C2937 0.951 . S
H2914 C2939 0.951 . S
H2915 C2941 0.950 . S
H2916 C2942 0.950 . S
H2917 C2944 0.950 . S
H2918 C2947 0.950 . S
H2919 C2948 0.950 . S
H2920 C2950 0.950 . S
H2921 C2951 0.950 . S
C2922 H2904 0.987 . S
C2922 C2923 1.366 . S
C2922 C2924 1.354 1_554 S
C2923 C2922 1.366 . S
C2923 C2927 1.361 1_554 S
C2924 H2905 0.951 . S
C2924 C2922 1.354 1_556 S
C2924 C2925 1.366 . S
C2925 C2924 1.366 . S
C2925 C2926 1.414 . S
C2925 C2928 1.499 . S
C2926 H2906 0.950 . S
C2926 C2925 1.414 . S
C2926 C2927 1.374 . S
C2927 H2907 0.950 . S
C2927 C2923 1.361 1_556 S
C2927 C2926 1.374 . S
C2928 C2925 1.499 . S
C2928 C2929 1.373 . S
C2928 C2930 1.389 . S
C2929 H2908 0.950 . S
C2929 C2928 1.373 . S
C2929 C2945 1.377 . S
C2930 C2928 1.389 . S
C2930 C2931 1.524 . S
C2930 C2944 1.377 . S
C2931 C2930 1.524 . S
C2931 C2932 1.397 . S
C2931 C2936 1.363 . S
C2932 H2909 0.950 . S
C2932 C2931 1.397 . S
C2932 C2933 1.334 . S
C2933 H2910 0.950 1_556 S
C2933 C2932 1.334 . S
C2933 C2934 1.287 1_556 S
C2934 C2933 1.287 1_554 S
C2934 C2935 1.524 1_554 S
C2934 H2953 0.913 . S
C2935 H2911 0.950 1_556 S
C2935 C2934 1.524 1_556 S
C2935 C2936 1.415 . S
C2936 H2912 0.950 . S
C2936 C2931 1.363 . S
C2936 C2935 1.415 . S
C2937 H2913 0.951 . S
C2937 C2938 1.366 . S
C2937 C2939 1.388 . S
C2938 C2937 1.366 . S
C2938 C2942 1.385 . S
C2939 H2914 0.951 . S
C2939 C2937 1.388 . S
C2939 C2940 1.366 . S
C2940 C2939 1.366 . S
C2940 C2941 1.414 . S
C2940 C2943 1.499 . S
C2941 H2915 0.950 . S
C2941 C2940 1.414 . S
C2941 C2942 1.374 . S
C2942 H2916 0.950 . S
C2942 C2938 1.385 . S
C2942 C2941 1.374 . S
C2943 C2940 1.499 . S
C2943 C2944 1.373 . S
C2943 C2945 1.389 . S
C2944 H2917 0.950 . S
C2944 C2930 1.377 . S
C2944 C2943 1.373 . S
C2945 C2929 1.377 . S
C2945 C2943 1.389 . S
C2945 C2946 1.524 . S
C2946 C2945 1.524 . S
C2946 C2947 1.397 . S
C2946 C2951 1.363 . S
C2947 H2918 0.950 . S
C2947 C2946 1.397 . S
C2947 C2948 1.334 . S
C2948 H2919 0.950 . S
C2948 C2947 1.334 . S
C2948 C2949 1.287 . S
C2949 C2948 1.287 . S
C2949 C2950 1.524 . S
C2949 H2952 0.999 . S
C2950 H2920 0.950 . S
C2950 C2949 1.524 . S
C2950 C2951 1.415 . S
C2951 H2921 0.950 . S
C2951 C2946 1.363 . S
C2951 C2950 1.415 . S
H2952 C2949 0.999 . S
H2953 C2934 0.913 . S
H2954 C2972 0.951 . S
H2955 C2974 0.951 . S
H2956 C2976 0.950 . S
H2957 C2977 0.950 . S
H2958 C2979 0.950 . S
H2959 C2982 0.950 . S
H2960 C2983 0.950 . S
H2961 C2985 0.950 . S
H2962 C2986 0.950 . S
H2963 C2987 0.951 . S
H2964 C2989 0.951 . S
H2965 C2991 0.950 . S
H2966 C2992 0.950 . S
H2967 C2994 0.950 . S
H2968 C2997 0.950 . S
H2969 C2998 0.950 . S
H2970 C3000 0.950 . S
H2971 C3001 0.950 . S
C2972 H2954 0.951 . S
C2972 C2973 1.366 . S
C2972 C2974 1.388 . S
C2973 C2972 1.366 . S
C2973 C2977 1.385 . S
C2974 H2955 0.951 . S
C2974 C2972 1.388 . S
C2974 C2975 1.366 . S
C2975 C2974 1.366 . S
C2975 C2976 1.414 . S
C2975 C2978 1.499 . S
C2976 H2956 0.950 . S
C2976 C2975 1.414 . S
C2976 C2977 1.374 . S
C2977 H2957 0.950 . S
C2977 C2973 1.385 . S
C2977 C2976 1.374 . S
C2978 C2975 1.499 . S
C2978 C2979 1.373 . S
C2978 C2980 1.389 . S
C2979 H2958 0.950 . S
C2979 C2978 1.373 . S
C2979 C2995 1.377 . S
C2980 C2978 1.389 . S
C2980 C2981 1.524 . S
C2980 C2994 1.377 . S
C2981 C2980 1.524 . S
C2981 C2982 1.397 . S
C2981 C2986 1.363 . S
C2982 H2959 0.950 . S
C2982 C2981 1.397 . S
C2982 C2983 1.334 . S
C2983 H2960 0.950 . S
C2983 C2982 1.334 . S
C2983 C2984 1.287 . S
C2984 C2983 1.287 . S
C2984 C2985 1.524 . S
C2984 H3003 0.913 . S
C2985 H2961 0.950 . S
C2985 C2984 1.524 . S
C2985 C2986 1.415 . S
C2986 H2962 0.950 . S
C2986 C2981 1.363 . S
C2986 C2985 1.415 . S
C2987 H2963 0.951 . S
C2987 C2988 1.337 1_556 S
C2987 C2989 1.388 . S
C2988 C2987 1.337 1_554 S
C2988 C2992 1.389 . S
C2989 H2964 0.951 . S
C2989 C2987 1.388 . S
C2989 C2990 1.366 . S
C2990 C2989 1.366 . S
C2990 C2991 1.414 . S
C2990 C2993 1.499 . S
C2991 H2965 0.950 . S
C2991 C2990 1.414 . S
C2991 C2992 1.374 1_556 S
C2992 H2966 0.950 . S
C2992 C2988 1.389 . S
C2992 C2991 1.374 1_554 S
C2993 C2990 1.499 . S
C2993 C2994 1.373 . S
C2993 C2995 1.389 . S
C2994 H2967 0.950 . S
C2994 C2980 1.377 . S
C2994 C2993 1.373 . S
C2995 C2979 1.377 . S
C2995 C2993 1.389 . S
C2995 C2996 1.524 . S
C2996 C2995 1.524 . S
C2996 C2997 1.397 . S
C2996 C3001 1.363 . S
C2997 H2968 0.950 . S
C2997 C2996 1.397 . S
C2997 C2998 1.334 . S
C2998 H2969 0.950 . S
C2998 C2997 1.334 . S
C2998 C2999 1.287 . S
C2999 C2998 1.287 . S
C2999 C3000 1.524 . S
C2999 H3002 0.999 . S
C3000 H2970 0.950 . S
C3000 C2999 1.524 . S
C3000 C3001 1.415 . S
C3001 H2971 0.950 . S
C3001 C2996 1.363 . S
C3001 C3000 1.415 . S
H3002 C2999 0.999 . S
H3003 C2984 0.913 . S
H3004 C3022 0.951 1_554 S
H3005 C3024 0.951 . S
H3006 C3026 0.950 . S
H3007 C3027 0.950 . S
H3008 C3029 0.950 . S
H3009 C3032 0.950 . S
H3010 C3033 0.950 . S
H3011 C3035 0.936 1_554 S
H3012 C3036 0.950 . S
H3013 C3037 0.951 . S
H3014 C3039 0.951 . S
H3015 C3041 0.950 . S
H3016 C3042 0.950 . S
H3017 C3044 0.950 . S
H3018 C3047 0.950 . S
H3019 C3048 0.950 . S
H3020 C3050 0.950 . S
H3021 C3051 0.950 . S
C3022 H3004 0.951 1_556 S
C3022 C3023 1.364 1_556 S
C3022 C3024 1.388 . S
C3023 C3022 1.364 1_554 S
C3023 C3027 1.364 1_554 S
C3024 H3005 0.951 . S
C3024 C3022 1.388 . S
C3024 C3025 1.366 . S
C3025 C3024 1.366 . S
C3025 C3026 1.414 . S
C3025 C3028 1.499 . S
C3026 H3006 0.950 . S
C3026 C3025 1.414 . S
C3026 C3027 1.374 . S
C3027 H3007 0.950 . S
C3027 C3023 1.364 1_556 S
C3027 C3026 1.374 . S
C3028 C3025 1.499 . S
C3028 C3029 1.373 . S
C3028 C3030 1.389 . S
C3029 H3008 0.950 . S
C3029 C3028 1.373 . S
C3029 C3045 1.377 . S
C3030 C3028 1.389 . S
C3030 C3031 1.524 . S
C3030 C3044 1.377 . S
C3031 C3030 1.524 . S
C3031 C3032 1.397 . S
C3031 C3036 1.363 . S
C3032 H3009 0.950 . S
C3032 C3031 1.397 . S
C3032 C3033 1.334 1_556 S
C3033 H3010 0.950 . S
C3033 C3032 1.334 1_554 S
C3033 C3034 1.287 . S
C3034 C3033 1.287 . S
C3034 C3035 1.524 1_554 S
C3034 H3053 0.913 . S
C3035 H3011 0.936 1_556 S
C3035 C3034 1.524 1_556 S
C3035 C3036 1.415 . S
C3036 H3012 0.950 . S
C3036 C3031 1.363 . S
C3036 C3035 1.415 . S
C3037 H3013 0.951 . S
C3037 C3038 1.366 . S
C3037 C3039 1.388 . S
C3038 C3037 1.366 . S
C3038 C3042 1.385 . S
C3039 H3014 0.951 . S
C3039 C3037 1.388 . S
C3039 C3040 1.366 . S
C3040 C3039 1.366 . S
C3040 C3041 1.414 . S
C3040 C3043 1.499 . S
C3041 H3015 0.950 . S
C3041 C3040 1.414 . S
C3041 C3042 1.374 . S
C3042 H3016 0.950 . S
C3042 C3038 1.385 . S
C3042 C3041 1.374 . S
C3043 C3040 1.499 . S
C3043 C3044 1.373 . S
C3043 C3045 1.389 . S
C3044 H3017 0.950 . S
C3044 C3030 1.377 . S
C3044 C3043 1.373 . S
C3045 C3029 1.377 . S
C3045 C3043 1.389 . S
C3045 C3046 1.524 . S
C3046 C3045 1.524 . S
C3046 C3047 1.397 . S
C3046 C3051 1.363 . S
C3047 H3018 0.950 . S
C3047 C3046 1.397 . S
C3047 C3048 1.334 . S
C3048 H3019 0.950 . S
C3048 C3047 1.334 . S
C3048 C3049 1.287 . S
C3049 C3048 1.287 . S
C3049 C3050 1.524 . S
C3049 H3052 0.999 . S
C3050 H3020 0.950 . S
C3050 C3049 1.524 . S
C3050 C3051 1.415 . S
C3051 H3021 0.950 . S
C3051 C3046 1.363 . S
C3051 C3050 1.415 . S
H3052 C3049 0.999 . S
H3053 C3034 0.913 . S
H3054 C3072 0.951 . S
H3055 C3074 0.951 . S
H3056 C3076 0.950 . S
H3057 C3077 0.950 . S
H3058 C3079 0.950 . S
H3059 C3082 0.950 . S
H3060 C3083 0.950 . S
H3061 C3085 0.950 . S
H3062 C3086 0.950 . S
H3063 C3087 0.951 . S
H3064 C3089 0.951 . S
H3065 C3091 0.950 . S
H3066 C3092 0.950 . S
H3067 C3094 0.950 . S
H3068 C3097 0.950 . S
H3069 C3098 0.950 . S
H3070 C3100 0.950 . S
H3071 C3101 0.950 . S
C3072 H3054 0.951 . S
C3072 C3073 1.366 . S
C3072 C3074 1.388 . S
C3073 C3072 1.366 . S
C3073 C3077 1.385 . S
C3074 H3055 0.951 . S
C3074 C3072 1.388 . S
C3074 C3075 1.366 . S
C3075 C3074 1.366 . S
C3075 C3076 1.414 . S
C3075 C3078 1.499 . S
C3076 H3056 0.950 . S
C3076 C3075 1.414 . S
C3076 C3077 1.374 . S
C3077 H3057 0.950 . S
C3077 C3073 1.385 . S
C3077 C3076 1.374 . S
C3078 C3075 1.499 . S
C3078 C3079 1.373 . S
C3078 C3080 1.389 . S
C3079 H3058 0.950 . S
C3079 C3078 1.373 . S
C3079 C3095 1.377 . S
C3080 C3078 1.389 . S
C3080 C3081 1.524 . S
C3080 C3094 1.377 . S
C3081 C3080 1.524 . S
C3081 C3082 1.397 . S
C3081 C3086 1.363 . S
C3082 H3059 0.950 . S
C3082 C3081 1.397 . S
C3082 C3083 1.334 . S
C3083 H3060 0.950 . S
C3083 C3082 1.334 . S
C3083 C3084 1.287 . S
C3084 C3083 1.287 . S
C3084 C3085 1.524 . S
C3084 H3103 0.913 . S
C3085 H3061 0.950 . S
C3085 C3084 1.524 . S
C3085 C3086 1.415 . S
C3086 H3062 0.950 . S
C3086 C3081 1.363 . S
C3086 C3085 1.415 . S
C3087 H3063 0.951 . S
C3087 C3088 1.366 . S
C3087 C3089 1.388 . S
C3088 C3087 1.366 . S
C3088 C3092 1.385 . S
C3089 H3064 0.951 . S
C3089 C3087 1.388 . S
C3089 C3090 1.366 . S
C3090 C3089 1.366 . S
C3090 C3091 1.414 . S
C3090 C3093 1.499 . S
C3091 H3065 0.950 . S
C3091 C3090 1.414 . S
C3091 C3092 1.374 . S
C3092 H3066 0.950 . S
C3092 C3088 1.385 . S
C3092 C3091 1.374 . S
C3093 C3090 1.499 . S
C3093 C3094 1.373 . S
C3093 C3095 1.389 . S
C3094 H3067 0.950 . S
C3094 C3080 1.377 . S
C3094 C3093 1.373 . S
C3095 C3079 1.377 . S
C3095 C3093 1.389 . S
C3095 C3096 1.524 . S
C3096 C3095 1.524 . S
C3096 C3097 1.397 . S
C3096 C3101 1.363 . S
C3097 H3068 0.950 . S
C3097 C3096 1.397 . S
C3097 C3098 1.334 . S
C3098 H3069 0.950 . S
C3098 C3097 1.334 . S
C3098 C3099 1.287 . S
C3099 C3098 1.287 . S
C3099 C3100 1.524 . S
C3099 H3102 0.999 . S
C3100 H3070 0.950 . S
C3100 C3099 1.524 . S
C3100 C3101 1.415 . S
C3101 H3071 0.950 . S
C3101 C3096 1.363 . S
C3101 C3100 1.415 . S
H3102 C3099 0.999 . S
H3103 C3084 0.913 . S
H3104 C3122 0.951 . S
H3105 C3124 0.951 . S
H3106 C3126 0.950 . S
H3107 C3127 0.950 . S
H3108 C3129 0.950 . S
H3109 C3132 0.950 . S
H3110 C3133 0.950 . S
H3111 C3135 0.950 . S
H3112 C3136 0.950 . S
H3113 C3137 0.951 . S
H3114 C3139 0.951 . S
H3115 C3141 0.950 . S
H3116 C3142 0.950 . S
H3117 C3144 0.950 . S
H3118 C3147 0.950 . S
H3119 C3148 0.950 . S
H3120 C3150 0.950 . S
H3121 C3151 0.950 . S
C3122 H3104 0.951 . S
C3122 C3123 1.366 . S
C3122 C3124 1.388 . S
C3123 C3122 1.366 . S
C3123 C3127 1.385 . S
C3124 H3105 0.951 . S
C3124 C3122 1.388 . S
C3124 C3125 1.366 . S
C3125 C3124 1.366 . S
C3125 C3126 1.414 . S
C3125 C3128 1.499 . S
C3126 H3106 0.950 . S
C3126 C3125 1.414 . S
C3126 C3127 1.374 . S
C3127 H3107 0.950 . S
C3127 C3123 1.385 . S
C3127 C3126 1.374 . S
C3128 C3125 1.499 . S
C3128 C3129 1.373 . S
C3128 C3130 1.389 . S
C3129 H3108 0.950 . S
C3129 C3128 1.373 . S
C3129 C3145 1.377 . S
C3130 C3128 1.389 . S
C3130 C3131 1.524 . S
C3130 C3144 1.377 . S
C3131 C3130 1.524 . S
C3131 C3132 1.397 . S
C3131 C3136 1.363 . S
C3132 H3109 0.950 . S
C3132 C3131 1.397 . S
C3132 C3133 1.334 . S
C3133 H3110 0.950 . S
C3133 C3132 1.334 . S
C3133 C3134 1.287 . S
C3134 C3133 1.287 . S
C3134 C3135 1.524 . S
C3134 H3153 0.913 . S
C3135 H3111 0.950 . S
C3135 C3134 1.524 . S
C3135 C3136 1.415 . S
C3136 H3112 0.950 . S
C3136 C3131 1.363 . S
C3136 C3135 1.415 . S
C3137 H3113 0.951 . S
C3137 C3138 1.366 . S
C3137 C3139 1.388 . S
C3138 C3137 1.366 . S
C3138 C3142 1.385 . S
C3139 H3114 0.951 . S
C3139 C3137 1.388 . S
C3139 C3140 1.366 . S
C3140 C3139 1.366 . S
C3140 C3141 1.414 . S
C3140 C3143 1.499 . S
C3141 H3115 0.950 . S
C3141 C3140 1.414 . S
C3141 C3142 1.374 . S
C3142 H3116 0.950 . S
C3142 C3138 1.385 . S
C3142 C3141 1.374 . S
C3143 C3140 1.499 . S
C3143 C3144 1.373 . S
C3143 C3145 1.389 . S
C3144 H3117 0.950 . S
C3144 C3130 1.377 . S
C3144 C3143 1.373 . S
C3145 C3129 1.377 . S
C3145 C3143 1.389 . S
C3145 C3146 1.524 . S
C3146 C3145 1.524 . S
C3146 C3147 1.397 . S
C3146 C3151 1.363 . S
C3147 H3118 0.950 . S
C3147 C3146 1.397 . S
C3147 C3148 1.334 . S
C3148 H3119 0.950 . S
C3148 C3147 1.334 . S
C3148 C3149 1.287 . S
C3149 C3148 1.287 . S
C3149 C3150 1.524 . S
C3149 H3152 0.999 . S
C3150 H3120 0.950 . S
C3150 C3149 1.524 . S
C3150 C3151 1.415 . S
C3151 H3121 0.950 . S
C3151 C3146 1.363 . S
C3151 C3150 1.415 . S
H3152 C3149 0.999 . S
H3153 C3134 0.913 . S
H3154 C3172 0.951 . S
H3155 C3174 0.951 . S
H3156 C3176 0.950 . S
H3157 C3177 0.950 . S
H3158 C3179 0.950 . S
H3159 C3182 0.950 . S
H3160 C3183 0.950 . S
H3161 C3185 0.950 . S
H3162 C3186 0.950 . S
H3163 C3187 0.951 . S
H3164 C3189 0.951 . S
H3165 C3191 0.950 . S
H3166 C3192 0.950 . S
H3167 C3194 0.950 . S
H3168 C3197 0.950 . S
H3169 C3198 0.950 . S
H3170 C3200 0.950 . S
H3171 C3201 0.950 . S
C3172 H3154 0.951 . S
C3172 C3173 1.366 . S
C3172 C3174 1.388 . S
C3173 C3172 1.366 . S
C3173 C3177 1.385 . S
C3174 H3155 0.951 . S
C3174 C3172 1.388 . S
C3174 C3175 1.366 . S
C3175 C3174 1.366 . S
C3175 C3176 1.414 . S
C3175 C3178 1.499 . S
C3176 H3156 0.950 . S
C3176 C3175 1.414 . S
C3176 C3177 1.374 . S
C3177 H3157 0.950 . S
C3177 C3173 1.385 . S
C3177 C3176 1.374 . S
C3178 C3175 1.499 . S
C3178 C3179 1.373 . S
C3178 C3180 1.389 . S
C3179 H3158 0.950 . S
C3179 C3178 1.373 . S
C3179 C3195 1.377 . S
C3180 C3178 1.389 . S
C3180 C3181 1.524 . S
C3180 C3194 1.377 . S
C3181 C3180 1.524 . S
C3181 C3182 1.397 . S
C3181 C3186 1.363 . S
C3182 H3159 0.950 . S
C3182 C3181 1.397 . S
C3182 C3183 1.334 . S
C3183 H3160 0.950 . S
C3183 C3182 1.334 . S
C3183 C3184 1.287 . S
C3184 C3183 1.287 . S
C3184 C3185 1.524 . S
C3184 H3203 0.913 . S
C3185 H3161 0.950 . S
C3185 C3184 1.524 . S
C3185 C3186 1.415 . S
C3186 H3162 0.950 . S
C3186 C3181 1.363 . S
C3186 C3185 1.415 . S
C3187 H3163 0.951 . S
C3187 C3188 1.366 . S
C3187 C3189 1.388 . S
C3188 C3187 1.366 . S
C3188 C3192 1.385 . S
C3189 H3164 0.951 . S
C3189 C3187 1.388 . S
C3189 C3190 1.366 . S
C3190 C3189 1.366 . S
C3190 C3191 1.414 . S
C3190 C3193 1.499 . S
C3191 H3165 0.950 . S
C3191 C3190 1.414 . S
C3191 C3192 1.374 . S
C3192 H3166 0.950 . S
C3192 C3188 1.385 . S
C3192 C3191 1.374 . S
C3193 C3190 1.499 . S
C3193 C3194 1.373 . S
C3193 C3195 1.389 . S
C3194 H3167 0.950 . S
C3194 C3180 1.377 . S
C3194 C3193 1.373 . S
C3195 C3179 1.377 . S
C3195 C3193 1.389 . S
C3195 C3196 1.524 . S
C3196 C3195 1.524 . S
C3196 C3197 1.397 . S
C3196 C3201 1.363 . S
C3197 H3168 0.950 . S
C3197 C3196 1.397 . S
C3197 C3198 1.334 . S
C3198 H3169 0.950 . S
C3198 C3197 1.334 . S
C3198 C3199 1.287 . S
C3199 C3198 1.287 . S
C3199 C3200 1.524 . S
C3199 H3202 0.999 . S
C3200 H3170 0.950 . S
C3200 C3199 1.524 . S
C3200 C3201 1.415 . S
C3201 H3171 0.950 . S
C3201 C3196 1.363 . S
C3201 C3200 1.415 . S
H3202 C3199 0.999 . S
H3203 C3184 0.913 . S
H3204 C3222 0.951 . S
H3205 C3224 0.951 . S
H3206 C3226 0.950 . S
H3207 C3227 0.950 . S
H3208 C3229 0.950 . S
H3209 C3232 0.950 . S
H3210 C3233 0.950 . S
H3211 C3235 0.950 . S
H3212 C3236 0.950 . S
H3213 C3237 0.951 . S
H3214 C3239 0.951 . S
H3215 C3241 0.950 . S
H3216 C3242 0.950 . S
H3217 C3244 0.950 . S
H3218 C3247 0.950 . S
H3219 C3248 0.950 . S
H3220 C3250 0.950 . S
H3221 C3251 0.950 . S
C3222 H3204 0.951 . S
C3222 C3223 1.366 . S
C3222 C3224 1.388 . S
C3223 C3222 1.366 . S
C3223 C3227 1.385 . S
C3224 H3205 0.951 . S
C3224 C3222 1.388 . S
C3224 C3225 1.366 . S
C3225 C3224 1.366 . S
C3225 C3226 1.414 . S
C3225 C3228 1.499 . S
C3226 H3206 0.950 . S
C3226 C3225 1.414 . S
C3226 C3227 1.374 . S
C3227 H3207 0.950 . S
C3227 C3223 1.385 . S
C3227 C3226 1.374 . S
C3228 C3225 1.499 . S
C3228 C3229 1.373 . S
C3228 C3230 1.389 . S
C3229 H3208 0.950 . S
C3229 C3228 1.373 . S
C3229 C3245 1.377 . S
C3230 C3228 1.389 . S
C3230 C3231 1.524 . S
C3230 C3244 1.377 . S
C3231 C3230 1.524 . S
C3231 C3232 1.397 . S
C3231 C3236 1.363 . S
C3232 H3209 0.950 . S
C3232 C3231 1.397 . S
C3232 C3233 1.334 . S
C3233 H3210 0.950 . S
C3233 C3232 1.334 . S
C3233 C3234 1.287 . S
C3234 C3233 1.287 . S
C3234 C3235 1.524 . S
C3234 H3253 0.913 . S
C3235 H3211 0.950 . S
C3235 C3234 1.524 . S
C3235 C3236 1.415 . S
C3236 H3212 0.950 . S
C3236 C3231 1.363 . S
C3236 C3235 1.415 . S
C3237 H3213 0.951 . S
C3237 C3238 1.366 . S
C3237 C3239 1.388 . S
C3238 C3237 1.366 . S
C3238 C3242 1.385 . S
C3239 H3214 0.951 . S
C3239 C3237 1.388 . S
C3239 C3240 1.366 . S
C3240 C3239 1.366 . S
C3240 C3241 1.414 . S
C3240 C3243 1.499 . S
C3241 H3215 0.950 . S
C3241 C3240 1.414 . S
C3241 C3242 1.374 . S
C3242 H3216 0.950 . S
C3242 C3238 1.385 . S
C3242 C3241 1.374 . S
C3243 C3240 1.499 . S
C3243 C3244 1.373 . S
C3243 C3245 1.389 . S
C3244 H3217 0.950 . S
C3244 C3230 1.377 . S
C3244 C3243 1.373 . S
C3245 C3229 1.377 . S
C3245 C3243 1.389 . S
C3245 C3246 1.524 . S
C3246 C3245 1.524 . S
C3246 C3247 1.397 . S
C3246 C3251 1.363 . S
C3247 H3218 0.950 . S
C3247 C3246 1.397 . S
C3247 C3248 1.334 . S
C3248 H3219 0.950 . S
C3248 C3247 1.334 . S
C3248 C3249 1.287 . S
C3249 C3248 1.287 . S
C3249 C3250 1.524 . S
C3249 H3252 0.999 . S
C3250 H3220 0.950 . S
C3250 C3249 1.524 . S
C3250 C3251 1.415 . S
C3251 H3221 0.950 . S
C3251 C3246 1.363 . S
C3251 C3250 1.415 . S
H3252 C3249 0.999 . S
H3253 C3234 0.913 . S
H3254 C3272 0.951 . S
H3255 C3274 0.951 . S
H3256 C3276 0.950 . S
H3257 C3277 0.950 . S
H3258 C3279 0.950 . S
H3259 C3282 0.950 . S
H3260 C3283 0.950 . S
H3261 C3285 0.950 . S
H3262 C3286 0.950 . S
H3263 C3287 0.951 . S
H3264 C3289 0.951 . S
H3265 C3291 0.950 . S
H3266 C3292 0.950 . S
H3267 C3294 0.950 . S
H3268 C3297 0.950 . S
H3269 C3298 0.950 . S
H3270 C3300 0.950 . S
H3271 C3301 0.950 . S
C3272 H3254 0.951 . S
C3272 C3273 1.366 . S
C3272 C3274 1.388 . S
C3273 C3272 1.366 . S
C3273 C3277 1.385 . S
C3274 H3255 0.951 . S
C3274 C3272 1.388 . S
C3274 C3275 1.366 . S
C3275 C3274 1.366 . S
C3275 C3276 1.414 . S
C3275 C3278 1.499 . S
C3276 H3256 0.950 . S
C3276 C3275 1.414 . S
C3276 C3277 1.374 . S
C3277 H3257 0.950 . S
C3277 C3273 1.385 . S
C3277 C3276 1.374 . S
C3278 C3275 1.499 . S
C3278 C3279 1.373 . S
C3278 C3280 1.389 . S
C3279 H3258 0.950 . S
C3279 C3278 1.373 . S
C3279 C3295 1.377 . S
C3280 C3278 1.389 . S
C3280 C3281 1.524 . S
C3280 C3294 1.377 . S
C3281 C3280 1.524 . S
C3281 C3282 1.397 . S
C3281 C3286 1.363 . S
C3282 H3259 0.950 . S
C3282 C3281 1.397 . S
C3282 C3283 1.334 . S
C3283 H3260 0.950 . S
C3283 C3282 1.334 . S
C3283 C3284 1.287 . S
C3284 C3283 1.287 . S
C3284 C3285 1.524 . S
C3284 H3303 0.913 . S
C3285 H3261 0.950 . S
C3285 C3284 1.524 . S
C3285 C3286 1.415 . S
C3286 H3262 0.950 . S
C3286 C3281 1.363 . S
C3286 C3285 1.415 . S
C3287 H3263 0.951 . S
C3287 C3288 1.366 . S
C3287 C3289 1.388 . S
C3288 C3287 1.366 . S
C3288 C3292 1.385 . S
C3289 H3264 0.951 . S
C3289 C3287 1.388 . S
C3289 C3290 1.366 . S
C3290 C3289 1.366 . S
C3290 C3291 1.414 . S
C3290 C3293 1.499 . S
C3291 H3265 0.950 . S
C3291 C3290 1.414 . S
C3291 C3292 1.374 . S
C3292 H3266 0.950 . S
C3292 C3288 1.385 . S
C3292 C3291 1.374 . S
C3293 C3290 1.499 . S
C3293 C3294 1.373 . S
C3293 C3295 1.389 . S
C3294 H3267 0.950 . S
C3294 C3280 1.377 . S
C3294 C3293 1.373 . S
C3295 C3279 1.377 . S
C3295 C3293 1.389 . S
C3295 C3296 1.524 . S
C3296 C3295 1.524 . S
C3296 C3297 1.397 . S
C3296 C3301 1.363 . S
C3297 H3268 0.950 . S
C3297 C3296 1.397 . S
C3297 C3298 1.334 . S
C3298 H3269 0.950 . S
C3298 C3297 1.334 . S
C3298 C3299 1.287 . S
C3299 C3298 1.287 . S
C3299 C3300 1.524 . S
C3299 H3302 0.999 . S
C3300 H3270 0.950 . S
C3300 C3299 1.524 . S
C3300 C3301 1.415 . S
C3301 H3271 0.950 . S
C3301 C3296 1.363 . S
C3301 C3300 1.415 . S
H3302 C3299 0.999 . S
H3303 C3284 0.913 . S
H3304 C3322 0.951 . S
H3305 C3324 0.951 . S
H3306 C3326 0.950 . S
H3307 C3327 0.950 . S
H3308 C3329 0.950 . S
H3309 C3332 0.950 . S
H3310 C3333 0.950 . S
H3311 C3335 0.950 . S
H3312 C3336 0.950 . S
H3313 C3337 0.951 . S
H3314 C3339 0.951 . S
H3315 C3341 0.950 . S
H3316 C3342 0.950 . S
H3317 C3344 0.950 . S
H3318 C3347 0.950 . S
H3319 C3348 0.950 . S
H3320 C3350 0.950 . S
H3321 C3351 0.950 . S
C3322 H3304 0.951 . S
C3322 C3323 1.366 . S
C3322 C3324 1.388 . S
C3323 C3322 1.366 . S
C3323 C3327 1.385 . S
C3324 H3305 0.951 . S
C3324 C3322 1.388 . S
C3324 C3325 1.366 . S
C3325 C3324 1.366 . S
C3325 C3326 1.414 . S
C3325 C3328 1.499 . S
C3326 H3306 0.950 . S
C3326 C3325 1.414 . S
C3326 C3327 1.374 . S
C3327 H3307 0.950 . S
C3327 C3323 1.385 . S
C3327 C3326 1.374 . S
C3328 C3325 1.499 . S
C3328 C3329 1.373 . S
C3328 C3330 1.389 . S
C3329 H3308 0.950 . S
C3329 C3328 1.373 . S
C3329 C3345 1.377 . S
C3330 C3328 1.389 . S
C3330 C3331 1.524 . S
C3330 C3344 1.377 . S
C3331 C3330 1.524 . S
C3331 C3332 1.397 . S
C3331 C3336 1.363 . S
C3332 H3309 0.950 . S
C3332 C3331 1.397 . S
C3332 C3333 1.334 . S
C3333 H3310 0.950 . S
C3333 C3332 1.334 . S
C3333 C3334 1.287 . S
C3334 C3333 1.287 . S
C3334 C3335 1.524 . S
C3334 H3353 0.913 . S
C3335 H3311 0.950 . S
C3335 C3334 1.524 . S
C3335 C3336 1.415 . S
C3336 H3312 0.950 . S
C3336 C3331 1.363 . S
C3336 C3335 1.415 . S
C3337 H3313 0.951 . S
C3337 C3338 1.366 . S
C3337 C3339 1.388 . S
C3338 C3337 1.366 . S
C3338 C3342 1.385 . S
C3339 H3314 0.951 . S
C3339 C3337 1.388 . S
C3339 C3340 1.366 . S
C3340 C3339 1.366 . S
C3340 C3341 1.414 . S
C3340 C3343 1.499 . S
C3341 H3315 0.950 . S
C3341 C3340 1.414 . S
C3341 C3342 1.374 . S
C3342 H3316 0.950 . S
C3342 C3338 1.385 . S
C3342 C3341 1.374 . S
C3343 C3340 1.499 . S
C3343 C3344 1.373 . S
C3343 C3345 1.389 . S
C3344 H3317 0.950 . S
C3344 C3330 1.377 . S
C3344 C3343 1.373 . S
C3345 C3329 1.377 . S
C3345 C3343 1.389 . S
C3345 C3346 1.524 . S
C3346 C3345 1.524 . S
C3346 C3347 1.397 . S
C3346 C3351 1.363 . S
C3347 H3318 0.950 . S
C3347 C3346 1.397 . S
C3347 C3348 1.334 . S
C3348 H3319 0.950 . S
C3348 C3347 1.334 . S
C3348 C3349 1.287 . S
C3349 C3348 1.287 . S
C3349 C3350 1.524 . S
C3349 H3352 0.999 . S
C3350 H3320 0.950 . S
C3350 C3349 1.524 . S
C3350 C3351 1.415 . S
C3351 H3321 0.950 . S
C3351 C3346 1.363 . S
C3351 C3350 1.415 . S
H3352 C3349 0.999 . S
H3353 C3334 0.913 . S
H3354 C3372 0.951 . S
H3355 C3374 0.951 . S
H3356 C3376 0.950 . S
H3357 C3377 0.950 . S
H3358 C3379 0.950 . S
H3359 C3382 0.950 . S
H3360 C3383 0.950 . S
H3361 C3385 0.950 . S
H3362 C3386 0.950 . S
H3363 C3387 0.951 . S
H3364 C3389 0.951 . S
H3365 C3391 0.950 . S
H3366 C3392 0.950 . S
H3367 C3394 0.950 . S
H3368 C3397 0.950 . S
H3369 C3398 0.950 . S
H3370 C3400 0.950 . S
H3371 C3401 0.950 . S
C3372 H3354 0.951 . S
C3372 C3373 1.366 . S
C3372 C3374 1.388 . S
C3373 C3372 1.366 . S
C3373 C3377 1.385 . S
C3374 H3355 0.951 . S
C3374 C3372 1.388 . S
C3374 C3375 1.366 . S
C3375 C3374 1.366 . S
C3375 C3376 1.414 . S
C3375 C3378 1.499 . S
C3376 H3356 0.950 . S
C3376 C3375 1.414 . S
C3376 C3377 1.374 . S
C3377 H3357 0.950 . S
C3377 C3373 1.385 . S
C3377 C3376 1.374 . S
C3378 C3375 1.499 . S
C3378 C3379 1.373 . S
C3378 C3380 1.389 . S
C3379 H3358 0.950 . S
C3379 C3378 1.373 . S
C3379 C3395 1.377 . S
C3380 C3378 1.389 . S
C3380 C3381 1.524 . S
C3380 C3394 1.377 . S
C3381 C3380 1.524 . S
C3381 C3382 1.397 . S
C3381 C3386 1.363 . S
C3382 H3359 0.950 . S
C3382 C3381 1.397 . S
C3382 C3383 1.334 . S
C3383 H3360 0.950 . S
C3383 C3382 1.334 . S
C3383 C3384 1.287 . S
C3384 C3383 1.287 . S
C3384 C3385 1.524 . S
C3384 H3403 0.913 . S
C3385 H3361 0.950 . S
C3385 C3384 1.524 . S
C3385 C3386 1.415 . S
C3386 H3362 0.950 . S
C3386 C3381 1.363 . S
C3386 C3385 1.415 . S
C3387 H3363 0.951 . S
C3387 C3388 1.366 . S
C3387 C3389 1.388 . S
C3388 C3387 1.366 . S
C3388 C3392 1.385 . S
C3389 H3364 0.951 . S
C3389 C3387 1.388 . S
C3389 C3390 1.366 . S
C3390 C3389 1.366 . S
C3390 C3391 1.414 . S
C3390 C3393 1.499 . S
C3391 H3365 0.950 . S
C3391 C3390 1.414 . S
C3391 C3392 1.374 . S
C3392 H3366 0.950 . S
C3392 C3388 1.385 . S
C3392 C3391 1.374 . S
C3393 C3390 1.499 . S
C3393 C3394 1.373 . S
C3393 C3395 1.389 . S
C3394 H3367 0.950 . S
C3394 C3380 1.377 . S
C3394 C3393 1.373 . S
C3395 C3379 1.377 . S
C3395 C3393 1.389 . S
C3395 C3396 1.524 . S
C3396 C3395 1.524 . S
C3396 C3397 1.397 . S
C3396 C3401 1.363 . S
C3397 H3368 0.950 . S
C3397 C3396 1.397 . S
C3397 C3398 1.334 . S
C3398 H3369 0.950 . S
C3398 C3397 1.334 . S
C3398 C3399 1.287 . S
C3399 C3398 1.287 . S
C3399 C3400 1.524 . S
C3399 H3402 0.999 . S
C3400 H3370 0.950 . S
C3400 C3399 1.524 . S
C3400 C3401 1.415 . S
C3401 H3371 0.950 . S
C3401 C3396 1.363 . S
C3401 C3400 1.415 . S
H3402 C3399 0.999 . S
H3403 C3384 0.913 . S
H3404 C3422 0.951 . S
H3405 C3424 0.951 . S
H3406 C3426 0.950 . S
H3407 C3427 0.950 . S
H3408 C3429 0.950 . S
H3409 C3432 0.950 . S
H3410 C3433 0.950 . S
H3411 C3435 0.950 . S
H3412 C3436 0.950 . S
H3413 C3437 0.951 . S
H3414 C3439 0.951 . S
H3415 C3441 0.950 . S
H3416 C3442 0.950 . S
H3417 C3444 0.950 . S
H3418 C3447 0.950 . S
H3419 C3448 0.950 . S
H3420 C3450 0.950 . S
H3421 C3451 0.950 . S
C3422 H3404 0.951 . S
C3422 C3423 1.366 . S
C3422 C3424 1.388 . S
C3423 C3422 1.366 . S
C3423 C3427 1.385 . S
C3424 H3405 0.951 . S
C3424 C3422 1.388 . S
C3424 C3425 1.366 . S
C3425 C3424 1.366 . S
C3425 C3426 1.414 . S
C3425 C3428 1.499 . S
C3426 H3406 0.950 . S
C3426 C3425 1.414 . S
C3426 C3427 1.374 . S
C3427 H3407 0.950 . S
C3427 C3423 1.385 . S
C3427 C3426 1.374 . S
C3428 C3425 1.499 . S
C3428 C3429 1.373 . S
C3428 C3430 1.389 . S
C3429 H3408 0.950 . S
C3429 C3428 1.373 . S
C3429 C3445 1.377 . S
C3430 C3428 1.389 . S
C3430 C3431 1.524 . S
C3430 C3444 1.377 . S
C3431 C3430 1.524 . S
C3431 C3432 1.397 . S
C3431 C3436 1.363 . S
C3432 H3409 0.950 . S
C3432 C3431 1.397 . S
C3432 C3433 1.334 . S
C3433 H3410 0.950 . S
C3433 C3432 1.334 . S
C3433 C3434 1.287 . S
C3434 C3433 1.287 . S
C3434 C3435 1.524 . S
C3434 H3453 0.913 . S
C3435 H3411 0.950 . S
C3435 C3434 1.524 . S
C3435 C3436 1.415 . S
C3436 H3412 0.950 . S
C3436 C3431 1.363 . S
C3436 C3435 1.415 . S
C3437 H3413 0.951 . S
C3437 C3438 1.366 . S
C3437 C3439 1.388 . S
C3438 C3437 1.366 . S
C3438 C3442 1.385 . S
C3439 H3414 0.951 . S
C3439 C3437 1.388 . S
C3439 C3440 1.366 . S
C3440 C3439 1.366 . S
C3440 C3441 1.414 . S
C3440 C3443 1.499 . S
C3441 H3415 0.950 . S
C3441 C3440 1.414 . S
C3441 C3442 1.374 . S
C3442 H3416 0.950 . S
C3442 C3438 1.385 . S
C3442 C3441 1.374 . S
C3443 C3440 1.499 . S
C3443 C3444 1.373 . S
C3443 C3445 1.389 . S
C3444 H3417 0.950 . S
C3444 C3430 1.377 . S
C3444 C3443 1.373 . S
C3445 C3429 1.377 . S
C3445 C3443 1.389 . S
C3445 C3446 1.524 . S
C3446 C3445 1.524 . S
C3446 C3447 1.397 . S
C3446 C3451 1.363 . S
C3447 H3418 0.950 . S
C3447 C3446 1.397 . S
C3447 C3448 1.334 . S
C3448 H3419 0.950 . S
C3448 C3447 1.334 . S
C3448 C3449 1.287 . S
C3449 C3448 1.287 . S
C3449 C3450 1.524 . S
C3449 H3452 0.999 . S
C3450 H3420 0.950 . S
C3450 C3449 1.524 . S
C3450 C3451 1.415 . S
C3451 H3421 0.950 . S
C3451 C3446 1.363 . S
C3451 C3450 1.415 . S
H3452 C3449 0.999 . S
H3453 C3434 0.913 . S
H3454 C3472 0.951 . S
H3455 C3474 0.951 . S
H3456 C3476 0.950 . S
H3457 C3477 0.950 . S
H3458 C3479 0.950 . S
H3459 C3482 0.950 . S
H3460 C3483 0.950 . S
H3461 C3485 0.950 . S
H3462 C3486 0.950 . S
H3463 C3487 0.951 . S
H3464 C3489 0.951 . S
H3465 C3491 0.950 . S
H3466 C3492 0.950 . S
H3467 C3494 0.950 . S
H3468 C3497 0.950 . S
H3469 C3498 0.950 . S
H3470 C3500 0.950 . S
H3471 C3501 0.950 . S
C3472 H3454 0.951 . S
C3472 C3473 1.366 . S
C3472 C3474 1.388 . S
C3473 C3472 1.366 . S
C3473 C3477 1.385 . S
C3474 H3455 0.951 . S
C3474 C3472 1.388 . S
C3474 C3475 1.366 . S
C3475 C3474 1.366 . S
C3475 C3476 1.414 . S
C3475 C3478 1.499 . S
C3476 H3456 0.950 . S
C3476 C3475 1.414 . S
C3476 C3477 1.374 . S
C3477 H3457 0.950 . S
C3477 C3473 1.385 . S
C3477 C3476 1.374 . S
C3478 C3475 1.499 . S
C3478 C3479 1.373 . S
C3478 C3480 1.389 . S
C3479 H3458 0.950 . S
C3479 C3478 1.373 . S
C3479 C3495 1.377 . S
C3480 C3478 1.389 . S
C3480 C3481 1.524 . S
C3480 C3494 1.377 . S
C3481 C3480 1.524 . S
C3481 C3482 1.397 . S
C3481 C3486 1.363 . S
C3482 H3459 0.950 . S
C3482 C3481 1.397 . S
C3482 C3483 1.334 . S
C3483 H3460 0.950 . S
C3483 C3482 1.334 . S
C3483 C3484 1.287 . S
C3484 C3483 1.287 . S
C3484 C3485 1.524 . S
C3484 H3503 0.913 . S
C3485 H3461 0.950 . S
C3485 C3484 1.524 . S
C3485 C3486 1.415 . S
C3486 H3462 0.950 . S
C3486 C3481 1.363 . S
C3486 C3485 1.415 . S
C3487 H3463 0.951 . S
C3487 C3488 1.366 . S
C3487 C3489 1.388 . S
C3488 C3487 1.366 . S
C3488 C3492 1.385 . S
C3489 H3464 0.951 . S
C3489 C3487 1.388 . S
C3489 C3490 1.366 . S
C3490 C3489 1.366 . S
C3490 C3491 1.414 . S
C3490 C3493 1.499 . S
C3491 H3465 0.950 . S
C3491 C3490 1.414 . S
C3491 C3492 1.374 . S
C3492 H3466 0.950 . S
C3492 C3488 1.385 . S
C3492 C3491 1.374 . S
C3493 C3490 1.499 . S
C3493 C3494 1.373 . S
C3493 C3495 1.389 . S
C3494 H3467 0.950 . S
C3494 C3480 1.377 . S
C3494 C3493 1.373 . S
C3495 C3479 1.377 . S
C3495 C3493 1.389 . S
C3495 C3496 1.524 . S
C3496 C3495 1.524 . S
C3496 C3497 1.397 . S
C3496 C3501 1.363 . S
C3497 H3468 0.950 . S
C3497 C3496 1.397 . S
C3497 C3498 1.334 . S
C3498 H3469 0.950 . S
C3498 C3497 1.334 . S
C3498 C3499 1.287 . S
C3499 C3498 1.287 . S
C3499 C3500 1.524 . S
C3499 H3502 0.999 . S
C3500 H3470 0.950 . S
C3500 C3499 1.524 . S
C3500 C3501 1.415 . S
C3501 H3471 0.950 . S
C3501 C3496 1.363 . S
C3501 C3500 1.415 . S
H3502 C3499 0.999 . S
H3503 C3484 0.913 . S
H3504 C3522 0.951 . S
H3505 C3524 0.951 . S
H3506 C3526 0.950 . S
H3507 C3527 0.950 . S
H3508 C3529 0.950 . S
H3509 C3532 0.950 . S
H3510 C3533 0.950 . S
H3511 C3535 0.950 . S
H3512 C3536 0.950 . S
H3513 C3537 0.951 . S
H3514 C3539 0.951 . S
H3515 C3541 0.950 . S
H3516 C3542 0.950 . S
H3517 C3544 0.950 . S
H3518 C3547 0.950 . S
H3519 C3548 0.950 . S
H3520 C3550 0.950 . S
H3521 C3551 0.950 . S
C3522 H3504 0.951 . S
C3522 C3523 1.366 . S
C3522 C3524 1.388 . S
C3523 C3522 1.366 . S
C3523 C3527 1.385 . S
C3524 H3505 0.951 . S
C3524 C3522 1.388 . S
C3524 C3525 1.366 . S
C3525 C3524 1.366 . S
C3525 C3526 1.414 . S
C3525 C3528 1.499 . S
C3526 H3506 0.950 . S
C3526 C3525 1.414 . S
C3526 C3527 1.374 . S
C3527 H3507 0.950 . S
C3527 C3523 1.385 . S
C3527 C3526 1.374 . S
C3528 C3525 1.499 . S
C3528 C3529 1.373 . S
C3528 C3530 1.389 . S
C3529 H3508 0.950 . S
C3529 C3528 1.373 . S
C3529 C3545 1.377 . S
C3530 C3528 1.389 . S
C3530 C3531 1.524 . S
C3530 C3544 1.377 . S
C3531 C3530 1.524 . S
C3531 C3532 1.397 . S
C3531 C3536 1.363 . S
C3532 H3509 0.950 . S
C3532 C3531 1.397 . S
C3532 C3533 1.334 . S
C3533 H3510 0.950 . S
C3533 C3532 1.334 . S
C3533 C3534 1.287 . S
C3534 C3533 1.287 . S
C3534 C3535 1.524 . S
C3534 H3553 0.913 . S
C3535 H3511 0.950 . S
C3535 C3534 1.524 . S
C3535 C3536 1.415 . S
C3536 H3512 0.950 . S
C3536 C3531 1.363 . S
C3536 C3535 1.415 . S
C3537 H3513 0.951 . S
C3537 C3538 1.366 . S
C3537 C3539 1.388 . S
C3538 C3537 1.366 . S
C3538 C3542 1.385 . S
C3539 H3514 0.951 . S
C3539 C3537 1.388 . S
C3539 C3540 1.366 . S
C3540 C3539 1.366 . S
C3540 C3541 1.414 . S
C3540 C3543 1.499 . S
C3541 H3515 0.950 . S
C3541 C3540 1.414 . S
C3541 C3542 1.374 . S
C3542 H3516 0.950 . S
C3542 C3538 1.385 . S
C3542 C3541 1.374 . S
C3543 C3540 1.499 . S
C3543 C3544 1.373 . S
C3543 C3545 1.389 . S
C3544 H3517 0.950 . S
C3544 C3530 1.377 . S
C3544 C3543 1.373 . S
C3545 C3529 1.377 . S
C3545 C3543 1.389 . S
C3545 C3546 1.524 . S
C3546 C3545 1.524 . S
C3546 C3547 1.397 . S
C3546 C3551 1.363 . S
C3547 H3518 0.950 . S
C3547 C3546 1.397 . S
C3547 C3548 1.334 . S
C3548 H3519 0.950 . S
C3548 C3547 1.334 . S
C3548 C3549 1.287 . S
C3549 C3548 1.287 . S
C3549 C3550 1.524 . S
C3549 H3552 0.999 . S
C3550 H3520 0.950 . S
C3550 C3549 1.524 . S
C3550 C3551 1.415 . S
C3551 H3521 0.950 . S
C3551 C3546 1.363 . S
C3551 C3550 1.415 . S
H3552 C3549 0.999 . S
H3553 C3534 0.913 . S
H3554 C3572 0.951 . S
H3555 C3574 0.951 . S
H3556 C3576 0.950 . S
H3557 C3577 0.950 . S
H3558 C3579 0.950 . S
H3559 C3582 0.950 . S
H3560 C3583 0.950 . S
H3561 C3585 0.950 . S
H3562 C3586 0.950 . S
H3563 C3587 0.951 . S
H3564 C3589 0.951 . S
H3565 C3591 0.950 . S
H3566 C3592 0.950 . S
H3567 C3594 0.950 . S
H3568 C3597 0.950 . S
H3569 C3598 0.950 . S
H3570 C3600 0.950 . S
H3571 C3601 0.950 . S
C3572 H3554 0.951 . S
C3572 C3573 1.366 . S
C3572 C3574 1.388 . S
C3573 C3572 1.366 . S
C3573 C3577 1.385 . S
C3574 H3555 0.951 . S
C3574 C3572 1.388 . S
C3574 C3575 1.366 . S
C3575 C3574 1.366 . S
C3575 C3576 1.414 . S
C3575 C3578 1.499 . S
C3576 H3556 0.950 . S
C3576 C3575 1.414 . S
C3576 C3577 1.374 . S
C3577 H3557 0.950 . S
C3577 C3573 1.385 . S
C3577 C3576 1.374 . S
C3578 C3575 1.499 . S
C3578 C3579 1.373 . S
C3578 C3580 1.389 . S
C3579 H3558 0.950 . S
C3579 C3578 1.373 . S
C3579 C3595 1.377 . S
C3580 C3578 1.389 . S
C3580 C3581 1.524 . S
C3580 C3594 1.377 . S
C3581 C3580 1.524 . S
C3581 C3582 1.397 . S
C3581 C3586 1.363 . S
C3582 H3559 0.950 . S
C3582 C3581 1.397 . S
C3582 C3583 1.334 . S
C3583 H3560 0.950 . S
C3583 C3582 1.334 . S
C3583 C3584 1.287 . S
C3584 C3583 1.287 . S
C3584 C3585 1.524 . S
C3584 H3603 0.913 . S
C3585 H3561 0.950 . S
C3585 C3584 1.524 . S
C3585 C3586 1.415 . S
C3586 H3562 0.950 . S
C3586 C3581 1.363 . S
C3586 C3585 1.415 . S
C3587 H3563 0.951 . S
C3587 C3588 1.366 . S
C3587 C3589 1.388 . S
C3588 C3587 1.366 . S
C3588 C3592 1.385 . S
C3589 H3564 0.951 . S
C3589 C3587 1.388 . S
C3589 C3590 1.366 . S
C3590 C3589 1.366 . S
C3590 C3591 1.414 . S
C3590 C3593 1.499 . S
C3591 H3565 0.950 . S
C3591 C3590 1.414 . S
C3591 C3592 1.374 . S
C3592 H3566 0.950 . S
C3592 C3588 1.385 . S
C3592 C3591 1.374 . S
C3593 C3590 1.499 . S
C3593 C3594 1.373 . S
C3593 C3595 1.389 . S
C3594 H3567 0.950 . S
C3594 C3580 1.377 . S
C3594 C3593 1.373 . S
C3595 C3579 1.377 . S
C3595 C3593 1.389 . S
C3595 C3596 1.524 . S
C3596 C3595 1.524 . S
C3596 C3597 1.397 . S
C3596 C3601 1.363 . S
C3597 H3568 0.950 . S
C3597 C3596 1.397 . S
C3597 C3598 1.334 . S
C3598 H3569 0.950 . S
C3598 C3597 1.334 . S
C3598 C3599 1.287 . S
C3599 C3598 1.287 . S
C3599 C3600 1.524 . S
C3599 H3602 0.999 . S
C3600 H3570 0.950 . S
C3600 C3599 1.524 . S
C3600 C3601 1.415 . S
C3601 H3571 0.950 . S
C3601 C3596 1.363 . S
C3601 C3600 1.415 . S
H3602 C3599 0.999 . S
H3603 C3584 0.913 . S
H3604 C3622 0.951 . S
H3605 C3624 0.951 . S
H3606 C3626 0.950 . S
H3607 C3627 0.950 . S
H3608 C3629 0.950 . S
H3609 C3632 0.950 . S
H3610 C3633 0.950 . S
H3611 C3635 0.950 . S
H3612 C3636 0.950 . S
H3613 C3637 0.951 . S
H3614 C3639 0.951 . S
H3615 C3641 0.950 . S
H3616 C3642 0.950 . S
H3617 C3644 0.950 . S
H3618 C3647 0.950 . S
H3619 C3648 0.950 . S
H3620 C3650 0.950 . S
H3621 C3651 0.950 . S
C3622 H3604 0.951 . S
C3622 C3623 1.366 . S
C3622 C3624 1.388 . S
C3623 C3622 1.366 . S
C3623 C3627 1.385 . S
C3624 H3605 0.951 . S
C3624 C3622 1.388 . S
C3624 C3625 1.366 . S
C3625 C3624 1.366 . S
C3625 C3626 1.414 . S
C3625 C3628 1.499 . S
C3626 H3606 0.950 . S
C3626 C3625 1.414 . S
C3626 C3627 1.374 . S
C3627 H3607 0.950 . S
C3627 C3623 1.385 . S
C3627 C3626 1.374 . S
C3628 C3625 1.499 . S
C3628 C3629 1.373 . S
C3628 C3630 1.389 . S
C3629 H3608 0.950 . S
C3629 C3628 1.373 . S
C3629 C3645 1.377 . S
C3630 C3628 1.389 . S
C3630 C3631 1.524 . S
C3630 C3644 1.377 . S
C3631 C3630 1.524 . S
C3631 C3632 1.397 . S
C3631 C3636 1.363 . S
C3632 H3609 0.950 . S
C3632 C3631 1.397 . S
C3632 C3633 1.334 . S
C3633 H3610 0.950 . S
C3633 C3632 1.334 . S
C3633 C3634 1.287 . S
C3634 C3633 1.287 . S
C3634 C3635 1.524 . S
C3634 H3653 0.913 . S
C3635 H3611 0.950 . S
C3635 C3634 1.524 . S
C3635 C3636 1.415 . S
C3636 H3612 0.950 . S
C3636 C3631 1.363 . S
C3636 C3635 1.415 . S
C3637 H3613 0.951 . S
C3637 C3638 1.366 . S
C3637 C3639 1.388 . S
C3638 C3637 1.366 . S
C3638 C3642 1.385 . S
C3639 H3614 0.951 . S
C3639 C3637 1.388 . S
C3639 C3640 1.366 . S
C3640 C3639 1.366 . S
C3640 C3641 1.414 . S
C3640 C3643 1.499 . S
C3641 H3615 0.950 . S
C3641 C3640 1.414 . S
C3641 C3642 1.374 . S
C3642 H3616 0.950 . S
C3642 C3638 1.385 . S
C3642 C3641 1.374 . S
C3643 C3640 1.499 . S
C3643 C3644 1.373 . S
C3643 C3645 1.389 . S
C3644 H3617 0.950 . S
C3644 C3630 1.377 . S
C3644 C3643 1.373 . S
C3645 C3629 1.377 . S
C3645 C3643 1.389 . S
C3645 C3646 1.524 . S
C3646 C3645 1.524 . S
C3646 C3647 1.397 . S
C3646 C3651 1.363 . S
C3647 H3618 0.950 . S
C3647 C3646 1.397 . S
C3647 C3648 1.334 . S
C3648 H3619 0.950 . S
C3648 C3647 1.334 . S
C3648 C3649 1.287 . S
C3649 C3648 1.287 . S
C3649 C3650 1.524 . S
C3649 H3652 0.999 . S
C3650 H3620 0.950 . S
C3650 C3649 1.524 . S
C3650 C3651 1.415 . S
C3651 H3621 0.950 . S
C3651 C3646 1.363 . S
C3651 C3650 1.415 . S
H3652 C3649 0.999 . S
H3653 C3634 0.913 . S
H3654 C3672 0.951 . S
H3655 C3674 0.951 . S
H3656 C3676 0.950 . S
H3657 C3677 0.950 . S
H3658 C3679 0.950 . S
H3659 C3682 0.950 . S
H3660 C3683 0.950 . S
H3661 C3685 0.950 . S
H3662 C3686 0.950 . S
H3663 C3687 0.951 . S
H3664 C3689 0.951 . S
H3665 C3691 0.950 . S
H3666 C3692 0.950 . S
H3667 C3694 0.950 . S
H3668 C3697 0.950 . S
H3669 C3698 0.950 . S
H3670 C3700 0.950 . S
H3671 C3701 0.950 . S
C3672 H3654 0.951 . S
C3672 C3673 1.366 . S
C3672 C3674 1.388 . S
C3673 C3672 1.366 . S
C3673 C3677 1.385 . S
C3674 H3655 0.951 . S
C3674 C3672 1.388 . S
C3674 C3675 1.366 . S
C3675 C3674 1.366 . S
C3675 C3676 1.414 . S
C3675 C3678 1.499 . S
C3676 H3656 0.950 . S
C3676 C3675 1.414 . S
C3676 C3677 1.374 . S
C3677 H3657 0.950 . S
C3677 C3673 1.385 . S
C3677 C3676 1.374 . S
C3678 C3675 1.499 . S
C3678 C3679 1.373 . S
C3678 C3680 1.389 . S
C3679 H3658 0.950 . S
C3679 C3678 1.373 . S
C3679 C3695 1.377 . S
C3680 C3678 1.389 . S
C3680 C3681 1.524 . S
C3680 C3694 1.377 . S
C3681 C3680 1.524 . S
C3681 C3682 1.397 . S
C3681 C3686 1.363 . S
C3682 H3659 0.950 . S
C3682 C3681 1.397 . S
C3682 C3683 1.334 . S
C3683 H3660 0.950 . S
C3683 C3682 1.334 . S
C3683 C3684 1.287 . S
C3684 C3683 1.287 . S
C3684 C3685 1.524 . S
C3684 H3703 0.913 . S
C3685 H3661 0.950 . S
C3685 C3684 1.524 . S
C3685 C3686 1.415 . S
C3686 H3662 0.950 . S
C3686 C3681 1.363 . S
C3686 C3685 1.415 . S
C3687 H3663 0.951 . S
C3687 C3688 1.366 . S
C3687 C3689 1.388 . S
C3688 C3687 1.366 . S
C3688 C3692 1.385 . S
C3689 H3664 0.951 . S
C3689 C3687 1.388 . S
C3689 C3690 1.366 . S
C3690 C3689 1.366 . S
C3690 C3691 1.414 . S
C3690 C3693 1.499 . S
C3691 H3665 0.950 . S
C3691 C3690 1.414 . S
C3691 C3692 1.374 . S
C3692 H3666 0.950 . S
C3692 C3688 1.385 . S
C3692 C3691 1.374 . S
C3693 C3690 1.499 . S
C3693 C3694 1.373 . S
C3693 C3695 1.389 . S
C3694 H3667 0.950 . S
C3694 C3680 1.377 . S
C3694 C3693 1.373 . S
C3695 C3679 1.377 . S
C3695 C3693 1.389 . S
C3695 C3696 1.524 . S
C3696 C3695 1.524 . S
C3696 C3697 1.397 . S
C3696 C3701 1.363 . S
C3697 H3668 0.950 . S
C3697 C3696 1.397 . S
C3697 C3698 1.334 . S
C3698 H3669 0.950 . S
C3698 C3697 1.334 . S
C3698 C3699 1.287 . S
C3699 C3698 1.287 . S
C3699 C3700 1.524 . S
C3699 H3702 0.999 . S
C3700 H3670 0.950 . S
C3700 C3699 1.524 . S
C3700 C3701 1.415 . S
C3701 H3671 0.950 . S
C3701 C3696 1.363 . S
C3701 C3700 1.415 . S
H3702 C3699 0.999 . S
H3703 C3684 0.913 . S
H3704 C3722 0.951 . S
H3705 C3724 0.951 . S
H3706 C3726 0.950 . S
H3707 C3727 0.950 . S
H3708 C3729 0.950 . S
H3709 C3732 0.950 . S
H3710 C3733 0.950 . S
H3711 C3735 0.950 . S
H3712 C3736 0.950 . S
H3713 C3737 0.951 . S
H3714 C3739 0.951 . S
H3715 C3741 0.950 . S
H3716 C3742 0.950 . S
H3717 C3744 0.950 . S
H3718 C3747 0.950 . S
H3719 C3748 0.950 . S
H3720 C3750 0.950 . S
H3721 C3751 0.950 . S
C3722 H3704 0.951 . S
C3722 C3723 1.366 . S
C3722 C3724 1.388 . S
C3723 C3722 1.366 . S
C3723 C3727 1.385 . S
C3724 H3705 0.951 . S
C3724 C3722 1.388 . S
C3724 C3725 1.366 . S
C3725 C3724 1.366 . S
C3725 C3726 1.414 . S
C3725 C3728 1.499 . S
C3726 H3706 0.950 . S
C3726 C3725 1.414 . S
C3726 C3727 1.374 . S
C3727 H3707 0.950 . S
C3727 C3723 1.385 . S
C3727 C3726 1.374 . S
C3728 C3725 1.499 . S
C3728 C3729 1.373 . S
C3728 C3730 1.389 . S
C3729 H3708 0.950 . S
C3729 C3728 1.373 . S
C3729 C3745 1.377 . S
C3730 C3728 1.389 . S
C3730 C3731 1.524 . S
C3730 C3744 1.377 . S
C3731 C3730 1.524 . S
C3731 C3732 1.397 . S
C3731 C3736 1.363 . S
C3732 H3709 0.950 . S
C3732 C3731 1.397 . S
C3732 C3733 1.334 . S
C3733 H3710 0.950 . S
C3733 C3732 1.334 . S
C3733 C3734 1.287 . S
C3734 C3733 1.287 . S
C3734 C3735 1.524 . S
C3734 H3753 0.913 . S
C3735 H3711 0.950 . S
C3735 C3734 1.524 . S
C3735 C3736 1.415 . S
C3736 H3712 0.950 . S
C3736 C3731 1.363 . S
C3736 C3735 1.415 . S
C3737 H3713 0.951 . S
C3737 C3738 1.366 . S
C3737 C3739 1.388 . S
C3738 C3737 1.366 . S
C3738 C3742 1.385 . S
C3739 H3714 0.951 . S
C3739 C3737 1.388 . S
C3739 C3740 1.366 . S
C3740 C3739 1.366 . S
C3740 C3741 1.414 . S
C3740 C3743 1.499 . S
C3741 H3715 0.950 . S
C3741 C3740 1.414 . S
C3741 C3742 1.374 . S
C3742 H3716 0.950 . S
C3742 C3738 1.385 . S
C3742 C3741 1.374 . S
C3743 C3740 1.499 . S
C3743 C3744 1.373 . S
C3743 C3745 1.389 . S
C3744 H3717 0.950 . S
C3744 C3730 1.377 . S
C3744 C3743 1.373 . S
C3745 C3729 1.377 . S
C3745 C3743 1.389 . S
C3745 C3746 1.524 . S
C3746 C3745 1.524 . S
C3746 C3747 1.397 . S
C3746 C3751 1.363 . S
C3747 H3718 0.950 . S
C3747 C3746 1.397 . S
C3747 C3748 1.334 . S
C3748 H3719 0.950 . S
C3748 C3747 1.334 . S
C3748 C3749 1.287 . S
C3749 C3748 1.287 . S
C3749 C3750 1.524 . S
C3749 H3752 0.999 . S
C3750 H3720 0.950 . S
C3750 C3749 1.524 . S
C3750 C3751 1.415 . S
C3751 H3721 0.950 . S
C3751 C3746 1.363 . S
C3751 C3750 1.415 . S
H3752 C3749 0.999 . S
H3753 C3734 0.913 . S
H3754 C3772 0.951 . S
H3755 C3774 0.951 . S
H3756 C3776 0.950 . S
H3757 C3777 0.950 . S
H3758 C3779 0.950 . S
H3759 C3782 0.950 . S
H3760 C3783 0.950 . S
H3761 C3785 0.950 . S
H3762 C3786 0.950 . S
H3763 C3787 0.951 . S
H3764 C3789 0.951 . S
H3765 C3791 0.950 . S
H3766 C3792 0.950 . S
H3767 C3794 0.950 . S
H3768 C3797 0.950 . S
H3769 C3798 0.950 . S
H3770 C3800 0.950 . S
H3771 C3801 0.950 . S
C3772 H3754 0.951 . S
C3772 C3773 1.366 . S
C3772 C3774 1.388 . S
C3773 C3772 1.366 . S
C3773 C3777 1.385 . S
C3774 H3755 0.951 . S
C3774 C3772 1.388 . S
C3774 C3775 1.366 . S
C3775 C3774 1.366 . S
C3775 C3776 1.414 . S
C3775 C3778 1.499 . S
C3776 H3756 0.950 . S
C3776 C3775 1.414 . S
C3776 C3777 1.374 . S
C3777 H3757 0.950 . S
C3777 C3773 1.385 . S
C3777 C3776 1.374 . S
C3778 C3775 1.499 . S
C3778 C3779 1.373 . S
C3778 C3780 1.389 . S
C3779 H3758 0.950 . S
C3779 C3778 1.373 . S
C3779 C3795 1.377 . S
C3780 C3778 1.389 . S
C3780 C3781 1.524 . S
C3780 C3794 1.377 . S
C3781 C3780 1.524 . S
C3781 C3782 1.397 . S
C3781 C3786 1.363 . S
C3782 H3759 0.950 . S
C3782 C3781 1.397 . S
C3782 C3783 1.334 . S
C3783 H3760 0.950 . S
C3783 C3782 1.334 . S
C3783 C3784 1.287 . S
C3784 C3783 1.287 . S
C3784 C3785 1.524 . S
C3784 H3803 0.913 . S
C3785 H3761 0.950 . S
C3785 C3784 1.524 . S
C3785 C3786 1.415 . S
C3786 H3762 0.950 . S
C3786 C3781 1.363 . S
C3786 C3785 1.415 . S
C3787 H3763 0.951 . S
C3787 C3788 1.366 . S
C3787 C3789 1.388 . S
C3788 C3787 1.366 . S
C3788 C3792 1.385 . S
C3789 H3764 0.951 . S
C3789 C3787 1.388 . S
C3789 C3790 1.366 . S
C3790 C3789 1.366 . S
C3790 C3791 1.414 . S
C3790 C3793 1.499 . S
C3791 H3765 0.950 . S
C3791 C3790 1.414 . S
C3791 C3792 1.374 . S
C3792 H3766 0.950 . S
C3792 C3788 1.385 . S
C3792 C3791 1.374 . S
C3793 C3790 1.499 . S
C3793 C3794 1.373 . S
C3793 C3795 1.389 . S
C3794 H3767 0.950 . S
C3794 C3780 1.377 . S
C3794 C3793 1.373 . S
C3795 C3779 1.377 . S
C3795 C3793 1.389 . S
C3795 C3796 1.524 . S
C3796 C3795 1.524 . S
C3796 C3797 1.397 . S
C3796 C3801 1.363 . S
C3797 H3768 0.950 . S
C3797 C3796 1.397 . S
C3797 C3798 1.334 . S
C3798 H3769 0.950 . S
C3798 C3797 1.334 . S
C3798 C3799 1.287 . S
C3799 C3798 1.287 . S
C3799 C3800 1.524 . S
C3799 H3802 0.999 . S
C3800 H3770 0.950 . S
C3800 C3799 1.524 . S
C3800 C3801 1.415 . S
C3801 H3771 0.950 . S
C3801 C3796 1.363 . S
C3801 C3800 1.415 . S
H3802 C3799 0.999 . S
H3803 C3784 0.913 . S
H3804 C3822 0.951 . S
H3805 C3824 0.951 . S
H3806 C3826 0.950 . S
H3807 C3827 0.950 . S
H3808 C3829 0.950 . S
H3809 C3832 0.950 . S
H3810 C3833 0.950 . S
H3811 C3835 0.950 . S
H3812 C3836 0.950 . S
H3813 C3837 0.951 . S
H3814 C3839 0.951 . S
H3815 C3841 0.950 . S
H3816 C3842 0.950 . S
H3817 C3844 0.950 . S
H3818 C3847 0.950 . S
H3819 C3848 0.950 . S
H3820 C3850 0.950 . S
H3821 C3851 0.950 . S
C3822 H3804 0.951 . S
C3822 C3823 1.366 . S
C3822 C3824 1.388 . S
C3823 C3822 1.366 . S
C3823 C3827 1.385 . S
C3824 H3805 0.951 . S
C3824 C3822 1.388 . S
C3824 C3825 1.366 . S
C3825 C3824 1.366 . S
C3825 C3826 1.414 . S
C3825 C3828 1.499 . S
C3826 H3806 0.950 . S
C3826 C3825 1.414 . S
C3826 C3827 1.374 . S
C3827 H3807 0.950 . S
C3827 C3823 1.385 . S
C3827 C3826 1.374 . S
C3828 C3825 1.499 . S
C3828 C3829 1.373 . S
C3828 C3830 1.403 . S
C3829 H3808 0.950 . S
C3829 C3828 1.373 . S
C3829 C3845 1.352 1_455 S
C3830 C3828 1.403 . S
C3830 C3831 1.544 1_455 S
C3830 C3844 1.352 1_455 S
C3831 C3830 1.544 1_655 S
C3831 C3832 1.377 1_655 S
C3831 C3836 1.374 . S
C3832 H3809 0.950 . S
C3832 C3831 1.377 1_455 S
C3832 C3833 1.334 . S
C3833 H3810 0.950 . S
C3833 C3832 1.334 . S
C3833 C3834 1.287 1_455 S
C3834 C3833 1.287 1_655 S
C3834 C3835 1.524 . S
C3834 H3853 0.947 . S
C3835 H3811 0.950 . S
C3835 C3834 1.524 . S
C3835 C3836 1.415 . S
C3836 H3812 0.950 . S
C3836 C3831 1.374 . S
C3836 C3835 1.415 . S
C3837 H3813 0.951 . S
C3837 C3838 1.366 . S
C3837 C3839 1.388 . S
C3838 C3837 1.366 . S
C3838 C3842 1.385 . S
C3839 H3814 0.951 . S
C3839 C3837 1.388 . S
C3839 C3840 1.366 . S
C3840 C3839 1.366 . S
C3840 C3841 1.414 . S
C3840 C3843 1.499 . S
C3841 H3815 0.950 . S
C3841 C3840 1.414 . S
C3841 C3842 1.374 . S
C3842 H3816 0.950 . S
C3842 C3838 1.385 . S
C3842 C3841 1.374 . S
C3843 C3840 1.499 . S
C3843 C3844 1.373 . S
C3843 C3845 1.403 . S
C3844 H3817 0.950 . S
C3844 C3830 1.352 1_655 S
C3844 C3843 1.373 . S
C3845 C3829 1.352 1_655 S
C3845 C3843 1.403 . S
C3845 C3846 1.544 1_655 S
C3846 C3845 1.544 1_455 S
C3846 C3847 1.377 1_455 S
C3846 C3851 1.374 . S
C3847 H3818 0.950 . S
C3847 C3846 1.377 1_655 S
C3847 C3848 1.334 . S
C3848 H3819 0.950 . S
C3848 C3847 1.334 . S
C3848 C3849 1.287 1_655 S
C3849 C3848 1.287 1_455 S
C3849 C3850 1.524 . S
C3849 H3852 0.999 . S
C3850 H3820 0.950 . S
C3850 C3849 1.524 . S
C3850 C3851 1.415 . S
C3851 H3821 0.950 . S
C3851 C3846 1.374 . S
C3851 C3850 1.415 . S
H3852 C3849 0.999 . S
H3853 C3834 0.947 . S
H3854 C3872 0.951 . S
H3855 C3874 0.951 . S
H3856 C3876 0.950 . S
H3857 C3877 0.950 . S
H3858 C3879 0.950 . S
H3859 C3882 0.950 . S
H3860 C3883 0.950 . S
H3861 C3885 0.950 . S
H3862 C3886 0.950 . S
H3863 C3887 0.951 . S
H3864 C3889 0.951 . S
H3865 C3891 0.950 . S
H3866 C3892 0.950 . S
H3867 C3894 0.950 . S
H3868 C3897 0.950 . S
H3869 C3898 0.950 . S
H3870 C3900 0.950 . S
H3871 C3901 0.950 . S
C3872 H3854 0.951 . S
C3872 C3873 1.366 . S
C3872 C3874 1.388 . S
C3873 C3872 1.366 . S
C3873 C3877 1.385 . S
C3874 H3855 0.951 . S
C3874 C3872 1.388 . S
C3874 C3875 1.366 . S
C3875 C3874 1.366 . S
C3875 C3876 1.414 . S
C3875 C3878 1.499 . S
C3876 H3856 0.950 . S
C3876 C3875 1.414 . S
C3876 C3877 1.374 . S
C3877 H3857 0.950 . S
C3877 C3873 1.385 . S
C3877 C3876 1.374 . S
C3878 C3875 1.499 . S
C3878 C3879 1.373 . S
C3878 C3880 1.389 . S
C3879 H3858 0.950 . S
C3879 C3878 1.373 . S
C3879 C3895 1.377 . S
C3880 C3878 1.389 . S
C3880 C3881 1.524 . S
C3880 C3894 1.377 . S
C3881 C3880 1.524 . S
C3881 C3882 1.397 . S
C3881 C3886 1.363 . S
C3882 H3859 0.950 . S
C3882 C3881 1.397 . S
C3882 C3883 1.334 . S
C3883 H3860 0.950 . S
C3883 C3882 1.334 . S
C3883 C3884 1.287 . S
C3884 C3883 1.287 . S
C3884 C3885 1.524 . S
C3884 H3903 0.913 . S
C3885 H3861 0.950 . S
C3885 C3884 1.524 . S
C3885 C3886 1.415 . S
C3886 H3862 0.950 . S
C3886 C3881 1.363 . S
C3886 C3885 1.415 . S
C3887 H3863 0.951 . S
C3887 C3888 1.366 . S
C3887 C3889 1.388 . S
C3888 C3887 1.366 . S
C3888 C3892 1.385 . S
C3889 H3864 0.951 . S
C3889 C3887 1.388 . S
C3889 C3890 1.366 . S
C3890 C3889 1.366 . S
C3890 C3891 1.414 . S
C3890 C3893 1.499 . S
C3891 H3865 0.950 . S
C3891 C3890 1.414 . S
C3891 C3892 1.374 . S
C3892 H3866 0.950 . S
C3892 C3888 1.385 . S
C3892 C3891 1.374 . S
C3893 C3890 1.499 . S
C3893 C3894 1.373 . S
C3893 C3895 1.389 . S
C3894 H3867 0.950 . S
C3894 C3880 1.377 . S
C3894 C3893 1.373 . S
C3895 C3879 1.377 . S
C3895 C3893 1.389 . S
C3895 C3896 1.524 . S
C3896 C3895 1.524 . S
C3896 C3897 1.397 . S
C3896 C3901 1.363 . S
C3897 H3868 0.950 . S
C3897 C3896 1.397 . S
C3897 C3898 1.334 . S
C3898 H3869 0.950 . S
C3898 C3897 1.334 . S
C3898 C3899 1.287 . S
C3899 C3898 1.287 . S
C3899 C3900 1.524 . S
C3899 H3902 0.999 . S
C3900 H3870 0.950 . S
C3900 C3899 1.524 . S
C3900 C3901 1.415 . S
C3901 H3871 0.950 . S
C3901 C3896 1.363 . S
C3901 C3900 1.415 . S
H3902 C3899 0.999 . S
H3903 C3884 0.913 . S
H3904 C3922 0.951 . S
H3905 C3924 0.951 . S
H3906 C3926 0.950 . S
H3907 C3927 0.950 . S
H3908 C3929 0.950 . S
H3909 C3932 0.950 . S
H3910 C3933 0.950 . S
H3911 C3935 0.950 . S
H3912 C3936 0.950 . S
H3913 C3937 0.951 . S
H3914 C3939 0.951 . S
H3915 C3941 0.950 . S
H3916 C3942 0.950 . S
H3917 C3944 0.950 . S
H3918 C3947 0.950 . S
H3919 C3948 0.950 . S
H3920 C3950 0.950 . S
H3921 C3951 0.950 . S
C3922 H3904 0.951 . S
C3922 C3923 1.366 . S
C3922 C3924 1.388 . S
C3923 C3922 1.366 . S
C3923 C3927 1.385 . S
C3924 H3905 0.951 . S
C3924 C3922 1.388 . S
C3924 C3925 1.366 . S
C3925 C3924 1.366 . S
C3925 C3926 1.414 . S
C3925 C3928 1.499 . S
C3926 H3906 0.950 . S
C3926 C3925 1.414 . S
C3926 C3927 1.374 . S
C3927 H3907 0.950 . S
C3927 C3923 1.385 . S
C3927 C3926 1.374 . S
C3928 C3925 1.499 . S
C3928 C3929 1.373 . S
C3928 C3930 1.399 . S
C3929 H3908 0.950 . S
C3929 C3928 1.373 . S
C3929 C3945 1.370 1_545 S
C3930 C3928 1.399 . S
C3930 C3931 1.520 1_545 S
C3930 C3944 1.370 1_545 S
C3931 C3930 1.520 1_565 S
C3931 C3932 1.397 1_565 S
C3931 C3936 1.363 . S
C3932 H3909 0.950 . S
C3932 C3931 1.397 1_545 S
C3932 C3933 1.334 . S
C3933 H3910 0.950 . S
C3933 C3932 1.334 . S
C3933 C3934 1.287 1_545 S
C3934 C3933 1.287 1_565 S
C3934 C3935 1.524 . S
C3934 H3953 0.913 . S
C3935 H3911 0.950 . S
C3935 C3934 1.524 . S
C3935 C3936 1.415 . S
C3936 H3912 0.950 . S
C3936 C3931 1.363 . S
C3936 C3935 1.415 . S
C3937 H3913 0.951 . S
C3937 C3938 1.366 . S
C3937 C3939 1.388 . S
C3938 C3937 1.366 . S
C3938 C3942 1.385 . S
C3939 H3914 0.951 . S
C3939 C3937 1.388 . S
C3939 C3940 1.366 . S
C3940 C3939 1.366 . S
C3940 C3941 1.414 . S
C3940 C3943 1.499 . S
C3941 H3915 0.950 . S
C3941 C3940 1.414 . S
C3941 C3942 1.374 . S
C3942 H3916 0.950 . S
C3942 C3938 1.385 . S
C3942 C3941 1.374 . S
C3943 C3940 1.499 . S
C3943 C3944 1.373 . S
C3943 C3945 1.399 . S
C3944 H3917 0.950 . S
C3944 C3930 1.370 1_565 S
C3944 C3943 1.373 . S
C3945 C3929 1.370 1_565 S
C3945 C3943 1.399 . S
C3945 C3946 1.520 1_565 S
C3946 C3945 1.520 1_545 S
C3946 C3947 1.397 1_545 S
C3946 C3951 1.363 . S
C3947 H3918 0.950 . S
C3947 C3946 1.397 1_565 S
C3947 C3948 1.334 . S
C3948 H3919 0.950 . S
C3948 C3947 1.334 . S
C3948 C3949 1.287 1_565 S
C3949 C3948 1.287 1_545 S
C3949 C3950 1.524 . S
C3949 H3952 0.999 . S
C3950 H3920 0.950 . S
C3950 C3949 1.524 . S
C3950 C3951 1.415 . S
C3951 H3921 0.950 . S
C3951 C3946 1.363 . S
C3951 C3950 1.415 . S
H3952 C3949 0.999 . S
H3953 C3934 0.913 . S
H3954 C3972 0.951 . S
H3955 C3974 0.951 . S
H3956 C3976 0.950 1_554 S
H3957 C3977 0.950 . S
H3958 C3979 0.950 . S
H3959 C3982 0.950 . S
H3960 C3983 0.950 . S
H3961 C3985 0.950 . S
H3962 C3986 0.950 . S
H3963 C3987 0.951 . S
H3964 C3989 0.951 . S
H3965 C3991 0.950 1_556 S
H3966 C3992 0.950 . S
H3967 C3994 0.950 . S
H3968 C3997 0.950 . S
H3969 C3998 0.950 . S
H3970 C4000 0.950 . S
H3971 C4001 0.950 . S
C3972 H3954 0.951 . S
C3972 C3973 1.366 . S
C3972 C3974 1.388 . S
C3973 C3972 1.366 . S
C3973 C3977 1.385 . S
C3974 H3955 0.951 . S
C3974 C3972 1.388 . S
C3974 C3975 1.366 . S
C3975 C3974 1.366 . S
C3975 C3976 1.414 . S
C3975 C3978 1.499 . S
C3976 H3956 0.950 1_556 S
C3976 C3975 1.414 . S
C3976 C3977 1.374 . S
C3977 H3957 0.950 . S
C3977 C3973 1.385 . S
C3977 C3976 1.374 . S
C3978 C3975 1.499 . S
C3978 C3979 1.373 1_556 S
C3978 C3980 1.394 1_545 S
C3979 H3958 0.950 . S
C3979 C3978 1.373 1_554 S
C3979 C3995 1.369 . S
C3980 C3978 1.394 1_565 S
C3980 C3981 1.527 . S
C3980 C3994 1.369 . S
C3981 C3980 1.527 . S
C3981 C3982 1.397 1_565 S
C3981 C3986 1.363 . S
C3982 H3959 0.950 . S
C3982 C3981 1.397 1_545 S
C3982 C3983 1.334 . S
C3983 H3960 0.950 . S
C3983 C3982 1.334 . S
C3983 C3984 1.287 1_545 S
C3984 C3983 1.287 1_565 S
C3984 C3985 1.524 . S
C3984 H4003 0.913 . S
C3985 H3961 0.950 . S
C3985 C3984 1.524 . S
C3985 C3986 1.415 . S
C3986 H3962 0.950 . S
C3986 C3981 1.363 . S
C3986 C3985 1.415 . S
C3987 H3963 0.951 . S
C3987 C3988 1.366 . S
C3987 C3989 1.388 . S
C3988 C3987 1.366 . S
C3988 C3992 1.385 . S
C3989 H3964 0.951 . S
C3989 C3987 1.388 . S
C3989 C3990 1.366 . S
C3990 C3989 1.366 . S
C3990 C3991 1.414 . S
C3990 C3993 1.499 . S
C3991 H3965 0.950 1_554 S
C3991 C3990 1.414 . S
C3991 C3992 1.374 . S
C3992 H3966 0.950 . S
C3992 C3988 1.385 . S
C3992 C3991 1.374 . S
C3993 C3990 1.499 . S
C3993 C3994 1.373 1_554 S
C3993 C3995 1.394 1_565 S
C3994 H3967 0.950 . S
C3994 C3980 1.369 . S
C3994 C3993 1.373 1_556 S
C3995 C3979 1.369 . S
C3995 C3993 1.394 1_545 S
C3995 C3996 1.527 . S
C3996 C3995 1.527 . S
C3996 C3997 1.397 1_545 S
C3996 C4001 1.363 . S
C3997 H3968 0.950 . S
C3997 C3996 1.397 1_565 S
C3997 C3998 1.334 . S
C3998 H3969 0.950 . S
C3998 C3997 1.334 . S
C3998 C3999 1.287 1_565 S
C3999 C3998 1.287 1_545 S
C3999 C4000 1.524 . S
C3999 H4002 0.999 . S
C4000 H3970 0.950 . S
C4000 C3999 1.524 . S
C4000 C4001 1.415 . S
C4001 H3971 0.950 . S
C4001 C3996 1.363 . S
C4001 C4000 1.415 . S
H4002 C3999 0.999 . S
H4003 C3984 0.913 . S
H4004 C4022 0.951 . S
H4005 C4024 0.951 . S
H4006 C4026 0.950 1_554 S
H4007 C4027 0.950 . S
H4008 C4029 0.950 . S
H4009 C4032 0.950 . S
H4010 C4033 0.950 . S
H4011 C4035 0.950 . S
H4012 C4036 0.950 . S
H4013 C4037 0.951 . S
H4014 C4039 0.951 . S
H4015 C4041 0.950 1_556 S
H4016 C4042 0.950 . S
H4017 C4044 0.950 . S
H4018 C4047 0.950 . S
H4019 C4048 0.950 . S
H4020 C4050 0.950 . S
H4021 C4051 0.950 . S
C4022 H4004 0.951 . S
C4022 C4023 1.366 . S
C4022 C4024 1.388 . S
C4023 C4022 1.366 . S
C4023 C4027 1.385 . S
C4024 H4005 0.951 . S
C4024 C4022 1.388 . S
C4024 C4025 1.366 . S
C4025 C4024 1.366 . S
C4025 C4026 1.414 . S
C4025 C4028 1.499 . S
C4026 H4006 0.950 1_556 S
C4026 C4025 1.414 . S
C4026 C4027 1.374 . S
C4027 H4007 0.950 . S
C4027 C4023 1.385 . S
C4027 C4026 1.374 . S
C4028 C4025 1.499 . S
C4028 C4029 1.373 1_556 S
C4028 C4030 1.389 . S
C4029 H4008 0.950 . S
C4029 C4028 1.373 1_554 S
C4029 C4045 1.377 1_655 S
C4030 C4028 1.389 . S
C4030 C4031 1.530 . S
C4030 C4044 1.377 1_655 S
C4031 C4030 1.530 . S
C4031 C4032 1.388 . S
C4031 C4036 1.364 1_655 S
C4032 H4009 0.950 . S
C4032 C4031 1.388 . S
C4032 C4033 1.334 . S
C4033 H4010 0.950 . S
C4033 C4032 1.334 . S
C4033 C4034 1.287 1_655 S
C4034 C4033 1.287 1_455 S
C4034 C4035 1.524 . S
C4034 H4053 0.913 . S
C4035 H4011 0.950 . S
C4035 C4034 1.524 . S
C4035 C4036 1.415 . S
C4036 H4012 0.950 . S
C4036 C4031 1.364 1_455 S
C4036 C4035 1.415 . S
C4037 H4013 0.951 . S
C4037 C4038 1.366 . S
C4037 C4039 1.388 . S
C4038 C4037 1.366 . S
C4038 C4042 1.385 . S
C4039 H4014 0.951 . S
C4039 C4037 1.388 . S
C4039 C4040 1.366 . S
C4040 C4039 1.366 . S
C4040 C4041 1.414 . S
C4040 C4043 1.499 . S
C4041 H4015 0.950 1_554 S
C4041 C4040 1.414 . S
C4041 C4042 1.374 . S
C4042 H4016 0.950 . S
C4042 C4038 1.385 . S
C4042 C4041 1.374 . S
C4043 C4040 1.499 . S
C4043 C4044 1.373 1_554 S
C4043 C4045 1.389 . S
C4044 H4017 0.950 . S
C4044 C4030 1.377 1_455 S
C4044 C4043 1.373 1_556 S
C4045 C4029 1.377 1_455 S
C4045 C4043 1.389 . S
C4045 C4046 1.530 . S
C4046 C4045 1.530 . S
C4046 C4047 1.388 . S
C4046 C4051 1.364 1_455 S
C4047 H4018 0.950 . S
C4047 C4046 1.388 . S
C4047 C4048 1.334 . S
C4048 H4019 0.950 . S
C4048 C4047 1.334 . S
C4048 C4049 1.287 1_455 S
C4049 C4048 1.287 1_655 S
C4049 C4050 1.524 . S
C4049 H4052 0.999 . S
C4050 H4020 0.950 . S
C4050 C4049 1.524 . S
C4050 C4051 1.415 . S
C4051 H4021 0.950 . S
C4051 C4046 1.364 1_655 S
C4051 C4050 1.415 . S
H4052 C4049 0.999 . S
H4053 C4034 0.913 . S
H4054 C4072 0.951 . S
H4055 C4074 0.951 . S
H4056 C4076 0.950 . S
H4057 C4077 0.950 . S
H4058 C4079 0.950 . S
H4059 C4082 0.950 . S
H4060 C4083 0.950 . S
H4061 C4085 0.950 . S
H4062 C4086 0.950 . S
H4063 C4087 0.951 . S
H4064 C4089 0.951 . S
H4065 C4091 0.950 . S
H4066 C4092 0.950 . S
H4067 C4094 0.950 . S
H4068 C4097 0.950 . S
H4069 C4098 0.950 . S
H4070 C4100 0.950 . S
H4071 C4101 0.950 . S
C4072 H4054 0.951 . S
C4072 C4073 1.366 . S
C4072 C4074 1.388 . S
C4073 C4072 1.366 . S
C4073 C4077 1.385 . S
C4074 H4055 0.951 . S
C4074 C4072 1.388 . S
C4074 C4075 1.366 . S
C4075 C4074 1.366 . S
C4075 C4076 1.414 . S
C4075 C4078 1.499 . S
C4076 H4056 0.950 . S
C4076 C4075 1.414 . S
C4076 C4077 1.374 . S
C4077 H4057 0.950 . S
C4077 C4073 1.385 . S
C4077 C4076 1.374 . S
C4078 C4075 1.499 . S
C4078 C4079 1.373 1_556 S
C4078 C4080 1.389 . S
C4079 H4058 0.950 . S
C4079 C4078 1.373 1_554 S
C4079 C4095 1.377 . S
C4080 C4078 1.389 . S
C4080 C4081 1.524 . S
C4080 C4094 1.377 . S
C4081 C4080 1.524 . S
C4081 C4082 1.397 . S
C4081 C4086 1.363 . S
C4082 H4059 0.950 . S
C4082 C4081 1.397 . S
C4082 C4083 1.334 . S
C4083 H4060 0.950 . S
C4083 C4082 1.334 . S
C4083 C4084 1.287 . S
C4084 C4083 1.287 . S
C4084 C4085 1.524 . S
C4084 H4103 0.913 . S
C4085 H4061 0.950 . S
C4085 C4084 1.524 . S
C4085 C4086 1.415 . S
C4086 H4062 0.950 . S
C4086 C4081 1.363 . S
C4086 C4085 1.415 . S
C4087 H4063 0.951 . S
C4087 C4088 1.366 . S
C4087 C4089 1.388 . S
C4088 C4087 1.366 . S
C4088 C4092 1.385 . S
C4089 H4064 0.951 . S
C4089 C4087 1.388 . S
C4089 C4090 1.366 . S
C4090 C4089 1.366 . S
C4090 C4091 1.414 . S
C4090 C4093 1.499 . S
C4091 H4065 0.950 . S
C4091 C4090 1.414 . S
C4091 C4092 1.374 . S
C4092 H4066 0.950 . S
C4092 C4088 1.385 . S
C4092 C4091 1.374 . S
C4093 C4090 1.499 . S
C4093 C4094 1.373 1_554 S
C4093 C4095 1.389 . S
C4094 H4067 0.950 . S
C4094 C4080 1.377 . S
C4094 C4093 1.373 1_556 S
C4095 C4079 1.377 . S
C4095 C4093 1.389 . S
C4095 C4096 1.524 . S
C4096 C4095 1.524 . S
C4096 C4097 1.397 . S
C4096 C4101 1.363 . S
C4097 H4068 0.950 . S
C4097 C4096 1.397 . S
C4097 C4098 1.334 . S
C4098 H4069 0.950 . S
C4098 C4097 1.334 . S
C4098 C4099 1.287 . S
C4099 C4098 1.287 . S
C4099 C4100 1.524 . S
C4099 H4102 0.999 . S
C4100 H4070 0.950 . S
C4100 C4099 1.524 . S
C4100 C4101 1.415 . S
C4101 H4071 0.950 . S
C4101 C4096 1.363 . S
C4101 C4100 1.415 . S
H4102 C4099 0.999 . S
H4103 C4084 0.913 . S
C523 C0 1.252 . S
C538 C103 1.251 . S
C573 C14 1.252 . S
C588 C117 1.251 . S
C623 C89 1.251 . S
C638 C28 1.252 . S
C673 C159 1.251 . S
C688 C42 1.252 . S
C723 C56 1.252 . S
C738 C131 1.251 . S
C773 C70 1.252 . S
C788 C145 1.251 . S
C823 C19 1.251 . S
C838 C84 1.252 . S
C873 C33 1.251 . S
C888 C98 1.252 . S
C923 C112 1.252 . S
C938 C5 1.251 . S
C973 C126 1.251 . S
C988 C75 1.251 . S
C1023 C47 1.251 . S
C1038 C140 1.252 . S
C1073 C154 1.252 . S
C1088 C61 1.251 . S
C1123 C271 1.251 . S
C1138 C168 1.252 . S
C1173 C182 1.252 . S
C1188 C285 1.251 . S
C1223 C196 1.252 . S
C1238 C257 1.251 . S
C1273 C327 1.251 . S
C1288 C210 1.252 . S
C1323 C224 1.252 . S
C1338 C299 1.251 . S
C1373 C313 1.251 . S
C1388 C238 1.252 . S
C1423 C187 1.251 . S
C1438 C252 1.252 . S
C1473 C266 1.252 . S
C1488 C201 1.251 . S
C1523 C173 1.251 . S
C1538 C280 1.251 . S
C1573 C294 1.252 . S
C1588 C243 1.251 . S
C1623 C308 1.252 . S
C1638 C215 1.251 . S
C1673 C322 1.252 . S
C1688 C229 1.251 . S
C1723 C439 1.251 . S
C1738 C336 1.252 . S
C1773 C453 1.251 . S
C1788 C350 1.252 . S
C1823 C425 1.251 . S
C1838 C364 1.252 . S
C1873 C378 1.252 . S
C1888 C495 1.251 . S
C1923 C392 1.251 . S
C1938 C467 1.251 . S
C1973 C481 1.251 . S
C1988 C406 1.252 . S
C2023 C420 1.252 . S
C2038 C355 1.252 . S
C2073 C369 1.251 . S
C2088 C434 1.252 . S
C2123 C341 1.251 . S
C2138 C448 1.251 . S
C2173 C462 1.252 . S
C2188 C411 1.252 . S
C2223 C476 1.251 . S
C2238 C383 1.251 . S
C2273 C490 1.252 . S
C2288 C397 1.251 . S
C2323 C51 1.286 . S
C2338 C9 1.285 . S
C2373 C65 1.285 . S
C2388 C23 1.286 . S
C2423 C37 1.285 . S
C2438 C79 1.286 . S
C2473 C135 1.286 . S
C2488 C93 1.285 . S
C2523 C149 1.286 . S
C2538 C107 1.285 . S
C2573 C163 1.285 . S
C2588 C121 1.285 . S
C2623 C219 1.285 . S
C2638 C177 1.286 . S
C2673 C233 1.285 . S
C2688 C191 1.286 . S
C2723 C205 1.286 . S
C2738 C247 1.285 . S
C2773 C303 1.310 . S
C2788 C261 1.285 . S
C2823 C317 1.312 . S
C2838 C275 1.286 . S
C2873 C331 1.311 . S
C2888 C289 1.285 . S
C2923 C387 1.310 . S
C2938 C345 1.285 . S
C2973 C359 1.285 . S
C2988 C401 1.312 . S
C3023 C415 1.310 . S
C3038 C373 1.286 . S
C3073 C429 1.285 . S
C3088 C471 1.285 . S
C3123 C443 1.286 . S
C3138 C485 1.285 . S
C3173 C457 1.286 . S
C3188 C499 1.286 . S
C3223 C11 1.402 . S
C3238 C263 1.402 . S
C3273 C277 1.402 . S
C3288 C25 1.402 . S
C3323 C291 1.402 . S
C3338 C39 1.402 . S
C3373 C473 1.402 . S
C3388 C53 1.402 . S
C3423 C487 1.402 . S
C3438 C67 1.402 . S
C3473 C501 1.402 . S
C3488 C81 1.402 . S
C3523 C95 1.402 . S
C3538 C347 1.402 . S
C3573 C361 1.402 . S
C3588 C109 1.402 . S
C3623 C375 1.402 . S
C3638 C123 1.402 . S
C3673 C137 1.402 . S
C3688 C221 1.402 . S
C3723 C151 1.402 . S
C3738 C235 1.402 . S
C3773 C165 1.402 . S
C3788 C249 1.402 . S
C3823 C431 1.402 . S
C3838 C179 1.402 . S
C3873 C445 1.402 . S
C3888 C193 1.402 . S
C3923 C207 1.402 . S
C3938 C459 1.402 . S
C3973 C305 1.402 . S
C3988 C389 1.402 . S
C4023 C319 1.402 . S
C4038 C403 1.402 . S
C4073 C333 1.402 . S
C4088 C417 1.402 . S
