# Generated by pormake.
# Topology ecn, (8)-cn, num edge types: 1
# Building blocks:
#     Node 0, Type 0, BuildingBlock: TAGTUT_clean_sbu_1, # of connection points: 8
#     Node 1, Type 0, BuildingBlock: TAGTUT_clean_sbu_1, # of connection points: 8
#     Node 2, Type 0, BuildingBlock: TAGTUT_clean_sbu_1, # of connection points: 8
#     Node 3, Type 0, BuildingBlock: TAGTUT_clean_sbu_1, # of connection points: 8
#     Node 4, Type 0, BuildingBlock: TAGTUT_clean_sbu_1, # of connection points: 8
#     Node 5, Type 0, BuildingBlock: TAGTUT_clean_sbu_1, # of connection points: 8
#     Node 6, Type 0, BuildingBlock: TAGTUT_clean_sbu_1, # of connection points: 8
#     Node 7, Type 0, BuildingBlock: TAGTUT_clean_sbu_1, # of connection points: 8
#     Node 8, Type 0, BuildingBlock: TAGTUT_clean_sbu_1, # of connection points: 8
#     Edge 9, Type (0, 0), BuildingBlock: XIVTED_clean_linker_0, # of connection points: 2
#     Edge 10, Type (0, 0), BuildingBlock: XIVTED_clean_linker_0, # of connection points: 2
#     Edge 11, Type (0, 0), BuildingBlock: XIVTED_clean_linker_0, # of connection points: 2
#     Edge 12, Type (0, 0), BuildingBlock: XIVTED_clean_linker_0, # of connection points: 2
#     Edge 13, Type (0, 0), BuildingBlock: XIVTED_clean_linker_0, # of connection points: 2
#     Edge 14, Type (0, 0), BuildingBlock: XIVTED_clean_linker_0, # of connection points: 2
#     Edge 15, Type (0, 0), BuildingBlock: XIVTED_clean_linker_0, # of connection points: 2
#     Edge 16, Type (0, 0), BuildingBlock: XIVTED_clean_linker_0, # of connection points: 2
#     Edge 17, Type (0, 0), BuildingBlock: XIVTED_clean_linker_0, # of connection points: 2
#     Edge 18, Type (0, 0), BuildingBlock: XIVTED_clean_linker_0, # of connection points: 2
#     Edge 19, Type (0, 0), BuildingBlock: XIVTED_clean_linker_0, # of connection points: 2
#     Edge 20, Type (0, 0), BuildingBlock: XIVTED_clean_linker_0, # of connection points: 2
#     Edge 21, Type (0, 0), BuildingBlock: XIVTED_clean_linker_0, # of connection points: 2
#     Edge 22, Type (0, 0), BuildingBlock: XIVTED_clean_linker_0, # of connection points: 2
#     Edge 23, Type (0, 0), BuildingBlock: XIVTED_clean_linker_0, # of connection points: 2
#     Edge 24, Type (0, 0), BuildingBlock: XIVTED_clean_linker_0, # of connection points: 2
#     Edge 25, Type (0, 0), BuildingBlock: XIVTED_clean_linker_0, # of connection points: 2
#     Edge 26, Type (0, 0), BuildingBlock: XIVTED_clean_linker_0, # of connection points: 2
#     Edge 27, Type (0, 0), BuildingBlock: XIVTED_clean_linker_0, # of connection points: 2
#     Edge 28, Type (0, 0), BuildingBlock: XIVTED_clean_linker_0, # of connection points: 2
#     Edge 29, Type (0, 0), BuildingBlock: XIVTED_clean_linker_0, # of connection points: 2
#     Edge 30, Type (0, 0), BuildingBlock: XIVTED_clean_linker_0, # of connection points: 2
#     Edge 31, Type (0, 0), BuildingBlock: XIVTED_clean_linker_0, # of connection points: 2
#     Edge 32, Type (0, 0), BuildingBlock: XIVTED_clean_linker_0, # of connection points: 2
#     Edge 33, Type (0, 0), BuildingBlock: XIVTED_clean_linker_0, # of connection points: 2
#     Edge 34, Type (0, 0), BuildingBlock: XIVTED_clean_linker_0, # of connection points: 2
#     Edge 35, Type (0, 0), BuildingBlock: XIVTED_clean_linker_0, # of connection points: 2
#     Edge 36, Type (0, 0), BuildingBlock: XIVTED_clean_linker_0, # of connection points: 2
#     Edge 37, Type (0, 0), BuildingBlock: XIVTED_clean_linker_0, # of connection points: 2
#     Edge 38, Type (0, 0), BuildingBlock: XIVTED_clean_linker_0, # of connection points: 2
#     Edge 39, Type (0, 0), BuildingBlock: XIVTED_clean_linker_0, # of connection points: 2
#     Edge 40, Type (0, 0), BuildingBlock: XIVTED_clean_linker_0, # of connection points: 2
#     Edge 41, Type (0, 0), BuildingBlock: XIVTED_clean_linker_0, # of connection points: 2
#     Edge 42, Type (0, 0), BuildingBlock: XIVTED_clean_linker_0, # of connection points: 2
#     Edge 43, Type (0, 0), BuildingBlock: XIVTED_clean_linker_0, # of connection points: 2
#     Edge 44, Type (0, 0), BuildingBlock: XIVTED_clean_linker_0, # of connection points: 2
# Relax obj value: 0.102
# Max RMSD: 0.218
# Mean RMSD: 0.209
data_MOF--net-ecn--node1-TAGTUT_clean_sbu_1--edge1-XIVTED_clean_linker_0
_symmetry_space_group_name_H-M    P1
_symmetry_Int_Tables_number       1
_symmetry_cell_setting            triclinic
loop_
_symmetry_equiv_pos_as_xyz
'x, y, z'
_cell_length_a     51.75112
_cell_length_b     50.804113
_cell_length_c     14.854394
_cell_angle_alpha  89.957058
_cell_angle_beta   89.977126
_cell_angle_gamma 117.79837
loop_
_atom_site_label
_atom_site_type_symbol
_atom_site_fract_x
_atom_site_fract_y
_atom_site_fract_z
_atom_type_partial_charge
C0 C 1.0024 0.18672 0.03127 0.0
C1 C 0.03583 0.13897 0.19507 0.0
C2 C 0.12601 0.24648 0.26105 0.0
Mg3 Mg 0.04764 0.16339 0.00261 0.0
O4 O 0.07245 0.2019 0.04318 0.0
Mg5 Mg 0.06265 0.2138 0.16173 0.0
Mg6 Mg 0.11442 0.21353 0.06723 0.0
O7 O 0.15618 0.22491 0.09289 0.0
Mg8 Mg 0.18057 0.26361 0.13228 0.0
Mg9 Mg 0.16714 0.21226 -0.02171 0.0
C10 C 0.10314 0.18066 0.87435 0.0
C11 C 0.12054 0.15321 0.08539 0.0
O12 O 0.01825 0.20277 0.09634 0.0
O13 O 0.00914 0.16963 -0.01575 0.0
O14 O 0.04152 0.16514 0.22176 0.0
O15 O 0.03984 0.13388 0.1136 0.0
O16 O 0.07587 0.16414 0.89225 0.0
O17 O 0.12019 0.20139 0.92755 0.0
C18 C 0.10613 0.27266 0.0449 0.0
O19 O 0.12234 0.26052 0.02541 0.0
O20 O 0.08367 0.25968 0.09605 0.0
O21 O 0.21176 0.22285 0.05004 0.0
O22 O 0.21782 0.25646 0.15744 0.0
O23 O 0.18829 0.26036 0.91693 0.0
C24 C 0.22608 0.23934 0.11705 0.0
O25 O 0.18893 0.29264 0.01985 0.0
O26 O 0.15301 0.26375 0.2425 0.0
C27 C 0.19332 0.28665 0.93978 0.0
O28 O 0.10941 0.22549 0.20796 0.0
O29 O 0.10507 0.16618 0.10367 0.0
O30 O 0.14457 0.16603 0.04132 0.0
C31 C 0.76558 0.7783 0.07503 0.0
C32 C 0.72275 0.81975 0.92017 0.0
C33 C 0.82154 0.91581 0.89352 0.0
Mg34 Mg 0.74095 0.8227 0.11661 0.0
O35 O 0.77995 0.8492 0.09068 0.0
Mg36 Mg 0.79508 0.84523 0.97067 0.0
Mg37 Mg 0.79131 0.89252 0.09017 0.0
O38 O 0.80195 0.93583 0.08948 0.0
Mg39 Mg 0.83778 0.96517 0.04688 0.0
Mg40 Mg 0.79016 0.93796 0.21565 0.0
C41 C 0.75518 0.86887 0.27567 0.0
C42 C 0.73297 0.90139 0.08633 0.0
O43 O 0.78378 0.79656 0.01735 0.0
O44 O 0.7475 0.78416 0.11862 0.0
O45 O 0.74931 0.82671 0.90059 0.0
O46 O 0.71481 0.82008 0.00132 0.0
O47 O 0.73837 0.84292 0.24356 0.0
O48 O 0.77725 0.88837 0.2322 0.0
C49 C 0.85058 0.88525 0.10038 0.0
O50 O 0.8374 0.89979 0.12755 0.0
O51 O 0.83914 0.86401 0.04329 0.0
O52 O 0.80238 0.98636 0.18815 0.0
O53 O 0.83129 0.00442 0.06667 0.0
O54 O 0.83851 0.95629 0.26942 0.0
C55 C 0.81701 0.00751 0.13299 0.0
O56 O 0.86786 0.96716 0.1487 0.0
O57 O 0.83516 0.94342 0.91684 0.0
C58 C 0.86397 0.96554 0.23392 0.0
O59 O 0.80557 0.8952 0.94856 0.0
O60 O 0.7455 0.88684 0.05307 0.0
O61 O 0.74503 0.92077 0.14907 0.0
C62 C 0.22218 0.99564 0.93767 0.0
C63 C 0.1883 0.906 0.82633 0.0
C64 C 0.08729 0.90249 0.7861 0.0
Mg65 Mg 0.18681 0.93127 0.01065 0.0
O66 O 0.15564 0.93787 0.97712 0.0
Mg67 Mg 0.15529 0.9501 0.84918 0.0
Mg68 Mg 0.11527 0.90358 -0.01625 0.0
O69 O 0.07503 0.86912 -0.01086 0.0
Mg70 Mg 0.04293 0.87243 0.94549 0.0
Mg71 Mg 0.07527 0.8586 0.11772 0.0
C72 C 0.14388 0.89883 0.17142 0.0
C73 C 0.11817 0.84171 -0.00235 0.0
O74 O 0.20154 0.99092 0.88117 0.0
O75 O 0.22098 0.97584 -0.00667 0.0
O76 O 0.17822 0.92267 0.79284 0.0
O77 O 0.19074 0.90382 0.91086 0.0
O78 O 0.16999 0.91102 0.13987 0.0
O79 O 0.12204 0.89816 0.12844 0.0
C80 C 0.11129 0.96496 0.97187 0.0
O81 O 0.10183 0.93958 0.01046 0.0
O82 O 0.1309 0.97375 0.90997 0.0
O83 O 0.03004 0.81821 0.09171 0.0
O84 O 0.00885 0.8276 0.97236 0.0
O85 O 0.05068 0.88585 0.16247 0.0
C86 C 0.00884 0.81046 0.03575 0.0
O87 O 0.03835 0.90183 0.03697 0.0
O88 O 0.06058 0.88829 0.81231 0.0
C89 C 0.03978 0.9009 0.12248 0.0
O90 O 0.10887 0.90927 0.83955 0.0
O91 O 0.1282 0.86699 0.9577 0.0
O92 O 0.09907 0.83407 0.06092 0.0
C93 C 0.66967 0.52267 0.35671 0.0
C94 C 0.70025 0.4731 0.52393 0.0
C95 C 0.79108 0.57989 0.59661 0.0
Mg96 Mg 0.71427 0.49837 0.33261 0.0
O97 O 0.73905 0.53662 0.37518 0.0
Mg98 Mg 0.72848 0.5482 0.49304 0.0
Mg99 Mg 0.78075 0.54784 0.40183 0.0
O100 O 0.82226 0.55878 0.43021 0.0
Mg101 Mg 0.84654 0.59722 0.4716 0.0
Mg102 Mg 0.83386 0.54659 0.31588 0.0
C103 C 0.77066 0.51546 0.20872 0.0
C104 C 0.78632 0.48723 0.41964 0.0
O105 O 0.68493 0.5381 0.42361 0.0
O106 O 0.67652 0.50557 0.31016 0.0
O107 O 0.70621 0.49929 0.55115 0.0
O108 O 0.70482 0.46822 0.4428 0.0
O109 O 0.74328 0.49901 0.22504 0.0
O110 O 0.78738 0.53619 0.26246 0.0
C111 C 0.77323 0.60749 0.38042 0.0
O112 O 0.78932 0.59521 0.36101 0.0
O113 O 0.75043 0.59438 0.43008 0.0
O114 O 0.87799 0.55672 0.38968 0.0
O115 O 0.88358 0.58981 0.49831 0.0
O116 O 0.85548 0.59492 0.25621 0.0
C117 C 0.89198 0.57284 0.45768 0.0
O118 O 0.85546 0.62665 0.3601 0.0
O119 O 0.81824 0.59706 0.5799 0.0
C120 C 0.8603 0.62107 0.28007 0.0
O121 O 0.77475 0.55913 0.54248 0.0
O122 O 0.77084 0.50026 0.43702 0.0
O123 O 0.81067 0.50012 0.37723 0.0
C124 C 0.43218 0.10881 0.39906 0.0
C125 C 0.38911 0.14986 0.2433 0.0
C126 C 0.48697 0.24673 0.21807 0.0
Mg127 Mg 0.40689 0.15263 0.4402 0.0
O128 O 0.44592 0.17944 0.41498 0.0
Mg129 Mg 0.46139 0.17593 0.29533 0.0
Mg130 Mg 0.45634 0.22248 0.41387 0.0
O131 O 0.46569 0.2654 0.41319 0.0
Mg132 Mg 0.5006 0.29628 0.37037 0.0
Mg133 Mg 0.45271 0.26717 0.53812 0.0
C134 C 0.42055 0.19841 0.59997 0.0
C135 C 0.3964 0.22853 0.40822 0.0
O136 O 0.45053 0.12729 0.34209 0.0
O137 O 0.41378 0.11436 0.44195 0.0
O138 O 0.41579 0.15714 0.22461 0.0
O139 O 0.38082 0.14981 0.32427 0.0
O140 O 0.40407 0.17236 0.56798 0.0
O141 O 0.44227 0.21827 0.55622 0.0
C142 C 0.5162 0.21646 0.42678 0.0
O143 O 0.50275 0.23089 0.45264 0.0
O144 O 0.50512 0.19512 0.36983 0.0
O145 O 0.461 0.31397 0.50532 0.0
O146 O 0.49045 0.33345 0.38592 0.0
O147 O 0.5013 0.28843 0.59334 0.0
C148 C 0.47413 0.33502 0.44861 0.0
O149 O 0.53113 0.30071 0.47341 0.0
O150 O 0.49959 0.27431 0.24195 0.0
C151 C 0.52699 0.29892 0.55848 0.0
O152 O 0.47118 0.22574 0.2725 0.0
O153 O 0.41002 0.21517 0.37448 0.0
O154 O 0.4076 0.24766 0.47184 0.0
C155 C 0.88767 0.33044 0.26881 0.0
C156 C 0.85368 0.2402 0.16217 0.0
C157 C 0.75192 0.24018 0.12115 0.0
Mg158 Mg 0.85215 0.2665 0.34463 0.0
O159 O 0.82088 0.27258 0.3079 0.0
Mg160 Mg 0.82074 0.28461 0.18027 0.0
Mg161 Mg 0.78074 0.23797 0.3131 0.0
O162 O 0.74073 0.20301 0.31909 0.0
Mg163 Mg 0.70831 0.20651 0.2801 0.0
Mg164 Mg 0.74157 0.19227 0.44805 0.0
C165 C 0.80927 0.23605 0.50574 0.0
C166 C 0.78528 0.1769 0.32643 0.0
O167 O 0.86708 0.32553 0.21195 0.0
O168 O 0.88636 0.31088 0.3255 0.0
O169 O 0.84372 0.25676 0.12697 0.0
O170 O 0.85604 0.23844 0.24698 0.0
O171 O 0.83566 0.2486 0.47657 0.0
O172 O 0.7875 0.23281 0.45734 0.0
C173 C 0.77633 0.29912 0.30174 0.0
O174 O 0.76685 0.27364 0.33989 0.0
O175 O 0.79615 0.30816 0.24035 0.0
O176 O 0.69665 0.15141 0.42196 0.0
O177 O 0.6747 0.16124 0.30531 0.0
O178 O 0.71624 0.21828 0.49728 0.0
C179 C 0.67518 0.14379 0.36702 0.0
O180 O 0.70347 0.23492 0.37446 0.0
O181 O 0.72546 0.22582 0.14953 0.0
C182 C 0.70505 0.23341 0.45963 0.0
O183 O 0.77404 0.24401 0.16907 0.0
O184 O 0.79443 0.20202 0.28617 0.0
O185 O 0.76634 0.16872 0.39022 0.0
C186 C 0.33649 0.85357 0.6898 0.0
C187 C 0.36761 0.80471 0.85747 0.0
C188 C 0.4573 0.91253 0.93307 0.0
Mg189 Mg 0.38205 0.83042 0.66659 0.0
O190 O 0.40634 0.8686 0.71041 0.0
Mg191 Mg 0.39503 0.87986 0.82752 0.0
Mg192 Mg 0.44814 0.88057 0.7385 0.0
O193 O 0.48977 0.89238 0.76823 0.0
Mg194 Mg 0.51328 0.93107 0.80924 0.0
Mg195 Mg 0.50212 0.88048 0.65481 0.0
C196 C 0.43919 0.84846 0.54508 0.0
C197 C 0.45507 0.82076 0.75846 0.0
O198 O 0.35144 0.86905 0.75706 0.0
O199 O 0.34388 0.83688 0.6432 0.0
O200 O 0.37324 0.83077 0.88523 0.0
O201 O 0.37252 0.80016 0.77636 0.0
O202 O 0.41177 0.83175 0.56026 0.0
O203 O 0.45554 0.86913 0.59957 0.0
C204 C 0.43942 0.93943 0.71501 0.0
O205 O 0.45594 0.92755 0.69693 0.0
O206 O 0.41652 0.9261 0.76416 0.0
O207 O 0.54628 0.89169 0.73033 0.0
O208 O 0.5509 0.9248 0.83782 0.0
O209 O 0.52319 0.92874 0.59469 0.0
C210 C 0.55991 0.90817 0.79816 0.0
O211 O 0.52213 0.96033 0.69718 0.0
O212 O 0.48435 0.93025 0.91653 0.0
C213 C 0.52749 0.95479 0.6177 0.0
O214 O 0.44137 0.89163 0.87873 0.0
O215 O 0.43908 0.83332 0.77455 0.0
O216 O 0.47953 0.83401 0.71675 0.0
C217 C 0.09816 0.44165 0.73002 0.0
C218 C 0.0548 0.48329 0.57843 0.0
C219 C 0.15312 0.5801 0.55389 0.0
Mg220 Mg 0.07305 0.48536 0.77469 0.0
O221 O 0.112 0.51228 0.74896 0.0
Mg222 Mg 0.12722 0.5091 0.62853 0.0
Mg223 Mg 0.12245 0.55534 0.74918 0.0
O224 O 0.13193 0.59829 0.74995 0.0
Mg225 Mg 0.16714 0.62907 0.70838 0.0
Mg226 Mg 0.11897 0.59961 0.8753 0.0
C227 C 0.08683 0.5307 0.93556 0.0
C228 C 0.06261 0.56158 0.74509 0.0
O229 O 0.11641 0.46033 0.67329 0.0
O230 O 0.07986 0.44704 0.77406 0.0
O231 O 0.0814 0.49054 0.55848 0.0
O232 O 0.04682 0.48305 0.65987 0.0
O233 O 0.0704 0.50466 0.90346 0.0
O234 O 0.10841 0.55067 0.89164 0.0
C235 C 0.18237 0.54931 0.75965 0.0
O236 O 0.16895 0.56365 0.78663 0.0
O237 O 0.17112 0.52808 0.70235 0.0
O238 O 0.12795 0.64673 0.84484 0.0
O239 O 0.15755 0.66653 0.72604 0.0
O240 O 0.16732 0.62045 0.93097 0.0
C241 C 0.14147 0.66812 0.7895 0.0
O242 O 0.19752 0.63307 0.81191 0.0
O243 O 0.16601 0.6076 0.57868 0.0
C244 C 0.19309 0.63099 0.89684 0.0
O245 O 0.13711 0.559 0.60766 0.0
O246 O 0.07613 0.54821 0.71076 0.0
O247 O 0.0739 0.58058 0.80897 0.0
C248 C 0.55524 0.66107 0.62394 0.0
C249 C 0.52085 0.5729 0.50241 0.0
C250 C 0.42071 0.57293 0.46161 0.0
Mg251 Mg 0.51843 0.59585 0.68956 0.0
O252 O 0.48787 0.60346 0.65602 0.0
Mg253 Mg 0.48867 0.61757 0.5298 0.0
Mg254 Mg 0.44726 0.56949 0.6576 0.0
O255 O 0.40675 0.53532 0.6584 0.0
Mg256 Mg 0.3752 0.54008 0.61696 0.0
Mg257 Mg 0.4061 0.52265 0.78545 0.0
C258 C 0.47411 0.56222 0.8463 0.0
C259 C 0.44925 0.50692 0.66233 0.0
O260 O 0.53503 0.65741 0.56692 0.0
O261 O 0.55328 0.64038 0.67724 0.0
O262 O 0.51132 0.59027 0.47087 0.0
O263 O 0.5226 0.56949 0.58666 0.0
O264 O 0.5005 0.57448 0.81693 0.0
O265 O 0.45277 0.56184 0.80133 0.0
C266 C 0.44431 0.6315 0.65322 0.0
O267 O 0.43421 0.6056 0.68887 0.0
O268 O 0.46441 0.64086 0.59285 0.0
O269 O 0.36094 0.48309 0.75379 0.0
O270 O 0.34045 0.49496 0.63745 0.0
O271 O 0.38149 0.54932 0.83538 0.0
C272 C 0.34002 0.47661 0.69753 0.0
O273 O 0.37056 0.56812 0.71348 0.0
O274 O 0.39387 0.55886 0.48679 0.0
C275 C 0.37113 0.56535 0.79859 0.0
O276 O 0.44199 0.57752 0.51429 0.0
O277 O 0.45988 0.53288 0.62639 0.0
O278 O 0.42977 0.49858 0.72456 0.0
H279 H 0.26009 0.27016 0.25915 0.0
H280 H 0.3698 0.20002 0.24971 0.0
H281 H 0.25073 0.20361 0.06285 0.0
H282 H 0.3599 0.24929 0.47201 0.0
H283 H 0.3278 0.20111 0.17539 0.0
H284 H 0.29935 0.26448 0.32971 0.0
C285 C 0.26633 0.25439 0.23025 0.0
C286 C 0.2518 0.23729 0.15465 0.0
C287 C 0.33474 0.21139 0.24081 0.0
C288 C 0.29728 0.2305 0.23677 0.0
C289 C 0.35858 0.21062 0.28363 0.0
C290 C 0.3686 0.22471 0.36731 0.0
C291 C 0.32106 0.22662 0.28165 0.0
C292 C 0.35328 0.23831 0.40742 0.0
C293 C 0.2888 0.25103 0.27124 0.0
C294 C 0.26124 0.2173 0.1209 0.0
N295 N 0.3306 0.23912 0.36403 0.0
N296 N 0.28341 0.21444 0.16218 0.0
H297 H 0.79907 0.1415 0.43047 0.0
H298 H 0.82052 0.05204 0.01755 0.0
H299 H 0.79439 0.1646 0.15381 0.0
H300 H 0.81814 0.02925 0.2984 0.0
H301 H 0.81783 0.09753 0.06229 0.0
H302 H 0.81285 0.10415 0.37999 0.0
C303 C 0.80113 0.13871 0.35895 0.0
C304 C 0.7957 0.15601 0.29614 0.0
C305 C 0.81815 0.08259 0.11378 0.0
C306 C 0.81093 0.11298 0.23718 0.0
C307 C 0.81979 0.0568 0.08829 0.0
C308 C 0.81892 0.03667 0.15437 0.0
C309 C 0.81598 0.0881 0.20569 0.0
C310 C 0.81815 0.04383 0.24513 0.0
C311 C 0.80902 0.11744 0.32992 0.0
C312 C 0.79858 0.15163 0.20415 0.0
N313 N 0.81652 0.06875 0.2679 0.0
N314 N 0.80581 0.13031 0.17714 0.0
H315 H 0.95093 0.79475 0.01312 0.0
H316 H 0.85826 0.67384 0.2796 0.0
H317 H 0.00919 0.75906 0.08443 0.0
H318 H 0.8976 0.62661 0.14236 0.0
H319 H 0.89018 0.71881 0.19571 0.0
H320 H 0.90908 0.74643 0.05085 0.0
C321 C 0.95484 0.7766 0.0352 0.0
C322 C 0.98343 0.78085 0.04695 0.0
C323 C 0.8912 0.69838 0.18205 0.0
C324 C 0.9361 0.72595 0.08872 0.0
C325 C 0.87303 0.67271 0.22996 0.0
C326 C 0.87518 0.6464 0.2176 0.0
C327 C 0.91231 0.69796 0.12367 0.0
C328 C 0.8951 0.64637 0.1535 0.0
C329 C 0.93107 0.74922 0.05703 0.0
C330 C 0.98744 0.75672 0.0758 0.0
N331 N 0.91352 0.67202 0.11073 0.0
N332 N 0.96401 0.73025 0.09566 0.0
H333 H 0.72363 0.73016 0.16081 0.0
H334 H 0.80673 0.63484 0.23033 0.0
H335 H 0.81071 0.76387 0.05189 0.0
H336 H 0.74996 0.64367 0.42755 0.0
H337 H 0.80671 0.67656 0.14519 0.0
H338 H 0.72885 0.68999 0.23256 0.0
C339 C 0.74379 0.72894 0.15089 0.0
C340 C 0.76695 0.75079 0.10128 0.0
C341 C 0.79464 0.66946 0.20776 0.0
C342 C 0.77309 0.70462 0.18452 0.0
C343 C 0.79484 0.64591 0.25681 0.0
C344 C 0.77828 0.63568 0.33627 0.0
C345 C 0.77721 0.68217 0.23767 0.0
C346 C 0.76284 0.65051 0.36644 0.0
C347 C 0.7468 0.70605 0.19253 0.0
C348 C 0.79234 0.74757 0.08982 0.0
N349 N 0.76238 0.67262 0.31661 0.0
N350 N 0.79488 0.72496 0.13192 0.0
H351 H 0.22241 0.04785 -0.01829 0.0
H352 H 0.39443 0.12912 0.07762 0.0
H353 H 0.2794 0.00997 0.91953 0.0
H354 H 0.3321 0.13987 0.24652 0.0
H355 H 0.35458 0.09742 0.97699 0.0
H356 H 0.26491 0.09314 0.03621 0.0
C357 C 0.24403 0.04959 0.97629 0.0
C358 C 0.24759 0.02537 0.94569 0.0
C359 C 0.34978 0.10725 0.03515 0.0
C360 C 0.29594 0.07665 0.00796 0.0
C361 C 0.37252 0.12547 0.09252 0.0
C362 C 0.36656 0.13674 0.17183 0.0
C363 C 0.32094 0.1006 0.0563 0.0
C364 C 0.33766 0.13129 0.18702 0.0
C365 C 0.26815 0.07522 0.00817 0.0
C366 C 0.27588 0.02831 0.94215 0.0
N367 N 0.31587 0.11335 0.13035 0.0
N368 N 0.29897 0.05341 0.97334 0.0
H369 H 0.94604 0.1427 0.03833 0.0
H370 H 0.88123 0.25755 -0.00181 0.0
H371 H 0.99866 0.23595 -0.01974 0.0
H372 H 0.85665 0.18967 0.20233 0.0
H373 H 0.91331 0.2392 0.93075 0.0
H374 H 0.90215 0.1499 0.03623 0.0
C375 C 0.94815 0.16441 0.02213 0.0
C376 C 0.97574 0.18887 0.01022 0.0
C377 C 0.89986 0.22768 -0.01183 0.0
C378 C 0.92618 0.19712 0.00639 0.0
C379 C 0.8815 0.238 0.02631 0.0
C380 C 0.86613 0.22497 0.10571 0.0
C381 C 0.9021 0.20382 0.02866 0.0
C382 C 0.86767 0.20002 0.14038 0.0
C383 C 0.92325 0.16851 0.02101 0.0
C384 C 0.97761 0.21667 -0.00963 0.0
N385 N 0.88548 0.19038 0.10206 0.0
N386 N 0.95313 0.22015 -0.01022 0.0
H387 H 0.92466 0.60189 0.60409 0.0
H388 H 0.03622 0.53398 0.58547 0.0
H389 H 0.91757 0.53834 0.40005 0.0
H390 H 0.02582 0.58161 0.81144 0.0
H391 H 0.99401 0.53505 0.51264 0.0
H392 H 0.96394 0.59605 0.67398 0.0
C393 C 0.93141 0.58675 0.57338 0.0
C394 C 0.91754 0.57056 0.49571 0.0
C395 C 1.00088 0.54499 0.57852 0.0
C396 C 0.96303 0.56359 0.57698 0.0
C397 C 0.02484 0.5442 0.62049 0.0
C398 C 0.03476 0.55783 0.70479 0.0
C399 C 0.98698 0.55974 0.62087 0.0
C400 C 0.01926 0.571 0.74632 0.0
C401 C 0.95388 0.58329 0.61395 0.0
C402 C 0.92756 0.55132 0.45974 0.0
N403 N 0.99645 0.57182 0.70375 0.0
N404 N 0.94973 0.54837 0.50061 0.0
H405 H 0.47293 0.50664 0.4971 0.0
H406 H 0.42898 0.33736 0.5324 0.0
H407 H 0.44247 0.45598 0.74282 0.0
H408 H 0.50958 0.39327 0.39335 0.0
H409 H 0.42547 0.3813 0.57868 0.0
H410 H 0.48091 0.46632 0.43291 0.0
C411 C 0.46852 0.48738 0.53815 0.0
C412 C 0.45736 0.48478 0.62584 0.0
C413 C 0.44385 0.38397 0.53761 0.0
C414 C 0.46512 0.43852 0.55169 0.0
C415 C 0.44589 0.35893 0.51079 0.0
C416 C 0.47001 0.36168 0.46056 0.0
C417 C 0.46585 0.41215 0.51353 0.0
C418 C 0.49078 0.39024 0.43268 0.0
C419 C 0.4729 0.46443 0.50122 0.0
C420 C 0.45112 0.45897 0.67507 0.0
N421 N 0.48837 0.41464 0.46029 0.0
N422 N 0.45477 0.43673 0.63692 0.0
H423 H 0.52559 0.00768 0.61685 0.0
H424 H 0.61714 0.12797 0.34724 0.0
H425 H 0.56463 0.96015 0.47958 0.0
H426 H 0.67582 0.09233 0.41375 0.0
H427 H 0.57554 0.07975 0.38709 0.0
H428 H 0.55725 0.05243 0.53167 0.0
C429 C 0.54025 0.00643 0.56701 0.0
C430 C 0.54237 0.98009 0.55498 0.0
C431 C 0.59756 0.08252 0.39175 0.0
C432 C 0.57919 0.03142 0.45939 0.0
C433 C 0.6212 0.10984 0.36862 0.0
C434 C 0.64986 0.1141 0.37841 0.0
C435 C 0.60277 0.05931 0.42293 0.0
C436 C 0.65402 0.08999 0.40654 0.0
C437 C 0.55827 0.03197 0.51832 0.0
C438 C 0.56215 0.97992 0.49053 0.0
N439 N 0.63071 0.06358 0.4278 0.0
N440 N 0.5804 0.00546 0.4469 0.0
H441 H 0.38932 0.05961 0.47743 0.0
H442 H 0.47471 0.96763 0.56898 0.0
H443 H 0.4784 0.09569 0.38414 0.0
H444 H 0.4136 0.97402 0.75431 0.0
H445 H 0.47485 0.00887 0.48096 0.0
H446 H 0.39424 0.01964 0.55187 0.0
C447 C 0.40986 0.05892 0.47141 0.0
C448 C 0.43363 0.08138 0.42551 0.0
C449 C 0.46177 1.00135 0.54159 0.0
C450 C 0.43943 0.03547 0.51188 0.0
C451 C 0.46188 0.97807 0.59234 0.0
C452 C 0.44413 0.96731 0.66936 0.0
C453 C 0.44324 0.01325 0.56717 0.0
C454 C 0.42747 0.9813 0.69529 0.0
C455 C 0.41269 0.03616 0.51459 0.0
C456 C 0.45954 0.07888 0.41902 0.0
N457 N 0.42715 0.00316 0.64378 0.0
N458 N 0.4619 0.0564 0.46262 0.0
H459 H 0.99839 0.47489 0.58416 0.0
H460 H 0.94439 0.34465 0.23967 0.0
H461 H 0.05861 0.46154 0.41267 0.0
H462 H 0.88893 0.38229 0.32261 0.0
H463 H 0.98705 0.38947 0.29282 0.0
H464 H 0.95856 0.44412 0.48232 0.0
C465 C 1.00337 0.466 0.52417 0.0
C466 C 0.03189 0.47049 0.50783 0.0
C467 C 0.96569 0.3884 0.29716 0.0
C468 C 0.98617 0.43465 0.39187 0.0
C469 C 0.94139 0.36289 0.26634 0.0
C470 C 0.91327 0.36007 0.27577 0.0
C471 C 0.96172 0.41079 0.3408 0.0
C472 C 0.91037 0.38392 0.31289 0.0
C473 C 0.98058 0.44843 0.46593 0.0
C474 C 0.03698 0.45852 0.42854 0.0
N475 N 0.93424 0.40805 0.34592 0.0
N476 N 0.01426 0.44061 0.37471 0.0
H477 H 0.54439 0.59028 0.33277 0.0
H478 H 0.668 0.57289 0.30564 0.0
H479 H 0.52795 0.52432 0.53862 0.0
H480 H 0.61281 0.47977 0.35863 0.0
H481 H 0.62474 0.58059 0.3006 0.0
H482 H 0.57657 0.57381 0.25623 0.0
C483 C 0.54665 0.57169 0.36008 0.0
C484 C 0.53362 0.55877 0.44253 0.0
C485 C 0.62189 0.55824 0.30959 0.0
C486 C 0.57003 0.53997 0.35594 0.0
C487 C 0.64656 0.55392 0.31325 0.0
C488 C 0.64371 0.52571 0.33274 0.0
C489 C 0.59436 0.53431 0.32858 0.0
C490 C 0.6157 0.50181 0.34314 0.0
C491 C 0.56513 0.56247 0.31679 0.0
C492 C 0.53742 0.53485 0.47516 0.0
N493 N 0.59207 0.50682 0.34371 0.0
N494 N 0.5554 0.52638 0.43216 0.0
H495 H 0.59314 0.93947 0.94124 0.0
H496 H 0.70422 0.87054 0.93355 0.0
H497 H 0.58597 0.8737 0.74505 0.0
H498 H 0.69883 0.92571 0.14601 0.0
H499 H 0.6617 0.87089 0.86106 0.0
H500 H 0.63336 0.9354 0.01166 0.0
C501 C 0.60006 0.9242 0.91239 0.0
C502 C 0.58591 0.90688 0.83672 0.0
C503 C 0.66975 0.88271 0.92388 0.0
C504 C 0.63247 0.90197 0.91856 0.0
C505 C 0.69391 0.88236 0.96571 0.0
C506 C 0.70526 0.89814 0.04622 0.0
C507 C 0.657 0.89915 0.9625 0.0
C508 C 0.6911 0.91331 0.08399 0.0
C509 C 0.62309 0.92179 0.95321 0.0
C510 C 0.59617 0.88755 0.80309 0.0
N511 N 0.66797 0.91357 0.04165 0.0
N512 N 0.61883 0.8856 0.84422 0.0
H513 H 0.17321 0.72452 0.71457 0.0
H514 H 0.11821 0.79605 0.09254 0.0
H515 H 0.10351 0.67417 0.90225 0.0
H516 H 0.13628 0.83625 0.82854 0.0
H517 H 0.12616 0.75557 0.03381 0.0
H518 H 0.1709 0.77007 0.76186 0.0
C519 C 0.15733 0.72294 0.76464 0.0
C520 C 0.13884 0.69552 0.80537 0.0
C521 C 0.12872 0.77347 -0.01099 0.0
C522 C 0.13672 0.747 0.86042 0.0
C523 C 0.12425 0.79654 0.02247 0.0
C524 C 0.1267 0.8195 0.96531 0.0
C525 C 0.13568 0.7733 0.89779 0.0
C526 C 0.13453 0.81904 0.87491 0.0
C527 C 0.15613 0.74884 0.79162 0.0
C528 C 0.11863 0.69475 0.86988 0.0
N529 N 0.13872 0.79615 0.84347 0.0
N530 N 0.11841 0.72007 0.89603 0.0
H531 H 0.22738 0.28994 0.79483 0.0
H532 H 0.28227 0.46283 0.70216 0.0
H533 H 0.19382 0.34077 0.9417 0.0
H534 H 0.34015 0.42347 0.71194 0.0
H535 H 0.24101 0.41391 0.73888 0.0
H536 H 0.25985 0.3351 0.71141 0.0
C537 C 0.22619 0.31033 0.80771 0.0
C538 C 0.20807 0.31167 0.87596 0.0
C539 C 0.26269 0.416 0.73096 0.0
C540 C 0.24477 0.36304 0.78025 0.0
C541 C 0.2861 0.44372 0.70977 0.0
C542 C 0.3145 0.44699 0.70472 0.0
C543 C 0.2678 0.39146 0.74458 0.0
C544 C 0.31853 0.42175 0.71598 0.0
C545 C 0.24481 0.33605 0.76045 0.0
C546 C 0.20758 0.33878 0.89009 0.0
N547 N 0.29542 0.395 0.73546 0.0
N548 N 0.22581 0.36347 0.84301 0.0
H549 H 0.14167 0.30112 0.89945 0.0
H550 H 0.05508 0.39176 0.80451 0.0
H551 H 0.07958 0.30669 0.08253 0.0
H552 H 0.14471 0.42908 0.71559 0.0
H553 H 0.06007 0.35166 0.878 0.0
H554 H 0.1415 0.34208 0.81068 0.0
C555 C 0.12853 0.31131 0.92213 0.0
C556 C 0.11061 0.30039 -0.00127 0.0
C557 C 0.07862 0.36847 0.8418 0.0
C558 C 0.10941 0.34601 0.89574 0.0
C559 C 0.07575 0.39129 0.79916 0.0
C560 C 0.09966 0.41414 0.75492 0.0
C561 C 0.10554 0.36814 0.84021 0.0
C562 C 0.12575 0.41196 0.74921 0.0
C563 C 0.12826 0.33442 0.87096 0.0
C564 C 0.0936 0.31408 0.02385 0.0
N565 N 0.12814 0.38944 0.79236 0.0
N566 N 0.09314 0.3358 0.97196 0.0
H567 H 0.66698 0.81322 0.92139 0.0
H568 H 0.55744 0.71601 0.63484 0.0
H569 H 0.72562 0.7937 0.76176 0.0
H570 H 0.61173 0.67252 0.64137 0.0
H571 H 0.5994 0.76231 0.68644 0.0
H572 H 0.62655 0.78043 0.82438 0.0
C573 C 0.67152 0.8027 0.86447 0.0
C574 C 0.69976 0.80608 0.85027 0.0
C575 C 0.60216 0.74272 0.67519 0.0
C576 C 0.65343 0.76814 0.73961 0.0
C577 C 0.57838 0.71647 0.64476 0.0
C578 C 0.58118 0.69046 0.63445 0.0
C579 C 0.62888 0.74288 0.69399 0.0
C580 C 0.60867 0.69208 0.64913 0.0
C581 C 0.6484 0.78405 0.8088 0.0
C582 C 0.70426 0.79176 0.77551 0.0
N583 N 0.63141 0.71779 0.67833 0.0
N584 N 0.68121 0.77278 0.72461 0.0
H585 H 0.28023 0.80931 0.69061 0.0
H586 H 0.21475 0.92371 0.66073 0.0
H587 H 0.33298 0.90304 0.64004 0.0
H588 H 0.19233 0.85588 0.86409 0.0
H589 H 0.24665 0.90577 0.58949 0.0
H590 H 0.2363 0.8164 0.68808 0.0
C591 C 0.28238 0.83111 0.67568 0.0
C592 C 0.31 0.85572 0.66631 0.0
C593 C 0.23366 0.89416 0.64756 0.0
C594 C 0.26039 0.86386 0.66213 0.0
C595 C 0.21543 0.90426 0.68795 0.0
C596 C 0.20072 0.89112 0.7682 0.0
C597 C 0.23635 0.87035 0.68658 0.0
C598 C 0.20277 0.8663 0.80155 0.0
C599 C 0.25745 0.83515 0.67433 0.0
C600 C 0.3119 0.88364 0.64816 0.0
N601 N 0.22037 0.85683 0.76095 0.0
N602 N 0.28739 0.88707 0.64751 0.0
H603 H 0.10584 0.97813 0.14589 0.0
H604 H 0.07031 0.10978 0.01844 0.0
H605 H 0.09482 0.99949 0.8723 0.0
H606 H 0.14458 0.12465 0.18226 0.0
H607 H 0.05763 0.05687 0.00771 0.0
H608 H 0.09854 0.02017 0.19836 0.0
C609 C 0.10102 0.99115 0.09731 0.0
C610 C 0.10129 0.98587 0.00475 0.0
C611 C 0.076 0.07158 0.04884 0.0
C612 C 0.09212 0.03272 0.06403 0.0
C613 C 0.08312 0.10157 0.05549 0.0
C614 C 0.10841 0.12124 0.10153 0.0
C615 C 0.09409 0.06144 0.08981 0.0
C616 C 0.12486 0.10992 0.14645 0.0
C617 C 0.09689 0.01496 0.12722 0.0
C618 C 0.09508 0.00324 0.94412 0.0
N619 N 0.11754 0.08064 0.13891 0.0
N620 N 0.09085 0.02608 0.97485 0.0
H621 H 0.03633 0.08547 0.19375 0.0
H622 H 0.87337 0.00808 0.35971 0.0
H623 H 0.99525 0.13209 0.32412 0.0
H624 H 0.91573 0.96364 0.22563 0.0
H625 H 0.92135 0.04986 0.39284 0.0
H626 H 0.99747 0.0385 0.24955 0.0
C627 C 0.01956 0.08589 0.23647 0.0
C628 C 0.01877 0.11269 0.25291 0.0
C629 C 0.92024 0.03051 0.35889 0.0
C630 C 0.97347 0.05876 0.31476 0.0
C631 C 0.89279 0.00639 0.34114 0.0
C632 C 0.89057 0.98247 0.28849 0.0
C633 C 0.94551 0.03059 0.32353 0.0
C634 C 0.91646 0.98176 0.26503 0.0
C635 C 0.99722 0.05899 0.26807 0.0
C636 C 0.99663 0.11191 0.30933 0.0
N637 N 0.94279 0.0057 0.28085 0.0
N638 N 0.97441 0.0853 0.33618 0.0
H639 H 0.86664 0.85248 0.20947 0.0
H640 H 0.03361 0.95065 0.09385 0.0
H641 H 0.90096 0.9355 0.06531 0.0
H642 H 1.00058 0.87093 0.25473 0.0
H643 H 0.98766 0.95231 0.11586 0.0
H644 H 0.91649 0.86381 0.25292 0.0
C645 C 0.88478 0.87332 0.18823 0.0
C646 C 0.87996 0.89323 0.1344 0.0
C647 C 0.99069 0.93492 0.1488 0.0
C648 C 0.93694 0.90623 0.18221 0.0
C649 C 0.01717 0.93428 0.13747 0.0
C650 C 0.02073 0.91038 0.17146 0.0
C651 C 0.96749 0.91121 0.19313 0.0
C652 C 0.9987 0.88969 0.22707 0.0
C653 C 0.91319 0.87986 0.21317 0.0
C654 C 0.90397 0.91974 0.10745 0.0
N655 N 0.97263 0.89003 0.23385 0.0
N656 N 0.93149 0.92535 0.13081 0.0
H657 H 0.76999 0.31144 0.47587 0.0
H658 H 0.73598 0.44428 0.35152 0.0
H659 H 0.76043 0.33418 0.20253 0.0
H660 H 0.80983 0.45803 0.51579 0.0
H661 H 0.72288 0.3913 0.3394 0.0
H662 H 0.76264 0.35335 0.52925 0.0
C663 C 0.76546 0.32472 0.42749 0.0
C664 C 0.76618 0.31988 0.33481 0.0
C665 C 0.74124 0.40578 0.38095 0.0
C666 C 0.75696 0.36659 0.39507 0.0
C667 C 0.7486 0.43581 0.38838 0.0
C668 C 0.77391 0.4552 0.43487 0.0
C669 C 0.75909 0.39531 0.42169 0.0
C670 C 0.79011 0.44354 0.47956 0.0
C671 C 0.7613 0.34846 0.45793 0.0
C672 C 0.76035 0.3376 0.27446 0.0
N673 N 0.78255 0.41422 0.4713 0.0
N674 N 0.75609 0.36037 0.30568 0.0
H675 H 0.69976 0.41914 0.52286 0.0
H676 H 0.5357 0.34261 0.67939 0.0
H677 H 0.65873 0.46645 0.64933 0.0
H678 H 0.57881 0.29719 0.5557 0.0
H679 H 0.58351 0.38472 0.71253 0.0
H680 H 0.66015 0.37234 0.57684 0.0
C681 C 0.68281 0.41973 0.56433 0.0
C682 C 0.68233 0.44671 0.58038 0.0
C683 C 0.58259 0.36511 0.6809 0.0
C684 C 0.63617 0.39297 0.64005 0.0
C685 C 0.55524 0.34082 0.66319 0.0
C686 C 0.55331 0.31645 0.61359 0.0
C687 C 0.60807 0.36492 0.64847 0.0
C688 C 0.57933 0.31563 0.59286 0.0
C689 C 0.66005 0.39294 0.59488 0.0
C690 C 0.65991 0.44614 0.63502 0.0
N691 N 0.60557 0.3397 0.60857 0.0
N692 N 0.6373 0.41964 0.66086 0.0
H693 H 0.53164 0.1813 0.52665 0.0
H694 H 0.69905 0.28354 0.43839 0.0
H695 H 0.56637 0.2685 0.40789 0.0
H696 H 0.66525 0.20153 0.58819 0.0
H697 H 0.65272 0.28446 0.45952 0.0
H698 H 0.58094 0.19243 0.57532 0.0
C699 C 0.54973 0.20298 0.51212 0.0
C700 C 0.54518 0.22414 0.46387 0.0
C701 C 0.65565 0.26672 0.49043 0.0
C702 C 0.60163 0.23697 0.51772 0.0
C703 C 0.68234 0.26648 0.47967 0.0
C704 C 0.68582 0.24219 0.51047 0.0
C705 C 0.63218 0.2422 0.53087 0.0
C706 C 0.66344 0.22061 0.563 0.0
C707 C 0.57783 0.20942 0.54016 0.0
C708 C 0.56915 0.25177 0.44575 0.0
N709 N 0.63718 0.22058 0.56905 0.0
N710 N 0.59644 0.25729 0.47173 0.0
H711 H 0.40448 0.77679 0.69506 0.0
H712 H 0.44217 0.6468 0.82719 0.0
H713 H 0.48007 0.79281 0.85388 0.0
H714 H 0.42468 0.66359 0.55527 0.0
H715 H 0.43558 0.6894 0.87851 0.0
H716 H 0.39137 0.72373 0.68872 0.0
C717 C 0.41755 0.76885 0.73187 0.0
C718 C 0.44327 0.78886 0.77531 0.0
C719 C 0.43232 0.68304 0.80819 0.0
C720 C 0.4285 0.72886 0.76842 0.0
C721 C 0.43601 0.6589 0.779 0.0
C722 C 0.43427 0.65222 0.68698 0.0
C723 C 0.42601 0.69973 0.74495 0.0
C724 C 0.42646 0.66844 0.62665 0.0
C725 C 0.41018 0.73877 0.7277 0.0
C726 C 0.46004 0.77784 0.8199 0.0
N727 N 0.42273 0.69165 0.65668 0.0
N728 N 0.45248 0.74844 0.81477 0.0
H729 H 0.24121 0.62316 0.92912 0.0
H730 H 0.36598 0.75029 0.85 0.0
H731 H 0.20442 0.68176 -0.01534 0.0
H732 H 0.32695 0.79777 -0.01334 0.0
H733 H 0.32635 0.70368 0.90119 0.0
H734 H 0.28991 0.66374 0.95952 0.0
C735 C 0.24345 0.64449 0.94959 0.0
C736 C 0.21894 0.64929 0.95241 0.0
C737 C 0.32665 0.72405 0.92345 0.0
C738 C 0.27473 0.6967 -0.01774 0.0
C739 C 0.34952 0.75091 0.8937 0.0
C740 C 0.34966 0.77802 0.91296 0.0
C741 C 0.30334 0.72414 0.97217 0.0
C742 C 0.32773 0.77741 0.96994 0.0
C743 C 0.27135 0.66795 0.96575 0.0
C744 C 0.22283 0.67714 -0.01827 0.0
N745 N 0.30507 0.7509 -0.00454 0.0
N746 N 0.25024 0.7 -0.00677 0.0
H747 H 0.33152 0.53272 0.92674 0.0
H748 H 0.23091 0.60356 0.76077 0.0
H749 H 0.36382 0.61486 0.77791 0.0
H750 H 0.19984 0.51207 0.83865 0.0
H751 H 0.28035 0.61447 0.80943 0.0
H752 H 0.28474 0.53305 0.94558 0.0
C753 C 0.32934 0.55168 0.90218 0.0
C754 C 0.35136 0.5735 0.84917 0.0
C755 C 0.26261 0.59213 0.81729 0.0
C756 C 0.29767 0.5735 0.86778 0.0
C757 C 0.23449 0.58594 0.78965 0.0
C758 C 0.21149 0.55694 0.79595 0.0
C759 C 0.26757 0.56912 0.85204 0.0
C760 C 0.21714 0.53473 0.83265 0.0
C761 C 0.30239 0.55154 0.91137 0.0
C762 C 0.34718 0.59739 0.81822 0.0
N763 N 0.24462 0.54125 0.85911 0.0
N764 N 0.32056 0.59638 0.8259 0.0
H765 H 0.07142 0.1456 0.73406 0.0
H766 H 0.15783 0.28122 0.40174 0.0
H767 H 0.15447 0.2209 0.79691 0.0
H768 H 0.07488 0.20583 0.33851 0.0
H769 H 0.15503 0.26126 0.55208 0.0
H770 H 0.07439 0.16533 0.58326 0.0
C771 C 0.09075 0.16583 0.71543 0.0
C772 C 0.11189 0.18268 0.77968 0.0
C773 C 0.1373 0.24922 0.50548 0.0
C774 C 0.11499 0.20558 0.60902 0.0
C775 C 0.13856 0.26091 0.42017 0.0
C776 C 0.11738 0.24414 0.35591 0.0
C777 C 0.11448 0.22098 0.52612 0.0
C778 C 0.09238 0.21872 0.38471 0.0
C779 C 0.09212 0.17739 0.62987 0.0
C780 C 0.13699 0.20796 0.7507 0.0
N781 N 0.09201 0.20733 0.46728 0.0
N782 N 0.13746 0.21925 0.6679 0.0
H783 H 0.73297 0.82721 0.40866 0.0
H784 H 0.80558 0.86184 0.81453 0.0
H785 H 0.7745 0.92202 0.36284 0.0
H786 H 0.82704 0.95296 0.75536 0.0
H787 H 0.78193 0.847 0.66913 0.0
H788 H 0.74865 0.83626 0.56463 0.0
C789 C 0.74491 0.84999 0.4319 0.0
C790 C 0.75372 0.87395 0.3719 0.0
C791 C 0.79144 0.87018 0.68788 0.0
C792 C 0.77341 0.88443 0.54778 0.0
C793 C 0.80557 0.87874 0.7703 0.0
C794 C 0.81753 0.90849 0.79784 0.0
C795 C 0.7893 0.89167 0.63334 0.0
C796 C 0.81784 0.9297 0.73712 0.0
C797 C 0.75464 0.85515 0.52052 0.0
C798 C 0.76849 0.90291 0.4058 0.0
N799 N 0.80344 0.92077 0.65807 0.0
N800 N 0.77851 0.90737 0.49125 0.0
H801 H 0.0521 0.86599 0.65658 0.0
H802 H 0.1826 0.92399 0.30672 0.0
H803 H 0.13677 0.94156 0.69925 0.0
H804 H 0.09615 0.8535 0.25021 0.0
H805 H 0.169 0.92266 0.46392 0.0
H806 H 0.06881 0.85761 0.5118 0.0
C807 C 0.07397 0.88133 0.63437 0.0
C808 C 0.09339 0.90418 0.69029 0.0
C809 C 0.15308 0.90723 0.41723 0.0
C810 C 0.11283 0.89405 0.52743 0.0
C811 C 0.16096 0.90766 0.32794 0.0
C812 C 0.13975 0.89002 0.26537 0.0
C813 C 0.12392 0.88914 0.44232 0.0
C814 C 0.11237 0.86879 0.29591 0.0
C815 C 0.08369 0.8761 0.5528 0.0
C816 C 0.12146 0.92327 0.65886 0.0
N817 N 0.10486 0.86943 0.38254 0.0
N818 N 0.13053 0.91757 0.57948 0.0
H819 H 0.81913 0.61797 0.73564 0.0
H820 H 0.82394 0.55321 0.13538 0.0
H821 H 0.74273 0.53519 0.67468 0.0
H822 H 0.73871 0.48271 0.06537 0.0
H823 H 0.8284 0.57381 -0.0144 0.0
H824 H 0.81859 0.60039 0.88784 0.0
C825 C 0.80183 0.59631 0.7549 0.0
C826 C 0.78202 0.57722 0.69102 0.0
C827 C 0.80854 0.55406 0.00302 0.0
C828 C 0.78237 0.55625 0.86238 0.0
C829 C 0.80637 0.54172 0.0879 0.0
C830 C 0.78003 0.5175 0.11473 0.0
C831 C 0.78419 0.54172 0.94561 0.0
C832 C 0.7588 0.50244 0.04896 0.0
C833 C 0.80212 0.58586 0.84111 0.0
C834 C 0.75927 0.55011 0.72061 0.0
N835 N 0.7609 0.51542 0.96796 0.0
N836 N 0.7606 0.53996 0.80369 0.0
H837 H 0.50081 0.28562 0.07799 0.0
H838 H 0.40547 0.1573 0.73326 0.0
H839 H 0.46603 0.19203 0.13827 0.0
H840 H 0.43485 0.25078 0.686 0.0
H841 H 0.42414 0.16884 0.88653 0.0
H842 H 0.47897 0.2728 0.92952 0.0
C843 C 0.48918 0.26234 0.0594 0.0
C844 C 0.48425 0.23977 0.12179 0.0
C845 C 0.42615 0.18679 0.8429 0.0
C846 C 0.45845 0.22502 0.95345 0.0
C847 C 0.41494 0.18016 0.75609 0.0
C848 C 0.41963 0.20333 0.69638 0.0
C849 C 0.44196 0.21669 0.86894 0.0
C850 C 0.43186 0.23246 0.72916 0.0
C851 C 0.4762 0.25504 0.97516 0.0
C852 C 0.4694 0.21007 0.09336 0.0
N853 N 0.44324 0.23846 0.81302 0.0
N854 N 0.45649 0.20347 0.01148 0.0
H855 H 0.84558 0.27046 0.63603 0.0
H856 H 0.7144 0.21217 -0.01517 0.0
H857 H 0.76164 0.19403 0.59294 0.0
H858 H 0.80016 0.28421 0.04042 0.0
H859 H 0.72945 0.21062 0.83098 0.0
H860 H 0.82953 0.27667 0.78468 0.0
C861 C 0.82407 0.2544 0.65913 0.0
C862 C 0.80445 0.23221 0.60195 0.0
C863 C 0.74493 0.22695 0.87674 0.0
C864 C 0.78571 0.23986 0.76871 0.0
C865 C 0.7362 0.22822 0.96399 0.0
C866 C 0.75671 0.24731 0.02598 0.0
C867 C 0.77421 0.24492 0.85275 0.0
C868 C 0.78435 0.26803 -0.00444 0.0
C869 C 0.8147 0.25837 0.74294 0.0
C870 C 0.77692 0.21202 0.63437 0.0
N871 N 0.79266 0.26584 0.91097 0.0
N872 N 0.76808 0.21662 0.71562 0.0
H873 H 0.49041 0.89025 0.47077 0.0
H874 H 0.40669 0.86981 0.00786 0.0
H875 H 0.40971 0.81261 0.40341 0.0
H876 H 0.48736 0.94746 0.07567 0.0
H877 H 0.4056 0.84998 0.1573 0.0
H878 H 0.49211 0.90946 0.32007 0.0
C879 C 0.47351 0.87674 0.42351 0.0
C880 C 0.44885 0.85079 0.45127 0.0
C881 C 0.4234 0.87151 0.13973 0.0
C882 C 0.45032 0.87282 0.28037 0.0
C883 C 0.42372 0.88317 0.05498 0.0
C884 C 0.44813 0.90941 0.02758 0.0
C885 C 0.44736 0.88665 0.19707 0.0
C886 C 0.46881 0.9264 0.09276 0.0
C887 C 0.47419 0.88804 0.33797 0.0
C888 C 0.4284 0.83352 0.38594 0.0
N889 N 0.46848 0.91425 0.17407 0.0
N890 N 0.42903 0.84536 0.30388 0.0
H891 H 0.16533 0.6191 0.4149 0.0
H892 H 0.07301 0.48982 0.06884 0.0
H893 H 0.13363 0.52577 0.47303 0.0
H894 H 0.09994 0.58282 0.02146 0.0
H895 H 0.09162 0.50181 0.2221 0.0
H896 H 0.14354 0.60596 0.2663 0.0
C897 C 0.15443 0.59585 0.39575 0.0
C898 C 0.15039 0.57338 0.45749 0.0
C899 C 0.09311 0.51955 0.17845 0.0
C900 C 0.12463 0.55822 0.28914 0.0
C901 C 0.08194 0.51265 0.09166 0.0
C902 C 0.08595 0.5356 0.03196 0.0
C903 C 0.10822 0.54951 0.20451 0.0
C904 C 0.09752 0.56471 0.06464 0.0
C905 C 0.14147 0.58834 0.31148 0.0
C906 C 0.13637 0.5437 0.42855 0.0
N907 N 0.10888 0.57099 0.14851 0.0
N908 N 0.12347 0.53689 0.34668 0.0
H909 H 0.47158 0.6118 0.38 0.0
H910 H 0.42488 0.51941 0.92629 0.0
H911 H 0.38438 0.54218 0.32545 0.0
H912 H 0.51233 0.58804 -0.01774 0.0
H913 H 0.41096 0.5231 0.08014 0.0
H914 H 0.48717 0.60324 0.23374 0.0
C915 C 0.45562 0.59512 0.33653 0.0
C916 C 0.427 0.57695 0.36575 0.0
C917 C 0.43331 0.53707 0.05909 0.0
C918 C 0.44454 0.56676 0.19984 0.0
C919 C 0.44125 0.53483 0.97156 0.0
C920 C 0.46925 0.55455 0.9411 0.0
C921 C 0.45369 0.5592 0.11511 0.0
C922 C 0.49022 0.57298 0.00307 0.0
C923 C 0.46457 0.58997 0.25357 0.0
C924 C 0.40681 0.55641 0.30577 0.0
N925 N 0.48178 0.57548 0.08723 0.0
N926 N 0.41614 0.55147 0.22573 0.0
loop_
_geom_bond_atom_site_label_1
_geom_bond_atom_site_label_2
_geom_bond_distance
_geom_bond_site_symmetry_2
_ccdc_geom_bond_type
C0 O12 1.241 . S
C0 O13 1.280 1_554 S
C1 O14 1.277 . S
C1 O15 1.245 . S
C2 O26 1.247 . S
C2 O28 1.289 . S
Mg3 O4 1.926 1_556 S
Mg3 O13 1.984 . S
Mg3 O15 1.988 1_556 S
Mg3 O16 2.061 . S
O4 Mg3 1.926 1_554 S
O4 Mg5 1.986 . S
O4 Mg6 1.917 . S
Mg5 O4 1.986 . S
Mg5 O12 2.042 . S
Mg5 O14 2.041 . S
Mg5 O20 2.038 . S
Mg5 O28 2.238 . S
Mg6 O4 1.917 . S
Mg6 O7 1.917 . S
Mg6 O17 2.106 1_554 S
Mg6 O19 2.079 . S
Mg6 O28 2.106 . S
Mg6 O29 2.079 . S
O7 Mg6 1.917 . S
O7 Mg8 1.926 . S
O7 Mg9 1.986 1_554 S
Mg8 O7 1.926 . S
Mg8 O22 1.984 . S
Mg8 O25 1.988 . S
Mg8 O26 2.061 . S
Mg9 O7 1.986 1_556 S
Mg9 O17 2.238 . S
Mg9 O21 2.042 1_556 S
Mg9 O23 2.041 . S
Mg9 O30 2.038 . S
C10 O16 1.247 . S
C10 O17 1.289 . S
C11 O29 1.245 . S
C11 O30 1.274 1_554 S
O12 C0 1.241 . S
O12 Mg5 2.042 . S
O13 C0 1.280 1_556 S
O13 Mg3 1.984 . S
O14 C1 1.277 . S
O14 Mg5 2.041 . S
O15 C1 1.245 . S
O15 Mg3 1.988 1_554 S
O16 Mg3 2.061 . S
O16 C10 1.247 . S
O17 Mg6 2.106 1_556 S
O17 Mg9 2.238 . S
O17 C10 1.289 . S
C18 O19 1.245 . S
C18 O20 1.274 . S
O19 Mg6 2.079 . S
O19 C18 1.245 . S
O20 Mg5 2.038 . S
O20 C18 1.274 . S
O21 Mg9 2.042 1_554 S
O21 C24 1.241 . S
O22 Mg8 1.984 . S
O22 C24 1.280 . S
O23 Mg9 2.041 . S
O23 C27 1.277 . S
C24 O21 1.241 . S
C24 O22 1.280 . S
O25 Mg8 1.988 . S
O25 C27 1.245 1_554 S
O26 C2 1.247 . S
O26 Mg8 2.061 . S
C27 O23 1.277 . S
C27 O25 1.245 1_556 S
O28 C2 1.289 . S
O28 Mg5 2.238 . S
O28 Mg6 2.106 . S
O29 Mg6 2.079 . S
O29 C11 1.245 . S
O30 Mg9 2.038 . S
O30 C11 1.274 1_556 S
C31 O43 1.241 . S
C31 O44 1.280 . S
C32 O45 1.277 . S
C32 O46 1.245 . S
C33 O57 1.247 . S
C33 O59 1.289 . S
Mg34 O35 1.926 . S
Mg34 O44 1.984 . S
Mg34 O46 1.988 . S
Mg34 O47 2.061 . S
O35 Mg34 1.926 . S
O35 Mg36 1.986 . S
O35 Mg37 1.917 . S
Mg36 O35 1.986 . S
Mg36 O43 2.042 . S
Mg36 O45 2.041 . S
Mg36 O51 2.038 . S
Mg36 O59 2.238 1_554 S
Mg37 O35 1.917 . S
Mg37 O38 1.917 . S
Mg37 O48 2.106 . S
Mg37 O50 2.079 . S
Mg37 O59 2.106 1_554 S
Mg37 O60 2.079 . S
O38 Mg37 1.917 . S
O38 Mg39 1.926 . S
O38 Mg40 1.986 . S
Mg39 O38 1.926 . S
Mg39 O53 1.984 . S
Mg39 O56 1.988 . S
Mg39 O57 2.061 1_554 S
Mg40 O38 1.986 . S
Mg40 O48 2.238 . S
Mg40 O52 2.042 . S
Mg40 O54 2.041 . S
Mg40 O61 2.038 . S
C41 O47 1.247 . S
C41 O48 1.289 . S
C42 O60 1.245 . S
C42 O61 1.274 . S
O43 C31 1.241 . S
O43 Mg36 2.042 . S
O44 C31 1.280 . S
O44 Mg34 1.984 . S
O45 C32 1.277 . S
O45 Mg36 2.041 . S
O46 C32 1.245 . S
O46 Mg34 1.988 . S
O47 Mg34 2.061 . S
O47 C41 1.247 . S
O48 Mg37 2.106 . S
O48 Mg40 2.238 . S
O48 C41 1.289 . S
C49 O50 1.245 . S
C49 O51 1.274 . S
O50 Mg37 2.079 . S
O50 C49 1.245 . S
O51 Mg36 2.038 . S
O51 C49 1.274 . S
O52 Mg40 2.042 . S
O52 C55 1.241 . S
O53 Mg39 1.984 . S
O53 C55 1.280 . S
O54 Mg40 2.041 . S
O54 C58 1.277 . S
C55 O52 1.241 . S
C55 O53 1.280 . S
O56 Mg39 1.988 . S
O56 C58 1.245 . S
O57 C33 1.247 . S
O57 Mg39 2.061 1_556 S
C58 O54 1.277 . S
C58 O56 1.245 . S
O59 C33 1.289 . S
O59 Mg36 2.238 1_556 S
O59 Mg37 2.106 1_556 S
O60 Mg37 2.079 . S
O60 C42 1.245 . S
O61 Mg40 2.038 . S
O61 C42 1.274 . S
C62 O74 1.241 1_554 S
C62 O75 1.280 . S
C63 O76 1.277 . S
C63 O77 1.245 1_556 S
C64 O88 1.247 . S
C64 O90 1.289 . S
Mg65 O66 1.926 . S
Mg65 O75 1.984 . S
Mg65 O77 1.988 . S
Mg65 O78 2.061 . S
O66 Mg65 1.926 . S
O66 Mg67 1.986 1_554 S
O66 Mg68 1.917 . S
Mg67 O66 1.986 1_556 S
Mg67 O74 2.042 . S
Mg67 O76 2.041 . S
Mg67 O82 2.038 . S
Mg67 O90 2.238 . S
Mg68 O66 1.917 . S
Mg68 O69 1.916 1_554 S
Mg68 O79 2.109 . S
Mg68 O81 2.079 . S
Mg68 O90 2.104 1_554 S
Mg68 O91 2.079 1_554 S
O69 Mg68 1.916 1_556 S
O69 Mg70 1.926 . S
O69 Mg71 1.986 1_556 S
Mg70 O69 1.926 . S
Mg70 O84 1.984 . S
Mg70 O87 1.988 . S
Mg70 O88 2.061 . S
Mg71 O69 1.986 1_554 S
Mg71 O79 2.238 . S
Mg71 O83 2.042 . S
Mg71 O85 2.041 . S
Mg71 O92 2.038 . S
C72 O78 1.247 . S
C72 O79 1.289 . S
C73 O91 1.245 1_554 S
C73 O92 1.274 . S
O74 C62 1.241 1_556 S
O74 Mg67 2.042 . S
O75 C62 1.280 . S
O75 Mg65 1.984 . S
O76 C63 1.277 . S
O76 Mg67 2.041 . S
O77 C63 1.245 1_554 S
O77 Mg65 1.988 . S
O78 Mg65 2.061 . S
O78 C72 1.247 . S
O79 Mg68 2.109 . S
O79 Mg71 2.238 . S
O79 C72 1.289 . S
C80 O81 1.245 1_556 S
C80 O82 1.274 . S
O81 Mg68 2.079 . S
O81 C80 1.245 1_554 S
O82 Mg67 2.038 . S
O82 C80 1.274 . S
O83 Mg71 2.042 . S
O83 C86 1.241 1_554 S
O84 Mg70 1.984 . S
O84 C86 1.280 . S
O85 Mg71 2.041 . S
O85 C89 1.277 . S
C86 O83 1.241 1_556 S
C86 O84 1.280 . S
O87 Mg70 1.988 . S
O87 C89 1.245 1_556 S
O88 C64 1.247 . S
O88 Mg70 2.061 . S
C89 O85 1.277 . S
C89 O87 1.245 1_554 S
O90 C64 1.289 . S
O90 Mg67 2.238 . S
O90 Mg68 2.104 1_556 S
O91 Mg68 2.079 1_556 S
O91 C73 1.245 1_556 S
O92 Mg71 2.038 . S
O92 C73 1.274 . S
C93 O105 1.241 . S
C93 O106 1.280 . S
C94 O107 1.277 . S
C94 O108 1.245 . S
C95 O119 1.247 . S
C95 O121 1.289 . S
Mg96 O97 1.926 . S
Mg96 O106 1.984 . S
Mg96 O108 1.988 . S
Mg96 O109 2.061 . S
O97 Mg96 1.926 . S
O97 Mg98 1.986 . S
O97 Mg99 1.917 . S
Mg98 O97 1.986 . S
Mg98 O105 2.042 . S
Mg98 O107 2.041 . S
Mg98 O113 2.038 . S
Mg98 O121 2.238 . S
Mg99 O97 1.917 . S
Mg99 O100 1.917 . S
Mg99 O110 2.106 . S
Mg99 O112 2.079 . S
Mg99 O121 2.106 . S
Mg99 O122 2.079 . S
O100 Mg99 1.917 . S
O100 Mg101 1.926 . S
O100 Mg102 1.986 . S
Mg101 O100 1.926 . S
Mg101 O115 1.984 . S
Mg101 O118 1.988 . S
Mg101 O119 2.061 . S
Mg102 O100 1.986 . S
Mg102 O110 2.238 . S
Mg102 O114 2.042 . S
Mg102 O116 2.041 . S
Mg102 O123 2.038 . S
C103 O109 1.247 . S
C103 O110 1.289 . S
C104 O122 1.245 . S
C104 O123 1.274 . S
O105 C93 1.241 . S
O105 Mg98 2.042 . S
O106 C93 1.280 . S
O106 Mg96 1.984 . S
O107 C94 1.277 . S
O107 Mg98 2.041 . S
O108 C94 1.245 . S
O108 Mg96 1.988 . S
O109 Mg96 2.061 . S
O109 C103 1.247 . S
O110 Mg99 2.106 . S
O110 Mg102 2.238 . S
O110 C103 1.289 . S
C111 O112 1.245 . S
C111 O113 1.274 . S
O112 Mg99 2.079 . S
O112 C111 1.245 . S
O113 Mg98 2.038 . S
O113 C111 1.274 . S
O114 Mg102 2.042 . S
O114 C117 1.241 . S
O115 Mg101 1.984 . S
O115 C117 1.280 . S
O116 Mg102 2.041 . S
O116 C120 1.277 . S
C117 O114 1.241 . S
C117 O115 1.280 . S
O118 Mg101 1.988 . S
O118 C120 1.245 . S
O119 C95 1.247 . S
O119 Mg101 2.061 . S
C120 O116 1.277 . S
C120 O118 1.245 . S
O121 C95 1.289 . S
O121 Mg98 2.238 . S
O121 Mg99 2.106 . S
O122 Mg99 2.079 . S
O122 C104 1.245 . S
O123 Mg102 2.038 . S
O123 C104 1.274 . S
C124 O136 1.241 . S
C124 O137 1.280 . S
C125 O138 1.277 . S
C125 O139 1.245 . S
C126 O150 1.247 . S
C126 O152 1.289 . S
Mg127 O128 1.926 . S
Mg127 O137 1.984 . S
Mg127 O139 1.988 . S
Mg127 O140 2.061 . S
O128 Mg127 1.926 . S
O128 Mg129 1.986 . S
O128 Mg130 1.917 . S
Mg129 O128 1.986 . S
Mg129 O136 2.042 . S
Mg129 O138 2.041 . S
Mg129 O144 2.038 . S
Mg129 O152 2.238 . S
Mg130 O128 1.917 . S
Mg130 O131 1.917 . S
Mg130 O141 2.106 . S
Mg130 O143 2.079 . S
Mg130 O152 2.106 . S
Mg130 O153 2.079 . S
O131 Mg130 1.917 . S
O131 Mg132 1.926 . S
O131 Mg133 1.986 . S
Mg132 O131 1.926 . S
Mg132 O146 1.984 . S
Mg132 O149 1.988 . S
Mg132 O150 2.061 . S
Mg133 O131 1.986 . S
Mg133 O141 2.238 . S
Mg133 O145 2.042 . S
Mg133 O147 2.041 . S
Mg133 O154 2.038 . S
C134 O140 1.247 . S
C134 O141 1.289 . S
C135 O153 1.245 . S
C135 O154 1.274 . S
O136 C124 1.241 . S
O136 Mg129 2.042 . S
O137 C124 1.280 . S
O137 Mg127 1.984 . S
O138 C125 1.277 . S
O138 Mg129 2.041 . S
O139 C125 1.245 . S
O139 Mg127 1.988 . S
O140 Mg127 2.061 . S
O140 C134 1.247 . S
O141 Mg130 2.106 . S
O141 Mg133 2.238 . S
O141 C134 1.289 . S
C142 O143 1.245 . S
C142 O144 1.274 . S
O143 Mg130 2.079 . S
O143 C142 1.245 . S
O144 Mg129 2.038 . S
O144 C142 1.274 . S
O145 Mg133 2.042 . S
O145 C148 1.241 . S
O146 Mg132 1.984 . S
O146 C148 1.280 . S
O147 Mg133 2.041 . S
O147 C151 1.277 . S
C148 O145 1.241 . S
C148 O146 1.280 . S
O149 Mg132 1.988 . S
O149 C151 1.245 . S
O150 C126 1.247 . S
O150 Mg132 2.061 . S
C151 O147 1.277 . S
C151 O149 1.245 . S
O152 C126 1.289 . S
O152 Mg129 2.238 . S
O152 Mg130 2.106 . S
O153 Mg130 2.079 . S
O153 C135 1.245 . S
O154 Mg133 2.038 . S
O154 C135 1.274 . S
C155 O167 1.241 . S
C155 O168 1.280 . S
C156 O169 1.277 . S
C156 O170 1.245 . S
C157 O181 1.247 . S
C157 O183 1.289 . S
Mg158 O159 1.926 . S
Mg158 O168 1.984 . S
Mg158 O170 1.988 . S
Mg158 O171 2.061 . S
O159 Mg158 1.926 . S
O159 Mg160 1.986 . S
O159 Mg161 1.917 . S
Mg160 O159 1.986 . S
Mg160 O167 2.042 . S
Mg160 O169 2.041 . S
Mg160 O175 2.038 . S
Mg160 O183 2.238 . S
Mg161 O159 1.917 . S
Mg161 O162 1.917 . S
Mg161 O172 2.106 . S
Mg161 O174 2.079 . S
Mg161 O183 2.106 . S
Mg161 O184 2.079 . S
O162 Mg161 1.917 . S
O162 Mg163 1.926 . S
O162 Mg164 1.986 . S
Mg163 O162 1.926 . S
Mg163 O177 1.984 . S
Mg163 O180 1.988 . S
Mg163 O181 2.061 . S
Mg164 O162 1.986 . S
Mg164 O172 2.238 . S
Mg164 O176 2.042 . S
Mg164 O178 2.041 . S
Mg164 O185 2.038 . S
C165 O171 1.247 . S
C165 O172 1.289 . S
C166 O184 1.245 . S
C166 O185 1.274 . S
O167 C155 1.241 . S
O167 Mg160 2.042 . S
O168 C155 1.280 . S
O168 Mg158 1.984 . S
O169 C156 1.277 . S
O169 Mg160 2.041 . S
O170 C156 1.245 . S
O170 Mg158 1.988 . S
O171 Mg158 2.061 . S
O171 C165 1.247 . S
O172 Mg161 2.106 . S
O172 Mg164 2.238 . S
O172 C165 1.289 . S
C173 O174 1.245 . S
C173 O175 1.274 . S
O174 Mg161 2.079 . S
O174 C173 1.245 . S
O175 Mg160 2.038 . S
O175 C173 1.274 . S
O176 Mg164 2.042 . S
O176 C179 1.241 . S
O177 Mg163 1.984 . S
O177 C179 1.280 . S
O178 Mg164 2.041 . S
O178 C182 1.277 . S
C179 O176 1.241 . S
C179 O177 1.280 . S
O180 Mg163 1.988 . S
O180 C182 1.245 . S
O181 C157 1.247 . S
O181 Mg163 2.061 . S
C182 O178 1.277 . S
C182 O180 1.245 . S
O183 C157 1.289 . S
O183 Mg160 2.238 . S
O183 Mg161 2.106 . S
O184 Mg161 2.079 . S
O184 C166 1.245 . S
O185 Mg164 2.038 . S
O185 C166 1.274 . S
C186 O198 1.241 . S
C186 O199 1.280 . S
C187 O200 1.277 . S
C187 O201 1.245 . S
C188 O212 1.247 . S
C188 O214 1.289 . S
Mg189 O190 1.926 . S
Mg189 O199 1.984 . S
Mg189 O201 1.988 . S
Mg189 O202 2.061 . S
O190 Mg189 1.926 . S
O190 Mg191 1.986 . S
O190 Mg192 1.917 . S
Mg191 O190 1.986 . S
Mg191 O198 2.042 . S
Mg191 O200 2.041 . S
Mg191 O206 2.038 . S
Mg191 O214 2.238 . S
Mg192 O190 1.917 . S
Mg192 O193 1.917 . S
Mg192 O203 2.106 . S
Mg192 O205 2.079 . S
Mg192 O214 2.106 . S
Mg192 O215 2.079 . S
O193 Mg192 1.917 . S
O193 Mg194 1.926 . S
O193 Mg195 1.986 . S
Mg194 O193 1.926 . S
Mg194 O208 1.984 . S
Mg194 O211 1.988 . S
Mg194 O212 2.061 . S
Mg195 O193 1.986 . S
Mg195 O203 2.238 . S
Mg195 O207 2.042 . S
Mg195 O209 2.041 . S
Mg195 O216 2.038 . S
C196 O202 1.247 . S
C196 O203 1.289 . S
C197 O215 1.245 . S
C197 O216 1.274 . S
O198 C186 1.241 . S
O198 Mg191 2.042 . S
O199 C186 1.280 . S
O199 Mg189 1.984 . S
O200 C187 1.277 . S
O200 Mg191 2.041 . S
O201 C187 1.245 . S
O201 Mg189 1.988 . S
O202 Mg189 2.061 . S
O202 C196 1.247 . S
O203 Mg192 2.106 . S
O203 Mg195 2.238 . S
O203 C196 1.289 . S
C204 O205 1.245 . S
C204 O206 1.274 . S
O205 Mg192 2.079 . S
O205 C204 1.245 . S
O206 Mg191 2.038 . S
O206 C204 1.274 . S
O207 Mg195 2.042 . S
O207 C210 1.241 . S
O208 Mg194 1.984 . S
O208 C210 1.280 . S
O209 Mg195 2.041 . S
O209 C213 1.277 . S
C210 O207 1.241 . S
C210 O208 1.280 . S
O211 Mg194 1.988 . S
O211 C213 1.245 . S
O212 C188 1.247 . S
O212 Mg194 2.061 . S
C213 O209 1.277 . S
C213 O211 1.245 . S
O214 C188 1.289 . S
O214 Mg191 2.238 . S
O214 Mg192 2.106 . S
O215 Mg192 2.079 . S
O215 C197 1.245 . S
O216 Mg195 2.038 . S
O216 C197 1.274 . S
C217 O229 1.241 . S
C217 O230 1.280 . S
C218 O231 1.277 . S
C218 O232 1.245 . S
C219 O243 1.247 . S
C219 O245 1.289 . S
Mg220 O221 1.926 . S
Mg220 O230 1.984 . S
Mg220 O232 1.988 . S
Mg220 O233 2.061 1_556 S
O221 Mg220 1.926 . S
O221 Mg222 1.986 . S
O221 Mg223 1.917 . S
Mg222 O221 1.986 . S
Mg222 O229 2.042 . S
Mg222 O231 2.041 . S
Mg222 O237 2.038 . S
Mg222 O245 2.238 . S
Mg223 O221 1.917 . S
Mg223 O224 1.917 . S
Mg223 O234 2.106 . S
Mg223 O236 2.079 . S
Mg223 O245 2.106 . S
Mg223 O246 2.079 . S
O224 Mg223 1.917 . S
O224 Mg225 1.926 . S
O224 Mg226 1.986 . S
Mg225 O224 1.926 . S
Mg225 O239 1.984 . S
Mg225 O242 1.988 . S
Mg225 O243 2.061 . S
Mg226 O224 1.986 . S
Mg226 O234 2.238 . S
Mg226 O238 2.042 . S
Mg226 O240 2.041 . S
Mg226 O247 2.038 . S
C227 O233 1.247 . S
C227 O234 1.289 1_554 S
C228 O246 1.245 . S
C228 O247 1.274 . S
O229 C217 1.241 . S
O229 Mg222 2.042 . S
O230 C217 1.280 . S
O230 Mg220 1.984 . S
O231 C218 1.277 . S
O231 Mg222 2.041 . S
O232 C218 1.245 . S
O232 Mg220 1.988 . S
O233 Mg220 2.061 1_554 S
O233 C227 1.247 . S
O234 Mg223 2.106 . S
O234 Mg226 2.238 . S
O234 C227 1.289 1_556 S
C235 O236 1.245 . S
C235 O237 1.274 . S
O236 Mg223 2.079 . S
O236 C235 1.245 . S
O237 Mg222 2.038 . S
O237 C235 1.274 . S
O238 Mg226 2.042 . S
O238 C241 1.241 . S
O239 Mg225 1.984 . S
O239 C241 1.280 . S
O240 Mg226 2.041 . S
O240 C244 1.277 . S
C241 O238 1.241 . S
C241 O239 1.280 . S
O242 Mg225 1.988 . S
O242 C244 1.245 . S
O243 C219 1.247 . S
O243 Mg225 2.061 . S
C244 O240 1.277 . S
C244 O242 1.245 . S
O245 C219 1.289 . S
O245 Mg222 2.238 . S
O245 Mg223 2.106 . S
O246 Mg223 2.079 . S
O246 C228 1.245 . S
O247 Mg226 2.038 . S
O247 C228 1.274 . S
C248 O260 1.241 . S
C248 O261 1.280 . S
C249 O262 1.277 . S
C249 O263 1.245 . S
C250 O274 1.247 . S
C250 O276 1.289 . S
Mg251 O252 1.926 . S
Mg251 O261 1.984 . S
Mg251 O263 1.988 . S
Mg251 O264 2.061 . S
O252 Mg251 1.926 . S
O252 Mg253 1.986 . S
O252 Mg254 1.917 . S
Mg253 O252 1.986 . S
Mg253 O260 2.042 . S
Mg253 O262 2.041 . S
Mg253 O268 2.038 . S
Mg253 O276 2.238 . S
Mg254 O252 1.917 . S
Mg254 O255 1.917 . S
Mg254 O265 2.106 . S
Mg254 O267 2.079 . S
Mg254 O276 2.106 . S
Mg254 O277 2.079 . S
O255 Mg254 1.917 . S
O255 Mg256 1.926 . S
O255 Mg257 1.986 . S
Mg256 O255 1.926 . S
Mg256 O270 1.984 . S
Mg256 O273 1.988 . S
Mg256 O274 2.061 . S
Mg257 O255 1.986 . S
Mg257 O265 2.238 . S
Mg257 O269 2.042 . S
Mg257 O271 2.041 . S
Mg257 O278 2.038 . S
C258 O264 1.247 . S
C258 O265 1.289 . S
C259 O277 1.245 . S
C259 O278 1.274 . S
O260 C248 1.241 . S
O260 Mg253 2.042 . S
O261 C248 1.280 . S
O261 Mg251 1.984 . S
O262 C249 1.277 . S
O262 Mg253 2.041 . S
O263 C249 1.245 . S
O263 Mg251 1.988 . S
O264 Mg251 2.061 . S
O264 C258 1.247 . S
O265 Mg254 2.106 . S
O265 Mg257 2.238 . S
O265 C258 1.289 . S
C266 O267 1.245 . S
C266 O268 1.274 . S
O267 Mg254 2.079 . S
O267 C266 1.245 . S
O268 Mg253 2.038 . S
O268 C266 1.274 . S
O269 Mg257 2.042 . S
O269 C272 1.241 . S
O270 Mg256 1.984 . S
O270 C272 1.280 . S
O271 Mg257 2.041 . S
O271 C275 1.277 . S
C272 O269 1.241 . S
C272 O270 1.280 . S
O273 Mg256 1.988 . S
O273 C275 1.245 . S
O274 C250 1.247 . S
O274 Mg256 2.061 . S
C275 O271 1.277 . S
C275 O273 1.245 . S
O276 C250 1.289 . S
O276 Mg253 2.238 . S
O276 Mg254 2.106 . S
O277 Mg254 2.079 . S
O277 C259 1.245 . S
O278 Mg257 2.038 . S
O278 C259 1.274 . S
H279 C285 0.930 . S
H280 C289 0.930 . S
H281 C294 0.929 . S
H282 C292 0.929 . S
H283 C287 0.929 . S
H284 C293 0.929 . S
C285 H279 0.930 . S
C285 C286 1.367 . S
C285 C293 1.378 . S
C286 C285 1.367 . S
C286 C294 1.433 . S
C287 H283 0.929 . S
C287 C289 1.378 . S
C287 C291 1.350 . S
C288 C291 1.463 . S
C288 C293 1.350 . S
C288 N296 1.427 . S
C289 H280 0.930 . S
C289 C287 1.378 . S
C289 C290 1.367 . S
C290 C289 1.367 . S
C290 C292 1.433 . S
C291 C287 1.350 . S
C291 C288 1.463 . S
C291 N295 1.427 . S
C292 H282 0.929 . S
C292 C290 1.433 . S
C292 N295 1.384 . S
C293 H284 0.929 . S
C293 C285 1.378 . S
C293 C288 1.350 . S
C294 H281 0.929 . S
C294 C286 1.433 . S
C294 N296 1.384 . S
N295 C291 1.427 . S
N295 C292 1.384 . S
N296 C288 1.427 . S
N296 C294 1.384 . S
H297 C303 0.930 . S
H298 C307 0.930 1_556 S
H299 C312 0.929 . S
H300 C310 0.929 . S
H301 C305 0.929 . S
H302 C311 0.929 . S
C303 H297 0.930 . S
C303 C304 1.367 . S
C303 C311 1.378 . S
C304 C303 1.367 . S
C304 C312 1.433 . S
C305 H301 0.929 . S
C305 C307 1.378 . S
C305 C309 1.350 . S
C306 C309 1.463 . S
C306 C311 1.350 . S
C306 N314 1.427 . S
C307 H298 0.930 1_554 S
C307 C305 1.378 . S
C307 C308 1.367 . S
C308 C307 1.367 . S
C308 C310 1.433 . S
C309 C305 1.350 . S
C309 C306 1.463 . S
C309 N313 1.427 . S
C310 H300 0.929 . S
C310 C308 1.433 . S
C310 N313 1.384 . S
C311 H302 0.929 . S
C311 C303 1.378 . S
C311 C306 1.350 . S
C312 H299 0.929 . S
C312 C304 1.433 . S
C312 N314 1.384 . S
N313 C309 1.427 . S
N313 C310 1.384 . S
N314 C306 1.427 . S
N314 C312 1.384 . S
H315 C321 0.930 . S
H316 C325 0.930 . S
H317 C330 0.929 1_455 S
H318 C328 0.929 . S
H319 C323 0.929 . S
H320 C329 0.929 . S
C321 H315 0.930 . S
C321 C322 1.367 . S
C321 C329 1.378 . S
C322 C321 1.367 . S
C322 C330 1.433 1_556 S
C323 H319 0.929 . S
C323 C325 1.378 . S
C323 C327 1.350 . S
C324 C327 1.463 . S
C324 C329 1.350 1_554 S
C324 N332 1.427 . S
C325 H316 0.930 . S
C325 C323 1.378 . S
C325 C326 1.367 . S
C326 C325 1.367 . S
C326 C328 1.433 . S
C327 C323 1.350 . S
C327 C324 1.463 . S
C327 N331 1.427 . S
C328 H318 0.929 . S
C328 C326 1.433 . S
C328 N331 1.384 . S
C329 H320 0.929 . S
C329 C321 1.378 . S
C329 C324 1.350 1_556 S
C330 H317 0.929 1_655 S
C330 C322 1.433 1_554 S
C330 N332 1.384 . S
N331 C327 1.427 . S
N331 C328 1.384 . S
N332 C324 1.427 . S
N332 C330 1.384 . S
H333 C339 0.930 . S
H334 C343 0.930 . S
H335 C348 0.929 . S
H336 C346 0.929 . S
H337 C341 0.929 . S
H338 C347 0.929 . S
C339 H333 0.930 . S
C339 C340 1.367 . S
C339 C347 1.378 . S
C340 C339 1.367 . S
C340 C348 1.433 . S
C341 H337 0.929 . S
C341 C343 1.378 . S
C341 C345 1.350 . S
C342 C345 1.463 . S
C342 C347 1.350 . S
C342 N350 1.427 . S
C343 H334 0.930 . S
C343 C341 1.378 . S
C343 C344 1.367 . S
C344 C343 1.367 . S
C344 C346 1.433 . S
C345 C341 1.350 . S
C345 C342 1.463 . S
C345 N349 1.427 . S
C346 H336 0.929 . S
C346 C344 1.433 . S
C346 N349 1.384 . S
C347 H338 0.929 . S
C347 C339 1.378 . S
C347 C342 1.350 . S
C348 H335 0.929 . S
C348 C340 1.433 . S
C348 N350 1.384 . S
N349 C345 1.427 . S
N349 C346 1.384 . S
N350 C342 1.427 . S
N350 C348 1.384 . S
H351 C357 0.930 1_565 S
H352 C361 0.930 . S
H353 C366 0.929 1_556 S
H354 C364 0.929 . S
H355 C359 0.929 . S
H356 C365 0.929 . S
C357 H351 0.930 1_545 S
C357 C358 1.367 . S
C357 C365 1.378 . S
C358 C357 1.367 . S
C358 C366 1.433 . S
C359 H355 0.929 . S
C359 C361 1.378 . S
C359 C363 1.350 . S
C360 C363 1.463 . S
C360 C365 1.350 . S
C360 N368 1.427 . S
C361 H352 0.930 . S
C361 C359 1.378 . S
C361 C362 1.367 . S
C362 C361 1.367 . S
C362 C364 1.433 . S
C363 C359 1.350 . S
C363 C360 1.463 . S
C363 N367 1.427 . S
C364 H354 0.929 . S
C364 C362 1.433 . S
C364 N367 1.384 . S
C365 H356 0.929 . S
C365 C357 1.378 . S
C365 C360 1.350 . S
C366 H353 0.929 1_554 S
C366 C358 1.433 . S
C366 N368 1.384 . S
N367 C363 1.427 . S
N367 C364 1.384 . S
N368 C360 1.427 . S
N368 C366 1.384 . S
H369 C375 0.930 . S
H370 C379 0.930 . S
H371 C384 0.929 1_455 S
H372 C382 0.929 . S
H373 C377 0.929 . S
H374 C383 0.929 . S
C375 H369 0.930 . S
C375 C376 1.367 . S
C375 C383 1.378 . S
C376 C375 1.367 . S
C376 C384 1.433 1_554 S
C377 H373 0.929 . S
C377 C379 1.378 . S
C377 C381 1.350 . S
C378 C381 1.463 . S
C378 C383 1.350 . S
C378 N386 1.427 . S
C379 H370 0.930 . S
C379 C377 1.378 . S
C379 C380 1.367 . S
C380 C379 1.367 . S
C380 C382 1.433 . S
C381 C377 1.350 . S
C381 C378 1.463 . S
C381 N385 1.427 . S
C382 H372 0.929 . S
C382 C380 1.433 . S
C382 N385 1.384 . S
C383 H374 0.929 . S
C383 C375 1.378 . S
C383 C378 1.350 . S
C384 H371 0.929 1_655 S
C384 C376 1.433 1_556 S
C384 N386 1.384 1_556 S
N385 C381 1.427 . S
N385 C382 1.384 . S
N386 C378 1.427 . S
N386 C384 1.384 1_554 S
H387 C393 0.930 . S
H388 C397 0.930 . S
H389 C402 0.929 . S
H390 C400 0.929 . S
H391 C395 0.929 . S
H392 C401 0.929 . S
C393 H387 0.930 . S
C393 C394 1.367 . S
C393 C401 1.378 . S
C394 C393 1.367 . S
C394 C402 1.433 . S
C395 H391 0.929 . S
C395 C397 1.378 1_655 S
C395 C399 1.350 . S
C396 C399 1.463 . S
C396 C401 1.350 . S
C396 N404 1.427 . S
C397 H388 0.930 . S
C397 C395 1.378 1_455 S
C397 C398 1.367 . S
C398 C397 1.367 . S
C398 C400 1.433 . S
C399 C395 1.350 . S
C399 C396 1.463 . S
C399 N403 1.427 . S
C400 H390 0.929 . S
C400 C398 1.433 . S
C400 N403 1.384 1_455 S
C401 H392 0.929 . S
C401 C393 1.378 . S
C401 C396 1.350 . S
C402 H389 0.929 . S
C402 C394 1.433 . S
C402 N404 1.384 . S
N403 C399 1.427 . S
N403 C400 1.384 1_655 S
N404 C396 1.427 . S
N404 C402 1.384 . S
H405 C411 0.930 . S
H406 C415 0.930 . S
H407 C420 0.929 . S
H408 C418 0.929 . S
H409 C413 0.929 . S
H410 C419 0.929 . S
C411 H405 0.930 . S
C411 C412 1.367 . S
C411 C419 1.378 . S
C412 C411 1.367 . S
C412 C420 1.433 . S
C413 H409 0.929 . S
C413 C415 1.378 . S
C413 C417 1.350 . S
C414 C417 1.463 . S
C414 C419 1.350 . S
C414 N422 1.427 . S
C415 H406 0.930 . S
C415 C413 1.378 . S
C415 C416 1.367 . S
C416 C415 1.367 . S
C416 C418 1.433 . S
C417 C413 1.350 . S
C417 C414 1.463 . S
C417 N421 1.427 . S
C418 H408 0.929 . S
C418 C416 1.433 . S
C418 N421 1.384 . S
C419 H410 0.929 . S
C419 C411 1.378 . S
C419 C414 1.350 . S
C420 H407 0.929 . S
C420 C412 1.433 . S
C420 N422 1.384 . S
N421 C417 1.427 . S
N421 C418 1.384 . S
N422 C414 1.427 . S
N422 C420 1.384 . S
H423 C429 0.930 . S
H424 C433 0.930 . S
H425 C438 0.929 . S
H426 C436 0.929 . S
H427 C431 0.929 . S
H428 C437 0.929 . S
C429 H423 0.930 . S
C429 C430 1.367 1_545 S
C429 C437 1.378 . S
C430 C429 1.367 1_565 S
C430 C438 1.433 . S
C431 H427 0.929 . S
C431 C433 1.378 . S
C431 C435 1.350 . S
C432 C435 1.463 . S
C432 C437 1.350 . S
C432 N440 1.427 . S
C433 H424 0.930 . S
C433 C431 1.378 . S
C433 C434 1.367 . S
C434 C433 1.367 . S
C434 C436 1.433 . S
C435 C431 1.350 . S
C435 C432 1.463 . S
C435 N439 1.427 . S
C436 H426 0.929 . S
C436 C434 1.433 . S
C436 N439 1.384 . S
C437 H428 0.929 . S
C437 C429 1.378 . S
C437 C432 1.350 . S
C438 H425 0.929 . S
C438 C430 1.433 . S
C438 N440 1.384 1_565 S
N439 C435 1.427 . S
N439 C436 1.384 . S
N440 C432 1.427 . S
N440 C438 1.384 1_545 S
H441 C447 0.930 . S
H442 C451 0.930 . S
H443 C456 0.929 . S
H444 C454 0.929 . S
H445 C449 0.929 . S
H446 C455 0.929 . S
C447 H441 0.930 . S
C447 C448 1.367 . S
C447 C455 1.378 . S
C448 C447 1.367 . S
C448 C456 1.433 . S
C449 H445 0.929 . S
C449 C451 1.378 1_545 S
C449 C453 1.350 . S
C450 C453 1.463 . S
C450 C455 1.350 . S
C450 N458 1.427 . S
C451 H442 0.930 . S
C451 C449 1.378 1_565 S
C451 C452 1.367 . S
C452 C451 1.367 . S
C452 C454 1.433 . S
C453 C449 1.350 . S
C453 C450 1.463 . S
C453 N457 1.427 . S
C454 H444 0.929 . S
C454 C452 1.433 . S
C454 N457 1.384 1_565 S
C455 H446 0.929 . S
C455 C447 1.378 . S
C455 C450 1.350 . S
C456 H443 0.929 . S
C456 C448 1.433 . S
C456 N458 1.384 . S
N457 C453 1.427 . S
N457 C454 1.384 1_545 S
N458 C450 1.427 . S
N458 C456 1.384 . S
H459 C465 0.930 . S
H460 C469 0.930 . S
H461 C474 0.929 . S
H462 C472 0.929 . S
H463 C467 0.929 . S
H464 C473 0.929 . S
C465 H459 0.930 . S
C465 C466 1.367 1_655 S
C465 C473 1.378 . S
C466 C465 1.367 1_455 S
C466 C474 1.433 . S
C467 H463 0.929 . S
C467 C469 1.378 . S
C467 C471 1.350 . S
C468 C471 1.463 . S
C468 C473 1.350 . S
C468 N476 1.427 . S
C469 H460 0.930 . S
C469 C467 1.378 . S
C469 C470 1.367 . S
C470 C469 1.367 . S
C470 C472 1.433 . S
C471 C467 1.350 . S
C471 C468 1.463 . S
C471 N475 1.427 . S
C472 H462 0.929 . S
C472 C470 1.433 . S
C472 N475 1.384 . S
C473 H464 0.929 . S
C473 C465 1.378 . S
C473 C468 1.350 . S
C474 H461 0.929 . S
C474 C466 1.433 . S
C474 N476 1.384 1_455 S
N475 C471 1.427 . S
N475 C472 1.384 . S
N476 C468 1.427 . S
N476 C474 1.384 1_655 S
H477 C483 0.930 . S
H478 C487 0.930 . S
H479 C492 0.929 . S
H480 C490 0.929 . S
H481 C485 0.929 . S
H482 C491 0.929 . S
C483 H477 0.930 . S
C483 C484 1.367 . S
C483 C491 1.378 . S
C484 C483 1.367 . S
C484 C492 1.433 . S
C485 H481 0.929 . S
C485 C487 1.378 . S
C485 C489 1.350 . S
C486 C489 1.463 . S
C486 C491 1.350 . S
C486 N494 1.427 . S
C487 H478 0.930 . S
C487 C485 1.378 . S
C487 C488 1.367 . S
C488 C487 1.367 . S
C488 C490 1.433 . S
C489 C485 1.350 . S
C489 C486 1.463 . S
C489 N493 1.427 . S
C490 H480 0.929 . S
C490 C488 1.433 . S
C490 N493 1.384 . S
C491 H482 0.929 . S
C491 C483 1.378 . S
C491 C486 1.350 . S
C492 H479 0.929 . S
C492 C484 1.433 . S
C492 N494 1.384 . S
N493 C489 1.427 . S
N493 C490 1.384 . S
N494 C486 1.427 . S
N494 C492 1.384 . S
H495 C501 0.930 . S
H496 C505 0.930 . S
H497 C510 0.929 . S
H498 C508 0.929 . S
H499 C503 0.929 1_556 S
H500 C509 0.929 . S
C501 H495 0.930 . S
C501 C502 1.367 . S
C501 C509 1.378 . S
C502 C501 1.367 . S
C502 C510 1.433 . S
C503 H499 0.929 1_554 S
C503 C505 1.378 . S
C503 C507 1.350 . S
C504 C507 1.463 1_556 S
C504 C509 1.350 . S
C504 N512 1.427 . S
C505 H496 0.930 . S
C505 C503 1.378 . S
C505 C506 1.367 . S
C506 C505 1.367 . S
C506 C508 1.433 . S
C507 C503 1.350 . S
C507 C504 1.463 1_554 S
C507 N511 1.427 . S
C508 H498 0.929 . S
C508 C506 1.433 . S
C508 N511 1.384 . S
C509 H500 0.929 . S
C509 C501 1.378 . S
C509 C504 1.350 . S
C510 H497 0.929 . S
C510 C502 1.433 . S
C510 N512 1.384 . S
N511 C507 1.427 . S
N511 C508 1.384 . S
N512 C504 1.427 . S
N512 C510 1.384 . S
H513 C519 0.930 . S
H514 C523 0.930 . S
H515 C528 0.929 . S
H516 C526 0.929 . S
H517 C521 0.929 1_554 S
H518 C527 0.929 . S
C519 H513 0.930 . S
C519 C520 1.367 . S
C519 C527 1.378 . S
C520 C519 1.367 . S
C520 C528 1.433 . S
C521 H517 0.929 1_556 S
C521 C523 1.378 1_556 S
C521 C525 1.350 . S
C522 C525 1.463 . S
C522 C527 1.350 . S
C522 N530 1.427 . S
C523 H514 0.930 . S
C523 C521 1.378 1_554 S
C523 C524 1.367 1_554 S
C524 C523 1.367 1_556 S
C524 C526 1.433 . S
C525 C521 1.350 . S
C525 C522 1.463 . S
C525 N529 1.427 . S
C526 H516 0.929 . S
C526 C524 1.433 . S
C526 N529 1.384 . S
C527 H518 0.929 . S
C527 C519 1.378 . S
C527 C522 1.350 . S
C528 H515 0.929 . S
C528 C520 1.433 . S
C528 N530 1.384 . S
N529 C525 1.427 . S
N529 C526 1.384 . S
N530 C522 1.427 . S
N530 C528 1.384 . S
H531 C537 0.930 . S
H532 C541 0.930 . S
H533 C546 0.929 1_554 S
H534 C544 0.929 . S
H535 C539 0.929 . S
H536 C545 0.929 . S
C537 H531 0.930 . S
C537 C538 1.367 . S
C537 C545 1.378 . S
C538 C537 1.367 . S
C538 C546 1.433 . S
C539 H535 0.929 . S
C539 C541 1.378 . S
C539 C543 1.350 . S
C540 C543 1.463 . S
C540 C545 1.350 . S
C540 N548 1.427 . S
C541 H532 0.930 . S
C541 C539 1.378 . S
C541 C542 1.367 . S
C542 C541 1.367 . S
C542 C544 1.433 . S
C543 C539 1.350 . S
C543 C540 1.463 . S
C543 N547 1.427 . S
C544 H534 0.929 . S
C544 C542 1.433 . S
C544 N547 1.384 . S
C545 H536 0.929 . S
C545 C537 1.378 . S
C545 C540 1.350 . S
C546 H533 0.929 1_556 S
C546 C538 1.433 . S
C546 N548 1.384 . S
N547 C543 1.427 . S
N547 C544 1.384 . S
N548 C540 1.427 . S
N548 C546 1.384 . S
H549 C555 0.930 . S
H550 C559 0.930 1_554 S
H551 C564 0.929 . S
H552 C562 0.929 . S
H553 C557 0.929 . S
H554 C563 0.929 . S
C555 H549 0.930 . S
C555 C556 1.367 1_556 S
C555 C563 1.378 . S
C556 C555 1.367 1_554 S
C556 C564 1.433 . S
C557 H553 0.929 . S
C557 C559 1.378 1_554 S
C557 C561 1.350 1_554 S
C558 C561 1.463 . S
C558 C563 1.350 . S
C558 N566 1.427 1_556 S
C559 H550 0.930 1_556 S
C559 C557 1.378 1_556 S
C559 C560 1.367 . S
C560 C559 1.367 . S
C560 C562 1.433 . S
C561 C557 1.350 1_556 S
C561 C558 1.463 . S
C561 N565 1.427 . S
C562 H552 0.929 . S
C562 C560 1.433 . S
C562 N565 1.384 . S
C563 H554 0.929 . S
C563 C555 1.378 . S
C563 C558 1.350 . S
C564 H551 0.929 . S
C564 C556 1.433 . S
C564 N566 1.384 . S
N565 C561 1.427 . S
N565 C562 1.384 . S
N566 C558 1.427 1_554 S
N566 C564 1.384 . S
H567 C573 0.930 . S
H568 C577 0.930 . S
H569 C582 0.929 . S
H570 C580 0.929 . S
H571 C575 0.929 . S
H572 C581 0.925 1_554 S
C573 H567 0.930 . S
C573 C574 1.370 . S
C573 C581 1.378 1_554 S
C574 C573 1.370 . S
C574 C582 1.424 1_554 S
C575 H571 0.929 . S
C575 C577 1.378 . S
C575 C579 1.350 . S
C576 C579 1.463 . S
C576 C581 1.350 . S
C576 N584 1.427 . S
C577 H568 0.930 . S
C577 C575 1.378 . S
C577 C578 1.367 . S
C578 C577 1.367 . S
C578 C580 1.433 . S
C579 C575 1.350 . S
C579 C576 1.463 . S
C579 N583 1.427 . S
C580 H570 0.929 . S
C580 C578 1.433 . S
C580 N583 1.384 . S
C581 H572 0.925 1_556 S
C581 C573 1.378 1_556 S
C581 C576 1.350 . S
C582 H569 0.929 . S
C582 C574 1.424 1_556 S
C582 N584 1.384 . S
N583 C579 1.427 . S
N583 C580 1.384 . S
N584 C576 1.427 . S
N584 C582 1.384 . S
H585 C591 0.930 . S
H586 C595 0.930 . S
H587 C600 0.929 . S
H588 C598 0.929 . S
H589 C593 0.929 . S
H590 C599 0.929 . S
C591 H585 0.930 . S
C591 C592 1.367 . S
C591 C599 1.378 . S
C592 C591 1.367 . S
C592 C600 1.433 . S
C593 H589 0.929 . S
C593 C595 1.378 . S
C593 C597 1.350 . S
C594 C597 1.463 . S
C594 C599 1.350 . S
C594 N602 1.427 . S
C595 H586 0.930 . S
C595 C593 1.378 . S
C595 C596 1.367 . S
C596 C595 1.367 . S
C596 C598 1.433 . S
C597 C593 1.350 . S
C597 C594 1.463 . S
C597 N601 1.427 . S
C598 H588 0.929 . S
C598 C596 1.433 . S
C598 N601 1.384 . S
C599 H590 0.929 . S
C599 C591 1.378 . S
C599 C594 1.350 . S
C600 H587 0.929 . S
C600 C592 1.433 . S
C600 N602 1.384 . S
N601 C597 1.427 . S
N601 C598 1.384 . S
N602 C594 1.427 . S
N602 C600 1.384 . S
H603 C609 0.930 1_565 S
H604 C613 0.930 . S
H605 C618 0.912 1_565 S
H606 C616 0.929 . S
H607 C611 0.929 . S
H608 C617 0.929 . S
C609 H603 0.930 1_545 S
C609 C610 1.367 1_545 S
C609 C617 1.378 . S
C610 C609 1.367 1_565 S
C610 C618 1.409 1_564 S
C611 H607 0.929 . S
C611 C613 1.378 . S
C611 C615 1.350 1_556 S
C612 C615 1.463 . S
C612 C617 1.350 . S
C612 N620 1.427 1_554 S
C613 H604 0.930 . S
C613 C611 1.378 . S
C613 C614 1.367 1_556 S
C614 C613 1.367 1_554 S
C614 C616 1.433 . S
C615 C611 1.350 1_554 S
C615 C612 1.463 . S
C615 N619 1.427 . S
C616 H606 0.929 . S
C616 C614 1.433 . S
C616 N619 1.384 . S
C617 H608 0.929 . S
C617 C609 1.378 . S
C617 C612 1.350 . S
C618 H605 0.912 1_545 S
C618 C610 1.409 1_546 S
C618 N620 1.427 . S
N619 C615 1.427 . S
N619 C616 1.384 . S
N620 C612 1.427 1_556 S
N620 C618 1.427 . S
H621 C627 0.930 1_455 S
H622 C631 0.930 . S
H623 C636 0.929 1_455 S
H624 C634 0.929 1_565 S
H625 C629 0.929 . S
H626 C635 0.929 . S
C627 H621 0.930 1_655 S
C627 C628 1.367 1_655 S
C627 C635 1.378 . S
C628 C627 1.367 1_455 S
C628 C636 1.433 1_455 S
C629 H625 0.929 . S
C629 C631 1.378 . S
C629 C633 1.350 . S
C630 C633 1.463 . S
C630 C635 1.350 . S
C630 N638 1.427 . S
C631 H622 0.930 . S
C631 C629 1.378 . S
C631 C632 1.367 1_545 S
C632 C631 1.367 1_565 S
C632 C634 1.433 1_565 S
C633 C629 1.350 . S
C633 C630 1.463 . S
C633 N637 1.427 . S
C634 H624 0.929 1_545 S
C634 C632 1.433 1_545 S
C634 N637 1.384 . S
C635 H626 0.929 . S
C635 C627 1.378 . S
C635 C630 1.350 . S
C636 H623 0.929 1_655 S
C636 C628 1.433 1_655 S
C636 N638 1.384 . S
N637 C633 1.427 . S
N637 C634 1.384 . S
N638 C630 1.427 . S
N638 C636 1.384 . S
H639 C645 0.930 . S
H640 C649 0.930 1_455 S
H641 C654 0.929 . S
H642 C652 0.929 . S
H643 C647 0.929 . S
H644 C653 0.929 . S
C645 H639 0.930 . S
C645 C646 1.367 . S
C645 C653 1.378 . S
C646 C645 1.367 . S
C646 C654 1.433 . S
C647 H643 0.929 . S
C647 C649 1.378 . S
C647 C651 1.350 . S
C648 C651 1.463 . S
C648 C653 1.350 . S
C648 N656 1.427 . S
C649 H640 0.930 1_655 S
C649 C647 1.378 . S
C649 C650 1.367 . S
C650 C649 1.367 . S
C650 C652 1.433 . S
C651 C647 1.350 . S
C651 C648 1.463 . S
C651 N655 1.427 . S
C652 H642 0.929 . S
C652 C650 1.433 . S
C652 N655 1.384 . S
C653 H644 0.929 . S
C653 C645 1.378 . S
C653 C648 1.350 . S
C654 H641 0.929 . S
C654 C646 1.433 . S
C654 N656 1.384 . S
N655 C651 1.427 . S
N655 C652 1.384 . S
N656 C648 1.427 . S
N656 C654 1.384 . S
H657 C663 0.930 . S
H658 C667 0.930 . S
H659 C672 0.929 . S
H660 C670 0.929 . S
H661 C665 0.929 . S
H662 C671 0.929 . S
C663 H657 0.930 . S
C663 C664 1.367 . S
C663 C671 1.378 . S
C664 C663 1.367 . S
C664 C672 1.433 . S
C665 H661 0.929 . S
C665 C667 1.378 . S
C665 C669 1.350 . S
C666 C669 1.463 . S
C666 C671 1.350 . S
C666 N674 1.427 . S
C667 H658 0.930 . S
C667 C665 1.378 . S
C667 C668 1.367 . S
C668 C667 1.367 . S
C668 C670 1.433 . S
C669 C665 1.350 . S
C669 C666 1.463 . S
C669 N673 1.427 . S
C670 H660 0.929 . S
C670 C668 1.433 . S
C670 N673 1.384 . S
C671 H662 0.929 . S
C671 C663 1.378 . S
C671 C666 1.350 . S
C672 H659 0.929 . S
C672 C664 1.433 . S
C672 N674 1.384 . S
N673 C669 1.427 . S
N673 C670 1.384 . S
N674 C666 1.427 . S
N674 C672 1.384 . S
H675 C681 0.930 . S
H676 C685 0.930 . S
H677 C690 0.929 . S
H678 C688 0.929 . S
H679 C683 0.929 . S
H680 C689 0.929 . S
C681 H675 0.930 . S
C681 C682 1.367 . S
C681 C689 1.378 . S
C682 C681 1.367 . S
C682 C690 1.433 . S
C683 H679 0.929 . S
C683 C685 1.378 . S
C683 C687 1.350 . S
C684 C687 1.463 . S
C684 C689 1.350 . S
C684 N692 1.427 . S
C685 H676 0.930 . S
C685 C683 1.378 . S
C685 C686 1.367 . S
C686 C685 1.367 . S
C686 C688 1.433 . S
C687 C683 1.350 . S
C687 C684 1.463 . S
C687 N691 1.427 . S
C688 H678 0.929 . S
C688 C686 1.433 . S
C688 N691 1.384 . S
C689 H680 0.929 . S
C689 C681 1.378 . S
C689 C684 1.350 . S
C690 H677 0.929 . S
C690 C682 1.433 . S
C690 N692 1.384 . S
N691 C687 1.427 . S
N691 C688 1.384 . S
N692 C684 1.427 . S
N692 C690 1.384 . S
H693 C699 0.930 . S
H694 C703 0.930 . S
H695 C708 0.929 . S
H696 C706 0.929 . S
H697 C701 0.929 . S
H698 C707 0.929 . S
C699 H693 0.930 . S
C699 C700 1.367 . S
C699 C707 1.378 . S
C700 C699 1.367 . S
C700 C708 1.433 . S
C701 H697 0.929 . S
C701 C703 1.378 . S
C701 C705 1.350 . S
C702 C705 1.463 . S
C702 C707 1.350 . S
C702 N710 1.427 . S
C703 H694 0.930 . S
C703 C701 1.378 . S
C703 C704 1.367 . S
C704 C703 1.367 . S
C704 C706 1.433 . S
C705 C701 1.350 . S
C705 C702 1.463 . S
C705 N709 1.427 . S
C706 H696 0.929 . S
C706 C704 1.433 . S
C706 N709 1.384 . S
C707 H698 0.929 . S
C707 C699 1.378 . S
C707 C702 1.350 . S
C708 H695 0.929 . S
C708 C700 1.433 . S
C708 N710 1.384 . S
N709 C705 1.427 . S
N709 C706 1.384 . S
N710 C702 1.427 . S
N710 C708 1.384 . S
H711 C717 0.930 . S
H712 C721 0.930 . S
H713 C726 0.929 . S
H714 C724 0.929 . S
H715 C719 0.929 . S
H716 C725 0.929 . S
C717 H711 0.930 . S
C717 C718 1.367 . S
C717 C725 1.378 . S
C718 C717 1.367 . S
C718 C726 1.433 . S
C719 H715 0.929 . S
C719 C721 1.378 . S
C719 C723 1.350 . S
C720 C723 1.463 . S
C720 C725 1.350 . S
C720 N728 1.427 . S
C721 H712 0.930 . S
C721 C719 1.378 . S
C721 C722 1.367 . S
C722 C721 1.367 . S
C722 C724 1.433 . S
C723 C719 1.350 . S
C723 C720 1.463 . S
C723 N727 1.427 . S
C724 H714 0.929 . S
C724 C722 1.433 . S
C724 N727 1.384 . S
C725 H716 0.929 . S
C725 C717 1.378 . S
C725 C720 1.350 . S
C726 H713 0.929 . S
C726 C718 1.433 . S
C726 N728 1.384 . S
N727 C723 1.427 . S
N727 C724 1.384 . S
N728 C720 1.427 . S
N728 C726 1.384 . S
H729 C735 0.930 1_554 S
H730 C739 0.930 . S
H731 C744 0.929 . S
H732 C742 0.929 . S
H733 C737 0.929 . S
H734 C743 0.929 1_554 S
C735 H729 0.930 1_556 S
C735 C736 1.367 . S
C735 C743 1.378 . S
C736 C735 1.367 . S
C736 C744 1.433 . S
C737 H733 0.929 . S
C737 C739 1.378 . S
C737 C741 1.350 . S
C738 C741 1.463 . S
C738 C743 1.350 . S
C738 N746 1.427 . S
C739 H730 0.930 . S
C739 C737 1.378 . S
C739 C740 1.367 . S
C740 C739 1.367 . S
C740 C742 1.433 . S
C741 C737 1.350 . S
C741 C738 1.463 . S
C741 N745 1.427 . S
C742 H732 0.929 . S
C742 C740 1.433 . S
C742 N745 1.384 . S
C743 H734 0.929 1_556 S
C743 C735 1.378 . S
C743 C738 1.350 . S
C744 H731 0.929 . S
C744 C736 1.433 . S
C744 N746 1.384 . S
N745 C741 1.427 . S
N745 C742 1.384 . S
N746 C738 1.427 . S
N746 C744 1.384 . S
H747 C753 0.930 . S
H748 C757 0.930 . S
H749 C762 0.929 . S
H750 C760 0.929 . S
H751 C755 0.929 . S
H752 C761 0.929 . S
C753 H747 0.930 . S
C753 C754 1.367 . S
C753 C761 1.378 . S
C754 C753 1.367 . S
C754 C762 1.433 . S
C755 H751 0.929 . S
C755 C757 1.378 . S
C755 C759 1.350 . S
C756 C759 1.463 . S
C756 C761 1.350 . S
C756 N764 1.427 . S
C757 H748 0.930 . S
C757 C755 1.378 . S
C757 C758 1.367 . S
C758 C757 1.367 . S
C758 C760 1.433 . S
C759 C755 1.350 . S
C759 C756 1.463 . S
C759 N763 1.427 . S
C760 H750 0.929 . S
C760 C758 1.433 . S
C760 N763 1.384 . S
C761 H752 0.929 . S
C761 C753 1.378 . S
C761 C756 1.350 . S
C762 H749 0.929 . S
C762 C754 1.433 . S
C762 N764 1.384 . S
N763 C759 1.427 . S
N763 C760 1.384 . S
N764 C756 1.427 . S
N764 C762 1.384 . S
H765 C771 0.930 . S
H766 C775 0.930 . S
H767 C780 0.929 . S
H768 C778 0.929 . S
H769 C773 0.929 . S
H770 C779 0.929 . S
C771 H765 0.930 . S
C771 C772 1.367 . S
C771 C779 1.378 . S
C772 C771 1.367 . S
C772 C780 1.433 . S
C773 H769 0.929 . S
C773 C775 1.378 . S
C773 C777 1.350 . S
C774 C777 1.463 . S
C774 C779 1.350 . S
C774 N782 1.427 . S
C775 H766 0.930 . S
C775 C773 1.378 . S
C775 C776 1.367 . S
C776 C775 1.367 . S
C776 C778 1.433 . S
C777 C773 1.350 . S
C777 C774 1.463 . S
C777 N781 1.427 . S
C778 H768 0.929 . S
C778 C776 1.433 . S
C778 N781 1.384 . S
C779 H770 0.929 . S
C779 C771 1.378 . S
C779 C774 1.350 . S
C780 H767 0.929 . S
C780 C772 1.433 . S
C780 N782 1.384 . S
N781 C777 1.427 . S
N781 C778 1.384 . S
N782 C774 1.427 . S
N782 C780 1.384 . S
H783 C789 0.930 . S
H784 C793 0.930 . S
H785 C798 0.929 . S
H786 C796 0.929 . S
H787 C791 0.929 . S
H788 C797 0.929 . S
C789 H783 0.930 . S
C789 C790 1.367 . S
C789 C797 1.378 . S
C790 C789 1.367 . S
C790 C798 1.433 . S
C791 H787 0.929 . S
C791 C793 1.378 . S
C791 C795 1.350 . S
C792 C795 1.463 . S
C792 C797 1.350 . S
C792 N800 1.427 . S
C793 H784 0.930 . S
C793 C791 1.378 . S
C793 C794 1.367 . S
C794 C793 1.367 . S
C794 C796 1.433 . S
C795 C791 1.350 . S
C795 C792 1.463 . S
C795 N799 1.427 . S
C796 H786 0.929 . S
C796 C794 1.433 . S
C796 N799 1.384 . S
C797 H788 0.929 . S
C797 C789 1.378 . S
C797 C792 1.350 . S
C798 H785 0.929 . S
C798 C790 1.433 . S
C798 N800 1.384 . S
N799 C795 1.427 . S
N799 C796 1.384 . S
N800 C792 1.427 . S
N800 C798 1.384 . S
H801 C807 0.930 . S
H802 C811 0.930 . S
H803 C816 0.929 . S
H804 C814 0.929 . S
H805 C809 0.929 . S
H806 C815 0.929 . S
C807 H801 0.930 . S
C807 C808 1.367 . S
C807 C815 1.378 . S
C808 C807 1.367 . S
C808 C816 1.433 . S
C809 H805 0.929 . S
C809 C811 1.378 . S
C809 C813 1.350 . S
C810 C813 1.463 . S
C810 C815 1.350 . S
C810 N818 1.427 . S
C811 H802 0.930 . S
C811 C809 1.378 . S
C811 C812 1.367 . S
C812 C811 1.367 . S
C812 C814 1.433 . S
C813 C809 1.350 . S
C813 C810 1.463 . S
C813 N817 1.427 . S
C814 H804 0.929 . S
C814 C812 1.433 . S
C814 N817 1.384 . S
C815 H806 0.929 . S
C815 C807 1.378 . S
C815 C810 1.350 . S
C816 H803 0.929 . S
C816 C808 1.433 . S
C816 N818 1.384 . S
N817 C813 1.427 . S
N817 C814 1.384 . S
N818 C810 1.427 . S
N818 C816 1.384 . S
H819 C825 0.930 . S
H820 C829 0.930 . S
H821 C834 0.929 . S
H822 C832 0.929 . S
H823 C827 0.928 . S
H824 C833 0.929 . S
C825 H819 0.930 . S
C825 C826 1.367 . S
C825 C833 1.378 . S
C826 C825 1.367 . S
C826 C834 1.433 . S
C827 H823 0.928 . S
C827 C829 1.378 1_556 S
C827 C831 1.350 . S
C828 C831 1.463 . S
C828 C833 1.350 . S
C828 N836 1.427 . S
C829 H820 0.930 . S
C829 C827 1.378 1_554 S
C829 C830 1.367 . S
C830 C829 1.367 . S
C830 C832 1.433 . S
C831 C827 1.350 . S
C831 C828 1.463 . S
C831 N835 1.428 . S
C832 H822 0.929 . S
C832 C830 1.433 . S
C832 N835 1.381 1_554 S
C833 H824 0.929 . S
C833 C825 1.378 . S
C833 C828 1.350 . S
C834 H821 0.929 . S
C834 C826 1.433 . S
C834 N836 1.384 . S
N835 C831 1.428 . S
N835 C832 1.381 1_556 S
N836 C828 1.427 . S
N836 C834 1.384 . S
H837 C843 0.930 . S
H838 C847 0.930 . S
H839 C852 0.929 . S
H840 C850 0.929 . S
H841 C845 0.929 . S
H842 C851 0.929 . S
C843 H837 0.930 . S
C843 C844 1.367 . S
C843 C851 1.378 . S
C844 C843 1.367 . S
C844 C852 1.433 . S
C845 H841 0.929 . S
C845 C847 1.378 . S
C845 C849 1.350 . S
C846 C849 1.463 1_554 S
C846 C851 1.350 . S
C846 N854 1.427 . S
C847 H838 0.930 . S
C847 C845 1.378 . S
C847 C848 1.367 . S
C848 C847 1.367 . S
C848 C850 1.433 . S
C849 C845 1.350 . S
C849 C846 1.463 1_556 S
C849 N853 1.427 . S
C850 H840 0.929 . S
C850 C848 1.433 . S
C850 N853 1.384 . S
C851 H842 0.929 . S
C851 C843 1.378 . S
C851 C846 1.350 . S
C852 H839 0.929 . S
C852 C844 1.433 . S
C852 N854 1.384 . S
N853 C849 1.427 . S
N853 C850 1.384 . S
N854 C846 1.427 . S
N854 C852 1.384 . S
H855 C861 0.930 . S
H856 C865 0.930 . S
H857 C870 0.929 . S
H858 C868 0.929 . S
H859 C863 0.929 . S
H860 C869 0.929 . S
C861 H855 0.930 . S
C861 C862 1.367 . S
C861 C869 1.378 . S
C862 C861 1.367 . S
C862 C870 1.433 . S
C863 H859 0.929 . S
C863 C865 1.378 1_556 S
C863 C867 1.350 . S
C864 C867 1.463 . S
C864 C869 1.350 . S
C864 N872 1.427 . S
C865 H856 0.930 . S
C865 C863 1.378 1_554 S
C865 C866 1.367 . S
C866 C865 1.367 . S
C866 C868 1.433 . S
C867 C863 1.350 . S
C867 C864 1.463 . S
C867 N871 1.427 . S
C868 H858 0.929 . S
C868 C866 1.433 . S
C868 N871 1.384 1_554 S
C869 H860 0.929 . S
C869 C861 1.378 . S
C869 C864 1.350 . S
C870 H857 0.929 . S
C870 C862 1.433 . S
C870 N872 1.384 . S
N871 C867 1.427 . S
N871 C868 1.384 1_556 S
N872 C864 1.427 . S
N872 C870 1.384 . S
H873 C879 0.930 . S
H874 C883 0.930 . S
H875 C888 0.929 . S
H876 C886 0.929 . S
H877 C881 0.929 . S
H878 C887 0.929 . S
C879 H873 0.930 . S
C879 C880 1.367 . S
C879 C887 1.378 . S
C880 C879 1.367 . S
C880 C888 1.433 . S
C881 H877 0.929 . S
C881 C883 1.378 . S
C881 C885 1.350 . S
C882 C885 1.463 . S
C882 C887 1.350 . S
C882 N890 1.427 . S
C883 H874 0.930 . S
C883 C881 1.378 . S
C883 C884 1.367 1_554 S
C884 C883 1.367 1_556 S
C884 C886 1.433 1_556 S
C885 C881 1.350 . S
C885 C882 1.463 . S
C885 N889 1.427 . S
C886 H876 0.929 . S
C886 C884 1.433 1_554 S
C886 N889 1.384 . S
C887 H878 0.929 . S
C887 C879 1.378 . S
C887 C882 1.350 . S
C888 H875 0.929 . S
C888 C880 1.433 . S
C888 N890 1.384 . S
N889 C885 1.427 . S
N889 C886 1.384 . S
N890 C882 1.427 . S
N890 C888 1.384 . S
H891 C897 0.930 . S
H892 C901 0.930 . S
H893 C906 0.929 . S
H894 C904 0.929 . S
H895 C899 0.929 . S
H896 C905 0.929 . S
C897 H891 0.930 . S
C897 C898 1.367 . S
C897 C905 1.378 . S
C898 C897 1.367 . S
C898 C906 1.433 . S
C899 H895 0.929 . S
C899 C901 1.378 . S
C899 C903 1.350 . S
C900 C903 1.463 . S
C900 C905 1.350 . S
C900 N908 1.427 . S
C901 H892 0.930 . S
C901 C899 1.378 . S
C901 C902 1.367 . S
C902 C901 1.367 . S
C902 C904 1.433 . S
C903 C899 1.350 . S
C903 C900 1.463 . S
C903 N907 1.427 . S
C904 H894 0.929 . S
C904 C902 1.433 . S
C904 N907 1.384 . S
C905 H896 0.929 . S
C905 C897 1.378 . S
C905 C900 1.350 . S
C906 H893 0.929 . S
C906 C898 1.433 . S
C906 N908 1.384 . S
N907 C903 1.427 . S
N907 C904 1.384 . S
N908 C900 1.427 . S
N908 C906 1.384 . S
H909 C915 0.930 . S
H910 C919 0.930 . S
H911 C924 0.929 . S
H912 C922 0.929 . S
H913 C917 0.929 . S
H914 C923 0.929 . S
C915 H909 0.930 . S
C915 C916 1.367 . S
C915 C923 1.378 . S
C916 C915 1.367 . S
C916 C924 1.433 . S
C917 H913 0.929 . S
C917 C919 1.378 1_554 S
C917 C921 1.350 . S
C918 C921 1.463 . S
C918 C923 1.350 . S
C918 N926 1.427 . S
C919 H910 0.930 . S
C919 C917 1.378 1_556 S
C919 C920 1.367 . S
C920 C919 1.367 . S
C920 C922 1.433 . S
C921 C917 1.350 . S
C921 C918 1.463 . S
C921 N925 1.427 . S
C922 H912 0.929 . S
C922 C920 1.433 . S
C922 N925 1.384 1_556 S
C923 H914 0.929 . S
C923 C915 1.378 . S
C923 C918 1.350 . S
C924 H911 0.929 . S
C924 C916 1.433 . S
C924 N926 1.384 . S
N925 C921 1.427 . S
N925 C922 1.384 1_554 S
N926 C918 1.427 . S
N926 C924 1.384 . S
C286 C24 1.885 . S
C290 C135 1.934 . S
C304 C166 1.838 . S
C308 C55 1.665 1_545 S
C322 C86 1.728 1_655 S
C326 C120 1.950 . S
C340 C31 1.591 . S
C344 C111 1.614 . S
C358 C62 1.590 1_545 S
C362 C125 1.635 . S
C376 C0 1.409 1_655 S
C380 C156 1.541 . S
C394 C117 1.886 . S
C398 C228 1.933 . S
C412 C259 1.834 . S
C416 C148 1.647 . S
C430 C213 1.950 . S
C434 C179 1.729 . S
C448 C124 1.589 . S
C452 C204 1.616 . S
C466 C218 1.631 . S
C470 C155 1.594 . S
C484 C249 1.547 . S
C488 C93 1.411 . S
C502 C210 1.885 . S
C506 C42 1.934 . S
C520 C241 1.659 . S
C524 C73 1.835 1_556 S
C538 C27 1.950 . S
C542 C272 1.710 . S
C556 C18 1.613 . S
C560 C217 1.593 . S
C574 C32 1.636 . S
C578 C248 1.596 . S
C592 C186 1.416 . S
C596 C63 1.538 . S
C610 C80 1.807 1_554 S
C614 C11 1.795 . S
C628 C1 1.538 . S
C632 C58 1.527 . S
C646 C49 1.687 . S
C650 C89 1.606 1_655 S
C664 C173 1.807 . S
C668 C104 1.795 . S
C682 C94 1.541 . S
C686 C151 1.525 . S
C700 C142 1.691 . S
C704 C182 1.598 . S
C718 C197 1.795 . S
C722 C266 1.807 . S
C736 C244 1.529 . S
C740 C187 1.536 . S
C754 C275 1.598 . S
C758 C235 1.691 . S
C772 C10 0.755 . S
C776 C2 0.755 . S
C790 C41 0.770 . S
C794 C33 0.770 . S
C808 C64 0.761 . S
C812 C72 0.761 . S
C826 C95 0.774 . S
C830 C103 0.774 . S
C844 C126 0.756 . S
C848 C134 0.756 . S
C862 C165 0.766 . S
C866 C157 0.766 . S
C880 C196 0.771 . S
C884 C188 0.771 . S
C898 C219 0.756 . S
C902 C227 0.756 . S
C916 C250 0.778 . S
C920 C258 0.778 . S
