# Generated by pormake.
# Topology uoc, (4)-cn, num edge types: 1
# Building blocks:
#     Node 0, Type 0, BuildingBlock: GALJAG_clean_sbu_0, # of connection points: 4
#     Node 1, Type 0, BuildingBlock: GALJAG_clean_sbu_0, # of connection points: 4
#     Node 2, Type 0, BuildingBlock: GALJAG_clean_sbu_0, # of connection points: 4
#     Node 3, Type 0, BuildingBlock: GALJAG_clean_sbu_0, # of connection points: 4
#     Node 4, Type 0, BuildingBlock: GALJAG_clean_sbu_0, # of connection points: 4
#     Node 5, Type 0, BuildingBlock: GALJAG_clean_sbu_0, # of connection points: 4
#     Node 6, Type 0, BuildingBlock: GALJAG_clean_sbu_0, # of connection points: 4
#     Node 7, Type 0, BuildingBlock: GALJAG_clean_sbu_0, # of connection points: 4
#     Edge 8, Type (0, 0), BuildingBlock: XIVTED_clean_linker_0, # of connection points: 2
#     Edge 9, Type (0, 0), BuildingBlock: XIVTED_clean_linker_0, # of connection points: 2
#     Edge 10, Type (0, 0), BuildingBlock: XIVTED_clean_linker_0, # of connection points: 2
#     Edge 11, Type (0, 0), BuildingBlock: XIVTED_clean_linker_0, # of connection points: 2
#     Edge 12, Type (0, 0), BuildingBlock: XIVTED_clean_linker_0, # of connection points: 2
#     Edge 13, Type (0, 0), BuildingBlock: XIVTED_clean_linker_0, # of connection points: 2
#     Edge 14, Type (0, 0), BuildingBlock: XIVTED_clean_linker_0, # of connection points: 2
#     Edge 15, Type (0, 0), BuildingBlock: XIVTED_clean_linker_0, # of connection points: 2
#     Edge 16, Type (0, 0), BuildingBlock: XIVTED_clean_linker_0, # of connection points: 2
#     Edge 17, Type (0, 0), BuildingBlock: XIVTED_clean_linker_0, # of connection points: 2
#     Edge 18, Type (0, 0), BuildingBlock: XIVTED_clean_linker_0, # of connection points: 2
#     Edge 19, Type (0, 0), BuildingBlock: XIVTED_clean_linker_0, # of connection points: 2
#     Edge 20, Type (0, 0), BuildingBlock: XIVTED_clean_linker_0, # of connection points: 2
#     Edge 21, Type (0, 0), BuildingBlock: XIVTED_clean_linker_0, # of connection points: 2
#     Edge 22, Type (0, 0), BuildingBlock: XIVTED_clean_linker_0, # of connection points: 2
#     Edge 23, Type (0, 0), BuildingBlock: XIVTED_clean_linker_0, # of connection points: 2
# Relax obj value: 0.017
# Max RMSD: 0.050
# Mean RMSD: 0.050
data_MOF--net-uoc--node1-GALJAG_clean_sbu_0--edge1-XIVTED_clean_linker_0
_symmetry_space_group_name_H-M    P1
_symmetry_Int_Tables_number       1
_symmetry_cell_setting            triclinic
loop_
_symmetry_equiv_pos_as_xyz
'x, y, z'
_cell_length_a     27.879195
_cell_length_b     27.959553
_cell_length_c     56.148082
_cell_angle_alpha  89.980964
_cell_angle_beta   89.886479
_cell_angle_gamma 90.27602
loop_
_atom_site_label
_atom_site_type_symbol
_atom_site_fract_x
_atom_site_fract_y
_atom_site_fract_z
_atom_type_partial_charge
In0 In 0.11676 0.24932 0.11887 0.0
O1 O 0.05123 0.29748 0.12285 0.0
O2 O 0.11969 0.33053 0.1193 0.0
C3 C 0.07517 0.16259 0.12083 0.0
C4 C 0.16571 0.24852 0.16006 0.0
C5 C 0.14615 0.24531 0.07326 0.0
O6 O 0.05129 0.20083 0.12235 0.0
O7 O 0.11989 0.16827 0.11837 0.0
O8 O 0.17559 0.24411 0.09035 0.0
O9 O 0.10281 0.24929 0.07932 0.0
C10 C 0.0751 0.33591 0.12179 0.0
O11 O 0.18534 0.26067 0.14066 0.0
O12 O 0.12216 0.23672 0.15847 0.0
In13 In 0.74271 0.6115 0.36565 0.0
O14 O 0.75248 0.67515 0.34071 0.0
O15 O 0.73046 0.60883 0.32566 0.0
C16 C 0.74428 0.65614 0.4081 0.0
C17 C 0.82958 0.56959 0.3635 0.0
C18 C 0.65559 0.56966 0.36908 0.0
O19 O 0.73273 0.6773 0.38911 0.0
O20 O 0.75534 0.61275 0.4056 0.0
O21 O 0.69385 0.54559 0.36851 0.0
O22 O 0.66153 0.61432 0.36792 0.0
C23 C 0.74118 0.65215 0.3222 0.0
O24 O 0.7911 0.54554 0.36435 0.0
O25 O 0.824 0.61432 0.36369 0.0
In26 In 0.38176 0.25278 0.6143 0.0
O27 O 0.44638 0.20322 0.61179 0.0
O28 O 0.37736 0.17183 0.61704 0.0
C29 C 0.42348 0.33953 0.60961 0.0
C30 C 0.35278 0.25428 0.65999 0.0
C31 C 0.33153 0.24939 0.5735 0.0
O32 O 0.44734 0.30124 0.60894 0.0
O33 O 0.37897 0.33384 0.61247 0.0
O34 O 0.31241 0.26145 0.59301 0.0
O35 O 0.37536 0.23885 0.57476 0.0
C36 C 0.42189 0.16541 0.61452 0.0
O37 O 0.32334 0.24966 0.64304 0.0
O38 O 0.39603 0.25858 0.65373 0.0
In39 In 0.75133 0.88281 0.86417 0.0
O40 O 0.74112 0.816 0.84105 0.0
O41 O 0.75131 0.88346 0.82402 0.0
C42 C 0.76605 0.84985 0.90846 0.0
C43 C 0.66351 0.92219 0.86838 0.0
C44 C 0.8385 0.92194 0.85745 0.0
O45 O 0.75565 0.82195 0.8915 0.0
O46 O 0.76821 0.89354 0.90302 0.0
O47 O 0.80071 0.9469 0.85788 0.0
O48 O 0.83203 0.87755 0.86035 0.0
C49 C 0.74471 0.83907 0.82174 0.0
O50 O 0.70114 0.94739 0.86684 0.0
O51 O 0.67041 0.87772 0.86774 0.0
In52 In 0.61403 0.75334 0.61397 0.0
O53 O 0.5481 0.80184 0.61501 0.0
O54 O 0.61721 0.83444 0.61502 0.0
C55 C 0.57073 0.66717 0.61085 0.0
C56 C 0.65506 0.75248 0.65735 0.0
C57 C 0.65851 0.75282 0.5714 0.0
O58 O 0.54715 0.70563 0.61192 0.0
O59 O 0.61565 0.67243 0.61143 0.0
O60 O 0.67949 0.74074 0.59036 0.0
O61 O 0.61552 0.76564 0.57401 0.0
C62 C 0.57237 0.84015 0.61532 0.0
O63 O 0.67776 0.76442 0.6388 0.0
O64 O 0.61188 0.74075 0.65398 0.0
In65 In 0.25108 0.10881 0.8653 0.0
O66 O 0.24538 0.17365 0.84027 0.0
O67 O 0.28638 0.1136 0.82919 0.0
C68 C 0.23065 0.14711 0.90808 0.0
C69 C 0.33526 0.06546 0.87404 0.0
C70 C 0.16816 0.06415 0.85433 0.0
O71 O 0.254 0.17011 0.89251 0.0
O72 O 0.21826 0.10548 0.90207 0.0
O73 O 0.20476 0.0416 0.86129 0.0
O74 O 0.17403 0.10874 0.8523 0.0
C75 C 0.27144 0.15491 0.82443 0.0
O76 O 0.29905 0.04282 0.86638 0.0
O77 O 0.32837 0.10936 0.8779 0.0
In78 In 0.88591 0.74855 0.11887 0.0
O79 O 0.81713 0.73671 0.14053 0.0
O80 O 0.88027 0.7594 0.15864 0.0
C81 C 0.85589 0.75482 0.07349 0.0
C82 C 0.92816 0.66207 0.12098 0.0
C83 C 0.92703 0.8354 0.12146 0.0
O84 O 0.82661 0.75227 0.09066 0.0
O85 O 0.89948 0.75333 0.0793 0.0
O86 O 0.95116 0.79723 0.12221 0.0
O87 O 0.88222 0.8296 0.11956 0.0
C88 C 0.83664 0.74777 0.16008 0.0
O89 O 0.9517 0.70058 0.12271 0.0
O90 O 0.88369 0.66733 0.11812 0.0
In91 In 0.24186 0.37639 0.36773 0.0
O92 O 0.23485 0.31217 0.34287 0.0
O93 O 0.25655 0.3788 0.32796 0.0
C94 C 0.23764 0.33347 0.4106 0.0
C95 C 0.15498 0.41794 0.36449 0.0
C96 C 0.32885 0.41833 0.37135 0.0
O97 O 0.24925 0.31123 0.39191 0.0
O98 O 0.22783 0.37703 0.40758 0.0
O99 O 0.32278 0.37363 0.3718 0.0
O100 O 0.29079 0.44233 0.36921 0.0
C101 C 0.24701 0.33524 0.32447 0.0
O102 O 0.19317 0.44205 0.36673 0.0
O103 O 0.16081 0.37326 0.3638 0.0
H104 H 0.23654 0.24806 0.0535 0.0
H105 H 0.15473 0.1219 0.9354 0.0
H106 H 0.08726 0.22664 0.03603 0.0
H107 H 0.27755 0.21632 0.93394 0.0
H108 H 0.13436 0.1517 0.97497 0.0
H109 H 0.25771 0.22965 0.01188 0.0
C110 C 0.20831 0.2399 0.04089 0.0
C111 C 0.16014 0.23858 0.04817 0.0
C112 C 0.1656 0.16613 0.96594 0.0
C113 C 0.18401 0.21698 0.00113 0.0
C114 C 0.17736 0.14902 0.94345 0.0
C115 C 0.21779 0.16681 0.9315 0.0
C116 C 0.19513 0.20045 0.97681 0.0
C117 C 0.2459 0.20201 0.94264 0.0
C118 C 0.22037 0.22963 0.01724 0.0
C119 C 0.12485 0.22796 0.03119 0.0
N120 N 0.23438 0.21738 0.96494 0.0
N121 N 0.13754 0.21691 0.00855 0.0
H122 H 0.70942 0.61321 0.28048 0.0
H123 H 0.86187 0.79074 0.20159 0.0
H124 H 0.77918 0.73852 0.30927 0.0
H125 H 0.75668 0.69508 0.17123 0.0
H126 H 0.82887 0.77479 0.24109 0.0
H127 H 0.72279 0.64434 0.24029 0.0
C128 C 0.72706 0.64755 0.27833 0.0
C129 C 0.74377 0.67311 0.29816 0.0
C130 C 0.81244 0.75781 0.22579 0.0
C131 C 0.75951 0.70865 0.25234 0.0
C132 C 0.83134 0.76683 0.20326 0.0
C133 C 0.81218 0.74378 0.18324 0.0
C134 C 0.77476 0.72473 0.22837 0.0
C135 C 0.77249 0.71343 0.18629 0.0
C136 C 0.73452 0.66537 0.25541 0.0
C137 C 0.76605 0.71754 0.29443 0.0
N138 N 0.75555 0.70407 0.20855 0.0
N139 N 0.77392 0.7336 0.27192 0.0
H140 H 0.24847 0.2965 0.5628 0.0
H141 H 0.2761 0.24737 0.42312 0.0
H142 H 0.35784 0.20701 0.53194 0.0
H143 H 0.20379 0.37027 0.45234 0.0
H144 H 0.28894 0.2175 0.4636 0.0
H145 H 0.21479 0.30885 0.52293 0.0
C146 C 0.26479 0.27876 0.54769 0.0
C147 C 0.30631 0.25126 0.55052 0.0
C148 C 0.2697 0.25068 0.4611 0.0
C149 C 0.26814 0.26503 0.50516 0.0
C150 C 0.26225 0.26765 0.43804 0.0
C151 C 0.23951 0.31167 0.43447 0.0
C152 C 0.25395 0.27779 0.48063 0.0
C153 C 0.22208 0.33645 0.45438 0.0
C154 C 0.24573 0.28596 0.525 0.0
C155 C 0.32614 0.22902 0.53043 0.0
N156 N 0.23001 0.31936 0.47667 0.0
N157 N 0.30706 0.23665 0.50855 0.0
H158 H 0.69879 0.75544 0.81001 0.0
H159 H 0.73997 0.79389 0.67023 0.0
H160 H 0.77918 0.873 0.77982 0.0
H161 H 0.61783 0.71791 0.69901 0.0
H162 H 0.76947 0.80671 0.71076 0.0
H163 H 0.68339 0.72544 0.76954 0.0
C164 C 0.71381 0.77441 0.79488 0.0
C165 C 0.73979 0.81695 0.7981 0.0
C166 C 0.73649 0.78678 0.70815 0.0
C167 C 0.72286 0.7829 0.75219 0.0
C168 C 0.71973 0.77935 0.68506 0.0
C169 C 0.67611 0.75538 0.68135 0.0
C170 C 0.70965 0.76972 0.72759 0.0
C171 C 0.65137 0.73709 0.70118 0.0
C172 C 0.70488 0.75745 0.77189 0.0
C173 C 0.75846 0.84035 0.77802 0.0
N174 N 0.66835 0.74488 0.72351 0.0
N175 N 0.74952 0.82309 0.75589 0.0
H176 H 0.2123 0.24777 0.31105 0.0
H177 H 0.24564 0.30058 0.17192 0.0
H178 H 0.28104 0.37475 0.28329 0.0
H179 H 0.1399 0.20364 0.20104 0.0
H180 H 0.27637 0.3145 0.2123 0.0
H181 H 0.20319 0.21794 0.27031 0.0
C182 C 0.22606 0.26904 0.2964 0.0
C183 C 0.24676 0.31408 0.30044 0.0
C184 C 0.24692 0.28964 0.20974 0.0
C185 C 0.23659 0.28025 0.25398 0.0
C186 C 0.22958 0.28154 0.18675 0.0
C187 C 0.18985 0.25146 0.1833 0.0
C188 C 0.2246 0.26701 0.22921 0.0
C189 C 0.17022 0.22763 0.20304 0.0
C190 C 0.22078 0.25207 0.27319 0.0
C191 C 0.26426 0.34009 0.28087 0.0
N192 N 0.18758 0.23617 0.22519 0.0
N193 N 0.25843 0.32297 0.25842 0.0
H194 H 0.74077 0.70555 0.5596 0.0
H195 H 0.70241 0.74124 0.4196 0.0
H196 H 0.62648 0.78939 0.52936 0.0
H197 H 0.77965 0.62283 0.45017 0.0
H198 H 0.6898 0.77343 0.45969 0.0
H199 H 0.7707 0.68946 0.51934 0.0
C200 C 0.72247 0.72119 0.54451 0.0
C201 C 0.68079 0.74831 0.54771 0.0
C202 C 0.70998 0.7407 0.45755 0.0
C203 C 0.71474 0.73021 0.50184 0.0
C204 C 0.7173 0.72242 0.43472 0.0
C205 C 0.74156 0.67904 0.43167 0.0
C206 C 0.72747 0.71561 0.47736 0.0
C207 C 0.76025 0.65611 0.45182 0.0
C208 C 0.73943 0.71185 0.52159 0.0
C209 C 0.65843 0.76781 0.5276 0.0
N210 N 0.75256 0.67454 0.47386 0.0
N211 N 0.67553 0.75813 0.50547 0.0
H212 H 0.26214 0.24978 0.67932 0.0
H213 H 0.35416 0.14548 0.79997 0.0
H214 H 0.41219 0.25041 0.69816 0.0
H215 H 0.2177 0.21732 0.79791 0.0
H216 H 0.37387 0.17903 0.76104 0.0
H217 H 0.24185 0.23446 0.72131 0.0
C218 C 0.29069 0.24728 0.69231 0.0
C219 C 0.33891 0.2508 0.68527 0.0
C220 C 0.33981 0.18795 0.76918 0.0
C221 C 0.31609 0.23287 0.73285 0.0
C222 C 0.3285 0.16867 0.79131 0.0
C223 C 0.2843 0.17872 0.80199 0.0
C224 C 0.30614 0.21646 0.75735 0.0
C225 C 0.25226 0.20904 0.79015 0.0
C226 C 0.2791 0.23876 0.71619 0.0
C227 C 0.37456 0.24754 0.70277 0.0
N228 N 0.26346 0.22632 0.76814 0.0
N229 N 0.36246 0.23802 0.72568 0.0
H230 H 0.76791 0.73819 0.05291 0.0
H231 H 0.82299 0.89456 0.94041 0.0
H232 H 0.91053 0.79087 0.0378 0.0
H233 H 0.736 0.76786 0.93124 0.0
H234 H 0.84421 0.86739 0.98035 0.0
H235 H 0.74458 0.75765 0.01166 0.0
C236 C 0.79424 0.75356 0.0409 0.0
C237 C 0.84114 0.76305 0.04867 0.0
C238 C 0.82046 0.84559 0.96957 0.0
C239 C 0.81463 0.78601 0.00223 0.0
C240 C 0.80816 0.8611 0.94689 0.0
C241 C 0.77785 0.83325 0.93259 0.0
C242 C 0.80141 0.80251 0.97825 0.0
C243 C 0.75973 0.79009 0.94178 0.0
C244 C 0.78101 0.76439 0.01748 0.0
C245 C 0.87404 0.78289 0.0325 0.0
N246 N 0.77145 0.77609 0.96426 0.0
N247 N 0.85996 0.79436 0.01014 0.0
H248 H 0.97966 0.14065 0.12414 0.0
H249 H 0.02258 0.85747 0.12349 0.0
H250 H 0.11954 0.0758 0.11966 0.0
H251 H 0.8824 0.92215 0.12151 0.0
H252 H 0.05886 0.93726 0.12412 0.0
H253 H 0.9433 0.06087 0.12516 0.0
C254 C 0.0027 0.1096 0.12341 0.0
C255 C 0.05265 0.11477 0.12176 0.0
C256 C 0.02016 0.93402 0.12357 0.0
C257 C 0.01141 0.02349 0.12295 0.0
C258 C -0.00054 0.88849 0.12324 0.0
C259 C 0.94945 0.88326 0.1224 0.0
C260 C 0.99062 0.97459 0.1231 0.0
C261 C 0.92115 0.92461 0.12212 0.0
C262 C 0.98196 0.06409 0.12397 0.0
C263 C 0.08085 0.07339 0.12088 0.0
N264 N 0.94213 0.96855 0.12245 0.0
N265 N 0.05983 0.02948 0.12148 0.0
H266 H 0.06838 0.3726 0.36073 0.0
H267 H 0.91644 0.61491 0.3628 0.0
H268 H 0.13224 0.51314 0.36556 0.0
H269 H 0.85208 0.47424 0.36243 0.0
H270 H 0.99577 0.57832 0.36219 0.0
H271 H 0.989 0.40916 0.35968 0.0
C272 C 0.06569 0.4112 0.36152 0.0
C273 C 0.10695 0.43991 0.36328 0.0
C274 C 0.96435 0.5554 0.36222 0.0
C275 C 0.01614 0.48202 0.36211 0.0
C276 C 0.91902 0.57627 0.36255 0.0
C277 C 0.87761 0.54754 0.36271 0.0
C278 C 0.96842 0.50536 0.36202 0.0
C279 C 0.88309 0.4977 0.36235 0.0
C280 C 0.02033 0.43205 0.36094 0.0
C281 C 0.10135 0.4897 0.36423 0.0
N282 N 0.92768 0.47818 0.36204 0.0
N283 N 0.05677 0.50918 0.36365 0.0
H284 H 0.51878 0.36206 0.60512 0.0
H285 H 0.47482 0.64516 0.61044 0.0
H286 H 0.37862 0.42604 0.61047 0.0
H287 H 0.61505 0.58069 0.60766 0.0
H288 H 0.43857 0.56529 0.60864 0.0
H289 H 0.55461 0.44211 0.60409 0.0
C290 C 0.49556 0.39297 0.60599 0.0
C291 C 0.44571 0.38745 0.60797 0.0
C292 C 0.47727 0.56863 0.60838 0.0
C293 C 0.48633 0.47909 0.60686 0.0
C294 C 0.49794 0.6142 0.6094 0.0
C295 C 0.54797 0.61949 0.60929 0.0
C296 C 0.50689 0.52813 0.60722 0.0
C297 C 0.57629 0.57821 0.60788 0.0
C298 C 0.516 0.43865 0.60542 0.0
C299 C 0.41726 0.42869 0.609 0.0
N300 N 0.55536 0.5343 0.60694 0.0
N301 N 0.43798 0.47275 0.6085 0.0
H302 H 0.57809 0.87436 0.86812 0.0
H303 H 0.41954 0.10959 0.8857 0.0
H304 H 0.63846 0.01628 0.87391 0.0
H305 H 0.36014 0.9719 0.86692 0.0
H306 H 0.49968 0.07456 0.88576 0.0
H307 H 0.49781 0.90824 0.87155 0.0
C308 C 0.57443 0.9127 0.87016 0.0
C309 C 0.61497 0.94262 0.87066 0.0
C310 C 0.46912 0.05195 0.88173 0.0
C311 C 0.52313 0.98161 0.8747 0.0
C312 C 0.42332 0.07185 0.8818 0.0
C313 C 0.38315 0.04359 0.87623 0.0
C314 C 0.4748 0.00337 0.87614 0.0
C315 C 0.39016 0.99496 0.87128 0.0
C316 C 0.52857 0.932 0.8721 0.0
C317 C 0.60813 0.99198 0.87336 0.0
N318 N 0.43514 0.9764 0.87129 0.0
N319 N 0.56304 0.00996 0.87529 0.0
H320 H 0.02359 0.64085 0.1247 0.0
H321 H 0.97962 0.35734 0.12458 0.0
H322 H 0.88359 0.57506 0.11991 0.0
H323 H 0.11997 0.42287 0.12155 0.0
H324 H 0.94365 0.43696 0.12539 0.0
H325 H 0.05965 0.56125 0.12599 0.0
C326 C 0.00047 0.60964 0.12395 0.0
C327 C 0.95059 0.61447 0.12212 0.0
C328 C 0.98232 0.43393 0.12458 0.0
C329 C 0.99144 0.52345 0.12363 0.0
C330 C 0.00284 0.3885 0.12415 0.0
C331 C 0.05279 0.38358 0.12292 0.0
C332 C 0.01202 0.47467 0.12383 0.0
C333 C 0.08125 0.4251 0.12243 0.0
C334 C 0.02104 0.56423 0.12468 0.0
C335 C 0.92225 0.5729 0.12125 0.0
N336 N 0.06045 0.46891 0.12286 0.0
N337 N 0.94308 0.52913 0.12201 0.0
H338 H 0.41498 0.37311 0.37535 0.0
H339 H 0.56929 0.61511 0.36988 0.0
H340 H 0.35241 0.51356 0.36996 0.0
H341 H 0.63218 0.47444 0.37181 0.0
H342 H 0.48962 0.57869 0.37166 0.0
H343 H 0.49471 0.40967 0.37591 0.0
C344 C 0.41803 0.4117 0.37435 0.0
C345 C 0.37703 0.44038 0.37254 0.0
C346 C 0.52078 0.55573 0.37173 0.0
C347 C 0.46824 0.48247 0.37312 0.0
C348 C 0.56632 0.57651 0.37072 0.0
C349 C 0.6074 0.54771 0.37064 0.0
C350 C 0.51621 0.50574 0.37267 0.0
C351 C 0.60143 0.49794 0.37179 0.0
C352 C 0.46358 0.43254 0.37465 0.0
C353 C 0.38309 0.49014 0.37134 0.0
N354 N 0.55665 0.4785 0.37273 0.0
N355 N 0.42787 0.50961 0.37161 0.0
H356 H 0.37592 0.0793 0.61877 0.0
H357 H 0.61807 0.9266 0.61446 0.0
H358 H 0.51684 0.14194 0.61097 0.0
H359 H 0.47684 0.86291 0.61682 0.0
H360 H 0.58162 0.00581 0.61444 0.0
H361 H 0.41214 -0.00014 0.61928 0.0
C362 C 0.41452 0.07632 0.61716 0.0
C363 C 0.44345 0.11726 0.6148 0.0
C364 C 0.55854 0.97457 0.61497 0.0
C365 C 0.48516 0.02645 0.61541 0.0
C366 C 0.57933 0.9293 0.61501 0.0
C367 C 0.5504 0.88812 0.61563 0.0
C368 C 0.50838 0.97878 0.6156 0.0
C369 C 0.50045 0.89375 0.61632 0.0
C370 C 0.43517 0.03095 0.61744 0.0
C371 C 0.49322 0.11131 0.61279 0.0
N372 N 0.481 0.93827 0.61629 0.0
N373 N 0.5125 0.06676 0.61316 0.0
H374 H 0.86255 0.01562 0.84925 0.0
H375 H 0.14496 0.96924 0.85871 0.0
H376 H 0.92447 0.8757 0.85853 0.0
H377 H 0.08354 0.10695 0.84281 0.0
H378 H 0.06468 0.93362 0.85708 0.0
H379 H 0.94336 0.04944 0.84554 0.0
C380 C 0.89316 0.99202 0.85042 0.0
C381 C 0.88685 0.94285 0.85431 0.0
C382 C 0.0688 0.97157 0.85375 0.0
C383 C 0.97935 0.9812 0.85014 0.0
C384 C 0.11463 0.99187 0.85464 0.0
C385 C 0.12086 0.04113 0.851 0.0
C386 C 0.0289 0.00081 0.84934 0.0
C387 C 0.08033 0.06881 0.8458 0.0
C388 C 0.93927 0.01129 0.84826 0.0
C389 C 0.92772 0.91386 0.85561 0.0
N390 N 0.03606 0.04835 0.8453 0.0
N391 N 0.97222 0.9335 0.85366 0.0
loop_
_geom_bond_atom_site_label_1
_geom_bond_atom_site_label_2
_geom_bond_distance
_geom_bond_site_symmetry_2
_ccdc_geom_bond_type
In0 O1 2.294 . S
In0 O2 2.326 . S
In0 O6 2.266 . S
In0 O7 2.326 . S
In0 O8 2.266 . S
In0 O9 2.326 . S
In0 O11 2.294 . S
In0 O12 2.326 . S
O1 In0 2.294 . S
O1 C10 1.240 . S
O2 In0 2.326 . S
O2 C10 1.252 . S
C3 O6 1.252 . S
C3 O7 1.260 . S
C4 O11 1.240 . S
C4 O12 1.252 . S
C5 O8 1.252 . S
C5 O9 1.260 . S
O6 In0 2.266 . S
O6 C3 1.252 . S
O7 In0 2.326 . S
O7 C3 1.260 . S
O8 In0 2.266 . S
O8 C5 1.252 . S
O9 In0 2.326 . S
O9 C5 1.260 . S
C10 O1 1.240 . S
C10 O2 1.252 . S
O11 In0 2.294 . S
O11 C4 1.240 . S
O12 In0 2.326 . S
O12 C4 1.252 . S
In13 O14 2.294 . S
In13 O15 2.326 . S
In13 O19 2.266 . S
In13 O20 2.326 . S
In13 O21 2.266 . S
In13 O22 2.326 . S
In13 O24 2.294 . S
In13 O25 2.326 . S
O14 In13 2.294 . S
O14 C23 1.240 . S
O15 In13 2.326 . S
O15 C23 1.252 . S
C16 O19 1.252 . S
C16 O20 1.260 . S
C17 O24 1.240 . S
C17 O25 1.252 . S
C18 O21 1.252 . S
C18 O22 1.260 . S
O19 In13 2.266 . S
O19 C16 1.252 . S
O20 In13 2.326 . S
O20 C16 1.260 . S
O21 In13 2.266 . S
O21 C18 1.252 . S
O22 In13 2.326 . S
O22 C18 1.260 . S
C23 O14 1.240 . S
C23 O15 1.252 . S
O24 In13 2.294 . S
O24 C17 1.240 . S
O25 In13 2.326 . S
O25 C17 1.252 . S
In26 O27 2.294 . S
In26 O28 2.326 . S
In26 O32 2.266 . S
In26 O33 2.326 . S
In26 O34 2.266 . S
In26 O35 2.326 . S
In26 O37 2.294 . S
In26 O38 2.326 . S
O27 In26 2.294 . S
O27 C36 1.240 . S
O28 In26 2.326 . S
O28 C36 1.252 . S
C29 O32 1.252 . S
C29 O33 1.260 . S
C30 O37 1.240 . S
C30 O38 1.252 . S
C31 O34 1.252 . S
C31 O35 1.260 . S
O32 In26 2.266 . S
O32 C29 1.252 . S
O33 In26 2.326 . S
O33 C29 1.260 . S
O34 In26 2.266 . S
O34 C31 1.252 . S
O35 In26 2.326 . S
O35 C31 1.260 . S
C36 O27 1.240 . S
C36 O28 1.252 . S
O37 In26 2.294 . S
O37 C30 1.240 . S
O38 In26 2.326 . S
O38 C30 1.252 . S
In39 O40 2.294 . S
In39 O41 2.326 . S
In39 O45 2.266 . S
In39 O46 2.326 . S
In39 O47 2.266 . S
In39 O48 2.326 . S
In39 O50 2.294 . S
In39 O51 2.326 . S
O40 In39 2.294 . S
O40 C49 1.240 . S
O41 In39 2.326 . S
O41 C49 1.252 . S
C42 O45 1.252 . S
C42 O46 1.260 . S
C43 O50 1.240 . S
C43 O51 1.252 . S
C44 O47 1.252 . S
C44 O48 1.260 . S
O45 In39 2.266 . S
O45 C42 1.252 . S
O46 In39 2.326 . S
O46 C42 1.260 . S
O47 In39 2.266 . S
O47 C44 1.252 . S
O48 In39 2.326 . S
O48 C44 1.260 . S
C49 O40 1.240 . S
C49 O41 1.252 . S
O50 In39 2.294 . S
O50 C43 1.240 . S
O51 In39 2.326 . S
O51 C43 1.252 . S
In52 O53 2.294 . S
In52 O54 2.326 . S
In52 O58 2.266 . S
In52 O59 2.326 . S
In52 O60 2.266 . S
In52 O61 2.326 . S
In52 O63 2.294 . S
In52 O64 2.326 . S
O53 In52 2.294 . S
O53 C62 1.240 . S
O54 In52 2.326 . S
O54 C62 1.252 . S
C55 O58 1.252 . S
C55 O59 1.260 . S
C56 O63 1.240 . S
C56 O64 1.252 . S
C57 O60 1.252 . S
C57 O61 1.260 . S
O58 In52 2.266 . S
O58 C55 1.252 . S
O59 In52 2.326 . S
O59 C55 1.260 . S
O60 In52 2.266 . S
O60 C57 1.252 . S
O61 In52 2.326 . S
O61 C57 1.260 . S
C62 O53 1.240 . S
C62 O54 1.252 . S
O63 In52 2.294 . S
O63 C56 1.240 . S
O64 In52 2.326 . S
O64 C56 1.252 . S
In65 O66 2.294 . S
In65 O67 2.326 . S
In65 O71 2.266 . S
In65 O72 2.326 . S
In65 O73 2.266 . S
In65 O74 2.326 . S
In65 O76 2.294 . S
In65 O77 2.326 . S
O66 In65 2.294 . S
O66 C75 1.240 . S
O67 In65 2.326 . S
O67 C75 1.252 . S
C68 O71 1.252 . S
C68 O72 1.260 . S
C69 O76 1.240 . S
C69 O77 1.252 . S
C70 O73 1.252 . S
C70 O74 1.260 . S
O71 In65 2.266 . S
O71 C68 1.252 . S
O72 In65 2.326 . S
O72 C68 1.260 . S
O73 In65 2.266 . S
O73 C70 1.252 . S
O74 In65 2.326 . S
O74 C70 1.260 . S
C75 O66 1.240 . S
C75 O67 1.252 . S
O76 In65 2.294 . S
O76 C69 1.240 . S
O77 In65 2.326 . S
O77 C69 1.252 . S
In78 O79 2.294 . S
In78 O80 2.326 . S
In78 O84 2.266 . S
In78 O85 2.326 . S
In78 O86 2.266 . S
In78 O87 2.326 . S
In78 O89 2.294 . S
In78 O90 2.326 . S
O79 In78 2.294 . S
O79 C88 1.240 . S
O80 In78 2.326 . S
O80 C88 1.252 . S
C81 O84 1.252 . S
C81 O85 1.260 . S
C82 O89 1.240 . S
C82 O90 1.252 . S
C83 O86 1.252 . S
C83 O87 1.260 . S
O84 In78 2.266 . S
O84 C81 1.252 . S
O85 In78 2.326 . S
O85 C81 1.260 . S
O86 In78 2.266 . S
O86 C83 1.252 . S
O87 In78 2.326 . S
O87 C83 1.260 . S
C88 O79 1.240 . S
C88 O80 1.252 . S
O89 In78 2.294 . S
O89 C82 1.240 . S
O90 In78 2.326 . S
O90 C82 1.252 . S
In91 O92 2.294 . S
In91 O93 2.326 . S
In91 O97 2.266 . S
In91 O98 2.326 . S
In91 O99 2.266 . S
In91 O100 2.326 . S
In91 O102 2.294 . S
In91 O103 2.326 . S
O92 In91 2.294 . S
O92 C101 1.240 . S
O93 In91 2.326 . S
O93 C101 1.252 . S
C94 O97 1.252 . S
C94 O98 1.260 . S
C95 O102 1.240 . S
C95 O103 1.252 . S
C96 O99 1.252 . S
C96 O100 1.260 . S
O97 In91 2.266 . S
O97 C94 1.252 . S
O98 In91 2.326 . S
O98 C94 1.260 . S
O99 In91 2.266 . S
O99 C96 1.252 . S
O100 In91 2.326 . S
O100 C96 1.260 . S
C101 O92 1.240 . S
C101 O93 1.252 . S
O102 In91 2.294 . S
O102 C95 1.240 . S
O103 In91 2.326 . S
O103 C95 1.252 . S
H104 C110 0.930 . S
H105 C114 0.930 . S
H106 C119 0.929 . S
H107 C117 0.929 . S
H108 C112 0.929 . S
H109 C118 0.929 . S
C110 H104 0.930 . S
C110 C111 1.367 . S
C110 C118 1.378 . S
C111 C110 1.367 . S
C111 C119 1.433 . S
C112 H108 0.929 . S
C112 C114 1.378 . S
C112 C116 1.350 . S
C113 C116 1.463 1_554 S
C113 C118 1.350 . S
C113 N121 1.427 . S
C114 H105 0.930 . S
C114 C112 1.378 . S
C114 C115 1.367 . S
C115 C114 1.367 . S
C115 C117 1.433 . S
C116 C112 1.350 . S
C116 C113 1.463 1_556 S
C116 N120 1.427 . S
C117 H107 0.929 . S
C117 C115 1.433 . S
C117 N120 1.384 . S
C118 H109 0.929 . S
C118 C110 1.378 . S
C118 C113 1.350 . S
C119 H106 0.929 . S
C119 C111 1.433 . S
C119 N121 1.384 . S
N120 C116 1.427 . S
N120 C117 1.384 . S
N121 C113 1.427 . S
N121 C119 1.384 . S
H122 C128 0.930 . S
H123 C132 0.930 . S
H124 C137 0.929 . S
H125 C135 0.929 . S
H126 C130 0.929 . S
H127 C136 0.929 . S
C128 H122 0.930 . S
C128 C129 1.367 . S
C128 C136 1.378 . S
C129 C128 1.367 . S
C129 C137 1.433 . S
C130 H126 0.929 . S
C130 C132 1.378 . S
C130 C134 1.350 . S
C131 C134 1.463 . S
C131 C136 1.350 . S
C131 N139 1.427 . S
C132 H123 0.930 . S
C132 C130 1.378 . S
C132 C133 1.367 . S
C133 C132 1.367 . S
C133 C135 1.433 . S
C134 C130 1.350 . S
C134 C131 1.463 . S
C134 N138 1.427 . S
C135 H125 0.929 . S
C135 C133 1.433 . S
C135 N138 1.384 . S
C136 H127 0.929 . S
C136 C128 1.378 . S
C136 C131 1.350 . S
C137 H124 0.929 . S
C137 C129 1.433 . S
C137 N139 1.384 . S
N138 C134 1.427 . S
N138 C135 1.384 . S
N139 C131 1.427 . S
N139 C137 1.384 . S
H140 C146 0.930 . S
H141 C150 0.930 . S
H142 C155 0.929 . S
H143 C153 0.929 . S
H144 C148 0.929 . S
H145 C154 0.929 . S
C146 H140 0.930 . S
C146 C147 1.367 . S
C146 C154 1.378 . S
C147 C146 1.367 . S
C147 C155 1.433 . S
C148 H144 0.929 . S
C148 C150 1.378 . S
C148 C152 1.350 . S
C149 C152 1.463 . S
C149 C154 1.350 . S
C149 N157 1.427 . S
C150 H141 0.930 . S
C150 C148 1.378 . S
C150 C151 1.367 . S
C151 C150 1.367 . S
C151 C153 1.433 . S
C152 C148 1.350 . S
C152 C149 1.463 . S
C152 N156 1.427 . S
C153 H143 0.929 . S
C153 C151 1.433 . S
C153 N156 1.384 . S
C154 H145 0.929 . S
C154 C146 1.378 . S
C154 C149 1.350 . S
C155 H142 0.929 . S
C155 C147 1.433 . S
C155 N157 1.384 . S
N156 C152 1.427 . S
N156 C153 1.384 . S
N157 C149 1.427 . S
N157 C155 1.384 . S
H158 C164 0.930 . S
H159 C168 0.930 . S
H160 C173 0.929 . S
H161 C171 0.929 . S
H162 C166 0.929 . S
H163 C172 0.929 . S
C164 H158 0.930 . S
C164 C165 1.367 . S
C164 C172 1.378 . S
C165 C164 1.367 . S
C165 C173 1.433 . S
C166 H162 0.929 . S
C166 C168 1.378 . S
C166 C170 1.350 . S
C167 C170 1.463 . S
C167 C172 1.350 . S
C167 N175 1.427 . S
C168 H159 0.930 . S
C168 C166 1.378 . S
C168 C169 1.367 . S
C169 C168 1.367 . S
C169 C171 1.433 . S
C170 C166 1.350 . S
C170 C167 1.463 . S
C170 N174 1.427 . S
C171 H161 0.929 . S
C171 C169 1.433 . S
C171 N174 1.384 . S
C172 H163 0.929 . S
C172 C164 1.378 . S
C172 C167 1.350 . S
C173 H160 0.929 . S
C173 C165 1.433 . S
C173 N175 1.384 . S
N174 C170 1.427 . S
N174 C171 1.384 . S
N175 C167 1.427 . S
N175 C173 1.384 . S
H176 C182 0.930 . S
H177 C186 0.930 . S
H178 C191 0.929 . S
H179 C189 0.929 . S
H180 C184 0.929 . S
H181 C190 0.929 . S
C182 H176 0.930 . S
C182 C183 1.367 . S
C182 C190 1.378 . S
C183 C182 1.367 . S
C183 C191 1.433 . S
C184 H180 0.929 . S
C184 C186 1.378 . S
C184 C188 1.350 . S
C185 C188 1.463 . S
C185 C190 1.350 . S
C185 N193 1.427 . S
C186 H177 0.930 . S
C186 C184 1.378 . S
C186 C187 1.367 . S
C187 C186 1.367 . S
C187 C189 1.433 . S
C188 C184 1.350 . S
C188 C185 1.463 . S
C188 N192 1.427 . S
C189 H179 0.929 . S
C189 C187 1.433 . S
C189 N192 1.384 . S
C190 H181 0.929 . S
C190 C182 1.378 . S
C190 C185 1.350 . S
C191 H178 0.929 . S
C191 C183 1.433 . S
C191 N193 1.384 . S
N192 C188 1.427 . S
N192 C189 1.384 . S
N193 C185 1.427 . S
N193 C191 1.384 . S
H194 C200 0.930 . S
H195 C204 0.930 . S
H196 C209 0.929 . S
H197 C207 0.929 . S
H198 C202 0.929 . S
H199 C208 0.929 . S
C200 H194 0.930 . S
C200 C201 1.367 . S
C200 C208 1.378 . S
C201 C200 1.367 . S
C201 C209 1.433 . S
C202 H198 0.929 . S
C202 C204 1.378 . S
C202 C206 1.350 . S
C203 C206 1.463 . S
C203 C208 1.350 . S
C203 N211 1.427 . S
C204 H195 0.930 . S
C204 C202 1.378 . S
C204 C205 1.367 . S
C205 C204 1.367 . S
C205 C207 1.433 . S
C206 C202 1.350 . S
C206 C203 1.463 . S
C206 N210 1.427 . S
C207 H197 0.929 . S
C207 C205 1.433 . S
C207 N210 1.384 . S
C208 H199 0.929 . S
C208 C200 1.378 . S
C208 C203 1.350 . S
C209 H196 0.929 . S
C209 C201 1.433 . S
C209 N211 1.384 . S
N210 C206 1.427 . S
N210 C207 1.384 . S
N211 C203 1.427 . S
N211 C209 1.384 . S
H212 C218 0.930 . S
H213 C222 0.930 . S
H214 C227 0.929 . S
H215 C225 0.929 . S
H216 C220 0.929 . S
H217 C226 0.929 . S
C218 H212 0.930 . S
C218 C219 1.367 . S
C218 C226 1.378 . S
C219 C218 1.367 . S
C219 C227 1.433 . S
C220 H216 0.929 . S
C220 C222 1.378 . S
C220 C224 1.350 . S
C221 C224 1.463 . S
C221 C226 1.350 . S
C221 N229 1.427 . S
C222 H213 0.930 . S
C222 C220 1.378 . S
C222 C223 1.367 . S
C223 C222 1.367 . S
C223 C225 1.433 . S
C224 C220 1.350 . S
C224 C221 1.463 . S
C224 N228 1.427 . S
C225 H215 0.929 . S
C225 C223 1.433 . S
C225 N228 1.384 . S
C226 H217 0.929 . S
C226 C218 1.378 . S
C226 C221 1.350 . S
C227 H214 0.929 . S
C227 C219 1.433 . S
C227 N229 1.384 . S
N228 C224 1.427 . S
N228 C225 1.384 . S
N229 C221 1.427 . S
N229 C227 1.384 . S
H230 C236 0.930 . S
H231 C240 0.930 . S
H232 C245 0.929 . S
H233 C243 0.929 . S
H234 C238 0.929 . S
H235 C244 0.929 . S
C236 H230 0.930 . S
C236 C237 1.367 . S
C236 C244 1.378 . S
C237 C236 1.367 . S
C237 C245 1.433 . S
C238 H234 0.929 . S
C238 C240 1.378 . S
C238 C242 1.350 . S
C239 C242 1.463 1_554 S
C239 C244 1.350 . S
C239 N247 1.427 . S
C240 H231 0.930 . S
C240 C238 1.378 . S
C240 C241 1.367 . S
C241 C240 1.367 . S
C241 C243 1.433 . S
C242 C238 1.350 . S
C242 C239 1.463 1_556 S
C242 N246 1.427 . S
C243 H233 0.929 . S
C243 C241 1.433 . S
C243 N246 1.384 . S
C244 H235 0.929 . S
C244 C236 1.378 . S
C244 C239 1.350 . S
C245 H232 0.929 . S
C245 C237 1.433 . S
C245 N247 1.384 . S
N246 C242 1.427 . S
N246 C243 1.384 . S
N247 C239 1.427 . S
N247 C245 1.384 . S
H248 C254 0.930 . S
H249 C258 0.930 . S
H250 C263 0.929 . S
H251 C261 0.929 . S
H252 C256 0.929 . S
H253 C262 0.929 . S
C254 H248 0.930 . S
C254 C255 1.367 . S
C254 C262 1.378 . S
C255 C254 1.367 . S
C255 C263 1.433 . S
C256 H252 0.929 . S
C256 C258 1.378 . S
C256 C260 1.350 . S
C257 C260 1.463 1_445 S
C257 C262 1.350 . S
C257 N265 1.427 . S
C258 H249 0.930 . S
C258 C256 1.378 . S
C258 C259 1.367 . S
C259 C258 1.367 . S
C259 C261 1.433 . S
C260 C256 1.350 . S
C260 C257 1.463 1_665 S
C260 N264 1.427 . S
C261 H251 0.929 . S
C261 C259 1.433 . S
C261 N264 1.384 . S
C262 H253 0.929 . S
C262 C254 1.378 . S
C262 C257 1.350 . S
C263 H250 0.929 . S
C263 C255 1.433 . S
C263 N265 1.384 . S
N264 C260 1.427 . S
N264 C261 1.384 . S
N265 C257 1.427 . S
N265 C263 1.384 . S
H266 C272 0.930 . S
H267 C276 0.930 . S
H268 C281 0.929 . S
H269 C279 0.929 . S
H270 C274 0.929 . S
H271 C280 0.929 . S
C272 H266 0.930 . S
C272 C273 1.367 . S
C272 C280 1.378 . S
C273 C272 1.367 . S
C273 C281 1.433 . S
C274 H270 0.929 . S
C274 C276 1.378 . S
C274 C278 1.350 . S
C275 C278 1.463 1_455 S
C275 C280 1.350 . S
C275 N283 1.427 . S
C276 H267 0.930 . S
C276 C274 1.378 . S
C276 C277 1.367 . S
C277 C276 1.367 . S
C277 C279 1.433 . S
C278 C274 1.350 . S
C278 C275 1.463 1_655 S
C278 N282 1.427 . S
C279 H269 0.929 . S
C279 C277 1.433 . S
C279 N282 1.384 . S
C280 H271 0.929 . S
C280 C272 1.378 . S
C280 C275 1.350 . S
C281 H268 0.929 . S
C281 C273 1.433 . S
C281 N283 1.384 . S
N282 C278 1.427 . S
N282 C279 1.384 . S
N283 C275 1.427 . S
N283 C281 1.384 . S
H284 C290 0.930 . S
H285 C294 0.930 . S
H286 C299 0.929 . S
H287 C297 0.929 . S
H288 C292 0.929 . S
H289 C298 0.929 . S
C290 H284 0.930 . S
C290 C291 1.367 . S
C290 C298 1.378 . S
C291 C290 1.367 . S
C291 C299 1.433 . S
C292 H288 0.929 . S
C292 C294 1.378 . S
C292 C296 1.350 . S
C293 C296 1.463 . S
C293 C298 1.350 . S
C293 N301 1.427 . S
C294 H285 0.930 . S
C294 C292 1.378 . S
C294 C295 1.367 . S
C295 C294 1.367 . S
C295 C297 1.433 . S
C296 C292 1.350 . S
C296 C293 1.463 . S
C296 N300 1.427 . S
C297 H287 0.929 . S
C297 C295 1.433 . S
C297 N300 1.384 . S
C298 H289 0.929 . S
C298 C290 1.378 . S
C298 C293 1.350 . S
C299 H286 0.929 . S
C299 C291 1.433 . S
C299 N301 1.384 . S
N300 C296 1.427 . S
N300 C297 1.384 . S
N301 C293 1.427 . S
N301 C299 1.384 . S
H302 C308 0.930 . S
H303 C312 0.930 . S
H304 C317 0.929 . S
H305 C315 0.929 . S
H306 C310 0.929 . S
H307 C316 0.929 . S
C308 H302 0.930 . S
C308 C309 1.367 . S
C308 C316 1.378 . S
C309 C308 1.367 . S
C309 C317 1.433 . S
C310 H306 0.929 . S
C310 C312 1.378 . S
C310 C314 1.350 . S
C311 C314 1.463 1_565 S
C311 C316 1.350 . S
C311 N319 1.427 . S
C312 H303 0.930 . S
C312 C310 1.378 . S
C312 C313 1.367 . S
C313 C312 1.367 . S
C313 C315 1.433 . S
C314 C310 1.350 . S
C314 C311 1.463 1_545 S
C314 N318 1.427 . S
C315 H305 0.929 . S
C315 C313 1.433 . S
C315 N318 1.384 . S
C316 H307 0.929 . S
C316 C308 1.378 . S
C316 C311 1.350 . S
C317 H304 0.929 . S
C317 C309 1.433 . S
C317 N319 1.384 . S
N318 C314 1.427 . S
N318 C315 1.384 . S
N319 C311 1.427 . S
N319 C317 1.384 . S
H320 C326 0.930 1_455 S
H321 C330 0.930 1_655 S
H322 C335 0.929 . S
H323 C333 0.929 . S
H324 C328 0.929 . S
H325 C334 0.929 . S
C326 H320 0.930 1_655 S
C326 C327 1.367 . S
C326 C334 1.378 1_655 S
C327 C326 1.367 . S
C327 C335 1.433 . S
C328 H324 0.929 . S
C328 C330 1.378 1_655 S
C328 C332 1.350 1_655 S
C329 C332 1.463 1_655 S
C329 C334 1.350 1_655 S
C329 N337 1.427 . S
C330 H321 0.930 1_455 S
C330 C328 1.378 1_455 S
C330 C331 1.367 . S
C331 C330 1.367 . S
C331 C333 1.433 . S
C332 C328 1.350 1_455 S
C332 C329 1.463 1_455 S
C332 N336 1.427 . S
C333 H323 0.929 . S
C333 C331 1.433 . S
C333 N336 1.384 . S
C334 H325 0.929 . S
C334 C326 1.378 1_455 S
C334 C329 1.350 1_455 S
C335 H322 0.929 . S
C335 C327 1.433 . S
C335 N337 1.384 . S
N336 C332 1.427 . S
N336 C333 1.384 . S
N337 C329 1.427 . S
N337 C335 1.384 . S
H338 C344 0.930 . S
H339 C348 0.930 . S
H340 C353 0.929 . S
H341 C351 0.929 . S
H342 C346 0.929 . S
H343 C352 0.929 . S
C344 H338 0.930 . S
C344 C345 1.367 . S
C344 C352 1.378 . S
C345 C344 1.367 . S
C345 C353 1.433 . S
C346 H342 0.929 . S
C346 C348 1.378 . S
C346 C350 1.350 . S
C347 C350 1.463 . S
C347 C352 1.350 . S
C347 N355 1.427 . S
C348 H339 0.930 . S
C348 C346 1.378 . S
C348 C349 1.367 . S
C349 C348 1.367 . S
C349 C351 1.433 . S
C350 C346 1.350 . S
C350 C347 1.463 . S
C350 N354 1.427 . S
C351 H341 0.929 . S
C351 C349 1.433 . S
C351 N354 1.384 . S
C352 H343 0.929 . S
C352 C344 1.378 . S
C352 C347 1.350 . S
C353 H340 0.929 . S
C353 C345 1.433 . S
C353 N355 1.384 . S
N354 C350 1.427 . S
N354 C351 1.384 . S
N355 C347 1.427 . S
N355 C353 1.384 . S
H356 C362 0.930 . S
H357 C366 0.930 . S
H358 C371 0.929 . S
H359 C369 0.929 . S
H360 C364 0.929 . S
H361 C370 0.929 . S
C362 H356 0.930 . S
C362 C363 1.367 . S
C362 C370 1.378 . S
C363 C362 1.367 . S
C363 C371 1.433 . S
C364 H360 0.929 . S
C364 C366 1.378 . S
C364 C368 1.350 . S
C365 C368 1.463 1_545 S
C365 C370 1.350 . S
C365 N373 1.427 . S
C366 H357 0.930 . S
C366 C364 1.378 . S
C366 C367 1.367 . S
C367 C366 1.367 . S
C367 C369 1.433 . S
C368 C364 1.350 . S
C368 C365 1.463 1_565 S
C368 N372 1.427 . S
C369 H359 0.929 . S
C369 C367 1.433 . S
C369 N372 1.384 . S
C370 H361 0.929 . S
C370 C362 1.378 . S
C370 C365 1.350 . S
C371 H358 0.929 . S
C371 C363 1.433 . S
C371 N373 1.384 . S
N372 C368 1.427 . S
N372 C369 1.384 . S
N373 C365 1.427 . S
N373 C371 1.384 . S
H374 C380 0.930 1_545 S
H375 C384 0.930 1_565 S
H376 C389 0.929 . S
H377 C387 0.929 . S
H378 C382 0.929 . S
H379 C388 0.929 . S
C380 H374 0.930 1_565 S
C380 C381 1.367 . S
C380 C388 1.378 1_565 S
C381 C380 1.367 . S
C381 C389 1.433 . S
C382 H378 0.929 . S
C382 C384 1.378 1_565 S
C382 C386 1.350 1_565 S
C383 C386 1.463 1_665 S
C383 C388 1.350 1_565 S
C383 N391 1.427 . S
C384 H375 0.930 1_545 S
C384 C382 1.378 1_545 S
C384 C385 1.367 . S
C385 C384 1.367 . S
C385 C387 1.433 . S
C386 C382 1.350 1_545 S
C386 C383 1.463 1_445 S
C386 N390 1.427 . S
C387 H377 0.929 . S
C387 C385 1.433 . S
C387 N390 1.384 . S
C388 H379 0.929 . S
C388 C380 1.378 1_545 S
C388 C383 1.350 1_545 S
C389 H376 0.929 . S
C389 C381 1.433 . S
C389 N391 1.384 . S
N390 C386 1.427 . S
N390 C387 1.384 . S
N391 C383 1.427 . S
N391 C389 1.384 . S
C111 C5 1.329 . S
C115 C68 1.325 . S
C129 C23 1.330 . S
C133 C88 1.332 . S
C147 C31 1.331 . S
C151 C94 1.328 . S
C165 C49 1.333 . S
C169 C56 1.334 . S
C183 C101 1.334 . S
C187 C4 1.333 . S
C201 C57 1.327 . S
C205 C16 1.331 . S
C219 C30 1.335 . S
C223 C75 1.330 . S
C237 C81 1.330 . S
C241 C42 1.325 . S
C255 C3 1.532 . S
C259 C83 1.533 . S
C273 C95 1.527 . S
C277 C17 1.529 . S
C291 C29 1.533 . S
C295 C55 1.532 . S
C309 C43 1.527 . S
C313 C69 1.529 . S
C327 C82 1.527 . S
C331 C10 1.527 . S
C345 C96 1.532 . S
C349 C18 1.533 . S
C363 C36 1.527 . S
C367 C62 1.529 . S
C381 C44 1.532 . S
C385 C70 1.532 . S
