# Generated by pormake.
# Topology sml, (6)-cn, num edge types: 1
# Building blocks:
#     Node 0, Type 0, BuildingBlock: JUFBIX_clean_sbu_0, # of connection points: 6
#     Node 1, Type 0, BuildingBlock: JUFBIX_clean_sbu_0, # of connection points: 6
#     Node 2, Type 0, BuildingBlock: JUFBIX_clean_sbu_0, # of connection points: 6
#     Node 3, Type 0, BuildingBlock: JUFBIX_clean_sbu_0, # of connection points: 6
#     Node 4, Type 0, BuildingBlock: JUFBIX_clean_sbu_0, # of connection points: 6
#     Node 5, Type 0, BuildingBlock: JUFBIX_clean_sbu_0, # of connection points: 6
#     Edge 6, Type (0, 0), BuildingBlock: EZIPEK_clean_linker_0, # of connection points: 2
#     Edge 7, Type (0, 0), BuildingBlock: EZIPEK_clean_linker_0, # of connection points: 2
#     Edge 8, Type (0, 0), BuildingBlock: EZIPEK_clean_linker_0, # of connection points: 2
#     Edge 9, Type (0, 0), BuildingBlock: EZIPEK_clean_linker_0, # of connection points: 2
#     Edge 10, Type (0, 0), BuildingBlock: EZIPEK_clean_linker_0, # of connection points: 2
#     Edge 11, Type (0, 0), BuildingBlock: EZIPEK_clean_linker_0, # of connection points: 2
#     Edge 12, Type (0, 0), BuildingBlock: EZIPEK_clean_linker_0, # of connection points: 2
#     Edge 13, Type (0, 0), BuildingBlock: EZIPEK_clean_linker_0, # of connection points: 2
#     Edge 14, Type (0, 0), BuildingBlock: EZIPEK_clean_linker_0, # of connection points: 2
#     Edge 15, Type (0, 0), BuildingBlock: EZIPEK_clean_linker_0, # of connection points: 2
#     Edge 16, Type (0, 0), BuildingBlock: EZIPEK_clean_linker_0, # of connection points: 2
#     Edge 17, Type (0, 0), BuildingBlock: EZIPEK_clean_linker_0, # of connection points: 2
#     Edge 18, Type (0, 0), BuildingBlock: EZIPEK_clean_linker_0, # of connection points: 2
#     Edge 19, Type (0, 0), BuildingBlock: EZIPEK_clean_linker_0, # of connection points: 2
#     Edge 20, Type (0, 0), BuildingBlock: EZIPEK_clean_linker_0, # of connection points: 2
#     Edge 21, Type (0, 0), BuildingBlock: EZIPEK_clean_linker_0, # of connection points: 2
#     Edge 22, Type (0, 0), BuildingBlock: EZIPEK_clean_linker_0, # of connection points: 2
#     Edge 23, Type (0, 0), BuildingBlock: EZIPEK_clean_linker_0, # of connection points: 2
# Relax obj value: 0.312
# Max RMSD: 0.201
# Mean RMSD: 0.201
data_MOF--net-sml--node1-JUFBIX_clean_sbu_0--edge1-EZIPEK_clean_linker_0
_symmetry_space_group_name_H-M    P1
_symmetry_Int_Tables_number       1
_symmetry_cell_setting            triclinic
loop_
_symmetry_equiv_pos_as_xyz
'x, y, z'
_cell_length_a     33.911866
_cell_length_b     34.093217
_cell_length_c     10.738895
_cell_angle_alpha  90.039045
_cell_angle_beta   89.801402
_cell_angle_gamma 120.28358
loop_
_atom_site_label
_atom_site_type_symbol
_atom_site_fract_x
_atom_site_fract_y
_atom_site_fract_z
_atom_type_partial_charge
Co0 Co 0.324 0.50192 -0.01587 0.0
C1 C 0.25209 0.5186 0.04098 0.0
Co2 Co 0.25477 0.44034 -0.00454 0.0
C3 C 0.42299 0.56684 0.93986 0.0
C4 C 0.37811 0.59187 0.89611 0.0
N5 N 0.37869 0.55623 0.94954 0.0
N6 N 0.44909 0.60739 0.88231 0.0
C7 C 0.42092 0.62311 0.85619 0.0
H8 H 0.43556 0.54492 0.97052 0.0
H9 H 0.34797 0.59422 0.87976 0.0
C10 C 0.32776 0.42411 0.94786 0.0
N11 N 0.19888 0.38657 0.02063 0.0
C12 C 0.16477 0.37956 0.09994 0.0
C13 C 0.18559 0.3451 0.97282 0.0
N14 N 0.13143 0.33554 0.10506 0.0
C15 C 0.14435 0.31367 0.0251 0.0
C16 C 0.27648 0.4689 0.75623 0.0
O17 O 0.35264 0.46711 0.95476 0.0
O18 O 0.28481 0.40579 0.96512 0.0
O19 O 0.24349 0.43873 0.82044 0.0
O20 O 0.31171 0.49928 0.81122 0.0
O21 O 0.22603 0.47599 0.02681 0.0
H22 H 0.20517 0.33783 0.90662 0.0
H23 H 0.16474 0.40577 0.15615 0.0
O24 O 0.2944 0.53592 0.0183 0.0
O25 O 0.33558 0.50378 0.15865 0.0
O26 O 0.26694 0.44273 0.16912 0.0
C27 C 0.30245 0.47359 0.22336 0.0
H28 H 0.43081 0.65507 0.8103 0.0
H29 H 0.1256 0.27747 0.00743 0.0
Co30 Co 0.77491 0.21394 0.52268 0.0
C31 C 0.84314 0.30389 0.48394 0.0
Co32 Co 0.84484 0.22366 0.51501 0.0
C33 C 0.70463 0.23085 0.61501 0.0
C34 C 0.67834 0.17718 0.48069 0.0
N35 N 0.71709 0.20711 0.53969 0.0
N36 N 0.6598 0.21695 0.60495 0.0
C37 C 0.64303 0.18323 0.5205 0.0
H38 H 0.72799 0.25798 0.67577 0.0
H39 H 0.67592 0.15252 0.41312 0.0
C40 C 0.77544 0.13308 0.55101 0.0
N41 N 0.90311 0.23103 0.49693 0.0
C42 C 0.93603 0.25831 0.41503 0.0
C43 C 0.92031 0.20778 0.55471 0.0
N44 N 0.97262 0.25263 0.41827 0.0
C45 C 0.96294 0.22084 0.50613 0.0
C46 C 0.81879 0.22706 0.75234 0.0
O47 O 0.74967 0.15012 0.54363 0.0
O48 O 0.81846 0.15901 0.53814 0.0
O49 O 0.85247 0.23131 0.68914 0.0
O50 O 0.78305 0.22114 0.69748 0.0
O51 O 0.86969 0.28776 0.49324 0.0
H52 H 0.90252 0.18214 0.62538 0.0
H53 H 0.93284 0.28088 0.35088 0.0
O54 O 0.80047 0.27754 0.49981 0.0
O55 O 0.76774 0.20694 0.34785 0.0
O56 O 0.83672 0.21609 0.34025 0.0
C57 C 0.80139 0.211 0.28494 0.0
H58 H 0.60786 0.16448 0.49001 0.0
H59 H 0.98483 0.20756 0.53163 0.0
Co60 Co 0.61152 0.85355 0.70581 0.0
C61 C 0.60062 0.76704 0.74474 0.0
Co62 Co 0.67722 0.85373 0.70924 0.0
C63 C 0.53841 0.87817 0.67778 0.0
C64 C 0.51998 0.81027 0.62787 0.0
N65 N 0.55404 0.84844 0.68101 0.0
N66 N 0.4964 0.85918 0.62512 0.0
C67 C 0.48496 0.81665 0.59516 0.0
H68 H 0.55791 0.91315 0.70805 0.0
H69 H 0.52118 0.78006 0.60482 0.0
C70 C 0.68667 0.94002 0.67652 0.0
N71 N 0.7328 0.85509 0.72393 0.0
C72 C 0.7405 0.82606 0.79099 0.0
C73 C 0.77462 0.88735 0.68439 0.0
N74 N 0.7852 0.83937 0.79724 0.0
C75 C 0.80695 0.87793 0.73015 0.0
C76 C 0.64548 0.84723 0.4753 0.0
O77 O 0.64312 0.91797 0.68274 0.0
O78 O 0.7083 0.91864 0.68883 0.0
O79 O 0.67798 0.84757 0.53476 0.0
O80 O 0.61293 0.84688 0.53375 0.0
O81 O 0.64389 0.78728 0.73279 0.0
H82 H 0.78149 0.91677 0.6297 0.0
H83 H 0.71422 0.79657 0.83917 0.0
O84 O 0.58111 0.78995 0.73199 0.0
O85 O 0.61126 0.86015 0.88105 0.0
O86 O 0.67699 0.86163 0.88049 0.0
C87 C 0.64497 0.86217 0.94011 0.0
H88 H 0.45361 0.79223 0.54953 0.0
H89 H 0.84359 0.89835 0.71812 0.0
Co90 Co 0.89037 0.58946 0.16953 0.0
C91 C 0.8029 0.57255 0.11124 0.0
Co92 Co 0.88444 0.65098 0.16223 0.0
C93 C 0.89721 0.51351 0.27222 0.0
C94 C 0.87732 0.50487 0.08058 0.0
N95 N 0.89172 0.53539 0.17435 0.0
N96 N 0.88592 0.47053 0.24274 0.0
C97 C 0.87389 0.46523 0.12212 0.0
H98 H 0.90636 0.52757 0.36506 0.0
H99 H 0.86665 0.50974 -0.00993 0.0
C100 C 0.97214 0.66726 0.21906 0.0
N101 N 0.88072 0.70349 0.15449 0.0
C102 C 0.85692 0.71303 0.07115 0.0
C103 C 0.90225 0.74096 0.22629 0.0
N104 N 0.86296 0.75494 0.08767 0.0
C105 C 0.89154 0.77277 0.18499 0.0
C106 C 0.87087 0.61383 0.40047 0.0
O107 O 0.95391 0.62446 0.20564 0.0
O108 O 0.94815 0.68591 0.20166 0.0
O109 O 0.8712 0.64538 0.33651 0.0
O110 O 0.87777 0.58507 0.3435 0.0
O111 O 0.82086 0.61529 0.12255 0.0
H112 H 0.92467 0.74507 0.30283 0.0
H113 H 0.83614 0.69002 -0.00188 0.0
O114 O 0.82686 0.5544 0.13341 0.0
O115 O 0.90344 0.59553 -0.00578 0.0
O116 O 0.89798 0.6564 -0.01123 0.0
C117 C 0.90494 0.62785 0.93123 0.0
H118 H 0.86118 0.43399 0.06986 0.0
H119 H 0.90382 0.8064 0.22284 0.0
Co120 Co 0.24315 0.7685 0.42067 0.0
C121 C 0.33242 0.83729 0.46206 0.0
Co122 Co 0.25026 0.83713 0.4201 0.0
C123 C 0.22316 0.68106 0.31983 0.0
C124 C 0.25551 0.69449 0.49808 0.0
N125 N 0.23722 0.71081 0.41617 0.0
N126 N 0.23349 0.64798 0.33674 0.0
C127 C 0.25331 0.65601 0.44953 0.0
H128 H 0.20868 0.68529 0.23481 0.0
H129 H 0.27227 0.71123 0.58371 0.0
C130 C 0.16095 0.76753 0.38255 0.0
N131 N 0.25787 0.89551 0.42372 0.0
C132 C 0.2898 0.93202 0.48744 0.0
C133 C 0.23027 0.90938 0.37495 0.0
N134 N 0.28257 0.96748 0.4829 0.0
C135 C 0.24517 0.95341 0.41193 0.0
C136 C 0.25543 0.80641 0.18775 0.0
O137 O 0.17867 0.74254 0.3966 0.0
O138 O 0.18597 0.81042 0.39309 0.0
O139 O 0.25879 0.84059 0.2454 0.0
O140 O 0.25146 0.77274 0.24811 0.0
O141 O 0.31514 0.86265 0.44915 0.0
H142 H 0.20036 0.88845 0.31928 0.0
H143 H 0.31691 0.93229 0.54075 0.0
O144 O 0.30719 0.79476 0.44601 0.0
O145 O 0.23538 0.76572 0.59473 0.0
O146 O 0.24041 0.83257 0.59282 0.0
C147 C 0.23661 0.79885 0.65306 0.0
H148 H 0.26735 0.63673 0.49083 0.0
H149 H 0.22923 0.97328 0.39084 0.0
Co150 Co 0.51332 0.34142 0.82908 0.0
C151 C 0.54712 0.28179 0.80981 0.0
Co152 Co 0.45917 0.26905 0.82007 0.0
C153 C 0.5976 0.41795 0.9105 0.0
C154 C 0.56199 0.43854 0.78666 0.0
N155 N 0.55947 0.40158 0.84065 0.0
N156 N 0.62359 0.46345 0.90236 0.0
C157 C 0.60161 0.47677 0.82436 0.0
H158 H 0.60638 0.39691 0.96574 0.0
H159 H 0.53675 0.4377 0.72371 0.0
C160 C 0.42641 0.33026 0.83799 0.0
N161 N 0.41285 0.20835 0.81051 0.0
C162 C 0.40877 0.17563 0.73106 0.0
C163 C 0.37405 0.18834 0.87854 0.0
N164 N 0.36854 0.13645 0.74545 0.0
C165 C 0.34668 0.14438 0.83826 0.0
C166 C 0.48588 0.3005 0.05817 0.0
O167 O 0.46884 0.35932 0.83927 0.0
O168 O 0.41415 0.2883 0.82943 0.0
O169 O 0.4595 0.26516 -0.00393 0.0
O170 O 0.51247 0.33732 0.00253 0.0
O171 O 0.50485 0.25155 0.8084 0.0
H172 H 0.36595 0.20477 0.95209 0.0
H173 H 0.43425 0.18072 0.66196 0.0
O174 O 0.55752 0.32298 0.81936 0.0
O175 O 0.51378 0.34515 0.6529 0.0
O176 O 0.45942 0.27328 0.64686 0.0
C177 C 0.48678 0.30987 0.5912 0.0
H178 H 0.61384 0.51142 0.79511 0.0
H179 H 0.31318 0.12003 0.87389 0.0
C180 C 0.40182 0.38612 0.77572 0.0
C181 C 0.39291 0.34688 0.84518 0.0
C182 C 0.33867 0.35626 0.9766 0.0
C183 C 0.34827 0.39602 0.90928 0.0
N184 N 0.37826 0.44022 0.72097 0.0
N185 N 0.33843 0.28533 0.97585 0.0
C186 C 0.3768 0.40852 0.80185 0.0
C187 C 0.3568 0.32891 0.9342 0.0
N188 N 0.43409 0.40189 0.68341 0.0
N189 N 0.31396 0.34543 0.08468 0.0
H190 H 0.34787 0.26283 0.94125 0.0
H191 H 0.30948 0.26952 0.03239 0.0
H192 H 0.29962 0.36393 0.11951 0.0
H193 H 0.31111 0.32035 0.14565 0.0
H194 H 0.44746 0.4339 0.64305 0.0
H195 H 0.44852 0.38332 0.6491 0.0
H196 H 0.39423 0.44717 0.63428 0.0
H197 H 0.35954 0.45648 0.73397 0.0
C198 C 0.04725 0.29243 0.13046 0.0
C199 C 0.09136 0.31547 0.18434 0.0
C200 C 0.05645 0.30156 0.39235 0.0
C201 C 1.01268 0.27417 0.33908 0.0
N202 N 0.96718 0.23644 0.15881 0.0
N203 N 0.13828 0.33471 0.36762 0.0
C204 C 1.00825 0.2677 0.20825 0.0
C205 C 0.09609 0.31815 0.31583 0.0
N206 N 1.0426 0.29552 0.0052 0.0
N207 N 0.05998 0.31292 0.51537 0.0
H208 H 0.16773 0.34538 0.31442 0.0
H209 H 0.14344 0.33367 0.46286 0.0
H210 H 1.03148 0.30226 0.57273 0.0
H211 H 0.09065 0.33632 0.55717 0.0
H212 H 1.01108 0.28306 0.96177 0.0
H213 H 0.07044 0.31453 0.94656 0.0
H214 H 0.96281 0.22715 0.06523 0.0
H215 H 0.93844 0.21647 0.21355 0.0
C216 C 0.72788 0.0674 0.69553 0.0
C217 C 0.75543 0.08411 0.58634 0.0
C218 C 0.74229 1.00723 0.54406 0.0
C219 C 0.71177 0.98992 0.64783 0.0
N220 N 0.67423 1.0032 0.82022 0.0
N221 N 0.78761 0.06999 0.4031 0.0
C222 C 0.70416 1.01997 0.72243 0.0
C223 C 0.76284 0.05414 0.51077 0.0
N224 N 0.72649 0.09729 0.77807 0.0
N225 N 0.75137 0.97877 0.47576 0.0
H226 H 0.80526 0.10415 0.37849 0.0
H227 H 0.78899 0.04932 0.33401 0.0
H228 H 0.73314 0.94358 0.48435 0.0
H229 H 0.77823 0.98994 0.41252 0.0
H230 H 0.71215 0.08837 0.86668 0.0
H231 H 0.74343 0.13222 0.76375 0.0
H232 H 0.66126 1.02128 0.86572 0.0
H233 H 0.6607 0.97023 0.85345 0.0
C234 C 0.83149 0.80193 0.81191 0.0
C235 C 0.80557 0.81879 0.87073 0.0
C236 C 0.81388 0.78923 0.07102 0.0
C237 C 0.84363 0.77659 0.01445 0.0
N238 N 0.88833 0.77942 0.83667 0.0
N239 N 0.78035 0.83726 0.06031 0.0
C240 C 0.85456 0.7853 0.88618 0.0
C241 C 0.79903 0.81488 0.00168 0.0
N242 N 0.83264 0.80027 0.68502 0.0
N243 N 0.79854 0.77528 0.18953 0.0
H244 H 0.7711 0.85807 0.01287 0.0
H245 H 0.77832 0.83889 0.15682 0.0
H246 H 0.80781 0.75532 0.24126 0.0
H247 H 0.77332 0.77971 0.23159 0.0
H248 H 0.84733 0.78428 0.63682 0.0
H249 H 0.81507 0.81111 0.62828 0.0
H250 H 0.90082 0.78926 0.74645 0.0
H251 H 0.90701 0.769 0.89013 0.0
C252 C 0.09972 0.75595 0.22797 0.0
C253 C 0.11191 0.74646 0.34634 0.0
C254 C 1.03243 0.6861 0.3821 0.0
C255 C 1.02022 0.69497 0.263 0.0
N256 N 1.04014 0.74163 0.07868 0.0
N257 N 0.08859 0.71171 0.5479 0.0
C258 C 0.05322 0.73119 0.18834 0.0
C259 C 0.07785 0.71394 0.42651 0.0
N260 N 0.13291 0.78711 0.15077 0.0
N261 N 1.00051 0.6512 0.45352 0.0
H262 H 0.12091 0.73353 0.58411 0.0
H263 H 0.06487 0.69198 0.61583 0.0
H264 H 0.96601 0.63265 0.43092 0.0
H265 H 1.00836 0.63906 0.53293 0.0
H266 H 0.12777 0.79171 0.05778 0.0
H267 H 0.16696 0.80697 0.17664 0.0
H268 H 0.06048 0.77099 0.02751 0.0
H269 H 1.00775 0.72183 0.04035 0.0
C270 C 0.3439 0.0935 0.54601 0.0
C271 C 0.35116 0.09452 0.67633 0.0
C272 C 0.31115 1.01123 0.67981 0.0
C273 C 0.30734 1.01033 0.54812 0.0
N274 N 0.32983 0.05108 0.35389 0.0
N275 N 0.35196 0.05515 0.86111 0.0
C276 C 0.32675 0.05171 0.48055 0.0
C277 C 0.33797 0.05351 0.74124 0.0
N278 N 0.35094 0.13177 0.48578 0.0
N279 N 0.28707 0.97211 0.74698 0.0
H280 H 0.37298 0.08573 0.90674 0.0
H281 H 0.34682 1.0265 0.90987 0.0
H282 H 0.26483 0.94093 0.70614 0.0
H283 H 0.28543 0.97148 0.84395 0.0
H284 H 0.34198 0.13187 0.39308 0.0
H285 H 0.36156 0.16245 0.53136 0.0
H286 H 0.34734 0.08044 0.30019 0.0
H287 H 0.31894 1.02111 0.30403 0.0
C288 C 0.28205 0.4324 0.55814 0.0
C289 C 0.27785 0.46739 0.61786 0.0
C290 C 0.2976 0.51066 0.42166 0.0
C291 C 0.3015 0.4755 0.36186 0.0
N292 N 0.30749 0.40852 0.37629 0.0
N293 N 0.27382 0.53559 0.60495 0.0
C294 C 0.2961 0.4377 0.43103 0.0
C295 C 0.28383 0.50555 0.54911 0.0
N296 N 0.27234 0.39395 0.62263 0.0
N297 N 0.30778 0.54926 0.35724 0.0
H298 H 0.26219 0.53164 0.69668 0.0
H299 H 0.27286 0.56191 0.55887 0.0
H300 H 0.31714 0.55411 0.26374 0.0
H301 H 0.30998 0.57806 0.39736 0.0
H302 H 0.26989 0.36512 0.58189 0.0
H303 H 0.26358 0.38923 0.71657 0.0
H304 H 0.30859 0.38232 0.42261 0.0
H305 H 0.32062 0.41359 0.28605 0.0
C306 C 0.80453 0.17981 0.07821 0.0
C307 C 0.80194 0.21369 0.14763 0.0
C308 C 0.81531 0.25906 0.95821 0.0
C309 C 0.81883 0.22541 0.88967 0.0
N310 N 0.8257 0.15818 0.8859 0.0
N311 N 0.79941 0.28318 0.15572 0.0
C312 C 0.81633 0.18719 0.95018 0.0
C313 C 0.80569 0.2527 0.08816 0.0
N314 N 0.79237 0.13912 0.13342 0.0
N315 N 0.82372 0.29811 0.8992 0.0
H316 H 0.79281 0.27996 0.25091 0.0
H317 H 0.7983 0.31066 0.11803 0.0
H318 H 0.83333 0.30436 0.80575 0.0
H319 H 0.82482 0.32586 0.94279 0.0
H320 H 0.78902 0.11099 0.0859 0.0
H321 H 0.78031 0.13186 0.22476 0.0
H322 H 0.82968 0.13293 0.92817 0.0
H323 H 0.83284 0.16111 0.79095 0.0
C324 C 0.65089 0.81981 0.26451 0.0
C325 C 0.64681 0.8516 0.33896 0.0
C326 C 0.63595 0.88701 0.15346 0.0
C327 C 0.64445 0.85804 0.07761 0.0
N328 N 0.66433 0.79857 0.06311 0.0
N329 N 0.64525 0.92166 0.3545 0.0
C330 C 0.65384 0.82544 0.13374 0.0
C331 C 0.64181 0.88676 0.28366 0.0
N332 N 0.64866 0.78226 0.3178 0.0
N333 N 0.62249 0.91512 0.10244 0.0
H334 H 0.65032 0.92364 0.44984 0.0
H335 H 0.64799 0.95115 0.31739 0.0
H336 H 0.62116 0.91978 0.00741 0.0
H337 H 0.60943 0.93169 0.15512 0.0
H338 H 0.64527 0.75471 0.2669 0.0
H339 H 0.64585 0.77638 0.41347 0.0
H340 H 0.67972 0.78125 0.0995 0.0
H341 H 0.65791 0.79323 0.96854 0.0
C342 C 0.90596 0.66397 0.72468 0.0
C343 C 0.90488 0.62737 0.79058 0.0
C344 C 0.87147 0.57889 0.60712 0.0
C345 C 0.87215 0.61529 0.54105 0.0
N346 N 0.87226 0.68605 0.56177 0.0
N347 N 0.90702 0.558 0.76755 0.0
C348 C 0.88453 0.65623 0.60632 0.0
C349 C 0.8935 0.58699 0.72436 0.0
N350 N 0.93055 0.70701 0.77093 0.0
N351 N 0.8468 0.53568 0.56212 0.0
H352 H 0.92963 0.56635 0.84163 0.0
H353 H 0.9021 0.52961 0.71785 0.0
H354 H 0.82583 0.52788 0.48423 0.0
H355 H 0.84196 0.50733 0.61184 0.0
H356 H 0.93652 0.73563 0.72061 0.0
H357 H 0.95048 0.71445 0.85087 0.0
H358 H 0.87776 0.71475 0.61087 0.0
H359 H 0.84987 0.67835 0.4875 0.0
C360 C 0.27792 0.83971 0.84817 0.0
C361 C 0.2406 0.80107 0.79037 0.0
C362 C 0.21262 0.76617 -0.00534 0.0
C363 C 0.25125 0.8036 0.05111 0.0
N364 N 0.32547 0.87038 0.03073 0.0
N365 N 0.17604 0.72468 0.8075 0.0
C366 C 0.28499 0.83905 -0.02219 0.0
C367 C 0.20928 0.76336 0.86323 0.0
N368 N 0.3078 0.87673 0.77965 0.0
N369 N 0.17753 0.73447 0.06611 0.0
H370 H 0.16847 0.72225 0.7131 0.0
H371 H 0.15736 0.6938 0.85397 0.0
H372 H 0.17757 0.73463 0.1626 0.0
H373 H 0.14599 0.71026 0.03045 0.0
H374 H 0.32979 0.9083 0.81905 0.0
H375 H 0.31064 0.87663 0.68354 0.0
H376 H 0.35384 0.89382 -0.02016 0.0
H377 H 0.33256 0.8701 0.12496 0.0
C378 C 0.52591 0.31248 0.39192 0.0
C379 C 0.48783 0.30998 0.45472 0.0
C380 C 0.44606 0.29465 0.25892 0.0
C381 C 0.48522 0.30009 0.19495 0.0
N382 N 0.56353 0.31719 0.19564 0.0
N383 N 0.41418 0.30451 0.45085 0.0
C384 C 0.52556 0.31005 0.26009 0.0
C385 C 0.44847 0.30244 0.38905 0.0
N386 N 0.56133 0.31483 0.45871 0.0
N387 N 0.4066 0.2821 0.19526 0.0
H388 H 0.41465 0.30983 0.5466 0.0
H389 H 0.38689 0.30453 0.40696 0.0
H390 H 0.40418 0.2787 0.09898 0.0
H391 H 0.37535 0.27225 0.23782 0.0
H392 H 0.58742 0.31111 0.41993 0.0
H393 H 0.5633 0.31757 0.55532 0.0
H394 H 0.59574 0.33066 0.2354 0.0
H395 H 0.56344 0.31148 0.10018 0.0
C396 C 0.25245 0.59235 0.05488 0.0
C397 C 0.23633 0.5479 0.10231 0.0
C398 C 0.20562 0.56778 0.28441 0.0
C399 C 0.22984 0.614 0.249 0.0
N400 N 0.28205 0.67149 0.1058 0.0
N401 N 0.20375 0.4963 0.27799 0.0
C402 C 0.25433 0.62668 0.13463 0.0
C403 C 0.21366 0.53593 0.22029 0.0
N404 N 0.26609 0.60175 0.93349 0.0
N405 N 0.17541 0.55455 0.38126 0.0
H406 H 0.21264 0.47361 0.24181 0.0
H407 H 0.19176 0.48859 0.36929 0.0
H408 H 0.16893 0.57741 0.429 0.0
H409 H 0.15361 0.52061 0.4049 0.0
H410 H 0.2746 0.63245 0.89063 0.0
H411 H 0.26403 0.57694 0.87257 0.0
H412 H 0.30422 0.68253 0.0297 0.0
H413 H 0.28635 0.69776 0.16411 0.0
C414 C 0.60226 0.20862 0.76171 0.0
C415 C 0.63497 0.23497 0.66949 0.0
C416 C 0.62313 0.29859 0.71484 0.0
C417 C 0.58326 0.26923 0.7857 0.0
N418 N 0.54075 0.19883 0.89887 0.0
N419 N 0.67312 0.30319 0.54703 0.0
C420 C 0.5746 0.22485 0.81586 0.0
C421 C 0.64453 0.27949 0.64324 0.0
N422 N 0.599 0.16887 0.79991 0.0
N423 N 0.64253 0.34472 0.72065 0.0
H424 H 0.68898 0.28995 0.49172 0.0
H425 H 0.67746 0.33397 0.51488 0.0
H426 H 0.63343 0.36108 0.78657 0.0
H427 H 0.67296 0.36704 0.67534 0.0
H428 H 0.5786 0.14925 0.87357 0.0
H429 H 0.61955 0.15702 0.76291 0.0
H430 H 0.52814 0.16431 0.91266 0.0
H431 H 0.52539 0.21226 0.95549 0.0
C432 C 0.5227 0.66644 0.95379 0.0
C433 C 0.49771 0.63396 0.86276 0.0
C434 C 0.55534 0.68222 0.70684 0.0
C435 C 0.57235 0.71922 0.79134 0.0
N436 N 0.56342 0.74625 -0.00739 0.0
N437 N 0.49103 0.60777 0.65323 0.0
C438 C 0.55458 0.71111 0.91544 0.0
C439 C 0.51512 0.64046 0.73971 0.0
N440 N 0.51214 0.65568 0.07626 0.0
N441 N 0.57624 0.68768 0.59427 0.0
H442 H 0.46227 0.57695 0.67818 0.0
H443 H 0.49847 0.61178 0.55836 0.0
H444 H 0.6053 0.71811 0.56906 0.0
H445 H 0.56714 0.66126 0.5313 0.0
H446 H 0.5313 0.67741 0.14836 0.0
H447 H 0.48728 0.62309 0.10427 0.0
H448 H 0.54793 0.74218 0.07935 0.0
H449 H 0.5818 0.77958 0.96346 0.0
C450 C 0.8912 0.36833 0.33424 0.0
C451 C 0.86023 0.35111 0.43698 0.0
C452 C 0.84776 0.41582 0.4165 0.0
C453 C 0.88183 0.43465 0.32258 0.0
N454 N 0.94435 0.43501 0.21677 0.0
N455 N 0.81777 0.36541 0.59413 0.0
C456 C 0.90673 0.41311 0.29143 0.0
C457 C 0.84146 0.37722 0.48442 0.0
N458 N 0.90191 0.34079 0.26774 0.0
N459 N 0.81917 0.43257 0.43499 0.0
H460 H 0.81329 0.33803 0.64783 0.0
H461 H 0.80679 0.38558 0.63772 0.0
H462 H 0.82131 0.45938 0.38314 0.0
H463 H 0.79069 0.41705 0.49334 0.0
H464 H 0.92132 0.3512 0.18622 0.0
H465 H 0.88606 0.30597 0.28206 0.0
H466 H 0.96608 0.42234 0.19879 0.0
H467 H 0.95611 0.46794 0.18409 0.0
C468 C 0.4188 0.88298 0.44252 0.0
C469 C 0.37916 0.85553 0.51539 0.0
C470 C 0.42857 0.85971 0.68777 0.0
C471 C 0.46571 0.87605 0.6055 0.0
N472 N 0.4988 0.90665 0.40683 0.0
N473 N 0.34716 0.81378 0.70751 0.0
C474 C 0.46186 0.88997 0.48426 0.0
C475 C 0.38427 0.84351 0.6392 0.0
N476 N 0.41511 0.90089 0.33258 0.0
N477 N 0.43569 0.85618 0.81111 0.0
H478 H 0.31419 0.79904 0.67402 0.0
H479 H 0.34933 0.80049 0.79285 0.0
H480 H 0.46833 0.86667 0.84537 0.0
H481 H 0.41063 0.84756 0.87912 0.0
H482 H 0.44318 0.92382 0.27988 0.0
H483 H 0.38392 0.89544 0.29912 0.0
H484 H 0.49762 0.91278 0.31232 0.0
H485 H 0.5305 0.9127 0.43832 0.0
C486 C 0.75096 0.523 0.94038 0.0
C487 C 0.7563 0.54463 0.05801 0.0
C488 C 0.67301 0.51093 0.07379 0.0
C489 C 0.66829 0.49125 0.9547 0.0
N490 N 0.701 0.48109 0.76806 0.0
N491 N 0.72337 0.56186 0.23414 0.0
C492 C 0.70685 0.49793 0.88644 0.0
C493 C 0.71752 0.53951 0.12385 0.0
N494 N 0.78806 0.52616 0.88028 0.0
N495 N 0.63451 0.50102 0.13956 0.0
H496 H 0.75506 0.58072 0.27713 0.0
H497 H 0.69736 0.56342 0.28132 0.0
H498 H 0.6018 0.48092 0.10305 0.0
H499 H 0.63443 0.51042 0.23166 0.0
H500 H 0.78607 0.50654 0.80374 0.0
H501 H 0.82136 0.5471 0.90996 0.0
H502 H 0.72759 0.48879 0.70608 0.0
H503 H 0.66888 0.46122 0.72814 0.0
loop_
_geom_bond_atom_site_label_1
_geom_bond_atom_site_label_2
_geom_bond_distance
_geom_bond_site_symmetry_2
_ccdc_geom_bond_type
Co0 N5 2.057 . S
Co0 O17 2.021 . S
Co0 O20 2.062 . S
Co0 O24 2.117 1_556 S
Co0 O25 2.020 1_556 S
C1 O21 1.259 . S
C1 O24 1.258 . S
Co2 N11 2.057 . S
Co2 O18 2.116 1_554 S
Co2 O19 2.020 1_554 S
Co2 O21 2.021 . S
Co2 O26 2.062 . S
C3 N5 1.316 . S
C3 N6 1.347 . S
C3 H8 0.931 . S
C4 N5 1.375 . S
C4 C7 1.350 . S
C4 H9 0.930 1_556 S
N5 Co0 2.057 . S
N5 C3 1.316 . S
N5 C4 1.375 . S
N6 C3 1.347 . S
N6 C7 1.373 . S
C7 C4 1.350 . S
C7 N6 1.373 . S
C7 H28 0.931 . S
H8 C3 0.931 . S
H9 C4 0.930 1_554 S
C10 O17 1.259 . S
C10 O18 1.259 . S
N11 Co2 2.057 . S
N11 C12 1.316 . S
N11 C13 1.375 . S
C12 N11 1.316 . S
C12 N14 1.347 . S
C12 H23 0.931 . S
C13 N11 1.375 . S
C13 C15 1.350 . S
C13 H22 0.930 . S
N14 C12 1.347 . S
N14 C15 1.373 . S
C15 C13 1.350 . S
C15 N14 1.373 . S
C15 H29 0.931 . S
C16 O19 1.256 . S
C16 O20 1.255 . S
O17 Co0 2.021 . S
O17 C10 1.259 . S
O18 Co2 2.116 1_556 S
O18 C10 1.259 . S
O19 Co2 2.020 1_556 S
O19 C16 1.256 . S
O20 Co0 2.062 . S
O20 C16 1.255 . S
O21 C1 1.259 . S
O21 Co2 2.021 . S
H22 C13 0.930 . S
H23 C12 0.931 . S
O24 Co0 2.117 1_554 S
O24 C1 1.258 . S
O25 Co0 2.020 1_554 S
O25 C27 1.256 . S
O26 Co2 2.062 . S
O26 C27 1.255 . S
C27 O25 1.256 . S
C27 O26 1.255 . S
H28 C7 0.931 . S
H29 C15 0.931 . S
Co30 N35 2.057 . S
Co30 O47 2.021 . S
Co30 O50 2.062 . S
Co30 O54 2.117 . S
Co30 O55 2.020 . S
C31 O51 1.259 . S
C31 O54 1.258 . S
Co32 N41 2.057 . S
Co32 O48 2.117 . S
Co32 O49 2.020 . S
Co32 O51 2.021 . S
Co32 O56 2.062 . S
C33 N35 1.316 . S
C33 N36 1.347 . S
C33 H38 0.931 . S
C34 N35 1.375 . S
C34 C37 1.350 . S
C34 H39 0.930 . S
N35 Co30 2.057 . S
N35 C33 1.316 . S
N35 C34 1.375 . S
N36 C33 1.347 . S
N36 C37 1.373 . S
C37 C34 1.350 . S
C37 N36 1.373 . S
C37 H58 0.931 . S
H38 C33 0.931 . S
H39 C34 0.930 . S
C40 O47 1.259 . S
C40 O48 1.258 . S
N41 Co32 2.057 . S
N41 C42 1.316 . S
N41 C43 1.375 . S
C42 N41 1.316 . S
C42 N44 1.347 . S
C42 H53 0.931 . S
C43 N41 1.375 . S
C43 C45 1.350 . S
C43 H52 0.930 . S
N44 C42 1.347 . S
N44 C45 1.373 . S
C45 C43 1.350 . S
C45 N44 1.373 . S
C45 H59 0.931 . S
C46 O49 1.256 . S
C46 O50 1.255 . S
O47 Co30 2.021 . S
O47 C40 1.259 . S
O48 Co32 2.117 . S
O48 C40 1.258 . S
O49 Co32 2.020 . S
O49 C46 1.256 . S
O50 Co30 2.062 . S
O50 C46 1.255 . S
O51 C31 1.259 . S
O51 Co32 2.021 . S
H52 C43 0.930 . S
H53 C42 0.931 . S
O54 Co30 2.117 . S
O54 C31 1.258 . S
O55 Co30 2.020 . S
O55 C57 1.256 . S
O56 Co32 2.062 . S
O56 C57 1.255 . S
C57 O55 1.256 . S
C57 O56 1.255 . S
H58 C37 0.931 . S
H59 C45 0.931 . S
Co60 N65 2.057 . S
Co60 O77 2.021 . S
Co60 O80 2.062 . S
Co60 O84 2.117 . S
Co60 O85 2.020 . S
C61 O81 1.259 . S
C61 O84 1.258 . S
Co62 N71 2.057 . S
Co62 O78 2.117 . S
Co62 O79 2.020 . S
Co62 O81 2.021 . S
Co62 O86 2.062 . S
C63 N65 1.316 . S
C63 N66 1.347 . S
C63 H68 0.931 . S
C64 N65 1.375 . S
C64 C67 1.350 . S
C64 H69 0.930 . S
N65 Co60 2.057 . S
N65 C63 1.316 . S
N65 C64 1.375 . S
N66 C63 1.347 . S
N66 C67 1.373 . S
C67 C64 1.350 . S
C67 N66 1.373 . S
C67 H88 0.931 . S
H68 C63 0.931 . S
H69 C64 0.930 . S
C70 O77 1.259 . S
C70 O78 1.258 . S
N71 Co62 2.057 . S
N71 C72 1.316 . S
N71 C73 1.375 . S
C72 N71 1.316 . S
C72 N74 1.347 . S
C72 H83 0.931 . S
C73 N71 1.375 . S
C73 C75 1.350 . S
C73 H82 0.930 . S
N74 C72 1.347 . S
N74 C75 1.373 . S
C75 C73 1.350 . S
C75 N74 1.373 . S
C75 H89 0.931 . S
C76 O79 1.256 . S
C76 O80 1.255 . S
O77 Co60 2.021 . S
O77 C70 1.259 . S
O78 Co62 2.117 . S
O78 C70 1.258 . S
O79 Co62 2.020 . S
O79 C76 1.256 . S
O80 Co60 2.062 . S
O80 C76 1.255 . S
O81 C61 1.259 . S
O81 Co62 2.021 . S
H82 C73 0.930 . S
H83 C72 0.931 . S
O84 Co60 2.117 . S
O84 C61 1.258 . S
O85 Co60 2.020 . S
O85 C87 1.256 . S
O86 Co62 2.062 . S
O86 C87 1.255 . S
C87 O85 1.256 . S
C87 O86 1.255 . S
H88 C67 0.931 . S
H89 C75 0.931 . S
Co90 N95 2.057 . S
Co90 O107 2.021 . S
Co90 O110 2.062 . S
Co90 O114 2.117 . S
Co90 O115 2.020 . S
C91 O111 1.259 . S
C91 O114 1.258 . S
Co92 N101 2.057 . S
Co92 O108 2.117 . S
Co92 O109 2.020 . S
Co92 O111 2.021 . S
Co92 O116 2.062 . S
C93 N95 1.316 . S
C93 N96 1.347 . S
C93 H98 0.931 . S
C94 N95 1.375 . S
C94 C97 1.350 . S
C94 H99 0.930 . S
N95 Co90 2.057 . S
N95 C93 1.316 . S
N95 C94 1.375 . S
N96 C93 1.347 . S
N96 C97 1.373 . S
C97 C94 1.350 . S
C97 N96 1.373 . S
C97 H118 0.931 . S
H98 C93 0.931 . S
H99 C94 0.930 . S
C100 O107 1.259 . S
C100 O108 1.258 . S
N101 Co92 2.057 . S
N101 C102 1.316 . S
N101 C103 1.375 . S
C102 N101 1.316 . S
C102 N104 1.347 . S
C102 H113 0.931 . S
C103 N101 1.375 . S
C103 C105 1.350 . S
C103 H112 0.930 . S
N104 C102 1.347 . S
N104 C105 1.373 . S
C105 C103 1.350 . S
C105 N104 1.373 . S
C105 H119 0.931 . S
C106 O109 1.256 . S
C106 O110 1.255 . S
O107 Co90 2.021 . S
O107 C100 1.259 . S
O108 Co92 2.117 . S
O108 C100 1.258 . S
O109 Co92 2.020 . S
O109 C106 1.256 . S
O110 Co90 2.062 . S
O110 C106 1.255 . S
O111 C91 1.259 . S
O111 Co92 2.021 . S
H112 C103 0.930 . S
H113 C102 0.931 . S
O114 Co90 2.117 . S
O114 C91 1.258 . S
O115 Co90 2.020 . S
O115 C117 1.256 1_554 S
O116 Co92 2.062 . S
O116 C117 1.255 1_554 S
C117 O115 1.256 1_556 S
C117 O116 1.255 1_556 S
H118 C97 0.931 . S
H119 C105 0.931 . S
Co120 N125 2.057 . S
Co120 O137 2.021 . S
Co120 O140 2.062 . S
Co120 O144 2.117 . S
Co120 O145 2.020 . S
C121 O141 1.259 . S
C121 O144 1.258 . S
Co122 N131 2.057 . S
Co122 O138 2.117 . S
Co122 O139 2.020 . S
Co122 O141 2.021 . S
Co122 O146 2.062 . S
C123 N125 1.316 . S
C123 N126 1.347 . S
C123 H128 0.931 . S
C124 N125 1.375 . S
C124 C127 1.350 . S
C124 H129 0.930 . S
N125 Co120 2.057 . S
N125 C123 1.316 . S
N125 C124 1.375 . S
N126 C123 1.347 . S
N126 C127 1.373 . S
C127 C124 1.350 . S
C127 N126 1.373 . S
C127 H148 0.931 . S
H128 C123 0.931 . S
H129 C124 0.930 . S
C130 O137 1.259 . S
C130 O138 1.258 . S
N131 Co122 2.057 . S
N131 C132 1.316 . S
N131 C133 1.375 . S
C132 N131 1.316 . S
C132 N134 1.347 . S
C132 H143 0.931 . S
C133 N131 1.375 . S
C133 C135 1.350 . S
C133 H142 0.930 . S
N134 C132 1.347 . S
N134 C135 1.373 . S
C135 C133 1.350 . S
C135 N134 1.373 . S
C135 H149 0.931 . S
C136 O139 1.256 . S
C136 O140 1.255 . S
O137 Co120 2.021 . S
O137 C130 1.259 . S
O138 Co122 2.117 . S
O138 C130 1.258 . S
O139 Co122 2.020 . S
O139 C136 1.256 . S
O140 Co120 2.062 . S
O140 C136 1.255 . S
O141 C121 1.259 . S
O141 Co122 2.021 . S
H142 C133 0.930 . S
H143 C132 0.931 . S
O144 Co120 2.117 . S
O144 C121 1.258 . S
O145 Co120 2.020 . S
O145 C147 1.256 . S
O146 Co122 2.062 . S
O146 C147 1.255 . S
C147 O145 1.256 . S
C147 O146 1.255 . S
H148 C127 0.931 . S
H149 C135 0.931 . S
Co150 N155 2.057 . S
Co150 O167 2.021 . S
Co150 O170 2.062 1_556 S
Co150 O174 2.117 . S
Co150 O175 2.020 . S
C151 O171 1.259 . S
C151 O174 1.258 . S
Co152 N161 2.057 . S
Co152 O168 2.117 . S
Co152 O169 2.020 1_556 S
Co152 O171 2.021 . S
Co152 O176 2.062 . S
C153 N155 1.316 1_554 S
C153 N156 1.347 . S
C153 H158 0.931 . S
C154 N155 1.375 . S
C154 C157 1.350 . S
C154 H159 0.930 . S
N155 Co150 2.057 . S
N155 C153 1.316 1_556 S
N155 C154 1.375 . S
N156 C153 1.347 . S
N156 C157 1.373 1_554 S
C157 C154 1.350 . S
C157 N156 1.373 1_556 S
C157 H178 0.931 . S
H158 C153 0.931 . S
H159 C154 0.930 . S
C160 O167 1.259 . S
C160 O168 1.258 . S
N161 Co152 2.057 . S
N161 C162 1.316 . S
N161 C163 1.375 . S
C162 N161 1.316 . S
C162 N164 1.347 . S
C162 H173 0.931 . S
C163 N161 1.375 . S
C163 C165 1.350 . S
C163 H172 0.930 . S
N164 C162 1.347 . S
N164 C165 1.373 . S
C165 C163 1.350 . S
C165 N164 1.373 . S
C165 H179 0.931 . S
C166 O169 1.256 . S
C166 O170 1.255 . S
O167 Co150 2.021 . S
O167 C160 1.259 . S
O168 Co152 2.117 . S
O168 C160 1.258 . S
O169 Co152 2.020 1_554 S
O169 C166 1.256 . S
O170 Co150 2.062 1_554 S
O170 C166 1.255 . S
O171 C151 1.259 . S
O171 Co152 2.021 . S
H172 C163 0.930 . S
H173 C162 0.931 . S
O174 Co150 2.117 . S
O174 C151 1.258 . S
O175 Co150 2.020 . S
O175 C177 1.256 . S
O176 Co152 2.062 . S
O176 C177 1.255 . S
C177 O175 1.256 . S
C177 O176 1.255 . S
H178 C157 0.931 . S
H179 C165 0.931 . S
C180 C181 1.363 . S
C180 C186 1.379 . S
C180 N188 1.356 . S
C181 C180 1.363 . S
C181 C187 1.363 1_556 S
C182 C183 1.363 1_554 S
C182 C187 1.379 . S
C182 N189 1.356 . S
C183 C182 1.363 1_556 S
C183 C186 1.363 . S
N184 C186 1.356 . S
N184 H196 0.984 . S
N184 H197 0.985 . S
N185 C187 1.356 . S
N185 H190 0.984 . S
N185 H191 0.985 . S
C186 C180 1.379 . S
C186 C183 1.363 . S
C186 N184 1.356 . S
C187 C181 1.363 1_554 S
C187 C182 1.379 . S
C187 N185 1.356 . S
N188 C180 1.356 . S
N188 H194 0.984 . S
N188 H195 0.984 . S
N189 C182 1.356 . S
N189 H192 0.984 . S
N189 H193 0.985 . S
H190 N185 0.984 . S
H191 N185 0.985 . S
H192 N189 0.984 . S
H193 N189 0.985 . S
H194 N188 0.984 . S
H195 N188 0.984 . S
H196 N184 0.984 . S
H197 N184 0.985 . S
C198 C199 1.363 . S
C198 C204 1.379 1_455 S
C198 N206 1.356 . S
C199 C198 1.363 . S
C199 C205 1.363 . S
C200 C201 1.363 1_455 S
C200 C205 1.379 . S
C200 N207 1.356 1_455 S
C201 C200 1.363 1_655 S
C201 C204 1.363 . S
N202 C204 1.356 . S
N202 H214 0.984 . S
N202 H215 0.985 . S
N203 C205 1.356 . S
N203 H208 0.984 . S
N203 H209 0.985 . S
C204 C198 1.379 1_655 S
C204 C201 1.363 . S
C204 N202 1.356 . S
C205 C199 1.363 . S
C205 C200 1.379 . S
C205 N203 1.356 . S
N206 C198 1.356 . S
N206 H212 0.984 . S
N206 H213 0.984 . S
N207 C200 1.356 1_655 S
N207 H210 0.984 . S
N207 H211 0.985 . S
H208 N203 0.984 . S
H209 N203 0.985 . S
H210 N207 0.984 . S
H211 N207 0.985 . S
H212 N206 0.984 . S
H213 N206 0.984 . S
H214 N202 0.984 . S
H215 N202 0.985 . S
C216 C217 1.363 . S
C216 C222 1.379 1_545 S
C216 N224 1.356 . S
C217 C216 1.363 . S
C217 C223 1.363 . S
C218 C219 1.363 . S
C218 C223 1.379 1_565 S
C218 N225 1.356 . S
C219 C218 1.363 . S
C219 C222 1.363 . S
N220 C222 1.356 . S
N220 H232 0.984 . S
N220 H233 0.985 . S
N221 C223 1.356 . S
N221 H226 0.984 . S
N221 H227 0.985 . S
C222 C216 1.379 1_565 S
C222 C219 1.363 . S
C222 N220 1.356 . S
C223 C217 1.363 . S
C223 C218 1.379 1_545 S
C223 N221 1.356 . S
N224 C216 1.356 . S
N224 H230 0.984 . S
N224 H231 0.984 . S
N225 C218 1.356 . S
N225 H228 0.984 . S
N225 H229 0.985 . S
H226 N221 0.984 . S
H227 N221 0.985 . S
H228 N225 0.984 . S
H229 N225 0.985 . S
H230 N224 0.984 . S
H231 N224 0.984 . S
H232 N220 0.984 . S
H233 N220 0.985 . S
C234 C235 1.363 . S
C234 C240 1.379 . S
C234 N242 1.356 . S
C235 C234 1.363 . S
C235 C241 1.363 . S
C236 C237 1.363 . S
C236 C241 1.379 1_554 S
C236 N243 1.356 . S
C237 C236 1.363 . S
C237 C240 1.363 1_554 S
N238 C240 1.356 . S
N238 H250 0.984 . S
N238 H251 0.985 1_556 S
N239 C241 1.356 . S
N239 H244 0.984 . S
N239 H245 0.985 . S
C240 C234 1.379 . S
C240 C237 1.363 1_556 S
C240 N238 1.356 . S
C241 C235 1.363 . S
C241 C236 1.379 1_556 S
C241 N239 1.356 . S
N242 C234 1.356 . S
N242 H248 0.984 . S
N242 H249 0.984 . S
N243 C236 1.356 . S
N243 H246 0.984 . S
N243 H247 0.985 . S
H244 N239 0.984 . S
H245 N239 0.985 . S
H246 N243 0.984 . S
H247 N243 0.985 . S
H248 N242 0.984 . S
H249 N242 0.984 . S
H250 N238 0.984 . S
H251 N238 0.985 1_554 S
C252 C253 1.363 . S
C252 C258 1.379 1_455 S
C252 N260 1.356 . S
C253 C252 1.363 . S
C253 C259 1.363 . S
C254 C255 1.363 . S
C254 C259 1.379 1_655 S
C254 N261 1.356 . S
C255 C254 1.363 . S
C255 C258 1.363 . S
N256 C258 1.356 . S
N256 H268 0.984 . S
N256 H269 0.985 . S
N257 C259 1.356 . S
N257 H262 0.984 . S
N257 H263 0.985 . S
C258 C252 1.379 1_655 S
C258 C255 1.363 . S
C258 N256 1.356 . S
C259 C253 1.363 . S
C259 C254 1.379 1_455 S
C259 N257 1.356 . S
N260 C252 1.356 . S
N260 H266 0.984 . S
N260 H267 0.984 . S
N261 C254 1.356 . S
N261 H264 0.984 . S
N261 H265 0.985 . S
H262 N257 0.984 . S
H263 N257 0.985 . S
H264 N261 0.984 . S
H265 N261 0.985 . S
H266 N260 0.984 . S
H267 N260 0.984 . S
H268 N256 0.984 . S
H269 N256 0.985 . S
C270 C271 1.363 . S
C270 C276 1.379 . S
C270 N278 1.356 . S
C271 C270 1.363 . S
C271 C277 1.363 . S
C272 C273 1.363 . S
C272 C277 1.379 1_565 S
C272 N279 1.356 . S
C273 C272 1.363 . S
C273 C276 1.363 1_565 S
N274 C276 1.356 1_565 S
N274 H286 0.984 1_565 S
N274 H287 0.985 . S
N275 C277 1.356 . S
N275 H280 0.984 . S
N275 H281 0.985 . S
C276 C270 1.379 . S
C276 C273 1.363 1_545 S
C276 N274 1.356 1_545 S
C277 C271 1.363 . S
C277 C272 1.379 1_545 S
C277 N275 1.356 . S
N278 C270 1.356 . S
N278 H284 0.984 . S
N278 H285 0.984 . S
N279 C272 1.356 . S
N279 H282 0.984 . S
N279 H283 0.985 . S
H280 N275 0.984 . S
H281 N275 0.985 . S
H282 N279 0.984 . S
H283 N279 0.985 . S
H284 N278 0.984 . S
H285 N278 0.984 . S
H286 N274 0.984 1_545 S
H287 N274 0.985 . S
C288 C289 1.363 . S
C288 C294 1.379 . S
C288 N296 1.356 . S
C289 C288 1.363 . S
C289 C295 1.363 . S
C290 C291 1.363 . S
C290 C295 1.379 . S
C290 N297 1.356 . S
C291 C290 1.363 . S
C291 C294 1.363 . S
N292 C294 1.356 . S
N292 H304 0.984 . S
N292 H305 0.985 . S
N293 C295 1.356 . S
N293 H298 0.984 . S
N293 H299 0.985 . S
C294 C288 1.379 . S
C294 C291 1.363 . S
C294 N292 1.356 . S
C295 C289 1.363 . S
C295 C290 1.379 . S
C295 N293 1.356 . S
N296 C288 1.356 . S
N296 H302 0.984 . S
N296 H303 0.984 . S
N297 C290 1.356 . S
N297 H300 0.984 . S
N297 H301 0.985 . S
H298 N293 0.984 . S
H299 N293 0.985 . S
H300 N297 0.984 . S
H301 N297 0.985 . S
H302 N296 0.984 . S
H303 N296 0.984 . S
H304 N292 0.984 . S
H305 N292 0.985 . S
C306 C307 1.363 . S
C306 C312 1.379 . S
C306 N314 1.356 . S
C307 C306 1.363 . S
C307 C313 1.363 . S
C308 C309 1.363 1_554 S
C308 C313 1.379 . S
C308 N315 1.356 1_554 S
C309 C308 1.363 1_556 S
C309 C312 1.363 1_556 S
N310 C312 1.356 1_556 S
N310 H322 0.984 . S
N310 H323 0.985 . S
N311 C313 1.356 . S
N311 H316 0.984 . S
N311 H317 0.985 . S
C312 C306 1.379 . S
C312 C309 1.363 1_554 S
C312 N310 1.356 1_554 S
C313 C307 1.363 . S
C313 C308 1.379 . S
C313 N311 1.356 . S
N314 C306 1.356 . S
N314 H320 0.984 . S
N314 H321 0.984 . S
N315 C308 1.356 1_556 S
N315 H318 0.984 . S
N315 H319 0.985 . S
H316 N311 0.984 . S
H317 N311 0.985 . S
H318 N315 0.984 . S
H319 N315 0.985 . S
H320 N314 0.984 . S
H321 N314 0.984 . S
H322 N310 0.984 . S
H323 N310 0.985 . S
C324 C325 1.363 . S
C324 C330 1.379 . S
C324 N332 1.356 . S
C325 C324 1.363 . S
C325 C331 1.363 . S
C326 C327 1.363 . S
C326 C331 1.379 . S
C326 N333 1.356 . S
C327 C326 1.363 . S
C327 C330 1.363 . S
N328 C330 1.356 1_556 S
N328 H340 0.984 . S
N328 H341 0.985 . S
N329 C331 1.356 . S
N329 H334 0.984 . S
N329 H335 0.985 . S
C330 C324 1.379 . S
C330 C327 1.363 . S
C330 N328 1.356 1_554 S
C331 C325 1.363 . S
C331 C326 1.379 . S
C331 N329 1.356 . S
N332 C324 1.356 . S
N332 H338 0.984 . S
N332 H339 0.984 . S
N333 C326 1.356 . S
N333 H336 0.984 1_554 S
N333 H337 0.985 . S
H334 N329 0.984 . S
H335 N329 0.985 . S
H336 N333 0.984 1_556 S
H337 N333 0.985 . S
H338 N332 0.984 . S
H339 N332 0.984 . S
H340 N328 0.984 . S
H341 N328 0.985 . S
C342 C343 1.363 . S
C342 C348 1.379 . S
C342 N350 1.356 . S
C343 C342 1.363 . S
C343 C349 1.363 . S
C344 C345 1.363 . S
C344 C349 1.379 . S
C344 N351 1.356 . S
C345 C344 1.363 . S
C345 C348 1.363 . S
N346 C348 1.356 . S
N346 H358 0.984 . S
N346 H359 0.985 . S
N347 C349 1.356 . S
N347 H352 0.984 . S
N347 H353 0.985 . S
C348 C342 1.379 . S
C348 C345 1.363 . S
C348 N346 1.356 . S
C349 C343 1.363 . S
C349 C344 1.379 . S
C349 N347 1.356 . S
N350 C342 1.356 . S
N350 H356 0.984 . S
N350 H357 0.984 1_556 S
N351 C344 1.356 . S
N351 H354 0.984 . S
N351 H355 0.985 . S
H352 N347 0.984 . S
H353 N347 0.985 . S
H354 N351 0.984 . S
H355 N351 0.985 . S
H356 N350 0.984 . S
H357 N350 0.984 1_554 S
H358 N346 0.984 . S
H359 N346 0.985 . S
C360 C361 1.363 . S
C360 C366 1.379 . S
C360 N368 1.356 . S
C361 C360 1.363 . S
C361 C367 1.363 . S
C362 C363 1.363 . S
C362 C367 1.379 . S
C362 N369 1.356 1_556 S
C363 C362 1.363 . S
C363 C366 1.363 . S
N364 C366 1.356 . S
N364 H376 0.984 . S
N364 H377 0.985 1_556 S
N365 C367 1.356 . S
N365 H370 0.984 . S
N365 H371 0.985 . S
C366 C360 1.379 . S
C366 C363 1.363 . S
C366 N364 1.356 . S
C367 C361 1.363 . S
C367 C362 1.379 . S
C367 N365 1.356 . S
N368 C360 1.356 . S
N368 H374 0.984 . S
N368 H375 0.984 . S
N369 C362 1.356 1_554 S
N369 H372 0.984 . S
N369 H373 0.985 . S
H370 N365 0.984 . S
H371 N365 0.985 . S
H372 N369 0.984 . S
H373 N369 0.985 . S
H374 N368 0.984 . S
H375 N368 0.984 . S
H376 N364 0.984 . S
H377 N364 0.985 1_554 S
C378 C379 1.363 . S
C378 C384 1.379 . S
C378 N386 1.356 . S
C379 C378 1.363 . S
C379 C385 1.363 . S
C380 C381 1.363 . S
C380 C385 1.379 . S
C380 N387 1.356 . S
C381 C380 1.363 . S
C381 C384 1.363 . S
N382 C384 1.356 . S
N382 H394 0.984 . S
N382 H395 0.985 . S
N383 C385 1.356 . S
N383 H388 0.984 . S
N383 H389 0.985 . S
C384 C378 1.379 . S
C384 C381 1.363 . S
C384 N382 1.356 . S
C385 C379 1.363 . S
C385 C380 1.379 . S
C385 N383 1.356 . S
N386 C378 1.356 . S
N386 H392 0.984 . S
N386 H393 0.984 . S
N387 C380 1.356 . S
N387 H390 0.984 . S
N387 H391 0.985 . S
H388 N383 0.984 . S
H389 N383 0.985 . S
H390 N387 0.984 . S
H391 N387 0.985 . S
H392 N386 0.984 . S
H393 N386 0.984 . S
H394 N382 0.984 . S
H395 N382 0.985 . S
C396 C397 1.363 . S
C396 C402 1.379 . S
C396 N404 1.356 1_554 S
C397 C396 1.363 . S
C397 C403 1.363 . S
C398 C399 1.363 . S
C398 C403 1.379 . S
C398 N405 1.356 . S
C399 C398 1.363 . S
C399 C402 1.363 . S
N400 C402 1.356 . S
N400 H412 0.984 1_554 S
N400 H413 0.985 . S
N401 C403 1.356 . S
N401 H406 0.984 . S
N401 H407 0.985 . S
C402 C396 1.379 . S
C402 C399 1.363 . S
C402 N400 1.356 . S
C403 C397 1.363 . S
C403 C398 1.379 . S
C403 N401 1.356 . S
N404 C396 1.356 1_556 S
N404 H410 0.984 . S
N404 H411 0.984 . S
N405 C398 1.356 . S
N405 H408 0.984 . S
N405 H409 0.985 . S
H406 N401 0.984 . S
H407 N401 0.985 . S
H408 N405 0.984 . S
H409 N405 0.985 . S
H410 N404 0.984 . S
H411 N404 0.984 . S
H412 N400 0.984 1_556 S
H413 N400 0.985 . S
C414 C415 1.363 . S
C414 C420 1.379 . S
C414 N422 1.356 . S
C415 C414 1.363 . S
C415 C421 1.363 . S
C416 C417 1.363 . S
C416 C421 1.379 . S
C416 N423 1.356 . S
C417 C416 1.363 . S
C417 C420 1.363 . S
N418 C420 1.356 . S
N418 H430 0.984 . S
N418 H431 0.985 . S
N419 C421 1.356 . S
N419 H424 0.984 . S
N419 H425 0.985 . S
C420 C414 1.379 . S
C420 C417 1.363 . S
C420 N418 1.356 . S
C421 C415 1.363 . S
C421 C416 1.379 . S
C421 N419 1.356 . S
N422 C414 1.356 . S
N422 H428 0.984 . S
N422 H429 0.984 . S
N423 C416 1.356 . S
N423 H426 0.984 . S
N423 H427 0.985 1_556 S
H424 N419 0.984 . S
H425 N419 0.985 . S
H426 N423 0.984 . S
H427 N423 0.985 1_554 S
H428 N422 0.984 . S
H429 N422 0.984 . S
H430 N418 0.984 . S
H431 N418 0.985 . S
C432 C433 1.363 . S
C432 C438 1.379 . S
C432 N440 1.356 . S
C433 C432 1.363 . S
C433 C439 1.363 . S
C434 C435 1.363 . S
C434 C439 1.379 . S
C434 N441 1.356 . S
C435 C434 1.363 . S
C435 C438 1.363 . S
N436 C438 1.356 . S
N436 H448 0.984 . S
N436 H449 0.985 . S
N437 C439 1.356 . S
N437 H442 0.984 . S
N437 H443 0.985 . S
C438 C432 1.379 . S
C438 C435 1.363 . S
C438 N436 1.356 . S
C439 C433 1.363 . S
C439 C434 1.379 . S
C439 N437 1.356 . S
N440 C432 1.356 . S
N440 H446 0.984 . S
N440 H447 0.984 . S
N441 C434 1.356 . S
N441 H444 0.984 . S
N441 H445 0.985 . S
H442 N437 0.984 . S
H443 N437 0.985 . S
H444 N441 0.984 . S
H445 N441 0.985 . S
H446 N440 0.984 . S
H447 N440 0.984 . S
H448 N436 0.984 . S
H449 N436 0.985 . S
C450 C451 1.363 . S
C450 C456 1.379 . S
C450 N458 1.356 . S
C451 C450 1.363 . S
C451 C457 1.363 . S
C452 C453 1.363 . S
C452 C457 1.379 . S
C452 N459 1.356 . S
C453 C452 1.363 . S
C453 C456 1.363 . S
N454 C456 1.356 . S
N454 H466 0.984 . S
N454 H467 0.985 . S
N455 C457 1.356 . S
N455 H460 0.984 . S
N455 H461 0.985 . S
C456 C450 1.379 . S
C456 C453 1.363 . S
C456 N454 1.356 . S
C457 C451 1.363 . S
C457 C452 1.379 . S
C457 N455 1.356 . S
N458 C450 1.356 . S
N458 H464 0.984 . S
N458 H465 0.984 . S
N459 C452 1.356 . S
N459 H462 0.984 . S
N459 H463 0.985 . S
H460 N455 0.984 . S
H461 N455 0.985 . S
H462 N459 0.984 . S
H463 N459 0.985 . S
H464 N458 0.984 . S
H465 N458 0.984 . S
H466 N454 0.984 . S
H467 N454 0.985 . S
C468 C469 1.363 . S
C468 C474 1.379 . S
C468 N476 1.356 . S
C469 C468 1.363 . S
C469 C475 1.363 . S
C470 C471 1.363 . S
C470 C475 1.379 . S
C470 N477 1.356 . S
C471 C470 1.363 . S
C471 C474 1.363 . S
N472 C474 1.356 . S
N472 H484 0.984 . S
N472 H485 0.985 . S
N473 C475 1.356 . S
N473 H478 0.984 . S
N473 H479 0.985 . S
C474 C468 1.379 . S
C474 C471 1.363 . S
C474 N472 1.356 . S
C475 C469 1.363 . S
C475 C470 1.379 . S
C475 N473 1.356 . S
N476 C468 1.356 . S
N476 H482 0.984 . S
N476 H483 0.984 . S
N477 C470 1.356 . S
N477 H480 0.984 . S
N477 H481 0.985 . S
H478 N473 0.984 . S
H479 N473 0.985 . S
H480 N477 0.984 . S
H481 N477 0.985 . S
H482 N476 0.984 . S
H483 N476 0.984 . S
H484 N472 0.984 . S
H485 N472 0.985 . S
C486 C487 1.363 . S
C486 C492 1.379 . S
C486 N494 1.356 . S
C487 C486 1.363 . S
C487 C493 1.363 . S
C488 C489 1.363 . S
C488 C493 1.379 . S
C488 N495 1.356 . S
C489 C488 1.363 . S
C489 C492 1.363 . S
N490 C492 1.356 . S
N490 H502 0.984 . S
N490 H503 0.985 . S
N491 C493 1.356 . S
N491 H496 0.984 . S
N491 H497 0.985 . S
C492 C486 1.379 . S
C492 C489 1.363 . S
C492 N490 1.356 . S
C493 C487 1.363 . S
C493 C488 1.379 . S
C493 N491 1.356 . S
N494 C486 1.356 . S
N494 H500 0.984 . S
N494 H501 0.984 . S
N495 C488 1.356 . S
N495 H498 0.984 . S
N495 H499 0.985 . S
H496 N491 0.984 . S
H497 N491 0.985 . S
H498 N495 0.984 . S
H499 N495 0.985 . S
H500 N494 0.984 . S
H501 N494 0.984 . S
H502 N490 0.984 . S
H503 N490 0.985 . S
C181 C160 1.690 . S
C183 C10 1.690 . S
C199 N14 1.614 . S
C201 N44 1.614 . S
C217 C40 1.690 . S
C219 C70 1.690 . S
C235 N74 1.614 . S
C237 N104 1.614 . S
C253 C130 1.691 . S
C255 C100 1.691 . S
C271 N164 1.614 . S
C273 N134 1.614 . S
C289 C16 1.186 . S
C291 C27 1.186 . S
C307 C57 1.186 . S
C309 C46 1.186 . S
C325 C76 1.186 . S
C327 C87 1.186 1_554 S
C343 C117 1.186 . S
C345 C106 1.186 . S
C361 C147 1.186 . S
C363 C136 1.186 1_556 S
C379 C177 1.186 . S
C381 C166 1.186 . S
C397 C1 1.740 . S
C399 N126 1.548 . S
C415 N36 1.548 . S
C417 C151 1.740 . S
C433 N6 1.548 . S
C435 C61 1.740 . S
C451 C31 1.740 . S
C453 N96 1.548 . S
C469 C121 1.740 . S
C471 N66 1.548 . S
C487 C91 1.740 . S
C489 N156 1.548 . S
