# Generated by pormake.
# Topology ukd, (4)-cn, num edge types: 1
# Building blocks:
#     Node 0, Type 0, BuildingBlock: NAHDIM_clean_sbu_0, # of connection points: 4
#     Node 1, Type 0, BuildingBlock: NAHDIM_clean_sbu_0, # of connection points: 4
#     Node 2, Type 0, BuildingBlock: NAHDIM_clean_sbu_0, # of connection points: 4
#     Node 3, Type 0, BuildingBlock: NAHDIM_clean_sbu_0, # of connection points: 4
#     Node 4, Type 0, BuildingBlock: NAHDIM_clean_sbu_0, # of connection points: 4
#     Node 5, Type 0, BuildingBlock: NAHDIM_clean_sbu_0, # of connection points: 4
#     Node 6, Type 0, BuildingBlock: NAHDIM_clean_sbu_0, # of connection points: 4
#     Node 7, Type 0, BuildingBlock: NAHDIM_clean_sbu_0, # of connection points: 4
#     Node 8, Type 0, BuildingBlock: NAHDIM_clean_sbu_0, # of connection points: 4
#     Node 9, Type 0, BuildingBlock: NAHDIM_clean_sbu_0, # of connection points: 4
#     Node 10, Type 0, BuildingBlock: NAHDIM_clean_sbu_0, # of connection points: 4
#     Node 11, Type 0, BuildingBlock: NAHDIM_clean_sbu_0, # of connection points: 4
#     Node 12, Type 0, BuildingBlock: NAHDIM_clean_sbu_0, # of connection points: 4
#     Node 13, Type 0, BuildingBlock: NAHDIM_clean_sbu_0, # of connection points: 4
#     Node 14, Type 0, BuildingBlock: NAHDIM_clean_sbu_0, # of connection points: 4
#     Node 15, Type 0, BuildingBlock: NAHDIM_clean_sbu_0, # of connection points: 4
#     Node 16, Type 0, BuildingBlock: NAHDIM_clean_sbu_0, # of connection points: 4
#     Node 17, Type 0, BuildingBlock: NAHDIM_clean_sbu_0, # of connection points: 4
#     Node 18, Type 0, BuildingBlock: NAHDIM_clean_sbu_0, # of connection points: 4
#     Node 19, Type 0, BuildingBlock: NAHDIM_clean_sbu_0, # of connection points: 4
#     Node 20, Type 0, BuildingBlock: NAHDIM_clean_sbu_0, # of connection points: 4
#     Node 21, Type 0, BuildingBlock: NAHDIM_clean_sbu_0, # of connection points: 4
#     Node 22, Type 0, BuildingBlock: NAHDIM_clean_sbu_0, # of connection points: 4
#     Node 23, Type 0, BuildingBlock: NAHDIM_clean_sbu_0, # of connection points: 4
#     Node 24, Type 0, BuildingBlock: NAHDIM_clean_sbu_0, # of connection points: 4
#     Node 25, Type 0, BuildingBlock: NAHDIM_clean_sbu_0, # of connection points: 4
#     Node 26, Type 0, BuildingBlock: NAHDIM_clean_sbu_0, # of connection points: 4
#     Node 27, Type 0, BuildingBlock: NAHDIM_clean_sbu_0, # of connection points: 4
#     Node 28, Type 0, BuildingBlock: NAHDIM_clean_sbu_0, # of connection points: 4
#     Node 29, Type 0, BuildingBlock: NAHDIM_clean_sbu_0, # of connection points: 4
#     Node 30, Type 0, BuildingBlock: NAHDIM_clean_sbu_0, # of connection points: 4
#     Node 31, Type 0, BuildingBlock: NAHDIM_clean_sbu_0, # of connection points: 4
#     Edge 32, Type (0, 0), BuildingBlock: ZUJKAS_clean_linker_0, # of connection points: 2
#     Edge 33, Type (0, 0), BuildingBlock: ZUJKAS_clean_linker_0, # of connection points: 2
#     Edge 34, Type (0, 0), BuildingBlock: ZUJKAS_clean_linker_0, # of connection points: 2
#     Edge 35, Type (0, 0), BuildingBlock: ZUJKAS_clean_linker_0, # of connection points: 2
#     Edge 36, Type (0, 0), BuildingBlock: ZUJKAS_clean_linker_0, # of connection points: 2
#     Edge 37, Type (0, 0), BuildingBlock: ZUJKAS_clean_linker_0, # of connection points: 2
#     Edge 38, Type (0, 0), BuildingBlock: ZUJKAS_clean_linker_0, # of connection points: 2
#     Edge 39, Type (0, 0), BuildingBlock: ZUJKAS_clean_linker_0, # of connection points: 2
#     Edge 40, Type (0, 0), BuildingBlock: ZUJKAS_clean_linker_0, # of connection points: 2
#     Edge 41, Type (0, 0), BuildingBlock: ZUJKAS_clean_linker_0, # of connection points: 2
#     Edge 42, Type (0, 0), BuildingBlock: ZUJKAS_clean_linker_0, # of connection points: 2
#     Edge 43, Type (0, 0), BuildingBlock: ZUJKAS_clean_linker_0, # of connection points: 2
#     Edge 44, Type (0, 0), BuildingBlock: ZUJKAS_clean_linker_0, # of connection points: 2
#     Edge 45, Type (0, 0), BuildingBlock: ZUJKAS_clean_linker_0, # of connection points: 2
#     Edge 46, Type (0, 0), BuildingBlock: ZUJKAS_clean_linker_0, # of connection points: 2
#     Edge 47, Type (0, 0), BuildingBlock: ZUJKAS_clean_linker_0, # of connection points: 2
#     Edge 48, Type (0, 0), BuildingBlock: ZUJKAS_clean_linker_0, # of connection points: 2
#     Edge 49, Type (0, 0), BuildingBlock: ZUJKAS_clean_linker_0, # of connection points: 2
#     Edge 50, Type (0, 0), BuildingBlock: ZUJKAS_clean_linker_0, # of connection points: 2
#     Edge 51, Type (0, 0), BuildingBlock: ZUJKAS_clean_linker_0, # of connection points: 2
#     Edge 52, Type (0, 0), BuildingBlock: ZUJKAS_clean_linker_0, # of connection points: 2
#     Edge 53, Type (0, 0), BuildingBlock: ZUJKAS_clean_linker_0, # of connection points: 2
#     Edge 54, Type (0, 0), BuildingBlock: ZUJKAS_clean_linker_0, # of connection points: 2
#     Edge 55, Type (0, 0), BuildingBlock: ZUJKAS_clean_linker_0, # of connection points: 2
#     Edge 56, Type (0, 0), BuildingBlock: ZUJKAS_clean_linker_0, # of connection points: 2
#     Edge 57, Type (0, 0), BuildingBlock: ZUJKAS_clean_linker_0, # of connection points: 2
#     Edge 58, Type (0, 0), BuildingBlock: ZUJKAS_clean_linker_0, # of connection points: 2
#     Edge 59, Type (0, 0), BuildingBlock: ZUJKAS_clean_linker_0, # of connection points: 2
#     Edge 60, Type (0, 0), BuildingBlock: ZUJKAS_clean_linker_0, # of connection points: 2
#     Edge 61, Type (0, 0), BuildingBlock: ZUJKAS_clean_linker_0, # of connection points: 2
#     Edge 62, Type (0, 0), BuildingBlock: ZUJKAS_clean_linker_0, # of connection points: 2
#     Edge 63, Type (0, 0), BuildingBlock: ZUJKAS_clean_linker_0, # of connection points: 2
#     Edge 64, Type (0, 0), BuildingBlock: ZUJKAS_clean_linker_0, # of connection points: 2
#     Edge 65, Type (0, 0), BuildingBlock: ZUJKAS_clean_linker_0, # of connection points: 2
#     Edge 66, Type (0, 0), BuildingBlock: ZUJKAS_clean_linker_0, # of connection points: 2
#     Edge 67, Type (0, 0), BuildingBlock: ZUJKAS_clean_linker_0, # of connection points: 2
#     Edge 68, Type (0, 0), BuildingBlock: ZUJKAS_clean_linker_0, # of connection points: 2
#     Edge 69, Type (0, 0), BuildingBlock: ZUJKAS_clean_linker_0, # of connection points: 2
#     Edge 70, Type (0, 0), BuildingBlock: ZUJKAS_clean_linker_0, # of connection points: 2
#     Edge 71, Type (0, 0), BuildingBlock: ZUJKAS_clean_linker_0, # of connection points: 2
#     Edge 72, Type (0, 0), BuildingBlock: ZUJKAS_clean_linker_0, # of connection points: 2
#     Edge 73, Type (0, 0), BuildingBlock: ZUJKAS_clean_linker_0, # of connection points: 2
#     Edge 74, Type (0, 0), BuildingBlock: ZUJKAS_clean_linker_0, # of connection points: 2
#     Edge 75, Type (0, 0), BuildingBlock: ZUJKAS_clean_linker_0, # of connection points: 2
#     Edge 76, Type (0, 0), BuildingBlock: ZUJKAS_clean_linker_0, # of connection points: 2
#     Edge 77, Type (0, 0), BuildingBlock: ZUJKAS_clean_linker_0, # of connection points: 2
#     Edge 78, Type (0, 0), BuildingBlock: ZUJKAS_clean_linker_0, # of connection points: 2
#     Edge 79, Type (0, 0), BuildingBlock: ZUJKAS_clean_linker_0, # of connection points: 2
#     Edge 80, Type (0, 0), BuildingBlock: ZUJKAS_clean_linker_0, # of connection points: 2
#     Edge 81, Type (0, 0), BuildingBlock: ZUJKAS_clean_linker_0, # of connection points: 2
#     Edge 82, Type (0, 0), BuildingBlock: ZUJKAS_clean_linker_0, # of connection points: 2
#     Edge 83, Type (0, 0), BuildingBlock: ZUJKAS_clean_linker_0, # of connection points: 2
#     Edge 84, Type (0, 0), BuildingBlock: ZUJKAS_clean_linker_0, # of connection points: 2
#     Edge 85, Type (0, 0), BuildingBlock: ZUJKAS_clean_linker_0, # of connection points: 2
#     Edge 86, Type (0, 0), BuildingBlock: ZUJKAS_clean_linker_0, # of connection points: 2
#     Edge 87, Type (0, 0), BuildingBlock: ZUJKAS_clean_linker_0, # of connection points: 2
#     Edge 88, Type (0, 0), BuildingBlock: ZUJKAS_clean_linker_0, # of connection points: 2
#     Edge 89, Type (0, 0), BuildingBlock: ZUJKAS_clean_linker_0, # of connection points: 2
#     Edge 90, Type (0, 0), BuildingBlock: ZUJKAS_clean_linker_0, # of connection points: 2
#     Edge 91, Type (0, 0), BuildingBlock: ZUJKAS_clean_linker_0, # of connection points: 2
#     Edge 92, Type (0, 0), BuildingBlock: ZUJKAS_clean_linker_0, # of connection points: 2
#     Edge 93, Type (0, 0), BuildingBlock: ZUJKAS_clean_linker_0, # of connection points: 2
#     Edge 94, Type (0, 0), BuildingBlock: ZUJKAS_clean_linker_0, # of connection points: 2
#     Edge 95, Type (0, 0), BuildingBlock: ZUJKAS_clean_linker_0, # of connection points: 2
# Relax obj value: 0.149
# Max RMSD: 0.181
# Mean RMSD: 0.181
data_MOF--net-ukd--node1-NAHDIM_clean_sbu_0--edge1-ZUJKAS_clean_linker_0
_symmetry_space_group_name_H-M    P1
_symmetry_Int_Tables_number       1
_symmetry_cell_setting            triclinic
loop_
_symmetry_equiv_pos_as_xyz
'x, y, z'
_cell_length_a     55.831506
_cell_length_b     55.841631
_cell_length_c     96.136671
_cell_angle_alpha  90.017289
_cell_angle_beta   90.002962
_cell_angle_gamma 89.99009
loop_
_atom_site_label
_atom_site_type_symbol
_atom_site_fract_x
_atom_site_fract_y
_atom_site_fract_z
_atom_type_partial_charge
C0 C 0.28664 0.19284 0.35058 0.0
O1 O 0.27637 0.18524 0.33911 0.0
O2 O 0.24398 0.2286 0.33185 0.0
Zn3 Zn 0.24276 0.21823 0.35192 0.0
O4 O 0.21976 0.19067 0.35395 0.0
C5 C 0.23056 0.26693 0.35945 0.0
O6 O 0.2412 0.272 0.34763 0.0
O7 O 0.27557 0.20782 0.35819 0.0
C8 C 0.19746 0.19524 0.35391 0.0
O9 O 0.19037 0.21752 0.35241 0.0
C10 C 0.23715 0.21512 0.32196 0.0
O11 O 0.22911 0.19356 0.32479 0.0
O12 O 0.23016 0.24535 0.36365 0.0
C13 C 0.05632 0.02333 0.60294 0.0
O14 O 0.06648 0.00942 0.59362 0.0
O15 O 0.01593 0.98952 0.5804 0.0
Zn16 Zn 0.02455 0.98546 0.60057 0.0
O17 O 0.05119 0.96137 0.60249 0.0
C18 C 0.98997 0.95158 0.60635 0.0
O19 O 0.0029 0.94158 0.59651 0.0
O20 O 0.03629 0.01704 0.60805 0.0
C21 C 0.06114 0.95833 0.61424 0.0
O22 O 0.05374 0.971 0.62492 0.0
C23 C 0.0287 0.98109 0.57061 0.0
O24 O 0.04845 0.96941 0.57364 0.0
O25 O 0.9957 0.9724 0.61055 0.0
C26 C 0.20203 0.77894 0.85212 0.0
O27 O 0.20119 0.76762 0.84015 0.0
O28 O 0.25048 0.7585 0.83122 0.0
Zn29 Zn 0.25327 0.76826 0.85127 0.0
O30 O 0.27672 0.79543 0.85287 0.0
C31 C 0.26379 0.7192 0.85853 0.0
O32 O 0.25071 0.71455 0.8475 0.0
O33 O 0.22177 0.78016 0.85867 0.0
C34 C 0.29666 0.79528 0.84651 0.0
O35 O 0.30207 0.77696 0.83852 0.0
C36 C 0.2489 0.77401 0.8216 0.0
O37 O 0.24867 0.79685 0.82488 0.0
O38 O 0.26636 0.7408 0.86241 0.0
C39 C 0.444 0.97917 0.09871 0.0
O40 O 0.4333 0.99427 0.09027 0.0
O41 O 0.48493 0.01317 0.07616 0.0
Zn42 Zn 0.47705 0.01617 0.09653 0.0
O43 O 0.4511 0.04072 0.09927 0.0
C44 C 0.52716 0.02492 0.10256 0.0
O45 O 0.53065 0.01285 0.091 0.0
O46 O 0.46468 0.9844 0.10332 0.0
C47 C 0.44322 0.04461 0.11145 0.0
O48 O 0.45247 0.03269 0.12194 0.0
C49 C 0.47094 0.02073 0.0667 0.0
O50 O 0.45082 0.0313 0.07022 0.0
O51 O 0.50596 0.02749 0.10712 0.0
C52 C 0.27253 0.81128 0.1419 0.0
O53 O 0.25798 0.82186 0.15071 0.0
O54 O 0.23413 0.77241 0.16254 0.0
Zn55 Zn 0.23306 0.78115 0.14221 0.0
O56 O 0.2104 0.80866 0.13913 0.0
C57 C 0.22656 0.73161 0.13455 0.0
O58 O 0.24211 0.72796 0.14459 0.0
O59 O 0.26595 0.79175 0.13629 0.0
C60 C 0.18804 0.80652 0.14122 0.0
O61 O 0.17954 0.78583 0.14546 0.0
C62 C 0.22658 0.78619 0.17211 0.0
O63 O 0.21742 0.80708 0.1688 0.0
O64 O 0.22094 0.75295 0.13134 0.0
C65 C 0.4693 0.03767 0.39517 0.0
O66 O 0.48116 0.03832 0.40697 0.0
O67 O 0.48431 0.99041 0.41773 0.0
Zn68 Zn 0.47573 0.98617 0.3976 0.0
O69 O 0.44758 0.96375 0.39624 0.0
C70 C 0.52522 0.97689 0.39111 0.0
O71 O 0.52879 0.99366 0.40047 0.0
O72 O 0.46589 0.01765 0.38919 0.0
C73 C 0.45033 0.94131 0.39475 0.0
O74 O 0.4721 0.93243 0.39415 0.0
C75 C 0.46846 0.99044 0.4272 0.0
O76 O 0.44584 0.98779 0.42376 0.0
O77 O 0.50389 0.97154 0.38771 0.0
C78 C 0.22415 0.19568 0.64832 0.0
O79 O 0.23993 0.18555 0.65657 0.0
O80 O 0.25976 0.23958 0.66901 0.0
Zn81 Zn 0.26086 0.22973 0.64887 0.0
O82 O 0.28564 0.20387 0.64634 0.0
C83 C 0.26969 0.27924 0.64155 0.0
O84 O 0.25995 0.28336 0.65375 0.0
O85 O 0.22879 0.21622 0.64331 0.0
C86 C 0.30767 0.20891 0.64481 0.0
O87 O 0.3144 0.23145 0.64492 0.0
C88 C 0.26747 0.22612 0.67868 0.0
O89 O 0.27651 0.20509 0.67553 0.0
O90 O 0.27071 0.25786 0.63705 0.0
C91 C 0.05622 0.97246 0.89559 0.0
O92 O 0.06598 0.98343 0.90627 0.0
O93 O 0.02382 0.00966 0.91839 0.0
Zn94 Zn 0.02859 0.01401 0.89774 0.0
O95 O 0.05454 0.03842 0.89447 0.0
C96 C 0.98956 0.04494 0.89579 0.0
O97 O 0.00098 0.05323 0.90673 0.0
O98 O 0.03853 0.98227 0.88952 0.0
C99 C 0.06916 0.03711 0.88437 0.0
O100 O 0.06735 0.01929 0.87551 0.0
C101 C 0.03917 0.01685 0.92722 0.0
O102 O 0.05868 0.02763 0.92286 0.0
O103 O 0.99802 0.02676 0.88951 0.0
C104 C 0.70191 0.78413 0.6489 0.0
O105 O 0.70243 0.77306 0.66095 0.0
O106 O 0.75185 0.76738 0.66932 0.0
Zn107 Zn 0.75337 0.77568 0.64902 0.0
O108 O 0.77677 0.80267 0.6465 0.0
C109 C 0.76398 0.72614 0.64302 0.0
O110 O 0.75157 0.72247 0.65443 0.0
O111 O 0.72118 0.78642 0.64198 0.0
C112 C 0.7985 0.79941 0.64995 0.0
O113 O 0.80486 0.77864 0.65521 0.0
C114 C 0.75151 0.78348 0.67864 0.0
O115 O 0.75181 0.80612 0.67492 0.0
O116 O 0.76609 0.74735 0.63839 0.0
C117 C 0.93679 0.97345 0.39536 0.0
O118 O 0.92693 0.9855 0.40561 0.0
O119 O 0.97275 0.00756 0.4186 0.0
Zn120 Zn 0.9669 0.01284 0.3981 0.0
O121 O 0.94068 0.0372 0.39515 0.0
C122 C 0.01156 0.03718 0.39676 0.0
O123 O 0.00625 0.04033 0.40994 0.0
O124 O 0.95573 0.98167 0.38979 0.0
C125 C 0.9419 0.05849 0.39978 0.0
O126 O 0.96093 0.06516 0.40681 0.0
C127 C 0.95852 0.01403 0.42822 0.0
O128 O 0.93822 0.0245 0.42498 0.0
O129 O 0.99738 0.02503 0.38917 0.0
C130 C 0.77567 0.20109 0.15167 0.0
O131 O 0.76521 0.19327 0.16304 0.0
O132 O 0.74069 0.23607 0.17389 0.0
Zn133 Zn 0.7352 0.22958 0.15353 0.0
O134 O 0.71136 0.20292 0.15111 0.0
C135 C 0.7019 0.26609 0.14895 0.0
O136 O 0.69209 0.25422 0.15928 0.0
O137 O 0.76612 0.21838 0.1451 0.0
C138 C 0.70447 0.1978 0.13887 0.0
O139 O 0.71304 0.21014 0.12835 0.0
C140 C 0.72685 0.22794 0.18326 0.0
O141 O 0.708 0.21533 0.17962 0.0
O142 O 0.722 0.25906 0.14426 0.0
C143 C 0.53306 0.03199 0.89385 0.0
O144 O 0.52932 0.0295 0.90726 0.0
O145 O 0.51058 0.9839 0.91337 0.0
Zn146 Zn 0.51928 0.98199 0.89306 0.0
O147 O 0.54759 0.96011 0.89067 0.0
C148 C 0.47016 0.97038 0.88606 0.0
O149 O 0.46526 0.9836 0.897 0.0
O150 O 0.52892 0.01443 0.88577 0.0
C151 C 0.54504 0.93751 0.89066 0.0
O152 O 0.52353 0.92839 0.89231 0.0
C153 C 0.5259 0.97932 0.92279 0.0
O154 O 0.54769 0.97299 0.91917 0.0
O155 O 0.49181 0.96806 0.88222 0.0
C156 C 0.71093 0.19554 0.8481 0.0
O157 O 0.72049 0.19056 0.83595 0.0
O158 O 0.75153 0.22756 0.82887 0.0
Zn159 Zn 0.75398 0.22159 0.84948 0.0
O160 O 0.77872 0.1959 0.85283 0.0
C161 C 0.76243 0.27227 0.85368 0.0
O162 O 0.75147 0.27417 0.84164 0.0
O163 O 0.72211 0.20944 0.85632 0.0
C164 C 0.80039 0.2013 0.8554 0.0
O165 O 0.80663 0.22397 0.85588 0.0
C166 C 0.7696 0.23103 0.82111 0.0
O167 O 0.79111 0.23135 0.82663 0.0
O168 O 0.76435 0.25176 0.85931 0.0
C169 C 0.55405 0.97005 0.60366 0.0
O170 O 0.56543 0.9807 0.59343 0.0
O171 O 0.52238 0.00793 0.58005 0.0
Zn172 Zn 0.52819 0.01258 0.60062 0.0
O173 O 0.55612 0.0348 0.60388 0.0
C174 C 0.48544 0.04042 0.60157 0.0
O175 O 0.49076 0.04252 0.58832 0.0
O176 O 0.53611 0.98051 0.60908 0.0
C177 C 0.55653 0.05579 0.59877 0.0
O178 O 0.53856 0.06297 0.591 0.0
C179 C 0.53757 0.01222 0.57052 0.0
O180 O 0.55908 0.01978 0.57389 0.0
O181 O 0.49872 0.02753 0.60929 0.0
C182 C 0.78063 0.79148 0.34703 0.0
O183 O 0.77213 0.79325 0.33433 0.0
O184 O 0.73704 0.75751 0.33038 0.0
Zn185 Zn 0.73603 0.76803 0.35043 0.0
O186 O 0.71266 0.79516 0.35264 0.0
C187 C 0.72622 0.71913 0.35841 0.0
O188 O 0.73682 0.71435 0.34653 0.0
O189 O 0.76846 0.78032 0.35614 0.0
C190 C 0.70926 0.80423 0.36459 0.0
O191 O 0.72117 0.79563 0.37527 0.0
C192 C 0.72256 0.76553 0.32131 0.0
O193 O 0.70598 0.78092 0.32506 0.0
O194 O 0.72477 0.74076 0.36244 0.0
C195 C 0.9419 0.03419 0.09628 0.0
O196 O 0.93816 0.02594 0.08366 0.0
O197 O 0.97626 0.99294 0.07787 0.0
Zn198 Zn 0.96626 0.98997 0.09785 0.0
O199 O 0.93912 0.96637 0.09928 0.0
C200 C 0.0152 0.98503 0.10791 0.0
O201 O 0.01972 0.00276 0.09933 0.0
O202 O 0.95444 0.02185 0.10467 0.0
C203 C 0.94349 0.94422 0.10092 0.0
O204 O 0.96586 0.93695 0.10131 0.0
C205 C 0.99029 0.97818 0.07196 0.0
O206 O 0.99884 0.96002 0.07909 0.0
O207 O 0.99379 0.97772 0.10928 0.0
C208 C 0.79511 0.71347 0.85391 0.0
O209 O 0.79538 0.72142 0.84106 0.0
O210 O 0.74746 0.73157 0.83203 0.0
Zn211 Zn 0.744 0.7235 0.85232 0.0
O212 O 0.72124 0.69581 0.85419 0.0
C213 C 0.73219 0.77285 0.85769 0.0
O214 O 0.74636 0.7765 0.84699 0.0
O215 O 0.77557 0.71372 0.86071 0.0
C216 C 0.70114 0.69619 0.84799 0.0
O217 O 0.69555 0.71486 0.84033 0.0
C218 C 0.74877 0.7155 0.82271 0.0
O219 O 0.7484 0.69285 0.82639 0.0
O220 O 0.72937 0.75165 0.86221 0.0
C221 C 0.54892 0.52712 0.0912 0.0
O222 O 0.55895 0.51299 0.08195 0.0
O223 O 0.51071 0.48773 0.07096 0.0
Zn224 Zn 0.51882 0.48743 0.09139 0.0
O225 O 0.54576 0.4644 0.09517 0.0
C226 C 0.46887 0.48014 0.0981 0.0
O227 O 0.4654 0.49369 0.08712 0.0
O228 O 0.52979 0.52023 0.09714 0.0
C229 C 0.54211 0.44195 0.09516 0.0
O230 O 0.52053 0.43386 0.09239 0.0
C231 C 0.52392 0.47823 0.06171 0.0
O232 O 0.54392 0.46763 0.06543 0.0
O233 O 0.49014 0.47616 0.10219 0.0
C234 C 0.71016 0.30525 0.354 0.0
O235 O 0.72145 0.31119 0.34252 0.0
O236 O 0.75161 0.27083 0.33623 0.0
Zn237 Zn 0.75306 0.27996 0.35645 0.0
O238 O 0.77584 0.30773 0.3589 0.0
C239 C 0.76298 0.2305 0.36331 0.0
O240 O 0.75046 0.22627 0.35201 0.0
O241 O 0.72025 0.29081 0.36239 0.0
C242 C 0.7974 0.3043 0.36266 0.0
O243 O 0.80491 0.28232 0.36481 0.0
C244 C 0.76953 0.27233 0.32813 0.0
O245 O 0.79015 0.27982 0.33306 0.0
O246 O 0.76516 0.25193 0.36757 0.0
C247 C 0.94631 0.47074 0.5993 0.0
O248 O 0.93802 0.48132 0.58808 0.0
O249 O 0.98003 0.51353 0.58025 0.0
Zn250 Zn 0.97045 0.51489 0.60046 0.0
O251 O 0.94198 0.53656 0.60301 0.0
C252 C 0.01937 0.5261 0.60782 0.0
O253 O 0.02422 0.51325 0.59672 0.0
O254 O 0.96144 0.48179 0.60681 0.0
C255 C 0.94485 0.55913 0.6027 0.0
O256 O 0.96639 0.56782 0.6005 0.0
C257 C 0.9671 0.52176 0.57047 0.0
O258 O 0.94648 0.53184 0.57346 0.0
O259 O 0.99772 0.52838 0.61167 0.0
C260 C 0.7953 0.28434 0.64337 0.0
O261 O 0.7967 0.27155 0.65481 0.0
O262 O 0.7497 0.26855 0.66661 0.0
Zn263 Zn 0.74426 0.2763 0.64644 0.0
O264 O 0.72024 0.30323 0.64533 0.0
C265 C 0.73417 0.2262 0.64012 0.0
O266 O 0.74837 0.22175 0.65071 0.0
O267 O 0.77495 0.28781 0.63779 0.0
C268 C 0.69811 0.29907 0.64335 0.0
O269 O 0.69083 0.27681 0.64205 0.0
C270 C 0.73249 0.26218 0.67442 0.0
O271 O 0.71091 0.26018 0.66911 0.0
O272 O 0.7309 0.24774 0.63632 0.0
C273 C 0.95098 0.52864 0.89805 0.0
O274 O 0.94822 0.52033 0.91073 0.0
O275 O 0.98163 0.48308 0.91503 0.0
Zn276 Zn 0.97133 0.4824 0.89493 0.0
O277 O 0.94317 0.46014 0.89272 0.0
C278 C 0.02039 0.4736 0.88704 0.0
O279 O 0.02484 0.48749 0.89776 0.0
O280 O 0.9612 0.51553 0.889 0.0
C281 C 0.94005 0.44824 0.88161 0.0
O282 O 0.95532 0.45079 0.87132 0.0
C283 C 0.96973 0.473 0.92466 0.0
O284 O 0.94997 0.46143 0.92154 0.0
O285 O 0.99879 0.4698 0.88352 0.0
C286 C 0.72047 0.68726 0.14253 0.0
O287 O 0.73463 0.67559 0.15109 0.0
O288 O 0.75078 0.72446 0.16793 0.0
Zn289 Zn 0.75673 0.72041 0.14741 0.0
O290 O 0.78271 0.69567 0.14426 0.0
C291 C 0.78083 0.76493 0.14669 0.0
O292 O 0.78677 0.75734 0.15916 0.0
O293 O 0.72621 0.70835 0.13886 0.0
C294 C 0.80213 0.7001 0.13787 0.0
O295 O 0.80585 0.72166 0.13288 0.0
C296 C 0.76057 0.71132 0.17711 0.0
O297 O 0.77526 0.69421 0.17322 0.0
O298 O 0.76694 0.75213 0.1393 0.0
C299 C 0.5234 0.46272 0.39466 0.0
O300 O 0.51218 0.4612 0.40663 0.0
O301 O 0.50934 0.50956 0.41825 0.0
Zn302 Zn 0.51692 0.51435 0.398 0.0
O303 O 0.54526 0.53654 0.396 0.0
C304 C 0.47988 0.54782 0.39514 0.0
O305 O 0.48957 0.55426 0.40702 0.0
O306 O 0.52611 0.48311 0.38899 0.0
C307 C 0.55141 0.55211 0.40497 0.0
O308 O 0.53888 0.55435 0.41646 0.0
C309 C 0.525 0.50304 0.42706 0.0
O310 O 0.54694 0.49865 0.42282 0.0
O311 O 0.48848 0.52984 0.38874 0.0
C312 C 0.20994 0.28436 0.14769 0.0
O313 O 0.20927 0.27371 0.15987 0.0
O314 O 0.25774 0.26834 0.1697 0.0
Zn315 Zn 0.26132 0.27568 0.14938 0.0
O316 O 0.28445 0.30291 0.1469 0.0
C317 C 0.27071 0.22574 0.14344 0.0
O318 O 0.25552 0.22209 0.15366 0.0
O319 O 0.22979 0.28603 0.14128 0.0
C320 C 0.28791 0.31057 0.13462 0.0
O321 O 0.27637 0.3004 0.12427 0.0
C322 C 0.25792 0.28483 0.17881 0.0
O323 O 0.26064 0.30718 0.17483 0.0
O324 O 0.27503 0.24705 0.13956 0.0
C325 C 0.47221 0.45758 0.88523 0.0
O326 O 0.48897 0.45765 0.89482 0.0
O327 O 0.48255 0.5058 0.90835 0.0
Zn328 Zn 0.4749 0.50925 0.88804 0.0
O329 O 0.44706 0.53178 0.8861 0.0
C330 C 0.52436 0.52072 0.88224 0.0
O331 O 0.52832 0.50699 0.8931 0.0
O332 O 0.4647 0.47739 0.8804 0.0
C333 C 0.44521 0.55022 0.89378 0.0
O334 O 0.46193 0.55463 0.90305 0.0
C335 C 0.46664 0.4979 0.9166 0.0
O336 O 0.44553 0.49202 0.91162 0.0
O337 O 0.50302 0.5234 0.87791 0.0
C338 C 0.27588 0.68802 0.63808 0.0
O339 O 0.25904 0.673 0.64193 0.0
O340 O 0.24598 0.7251 0.66859 0.0
Zn341 Zn 0.241 0.72095 0.64804 0.0
O342 O 0.21568 0.69592 0.64467 0.0
C343 C 0.21881 0.76703 0.64797 0.0
O344 O 0.21718 0.762 0.66128 0.0
O345 O 0.27228 0.71039 0.63945 0.0
C346 C 0.19627 0.69526 0.65156 0.0
O347 O 0.19237 0.7115 0.66119 0.0
C348 C 0.2463 0.70803 0.67732 0.0
O349 O 0.244 0.68589 0.6729 0.0
O350 O 0.22907 0.75216 0.6399 0.0
C351 C 0.06263 0.51524 0.39053 0.0
O352 O 0.07688 0.49745 0.3939 0.0
O353 O 0.02046 0.48384 0.41897 0.0
Zn354 Zn 0.02807 0.48047 0.39865 0.0
O355 O 0.05354 0.45533 0.39604 0.0
C356 C 0.97773 0.4763 0.39245 0.0
O357 O 0.97582 0.49221 0.40246 0.0
O358 O 0.0401 0.51231 0.39143 0.0
C359 C 0.05578 0.43704 0.40379 0.0
O360 O 0.04055 0.43368 0.41402 0.0
C361 C 0.03589 0.49146 0.42761 0.0
O362 O 0.05745 0.49698 0.4232 0.0
O363 O 0.99843 0.46944 0.38867 0.0
C364 C 0.21331 0.7015 0.34683 0.0
O365 O 0.22601 0.69317 0.33639 0.0
O366 O 0.2485 0.73854 0.32536 0.0
Zn367 Zn 0.25223 0.73234 0.34592 0.0
O368 O 0.27696 0.70663 0.34918 0.0
C369 C 0.2739 0.77844 0.34857 0.0
O370 O 0.2762 0.77529 0.33509 0.0
O371 O 0.22082 0.71992 0.35326 0.0
C372 C 0.29929 0.71094 0.34857 0.0
O373 O 0.30655 0.7327 0.34558 0.0
C374 C 0.25787 0.72543 0.31602 0.0
O375 O 0.27052 0.70663 0.31969 0.0
O376 O 0.26313 0.76255 0.35569 0.0
C377 C 0.05646 0.46844 0.09999 0.0
O378 O 0.06615 0.47925 0.08924 0.0
O379 O 0.02313 0.50357 0.07672 0.0
Zn380 Zn 0.02883 0.50949 0.09719 0.0
O381 O 0.05598 0.53278 0.10001 0.0
C382 C 0.98455 0.5349 0.09804 0.0
O383 O 0.9893 0.53641 0.08469 0.0
O384 O 0.03859 0.47818 0.10592 0.0
C385 C 0.05495 0.55439 0.09592 0.0
O386 O 0.03563 0.56196 0.08948 0.0
C387 C 0.03739 0.50985 0.06708 0.0
O388 O 0.05748 0.52077 0.07028 0.0
O389 O 0.99886 0.52337 0.10587 0.0
C390 C 0.27846 0.30314 0.86866 0.0
O391 O 0.25925 0.314 0.8734 0.0
O392 O 0.24724 0.27167 0.83172 0.0
Zn393 Zn 0.24372 0.2776 0.8522 0.0
O394 O 0.22035 0.30463 0.85497 0.0
C395 C 0.23378 0.22747 0.85581 0.0
O396 O 0.24783 0.22564 0.84489 0.0
O397 O 0.27609 0.28632 0.85987 0.0
C398 C 0.20021 0.30402 0.84882 0.0
O399 O 0.19512 0.28566 0.8408 0.0
C400 C 0.2482 0.2887 0.82298 0.0
O401 O 0.24701 0.31092 0.82743 0.0
O402 O 0.23019 0.24798 0.86115 0.0
C403 C 0.46948 0.54165 0.6036 0.0
O404 O 0.48343 0.54183 0.59259 0.0
O405 O 0.48102 0.49339 0.58103 0.0
Zn406 Zn 0.47465 0.48999 0.60151 0.0
O407 O 0.44753 0.4667 0.6045 0.0
C408 C 0.51603 0.46143 0.60385 0.0
O409 O 0.50832 0.45538 0.59143 0.0
O410 O 0.46447 0.5218 0.60938 0.0
C411 C 0.44321 0.44938 0.59628 0.0
O412 O 0.45694 0.4462 0.58534 0.0
C413 C 0.46486 0.49878 0.57228 0.0
O414 O 0.44295 0.50285 0.57667 0.0
O415 O 0.50437 0.47698 0.61075 0.0
H416 H 0.06482 0.39492 0.41743 0.0
H417 H 0.09716 0.36633 0.41281 0.0
H418 H 0.12324 0.41148 0.37973 0.0
H419 H 0.09125 0.44018 0.38432 0.0
H420 H 0.10556 0.3422 0.38769 0.0
H421 H 0.18386 0.3977 0.40245 0.0
H422 H 0.15364 0.40505 0.40764 0.0
H423 H 0.16398 0.41216 0.39041 0.0
C424 C 0.07755 0.39885 0.40924 0.0
C425 C 0.07547 0.41984 0.40125 0.0
C426 C 0.09601 0.38251 0.40663 0.0
C427 C 0.1128 0.38701 0.39609 0.0
C428 C 0.11078 0.40794 0.38812 0.0
H429 H 0.22363 0.31359 0.35184 0.0
H430 H 0.19596 0.34239 0.36227 0.0
C431 C 0.09235 0.42423 0.39069 0.0
C432 C 0.13161 0.36919 0.3928 0.0
H433 H 0.19208 0.36234 0.38925 0.0
C434 C 0.12449 0.34645 0.38821 0.0
C435 C 0.15627 0.37488 0.39346 0.0
C436 C 0.16496 0.3987 0.39888 0.0
C437 C 0.14135 0.32951 0.3837 0.0
C438 C 0.16601 0.33536 0.38408 0.0
C439 C 0.17317 0.35793 0.38898 0.0
C440 C 0.18448 0.31868 0.37876 0.0
C441 C 0.13256 0.30587 0.37803 0.0
C442 C 0.18775 0.29612 0.38487 0.0
C443 C 0.20349 0.27957 0.37892 0.0
C444 C 0.21634 0.28539 0.36679 0.0
C445 C 0.21394 0.30849 0.36114 0.0
C446 C 0.19815 0.32499 0.36708 0.0
H447 H 0.11311 0.30632 0.3756 0.0
H448 H 0.1425 0.30088 0.36845 0.0
H449 H 0.13559 0.29166 0.3859 0.0
H450 H 0.17771 0.2911 0.39406 0.0
H451 H 0.20505 0.262 0.3836 0.0
H452 H 0.95729 0.96746 0.62567 0.0
H453 H 0.92246 0.94561 0.63472 0.0
H454 H 0.9411 0.88471 0.60933 0.0
H455 H 0.97549 0.90634 0.60013 0.0
H456 H 0.89323 0.89739 0.60741 0.0
H457 H 0.92251 0.88966 0.66255 0.0
H458 H 0.92182 0.91945 0.65546 0.0
H459 H 0.94278 0.89798 0.64874 0.0
C460 C 0.95399 0.94938 0.62207 0.0
C461 C 0.96916 0.93863 0.61219 0.0
C462 C 0.93417 0.9369 0.62729 0.0
C463 C 0.92936 0.91347 0.62278 0.0
C464 C 0.9445 0.90277 0.61295 0.0
H465 H 0.84696 0.79621 0.65335 0.0
H466 H 0.87711 0.82626 0.64749 0.0
C467 C 0.96419 0.91519 0.60772 0.0
C468 C 0.90834 0.89996 0.62795 0.0
H469 H 0.8851 0.8728 0.65676 0.0
C470 C 0.8913 0.89217 0.61822 0.0
C471 C 0.90606 0.89306 0.64204 0.0
C472 C 0.92431 0.90026 0.65283 0.0
C473 C 0.87234 0.87714 0.62211 0.0
C474 C 0.87008 0.87014 0.63619 0.0
C475 C 0.88682 0.87836 0.64599 0.0
C476 C 0.85149 0.85289 0.64071 0.0
C477 C 0.85553 0.86806 0.61099 0.0
C478 C 0.82706 0.85811 0.63913 0.0
C479 C 0.80976 0.84089 0.64236 0.0
C480 C 0.81661 0.81823 0.64737 0.0
C481 C 0.84107 0.81343 0.64946 0.0
C482 C 0.85833 0.83061 0.64616 0.0
H483 H 0.8629 0.87076 0.60037 0.0
H484 H 0.85174 0.8487 0.61244 0.0
H485 H 0.83831 0.87792 0.61168 0.0
H486 H 0.82138 0.87538 0.63521 0.0
H487 H 0.79105 0.84523 0.64077 0.0
H488 H 0.40804 0.54652 0.87538 0.0
H489 H 0.37498 0.57465 0.87201 0.0
H490 H 0.4025 0.61905 0.90504 0.0
H491 H 0.43582 0.59118 0.90841 0.0
H492 H 0.33953 0.59139 0.89107 0.0
H493 H 0.39791 0.66465 0.87144 0.0
H494 H 0.40806 0.63405 0.87278 0.0
H495 H 0.40626 0.65252 0.88805 0.0
C496 C 0.40708 0.56225 0.88195 0.0
C497 C 0.4247 0.56674 0.89208 0.0
C498 C 0.38813 0.57825 0.88003 0.0
C499 C 0.38651 0.59904 0.88816 0.0
C500 C 0.40368 0.60328 0.89852 0.0
H501 H 0.29324 0.72303 0.88115 0.0
H502 H 0.32101 0.69289 0.89006 0.0
C503 C 0.42266 0.5873 0.90045 0.0
C504 C 0.36715 0.61654 0.88551 0.0
H505 H 0.35691 0.67346 0.8741 0.0
C506 C 0.34327 0.60937 0.8874 0.0
C507 C 0.37217 0.63994 0.88072 0.0
C508 C 0.39745 0.64829 0.878 0.0
C509 C 0.32421 0.62508 0.88465 0.0
C510 C 0.32923 0.64838 0.87968 0.0
C511 C 0.35313 0.65561 0.87798 0.0
C512 C 0.31012 0.66534 0.87556 0.0
C513 C 0.2989 0.61669 0.88719 0.0
C514 C 0.29451 0.65969 0.86459 0.0
C515 C 0.27856 0.67686 0.85949 0.0
C516 C 0.27813 0.70006 0.86517 0.0
C517 C 0.29315 0.70535 0.87651 0.0
C518 C 0.30904 0.68816 0.88162 0.0
H519 H 0.29836 0.60155 0.89468 0.0
H520 H 0.28755 0.63146 0.89125 0.0
H521 H 0.29106 0.6104 0.87724 0.0
H522 H 0.29538 0.64234 0.85957 0.0
H523 H 0.2673 0.67222 0.85072 0.0
H524 H 0.57382 0.02745 0.09395 0.0
H525 H 0.60504 0.05407 0.10281 0.0
H526 H 0.55691 0.07951 0.13463 0.0
H527 H 0.52548 0.05316 0.12578 0.0
H528 H 0.57679 0.11573 0.11876 0.0
H529 H 0.6473 0.05382 0.1377 0.0
H530 H 0.63718 0.04745 0.12035 0.0
H531 H 0.61678 0.04436 0.13471 0.0
C532 C 0.57 0.03835 0.10301 0.0
C533 C 0.5471 0.03828 0.1091 0.0
C534 C 0.58793 0.05346 0.1081 0.0
C535 C 0.58334 0.06861 0.11944 0.0
C536 C 0.56082 0.06788 0.12589 0.0
H537 H 0.68554 0.16686 0.15804 0.0
H538 H 0.65595 0.13521 0.15398 0.0
C539 C 0.54289 0.05279 0.12082 0.0
C540 C 0.60108 0.08695 0.12362 0.0
H541 H 0.65873 0.09477 0.13459 0.0
C542 C 0.59463 0.11115 0.12235 0.0
C543 C 0.62427 0.0809 0.12838 0.0
C544 C 0.63179 0.05522 0.13051 0.0
C545 C 0.61098 0.12948 0.12532 0.0
C546 C 0.63446 0.12344 0.12953 0.0
C547 C 0.64074 0.09928 0.13123 0.0
C548 C 0.65282 0.14205 0.13192 0.0
C549 C 0.60303 0.1552 0.12393 0.0
C550 C 0.66102 0.15608 0.12081 0.0
C551 C 0.67791 0.17411 0.12306 0.0
C552 C 0.6869 0.17841 0.13649 0.0
C553 C 0.67888 0.16407 0.14759 0.0
C554 C 0.66204 0.14595 0.1453 0.0
H555 H 0.5832 0.15684 0.12382 0.0
H556 H 0.61023 0.16626 0.13257 0.0
H557 H 0.60999 0.16262 0.11401 0.0
H558 H 0.6543 0.15311 0.11038 0.0
H559 H 0.68378 0.18475 0.11429 0.0
H560 H 0.19012 0.7335 0.11559 0.0
H561 H 0.16489 0.70048 0.1077 0.0
H562 H 0.20767 0.65072 0.13134 0.0
H563 H 0.23283 0.68373 0.13953 0.0
H564 H 0.17415 0.65763 0.09352 0.0
H565 H 0.14023 0.64108 0.14706 0.0
H566 H 0.15705 0.66754 0.14255 0.0
H567 H 0.17219 0.6395 0.14517 0.0
C568 C 0.19436 0.71551 0.11902 0.0
C569 C 0.21332 0.71128 0.12834 0.0
C570 C 0.17992 0.69666 0.11447 0.0
C571 C 0.18414 0.67326 0.11915 0.0
C572 C 0.20382 0.66875 0.12785 0.0
H573 H 0.09669 0.54484 0.10975 0.0
H574 H 0.12972 0.57243 0.1145 0.0
C575 C 0.21825 0.68762 0.13245 0.0
C576 C 0.16716 0.65391 0.11545 0.0
H577 H 0.12593 0.61567 0.12937 0.0
C578 C 0.16367 0.64836 0.10135 0.0
C579 C 0.15348 0.64193 0.1257 0.0
C580 C 0.1557 0.64789 0.14096 0.0
C581 C 0.14679 0.63113 0.09722 0.0
C582 C 0.13287 0.61945 0.10746 0.0
C583 C 0.1367 0.62465 0.12156 0.0
C584 C 0.11356 0.60243 0.10381 0.0
C585 C 0.14403 0.6255 0.08196 0.0
C586 C 0.09349 0.61024 0.09629 0.0
C587 C 0.07454 0.59456 0.09359 0.0
C588 C 0.0753 0.57081 0.09842 0.0
C589 C 0.09554 0.56301 0.10587 0.0
C590 C 0.11444 0.57872 0.10859 0.0
H591 H 0.16006 0.63102 0.07591 0.0
H592 H 0.14092 0.60606 0.08031 0.0
H593 H 0.12835 0.63538 0.07779 0.0
H594 H 0.09225 0.62861 0.09275 0.0
H595 H 0.0592 0.60116 0.08786 0.0
H596 H 0.52346 0.93879 0.37325 0.0
H597 H 0.55604 0.9114 0.36729 0.0
H598 H 0.60515 0.95367 0.39168 0.0
H599 H 0.57272 0.98134 0.39764 0.0
H600 H 0.62367 0.93674 0.36517 0.0
H601 H 0.58273 0.86489 0.39738 0.0
H602 H 0.56336 0.87788 0.3845 0.0
H603 H 0.57381 0.89588 0.39875 0.0
C604 C 0.54124 0.94248 0.37721 0.0
C605 C 0.54544 0.96213 0.38605 0.0
C606 C 0.5598 0.92674 0.37383 0.0
C607 C 0.58284 0.93034 0.37924 0.0
C608 C 0.58742 0.95057 0.38747 0.0
H609 H 0.69572 0.82552 0.38895 0.0
H610 H 0.66595 0.85718 0.39217 0.0
C611 C 0.56886 0.96633 0.39087 0.0
C612 C 0.60184 0.9123 0.37696 0.0
H613 H 0.61709 0.8545 0.38436 0.0
C614 C 0.62228 0.91875 0.36934 0.0
C615 C 0.60005 0.88898 0.3826 0.0
C616 C 0.57893 0.88145 0.39137 0.0
C617 C 0.64089 0.90229 0.36704 0.0
C618 C 0.63882 0.87881 0.37242 0.0
C619 C 0.61852 0.87249 0.38018 0.0
C620 C 0.65762 0.86049 0.37028 0.0
C621 C 0.66278 0.9102 0.35908 0.0
C622 C 0.66267 0.85183 0.3569 0.0
C623 C 0.67962 0.83369 0.35502 0.0
C624 C 0.69176 0.82386 0.36651 0.0
C625 C 0.68673 0.83272 0.37989 0.0
C626 C 0.66973 0.85079 0.38175 0.0
H627 H 0.66401 0.93003 0.3584 0.0
H628 H 0.67935 0.90324 0.36402 0.0
H629 H 0.66188 0.90296 0.34834 0.0
H630 H 0.6532 0.85881 0.34794 0.0
H631 H 0.68303 0.82723 0.34458 0.0
H632 H 0.27554 0.32576 0.64975 0.0
H633 H 0.3017 0.3558 0.63931 0.0
H634 H 0.31942 0.30666 0.60626 0.0
H635 H 0.29359 0.2763 0.61675 0.0
H636 H 0.3589 0.3249 0.61924 0.0
H637 H 0.29703 0.39866 0.60531 0.0
H638 H 0.29389 0.38904 0.62302 0.0
H639 H 0.28668 0.36872 0.60911 0.0
C640 C 0.28461 0.32147 0.64011 0.0
C641 C 0.28255 0.29858 0.63412 0.0
C642 C 0.29946 0.33875 0.6341 0.0
C643 C 0.31232 0.33356 0.62193 0.0
C644 C 0.30957 0.31106 0.61562 0.0
H645 H 0.42971 0.41006 0.58122 0.0
H646 H 0.39725 0.38202 0.5864 0.0
C647 C 0.29477 0.29374 0.62164 0.0
C648 C 0.3305 0.35062 0.61664 0.0
H649 H 0.3388 0.40844 0.60614 0.0
C650 C 0.35447 0.34307 0.61619 0.0
C651 C 0.32468 0.37434 0.61274 0.0
C652 C 0.29913 0.38313 0.61243 0.0
C653 C 0.3729 0.35882 0.61238 0.0
C654 C 0.36713 0.38266 0.60874 0.0
C655 C 0.34313 0.39014 0.60896 0.0
C656 C 0.38593 0.40027 0.60514 0.0
C657 C 0.39848 0.35008 0.61277 0.0
C658 C 0.38989 0.42012 0.61377 0.0
C659 C 0.40838 0.4362 0.61084 0.0
C660 C 0.42317 0.43276 0.59916 0.0
C661 C 0.41876 0.41314 0.59034 0.0
C662 C 0.40027 0.39706 0.5933 0.0
H663 H 0.40026 0.333 0.61862 0.0
H664 H 0.40482 0.34697 0.60199 0.0
H665 H 0.41036 0.36366 0.61763 0.0
H666 H 0.37894 0.42292 0.62294 0.0
H667 H 0.4112 0.45119 0.6178 0.0
H668 H 0.96606 0.08203 0.9081 0.0
H669 H 0.93105 0.10352 0.89953 0.0
H670 H 0.9284 0.05738 0.86358 0.0
H671 H 0.96375 0.03571 0.87207 0.0
H672 H 0.92576 0.10663 0.85735 0.0
H673 H 0.86077 0.08191 0.89843 0.0
H674 H 0.8885 0.09309 0.9053 0.0
H675 H 0.88826 0.06556 0.89557 0.0
C676 C 0.95797 0.07627 0.89842 0.0
C677 C 0.96768 0.05713 0.89077 0.0
C678 C 0.93784 0.08849 0.89359 0.0
C679 C 0.92693 0.08179 0.88104 0.0
C680 C 0.93648 0.06267 0.87336 0.0
H681 H 0.79336 0.15275 0.85617 0.0
H682 H 0.82327 0.12166 0.86083 0.0
C683 C 0.95664 0.05032 0.87822 0.0
C684 C 0.90642 0.0958 0.87568 0.0
H685 H 0.85108 0.11656 0.88474 0.0
C686 C 0.90927 0.10854 0.86321 0.0
C687 C 0.88482 0.098 0.88326 0.0
C688 C 0.88025 0.08372 0.89631 0.0
C689 C 0.89157 0.12442 0.8585 0.0
C690 C 0.87067 0.12783 0.86658 0.0
C691 C 0.86726 0.11412 0.87865 0.0
C692 C 0.85277 0.14646 0.86313 0.0
C693 C 0.89552 0.13764 0.84501 0.0
C694 C 0.85944 0.17067 0.86302 0.0
C695 C 0.84245 0.18845 0.8604 0.0
C696 C 0.8184 0.18235 0.85791 0.0
C697 C 0.81175 0.15804 0.85802 0.0
C698 C 0.82879 0.14026 0.86067 0.0
H699 H 0.90838 0.12803 0.83818 0.0
H700 H 0.87842 0.1401 0.83928 0.0
H701 H 0.90308 0.15559 0.84729 0.0
H702 H 0.87776 0.17587 0.8652 0.0
H703 H 0.84816 0.20698 0.86045 0.0
H704 H 0.89767 0.54717 0.6062 0.0
H705 H 0.86423 0.57412 0.61135 0.0
H706 H 0.91215 0.63461 0.60999 0.0
H707 H 0.94571 0.60788 0.60489 0.0
H708 H 0.88269 0.6313 0.63435 0.0
H709 H 0.83026 0.62342 0.58536 0.0
H710 H 0.83906 0.5957 0.5934 0.0
H711 H 0.86153 0.61532 0.58646 0.0
C712 C 0.90107 0.56623 0.60689 0.0
C713 C 0.92436 0.57539 0.60516 0.0
C714 C 0.88192 0.58159 0.60975 0.0
C715 C 0.88573 0.60633 0.6109 0.0
C716 C 0.90887 0.61555 0.60906 0.0
H717 H 0.79181 0.72777 0.61961 0.0
H718 H 0.81964 0.69708 0.61131 0.0
C719 C 0.92801 0.60024 0.60615 0.0
C720 C 0.86591 0.62254 0.61485 0.0
H721 H 0.81263 0.6457 0.60369 0.0
C722 C 0.86735 0.63444 0.62767 0.0
C723 C 0.84604 0.62662 0.60604 0.0
C724 C 0.84407 0.61477 0.59199 0.0
C725 C 0.84937 0.65032 0.63196 0.0
C726 C 0.82935 0.6542 0.62324 0.0
C727 C 0.82793 0.64243 0.61038 0.0
C728 C 0.81031 0.67129 0.62718 0.0
C729 C 0.85212 0.66321 0.64567 0.0
C730 C 0.79535 0.66656 0.63857 0.0
C731 C 0.77939 0.68401 0.64333 0.0
C732 C 0.77821 0.70651 0.63679 0.0
C733 C 0.79237 0.71068 0.62493 0.0
C734 C 0.80825 0.69317 0.62015 0.0
H735 H 0.87055 0.66153 0.64993 0.0
H736 H 0.84779 0.68251 0.6445 0.0
H737 H 0.83945 0.65548 0.65334 0.0
H738 H 0.79657 0.64964 0.64403 0.0
H739 H 0.76867 0.68017 0.65245 0.0
H740 H 0.15001 0.20017 0.35983 0.0
H741 H 0.12103 0.16856 0.36465 0.0
H742 H 0.17531 0.11509 0.35714 0.0
H743 H 0.20472 0.14675 0.35276 0.0
H744 H 0.10382 0.13223 0.34929 0.0
H745 H 0.15226 0.0963 0.39529 0.0
H746 H 0.16054 0.1241 0.38707 0.0
H747 H 0.16918 0.09601 0.37942 0.0
C748 C 0.15581 0.18169 0.35919 0.0
C749 C 0.17972 0.17595 0.35606 0.0
C750 C 0.1392 0.16363 0.36191 0.0
C751 C 0.14608 0.13947 0.36149 0.0
C752 C 0.16974 0.13363 0.35787 0.0
H753 H 0.03062 0.03209 0.37055 0.0
H754 H 0.06489 0.05376 0.36071 0.0
C755 C 0.18649 0.15173 0.35531 0.0
C756 C 0.12843 0.12066 0.36516 0.0
H757 H 0.11634 0.07713 0.38907 0.0
C758 C 0.10659 0.12003 0.35792 0.0
C759 C 0.13208 0.10488 0.37648 0.0
C760 C 0.15467 0.10541 0.38511 0.0
C761 C 0.08796 0.10468 0.36199 0.0
C762 C 0.09154 0.08905 0.37339 0.0
C763 C 0.11371 0.08904 0.38029 0.0
C764 C 0.07179 0.07452 0.37932 0.0
C765 C 0.06423 0.1063 0.35453 0.0
C766 C 0.06489 0.07833 0.39317 0.0
C767 C 0.04568 0.06577 0.39885 0.0
C768 C 0.03282 0.04918 0.39079 0.0
C769 C 0.04006 0.04492 0.37699 0.0
C770 C 0.05953 0.05738 0.37133 0.0
H771 H 0.06285 0.12277 0.3481 0.0
H772 H 0.06224 0.09064 0.34751 0.0
H773 H 0.04912 0.10611 0.36204 0.0
H774 H 0.07409 0.09144 0.39953 0.0
H775 H 0.04062 0.06949 0.40951 0.0
H776 H 0.58893 0.4528 0.10074 0.0
H777 H 0.62083 0.42523 0.10765 0.0
H778 H 0.57155 0.36596 0.10481 0.0
H779 H 0.53967 0.39327 0.0977 0.0
H780 H 0.62155 0.39708 0.13078 0.0
H781 H 0.6293 0.34068 0.08365 0.0
H782 H 0.61386 0.3691 0.08366 0.0
H783 H 0.59907 0.34256 0.08989 0.0
C784 C 0.58493 0.43386 0.10143 0.0
C785 C 0.56175 0.42522 0.09866 0.0
C786 C 0.6032 0.41814 0.10537 0.0
C787 C 0.59866 0.39352 0.10654 0.0
C788 C 0.5756 0.38482 0.10365 0.0
H789 H 0.65983 0.28584 0.15751 0.0
H790 H 0.6377 0.31861 0.14679 0.0
C791 C 0.55734 0.4005 0.09969 0.0
C792 C 0.61747 0.3771 0.11175 0.0
H793 H 0.64595 0.32438 0.1047 0.0
C794 C 0.62715 0.38137 0.125 0.0
C795 C 0.62506 0.35682 0.1041 0.0
C796 C 0.61647 0.35213 0.08948 0.0
C797 C 0.64328 0.36524 0.1311 0.0
C798 C 0.64955 0.34412 0.12384 0.0
C799 C 0.64088 0.34046 0.11031 0.0
C800 C 0.6637 0.32485 0.1305 0.0
C801 C 0.65322 0.3708 0.14533 0.0
C802 C 0.68548 0.31718 0.12473 0.0
C803 C 0.69821 0.2983 0.13082 0.0
C804 C 0.68918 0.28667 0.14269 0.0
C805 C 0.66735 0.29446 0.14841 0.0
C806 C 0.65473 0.3133 0.14235 0.0
H807 H 0.65275 0.39034 0.14752 0.0
H808 H 0.64215 0.36169 0.15332 0.0
H809 H 0.67196 0.36438 0.14637 0.0
H810 H 0.69259 0.32578 0.11551 0.0
H811 H 0.71492 0.29265 0.12614 0.0
H812 H 0.4749 0.93944 0.86418 0.0
H813 H 0.44456 0.91241 0.85475 0.0
H814 H 0.39242 0.94109 0.88335 0.0
H815 H 0.42256 0.9684 0.89277 0.0
H816 H 0.42148 0.87782 0.87068 0.0
H817 H 0.35556 0.93938 0.84646 0.0
H818 H 0.38572 0.94851 0.85074 0.0
H819 H 0.36322 0.94689 0.86408 0.0
C820 C 0.45687 0.94033 0.86831 0.0
C821 C 0.45116 0.95604 0.87927 0.0
C822 C 0.43957 0.92485 0.86291 0.0
C823 C 0.41621 0.92491 0.86826 0.0
C824 C 0.41023 0.94108 0.87889 0.0
H825 H 0.29196 0.83427 0.86349 0.0
H826 H 0.32133 0.86588 0.86773 0.0
C827 C 0.42753 0.95658 0.88431 0.0
C828 C 0.39878 0.90655 0.86366 0.0
H829 H 0.34308 0.8989 0.8497 0.0
C830 C 0.40444 0.88239 0.86595 0.0
C831 C 0.37654 0.91262 0.85758 0.0
C832 C 0.36992 0.93825 0.85444 0.0
C833 C 0.38817 0.86411 0.86268 0.0
C834 C 0.36582 0.87017 0.85671 0.0
C835 C 0.36026 0.89433 0.85426 0.0
C836 C 0.34766 0.85169 0.85343 0.0
C837 C 0.39471 0.83855 0.86612 0.0
C838 C 0.35257 0.8335 0.84377 0.0
C839 C 0.33587 0.8153 0.84136 0.0
C840 C 0.3139 0.81511 0.84851 0.0
C841 C 0.30876 0.83381 0.85785 0.0
C842 C 0.32548 0.85194 0.86027 0.0
H843 H 0.40981 0.83756 0.87362 0.0
H844 H 0.37914 0.82884 0.87057 0.0
H845 H 0.40025 0.82919 0.85646 0.0
H846 H 0.36941 0.83325 0.83818 0.0
H847 H 0.3403 0.80129 0.83401 0.0
H848 H 0.90359 0.44077 0.90018 0.0
H849 H 0.87072 0.41188 0.89829 0.0
H850 H 0.89777 0.38863 0.85851 0.0
H851 H 0.93068 0.4173 0.86029 0.0
H852 H 0.83516 0.40739 0.87693 0.0
H853 H 0.89197 0.32634 0.88169 0.0
H854 H 0.90227 0.35581 0.88659 0.0
H855 H 0.90205 0.34698 0.86861 0.0
C856 C 0.90256 0.4295 0.89103 0.0
C857 C 0.91982 0.43125 0.88041 0.0
C858 C 0.88376 0.41305 0.88997 0.0
C859 C 0.88205 0.39795 0.87836 0.0
C860 C 0.89903 0.39989 0.86766 0.0
H861 H 0.76945 0.31615 0.8418 0.0
H862 H 0.79626 0.34777 0.84979 0.0
C863 C 0.91775 0.41637 0.86867 0.0
C864 C 0.86249 0.38018 0.8773 0.0
H865 H 0.85212 0.32038 0.87347 0.0
C866 C 0.83877 0.38833 0.87632 0.0
C867 C 0.86725 0.35534 0.87678 0.0
C868 C 0.89224 0.34552 0.87861 0.0
C869 C 0.81975 0.37229 0.87419 0.0
C870 C 0.8247 0.34755 0.87281 0.0
C871 C 0.84833 0.33937 0.87442 0.0
C872 C 0.80605 0.32986 0.86894 0.0
C873 C 0.79457 0.38201 0.87342 0.0
C874 C 0.80263 0.30921 0.87702 0.0
C875 C 0.78752 0.29092 0.87238 0.0
C876 C 0.77559 0.29293 0.85955 0.0
C877 C 0.77825 0.31408 0.85177 0.0
C878 C 0.79348 0.33228 0.85637 0.0
H879 H 0.79292 0.3992 0.87916 0.0
H880 H 0.78994 0.3855 0.86238 0.0
H881 H 0.7814 0.36909 0.87772 0.0
H882 H 0.81222 0.30693 0.88673 0.0
H883 H 0.78584 0.27488 0.87864 0.0
H884 H 0.35415 0.21357 0.63642 0.0
H885 H 0.38266 0.18159 0.63123 0.0
H886 H 0.33011 0.12878 0.64309 0.0
H887 H 0.30123 0.16066 0.64793 0.0
H888 H 0.40208 0.14628 0.64708 0.0
H889 H 0.34785 0.10697 0.60434 0.0
H890 H 0.3409 0.13559 0.61203 0.0
H891 H 0.33273 0.10834 0.6208 0.0
C892 C 0.34866 0.19516 0.63795 0.0
C893 C 0.32535 0.18963 0.64243 0.0
C894 C 0.36499 0.1769 0.635 0.0
C895 C 0.35837 0.15279 0.63653 0.0
C896 C 0.3354 0.14724 0.6415 0.0
H897 H 0.46805 0.03985 0.62832 0.0
H898 H 0.43601 0.06491 0.63797 0.0
C899 C 0.31896 0.16548 0.64432 0.0
C900 C 0.37547 0.13362 0.63264 0.0
H901 H 0.38377 0.08713 0.61009 0.0
C902 C 0.39807 0.13324 0.63905 0.0
C903 C 0.37021 0.11677 0.62208 0.0
C904 C 0.34671 0.11698 0.61431 0.0
C905 C 0.41576 0.11681 0.63497 0.0
C906 C 0.41047 0.09994 0.62442 0.0
C907 C 0.38768 0.09996 0.61825 0.0
C908 C 0.42895 0.08363 0.61868 0.0
C909 C 0.44026 0.11839 0.64155 0.0
C910 C 0.43498 0.08523 0.60456 0.0
C911 C 0.45295 0.07078 0.59899 0.0
C912 C 0.46536 0.05443 0.60746 0.0
C913 C 0.45893 0.0524 0.62156 0.0
C914 C 0.44075 0.0668 0.62711 0.0
H915 H 0.4429 0.13559 0.64715 0.0
H916 H 0.44237 0.10362 0.64917 0.0
H917 H 0.45454 0.11655 0.63358 0.0
H918 H 0.42607 0.09804 0.59786 0.0
H919 H 0.4574 0.07281 0.58809 0.0
H920 H 0.70322 0.72273 0.38345 0.0
H921 H 0.67761 0.69274 0.39448 0.0
H922 H 0.69338 0.64302 0.36138 0.0
H923 H 0.7194 0.67264 0.35045 0.0
H924 H 0.63756 0.67496 0.38268 0.0
H925 H 0.69903 0.60016 0.39505 0.0
H926 H 0.70967 0.62983 0.39085 0.0
H927 H 0.70116 0.6094 0.37723 0.0
C928 C 0.70164 0.70524 0.37866 0.0
C929 C 0.71329 0.7001 0.36604 0.0
C930 C 0.68699 0.68813 0.38499 0.0
C931 C 0.68377 0.66556 0.37884 0.0
C932 C 0.69602 0.6601 0.36649 0.0
H933 H 0.58207 0.55101 0.3828 0.0
H934 H 0.61501 0.57854 0.3778 0.0
C935 C 0.71078 0.67715 0.3602 0.0
C936 C 0.66569 0.64873 0.38448 0.0
H937 H 0.65702 0.59076 0.39465 0.0
C938 C 0.64188 0.65666 0.38551 0.0
C939 C 0.67135 0.62483 0.38811 0.0
C940 C 0.69674 0.61561 0.38789 0.0
C941 C 0.62345 0.64112 0.38957 0.0
C942 C 0.62902 0.61709 0.39283 0.0
C943 C 0.65286 0.60922 0.3921 0.0
C944 C 0.61009 0.59965 0.39644 0.0
C945 C 0.59801 0.65028 0.38983 0.0
C946 C 0.59673 0.60223 0.40871 0.0
C947 C 0.57787 0.58655 0.4116 0.0
C948 C 0.57208 0.56802 0.40227 0.0
C949 C 0.58595 0.56516 0.39016 0.0
C950 C 0.60484 0.58081 0.38731 0.0
H951 H 0.59622 0.66787 0.38453 0.0
H952 H 0.58573 0.63729 0.38475 0.0
H953 H 0.59216 0.65247 0.40078 0.0
H954 H 0.60074 0.61653 0.41596 0.0
H955 H 0.56763 0.58916 0.42105 0.0
H956 H 0.13965 0.80857 0.1455 0.0
H957 H 0.113 0.8427 0.14152 0.0
H958 H 0.1732 0.88541 0.12835 0.0
H959 H 0.19999 0.8514 0.13221 0.0
H960 H 0.11558 0.89067 0.15329 0.0
H961 H 0.12469 0.88925 0.09563 0.0
H962 H 0.13313 0.86414 0.1064 0.0
H963 H 0.15216 0.89 0.10538 0.0
C964 C 0.14724 0.82521 0.14175 0.0
C965 C 0.17191 0.82721 0.13907 0.0
C966 C 0.132 0.84469 0.13953 0.0
C967 C 0.14114 0.86643 0.13451 0.0
C968 C 0.16579 0.86865 0.13205 0.0
H969 H 0.06348 0.99247 0.10516 0.0
H970 H 0.09582 0.96631 0.11323 0.0
C971 C 0.18105 0.8492 0.13429 0.0
C972 C 0.12476 0.88665 0.13167 0.0
H973 H 0.10076 0.91969 0.10528 0.0
C974 C 0.11237 0.89713 0.14281 0.0
C975 C 0.12081 0.89507 0.11799 0.0
C976 C 0.13322 0.88399 0.10562 0.0
C977 C 0.09593 0.91577 0.14062 0.0
C978 C 0.09145 0.92373 0.1269 0.0
C979 C 0.10429 0.91361 0.1158 0.0
C980 C 0.07231 0.94122 0.12362 0.0
C981 C 0.08358 0.9268 0.15303 0.0
C982 C 0.04843 0.93594 0.12692 0.0
C983 C 0.02996 0.95085 0.12238 0.0
C984 C 0.03499 0.97123 0.11429 0.0
C985 C 0.059 0.97694 0.11138 0.0
C986 C 0.0775 0.962 0.11597 0.0
H987 H 0.09435 0.92452 0.16266 0.0
H988 H 0.0802 0.94619 0.15139 0.0
H989 H 0.06612 0.91774 0.15467 0.0
H990 H 0.04394 0.91973 0.13253 0.0
H991 H 0.01167 0.94585 0.12476 0.0
H992 H 0.72906 0.8188 0.84804 0.0
H993 H 0.7005 0.84963 0.85522 0.0
H994 H 0.67241 0.80221 0.88662 0.0
H995 H 0.70093 0.7713 0.87958 0.0
H996 H 0.65043 0.84239 0.85405 0.0
H997 H 0.68021 0.86669 0.90732 0.0
H998 H 0.69955 0.85183 0.89495 0.0
H999 H 0.67729 0.83506 0.90428 0.0
C1000 C 0.71712 0.81506 0.85665 0.0
C1001 C 0.7172 0.79255 0.8632 0.0
C1002 C 0.70081 0.8327 0.86072 0.0
C1003 C 0.68449 0.82824 0.87151 0.0
C1004 C 0.68512 0.80614 0.87842 0.0
H1005 H 0.54516 0.88902 0.88677 0.0
H1006 H 0.57973 0.86321 0.88229 0.0
C1007 C 0.70136 0.78845 0.87433 0.0
C1008 C 0.66533 0.84573 0.87462 0.0
H1009 H 0.64137 0.88012 0.90049 0.0
C1010 C 0.64855 0.8508 0.86416 0.0
C1011 C 0.66303 0.8567 0.88781 0.0
C1012 C 0.68108 0.85251 0.89922 0.0
C1013 C 0.62913 0.86612 0.86665 0.0
C1014 C 0.62637 0.87645 0.87997 0.0
C1015 C 0.64348 0.87193 0.89033 0.0
C1016 C 0.60568 0.89192 0.88328 0.0
C1017 C 0.61167 0.87117 0.85503 0.0
C1018 C 0.60898 0.91648 0.88557 0.0
C1019 C 0.58927 0.9313 0.88808 0.0
C1020 C 0.56597 0.92172 0.88847 0.0
C1021 C 0.56284 0.89697 0.8865 0.0
C1022 C 0.58254 0.88221 0.88391 0.0
H1023 H 0.61894 0.86582 0.84473 0.0
H1024 H 0.59493 0.86095 0.85688 0.0
H1025 H 0.60702 0.8905 0.85472 0.0
H1026 H 0.62675 0.92424 0.88516 0.0
H1027 H 0.5923 0.95028 0.88963 0.0
H1028 H 0.47066 0.44775 0.11941 0.0
H1029 H 0.43845 0.42155 0.12745 0.0
H1030 H 0.38939 0.4555 0.09899 0.0
H1031 H 0.42146 0.48192 0.09087 0.0
H1032 H 0.3706 0.44447 0.12719 0.0
H1033 H 0.41423 0.36769 0.10034 0.0
H1034 H 0.43289 0.38443 0.11208 0.0
H1035 H 0.42178 0.39845 0.09657 0.0
C1036 C 0.45295 0.44994 0.11499 0.0
C1037 C 0.44869 0.46676 0.10437 0.0
C1038 C 0.4346 0.4349 0.11958 0.0
C1039 C 0.41171 0.43642 0.11366 0.0
C1040 C 0.40701 0.45405 0.10364 0.0
H1041 H 0.30141 0.32871 0.10946 0.0
H1042 H 0.33057 0.36038 0.10491 0.0
C1043 C 0.42537 0.46909 0.09901 0.0
C1044 C 0.3932 0.41848 0.11715 0.0
H1045 H 0.37954 0.35926 0.11345 0.0
C1046 C 0.37251 0.42582 0.12424 0.0
C1047 C 0.39573 0.39426 0.1131 0.0
C1048 C 0.41724 0.38565 0.105 0.0
C1049 C 0.35428 0.40941 0.12752 0.0
C1050 C 0.357 0.38514 0.12364 0.0
C1051 C 0.37762 0.37788 0.11646 0.0
C1052 C 0.33844 0.36694 0.1266 0.0
C1053 C 0.33207 0.41819 0.13486 0.0
C1054 C 0.33331 0.36014 0.14033 0.0
C1055 C 0.3167 0.34195 0.14298 0.0
C1056 C 0.30501 0.33027 0.13193 0.0
C1057 C 0.31008 0.33734 0.1182 0.0
C1058 C 0.32672 0.35543 0.11557 0.0
H1059 H 0.33061 0.43802 0.1346 0.0
H1060 H 0.31576 0.41035 0.13006 0.0
H1061 H 0.33266 0.41243 0.1459 0.0
H1062 H 0.34247 0.36857 0.14897 0.0
H1063 H 0.31321 0.33691 0.15366 0.0
H1064 H 0.93747 0.10418 0.40967 0.0
H1065 H 0.90457 0.13223 0.40563 0.0
H1066 H 0.86852 0.07945 0.38043 0.0
H1067 H 0.90109 0.05113 0.38462 0.0
H1068 H 0.88953 0.15006 0.38064 0.0
H1069 H 0.81523 0.10119 0.40631 0.0
H1070 H 0.84629 0.09344 0.40897 0.0
H1071 H 0.83086 0.08369 0.39355 0.0
C1072 C 0.92247 0.09846 0.40335 0.0
C1073 C 0.92189 0.0754 0.39749 0.0
C1074 C 0.90367 0.11451 0.40107 0.0
C1075 C 0.88392 0.10779 0.39293 0.0
C1076 C 0.8833 0.08481 0.38703 0.0
H1077 H 0.76516 0.18328 0.35576 0.0
H1078 H 0.79359 0.15315 0.36409 0.0
C1079 C 0.90204 0.06871 0.38935 0.0
C1080 C 0.86467 0.12532 0.38993 0.0
H1081 H 0.80429 0.13456 0.39216 0.0
C1082 C 0.87093 0.14678 0.38327 0.0
C1083 C 0.84041 0.12092 0.39335 0.0
C1084 C 0.83277 0.09866 0.40106 0.0
C1085 C 0.85352 0.16375 0.37966 0.0
C1086 C 0.82925 0.15927 0.38296 0.0
C1087 C 0.82294 0.13789 0.38967 0.0
C1088 C 0.81023 0.17652 0.37921 0.0
C1089 C 0.86112 0.18611 0.37201 0.0
C1090 C 0.80967 0.19931 0.38532 0.0
C1091 C 0.79347 0.21655 0.38062 0.0
C1092 C 0.77752 0.21126 0.3697 0.0
C1093 C 0.77726 0.18796 0.36414 0.0
C1094 C 0.79347 0.17072 0.36888 0.0
H1095 H 0.87956 0.18453 0.36775 0.0
H1096 H 0.84862 0.19007 0.36333 0.0
H1097 H 0.86076 0.20153 0.37929 0.0
H1098 H 0.82228 0.20397 0.39345 0.0
H1099 H 0.79407 0.23427 0.38519 0.0
H1100 H 0.1991 0.65908 0.63248 0.0
H1101 H 0.16888 0.62873 0.62724 0.0
H1102 H 0.12276 0.65814 0.65891 0.0
H1103 H 0.15276 0.6888 0.66414 0.0
H1104 H 0.14764 0.59393 0.64486 0.0
H1105 H 0.08067 0.65806 0.62374 0.0
H1106 H 0.11166 0.66605 0.62642 0.0
H1107 H 0.09143 0.66475 0.64093 0.0
C1108 C 0.18253 0.65914 0.63834 0.0
C1109 C 0.17825 0.6765 0.64865 0.0
C1110 C 0.16532 0.64173 0.63535 0.0
C1111 C 0.1435 0.6414 0.64256 0.0
C1112 C 0.13934 0.65836 0.65306 0.0
H1113 H 0.01495 0.55593 0.63025 0.0
H1114 H 0.04558 0.58218 0.64013 0.0
C1115 C 0.15654 0.6758 0.65607 0.0
C1116 C 0.12503 0.62345 0.63893 0.0
H1117 H 0.06886 0.61763 0.62536 0.0
C1118 C 0.13038 0.59907 0.64062 0.0
C1119 C 0.10256 0.63027 0.63342 0.0
C1120 C 0.09621 0.65618 0.63089 0.0
C1121 C 0.11377 0.58125 0.63698 0.0
C1122 C 0.09144 0.58807 0.63129 0.0
C1123 C 0.08598 0.61247 0.62978 0.0
C1124 C 0.07373 0.57029 0.62629 0.0
C1125 C 0.12019 0.55534 0.63937 0.0
C1126 C 0.07948 0.55474 0.61532 0.0
C1127 C 0.06204 0.53967 0.60966 0.0
C1128 C 0.03846 0.54003 0.6148 0.0
C1129 C 0.03294 0.55518 0.62605 0.0
C1130 C 0.0504 0.57022 0.6317 0.0
H1131 H 0.13453 0.55343 0.64731 0.0
H1132 H 0.10432 0.54487 0.64277 0.0
H1133 H 0.12688 0.54749 0.6295 0.0
H1134 H 0.09725 0.55486 0.6108 0.0
H1135 H 0.06687 0.5283 0.60097 0.0
H1136 H 0.59514 0.04762 0.61568 0.0
H1137 H 0.62743 0.07555 0.62147 0.0
H1138 H 0.59629 0.12845 0.59426 0.0
H1139 H 0.56375 0.10087 0.58858 0.0
H1140 H 0.66116 0.09913 0.60452 0.0
H1141 H 0.60134 0.16354 0.63154 0.0
H1142 H 0.592 0.13356 0.62709 0.0
H1143 H 0.59232 0.15665 0.61406 0.0
C1144 C 0.59517 0.06519 0.61091 0.0
C1145 C 0.57673 0.07213 0.60178 0.0
C1146 C 0.61366 0.08108 0.61421 0.0
C1147 C 0.61401 0.10417 0.60847 0.0
C1148 C 0.59606 0.11087 0.59902 0.0
H1149 H 0.70186 0.23005 0.61892 0.0
H1150 H 0.67454 0.19927 0.61036 0.0
C1151 C 0.57753 0.09505 0.59575 0.0
C1152 C 0.63287 0.12142 0.61255 0.0
H1153 H 0.6414 0.17592 0.62781 0.0
C1154 C 0.6569 0.11589 0.60966 0.0
C1155 C 0.62721 0.1432 0.6193 0.0
C1156 C 0.60185 0.14956 0.62331 0.0
C1157 C 0.67542 0.13188 0.61308 0.0
C1158 C 0.66968 0.15376 0.61969 0.0
C1159 C 0.64568 0.15919 0.62265 0.0
C1160 C 0.6882 0.17136 0.62379 0.0
C1161 C 0.70088 0.1255 0.60937 0.0
C1162 C 0.70515 0.16575 0.63406 0.0
C1163 C 0.72084 0.18333 0.639 0.0
C1164 C 0.71971 0.20684 0.6338 0.0
C1165 C 0.70322 0.21214 0.62317 0.0
C1166 C 0.68756 0.19458 0.61826 0.0
H1167 H 0.70169 0.11093 0.60151 0.0
H1168 H 0.71058 0.14136 0.60527 0.0
H1169 H 0.71035 0.1193 0.61886 0.0
H1170 H 0.70565 0.14803 0.63863 0.0
H1171 H 0.73327 0.17868 0.64722 0.0
H1172 H 0.15587 0.30828 0.83703 0.0
H1173 H 0.12626 0.33982 0.84099 0.0
H1174 H 0.17475 0.37504 0.86929 0.0
H1175 H 0.20461 0.34379 0.86526 0.0
H1176 H 0.10569 0.35127 0.86629 0.0
H1177 H 0.15285 0.43005 0.84429 0.0
H1178 H 0.16196 0.39964 0.84067 0.0
H1179 H 0.17014 0.41365 0.85683 0.0
C1180 C 0.16035 0.32284 0.844 0.0
C1181 C 0.1826 0.32352 0.85083 0.0
C1182 C 0.14341 0.34086 0.84623 0.0
C1183 C 0.14845 0.35994 0.85527 0.0
C1184 C 0.1707 0.36077 0.86203 0.0
H1185 H 0.06787 0.47312 0.89409 0.0
H1186 H 0.09894 0.44639 0.8851 0.0
C1187 C 0.18767 0.34278 0.8598 0.0
C1188 C 0.12981 0.37805 0.85836 0.0
H1189 H 0.11805 0.43807 0.85793 0.0
C1190 C 0.10827 0.37022 0.86433 0.0
C1191 C 0.13332 0.40276 0.85584 0.0
C1192 C 0.15573 0.41206 0.84893 0.0
C1193 C 0.09036 0.3865 0.86821 0.0
C1194 C 0.09393 0.41124 0.86581 0.0
C1195 C 0.11538 0.41908 0.85972 0.0
C1196 C 0.07585 0.42919 0.87004 0.0
C1197 C 0.06809 0.37714 0.87527 0.0
C1198 C 0.05283 0.42893 0.86419 0.0
C1199 C 0.03501 0.4441 0.86933 0.0
C1200 C 0.03996 0.45992 0.88035 0.0
C1201 C 0.06342 0.46108 0.88564 0.0
C1202 C 0.08122 0.44583 0.88051 0.0
H1203 H 0.07054 0.35858 0.87918 0.0
H1204 H 0.06289 0.3888 0.88412 0.0
H1205 H 0.05309 0.37699 0.86769 0.0
H1206 H 0.04849 0.41651 0.85591 0.0
H1207 H 0.01719 0.44291 0.86493 0.0
H1208 H 0.89524 0.95208 0.09833 0.0
H1209 H 0.86275 0.924 0.10348 0.0
H1210 H 0.9146 0.86983 0.1143 0.0
H1211 H 0.9471 0.89747 0.10883 0.0
H1212 H 0.87807 0.85182 0.09871 0.0
H1213 H 0.84235 0.90605 0.14258 0.0
H1214 H 0.84344 0.9212 0.12612 0.0
H1215 H 0.87082 0.91237 0.13452 0.0
C1216 C 0.89971 0.93414 0.10174 0.0
C1217 C 0.92375 0.92705 0.10328 0.0
C1218 C 0.88112 0.91817 0.10475 0.0
C1219 C 0.88626 0.89498 0.10952 0.0
C1220 C 0.91023 0.88768 0.11067 0.0
H1221 H 0.81324 0.79405 0.15943 0.0
H1222 H 0.83577 0.82696 0.14916 0.0
C1223 C 0.92879 0.90353 0.10756 0.0
C1224 C 0.86689 0.87829 0.11364 0.0
H1225 H 0.82251 0.8699 0.13758 0.0
C1226 C 0.86575 0.85582 0.10712 0.0
C1227 C 0.85098 0.88355 0.12469 0.0
C1228 C 0.85199 0.907 0.13249 0.0
C1229 C 0.84966 0.83816 0.11164 0.0
C1230 C 0.83389 0.84335 0.12276 0.0
C1231 C 0.8345 0.86608 0.12898 0.0
C1232 C 0.81849 0.82467 0.12906 0.0
C1233 C 0.85056 0.81372 0.10493 0.0
C1234 C 0.80082 0.81285 0.12126 0.0
C1235 C 0.78796 0.79382 0.12709 0.0
C1236 C 0.79247 0.78649 0.14084 0.0
C1237 C 0.8094 0.79913 0.14879 0.0
C1238 C 0.82228 0.81801 0.14295 0.0
H1239 H 0.86697 0.81124 0.09856 0.0
H1240 H 0.84992 0.79939 0.11292 0.0
H1241 H 0.83481 0.81152 0.098 0.0
H1242 H 0.79728 0.81805 0.11061 0.0
H1243 H 0.7749 0.78455 0.12073 0.0
H1244 H 0.45404 0.539 0.37135 0.0
H1245 H 0.42134 0.56325 0.36174 0.0
H1246 H 0.42826 0.61281 0.39593 0.0
H1247 H 0.46041 0.58861 0.4057 0.0
H1248 H 0.38155 0.60077 0.39058 0.0
H1249 H 0.42864 0.62772 0.34207 0.0
H1250 H 0.42626 0.59601 0.34492 0.0
H1251 H 0.44398 0.61396 0.35652 0.0
C1252 C 0.44856 0.55506 0.37681 0.0
C1253 C 0.45987 0.56192 0.38926 0.0
C1254 C 0.42998 0.56895 0.37127 0.0
C1255 C 0.42262 0.58999 0.37803 0.0
C1256 C 0.4337 0.59666 0.39053 0.0
H1257 H 0.34773 0.71544 0.35153 0.0
H1258 H 0.37645 0.68426 0.35784 0.0
C1259 C 0.45212 0.5828 0.39609 0.0
C1260 C 0.40331 0.60525 0.37228 0.0
H1261 H 0.38919 0.64191 0.34507 0.0
C1262 C 0.3831 0.60965 0.38058 0.0
C1263 C 0.40556 0.61695 0.3593 0.0
C1264 C 0.42734 0.61365 0.3502 0.0
C1265 C 0.3653 0.62584 0.3764 0.0
C1266 C 0.36751 0.63752 0.36341 0.0
C1267 C 0.38749 0.63278 0.35498 0.0
C1268 C 0.35009 0.6559 0.35882 0.0
C1269 C 0.34482 0.63102 0.38621 0.0
C1270 C 0.32581 0.65018 0.35701 0.0
C1271 C 0.3093 0.66802 0.35353 0.0
C1272 C 0.31685 0.69183 0.35162 0.0
C1273 C 0.34131 0.6973 0.35296 0.0
C1274 C 0.35777 0.6795 0.35654 0.0
H1275 H 0.34877 0.62497 0.39698 0.0
H1276 H 0.34071 0.65047 0.38646 0.0
H1277 H 0.32859 0.6214 0.38259 0.0
H1278 H 0.3196 0.63197 0.35842 0.0
H1279 H 0.29062 0.66316 0.35242 0.0
H1280 H 0.41767 0.06943 0.0919 0.0
H1281 H 0.38642 0.09943 0.09594 0.0
H1282 H 0.39391 0.08985 0.14022 0.0
H1283 H 0.42515 0.05987 0.13634 0.0
H1284 H 0.34159 0.09441 0.11191 0.0
H1285 H 0.40396 0.16319 0.13283 0.0
H1286 H 0.4141 0.1379 0.12271 0.0
H1287 H 0.40614 0.13403 0.14066 0.0
C1288 C 0.41267 0.07369 0.10251 0.0
C1289 C 0.424 0.06239 0.11381 0.0
C1290 C 0.39478 0.09076 0.10477 0.0
C1291 C 0.38809 0.09694 0.11836 0.0
C1292 C 0.39906 0.08546 0.12966 0.0
H1293 H 0.26895 0.17841 0.15082 0.0
H1294 H 0.29609 0.14647 0.14338 0.0
C1295 C 0.41686 0.06831 0.12741 0.0
C1296 C 0.36988 0.11571 0.12077 0.0
H1297 H 0.3625 0.1716 0.13441 0.0
C1298 C 0.3461 0.11134 0.11678 0.0
C1299 C 0.37598 0.13782 0.12697 0.0
C1300 C 0.40145 0.14371 0.13096 0.0
C1301 C 0.32807 0.12842 0.11914 0.0
C1302 C 0.33408 0.15026 0.12571 0.0
C1303 C 0.35796 0.15477 0.12943 0.0
C1304 C 0.31593 0.16872 0.12901 0.0
C1305 C 0.30283 0.12309 0.11449 0.0
C1306 C 0.31805 0.19176 0.12335 0.0
C1307 C 0.30265 0.21005 0.1276 0.0
C1308 C 0.28496 0.20568 0.1377 0.0
C1309 C 0.28235 0.18236 0.143 0.0
C1310 C 0.29776 0.16405 0.13872 0.0
H1311 H 0.30229 0.1084 0.1067 0.0
H1312 H 0.29205 0.11748 0.12362 0.0
H1313 H 0.29432 0.13927 0.10994 0.0
H1314 H 0.33202 0.19572 0.11587 0.0
H1315 H 0.30514 0.22779 0.12328 0.0
H1316 H 0.57118 0.52273 0.8906 0.0
H1317 H 0.60204 0.55061 0.88256 0.0
H1318 H 0.55282 0.57956 0.85237 0.0
H1319 H 0.52177 0.55197 0.8604 0.0
H1320 H 0.62237 0.5598 0.85542 0.0
H1321 H 0.57214 0.63758 0.87677 0.0
H1322 H 0.56524 0.60705 0.88146 0.0
H1323 H 0.55558 0.61884 0.86501 0.0
C1324 C 0.56698 0.53483 0.88214 0.0
C1325 C 0.54392 0.53533 0.87626 0.0
C1326 C 0.58465 0.55072 0.87756 0.0
C1327 C 0.57953 0.56737 0.86706 0.0
C1328 C 0.55695 0.56709 0.86067 0.0
H1329 H 0.6571 0.69114 0.83591 0.0
H1330 H 0.62825 0.65875 0.83941 0.0
C1331 C 0.53927 0.55125 0.86524 0.0
C1332 C 0.59738 0.58584 0.86329 0.0
H1333 H 0.60754 0.64607 0.86436 0.0
C1334 C 0.61918 0.57868 0.85735 0.0
C1335 C 0.59309 0.61042 0.86586 0.0
C1336 C 0.57035 0.61902 0.87273 0.0
C1337 C 0.63678 0.59554 0.85375 0.0
C1338 C 0.63256 0.62011 0.85641 0.0
C1339 C 0.61068 0.62724 0.86227 0.0
C1340 C 0.65077 0.63877 0.85358 0.0
C1341 C 0.65957 0.58696 0.84695 0.0
C1342 C 0.67295 0.63829 0.86043 0.0
C1343 C 0.68949 0.65676 0.85844 0.0
C1344 C 0.68404 0.67616 0.84966 0.0
C1345 C 0.66186 0.67648 0.84274 0.0
C1346 C 0.64536 0.65798 0.84472 0.0
H1347 H 0.65724 0.56905 0.8421 0.0
H1348 H 0.66572 0.59975 0.83885 0.0
H1349 H 0.67382 0.58547 0.85494 0.0
H1350 H 0.67727 0.62392 0.86756 0.0
H1351 H 0.70637 0.65601 0.86398 0.0
H1352 H 0.19883 0.80337 0.66286 0.0
H1353 H 0.1763 0.83757 0.65405 0.0
H1354 H 0.18962 0.81455 0.61194 0.0
H1355 H 0.2122 0.77998 0.62068 0.0
H1356 H 0.18998 0.87512 0.63488 0.0
H1357 H 0.1153 0.81797 0.61546 0.0
H1358 H 0.13746 0.80695 0.62754 0.0
H1359 H 0.14499 0.81076 0.60953 0.0
C1360 C 0.19715 0.8056 0.65171 0.0
C1361 C 0.20713 0.78883 0.64247 0.0
C1362 C 0.18432 0.82521 0.6467 0.0
C1363 C 0.18108 0.82837 0.63237 0.0
C1364 C 0.1917 0.81219 0.62305 0.0
H1365 H 0.08114 0.92988 0.59416 0.0
H1366 H 0.11251 0.89969 0.59713 0.0
C1367 C 0.20466 0.79254 0.62806 0.0
C1368 C 0.16567 0.84813 0.62738 0.0
H1369 H 0.11055 0.85959 0.61356 0.0
C1370 C 0.17271 0.87179 0.63008 0.0
C1371 C 0.14322 0.84364 0.6211 0.0
C1372 C 0.13459 0.81849 0.61828 0.0
C1373 C 0.15764 0.89114 0.62692 0.0
C1374 C 0.13475 0.8866 0.62118 0.0
C1375 C 0.1281 0.86299 0.61799 0.0
C1376 C 0.11683 0.90586 0.61921 0.0
C1377 C 0.16631 0.91623 0.62981 0.0
C1378 C 0.10874 0.91918 0.63066 0.0
C1379 C 0.09086 0.93644 0.62901 0.0
C1380 C 0.08055 0.94053 0.61588 0.0
C1381 C 0.08872 0.92717 0.60441 0.0
C1382 C 0.10665 0.90994 0.60608 0.0
H1383 H 0.18619 0.91714 0.62991 0.0
H1384 H 0.15944 0.92906 0.62194 0.0
H1385 H 0.15982 0.92196 0.6402 0.0
H1386 H 0.11592 0.9159 0.64095 0.0
H1387 H 0.0849 0.94631 0.63807 0.0
H1388 H 0.97567 0.44149 0.37248 0.0
H1389 H 0.94098 0.41751 0.36585 0.0
H1390 H 0.89633 0.45908 0.39337 0.0
H1391 H 0.93105 0.48306 0.40022 0.0
H1392 H 0.89333 0.41071 0.39808 0.0
H1393 H 0.88188 0.42954 0.34193 0.0
H1394 H 0.91207 0.42154 0.34636 0.0
H1395 H 0.89926 0.44861 0.35327 0.0
C1396 C 0.9584 0.44587 0.37694 0.0
C1397 C 0.95617 0.46411 0.38695 0.0
C1398 C 0.93853 0.43223 0.37305 0.0
C1399 C 0.91603 0.43668 0.379 0.0
C1400 C 0.91353 0.45546 0.3886 0.0
H1401 H 0.78864 0.35189 0.3578 0.0
H1402 H 0.81585 0.38564 0.36183 0.0
C1403 C 0.9334 0.46914 0.39249 0.0
C1404 C 0.89587 0.42003 0.37638 0.0
H1405 H 0.86336 0.39355 0.35052 0.0
C1406 C 0.88653 0.40722 0.3877 0.0
C1407 C 0.88689 0.41563 0.36286 0.0
C1408 C 0.89537 0.42973 0.35042 0.0
C1409 C 0.8692 0.38936 0.38579 0.0
C1410 C 0.86125 0.384 0.37219 0.0
C1411 C 0.86974 0.39754 0.36092 0.0
C1412 C 0.84494 0.36368 0.36945 0.0
C1413 C 0.85972 0.37617 0.39834 0.0
C1414 C 0.85249 0.34021 0.37219 0.0
C1415 C 0.83709 0.32093 0.36988 0.0
C1416 C 0.81382 0.32478 0.36476 0.0
C1417 C 0.80642 0.34833 0.36181 0.0
C1418 C 0.82192 0.36763 0.36408 0.0
H1419 H 0.86274 0.38642 0.40809 0.0
H1420 H 0.84026 0.3725 0.39725 0.0
H1421 H 0.86916 0.35876 0.3993 0.0
H1422 H 0.87035 0.3368 0.37613 0.0
H1423 H 0.84341 0.30303 0.3722 0.0
H1424 H 0.27409 0.79034 0.3763 0.0
H1425 H 0.29805 0.82157 0.3876 0.0
H1426 H 0.32667 0.84232 0.3477 0.0
H1427 H 0.30244 0.81189 0.33636 0.0
H1428 H 0.34541 0.82443 0.38855 0.0
H1429 H 0.31154 0.90664 0.36368 0.0
H1430 H 0.29577 0.87849 0.36254 0.0
H1431 H 0.31987 0.88522 0.35067 0.0
C1432 C 0.28513 0.8019 0.36992 0.0
C1433 C 0.28632 0.79865 0.35543 0.0
C1434 C 0.29883 0.8197 0.37639 0.0
C1435 C 0.31386 0.83457 0.36848 0.0
C1436 C 0.3147 0.83158 0.354 0.0
H1437 H 0.44969 0.89486 0.38596 0.0
H1438 H 0.41476 0.86962 0.38181 0.0
C1439 C 0.30094 0.81398 0.34753 0.0
C1440 C 0.3304 0.85173 0.3753 0.0
H1441 H 0.3523 0.90854 0.37248 0.0
C1442 C 0.34662 0.84296 0.38524 0.0
C1443 C 0.33171 0.87605 0.37124 0.0
C1444 C 0.31358 0.88718 0.36156 0.0
C1445 C 0.36505 0.85742 0.39052 0.0
C1446 C 0.36774 0.88104 0.38543 0.0
C1447 C 0.35056 0.89028 0.3762 0.0
C1448 C 0.38894 0.89597 0.3888 0.0
C1449 C 0.38156 0.8471 0.40141 0.0
C1450 C 0.38609 0.91945 0.39377 0.0
C1451 C 0.40606 0.93411 0.39589 0.0
C1452 C 0.42926 0.92553 0.39311 0.0
C1453 C 0.43209 0.90193 0.38832 0.0
C1454 C 0.41212 0.88739 0.38606 0.0
H1455 H 0.37231 0.8332 0.40769 0.0
H1456 H 0.39701 0.8384 0.39619 0.0
H1457 H 0.38842 0.86118 0.40852 0.0
H1458 H 0.36838 0.92651 0.39587 0.0
H1459 H 0.4033 0.95221 0.39961 0.0
H1460 H 0.95274 0.56282 0.08399 0.0
H1461 H 0.9205 0.58714 0.09358 0.0
H1462 H 0.93674 0.56116 0.13475 0.0
H1463 H 0.96957 0.53696 0.12525 0.0
H1464 H 0.88003 0.57499 0.10854 0.0
H1465 H 0.94053 0.63394 0.13928 0.0
H1466 H 0.95158 0.6136 0.12618 0.0
H1467 H 0.94262 0.60244 0.14291 0.0
C1468 C 0.94946 0.56214 0.09509 0.0
C1469 C 0.96388 0.5481 0.10388 0.0
C1470 C 0.93097 0.57604 0.10054 0.0
C1471 C 0.92646 0.57622 0.11489 0.0
C1472 C 0.94024 0.56162 0.12368 0.0
H1473 H 0.79975 0.6532 0.14617 0.0
H1474 H 0.82943 0.62164 0.14215 0.0
C1475 C 0.95889 0.54771 0.11822 0.0
C1476 C 0.90767 0.59231 0.12047 0.0
H1477 H 0.89935 0.64273 0.13999 0.0
C1478 C 0.88415 0.58966 0.11554 0.0
C1479 C 0.91323 0.61154 0.1295 0.0
C1480 C 0.93837 0.61578 0.13472 0.0
C1481 C 0.86615 0.60611 0.11908 0.0
C1482 C 0.87178 0.62547 0.12799 0.0
C1483 C 0.89512 0.62777 0.13322 0.0
C1484 C 0.85418 0.64457 0.13109 0.0
C1485 C 0.84157 0.60326 0.11276 0.0
C1486 C 0.85858 0.66801 0.12652 0.0
C1487 C 0.84176 0.68607 0.12883 0.0
C1488 C 0.82022 0.68104 0.13582 0.0
C1489 C 0.81609 0.65763 0.14067 0.0
C1490 C 0.83297 0.63955 0.13834 0.0
H1491 H 0.84153 0.59027 0.104 0.0
H1492 H 0.82898 0.59665 0.12082 0.0
H1493 H 0.83475 0.62073 0.1089 0.0
H1494 H 0.8749 0.67225 0.12094 0.0
H1495 H 0.84557 0.70392 0.12503 0.0
H1496 H 0.23226 0.1827 0.84433 0.0
H1497 H 0.20597 0.14956 0.85085 0.0
H1498 H 0.17816 0.19129 0.88498 0.0
H1499 H 0.20404 0.22474 0.87838 0.0
H1500 H 0.20034 0.12308 0.87521 0.0
H1501 H 0.1181 0.17482 0.86274 0.0
H1502 H 0.1476 0.18472 0.8577 0.0
H1503 H 0.13735 0.1889 0.87526 0.0
C1504 C 0.22071 0.18479 0.8533 0.0
C1505 C 0.22003 0.20647 0.86073 0.0
C1506 C 0.20571 0.16581 0.85701 0.0
C1507 C 0.18978 0.16818 0.86821 0.0
C1508 C 0.18993 0.18933 0.87609 0.0
H1509 H 0.07647 0.07709 0.90022 0.0
H1510 H 0.10683 0.10813 0.89694 0.0
C1511 C 0.20483 0.20836 0.87235 0.0
C1512 C 0.17244 0.14883 0.87129 0.0
H1513 H 0.11259 0.13652 0.8727 0.0
C1514 C 0.18115 0.12598 0.87467 0.0
C1515 C 0.14742 0.15269 0.8705 0.0
C1516 C 0.13699 0.17653 0.86623 0.0
C1517 C 0.16547 0.10691 0.87744 0.0
C1518 C 0.14049 0.11081 0.87664 0.0
C1519 C 0.13178 0.13367 0.87335 0.0
C1520 C 0.12296 0.09135 0.87895 0.0
C1521 C 0.17571 0.08285 0.88137 0.0
C1522 C 0.12192 0.07173 0.86986 0.0
C1523 C 0.10455 0.05398 0.87166 0.0
C1524 C 0.08786 0.05562 0.88258 0.0
C1525 C 0.08906 0.07528 0.89171 0.0
C1526 C 0.10639 0.09303 0.88987 0.0
H1527 H 0.19467 0.08427 0.88479 0.0
H1528 H 0.16508 0.07447 0.88983 0.0
H1529 H 0.17506 0.0708 0.8722 0.0
H1530 H 0.13429 0.07036 0.86121 0.0
H1531 H 0.10408 0.03911 0.86443 0.0
H1532 H 0.53551 0.46678 0.62993 0.0
H1533 H 0.56995 0.44519 0.63967 0.0
H1534 H 0.57866 0.40726 0.60091 0.0
H1535 H 0.54474 0.42877 0.5911 0.0
H1536 H 0.57441 0.39634 0.64314 0.0
H1537 H 0.64649 0.42977 0.6089 0.0
H1538 H 0.61777 0.44447 0.61027 0.0
H1539 H 0.62148 0.41893 0.59903 0.0
C1540 C 0.54496 0.45404 0.62345 0.0
C1541 C 0.53742 0.44952 0.60973 0.0
C1542 C 0.5646 0.44174 0.62902 0.0
C1543 C 0.5771 0.42495 0.62093 0.0
C1544 C 0.56966 0.42057 0.60723 0.0
H1545 H 0.65038 0.29617 0.63752 0.0
H1546 H 0.62218 0.32905 0.63433 0.0
C1547 C 0.5501 0.43277 0.60167 0.0
C1548 C 0.59688 0.41061 0.62691 0.0
H1549 H 0.65371 0.39159 0.62001 0.0
C1550 C 0.59192 0.39562 0.63826 0.0
C1551 C 0.61986 0.40999 0.62072 0.0
C1552 C 0.62681 0.42686 0.60915 0.0
C1553 C 0.60881 0.37887 0.64298 0.0
C1554 C 0.631 0.3768 0.63597 0.0
C1555 C 0.63655 0.39292 0.62525 0.0
C1556 C 0.64793 0.35697 0.63885 0.0
C1557 C 0.60254 0.36328 0.65526 0.0
C1558 C 0.67196 0.36174 0.64214 0.0
C1559 C 0.68825 0.34293 0.64381 0.0
C1560 C 0.6808 0.31903 0.64214 0.0
C1561 C 0.65668 0.31435 0.63896 0.0
C1562 C 0.64046 0.33314 0.63725 0.0
H1563 H 0.58938 0.37227 0.66219 0.0
H1564 H 0.59425 0.34644 0.65147 0.0
H1565 H 0.61869 0.35864 0.66144 0.0
H1566 H 0.67813 0.38002 0.64329 0.0
H1567 H 0.70671 0.34714 0.64625 0.0
H1568 H 0.24792 0.24109 0.19008 0.0
H1569 H 0.24329 0.23108 0.21467 0.0
H1570 H 0.25657 0.30469 0.2258 0.0
H1571 H 0.26129 0.31496 0.20118 0.0
H1572 H 0.28395 0.26881 0.24098 0.0
H1573 H 0.18619 0.25013 0.24035 0.0
H1574 H 0.20329 0.23524 0.22707 0.0
H1575 H 0.20093 0.26731 0.22693 0.0
C1576 C 0.24979 0.2552 0.19774 0.0
C1577 C 0.25493 0.27884 0.19368 0.0
C1578 C 0.24701 0.24945 0.21177 0.0
C1579 C 0.2493 0.26722 0.22199 0.0
C1580 C 0.2546 0.29079 0.21802 0.0
H1581 H 0.24927 0.25977 0.31264 0.0
H1582 H 0.25204 0.27334 0.28852 0.0
C1583 C 0.25726 0.2966 0.20396 0.0
C1584 C 0.2469 0.26094 0.23684 0.0
H1585 H 0.20738 0.23933 0.26081 0.0
C1586 C 0.26719 0.26254 0.24538 0.0
C1587 C 0.22501 0.25271 0.24246 0.0
C1588 C 0.20252 0.25139 0.23379 0.0
C1589 C 0.26636 0.25543 0.25937 0.0
C1590 C 0.24448 0.24704 0.26499 0.0
C1591 C 0.22412 0.24574 0.25646 0.0
C1592 C 0.24244 0.23906 0.27961 0.0
C1593 C 0.28908 0.25623 0.26787 0.0
C1594 C 0.23542 0.21549 0.2826 0.0
C1595 C 0.23358 0.20774 0.29637 0.0
C1596 C 0.2387 0.22345 0.3074 0.0
C1597 C 0.24542 0.24716 0.30437 0.0
C1598 C 0.24714 0.25492 0.2906 0.0
H1599 H 0.30527 0.25707 0.26117 0.0
H1600 H 0.2889 0.27246 0.27453 0.0
H1601 H 0.29052 0.24031 0.27474 0.0
H1602 H 0.23161 0.20301 0.27426 0.0
H1603 H 0.22831 0.18939 0.29834 0.0
H1604 H 0.98824 0.003 0.56089 0.0
H1605 H 0.97578 0.00782 0.53668 0.0
H1606 H 0.03984 0.97161 0.52302 0.0
H1607 H 0.05233 0.9664 0.54721 0.0
H1608 H -0.0001 0.03137 0.51519 0.0
H1609 H 0.98638 0.93513 0.50292 0.0
H1610 H 0.98909 0.94609 0.52052 0.0
H1611 H 0.01535 0.9421 0.50995 0.0
C1612 C -0.00034 0.99598 0.55275 0.0
C1613 C 0.02123 0.98421 0.55597 0.0
C1614 C 0.99251 0.99876 0.53893 0.0
C1615 C 0.00671 0.98974 0.5281 0.0
C1616 C 0.02838 0.97825 0.53126 0.0
H1617 H 0.99894 0.99268 0.43838 0.0
H1618 H 0.01021 0.98719 0.46274 0.0
C1619 C 0.03555 0.97541 0.54508 0.0
C1620 C 0.99913 0.99292 0.51349 0.0
H1621 H 0.98462 0.96229 0.48394 0.0
C1622 C 0.99642 0.01629 0.50836 0.0
C1623 C 0.99463 0.97318 0.50465 0.0
C1624 C 0.99628 0.9477 0.50979 0.0
C1625 C 0.98977 0.02046 0.49451 0.0
C1626 C 0.98539 0.00072 0.48566 0.0
C1627 C 0.98803 0.97736 0.49079 0.0
C1628 C 0.97829 0.00394 0.47097 0.0
C1629 C 0.98801 0.04593 0.48935 0.0
C1630 C 0.95644 0.01488 0.46759 0.0
C1631 C 0.94991 0.01805 0.45368 0.0
C1632 C 0.96511 0.01022 0.44294 0.0
C1633 C 0.98685 0.99896 0.4464 0.0
C1634 C 0.99333 0.99579 0.46031 0.0
H1635 H 0.9972 0.05869 0.49644 0.0
H1636 H 0.9959 0.04764 0.4788 0.0
H1637 H 0.96887 0.05116 0.48872 0.0
H1638 H 0.94441 0.02092 0.47571 0.0
H1639 H 0.93301 0.02669 0.45137 0.0
H1640 H 0.24948 0.75198 0.68958 0.0
H1641 H 0.2501 0.76117 0.71439 0.0
H1642 H 0.24654 0.68583 0.72398 0.0
H1643 H 0.2461 0.67635 0.69909 0.0
H1644 H 0.21415 0.74835 0.73397 0.0
H1645 H 0.30332 0.71063 0.74766 0.0
H1646 H 0.29472 0.71713 0.72995 0.0
H1647 H 0.28342 0.69086 0.73848 0.0
C1648 C 0.24903 0.7373 0.69693 0.0
C1649 C 0.24779 0.7134 0.69236 0.0
C1650 C 0.24935 0.74261 0.71111 0.0
C1651 C 0.24858 0.72417 0.72098 0.0
C1652 C 0.24752 0.70028 0.7165 0.0
H1653 H 0.2481 0.72827 0.81147 0.0
H1654 H 0.24687 0.71568 0.78711 0.0
C1655 C 0.24717 0.69492 0.70228 0.0
C1656 C 0.24799 0.73017 0.73595 0.0
H1657 H 0.27982 0.72566 0.76614 0.0
C1658 C 0.22849 0.7434 0.74102 0.0
C1659 C 0.26669 0.72356 0.74509 0.0
C1660 C 0.28835 0.70992 0.74006 0.0
C1661 C 0.22714 0.75019 0.75504 0.0
C1662 C 0.24604 0.74397 0.76414 0.0
C1663 C 0.26539 0.73043 0.75911 0.0
C1664 C 0.2463 0.7517 0.77886 0.0
C1665 C 0.20535 0.7637 0.76003 0.0
C1666 C 0.24659 0.77614 0.78225 0.0
C1667 C 0.24722 0.78342 0.79615 0.0
C1668 C 0.24778 0.76636 0.80689 0.0
C1669 C 0.24763 0.74187 0.80344 0.0
C1670 C 0.24696 0.73462 0.78954 0.0
H1671 H 0.18987 0.76122 0.7529 0.0
H1672 H 0.20003 0.75785 0.77062 0.0
H1673 H 0.20955 0.78311 0.76043 0.0
H1674 H 0.2466 0.7896 0.77414 0.0
H1675 H 0.24749 0.8024 0.79846 0.0
H1676 H 0.51142 0.00037 0.0559 0.0
H1677 H 0.52071 0.99314 0.0314 0.0
H1678 H 0.45344 0.02506 0.01949 0.0
H1679 H 0.44386 0.03224 0.04398 0.0
H1680 H 0.46362 0.97983 0.00678 0.0
H1681 H 0.5394 0.04384 0.00199 0.0
H1682 H 0.54159 0.02315 0.01625 0.0
H1683 H 0.51809 0.04513 0.0161 0.0
C1684 C 0.49864 0.00597 0.04808 0.0
C1685 C 0.47692 0.01694 0.05188 0.0
C1686 C 0.50403 0.00192 0.03409 0.0
C1687 C 0.48787 0.00883 0.02367 0.0
C1688 C 0.46617 0.01971 0.02741 0.0
H1689 H 0.48397 0.99625 0.93373 0.0
H1690 H 0.47438 0.00265 0.95826 0.0
C1691 C 0.46077 0.02382 0.0414 0.0
C1692 C 0.49333 0.00414 0.00888 0.0
H1693 H 0.53245 0.01804 0.98286 0.0
C1694 C 0.4786 0.98823 0.0015 0.0
C1695 C 0.51294 0.01509 0.00211 0.0
C1696 C 0.52884 0.03292 0.00945 0.0
C1697 C 0.48321 0.98265 0.98753 0.0
C1698 C 0.50278 0.99368 0.98073 0.0
C1699 C 0.51749 0.00959 0.98812 0.0
C1700 C 0.50825 0.98914 0.9659 0.0
C1701 C 0.46742 0.96462 0.98027 0.0
C1702 C 0.53064 0.97985 0.96207 0.0
C1703 C 0.53627 0.97638 0.94806 0.0
C1704 C 0.51961 0.98221 0.93763 0.0
C1705 C 0.49714 0.99142 0.94151 0.0
C1706 C 0.49157 0.99497 0.95553 0.0
H1707 H 0.45766 0.95314 0.98782 0.0
H1708 H 0.45393 0.97424 0.9739 0.0
H1709 H 0.47807 0.95294 0.97325 0.0
H1710 H 0.5438 0.97534 0.96993 0.0
H1711 H 0.55374 0.96927 0.94541 0.0
H1712 H 0.2736 0.70019 0.29341 0.0
H1713 H 0.26811 0.71026 0.26884 0.0
H1714 H 0.22884 0.77368 0.28046 0.0
H1715 H 0.23435 0.76393 0.30503 0.0
H1716 H 0.22377 0.71744 0.25427 0.0
H1717 H 0.28163 0.79841 0.25386 0.0
H1718 H 0.2829 0.7763 0.26755 0.0
H1719 H 0.25913 0.79798 0.26722 0.0
C1720 C 0.26385 0.71632 0.29075 0.0
C1721 C 0.25449 0.73132 0.30117 0.0
C1722 C 0.26071 0.72201 0.27671 0.0
C1723 C 0.24835 0.74285 0.27289 0.0
C1724 C 0.23879 0.75773 0.28324 0.0
H1725 H 0.21156 0.81097 0.19501 0.0
H1726 H 0.21606 0.79954 0.21942 0.0
C1727 C 0.24186 0.75205 0.29726 0.0
C1728 C 0.24512 0.74887 0.25805 0.0
H1729 H 0.25866 0.79099 0.23359 0.0
C1730 C 0.23147 0.73344 0.2497 0.0
C1731 C 0.25518 0.76979 0.2522 0.0
C1732 C 0.27071 0.78651 0.26061 0.0
C1733 C 0.22718 0.73865 0.23564 0.0
C1734 C 0.23722 0.7596 0.22979 0.0
C1735 C 0.25094 0.77498 0.23814 0.0
C1736 C 0.2338 0.76594 0.21499 0.0
C1737 C 0.2115 0.722 0.22728 0.0
C1738 C 0.24241 0.75086 0.20444 0.0
C1739 C 0.23982 0.75729 0.19049 0.0
C1740 C 0.22874 0.77903 0.18685 0.0
C1741 C 0.22015 0.7941 0.19746 0.0
C1742 C 0.22271 0.78762 0.2114 0.0
H1743 H 0.20026 0.7105 0.23408 0.0
H1744 H 0.1996 0.73221 0.22017 0.0
H1745 H 0.22299 0.71012 0.22087 0.0
H1746 H 0.25147 0.73429 0.20701 0.0
H1747 H 0.24675 0.74535 0.18257 0.0
H1748 H 0.43971 0.98802 0.4502 0.0
H1749 H 0.45173 0.99206 0.47458 0.0
H1750 H 0.52502 0.0028 0.46192 0.0
H1751 H 0.51325 0.99891 0.43754 0.0
H1752 H 0.48698 0.96334 0.48896 0.0
H1753 H 0.51028 0.06012 0.48811 0.0
H1754 H 0.49192 0.04627 0.47489 0.0
H1755 H 0.52384 0.04227 0.47468 0.0
C1756 C 0.45837 0.99136 0.45259 0.0
C1757 C 0.47552 0.99321 0.44193 0.0
C1758 C 0.46519 0.99363 0.46651 0.0
C1759 C 0.48918 0.99799 0.46999 0.0
C1760 C 0.50635 -0.00019 0.4594 0.0
H1761 H 0.56603 0.01765 0.54757 0.0
H1762 H 0.55444 0.0132 0.52316 0.0
C1763 C 0.49959 0.99746 0.44549 0.0
C1764 C 0.49642 -1e-05 0.48473 0.0
H1765 H 0.51992 0.03864 0.50859 0.0
C1766 C 0.49409 0.9798 0.4933 0.0
C1767 C 0.50579 0.02148 0.49027 0.0
C1768 C 0.50797 0.04387 0.48157 0.0
C1769 C 0.50126 0.98042 0.50728 0.0
C1770 C 0.51051 0.00197 0.51285 0.0
C1771 C 0.51286 0.02214 0.50426 0.0
C1772 C 0.51757 0.00407 0.52764 0.0
C1773 C 0.49935 0.95787 0.51585 0.0
C1774 C 0.50061 0.00061 0.53821 0.0
C1775 C 0.50718 0.00303 0.55215 0.0
C1776 C 0.5308 0.0092 0.55576 0.0
C1777 C 0.54772 0.01283 0.54514 0.0
C1778 C 0.54113 0.01032 0.53119 0.0
H1779 H 0.49833 0.94164 0.50919 0.0
H1780 H 0.51487 0.95603 0.52299 0.0
H1781 H 0.4828 0.95864 0.52222 0.0
H1782 H 0.48221 0.99632 0.53567 0.0
H1783 H 0.49366 0.00032 0.56007 0.0
H1784 H 0.24543 0.32019 0.80123 0.0
H1785 H 0.24777 0.31095 0.77636 0.0
H1786 H 0.25844 0.23627 0.78599 0.0
H1787 H 0.25561 0.2452 0.81078 0.0
H1788 H 0.28429 0.29075 0.76123 0.0
H1789 H 0.20326 0.23362 0.75864 0.0
H1790 H 0.20982 0.25249 0.7734 0.0
H1791 H 0.22422 0.22382 0.77159 0.0
C1792 C 0.24821 0.30179 0.79805 0.0
C1793 C 0.25016 0.2834 0.80797 0.0
C1794 C 0.24954 0.29656 0.78385 0.0
C1795 C 0.25281 0.27288 0.77935 0.0
C1796 C 0.25528 0.25458 0.78924 0.0
H1797 H 0.27728 0.19977 0.70192 0.0
H1798 H 0.27386 0.21242 0.7262 0.0
C1799 C 0.25381 0.25975 0.80341 0.0
C1800 C 0.25416 0.26727 0.76432 0.0
H1801 H 0.22944 0.2322 0.73902 0.0
C1802 C 0.27217 0.27814 0.75633 0.0
C1803 C 0.23823 0.25087 0.75797 0.0
C1804 C 0.21764 0.23971 0.76581 0.0
C1805 C 0.27515 0.27244 0.74222 0.0
C1806 C 0.25963 0.25558 0.736 0.0
C1807 C 0.24139 0.24501 0.74391 0.0
C1808 C 0.26221 0.24837 0.72131 0.0
C1809 C 0.29521 0.28397 0.73412 0.0
C1810 C 0.25664 0.26444 0.71059 0.0
C1811 C 0.25845 0.25726 0.6967 0.0
C1812 C 0.2659 0.23389 0.69335 0.0
C1813 C 0.27156 0.2179 0.70415 0.0
C1814 C 0.2696 0.22506 0.71802 0.0
H1815 H 0.30799 0.2936 0.74099 0.0
H1816 H 0.30518 0.27028 0.72806 0.0
H1817 H 0.28757 0.29703 0.72663 0.0
H1818 H 0.25065 0.28244 0.71297 0.0
H1819 H 0.25395 0.27 0.68862 0.0
H1820 H 0.07121 0.02357 0.94833 0.0
H1821 H 0.06534 0.01542 0.97308 0.0
H1822 H 0.99291 0.9926 0.96482 0.0
H1823 H 0.9988 0.00012 0.94002 0.0
H1824 H 0.03407 0.03493 0.99112 0.0
H1825 H 0.01821 0.93723 0.98756 0.0
H1826 H 0.02992 0.95449 0.97322 0.0
H1827 H 0.99825 0.95412 0.97672 0.0
C1828 C 0.05406 0.01672 0.95177 0.0
C1829 C 0.03551 0.01235 0.94221 0.0
C1830 C 0.05075 0.01206 0.96591 0.0
C1831 C 0.02885 0.00298 0.97075 0.0
C1832 C 0.01017 0.99899 0.96126 0.0
H1833 H 0.97171 0.01059 0.05368 0.0
H1834 H 0.98256 0.01633 0.02933 0.0
C1835 C 0.01351 0.00346 0.9471 0.0
C1836 C 0.02526 0.99852 0.98578 0.0
H1837 H 0.0079 0.95591 0.00914 0.0
C1838 C 0.02854 0.01761 0.99508 0.0
C1839 C 0.01847 0.97579 0.99095 0.0
C1840 C 0.01625 0.95418 0.98161 0.0
C1841 C 0.02449 0.01478 0.00938 0.0
C1842 C 0.01637 0.99242 0.01444 0.0
C1843 C 0.01384 0.97312 0.00521 0.0
C1844 C 0.00989 0.98884 0.02922 0.0
C1845 C 0.02913 0.03574 0.01893 0.0
C1846 C 0.02111 0.97092 0.03711 0.0
C1847 C 0.01472 0.96736 0.05102 0.0
C1848 C 0.99697 0.98166 0.05724 0.0
C1849 C 0.98561 -0.00058 0.04924 0.0
C1850 C 0.9919 0.00285 0.03534 0.0
H1851 H 0.04202 0.04859 0.01426 0.0
H1852 H 0.01208 0.04545 0.02077 0.0
H1853 H 0.03626 0.02971 0.02912 0.0
H1854 H 0.03493 0.9598 0.03254 0.0
H1855 H 0.02378 0.95352 0.0569 0.0
H1856 H 0.75102 0.73838 0.68965 0.0
H1857 H 0.75052 0.72718 0.71422 0.0
H1858 H 0.75086 0.80177 0.72583 0.0
H1859 H 0.7511 0.81322 0.70127 0.0
H1860 H 0.78448 0.73897 0.73482 0.0
H1861 H 0.69403 0.77401 0.74778 0.0
H1862 H 0.7039 0.76941 0.73009 0.0
H1863 H 0.71367 0.79529 0.73964 0.0
C1864 C 0.75087 0.75244 0.69741 0.0
C1865 C 0.751 0.77671 0.69351 0.0
C1866 C 0.75062 0.74598 0.71144 0.0
C1867 C 0.75035 0.76365 0.7218 0.0
C1868 C 0.75062 0.78788 0.71797 0.0
H1869 H 0.7499 0.76066 0.81181 0.0
H1870 H 0.75126 0.77201 0.78727 0.0
C1871 C 0.75088 0.79438 0.70393 0.0
C1872 C 0.75034 0.75665 0.73664 0.0
H1873 H 0.71778 0.76033 0.7666 0.0
C1874 C 0.76988 0.74354 0.74178 0.0
C1875 C 0.73125 0.76269 0.74564 0.0
C1876 C 0.7094 0.77594 0.74052 0.0
C1877 C 0.77103 0.73663 0.75579 0.0
C1878 C 0.75193 0.74267 0.76479 0.0
C1879 C 0.7324 0.75578 0.75965 0.0
C1880 C 0.75182 0.73558 0.77962 0.0
C1881 C 0.79287 0.72337 0.76091 0.0
C1882 C 0.75155 0.71132 0.78341 0.0
C1883 C 0.75081 0.70475 0.79742 0.0
C1884 C 0.75017 0.72235 0.80788 0.0
C1885 C 0.75042 0.74665 0.80402 0.0
C1886 C 0.75117 0.75318 0.79001 0.0
H1887 H 0.80828 0.72545 0.7537 0.0
H1888 H 0.79829 0.72978 0.77138 0.0
H1889 H 0.78865 0.70401 0.76169 0.0
H1890 H 0.75159 0.69747 0.77552 0.0
H1891 H 0.75051 0.68589 0.80005 0.0
H1892 H 0.76654 0.24934 0.19436 0.0
H1893 H 0.77576 0.25549 0.21897 0.0
H1894 H 0.70857 0.22276 0.2303 0.0
H1895 H 0.69939 0.2161 0.20575 0.0
H1896 H 0.75105 0.28141 0.23849 0.0
H1897 H 0.75609 0.18598 0.25414 0.0
H1898 H 0.75613 0.19532 0.23617 0.0
H1899 H 0.72846 0.19363 0.2457 0.0
C1900 C 0.75375 0.24338 0.20209 0.0
C1901 C 0.73228 0.23211 0.19811 0.0
C1902 C 0.75906 0.2469 0.21614 0.0
C1903 C 0.74305 0.23919 0.22645 0.0
C1904 C 0.72144 0.2283 0.22251 0.0
H1905 H 0.73029 0.25361 0.31512 0.0
H1906 H 0.72527 0.24544 0.29031 0.0
C1907 C 0.71616 0.22466 0.20847 0.0
C1908 C 0.7486 0.24323 0.24132 0.0
H1909 H 0.75493 0.2147 0.27251 0.0
C1910 C 0.75212 0.26683 0.24592 0.0
C1911 C 0.75005 0.22413 0.25095 0.0
C1912 C 0.74772 0.19832 0.24649 0.0
C1913 C 0.75636 0.2719 0.25999 0.0
C1914 C 0.75731 0.25285 0.26964 0.0
C1915 C 0.75411 0.22924 0.26504 0.0
C1916 C 0.76088 0.25716 0.28465 0.0
C1917 C 0.75913 0.29763 0.26452 0.0
C1918 C 0.78272 0.26609 0.28965 0.0
C1919 C 0.78569 0.27073 0.30383 0.0
C1920 C 0.76684 0.26651 0.31322 0.0
C1921 C 0.74513 0.25715 0.30816 0.0
C1922 C 0.74222 0.25244 0.29401 0.0
H1923 H 0.75358 0.31039 0.25626 0.0
H1924 H 0.74835 0.30118 0.27401 0.0
H1925 H 0.77819 0.30113 0.26708 0.0
H1926 H 0.79741 0.26955 0.28257 0.0
H1927 H 0.80266 0.27786 0.3074 0.0
H1928 H 0.72765 0.23012 0.80651 0.0
H1929 H 0.72225 0.23465 0.78143 0.0
H1930 H 0.79842 0.24399 0.77635 0.0
H1931 H 0.80409 0.23917 0.80143 0.0
H1932 H 0.7346 0.2736 0.76469 0.0
H1933 H 0.78234 0.19097 0.7483 0.0
H1934 H 0.77298 0.1961 0.76603 0.0
H1935 H 0.79938 0.2105 0.75937 0.0
C1936 C 0.74329 0.23308 0.80007 0.0
C1937 C 0.76633 0.23419 0.80596 0.0
C1938 C 0.74015 0.23567 0.78575 0.0
C1939 C 0.75996 0.23929 0.77704 0.0
C1940 C 0.78295 0.24071 0.78288 0.0
H1941 H 0.77506 0.26368 0.68845 0.0
H1942 H 0.78158 0.2581 0.7134 0.0
C1943 C 0.78613 0.23811 0.79722 0.0
C1944 C 0.75639 0.24215 0.76189 0.0
H1945 H 0.77012 0.21749 0.73038 0.0
C1946 C 0.74229 0.2613 0.75718 0.0
C1947 C 0.76648 0.22605 0.75215 0.0
C1948 C 0.78097 0.20461 0.75668 0.0
C1949 C 0.73823 0.26499 0.74295 0.0
C1950 C 0.74828 0.24887 0.73322 0.0
C1951 C 0.76247 0.22978 0.73791 0.0
C1952 C 0.74427 0.2516 0.71811 0.0
C1953 C 0.7236 0.28633 0.73842 0.0
C1954 C 0.72118 0.24935 0.71252 0.0
C1955 C 0.71737 0.2525 0.69828 0.0
C1956 C 0.73663 0.25789 0.68939 0.0
C1957 C 0.75983 0.25965 0.69502 0.0
C1958 C 0.76361 0.25644 0.70925 0.0
H1959 H 0.72196 0.29989 0.74682 0.0
H1960 H 0.73167 0.29497 0.72913 0.0
H1961 H 0.7053 0.28028 0.73559 0.0
H1962 H 0.7061 0.2452 0.71919 0.0
H1963 H 0.69931 0.2509 0.69427 0.0
H1964 H 0.75329 0.73244 0.3103 0.0
H1965 H 0.75878 0.72227 0.28574 0.0
H1966 H 0.70335 0.77238 0.27445 0.0
H1967 H 0.69771 0.78276 0.29895 0.0
H1968 H 0.72311 0.70508 0.26581 0.0
H1969 H 0.76349 0.79267 0.25141 0.0
H1970 H 0.76157 0.78243 0.26919 0.0
H1971 H 0.73551 0.79419 0.26063 0.0
C1972 C 0.74221 0.74127 0.3026 0.0
C1973 C 0.72516 0.75852 0.30656 0.0
C1974 C 0.74536 0.7354 0.2886 0.0
C1975 C 0.73167 0.74681 0.27834 0.0
C1976 C 0.7143 0.76365 0.28225 0.0
H1977 H 0.73011 0.74425 0.18847 0.0
H1978 H 0.72251 0.7517 0.21312 0.0
C1979 C 0.71105 0.76947 0.29625 0.0
C1980 C 0.73572 0.74127 0.2635 0.0
H1981 H 0.75538 0.76569 0.23306 0.0
C1982 C 0.73022 0.71825 0.25863 0.0
C1983 C 0.745 0.75858 0.25424 0.0
C1984 C 0.75195 0.78332 0.2591 0.0
C1985 C 0.73334 0.71218 0.24458 0.0
C1986 C 0.74265 0.72949 0.2353 0.0
C1987 C 0.74821 0.75249 0.24021 0.0
C1988 C 0.74675 0.72421 0.22041 0.0
C1989 C 0.72613 0.68751 0.23973 0.0
C1990 C 0.76303 0.70637 0.21637 0.0
C1991 C 0.76738 0.702 0.20229 0.0
C1992 C 0.75567 0.71556 0.19201 0.0
C1993 C 0.73942 0.73346 0.19612 0.0
C1994 C 0.73504 0.73776 0.21019 0.0
H1995 H 0.71366 0.67876 0.24717 0.0
H1996 H 0.71744 0.68827 0.22935 0.0
H1997 H 0.74235 0.67612 0.23887 0.0
H1998 H 0.77264 0.69607 0.22412 0.0
H1999 H 0.7801 0.68818 0.19947 0.0
H2000 H 0.4845 0.49994 0.05049 0.0
H2001 H 0.47336 0.50232 0.02593 0.0
H2002 H 0.53644 0.46204 0.01485 0.0
H2003 H 0.54767 0.45938 0.03938 0.0
H2004 H 0.50042 0.52258 0.00414 0.0
H2005 H 0.48158 0.42621 0.99498 0.0
H2006 H 0.48349 0.439 0.0122 0.0
H2007 H 0.51031 0.43224 0.00264 0.0
C2008 C 0.49596 0.49147 0.04285 0.0
C2009 C 0.51696 0.47941 0.04689 0.0
C2010 C 0.48956 0.49287 0.02883 0.0
C2011 C 0.50392 0.4821 0.01863 0.0
C2012 C 0.5249 0.47009 0.0226 0.0
H2013 H 0.50792 0.50978 0.93024 0.0
H2014 H 0.51627 0.50613 0.95511 0.0
C2015 C 0.53135 0.46871 0.03662 0.0
C2016 C 0.49738 0.48415 0.00377 0.0
H2017 H 0.4831 0.45129 0.975 0.0
C2018 C 0.49653 0.50702 0.99777 0.0
C2019 C 0.49206 0.46381 0.99557 0.0
C2020 C 0.49167 0.43892 0.00167 0.0
C2021 C 0.49098 0.51009 0.98365 0.0
C2022 C 0.48647 0.48969 0.97534 0.0
C2023 C 0.4868 0.46685 0.98141 0.0
C2024 C 0.48143 0.49171 0.96029 0.0
C2025 C 0.48977 0.53512 0.97778 0.0
C2026 C 0.45926 0.4843 0.95496 0.0
C2027 C 0.45443 0.48629 0.94075 0.0
C2028 C 0.47179 0.49556 0.93162 0.0
C2029 C 0.49412 0.50267 0.937 0.0
C2030 C 0.4989 0.50072 0.95121 0.0
H2031 H 0.4878 0.54878 0.98611 0.0
H2032 H 0.50656 0.53897 0.97203 0.0
H2033 H 0.47456 0.53692 0.97041 0.0
H2034 H 0.44562 0.47719 0.96182 0.0
H2035 H 0.4371 0.48058 0.93693 0.0
H2036 H 0.99339 0.48035 0.44014 0.0
H2037 H 0.98244 0.4861 0.46453 0.0
H2038 H 0.05261 0.51486 0.47302 0.0
H2039 H 0.06374 0.50934 0.4486 0.0
H2040 H 0.00529 0.46684 0.48855 0.0
H2041 H 0.00575 0.56639 0.48801 0.0
H2042 H 0.00485 0.54871 0.47228 0.0
H2043 H 0.03253 0.55237 0.48156 0.0
C2044 C 0.00652 0.48793 0.44718 0.0
C2045 C 0.02942 0.49449 0.44242 0.0
C2046 C 0.00022 0.49117 0.4611 0.0
C2047 C 0.01662 0.50117 0.47049 0.0
C2048 C 0.03959 0.50747 0.46585 0.0
H2049 H 0.00761 0.49997 0.56068 0.0
H2050 H 0.01986 0.49501 0.53643 0.0
C2051 C 0.04594 0.50419 0.45192 0.0
C2052 C 0.00972 0.50469 0.4852 0.0
H2053 H 0.00023 0.54762 0.50987 0.0
C2054 C 0.00418 0.48448 0.49323 0.0
C2055 C 0.00806 0.52777 0.49118 0.0
C2056 C 0.01291 0.55011 0.48282 0.0
C2057 C 0.99722 0.48671 0.50719 0.0
C2058 C 0.99606 0.50975 0.51326 0.0
C2059 C 0.00135 0.52999 0.50518 0.0
C2060 C 0.98895 0.51322 0.52793 0.0
C2061 C 0.99077 0.46447 0.51527 0.0
C2062 C 0.96781 0.5256 0.53114 0.0
C2063 C 0.96077 0.52852 0.54498 0.0
C2064 C 0.97486 0.51924 0.55584 0.0
C2065 C 0.99629 0.50723 0.55257 0.0
C2066 C 0.00327 0.50428 0.53872 0.0
H2067 H 0.98739 0.44894 0.50831 0.0
H2068 H 0.0058 0.45975 0.52231 0.0
H2069 H 0.9746 0.46756 0.52176 0.0
H2070 H 0.9566 0.53272 0.52292 0.0
H2071 H 0.94422 0.53793 0.54715 0.0
H2072 H 0.99787 0.48671 0.05708 0.0
H2073 H 0.98755 0.47897 0.03279 0.0
H2074 H 0.05226 0.51447 0.01958 0.0
H2075 H 0.06295 0.52201 0.04386 0.0
H2076 H 0.98025 0.51258 0.01191 0.0
H2077 H 0.05479 0.45098 -0.00163 0.0
H2078 H 0.04717 0.45829 0.01612 0.0
H2079 H 0.0642 0.47898 0.00576 0.0
C2080 C 0.01001 0.49275 0.04902 0.0
C2081 C 0.03129 0.50491 0.0524 0.0
C2082 C 0.00407 0.48831 0.03516 0.0
C2083 C 0.01931 0.49584 0.02443 0.0
C2084 C 0.04051 0.50806 0.02774 0.0
H2085 H 0.00988 0.49525 0.93458 0.0
H2086 H 0.02175 0.50042 0.95889 0.0
C2087 C 0.04651 0.51248 0.04161 0.0
C2088 C 0.01249 0.49173 0.00976 0.0
H2089 H 0.03039 0.46451 0.9797 0.0
C2090 C 0.99113 0.50196 0.00488 0.0
C2091 C 0.02679 0.47791 0.00064 0.0
C2092 C 0.04941 0.46571 0.00548 0.0
C2093 C 0.98383 0.49907 0.99103 0.0
C2094 C 0.99814 0.48528 0.98191 0.0
C2095 C 0.01951 0.47506 0.98676 0.0
C2096 C 0.99123 0.48142 0.96725 0.0
C2097 C 0.96115 0.51117 0.98618 0.0
C2098 C 0.97036 0.46865 0.96395 0.0
C2099 C 0.96351 0.46564 0.95009 0.0
C2100 C 0.97748 0.47531 0.9393 0.0
C2101 C 0.99867 0.48766 0.94265 0.0
C2102 C 0.00551 0.49062 0.95652 0.0
H2103 H 0.95528 0.52543 0.99349 0.0
H2104 H 0.96364 0.51919 0.97571 0.0
H2105 H 0.94661 0.49768 0.98546 0.0
H2106 H 0.95933 0.46109 0.97211 0.0
H2107 H 0.94717 0.45593 0.94786 0.0
H2108 H 0.4814 0.51133 0.439 0.0
H2109 H 0.47133 0.51043 0.46372 0.0
H2110 H 0.54392 0.49023 0.47357 0.0
H2111 H 0.5543 0.4913 0.44884 0.0
H2112 H 0.47524 0.47211 0.48288 0.0
H2113 H 0.53177 0.54983 0.49793 0.0
H2114 H 0.52407 0.54337 0.48008 0.0
H2115 H 0.54719 0.52654 0.48864 0.0
C2116 C 0.49525 0.50667 0.4464 0.0
C2117 C 0.51871 0.50152 0.44196 0.0
C2118 C 0.48944 0.50615 0.46052 0.0
C2119 C 0.50696 0.50062 0.47045 0.0
C2120 C 0.53026 0.49498 0.46606 0.0
H2121 H 0.50814 0.49024 0.56005 0.0
H2122 H 0.51764 0.49047 0.53526 0.0
C2123 C 0.53611 0.49547 0.45193 0.0
C2124 C 0.50076 0.50068 0.4854 0.0
H2125 H 0.51328 0.52827 0.51622 0.0
C2126 C 0.48347 0.48442 0.49018 0.0
C2127 C 0.51155 0.51681 0.49484 0.0
C2128 C 0.52953 0.53529 0.49014 0.0
C2129 C 0.47697 0.48356 0.50427 0.0
C2130 C 0.48778 0.49968 0.51372 0.0
C2131 C 0.50504 0.51596 0.50892 0.0
C2132 C 0.48175 0.49969 0.5287 0.0
C2133 C 0.45902 0.46506 0.50897 0.0
C2134 C 0.45847 0.50513 0.5332 0.0
C2135 C 0.45294 0.505 0.54739 0.0
C2136 C 0.47066 0.49956 0.55728 0.0
C2137 C 0.49405 0.49447 0.55271 0.0
C2138 C 0.49954 0.49459 0.53855 0.0
H2139 H 0.45683 0.4505 0.5012 0.0
H2140 H 0.46447 0.45701 0.51905 0.0
H2141 H 0.44134 0.47377 0.51045 0.0
H2142 H 0.44461 0.50956 0.52576 0.0
H2143 H 0.43479 0.50911 0.55058 0.0
H2144 H 0.31277 0.20379 0.3739 0.0
H2145 H 0.35022 0.18515 0.3816 0.0
H2146 H 0.35042 0.14059 0.34494 0.0
H2147 H 0.31343 0.15932 0.33707 0.0
H2148 H 0.35579 0.13827 0.38774 0.0
H2149 H 0.41929 0.16251 0.34598 0.0
H2150 H 0.39093 0.17759 0.34825 0.0
H2151 H 0.39245 0.14951 0.33906 0.0
C2152 C 0.321 0.19028 0.36738 0.0
C2153 C 0.3101 0.183 0.35488 0.0
C2154 C 0.34241 0.17969 0.37178 0.0
C2155 C 0.35334 0.16178 0.36373 0.0
C2156 C 0.34269 0.15482 0.35114 0.0
H2157 H 0.44429 0.04257 0.37092 0.0
H2158 H 0.41938 0.07639 0.36385 0.0
C2159 C 0.32137 0.16541 0.34672 0.0
C2160 C 0.37442 0.14853 0.36906 0.0
H2161 H 0.42947 0.12743 0.35957 0.0
C2162 C 0.37214 0.13632 0.38174 0.0
C2163 C 0.39573 0.14603 0.36121 0.0
C2164 C 0.39986 0.15983 0.34794 0.0
C2165 C 0.38994 0.12051 0.38638 0.0
C2166 C 0.41068 0.11707 0.37817 0.0
C2167 C 0.41349 0.13009 0.3658 0.0
C2168 C 0.4284 0.09832 0.38164 0.0
C2169 C 0.38584 0.10657 0.39962 0.0
C2170 C 0.44232 0.09985 0.39375 0.0
C2171 C 0.4566 0.08052 0.39785 0.0
C2172 C 0.45712 0.05937 0.38988 0.0
C2173 C 0.44416 0.0585 0.37735 0.0
C2174 C 0.42996 0.07784 0.37326 0.0
H2175 H 0.36727 0.10864 0.4036 0.0
H2176 H 0.38942 0.08722 0.39792 0.0
H2177 H 0.39837 0.11302 0.40776 0.0
H2178 H 0.44153 0.11567 0.40026 0.0
H2179 H 0.46647 0.08181 0.40752 0.0
H2180 H 0.10228 0.03614 0.59753 0.0
H2181 H 0.12374 0.07127 0.60578 0.0
H2182 H 0.0601 0.0959 0.62685 0.0
H2183 H 0.03854 0.06007 0.61896 0.0
H2184 H 0.11647 0.11828 0.60155 0.0
H2185 H 0.10868 0.09717 0.65795 0.0
H2186 H 0.10061 0.07593 0.64462 0.0
H2187 H 0.0809 0.10038 0.64872 0.0
C2188 C 0.09277 0.04899 0.60392 0.0
C2189 C 0.06874 0.04523 0.60768 0.0
C2190 C 0.10507 0.06913 0.6086 0.0
C2191 C 0.09363 0.0861 0.61706 0.0
C2192 C 0.06943 0.08279 0.62057 0.0
H2193 H 0.18474 0.21261 0.63428 0.0
H2194 H 0.14912 0.18983 0.62732 0.0
C2195 C 0.05711 0.06238 0.616 0.0
C2196 C 0.10762 0.10681 0.62229 0.0
H2197 H 0.13169 0.13064 0.65184 0.0
C2198 C 0.1196 0.12123 0.61255 0.0
C2199 C 0.11166 0.11054 0.63666 0.0
C2200 C 0.09997 0.09512 0.64762 0.0
C2201 C 0.13658 0.1383 0.61673 0.0
C2202 C 0.14113 0.14155 0.63108 0.0
C2203 C 0.12811 0.12813 0.64085 0.0
C2204 C 0.16143 0.15632 0.63612 0.0
C2205 C 0.15057 0.1515 0.60569 0.0
C2206 C 0.1797 0.14531 0.64383 0.0
C2207 C 0.19977 0.1583 0.64799 0.0
C2208 C 0.20211 0.1826 0.64446 0.0
C2209 C 0.18355 0.19384 0.63702 0.0
C2210 C 0.16325 0.18083 0.63299 0.0
H2211 H 0.14828 0.14333 0.59523 0.0
H2212 H 0.14421 0.1703 0.60513 0.0
H2213 H 0.16997 0.15173 0.60823 0.0
H2214 H 0.17871 0.12643 0.64637 0.0
H2215 H 0.2137 0.14908 0.65372 0.0
H2216 H 0.19813 0.80407 0.87634 0.0
H2217 H 0.16739 0.83328 0.88245 0.0
H2218 H 0.12884 0.81663 0.84482 0.0
H2219 H 0.15958 0.78718 0.83856 0.0
H2220 H 0.15797 0.87275 0.8624 0.0
H2221 H 0.07676 0.82053 0.8772 0.0
H2222 H 0.10657 0.80819 0.87878 0.0
H2223 H 0.09335 0.81177 0.86193 0.0
C2224 C 0.1829 0.80621 0.86947 0.0
C2225 C 0.18143 0.79346 0.85688 0.0
C2226 C 0.16535 0.8229 0.873 0.0
C2227 C 0.14592 0.82703 0.86409 0.0
C2228 C 0.14362 0.81347 0.85189 0.0
H2229 H 0.04314 0.94612 0.87262 0.0
H2230 H 0.06284 0.90988 0.86366 0.0
C2231 C 0.16124 0.79671 0.84832 0.0
C2232 C 0.12987 0.8475 0.86686 0.0
H2233 H 0.07418 0.86268 0.87861 0.0
C2234 C 0.13958 0.87058 0.86582 0.0
C2235 C 0.10586 0.84451 0.87115 0.0
C2236 C 0.09486 0.81996 0.87242 0.0
C2237 C 0.12612 0.8908 0.8694 0.0
C2238 C 0.10249 0.8878 0.87435 0.0
C2239 C 0.09236 0.86481 0.87484 0.0
C2240 C 0.08908 0.90825 0.88018 0.0
C2241 C 0.13745 0.91525 0.86814 0.0
C2242 C 0.09708 0.91886 0.89254 0.0
C2243 C 0.086 0.93941 0.89764 0.0
C2244 C 0.06664 0.94976 0.89049 0.0
C2245 C 0.05808 0.93861 0.87833 0.0
C2246 C 0.06924 0.91793 0.87322 0.0
H2247 H 0.15314 0.91504 0.86104 0.0
H2248 H 0.12428 0.92859 0.86427 0.0
H2249 H 0.14368 0.92118 0.87855 0.0
H2250 H 0.11226 0.91146 0.8981 0.0
H2251 H 0.09294 0.94739 0.90709 0.0
H2252 H 0.28694 0.85625 0.14862 0.0
H2253 H 0.3232 0.87679 0.14133 0.0
H2254 H 0.34685 0.8132 0.11983 0.0
H2255 H 0.30987 0.7926 0.12673 0.0
H2256 H 0.37011 0.86866 0.14563 0.0
H2257 H 0.34906 0.86228 0.08912 0.0
H2258 H 0.32762 0.85426 0.10234 0.0
H2259 H 0.35192 0.83437 0.09824 0.0
C2260 C 0.29983 0.84653 0.14237 0.0
C2261 C 0.2954 0.82288 0.13811 0.0
C2262 C 0.32064 0.8583 0.13826 0.0
C2263 C 0.33761 0.84666 0.12988 0.0
C2264 C 0.33375 0.82269 0.12604 0.0
H2265 H 0.46253 0.94031 0.11258 0.0
H2266 H 0.44101 0.90399 0.11972 0.0
C2267 C 0.31268 0.81093 0.13003 0.0
C2268 C 0.35857 0.86042 0.12481 0.0
H2269 H 0.382 0.88563 0.0955 0.0
C2270 C 0.37301 0.87213 0.13466 0.0
C2271 C 0.36224 0.86488 0.11048 0.0
C2272 C 0.34684 0.85347 0.0994 0.0
C2273 C 0.38988 0.88942 0.13064 0.0
C2274 C 0.39286 0.89457 0.11634 0.0
C2275 C 0.37963 0.88162 0.10645 0.0
C2276 C 0.4068 0.91556 0.11149 0.0
C2277 C 0.40308 0.90317 0.14178 0.0
C2278 C 0.39491 0.93372 0.10416 0.0
C2279 C 0.40715 0.95417 0.09992 0.0
C2280 C 0.43158 0.95702 0.10299 0.0
C2281 C 0.44365 0.9387 0.11019 0.0
C2282 C 0.43137 0.918 0.11431 0.0
H2283 H 0.39541 0.90004 0.15229 0.0
H2284 H 0.42209 0.8974 0.14196 0.0
H2285 H 0.40261 0.92269 0.1396 0.0
H2286 H 0.37595 0.93227 0.1019 0.0
H2287 H 0.39731 0.96793 0.09441 0.0
H2288 H 0.65982 0.78992 0.66317 0.0
H2289 H 0.62555 0.81475 0.65645 0.0
H2290 H 0.66026 0.83147 0.61757 0.0
H2291 H 0.69435 0.80665 0.6241 0.0
H2292 H 0.62935 0.86323 0.65144 0.0
H2293 H 0.59183 0.81797 0.60522 0.0
H2294 H 0.61139 0.80294 0.61738 0.0
H2295 H 0.62366 0.82163 0.60389 0.0
C2296 C 0.65992 0.79847 0.65306 0.0
C2297 C 0.67986 0.7964 0.64419 0.0
C2298 C 0.64033 0.81264 0.64925 0.0
C2299 C 0.64023 0.8247 0.63644 0.0
C2300 C 0.65971 0.8219 0.62737 0.0
H2301 H 0.59058 0.94328 0.59326 0.0
H2302 H 0.60665 0.90593 0.60239 0.0
C2303 C 0.6793 0.80785 0.63118 0.0
C2304 C 0.62136 0.84245 0.63316 0.0
H2305 H 0.58431 0.86064 0.60699 0.0
C2306 C 0.61899 0.86243 0.64191 0.0
C2307 C 0.60786 0.84129 0.62074 0.0
C2308 C 0.60862 0.81966 0.61134 0.0
C2309 C 0.60493 0.88216 0.63802 0.0
C2310 C 0.59268 0.88164 0.62515 0.0
C2311 C 0.59382 0.86101 0.61683 0.0
C2312 C 0.58129 0.90336 0.61933 0.0
C2313 C 0.60462 0.90404 0.64725 0.0
C2314 C 0.56142 0.91413 0.62574 0.0
C2315 C 0.55217 0.93567 0.62055 0.0
C2316 C 0.56268 0.94668 0.60889 0.0
C2317 C 0.58214 0.9354 0.60231 0.0
C2318 C 0.5913 0.91396 0.60747 0.0
H2319 H 0.61781 0.90277 0.65587 0.0
H2320 H 0.60858 0.92039 0.64108 0.0
H2321 H 0.58653 0.90617 0.65186 0.0
H2322 H 0.55327 0.90603 0.63481 0.0
H2323 H 0.53708 0.94386 0.62579 0.0
H2324 H 0.89629 0.95253 0.40529 0.0
H2325 H 0.87526 0.91782 0.39598 0.0
H2326 H 0.92938 0.90964 0.36435 0.0
H2327 H 0.95079 0.9446 0.37364 0.0
H2328 H 0.85914 0.91624 0.36684 0.0
H2329 H 0.91862 0.84057 0.38219 0.0
H2330 H 0.91882 0.86891 0.39128 0.0
H2331 H 0.93205 0.86662 0.37435 0.0
C2332 C 0.90393 0.94329 0.39643 0.0
C2333 C 0.92517 0.95142 0.39015 0.0
C2334 C 0.89188 0.92342 0.39115 0.0
C2335 C 0.90087 0.91117 0.37956 0.0
C2336 C 0.92235 0.91877 0.37342 0.0
H2337 H 0.81004 0.81731 0.33004 0.0
H2338 H 0.84222 0.84444 0.337 0.0
C2339 C 0.93447 0.93878 0.37869 0.0
C2340 C 0.88655 0.89163 0.3734 0.0
H2341 H 0.88319 0.83085 0.37001 0.0
C2342 C 0.86447 0.89758 0.36739 0.0
C2343 C 0.89359 0.86738 0.37429 0.0
C2344 C 0.917 0.86028 0.38092 0.0
C2345 C 0.84896 0.87984 0.36242 0.0
C2346 C 0.85588 0.85554 0.36336 0.0
C2347 C 0.8781 0.84954 0.36923 0.0
C2348 C 0.83946 0.83626 0.35892 0.0
C2349 C 0.82493 0.88716 0.3566 0.0
C2350 C 0.828 0.82203 0.36892 0.0
C2351 C 0.80956 0.80649 0.36499 0.0
C2352 C 0.80237 0.80499 0.351 0.0
C2353 C 0.81497 0.81821 0.34092 0.0
C2354 C 0.83338 0.83371 0.34486 0.0
H2355 H 0.82066 0.9062 0.35887 0.0
H2356 H 0.82504 0.88477 0.34514 0.0
H2357 H 0.81046 0.87574 0.36093 0.0
H2358 H 0.83251 0.8238 0.37983 0.0
H2359 H 0.8003 0.79646 0.373 0.0
H2360 H 0.79882 0.16309 0.1632 0.0
H2361 H 0.83124 0.13953 0.15312 0.0
H2362 H 0.83306 0.18649 0.11755 0.0
H2363 H 0.80041 0.21034 0.12757 0.0
H2364 H 0.82535 0.1178 0.12528 0.0
H2365 H 0.90554 0.17652 0.13048 0.0
H2366 H 0.87972 0.17946 0.1417 0.0
H2367 H 0.87821 0.18967 0.12405 0.0
C2368 C 0.80627 0.16867 0.15332 0.0
C2369 C 0.79692 0.18851 0.14613 0.0
C2370 C 0.82483 0.15519 0.1476 0.0
C2371 C 0.83455 0.16139 0.13466 0.0
C2372 C 0.82592 0.18164 0.12764 0.0
H2373 H 0.91216 0.06302 0.0812 0.0
H2374 H 0.88777 0.09623 0.08978 0.0
C2375 C 0.80723 0.19516 0.13335 0.0
C2376 C 0.85204 0.1452 0.12803 0.0
H2377 H 0.911 0.13921 0.11925 0.0
C2378 C 0.84405 0.1225 0.12388 0.0
C2379 C 0.87637 0.15146 0.12633 0.0
C2380 C 0.88568 0.17555 0.13091 0.0
C2381 C 0.85984 0.10573 0.11814 0.0
C2382 C 0.8842 0.11194 0.11642 0.0
C2383 C 0.89225 0.13467 0.12053 0.0
C2384 C 0.9015 0.09448 0.11079 0.0
C2385 C 0.85051 0.08127 0.11421 0.0
C2386 C 0.91778 0.0831 0.1197 0.0
C2387 C 0.93171 0.06403 0.11486 0.0
C2388 C 0.92955 0.05615 0.10102 0.0
C2389 C 0.91413 0.06851 0.09195 0.0
C2390 C 0.9002 0.08751 0.09681 0.0
H2391 H 0.83218 0.07803 0.11829 0.0
H2392 H 0.84995 0.07969 0.10271 0.0
H2393 H 0.8626 0.06705 0.11821 0.0
H2394 H 0.91894 0.08828 0.13054 0.0
H2395 H 0.94351 0.05497 0.12209 0.0
H2396 H 0.54345 0.04303 0.8668 0.0
H2397 H 0.56918 0.07541 0.85845 0.0
H2398 H 0.57683 0.10174 0.90038 0.0
H2399 H 0.55082 0.06966 0.90883 0.0
H2400 H 0.57269 0.13853 0.87956 0.0
H2401 H 0.64155 0.07006 0.86681 0.0
H2402 H 0.6129 0.06515 0.85881 0.0
H2403 H 0.61571 0.06349 0.87741 0.0
C2404 C 0.55028 0.05592 0.87423 0.0
C2405 C 0.5454 0.05355 0.88851 0.0
C2406 C 0.56501 0.07436 0.86944 0.0
C2407 C 0.57525 0.09061 0.87885 0.0
C2408 C 0.56918 0.08926 0.89298 0.0
H2409 H 0.68916 0.19637 0.87369 0.0
H2410 H 0.65426 0.17301 0.88108 0.0
C2411 C 0.55435 0.07088 0.89778 0.0
C2412 C 0.59383 0.10765 0.87415 0.0
H2413 H 0.65005 0.10989 0.86034 0.0
C2414 C 0.58962 0.13235 0.87535 0.0
C2415 C 0.61596 0.09943 0.86881 0.0
C2416 C 0.62199 0.0731 0.86798 0.0
C2417 C 0.60686 0.14911 0.87101 0.0
C2418 C 0.62886 0.14083 0.86554 0.0
C2419 C 0.63306 0.11615 0.86445 0.0
C2420 C 0.648 0.15725 0.86083 0.0
C2421 C 0.60128 0.17547 0.87208 0.0
C2422 C 0.656 0.15611 0.84703 0.0
C2423 C 0.67598 0.16921 0.84282 0.0
C2424 C 0.68844 0.18366 0.85237 0.0
C2425 C 0.67991 0.18544 0.86609 0.0
C2426 C 0.65989 0.17223 0.87031 0.0
H2427 H 0.58178 0.17876 0.8734 0.0
H2428 H 0.61069 0.18305 0.88124 0.0
H2429 H 0.6076 0.18517 0.86269 0.0
H2430 H 0.6471 0.14458 0.83958 0.0
H2431 H 0.68199 0.16753 0.83215 0.0
H2432 H 0.8021 0.69874 0.88069 0.0
H2433 H 0.83398 0.67276 0.88936 0.0
H2434 H 0.86704 0.67294 0.8488 0.0
H2435 H 0.83559 0.69941 0.84014 0.0
H2436 H 0.8404 0.62832 0.87931 0.0
H2437 H 0.92505 0.67926 0.87372 0.0
H2438 H 0.896 0.69345 0.87308 0.0
H2439 H 0.9077 0.67832 0.85802 0.0
C2440 C 0.81646 0.69371 0.87369 0.0
C2441 C 0.81623 0.701 0.8597 0.0
C2442 C 0.83467 0.67888 0.87867 0.0
C2443 C 0.85298 0.67103 0.86976 0.0
C2444 C 0.85341 0.67917 0.85595 0.0
H2445 H 0.9492 0.54956 0.87224 0.0
H2446 H 0.92728 0.58591 0.86569 0.0
C2447 C 0.83529 0.69419 0.85099 0.0
C2448 C 0.86967 0.65201 0.87441 0.0
H2449 H 0.92879 0.63695 0.87739 0.0
C2450 C 0.85972 0.63035 0.87904 0.0
C2451 C 0.89488 0.65459 0.87391 0.0
C2452 C 0.90656 0.67774 0.86954 0.0
C2453 C 0.87424 0.61107 0.88298 0.0
C2454 C 0.89939 0.61358 0.8824 0.0
C2455 C 0.90946 0.63518 0.87779 0.0
C2456 C 0.91527 0.59371 0.88659 0.0
C2457 C 0.86258 0.58795 0.88749 0.0
C2458 C 0.91624 0.58658 0.90054 0.0
C2459 C 0.92864 0.56588 0.90432 0.0
C2460 C 0.9403 0.55195 0.89418 0.0
C2461 C 0.9403 0.55984 0.88028 0.0
C2462 C 0.92787 0.58061 0.87652 0.0
H2463 H 0.84321 0.58744 0.88485 0.0
H2464 H 0.87155 0.57237 0.88255 0.0
H2465 H 0.86436 0.58601 0.89893 0.0
H2466 H 0.90674 0.59662 0.90846 0.0
H2467 H 0.92845 0.56044 0.91513 0.0
H2468 H 0.68363 0.70788 0.12787 0.0
H2469 H 0.64695 0.68834 0.11957 0.0
H2470 H 0.67125 0.62127 0.13681 0.0
H2471 H 0.70734 0.64066 0.14542 0.0
H2472 H 0.64122 0.65303 0.1014 0.0
H2473 H 0.60426 0.62329 0.1516 0.0
H2474 H 0.62824 0.64489 0.15049 0.0
H2475 H 0.63459 0.61323 0.14999 0.0
C2476 C 0.68102 0.68901 0.12997 0.0
C2477 C 0.6983 0.67584 0.13737 0.0
C2478 C 0.66005 0.6779 0.12526 0.0
C2479 C 0.65606 0.65348 0.12788 0.0
C2480 C 0.67351 0.6403 0.13508 0.0
H2481 H 0.59299 0.54264 0.08324 0.0
H2482 H 0.61455 0.57766 0.09149 0.0
C2483 C 0.69428 0.65139 0.13988 0.0
C2484 C 0.63457 0.64111 0.12237 0.0
H2485 H 0.59267 0.59953 0.13141 0.0
C2486 C 0.63024 0.64173 0.108 0.0
C2487 C 0.61971 0.62693 0.13099 0.0
C2488 C 0.62178 0.62729 0.14664 0.0
C2489 C 0.61282 0.62698 0.1019 0.0
C2490 C 0.59996 0.6107 0.11036 0.0
C2491 C 0.60285 0.61162 0.12485 0.0
C2492 C 0.58559 0.59087 0.10438 0.0
C2493 C 0.6088 0.62865 0.08641 0.0
C2494 C 0.56224 0.5862 0.10911 0.0
C2495 C 0.54996 0.56576 0.1046 0.0
C2496 C 0.56086 0.54968 0.09529 0.0
C2497 C 0.58399 0.55473 0.09034 0.0
C2498 C 0.59628 0.57495 0.09494 0.0
H2499 H 0.61206 0.64718 0.08264 0.0
H2500 H 0.62168 0.61672 0.08099 0.0
H2501 H 0.59032 0.62329 0.0835 0.0
H2502 H 0.55371 0.59811 0.1165 0.0
H2503 H 0.53214 0.56236 0.1086 0.0
H2504 H 0.68295 0.29959 0.37758 0.0
H2505 H 0.64661 0.32179 0.38389 0.0
H2506 H 0.64892 0.3589 0.3446 0.0
H2507 H 0.68507 0.33699 0.33821 0.0
H2508 H 0.64813 0.38833 0.36954 0.0
H2509 H 0.57587 0.31964 0.36857 0.0
H2510 H 0.60322 0.31205 0.37748 0.0
H2511 H 0.60349 0.31614 0.35898 0.0
C2512 C 0.6755 0.31221 0.3702 0.0
C2513 C 0.68699 0.31666 0.35743 0.0
C2514 C 0.65468 0.32476 0.37379 0.0
C2515 C 0.64506 0.34181 0.36465 0.0
C2516 C 0.65605 0.3457 0.35175 0.0
H2517 H 0.54396 0.45826 0.36903 0.0
H2518 H 0.57142 0.42689 0.36131 0.0
C2519 C 0.67675 0.33319 0.34814 0.0
C2520 C 0.62508 0.35746 0.36901 0.0
H2521 H 0.56519 0.35851 0.37622 0.0
C2522 C 0.62998 0.38184 0.37097 0.0
C2523 C 0.60156 0.3488 0.371 0.0
C2524 C 0.59551 0.32276 0.36884 0.0
C2525 C 0.61195 0.39791 0.37488 0.0
C2526 C 0.58823 0.38944 0.37652 0.0
C2527 C 0.58336 0.36495 0.3748 0.0
C2528 C 0.56849 0.40598 0.38017 0.0
C2529 C 0.61859 0.42375 0.37746 0.0
C2530 C 0.55666 0.4038 0.39298 0.0
C2531 C 0.54071 0.42158 0.39737 0.0
C2532 C 0.53648 0.44184 0.38902 0.0
C2533 C 0.54709 0.44305 0.37578 0.0
C2534 C 0.56284 0.42519 0.37136 0.0
H2535 H 0.6381 0.4259 0.37935 0.0
H2536 H 0.61384 0.43456 0.36818 0.0
H2537 H 0.60871 0.43109 0.38654 0.0
H2538 H 0.56069 0.389 0.39988 0.0
H2539 H 0.53275 0.42007 0.4076 0.0
H2540 H 0.95849 0.44406 0.62219 0.0
H2541 H 0.94068 0.40609 0.62969 0.0
H2542 H 0.89487 0.40637 0.59356 0.0
H2543 H 0.91278 0.44386 0.58588 0.0
H2544 H 0.89409 0.39964 0.63631 0.0
H2545 H 0.91783 0.33784 0.5936 0.0
H2546 H 0.93258 0.36632 0.59601 0.0
H2547 H 0.90423 0.36469 0.58711 0.0
C2548 C 0.94489 0.43582 0.61574 0.0
C2549 C 0.93701 0.44699 0.60345 0.0
C2550 C 0.93477 0.41413 0.62003 0.0
C2551 C 0.91675 0.40318 0.61206 0.0
C2552 C 0.90921 0.41412 0.59968 0.0
H2553 H 0.79877 0.31087 0.6196 0.0
H2554 H 0.83199 0.33656 0.6125 0.0
C2555 C 0.91932 0.43571 0.59537 0.0
C2556 C 0.90398 0.38176 0.61731 0.0
H2557 H 0.88323 0.32681 0.60741 0.0
C2558 C 0.89215 0.38348 0.63015 0.0
C2559 C 0.9015 0.36069 0.60925 0.0
C2560 C 0.91494 0.35716 0.5958 0.0
C2561 C 0.8767 0.36534 0.63475 0.0
C2562 C 0.87324 0.34486 0.62633 0.0
C2563 C 0.8859 0.3426 0.6138 0.0
C2564 C 0.8548 0.32684 0.62978 0.0
C2565 C 0.86314 0.3688 0.64818 0.0
C2566 C 0.857 0.31233 0.64161 0.0
C2567 C 0.83803 0.29759 0.64572 0.0
C2568 C 0.81656 0.29722 0.63805 0.0
C2569 C 0.81497 0.31086 0.62579 0.0
C2570 C 0.83396 0.3255 0.62169 0.0
H2571 H 0.86525 0.3872 0.65242 0.0
H2572 H 0.84376 0.36523 0.64661 0.0
H2573 H 0.86986 0.35593 0.65606 0.0
H2574 H 0.8731 0.31297 0.6479 0.0
H2575 H 0.83987 0.2872 0.65517 0.0
H2576 H 0.09384 0.4438 0.08891 0.0
H2577 H 0.11389 0.40868 0.09838 0.0
H2578 H 0.064 0.40703 0.13259 0.0
H2579 H 0.04357 0.44248 0.12314 0.0
H2580 H 0.1332 0.40967 0.12755 0.0
H2581 H 0.06928 0.33538 0.11633 0.0
H2582 H 0.06977 0.3624 0.10598 0.0
H2583 H 0.05812 0.3632 0.12334 0.0
C2584 C 0.08689 0.43592 0.09838 0.0
C2585 C 0.06719 0.44605 0.10533 0.0
C2586 C 0.09837 0.41579 0.10374 0.0
C2587 C 0.09032 0.40528 0.11611 0.0
C2588 C 0.07026 0.41482 0.12293 0.0
H2589 H 0.16686 0.29149 0.16076 0.0
H2590 H 0.13505 0.31925 0.15371 0.0
C2591 C 0.05871 0.43509 0.11756 0.0
C2592 C 0.10444 0.38565 0.1223 0.0
H2593 H 0.10655 0.3249 0.12623 0.0
C2594 C 0.12729 0.39116 0.12741 0.0
C2595 C 0.09652 0.36163 0.12215 0.0
C2596 C 0.07211 0.35507 0.11664 0.0
C2597 C 0.1428 0.37314 0.13201 0.0
C2598 C 0.13537 0.34899 0.13125 0.0
C2599 C 0.11214 0.34347 0.12669 0.0
C2600 C 0.15226 0.32943 0.13446 0.0
C2601 C 0.16725 0.38002 0.1374 0.0
C2602 C 0.17191 0.32544 0.12569 0.0
C2603 C 0.19007 0.30972 0.12966 0.0
C2604 C 0.18887 0.2977 0.14249 0.0
C2605 C 0.16836 0.30056 0.15084 0.0
C2606 C 0.15016 0.31636 0.14684 0.0
H2607 H 0.16817 0.39929 0.14023 0.0
H2608 H 0.17206 0.36914 0.14665 0.0
H2609 H 0.18081 0.37655 0.1292 0.0
H2610 H 0.17367 0.33529 0.11604 0.0
H2611 H 0.2055 0.30778 0.12293 0.0
H2612 H 0.47913 0.41275 0.89616 0.0
H2613 H 0.45353 0.37757 0.89298 0.0
H2614 H 0.40989 0.41711 0.86393 0.0
H2615 H 0.43553 0.45197 0.86678 0.0
H2616 H 0.40737 0.37579 0.90001 0.0
H2617 H 0.41484 0.35392 0.84428 0.0
H2618 H 0.4361 0.37313 0.85299 0.0
H2619 H 0.40832 0.38512 0.84644 0.0
C2620 C 0.46444 0.41374 0.88882 0.0
C2621 C 0.45931 0.43521 0.88177 0.0
C2622 C 0.44981 0.39363 0.88704 0.0
C2623 C 0.42995 0.39459 0.8781 0.0
C2624 C 0.42544 0.4157 0.87062 0.0
H2625 H 0.28956 0.34316 0.8836 0.0
H2626 H 0.329 0.36079 0.88709 0.0
C2627 C 0.44004 0.43573 0.87236 0.0
C2628 C 0.41221 0.37486 0.87776 0.0
H2629 H 0.37717 0.34291 0.85541 0.0
C2630 C 0.40113 0.36817 0.89028 0.0
C2631 C 0.40434 0.3645 0.86514 0.0
C2632 C 0.41675 0.36936 0.85149 0.0
C2633 C 0.38123 0.35283 0.89039 0.0
C2634 C 0.37185 0.34447 0.87761 0.0
C2635 C 0.38407 0.34966 0.8652 0.0
C2636 C 0.34831 0.33228 0.87671 0.0
C2637 C 0.37018 0.34621 0.90418 0.0
C2638 C 0.34593 0.31051 0.86954 0.0
C2639 C 0.32327 0.30053 0.86734 0.0
C2640 C 0.30259 0.3122 0.87225 0.0
C2641 C 0.30511 0.33362 0.87977 0.0
C2642 C 0.32771 0.34365 0.88188 0.0
H2643 H 0.38384 0.34619 0.91259 0.0
H2644 H 0.35639 0.3597 0.90696 0.0
H2645 H 0.36157 0.3283 0.90378 0.0
H2646 H 0.36156 0.30152 0.86538 0.0
H2647 H 0.32193 0.28399 0.8615 0.0
H2648 H 0.46842 0.58506 0.59036 0.0
H2649 H 0.44219 0.61903 0.5956 0.0
H2650 H 0.41492 0.58162 0.6315 0.0
H2651 H 0.4411 0.54779 0.62644 0.0
H2652 H 0.39317 0.61464 0.59559 0.0
H2653 H 0.42347 0.64937 0.64647 0.0
H2654 H 0.44218 0.63076 0.63558 0.0
H2655 H 0.41992 0.61745 0.64671 0.0
C2656 C 0.45728 0.58431 0.59957 0.0
C2657 C 0.45673 0.56365 0.60794 0.0
C2658 C 0.4423 0.60374 0.60254 0.0
C2659 C 0.4268 0.60295 0.61402 0.0
C2660 C 0.4271 0.58284 0.62276 0.0
H2661 H 0.28605 0.64234 0.63029 0.0
H2662 H 0.32453 0.62609 0.6229 0.0
C2663 C 0.44195 0.5634 0.61978 0.0
C2664 C 0.40807 0.62144 0.6159 0.0
H2665 H 0.38182 0.6567 0.64057 0.0
C2666 C 0.391 0.62429 0.60531 0.0
C2667 C 0.40537 0.63423 0.6285 0.0
C2668 C 0.42387 0.633 0.6399 0.0
C2669 C 0.37038 0.63817 0.60738 0.0
C2670 C 0.3667 0.64926 0.62042 0.0
C2671 C 0.3846 0.64793 0.63063 0.0
C2672 C 0.34333 0.65989 0.62416 0.0
C2673 C 0.35225 0.64011 0.59581 0.0
C2674 C 0.34124 0.68429 0.62743 0.0
C2675 C 0.31914 0.69371 0.63163 0.0
C2676 C 0.29897 0.67875 0.63283 0.0
C2677 C 0.30121 0.65436 0.62947 0.0
C2678 C 0.32316 0.64505 0.62517 0.0
H2679 H 0.36057 0.63678 0.58549 0.0
H2680 H 0.33804 0.6265 0.59741 0.0
H2681 H 0.34369 0.65807 0.59572 0.0
H2682 H 0.3567 0.69595 0.6268 0.0
H2683 H 0.31799 0.71256 0.63422 0.0
H2684 H 0.0395 0.55816 0.38645 0.0
H2685 H 0.0578 0.59679 0.38043 0.0
H2686 H 0.12731 0.56315 0.37903 0.0
H2687 H 0.10942 0.52489 0.38523 0.0
H2688 H 0.12646 0.60545 0.39442 0.0
H2689 H 0.08442 0.61702 0.34229 0.0
H2690 H 0.06473 0.61237 0.35685 0.0
H2691 H 0.08423 0.58868 0.3513 0.0
C2692 C 0.05866 0.55903 0.38478 0.0
C2693 C 0.07301 0.53847 0.38631 0.0
C2694 C 0.06906 0.58107 0.38131 0.0
C2695 C 0.09388 0.58276 0.37922 0.0
C2696 C 0.10812 0.56224 0.38066 0.0
H2697 H 0.195 0.66062 0.33578 0.0
H2698 H 0.16201 0.63655 0.34455 0.0
C2699 C 0.09783 0.54035 0.38417 0.0
C2700 C 0.10557 0.60573 0.37562 0.0
H2701 H 0.1139 0.64476 0.34876 0.0
C2702 C 0.12347 0.61438 0.38455 0.0
C2703 C 0.10153 0.61723 0.36274 0.0
C2704 C 0.08281 0.60838 0.35265 0.0
C2705 C 0.13856 0.63324 0.38057 0.0
C2706 C 0.13522 0.64409 0.36741 0.0
C2707 C 0.11631 0.63644 0.35886 0.0
C2708 C 0.15332 0.66057 0.36149 0.0
C2709 C 0.15897 0.64018 0.39005 0.0
C2710 C 0.15907 0.68243 0.36791 0.0
C2711 C 0.17823 0.69621 0.36298 0.0
C2712 C 0.19174 0.6884 0.35149 0.0
C2713 C 0.18511 0.6671 0.34471 0.0
C2714 C 0.16614 0.65335 0.34967 0.0
H2715 H 0.16134 0.6273 0.39875 0.0
H2716 H 0.17603 0.64122 0.38415 0.0
H2717 H 0.15536 0.65809 0.39459 0.0
H2718 H 0.1491 0.68854 0.3769 0.0
H2719 H 0.18277 0.71266 0.36834 0.0
loop_
_geom_bond_atom_site_label_1
_geom_bond_atom_site_label_2
_geom_bond_distance
_geom_bond_site_symmetry_2
_ccdc_geom_bond_type
C0 O1 1.160 . S
C0 O7 1.185 . S
O1 C0 1.160 . S
O2 Zn3 1.899 . S
O2 C10 1.284 . S
Zn3 O2 1.899 . S
Zn3 O4 2.032 . S
Zn3 O7 2.086 . S
Zn3 O12 1.977 . S
O4 Zn3 2.032 . S
O4 C8 1.278 . S
C5 O6 1.203 . S
C5 O12 1.267 . S
O6 C5 1.203 . S
O7 C0 1.185 . S
O7 Zn3 2.086 . S
C8 O4 1.278 . S
C8 O9 1.211 . S
O9 C8 1.211 . S
C10 O2 1.284 . S
C10 O11 1.273 . S
O11 C10 1.273 . S
O12 Zn3 1.977 . S
O12 C5 1.267 . S
C13 O14 1.160 . S
C13 O20 1.185 . S
O14 C13 1.160 . S
O15 Zn16 1.899 . S
O15 C23 1.284 . S
Zn16 O15 1.899 . S
Zn16 O17 2.032 . S
Zn16 O20 2.086 1_565 S
Zn16 O25 1.977 . S
O17 Zn16 2.032 . S
O17 C21 1.278 . S
C18 O19 1.203 . S
C18 O25 1.267 1_655 S
O19 C18 1.203 . S
O20 C13 1.185 . S
O20 Zn16 2.086 1_545 S
C21 O17 1.278 . S
C21 O22 1.211 . S
O22 C21 1.211 . S
C23 O15 1.284 . S
C23 O24 1.273 . S
O24 C23 1.273 . S
O25 Zn16 1.977 . S
O25 C18 1.267 1_455 S
C26 O27 1.160 . S
C26 O33 1.185 . S
O27 C26 1.160 . S
O28 Zn29 1.899 . S
O28 C36 1.284 . S
Zn29 O28 1.899 . S
Zn29 O30 2.032 . S
Zn29 O33 2.086 . S
Zn29 O38 1.977 . S
O30 Zn29 2.032 . S
O30 C34 1.278 . S
C31 O32 1.203 . S
C31 O38 1.267 . S
O32 C31 1.203 . S
O33 C26 1.185 . S
O33 Zn29 2.086 . S
C34 O30 1.278 . S
C34 O35 1.211 . S
O35 C34 1.211 . S
C36 O28 1.284 . S
C36 O37 1.273 . S
O37 C36 1.273 . S
O38 Zn29 1.977 . S
O38 C31 1.267 . S
C39 O40 1.160 . S
C39 O46 1.185 . S
O40 C39 1.160 . S
O41 Zn42 1.899 . S
O41 C49 1.284 . S
Zn42 O41 1.899 . S
Zn42 O43 2.032 . S
Zn42 O46 2.086 1_545 S
Zn42 O51 1.977 . S
O43 Zn42 2.032 . S
O43 C47 1.278 . S
C44 O45 1.203 . S
C44 O51 1.267 . S
O45 C44 1.203 . S
O46 C39 1.185 . S
O46 Zn42 2.086 1_565 S
C47 O43 1.278 . S
C47 O48 1.211 . S
O48 C47 1.211 . S
C49 O41 1.284 . S
C49 O50 1.273 . S
O50 C49 1.273 . S
O51 Zn42 1.977 . S
O51 C44 1.267 . S
C52 O53 1.160 . S
C52 O59 1.185 . S
O53 C52 1.160 . S
O54 Zn55 1.899 . S
O54 C62 1.284 . S
Zn55 O54 1.899 . S
Zn55 O56 2.032 . S
Zn55 O59 2.086 . S
Zn55 O64 1.977 . S
O56 Zn55 2.032 . S
O56 C60 1.278 . S
C57 O58 1.203 . S
C57 O64 1.267 . S
O58 C57 1.203 . S
O59 C52 1.185 . S
O59 Zn55 2.086 . S
C60 O56 1.278 . S
C60 O61 1.211 . S
O61 C60 1.211 . S
C62 O54 1.284 . S
C62 O63 1.273 . S
O63 C62 1.273 . S
O64 Zn55 1.977 . S
O64 C57 1.267 . S
C65 O66 1.160 . S
C65 O72 1.185 . S
O66 C65 1.160 . S
O67 Zn68 1.899 . S
O67 C75 1.284 . S
Zn68 O67 1.899 . S
Zn68 O69 2.032 . S
Zn68 O72 2.086 1_565 S
Zn68 O77 1.977 . S
O69 Zn68 2.032 . S
O69 C73 1.278 . S
C70 O71 1.203 . S
C70 O77 1.267 . S
O71 C70 1.203 . S
O72 C65 1.185 . S
O72 Zn68 2.086 1_545 S
C73 O69 1.278 . S
C73 O74 1.211 . S
O74 C73 1.211 . S
C75 O67 1.284 . S
C75 O76 1.273 . S
O76 C75 1.273 . S
O77 Zn68 1.977 . S
O77 C70 1.267 . S
C78 O79 1.160 . S
C78 O85 1.185 . S
O79 C78 1.160 . S
O80 Zn81 1.899 . S
O80 C88 1.284 . S
Zn81 O80 1.899 . S
Zn81 O82 2.032 . S
Zn81 O85 2.086 . S
Zn81 O90 1.977 . S
O82 Zn81 2.032 . S
O82 C86 1.278 . S
C83 O84 1.203 . S
C83 O90 1.267 . S
O84 C83 1.203 . S
O85 C78 1.185 . S
O85 Zn81 2.086 . S
C86 O82 1.278 . S
C86 O87 1.211 . S
O87 C86 1.211 . S
C88 O80 1.284 . S
C88 O89 1.273 . S
O89 C88 1.273 . S
O90 Zn81 1.977 . S
O90 C83 1.267 . S
C91 O92 1.160 . S
C91 O98 1.185 . S
O92 C91 1.160 . S
O93 Zn94 1.899 . S
O93 C101 1.284 . S
Zn94 O93 1.899 . S
Zn94 O95 2.032 . S
Zn94 O98 2.086 1_545 S
Zn94 O103 1.977 . S
O95 Zn94 2.032 . S
O95 C99 1.278 . S
C96 O97 1.203 . S
C96 O103 1.267 1_655 S
O97 C96 1.203 . S
O98 C91 1.185 . S
O98 Zn94 2.086 1_565 S
C99 O95 1.278 . S
C99 O100 1.211 . S
O100 C99 1.211 . S
C101 O93 1.284 . S
C101 O102 1.273 . S
O102 C101 1.273 . S
O103 Zn94 1.977 . S
O103 C96 1.267 1_455 S
C104 O105 1.160 . S
C104 O111 1.185 . S
O105 C104 1.160 . S
O106 Zn107 1.899 . S
O106 C114 1.284 . S
Zn107 O106 1.899 . S
Zn107 O108 2.032 . S
Zn107 O111 2.086 . S
Zn107 O116 1.977 . S
O108 Zn107 2.032 . S
O108 C112 1.278 . S
C109 O110 1.203 . S
C109 O116 1.267 . S
O110 C109 1.203 . S
O111 C104 1.185 . S
O111 Zn107 2.086 . S
C112 O108 1.278 . S
C112 O113 1.211 . S
O113 C112 1.211 . S
C114 O106 1.284 . S
C114 O115 1.273 . S
O115 C114 1.273 . S
O116 Zn107 1.977 . S
O116 C109 1.267 . S
C117 O118 1.160 . S
C117 O124 1.185 . S
O118 C117 1.160 . S
O119 Zn120 1.899 . S
O119 C127 1.284 . S
Zn120 O119 1.899 . S
Zn120 O121 2.032 . S
Zn120 O124 2.086 1_545 S
Zn120 O129 1.977 . S
O121 Zn120 2.032 . S
O121 C125 1.278 . S
C122 O123 1.203 . S
C122 O129 1.267 1_455 S
O123 C122 1.203 . S
O124 C117 1.185 . S
O124 Zn120 2.086 1_565 S
C125 O121 1.278 . S
C125 O126 1.211 . S
O126 C125 1.211 . S
C127 O119 1.284 . S
C127 O128 1.273 . S
O128 C127 1.273 . S
O129 Zn120 1.977 . S
O129 C122 1.267 1_655 S
C130 O131 1.160 . S
C130 O137 1.185 . S
O131 C130 1.160 . S
O132 Zn133 1.899 . S
O132 C140 1.284 . S
Zn133 O132 1.899 . S
Zn133 O134 2.032 . S
Zn133 O137 2.086 . S
Zn133 O142 1.977 . S
O134 Zn133 2.032 . S
O134 C138 1.278 . S
C135 O136 1.203 . S
C135 O142 1.267 . S
O136 C135 1.203 . S
O137 C130 1.185 . S
O137 Zn133 2.086 . S
C138 O134 1.278 . S
C138 O139 1.211 . S
O139 C138 1.211 . S
C140 O132 1.284 . S
C140 O141 1.273 . S
O141 C140 1.273 . S
O142 Zn133 1.977 . S
O142 C135 1.267 . S
C143 O144 1.160 . S
C143 O150 1.185 . S
O144 C143 1.160 . S
O145 Zn146 1.899 . S
O145 C153 1.284 . S
Zn146 O145 1.899 . S
Zn146 O147 2.032 . S
Zn146 O150 2.086 1_565 S
Zn146 O155 1.977 . S
O147 Zn146 2.032 . S
O147 C151 1.278 . S
C148 O149 1.203 . S
C148 O155 1.267 . S
O149 C148 1.203 . S
O150 C143 1.185 . S
O150 Zn146 2.086 1_545 S
C151 O147 1.278 . S
C151 O152 1.211 . S
O152 C151 1.211 . S
C153 O145 1.284 . S
C153 O154 1.273 . S
O154 C153 1.273 . S
O155 Zn146 1.977 . S
O155 C148 1.267 . S
C156 O157 1.160 . S
C156 O163 1.185 . S
O157 C156 1.160 . S
O158 Zn159 1.899 . S
O158 C166 1.284 . S
Zn159 O158 1.899 . S
Zn159 O160 2.032 . S
Zn159 O163 2.086 . S
Zn159 O168 1.977 . S
O160 Zn159 2.032 . S
O160 C164 1.278 . S
C161 O162 1.203 . S
C161 O168 1.267 . S
O162 C161 1.203 . S
O163 C156 1.185 . S
O163 Zn159 2.086 . S
C164 O160 1.278 . S
C164 O165 1.211 . S
O165 C164 1.211 . S
C166 O158 1.284 . S
C166 O167 1.273 . S
O167 C166 1.273 . S
O168 Zn159 1.977 . S
O168 C161 1.267 . S
C169 O170 1.160 . S
C169 O176 1.185 . S
O170 C169 1.160 . S
O171 Zn172 1.899 . S
O171 C179 1.284 . S
Zn172 O171 1.899 . S
Zn172 O173 2.032 . S
Zn172 O176 2.086 1_545 S
Zn172 O181 1.977 . S
O173 Zn172 2.032 . S
O173 C177 1.278 . S
C174 O175 1.203 . S
C174 O181 1.267 . S
O175 C174 1.203 . S
O176 C169 1.185 . S
O176 Zn172 2.086 1_565 S
C177 O173 1.278 . S
C177 O178 1.211 . S
O178 C177 1.211 . S
C179 O171 1.284 . S
C179 O180 1.273 . S
O180 C179 1.273 . S
O181 Zn172 1.977 . S
O181 C174 1.267 . S
C182 O183 1.160 . S
C182 O189 1.185 . S
O183 C182 1.160 . S
O184 Zn185 1.899 . S
O184 C192 1.284 . S
Zn185 O184 1.899 . S
Zn185 O186 2.032 . S
Zn185 O189 2.086 . S
Zn185 O194 1.977 . S
O186 Zn185 2.032 . S
O186 C190 1.278 . S
C187 O188 1.203 . S
C187 O194 1.267 . S
O188 C187 1.203 . S
O189 C182 1.185 . S
O189 Zn185 2.086 . S
C190 O186 1.278 . S
C190 O191 1.211 . S
O191 C190 1.211 . S
C192 O184 1.284 . S
C192 O193 1.273 . S
O193 C192 1.273 . S
O194 Zn185 1.977 . S
O194 C187 1.267 . S
C195 O196 1.160 . S
C195 O202 1.185 . S
O196 C195 1.160 . S
O197 Zn198 1.899 . S
O197 C205 1.284 . S
Zn198 O197 1.899 . S
Zn198 O199 2.032 . S
Zn198 O202 2.086 1_565 S
Zn198 O207 1.977 . S
O199 Zn198 2.032 . S
O199 C203 1.278 . S
C200 O201 1.203 . S
C200 O207 1.267 1_455 S
O201 C200 1.203 . S
O202 C195 1.185 . S
O202 Zn198 2.086 1_545 S
C203 O199 1.278 . S
C203 O204 1.211 . S
O204 C203 1.211 . S
C205 O197 1.284 . S
C205 O206 1.273 . S
O206 C205 1.273 . S
O207 Zn198 1.977 . S
O207 C200 1.267 1_655 S
C208 O209 1.160 . S
C208 O215 1.185 . S
O209 C208 1.160 . S
O210 Zn211 1.899 . S
O210 C218 1.284 . S
Zn211 O210 1.899 . S
Zn211 O212 2.032 . S
Zn211 O215 2.086 . S
Zn211 O220 1.977 . S
O212 Zn211 2.032 . S
O212 C216 1.278 . S
C213 O214 1.203 . S
C213 O220 1.267 . S
O214 C213 1.203 . S
O215 C208 1.185 . S
O215 Zn211 2.086 . S
C216 O212 1.278 . S
C216 O217 1.211 . S
O217 C216 1.211 . S
C218 O210 1.284 . S
C218 O219 1.273 . S
O219 C218 1.273 . S
O220 Zn211 1.977 . S
O220 C213 1.267 . S
C221 O222 1.160 . S
C221 O228 1.185 . S
O222 C221 1.160 . S
O223 Zn224 1.899 . S
O223 C231 1.284 . S
Zn224 O223 1.899 . S
Zn224 O225 2.032 . S
Zn224 O228 2.086 . S
Zn224 O233 1.977 . S
O225 Zn224 2.032 . S
O225 C229 1.278 . S
C226 O227 1.203 . S
C226 O233 1.267 . S
O227 C226 1.203 . S
O228 C221 1.185 . S
O228 Zn224 2.086 . S
C229 O225 1.278 . S
C229 O230 1.211 . S
O230 C229 1.211 . S
C231 O223 1.284 . S
C231 O232 1.273 . S
O232 C231 1.273 . S
O233 Zn224 1.977 . S
O233 C226 1.267 . S
C234 O235 1.160 . S
C234 O241 1.185 . S
O235 C234 1.160 . S
O236 Zn237 1.899 . S
O236 C244 1.284 . S
Zn237 O236 1.899 . S
Zn237 O238 2.032 . S
Zn237 O241 2.086 . S
Zn237 O246 1.977 . S
O238 Zn237 2.032 . S
O238 C242 1.278 . S
C239 O240 1.203 . S
C239 O246 1.267 . S
O240 C239 1.203 . S
O241 C234 1.185 . S
O241 Zn237 2.086 . S
C242 O238 1.278 . S
C242 O243 1.211 . S
O243 C242 1.211 . S
C244 O236 1.284 . S
C244 O245 1.273 . S
O245 C244 1.273 . S
O246 Zn237 1.977 . S
O246 C239 1.267 . S
C247 O248 1.160 . S
C247 O254 1.185 . S
O248 C247 1.160 . S
O249 Zn250 1.899 . S
O249 C257 1.284 . S
Zn250 O249 1.899 . S
Zn250 O251 2.032 . S
Zn250 O254 2.086 . S
Zn250 O259 1.977 . S
O251 Zn250 2.032 . S
O251 C255 1.278 . S
C252 O253 1.203 . S
C252 O259 1.267 1_455 S
O253 C252 1.203 . S
O254 C247 1.185 . S
O254 Zn250 2.086 . S
C255 O251 1.278 . S
C255 O256 1.211 . S
O256 C255 1.211 . S
C257 O249 1.284 . S
C257 O258 1.273 . S
O258 C257 1.273 . S
O259 Zn250 1.977 . S
O259 C252 1.267 1_655 S
C260 O261 1.160 . S
C260 O267 1.185 . S
O261 C260 1.160 . S
O262 Zn263 1.899 . S
O262 C270 1.284 . S
Zn263 O262 1.899 . S
Zn263 O264 2.032 . S
Zn263 O267 2.086 . S
Zn263 O272 1.977 . S
O264 Zn263 2.032 . S
O264 C268 1.278 . S
C265 O266 1.203 . S
C265 O272 1.267 . S
O266 C265 1.203 . S
O267 C260 1.185 . S
O267 Zn263 2.086 . S
C268 O264 1.278 . S
C268 O269 1.211 . S
O269 C268 1.211 . S
C270 O262 1.284 . S
C270 O271 1.273 . S
O271 C270 1.273 . S
O272 Zn263 1.977 . S
O272 C265 1.267 . S
C273 O274 1.160 . S
C273 O280 1.185 . S
O274 C273 1.160 . S
O275 Zn276 1.899 . S
O275 C283 1.284 . S
Zn276 O275 1.899 . S
Zn276 O277 2.032 . S
Zn276 O280 2.086 . S
Zn276 O285 1.977 . S
O277 Zn276 2.032 . S
O277 C281 1.278 . S
C278 O279 1.203 . S
C278 O285 1.267 1_455 S
O279 C278 1.203 . S
O280 C273 1.185 . S
O280 Zn276 2.086 . S
C281 O277 1.278 . S
C281 O282 1.211 . S
O282 C281 1.211 . S
C283 O275 1.284 . S
C283 O284 1.273 . S
O284 C283 1.273 . S
O285 Zn276 1.977 . S
O285 C278 1.267 1_655 S
C286 O287 1.160 . S
C286 O293 1.185 . S
O287 C286 1.160 . S
O288 Zn289 1.899 . S
O288 C296 1.284 . S
Zn289 O288 1.899 . S
Zn289 O290 2.032 . S
Zn289 O293 2.086 . S
Zn289 O298 1.977 . S
O290 Zn289 2.032 . S
O290 C294 1.278 . S
C291 O292 1.203 . S
C291 O298 1.267 . S
O292 C291 1.203 . S
O293 C286 1.185 . S
O293 Zn289 2.086 . S
C294 O290 1.278 . S
C294 O295 1.211 . S
O295 C294 1.211 . S
C296 O288 1.284 . S
C296 O297 1.273 . S
O297 C296 1.273 . S
O298 Zn289 1.977 . S
O298 C291 1.267 . S
C299 O300 1.160 . S
C299 O306 1.185 . S
O300 C299 1.160 . S
O301 Zn302 1.899 . S
O301 C309 1.284 . S
Zn302 O301 1.899 . S
Zn302 O303 2.032 . S
Zn302 O306 2.086 . S
Zn302 O311 1.977 . S
O303 Zn302 2.032 . S
O303 C307 1.278 . S
C304 O305 1.203 . S
C304 O311 1.267 . S
O305 C304 1.203 . S
O306 C299 1.185 . S
O306 Zn302 2.086 . S
C307 O303 1.278 . S
C307 O308 1.211 . S
O308 C307 1.211 . S
C309 O301 1.284 . S
C309 O310 1.273 . S
O310 C309 1.273 . S
O311 Zn302 1.977 . S
O311 C304 1.267 . S
C312 O313 1.160 . S
C312 O319 1.185 . S
O313 C312 1.160 . S
O314 Zn315 1.899 . S
O314 C322 1.284 . S
Zn315 O314 1.899 . S
Zn315 O316 2.032 . S
Zn315 O319 2.086 . S
Zn315 O324 1.977 . S
O316 Zn315 2.032 . S
O316 C320 1.278 . S
C317 O318 1.203 . S
C317 O324 1.267 . S
O318 C317 1.203 . S
O319 C312 1.185 . S
O319 Zn315 2.086 . S
C320 O316 1.278 . S
C320 O321 1.211 . S
O321 C320 1.211 . S
C322 O314 1.284 . S
C322 O323 1.273 . S
O323 C322 1.273 . S
O324 Zn315 1.977 . S
O324 C317 1.267 . S
C325 O326 1.160 . S
C325 O332 1.185 . S
O326 C325 1.160 . S
O327 Zn328 1.899 . S
O327 C335 1.284 . S
Zn328 O327 1.899 . S
Zn328 O329 2.032 . S
Zn328 O332 2.086 . S
Zn328 O337 1.977 . S
O329 Zn328 2.032 . S
O329 C333 1.278 . S
C330 O331 1.203 . S
C330 O337 1.267 . S
O331 C330 1.203 . S
O332 C325 1.185 . S
O332 Zn328 2.086 . S
C333 O329 1.278 . S
C333 O334 1.211 . S
O334 C333 1.211 . S
C335 O327 1.284 . S
C335 O336 1.273 . S
O336 C335 1.273 . S
O337 Zn328 1.977 . S
O337 C330 1.267 . S
C338 O339 1.160 . S
C338 O345 1.185 . S
O339 C338 1.160 . S
O340 Zn341 1.899 . S
O340 C348 1.284 . S
Zn341 O340 1.899 . S
Zn341 O342 2.032 . S
Zn341 O345 2.086 . S
Zn341 O350 1.977 . S
O342 Zn341 2.032 . S
O342 C346 1.278 . S
C343 O344 1.203 . S
C343 O350 1.267 . S
O344 C343 1.203 . S
O345 C338 1.185 . S
O345 Zn341 2.086 . S
C346 O342 1.278 . S
C346 O347 1.211 . S
O347 C346 1.211 . S
C348 O340 1.284 . S
C348 O349 1.273 . S
O349 C348 1.273 . S
O350 Zn341 1.977 . S
O350 C343 1.267 . S
C351 O352 1.160 . S
C351 O358 1.185 . S
O352 C351 1.160 . S
O353 Zn354 1.899 . S
O353 C361 1.284 . S
Zn354 O353 1.899 . S
Zn354 O355 2.032 . S
Zn354 O358 2.086 . S
Zn354 O363 1.977 . S
O355 Zn354 2.032 . S
O355 C359 1.278 . S
C356 O357 1.203 . S
C356 O363 1.267 1_655 S
O357 C356 1.203 . S
O358 C351 1.185 . S
O358 Zn354 2.086 . S
C359 O355 1.278 . S
C359 O360 1.211 . S
O360 C359 1.211 . S
C361 O353 1.284 . S
C361 O362 1.273 . S
O362 C361 1.273 . S
O363 Zn354 1.977 . S
O363 C356 1.267 1_455 S
C364 O365 1.160 . S
C364 O371 1.185 . S
O365 C364 1.160 . S
O366 Zn367 1.899 . S
O366 C374 1.284 . S
Zn367 O366 1.899 . S
Zn367 O368 2.032 . S
Zn367 O371 2.086 . S
Zn367 O376 1.977 . S
O368 Zn367 2.032 . S
O368 C372 1.278 . S
C369 O370 1.203 . S
C369 O376 1.267 . S
O370 C369 1.203 . S
O371 C364 1.185 . S
O371 Zn367 2.086 . S
C372 O368 1.278 . S
C372 O373 1.211 . S
O373 C372 1.211 . S
C374 O366 1.284 . S
C374 O375 1.273 . S
O375 C374 1.273 . S
O376 Zn367 1.977 . S
O376 C369 1.267 . S
C377 O378 1.160 . S
C377 O384 1.185 . S
O378 C377 1.160 . S
O379 Zn380 1.899 . S
O379 C387 1.284 . S
Zn380 O379 1.899 . S
Zn380 O381 2.032 . S
Zn380 O384 2.086 . S
Zn380 O389 1.977 . S
O381 Zn380 2.032 . S
O381 C385 1.278 . S
C382 O383 1.203 . S
C382 O389 1.267 1_655 S
O383 C382 1.203 . S
O384 C377 1.185 . S
O384 Zn380 2.086 . S
C385 O381 1.278 . S
C385 O386 1.211 . S
O386 C385 1.211 . S
C387 O379 1.284 . S
C387 O388 1.273 . S
O388 C387 1.273 . S
O389 Zn380 1.977 . S
O389 C382 1.267 1_455 S
C390 O391 1.160 . S
C390 O397 1.185 . S
O391 C390 1.160 . S
O392 Zn393 1.899 . S
O392 C400 1.284 . S
Zn393 O392 1.899 . S
Zn393 O394 2.032 . S
Zn393 O397 2.086 . S
Zn393 O402 1.977 . S
O394 Zn393 2.032 . S
O394 C398 1.278 . S
C395 O396 1.203 . S
C395 O402 1.267 . S
O396 C395 1.203 . S
O397 C390 1.185 . S
O397 Zn393 2.086 . S
C398 O394 1.278 . S
C398 O399 1.211 . S
O399 C398 1.211 . S
C400 O392 1.284 . S
C400 O401 1.273 . S
O401 C400 1.273 . S
O402 Zn393 1.977 . S
O402 C395 1.267 . S
C403 O404 1.160 . S
C403 O410 1.185 . S
O404 C403 1.160 . S
O405 Zn406 1.899 . S
O405 C413 1.284 . S
Zn406 O405 1.899 . S
Zn406 O407 2.032 . S
Zn406 O410 2.086 . S
Zn406 O415 1.977 . S
O407 Zn406 2.032 . S
O407 C411 1.278 . S
C408 O409 1.203 . S
C408 O415 1.267 . S
O409 C408 1.203 . S
O410 C403 1.185 . S
O410 Zn406 2.086 . S
C411 O407 1.278 . S
C411 O412 1.211 . S
O412 C411 1.211 . S
C413 O405 1.284 . S
C413 O414 1.273 . S
O414 C413 1.273 . S
O415 Zn406 1.977 . S
O415 C408 1.267 . S
H416 C424 0.929 . S
H417 C426 0.930 . S
H418 C428 0.930 . S
H419 C431 0.929 . S
H420 C434 0.930 . S
H421 C436 0.960 . S
H422 C436 0.960 . S
H423 C436 0.960 . S
C424 H416 0.929 . S
C424 C425 1.377 . S
C424 C426 1.384 . S
C425 C424 1.377 . S
C425 C431 1.390 . S
C426 H417 0.930 . S
C426 C424 1.384 . S
C426 C427 1.372 . S
C427 C426 1.372 . S
C427 C428 1.400 . S
C427 C432 1.490 . S
C428 H418 0.930 . S
C428 C427 1.400 . S
C428 C431 1.386 . S
H429 C445 0.930 . S
H430 C446 0.931 . S
C431 H419 0.929 . S
C431 C425 1.390 . S
C431 C428 1.386 . S
C432 C427 1.490 . S
C432 C434 1.395 . S
C432 C435 1.403 . S
H433 C439 0.930 . S
C434 H420 0.930 . S
C434 C432 1.395 . S
C434 C437 1.403 . S
C435 C432 1.403 . S
C435 C436 1.524 . S
C435 C439 1.400 . S
C436 H421 0.960 . S
C436 H422 0.960 . S
C436 H423 0.960 . S
C436 C435 1.524 . S
C437 C434 1.403 . S
C437 C438 1.392 . S
C437 C441 1.495 . S
C438 C437 1.392 . S
C438 C439 1.385 . S
C438 C440 1.478 . S
C439 H433 0.930 . S
C439 C435 1.400 . S
C439 C438 1.385 . S
C440 C438 1.478 . S
C440 C442 1.381 . S
C440 C446 1.383 . S
C441 C437 1.495 . S
C441 H447 0.959 . S
C441 H448 0.961 . S
C441 H449 0.960 . S
C442 C440 1.381 . S
C442 C443 1.394 . S
C442 H450 0.930 . S
C443 C442 1.394 . S
C443 C444 1.383 . S
C443 H451 0.929 . S
C444 C443 1.383 . S
C444 C445 1.377 . S
C445 H429 0.930 . S
C445 C444 1.377 . S
C445 C446 1.379 . S
C446 H430 0.931 . S
C446 C440 1.383 . S
C446 C445 1.379 . S
H447 C441 0.959 . S
H448 C441 0.961 . S
H449 C441 0.960 . S
H450 C442 0.930 . S
H451 C443 0.929 . S
H452 C460 0.929 . S
H453 C462 0.930 . S
H454 C464 0.930 . S
H455 C467 0.929 . S
H456 C470 0.930 . S
H457 C472 0.960 . S
H458 C472 0.960 . S
H459 C472 0.960 . S
C460 H452 0.929 . S
C460 C461 1.377 . S
C460 C462 1.384 . S
C461 C460 1.377 . S
C461 C467 1.390 . S
C462 H453 0.930 . S
C462 C460 1.384 . S
C462 C463 1.372 . S
C463 C462 1.372 . S
C463 C464 1.400 . S
C463 C468 1.490 . S
C464 H454 0.930 . S
C464 C463 1.400 . S
C464 C467 1.386 . S
H465 C481 0.930 . S
H466 C482 0.931 . S
C467 H455 0.929 . S
C467 C461 1.390 . S
C467 C464 1.386 . S
C468 C463 1.490 . S
C468 C470 1.395 . S
C468 C471 1.403 . S
H469 C475 0.930 . S
C470 H456 0.930 . S
C470 C468 1.395 . S
C470 C473 1.403 . S
C471 C468 1.403 . S
C471 C472 1.524 . S
C471 C475 1.400 . S
C472 H457 0.960 . S
C472 H458 0.960 . S
C472 H459 0.960 . S
C472 C471 1.524 . S
C473 C470 1.403 . S
C473 C474 1.392 . S
C473 C477 1.495 . S
C474 C473 1.392 . S
C474 C475 1.385 . S
C474 C476 1.478 . S
C475 H469 0.930 . S
C475 C471 1.400 . S
C475 C474 1.385 . S
C476 C474 1.478 . S
C476 C478 1.381 . S
C476 C482 1.383 . S
C477 C473 1.495 . S
C477 H483 0.959 . S
C477 H484 0.961 . S
C477 H485 0.960 . S
C478 C476 1.381 . S
C478 C479 1.394 . S
C478 H486 0.930 . S
C479 C478 1.394 . S
C479 C480 1.383 . S
C479 H487 0.929 . S
C480 C479 1.383 . S
C480 C481 1.377 . S
C481 H465 0.930 . S
C481 C480 1.377 . S
C481 C482 1.379 . S
C482 H466 0.931 . S
C482 C476 1.383 . S
C482 C481 1.379 . S
H483 C477 0.959 . S
H484 C477 0.961 . S
H485 C477 0.960 . S
H486 C478 0.930 . S
H487 C479 0.929 . S
H488 C496 0.929 . S
H489 C498 0.930 . S
H490 C500 0.930 . S
H491 C503 0.929 . S
H492 C506 0.930 . S
H493 C508 0.960 . S
H494 C508 0.960 . S
H495 C508 0.960 . S
C496 H488 0.929 . S
C496 C497 1.377 . S
C496 C498 1.384 . S
C497 C496 1.377 . S
C497 C503 1.390 . S
C498 H489 0.930 . S
C498 C496 1.384 . S
C498 C499 1.372 . S
C499 C498 1.372 . S
C499 C500 1.400 . S
C499 C504 1.490 . S
C500 H490 0.930 . S
C500 C499 1.400 . S
C500 C503 1.386 . S
H501 C517 0.930 . S
H502 C518 0.931 . S
C503 H491 0.929 . S
C503 C497 1.390 . S
C503 C500 1.386 . S
C504 C499 1.490 . S
C504 C506 1.395 . S
C504 C507 1.403 . S
H505 C511 0.930 . S
C506 H492 0.930 . S
C506 C504 1.395 . S
C506 C509 1.403 . S
C507 C504 1.403 . S
C507 C508 1.524 . S
C507 C511 1.400 . S
C508 H493 0.960 . S
C508 H494 0.960 . S
C508 H495 0.960 . S
C508 C507 1.524 . S
C509 C506 1.403 . S
C509 C510 1.392 . S
C509 C513 1.495 . S
C510 C509 1.392 . S
C510 C511 1.385 . S
C510 C512 1.478 . S
C511 H505 0.930 . S
C511 C507 1.400 . S
C511 C510 1.385 . S
C512 C510 1.478 . S
C512 C514 1.381 . S
C512 C518 1.383 . S
C513 C509 1.495 . S
C513 H519 0.959 . S
C513 H520 0.961 . S
C513 H521 0.960 . S
C514 C512 1.381 . S
C514 C515 1.394 . S
C514 H522 0.930 . S
C515 C514 1.394 . S
C515 C516 1.383 . S
C515 H523 0.929 . S
C516 C515 1.383 . S
C516 C517 1.377 . S
C517 H501 0.930 . S
C517 C516 1.377 . S
C517 C518 1.379 . S
C518 H502 0.931 . S
C518 C512 1.383 . S
C518 C517 1.379 . S
H519 C513 0.959 . S
H520 C513 0.961 . S
H521 C513 0.960 . S
H522 C514 0.930 . S
H523 C515 0.929 . S
H524 C532 0.929 . S
H525 C534 0.930 . S
H526 C536 0.930 . S
H527 C539 0.929 . S
H528 C542 0.930 . S
H529 C544 0.960 . S
H530 C544 0.960 . S
H531 C544 0.960 . S
C532 H524 0.929 . S
C532 C533 1.377 . S
C532 C534 1.384 . S
C533 C532 1.377 . S
C533 C539 1.390 . S
C534 H525 0.930 . S
C534 C532 1.384 . S
C534 C535 1.372 . S
C535 C534 1.372 . S
C535 C536 1.400 . S
C535 C540 1.490 . S
C536 H526 0.930 . S
C536 C535 1.400 . S
C536 C539 1.386 . S
H537 C553 0.930 . S
H538 C554 0.931 . S
C539 H527 0.929 . S
C539 C533 1.390 . S
C539 C536 1.386 . S
C540 C535 1.490 . S
C540 C542 1.395 . S
C540 C543 1.403 . S
H541 C547 0.930 . S
C542 H528 0.930 . S
C542 C540 1.395 . S
C542 C545 1.403 . S
C543 C540 1.403 . S
C543 C544 1.524 . S
C543 C547 1.400 . S
C544 H529 0.960 . S
C544 H530 0.960 . S
C544 H531 0.960 . S
C544 C543 1.524 . S
C545 C542 1.403 . S
C545 C546 1.392 . S
C545 C549 1.495 . S
C546 C545 1.392 . S
C546 C547 1.385 . S
C546 C548 1.478 . S
C547 H541 0.930 . S
C547 C543 1.400 . S
C547 C546 1.385 . S
C548 C546 1.478 . S
C548 C550 1.381 . S
C548 C554 1.383 . S
C549 C545 1.495 . S
C549 H555 0.959 . S
C549 H556 0.961 . S
C549 H557 0.960 . S
C550 C548 1.381 . S
C550 C551 1.394 . S
C550 H558 0.930 . S
C551 C550 1.394 . S
C551 C552 1.383 . S
C551 H559 0.929 . S
C552 C551 1.383 . S
C552 C553 1.377 . S
C553 H537 0.930 . S
C553 C552 1.377 . S
C553 C554 1.379 . S
C554 H538 0.931 . S
C554 C548 1.383 . S
C554 C553 1.379 . S
H555 C549 0.959 . S
H556 C549 0.961 . S
H557 C549 0.960 . S
H558 C550 0.930 . S
H559 C551 0.929 . S
H560 C568 0.929 . S
H561 C570 0.930 . S
H562 C572 0.930 . S
H563 C575 0.929 . S
H564 C578 0.930 . S
H565 C580 0.960 . S
H566 C580 0.960 . S
H567 C580 0.960 . S
C568 H560 0.929 . S
C568 C569 1.377 . S
C568 C570 1.384 . S
C569 C568 1.377 . S
C569 C575 1.390 . S
C570 H561 0.930 . S
C570 C568 1.384 . S
C570 C571 1.372 . S
C571 C570 1.372 . S
C571 C572 1.400 . S
C571 C576 1.490 . S
C572 H562 0.930 . S
C572 C571 1.400 . S
C572 C575 1.386 . S
H573 C589 0.930 . S
H574 C590 0.931 . S
C575 H563 0.929 . S
C575 C569 1.390 . S
C575 C572 1.386 . S
C576 C571 1.490 . S
C576 C578 1.395 . S
C576 C579 1.403 . S
H577 C583 0.930 . S
C578 H564 0.930 . S
C578 C576 1.395 . S
C578 C581 1.403 . S
C579 C576 1.403 . S
C579 C580 1.524 . S
C579 C583 1.400 . S
C580 H565 0.960 . S
C580 H566 0.960 . S
C580 H567 0.960 . S
C580 C579 1.524 . S
C581 C578 1.403 . S
C581 C582 1.392 . S
C581 C585 1.495 . S
C582 C581 1.392 . S
C582 C583 1.385 . S
C582 C584 1.478 . S
C583 H577 0.930 . S
C583 C579 1.400 . S
C583 C582 1.385 . S
C584 C582 1.478 . S
C584 C586 1.381 . S
C584 C590 1.383 . S
C585 C581 1.495 . S
C585 H591 0.959 . S
C585 H592 0.961 . S
C585 H593 0.960 . S
C586 C584 1.381 . S
C586 C587 1.394 . S
C586 H594 0.930 . S
C587 C586 1.394 . S
C587 C588 1.383 . S
C587 H595 0.929 . S
C588 C587 1.383 . S
C588 C589 1.377 . S
C589 H573 0.930 . S
C589 C588 1.377 . S
C589 C590 1.379 . S
C590 H574 0.931 . S
C590 C584 1.383 . S
C590 C589 1.379 . S
H591 C585 0.959 . S
H592 C585 0.961 . S
H593 C585 0.960 . S
H594 C586 0.930 . S
H595 C587 0.929 . S
H596 C604 0.929 . S
H597 C606 0.930 . S
H598 C608 0.930 . S
H599 C611 0.929 . S
H600 C614 0.930 . S
H601 C616 0.960 . S
H602 C616 0.960 . S
H603 C616 0.960 . S
C604 H596 0.929 . S
C604 C605 1.377 . S
C604 C606 1.384 . S
C605 C604 1.377 . S
C605 C611 1.390 . S
C606 H597 0.930 . S
C606 C604 1.384 . S
C606 C607 1.372 . S
C607 C606 1.372 . S
C607 C608 1.400 . S
C607 C612 1.490 . S
C608 H598 0.930 . S
C608 C607 1.400 . S
C608 C611 1.386 . S
H609 C625 0.930 . S
H610 C626 0.931 . S
C611 H599 0.929 . S
C611 C605 1.390 . S
C611 C608 1.386 . S
C612 C607 1.490 . S
C612 C614 1.395 . S
C612 C615 1.403 . S
H613 C619 0.930 . S
C614 H600 0.930 . S
C614 C612 1.395 . S
C614 C617 1.403 . S
C615 C612 1.403 . S
C615 C616 1.524 . S
C615 C619 1.400 . S
C616 H601 0.960 . S
C616 H602 0.960 . S
C616 H603 0.960 . S
C616 C615 1.524 . S
C617 C614 1.403 . S
C617 C618 1.392 . S
C617 C621 1.495 . S
C618 C617 1.392 . S
C618 C619 1.385 . S
C618 C620 1.478 . S
C619 H613 0.930 . S
C619 C615 1.400 . S
C619 C618 1.385 . S
C620 C618 1.478 . S
C620 C622 1.381 . S
C620 C626 1.383 . S
C621 C617 1.495 . S
C621 H627 0.959 . S
C621 H628 0.961 . S
C621 H629 0.960 . S
C622 C620 1.381 . S
C622 C623 1.394 . S
C622 H630 0.930 . S
C623 C622 1.394 . S
C623 C624 1.383 . S
C623 H631 0.929 . S
C624 C623 1.383 . S
C624 C625 1.377 . S
C625 H609 0.930 . S
C625 C624 1.377 . S
C625 C626 1.379 . S
C626 H610 0.931 . S
C626 C620 1.383 . S
C626 C625 1.379 . S
H627 C621 0.959 . S
H628 C621 0.961 . S
H629 C621 0.960 . S
H630 C622 0.930 . S
H631 C623 0.929 . S
H632 C640 0.929 . S
H633 C642 0.930 . S
H634 C644 0.930 . S
H635 C647 0.929 . S
H636 C650 0.930 . S
H637 C652 0.960 . S
H638 C652 0.960 . S
H639 C652 0.960 . S
C640 H632 0.929 . S
C640 C641 1.377 . S
C640 C642 1.384 . S
C641 C640 1.377 . S
C641 C647 1.390 . S
C642 H633 0.930 . S
C642 C640 1.384 . S
C642 C643 1.372 . S
C643 C642 1.372 . S
C643 C644 1.400 . S
C643 C648 1.490 . S
C644 H634 0.930 . S
C644 C643 1.400 . S
C644 C647 1.386 . S
H645 C661 0.930 . S
H646 C662 0.931 . S
C647 H635 0.929 . S
C647 C641 1.390 . S
C647 C644 1.386 . S
C648 C643 1.490 . S
C648 C650 1.395 . S
C648 C651 1.403 . S
H649 C655 0.930 . S
C650 H636 0.930 . S
C650 C648 1.395 . S
C650 C653 1.403 . S
C651 C648 1.403 . S
C651 C652 1.524 . S
C651 C655 1.400 . S
C652 H637 0.960 . S
C652 H638 0.960 . S
C652 H639 0.960 . S
C652 C651 1.524 . S
C653 C650 1.403 . S
C653 C654 1.392 . S
C653 C657 1.495 . S
C654 C653 1.392 . S
C654 C655 1.385 . S
C654 C656 1.478 . S
C655 H649 0.930 . S
C655 C651 1.400 . S
C655 C654 1.385 . S
C656 C654 1.478 . S
C656 C658 1.381 . S
C656 C662 1.383 . S
C657 C653 1.495 . S
C657 H663 0.959 . S
C657 H664 0.961 . S
C657 H665 0.960 . S
C658 C656 1.381 . S
C658 C659 1.394 . S
C658 H666 0.930 . S
C659 C658 1.394 . S
C659 C660 1.383 . S
C659 H667 0.929 . S
C660 C659 1.383 . S
C660 C661 1.377 . S
C661 H645 0.930 . S
C661 C660 1.377 . S
C661 C662 1.379 . S
C662 H646 0.931 . S
C662 C656 1.383 . S
C662 C661 1.379 . S
H663 C657 0.959 . S
H664 C657 0.961 . S
H665 C657 0.960 . S
H666 C658 0.930 . S
H667 C659 0.929 . S
H668 C676 0.929 . S
H669 C678 0.930 . S
H670 C680 0.930 . S
H671 C683 0.929 . S
H672 C686 0.930 . S
H673 C688 0.960 . S
H674 C688 0.960 . S
H675 C688 0.960 . S
C676 H668 0.929 . S
C676 C677 1.377 . S
C676 C678 1.384 . S
C677 C676 1.377 . S
C677 C683 1.390 . S
C678 H669 0.930 . S
C678 C676 1.384 . S
C678 C679 1.372 . S
C679 C678 1.372 . S
C679 C680 1.400 . S
C679 C684 1.490 . S
C680 H670 0.930 . S
C680 C679 1.400 . S
C680 C683 1.386 . S
H681 C697 0.930 . S
H682 C698 0.931 . S
C683 H671 0.929 . S
C683 C677 1.390 . S
C683 C680 1.386 . S
C684 C679 1.490 . S
C684 C686 1.395 . S
C684 C687 1.403 . S
H685 C691 0.930 . S
C686 H672 0.930 . S
C686 C684 1.395 . S
C686 C689 1.403 . S
C687 C684 1.403 . S
C687 C688 1.524 . S
C687 C691 1.400 . S
C688 H673 0.960 . S
C688 H674 0.960 . S
C688 H675 0.960 . S
C688 C687 1.524 . S
C689 C686 1.403 . S
C689 C690 1.392 . S
C689 C693 1.495 . S
C690 C689 1.392 . S
C690 C691 1.385 . S
C690 C692 1.478 . S
C691 H685 0.930 . S
C691 C687 1.400 . S
C691 C690 1.385 . S
C692 C690 1.478 . S
C692 C694 1.381 . S
C692 C698 1.383 . S
C693 C689 1.495 . S
C693 H699 0.959 . S
C693 H700 0.961 . S
C693 H701 0.960 . S
C694 C692 1.381 . S
C694 C695 1.394 . S
C694 H702 0.930 . S
C695 C694 1.394 . S
C695 C696 1.383 . S
C695 H703 0.929 . S
C696 C695 1.383 . S
C696 C697 1.377 . S
C697 H681 0.930 . S
C697 C696 1.377 . S
C697 C698 1.379 . S
C698 H682 0.931 . S
C698 C692 1.383 . S
C698 C697 1.379 . S
H699 C693 0.959 . S
H700 C693 0.961 . S
H701 C693 0.960 . S
H702 C694 0.930 . S
H703 C695 0.929 . S
H704 C712 0.929 . S
H705 C714 0.930 . S
H706 C716 0.930 . S
H707 C719 0.929 . S
H708 C722 0.930 . S
H709 C724 0.960 . S
H710 C724 0.960 . S
H711 C724 0.960 . S
C712 H704 0.929 . S
C712 C713 1.377 . S
C712 C714 1.384 . S
C713 C712 1.377 . S
C713 C719 1.390 . S
C714 H705 0.930 . S
C714 C712 1.384 . S
C714 C715 1.372 . S
C715 C714 1.372 . S
C715 C716 1.400 . S
C715 C720 1.490 . S
C716 H706 0.930 . S
C716 C715 1.400 . S
C716 C719 1.386 . S
H717 C733 0.930 . S
H718 C734 0.931 . S
C719 H707 0.929 . S
C719 C713 1.390 . S
C719 C716 1.386 . S
C720 C715 1.490 . S
C720 C722 1.395 . S
C720 C723 1.403 . S
H721 C727 0.930 . S
C722 H708 0.930 . S
C722 C720 1.395 . S
C722 C725 1.403 . S
C723 C720 1.403 . S
C723 C724 1.524 . S
C723 C727 1.400 . S
C724 H709 0.960 . S
C724 H710 0.960 . S
C724 H711 0.960 . S
C724 C723 1.524 . S
C725 C722 1.403 . S
C725 C726 1.392 . S
C725 C729 1.495 . S
C726 C725 1.392 . S
C726 C727 1.385 . S
C726 C728 1.478 . S
C727 H721 0.930 . S
C727 C723 1.400 . S
C727 C726 1.385 . S
C728 C726 1.478 . S
C728 C730 1.381 . S
C728 C734 1.383 . S
C729 C725 1.495 . S
C729 H735 0.959 . S
C729 H736 0.961 . S
C729 H737 0.960 . S
C730 C728 1.381 . S
C730 C731 1.394 . S
C730 H738 0.930 . S
C731 C730 1.394 . S
C731 C732 1.383 . S
C731 H739 0.929 . S
C732 C731 1.383 . S
C732 C733 1.377 . S
C733 H717 0.930 . S
C733 C732 1.377 . S
C733 C734 1.379 . S
C734 H718 0.931 . S
C734 C728 1.383 . S
C734 C733 1.379 . S
H735 C729 0.959 . S
H736 C729 0.961 . S
H737 C729 0.960 . S
H738 C730 0.930 . S
H739 C731 0.929 . S
H740 C748 0.929 . S
H741 C750 0.930 . S
H742 C752 0.930 . S
H743 C755 0.929 . S
H744 C758 0.930 . S
H745 C760 0.960 . S
H746 C760 0.960 . S
H747 C760 0.960 . S
C748 H740 0.929 . S
C748 C749 1.377 . S
C748 C750 1.384 . S
C749 C748 1.377 . S
C749 C755 1.390 . S
C750 H741 0.930 . S
C750 C748 1.384 . S
C750 C751 1.372 . S
C751 C750 1.372 . S
C751 C752 1.400 . S
C751 C756 1.490 . S
C752 H742 0.930 . S
C752 C751 1.400 . S
C752 C755 1.386 . S
H753 C769 0.930 . S
H754 C770 0.931 . S
C755 H743 0.929 . S
C755 C749 1.390 . S
C755 C752 1.386 . S
C756 C751 1.490 . S
C756 C758 1.395 . S
C756 C759 1.403 . S
H757 C763 0.930 . S
C758 H744 0.930 . S
C758 C756 1.395 . S
C758 C761 1.403 . S
C759 C756 1.403 . S
C759 C760 1.524 . S
C759 C763 1.400 . S
C760 H745 0.960 . S
C760 H746 0.960 . S
C760 H747 0.960 . S
C760 C759 1.524 . S
C761 C758 1.403 . S
C761 C762 1.392 . S
C761 C765 1.495 . S
C762 C761 1.392 . S
C762 C763 1.385 . S
C762 C764 1.478 . S
C763 H757 0.930 . S
C763 C759 1.400 . S
C763 C762 1.385 . S
C764 C762 1.478 . S
C764 C766 1.381 . S
C764 C770 1.383 . S
C765 C761 1.495 . S
C765 H771 0.959 . S
C765 H772 0.961 . S
C765 H773 0.960 . S
C766 C764 1.381 . S
C766 C767 1.394 . S
C766 H774 0.930 . S
C767 C766 1.394 . S
C767 C768 1.383 . S
C767 H775 0.929 . S
C768 C767 1.383 . S
C768 C769 1.377 . S
C769 H753 0.930 . S
C769 C768 1.377 . S
C769 C770 1.379 . S
C770 H754 0.931 . S
C770 C764 1.383 . S
C770 C769 1.379 . S
H771 C765 0.959 . S
H772 C765 0.961 . S
H773 C765 0.960 . S
H774 C766 0.930 . S
H775 C767 0.929 . S
H776 C784 0.929 . S
H777 C786 0.930 . S
H778 C788 0.930 . S
H779 C791 0.929 . S
H780 C794 0.930 . S
H781 C796 0.960 . S
H782 C796 0.960 . S
H783 C796 0.960 . S
C784 H776 0.929 . S
C784 C785 1.377 . S
C784 C786 1.384 . S
C785 C784 1.377 . S
C785 C791 1.390 . S
C786 H777 0.930 . S
C786 C784 1.384 . S
C786 C787 1.372 . S
C787 C786 1.372 . S
C787 C788 1.400 . S
C787 C792 1.490 . S
C788 H778 0.930 . S
C788 C787 1.400 . S
C788 C791 1.386 . S
H789 C805 0.930 . S
H790 C806 0.931 . S
C791 H779 0.929 . S
C791 C785 1.390 . S
C791 C788 1.386 . S
C792 C787 1.490 . S
C792 C794 1.395 . S
C792 C795 1.403 . S
H793 C799 0.930 . S
C794 H780 0.930 . S
C794 C792 1.395 . S
C794 C797 1.403 . S
C795 C792 1.403 . S
C795 C796 1.524 . S
C795 C799 1.400 . S
C796 H781 0.960 . S
C796 H782 0.960 . S
C796 H783 0.960 . S
C796 C795 1.524 . S
C797 C794 1.403 . S
C797 C798 1.392 . S
C797 C801 1.495 . S
C798 C797 1.392 . S
C798 C799 1.385 . S
C798 C800 1.478 . S
C799 H793 0.930 . S
C799 C795 1.400 . S
C799 C798 1.385 . S
C800 C798 1.478 . S
C800 C802 1.381 . S
C800 C806 1.383 . S
C801 C797 1.495 . S
C801 H807 0.959 . S
C801 H808 0.961 . S
C801 H809 0.960 . S
C802 C800 1.381 . S
C802 C803 1.394 . S
C802 H810 0.930 . S
C803 C802 1.394 . S
C803 C804 1.383 . S
C803 H811 0.929 . S
C804 C803 1.383 . S
C804 C805 1.377 . S
C805 H789 0.930 . S
C805 C804 1.377 . S
C805 C806 1.379 . S
C806 H790 0.931 . S
C806 C800 1.383 . S
C806 C805 1.379 . S
H807 C801 0.959 . S
H808 C801 0.961 . S
H809 C801 0.960 . S
H810 C802 0.930 . S
H811 C803 0.929 . S
H812 C820 0.929 . S
H813 C822 0.930 . S
H814 C824 0.930 . S
H815 C827 0.929 . S
H816 C830 0.930 . S
H817 C832 0.960 . S
H818 C832 0.960 . S
H819 C832 0.960 . S
C820 H812 0.929 . S
C820 C821 1.377 . S
C820 C822 1.384 . S
C821 C820 1.377 . S
C821 C827 1.390 . S
C822 H813 0.930 . S
C822 C820 1.384 . S
C822 C823 1.372 . S
C823 C822 1.372 . S
C823 C824 1.400 . S
C823 C828 1.490 . S
C824 H814 0.930 . S
C824 C823 1.400 . S
C824 C827 1.386 . S
H825 C841 0.930 . S
H826 C842 0.931 . S
C827 H815 0.929 . S
C827 C821 1.390 . S
C827 C824 1.386 . S
C828 C823 1.490 . S
C828 C830 1.395 . S
C828 C831 1.403 . S
H829 C835 0.930 . S
C830 H816 0.930 . S
C830 C828 1.395 . S
C830 C833 1.403 . S
C831 C828 1.403 . S
C831 C832 1.524 . S
C831 C835 1.400 . S
C832 H817 0.960 . S
C832 H818 0.960 . S
C832 H819 0.960 . S
C832 C831 1.524 . S
C833 C830 1.403 . S
C833 C834 1.392 . S
C833 C837 1.495 . S
C834 C833 1.392 . S
C834 C835 1.385 . S
C834 C836 1.478 . S
C835 H829 0.930 . S
C835 C831 1.400 . S
C835 C834 1.385 . S
C836 C834 1.478 . S
C836 C838 1.381 . S
C836 C842 1.383 . S
C837 C833 1.495 . S
C837 H843 0.959 . S
C837 H844 0.961 . S
C837 H845 0.960 . S
C838 C836 1.381 . S
C838 C839 1.394 . S
C838 H846 0.930 . S
C839 C838 1.394 . S
C839 C840 1.383 . S
C839 H847 0.929 . S
C840 C839 1.383 . S
C840 C841 1.377 . S
C841 H825 0.930 . S
C841 C840 1.377 . S
C841 C842 1.379 . S
C842 H826 0.931 . S
C842 C836 1.383 . S
C842 C841 1.379 . S
H843 C837 0.959 . S
H844 C837 0.961 . S
H845 C837 0.960 . S
H846 C838 0.930 . S
H847 C839 0.929 . S
H848 C856 0.929 . S
H849 C858 0.930 . S
H850 C860 0.930 . S
H851 C863 0.929 . S
H852 C866 0.930 . S
H853 C868 0.960 . S
H854 C868 0.960 . S
H855 C868 0.960 . S
C856 H848 0.929 . S
C856 C857 1.377 . S
C856 C858 1.384 . S
C857 C856 1.377 . S
C857 C863 1.390 . S
C858 H849 0.930 . S
C858 C856 1.384 . S
C858 C859 1.372 . S
C859 C858 1.372 . S
C859 C860 1.400 . S
C859 C864 1.490 . S
C860 H850 0.930 . S
C860 C859 1.400 . S
C860 C863 1.386 . S
H861 C877 0.930 . S
H862 C878 0.931 . S
C863 H851 0.929 . S
C863 C857 1.390 . S
C863 C860 1.386 . S
C864 C859 1.490 . S
C864 C866 1.395 . S
C864 C867 1.403 . S
H865 C871 0.930 . S
C866 H852 0.930 . S
C866 C864 1.395 . S
C866 C869 1.403 . S
C867 C864 1.403 . S
C867 C868 1.524 . S
C867 C871 1.400 . S
C868 H853 0.960 . S
C868 H854 0.960 . S
C868 H855 0.960 . S
C868 C867 1.524 . S
C869 C866 1.403 . S
C869 C870 1.392 . S
C869 C873 1.495 . S
C870 C869 1.392 . S
C870 C871 1.385 . S
C870 C872 1.478 . S
C871 H865 0.930 . S
C871 C867 1.400 . S
C871 C870 1.385 . S
C872 C870 1.478 . S
C872 C874 1.381 . S
C872 C878 1.383 . S
C873 C869 1.495 . S
C873 H879 0.959 . S
C873 H880 0.961 . S
C873 H881 0.960 . S
C874 C872 1.381 . S
C874 C875 1.394 . S
C874 H882 0.930 . S
C875 C874 1.394 . S
C875 C876 1.383 . S
C875 H883 0.929 . S
C876 C875 1.383 . S
C876 C877 1.377 . S
C877 H861 0.930 . S
C877 C876 1.377 . S
C877 C878 1.379 . S
C878 H862 0.931 . S
C878 C872 1.383 . S
C878 C877 1.379 . S
H879 C873 0.959 . S
H880 C873 0.961 . S
H881 C873 0.960 . S
H882 C874 0.930 . S
H883 C875 0.929 . S
H884 C892 0.929 . S
H885 C894 0.930 . S
H886 C896 0.930 . S
H887 C899 0.929 . S
H888 C902 0.930 . S
H889 C904 0.960 . S
H890 C904 0.960 . S
H891 C904 0.960 . S
C892 H884 0.929 . S
C892 C893 1.377 . S
C892 C894 1.384 . S
C893 C892 1.377 . S
C893 C899 1.390 . S
C894 H885 0.930 . S
C894 C892 1.384 . S
C894 C895 1.372 . S
C895 C894 1.372 . S
C895 C896 1.400 . S
C895 C900 1.490 . S
C896 H886 0.930 . S
C896 C895 1.400 . S
C896 C899 1.386 . S
H897 C913 0.930 . S
H898 C914 0.931 . S
C899 H887 0.929 . S
C899 C893 1.390 . S
C899 C896 1.386 . S
C900 C895 1.490 . S
C900 C902 1.395 . S
C900 C903 1.403 . S
H901 C907 0.930 . S
C902 H888 0.930 . S
C902 C900 1.395 . S
C902 C905 1.403 . S
C903 C900 1.403 . S
C903 C904 1.524 . S
C903 C907 1.400 . S
C904 H889 0.960 . S
C904 H890 0.960 . S
C904 H891 0.960 . S
C904 C903 1.524 . S
C905 C902 1.403 . S
C905 C906 1.392 . S
C905 C909 1.495 . S
C906 C905 1.392 . S
C906 C907 1.385 . S
C906 C908 1.478 . S
C907 H901 0.930 . S
C907 C903 1.400 . S
C907 C906 1.385 . S
C908 C906 1.478 . S
C908 C910 1.381 . S
C908 C914 1.383 . S
C909 C905 1.495 . S
C909 H915 0.959 . S
C909 H916 0.961 . S
C909 H917 0.960 . S
C910 C908 1.381 . S
C910 C911 1.394 . S
C910 H918 0.930 . S
C911 C910 1.394 . S
C911 C912 1.383 . S
C911 H919 0.929 . S
C912 C911 1.383 . S
C912 C913 1.377 . S
C913 H897 0.930 . S
C913 C912 1.377 . S
C913 C914 1.379 . S
C914 H898 0.931 . S
C914 C908 1.383 . S
C914 C913 1.379 . S
H915 C909 0.959 . S
H916 C909 0.961 . S
H917 C909 0.960 . S
H918 C910 0.930 . S
H919 C911 0.929 . S
H920 C928 0.929 . S
H921 C930 0.930 . S
H922 C932 0.930 . S
H923 C935 0.929 . S
H924 C938 0.930 . S
H925 C940 0.960 . S
H926 C940 0.960 . S
H927 C940 0.960 . S
C928 H920 0.929 . S
C928 C929 1.377 . S
C928 C930 1.384 . S
C929 C928 1.377 . S
C929 C935 1.390 . S
C930 H921 0.930 . S
C930 C928 1.384 . S
C930 C931 1.372 . S
C931 C930 1.372 . S
C931 C932 1.400 . S
C931 C936 1.490 . S
C932 H922 0.930 . S
C932 C931 1.400 . S
C932 C935 1.386 . S
H933 C949 0.930 . S
H934 C950 0.931 . S
C935 H923 0.929 . S
C935 C929 1.390 . S
C935 C932 1.386 . S
C936 C931 1.490 . S
C936 C938 1.395 . S
C936 C939 1.403 . S
H937 C943 0.930 . S
C938 H924 0.930 . S
C938 C936 1.395 . S
C938 C941 1.403 . S
C939 C936 1.403 . S
C939 C940 1.524 . S
C939 C943 1.400 . S
C940 H925 0.960 . S
C940 H926 0.960 . S
C940 H927 0.960 . S
C940 C939 1.524 . S
C941 C938 1.403 . S
C941 C942 1.392 . S
C941 C945 1.495 . S
C942 C941 1.392 . S
C942 C943 1.385 . S
C942 C944 1.478 . S
C943 H937 0.930 . S
C943 C939 1.400 . S
C943 C942 1.385 . S
C944 C942 1.478 . S
C944 C946 1.381 . S
C944 C950 1.383 . S
C945 C941 1.495 . S
C945 H951 0.959 . S
C945 H952 0.961 . S
C945 H953 0.960 . S
C946 C944 1.381 . S
C946 C947 1.394 . S
C946 H954 0.930 . S
C947 C946 1.394 . S
C947 C948 1.383 . S
C947 H955 0.929 . S
C948 C947 1.383 . S
C948 C949 1.377 . S
C949 H933 0.930 . S
C949 C948 1.377 . S
C949 C950 1.379 . S
C950 H934 0.931 . S
C950 C944 1.383 . S
C950 C949 1.379 . S
H951 C945 0.959 . S
H952 C945 0.961 . S
H953 C945 0.960 . S
H954 C946 0.930 . S
H955 C947 0.929 . S
H956 C964 0.929 . S
H957 C966 0.930 . S
H958 C968 0.930 . S
H959 C971 0.929 . S
H960 C974 0.930 . S
H961 C976 0.960 . S
H962 C976 0.960 . S
H963 C976 0.960 . S
C964 H956 0.929 . S
C964 C965 1.377 . S
C964 C966 1.384 . S
C965 C964 1.377 . S
C965 C971 1.390 . S
C966 H957 0.930 . S
C966 C964 1.384 . S
C966 C967 1.372 . S
C967 C966 1.372 . S
C967 C968 1.400 . S
C967 C972 1.490 . S
C968 H958 0.930 . S
C968 C967 1.400 . S
C968 C971 1.386 . S
H969 C985 0.930 . S
H970 C986 0.931 . S
C971 H959 0.929 . S
C971 C965 1.390 . S
C971 C968 1.386 . S
C972 C967 1.490 . S
C972 C974 1.395 . S
C972 C975 1.403 . S
H973 C979 0.930 . S
C974 H960 0.930 . S
C974 C972 1.395 . S
C974 C977 1.403 . S
C975 C972 1.403 . S
C975 C976 1.524 . S
C975 C979 1.400 . S
C976 H961 0.960 . S
C976 H962 0.960 . S
C976 H963 0.960 . S
C976 C975 1.524 . S
C977 C974 1.403 . S
C977 C978 1.392 . S
C977 C981 1.495 . S
C978 C977 1.392 . S
C978 C979 1.385 . S
C978 C980 1.478 . S
C979 H973 0.930 . S
C979 C975 1.400 . S
C979 C978 1.385 . S
C980 C978 1.478 . S
C980 C982 1.381 . S
C980 C986 1.383 . S
C981 C977 1.495 . S
C981 H987 0.959 . S
C981 H988 0.961 . S
C981 H989 0.960 . S
C982 C980 1.381 . S
C982 C983 1.394 . S
C982 H990 0.930 . S
C983 C982 1.394 . S
C983 C984 1.383 . S
C983 H991 0.929 . S
C984 C983 1.383 . S
C984 C985 1.377 . S
C985 H969 0.930 . S
C985 C984 1.377 . S
C985 C986 1.379 . S
C986 H970 0.931 . S
C986 C980 1.383 . S
C986 C985 1.379 . S
H987 C981 0.959 . S
H988 C981 0.961 . S
H989 C981 0.960 . S
H990 C982 0.930 . S
H991 C983 0.929 . S
H992 C1000 0.929 . S
H993 C1002 0.930 . S
H994 C1004 0.930 . S
H995 C1007 0.929 . S
H996 C1010 0.930 . S
H997 C1012 0.960 . S
H998 C1012 0.960 . S
H999 C1012 0.960 . S
C1000 H992 0.929 . S
C1000 C1001 1.377 . S
C1000 C1002 1.384 . S
C1001 C1000 1.377 . S
C1001 C1007 1.390 . S
C1002 H993 0.930 . S
C1002 C1000 1.384 . S
C1002 C1003 1.372 . S
C1003 C1002 1.372 . S
C1003 C1004 1.400 . S
C1003 C1008 1.490 . S
C1004 H994 0.930 . S
C1004 C1003 1.400 . S
C1004 C1007 1.386 . S
H1005 C1021 0.930 . S
H1006 C1022 0.931 . S
C1007 H995 0.929 . S
C1007 C1001 1.390 . S
C1007 C1004 1.386 . S
C1008 C1003 1.490 . S
C1008 C1010 1.395 . S
C1008 C1011 1.403 . S
H1009 C1015 0.930 . S
C1010 H996 0.930 . S
C1010 C1008 1.395 . S
C1010 C1013 1.403 . S
C1011 C1008 1.403 . S
C1011 C1012 1.524 . S
C1011 C1015 1.400 . S
C1012 H997 0.960 . S
C1012 H998 0.960 . S
C1012 H999 0.960 . S
C1012 C1011 1.524 . S
C1013 C1010 1.403 . S
C1013 C1014 1.392 . S
C1013 C1017 1.495 . S
C1014 C1013 1.392 . S
C1014 C1015 1.385 . S
C1014 C1016 1.478 . S
C1015 H1009 0.930 . S
C1015 C1011 1.400 . S
C1015 C1014 1.385 . S
C1016 C1014 1.478 . S
C1016 C1018 1.381 . S
C1016 C1022 1.383 . S
C1017 C1013 1.495 . S
C1017 H1023 0.959 . S
C1017 H1024 0.961 . S
C1017 H1025 0.960 . S
C1018 C1016 1.381 . S
C1018 C1019 1.394 . S
C1018 H1026 0.930 . S
C1019 C1018 1.394 . S
C1019 C1020 1.383 . S
C1019 H1027 0.929 . S
C1020 C1019 1.383 . S
C1020 C1021 1.377 . S
C1021 H1005 0.930 . S
C1021 C1020 1.377 . S
C1021 C1022 1.379 . S
C1022 H1006 0.931 . S
C1022 C1016 1.383 . S
C1022 C1021 1.379 . S
H1023 C1017 0.959 . S
H1024 C1017 0.961 . S
H1025 C1017 0.960 . S
H1026 C1018 0.930 . S
H1027 C1019 0.929 . S
H1028 C1036 0.929 . S
H1029 C1038 0.930 . S
H1030 C1040 0.930 . S
H1031 C1043 0.929 . S
H1032 C1046 0.930 . S
H1033 C1048 0.960 . S
H1034 C1048 0.960 . S
H1035 C1048 0.960 . S
C1036 H1028 0.929 . S
C1036 C1037 1.377 . S
C1036 C1038 1.384 . S
C1037 C1036 1.377 . S
C1037 C1043 1.390 . S
C1038 H1029 0.930 . S
C1038 C1036 1.384 . S
C1038 C1039 1.372 . S
C1039 C1038 1.372 . S
C1039 C1040 1.400 . S
C1039 C1044 1.490 . S
C1040 H1030 0.930 . S
C1040 C1039 1.400 . S
C1040 C1043 1.386 . S
H1041 C1057 0.930 . S
H1042 C1058 0.931 . S
C1043 H1031 0.929 . S
C1043 C1037 1.390 . S
C1043 C1040 1.386 . S
C1044 C1039 1.490 . S
C1044 C1046 1.395 . S
C1044 C1047 1.403 . S
H1045 C1051 0.930 . S
C1046 H1032 0.930 . S
C1046 C1044 1.395 . S
C1046 C1049 1.403 . S
C1047 C1044 1.403 . S
C1047 C1048 1.524 . S
C1047 C1051 1.400 . S
C1048 H1033 0.960 . S
C1048 H1034 0.960 . S
C1048 H1035 0.960 . S
C1048 C1047 1.524 . S
C1049 C1046 1.403 . S
C1049 C1050 1.392 . S
C1049 C1053 1.495 . S
C1050 C1049 1.392 . S
C1050 C1051 1.385 . S
C1050 C1052 1.478 . S
C1051 H1045 0.930 . S
C1051 C1047 1.400 . S
C1051 C1050 1.385 . S
C1052 C1050 1.478 . S
C1052 C1054 1.381 . S
C1052 C1058 1.383 . S
C1053 C1049 1.495 . S
C1053 H1059 0.959 . S
C1053 H1060 0.961 . S
C1053 H1061 0.960 . S
C1054 C1052 1.381 . S
C1054 C1055 1.394 . S
C1054 H1062 0.930 . S
C1055 C1054 1.394 . S
C1055 C1056 1.383 . S
C1055 H1063 0.929 . S
C1056 C1055 1.383 . S
C1056 C1057 1.377 . S
C1057 H1041 0.930 . S
C1057 C1056 1.377 . S
C1057 C1058 1.379 . S
C1058 H1042 0.931 . S
C1058 C1052 1.383 . S
C1058 C1057 1.379 . S
H1059 C1053 0.959 . S
H1060 C1053 0.961 . S
H1061 C1053 0.960 . S
H1062 C1054 0.930 . S
H1063 C1055 0.929 . S
H1064 C1072 0.929 . S
H1065 C1074 0.930 . S
H1066 C1076 0.930 . S
H1067 C1079 0.929 . S
H1068 C1082 0.930 . S
H1069 C1084 0.960 . S
H1070 C1084 0.960 . S
H1071 C1084 0.960 . S
C1072 H1064 0.929 . S
C1072 C1073 1.377 . S
C1072 C1074 1.384 . S
C1073 C1072 1.377 . S
C1073 C1079 1.390 . S
C1074 H1065 0.930 . S
C1074 C1072 1.384 . S
C1074 C1075 1.372 . S
C1075 C1074 1.372 . S
C1075 C1076 1.400 . S
C1075 C1080 1.490 . S
C1076 H1066 0.930 . S
C1076 C1075 1.400 . S
C1076 C1079 1.386 . S
H1077 C1093 0.930 . S
H1078 C1094 0.931 . S
C1079 H1067 0.929 . S
C1079 C1073 1.390 . S
C1079 C1076 1.386 . S
C1080 C1075 1.490 . S
C1080 C1082 1.395 . S
C1080 C1083 1.403 . S
H1081 C1087 0.930 . S
C1082 H1068 0.930 . S
C1082 C1080 1.395 . S
C1082 C1085 1.403 . S
C1083 C1080 1.403 . S
C1083 C1084 1.524 . S
C1083 C1087 1.400 . S
C1084 H1069 0.960 . S
C1084 H1070 0.960 . S
C1084 H1071 0.960 . S
C1084 C1083 1.524 . S
C1085 C1082 1.403 . S
C1085 C1086 1.392 . S
C1085 C1089 1.495 . S
C1086 C1085 1.392 . S
C1086 C1087 1.385 . S
C1086 C1088 1.478 . S
C1087 H1081 0.930 . S
C1087 C1083 1.400 . S
C1087 C1086 1.385 . S
C1088 C1086 1.478 . S
C1088 C1090 1.381 . S
C1088 C1094 1.383 . S
C1089 C1085 1.495 . S
C1089 H1095 0.959 . S
C1089 H1096 0.961 . S
C1089 H1097 0.960 . S
C1090 C1088 1.381 . S
C1090 C1091 1.394 . S
C1090 H1098 0.930 . S
C1091 C1090 1.394 . S
C1091 C1092 1.383 . S
C1091 H1099 0.929 . S
C1092 C1091 1.383 . S
C1092 C1093 1.377 . S
C1093 H1077 0.930 . S
C1093 C1092 1.377 . S
C1093 C1094 1.379 . S
C1094 H1078 0.931 . S
C1094 C1088 1.383 . S
C1094 C1093 1.379 . S
H1095 C1089 0.959 . S
H1096 C1089 0.961 . S
H1097 C1089 0.960 . S
H1098 C1090 0.930 . S
H1099 C1091 0.929 . S
H1100 C1108 0.929 . S
H1101 C1110 0.930 . S
H1102 C1112 0.930 . S
H1103 C1115 0.929 . S
H1104 C1118 0.930 . S
H1105 C1120 0.960 . S
H1106 C1120 0.960 . S
H1107 C1120 0.960 . S
C1108 H1100 0.929 . S
C1108 C1109 1.377 . S
C1108 C1110 1.384 . S
C1109 C1108 1.377 . S
C1109 C1115 1.390 . S
C1110 H1101 0.930 . S
C1110 C1108 1.384 . S
C1110 C1111 1.372 . S
C1111 C1110 1.372 . S
C1111 C1112 1.400 . S
C1111 C1116 1.490 . S
C1112 H1102 0.930 . S
C1112 C1111 1.400 . S
C1112 C1115 1.386 . S
H1113 C1129 0.930 . S
H1114 C1130 0.931 . S
C1115 H1103 0.929 . S
C1115 C1109 1.390 . S
C1115 C1112 1.386 . S
C1116 C1111 1.490 . S
C1116 C1118 1.395 . S
C1116 C1119 1.403 . S
H1117 C1123 0.930 . S
C1118 H1104 0.930 . S
C1118 C1116 1.395 . S
C1118 C1121 1.403 . S
C1119 C1116 1.403 . S
C1119 C1120 1.524 . S
C1119 C1123 1.400 . S
C1120 H1105 0.960 . S
C1120 H1106 0.960 . S
C1120 H1107 0.960 . S
C1120 C1119 1.524 . S
C1121 C1118 1.403 . S
C1121 C1122 1.392 . S
C1121 C1125 1.495 . S
C1122 C1121 1.392 . S
C1122 C1123 1.385 . S
C1122 C1124 1.478 . S
C1123 H1117 0.930 . S
C1123 C1119 1.400 . S
C1123 C1122 1.385 . S
C1124 C1122 1.478 . S
C1124 C1126 1.381 . S
C1124 C1130 1.383 . S
C1125 C1121 1.495 . S
C1125 H1131 0.959 . S
C1125 H1132 0.961 . S
C1125 H1133 0.960 . S
C1126 C1124 1.381 . S
C1126 C1127 1.394 . S
C1126 H1134 0.930 . S
C1127 C1126 1.394 . S
C1127 C1128 1.383 . S
C1127 H1135 0.929 . S
C1128 C1127 1.383 . S
C1128 C1129 1.377 . S
C1129 H1113 0.930 . S
C1129 C1128 1.377 . S
C1129 C1130 1.379 . S
C1130 H1114 0.931 . S
C1130 C1124 1.383 . S
C1130 C1129 1.379 . S
H1131 C1125 0.959 . S
H1132 C1125 0.961 . S
H1133 C1125 0.960 . S
H1134 C1126 0.930 . S
H1135 C1127 0.929 . S
H1136 C1144 0.929 . S
H1137 C1146 0.930 . S
H1138 C1148 0.930 . S
H1139 C1151 0.929 . S
H1140 C1154 0.930 . S
H1141 C1156 0.960 . S
H1142 C1156 0.960 . S
H1143 C1156 0.960 . S
C1144 H1136 0.929 . S
C1144 C1145 1.377 . S
C1144 C1146 1.384 . S
C1145 C1144 1.377 . S
C1145 C1151 1.390 . S
C1146 H1137 0.930 . S
C1146 C1144 1.384 . S
C1146 C1147 1.372 . S
C1147 C1146 1.372 . S
C1147 C1148 1.400 . S
C1147 C1152 1.490 . S
C1148 H1138 0.930 . S
C1148 C1147 1.400 . S
C1148 C1151 1.386 . S
H1149 C1165 0.930 . S
H1150 C1166 0.931 . S
C1151 H1139 0.929 . S
C1151 C1145 1.390 . S
C1151 C1148 1.386 . S
C1152 C1147 1.490 . S
C1152 C1154 1.395 . S
C1152 C1155 1.403 . S
H1153 C1159 0.930 . S
C1154 H1140 0.930 . S
C1154 C1152 1.395 . S
C1154 C1157 1.403 . S
C1155 C1152 1.403 . S
C1155 C1156 1.524 . S
C1155 C1159 1.400 . S
C1156 H1141 0.960 . S
C1156 H1142 0.960 . S
C1156 H1143 0.960 . S
C1156 C1155 1.524 . S
C1157 C1154 1.403 . S
C1157 C1158 1.392 . S
C1157 C1161 1.495 . S
C1158 C1157 1.392 . S
C1158 C1159 1.385 . S
C1158 C1160 1.478 . S
C1159 H1153 0.930 . S
C1159 C1155 1.400 . S
C1159 C1158 1.385 . S
C1160 C1158 1.478 . S
C1160 C1162 1.381 . S
C1160 C1166 1.383 . S
C1161 C1157 1.495 . S
C1161 H1167 0.959 . S
C1161 H1168 0.961 . S
C1161 H1169 0.960 . S
C1162 C1160 1.381 . S
C1162 C1163 1.394 . S
C1162 H1170 0.930 . S
C1163 C1162 1.394 . S
C1163 C1164 1.383 . S
C1163 H1171 0.929 . S
C1164 C1163 1.383 . S
C1164 C1165 1.377 . S
C1165 H1149 0.930 . S
C1165 C1164 1.377 . S
C1165 C1166 1.379 . S
C1166 H1150 0.931 . S
C1166 C1160 1.383 . S
C1166 C1165 1.379 . S
H1167 C1161 0.959 . S
H1168 C1161 0.961 . S
H1169 C1161 0.960 . S
H1170 C1162 0.930 . S
H1171 C1163 0.929 . S
H1172 C1180 0.929 . S
H1173 C1182 0.930 . S
H1174 C1184 0.930 . S
H1175 C1187 0.929 . S
H1176 C1190 0.930 . S
H1177 C1192 0.960 . S
H1178 C1192 0.960 . S
H1179 C1192 0.960 . S
C1180 H1172 0.929 . S
C1180 C1181 1.377 . S
C1180 C1182 1.384 . S
C1181 C1180 1.377 . S
C1181 C1187 1.390 . S
C1182 H1173 0.930 . S
C1182 C1180 1.384 . S
C1182 C1183 1.372 . S
C1183 C1182 1.372 . S
C1183 C1184 1.400 . S
C1183 C1188 1.490 . S
C1184 H1174 0.930 . S
C1184 C1183 1.400 . S
C1184 C1187 1.386 . S
H1185 C1201 0.930 . S
H1186 C1202 0.931 . S
C1187 H1175 0.929 . S
C1187 C1181 1.390 . S
C1187 C1184 1.386 . S
C1188 C1183 1.490 . S
C1188 C1190 1.395 . S
C1188 C1191 1.403 . S
H1189 C1195 0.930 . S
C1190 H1176 0.930 . S
C1190 C1188 1.395 . S
C1190 C1193 1.403 . S
C1191 C1188 1.403 . S
C1191 C1192 1.524 . S
C1191 C1195 1.400 . S
C1192 H1177 0.960 . S
C1192 H1178 0.960 . S
C1192 H1179 0.960 . S
C1192 C1191 1.524 . S
C1193 C1190 1.403 . S
C1193 C1194 1.392 . S
C1193 C1197 1.495 . S
C1194 C1193 1.392 . S
C1194 C1195 1.385 . S
C1194 C1196 1.478 . S
C1195 H1189 0.930 . S
C1195 C1191 1.400 . S
C1195 C1194 1.385 . S
C1196 C1194 1.478 . S
C1196 C1198 1.381 . S
C1196 C1202 1.383 . S
C1197 C1193 1.495 . S
C1197 H1203 0.959 . S
C1197 H1204 0.961 . S
C1197 H1205 0.960 . S
C1198 C1196 1.381 . S
C1198 C1199 1.394 . S
C1198 H1206 0.930 . S
C1199 C1198 1.394 . S
C1199 C1200 1.383 . S
C1199 H1207 0.933 1_455 S
C1200 C1199 1.383 . S
C1200 C1201 1.377 . S
C1201 H1185 0.930 . S
C1201 C1200 1.377 . S
C1201 C1202 1.379 . S
C1202 H1186 0.931 . S
C1202 C1196 1.383 . S
C1202 C1201 1.379 . S
H1203 C1197 0.959 . S
H1204 C1197 0.961 . S
H1205 C1197 0.960 . S
H1206 C1198 0.930 . S
H1207 C1199 0.933 1_655 S
H1208 C1216 0.929 . S
H1209 C1218 0.930 . S
H1210 C1220 0.930 . S
H1211 C1223 0.929 . S
H1212 C1226 0.930 . S
H1213 C1228 0.960 . S
H1214 C1228 0.960 . S
H1215 C1228 0.960 . S
C1216 H1208 0.929 . S
C1216 C1217 1.377 . S
C1216 C1218 1.384 . S
C1217 C1216 1.377 . S
C1217 C1223 1.390 . S
C1218 H1209 0.930 . S
C1218 C1216 1.384 . S
C1218 C1219 1.372 . S
C1219 C1218 1.372 . S
C1219 C1220 1.400 . S
C1219 C1224 1.490 . S
C1220 H1210 0.930 . S
C1220 C1219 1.400 . S
C1220 C1223 1.386 . S
H1221 C1237 0.930 . S
H1222 C1238 0.931 . S
C1223 H1211 0.929 . S
C1223 C1217 1.390 . S
C1223 C1220 1.386 . S
C1224 C1219 1.490 . S
C1224 C1226 1.395 . S
C1224 C1227 1.403 . S
H1225 C1231 0.930 . S
C1226 H1212 0.930 . S
C1226 C1224 1.395 . S
C1226 C1229 1.403 . S
C1227 C1224 1.403 . S
C1227 C1228 1.524 . S
C1227 C1231 1.400 . S
C1228 H1213 0.960 . S
C1228 H1214 0.960 . S
C1228 H1215 0.960 . S
C1228 C1227 1.524 . S
C1229 C1226 1.403 . S
C1229 C1230 1.392 . S
C1229 C1233 1.495 . S
C1230 C1229 1.392 . S
C1230 C1231 1.385 . S
C1230 C1232 1.478 . S
C1231 H1225 0.930 . S
C1231 C1227 1.400 . S
C1231 C1230 1.385 . S
C1232 C1230 1.478 . S
C1232 C1234 1.381 . S
C1232 C1238 1.383 . S
C1233 C1229 1.495 . S
C1233 H1239 0.959 . S
C1233 H1240 0.961 . S
C1233 H1241 0.960 . S
C1234 C1232 1.381 . S
C1234 C1235 1.394 . S
C1234 H1242 0.930 . S
C1235 C1234 1.394 . S
C1235 C1236 1.383 . S
C1235 H1243 0.929 . S
C1236 C1235 1.383 . S
C1236 C1237 1.377 . S
C1237 H1221 0.930 . S
C1237 C1236 1.377 . S
C1237 C1238 1.379 . S
C1238 H1222 0.931 . S
C1238 C1232 1.383 . S
C1238 C1237 1.379 . S
H1239 C1233 0.959 . S
H1240 C1233 0.961 . S
H1241 C1233 0.960 . S
H1242 C1234 0.930 . S
H1243 C1235 0.929 . S
H1244 C1252 0.929 . S
H1245 C1254 0.930 . S
H1246 C1256 0.930 . S
H1247 C1259 0.929 . S
H1248 C1262 0.930 . S
H1249 C1264 0.960 . S
H1250 C1264 0.960 . S
H1251 C1264 0.960 . S
C1252 H1244 0.929 . S
C1252 C1253 1.377 . S
C1252 C1254 1.384 . S
C1253 C1252 1.377 . S
C1253 C1259 1.390 . S
C1254 H1245 0.930 . S
C1254 C1252 1.384 . S
C1254 C1255 1.372 . S
C1255 C1254 1.372 . S
C1255 C1256 1.400 . S
C1255 C1260 1.490 . S
C1256 H1246 0.930 . S
C1256 C1255 1.400 . S
C1256 C1259 1.386 . S
H1257 C1273 0.930 . S
H1258 C1274 0.931 . S
C1259 H1247 0.929 . S
C1259 C1253 1.390 . S
C1259 C1256 1.386 . S
C1260 C1255 1.490 . S
C1260 C1262 1.395 . S
C1260 C1263 1.403 . S
H1261 C1267 0.930 . S
C1262 H1248 0.930 . S
C1262 C1260 1.395 . S
C1262 C1265 1.403 . S
C1263 C1260 1.403 . S
C1263 C1264 1.524 . S
C1263 C1267 1.400 . S
C1264 H1249 0.960 . S
C1264 H1250 0.960 . S
C1264 H1251 0.960 . S
C1264 C1263 1.524 . S
C1265 C1262 1.403 . S
C1265 C1266 1.392 . S
C1265 C1269 1.495 . S
C1266 C1265 1.392 . S
C1266 C1267 1.385 . S
C1266 C1268 1.478 . S
C1267 H1261 0.930 . S
C1267 C1263 1.400 . S
C1267 C1266 1.385 . S
C1268 C1266 1.478 . S
C1268 C1270 1.381 . S
C1268 C1274 1.383 . S
C1269 C1265 1.495 . S
C1269 H1275 0.959 . S
C1269 H1276 0.961 . S
C1269 H1277 0.960 . S
C1270 C1268 1.381 . S
C1270 C1271 1.394 . S
C1270 H1278 0.930 . S
C1271 C1270 1.394 . S
C1271 C1272 1.383 . S
C1271 H1279 0.929 . S
C1272 C1271 1.383 . S
C1272 C1273 1.377 . S
C1273 H1257 0.930 . S
C1273 C1272 1.377 . S
C1273 C1274 1.379 . S
C1274 H1258 0.931 . S
C1274 C1268 1.383 . S
C1274 C1273 1.379 . S
H1275 C1269 0.959 . S
H1276 C1269 0.961 . S
H1277 C1269 0.960 . S
H1278 C1270 0.930 . S
H1279 C1271 0.929 . S
H1280 C1288 0.929 . S
H1281 C1290 0.930 . S
H1282 C1292 0.930 . S
H1283 C1295 0.929 . S
H1284 C1298 0.930 . S
H1285 C1300 0.960 . S
H1286 C1300 0.960 . S
H1287 C1300 0.960 . S
C1288 H1280 0.929 . S
C1288 C1289 1.377 . S
C1288 C1290 1.384 . S
C1289 C1288 1.377 . S
C1289 C1295 1.390 . S
C1290 H1281 0.930 . S
C1290 C1288 1.384 . S
C1290 C1291 1.372 . S
C1291 C1290 1.372 . S
C1291 C1292 1.400 . S
C1291 C1296 1.490 . S
C1292 H1282 0.930 . S
C1292 C1291 1.400 . S
C1292 C1295 1.386 . S
H1293 C1309 0.930 . S
H1294 C1310 0.931 . S
C1295 H1283 0.929 . S
C1295 C1289 1.390 . S
C1295 C1292 1.386 . S
C1296 C1291 1.490 . S
C1296 C1298 1.395 . S
C1296 C1299 1.403 . S
H1297 C1303 0.930 . S
C1298 H1284 0.930 . S
C1298 C1296 1.395 . S
C1298 C1301 1.403 . S
C1299 C1296 1.403 . S
C1299 C1300 1.524 . S
C1299 C1303 1.400 . S
C1300 H1285 0.960 . S
C1300 H1286 0.960 . S
C1300 H1287 0.960 . S
C1300 C1299 1.524 . S
C1301 C1298 1.403 . S
C1301 C1302 1.392 . S
C1301 C1305 1.495 . S
C1302 C1301 1.392 . S
C1302 C1303 1.385 . S
C1302 C1304 1.478 . S
C1303 H1297 0.930 . S
C1303 C1299 1.400 . S
C1303 C1302 1.385 . S
C1304 C1302 1.478 . S
C1304 C1306 1.381 . S
C1304 C1310 1.383 . S
C1305 C1301 1.495 . S
C1305 H1311 0.959 . S
C1305 H1312 0.961 . S
C1305 H1313 0.960 . S
C1306 C1304 1.381 . S
C1306 C1307 1.394 . S
C1306 H1314 0.930 . S
C1307 C1306 1.394 . S
C1307 C1308 1.383 . S
C1307 H1315 0.929 . S
C1308 C1307 1.383 . S
C1308 C1309 1.377 . S
C1309 H1293 0.930 . S
C1309 C1308 1.377 . S
C1309 C1310 1.379 . S
C1310 H1294 0.931 . S
C1310 C1304 1.383 . S
C1310 C1309 1.379 . S
H1311 C1305 0.959 . S
H1312 C1305 0.961 . S
H1313 C1305 0.960 . S
H1314 C1306 0.930 . S
H1315 C1307 0.929 . S
H1316 C1324 0.929 . S
H1317 C1326 0.930 . S
H1318 C1328 0.930 . S
H1319 C1331 0.929 . S
H1320 C1334 0.930 . S
H1321 C1336 0.960 . S
H1322 C1336 0.960 . S
H1323 C1336 0.960 . S
C1324 H1316 0.929 . S
C1324 C1325 1.377 . S
C1324 C1326 1.384 . S
C1325 C1324 1.377 . S
C1325 C1331 1.390 . S
C1326 H1317 0.930 . S
C1326 C1324 1.384 . S
C1326 C1327 1.372 . S
C1327 C1326 1.372 . S
C1327 C1328 1.400 . S
C1327 C1332 1.490 . S
C1328 H1318 0.930 . S
C1328 C1327 1.400 . S
C1328 C1331 1.386 . S
H1329 C1345 0.930 . S
H1330 C1346 0.931 . S
C1331 H1319 0.929 . S
C1331 C1325 1.390 . S
C1331 C1328 1.386 . S
C1332 C1327 1.490 . S
C1332 C1334 1.395 . S
C1332 C1335 1.403 . S
H1333 C1339 0.930 . S
C1334 H1320 0.930 . S
C1334 C1332 1.395 . S
C1334 C1337 1.403 . S
C1335 C1332 1.403 . S
C1335 C1336 1.524 . S
C1335 C1339 1.400 . S
C1336 H1321 0.960 . S
C1336 H1322 0.960 . S
C1336 H1323 0.960 . S
C1336 C1335 1.524 . S
C1337 C1334 1.403 . S
C1337 C1338 1.392 . S
C1337 C1341 1.495 . S
C1338 C1337 1.392 . S
C1338 C1339 1.385 . S
C1338 C1340 1.478 . S
C1339 H1333 0.930 . S
C1339 C1335 1.400 . S
C1339 C1338 1.385 . S
C1340 C1338 1.478 . S
C1340 C1342 1.381 . S
C1340 C1346 1.383 . S
C1341 C1337 1.495 . S
C1341 H1347 0.959 . S
C1341 H1348 0.961 . S
C1341 H1349 0.960 . S
C1342 C1340 1.381 . S
C1342 C1343 1.394 . S
C1342 H1350 0.930 . S
C1343 C1342 1.394 . S
C1343 C1344 1.383 . S
C1343 H1351 0.929 . S
C1344 C1343 1.383 . S
C1344 C1345 1.377 . S
C1345 H1329 0.930 . S
C1345 C1344 1.377 . S
C1345 C1346 1.379 . S
C1346 H1330 0.931 . S
C1346 C1340 1.383 . S
C1346 C1345 1.379 . S
H1347 C1341 0.959 . S
H1348 C1341 0.961 . S
H1349 C1341 0.960 . S
H1350 C1342 0.930 . S
H1351 C1343 0.929 . S
H1352 C1360 0.929 . S
H1353 C1362 0.930 . S
H1354 C1364 0.930 . S
H1355 C1367 0.929 . S
H1356 C1370 0.930 . S
H1357 C1372 0.960 . S
H1358 C1372 0.960 . S
H1359 C1372 0.960 . S
C1360 H1352 0.929 . S
C1360 C1361 1.377 . S
C1360 C1362 1.384 . S
C1361 C1360 1.377 . S
C1361 C1367 1.390 . S
C1362 H1353 0.930 . S
C1362 C1360 1.384 . S
C1362 C1363 1.372 . S
C1363 C1362 1.372 . S
C1363 C1364 1.400 . S
C1363 C1368 1.490 . S
C1364 H1354 0.930 . S
C1364 C1363 1.400 . S
C1364 C1367 1.386 . S
H1365 C1381 0.930 . S
H1366 C1382 0.931 . S
C1367 H1355 0.929 . S
C1367 C1361 1.390 . S
C1367 C1364 1.386 . S
C1368 C1363 1.490 . S
C1368 C1370 1.395 . S
C1368 C1371 1.403 . S
H1369 C1375 0.930 . S
C1370 H1356 0.930 . S
C1370 C1368 1.395 . S
C1370 C1373 1.403 . S
C1371 C1368 1.403 . S
C1371 C1372 1.524 . S
C1371 C1375 1.400 . S
C1372 H1357 0.960 . S
C1372 H1358 0.960 . S
C1372 H1359 0.960 . S
C1372 C1371 1.524 . S
C1373 C1370 1.403 . S
C1373 C1374 1.392 . S
C1373 C1377 1.495 . S
C1374 C1373 1.392 . S
C1374 C1375 1.385 . S
C1374 C1376 1.478 . S
C1375 H1369 0.930 . S
C1375 C1371 1.400 . S
C1375 C1374 1.385 . S
C1376 C1374 1.478 . S
C1376 C1378 1.381 . S
C1376 C1382 1.383 . S
C1377 C1373 1.495 . S
C1377 H1383 0.959 . S
C1377 H1384 0.961 . S
C1377 H1385 0.960 . S
C1378 C1376 1.381 . S
C1378 C1379 1.394 . S
C1378 H1386 0.930 . S
C1379 C1378 1.394 . S
C1379 C1380 1.383 . S
C1379 H1387 0.929 . S
C1380 C1379 1.383 . S
C1380 C1381 1.377 . S
C1381 H1365 0.930 . S
C1381 C1380 1.377 . S
C1381 C1382 1.379 . S
C1382 H1366 0.931 . S
C1382 C1376 1.383 . S
C1382 C1381 1.379 . S
H1383 C1377 0.959 . S
H1384 C1377 0.961 . S
H1385 C1377 0.960 . S
H1386 C1378 0.930 . S
H1387 C1379 0.929 . S
H1388 C1396 0.929 . S
H1389 C1398 0.930 . S
H1390 C1400 0.930 . S
H1391 C1403 0.929 . S
H1392 C1406 0.930 . S
H1393 C1408 0.960 . S
H1394 C1408 0.960 . S
H1395 C1408 0.960 . S
C1396 H1388 0.929 . S
C1396 C1397 1.377 . S
C1396 C1398 1.384 . S
C1397 C1396 1.377 . S
C1397 C1403 1.390 . S
C1398 H1389 0.930 . S
C1398 C1396 1.384 . S
C1398 C1399 1.372 . S
C1399 C1398 1.372 . S
C1399 C1400 1.400 . S
C1399 C1404 1.490 . S
C1400 H1390 0.930 . S
C1400 C1399 1.400 . S
C1400 C1403 1.386 . S
H1401 C1417 0.930 . S
H1402 C1418 0.931 . S
C1403 H1391 0.929 . S
C1403 C1397 1.390 . S
C1403 C1400 1.386 . S
C1404 C1399 1.490 . S
C1404 C1406 1.395 . S
C1404 C1407 1.403 . S
H1405 C1411 0.930 . S
C1406 H1392 0.930 . S
C1406 C1404 1.395 . S
C1406 C1409 1.403 . S
C1407 C1404 1.403 . S
C1407 C1408 1.524 . S
C1407 C1411 1.400 . S
C1408 H1393 0.960 . S
C1408 H1394 0.960 . S
C1408 H1395 0.960 . S
C1408 C1407 1.524 . S
C1409 C1406 1.403 . S
C1409 C1410 1.392 . S
C1409 C1413 1.495 . S
C1410 C1409 1.392 . S
C1410 C1411 1.385 . S
C1410 C1412 1.478 . S
C1411 H1405 0.930 . S
C1411 C1407 1.400 . S
C1411 C1410 1.385 . S
C1412 C1410 1.478 . S
C1412 C1414 1.381 . S
C1412 C1418 1.383 . S
C1413 C1409 1.495 . S
C1413 H1419 0.959 . S
C1413 H1420 0.961 . S
C1413 H1421 0.960 . S
C1414 C1412 1.381 . S
C1414 C1415 1.394 . S
C1414 H1422 0.930 . S
C1415 C1414 1.394 . S
C1415 C1416 1.383 . S
C1415 H1423 0.929 . S
C1416 C1415 1.383 . S
C1416 C1417 1.377 . S
C1417 H1401 0.930 . S
C1417 C1416 1.377 . S
C1417 C1418 1.379 . S
C1418 H1402 0.931 . S
C1418 C1412 1.383 . S
C1418 C1417 1.379 . S
H1419 C1413 0.959 . S
H1420 C1413 0.961 . S
H1421 C1413 0.960 . S
H1422 C1414 0.930 . S
H1423 C1415 0.929 . S
H1424 C1432 0.929 . S
H1425 C1434 0.930 . S
H1426 C1436 0.930 . S
H1427 C1439 0.929 . S
H1428 C1442 0.930 . S
H1429 C1444 0.960 . S
H1430 C1444 0.960 . S
H1431 C1444 0.960 . S
C1432 H1424 0.929 . S
C1432 C1433 1.377 . S
C1432 C1434 1.384 . S
C1433 C1432 1.377 . S
C1433 C1439 1.390 . S
C1434 H1425 0.930 . S
C1434 C1432 1.384 . S
C1434 C1435 1.372 . S
C1435 C1434 1.372 . S
C1435 C1436 1.400 . S
C1435 C1440 1.490 . S
C1436 H1426 0.930 . S
C1436 C1435 1.400 . S
C1436 C1439 1.386 . S
H1437 C1453 0.930 . S
H1438 C1454 0.931 . S
C1439 H1427 0.929 . S
C1439 C1433 1.390 . S
C1439 C1436 1.386 . S
C1440 C1435 1.490 . S
C1440 C1442 1.395 . S
C1440 C1443 1.403 . S
H1441 C1447 0.930 . S
C1442 H1428 0.930 . S
C1442 C1440 1.395 . S
C1442 C1445 1.403 . S
C1443 C1440 1.403 . S
C1443 C1444 1.524 . S
C1443 C1447 1.400 . S
C1444 H1429 0.960 . S
C1444 H1430 0.960 . S
C1444 H1431 0.960 . S
C1444 C1443 1.524 . S
C1445 C1442 1.403 . S
C1445 C1446 1.392 . S
C1445 C1449 1.495 . S
C1446 C1445 1.392 . S
C1446 C1447 1.385 . S
C1446 C1448 1.478 . S
C1447 H1441 0.930 . S
C1447 C1443 1.400 . S
C1447 C1446 1.385 . S
C1448 C1446 1.478 . S
C1448 C1450 1.381 . S
C1448 C1454 1.383 . S
C1449 C1445 1.495 . S
C1449 H1455 0.959 . S
C1449 H1456 0.961 . S
C1449 H1457 0.960 . S
C1450 C1448 1.381 . S
C1450 C1451 1.394 . S
C1450 H1458 0.930 . S
C1451 C1450 1.394 . S
C1451 C1452 1.383 . S
C1451 H1459 0.929 . S
C1452 C1451 1.383 . S
C1452 C1453 1.377 . S
C1453 H1437 0.930 . S
C1453 C1452 1.377 . S
C1453 C1454 1.379 . S
C1454 H1438 0.931 . S
C1454 C1448 1.383 . S
C1454 C1453 1.379 . S
H1455 C1449 0.959 . S
H1456 C1449 0.961 . S
H1457 C1449 0.960 . S
H1458 C1450 0.930 . S
H1459 C1451 0.929 . S
H1460 C1468 0.929 . S
H1461 C1470 0.930 . S
H1462 C1472 0.930 . S
H1463 C1475 0.929 . S
H1464 C1478 0.930 . S
H1465 C1480 0.960 . S
H1466 C1480 0.960 . S
H1467 C1480 0.960 . S
C1468 H1460 0.929 . S
C1468 C1469 1.377 . S
C1468 C1470 1.384 . S
C1469 C1468 1.377 . S
C1469 C1475 1.390 . S
C1470 H1461 0.930 . S
C1470 C1468 1.384 . S
C1470 C1471 1.372 . S
C1471 C1470 1.372 . S
C1471 C1472 1.400 . S
C1471 C1476 1.490 . S
C1472 H1462 0.930 . S
C1472 C1471 1.400 . S
C1472 C1475 1.386 . S
H1473 C1489 0.930 . S
H1474 C1490 0.931 . S
C1475 H1463 0.929 . S
C1475 C1469 1.390 . S
C1475 C1472 1.386 . S
C1476 C1471 1.490 . S
C1476 C1478 1.395 . S
C1476 C1479 1.403 . S
H1477 C1483 0.930 . S
C1478 H1464 0.930 . S
C1478 C1476 1.395 . S
C1478 C1481 1.403 . S
C1479 C1476 1.403 . S
C1479 C1480 1.524 . S
C1479 C1483 1.400 . S
C1480 H1465 0.960 . S
C1480 H1466 0.960 . S
C1480 H1467 0.960 . S
C1480 C1479 1.524 . S
C1481 C1478 1.403 . S
C1481 C1482 1.392 . S
C1481 C1485 1.495 . S
C1482 C1481 1.392 . S
C1482 C1483 1.385 . S
C1482 C1484 1.478 . S
C1483 H1477 0.930 . S
C1483 C1479 1.400 . S
C1483 C1482 1.385 . S
C1484 C1482 1.478 . S
C1484 C1486 1.381 . S
C1484 C1490 1.383 . S
C1485 C1481 1.495 . S
C1485 H1491 0.959 . S
C1485 H1492 0.961 . S
C1485 H1493 0.960 . S
C1486 C1484 1.381 . S
C1486 C1487 1.394 . S
C1486 H1494 0.930 . S
C1487 C1486 1.394 . S
C1487 C1488 1.383 . S
C1487 H1495 0.929 . S
C1488 C1487 1.383 . S
C1488 C1489 1.377 . S
C1489 H1473 0.930 . S
C1489 C1488 1.377 . S
C1489 C1490 1.379 . S
C1490 H1474 0.931 . S
C1490 C1484 1.383 . S
C1490 C1489 1.379 . S
H1491 C1485 0.959 . S
H1492 C1485 0.961 . S
H1493 C1485 0.960 . S
H1494 C1486 0.930 . S
H1495 C1487 0.929 . S
H1496 C1504 0.929 . S
H1497 C1506 0.930 . S
H1498 C1508 0.930 . S
H1499 C1511 0.929 . S
H1500 C1514 0.930 . S
H1501 C1516 0.960 . S
H1502 C1516 0.960 . S
H1503 C1516 0.960 . S
C1504 H1496 0.929 . S
C1504 C1505 1.377 . S
C1504 C1506 1.384 . S
C1505 C1504 1.377 . S
C1505 C1511 1.390 . S
C1506 H1497 0.930 . S
C1506 C1504 1.384 . S
C1506 C1507 1.372 . S
C1507 C1506 1.372 . S
C1507 C1508 1.400 . S
C1507 C1512 1.490 . S
C1508 H1498 0.930 . S
C1508 C1507 1.400 . S
C1508 C1511 1.386 . S
H1509 C1525 0.930 . S
H1510 C1526 0.931 . S
C1511 H1499 0.929 . S
C1511 C1505 1.390 . S
C1511 C1508 1.386 . S
C1512 C1507 1.490 . S
C1512 C1514 1.395 . S
C1512 C1515 1.403 . S
H1513 C1519 0.930 . S
C1514 H1500 0.930 . S
C1514 C1512 1.395 . S
C1514 C1517 1.403 . S
C1515 C1512 1.403 . S
C1515 C1516 1.524 . S
C1515 C1519 1.400 . S
C1516 H1501 0.960 . S
C1516 H1502 0.960 . S
C1516 H1503 0.960 . S
C1516 C1515 1.524 . S
C1517 C1514 1.403 . S
C1517 C1518 1.392 . S
C1517 C1521 1.495 . S
C1518 C1517 1.392 . S
C1518 C1519 1.385 . S
C1518 C1520 1.478 . S
C1519 H1513 0.930 . S
C1519 C1515 1.400 . S
C1519 C1518 1.385 . S
C1520 C1518 1.478 . S
C1520 C1522 1.381 . S
C1520 C1526 1.383 . S
C1521 C1517 1.495 . S
C1521 H1527 0.959 . S
C1521 H1528 0.961 . S
C1521 H1529 0.960 . S
C1522 C1520 1.381 . S
C1522 C1523 1.394 . S
C1522 H1530 0.930 . S
C1523 C1522 1.394 . S
C1523 C1524 1.383 . S
C1523 H1531 0.929 . S
C1524 C1523 1.383 . S
C1524 C1525 1.377 . S
C1525 H1509 0.930 . S
C1525 C1524 1.377 . S
C1525 C1526 1.379 . S
C1526 H1510 0.931 . S
C1526 C1520 1.383 . S
C1526 C1525 1.379 . S
H1527 C1521 0.959 . S
H1528 C1521 0.961 . S
H1529 C1521 0.960 . S
H1530 C1522 0.930 . S
H1531 C1523 0.929 . S
H1532 C1540 0.929 . S
H1533 C1542 0.930 . S
H1534 C1544 0.930 . S
H1535 C1547 0.929 . S
H1536 C1550 0.930 . S
H1537 C1552 0.960 . S
H1538 C1552 0.960 . S
H1539 C1552 0.960 . S
C1540 H1532 0.929 . S
C1540 C1541 1.377 . S
C1540 C1542 1.384 . S
C1541 C1540 1.377 . S
C1541 C1547 1.390 . S
C1542 H1533 0.930 . S
C1542 C1540 1.384 . S
C1542 C1543 1.372 . S
C1543 C1542 1.372 . S
C1543 C1544 1.400 . S
C1543 C1548 1.490 . S
C1544 H1534 0.930 . S
C1544 C1543 1.400 . S
C1544 C1547 1.386 . S
H1545 C1561 0.930 . S
H1546 C1562 0.931 . S
C1547 H1535 0.929 . S
C1547 C1541 1.390 . S
C1547 C1544 1.386 . S
C1548 C1543 1.490 . S
C1548 C1550 1.395 . S
C1548 C1551 1.403 . S
H1549 C1555 0.930 . S
C1550 H1536 0.930 . S
C1550 C1548 1.395 . S
C1550 C1553 1.403 . S
C1551 C1548 1.403 . S
C1551 C1552 1.524 . S
C1551 C1555 1.400 . S
C1552 H1537 0.960 . S
C1552 H1538 0.960 . S
C1552 H1539 0.960 . S
C1552 C1551 1.524 . S
C1553 C1550 1.403 . S
C1553 C1554 1.392 . S
C1553 C1557 1.495 . S
C1554 C1553 1.392 . S
C1554 C1555 1.385 . S
C1554 C1556 1.478 . S
C1555 H1549 0.930 . S
C1555 C1551 1.400 . S
C1555 C1554 1.385 . S
C1556 C1554 1.478 . S
C1556 C1558 1.381 . S
C1556 C1562 1.383 . S
C1557 C1553 1.495 . S
C1557 H1563 0.959 . S
C1557 H1564 0.961 . S
C1557 H1565 0.960 . S
C1558 C1556 1.381 . S
C1558 C1559 1.394 . S
C1558 H1566 0.930 . S
C1559 C1558 1.394 . S
C1559 C1560 1.383 . S
C1559 H1567 0.929 . S
C1560 C1559 1.383 . S
C1560 C1561 1.377 . S
C1561 H1545 0.930 . S
C1561 C1560 1.377 . S
C1561 C1562 1.379 . S
C1562 H1546 0.931 . S
C1562 C1556 1.383 . S
C1562 C1561 1.379 . S
H1563 C1557 0.959 . S
H1564 C1557 0.961 . S
H1565 C1557 0.960 . S
H1566 C1558 0.930 . S
H1567 C1559 0.929 . S
H1568 C1576 0.929 . S
H1569 C1578 0.930 . S
H1570 C1580 0.930 . S
H1571 C1583 0.929 . S
H1572 C1586 0.930 . S
H1573 C1588 0.960 . S
H1574 C1588 0.960 . S
H1575 C1588 0.960 . S
C1576 H1568 0.929 . S
C1576 C1577 1.377 . S
C1576 C1578 1.384 . S
C1577 C1576 1.377 . S
C1577 C1583 1.390 . S
C1578 H1569 0.930 . S
C1578 C1576 1.384 . S
C1578 C1579 1.372 . S
C1579 C1578 1.372 . S
C1579 C1580 1.400 . S
C1579 C1584 1.490 . S
C1580 H1570 0.930 . S
C1580 C1579 1.400 . S
C1580 C1583 1.386 . S
H1581 C1597 0.930 . S
H1582 C1598 0.931 . S
C1583 H1571 0.929 . S
C1583 C1577 1.390 . S
C1583 C1580 1.386 . S
C1584 C1579 1.490 . S
C1584 C1586 1.395 . S
C1584 C1587 1.403 . S
H1585 C1591 0.930 . S
C1586 H1572 0.930 . S
C1586 C1584 1.395 . S
C1586 C1589 1.403 . S
C1587 C1584 1.403 . S
C1587 C1588 1.524 . S
C1587 C1591 1.400 . S
C1588 H1573 0.960 . S
C1588 H1574 0.960 . S
C1588 H1575 0.960 . S
C1588 C1587 1.524 . S
C1589 C1586 1.403 . S
C1589 C1590 1.392 . S
C1589 C1593 1.495 . S
C1590 C1589 1.392 . S
C1590 C1591 1.385 . S
C1590 C1592 1.478 . S
C1591 H1585 0.930 . S
C1591 C1587 1.400 . S
C1591 C1590 1.385 . S
C1592 C1590 1.478 . S
C1592 C1594 1.381 . S
C1592 C1598 1.383 . S
C1593 C1589 1.495 . S
C1593 H1599 0.959 . S
C1593 H1600 0.961 . S
C1593 H1601 0.960 . S
C1594 C1592 1.381 . S
C1594 C1595 1.394 . S
C1594 H1602 0.930 . S
C1595 C1594 1.394 . S
C1595 C1596 1.383 . S
C1595 H1603 0.929 . S
C1596 C1595 1.383 . S
C1596 C1597 1.377 . S
C1597 H1581 0.930 . S
C1597 C1596 1.377 . S
C1597 C1598 1.379 . S
C1598 H1582 0.931 . S
C1598 C1592 1.383 . S
C1598 C1597 1.379 . S
H1599 C1593 0.959 . S
H1600 C1593 0.961 . S
H1601 C1593 0.960 . S
H1602 C1594 0.930 . S
H1603 C1595 0.929 . S
H1604 C1612 0.929 1_655 S
H1605 C1614 0.930 1_545 S
H1606 C1616 0.930 . S
H1607 C1619 0.929 . S
H1608 C1622 0.930 . S
H1609 C1624 0.960 . S
H1610 C1624 0.960 . S
H1611 C1624 0.960 . S
C1612 H1604 0.929 1_455 S
C1612 C1613 1.377 . S
C1612 C1614 1.384 1_455 S
C1613 C1612 1.377 . S
C1613 C1619 1.390 . S
C1614 H1605 0.930 1_565 S
C1614 C1612 1.384 1_655 S
C1614 C1615 1.372 1_655 S
C1615 C1614 1.372 1_455 S
C1615 C1616 1.400 . S
C1615 C1620 1.490 . S
C1616 H1606 0.930 . S
C1616 C1615 1.400 . S
C1616 C1619 1.386 . S
H1617 C1633 0.930 1_455 S
H1618 C1634 0.931 . S
C1619 H1607 0.929 . S
C1619 C1613 1.390 . S
C1619 C1616 1.386 . S
C1620 C1615 1.490 . S
C1620 C1622 1.395 1_465 S
C1620 C1623 1.403 . S
H1621 C1627 0.929 . S
C1622 H1608 0.930 . S
C1622 C1620 1.395 1_645 S
C1622 C1625 1.403 . S
C1623 C1620 1.403 . S
C1623 C1624 1.524 . S
C1623 C1627 1.389 1_455 S
C1624 H1609 0.960 . S
C1624 H1610 0.960 . S
C1624 H1611 0.960 . S
C1624 C1623 1.524 . S
C1625 C1622 1.403 . S
C1625 C1626 1.392 . S
C1625 C1629 1.495 . S
C1626 C1625 1.392 . S
C1626 C1627 1.398 1_545 S
C1626 C1628 1.478 . S
C1627 H1621 0.929 . S
C1627 C1623 1.389 1_655 S
C1627 C1626 1.398 1_565 S
C1628 C1626 1.478 . S
C1628 C1630 1.381 . S
C1628 C1634 1.383 1_655 S
C1629 C1625 1.495 . S
C1629 H1635 0.959 . S
C1629 H1636 0.961 . S
C1629 H1637 0.960 . S
C1630 C1628 1.381 . S
C1630 C1631 1.394 . S
C1630 H1638 0.930 . S
C1631 C1630 1.394 . S
C1631 C1632 1.383 . S
C1631 H1639 0.929 . S
C1632 C1631 1.383 . S
C1632 C1633 1.377 . S
C1633 H1617 0.930 1_655 S
C1633 C1632 1.377 . S
C1633 C1634 1.379 1_655 S
C1634 H1618 0.931 . S
C1634 C1628 1.383 1_455 S
C1634 C1633 1.379 1_455 S
H1635 C1629 0.959 . S
H1636 C1629 0.961 . S
H1637 C1629 0.960 . S
H1638 C1630 0.930 . S
H1639 C1631 0.929 . S
H1640 C1648 0.929 . S
H1641 C1650 0.930 . S
H1642 C1652 0.930 . S
H1643 C1655 0.929 . S
H1644 C1658 0.930 . S
H1645 C1660 0.960 . S
H1646 C1660 0.960 . S
H1647 C1660 0.960 . S
C1648 H1640 0.929 . S
C1648 C1649 1.377 . S
C1648 C1650 1.384 . S
C1649 C1648 1.377 . S
C1649 C1655 1.390 . S
C1650 H1641 0.930 . S
C1650 C1648 1.384 . S
C1650 C1651 1.372 . S
C1651 C1650 1.372 . S
C1651 C1652 1.400 . S
C1651 C1656 1.490 . S
C1652 H1642 0.930 . S
C1652 C1651 1.400 . S
C1652 C1655 1.386 . S
H1653 C1669 0.930 . S
H1654 C1670 0.931 . S
C1655 H1643 0.929 . S
C1655 C1649 1.390 . S
C1655 C1652 1.386 . S
C1656 C1651 1.490 . S
C1656 C1658 1.395 . S
C1656 C1659 1.403 . S
H1657 C1663 0.930 . S
C1658 H1644 0.930 . S
C1658 C1656 1.395 . S
C1658 C1661 1.403 . S
C1659 C1656 1.403 . S
C1659 C1660 1.524 . S
C1659 C1663 1.400 . S
C1660 H1645 0.960 . S
C1660 H1646 0.960 . S
C1660 H1647 0.960 . S
C1660 C1659 1.524 . S
C1661 C1658 1.403 . S
C1661 C1662 1.392 . S
C1661 C1665 1.495 . S
C1662 C1661 1.392 . S
C1662 C1663 1.385 . S
C1662 C1664 1.478 . S
C1663 H1657 0.930 . S
C1663 C1659 1.400 . S
C1663 C1662 1.385 . S
C1664 C1662 1.478 . S
C1664 C1666 1.381 . S
C1664 C1670 1.383 . S
C1665 C1661 1.495 . S
C1665 H1671 0.959 . S
C1665 H1672 0.961 . S
C1665 H1673 0.960 . S
C1666 C1664 1.381 . S
C1666 C1667 1.394 . S
C1666 H1674 0.930 . S
C1667 C1666 1.394 . S
C1667 C1668 1.383 . S
C1667 H1675 0.929 . S
C1668 C1667 1.383 . S
C1668 C1669 1.377 . S
C1669 H1653 0.930 . S
C1669 C1668 1.377 . S
C1669 C1670 1.379 . S
C1670 H1654 0.931 . S
C1670 C1664 1.383 . S
C1670 C1669 1.379 . S
H1671 C1665 0.959 . S
H1672 C1665 0.961 . S
H1673 C1665 0.960 . S
H1674 C1666 0.930 . S
H1675 C1667 0.929 . S
H1676 C1684 0.929 . S
H1677 C1686 0.930 . S
H1678 C1688 0.930 . S
H1679 C1691 0.929 . S
H1680 C1694 0.930 . S
H1681 C1696 0.960 . S
H1682 C1696 0.988 . S
H1683 C1696 0.960 . S
C1684 H1676 0.929 . S
C1684 C1685 1.377 1_565 S
C1684 C1686 1.384 . S
C1685 C1684 1.377 1_545 S
C1685 C1691 1.390 . S
C1686 H1677 0.930 . S
C1686 C1684 1.384 . S
C1686 C1687 1.372 1_565 S
C1687 C1686 1.372 1_545 S
C1687 C1688 1.400 . S
C1687 C1692 1.490 . S
C1688 H1678 0.930 . S
C1688 C1687 1.400 . S
C1688 C1691 1.386 . S
H1689 C1705 0.930 . S
H1690 C1706 0.931 . S
C1691 H1679 0.929 . S
C1691 C1685 1.390 . S
C1691 C1688 1.386 . S
C1692 C1687 1.490 . S
C1692 C1694 1.395 1_545 S
C1692 C1695 1.403 . S
H1693 C1699 0.930 . S
C1694 H1680 0.930 . S
C1694 C1692 1.395 1_565 S
C1694 C1697 1.403 1_554 S
C1695 C1692 1.403 . S
C1695 C1696 1.524 . S
C1695 C1699 1.400 1_554 S
C1696 H1681 0.960 . S
C1696 H1682 0.988 . S
C1696 H1683 0.960 . S
C1696 C1695 1.524 . S
C1697 C1694 1.403 1_556 S
C1697 C1698 1.392 . S
C1697 C1701 1.495 . S
C1698 C1697 1.392 . S
C1698 C1699 1.385 1_565 S
C1698 C1700 1.478 . S
C1699 H1693 0.930 . S
C1699 C1695 1.400 1_556 S
C1699 C1698 1.385 1_545 S
C1700 C1698 1.478 . S
C1700 C1702 1.381 . S
C1700 C1706 1.383 1_565 S
C1701 C1697 1.495 . S
C1701 H1707 0.959 . S
C1701 H1708 0.961 . S
C1701 H1709 0.960 . S
C1702 C1700 1.381 . S
C1702 C1703 1.394 . S
C1702 H1710 0.930 . S
C1703 C1702 1.394 . S
C1703 C1704 1.383 . S
C1703 H1711 0.929 . S
C1704 C1703 1.383 . S
C1704 C1705 1.377 1_565 S
C1705 H1689 0.930 . S
C1705 C1704 1.377 1_545 S
C1705 C1706 1.379 . S
C1706 H1690 0.931 . S
C1706 C1700 1.383 1_545 S
C1706 C1705 1.379 . S
H1707 C1701 0.959 . S
H1708 C1701 0.961 . S
H1709 C1701 0.960 . S
H1710 C1702 0.930 . S
H1711 C1703 0.929 . S
H1712 C1720 0.929 . S
H1713 C1722 0.930 . S
H1714 C1724 0.930 . S
H1715 C1727 0.929 . S
H1716 C1730 0.930 . S
H1717 C1732 0.960 . S
H1718 C1732 0.960 . S
H1719 C1732 0.960 . S
C1720 H1712 0.929 . S
C1720 C1721 1.377 . S
C1720 C1722 1.384 . S
C1721 C1720 1.377 . S
C1721 C1727 1.390 . S
C1722 H1713 0.930 . S
C1722 C1720 1.384 . S
C1722 C1723 1.372 . S
C1723 C1722 1.372 . S
C1723 C1724 1.400 . S
C1723 C1728 1.490 . S
C1724 H1714 0.930 . S
C1724 C1723 1.400 . S
C1724 C1727 1.386 . S
H1725 C1741 0.930 . S
H1726 C1742 0.931 . S
C1727 H1715 0.929 . S
C1727 C1721 1.390 . S
C1727 C1724 1.386 . S
C1728 C1723 1.490 . S
C1728 C1730 1.395 . S
C1728 C1731 1.403 . S
H1729 C1735 0.930 . S
C1730 H1716 0.930 . S
C1730 C1728 1.395 . S
C1730 C1733 1.403 . S
C1731 C1728 1.403 . S
C1731 C1732 1.524 . S
C1731 C1735 1.400 . S
C1732 H1717 0.960 . S
C1732 H1718 0.960 . S
C1732 H1719 0.960 . S
C1732 C1731 1.524 . S
C1733 C1730 1.403 . S
C1733 C1734 1.392 . S
C1733 C1737 1.495 . S
C1734 C1733 1.392 . S
C1734 C1735 1.385 . S
C1734 C1736 1.478 . S
C1735 H1729 0.930 . S
C1735 C1731 1.400 . S
C1735 C1734 1.385 . S
C1736 C1734 1.478 . S
C1736 C1738 1.381 . S
C1736 C1742 1.383 . S
C1737 C1733 1.495 . S
C1737 H1743 0.959 . S
C1737 H1744 0.961 . S
C1737 H1745 0.960 . S
C1738 C1736 1.381 . S
C1738 C1739 1.394 . S
C1738 H1746 0.930 . S
C1739 C1738 1.394 . S
C1739 C1740 1.383 . S
C1739 H1747 0.929 . S
C1740 C1739 1.383 . S
C1740 C1741 1.377 . S
C1741 H1725 0.930 . S
C1741 C1740 1.377 . S
C1741 C1742 1.379 . S
C1742 H1726 0.931 . S
C1742 C1736 1.383 . S
C1742 C1741 1.379 . S
H1743 C1737 0.959 . S
H1744 C1737 0.961 . S
H1745 C1737 0.960 . S
H1746 C1738 0.930 . S
H1747 C1739 0.929 . S
H1748 C1756 0.929 . S
H1749 C1758 0.930 . S
H1750 C1760 0.930 . S
H1751 C1763 0.929 . S
H1752 C1766 0.930 . S
H1753 C1768 0.960 . S
H1754 C1768 0.960 . S
H1755 C1768 0.960 . S
C1756 H1748 0.929 . S
C1756 C1757 1.377 . S
C1756 C1758 1.384 . S
C1757 C1756 1.377 . S
C1757 C1763 1.390 1_565 S
C1758 H1749 0.930 . S
C1758 C1756 1.384 . S
C1758 C1759 1.372 . S
C1759 C1758 1.372 . S
C1759 C1760 1.400 1_565 S
C1759 C1764 1.490 . S
C1760 H1750 0.930 . S
C1760 C1759 1.400 1_545 S
C1760 C1763 1.386 . S
H1761 C1777 0.930 . S
H1762 C1778 0.931 . S
C1763 H1751 0.929 . S
C1763 C1757 1.390 1_545 S
C1763 C1760 1.386 . S
C1764 C1759 1.490 . S
C1764 C1766 1.395 . S
C1764 C1767 1.403 1_565 S
H1765 C1771 0.930 . S
C1766 H1752 0.930 . S
C1766 C1764 1.395 . S
C1766 C1769 1.403 . S
C1767 C1764 1.403 1_545 S
C1767 C1768 1.524 . S
C1767 C1771 1.400 . S
C1768 H1753 0.960 . S
C1768 H1754 0.960 . S
C1768 H1755 0.960 . S
C1768 C1767 1.524 . S
C1769 C1766 1.403 . S
C1769 C1770 1.392 . S
C1769 C1773 1.495 . S
C1770 C1769 1.392 . S
C1770 C1771 1.385 1_565 S
C1770 C1772 1.478 1_565 S
C1771 H1765 0.930 . S
C1771 C1767 1.400 . S
C1771 C1770 1.385 1_545 S
C1772 C1770 1.478 1_545 S
C1772 C1774 1.381 1_545 S
C1772 C1778 1.383 . S
C1773 C1769 1.495 . S
C1773 H1779 0.959 . S
C1773 H1780 0.961 . S
C1773 H1781 0.960 . S
C1774 C1772 1.381 1_565 S
C1774 C1775 1.394 . S
C1774 H1782 0.930 . S
C1775 C1774 1.394 . S
C1775 C1776 1.383 1_565 S
C1775 H1783 0.929 . S
C1776 C1775 1.383 1_545 S
C1776 C1777 1.377 . S
C1777 H1761 0.930 . S
C1777 C1776 1.377 . S
C1777 C1778 1.379 . S
C1778 H1762 0.931 . S
C1778 C1772 1.383 . S
C1778 C1777 1.379 . S
H1779 C1773 0.959 . S
H1780 C1773 0.961 . S
H1781 C1773 0.960 . S
H1782 C1774 0.930 . S
H1783 C1775 0.929 . S
H1784 C1792 0.929 . S
H1785 C1794 0.930 . S
H1786 C1796 0.930 . S
H1787 C1799 0.929 . S
H1788 C1802 0.930 . S
H1789 C1804 0.960 . S
H1790 C1804 0.960 . S
H1791 C1804 0.960 . S
C1792 H1784 0.929 . S
C1792 C1793 1.377 . S
C1792 C1794 1.384 . S
C1793 C1792 1.377 . S
C1793 C1799 1.390 . S
C1794 H1785 0.930 . S
C1794 C1792 1.384 . S
C1794 C1795 1.372 . S
C1795 C1794 1.372 . S
C1795 C1796 1.400 . S
C1795 C1800 1.490 . S
C1796 H1786 0.930 . S
C1796 C1795 1.400 . S
C1796 C1799 1.386 . S
H1797 C1813 0.930 . S
H1798 C1814 0.931 . S
C1799 H1787 0.929 . S
C1799 C1793 1.390 . S
C1799 C1796 1.386 . S
C1800 C1795 1.490 . S
C1800 C1802 1.395 . S
C1800 C1803 1.403 . S
H1801 C1807 0.930 . S
C1802 H1788 0.930 . S
C1802 C1800 1.395 . S
C1802 C1805 1.403 . S
C1803 C1800 1.403 . S
C1803 C1804 1.524 . S
C1803 C1807 1.400 . S
C1804 H1789 0.960 . S
C1804 H1790 0.960 . S
C1804 H1791 0.960 . S
C1804 C1803 1.524 . S
C1805 C1802 1.403 . S
C1805 C1806 1.392 . S
C1805 C1809 1.495 . S
C1806 C1805 1.392 . S
C1806 C1807 1.385 . S
C1806 C1808 1.478 . S
C1807 H1801 0.930 . S
C1807 C1803 1.400 . S
C1807 C1806 1.385 . S
C1808 C1806 1.478 . S
C1808 C1810 1.381 . S
C1808 C1814 1.383 . S
C1809 C1805 1.495 . S
C1809 H1815 0.959 . S
C1809 H1816 0.961 . S
C1809 H1817 0.960 . S
C1810 C1808 1.381 . S
C1810 C1811 1.394 . S
C1810 H1818 0.930 . S
C1811 C1810 1.394 . S
C1811 C1812 1.383 . S
C1811 H1819 0.929 . S
C1812 C1811 1.383 . S
C1812 C1813 1.377 . S
C1813 H1797 0.930 . S
C1813 C1812 1.377 . S
C1813 C1814 1.379 . S
C1814 H1798 0.931 . S
C1814 C1808 1.383 . S
C1814 C1813 1.379 . S
H1815 C1809 0.959 . S
H1816 C1809 0.961 . S
H1817 C1809 0.960 . S
H1818 C1810 0.930 . S
H1819 C1811 0.929 . S
H1820 C1828 0.921 1_565 S
H1821 C1830 0.930 . S
H1822 C1832 0.956 . S
H1823 C1835 0.929 1_655 S
H1824 C1838 0.930 . S
H1825 C1840 0.960 . S
H1826 C1840 0.960 . S
H1827 C1840 0.960 . S
C1828 H1820 0.921 1_545 S
C1828 C1829 1.389 . S
C1828 C1830 1.381 1_545 S
C1829 C1828 1.389 . S
C1829 C1835 1.390 . S
C1830 H1821 0.930 . S
C1830 C1828 1.381 1_565 S
C1830 C1831 1.372 1_565 S
C1831 C1830 1.372 1_545 S
C1831 C1832 1.382 1_455 S
C1831 C1836 1.490 . S
C1832 H1822 0.956 . S
C1832 C1831 1.382 1_655 S
C1832 C1835 1.379 1_655 S
H1833 C1849 0.930 . S
H1834 C1850 0.931 . S
C1835 H1823 0.929 1_455 S
C1835 C1829 1.390 . S
C1835 C1832 1.379 1_455 S
C1836 C1831 1.490 . S
C1836 C1838 1.395 . S
C1836 C1839 1.403 1_445 S
H1837 C1843 0.930 . S
C1838 H1824 0.930 . S
C1838 C1836 1.395 . S
C1838 C1841 1.403 1_556 S
C1839 C1836 1.403 1_665 S
C1839 C1840 1.524 . S
C1839 C1843 1.400 1_556 S
C1840 H1825 0.960 . S
C1840 H1826 0.960 . S
C1840 H1827 0.960 . S
C1840 C1839 1.524 . S
C1841 C1838 1.403 1_554 S
C1841 C1842 1.392 1_445 S
C1841 C1845 1.495 . S
C1842 C1841 1.392 1_665 S
C1842 C1843 1.385 . S
C1842 C1844 1.478 . S
C1843 H1837 0.930 . S
C1843 C1839 1.400 1_554 S
C1843 C1842 1.385 . S
C1844 C1842 1.478 . S
C1844 C1846 1.381 1_655 S
C1844 C1850 1.383 1_565 S
C1845 C1841 1.495 . S
C1845 H1851 0.959 . S
C1845 H1852 0.961 . S
C1845 H1853 0.960 . S
C1846 C1844 1.381 1_455 S
C1846 C1847 1.394 1_455 S
C1846 H1854 0.930 . S
C1847 C1846 1.394 1_655 S
C1847 C1848 1.383 . S
C1847 H1855 0.929 1_655 S
C1848 C1847 1.383 . S
C1848 C1849 1.377 1_565 S
C1849 H1833 0.930 . S
C1849 C1848 1.377 1_545 S
C1849 C1850 1.379 . S
C1850 H1834 0.931 . S
C1850 C1844 1.383 1_545 S
C1850 C1849 1.379 . S
H1851 C1845 0.959 . S
H1852 C1845 0.961 . S
H1853 C1845 0.960 . S
H1854 C1846 0.930 . S
H1855 C1847 0.929 1_455 S
H1856 C1864 0.929 . S
H1857 C1866 0.930 . S
H1858 C1868 0.930 . S
H1859 C1871 0.929 . S
H1860 C1874 0.930 . S
H1861 C1876 0.960 . S
H1862 C1876 0.960 . S
H1863 C1876 0.960 . S
C1864 H1856 0.929 . S
C1864 C1865 1.377 . S
C1864 C1866 1.384 . S
C1865 C1864 1.377 . S
C1865 C1871 1.390 . S
C1866 H1857 0.930 . S
C1866 C1864 1.384 . S
C1866 C1867 1.372 . S
C1867 C1866 1.372 . S
C1867 C1868 1.400 . S
C1867 C1872 1.490 . S
C1868 H1858 0.930 . S
C1868 C1867 1.400 . S
C1868 C1871 1.386 . S
H1869 C1885 0.930 . S
H1870 C1886 0.931 . S
C1871 H1859 0.929 . S
C1871 C1865 1.390 . S
C1871 C1868 1.386 . S
C1872 C1867 1.490 . S
C1872 C1874 1.395 . S
C1872 C1875 1.403 . S
H1873 C1879 0.930 . S
C1874 H1860 0.930 . S
C1874 C1872 1.395 . S
C1874 C1877 1.403 . S
C1875 C1872 1.403 . S
C1875 C1876 1.524 . S
C1875 C1879 1.400 . S
C1876 H1861 0.960 . S
C1876 H1862 0.960 . S
C1876 H1863 0.960 . S
C1876 C1875 1.524 . S
C1877 C1874 1.403 . S
C1877 C1878 1.392 . S
C1877 C1881 1.495 . S
C1878 C1877 1.392 . S
C1878 C1879 1.385 . S
C1878 C1880 1.478 . S
C1879 H1873 0.930 . S
C1879 C1875 1.400 . S
C1879 C1878 1.385 . S
C1880 C1878 1.478 . S
C1880 C1882 1.381 . S
C1880 C1886 1.383 . S
C1881 C1877 1.495 . S
C1881 H1887 0.959 . S
C1881 H1888 0.961 . S
C1881 H1889 0.960 . S
C1882 C1880 1.381 . S
C1882 C1883 1.394 . S
C1882 H1890 0.930 . S
C1883 C1882 1.394 . S
C1883 C1884 1.383 . S
C1883 H1891 0.929 . S
C1884 C1883 1.383 . S
C1884 C1885 1.377 . S
C1885 H1869 0.930 . S
C1885 C1884 1.377 . S
C1885 C1886 1.379 . S
C1886 H1870 0.931 . S
C1886 C1880 1.383 . S
C1886 C1885 1.379 . S
H1887 C1881 0.959 . S
H1888 C1881 0.961 . S
H1889 C1881 0.960 . S
H1890 C1882 0.930 . S
H1891 C1883 0.929 . S
H1892 C1900 0.929 . S
H1893 C1902 0.930 . S
H1894 C1904 0.930 . S
H1895 C1907 0.929 . S
H1896 C1910 0.930 . S
H1897 C1912 0.960 . S
H1898 C1912 0.960 . S
H1899 C1912 0.960 . S
C1900 H1892 0.929 . S
C1900 C1901 1.377 . S
C1900 C1902 1.384 . S
C1901 C1900 1.377 . S
C1901 C1907 1.390 . S
C1902 H1893 0.930 . S
C1902 C1900 1.384 . S
C1902 C1903 1.372 . S
C1903 C1902 1.372 . S
C1903 C1904 1.400 . S
C1903 C1908 1.490 . S
C1904 H1894 0.930 . S
C1904 C1903 1.400 . S
C1904 C1907 1.386 . S
H1905 C1921 0.930 . S
H1906 C1922 0.931 . S
C1907 H1895 0.929 . S
C1907 C1901 1.390 . S
C1907 C1904 1.386 . S
C1908 C1903 1.490 . S
C1908 C1910 1.395 . S
C1908 C1911 1.403 . S
H1909 C1915 0.930 . S
C1910 H1896 0.930 . S
C1910 C1908 1.395 . S
C1910 C1913 1.403 . S
C1911 C1908 1.403 . S
C1911 C1912 1.524 . S
C1911 C1915 1.400 . S
C1912 H1897 0.960 . S
C1912 H1898 0.960 . S
C1912 H1899 0.960 . S
C1912 C1911 1.524 . S
C1913 C1910 1.403 . S
C1913 C1914 1.392 . S
C1913 C1917 1.495 . S
C1914 C1913 1.392 . S
C1914 C1915 1.385 . S
C1914 C1916 1.478 . S
C1915 H1909 0.930 . S
C1915 C1911 1.400 . S
C1915 C1914 1.385 . S
C1916 C1914 1.478 . S
C1916 C1918 1.381 . S
C1916 C1922 1.383 . S
C1917 C1913 1.495 . S
C1917 H1923 0.959 . S
C1917 H1924 0.961 . S
C1917 H1925 0.960 . S
C1918 C1916 1.381 . S
C1918 C1919 1.394 . S
C1918 H1926 0.930 . S
C1919 C1918 1.394 . S
C1919 C1920 1.383 . S
C1919 H1927 0.929 . S
C1920 C1919 1.383 . S
C1920 C1921 1.377 . S
C1921 H1905 0.930 . S
C1921 C1920 1.377 . S
C1921 C1922 1.379 . S
C1922 H1906 0.931 . S
C1922 C1916 1.383 . S
C1922 C1921 1.379 . S
H1923 C1917 0.959 . S
H1924 C1917 0.961 . S
H1925 C1917 0.960 . S
H1926 C1918 0.930 . S
H1927 C1919 0.929 . S
H1928 C1936 0.929 . S
H1929 C1938 0.930 . S
H1930 C1940 0.930 . S
H1931 C1943 0.929 . S
H1932 C1946 0.930 . S
H1933 C1948 0.960 . S
H1934 C1948 0.960 . S
H1935 C1948 0.960 . S
C1936 H1928 0.929 . S
C1936 C1937 1.377 . S
C1936 C1938 1.384 . S
C1937 C1936 1.377 . S
C1937 C1943 1.390 . S
C1938 H1929 0.930 . S
C1938 C1936 1.384 . S
C1938 C1939 1.372 . S
C1939 C1938 1.372 . S
C1939 C1940 1.400 . S
C1939 C1944 1.490 . S
C1940 H1930 0.930 . S
C1940 C1939 1.400 . S
C1940 C1943 1.386 . S
H1941 C1957 0.930 . S
H1942 C1958 0.931 . S
C1943 H1931 0.929 . S
C1943 C1937 1.390 . S
C1943 C1940 1.386 . S
C1944 C1939 1.490 . S
C1944 C1946 1.395 . S
C1944 C1947 1.403 . S
H1945 C1951 0.930 . S
C1946 H1932 0.930 . S
C1946 C1944 1.395 . S
C1946 C1949 1.403 . S
C1947 C1944 1.403 . S
C1947 C1948 1.524 . S
C1947 C1951 1.400 . S
C1948 H1933 0.960 . S
C1948 H1934 0.960 . S
C1948 H1935 0.960 . S
C1948 C1947 1.524 . S
C1949 C1946 1.403 . S
C1949 C1950 1.392 . S
C1949 C1953 1.495 . S
C1950 C1949 1.392 . S
C1950 C1951 1.385 . S
C1950 C1952 1.478 . S
C1951 H1945 0.930 . S
C1951 C1947 1.400 . S
C1951 C1950 1.385 . S
C1952 C1950 1.478 . S
C1952 C1954 1.381 . S
C1952 C1958 1.383 . S
C1953 C1949 1.495 . S
C1953 H1959 0.959 . S
C1953 H1960 0.961 . S
C1953 H1961 0.960 . S
C1954 C1952 1.381 . S
C1954 C1955 1.394 . S
C1954 H1962 0.930 . S
C1955 C1954 1.394 . S
C1955 C1956 1.383 . S
C1955 H1963 0.929 . S
C1956 C1955 1.383 . S
C1956 C1957 1.377 . S
C1957 H1941 0.930 . S
C1957 C1956 1.377 . S
C1957 C1958 1.379 . S
C1958 H1942 0.931 . S
C1958 C1952 1.383 . S
C1958 C1957 1.379 . S
H1959 C1953 0.959 . S
H1960 C1953 0.961 . S
H1961 C1953 0.960 . S
H1962 C1954 0.930 . S
H1963 C1955 0.929 . S
H1964 C1972 0.929 . S
H1965 C1974 0.930 . S
H1966 C1976 0.930 . S
H1967 C1979 0.929 . S
H1968 C1982 0.930 . S
H1969 C1984 0.960 . S
H1970 C1984 0.960 . S
H1971 C1984 0.960 . S
C1972 H1964 0.929 . S
C1972 C1973 1.377 . S
C1972 C1974 1.384 . S
C1973 C1972 1.377 . S
C1973 C1979 1.390 . S
C1974 H1965 0.930 . S
C1974 C1972 1.384 . S
C1974 C1975 1.372 . S
C1975 C1974 1.372 . S
C1975 C1976 1.400 . S
C1975 C1980 1.490 . S
C1976 H1966 0.930 . S
C1976 C1975 1.400 . S
C1976 C1979 1.386 . S
H1977 C1993 0.930 . S
H1978 C1994 0.931 . S
C1979 H1967 0.929 . S
C1979 C1973 1.390 . S
C1979 C1976 1.386 . S
C1980 C1975 1.490 . S
C1980 C1982 1.395 . S
C1980 C1983 1.403 . S
H1981 C1987 0.930 . S
C1982 H1968 0.930 . S
C1982 C1980 1.395 . S
C1982 C1985 1.403 . S
C1983 C1980 1.403 . S
C1983 C1984 1.524 . S
C1983 C1987 1.400 . S
C1984 H1969 0.960 . S
C1984 H1970 0.960 . S
C1984 H1971 0.960 . S
C1984 C1983 1.524 . S
C1985 C1982 1.403 . S
C1985 C1986 1.392 . S
C1985 C1989 1.495 . S
C1986 C1985 1.392 . S
C1986 C1987 1.385 . S
C1986 C1988 1.478 . S
C1987 H1981 0.930 . S
C1987 C1983 1.400 . S
C1987 C1986 1.385 . S
C1988 C1986 1.478 . S
C1988 C1990 1.381 . S
C1988 C1994 1.383 . S
C1989 C1985 1.495 . S
C1989 H1995 0.959 . S
C1989 H1996 0.961 . S
C1989 H1997 0.960 . S
C1990 C1988 1.381 . S
C1990 C1991 1.394 . S
C1990 H1998 0.930 . S
C1991 C1990 1.394 . S
C1991 C1992 1.383 . S
C1991 H1999 0.929 . S
C1992 C1991 1.383 . S
C1992 C1993 1.377 . S
C1993 H1977 0.930 . S
C1993 C1992 1.377 . S
C1993 C1994 1.379 . S
C1994 H1978 0.931 . S
C1994 C1988 1.383 . S
C1994 C1993 1.379 . S
H1995 C1989 0.959 . S
H1996 C1989 0.961 . S
H1997 C1989 0.960 . S
H1998 C1990 0.930 . S
H1999 C1991 0.929 . S
H2000 C2008 0.929 . S
H2001 C2010 0.930 . S
H2002 C2012 0.930 . S
H2003 C2015 0.929 . S
H2004 C2018 0.930 . S
H2005 C2020 0.960 . S
H2006 C2020 0.960 . S
H2007 C2020 0.960 . S
C2008 H2000 0.929 . S
C2008 C2009 1.377 . S
C2008 C2010 1.384 . S
C2009 C2008 1.377 . S
C2009 C2015 1.390 . S
C2010 H2001 0.930 . S
C2010 C2008 1.384 . S
C2010 C2011 1.372 . S
C2011 C2010 1.372 . S
C2011 C2012 1.400 . S
C2011 C2016 1.490 . S
C2012 H2002 0.930 . S
C2012 C2011 1.400 . S
C2012 C2015 1.386 . S
H2013 C2029 0.930 . S
H2014 C2030 0.931 . S
C2015 H2003 0.929 . S
C2015 C2009 1.390 . S
C2015 C2012 1.386 . S
C2016 C2011 1.490 . S
C2016 C2018 1.395 . S
C2016 C2019 1.403 . S
H2017 C2023 0.930 . S
C2018 H2004 0.930 . S
C2018 C2016 1.395 . S
C2018 C2021 1.403 1_554 S
C2019 C2016 1.403 . S
C2019 C2020 1.524 . S
C2019 C2023 1.400 1_554 S
C2020 H2005 0.960 . S
C2020 H2006 0.960 . S
C2020 H2007 0.960 . S
C2020 C2019 1.524 . S
C2021 C2018 1.403 1_556 S
C2021 C2022 1.392 . S
C2021 C2025 1.495 . S
C2022 C2021 1.392 . S
C2022 C2023 1.385 . S
C2022 C2024 1.478 . S
C2023 H2017 0.930 . S
C2023 C2019 1.400 1_556 S
C2023 C2022 1.385 . S
C2024 C2022 1.478 . S
C2024 C2026 1.381 . S
C2024 C2030 1.383 . S
C2025 C2021 1.495 . S
C2025 H2031 0.959 . S
C2025 H2032 0.961 . S
C2025 H2033 0.960 . S
C2026 C2024 1.381 . S
C2026 C2027 1.394 . S
C2026 H2034 0.930 . S
C2027 C2026 1.394 . S
C2027 C2028 1.383 . S
C2027 H2035 0.929 . S
C2028 C2027 1.383 . S
C2028 C2029 1.377 . S
C2029 H2013 0.930 . S
C2029 C2028 1.377 . S
C2029 C2030 1.379 . S
C2030 H2014 0.931 . S
C2030 C2024 1.383 . S
C2030 C2029 1.379 . S
H2031 C2025 0.959 . S
H2032 C2025 0.961 . S
H2033 C2025 0.960 . S
H2034 C2026 0.930 . S
H2035 C2027 0.929 . S
H2036 C2044 0.929 1_655 S
H2037 C2046 0.930 . S
H2038 C2048 0.930 . S
H2039 C2051 0.929 . S
H2040 C2054 0.930 . S
H2041 C2056 0.960 . S
H2042 C2056 0.960 . S
H2043 C2056 0.960 . S
C2044 H2036 0.929 1_455 S
C2044 C2045 1.377 . S
C2044 C2046 1.384 1_455 S
C2045 C2044 1.377 . S
C2045 C2051 1.390 . S
C2046 H2037 0.930 . S
C2046 C2044 1.384 1_655 S
C2046 C2047 1.372 1_655 S
C2047 C2046 1.372 1_455 S
C2047 C2048 1.400 . S
C2047 C2052 1.490 . S
C2048 H2038 0.930 . S
C2048 C2047 1.400 . S
C2048 C2051 1.386 . S
H2049 C2065 0.930 1_455 S
H2050 C2066 0.931 . S
C2051 H2039 0.929 . S
C2051 C2045 1.390 . S
C2051 C2048 1.386 . S
C2052 C2047 1.490 . S
C2052 C2054 1.395 1_455 S
C2052 C2055 1.403 . S
H2053 C2059 0.929 . S
C2054 H2040 0.930 . S
C2054 C2052 1.395 1_655 S
C2054 C2057 1.403 . S
C2055 C2052 1.403 . S
C2055 C2056 1.524 . S
C2055 C2059 1.390 1_455 S
C2056 H2041 0.960 . S
C2056 H2042 0.960 . S
C2056 H2043 0.960 . S
C2056 C2055 1.524 . S
C2057 C2054 1.403 . S
C2057 C2058 1.392 . S
C2057 C2061 1.495 . S
C2058 C2057 1.392 . S
C2058 C2059 1.398 . S
C2058 C2060 1.478 . S
C2059 H2053 0.929 . S
C2059 C2055 1.390 1_655 S
C2059 C2058 1.398 . S
C2060 C2058 1.478 . S
C2060 C2062 1.381 . S
C2060 C2066 1.383 1_655 S
C2061 C2057 1.495 . S
C2061 H2067 0.959 . S
C2061 H2068 0.961 . S
C2061 H2069 0.960 . S
C2062 C2060 1.381 . S
C2062 C2063 1.394 . S
C2062 H2070 0.930 . S
C2063 C2062 1.394 . S
C2063 C2064 1.383 . S
C2063 H2071 0.929 . S
C2064 C2063 1.383 . S
C2064 C2065 1.377 . S
C2065 H2049 0.930 1_655 S
C2065 C2064 1.377 . S
C2065 C2066 1.379 1_655 S
C2066 H2050 0.931 . S
C2066 C2060 1.383 1_455 S
C2066 C2065 1.379 1_455 S
H2067 C2061 0.959 . S
H2068 C2061 0.961 . S
H2069 C2061 0.960 . S
H2070 C2062 0.930 . S
H2071 C2063 0.929 . S
H2072 C2080 0.929 1_655 S
H2073 C2082 0.930 . S
H2074 C2084 0.930 . S
H2075 C2087 0.929 . S
H2076 C2090 0.930 . S
H2077 C2092 0.974 . S
H2078 C2092 0.960 . S
H2079 C2092 0.960 . S
C2080 H2072 0.929 1_455 S
C2080 C2081 1.377 . S
C2080 C2082 1.384 1_455 S
C2081 C2080 1.377 . S
C2081 C2087 1.390 . S
C2082 H2073 0.930 . S
C2082 C2080 1.384 1_655 S
C2082 C2083 1.372 1_655 S
C2083 C2082 1.372 1_455 S
C2083 C2084 1.400 . S
C2083 C2088 1.490 . S
C2084 H2074 0.930 . S
C2084 C2083 1.400 . S
C2084 C2087 1.386 . S
H2085 C2101 0.925 1_455 S
H2086 C2102 0.931 1_455 S
C2087 H2075 0.929 . S
C2087 C2081 1.390 . S
C2087 C2084 1.386 . S
C2088 C2083 1.490 . S
C2088 C2090 1.395 1_455 S
C2088 C2091 1.403 . S
H2089 C2095 0.930 . S
C2090 H2076 0.930 . S
C2090 C2088 1.395 1_655 S
C2090 C2093 1.403 1_554 S
C2091 C2088 1.403 . S
C2091 C2092 1.524 . S
C2091 C2095 1.400 1_554 S
C2092 H2077 0.974 . S
C2092 H2078 0.960 . S
C2092 H2079 0.960 . S
C2092 C2091 1.524 . S
C2093 C2090 1.403 1_556 S
C2093 C2094 1.392 . S
C2093 C2097 1.495 . S
C2094 C2093 1.392 . S
C2094 C2095 1.385 1_655 S
C2094 C2096 1.478 . S
C2095 H2089 0.930 . S
C2095 C2091 1.400 1_556 S
C2095 C2094 1.385 1_455 S
C2096 C2094 1.478 . S
C2096 C2098 1.381 . S
C2096 C2102 1.383 . S
C2097 C2093 1.495 . S
C2097 H2103 0.958 1_556 S
C2097 H2104 0.961 . S
C2097 H2105 0.960 . S
C2098 C2096 1.381 . S
C2098 C2099 1.394 . S
C2098 H2106 0.930 . S
C2099 C2098 1.394 . S
C2099 C2100 1.383 . S
C2099 H2107 0.929 . S
C2100 C2099 1.383 . S
C2100 C2101 1.377 . S
C2101 H2085 0.925 1_655 S
C2101 C2100 1.377 . S
C2101 C2102 1.379 . S
C2102 H2086 0.931 1_655 S
C2102 C2096 1.383 . S
C2102 C2101 1.379 . S
H2103 C2097 0.958 1_554 S
H2104 C2097 0.961 . S
H2105 C2097 0.960 . S
H2106 C2098 0.930 . S
H2107 C2099 0.929 . S
H2108 C2116 0.929 . S
H2109 C2118 0.930 . S
H2110 C2120 0.930 . S
H2111 C2123 0.929 . S
H2112 C2126 0.930 . S
H2113 C2128 0.960 . S
H2114 C2128 0.960 . S
H2115 C2128 0.960 . S
C2116 H2108 0.929 . S
C2116 C2117 1.377 . S
C2116 C2118 1.384 . S
C2117 C2116 1.377 . S
C2117 C2123 1.390 . S
C2118 H2109 0.930 . S
C2118 C2116 1.384 . S
C2118 C2119 1.372 . S
C2119 C2118 1.372 . S
C2119 C2120 1.400 . S
C2119 C2124 1.490 . S
C2120 H2110 0.930 . S
C2120 C2119 1.400 . S
C2120 C2123 1.386 . S
H2121 C2137 0.930 . S
H2122 C2138 0.931 . S
C2123 H2111 0.929 . S
C2123 C2117 1.390 . S
C2123 C2120 1.386 . S
C2124 C2119 1.490 . S
C2124 C2126 1.395 . S
C2124 C2127 1.403 . S
H2125 C2131 0.930 . S
C2126 H2112 0.930 . S
C2126 C2124 1.395 . S
C2126 C2129 1.403 . S
C2127 C2124 1.403 . S
C2127 C2128 1.524 . S
C2127 C2131 1.400 . S
C2128 H2113 0.960 . S
C2128 H2114 0.960 . S
C2128 H2115 0.960 . S
C2128 C2127 1.524 . S
C2129 C2126 1.403 . S
C2129 C2130 1.392 . S
C2129 C2133 1.495 . S
C2130 C2129 1.392 . S
C2130 C2131 1.385 . S
C2130 C2132 1.478 . S
C2131 H2125 0.930 . S
C2131 C2127 1.400 . S
C2131 C2130 1.385 . S
C2132 C2130 1.478 . S
C2132 C2134 1.381 . S
C2132 C2138 1.383 . S
C2133 C2129 1.495 . S
C2133 H2139 0.959 . S
C2133 H2140 0.961 . S
C2133 H2141 0.960 . S
C2134 C2132 1.381 . S
C2134 C2135 1.394 . S
C2134 H2142 0.930 . S
C2135 C2134 1.394 . S
C2135 C2136 1.383 . S
C2135 H2143 0.929 . S
C2136 C2135 1.383 . S
C2136 C2137 1.377 . S
C2137 H2121 0.930 . S
C2137 C2136 1.377 . S
C2137 C2138 1.379 . S
C2138 H2122 0.931 . S
C2138 C2132 1.383 . S
C2138 C2137 1.379 . S
H2139 C2133 0.959 . S
H2140 C2133 0.961 . S
H2141 C2133 0.960 . S
H2142 C2134 0.930 . S
H2143 C2135 0.929 . S
H2144 C2152 0.929 . S
H2145 C2154 0.930 . S
H2146 C2156 0.930 . S
H2147 C2159 0.929 . S
H2148 C2162 0.930 . S
H2149 C2164 0.960 . S
H2150 C2164 0.960 . S
H2151 C2164 0.960 . S
C2152 H2144 0.929 . S
C2152 C2153 1.377 . S
C2152 C2154 1.384 . S
C2153 C2152 1.377 . S
C2153 C2159 1.390 . S
C2154 H2145 0.930 . S
C2154 C2152 1.384 . S
C2154 C2155 1.372 . S
C2155 C2154 1.372 . S
C2155 C2156 1.400 . S
C2155 C2160 1.490 . S
C2156 H2146 0.930 . S
C2156 C2155 1.400 . S
C2156 C2159 1.386 . S
H2157 C2173 0.930 . S
H2158 C2174 0.931 . S
C2159 H2147 0.929 . S
C2159 C2153 1.390 . S
C2159 C2156 1.386 . S
C2160 C2155 1.490 . S
C2160 C2162 1.395 . S
C2160 C2163 1.403 . S
H2161 C2167 0.930 . S
C2162 H2148 0.930 . S
C2162 C2160 1.395 . S
C2162 C2165 1.403 . S
C2163 C2160 1.403 . S
C2163 C2164 1.524 . S
C2163 C2167 1.400 . S
C2164 H2149 0.960 . S
C2164 H2150 0.960 . S
C2164 H2151 0.960 . S
C2164 C2163 1.524 . S
C2165 C2162 1.403 . S
C2165 C2166 1.392 . S
C2165 C2169 1.495 . S
C2166 C2165 1.392 . S
C2166 C2167 1.385 . S
C2166 C2168 1.478 . S
C2167 H2161 0.930 . S
C2167 C2163 1.400 . S
C2167 C2166 1.385 . S
C2168 C2166 1.478 . S
C2168 C2170 1.381 . S
C2168 C2174 1.383 . S
C2169 C2165 1.495 . S
C2169 H2175 0.959 . S
C2169 H2176 0.961 . S
C2169 H2177 0.960 . S
C2170 C2168 1.381 . S
C2170 C2171 1.394 . S
C2170 H2178 0.930 . S
C2171 C2170 1.394 . S
C2171 C2172 1.383 . S
C2171 H2179 0.929 . S
C2172 C2171 1.383 . S
C2172 C2173 1.377 . S
C2173 H2157 0.930 . S
C2173 C2172 1.377 . S
C2173 C2174 1.379 . S
C2174 H2158 0.931 . S
C2174 C2168 1.383 . S
C2174 C2173 1.379 . S
H2175 C2169 0.959 . S
H2176 C2169 0.961 . S
H2177 C2169 0.960 . S
H2178 C2170 0.930 . S
H2179 C2171 0.929 . S
H2180 C2188 0.929 . S
H2181 C2190 0.930 . S
H2182 C2192 0.930 . S
H2183 C2195 0.929 . S
H2184 C2198 0.930 . S
H2185 C2200 0.960 . S
H2186 C2200 0.960 . S
H2187 C2200 0.960 . S
C2188 H2180 0.929 . S
C2188 C2189 1.377 . S
C2188 C2190 1.384 . S
C2189 C2188 1.377 . S
C2189 C2195 1.390 . S
C2190 H2181 0.930 . S
C2190 C2188 1.384 . S
C2190 C2191 1.372 . S
C2191 C2190 1.372 . S
C2191 C2192 1.400 . S
C2191 C2196 1.490 . S
C2192 H2182 0.930 . S
C2192 C2191 1.400 . S
C2192 C2195 1.386 . S
H2193 C2209 0.930 . S
H2194 C2210 0.931 . S
C2195 H2183 0.929 . S
C2195 C2189 1.390 . S
C2195 C2192 1.386 . S
C2196 C2191 1.490 . S
C2196 C2198 1.395 . S
C2196 C2199 1.403 . S
H2197 C2203 0.930 . S
C2198 H2184 0.930 . S
C2198 C2196 1.395 . S
C2198 C2201 1.403 . S
C2199 C2196 1.403 . S
C2199 C2200 1.524 . S
C2199 C2203 1.400 . S
C2200 H2185 0.960 . S
C2200 H2186 0.960 . S
C2200 H2187 0.960 . S
C2200 C2199 1.524 . S
C2201 C2198 1.403 . S
C2201 C2202 1.392 . S
C2201 C2205 1.495 . S
C2202 C2201 1.392 . S
C2202 C2203 1.385 . S
C2202 C2204 1.478 . S
C2203 H2197 0.930 . S
C2203 C2199 1.400 . S
C2203 C2202 1.385 . S
C2204 C2202 1.478 . S
C2204 C2206 1.381 . S
C2204 C2210 1.383 . S
C2205 C2201 1.495 . S
C2205 H2211 0.959 . S
C2205 H2212 0.961 . S
C2205 H2213 0.960 . S
C2206 C2204 1.381 . S
C2206 C2207 1.394 . S
C2206 H2214 0.930 . S
C2207 C2206 1.394 . S
C2207 C2208 1.383 . S
C2207 H2215 0.929 . S
C2208 C2207 1.383 . S
C2208 C2209 1.377 . S
C2209 H2193 0.930 . S
C2209 C2208 1.377 . S
C2209 C2210 1.379 . S
C2210 H2194 0.931 . S
C2210 C2204 1.383 . S
C2210 C2209 1.379 . S
H2211 C2205 0.959 . S
H2212 C2205 0.961 . S
H2213 C2205 0.960 . S
H2214 C2206 0.930 . S
H2215 C2207 0.929 . S
H2216 C2224 0.929 . S
H2217 C2226 0.930 . S
H2218 C2228 0.930 . S
H2219 C2231 0.929 . S
H2220 C2234 0.930 . S
H2221 C2236 0.960 . S
H2222 C2236 0.960 . S
H2223 C2236 0.960 . S
C2224 H2216 0.929 . S
C2224 C2225 1.377 . S
C2224 C2226 1.384 . S
C2225 C2224 1.377 . S
C2225 C2231 1.390 . S
C2226 H2217 0.930 . S
C2226 C2224 1.384 . S
C2226 C2227 1.372 . S
C2227 C2226 1.372 . S
C2227 C2228 1.400 . S
C2227 C2232 1.490 . S
C2228 H2218 0.930 . S
C2228 C2227 1.400 . S
C2228 C2231 1.386 . S
H2229 C2245 0.930 . S
H2230 C2246 0.931 . S
C2231 H2219 0.929 . S
C2231 C2225 1.390 . S
C2231 C2228 1.386 . S
C2232 C2227 1.490 . S
C2232 C2234 1.395 . S
C2232 C2235 1.403 . S
H2233 C2239 0.930 . S
C2234 H2220 0.930 . S
C2234 C2232 1.395 . S
C2234 C2237 1.403 . S
C2235 C2232 1.403 . S
C2235 C2236 1.524 . S
C2235 C2239 1.400 . S
C2236 H2221 0.960 . S
C2236 H2222 0.960 . S
C2236 H2223 0.960 . S
C2236 C2235 1.524 . S
C2237 C2234 1.403 . S
C2237 C2238 1.392 . S
C2237 C2241 1.495 . S
C2238 C2237 1.392 . S
C2238 C2239 1.385 . S
C2238 C2240 1.478 . S
C2239 H2233 0.930 . S
C2239 C2235 1.400 . S
C2239 C2238 1.385 . S
C2240 C2238 1.478 . S
C2240 C2242 1.381 . S
C2240 C2246 1.383 . S
C2241 C2237 1.495 . S
C2241 H2247 0.959 . S
C2241 H2248 0.961 . S
C2241 H2249 0.960 . S
C2242 C2240 1.381 . S
C2242 C2243 1.394 . S
C2242 H2250 0.930 . S
C2243 C2242 1.394 . S
C2243 C2244 1.383 . S
C2243 H2251 0.929 . S
C2244 C2243 1.383 . S
C2244 C2245 1.377 . S
C2245 H2229 0.930 . S
C2245 C2244 1.377 . S
C2245 C2246 1.379 . S
C2246 H2230 0.931 . S
C2246 C2240 1.383 . S
C2246 C2245 1.379 . S
H2247 C2241 0.959 . S
H2248 C2241 0.961 . S
H2249 C2241 0.960 . S
H2250 C2242 0.930 . S
H2251 C2243 0.929 . S
H2252 C2260 0.929 . S
H2253 C2262 0.930 . S
H2254 C2264 0.930 . S
H2255 C2267 0.929 . S
H2256 C2270 0.930 . S
H2257 C2272 0.960 . S
H2258 C2272 0.960 . S
H2259 C2272 0.960 . S
C2260 H2252 0.929 . S
C2260 C2261 1.377 . S
C2260 C2262 1.384 . S
C2261 C2260 1.377 . S
C2261 C2267 1.390 . S
C2262 H2253 0.930 . S
C2262 C2260 1.384 . S
C2262 C2263 1.372 . S
C2263 C2262 1.372 . S
C2263 C2264 1.400 . S
C2263 C2268 1.490 . S
C2264 H2254 0.930 . S
C2264 C2263 1.400 . S
C2264 C2267 1.386 . S
H2265 C2281 0.930 . S
H2266 C2282 0.931 . S
C2267 H2255 0.929 . S
C2267 C2261 1.390 . S
C2267 C2264 1.386 . S
C2268 C2263 1.490 . S
C2268 C2270 1.395 . S
C2268 C2271 1.403 . S
H2269 C2275 0.930 . S
C2270 H2256 0.930 . S
C2270 C2268 1.395 . S
C2270 C2273 1.403 . S
C2271 C2268 1.403 . S
C2271 C2272 1.524 . S
C2271 C2275 1.400 . S
C2272 H2257 0.960 . S
C2272 H2258 0.960 . S
C2272 H2259 0.960 . S
C2272 C2271 1.524 . S
C2273 C2270 1.403 . S
C2273 C2274 1.392 . S
C2273 C2277 1.495 . S
C2274 C2273 1.392 . S
C2274 C2275 1.385 . S
C2274 C2276 1.478 . S
C2275 H2269 0.930 . S
C2275 C2271 1.400 . S
C2275 C2274 1.385 . S
C2276 C2274 1.478 . S
C2276 C2278 1.381 . S
C2276 C2282 1.383 . S
C2277 C2273 1.495 . S
C2277 H2283 0.959 . S
C2277 H2284 0.961 . S
C2277 H2285 0.960 . S
C2278 C2276 1.381 . S
C2278 C2279 1.394 . S
C2278 H2286 0.930 . S
C2279 C2278 1.394 . S
C2279 C2280 1.383 . S
C2279 H2287 0.929 . S
C2280 C2279 1.383 . S
C2280 C2281 1.377 . S
C2281 H2265 0.930 . S
C2281 C2280 1.377 . S
C2281 C2282 1.379 . S
C2282 H2266 0.931 . S
C2282 C2276 1.383 . S
C2282 C2281 1.379 . S
H2283 C2277 0.959 . S
H2284 C2277 0.961 . S
H2285 C2277 0.960 . S
H2286 C2278 0.930 . S
H2287 C2279 0.929 . S
H2288 C2296 0.929 . S
H2289 C2298 0.930 . S
H2290 C2300 0.930 . S
H2291 C2303 0.929 . S
H2292 C2306 0.930 . S
H2293 C2308 0.960 . S
H2294 C2308 0.960 . S
H2295 C2308 0.960 . S
C2296 H2288 0.929 . S
C2296 C2297 1.377 . S
C2296 C2298 1.384 . S
C2297 C2296 1.377 . S
C2297 C2303 1.390 . S
C2298 H2289 0.930 . S
C2298 C2296 1.384 . S
C2298 C2299 1.372 . S
C2299 C2298 1.372 . S
C2299 C2300 1.400 . S
C2299 C2304 1.490 . S
C2300 H2290 0.930 . S
C2300 C2299 1.400 . S
C2300 C2303 1.386 . S
H2301 C2317 0.930 . S
H2302 C2318 0.931 . S
C2303 H2291 0.929 . S
C2303 C2297 1.390 . S
C2303 C2300 1.386 . S
C2304 C2299 1.490 . S
C2304 C2306 1.395 . S
C2304 C2307 1.403 . S
H2305 C2311 0.930 . S
C2306 H2292 0.930 . S
C2306 C2304 1.395 . S
C2306 C2309 1.403 . S
C2307 C2304 1.403 . S
C2307 C2308 1.524 . S
C2307 C2311 1.400 . S
C2308 H2293 0.960 . S
C2308 H2294 0.960 . S
C2308 H2295 0.960 . S
C2308 C2307 1.524 . S
C2309 C2306 1.403 . S
C2309 C2310 1.392 . S
C2309 C2313 1.495 . S
C2310 C2309 1.392 . S
C2310 C2311 1.385 . S
C2310 C2312 1.478 . S
C2311 H2305 0.930 . S
C2311 C2307 1.400 . S
C2311 C2310 1.385 . S
C2312 C2310 1.478 . S
C2312 C2314 1.381 . S
C2312 C2318 1.383 . S
C2313 C2309 1.495 . S
C2313 H2319 0.959 . S
C2313 H2320 0.961 . S
C2313 H2321 0.960 . S
C2314 C2312 1.381 . S
C2314 C2315 1.394 . S
C2314 H2322 0.930 . S
C2315 C2314 1.394 . S
C2315 C2316 1.383 . S
C2315 H2323 0.929 . S
C2316 C2315 1.383 . S
C2316 C2317 1.377 . S
C2317 H2301 0.930 . S
C2317 C2316 1.377 . S
C2317 C2318 1.379 . S
C2318 H2302 0.931 . S
C2318 C2312 1.383 . S
C2318 C2317 1.379 . S
H2319 C2313 0.959 . S
H2320 C2313 0.961 . S
H2321 C2313 0.960 . S
H2322 C2314 0.930 . S
H2323 C2315 0.929 . S
H2324 C2332 0.929 . S
H2325 C2334 0.930 . S
H2326 C2336 0.930 . S
H2327 C2339 0.929 . S
H2328 C2342 0.930 . S
H2329 C2344 0.960 . S
H2330 C2344 0.960 . S
H2331 C2344 0.960 . S
C2332 H2324 0.929 . S
C2332 C2333 1.377 . S
C2332 C2334 1.384 . S
C2333 C2332 1.377 . S
C2333 C2339 1.390 . S
C2334 H2325 0.930 . S
C2334 C2332 1.384 . S
C2334 C2335 1.372 . S
C2335 C2334 1.372 . S
C2335 C2336 1.400 . S
C2335 C2340 1.490 . S
C2336 H2326 0.930 . S
C2336 C2335 1.400 . S
C2336 C2339 1.386 . S
H2337 C2353 0.930 . S
H2338 C2354 0.931 . S
C2339 H2327 0.929 . S
C2339 C2333 1.390 . S
C2339 C2336 1.386 . S
C2340 C2335 1.490 . S
C2340 C2342 1.395 . S
C2340 C2343 1.403 . S
H2341 C2347 0.930 . S
C2342 H2328 0.930 . S
C2342 C2340 1.395 . S
C2342 C2345 1.403 . S
C2343 C2340 1.403 . S
C2343 C2344 1.524 . S
C2343 C2347 1.400 . S
C2344 H2329 0.960 . S
C2344 H2330 0.960 . S
C2344 H2331 0.960 . S
C2344 C2343 1.524 . S
C2345 C2342 1.403 . S
C2345 C2346 1.392 . S
C2345 C2349 1.495 . S
C2346 C2345 1.392 . S
C2346 C2347 1.385 . S
C2346 C2348 1.478 . S
C2347 H2341 0.930 . S
C2347 C2343 1.400 . S
C2347 C2346 1.385 . S
C2348 C2346 1.478 . S
C2348 C2350 1.381 . S
C2348 C2354 1.383 . S
C2349 C2345 1.495 . S
C2349 H2355 0.959 . S
C2349 H2356 0.961 . S
C2349 H2357 0.960 . S
C2350 C2348 1.381 . S
C2350 C2351 1.394 . S
C2350 H2358 0.930 . S
C2351 C2350 1.394 . S
C2351 C2352 1.383 . S
C2351 H2359 0.929 . S
C2352 C2351 1.383 . S
C2352 C2353 1.377 . S
C2353 H2337 0.930 . S
C2353 C2352 1.377 . S
C2353 C2354 1.379 . S
C2354 H2338 0.931 . S
C2354 C2348 1.383 . S
C2354 C2353 1.379 . S
H2355 C2349 0.959 . S
H2356 C2349 0.961 . S
H2357 C2349 0.960 . S
H2358 C2350 0.930 . S
H2359 C2351 0.929 . S
H2360 C2368 0.929 . S
H2361 C2370 0.930 . S
H2362 C2372 0.930 . S
H2363 C2375 0.929 . S
H2364 C2378 0.930 . S
H2365 C2380 0.960 . S
H2366 C2380 0.960 . S
H2367 C2380 0.960 . S
C2368 H2360 0.929 . S
C2368 C2369 1.377 . S
C2368 C2370 1.384 . S
C2369 C2368 1.377 . S
C2369 C2375 1.390 . S
C2370 H2361 0.930 . S
C2370 C2368 1.384 . S
C2370 C2371 1.372 . S
C2371 C2370 1.372 . S
C2371 C2372 1.400 . S
C2371 C2376 1.490 . S
C2372 H2362 0.930 . S
C2372 C2371 1.400 . S
C2372 C2375 1.386 . S
H2373 C2389 0.930 . S
H2374 C2390 0.931 . S
C2375 H2363 0.929 . S
C2375 C2369 1.390 . S
C2375 C2372 1.386 . S
C2376 C2371 1.490 . S
C2376 C2378 1.395 . S
C2376 C2379 1.403 . S
H2377 C2383 0.930 . S
C2378 H2364 0.930 . S
C2378 C2376 1.395 . S
C2378 C2381 1.403 . S
C2379 C2376 1.403 . S
C2379 C2380 1.524 . S
C2379 C2383 1.400 . S
C2380 H2365 0.960 . S
C2380 H2366 0.960 . S
C2380 H2367 0.960 . S
C2380 C2379 1.524 . S
C2381 C2378 1.403 . S
C2381 C2382 1.392 . S
C2381 C2385 1.495 . S
C2382 C2381 1.392 . S
C2382 C2383 1.385 . S
C2382 C2384 1.478 . S
C2383 H2377 0.930 . S
C2383 C2379 1.400 . S
C2383 C2382 1.385 . S
C2384 C2382 1.478 . S
C2384 C2386 1.381 . S
C2384 C2390 1.383 . S
C2385 C2381 1.495 . S
C2385 H2391 0.959 . S
C2385 H2392 0.961 . S
C2385 H2393 0.960 . S
C2386 C2384 1.381 . S
C2386 C2387 1.394 . S
C2386 H2394 0.930 . S
C2387 C2386 1.394 . S
C2387 C2388 1.383 . S
C2387 H2395 0.929 . S
C2388 C2387 1.383 . S
C2388 C2389 1.377 . S
C2389 H2373 0.930 . S
C2389 C2388 1.377 . S
C2389 C2390 1.379 . S
C2390 H2374 0.931 . S
C2390 C2384 1.383 . S
C2390 C2389 1.379 . S
H2391 C2385 0.959 . S
H2392 C2385 0.961 . S
H2393 C2385 0.960 . S
H2394 C2386 0.930 . S
H2395 C2387 0.929 . S
H2396 C2404 0.929 . S
H2397 C2406 0.930 . S
H2398 C2408 0.930 . S
H2399 C2411 0.929 . S
H2400 C2414 0.930 . S
H2401 C2416 0.960 . S
H2402 C2416 0.960 . S
H2403 C2416 0.960 . S
C2404 H2396 0.929 . S
C2404 C2405 1.377 . S
C2404 C2406 1.384 . S
C2405 C2404 1.377 . S
C2405 C2411 1.390 . S
C2406 H2397 0.930 . S
C2406 C2404 1.384 . S
C2406 C2407 1.372 . S
C2407 C2406 1.372 . S
C2407 C2408 1.400 . S
C2407 C2412 1.490 . S
C2408 H2398 0.930 . S
C2408 C2407 1.400 . S
C2408 C2411 1.386 . S
H2409 C2425 0.930 . S
H2410 C2426 0.931 . S
C2411 H2399 0.929 . S
C2411 C2405 1.390 . S
C2411 C2408 1.386 . S
C2412 C2407 1.490 . S
C2412 C2414 1.395 . S
C2412 C2415 1.403 . S
H2413 C2419 0.930 . S
C2414 H2400 0.930 . S
C2414 C2412 1.395 . S
C2414 C2417 1.403 . S
C2415 C2412 1.403 . S
C2415 C2416 1.524 . S
C2415 C2419 1.400 . S
C2416 H2401 0.960 . S
C2416 H2402 0.960 . S
C2416 H2403 0.960 . S
C2416 C2415 1.524 . S
C2417 C2414 1.403 . S
C2417 C2418 1.392 . S
C2417 C2421 1.495 . S
C2418 C2417 1.392 . S
C2418 C2419 1.385 . S
C2418 C2420 1.478 . S
C2419 H2413 0.930 . S
C2419 C2415 1.400 . S
C2419 C2418 1.385 . S
C2420 C2418 1.478 . S
C2420 C2422 1.381 . S
C2420 C2426 1.383 . S
C2421 C2417 1.495 . S
C2421 H2427 0.959 . S
C2421 H2428 0.961 . S
C2421 H2429 0.960 . S
C2422 C2420 1.381 . S
C2422 C2423 1.394 . S
C2422 H2430 0.930 . S
C2423 C2422 1.394 . S
C2423 C2424 1.383 . S
C2423 H2431 0.929 . S
C2424 C2423 1.383 . S
C2424 C2425 1.377 . S
C2425 H2409 0.930 . S
C2425 C2424 1.377 . S
C2425 C2426 1.379 . S
C2426 H2410 0.931 . S
C2426 C2420 1.383 . S
C2426 C2425 1.379 . S
H2427 C2421 0.959 . S
H2428 C2421 0.961 . S
H2429 C2421 0.960 . S
H2430 C2422 0.930 . S
H2431 C2423 0.929 . S
H2432 C2440 0.929 . S
H2433 C2442 0.930 . S
H2434 C2444 0.930 . S
H2435 C2447 0.929 . S
H2436 C2450 0.930 . S
H2437 C2452 0.960 . S
H2438 C2452 0.960 . S
H2439 C2452 0.960 . S
C2440 H2432 0.929 . S
C2440 C2441 1.377 . S
C2440 C2442 1.384 . S
C2441 C2440 1.377 . S
C2441 C2447 1.390 . S
C2442 H2433 0.930 . S
C2442 C2440 1.384 . S
C2442 C2443 1.372 . S
C2443 C2442 1.372 . S
C2443 C2444 1.400 . S
C2443 C2448 1.490 . S
C2444 H2434 0.930 . S
C2444 C2443 1.400 . S
C2444 C2447 1.386 . S
H2445 C2461 0.930 . S
H2446 C2462 0.931 . S
C2447 H2435 0.929 . S
C2447 C2441 1.390 . S
C2447 C2444 1.386 . S
C2448 C2443 1.490 . S
C2448 C2450 1.395 . S
C2448 C2451 1.403 . S
H2449 C2455 0.930 . S
C2450 H2436 0.930 . S
C2450 C2448 1.395 . S
C2450 C2453 1.403 . S
C2451 C2448 1.403 . S
C2451 C2452 1.524 . S
C2451 C2455 1.400 . S
C2452 H2437 0.960 . S
C2452 H2438 0.960 . S
C2452 H2439 0.960 . S
C2452 C2451 1.524 . S
C2453 C2450 1.403 . S
C2453 C2454 1.392 . S
C2453 C2457 1.495 . S
C2454 C2453 1.392 . S
C2454 C2455 1.385 . S
C2454 C2456 1.478 . S
C2455 H2449 0.930 . S
C2455 C2451 1.400 . S
C2455 C2454 1.385 . S
C2456 C2454 1.478 . S
C2456 C2458 1.381 . S
C2456 C2462 1.383 . S
C2457 C2453 1.495 . S
C2457 H2463 0.959 . S
C2457 H2464 0.961 . S
C2457 H2465 0.960 . S
C2458 C2456 1.381 . S
C2458 C2459 1.394 . S
C2458 H2466 0.930 . S
C2459 C2458 1.394 . S
C2459 C2460 1.383 . S
C2459 H2467 0.929 . S
C2460 C2459 1.383 . S
C2460 C2461 1.377 . S
C2461 H2445 0.930 . S
C2461 C2460 1.377 . S
C2461 C2462 1.379 . S
C2462 H2446 0.931 . S
C2462 C2456 1.383 . S
C2462 C2461 1.379 . S
H2463 C2457 0.959 . S
H2464 C2457 0.961 . S
H2465 C2457 0.960 . S
H2466 C2458 0.930 . S
H2467 C2459 0.929 . S
H2468 C2476 0.929 . S
H2469 C2478 0.930 . S
H2470 C2480 0.930 . S
H2471 C2483 0.929 . S
H2472 C2486 0.930 . S
H2473 C2488 0.960 . S
H2474 C2488 0.960 . S
H2475 C2488 0.960 . S
C2476 H2468 0.929 . S
C2476 C2477 1.377 . S
C2476 C2478 1.384 . S
C2477 C2476 1.377 . S
C2477 C2483 1.390 . S
C2478 H2469 0.930 . S
C2478 C2476 1.384 . S
C2478 C2479 1.372 . S
C2479 C2478 1.372 . S
C2479 C2480 1.400 . S
C2479 C2484 1.490 . S
C2480 H2470 0.930 . S
C2480 C2479 1.400 . S
C2480 C2483 1.386 . S
H2481 C2497 0.930 . S
H2482 C2498 0.931 . S
C2483 H2471 0.929 . S
C2483 C2477 1.390 . S
C2483 C2480 1.386 . S
C2484 C2479 1.490 . S
C2484 C2486 1.395 . S
C2484 C2487 1.403 . S
H2485 C2491 0.930 . S
C2486 H2472 0.930 . S
C2486 C2484 1.395 . S
C2486 C2489 1.403 . S
C2487 C2484 1.403 . S
C2487 C2488 1.524 . S
C2487 C2491 1.400 . S
C2488 H2473 0.960 . S
C2488 H2474 0.960 . S
C2488 H2475 0.960 . S
C2488 C2487 1.524 . S
C2489 C2486 1.403 . S
C2489 C2490 1.392 . S
C2489 C2493 1.495 . S
C2490 C2489 1.392 . S
C2490 C2491 1.385 . S
C2490 C2492 1.478 . S
C2491 H2485 0.930 . S
C2491 C2487 1.400 . S
C2491 C2490 1.385 . S
C2492 C2490 1.478 . S
C2492 C2494 1.381 . S
C2492 C2498 1.383 . S
C2493 C2489 1.495 . S
C2493 H2499 0.959 . S
C2493 H2500 0.961 . S
C2493 H2501 0.960 . S
C2494 C2492 1.381 . S
C2494 C2495 1.394 . S
C2494 H2502 0.930 . S
C2495 C2494 1.394 . S
C2495 C2496 1.383 . S
C2495 H2503 0.929 . S
C2496 C2495 1.383 . S
C2496 C2497 1.377 . S
C2497 H2481 0.930 . S
C2497 C2496 1.377 . S
C2497 C2498 1.379 . S
C2498 H2482 0.931 . S
C2498 C2492 1.383 . S
C2498 C2497 1.379 . S
H2499 C2493 0.959 . S
H2500 C2493 0.961 . S
H2501 C2493 0.960 . S
H2502 C2494 0.930 . S
H2503 C2495 0.929 . S
H2504 C2512 0.929 . S
H2505 C2514 0.930 . S
H2506 C2516 0.930 . S
H2507 C2519 0.929 . S
H2508 C2522 0.930 . S
H2509 C2524 0.960 . S
H2510 C2524 0.960 . S
H2511 C2524 0.960 . S
C2512 H2504 0.929 . S
C2512 C2513 1.377 . S
C2512 C2514 1.384 . S
C2513 C2512 1.377 . S
C2513 C2519 1.390 . S
C2514 H2505 0.930 . S
C2514 C2512 1.384 . S
C2514 C2515 1.372 . S
C2515 C2514 1.372 . S
C2515 C2516 1.400 . S
C2515 C2520 1.490 . S
C2516 H2506 0.930 . S
C2516 C2515 1.400 . S
C2516 C2519 1.386 . S
H2517 C2533 0.930 . S
H2518 C2534 0.931 . S
C2519 H2507 0.929 . S
C2519 C2513 1.390 . S
C2519 C2516 1.386 . S
C2520 C2515 1.490 . S
C2520 C2522 1.395 . S
C2520 C2523 1.403 . S
H2521 C2527 0.930 . S
C2522 H2508 0.930 . S
C2522 C2520 1.395 . S
C2522 C2525 1.403 . S
C2523 C2520 1.403 . S
C2523 C2524 1.524 . S
C2523 C2527 1.400 . S
C2524 H2509 0.960 . S
C2524 H2510 0.960 . S
C2524 H2511 0.960 . S
C2524 C2523 1.524 . S
C2525 C2522 1.403 . S
C2525 C2526 1.392 . S
C2525 C2529 1.495 . S
C2526 C2525 1.392 . S
C2526 C2527 1.385 . S
C2526 C2528 1.478 . S
C2527 H2521 0.930 . S
C2527 C2523 1.400 . S
C2527 C2526 1.385 . S
C2528 C2526 1.478 . S
C2528 C2530 1.381 . S
C2528 C2534 1.383 . S
C2529 C2525 1.495 . S
C2529 H2535 0.959 . S
C2529 H2536 0.961 . S
C2529 H2537 0.960 . S
C2530 C2528 1.381 . S
C2530 C2531 1.394 . S
C2530 H2538 0.930 . S
C2531 C2530 1.394 . S
C2531 C2532 1.383 . S
C2531 H2539 0.929 . S
C2532 C2531 1.383 . S
C2532 C2533 1.377 . S
C2533 H2517 0.930 . S
C2533 C2532 1.377 . S
C2533 C2534 1.379 . S
C2534 H2518 0.931 . S
C2534 C2528 1.383 . S
C2534 C2533 1.379 . S
H2535 C2529 0.959 . S
H2536 C2529 0.961 . S
H2537 C2529 0.960 . S
H2538 C2530 0.930 . S
H2539 C2531 0.929 . S
H2540 C2548 0.929 . S
H2541 C2550 0.930 . S
H2542 C2552 0.930 . S
H2543 C2555 0.929 . S
H2544 C2558 0.930 . S
H2545 C2560 0.960 . S
H2546 C2560 0.960 . S
H2547 C2560 0.960 . S
C2548 H2540 0.929 . S
C2548 C2549 1.377 . S
C2548 C2550 1.384 . S
C2549 C2548 1.377 . S
C2549 C2555 1.390 . S
C2550 H2541 0.930 . S
C2550 C2548 1.384 . S
C2550 C2551 1.372 . S
C2551 C2550 1.372 . S
C2551 C2552 1.400 . S
C2551 C2556 1.490 . S
C2552 H2542 0.930 . S
C2552 C2551 1.400 . S
C2552 C2555 1.386 . S
H2553 C2569 0.930 . S
H2554 C2570 0.931 . S
C2555 H2543 0.929 . S
C2555 C2549 1.390 . S
C2555 C2552 1.386 . S
C2556 C2551 1.490 . S
C2556 C2558 1.395 . S
C2556 C2559 1.403 . S
H2557 C2563 0.930 . S
C2558 H2544 0.930 . S
C2558 C2556 1.395 . S
C2558 C2561 1.403 . S
C2559 C2556 1.403 . S
C2559 C2560 1.524 . S
C2559 C2563 1.400 . S
C2560 H2545 0.960 . S
C2560 H2546 0.960 . S
C2560 H2547 0.960 . S
C2560 C2559 1.524 . S
C2561 C2558 1.403 . S
C2561 C2562 1.392 . S
C2561 C2565 1.495 . S
C2562 C2561 1.392 . S
C2562 C2563 1.385 . S
C2562 C2564 1.478 . S
C2563 H2557 0.930 . S
C2563 C2559 1.400 . S
C2563 C2562 1.385 . S
C2564 C2562 1.478 . S
C2564 C2566 1.381 . S
C2564 C2570 1.383 . S
C2565 C2561 1.495 . S
C2565 H2571 0.959 . S
C2565 H2572 0.961 . S
C2565 H2573 0.960 . S
C2566 C2564 1.381 . S
C2566 C2567 1.394 . S
C2566 H2574 0.930 . S
C2567 C2566 1.394 . S
C2567 C2568 1.383 . S
C2567 H2575 0.929 . S
C2568 C2567 1.383 . S
C2568 C2569 1.377 . S
C2569 H2553 0.930 . S
C2569 C2568 1.377 . S
C2569 C2570 1.379 . S
C2570 H2554 0.931 . S
C2570 C2564 1.383 . S
C2570 C2569 1.379 . S
H2571 C2565 0.959 . S
H2572 C2565 0.961 . S
H2573 C2565 0.960 . S
H2574 C2566 0.930 . S
H2575 C2567 0.929 . S
H2576 C2584 0.929 . S
H2577 C2586 0.930 . S
H2578 C2588 0.930 . S
H2579 C2591 0.929 . S
H2580 C2594 0.930 . S
H2581 C2596 0.960 . S
H2582 C2596 0.960 . S
H2583 C2596 0.960 . S
C2584 H2576 0.929 . S
C2584 C2585 1.377 . S
C2584 C2586 1.384 . S
C2585 C2584 1.377 . S
C2585 C2591 1.390 . S
C2586 H2577 0.930 . S
C2586 C2584 1.384 . S
C2586 C2587 1.372 . S
C2587 C2586 1.372 . S
C2587 C2588 1.400 . S
C2587 C2592 1.490 . S
C2588 H2578 0.930 . S
C2588 C2587 1.400 . S
C2588 C2591 1.386 . S
H2589 C2605 0.930 . S
H2590 C2606 0.931 . S
C2591 H2579 0.929 . S
C2591 C2585 1.390 . S
C2591 C2588 1.386 . S
C2592 C2587 1.490 . S
C2592 C2594 1.395 . S
C2592 C2595 1.403 . S
H2593 C2599 0.930 . S
C2594 H2580 0.930 . S
C2594 C2592 1.395 . S
C2594 C2597 1.403 . S
C2595 C2592 1.403 . S
C2595 C2596 1.524 . S
C2595 C2599 1.400 . S
C2596 H2581 0.960 . S
C2596 H2582 0.960 . S
C2596 H2583 0.960 . S
C2596 C2595 1.524 . S
C2597 C2594 1.403 . S
C2597 C2598 1.392 . S
C2597 C2601 1.495 . S
C2598 C2597 1.392 . S
C2598 C2599 1.385 . S
C2598 C2600 1.478 . S
C2599 H2593 0.930 . S
C2599 C2595 1.400 . S
C2599 C2598 1.385 . S
C2600 C2598 1.478 . S
C2600 C2602 1.381 . S
C2600 C2606 1.383 . S
C2601 C2597 1.495 . S
C2601 H2607 0.959 . S
C2601 H2608 0.961 . S
C2601 H2609 0.960 . S
C2602 C2600 1.381 . S
C2602 C2603 1.394 . S
C2602 H2610 0.930 . S
C2603 C2602 1.394 . S
C2603 C2604 1.383 . S
C2603 H2611 0.929 . S
C2604 C2603 1.383 . S
C2604 C2605 1.377 . S
C2605 H2589 0.930 . S
C2605 C2604 1.377 . S
C2605 C2606 1.379 . S
C2606 H2590 0.931 . S
C2606 C2600 1.383 . S
C2606 C2605 1.379 . S
H2607 C2601 0.959 . S
H2608 C2601 0.961 . S
H2609 C2601 0.960 . S
H2610 C2602 0.930 . S
H2611 C2603 0.929 . S
H2612 C2620 0.929 . S
H2613 C2622 0.930 . S
H2614 C2624 0.930 . S
H2615 C2627 0.929 . S
H2616 C2630 0.930 . S
H2617 C2632 0.960 . S
H2618 C2632 0.960 . S
H2619 C2632 0.960 . S
C2620 H2612 0.929 . S
C2620 C2621 1.377 . S
C2620 C2622 1.384 . S
C2621 C2620 1.377 . S
C2621 C2627 1.390 . S
C2622 H2613 0.930 . S
C2622 C2620 1.384 . S
C2622 C2623 1.372 . S
C2623 C2622 1.372 . S
C2623 C2624 1.400 . S
C2623 C2628 1.490 . S
C2624 H2614 0.930 . S
C2624 C2623 1.400 . S
C2624 C2627 1.386 . S
H2625 C2641 0.930 . S
H2626 C2642 0.931 . S
C2627 H2615 0.929 . S
C2627 C2621 1.390 . S
C2627 C2624 1.386 . S
C2628 C2623 1.490 . S
C2628 C2630 1.395 . S
C2628 C2631 1.403 . S
H2629 C2635 0.930 . S
C2630 H2616 0.930 . S
C2630 C2628 1.395 . S
C2630 C2633 1.403 . S
C2631 C2628 1.403 . S
C2631 C2632 1.524 . S
C2631 C2635 1.400 . S
C2632 H2617 0.960 . S
C2632 H2618 0.960 . S
C2632 H2619 0.960 . S
C2632 C2631 1.524 . S
C2633 C2630 1.403 . S
C2633 C2634 1.392 . S
C2633 C2637 1.495 . S
C2634 C2633 1.392 . S
C2634 C2635 1.385 . S
C2634 C2636 1.478 . S
C2635 H2629 0.930 . S
C2635 C2631 1.400 . S
C2635 C2634 1.385 . S
C2636 C2634 1.478 . S
C2636 C2638 1.381 . S
C2636 C2642 1.383 . S
C2637 C2633 1.495 . S
C2637 H2643 0.959 . S
C2637 H2644 0.961 . S
C2637 H2645 0.960 . S
C2638 C2636 1.381 . S
C2638 C2639 1.394 . S
C2638 H2646 0.930 . S
C2639 C2638 1.394 . S
C2639 C2640 1.383 . S
C2639 H2647 0.929 . S
C2640 C2639 1.383 . S
C2640 C2641 1.377 . S
C2641 H2625 0.930 . S
C2641 C2640 1.377 . S
C2641 C2642 1.379 . S
C2642 H2626 0.931 . S
C2642 C2636 1.383 . S
C2642 C2641 1.379 . S
H2643 C2637 0.959 . S
H2644 C2637 0.961 . S
H2645 C2637 0.960 . S
H2646 C2638 0.930 . S
H2647 C2639 0.929 . S
H2648 C2656 0.929 . S
H2649 C2658 0.930 . S
H2650 C2660 0.930 . S
H2651 C2663 0.929 . S
H2652 C2666 0.930 . S
H2653 C2668 0.960 . S
H2654 C2668 0.960 . S
H2655 C2668 0.960 . S
C2656 H2648 0.929 . S
C2656 C2657 1.377 . S
C2656 C2658 1.384 . S
C2657 C2656 1.377 . S
C2657 C2663 1.390 . S
C2658 H2649 0.930 . S
C2658 C2656 1.384 . S
C2658 C2659 1.372 . S
C2659 C2658 1.372 . S
C2659 C2660 1.400 . S
C2659 C2664 1.490 . S
C2660 H2650 0.930 . S
C2660 C2659 1.400 . S
C2660 C2663 1.386 . S
H2661 C2677 0.930 . S
H2662 C2678 0.931 . S
C2663 H2651 0.929 . S
C2663 C2657 1.390 . S
C2663 C2660 1.386 . S
C2664 C2659 1.490 . S
C2664 C2666 1.395 . S
C2664 C2667 1.403 . S
H2665 C2671 0.930 . S
C2666 H2652 0.930 . S
C2666 C2664 1.395 . S
C2666 C2669 1.403 . S
C2667 C2664 1.403 . S
C2667 C2668 1.524 . S
C2667 C2671 1.400 . S
C2668 H2653 0.960 . S
C2668 H2654 0.960 . S
C2668 H2655 0.960 . S
C2668 C2667 1.524 . S
C2669 C2666 1.403 . S
C2669 C2670 1.392 . S
C2669 C2673 1.495 . S
C2670 C2669 1.392 . S
C2670 C2671 1.385 . S
C2670 C2672 1.478 . S
C2671 H2665 0.930 . S
C2671 C2667 1.400 . S
C2671 C2670 1.385 . S
C2672 C2670 1.478 . S
C2672 C2674 1.381 . S
C2672 C2678 1.383 . S
C2673 C2669 1.495 . S
C2673 H2679 0.959 . S
C2673 H2680 0.961 . S
C2673 H2681 0.960 . S
C2674 C2672 1.381 . S
C2674 C2675 1.394 . S
C2674 H2682 0.930 . S
C2675 C2674 1.394 . S
C2675 C2676 1.383 . S
C2675 H2683 0.929 . S
C2676 C2675 1.383 . S
C2676 C2677 1.377 . S
C2677 H2661 0.930 . S
C2677 C2676 1.377 . S
C2677 C2678 1.379 . S
C2678 H2662 0.931 . S
C2678 C2672 1.383 . S
C2678 C2677 1.379 . S
H2679 C2673 0.959 . S
H2680 C2673 0.961 . S
H2681 C2673 0.960 . S
H2682 C2674 0.930 . S
H2683 C2675 0.929 . S
H2684 C2692 0.929 . S
H2685 C2694 0.930 . S
H2686 C2696 0.930 . S
H2687 C2699 0.929 . S
H2688 C2702 0.930 . S
H2689 C2704 0.960 . S
H2690 C2704 0.960 . S
H2691 C2704 0.960 . S
C2692 H2684 0.929 . S
C2692 C2693 1.377 . S
C2692 C2694 1.384 . S
C2693 C2692 1.377 . S
C2693 C2699 1.390 . S
C2694 H2685 0.930 . S
C2694 C2692 1.384 . S
C2694 C2695 1.372 . S
C2695 C2694 1.372 . S
C2695 C2696 1.400 . S
C2695 C2700 1.490 . S
C2696 H2686 0.930 . S
C2696 C2695 1.400 . S
C2696 C2699 1.386 . S
H2697 C2713 0.930 . S
H2698 C2714 0.931 . S
C2699 H2687 0.929 . S
C2699 C2693 1.390 . S
C2699 C2696 1.386 . S
C2700 C2695 1.490 . S
C2700 C2702 1.395 . S
C2700 C2703 1.403 . S
H2701 C2707 0.930 . S
C2702 H2688 0.930 . S
C2702 C2700 1.395 . S
C2702 C2705 1.403 . S
C2703 C2700 1.403 . S
C2703 C2704 1.524 . S
C2703 C2707 1.400 . S
C2704 H2689 0.960 . S
C2704 H2690 0.960 . S
C2704 H2691 0.960 . S
C2704 C2703 1.524 . S
C2705 C2702 1.403 . S
C2705 C2706 1.392 . S
C2705 C2709 1.495 . S
C2706 C2705 1.392 . S
C2706 C2707 1.385 . S
C2706 C2708 1.478 . S
C2707 H2701 0.930 . S
C2707 C2703 1.400 . S
C2707 C2706 1.385 . S
C2708 C2706 1.478 . S
C2708 C2710 1.381 . S
C2708 C2714 1.383 . S
C2709 C2705 1.495 . S
C2709 H2715 0.959 . S
C2709 H2716 0.961 . S
C2709 H2717 0.960 . S
C2710 C2708 1.381 . S
C2710 C2711 1.394 . S
C2710 H2718 0.930 . S
C2711 C2710 1.394 . S
C2711 C2712 1.383 . S
C2711 H2719 0.929 . S
C2712 C2711 1.383 . S
C2712 C2713 1.377 . S
C2713 H2697 0.930 . S
C2713 C2712 1.377 . S
C2713 C2714 1.379 . S
C2714 H2698 0.931 . S
C2714 C2708 1.383 . S
C2714 C2713 1.379 . S
H2715 C2709 0.959 . S
H2716 C2709 0.961 . S
H2717 C2709 0.960 . S
H2718 C2710 0.930 . S
H2719 C2711 0.929 . S
C425 C359 1.270 . S
C444 C5 1.195 . S
C461 C18 1.236 . S
C480 C112 1.280 . S
C497 C333 1.261 . S
C516 C31 1.246 . S
C533 C44 1.225 . S
C552 C138 1.247 . S
C569 C57 1.225 . S
C588 C385 1.285 . S
C605 C70 1.234 . S
C624 C190 1.284 . S
C641 C83 1.230 . S
C660 C411 1.238 . S
C677 C96 1.227 . S
C696 C164 1.243 . S
C713 C255 1.269 . S
C732 C109 1.191 . S
C749 C8 1.262 . S
C768 C122 1.232 . S
C785 C229 1.271 . S
C804 C135 1.221 . S
C821 C148 1.238 . S
C840 C34 1.244 . S
C857 C281 1.268 . S
C876 C161 1.243 . S
C893 C86 1.262 . S
C912 C174 1.229 . S
C929 C187 1.238 . S
C948 C307 1.238 . S
C965 C60 1.261 . S
C984 C200 1.242 . S
C1001 C213 1.232 . S
C1020 C151 1.237 . S
C1037 C226 1.236 . S
C1056 C320 1.280 . S
C1073 C125 1.271 . S
C1092 C239 1.202 . S
C1109 C346 1.261 . S
C1128 C252 1.244 . S
C1145 C177 1.262 . S
C1164 C265 1.256 . S
C1181 C398 1.267 . S
C1200 C278 1.190 . S
C1217 C203 1.272 . S
C1236 C291 1.218 . S
C1253 C304 1.238 . S
C1272 C372 1.259 . S
C1289 C47 1.266 . S
C1308 C317 1.253 . S
C1325 C330 1.223 . S
C1344 C216 1.286 . S
C1361 C343 1.224 . S
C1380 C21 1.267 . S
C1397 C356 1.230 . S
C1416 C242 1.247 . S
C1433 C369 1.238 . S
C1452 C73 1.253 . S
C1469 C382 1.230 . S
C1488 C294 1.248 . S
C1505 C395 1.223 . S
C1524 C99 1.276 . S
C1541 C408 1.235 . S
C1560 C268 1.267 . S
C1577 C322 1.501 . S
C1596 C10 1.507 . S
C1613 C23 1.499 . S
C1632 C127 1.485 . S
C1649 C348 1.501 . S
C1668 C36 1.492 . S
C1685 C49 1.502 . S
C1704 C153 1.498 . S
C1721 C374 1.497 . S
C1740 C62 1.490 . S
C1757 C75 1.499 . S
C1776 C179 1.505 . S
C1793 C400 1.497 . S
C1812 C88 1.491 . S
C1829 C101 1.501 . S
C1848 C205 1.505 . S
C1865 C114 1.502 . S
C1884 C218 1.498 . S
C1901 C140 1.500 . S
C1920 C244 1.488 . S
C1937 C166 1.499 . S
C1956 C270 1.486 . S
C1973 C192 1.502 . S
C1992 C296 1.503 . S
C2009 C231 1.500 . S
C2028 C335 1.489 . S
C2045 C361 1.501 . S
C2064 C257 1.506 . S
C2081 C387 1.502 . S
C2100 C283 1.499 . S
C2117 C309 1.497 . S
C2136 C413 1.488 . S
C2153 C0 0.899 . S
C2172 C65 0.854 . S
C2189 C13 0.904 . S
C2208 C78 0.930 . S
C2225 C26 0.906 . S
C2244 C91 0.886 . S
C2261 C52 0.901 . S
C2280 C39 0.939 . S
C2297 C104 0.896 . S
C2316 C169 0.921 . S
C2333 C117 0.890 . S
C2352 C182 0.888 . S
C2369 C130 0.888 . S
C2388 C195 0.869 . S
C2405 C143 0.905 . S
C2424 C156 0.904 . S
C2441 C208 0.904 . S
C2460 C273 0.872 . S
C2477 C286 0.896 . S
C2496 C221 0.852 . S
C2513 C234 0.905 . S
C2532 C299 0.883 . S
C2549 C247 0.902 . S
C2568 C260 0.865 . S
C2585 C377 0.889 . S
C2604 C312 0.881 . S
C2621 C325 0.893 . S
C2640 C390 0.909 . S
C2657 C403 0.890 . S
C2676 C338 0.893 . S
C2693 C351 0.901 . S
C2712 C364 0.937 . S
