# Generated by pormake.
# Topology wip, (6)-cn, num edge types: 1
# Building blocks:
#     Node 0, Type 0, BuildingBlock: BETDEL_clean_sbu_0, # of connection points: 6
#     Node 1, Type 0, BuildingBlock: BETDEL_clean_sbu_0, # of connection points: 6
#     Node 2, Type 0, BuildingBlock: BETDEL_clean_sbu_0, # of connection points: 6
#     Node 3, Type 0, BuildingBlock: BETDEL_clean_sbu_0, # of connection points: 6
#     Node 4, Type 0, BuildingBlock: BETDEL_clean_sbu_0, # of connection points: 6
#     Node 5, Type 0, BuildingBlock: BETDEL_clean_sbu_0, # of connection points: 6
#     Node 6, Type 0, BuildingBlock: BETDEL_clean_sbu_0, # of connection points: 6
#     Node 7, Type 0, BuildingBlock: BETDEL_clean_sbu_0, # of connection points: 6
#     Node 8, Type 0, BuildingBlock: BETDEL_clean_sbu_0, # of connection points: 6
#     Node 9, Type 0, BuildingBlock: BETDEL_clean_sbu_0, # of connection points: 6
#     Node 10, Type 0, BuildingBlock: BETDEL_clean_sbu_0, # of connection points: 6
#     Node 11, Type 0, BuildingBlock: BETDEL_clean_sbu_0, # of connection points: 6
#     Node 12, Type 0, BuildingBlock: BETDEL_clean_sbu_0, # of connection points: 6
#     Node 13, Type 0, BuildingBlock: BETDEL_clean_sbu_0, # of connection points: 6
#     Node 14, Type 0, BuildingBlock: BETDEL_clean_sbu_0, # of connection points: 6
#     Node 15, Type 0, BuildingBlock: BETDEL_clean_sbu_0, # of connection points: 6
#     Node 16, Type 0, BuildingBlock: BETDEL_clean_sbu_0, # of connection points: 6
#     Node 17, Type 0, BuildingBlock: BETDEL_clean_sbu_0, # of connection points: 6
#     Node 18, Type 0, BuildingBlock: BETDEL_clean_sbu_0, # of connection points: 6
#     Node 19, Type 0, BuildingBlock: BETDEL_clean_sbu_0, # of connection points: 6
#     Node 20, Type 0, BuildingBlock: BETDEL_clean_sbu_0, # of connection points: 6
#     Node 21, Type 0, BuildingBlock: BETDEL_clean_sbu_0, # of connection points: 6
#     Node 22, Type 0, BuildingBlock: BETDEL_clean_sbu_0, # of connection points: 6
#     Node 23, Type 0, BuildingBlock: BETDEL_clean_sbu_0, # of connection points: 6
#     Node 24, Type 0, BuildingBlock: BETDEL_clean_sbu_0, # of connection points: 6
#     Node 25, Type 0, BuildingBlock: BETDEL_clean_sbu_0, # of connection points: 6
#     Node 26, Type 0, BuildingBlock: BETDEL_clean_sbu_0, # of connection points: 6
#     Node 27, Type 0, BuildingBlock: BETDEL_clean_sbu_0, # of connection points: 6
#     Node 28, Type 0, BuildingBlock: BETDEL_clean_sbu_0, # of connection points: 6
#     Node 29, Type 0, BuildingBlock: BETDEL_clean_sbu_0, # of connection points: 6
#     Node 30, Type 0, BuildingBlock: BETDEL_clean_sbu_0, # of connection points: 6
#     Node 31, Type 0, BuildingBlock: BETDEL_clean_sbu_0, # of connection points: 6
#     Edge 32, Type (0, 0), BuildingBlock: OJICUG_clean_linker_0, # of connection points: 2
#     Edge 33, Type (0, 0), BuildingBlock: OJICUG_clean_linker_0, # of connection points: 2
#     Edge 34, Type (0, 0), BuildingBlock: OJICUG_clean_linker_0, # of connection points: 2
#     Edge 35, Type (0, 0), BuildingBlock: OJICUG_clean_linker_0, # of connection points: 2
#     Edge 36, Type (0, 0), BuildingBlock: OJICUG_clean_linker_0, # of connection points: 2
#     Edge 37, Type (0, 0), BuildingBlock: OJICUG_clean_linker_0, # of connection points: 2
#     Edge 38, Type (0, 0), BuildingBlock: OJICUG_clean_linker_0, # of connection points: 2
#     Edge 39, Type (0, 0), BuildingBlock: OJICUG_clean_linker_0, # of connection points: 2
#     Edge 40, Type (0, 0), BuildingBlock: OJICUG_clean_linker_0, # of connection points: 2
#     Edge 41, Type (0, 0), BuildingBlock: OJICUG_clean_linker_0, # of connection points: 2
#     Edge 42, Type (0, 0), BuildingBlock: OJICUG_clean_linker_0, # of connection points: 2
#     Edge 43, Type (0, 0), BuildingBlock: OJICUG_clean_linker_0, # of connection points: 2
#     Edge 44, Type (0, 0), BuildingBlock: OJICUG_clean_linker_0, # of connection points: 2
#     Edge 45, Type (0, 0), BuildingBlock: OJICUG_clean_linker_0, # of connection points: 2
#     Edge 46, Type (0, 0), BuildingBlock: OJICUG_clean_linker_0, # of connection points: 2
#     Edge 47, Type (0, 0), BuildingBlock: OJICUG_clean_linker_0, # of connection points: 2
#     Edge 48, Type (0, 0), BuildingBlock: OJICUG_clean_linker_0, # of connection points: 2
#     Edge 49, Type (0, 0), BuildingBlock: OJICUG_clean_linker_0, # of connection points: 2
#     Edge 50, Type (0, 0), BuildingBlock: OJICUG_clean_linker_0, # of connection points: 2
#     Edge 51, Type (0, 0), BuildingBlock: OJICUG_clean_linker_0, # of connection points: 2
#     Edge 52, Type (0, 0), BuildingBlock: OJICUG_clean_linker_0, # of connection points: 2
#     Edge 53, Type (0, 0), BuildingBlock: OJICUG_clean_linker_0, # of connection points: 2
#     Edge 54, Type (0, 0), BuildingBlock: OJICUG_clean_linker_0, # of connection points: 2
#     Edge 55, Type (0, 0), BuildingBlock: OJICUG_clean_linker_0, # of connection points: 2
#     Edge 56, Type (0, 0), BuildingBlock: OJICUG_clean_linker_0, # of connection points: 2
#     Edge 57, Type (0, 0), BuildingBlock: OJICUG_clean_linker_0, # of connection points: 2
#     Edge 58, Type (0, 0), BuildingBlock: OJICUG_clean_linker_0, # of connection points: 2
#     Edge 59, Type (0, 0), BuildingBlock: OJICUG_clean_linker_0, # of connection points: 2
#     Edge 60, Type (0, 0), BuildingBlock: OJICUG_clean_linker_0, # of connection points: 2
#     Edge 61, Type (0, 0), BuildingBlock: OJICUG_clean_linker_0, # of connection points: 2
#     Edge 62, Type (0, 0), BuildingBlock: OJICUG_clean_linker_0, # of connection points: 2
#     Edge 63, Type (0, 0), BuildingBlock: OJICUG_clean_linker_0, # of connection points: 2
#     Edge 64, Type (0, 0), BuildingBlock: OJICUG_clean_linker_0, # of connection points: 2
#     Edge 65, Type (0, 0), BuildingBlock: OJICUG_clean_linker_0, # of connection points: 2
#     Edge 66, Type (0, 0), BuildingBlock: OJICUG_clean_linker_0, # of connection points: 2
#     Edge 67, Type (0, 0), BuildingBlock: OJICUG_clean_linker_0, # of connection points: 2
#     Edge 68, Type (0, 0), BuildingBlock: OJICUG_clean_linker_0, # of connection points: 2
#     Edge 69, Type (0, 0), BuildingBlock: OJICUG_clean_linker_0, # of connection points: 2
#     Edge 70, Type (0, 0), BuildingBlock: OJICUG_clean_linker_0, # of connection points: 2
#     Edge 71, Type (0, 0), BuildingBlock: OJICUG_clean_linker_0, # of connection points: 2
#     Edge 72, Type (0, 0), BuildingBlock: OJICUG_clean_linker_0, # of connection points: 2
#     Edge 73, Type (0, 0), BuildingBlock: OJICUG_clean_linker_0, # of connection points: 2
#     Edge 74, Type (0, 0), BuildingBlock: OJICUG_clean_linker_0, # of connection points: 2
#     Edge 75, Type (0, 0), BuildingBlock: OJICUG_clean_linker_0, # of connection points: 2
#     Edge 76, Type (0, 0), BuildingBlock: OJICUG_clean_linker_0, # of connection points: 2
#     Edge 77, Type (0, 0), BuildingBlock: OJICUG_clean_linker_0, # of connection points: 2
#     Edge 78, Type (0, 0), BuildingBlock: OJICUG_clean_linker_0, # of connection points: 2
#     Edge 79, Type (0, 0), BuildingBlock: OJICUG_clean_linker_0, # of connection points: 2
#     Edge 80, Type (0, 0), BuildingBlock: OJICUG_clean_linker_0, # of connection points: 2
#     Edge 81, Type (0, 0), BuildingBlock: OJICUG_clean_linker_0, # of connection points: 2
#     Edge 82, Type (0, 0), BuildingBlock: OJICUG_clean_linker_0, # of connection points: 2
#     Edge 83, Type (0, 0), BuildingBlock: OJICUG_clean_linker_0, # of connection points: 2
#     Edge 84, Type (0, 0), BuildingBlock: OJICUG_clean_linker_0, # of connection points: 2
#     Edge 85, Type (0, 0), BuildingBlock: OJICUG_clean_linker_0, # of connection points: 2
#     Edge 86, Type (0, 0), BuildingBlock: OJICUG_clean_linker_0, # of connection points: 2
#     Edge 87, Type (0, 0), BuildingBlock: OJICUG_clean_linker_0, # of connection points: 2
#     Edge 88, Type (0, 0), BuildingBlock: OJICUG_clean_linker_0, # of connection points: 2
#     Edge 89, Type (0, 0), BuildingBlock: OJICUG_clean_linker_0, # of connection points: 2
#     Edge 90, Type (0, 0), BuildingBlock: OJICUG_clean_linker_0, # of connection points: 2
#     Edge 91, Type (0, 0), BuildingBlock: OJICUG_clean_linker_0, # of connection points: 2
#     Edge 92, Type (0, 0), BuildingBlock: OJICUG_clean_linker_0, # of connection points: 2
#     Edge 93, Type (0, 0), BuildingBlock: OJICUG_clean_linker_0, # of connection points: 2
#     Edge 94, Type (0, 0), BuildingBlock: OJICUG_clean_linker_0, # of connection points: 2
#     Edge 95, Type (0, 0), BuildingBlock: OJICUG_clean_linker_0, # of connection points: 2
#     Edge 96, Type (0, 0), BuildingBlock: OJICUG_clean_linker_0, # of connection points: 2
#     Edge 97, Type (0, 0), BuildingBlock: OJICUG_clean_linker_0, # of connection points: 2
#     Edge 98, Type (0, 0), BuildingBlock: OJICUG_clean_linker_0, # of connection points: 2
#     Edge 99, Type (0, 0), BuildingBlock: OJICUG_clean_linker_0, # of connection points: 2
#     Edge 100, Type (0, 0), BuildingBlock: OJICUG_clean_linker_0, # of connection points: 2
#     Edge 101, Type (0, 0), BuildingBlock: OJICUG_clean_linker_0, # of connection points: 2
#     Edge 102, Type (0, 0), BuildingBlock: OJICUG_clean_linker_0, # of connection points: 2
#     Edge 103, Type (0, 0), BuildingBlock: OJICUG_clean_linker_0, # of connection points: 2
#     Edge 104, Type (0, 0), BuildingBlock: OJICUG_clean_linker_0, # of connection points: 2
#     Edge 105, Type (0, 0), BuildingBlock: OJICUG_clean_linker_0, # of connection points: 2
#     Edge 106, Type (0, 0), BuildingBlock: OJICUG_clean_linker_0, # of connection points: 2
#     Edge 107, Type (0, 0), BuildingBlock: OJICUG_clean_linker_0, # of connection points: 2
#     Edge 108, Type (0, 0), BuildingBlock: OJICUG_clean_linker_0, # of connection points: 2
#     Edge 109, Type (0, 0), BuildingBlock: OJICUG_clean_linker_0, # of connection points: 2
#     Edge 110, Type (0, 0), BuildingBlock: OJICUG_clean_linker_0, # of connection points: 2
#     Edge 111, Type (0, 0), BuildingBlock: OJICUG_clean_linker_0, # of connection points: 2
#     Edge 112, Type (0, 0), BuildingBlock: OJICUG_clean_linker_0, # of connection points: 2
#     Edge 113, Type (0, 0), BuildingBlock: OJICUG_clean_linker_0, # of connection points: 2
#     Edge 114, Type (0, 0), BuildingBlock: OJICUG_clean_linker_0, # of connection points: 2
#     Edge 115, Type (0, 0), BuildingBlock: OJICUG_clean_linker_0, # of connection points: 2
#     Edge 116, Type (0, 0), BuildingBlock: OJICUG_clean_linker_0, # of connection points: 2
#     Edge 117, Type (0, 0), BuildingBlock: OJICUG_clean_linker_0, # of connection points: 2
#     Edge 118, Type (0, 0), BuildingBlock: OJICUG_clean_linker_0, # of connection points: 2
#     Edge 119, Type (0, 0), BuildingBlock: OJICUG_clean_linker_0, # of connection points: 2
#     Edge 120, Type (0, 0), BuildingBlock: OJICUG_clean_linker_0, # of connection points: 2
#     Edge 121, Type (0, 0), BuildingBlock: OJICUG_clean_linker_0, # of connection points: 2
#     Edge 122, Type (0, 0), BuildingBlock: OJICUG_clean_linker_0, # of connection points: 2
#     Edge 123, Type (0, 0), BuildingBlock: OJICUG_clean_linker_0, # of connection points: 2
#     Edge 124, Type (0, 0), BuildingBlock: OJICUG_clean_linker_0, # of connection points: 2
#     Edge 125, Type (0, 0), BuildingBlock: OJICUG_clean_linker_0, # of connection points: 2
#     Edge 126, Type (0, 0), BuildingBlock: OJICUG_clean_linker_0, # of connection points: 2
#     Edge 127, Type (0, 0), BuildingBlock: OJICUG_clean_linker_0, # of connection points: 2
# Relax obj value: 0.370
# Max RMSD: 0.228
# Mean RMSD: 0.204
data_MOF--net-wip--node1-BETDEL_clean_sbu_0--edge1-OJICUG_clean_linker_0
_symmetry_space_group_name_H-M    P1
_symmetry_Int_Tables_number       1
_symmetry_cell_setting            triclinic
loop_
_symmetry_equiv_pos_as_xyz
'x, y, z'
_cell_length_a     47.971033
_cell_length_b     47.983187
_cell_length_c     20.077941
_cell_angle_alpha  93.612386
_cell_angle_beta   89.884293
_cell_angle_gamma 89.92266
loop_
_atom_site_label
_atom_site_type_symbol
_atom_site_fract_x
_atom_site_fract_y
_atom_site_fract_z
_atom_type_partial_charge
Dy0 Dy 0.05307 0.41005 0.09876 0.0
C1 C 0.10536 0.46917 0.88479 0.0
C2 C 0.02364 0.38639 0.19972 0.0
Dy3 Dy 0.08853 0.43834 0.98949 0.0
O4 O 0.01289 0.39964 0.15132 0.0
O5 O 0.05042 0.38403 0.18952 0.0
O6 O 0.04458 0.45257 0.14154 0.0
O7 O 0.04808 0.44598 1.03871 0.0
C8 C 0.04218 0.46389 0.08518 0.0
C9 C 0.11066 0.39291 0.04287 0.0
O10 O 0.10193 0.46292 0.08313 0.0
O11 O 0.08988 0.42883 0.15519 0.0
O12 O 0.10603 0.44201 0.88493 0.0
O13 O 0.09632 0.47927 0.94261 0.0
O14 O 0.12549 0.41314 1.0209 0.0
O15 O 0.08555 0.39694 1.02871 0.0
O16 O 0.02818 0.39626 1.00526 0.0
O17 O 0.05427 0.41924 0.92675 0.0
C18 C 0.10275 0.45251 0.14288 0.0
C19 C 0.03274 0.4037 0.9429 0.0
Dy20 Dy 0.835 0.79754 0.3666 0.0
C21 C 0.77265 0.85048 0.15644 0.0
C22 C 0.84886 0.77552 0.48539 0.0
Dy23 Dy 0.80415 0.8339 0.26296 0.0
O24 O 0.86715 0.78162 0.43986 0.0
O25 O 0.8241 0.78142 0.4652 0.0
O26 O 0.81388 0.76008 0.32264 0.0
O27 O 0.79386 0.79879 0.32285 0.0
C28 C 0.79155 0.77316 0.30583 0.0
C29 C 0.84635 0.85839 0.33361 0.0
O30 O 0.77774 0.84464 0.35356 0.0
O31 O 0.81087 0.83044 0.42888 0.0
O32 O 0.79968 0.85238 0.16136 0.0
O33 O 0.76306 0.84031 0.21052 0.0
O34 O 0.82569 0.87216 0.30909 0.0
O35 O 0.84505 0.83339 0.31089 0.0
O36 O 0.85451 0.77802 0.27238 0.0
O37 O 0.82417 0.79913 0.1993 0.0
C38 C 0.78712 0.84329 0.41553 0.0
C39 C 0.84387 0.78068 0.21166 0.0
Dy40 Dy 0.4338 0.57531 0.52547 0.0
C41 C 0.36417 0.52108 0.72344 0.0
C42 C 0.46885 0.58689 0.42076 0.0
Dy43 Dy 0.3948 0.54083 0.62045 0.0
O44 O 0.44184 0.58957 0.42119 0.0
O45 O 0.47669 0.57923 0.4789 0.0
O46 O 0.41478 0.61554 0.56539 0.0
O47 O 0.39146 0.57871 0.56666 0.0
C48 C 0.39254 0.60394 0.589 0.0
C49 C 0.44002 0.5142 0.57046 0.0
O50 O 0.37376 0.53074 0.52195 0.0
O51 O 0.41199 0.543 0.45796 0.0
O52 O 0.37129 0.50676 0.66907 0.0
O53 O 0.37267 0.54661 0.71984 0.0
O54 O 0.41802 0.50137 0.59021 0.0
O55 O 0.43697 0.53966 0.58529 0.0
O56 O 0.45784 0.58184 0.62279 0.0
O57 O 0.42383 0.56452 0.69308 0.0
C58 C 0.38759 0.53041 0.46434 0.0
C59 C 0.44805 0.57743 0.68376 0.0
Dy60 Dy 0.6597 0.18564 0.75317 0.0
C61 C 0.7127 0.11455 0.94846 0.0
C62 C 0.64935 0.22144 0.65319 0.0
Dy63 Dy 0.69273 0.14505 0.84696 0.0
O64 O 0.64392 0.19481 0.65008 0.0
O65 O 0.65939 0.22858 0.712 0.0
O66 O 0.6188 0.16838 0.78311 0.0
O67 O 0.65471 0.14347 0.78734 0.0
C68 C 0.6295 0.14582 0.80584 0.0
C69 C 0.72025 0.18984 0.80843 0.0
O70 O 0.70233 0.12369 0.74659 0.0
O71 O 0.69092 0.16222 0.68645 0.0
O72 O 0.727 0.12215 0.89779 0.0
O73 O 0.68694 0.12227 0.9415 0.0
O74 O 0.7326 0.16717 0.82443 0.0
O75 O 0.69487 0.18727 0.81942 0.0
O76 O 0.65341 0.2095 0.85407 0.0
O77 O 0.67024 0.17497 0.92116 0.0
C78 C 0.70294 0.13745 0.691 0.0
C79 C 0.65794 0.19961 0.91413 0.0
Dy80 Dy 0.04712 0.57505 0.60556 0.0
C81 C 0.11403 0.51865 0.38739 0.0
C82 C 0.01697 0.59036 0.71991 0.0
Dy83 Dy 0.08531 0.54004 0.49804 0.0
O84 O 0.00636 0.58011 0.6638 0.0
O85 O 0.04374 0.59298 0.7123 0.0
O86 O 0.06341 0.61494 0.56923 0.0
O87 O 0.08832 0.57896 0.55925 0.0
C88 C 0.08578 0.60369 0.54201 0.0
C89 C 0.04572 0.5118 0.55414 0.0
O90 O 0.1084 0.53234 0.59389 0.0
O91 O 0.07148 0.54559 0.66506 0.0
O92 O 0.11119 0.50673 0.44323 0.0
O93 O 0.10271 0.54331 0.39379 0.0
O94 O 0.06629 0.49941 0.52276 0.0
O95 O 0.04483 0.53702 0.54213 0.0
O96 O 0.02025 0.57807 0.51356 0.0
O97 O 0.05296 0.56073 0.43444 0.0
C98 C 0.09585 0.53322 0.65354 0.0
C99 C 0.02852 0.57283 0.45027 0.0
Dy100 Dy 0.65743 0.80483 0.85446 0.0
C101 C 0.7205 0.86349 0.6519 0.0
C102 C 0.64037 0.77139 0.95395 0.0
Dy103 Dy 0.69587 0.83907 0.75791 0.0
O104 O 0.63152 0.79671 0.9465 0.0
O105 O 0.65774 0.76436 0.90596 0.0
O106 O 0.62023 0.82689 0.81526 0.0
O107 O 0.65899 0.84696 0.8184 0.0
C108 C 0.63446 0.84821 0.79646 0.0
C109 C 0.71885 0.79489 0.80462 0.0
O110 O 0.70815 0.85954 0.85934 0.0
O111 O 0.68876 0.82545 0.9235 0.0
O112 O 0.73159 0.86097 0.71013 0.0
O113 O 0.69496 0.85462 0.65358 0.0
O114 O 0.73353 0.8152 0.7839 0.0
O115 O 0.69365 0.79758 0.7904 0.0
O116 O 0.64858 0.77984 0.75891 0.0
O117 O 0.66971 0.81021 0.68724 0.0
C118 C 0.70522 0.84728 0.9171 0.0
C119 C 0.65416 0.78774 0.6979 0.0
Dy120 Dy 0.4352 0.41411 0.16409 0.0
C121 C 0.36476 0.47063 0.97243 0.0
C122 C 0.47027 0.4015 0.26745 0.0
Dy123 Dy 0.3956 0.44973 0.07344 0.0
O124 O 0.4433 0.39852 0.26698 0.0
O125 O 0.47806 0.40996 0.20998 0.0
O126 O 0.41694 0.37435 0.11894 0.0
O127 O 0.39291 0.41099 0.12409 0.0
C128 C 0.3943 0.38628 0.09845 0.0
C129 C 0.44055 0.47605 0.12492 0.0
O130 O 0.37446 0.45822 0.17249 0.0
O131 O 0.4129 0.44523 0.23455 0.0
O132 O 0.37281 0.48468 1.0263 0.0
O133 O 0.37248 0.44482 0.97548 0.0
O134 O 0.41812 0.48894 0.10803 0.0
O135 O 0.43779 0.45077 0.10765 0.0
O136 O 0.45931 0.4094 0.06642 0.0
O137 O 0.42505 0.42759 0.99836 0.0
C138 C 0.38837 0.45782 0.22971 0.0
C139 C 0.44943 0.41469 1.00616 0.0
Dy140 Dy 0.8233 0.17956 0.42135 0.0
C141 C 0.7645 0.11344 0.20471 0.0
C142 C 0.83575 0.21465 0.53233 0.0
Dy143 Dy 0.78719 0.14191 0.31526 0.0
O144 O 0.83981 0.18776 0.52705 0.0
O145 O 0.82602 0.22238 0.47585 0.0
O146 O 0.86296 0.15976 0.38474 0.0
O147 O 0.82553 0.13745 0.37216 0.0
C148 C 0.85082 0.13835 0.35367 0.0
C149 C 0.76306 0.18853 0.36895 0.0
O150 O 0.77646 0.12084 0.40889 0.0
O151 O 0.79085 0.15804 0.48125 0.0
O152 O 0.75106 0.12179 0.25844 0.0
O153 O 0.79072 0.11939 0.21294 0.0
O154 O 0.74912 0.16688 0.34618 0.0
O155 O 0.78817 0.18408 0.35654 0.0
O156 O 0.83114 0.20312 0.32806 0.0
O157 O 0.81175 0.17016 0.25036 0.0
C158 C 0.77701 0.13433 0.46894 0.0
C159 C 0.82592 0.19368 0.26505 0.0
Dy160 Dy 0.89261 0.54323 0.18378 0.0
C161 C 0.95909 0.59424 0.97567 0.0
C162 C 0.8761 0.51283 0.2895 0.0
Dy163 Dy 0.92907 0.5711 0.07593 0.0
O164 O 0.87581 0.53998 0.28903 0.0
O165 O 0.88428 0.50247 0.23114 0.0
O166 O 0.85647 0.56989 0.15455 0.0
O167 O 0.89699 0.5849 0.14649 0.0
C168 C 0.87194 0.58977 0.13304 0.0
C169 C 0.93805 0.51666 0.08784 0.0
O170 O 0.95434 0.58376 0.16939 0.0
O171 O 0.9275 0.56107 0.24694 0.0
O172 O 0.96949 0.58044 1.02355 0.0
O173 O 0.93241 0.59747 0.98612 0.0
O174 O 0.93611 0.52835 1.03185 0.0
O175 O 0.9327 0.53469 0.13437 0.0
O176 O 0.87822 0.52006 0.08845 0.0
O177 O 0.8916 0.55458 1.01888 0.0
C178 C 0.94951 0.57608 0.2314 0.0
C179 C 0.87793 0.53117 1.02932 0.0
Dy180 Dy 0.18111 0.15568 0.91242 0.0
C181 C 0.12002 0.21753 0.71035 0.0
C182 C 0.21387 0.14222 1.02019 0.0
Dy183 Dy 0.14738 0.19023 0.80804 0.0
O184 O 0.18694 0.13889 1.01548 0.0
O185 O 0.22287 0.15174 0.96457 0.0
O186 O 0.15902 0.11678 0.87247 0.0
O187 O 0.13911 0.15528 0.86872 0.0
C188 C 0.13765 0.12984 0.84912 0.0
C189 C 0.20057 0.20314 0.82412 0.0
O190 O 0.13417 0.21382 0.9055 0.0
O191 O 0.16006 0.18831 0.97965 0.0
O192 O 0.13227 0.22938 0.76251 0.0
O193 O 0.12027 0.19056 0.71553 0.0
O194 O 0.1874 0.20423 0.76838 0.0
O195 O 0.18427 0.19636 0.86946 0.0
O196 O 0.2047 0.14417 0.81678 0.0
O197 O 0.1691 0.15615 0.7448 0.0
C198 C 0.14308 0.20917 0.96704 0.0
C199 C 0.19353 0.14407 0.75593 0.0
Dy200 Dy 0.59398 0.44944 0.56767 0.0
C201 C 0.51964 0.40406 0.7677 0.0
C202 C 0.62474 0.46888 0.4645 0.0
Dy203 Dy 0.55468 0.41545 0.66297 0.0
O204 O 0.61783 0.48325 0.51897 0.0
O205 O 0.616 0.44343 0.46815 0.0
O206 O 0.57111 0.48916 0.59718 0.0
O207 O 0.55176 0.45105 0.60283 0.0
C208 C 0.54903 0.47658 0.61726 0.0
C209 C 0.59567 0.38635 0.59956 0.0
O210 O 0.53062 0.40896 0.56565 0.0
O211 O 0.56478 0.42591 0.49521 0.0
O212 O 0.54664 0.40136 0.76732 0.0
O213 O 0.51178 0.41166 0.70951 0.0
O214 O 0.57341 0.37498 0.62365 0.0
O215 O 0.59692 0.4116 0.62167 0.0
O216 O 0.61496 0.4596 0.6663 0.0
O217 O 0.57658 0.44773 0.73024 0.0
C218 C 0.54046 0.41321 0.50463 0.0
C219 C 0.60107 0.46014 0.72386 0.0
Dy220 Dy 0.2901 0.84212 0.3419 0.0
C221 C 0.3348 0.76668 0.53619 0.0
C222 C 0.26959 0.87231 0.24044 0.0
Dy223 Dy 0.32376 0.80219 0.43611 0.0
O224 O 0.25542 0.86433 0.29093 0.0
O225 O 0.29552 0.86516 0.24759 0.0
O226 O 0.25062 0.81921 0.36364 0.0
O227 O 0.28874 0.79979 0.36941 0.0
C228 C 0.26336 0.7968 0.37994 0.0
C229 C 0.35326 0.84263 0.38381 0.0
O230 O 0.33063 0.77847 0.33522 0.0
O231 O 0.31328 0.81268 0.26792 0.0
O232 O 0.33948 0.79345 0.53947 0.0
O233 O 0.32514 0.75926 0.47718 0.0
O234 O 0.36437 0.82034 0.40698 0.0
O235 O 0.32797 0.84439 0.40192 0.0
O236 O 0.27994 0.86324 0.44225 0.0
O237 O 0.29195 0.82491 0.50245 0.0
C238 C 0.32602 0.78828 0.2751 0.0
C239 C 0.27951 0.84946 0.49782 0.0
Dy240 Dy 0.89979 0.44143 0.68073 0.0
C241 C 0.96534 0.38812 0.45537 0.0
C242 C 0.8683 0.46714 0.78142 0.0
Dy243 Dy 0.93557 0.40481 0.56967 0.0
O244 O 0.8772 0.47877 0.72854 0.0
O245 O 0.87484 0.44076 0.7763 0.0
O246 O 0.93721 0.46775 0.70598 0.0
O247 O 0.93282 0.44761 0.6108 0.0
C248 C 0.94893 0.46149 0.64886 0.0
C249 C 0.89781 0.37717 0.6396 0.0
O250 O 0.96282 0.40367 0.66156 0.0
O251 O 0.92816 0.41484 0.74084 0.0
O252 O 0.93842 0.38663 0.46279 0.0
O253 O 0.97621 0.39768 0.5118 0.0
O254 O 0.91928 0.36534 0.60969 0.0
O255 O 0.89569 0.40186 0.62215 0.0
O256 O 0.87951 0.45538 0.58547 0.0
O257 O 0.90941 0.43202 0.50783 0.0
C258 C 0.95369 0.40571 0.72466 0.0
C259 C 0.88854 0.44955 0.52288 0.0
Dy260 Dy 0.29146 0.15495 0.42588 0.0
C261 C 0.35558 0.21316 0.22546 0.0
C262 C 0.2596 0.12853 0.51697 0.0
Dy263 Dy 0.33373 0.18473 0.32917 0.0
O264 O 0.25027 0.13972 0.46397 0.0
O265 O 0.2867 0.12973 0.51674 0.0
O266 O 0.27357 0.1966 0.45638 0.0
O267 O 0.29089 0.18912 0.36195 0.0
C268 C 0.28007 0.2074 0.40095 0.0
C269 C 0.35354 0.14191 0.3958 0.0
O270 O 0.33881 0.21109 0.42608 0.0
O271 O 0.32167 0.17813 0.49633 0.0
O272 O 0.35612 0.18617 0.22989 0.0
O273 O 0.34408 0.22469 0.27936 0.0
O274 O 0.36907 0.16204 0.37585 0.0
O275 O 0.32951 0.14408 0.37174 0.0
O276 O 0.27366 0.13942 0.32387 0.0
O277 O 0.30316 0.16448 0.25632 0.0
C278 C 0.33478 0.20205 0.48695 0.0
C279 C 0.28145 0.14772 0.26388 0.0
Dy280 Dy 0.59273 0.54083 0.11503 0.0
C281 C 0.51826 0.58919 0.92088 0.0
C282 C 0.62348 0.51967 0.21591 0.0
Dy283 Dy 0.55335 0.57655 1.02416 0.0
O284 O 0.61569 0.50581 0.16156 0.0
O285 O 0.61551 0.54543 0.21346 0.0
O286 O 0.57004 0.50172 0.08086 0.0
O287 O 0.55044 0.53997 0.08095 0.0
C288 C 0.54764 0.51466 0.06401 0.0
C289 C 0.59459 0.60421 0.08922 0.0
O290 O 0.52932 0.58159 0.12197 0.0
O291 O 0.56346 0.56326 0.1901 0.0
O292 O 0.54522 0.59215 0.9213 0.0
O293 O 0.51048 0.58073 0.97835 0.0
O294 O 0.57203 0.61626 0.06868 0.0
O295 O 0.59564 0.57943 0.06391 0.0
O296 O 0.61386 0.5322 1.01595 0.0
O297 O 0.57548 0.54527 0.95379 0.0
C298 C 0.53915 0.57628 0.18227 0.0
C299 C 0.59998 0.53262 0.95868 0.0
Dy300 Dy 0.19549 0.84348 0.87362 0.0
C301 C 0.1484 0.76964 0.6565 0.0
C302 C 0.21763 0.87244 0.98416 0.0
Dy303 Dy 0.16012 0.80507 0.76745 0.0
O304 O 0.23122 0.86433 0.93045 0.0
O305 O 0.19152 0.86598 0.97589 0.0
O306 O 0.23404 0.81925 0.84321 0.0
O307 O 0.19532 0.8012 0.83249 0.0
C308 C 0.22056 0.7973 0.82045 0.0
C309 C 0.1319 0.84593 0.83489 0.0
O310 O 0.15274 0.78142 0.86081 0.0
O311 O 0.17141 0.81482 0.93851 0.0
O312 O 0.14367 0.79643 0.66179 0.0
O313 O 0.15839 0.76218 0.71297 0.0
O314 O 0.12011 0.82422 0.80417 0.0
O315 O 0.15716 0.84713 0.81637 0.0
O316 O 0.20583 0.86468 0.77992 0.0
O317 O 0.19215 0.82718 0.7076 0.0
C318 C 0.15776 0.79099 0.92383 0.0
C319 C 0.20553 0.85116 0.71989 0.0
Dy320 Dy 0.55562 0.91649 0.60639 0.0
C321 C 0.6072 0.97443 0.39048 0.0
C322 C 0.52368 0.89549 0.70634 0.0
Dy323 Dy 0.5909 0.94347 0.49544 0.0
O324 O 0.51501 0.91123 0.66027 0.0
O325 O 0.54978 0.88907 0.69443 0.0
O326 O 0.5491 0.95969 0.64758 0.0
O327 O 0.5507 0.952 0.54491 0.0
C328 C 0.54526 0.97034 0.59084 0.0
C329 C 0.61251 0.89784 0.54884 0.0
O330 O 0.6053 0.96764 0.58908 0.0
O331 O 0.59324 0.93373 0.66159 0.0
O332 O 0.60791 0.94726 0.39042 0.0
O333 O 0.59848 0.98445 0.44864 0.0
O334 O 0.62761 0.91768 0.52588 0.0
O335 O 0.58739 0.90233 0.53553 0.0
O336 O 0.53043 0.90198 0.51442 0.0
O337 O 0.55627 0.9241 0.43404 0.0
C338 C 0.60643 0.95717 0.64882 0.0
C339 C 0.53473 0.90883 0.45162 0.0
Dy340 Dy 0.33665 0.2972 0.88123 0.0
C341 C 0.27039 0.34535 0.66869 0.0
C342 C 0.36398 0.26985 0.97895 0.0
Dy343 Dy 0.30307 0.33172 0.77649 0.0
O344 O 0.3517 0.25803 0.92679 0.0
O345 O 0.36376 0.29683 0.97378 0.0
O346 O 0.29665 0.28327 0.92092 0.0
O347 O 0.29973 0.29107 0.81966 0.0
C348 C 0.28348 0.28429 0.86516 0.0
C349 C 0.34667 0.3574 0.8398 0.0
O350 O 0.27944 0.34333 0.87202 0.0
O351 O 0.31499 0.33142 0.94421 0.0
O352 O 0.29734 0.3485 0.67335 0.0
O353 O 0.26135 0.33589 0.72433 0.0
O354 O 0.32535 0.37056 0.8165 0.0
O355 O 0.34501 0.33199 0.82021 0.0
O356 O 0.34986 0.27351 0.78387 0.0
O357 O 0.32402 0.29895 0.70946 0.0
C358 C 0.29056 0.34349 0.93294 0.0
C359 C 0.34097 0.27809 0.72226 0.0
Dy360 Dy 0.93039 0.07286 1.02487 0.0
C361 C 0.86051 0.01909 0.22295 0.0
C362 C 0.96542 0.08427 0.92009 0.0
Dy363 Dy 0.89121 0.03857 0.11973 0.0
O364 O 0.93842 0.08701 0.92053 0.0
O365 O 0.97327 0.07667 0.97827 0.0
O366 O 0.9118 0.11326 0.06506 0.0
O367 O 0.88816 0.07666 0.06661 0.0
C368 C 0.88957 0.10185 0.08923 0.0
C369 C 0.93622 0.01163 0.06952 0.0
O370 O 0.87011 0.02864 1.02121 0.0
O371 O 0.90839 0.04075 0.95725 0.0
O372 O 0.86714 0.00479 0.16817 0.0
O373 O 0.86957 0.04442 0.21966 0.0
O374 O 0.91414 -0.00105 0.08936 0.0
O375 O 0.93333 0.03711 0.08441 0.0
O376 O 0.95455 0.07912 0.12207 0.0
O377 O 0.92047 0.06193 0.19235 0.0
C378 C 0.88394 0.02825 0.96359 0.0
C379 C 0.94475 0.07472 0.18303 0.0
Dy380 Dy 0.15904 0.68486 0.24856 0.0
C381 C 0.21276 0.61449 0.4444 0.0
C382 C 0.14817 0.72041 0.1485 0.0
Dy383 Dy 0.19229 0.64474 0.34296 0.0
O384 O 0.1579 0.7278 0.20748 0.0
O385 O 0.1434 0.69367 0.14521 0.0
O386 O 0.11833 0.66658 0.27593 0.0
O387 O 0.15473 0.64242 0.28164 0.0
C388 C 0.12928 0.64412 0.2985 0.0
C389 C 0.21911 0.69023 0.30606 0.0
O390 O 0.20274 0.62379 0.24253 0.0
O391 O 0.19106 0.66229 0.18259 0.0
O392 O 0.2269 0.62236 0.39376 0.0
O393 O 0.18684 0.62174 0.43737 0.0
O394 O 0.23184 0.6678 0.32223 0.0
O395 O 0.19373 0.6871 0.31612 0.0
O396 O 0.15176 0.70837 0.34958 0.0
O397 O 0.16875 0.67397 0.4168 0.0
C398 C 0.20338 0.63767 0.18712 0.0
C399 C 0.15615 0.69846 0.40969 0.0
Dy400 Dy 0.54743 0.08051 0.11077 0.0
C401 C 0.61387 0.02281 0.89375 0.0
C402 C 0.51613 0.0886 0.22636 0.0
Dy403 Dy 0.58486 0.04503 1.0031 0.0
O404 O 0.51808 0.10659 0.18028 0.0
O405 O 0.53055 0.06658 0.20781 0.0
O406 O 0.56797 0.12033 0.08519 0.0
O407 O 0.58947 0.08263 0.06859 0.0
C408 C 0.58927 0.10799 0.05544 0.0
C409 C 0.54171 0.01915 0.0529 0.0
O410 O 0.60765 0.03522 0.09794 0.0
O411 O 0.57452 0.05446 0.17296 0.0
O412 O 0.60946 0.01063 0.94866 0.0
O413 O 0.60365 0.04795 0.90005 0.0
O414 O 0.56279 0.00562 1.02665 0.0
O415 O 0.54336 0.04437 0.04217 0.0
O416 O 0.52051 0.08265 1.01851 0.0
O417 O 0.55445 0.06858 0.93951 0.0
C418 C 0.59693 0.03897 0.15933 0.0
C419 C 0.5295 0.07963 0.95525 0.0
Dy420 Dy 0.15079 0.30249 0.36009 0.0
C421 C 0.2244 0.35915 0.17184 0.0
C422 C 0.12906 0.27405 0.46384 0.0
Dy423 Dy 0.19271 0.33264 0.26316 0.0
O424 O 0.12837 0.30102 0.45926 0.0
O425 O 0.14071 0.26252 0.41011 0.0
O426 O 0.11508 0.32454 0.31365 0.0
O427 O 0.15441 0.34313 0.31684 0.0
C428 C 0.13027 0.34475 0.29292 0.0
C429 C 0.2046 0.28033 0.2886 0.0
O430 O 0.21042 0.34837 0.36514 0.0
O431 O 0.18116 0.32312 0.43286 0.0
O432 O 0.2338 0.34804 0.22486 0.0
O433 O 0.1973 0.35787 0.1722 0.0
O434 O 0.21095 0.29107 0.233 0.0
O435 O 0.19365 0.29863 0.32729 0.0
O436 O 0.14589 0.27603 0.26327 0.0
O437 O 0.16281 0.30902 0.19278 0.0
C438 C 0.20273 0.34004 0.4252 0.0
C439 C 0.14981 0.28506 0.20235 0.0
Dy440 Dy 0.93132 0.9116 0.66331 0.0
C441 C 0.86135 0.96854 0.47156 0.0
C442 C 0.96632 0.89885 0.76662 0.0
Dy443 Dy 0.89205 0.94747 0.57261 0.0
O444 O 0.93934 0.89599 0.76619 0.0
O445 O 0.97415 0.90727 0.70914 0.0
O446 O 0.91276 0.87192 0.61846 0.0
O447 O 0.88902 0.90872 0.62316 0.0
C448 C 0.89025 0.88396 0.59764 0.0
C449 C 0.93717 0.9735 0.62406 0.0
O450 O 0.87089 0.95608 0.67163 0.0
O451 O 0.9092 0.94285 0.7338 0.0
O452 O 0.86892 0.98242 0.52609 0.0
O453 O 0.86956 0.94286 0.47389 0.0
O454 O 0.91483 0.98653 0.60715 0.0
O455 O 0.93423 0.94824 0.60685 0.0
O456 O 0.95544 0.90666 0.56563 0.0
O457 O 0.92138 0.92515 0.49753 0.0
C458 C 0.88475 0.9556 0.72891 0.0
C459 C 0.94565 0.91205 0.50535 0.0
Dy460 Dy 0.32245 0.68198 0.9172 0.0
C461 C 0.26503 0.61449 0.70051 0.0
C462 C 0.33404 0.71731 1.02828 0.0
Dy463 Dy 0.28727 0.64346 0.81093 0.0
O464 O 0.33868 0.69051 1.02302 0.0
O465 O 0.3242 0.72484 0.97173 0.0
O466 O 0.36257 0.66302 0.88128 0.0
O467 O 0.32562 0.63987 0.86829 0.0
C468 C 0.35094 0.6413 0.85026 0.0
C469 C 0.26212 0.68962 0.86417 0.0
O470 O 0.27691 0.62227 0.90469 0.0
O471 O 0.29043 0.65984 0.97696 0.0
O472 O 0.25146 0.62278 0.75411 0.0
O473 O 0.29119 0.62074 0.70883 0.0
O474 O 0.24865 0.66765 0.84143 0.0
O475 O 0.28732 0.68568 0.852 0.0
O476 O 0.32986 0.70564 0.82387 0.0
O477 O 0.31132 0.67219 0.74608 0.0
C478 C 0.27715 0.63581 0.96469 0.0
C479 C 0.32491 0.69606 0.76082 0.0
Dy480 Dy 0.3928 0.04495 0.69595 0.0
C481 C 0.46052 0.09249 0.48528 0.0
C482 C 0.3764 0.01408 0.80097 0.0
Dy483 Dy 0.42851 0.07159 0.58517 0.0
O484 O 0.37573 0.04126 0.80095 0.0
O485 O 0.38509 0.00402 0.74282 0.0
O486 O 0.35651 0.07127 0.66524 0.0
O487 O 0.397 0.08613 0.65635 0.0
C488 C 0.37198 0.09101 0.64307 0.0
C489 C 0.43817 0.01756 0.60108 0.0
O490 O 0.45369 0.08597 0.67715 0.0
O491 O 0.42758 0.06403 0.75738 0.0
O492 O 0.46912 0.07661 0.53114 0.0
O493 O 0.43447 0.09907 0.49735 0.0
O494 O 0.43467 0.02823 0.54423 0.0
O495 O 0.43293 0.0361 0.64662 0.0
O496 O 0.37824 0.02095 0.60225 0.0
O497 O 0.39071 0.05478 0.52993 0.0
C498 C 0.44924 0.07916 0.7399 0.0
C499 C 0.37732 0.03143 0.54252 0.0
Dy500 Dy 0.6823 0.65553 0.42101 0.0
C501 C 0.63772 0.71396 0.19859 0.0
C502 C 0.71387 0.63903 0.52741 0.0
Dy503 Dy 0.65139 0.69182 0.31738 0.0
O504 O 0.68684 0.63707 0.52256 0.0
O505 O 0.72343 0.64924 0.47333 0.0
O506 O 0.66073 0.61722 0.37559 0.0
O507 O 0.64129 0.65603 0.37339 0.0
C508 C 0.64002 0.63095 0.35116 0.0
C509 C 0.69497 0.71609 0.37811 0.0
O510 O 0.63198 0.71143 0.41168 0.0
O511 O 0.66236 0.69033 0.4847 0.0
O512 O 0.66243 0.70791 0.21882 0.0
O513 O 0.61937 0.70794 0.24408 0.0
O514 O 0.67267 0.72923 0.36143 0.0
O515 O 0.69253 0.69051 0.3608 0.0
O516 O 0.70855 0.64468 0.33023 0.0
O517 O 0.67522 0.65866 0.25514 0.0
C518 C 0.64266 0.70879 0.47239 0.0
C519 C 0.69904 0.64588 0.26834 0.0
Dy520 Dy 0.09001 0.9467 0.06693 0.0
C521 C 0.01584 0.90097 0.26672 0.0
C522 C 0.1207 0.96635 0.96389 0.0
Dy523 Dy 0.05088 0.91241 0.16192 0.0
O524 O 0.1139 0.98061 1.01858 0.0
O525 O 0.11184 0.94094 0.96717 0.0
O526 O 0.06712 0.98631 0.09718 0.0
O527 O 0.04781 0.94815 0.10229 0.0
C528 C 0.04504 0.97366 0.11703 0.0
C529 C 0.09181 0.8835 0.09757 0.0
O530 O 0.02673 0.90609 0.06473 0.0
O531 O 0.06078 0.92327 0.99436 0.0
O532 O 0.04284 0.89819 0.26623 0.0
O533 O 0.00799 0.90862 0.20857 0.0
O534 O 0.06958 0.87203 0.1216 0.0
O535 O 0.09307 0.90869 0.12022 0.0
O536 O 0.1111 0.95669 0.16548 0.0
O537 O 0.07285 0.94456 0.2295 0.0
C538 C 0.03651 0.91048 1.00374 0.0
C539 C 0.09728 0.95708 0.22311 0.0
Dy540 Dy 0.79418 0.34018 0.84603 0.0
C541 C 0.83732 0.2639 1.04019 0.0
C542 C 0.77395 0.37061 0.74456 0.0
Dy543 Dy 0.82702 0.29962 0.94018 0.0
O544 O 0.75988 0.36345 0.79603 0.0
O545 O 0.79961 0.36246 0.75063 0.0
O546 O 0.7543 0.31797 0.86766 0.0
O547 O 0.79204 0.29784 0.87328 0.0
C548 C 0.76661 0.2953 0.88372 0.0
C549 C 0.85731 0.33975 0.88898 0.0
O550 O 0.83367 0.27589 0.83924 0.0
O551 O 0.81709 0.31049 0.77207 0.0
O552 O 0.84265 0.29053 0.04337 0.0
O553 O 0.82739 0.25669 0.98132 0.0
O554 O 0.868 0.31717 0.91163 0.0
O555 O 0.83197 0.34181 0.90655 0.0
O556 O 0.78445 0.3615 0.94644 0.0
O557 O 0.79559 0.32288 1.00651 0.0
C558 C 0.82933 0.28583 0.77916 0.0
C559 C 0.78369 0.3477 1.00198 0.0
Dy560 Dy 0.39917 0.94345 0.18849 0.0
C561 C 0.46794 0.89973 0.96521 0.0
C562 C 0.37004 0.96579 0.29748 0.0
Dy563 Dy 0.43655 0.90797 0.08068 0.0
O564 O 0.37482 0.97802 0.24282 0.0
O565 O 0.37994 0.94052 0.29111 0.0
O566 O 0.42135 0.98281 0.16544 0.0
O567 O 0.4408 0.94402 0.14963 0.0
C568 C 0.44245 0.96929 0.13928 0.0
C569 C 0.39433 0.8807 0.13528 0.0
O570 O 0.46336 0.90557 0.17312 0.0
O571 O 0.42944 0.91971 0.25212 0.0
O572 O 0.46587 0.88177 1.01133 0.0
O573 O 0.45357 0.9218 0.98364 0.0
O574 O 0.41562 0.86824 0.10574 0.0
O575 O 0.39449 0.90608 0.12242 0.0
O576 O 0.37644 0.95335 0.09364 0.0
O577 O 0.40967 0.93431 1.01864 0.0
C578 C 0.45436 0.90858 0.23639 0.0
C579 C 0.38722 0.94973 1.03229 0.0
Dy580 Dy 0.79038 0.65078 0.92594 0.0
C581 C 0.84623 0.7183 0.7302 0.0
C582 C 0.76562 0.6263 1.03172 0.0
Dy583 Dy 0.82898 0.6849 0.82959 0.0
O584 O 0.7545 0.62907 0.97363 0.0
O585 O 0.79124 0.63495 1.03001 0.0
O586 O 0.75282 0.67474 0.90012 0.0
O587 O 0.79275 0.69238 0.89367 0.0
C588 C 0.76753 0.69506 0.87957 0.0
C589 C 0.85153 0.6412 0.8872 0.0
O590 O 0.83796 0.70977 0.92518 0.0
O591 O 0.81672 0.67942 0.99671 0.0
O592 O 0.85504 0.69298 0.73777 0.0
O593 O 0.82879 0.72536 0.77804 0.0
O594 O 0.86597 0.6625 0.86911 0.0
O595 O 0.82709 0.64278 0.86505 0.0
O596 O 0.7782 0.63028 0.82454 0.0
O597 O 0.7976 0.6644 0.76051 0.0
C598 C 0.83235 0.70184 0.98614 0.0
C599 C 0.78115 0.64255 0.76682 0.0
Dy600 Dy 0.08932 0.0379 0.61425 0.0
C601 C 0.01482 0.08633 0.4203 0.0
C602 C 0.12017 0.01699 0.71523 0.0
Dy603 Dy 0.04984 0.07357 0.52355 0.0
O604 O 0.11227 0.00299 0.66116 0.0
O605 O 0.11228 0.04276 0.71241 0.0
O606 O 0.06679 -0.0013 0.57998 0.0
O607 O 0.04707 0.0369 0.58002 0.0
C608 C 0.04438 0.01159 0.56295 0.0
C609 C 0.09078 0.1013 0.58948 0.0
O610 O 0.02572 0.07841 0.6212 0.0
O611 O 0.05988 0.06008 0.68931 0.0
O612 O 0.04179 0.08933 0.42085 0.0
O613 O 0.007 0.07776 0.47765 0.0
O614 O 0.0682 0.11329 0.56887 0.0
O615 O 0.09207 0.07662 0.56366 0.0
O616 O 0.11042 0.02928 0.51513 0.0
O617 O 0.07204 0.04239 0.45303 0.0
C618 C 0.03555 0.07308 0.68148 0.0
C619 C 0.09652 0.02971 0.45788 0.0
Dy620 Dy 0.69929 0.34372 0.37827 0.0
C621 C 0.65127 0.27071 0.16098 0.0
C622 C 0.72167 0.37239 0.48888 0.0
Dy623 Dy 0.66352 0.30585 0.27195 0.0
O624 O 0.7352 0.36414 0.43518 0.0
O625 O 0.69547 0.36629 0.48051 0.0
O626 O 0.73749 0.31875 0.34867 0.0
O627 O 0.69846 0.30141 0.33748 0.0
C628 C 0.72365 0.29704 0.3258 0.0
C629 C 0.63596 0.34744 0.33828 0.0
O630 O 0.65543 0.28242 0.36539 0.0
O631 O 0.67455 0.31553 0.44311 0.0
O632 O 0.64708 0.29758 0.16625 0.0
O633 O 0.66102 0.26302 0.21748 0.0
O634 O 0.62382 0.32589 0.30775 0.0
O635 O 0.6613 0.34807 0.32023 0.0
O636 O 0.71031 0.36455 0.28443 0.0
O637 O 0.69614 0.32719 0.21227 0.0
C638 C 0.66051 0.29192 0.42843 0.0
C639 C 0.7099 0.35095 0.22449 0.0
C640 C 0.11967 0.45746 0.26096 0.0
C641 C 0.11333 0.46992 0.20129 0.0
H642 H 0.12587 0.46331 0.36645 0.0
C643 C 0.11255 0.49927 0.20182 0.0
H644 H 0.12053 0.43495 0.26231 0.0
C645 C 0.11528 0.5156 0.262 0.0
C646 C 0.1192 0.50289 0.32251 0.0
H647 H 0.10756 0.50954 0.15682 0.0
H648 H 0.11235 0.53799 0.26176 0.0
C649 C 0.12279 0.47377 0.32076 0.0
C650 C 0.72451 0.86183 0.52653 0.0
C651 C 0.73713 0.86526 0.58977 0.0
H652 H 0.73046 0.85261 0.42124 0.0
C653 C 0.76637 0.86521 0.59343 0.0
H654 H 0.70201 0.86155 0.52213 0.0
C655 C 0.78256 0.85954 0.53614 0.0
C656 C 0.77001 0.85435 0.47332 0.0
H657 H 0.77678 0.86763 0.64127 0.0
H658 H 0.80492 0.85791 0.54173 0.0
C659 C 0.74082 0.85665 0.46874 0.0
C660 C 0.3556 0.52511 0.84663 0.0
C661 C 0.35639 0.50853 0.7864 0.0
H662 H 0.35715 0.52597 0.95345 0.0
C663 C 0.35462 0.47935 0.78863 0.0
H664 H 0.35689 0.54765 0.84648 0.0
C665 C 0.35479 0.46692 0.84993 0.0
C666 C 0.35671 0.48346 0.91005 0.0
H667 H 0.35514 0.46603 0.74303 0.0
H668 H 0.35543 0.44434 0.85 0.0
C669 C 0.35575 0.51268 0.90793 0.0
C670 C 0.72188 0.10655 0.1334 0.0
C671 C 0.75111 0.10653 0.13911 0.0
H672 H 0.68666 0.10864 0.06807 0.0
C673 C 0.76726 0.10435 0.08052 0.0
H674 H 0.70887 0.10823 0.17763 0.0
C675 C 0.75451 0.10457 1.01774 0.0
C676 C 0.72538 0.10697 1.01229 0.0
H677 H 0.78981 0.1043 0.08324 0.0
H678 H 0.76762 0.10469 0.97376 0.0
C679 C 0.70914 0.10676 0.07059 0.0
C680 C 0.86517 0.48561 0.96745 0.0
C681 C 0.86715 0.51491 0.96911 0.0
H682 H 0.86353 0.44728 0.90615 0.0
C683 C 0.86373 0.52811 0.90897 0.0
H684 H 0.86778 0.47471 1.01266 0.0
C685 C 0.86124 0.51242 0.84806 0.0
C686 C 0.86216 0.48311 0.84569 0.0
H687 H 0.8649 0.55064 0.90829 0.0
H688 H 0.86071 0.52329 0.80241 0.0
C689 C 0.86274 0.46985 0.90627 0.0
C690 C 0.19722 0.13193 0.63255 0.0
C691 C 0.20988 0.13355 0.69599 0.0
H692 H 0.20293 0.12853 0.52642 0.0
C693 C 0.23876 0.12859 0.69954 0.0
H694 H 0.17502 0.13534 0.6275 0.0
C695 C 0.25481 0.12442 0.64097 0.0
C696 C 0.24233 0.12517 0.57766 0.0
H697 H 0.24927 0.12966 0.74732 0.0
H698 H 0.27723 0.12253 0.64536 0.0
C699 C 0.21322 0.12787 0.57427 0.0
C700 C 0.63392 0.52313 0.33817 0.0
C701 C 0.63165 0.50668 0.27799 0.0
H702 H 0.63406 0.52388 0.44504 0.0
C703 C 0.63246 0.47745 0.27987 0.0
H704 H 0.63342 0.54571 0.33827 0.0
C705 C 0.6328 0.46493 0.34107 0.0
C706 C 0.63237 0.48144 0.40142 0.0
H707 H 0.63079 0.46423 0.23429 0.0
H708 H 0.63136 0.44239 0.34109 0.0
C709 C 0.6343 0.51061 0.39935 0.0
C710 C 0.27296 0.88013 0.11826 0.0
C711 C 0.25676 0.87965 0.17658 0.0
H712 H 0.27318 0.87864 1.01122 0.0
C713 C 0.22758 0.88152 0.17113 0.0
H714 H 0.29547 0.87865 0.12077 0.0
C715 C 0.2148 0.8815 0.10836 0.0
C716 C 0.23093 0.8796 0.04975 0.0
H717 H 0.21451 0.88118 0.21513 0.0
H718 H 0.19224 0.88115 0.10566 0.0
C719 C 0.26017 0.8801 0.05545 0.0
C720 C 0.62466 0.97838 0.82737 0.0
C721 C 0.62032 0.00739 0.8292 0.0
H722 H 0.62408 0.93967 0.76827 0.0
C723 C 0.61704 0.0202 0.76861 0.0
H724 H 0.62735 0.96789 0.87315 0.0
C725 C 0.61542 0.00396 0.70807 0.0
C726 C 0.61678 0.97464 0.70728 0.0
H727 H 0.61363 0.04252 0.76846 0.0
H728 H 0.61067 0.01423 0.66292 0.0
C729 C 0.62277 0.96217 0.76715 0.0
C730 C 0.24524 0.35884 0.98916 0.0
C731 C 0.27415 0.35405 0.99278 0.0
H732 H 0.20674 0.36479 0.04327 0.0
C733 C 0.2868 0.35586 0.05623 0.0
H734 H 0.23474 0.35761 0.94137 0.0
C735 C 0.27077 0.35995 0.11447 0.0
C736 C 0.24165 0.36248 0.11106 0.0
H737 H 0.30902 0.3526 0.06133 0.0
H738 H 0.28107 0.35945 0.16235 0.0
C739 C 0.22917 0.36303 0.0477 0.0
C740 C 0.85214 0.02313 0.34616 0.0
C741 C 0.85272 0.00656 0.28589 0.0
H742 H 0.85394 0.02394 0.45296 0.0
C743 C 0.85078 0.97741 0.28805 0.0
H744 H 0.85356 0.04567 0.34604 0.0
C745 C 0.85104 0.96496 0.34931 0.0
C746 C 0.8532 0.98147 0.40943 0.0
H747 H 0.85114 0.9641 0.24242 0.0
H748 H 0.85157 0.94238 0.34932 0.0
C749 C 0.85235 0.01068 0.40743 0.0
C750 C 0.20954 0.60681 0.56671 0.0
C751 C 0.22567 0.60721 0.50826 0.0
H752 H 0.20945 0.60838 0.67376 0.0
C753 C 0.25485 0.6053 0.51354 0.0
H754 H 0.18703 0.60832 0.56436 0.0
C755 C 0.26772 0.60536 0.57624 0.0
C756 C 0.25166 0.60733 0.63496 0.0
H757 H 0.26787 0.60559 0.46944 0.0
H758 H 0.29027 0.60569 0.57879 0.0
C759 C 0.22241 0.60688 0.62944 0.0
C760 C 0.3682 0.98467 0.48318 0.0
C761 C 0.367 0.01401 0.48394 0.0
H762 H 0.36992 0.94609 0.42284 0.0
C763 C 0.36121 0.02649 0.42398 0.0
H764 H 0.3728 0.97439 0.5284 0.0
C765 C 0.35936 0.01028 0.36376 0.0
C766 C 0.36354 0.98124 0.362 0.0
H767 H 0.36003 0.049 0.42284 0.0
H768 H 0.35682 0.02078 0.31795 0.0
C769 C 0.36662 0.96842 0.42263 0.0
C770 C 0.71979 0.6241 0.09034 0.0
C771 C 0.74904 0.62435 0.09388 0.0
H772 H 0.68118 0.63088 0.14231 0.0
C773 C 0.76167 0.62787 0.15707 0.0
H774 H 0.70936 0.62157 0.04253 0.0
C775 C 0.74537 0.63289 0.21492 0.0
C776 C 0.71616 0.63489 0.21048 0.0
H777 H 0.78418 0.62836 0.16141 0.0
H778 H 0.75574 0.63703 0.26237 0.0
C779 C 0.70359 0.62955 0.14773 0.0
C780 C 0.12929 0.96241 0.84074 0.0
C781 C 0.12853 0.97895 0.90102 0.0
H782 H 0.12774 0.96163 0.73392 0.0
C783 C 0.13035 0.00812 0.89894 0.0
H784 H 0.12796 0.93987 0.84079 0.0
C785 C 0.13019 0.02061 0.8377 0.0
C786 C 0.12824 0.00411 0.77752 0.0
H787 H 0.12984 0.02141 0.94459 0.0
H788 H 0.12957 0.04318 0.83772 0.0
C789 C 0.12917 0.97489 0.7795 0.0
C790 C 0.71901 0.38094 0.6133 0.0
C791 C 0.73507 0.37916 0.55455 0.0
H792 H 0.71886 0.38011 0.72001 0.0
C793 C 0.76431 0.37931 0.56003 0.0
H794 H 0.69645 0.38082 0.61076 0.0
C795 C 0.77717 0.37888 0.62266 0.0
C796 C 0.76103 0.3783 0.68106 0.0
H797 H 0.77726 0.37794 0.51569 0.0
H798 H 0.79967 0.37717 0.62492 0.0
C799 C 0.73187 0.38053 0.67594 0.0
C800 C 0.10462 0.34613 0.1853 0.0
C801 C 0.12487 0.3575 0.22943 0.0
H802 H 0.085 0.34796 0.08991 0.0
C803 C 0.14205 0.37904 0.20918 0.0
H804 H 0.09138 0.32916 0.19921 0.0
C805 C 0.13913 0.38904 0.1457 0.0
C806 C 0.11833 0.37821 0.10232 0.0
H807 H 0.15786 0.38806 0.24239 0.0
H808 H 0.15215 0.40622 0.13206 0.0
C809 C 0.10138 0.35642 0.12228 0.0
C810 C 0.85395 0.88953 0.51049 0.0
C811 C 0.87764 0.87564 0.53228 0.0
H812 H 0.82644 0.89634 0.42913 0.0
C813 C 0.89106 0.85606 0.48801 0.0
H814 H 0.84303 0.90446 0.5439 0.0
C815 C 0.88142 0.85116 0.4226 0.0
C816 C 0.85843 0.86598 0.39995 0.0
H817 H 0.90942 0.84499 0.50333 0.0
H818 H 0.89194 0.83577 0.38967 0.0
C819 C 0.84474 0.8852 0.44455 0.0
C820 C 0.38438 0.64392 0.75586 0.0
C821 C 0.36169 0.63045 0.78437 0.0
H822 H 0.41134 0.64658 0.67185 0.0
C823 C 0.34845 0.60862 0.74695 0.0
H824 H 0.39506 0.66095 0.78301 0.0
C825 C 0.35728 0.60097 0.68151 0.0
C826 C 0.38025 0.61422 0.65372 0.0
H827 H 0.33125 0.59758 0.76821 0.0
H828 H 0.34659 0.58425 0.65325 0.0
C829 C 0.39349 0.63597 0.69146 0.0
C830 C 0.6304 0.1112 0.89466 0.0
C831 C 0.61871 0.13487 0.86797 0.0
H832 H 0.63139 0.08494 0.97759 0.0
C833 C 0.59802 0.14996 0.90447 0.0
H834 H 0.6463 0.09917 0.86733 0.0
C835 C 0.58942 0.14179 0.96659 0.0
C836 C 0.60111 0.11818 0.99359 0.0
H837 H 0.58871 0.16847 0.88566 0.0
H838 H 0.57321 0.15377 0.9929 0.0
C839 C 0.62194 0.10314 0.95755 0.0
C840 C 0.12046 0.60025 0.4478 0.0
C841 C 0.098 0.61399 0.4808 0.0
H842 H 0.14728 0.59817 0.36155 0.0
C843 C 0.08553 0.63679 0.45208 0.0
H844 H 0.13043 0.58261 0.4691 0.0
C845 C 0.09514 0.64565 0.39155 0.0
C846 C 0.11766 0.63211 0.35842 0.0
H847 H 0.06805 0.64771 0.47598 0.0
H848 H 0.08517 0.66356 0.37147 0.0
C849 C 0.13004 0.60908 0.3865 0.0
C850 C 0.64204 0.89303 0.64968 0.0
C851 C 0.62032 0.88298 0.60804 0.0
H852 H 0.66246 0.89089 0.74405 0.0
C853 C 0.60291 0.86181 0.62944 0.0
H854 H 0.65543 0.90974 0.63499 0.0
C855 C 0.60684 0.85114 0.69187 0.0
C856 C 0.62822 0.86155 0.73408 0.0
H857 H 0.58578 0.854 0.59852 0.0
H858 H 0.59327 0.83459 0.70674 0.0
C859 C 0.64569 0.88266 0.71258 0.0
C860 C 0.35704 0.39103 1.01325 0.0
C861 C 0.38137 0.3778 1.03359 0.0
H862 H 0.32798 0.3964 0.93424 0.0
C863 C 0.39484 0.35854 0.9886 0.0
H864 H 0.3462 0.40585 0.04709 0.0
C865 C 0.38427 0.35287 0.92426 0.0
C866 C 0.36024 0.36654 0.90349 0.0
H867 H 0.41377 0.34811 1.00271 0.0
H868 H 0.39466 0.3375 0.89101 0.0
C869 C 0.3469 0.38595 0.94834 0.0
C870 C 0.84715 0.10619 0.24975 0.0
C871 C 0.86098 0.12766 0.28707 0.0
H872 H 0.84394 0.08253 0.1553 0.0
C873 C 0.88354 0.14102 0.25773 0.0
H874 H 0.83005 0.09521 0.27164 0.0
C875 C 0.89189 0.13334 0.19257 0.0
C876 C 0.87801 0.112 0.15485 0.0
H877 H 0.89466 0.15777 0.28478 0.0
H878 H 0.90969 0.14383 0.17231 0.0
C879 C 0.85515 0.09891 0.18351 0.0
C880 C 0.84306 0.59537 1.03163 0.0
C881 C 0.86449 0.60516 0.07446 0.0
H882 H 0.82329 0.59812 0.9367 0.0
C883 C 0.88198 0.62659 0.05473 0.0
H884 H 0.8296 0.5785 0.04506 0.0
C885 C 0.87846 0.63771 0.99266 0.0
C886 C 0.85742 0.62748 0.94921 0.0
H887 H 0.89889 0.6342 0.0866 0.0
H888 H 0.89206 0.65443 0.979 0.0
C889 C 0.83984 0.60617 0.96912 0.0
C890 C 0.12782 0.09644 0.67523 0.0
C891 C 0.1035 0.10962 0.65469 0.0
H892 H 0.15669 0.09102 0.75461 0.0
C893 C 0.08981 0.12868 0.69976 0.0
H894 H 0.13882 0.08177 0.64135 0.0
C895 C 0.10017 0.13425 0.76432 0.0
C896 C 0.12422 0.12066 0.78527 0.0
H897 H 0.07088 0.13907 0.6855 0.0
H898 H 0.08963 0.1495 0.79759 0.0
C899 C 0.13776 0.10141 0.74037 0.0
C900 C 0.60268 0.34585 0.43316 0.0
C901 C 0.62552 0.3588 0.40401 0.0
H902 H 0.57595 0.3439 0.51771 0.0
C903 C 0.63919 0.38057 0.44068 0.0
H904 H 0.59167 0.32889 0.40659 0.0
C905 C 0.63063 0.38865 0.50611 0.0
C906 C 0.60757 0.37584 0.53462 0.0
H907 H 0.65658 0.39117 0.41896 0.0
H908 H 0.64166 0.40528 0.53386 0.0
C909 C 0.59389 0.35418 0.49755 0.0
C910 C 0.3849 0.83861 0.28563 0.0
C911 C 0.36401 0.85359 0.32168 0.0
H912 H 0.4101 0.83493 0.1979 0.0
C913 C 0.35229 0.8772 0.29474 0.0
H914 H 0.39422 0.82013 0.30458 0.0
C915 C 0.3611 0.88542 0.23223 0.0
C916 C 0.38216 0.87047 0.19671 0.0
H917 H 0.33621 0.88912 0.3217 0.0
H918 H 0.35176 0.90365 0.21211 0.0
C919 C 0.39374 0.84685 0.22381 0.0
C920 C 0.89978 0.34543 0.73252 0.0
C921 C 0.88652 0.36745 0.70242 0.0
H922 H 0.90138 0.31996 0.81566 0.0
C923 C 0.86424 0.38132 0.73565 0.0
H924 H 0.91721 0.33449 0.70844 0.0
C925 C 0.85574 0.37362 0.79877 0.0
C926 C 0.86862 0.35116 0.82799 0.0
H927 H 0.85346 0.39812 0.71287 0.0
H928 H 0.83873 0.38477 0.82405 0.0
C929 C 0.89097 0.33741 0.79459 0.0
C930 C 0.37937 0.13871 0.50273 0.0
C931 C 0.35867 0.12841 0.45847 0.0
H932 H 0.39906 0.1354 0.59754 0.0
C933 C 0.3409 0.10716 0.47783 0.0
H934 H 0.39313 0.15537 0.48944 0.0
C935 C 0.34353 0.09655 0.54077 0.0
C936 C 0.36467 0.10639 0.58437 0.0
H937 H 0.32479 0.0989 0.44441 0.0
H938 H 0.33 0.07966 0.55377 0.0
C939 C 0.38236 0.12775 0.56509 0.0
C940 C 0.59451 0.63263 0.19805 0.0
C941 C 0.60757 0.61272 0.15401 0.0
H942 H 0.59429 0.65351 0.29574 0.0
C943 C 0.63131 0.59881 0.17549 0.0
H944 H 0.57613 0.64373 0.18294 0.0
C945 C 0.64094 0.60352 0.24098 0.0
C946 C 0.6276 0.62307 0.28538 0.0
H947 H 0.64196 0.58363 0.14221 0.0
H948 H 0.65928 0.59239 0.2562 0.0
C949 C 0.60455 0.63787 0.26298 0.0
C950 C 0.13492 0.87871 0.93797 0.0
C951 C 0.12145 0.8569 0.90102 0.0
H952 H 0.13749 0.90298 1.03175 0.0
C953 C 0.09887 0.84354 0.93026 0.0
H954 H 0.15204 0.88969 0.91615 0.0
C955 C 0.09014 0.85155 0.99495 0.0
C956 C 0.10367 0.87323 1.03232 0.0
H957 H 0.08801 0.82653 0.90348 0.0
H958 H 0.07237 0.841 1.01514 0.0
C959 C 0.12653 0.88636 1.00378 0.0
C960 C 0.98167 0.5059 0.14396 0.0
C961 C 0.96257 0.49936 0.09251 0.0
H962 H 0.02341 0.50182 0.17813 0.0
C963 C 0.97086 0.48299 1.03567 0.0
H964 H 0.97594 0.51903 0.18774 0.0
C965 C -0.00178 0.47399 1.02927 0.0
C966 C 0.01735 0.48073 0.08055 0.0
H967 H 0.95649 0.47833 0.99487 0.0
H968 H 0.00399 0.46078 0.98566 0.0
C969 C 0.00903 0.49705 0.1374 0.0
C970 C 0.76516 0.72973 0.31023 0.0
C971 C 0.76548 0.75897 0.316 0.0
H972 H 0.74309 0.6928 0.33055 0.0
C973 C 0.74335 0.7738 0.34722 0.0
H974 H 0.78235 0.71799 0.28721 0.0
C975 C 0.72142 0.75946 0.37386 0.0
C976 C 0.72108 0.73022 0.36803 0.0
H977 H 0.74344 0.79639 0.35348 0.0
H978 H 0.70423 0.77121 0.3969 0.0
C979 C 0.74321 0.71539 0.33683 0.0
C980 C 0.49902 0.47551 0.64053 0.0
C981 C 0.52162 0.48874 0.61189 0.0
H982 H 0.45478 0.47228 0.647 0.0
C983 C 0.51712 0.50897 0.56571 0.0
H984 H 0.50231 0.45979 0.6759 0.0
C985 C 0.49012 0.5156 0.54789 0.0
C986 C 0.46752 0.50229 0.57638 0.0
H987 H 0.53437 0.51878 0.54135 0.0
H988 H 0.48683 0.53129 0.51249 0.0
C989 C 0.47203 0.48212 0.62268 0.0
C990 C 0.76049 0.21878 0.84409 0.0
C991 C 0.73309 0.21698 0.82083 0.0
H992 H 0.7921 0.24526 0.88636 0.0
C993 C 0.71618 0.24092 0.82231 0.0
H994 H 0.77373 0.20047 0.84447 0.0
C995 C 0.7264 0.26636 0.84778 0.0
C996 C 0.7538 0.26816 0.87108 0.0
H997 H 0.69479 0.23988 0.80563 0.0
H998 H 0.71316 0.28466 0.84742 0.0
C999 C 0.77071 0.24422 0.86959 0.0
C1000 C 0.98564 0.46427 0.56455 0.0
C1001 C 0.97514 0.47265 0.62775 0.0
H1002 H 0.01752 0.46996 0.4924 0.0
C1003 C 0.98883 0.49305 0.6684 0.0
H1004 H 0.97471 0.44928 0.53182 0.0
C1005 C 0.01242 0.5058 0.64458 0.0
C1006 C 0.02271 0.49735 0.58135 0.0
H1007 H 0.98076 0.49986 0.7172 0.0
H1008 H 0.0224 0.52229 0.67509 0.0
C1009 C 0.00978 0.47619 0.54189 0.0
C1010 C 0.77131 0.74482 0.86066 0.0
C1011 C 0.75541 0.72039 0.85882 0.0
H1012 H 0.77146 0.78834 0.84544 0.0
C1013 C 0.72732 0.7205 0.84034 0.0
H1014 H 0.79294 0.74499 0.87606 0.0
C1015 C 0.71507 0.74514 0.82358 0.0
C1016 C 0.73096 0.76956 0.82544 0.0
H1017 H 0.71491 0.70162 0.83879 0.0
H1018 H 0.69344 0.74496 0.80812 0.0
C1019 C 0.75905 0.76946 0.84391 0.0
C1020 C 0.49115 0.4736 0.13687 0.0
C1021 C 0.46774 0.48834 0.11694 0.0
H1022 H 0.53534 0.46936 0.13209 0.0
C1023 C 0.47076 0.51034 0.07489 0.0
H1024 H 0.48901 0.4564 0.16864 0.0
C1025 C 0.49703 0.51721 0.05236 0.0
C1026 C 0.52044 0.50244 0.07222 0.0
H1027 H 0.45283 0.52143 0.05712 0.0
H1028 H 0.49917 0.53442 1.02062 0.0
C1029 C 0.51741 0.48046 0.11433 0.0
C1030 C 0.77063 0.23923 0.3692 0.0
C1031 C 0.75211 0.21655 0.36481 0.0
H1032 H 0.7765 0.28262 0.35634 0.0
C1033 C 0.72471 0.2203 0.34352 0.0
H1034 H 0.79202 0.23669 0.38445 0.0
C1035 C 0.7161 0.24636 0.32577 0.0
C1036 C 0.73462 0.26904 0.33018 0.0
H1037 H 0.71021 0.203 0.33869 0.0
H1038 H 0.69472 0.24888 0.3104 0.0
C1039 C 0.76201 0.26531 0.35151 0.0
C1040 C 0.24489 0.25764 0.90752 0.0
C1041 C 0.26041 0.26573 0.85283 0.0
H1042 H 0.21428 0.22976 0.94182 0.0
C1043 C 0.25742 0.25195 0.78984 0.0
H1044 H 0.24737 0.26804 0.95666 0.0
C1045 C 0.23919 0.22976 0.78187 0.0
C1046 C 0.22366 0.22167 0.83654 0.0
H1047 H 0.26977 0.25764 0.74753 0.0
H1048 H 0.23671 0.21936 0.73272 0.0
C1049 C 0.22666 0.23545 0.89953 0.0
C1050 C 0.21395 0.74124 0.31975 0.0
C1051 C 0.23133 0.71765 0.31872 0.0
H1052 H 0.21009 0.785 0.34391 0.0
C1053 C 0.25868 0.72006 0.34213 0.0
H1054 H 0.19259 0.73973 0.30292 0.0
C1055 C 0.2684 0.74578 0.3671 0.0
C1056 C 0.25104 0.76939 0.36798 0.0
H1057 H 0.27228 0.70203 0.34286 0.0
H1058 H 0.28976 0.7473 0.38384 0.0
C1059 C 0.22367 0.76697 0.34472 0.0
C1060 C 0.24065 0.23975 0.41317 0.0
C1061 C 0.26278 0.22858 0.37463 0.0
H1062 H 0.20333 0.26373 0.41391 0.0
C1063 C 0.26477 0.2332 0.30657 0.0
H1064 H 0.23862 0.23601 0.46564 0.0
C1065 C 0.24432 0.24834 0.27673 0.0
C1066 C 0.22214 0.25943 0.31522 0.0
H1067 H 0.28163 0.22435 0.27597 0.0
H1068 H 0.24633 0.25205 0.22425 0.0
C1069 C 0.2202 0.2549 0.38334 0.0
C1070 C 0.26867 0.74045 0.8641 0.0
C1071 C 0.2506 0.7174 0.85977 0.0
H1072 H 0.27369 0.78392 0.85102 0.0
C1073 C 0.22314 0.72058 0.83837 0.0
H1074 H 0.2901 0.73835 0.87949 0.0
C1075 C 0.21401 0.74647 0.8205 0.0
C1076 C 0.23208 0.76951 0.82483 0.0
H1077 H 0.20899 0.70299 0.83359 0.0
H1078 H 0.19257 0.74856 0.80513 0.0
C1079 C 0.25954 0.76633 0.84623 0.0
C1080 C 0.47203 0.98525 0.54759 0.0
C1081 C 0.46378 0.00166 0.60443 0.0
H1082 H 0.50544 0.96457 0.49517 0.0
C1083 C 0.48342 0.00967 0.65371 0.0
H1084 H 0.45725 0.97943 0.50836 0.0
C1085 C 0.51114 0.00219 0.64498 0.0
C1086 C 0.51941 0.98587 0.58801 0.0
H1087 H 0.47773 0.02286 0.69741 0.0
H1088 H 0.52592 0.00804 0.68418 0.0
C1089 C 0.49974 0.97775 0.53888 0.0
C1090 C -0.00507 0.97242 0.13921 0.0
C1091 C 0.01763 0.98581 0.11138 0.0
H1092 H 0.95067 0.96919 0.14486 0.0
C1093 C 0.01328 0.00624 0.06565 0.0
H1094 H -0.00191 0.95652 0.17417 0.0
C1095 C 0.98634 0.01296 0.04754 0.0
C1096 C 0.96365 -0.00045 0.07534 0.0
H1097 H 0.03061 0.01617 0.04187 0.0
H1098 H 0.98318 0.02884 1.01255 0.0
C1099 C 0.96799 0.97914 0.1211 0.0
C1100 C 0.49018 0.96516 0.09525 0.0
C1101 C 0.46751 0.98206 0.11578 0.0
H1102 H 0.53213 0.96406 0.0597 0.0
C1103 C 0.46941 0.01113 0.11659 0.0
H1104 H 0.48899 0.9426 0.09447 0.0
C1105 C 0.494 0.0233 0.09712 0.0
C1106 C 0.51667 0.0064 0.07657 0.0
H1107 H 0.45205 0.0244 0.13267 0.0
H1108 H 0.49519 0.04585 0.09785 0.0
C1109 C 0.51478 0.97733 0.0758 0.0
C1110 C 0.96754 0.00729 0.57283 0.0
C1111 C 0.96442 0.98558 0.61569 0.0
H1112 H -0.00394 0.03097 0.51789 0.0
C1113 C 0.98776 0.97087 0.63614 0.0
H1114 H 0.94966 0.01833 0.55461 0.0
C1115 C 0.01407 0.97756 0.61355 0.0
C1116 C 0.0172 -0.00069 0.57081 0.0
H1117 H 0.98554 0.95387 0.66847 0.0
H1118 H 0.03196 0.96655 0.63183 0.0
C1119 C -0.00616 0.01396 0.5502 0.0
C1120 C 0.9831 0.39894 0.90053 0.0
C1121 C 0.01197 0.39773 0.88826 0.0
H1122 H 0.94208 0.40242 0.85894 0.0
C1123 C 0.02107 0.39602 0.82127 0.0
H1124 H 0.97533 0.40075 0.9513 0.0
C1125 C 0.00211 0.39702 0.76827 0.0
C1126 C 0.97337 0.40009 0.78042 0.0
H1127 H 0.04314 0.39518 0.80976 0.0
H1128 H 0.01022 0.39679 0.71785 0.0
C1129 C 0.96406 0.40022 0.84732 0.0
C1130 C 0.84002 0.71176 0.11034 0.0
C1131 C 0.84111 0.72059 0.04473 0.0
H1132 H 0.84136 0.72384 0.21535 0.0
C1133 C 0.8483 0.74856 1.03589 0.0
H1134 H 0.83469 0.69037 0.11914 0.0
C1135 C 0.85196 0.76766 0.09092 0.0
C1136 C 0.84927 0.75925 0.15641 0.0
H1137 H 0.84934 0.75625 0.98637 0.0
H1138 H 0.85524 0.78948 0.08222 0.0
C1139 C 0.84428 0.73085 0.16558 0.0
C1140 C 0.53266 0.57879 0.30753 0.0
C1141 C 0.52153 0.58227 0.24357 0.0
H1142 H 0.52506 0.57772 0.41279 0.0
C1143 C 0.49311 0.58948 0.23935 0.0
H1144 H 0.55441 0.57337 0.31335 0.0
C1145 C 0.47621 0.59204 0.29701 0.0
C1146 C 0.48724 0.58757 0.36048 0.0
H1147 H 0.48367 0.59223 0.19127 0.0
H1148 H 0.45426 0.59671 0.29161 0.0
C1149 C 0.51581 0.58138 0.36494 0.0
C1150 C 0.6549 0.26842 0.60603 0.0
C1151 C 0.64846 0.23992 0.59595 0.0
H1152 H 0.66305 0.30707 0.56211 0.0
C1153 C 0.64349 0.22906 0.53017 0.0
H1154 H 0.65883 0.27753 0.65587 0.0
C1155 C 0.64609 0.24607 0.47566 0.0
C1156 C 0.65367 0.27439 0.48563 0.0
H1157 H 0.63859 0.20715 0.52055 0.0
H1158 H 0.64321 0.23674 0.42563 0.0
C1159 C 0.65737 0.28538 0.55188 0.0
C1160 C 0.95872 0.59807 0.85063 0.0
C1161 C 0.97374 0.59777 0.91087 0.0
H1162 H 0.96042 0.59544 0.74311 0.0
C1163 C 0.00302 0.59685 0.90737 0.0
H1164 H 0.93614 0.59833 0.85135 0.0
C1165 C 0.0169 0.59572 0.84549 0.0
C1166 C 0.0019 0.59472 0.78515 0.0
H1167 H 0.01523 0.59624 0.95259 0.0
H1168 H 0.03945 0.59444 0.8449 0.0
C1169 C 0.97262 0.59622 0.78852 0.0
C1170 C 0.61596 0.74914 0.12473 0.0
C1171 C 0.63312 0.72579 0.13269 0.0
H1172 H 0.60492 0.78232 0.06189 0.0
C1173 C 0.65026 0.71628 0.07907 0.0
H1174 H 0.60291 0.75725 0.16558 0.0
C1175 C 0.65121 0.73027 1.02001 0.0
C1176 C 0.63547 0.75462 1.01312 0.0
H1177 H 0.66387 0.69846 0.08379 0.0
H1178 H 0.66541 0.7227 0.9809 0.0
C1179 C 0.61729 0.76359 0.06557 0.0
C1180 C 0.53407 0.40916 0.3796 0.0
C1181 C 0.52284 0.40651 0.44392 0.0
H1182 H 0.52654 0.40947 0.27431 0.0
C1183 C 0.49437 0.39969 0.4488 0.0
H1184 H 0.55588 0.41422 0.37325 0.0
C1185 C 0.47748 0.39682 0.39133 0.0
C1186 C 0.4886 0.40066 0.32752 0.0
H1187 H 0.48487 0.39756 0.49718 0.0
H1188 H 0.45547 0.39257 0.39715 0.0
C1189 C 0.51723 0.40634 0.32246 0.0
C1190 C 0.84091 0.23913 0.71748 0.0
C1191 C 0.83483 0.26785 0.71633 0.0
H1192 H 0.84617 0.19984 0.66065 0.0
C1193 C 0.83137 0.27899 0.65344 0.0
H1194 H 0.84355 0.22965 0.76461 0.0
C1195 C 0.83269 0.26189 0.59409 0.0
C1196 C 0.83772 0.23307 0.5953 0.0
H1197 H 0.82678 0.30095 0.64986 0.0
H1198 H 0.82903 0.27121 0.54712 0.0
C1199 C 0.84237 0.22198 0.65774 0.0
C1200 C 0.98027 0.58244 0.40625 0.0
C1201 C 0.0089 0.57822 0.39417 0.0
H1202 H 0.93932 0.58543 0.3646 0.0
C1203 C 0.01818 0.57705 0.32715 0.0
H1204 H 0.9722 0.58344 0.45676 0.0
C1205 C -0.00078 0.57872 0.27389 0.0
C1206 C 0.97042 0.58123 0.28613 0.0
H1207 H 0.04007 0.57393 0.31559 0.0
H1208 H 0.00695 0.57626 0.22313 0.0
C1209 C 0.96136 0.58367 0.35314 0.0
C1210 C 0.13764 0.23784 0.14718 0.0
C1211 C 0.14227 0.26656 0.14187 0.0
H1212 H 0.13384 0.19738 0.09617 0.0
C1213 C 0.1425 0.2767 0.07729 0.0
H1214 H 0.13735 0.22911 0.19562 0.0
C1215 C 0.13993 0.2584 1.01978 0.0
C1216 C 0.1374 0.22943 1.02532 0.0
H1217 H 0.14588 0.2987 0.07096 0.0
H1218 H 0.14199 0.26671 0.97109 0.0
C1219 C 0.13551 0.21958 0.08988 0.0
C1220 C 0.45587 0.41225 0.88094 0.0
C1221 C 0.46704 0.40876 0.94487 0.0
H1222 H 0.46345 0.41329 0.77567 0.0
C1223 C 0.49544 0.40154 0.94907 0.0
H1224 H 0.43413 0.41767 0.87515 0.0
C1225 C 0.51233 0.39896 0.89139 0.0
C1226 C 0.50126 0.40342 0.82796 0.0
H1227 H 0.5049 0.39878 0.99713 0.0
H1228 H 0.53427 0.39427 0.89677 0.0
C1229 C 0.47271 0.40964 0.82352 0.0
C1230 C 0.33033 0.71959 0.58329 0.0
C1231 C 0.33604 0.74824 0.59343 0.0
H1232 H 0.32303 0.68077 0.62718 0.0
C1233 C 0.34061 0.75925 0.65925 0.0
H1234 H 0.32674 0.71037 0.5334 0.0
C1235 C 0.33831 0.74221 0.71375 0.0
C1236 C 0.33143 0.71372 0.7037 0.0
H1237 H 0.34494 0.78128 0.6689 0.0
H1238 H 0.34085 0.75163 0.76381 0.0
C1239 C 0.32815 0.7026 0.63743 0.0
C1240 C 0.02382 0.38173 0.3247 0.0
C1241 C 0.00892 0.38227 0.26434 0.0
H1242 H 0.02195 0.3836 0.43219 0.0
C1243 C 0.97961 0.38264 0.26765 0.0
H1244 H 0.0464 0.38184 0.32424 0.0
C1245 C 0.9656 0.38314 0.32943 0.0
C1246 C 0.98048 0.38396 0.38996 0.0
H1247 H 0.96744 0.38335 0.2224 0.0
H1248 H 0.94304 0.3841 0.32983 0.0
C1249 C 0.0098 0.3829 0.38671 0.0
C1250 C 0.36583 0.27097 0.10486 0.0
C1251 C 0.36764 0.25568 0.04273 0.0
H1252 H 0.36029 0.26965 0.2111 0.0
C1253 C 0.36817 0.22634 0.04238 0.0
H1254 H 0.36494 0.29357 0.10708 0.0
C1255 C 0.36589 0.21264 0.1021 0.0
C1256 C 0.36241 0.22788 0.16383 0.0
H1257 H 0.36923 0.2139 0.99552 0.0
H1258 H 0.36542 0.19003 0.09947 0.0
C1259 C 0.36298 0.25724 0.16456 0.0
C1260 C 0.51099 0.59395 0.79706 0.0
C1261 C 0.4999 0.59003 0.86084 0.0
H1262 H 0.50357 0.59327 0.69123 0.0
C1263 C 0.47129 0.58426 0.86591 0.0
H1264 H 0.53299 0.59828 0.79123 0.0
C1265 C 0.45444 0.58142 0.80879 0.0
C1266 C 0.46564 0.58416 0.74448 0.0
H1267 H 0.462 0.58107 0.91406 0.0
H1268 H 0.43265 0.57628 0.81513 0.0
C1269 C 0.49409 0.59108 0.7396 0.0
C1270 C 0.15254 0.72246 0.59478 0.0
C1271 C 0.14681 0.75115 0.59353 0.0
H1272 H 0.15931 0.68352 0.5391 0.0
C1273 C 0.14181 0.76208 0.53107 0.0
H1274 H 0.1565 0.71325 0.64176 0.0
C1275 C 0.14359 0.74494 0.47135 0.0
C1276 C 0.15035 0.71636 0.47253 0.0
H1277 H 0.13747 0.78412 0.52812 0.0
H1278 H 0.14065 0.75432 0.42421 0.0
C1279 C 0.15418 0.70536 0.53546 0.0
C1280 C 0.50282 0.89957 0.27886 0.0
C1281 C 0.47422 0.90352 0.29201 0.0
H1282 H 0.54413 0.89777 0.31883 0.0
C1283 C 0.4654 0.90517 0.35933 0.0
H1284 H 0.51055 0.89818 0.22805 0.0
C1285 C 0.48481 0.90448 0.41184 0.0
C1286 C 0.51355 0.90244 0.39834 0.0
H1287 H 0.44356 0.90813 0.37163 0.0
H1288 H 0.47747 0.90742 0.46286 0.0
C1289 C 0.52215 0.89927 0.33115 0.0
C1290 C 0.34684 0.24929 0.54222 0.0
C1291 C 0.34219 0.22058 0.54752 0.0
H1292 H 0.35051 0.28978 0.59317 0.0
C1293 C 0.34174 0.21048 0.61215 0.0
H1294 H 0.34727 0.258 0.49376 0.0
C1295 C 0.34417 0.22881 0.66965 0.0
C1296 C 0.34673 0.25778 0.66407 0.0
H1297 H 0.33832 0.18849 0.61849 0.0
H1298 H 0.34196 0.22053 0.71834 0.0
C1299 C 0.3488 0.26759 0.5995 0.0
C1300 C 0.01232 0.0785 0.86418 0.0
C1301 C 0.98378 0.0848 0.85975 0.0
H1302 H 0.05087 0.07027 0.81253 0.0
C1303 C 0.97271 0.08918 0.79627 0.0
H1304 H 0.02158 0.07491 0.91206 0.0
C1305 C 0.98958 0.08645 0.73857 0.0
C1306 C 0.01797 0.07915 0.74277 0.0
H1307 H 0.95078 0.09392 0.7909 0.0
H1308 H 0.98012 0.08916 0.69048 0.0
C1309 C 0.02913 0.07574 0.80673 0.0
C1310 C 0.1444 0.74486 0.97101 0.0
C1311 C 0.15129 0.77335 0.981 0.0
H1312 H 0.13784 0.70581 1.01594 0.0
C1313 C 0.15467 0.78449 0.04723 0.0
H1314 H 0.14178 0.73544 0.92098 0.0
C1315 C 0.1526 0.7675 0.10139 0.0
C1316 C 0.14688 0.73885 0.0913 0.0
H1317 H 0.1598 0.80631 0.05742 0.0
H1318 H 0.15626 0.77672 0.15125 0.0
C1319 C 0.14219 0.72783 1.02554 0.0
C1320 C 0.47895 0.10973 0.30593 0.0
C1321 C 0.50246 0.09253 0.29333 0.0
H1322 H 0.44676 0.12315 0.37647 0.0
C1323 C 0.5129 0.07755 0.34582 0.0
H1324 H 0.47035 0.12151 0.26651 0.0
C1325 C 0.50007 0.07911 0.4086 0.0
C1326 C 0.47586 0.0952 0.42094 0.0
H1327 H 0.53106 0.06426 0.33823 0.0
H1328 H 0.50863 0.0667 0.44692 0.0
C1329 C 0.46552 0.11075 0.36894 0.0
C1330 C 0.11839 0.27463 0.58699 0.0
C1331 C 0.1221 0.25936 0.52539 0.0
H1332 H 0.11469 0.27345 0.69352 0.0
C1333 C 0.12157 0.23 0.52475 0.0
H1334 H 0.11881 0.29724 0.58953 0.0
C1335 C 0.11853 0.21631 0.58444 0.0
C1336 C 0.1165 0.23164 0.64648 0.0
H1337 H 0.12442 0.21757 0.4783 0.0
H1338 H 0.11947 0.19372 0.58233 0.0
C1339 C 0.11592 0.26098 0.64672 0.0
C1340 C 0.99041 0.89703 0.94795 0.0
C1341 C 0.01889 0.9038 0.94305 0.0
H1342 H 0.95149 0.88998 0.89632 0.0
C1343 C 0.03013 0.90641 0.87874 0.0
H1344 H 0.9809 0.89494 0.99634 0.0
C1345 C 0.01329 0.90359 0.8216 0.0
C1346 C 0.98465 0.89797 0.82668 0.0
H1347 H 0.05195 0.91141 0.87238 0.0
H1348 H 0.02261 0.90668 0.77344 0.0
C1349 C 0.97351 0.89418 0.89049 0.0
C1350 C 0.33853 0.74181 0.21348 0.0
C1351 C 0.33187 0.77041 0.21232 0.0
H1352 H 0.34462 0.70266 0.15663 0.0
C1353 C 0.32825 0.78149 0.14942 0.0
H1354 H 0.34132 0.73238 0.26062 0.0
C1355 C 0.32997 0.76445 0.09006 0.0
C1356 C 0.33557 0.73574 0.09128 0.0
H1357 H 0.32324 0.80337 0.14584 0.0
H1358 H 0.32617 0.77371 0.04308 0.0
C1359 C 0.34038 0.72472 0.15373 0.0
C1360 C 0.4991 0.08365 0.77983 0.0
C1361 C 0.47036 0.08552 0.79328 0.0
H1362 H 0.54036 0.08021 0.82012 0.0
C1363 C 0.46171 0.08861 0.86044 0.0
H1364 H 0.50648 0.08079 0.72883 0.0
C1365 C 0.48102 0.08839 0.91276 0.0
C1366 C 0.50964 0.08461 0.89965 0.0
H1367 H 0.43972 0.09001 0.87271 0.0
H1368 H 0.47327 0.08971 0.96356 0.0
C1369 C 0.5185 0.08303 0.83238 0.0
C1370 C 0.63471 0.72182 0.5932 0.0
C1371 C 0.6373 0.73023 0.52768 0.0
H1372 H 0.63739 0.73325 0.69774 0.0
C1373 C 0.64222 0.75864 0.51849 0.0
H1374 H 0.63149 0.7 0.60194 0.0
C1375 C 0.64647 0.77775 0.57371 0.0
C1376 C 0.64546 0.76893 0.63934 0.0
H1377 H 0.64507 0.76565 0.46869 0.0
H1378 H 0.65173 0.79915 0.56486 0.0
C1379 C 0.63836 0.74093 0.64822 0.0
C1380 C 0.96892 0.9067 0.32264 0.0
C1381 C -0.00254 0.90041 0.32706 0.0
H1382 H 0.93036 0.91488 0.37428 0.0
C1383 C 0.00852 0.896 0.39054 0.0
H1384 H 0.95966 0.91031 0.27477 0.0
C1385 C 0.99164 0.89869 0.44824 0.0
C1386 C 0.96325 0.90598 0.44405 0.0
H1387 H 0.03045 0.89127 0.39592 0.0
H1388 H 0.0011 0.89597 0.49633 0.0
C1389 C 0.9521 0.90942 0.38009 0.0
C1390 C 0.83186 0.21695 0.08744 0.0
C1391 C 0.8382 0.24547 0.09746 0.0
H1392 H 0.82373 0.17834 0.1315 0.0
C1393 C 0.84303 0.25642 0.16322 0.0
H1394 H 0.82806 0.20779 1.0376 0.0
C1395 C 0.84036 0.23948 0.2178 0.0
C1396 C 0.83284 0.21115 0.20787 0.0
H1397 H 0.84785 0.27835 0.17276 0.0
H1398 H 0.84311 0.24887 0.26782 0.0
C1399 C 0.82932 0.20005 0.14166 0.0
C1400 C 0.48408 0.90892 0.78285 0.0
C1401 C 0.50833 0.89287 0.77072 0.0
H1402 H 0.45303 0.92385 0.85302 0.0
C1403 C 0.51866 0.87743 0.82293 0.0
H1404 H 0.47551 0.92126 0.74438 0.0
C1405 C 0.50519 0.87852 0.88591 0.0
C1406 C 0.48165 0.8957 0.89828 0.0
H1407 H 0.53744 0.86505 0.81557 0.0
H1408 H 0.51378 0.86683 0.92547 0.0
C1409 C 0.47121 0.91058 0.8456 0.0
C1410 C 0.83654 0.77343 0.60508 0.0
C1411 C 0.85356 0.76379 0.55136 0.0
H1412 H 0.82146 0.76715 0.70337 0.0
C1413 C 0.87062 0.74036 0.55927 0.0
H1414 H 0.823 0.79131 0.60038 0.0
C1415 C 0.86928 0.72596 0.61851 0.0
C1416 C 0.8512 0.73505 0.67103 0.0
H1417 H 0.88357 0.73216 0.51834 0.0
H1418 H 0.88156 0.70716 0.62215 0.0
C1419 C 0.83559 0.75949 0.66419 0.0
C1420 C 0.96788 0.08156 0.36522 0.0
C1421 C -0.00349 0.08723 0.36022 0.0
H1422 H 0.92925 0.07371 0.31433 0.0
C1423 C 0.00767 0.09107 0.29645 0.0
H1424 H 0.95855 0.07843 0.41335 0.0
C1425 C 0.9908 0.08821 0.23895 0.0
C1426 C 0.96233 0.0814 0.24377 0.0
H1427 H 0.02969 0.09531 0.2907 0.0
H1428 H 0.00033 0.09034 0.19059 0.0
C1429 C 0.95107 0.07875 0.30804 0.0
C1430 C 0.64624 0.24627 0.97584 0.0
C1431 C 0.65246 0.21757 0.97696 0.0
H1432 H 0.6408 0.28551 1.03272 0.0
C1433 C 0.65598 0.20643 1.03983 0.0
H1434 H 0.64354 0.25574 0.92872 0.0
C1435 C 0.65458 0.2235 0.0992 0.0
C1436 C 0.64941 0.2523 0.09801 0.0
H1437 H 0.66066 0.18449 0.04338 0.0
H1438 H 0.65828 0.21419 0.14615 0.0
C1439 C 0.6447 0.26339 1.0356 0.0
C1440 C 0.11248 0.48918 0.70385 0.0
C1441 C 0.10686 0.51802 0.7105 0.0
H1442 H 0.11638 0.45089 0.75386 0.0
C1443 C 0.10452 0.53083 0.77531 0.0
H1444 H 0.11364 0.47853 0.65472 0.0
C1445 C 0.1059 0.51512 0.83175 0.0
C1446 C 0.10941 0.486 0.82525 0.0
H1447 H 0.09976 0.55291 0.78223 0.0
H1448 H 0.10259 0.52566 0.88044 0.0
C1449 C 0.1137 0.4733 0.76072 0.0
C1450 C 0.70994 0.85264 0.04125 0.0
C1451 C 0.722 0.85566 0.97804 0.0
H1452 H 0.71618 0.84887 0.14597 0.0
C1453 C 0.75097 0.86032 0.97511 0.0
H1454 H 0.68777 0.8488 0.04562 0.0
C1455 C 0.7675 0.86014 1.03345 0.0
C1456 C 0.75541 0.8553 0.09588 0.0
H1457 H 0.76109 0.8621 0.92731 0.0
H1458 H 0.78988 0.86233 1.02908 0.0
C1459 C 0.72631 0.85249 0.09903 0.0
C1460 C 0.37914 0.48281 0.41085 0.0
C1461 C 0.37858 0.5119 0.40634 0.0
H1462 H 0.38282 0.44266 0.35769 0.0
C1463 C 0.3764 0.52253 0.34281 0.0
H1464 H 0.38162 0.47406 0.45894 0.0
C1465 C 0.37621 0.50449 0.28484 0.0
C1466 C 0.37921 0.47552 0.28918 0.0
H1467 H 0.37665 0.54487 0.3378 0.0
H1468 H 0.37636 0.51339 0.23656 0.0
C1469 C 0.37991 0.46483 0.35284 0.0
C1470 C 0.76829 0.12466 0.58854 0.0
C1471 C 0.75814 0.12597 0.52307 0.0
H1472 H 0.75849 0.12584 0.69327 0.0
C1473 C 0.72913 0.12619 0.51332 0.0
H1474 H 0.79054 0.12514 0.59772 0.0
C1475 C 0.71081 0.12753 0.56821 0.0
C1476 C 0.72104 0.12768 0.63391 0.0
H1477 H 0.72069 0.128 0.46375 0.0
H1478 H 0.68871 0.13018 0.55952 0.0
C1479 C 0.74993 0.12501 0.64329 0.0
C1480 C 0.87251 0.49392 0.47184 0.0
C1481 C 0.87792 0.46502 0.46561 0.0
H1482 H 0.8677 0.53188 0.42095 0.0
C1483 C 0.87885 0.45183 0.4009 0.0
H1484 H 0.87211 0.50485 0.52069 0.0
C1485 C 0.87642 0.46721 0.34408 0.0
C1486 C 0.87312 0.49635 0.34998 0.0
H1487 H 0.88303 0.42964 0.39401 0.0
H1488 H 0.87863 0.45637 0.29538 0.0
C1489 C 0.87021 0.50944 0.41456 0.0
C1490 C 0.21929 0.13421 0.14441 0.0
C1491 C 0.23124 0.13949 0.08202 0.0
H1492 H 0.22544 0.1322 0.25067 0.0
C1493 C 0.2601 0.14434 0.08005 0.0
H1494 H 0.1971 0.13048 0.14811 0.0
C1495 C 0.27628 0.14515 0.13846 0.0
C1496 C 0.26434 0.1412 0.20159 0.0
H1497 H 0.27018 0.14842 1.03334 0.0
H1498 H 0.29826 0.14989 0.13418 0.0
C1499 C 0.2356 0.13503 0.20339 0.0
C1500 C 0.60922 0.50778 0.7774 0.0
C1501 C 0.6101 0.47868 0.78179 0.0
H1502 H 0.60519 0.54786 0.8307 0.0
C1503 C 0.61247 0.46805 0.84528 0.0
H1504 H 0.60657 0.51652 0.72936 0.0
C1505 C 0.61253 0.48605 0.90332 0.0
C1506 C 0.6092 0.51499 0.8991 0.0
H1507 H 0.61245 0.44569 0.85021 0.0
H1508 H 0.61253 0.47712 0.95156 0.0
C1509 C 0.60833 0.52571 0.83547 0.0
C1510 C 0.25318 0.86036 0.67545 0.0
C1511 C 0.22417 0.85989 0.6657 0.0
H1512 H 0.29365 0.85724 0.62925 0.0
C1513 C 0.21395 0.8609 0.60021 0.0
H1514 H 0.26168 0.8588 0.72503 0.0
C1515 C 0.23228 0.8609 0.54544 0.0
C1516 C 0.26122 0.85891 0.55484 0.0
H1517 H 0.19171 0.85989 0.59103 0.0
H1518 H 0.22371 0.85982 0.49546 0.0
C1519 C 0.27149 0.85938 0.62054 0.0
C1520 C 0.60712 0.02046 0.33776 0.0
C1521 C 0.61084 0.99137 0.33095 0.0
H1522 H 0.60071 0.05833 0.28885 0.0
C1523 C 0.61501 0.97881 0.26625 0.0
H1524 H 0.60393 0.03091 0.38659 0.0
C1525 C 0.6135 -0.00523 0.20956 0.0
C1526 C 0.60766 0.02358 0.21649 0.0
H1527 H 0.61787 0.95643 0.25916 0.0
H1528 H 0.6147 0.9842 0.16036 0.0
C1529 C 0.60546 0.03627 0.2815 0.0
C1530 C 0.20791 0.34283 0.5506 0.0
C1531 C 0.21986 0.34664 0.48741 0.0
H1532 H 0.21403 0.33958 0.65573 0.0
C1533 C 0.24864 0.35262 0.48551 0.0
H1534 H 0.1859 0.33823 0.55494 0.0
C1535 C 0.26498 0.35336 0.54445 0.0
C1536 C 0.25302 0.3482 0.6069 0.0
H1537 H 0.25881 0.35533 0.43817 0.0
H1538 H 0.2872 0.35693 0.54066 0.0
C1539 C 0.22412 0.34357 0.60897 0.0
C1540 C 0.87552 0.98064 0.91009 0.0
C1541 C 0.87492 0.00973 0.90559 0.0
H1542 H 0.87925 0.94048 0.85696 0.0
C1543 C 0.87274 0.02034 0.84203 0.0
H1544 H 0.87801 0.9719 0.95819 0.0
C1545 C 0.87258 0.0023 0.78406 0.0
C1546 C 0.87563 0.97333 0.78841 0.0
H1547 H 0.87297 0.04269 0.83701 0.0
H1548 H 0.87273 0.0112 0.73578 0.0
C1549 C 0.87633 0.96266 0.85209 0.0
C1550 C 0.25055 0.62609 0.13926 0.0
C1551 C 0.2216 0.62816 0.13004 0.0
H1552 H 0.29107 0.62698 0.09343 0.0
C1553 C 0.21128 0.62769 0.06438 0.0
H1554 H 0.25916 0.62717 0.1892 0.0
C1555 C 0.22953 0.62665 1.00936 0.0
C1556 C 0.25854 0.62704 1.01894 0.0
H1557 H 0.18911 0.62989 0.05581 0.0
H1558 H 0.22097 0.62824 0.95984 0.0
C1559 C 0.26883 0.62602 0.08438 0.0
C1560 C 0.37049 -0.00612 0.98205 0.0
C1561 C 0.37641 0.96508 0.97517 0.0
H1562 H 0.36591 0.03217 0.93233 0.0
C1563 C 0.37851 0.95236 0.91018 0.0
H1564 H 0.36935 0.00448 1.03123 0.0
C1565 C 0.37667 0.96811 0.85388 0.0
C1566 C 0.37287 -0.00281 0.8606 0.0
H1567 H 0.3833 0.9303 0.90288 0.0
H1568 H 0.37979 0.95763 0.80505 0.0
C1569 C 0.36881 0.00979 0.9253 0.0
C1570 C 0.73552 0.62928 0.7087 0.0
C1571 C 0.76445 0.63412 0.70583 0.0
H1572 H 0.69665 0.62706 0.65462 0.0
C1573 C 0.77654 0.63721 0.64268 0.0
H1574 H 0.72539 0.62744 0.75647 0.0
C1575 C 0.7602 0.63726 0.58486 0.0
C1576 C 0.73111 0.63429 0.58795 0.0
H1577 H 0.79869 0.64117 0.63838 0.0
H1578 H 0.77032 0.64094 0.53795 0.0
C1579 C 0.71902 0.62937 0.65032 0.0
C1580 C 0.1085 0.96498 0.34466 0.0
C1581 C 0.10631 0.9756 0.28112 0.0
H1582 H 0.10855 0.9741 0.45092 0.0
C1583 C 0.1057 0.0047 0.27665 0.0
H1584 H 0.10828 0.94263 0.34966 0.0
C1585 C 0.10491 0.02267 0.33468 0.0
C1586 C 0.10564 0.01198 0.39836 0.0
H1587 H 0.10319 0.01345 0.22857 0.0
H1588 H 0.10198 0.04485 0.32985 0.0
C1589 C 0.10868 0.98301 0.40266 0.0
C1590 C 0.75773 0.35908 0.17981 0.0
C1591 C 0.72872 0.35934 0.17027 0.0
H1592 H 0.79808 0.35503 0.13331 0.0
C1593 C 0.71848 0.36066 0.10487 0.0
H1594 H 0.76623 0.35726 0.22931 0.0
C1595 C 0.73678 0.36026 0.04997 0.0
C1596 C 0.76567 0.35755 0.05914 0.0
H1597 H 0.69622 0.3602 0.09585 0.0
H1598 H 0.72815 0.35943 1.00005 0.0
C1599 C 0.77598 0.35772 0.12478 0.0
loop_
_geom_bond_atom_site_label_1
_geom_bond_atom_site_label_2
_geom_bond_distance
_geom_bond_site_symmetry_2
_ccdc_geom_bond_type
Dy0 O4 2.398 . S
Dy0 O5 2.491 . S
Dy0 O6 2.403 . S
Dy0 O7 2.664 . S
Dy0 O11 2.326 . S
Dy0 O15 2.310 . S
Dy0 O16 2.351 1_554 S
C1 O12 1.185 . S
C1 O13 1.355 . S
C2 O4 1.185 . S
C2 O5 1.355 . S
Dy3 O7 2.310 1_556 S
Dy3 O10 2.351 1_556 S
Dy3 O12 2.398 . S
Dy3 O13 2.491 . S
Dy3 O14 2.403 1_556 S
Dy3 O15 2.664 1_556 S
Dy3 O17 2.326 . S
O4 Dy0 2.398 . S
O4 C2 1.185 . S
O5 Dy0 2.491 . S
O5 C2 1.355 . S
O6 Dy0 2.403 . S
O6 C8 1.254 . S
O7 Dy0 2.664 . S
O7 Dy3 2.310 1_554 S
O7 C8 1.268 . S
C8 O6 1.254 . S
C8 O7 1.268 . S
C9 O14 1.254 . S
C9 O15 1.268 . S
O10 Dy3 2.351 1_554 S
O10 C18 1.249 . S
O11 Dy0 2.326 . S
O11 C18 1.267 . S
O12 C1 1.185 . S
O12 Dy3 2.398 . S
O13 C1 1.355 . S
O13 Dy3 2.491 . S
O14 Dy3 2.403 1_554 S
O14 C9 1.254 . S
O15 Dy0 2.310 . S
O15 Dy3 2.664 1_554 S
O15 C9 1.268 . S
O16 Dy0 2.351 1_556 S
O16 C19 1.249 . S
O17 Dy3 2.326 . S
O17 C19 1.267 . S
C18 O10 1.249 . S
C18 O11 1.267 . S
C19 O16 1.249 . S
C19 O17 1.267 . S
Dy20 O24 2.398 . S
Dy20 O25 2.491 . S
Dy20 O26 2.403 . S
Dy20 O27 2.664 . S
Dy20 O31 2.326 . S
Dy20 O35 2.310 . S
Dy20 O36 2.351 . S
C21 O32 1.185 . S
C21 O33 1.355 . S
C22 O24 1.185 . S
C22 O25 1.355 . S
Dy23 O27 2.310 . S
Dy23 O30 2.351 . S
Dy23 O32 2.398 . S
Dy23 O33 2.491 . S
Dy23 O34 2.403 . S
Dy23 O35 2.664 . S
Dy23 O37 2.326 . S
O24 Dy20 2.398 . S
O24 C22 1.185 . S
O25 Dy20 2.491 . S
O25 C22 1.355 . S
O26 Dy20 2.403 . S
O26 C28 1.254 . S
O27 Dy20 2.664 . S
O27 Dy23 2.310 . S
O27 C28 1.268 . S
C28 O26 1.254 . S
C28 O27 1.268 . S
C29 O34 1.254 . S
C29 O35 1.268 . S
O30 Dy23 2.351 . S
O30 C38 1.249 . S
O31 Dy20 2.326 . S
O31 C38 1.267 . S
O32 C21 1.185 . S
O32 Dy23 2.398 . S
O33 C21 1.355 . S
O33 Dy23 2.491 . S
O34 Dy23 2.403 . S
O34 C29 1.254 . S
O35 Dy20 2.310 . S
O35 Dy23 2.664 . S
O35 C29 1.268 . S
O36 Dy20 2.351 . S
O36 C39 1.249 . S
O37 Dy23 2.326 . S
O37 C39 1.267 . S
C38 O30 1.249 . S
C38 O31 1.267 . S
C39 O36 1.249 . S
C39 O37 1.267 . S
Dy40 O44 2.398 . S
Dy40 O45 2.491 . S
Dy40 O46 2.403 . S
Dy40 O47 2.664 . S
Dy40 O51 2.326 . S
Dy40 O55 2.310 . S
Dy40 O56 2.351 . S
C41 O52 1.185 . S
C41 O53 1.355 . S
C42 O44 1.185 . S
C42 O45 1.355 . S
Dy43 O47 2.310 . S
Dy43 O50 2.351 . S
Dy43 O52 2.398 . S
Dy43 O53 2.491 . S
Dy43 O54 2.403 . S
Dy43 O55 2.664 . S
Dy43 O57 2.326 . S
O44 Dy40 2.398 . S
O44 C42 1.185 . S
O45 Dy40 2.491 . S
O45 C42 1.355 . S
O46 Dy40 2.403 . S
O46 C48 1.254 . S
O47 Dy40 2.664 . S
O47 Dy43 2.310 . S
O47 C48 1.268 . S
C48 O46 1.254 . S
C48 O47 1.268 . S
C49 O54 1.254 . S
C49 O55 1.268 . S
O50 Dy43 2.351 . S
O50 C58 1.249 . S
O51 Dy40 2.326 . S
O51 C58 1.267 . S
O52 C41 1.185 . S
O52 Dy43 2.398 . S
O53 C41 1.355 . S
O53 Dy43 2.491 . S
O54 Dy43 2.403 . S
O54 C49 1.254 . S
O55 Dy40 2.310 . S
O55 Dy43 2.664 . S
O55 C49 1.268 . S
O56 Dy40 2.351 . S
O56 C59 1.249 . S
O57 Dy43 2.326 . S
O57 C59 1.267 . S
C58 O50 1.249 . S
C58 O51 1.267 . S
C59 O56 1.249 . S
C59 O57 1.267 . S
Dy60 O64 2.398 . S
Dy60 O65 2.491 . S
Dy60 O66 2.403 . S
Dy60 O67 2.664 . S
Dy60 O71 2.326 . S
Dy60 O75 2.310 . S
Dy60 O76 2.351 . S
C61 O72 1.185 . S
C61 O73 1.355 . S
C62 O64 1.185 . S
C62 O65 1.355 . S
Dy63 O67 2.310 . S
Dy63 O70 2.351 . S
Dy63 O72 2.398 . S
Dy63 O73 2.491 . S
Dy63 O74 2.403 . S
Dy63 O75 2.664 . S
Dy63 O77 2.326 . S
O64 Dy60 2.398 . S
O64 C62 1.185 . S
O65 Dy60 2.491 . S
O65 C62 1.355 . S
O66 Dy60 2.403 . S
O66 C68 1.254 . S
O67 Dy60 2.664 . S
O67 Dy63 2.310 . S
O67 C68 1.268 . S
C68 O66 1.254 . S
C68 O67 1.268 . S
C69 O74 1.254 . S
C69 O75 1.268 . S
O70 Dy63 2.351 . S
O70 C78 1.249 . S
O71 Dy60 2.326 . S
O71 C78 1.267 . S
O72 C61 1.185 . S
O72 Dy63 2.398 . S
O73 C61 1.355 . S
O73 Dy63 2.491 . S
O74 Dy63 2.403 . S
O74 C69 1.254 . S
O75 Dy60 2.310 . S
O75 Dy63 2.664 . S
O75 C69 1.268 . S
O76 Dy60 2.351 . S
O76 C79 1.249 . S
O77 Dy63 2.326 . S
O77 C79 1.267 . S
C78 O70 1.249 . S
C78 O71 1.267 . S
C79 O76 1.249 . S
C79 O77 1.267 . S
Dy80 O84 2.398 . S
Dy80 O85 2.491 . S
Dy80 O86 2.403 . S
Dy80 O87 2.664 . S
Dy80 O91 2.326 . S
Dy80 O95 2.310 . S
Dy80 O96 2.351 . S
C81 O92 1.185 . S
C81 O93 1.355 . S
C82 O84 1.185 . S
C82 O85 1.355 . S
Dy83 O87 2.310 . S
Dy83 O90 2.351 . S
Dy83 O92 2.398 . S
Dy83 O93 2.491 . S
Dy83 O94 2.403 . S
Dy83 O95 2.664 . S
Dy83 O97 2.326 . S
O84 Dy80 2.398 . S
O84 C82 1.185 . S
O85 Dy80 2.491 . S
O85 C82 1.355 . S
O86 Dy80 2.403 . S
O86 C88 1.254 . S
O87 Dy80 2.664 . S
O87 Dy83 2.310 . S
O87 C88 1.268 . S
C88 O86 1.254 . S
C88 O87 1.268 . S
C89 O94 1.254 . S
C89 O95 1.268 . S
O90 Dy83 2.351 . S
O90 C98 1.249 . S
O91 Dy80 2.326 . S
O91 C98 1.267 . S
O92 C81 1.185 . S
O92 Dy83 2.398 . S
O93 C81 1.355 . S
O93 Dy83 2.491 . S
O94 Dy83 2.403 . S
O94 C89 1.254 . S
O95 Dy80 2.310 . S
O95 Dy83 2.664 . S
O95 C89 1.268 . S
O96 Dy80 2.351 . S
O96 C99 1.249 . S
O97 Dy83 2.326 . S
O97 C99 1.267 . S
C98 O90 1.249 . S
C98 O91 1.267 . S
C99 O96 1.249 . S
C99 O97 1.267 . S
Dy100 O104 2.398 . S
Dy100 O105 2.491 . S
Dy100 O106 2.403 . S
Dy100 O107 2.664 . S
Dy100 O111 2.326 . S
Dy100 O115 2.310 . S
Dy100 O116 2.351 . S
C101 O112 1.185 . S
C101 O113 1.355 . S
C102 O104 1.185 . S
C102 O105 1.355 . S
Dy103 O107 2.310 . S
Dy103 O110 2.351 . S
Dy103 O112 2.398 . S
Dy103 O113 2.491 . S
Dy103 O114 2.403 . S
Dy103 O115 2.664 . S
Dy103 O117 2.326 . S
O104 Dy100 2.398 . S
O104 C102 1.185 . S
O105 Dy100 2.491 . S
O105 C102 1.355 . S
O106 Dy100 2.403 . S
O106 C108 1.254 . S
O107 Dy100 2.664 . S
O107 Dy103 2.310 . S
O107 C108 1.268 . S
C108 O106 1.254 . S
C108 O107 1.268 . S
C109 O114 1.254 . S
C109 O115 1.268 . S
O110 Dy103 2.351 . S
O110 C118 1.249 . S
O111 Dy100 2.326 . S
O111 C118 1.267 . S
O112 C101 1.185 . S
O112 Dy103 2.398 . S
O113 C101 1.355 . S
O113 Dy103 2.491 . S
O114 Dy103 2.403 . S
O114 C109 1.254 . S
O115 Dy100 2.310 . S
O115 Dy103 2.664 . S
O115 C109 1.268 . S
O116 Dy100 2.351 . S
O116 C119 1.249 . S
O117 Dy103 2.326 . S
O117 C119 1.267 . S
C118 O110 1.249 . S
C118 O111 1.267 . S
C119 O116 1.249 . S
C119 O117 1.267 . S
Dy120 O124 2.398 . S
Dy120 O125 2.491 . S
Dy120 O126 2.403 . S
Dy120 O127 2.664 . S
Dy120 O131 2.326 . S
Dy120 O135 2.310 . S
Dy120 O136 2.351 1_554 S
C121 O132 1.185 . S
C121 O133 1.355 . S
C122 O124 1.185 . S
C122 O125 1.355 . S
Dy123 O127 2.310 . S
Dy123 O130 2.351 . S
Dy123 O132 2.398 1_554 S
Dy123 O133 2.491 1_554 S
Dy123 O134 2.403 . S
Dy123 O135 2.664 . S
Dy123 O137 2.326 1_554 S
O124 Dy120 2.398 . S
O124 C122 1.185 . S
O125 Dy120 2.491 . S
O125 C122 1.355 . S
O126 Dy120 2.403 . S
O126 C128 1.254 . S
O127 Dy120 2.664 . S
O127 Dy123 2.310 . S
O127 C128 1.268 . S
C128 O126 1.254 . S
C128 O127 1.268 . S
C129 O134 1.254 . S
C129 O135 1.268 . S
O130 Dy123 2.351 . S
O130 C138 1.249 . S
O131 Dy120 2.326 . S
O131 C138 1.267 . S
O132 C121 1.185 . S
O132 Dy123 2.398 1_556 S
O133 C121 1.355 . S
O133 Dy123 2.491 1_556 S
O134 Dy123 2.403 . S
O134 C129 1.254 . S
O135 Dy120 2.310 . S
O135 Dy123 2.664 . S
O135 C129 1.268 . S
O136 Dy120 2.351 1_556 S
O136 C139 1.249 . S
O137 Dy123 2.326 1_556 S
O137 C139 1.267 . S
C138 O130 1.249 . S
C138 O131 1.267 . S
C139 O136 1.249 . S
C139 O137 1.267 . S
Dy140 O144 2.398 . S
Dy140 O145 2.491 . S
Dy140 O146 2.403 . S
Dy140 O147 2.664 . S
Dy140 O151 2.326 . S
Dy140 O155 2.310 . S
Dy140 O156 2.351 . S
C141 O152 1.185 . S
C141 O153 1.355 . S
C142 O144 1.185 . S
C142 O145 1.355 . S
Dy143 O147 2.310 . S
Dy143 O150 2.351 . S
Dy143 O152 2.398 . S
Dy143 O153 2.491 . S
Dy143 O154 2.403 . S
Dy143 O155 2.664 . S
Dy143 O157 2.326 . S
O144 Dy140 2.398 . S
O144 C142 1.185 . S
O145 Dy140 2.491 . S
O145 C142 1.355 . S
O146 Dy140 2.403 . S
O146 C148 1.254 . S
O147 Dy140 2.664 . S
O147 Dy143 2.310 . S
O147 C148 1.268 . S
C148 O146 1.254 . S
C148 O147 1.268 . S
C149 O154 1.254 . S
C149 O155 1.268 . S
O150 Dy143 2.351 . S
O150 C158 1.249 . S
O151 Dy140 2.326 . S
O151 C158 1.267 . S
O152 C141 1.185 . S
O152 Dy143 2.398 . S
O153 C141 1.355 . S
O153 Dy143 2.491 . S
O154 Dy143 2.403 . S
O154 C149 1.254 . S
O155 Dy140 2.310 . S
O155 Dy143 2.664 . S
O155 C149 1.268 . S
O156 Dy140 2.351 . S
O156 C159 1.249 . S
O157 Dy143 2.326 . S
O157 C159 1.267 . S
C158 O150 1.249 . S
C158 O151 1.267 . S
C159 O156 1.249 . S
C159 O157 1.267 . S
Dy160 O164 2.398 . S
Dy160 O165 2.491 . S
Dy160 O166 2.403 . S
Dy160 O167 2.664 . S
Dy160 O171 2.326 . S
Dy160 O175 2.310 . S
Dy160 O176 2.351 . S
C161 O172 1.185 . S
C161 O173 1.355 . S
C162 O164 1.185 . S
C162 O165 1.355 . S
Dy163 O167 2.310 . S
Dy163 O170 2.351 . S
Dy163 O172 2.398 1_554 S
Dy163 O173 2.491 1_554 S
Dy163 O174 2.403 . S
Dy163 O175 2.664 . S
Dy163 O177 2.326 1_554 S
O164 Dy160 2.398 . S
O164 C162 1.185 . S
O165 Dy160 2.491 . S
O165 C162 1.355 . S
O166 Dy160 2.403 . S
O166 C168 1.254 . S
O167 Dy160 2.664 . S
O167 Dy163 2.310 . S
O167 C168 1.268 . S
C168 O166 1.254 . S
C168 O167 1.268 . S
C169 O174 1.254 . S
C169 O175 1.268 . S
O170 Dy163 2.351 . S
O170 C178 1.249 . S
O171 Dy160 2.326 . S
O171 C178 1.267 . S
O172 C161 1.185 . S
O172 Dy163 2.398 1_556 S
O173 C161 1.355 . S
O173 Dy163 2.491 1_556 S
O174 Dy163 2.403 . S
O174 C169 1.254 . S
O175 Dy160 2.310 . S
O175 Dy163 2.664 . S
O175 C169 1.268 . S
O176 Dy160 2.351 . S
O176 C179 1.249 1_554 S
O177 Dy163 2.326 1_556 S
O177 C179 1.267 . S
C178 O170 1.249 . S
C178 O171 1.267 . S
C179 O176 1.249 1_556 S
C179 O177 1.267 . S
Dy180 O184 2.398 . S
Dy180 O185 2.491 . S
Dy180 O186 2.403 . S
Dy180 O187 2.664 . S
Dy180 O191 2.326 . S
Dy180 O195 2.310 . S
Dy180 O196 2.351 . S
C181 O192 1.185 . S
C181 O193 1.355 . S
C182 O184 1.185 . S
C182 O185 1.355 . S
Dy183 O187 2.310 . S
Dy183 O190 2.351 . S
Dy183 O192 2.398 . S
Dy183 O193 2.491 . S
Dy183 O194 2.403 . S
Dy183 O195 2.664 . S
Dy183 O197 2.326 . S
O184 Dy180 2.398 . S
O184 C182 1.185 . S
O185 Dy180 2.491 . S
O185 C182 1.355 . S
O186 Dy180 2.403 . S
O186 C188 1.254 . S
O187 Dy180 2.664 . S
O187 Dy183 2.310 . S
O187 C188 1.268 . S
C188 O186 1.254 . S
C188 O187 1.268 . S
C189 O194 1.254 . S
C189 O195 1.268 . S
O190 Dy183 2.351 . S
O190 C198 1.249 . S
O191 Dy180 2.326 . S
O191 C198 1.267 . S
O192 C181 1.185 . S
O192 Dy183 2.398 . S
O193 C181 1.355 . S
O193 Dy183 2.491 . S
O194 Dy183 2.403 . S
O194 C189 1.254 . S
O195 Dy180 2.310 . S
O195 Dy183 2.664 . S
O195 C189 1.268 . S
O196 Dy180 2.351 . S
O196 C199 1.249 . S
O197 Dy183 2.326 . S
O197 C199 1.267 . S
C198 O190 1.249 . S
C198 O191 1.267 . S
C199 O196 1.249 . S
C199 O197 1.267 . S
Dy200 O204 2.398 . S
Dy200 O205 2.491 . S
Dy200 O206 2.403 . S
Dy200 O207 2.664 . S
Dy200 O211 2.326 . S
Dy200 O215 2.310 . S
Dy200 O216 2.351 . S
C201 O212 1.185 . S
C201 O213 1.355 . S
C202 O204 1.185 . S
C202 O205 1.355 . S
Dy203 O207 2.310 . S
Dy203 O210 2.351 . S
Dy203 O212 2.398 . S
Dy203 O213 2.491 . S
Dy203 O214 2.403 . S
Dy203 O215 2.664 . S
Dy203 O217 2.326 . S
O204 Dy200 2.398 . S
O204 C202 1.185 . S
O205 Dy200 2.491 . S
O205 C202 1.355 . S
O206 Dy200 2.403 . S
O206 C208 1.254 . S
O207 Dy200 2.664 . S
O207 Dy203 2.310 . S
O207 C208 1.268 . S
C208 O206 1.254 . S
C208 O207 1.268 . S
C209 O214 1.254 . S
C209 O215 1.268 . S
O210 Dy203 2.351 . S
O210 C218 1.249 . S
O211 Dy200 2.326 . S
O211 C218 1.267 . S
O212 C201 1.185 . S
O212 Dy203 2.398 . S
O213 C201 1.355 . S
O213 Dy203 2.491 . S
O214 Dy203 2.403 . S
O214 C209 1.254 . S
O215 Dy200 2.310 . S
O215 Dy203 2.664 . S
O215 C209 1.268 . S
O216 Dy200 2.351 . S
O216 C219 1.249 . S
O217 Dy203 2.326 . S
O217 C219 1.267 . S
C218 O210 1.249 . S
C218 O211 1.267 . S
C219 O216 1.249 . S
C219 O217 1.267 . S
Dy220 O224 2.398 . S
Dy220 O225 2.491 . S
Dy220 O226 2.403 . S
Dy220 O227 2.664 . S
Dy220 O231 2.326 . S
Dy220 O235 2.310 . S
Dy220 O236 2.351 . S
C221 O232 1.185 . S
C221 O233 1.355 . S
C222 O224 1.185 . S
C222 O225 1.355 . S
Dy223 O227 2.310 . S
Dy223 O230 2.351 . S
Dy223 O232 2.398 . S
Dy223 O233 2.491 . S
Dy223 O234 2.403 . S
Dy223 O235 2.664 . S
Dy223 O237 2.326 . S
O224 Dy220 2.398 . S
O224 C222 1.185 . S
O225 Dy220 2.491 . S
O225 C222 1.355 . S
O226 Dy220 2.403 . S
O226 C228 1.254 . S
O227 Dy220 2.664 . S
O227 Dy223 2.310 . S
O227 C228 1.268 . S
C228 O226 1.254 . S
C228 O227 1.268 . S
C229 O234 1.254 . S
C229 O235 1.268 . S
O230 Dy223 2.351 . S
O230 C238 1.249 . S
O231 Dy220 2.326 . S
O231 C238 1.267 . S
O232 C221 1.185 . S
O232 Dy223 2.398 . S
O233 C221 1.355 . S
O233 Dy223 2.491 . S
O234 Dy223 2.403 . S
O234 C229 1.254 . S
O235 Dy220 2.310 . S
O235 Dy223 2.664 . S
O235 C229 1.268 . S
O236 Dy220 2.351 . S
O236 C239 1.249 . S
O237 Dy223 2.326 . S
O237 C239 1.267 . S
C238 O230 1.249 . S
C238 O231 1.267 . S
C239 O236 1.249 . S
C239 O237 1.267 . S
Dy240 O244 2.398 . S
Dy240 O245 2.491 . S
Dy240 O246 2.403 . S
Dy240 O247 2.664 . S
Dy240 O251 2.326 . S
Dy240 O255 2.310 . S
Dy240 O256 2.351 . S
C241 O252 1.185 . S
C241 O253 1.355 . S
C242 O244 1.185 . S
C242 O245 1.355 . S
Dy243 O247 2.310 . S
Dy243 O250 2.351 . S
Dy243 O252 2.398 . S
Dy243 O253 2.491 . S
Dy243 O254 2.403 . S
Dy243 O255 2.664 . S
Dy243 O257 2.326 . S
O244 Dy240 2.398 . S
O244 C242 1.185 . S
O245 Dy240 2.491 . S
O245 C242 1.355 . S
O246 Dy240 2.403 . S
O246 C248 1.254 . S
O247 Dy240 2.664 . S
O247 Dy243 2.310 . S
O247 C248 1.268 . S
C248 O246 1.254 . S
C248 O247 1.268 . S
C249 O254 1.254 . S
C249 O255 1.268 . S
O250 Dy243 2.351 . S
O250 C258 1.249 . S
O251 Dy240 2.326 . S
O251 C258 1.267 . S
O252 C241 1.185 . S
O252 Dy243 2.398 . S
O253 C241 1.355 . S
O253 Dy243 2.491 . S
O254 Dy243 2.403 . S
O254 C249 1.254 . S
O255 Dy240 2.310 . S
O255 Dy243 2.664 . S
O255 C249 1.268 . S
O256 Dy240 2.351 . S
O256 C259 1.249 . S
O257 Dy243 2.326 . S
O257 C259 1.267 . S
C258 O250 1.249 . S
C258 O251 1.267 . S
C259 O256 1.249 . S
C259 O257 1.267 . S
Dy260 O264 2.398 . S
Dy260 O265 2.491 . S
Dy260 O266 2.403 . S
Dy260 O267 2.664 . S
Dy260 O271 2.326 . S
Dy260 O275 2.310 . S
Dy260 O276 2.351 . S
C261 O272 1.185 . S
C261 O273 1.355 . S
C262 O264 1.185 . S
C262 O265 1.355 . S
Dy263 O267 2.310 . S
Dy263 O270 2.351 . S
Dy263 O272 2.398 . S
Dy263 O273 2.491 . S
Dy263 O274 2.403 . S
Dy263 O275 2.664 . S
Dy263 O277 2.326 . S
O264 Dy260 2.398 . S
O264 C262 1.185 . S
O265 Dy260 2.491 . S
O265 C262 1.355 . S
O266 Dy260 2.403 . S
O266 C268 1.254 . S
O267 Dy260 2.664 . S
O267 Dy263 2.310 . S
O267 C268 1.268 . S
C268 O266 1.254 . S
C268 O267 1.268 . S
C269 O274 1.254 . S
C269 O275 1.268 . S
O270 Dy263 2.351 . S
O270 C278 1.249 . S
O271 Dy260 2.326 . S
O271 C278 1.267 . S
O272 C261 1.185 . S
O272 Dy263 2.398 . S
O273 C261 1.355 . S
O273 Dy263 2.491 . S
O274 Dy263 2.403 . S
O274 C269 1.254 . S
O275 Dy260 2.310 . S
O275 Dy263 2.664 . S
O275 C269 1.268 . S
O276 Dy260 2.351 . S
O276 C279 1.249 . S
O277 Dy263 2.326 . S
O277 C279 1.267 . S
C278 O270 1.249 . S
C278 O271 1.267 . S
C279 O276 1.249 . S
C279 O277 1.267 . S
Dy280 O284 2.398 . S
Dy280 O285 2.491 . S
Dy280 O286 2.403 . S
Dy280 O287 2.664 . S
Dy280 O291 2.326 . S
Dy280 O295 2.310 . S
Dy280 O296 2.351 1_554 S
C281 O292 1.185 . S
C281 O293 1.355 . S
C282 O284 1.185 . S
C282 O285 1.355 . S
Dy283 O287 2.310 . S
Dy283 O290 2.351 . S
Dy283 O292 2.398 1_554 S
Dy283 O293 2.491 1_554 S
Dy283 O294 2.403 . S
Dy283 O295 2.664 . S
Dy283 O297 2.326 1_554 S
O284 Dy280 2.398 . S
O284 C282 1.185 . S
O285 Dy280 2.491 . S
O285 C282 1.355 . S
O286 Dy280 2.403 . S
O286 C288 1.254 . S
O287 Dy280 2.664 . S
O287 Dy283 2.310 . S
O287 C288 1.268 . S
C288 O286 1.254 . S
C288 O287 1.268 . S
C289 O294 1.254 . S
C289 O295 1.268 . S
O290 Dy283 2.351 . S
O290 C298 1.249 . S
O291 Dy280 2.326 . S
O291 C298 1.267 . S
O292 C281 1.185 . S
O292 Dy283 2.398 1_556 S
O293 C281 1.355 . S
O293 Dy283 2.491 1_556 S
O294 Dy283 2.403 . S
O294 C289 1.254 . S
O295 Dy280 2.310 . S
O295 Dy283 2.664 . S
O295 C289 1.268 . S
O296 Dy280 2.351 1_556 S
O296 C299 1.249 . S
O297 Dy283 2.326 1_556 S
O297 C299 1.267 . S
C298 O290 1.249 . S
C298 O291 1.267 . S
C299 O296 1.249 . S
C299 O297 1.267 . S
Dy300 O304 2.398 . S
Dy300 O305 2.491 . S
Dy300 O306 2.403 . S
Dy300 O307 2.664 . S
Dy300 O311 2.326 . S
Dy300 O315 2.310 . S
Dy300 O316 2.351 . S
C301 O312 1.185 . S
C301 O313 1.355 . S
C302 O304 1.185 . S
C302 O305 1.355 . S
Dy303 O307 2.310 . S
Dy303 O310 2.351 . S
Dy303 O312 2.398 . S
Dy303 O313 2.491 . S
Dy303 O314 2.403 . S
Dy303 O315 2.664 . S
Dy303 O317 2.326 . S
O304 Dy300 2.398 . S
O304 C302 1.185 . S
O305 Dy300 2.491 . S
O305 C302 1.355 . S
O306 Dy300 2.403 . S
O306 C308 1.254 . S
O307 Dy300 2.664 . S
O307 Dy303 2.310 . S
O307 C308 1.268 . S
C308 O306 1.254 . S
C308 O307 1.268 . S
C309 O314 1.254 . S
C309 O315 1.268 . S
O310 Dy303 2.351 . S
O310 C318 1.249 . S
O311 Dy300 2.326 . S
O311 C318 1.267 . S
O312 C301 1.185 . S
O312 Dy303 2.398 . S
O313 C301 1.355 . S
O313 Dy303 2.491 . S
O314 Dy303 2.403 . S
O314 C309 1.254 . S
O315 Dy300 2.310 . S
O315 Dy303 2.664 . S
O315 C309 1.268 . S
O316 Dy300 2.351 . S
O316 C319 1.249 . S
O317 Dy303 2.326 . S
O317 C319 1.267 . S
C318 O310 1.249 . S
C318 O311 1.267 . S
C319 O316 1.249 . S
C319 O317 1.267 . S
Dy320 O324 2.398 . S
Dy320 O325 2.491 . S
Dy320 O326 2.403 . S
Dy320 O327 2.664 . S
Dy320 O331 2.326 . S
Dy320 O335 2.310 . S
Dy320 O336 2.351 . S
C321 O332 1.185 . S
C321 O333 1.355 . S
C322 O324 1.185 . S
C322 O325 1.355 . S
Dy323 O327 2.310 . S
Dy323 O330 2.351 . S
Dy323 O332 2.398 . S
Dy323 O333 2.491 . S
Dy323 O334 2.403 . S
Dy323 O335 2.664 . S
Dy323 O337 2.326 . S
O324 Dy320 2.398 . S
O324 C322 1.185 . S
O325 Dy320 2.491 . S
O325 C322 1.355 . S
O326 Dy320 2.403 . S
O326 C328 1.254 . S
O327 Dy320 2.664 . S
O327 Dy323 2.310 . S
O327 C328 1.268 . S
C328 O326 1.254 . S
C328 O327 1.268 . S
C329 O334 1.254 . S
C329 O335 1.268 . S
O330 Dy323 2.351 . S
O330 C338 1.249 . S
O331 Dy320 2.326 . S
O331 C338 1.267 . S
O332 C321 1.185 . S
O332 Dy323 2.398 . S
O333 C321 1.355 . S
O333 Dy323 2.491 . S
O334 Dy323 2.403 . S
O334 C329 1.254 . S
O335 Dy320 2.310 . S
O335 Dy323 2.664 . S
O335 C329 1.268 . S
O336 Dy320 2.351 . S
O336 C339 1.249 . S
O337 Dy323 2.326 . S
O337 C339 1.267 . S
C338 O330 1.249 . S
C338 O331 1.267 . S
C339 O336 1.249 . S
C339 O337 1.267 . S
Dy340 O344 2.398 . S
Dy340 O345 2.491 . S
Dy340 O346 2.403 . S
Dy340 O347 2.664 . S
Dy340 O351 2.326 . S
Dy340 O355 2.310 . S
Dy340 O356 2.351 . S
C341 O352 1.185 . S
C341 O353 1.355 . S
C342 O344 1.185 . S
C342 O345 1.355 . S
Dy343 O347 2.310 . S
Dy343 O350 2.351 . S
Dy343 O352 2.398 . S
Dy343 O353 2.491 . S
Dy343 O354 2.403 . S
Dy343 O355 2.664 . S
Dy343 O357 2.326 . S
O344 Dy340 2.398 . S
O344 C342 1.185 . S
O345 Dy340 2.491 . S
O345 C342 1.355 . S
O346 Dy340 2.403 . S
O346 C348 1.254 . S
O347 Dy340 2.664 . S
O347 Dy343 2.310 . S
O347 C348 1.268 . S
C348 O346 1.254 . S
C348 O347 1.268 . S
C349 O354 1.254 . S
C349 O355 1.268 . S
O350 Dy343 2.351 . S
O350 C358 1.249 . S
O351 Dy340 2.326 . S
O351 C358 1.267 . S
O352 C341 1.185 . S
O352 Dy343 2.398 . S
O353 C341 1.355 . S
O353 Dy343 2.491 . S
O354 Dy343 2.403 . S
O354 C349 1.254 . S
O355 Dy340 2.310 . S
O355 Dy343 2.664 . S
O355 C349 1.268 . S
O356 Dy340 2.351 . S
O356 C359 1.249 . S
O357 Dy343 2.326 . S
O357 C359 1.267 . S
C358 O350 1.249 . S
C358 O351 1.267 . S
C359 O356 1.249 . S
C359 O357 1.267 . S
Dy360 O364 2.398 1_554 S
Dy360 O365 2.491 1_554 S
Dy360 O366 2.403 . S
Dy360 O367 2.664 . S
Dy360 O371 2.326 1_554 S
Dy360 O375 2.310 . S
Dy360 O376 2.351 . S
C361 O372 1.185 . S
C361 O373 1.355 . S
C362 O364 1.185 . S
C362 O365 1.355 . S
Dy363 O367 2.310 . S
Dy363 O370 2.351 1_554 S
Dy363 O372 2.398 . S
Dy363 O373 2.491 . S
Dy363 O374 2.403 . S
Dy363 O375 2.664 . S
Dy363 O377 2.326 . S
O364 Dy360 2.398 1_556 S
O364 C362 1.185 . S
O365 Dy360 2.491 1_556 S
O365 C362 1.355 . S
O366 Dy360 2.403 . S
O366 C368 1.254 . S
O367 Dy360 2.664 . S
O367 Dy363 2.310 . S
O367 C368 1.268 . S
C368 O366 1.254 . S
C368 O367 1.268 . S
C369 O374 1.254 . S
C369 O375 1.268 . S
O370 Dy363 2.351 1_556 S
O370 C378 1.249 . S
O371 Dy360 2.326 1_556 S
O371 C378 1.267 . S
O372 C361 1.185 . S
O372 Dy363 2.398 . S
O373 C361 1.355 . S
O373 Dy363 2.491 . S
O374 Dy363 2.403 . S
O374 C369 1.254 . S
O375 Dy360 2.310 . S
O375 Dy363 2.664 . S
O375 C369 1.268 . S
O376 Dy360 2.351 . S
O376 C379 1.249 . S
O377 Dy363 2.326 . S
O377 C379 1.267 . S
C378 O370 1.249 . S
C378 O371 1.267 . S
C379 O376 1.249 . S
C379 O377 1.267 . S
Dy380 O384 2.398 . S
Dy380 O385 2.491 . S
Dy380 O386 2.403 . S
Dy380 O387 2.664 . S
Dy380 O391 2.326 . S
Dy380 O395 2.310 . S
Dy380 O396 2.351 . S
C381 O392 1.185 . S
C381 O393 1.355 . S
C382 O384 1.185 . S
C382 O385 1.355 . S
Dy383 O387 2.310 . S
Dy383 O390 2.351 . S
Dy383 O392 2.398 . S
Dy383 O393 2.491 . S
Dy383 O394 2.403 . S
Dy383 O395 2.664 . S
Dy383 O397 2.326 . S
O384 Dy380 2.398 . S
O384 C382 1.185 . S
O385 Dy380 2.491 . S
O385 C382 1.355 . S
O386 Dy380 2.403 . S
O386 C388 1.254 . S
O387 Dy380 2.664 . S
O387 Dy383 2.310 . S
O387 C388 1.268 . S
C388 O386 1.254 . S
C388 O387 1.268 . S
C389 O394 1.254 . S
C389 O395 1.268 . S
O390 Dy383 2.351 . S
O390 C398 1.249 . S
O391 Dy380 2.326 . S
O391 C398 1.267 . S
O392 C381 1.185 . S
O392 Dy383 2.398 . S
O393 C381 1.355 . S
O393 Dy383 2.491 . S
O394 Dy383 2.403 . S
O394 C389 1.254 . S
O395 Dy380 2.310 . S
O395 Dy383 2.664 . S
O395 C389 1.268 . S
O396 Dy380 2.351 . S
O396 C399 1.249 . S
O397 Dy383 2.326 . S
O397 C399 1.267 . S
C398 O390 1.249 . S
C398 O391 1.267 . S
C399 O396 1.249 . S
C399 O397 1.267 . S
Dy400 O404 2.398 . S
Dy400 O405 2.491 . S
Dy400 O406 2.403 . S
Dy400 O407 2.664 1_554 S
Dy400 O411 2.326 . S
Dy400 O415 2.310 . S
Dy400 O416 2.351 1_554 S
C401 O412 1.185 1_545 S
C401 O413 1.355 . S
C402 O404 1.185 . S
C402 O405 1.355 . S
Dy403 O407 2.310 . S
Dy403 O410 2.351 1_556 S
Dy403 O412 2.398 1_545 S
Dy403 O413 2.491 . S
Dy403 O414 2.403 1_545 S
Dy403 O415 2.664 1_556 S
Dy403 O417 2.326 . S
O404 Dy400 2.398 . S
O404 C402 1.185 . S
O405 Dy400 2.491 . S
O405 C402 1.355 . S
O406 Dy400 2.403 . S
O406 C408 1.254 1_554 S
O407 Dy400 2.664 1_556 S
O407 Dy403 2.310 . S
O407 C408 1.268 . S
C408 O406 1.254 1_556 S
C408 O407 1.268 . S
C409 O414 1.254 1_544 S
C409 O415 1.268 . S
O410 Dy403 2.351 1_554 S
O410 C418 1.249 . S
O411 Dy400 2.326 . S
O411 C418 1.267 . S
O412 C401 1.185 1_565 S
O412 Dy403 2.398 1_565 S
O413 C401 1.355 . S
O413 Dy403 2.491 . S
O414 Dy403 2.403 1_565 S
O414 C409 1.254 1_566 S
O415 Dy400 2.310 . S
O415 Dy403 2.664 1_554 S
O415 C409 1.268 . S
O416 Dy400 2.351 1_556 S
O416 C419 1.249 . S
O417 Dy403 2.326 . S
O417 C419 1.267 . S
C418 O410 1.249 . S
C418 O411 1.267 . S
C419 O416 1.249 . S
C419 O417 1.267 . S
Dy420 O424 2.398 . S
Dy420 O425 2.491 . S
Dy420 O426 2.403 . S
Dy420 O427 2.664 . S
Dy420 O431 2.326 . S
Dy420 O435 2.310 . S
Dy420 O436 2.351 . S
C421 O432 1.185 . S
C421 O433 1.355 . S
C422 O424 1.185 . S
C422 O425 1.355 . S
Dy423 O427 2.310 . S
Dy423 O430 2.351 . S
Dy423 O432 2.398 . S
Dy423 O433 2.491 . S
Dy423 O434 2.403 . S
Dy423 O435 2.664 . S
Dy423 O437 2.326 . S
O424 Dy420 2.398 . S
O424 C422 1.185 . S
O425 Dy420 2.491 . S
O425 C422 1.355 . S
O426 Dy420 2.403 . S
O426 C428 1.254 . S
O427 Dy420 2.664 . S
O427 Dy423 2.310 . S
O427 C428 1.268 . S
C428 O426 1.254 . S
C428 O427 1.268 . S
C429 O434 1.254 . S
C429 O435 1.268 . S
O430 Dy423 2.351 . S
O430 C438 1.249 . S
O431 Dy420 2.326 . S
O431 C438 1.267 . S
O432 C421 1.185 . S
O432 Dy423 2.398 . S
O433 C421 1.355 . S
O433 Dy423 2.491 . S
O434 Dy423 2.403 . S
O434 C429 1.254 . S
O435 Dy420 2.310 . S
O435 Dy423 2.664 . S
O435 C429 1.268 . S
O436 Dy420 2.351 . S
O436 C439 1.249 . S
O437 Dy423 2.326 . S
O437 C439 1.267 . S
C438 O430 1.249 . S
C438 O431 1.267 . S
C439 O436 1.249 . S
C439 O437 1.267 . S
Dy440 O444 2.398 . S
Dy440 O445 2.491 . S
Dy440 O446 2.403 . S
Dy440 O447 2.664 . S
Dy440 O451 2.326 . S
Dy440 O455 2.310 . S
Dy440 O456 2.351 . S
C441 O452 1.185 . S
C441 O453 1.355 . S
C442 O444 1.185 . S
C442 O445 1.355 . S
Dy443 O447 2.310 . S
Dy443 O450 2.351 . S
Dy443 O452 2.398 . S
Dy443 O453 2.491 . S
Dy443 O454 2.403 . S
Dy443 O455 2.664 . S
Dy443 O457 2.326 . S
O444 Dy440 2.398 . S
O444 C442 1.185 . S
O445 Dy440 2.491 . S
O445 C442 1.355 . S
O446 Dy440 2.403 . S
O446 C448 1.254 . S
O447 Dy440 2.664 . S
O447 Dy443 2.310 . S
O447 C448 1.268 . S
C448 O446 1.254 . S
C448 O447 1.268 . S
C449 O454 1.254 . S
C449 O455 1.268 . S
O450 Dy443 2.351 . S
O450 C458 1.249 . S
O451 Dy440 2.326 . S
O451 C458 1.267 . S
O452 C441 1.185 . S
O452 Dy443 2.398 . S
O453 C441 1.355 . S
O453 Dy443 2.491 . S
O454 Dy443 2.403 . S
O454 C449 1.254 . S
O455 Dy440 2.310 . S
O455 Dy443 2.664 . S
O455 C449 1.268 . S
O456 Dy440 2.351 . S
O456 C459 1.249 . S
O457 Dy443 2.326 . S
O457 C459 1.267 . S
C458 O450 1.249 . S
C458 O451 1.267 . S
C459 O456 1.249 . S
C459 O457 1.267 . S
Dy460 O464 2.398 . S
Dy460 O465 2.491 . S
Dy460 O466 2.403 . S
Dy460 O467 2.664 . S
Dy460 O471 2.326 . S
Dy460 O475 2.310 . S
Dy460 O476 2.351 . S
C461 O472 1.185 . S
C461 O473 1.355 . S
C462 O464 1.185 . S
C462 O465 1.355 . S
Dy463 O467 2.310 . S
Dy463 O470 2.351 . S
Dy463 O472 2.398 . S
Dy463 O473 2.491 . S
Dy463 O474 2.403 . S
Dy463 O475 2.664 . S
Dy463 O477 2.326 . S
O464 Dy460 2.398 . S
O464 C462 1.185 . S
O465 Dy460 2.491 . S
O465 C462 1.355 . S
O466 Dy460 2.403 . S
O466 C468 1.254 . S
O467 Dy460 2.664 . S
O467 Dy463 2.310 . S
O467 C468 1.268 . S
C468 O466 1.254 . S
C468 O467 1.268 . S
C469 O474 1.254 . S
C469 O475 1.268 . S
O470 Dy463 2.351 . S
O470 C478 1.249 . S
O471 Dy460 2.326 . S
O471 C478 1.267 . S
O472 C461 1.185 . S
O472 Dy463 2.398 . S
O473 C461 1.355 . S
O473 Dy463 2.491 . S
O474 Dy463 2.403 . S
O474 C469 1.254 . S
O475 Dy460 2.310 . S
O475 Dy463 2.664 . S
O475 C469 1.268 . S
O476 Dy460 2.351 . S
O476 C479 1.249 . S
O477 Dy463 2.326 . S
O477 C479 1.267 . S
C478 O470 1.249 . S
C478 O471 1.267 . S
C479 O476 1.249 . S
C479 O477 1.267 . S
Dy480 O484 2.398 . S
Dy480 O485 2.491 . S
Dy480 O486 2.403 . S
Dy480 O487 2.664 . S
Dy480 O491 2.326 . S
Dy480 O495 2.310 . S
Dy480 O496 2.351 . S
C481 O492 1.185 . S
C481 O493 1.355 . S
C482 O484 1.185 . S
C482 O485 1.355 . S
Dy483 O487 2.310 . S
Dy483 O490 2.351 . S
Dy483 O492 2.398 . S
Dy483 O493 2.491 . S
Dy483 O494 2.403 . S
Dy483 O495 2.664 . S
Dy483 O497 2.326 . S
O484 Dy480 2.398 . S
O484 C482 1.185 . S
O485 Dy480 2.491 . S
O485 C482 1.355 . S
O486 Dy480 2.403 . S
O486 C488 1.254 . S
O487 Dy480 2.664 . S
O487 Dy483 2.310 . S
O487 C488 1.268 . S
C488 O486 1.254 . S
C488 O487 1.268 . S
C489 O494 1.254 . S
C489 O495 1.268 . S
O490 Dy483 2.351 . S
O490 C498 1.249 . S
O491 Dy480 2.326 . S
O491 C498 1.267 . S
O492 C481 1.185 . S
O492 Dy483 2.398 . S
O493 C481 1.355 . S
O493 Dy483 2.491 . S
O494 Dy483 2.403 . S
O494 C489 1.254 . S
O495 Dy480 2.310 . S
O495 Dy483 2.664 . S
O495 C489 1.268 . S
O496 Dy480 2.351 . S
O496 C499 1.249 . S
O497 Dy483 2.326 . S
O497 C499 1.267 . S
C498 O490 1.249 . S
C498 O491 1.267 . S
C499 O496 1.249 . S
C499 O497 1.267 . S
Dy500 O504 2.398 . S
Dy500 O505 2.491 . S
Dy500 O506 2.403 . S
Dy500 O507 2.664 . S
Dy500 O511 2.326 . S
Dy500 O515 2.310 . S
Dy500 O516 2.351 . S
C501 O512 1.185 . S
C501 O513 1.355 . S
C502 O504 1.185 . S
C502 O505 1.355 . S
Dy503 O507 2.310 . S
Dy503 O510 2.351 . S
Dy503 O512 2.398 . S
Dy503 O513 2.491 . S
Dy503 O514 2.403 . S
Dy503 O515 2.664 . S
Dy503 O517 2.326 . S
O504 Dy500 2.398 . S
O504 C502 1.185 . S
O505 Dy500 2.491 . S
O505 C502 1.355 . S
O506 Dy500 2.403 . S
O506 C508 1.254 . S
O507 Dy500 2.664 . S
O507 Dy503 2.310 . S
O507 C508 1.268 . S
C508 O506 1.254 . S
C508 O507 1.268 . S
C509 O514 1.254 . S
C509 O515 1.268 . S
O510 Dy503 2.351 . S
O510 C518 1.249 . S
O511 Dy500 2.326 . S
O511 C518 1.267 . S
O512 C501 1.185 . S
O512 Dy503 2.398 . S
O513 C501 1.355 . S
O513 Dy503 2.491 . S
O514 Dy503 2.403 . S
O514 C509 1.254 . S
O515 Dy500 2.310 . S
O515 Dy503 2.664 . S
O515 C509 1.268 . S
O516 Dy500 2.351 . S
O516 C519 1.249 . S
O517 Dy503 2.326 . S
O517 C519 1.267 . S
C518 O510 1.249 . S
C518 O511 1.267 . S
C519 O516 1.249 . S
C519 O517 1.267 . S
Dy520 O524 2.398 1_554 S
Dy520 O525 2.491 1_554 S
Dy520 O526 2.403 . S
Dy520 O527 2.664 . S
Dy520 O531 2.326 1_554 S
Dy520 O535 2.310 . S
Dy520 O536 2.351 . S
C521 O532 1.185 . S
C521 O533 1.355 . S
C522 O524 1.185 . S
C522 O525 1.355 . S
Dy523 O527 2.310 . S
Dy523 O530 2.351 1_554 S
Dy523 O532 2.398 . S
Dy523 O533 2.491 . S
Dy523 O534 2.403 . S
Dy523 O535 2.664 . S
Dy523 O537 2.326 . S
O524 Dy520 2.398 1_556 S
O524 C522 1.185 . S
O525 Dy520 2.491 1_556 S
O525 C522 1.355 . S
O526 Dy520 2.403 . S
O526 C528 1.254 . S
O527 Dy520 2.664 . S
O527 Dy523 2.310 . S
O527 C528 1.268 . S
C528 O526 1.254 . S
C528 O527 1.268 . S
C529 O534 1.254 . S
C529 O535 1.268 . S
O530 Dy523 2.351 1_556 S
O530 C538 1.249 . S
O531 Dy520 2.326 1_556 S
O531 C538 1.267 . S
O532 C521 1.185 . S
O532 Dy523 2.398 . S
O533 C521 1.355 . S
O533 Dy523 2.491 . S
O534 Dy523 2.403 . S
O534 C529 1.254 . S
O535 Dy520 2.310 . S
O535 Dy523 2.664 . S
O535 C529 1.268 . S
O536 Dy520 2.351 . S
O536 C539 1.249 . S
O537 Dy523 2.326 . S
O537 C539 1.267 . S
C538 O530 1.249 . S
C538 O531 1.267 . S
C539 O536 1.249 . S
C539 O537 1.267 . S
Dy540 O544 2.398 . S
Dy540 O545 2.491 . S
Dy540 O546 2.403 . S
Dy540 O547 2.664 . S
Dy540 O551 2.326 . S
Dy540 O555 2.310 . S
Dy540 O556 2.351 . S
C541 O552 1.185 . S
C541 O553 1.355 . S
C542 O544 1.185 . S
C542 O545 1.355 . S
Dy543 O547 2.310 . S
Dy543 O550 2.351 . S
Dy543 O552 2.398 . S
Dy543 O553 2.491 . S
Dy543 O554 2.403 . S
Dy543 O555 2.664 . S
Dy543 O557 2.326 . S
O544 Dy540 2.398 . S
O544 C542 1.185 . S
O545 Dy540 2.491 . S
O545 C542 1.355 . S
O546 Dy540 2.403 . S
O546 C548 1.254 . S
O547 Dy540 2.664 . S
O547 Dy543 2.310 . S
O547 C548 1.268 . S
C548 O546 1.254 . S
C548 O547 1.268 . S
C549 O554 1.254 . S
C549 O555 1.268 . S
O550 Dy543 2.351 . S
O550 C558 1.249 . S
O551 Dy540 2.326 . S
O551 C558 1.267 . S
O552 C541 1.185 . S
O552 Dy543 2.398 . S
O553 C541 1.355 . S
O553 Dy543 2.491 . S
O554 Dy543 2.403 . S
O554 C549 1.254 . S
O555 Dy540 2.310 . S
O555 Dy543 2.664 . S
O555 C549 1.268 . S
O556 Dy540 2.351 . S
O556 C559 1.249 . S
O557 Dy543 2.326 . S
O557 C559 1.267 . S
C558 O550 1.249 . S
C558 O551 1.267 . S
C559 O556 1.249 . S
C559 O557 1.267 . S
Dy560 O564 2.398 1_565 S
Dy560 O565 2.491 . S
Dy560 O566 2.403 1_565 S
Dy560 O567 2.664 . S
Dy560 O571 2.326 . S
Dy560 O575 2.310 . S
Dy560 O576 2.351 . S
C561 O572 1.185 . S
C561 O573 1.355 . S
C562 O564 1.185 1_565 S
C562 O565 1.355 . S
Dy563 O567 2.310 . S
Dy563 O570 2.351 . S
Dy563 O572 2.398 1_554 S
Dy563 O573 2.491 1_554 S
Dy563 O574 2.403 . S
Dy563 O575 2.664 . S
Dy563 O577 2.326 . S
O564 Dy560 2.398 1_545 S
O564 C562 1.185 1_545 S
O565 Dy560 2.491 . S
O565 C562 1.355 . S
O566 Dy560 2.403 1_545 S
O566 C568 1.254 1_545 S
O567 Dy560 2.664 . S
O567 Dy563 2.310 . S
O567 C568 1.268 . S
C568 O566 1.254 1_565 S
C568 O567 1.268 . S
C569 O574 1.254 . S
C569 O575 1.268 . S
O570 Dy563 2.351 . S
O570 C578 1.249 . S
O571 Dy560 2.326 . S
O571 C578 1.267 . S
O572 C561 1.185 . S
O572 Dy563 2.398 1_556 S
O573 C561 1.355 . S
O573 Dy563 2.491 1_556 S
O574 Dy563 2.403 . S
O574 C569 1.254 . S
O575 Dy560 2.310 . S
O575 Dy563 2.664 . S
O575 C569 1.268 . S
O576 Dy560 2.351 . S
O576 C579 1.249 . S
O577 Dy563 2.326 . S
O577 C579 1.267 . S
C578 O570 1.249 . S
C578 O571 1.267 . S
C579 O576 1.249 . S
C579 O577 1.267 . S
Dy580 O584 2.398 . S
Dy580 O585 2.491 1_556 S
Dy580 O586 2.403 . S
Dy580 O587 2.664 . S
Dy580 O591 2.326 . S
Dy580 O595 2.310 . S
Dy580 O596 2.351 . S
C581 O592 1.185 . S
C581 O593 1.355 . S
C582 O584 1.185 1_554 S
C582 O585 1.355 . S
Dy583 O587 2.310 . S
Dy583 O590 2.351 . S
Dy583 O592 2.398 . S
Dy583 O593 2.491 . S
Dy583 O594 2.403 . S
Dy583 O595 2.664 . S
Dy583 O597 2.326 . S
O584 Dy580 2.398 . S
O584 C582 1.185 1_556 S
O585 Dy580 2.491 1_554 S
O585 C582 1.355 . S
O586 Dy580 2.403 . S
O586 C588 1.254 . S
O587 Dy580 2.664 . S
O587 Dy583 2.310 . S
O587 C588 1.268 . S
C588 O586 1.254 . S
C588 O587 1.268 . S
C589 O594 1.254 . S
C589 O595 1.268 . S
O590 Dy583 2.351 . S
O590 C598 1.249 . S
O591 Dy580 2.326 . S
O591 C598 1.267 . S
O592 C581 1.185 . S
O592 Dy583 2.398 . S
O593 C581 1.355 . S
O593 Dy583 2.491 . S
O594 Dy583 2.403 . S
O594 C589 1.254 . S
O595 Dy580 2.310 . S
O595 Dy583 2.664 . S
O595 C589 1.268 . S
O596 Dy580 2.351 . S
O596 C599 1.249 . S
O597 Dy583 2.326 . S
O597 C599 1.267 . S
C598 O590 1.249 . S
C598 O591 1.267 . S
C599 O596 1.249 . S
C599 O597 1.267 . S
Dy600 O604 2.398 . S
Dy600 O605 2.491 . S
Dy600 O606 2.403 . S
Dy600 O607 2.664 . S
Dy600 O611 2.326 . S
Dy600 O615 2.310 . S
Dy600 O616 2.351 . S
C601 O612 1.185 . S
C601 O613 1.355 . S
C602 O604 1.185 . S
C602 O605 1.355 . S
Dy603 O607 2.310 . S
Dy603 O610 2.351 . S
Dy603 O612 2.398 . S
Dy603 O613 2.491 . S
Dy603 O614 2.403 . S
Dy603 O615 2.664 . S
Dy603 O617 2.326 . S
O604 Dy600 2.398 . S
O604 C602 1.185 . S
O605 Dy600 2.491 . S
O605 C602 1.355 . S
O606 Dy600 2.403 . S
O606 C608 1.254 . S
O607 Dy600 2.664 . S
O607 Dy603 2.310 . S
O607 C608 1.268 . S
C608 O606 1.254 . S
C608 O607 1.268 . S
C609 O614 1.254 . S
C609 O615 1.268 . S
O610 Dy603 2.351 . S
O610 C618 1.249 . S
O611 Dy600 2.326 . S
O611 C618 1.267 . S
O612 C601 1.185 . S
O612 Dy603 2.398 . S
O613 C601 1.355 . S
O613 Dy603 2.491 . S
O614 Dy603 2.403 . S
O614 C609 1.254 . S
O615 Dy600 2.310 . S
O615 Dy603 2.664 . S
O615 C609 1.268 . S
O616 Dy600 2.351 . S
O616 C619 1.249 . S
O617 Dy603 2.326 . S
O617 C619 1.267 . S
C618 O610 1.249 . S
C618 O611 1.267 . S
C619 O616 1.249 . S
C619 O617 1.267 . S
Dy620 O624 2.398 . S
Dy620 O625 2.491 . S
Dy620 O626 2.403 . S
Dy620 O627 2.664 . S
Dy620 O631 2.326 . S
Dy620 O635 2.310 . S
Dy620 O636 2.351 . S
C621 O632 1.185 . S
C621 O633 1.355 . S
C622 O624 1.185 . S
C622 O625 1.355 . S
Dy623 O627 2.310 . S
Dy623 O630 2.351 . S
Dy623 O632 2.398 . S
Dy623 O633 2.491 . S
Dy623 O634 2.403 . S
Dy623 O635 2.664 . S
Dy623 O637 2.326 . S
O624 Dy620 2.398 . S
O624 C622 1.185 . S
O625 Dy620 2.491 . S
O625 C622 1.355 . S
O626 Dy620 2.403 . S
O626 C628 1.254 . S
O627 Dy620 2.664 . S
O627 Dy623 2.310 . S
O627 C628 1.268 . S
C628 O626 1.254 . S
C628 O627 1.268 . S
C629 O634 1.254 . S
C629 O635 1.268 . S
O630 Dy623 2.351 . S
O630 C638 1.249 . S
O631 Dy620 2.326 . S
O631 C638 1.267 . S
O632 C621 1.185 . S
O632 Dy623 2.398 . S
O633 C621 1.355 . S
O633 Dy623 2.491 . S
O634 Dy623 2.403 . S
O634 C629 1.254 . S
O635 Dy620 2.310 . S
O635 Dy623 2.664 . S
O635 C629 1.268 . S
O636 Dy620 2.351 . S
O636 C639 1.249 . S
O637 Dy623 2.326 . S
O637 C639 1.267 . S
C638 O630 1.249 . S
C638 O631 1.267 . S
C639 O636 1.249 . S
C639 O637 1.267 . S
C640 C641 1.387 . S
C640 H644 0.950 . S
C640 C649 1.390 . S
C641 C640 1.387 . S
C641 C643 1.387 . S
H642 C649 0.950 . S
C643 C641 1.387 . S
C643 C645 1.390 . S
C643 H647 0.950 . S
H644 C640 0.950 . S
C645 C643 1.390 . S
C645 C646 1.387 . S
C645 H648 0.950 . S
C646 C645 1.387 . S
C646 C649 1.387 . S
H647 C643 0.950 . S
H648 C645 0.950 . S
C649 C640 1.390 . S
C649 H642 0.950 . S
C649 C646 1.387 . S
C650 C651 1.387 . S
C650 H654 0.950 . S
C650 C659 1.390 . S
C651 C650 1.387 . S
C651 C653 1.387 . S
H652 C659 0.950 . S
C653 C651 1.387 . S
C653 C655 1.390 . S
C653 H657 0.950 . S
H654 C650 0.950 . S
C655 C653 1.390 . S
C655 C656 1.387 . S
C655 H658 0.950 . S
C656 C655 1.387 . S
C656 C659 1.387 . S
H657 C653 0.950 . S
H658 C655 0.950 . S
C659 C650 1.390 . S
C659 H652 0.950 . S
C659 C656 1.387 . S
C660 C661 1.387 . S
C660 H664 0.950 . S
C660 C669 1.390 . S
C661 C660 1.387 . S
C661 C663 1.387 . S
H662 C669 0.950 . S
C663 C661 1.387 . S
C663 C665 1.390 . S
C663 H667 0.950 . S
H664 C660 0.950 . S
C665 C663 1.390 . S
C665 C666 1.387 . S
C665 H668 0.950 . S
C666 C665 1.387 . S
C666 C669 1.387 . S
H667 C663 0.950 . S
H668 C665 0.950 . S
C669 C660 1.390 . S
C669 H662 0.950 . S
C669 C666 1.387 . S
C670 C671 1.387 . S
C670 H674 0.950 . S
C670 C679 1.390 . S
C671 C670 1.387 . S
C671 C673 1.387 . S
H672 C679 0.950 1_556 S
C673 C671 1.387 . S
C673 C675 1.390 . S
C673 H677 0.950 . S
H674 C670 0.950 . S
C675 C673 1.390 . S
C675 C676 1.387 1_554 S
C675 H678 0.957 . S
C676 C675 1.387 1_556 S
C676 C679 1.387 1_556 S
H677 C673 0.950 . S
H678 C675 0.957 . S
C679 C670 1.390 . S
C679 H672 0.950 1_554 S
C679 C676 1.387 1_554 S
C680 C681 1.387 . S
C680 H684 0.950 . S
C680 C689 1.390 . S
C681 C680 1.387 . S
C681 C683 1.387 . S
H682 C689 0.950 . S
C683 C681 1.387 . S
C683 C685 1.390 . S
C683 H687 0.950 . S
H684 C680 0.950 . S
C685 C683 1.390 . S
C685 C686 1.387 . S
C685 H688 0.950 . S
C686 C685 1.387 . S
C686 C689 1.387 . S
H687 C683 0.950 . S
H688 C685 0.950 . S
C689 C680 1.390 . S
C689 H682 0.950 . S
C689 C686 1.387 . S
C690 C691 1.387 . S
C690 H694 0.950 . S
C690 C699 1.390 . S
C691 C690 1.387 . S
C691 C693 1.387 . S
H692 C699 0.950 . S
C693 C691 1.387 . S
C693 C695 1.390 . S
C693 H697 0.950 . S
H694 C690 0.950 . S
C695 C693 1.390 . S
C695 C696 1.387 . S
C695 H698 0.950 . S
C696 C695 1.387 . S
C696 C699 1.387 . S
H697 C693 0.950 . S
H698 C695 0.950 . S
C699 C690 1.390 . S
C699 H692 0.950 . S
C699 C696 1.387 . S
C700 C701 1.387 . S
C700 H704 0.950 . S
C700 C709 1.390 . S
C701 C700 1.387 . S
C701 C703 1.387 . S
H702 C709 0.950 . S
C703 C701 1.387 . S
C703 C705 1.390 . S
C703 H707 0.950 . S
H704 C700 0.950 . S
C705 C703 1.390 . S
C705 C706 1.387 . S
C705 H708 0.950 . S
C706 C705 1.387 . S
C706 C709 1.387 . S
H707 C703 0.950 . S
H708 C705 0.950 . S
C709 C700 1.390 . S
C709 H702 0.950 . S
C709 C706 1.387 . S
C710 C711 1.387 . S
C710 H714 0.950 . S
C710 C719 1.390 . S
C711 C710 1.387 . S
C711 C713 1.387 . S
H712 C719 0.950 . S
C713 C711 1.387 . S
C713 C715 1.390 . S
C713 H717 0.950 . S
H714 C710 0.950 . S
C715 C713 1.390 . S
C715 C716 1.387 . S
C715 H718 0.950 . S
C716 C715 1.387 . S
C716 C719 1.387 . S
H717 C713 0.950 . S
H718 C715 0.950 . S
C719 C710 1.390 . S
C719 H712 0.950 . S
C719 C716 1.387 . S
C720 C721 1.387 1_565 S
C720 H724 0.950 . S
C720 C729 1.390 . S
C721 C720 1.387 1_545 S
C721 C723 1.387 . S
H722 C729 0.950 . S
C723 C721 1.387 . S
C723 C725 1.390 1_545 S
C723 H727 0.950 . S
H724 C720 0.950 . S
C725 C723 1.390 1_565 S
C725 C726 1.387 . S
C725 H728 0.950 . S
C726 C725 1.387 . S
C726 C729 1.387 . S
H727 C723 0.950 . S
H728 C725 0.950 . S
C729 C720 1.390 . S
C729 H722 0.950 . S
C729 C726 1.387 . S
C730 C731 1.387 . S
C730 H734 0.950 . S
C730 C739 1.390 . S
C731 C730 1.387 . S
C731 C733 1.387 . S
H732 C739 0.950 . S
C733 C731 1.387 . S
C733 C735 1.390 1_556 S
C733 H737 0.950 1_556 S
H734 C730 0.950 . S
C735 C733 1.390 1_554 S
C735 C736 1.387 . S
C735 H738 0.950 . S
C736 C735 1.387 . S
C736 C739 1.387 1_554 S
H737 C733 0.950 1_554 S
H738 C735 0.950 . S
C739 C730 1.390 . S
C739 H732 0.950 . S
C739 C736 1.387 1_556 S
C740 C741 1.387 . S
C740 H744 0.950 . S
C740 C749 1.390 1_545 S
C741 C740 1.387 . S
C741 C743 1.387 . S
H742 C749 0.950 . S
C743 C741 1.387 . S
C743 C745 1.390 1_545 S
C743 H747 0.950 . S
H744 C740 0.950 . S
C745 C743 1.390 1_565 S
C745 C746 1.387 . S
C745 H748 0.950 . S
C746 C745 1.387 . S
C746 C749 1.387 . S
H747 C743 0.950 . S
H748 C745 0.950 . S
C749 C740 1.390 1_565 S
C749 H742 0.950 . S
C749 C746 1.387 . S
C750 C751 1.387 . S
C750 H754 0.950 . S
C750 C759 1.390 . S
C751 C750 1.387 . S
C751 C753 1.387 . S
H752 C759 0.950 . S
C753 C751 1.387 . S
C753 C755 1.390 . S
C753 H757 0.950 . S
H754 C750 0.950 . S
C755 C753 1.390 . S
C755 C756 1.387 . S
C755 H758 0.950 . S
C756 C755 1.387 . S
C756 C759 1.387 . S
H757 C753 0.950 . S
H758 C755 0.950 . S
C759 C750 1.390 . S
C759 H752 0.950 . S
C759 C756 1.387 . S
C760 C761 1.387 . S
C760 H764 0.950 . S
C760 C769 1.390 1_545 S
C761 C760 1.387 . S
C761 C763 1.387 . S
H762 C769 0.950 . S
C763 C761 1.387 . S
C763 C765 1.390 . S
C763 H767 0.950 . S
H764 C760 0.950 . S
C765 C763 1.390 . S
C765 C766 1.387 1_545 S
C765 H768 0.950 . S
C766 C765 1.387 1_565 S
C766 C769 1.387 . S
H767 C763 0.950 . S
H768 C765 0.950 . S
C769 C760 1.390 1_565 S
C769 H762 0.950 . S
C769 C766 1.387 . S
C770 C771 1.387 . S
C770 H774 0.950 . S
C770 C779 1.390 . S
C771 C770 1.387 . S
C771 C773 1.387 . S
H772 C779 0.950 . S
C773 C771 1.387 . S
C773 C775 1.390 . S
C773 H777 0.950 . S
H774 C770 0.950 . S
C775 C773 1.390 . S
C775 C776 1.387 . S
C775 H778 0.950 . S
C776 C775 1.387 . S
C776 C779 1.387 . S
H777 C773 0.950 . S
H778 C775 0.950 . S
C779 C770 1.390 . S
C779 H772 0.950 . S
C779 C776 1.387 . S
C780 C781 1.387 . S
C780 H784 0.950 . S
C780 C789 1.390 1_565 S
C781 C780 1.387 . S
C781 C783 1.387 . S
H782 C789 0.950 . S
C783 C781 1.387 . S
C783 C785 1.390 1_565 S
C783 H787 0.950 . S
H784 C780 0.950 . S
C785 C783 1.390 1_545 S
C785 C786 1.387 . S
C785 H788 0.950 . S
C786 C785 1.387 . S
C786 C789 1.387 . S
H787 C783 0.950 . S
H788 C785 0.950 . S
C789 C780 1.390 1_545 S
C789 H782 0.950 . S
C789 C786 1.387 . S
C790 C791 1.387 . S
C790 H794 0.950 . S
C790 C799 1.390 . S
C791 C790 1.387 . S
C791 C793 1.387 . S
H792 C799 0.950 . S
C793 C791 1.387 . S
C793 C795 1.390 . S
C793 H797 0.950 . S
H794 C790 0.950 . S
C795 C793 1.390 . S
C795 C796 1.387 . S
C795 H798 0.950 . S
C796 C795 1.387 . S
C796 C799 1.387 . S
H797 C793 0.950 . S
H798 C795 0.950 . S
C799 C790 1.390 . S
C799 H792 0.950 . S
C799 C796 1.387 . S
C800 C801 1.387 . S
C800 H804 0.950 . S
C800 C809 1.390 . S
C801 C800 1.387 . S
C801 C803 1.387 . S
H802 C809 0.950 . S
C803 C801 1.387 . S
C803 C805 1.390 . S
C803 H807 0.950 . S
H804 C800 0.950 . S
C805 C803 1.390 . S
C805 C806 1.387 . S
C805 H808 0.950 . S
C806 C805 1.387 . S
C806 C809 1.387 . S
H807 C803 0.950 . S
H808 C805 0.950 . S
C809 C800 1.390 . S
C809 H802 0.950 . S
C809 C806 1.387 . S
C810 C811 1.387 . S
C810 H814 0.950 . S
C810 C819 1.390 . S
C811 C810 1.387 . S
C811 C813 1.387 . S
H812 C819 0.950 . S
C813 C811 1.387 . S
C813 C815 1.390 . S
C813 H817 0.950 . S
H814 C810 0.950 . S
C815 C813 1.390 . S
C815 C816 1.387 . S
C815 H818 0.950 . S
C816 C815 1.387 . S
C816 C819 1.387 . S
H817 C813 0.950 . S
H818 C815 0.950 . S
C819 C810 1.390 . S
C819 H812 0.950 . S
C819 C816 1.387 . S
C820 C821 1.387 . S
C820 H824 0.950 . S
C820 C829 1.390 . S
C821 C820 1.387 . S
C821 C823 1.387 . S
H822 C829 0.950 . S
C823 C821 1.387 . S
C823 C825 1.390 . S
C823 H827 0.950 . S
H824 C820 0.950 . S
C825 C823 1.390 . S
C825 C826 1.387 . S
C825 H828 0.950 . S
C826 C825 1.387 . S
C826 C829 1.387 . S
H827 C823 0.950 . S
H828 C825 0.950 . S
C829 C820 1.390 . S
C829 H822 0.950 . S
C829 C826 1.387 . S
C830 C831 1.387 . S
C830 H834 0.950 . S
C830 C839 1.390 . S
C831 C830 1.387 . S
C831 C833 1.387 . S
H832 C839 0.950 . S
C833 C831 1.387 . S
C833 C835 1.390 . S
C833 H837 0.950 . S
H834 C830 0.950 . S
C835 C833 1.390 . S
C835 C836 1.387 . S
C835 H838 0.950 . S
C836 C835 1.387 . S
C836 C839 1.387 . S
H837 C833 0.950 . S
H838 C835 0.950 . S
C839 C830 1.390 . S
C839 H832 0.950 . S
C839 C836 1.387 . S
C840 C841 1.387 . S
C840 H844 0.950 . S
C840 C849 1.390 . S
C841 C840 1.387 . S
C841 C843 1.387 . S
H842 C849 0.950 . S
C843 C841 1.387 . S
C843 C845 1.390 . S
C843 H847 0.950 . S
H844 C840 0.950 . S
C845 C843 1.390 . S
C845 C846 1.387 . S
C845 H848 0.950 . S
C846 C845 1.387 . S
C846 C849 1.387 . S
H847 C843 0.950 . S
H848 C845 0.950 . S
C849 C840 1.390 . S
C849 H842 0.950 . S
C849 C846 1.387 . S
C850 C851 1.387 . S
C850 H854 0.950 . S
C850 C859 1.390 . S
C851 C850 1.387 . S
C851 C853 1.387 . S
H852 C859 0.950 . S
C853 C851 1.387 . S
C853 C855 1.390 . S
C853 H857 0.950 . S
H854 C850 0.950 . S
C855 C853 1.390 . S
C855 C856 1.387 . S
C855 H858 0.950 . S
C856 C855 1.387 . S
C856 C859 1.387 . S
H857 C853 0.950 . S
H858 C855 0.950 . S
C859 C850 1.390 . S
C859 H852 0.950 . S
C859 C856 1.387 . S
C860 C861 1.387 . S
C860 H864 0.950 . S
C860 C869 1.390 . S
C861 C860 1.387 . S
C861 C863 1.387 . S
H862 C869 0.950 . S
C863 C861 1.387 . S
C863 C865 1.390 . S
C863 H867 0.950 1_556 S
H864 C860 0.950 . S
C865 C863 1.390 . S
C865 C866 1.387 . S
C865 H868 0.950 . S
C866 C865 1.387 . S
C866 C869 1.387 . S
H867 C863 0.950 1_554 S
H868 C865 0.950 . S
C869 C860 1.390 . S
C869 H862 0.950 . S
C869 C866 1.387 . S
C870 C871 1.387 . S
C870 H874 0.950 . S
C870 C879 1.390 . S
C871 C870 1.387 . S
C871 C873 1.387 . S
H872 C879 0.950 . S
C873 C871 1.387 . S
C873 C875 1.390 . S
C873 H877 0.950 . S
H874 C870 0.950 . S
C875 C873 1.390 . S
C875 C876 1.387 . S
C875 H878 0.950 . S
C876 C875 1.387 . S
C876 C879 1.387 . S
H877 C873 0.950 . S
H878 C875 0.950 . S
C879 C870 1.390 . S
C879 H872 0.950 . S
C879 C876 1.387 . S
C880 C881 1.387 . S
C880 H884 0.950 . S
C880 C889 1.390 1_554 S
C881 C880 1.387 . S
C881 C883 1.387 1_554 S
H882 C889 0.950 . S
C883 C881 1.387 1_556 S
C883 C885 1.390 . S
C883 H887 0.950 . S
H884 C880 0.950 . S
C885 C883 1.390 . S
C885 C886 1.387 . S
C885 H888 0.950 . S
C886 C885 1.387 . S
C886 C889 1.387 . S
H887 C883 0.950 . S
H888 C885 0.950 . S
C889 C880 1.390 1_556 S
C889 H882 0.950 . S
C889 C886 1.387 . S
C890 C891 1.387 . S
C890 H894 0.950 . S
C890 C899 1.390 . S
C891 C890 1.387 . S
C891 C893 1.387 . S
H892 C899 0.950 . S
C893 C891 1.387 . S
C893 C895 1.390 . S
C893 H897 0.950 . S
H894 C890 0.950 . S
C895 C893 1.390 . S
C895 C896 1.387 . S
C895 H898 0.950 . S
C896 C895 1.387 . S
C896 C899 1.387 . S
H897 C893 0.950 . S
H898 C895 0.950 . S
C899 C890 1.390 . S
C899 H892 0.950 . S
C899 C896 1.387 . S
C900 C901 1.387 . S
C900 H904 0.950 . S
C900 C909 1.390 . S
C901 C900 1.387 . S
C901 C903 1.387 . S
H902 C909 0.950 . S
C903 C901 1.387 . S
C903 C905 1.390 . S
C903 H907 0.950 . S
H904 C900 0.950 . S
C905 C903 1.390 . S
C905 C906 1.387 . S
C905 H908 0.950 . S
C906 C905 1.387 . S
C906 C909 1.387 . S
H907 C903 0.950 . S
H908 C905 0.950 . S
C909 C900 1.390 . S
C909 H902 0.950 . S
C909 C906 1.387 . S
C910 C911 1.387 . S
C910 H914 0.950 . S
C910 C919 1.390 . S
C911 C910 1.387 . S
C911 C913 1.387 . S
H912 C919 0.950 . S
C913 C911 1.387 . S
C913 C915 1.390 . S
C913 H917 0.950 . S
H914 C910 0.950 . S
C915 C913 1.390 . S
C915 C916 1.387 . S
C915 H918 0.950 . S
C916 C915 1.387 . S
C916 C919 1.387 . S
H917 C913 0.950 . S
H918 C915 0.950 . S
C919 C910 1.390 . S
C919 H912 0.950 . S
C919 C916 1.387 . S
C920 C921 1.387 . S
C920 H924 0.950 . S
C920 C929 1.390 . S
C921 C920 1.387 . S
C921 C923 1.387 . S
H922 C929 0.950 . S
C923 C921 1.387 . S
C923 C925 1.390 . S
C923 H927 0.950 . S
H924 C920 0.950 . S
C925 C923 1.390 . S
C925 C926 1.387 . S
C925 H928 0.950 . S
C926 C925 1.387 . S
C926 C929 1.387 . S
H927 C923 0.950 . S
H928 C925 0.950 . S
C929 C920 1.390 . S
C929 H922 0.950 . S
C929 C926 1.387 . S
C930 C931 1.387 . S
C930 H934 0.950 . S
C930 C939 1.390 . S
C931 C930 1.387 . S
C931 C933 1.387 . S
H932 C939 0.950 . S
C933 C931 1.387 . S
C933 C935 1.390 . S
C933 H937 0.950 . S
H934 C930 0.950 . S
C935 C933 1.390 . S
C935 C936 1.387 . S
C935 H938 0.950 . S
C936 C935 1.387 . S
C936 C939 1.387 . S
H937 C933 0.950 . S
H938 C935 0.950 . S
C939 C930 1.390 . S
C939 H932 0.950 . S
C939 C936 1.387 . S
C940 C941 1.387 . S
C940 H944 0.950 . S
C940 C949 1.390 . S
C941 C940 1.387 . S
C941 C943 1.387 . S
H942 C949 0.950 . S
C943 C941 1.387 . S
C943 C945 1.390 . S
C943 H947 0.950 . S
H944 C940 0.950 . S
C945 C943 1.390 . S
C945 C946 1.387 . S
C945 H948 0.950 . S
C946 C945 1.387 . S
C946 C949 1.387 . S
H947 C943 0.950 . S
H948 C945 0.950 . S
C949 C940 1.390 . S
C949 H942 0.950 . S
C949 C946 1.387 . S
C950 C951 1.387 . S
C950 H954 0.950 . S
C950 C959 1.390 . S
C951 C950 1.387 . S
C951 C953 1.387 . S
H952 C959 0.950 . S
C953 C951 1.387 . S
C953 C955 1.390 . S
C953 H957 0.950 . S
H954 C950 0.950 . S
C955 C953 1.390 . S
C955 C956 1.387 . S
C955 H958 0.950 . S
C956 C955 1.387 . S
C956 C959 1.387 . S
H957 C953 0.950 . S
H958 C955 0.950 . S
C959 C950 1.390 . S
C959 H952 0.950 . S
C959 C956 1.387 . S
C960 C961 1.387 1_455 S
C960 H964 0.950 . S
C960 C969 1.390 . S
C961 C960 1.387 1_655 S
C961 C963 1.387 . S
H962 C969 0.950 1_556 S
C963 C961 1.387 . S
C963 C965 1.390 . S
C963 H967 0.950 . S
H964 C960 0.950 . S
C965 C963 1.390 . S
C965 C966 1.387 1_655 S
C965 H968 0.950 . S
C966 C965 1.387 1_455 S
C966 C969 1.387 . S
H967 C963 0.950 . S
H968 C965 0.950 . S
C969 C960 1.390 . S
C969 H962 0.950 1_554 S
C969 C966 1.387 . S
C970 C971 1.387 . S
C970 H974 0.950 . S
C970 C979 1.390 . S
C971 C970 1.387 . S
C971 C973 1.387 . S
H972 C979 0.950 . S
C973 C971 1.387 . S
C973 C975 1.390 . S
C973 H977 0.950 . S
H974 C970 0.950 . S
C975 C973 1.390 . S
C975 C976 1.387 . S
C975 H978 0.950 . S
C976 C975 1.387 . S
C976 C979 1.387 . S
H977 C973 0.950 . S
H978 C975 0.950 . S
C979 C970 1.390 . S
C979 H972 0.950 . S
C979 C976 1.387 . S
C980 C981 1.387 . S
C980 H984 0.950 . S
C980 C989 1.390 . S
C981 C980 1.387 . S
C981 C983 1.387 . S
H982 C989 0.950 . S
C983 C981 1.387 . S
C983 C985 1.390 . S
C983 H987 0.950 . S
H984 C980 0.950 . S
C985 C983 1.390 . S
C985 C986 1.387 . S
C985 H988 0.950 . S
C986 C985 1.387 . S
C986 C989 1.387 . S
H987 C983 0.950 . S
H988 C985 0.950 . S
C989 C980 1.390 . S
C989 H982 0.950 . S
C989 C986 1.387 . S
C990 C991 1.387 . S
C990 H994 0.950 . S
C990 C999 1.390 . S
C991 C990 1.387 . S
C991 C993 1.387 . S
H992 C999 0.950 . S
C993 C991 1.387 . S
C993 C995 1.390 . S
C993 H997 0.950 . S
H994 C990 0.950 . S
C995 C993 1.390 . S
C995 C996 1.387 . S
C995 H998 0.950 . S
C996 C995 1.387 . S
C996 C999 1.387 . S
H997 C993 0.950 . S
H998 C995 0.950 . S
C999 C990 1.390 . S
C999 H992 0.950 . S
C999 C996 1.387 . S
C1000 C1001 1.387 . S
C1000 H1004 0.950 . S
C1000 C1009 1.390 . S
C1001 C1000 1.387 . S
C1001 C1003 1.387 1_655 S
H1002 C1009 0.950 . S
C1003 C1001 1.387 1_455 S
C1003 C1005 1.390 . S
C1003 H1007 0.950 . S
H1004 C1000 0.950 . S
C1005 C1003 1.390 . S
C1005 C1006 1.387 . S
C1005 H1008 0.950 . S
C1006 C1005 1.387 . S
C1006 C1009 1.387 1_455 S
H1007 C1003 0.950 . S
H1008 C1005 0.950 . S
C1009 C1000 1.390 . S
C1009 H1002 0.950 . S
C1009 C1006 1.387 1_655 S
C1010 C1011 1.387 . S
C1010 H1014 0.950 . S
C1010 C1019 1.390 . S
C1011 C1010 1.387 . S
C1011 C1013 1.387 . S
H1012 C1019 0.950 . S
C1013 C1011 1.387 . S
C1013 C1015 1.390 . S
C1013 H1017 0.950 . S
H1014 C1010 0.950 . S
C1015 C1013 1.390 . S
C1015 C1016 1.387 . S
C1015 H1018 0.950 . S
C1016 C1015 1.387 . S
C1016 C1019 1.387 . S
H1017 C1013 0.950 . S
H1018 C1015 0.950 . S
C1019 C1010 1.390 . S
C1019 H1012 0.950 . S
C1019 C1016 1.387 . S
C1020 C1021 1.387 . S
C1020 H1024 0.950 . S
C1020 C1029 1.390 1_554 S
C1021 C1020 1.387 . S
C1021 C1023 1.387 . S
H1022 C1029 0.950 . S
C1023 C1021 1.387 . S
C1023 C1025 1.390 . S
C1023 H1027 0.950 . S
H1024 C1020 0.950 . S
C1025 C1023 1.390 . S
C1025 C1026 1.387 . S
C1025 H1028 0.950 . S
C1026 C1025 1.387 . S
C1026 C1029 1.387 1_554 S
H1027 C1023 0.950 . S
H1028 C1025 0.950 . S
C1029 C1020 1.390 1_556 S
C1029 H1022 0.950 . S
C1029 C1026 1.387 1_556 S
C1030 C1031 1.387 . S
C1030 H1034 0.950 . S
C1030 C1039 1.390 . S
C1031 C1030 1.387 . S
C1031 C1033 1.387 . S
H1032 C1039 0.950 . S
C1033 C1031 1.387 . S
C1033 C1035 1.390 . S
C1033 H1037 0.950 . S
H1034 C1030 0.950 . S
C1035 C1033 1.390 . S
C1035 C1036 1.387 . S
C1035 H1038 0.950 . S
C1036 C1035 1.387 . S
C1036 C1039 1.387 . S
H1037 C1033 0.950 . S
H1038 C1035 0.950 . S
C1039 C1030 1.390 . S
C1039 H1032 0.950 . S
C1039 C1036 1.387 . S
C1040 C1041 1.387 . S
C1040 H1044 0.950 . S
C1040 C1049 1.390 . S
C1041 C1040 1.387 . S
C1041 C1043 1.387 . S
H1042 C1049 0.950 . S
C1043 C1041 1.387 . S
C1043 C1045 1.390 . S
C1043 H1047 0.950 . S
H1044 C1040 0.950 . S
C1045 C1043 1.390 . S
C1045 C1046 1.387 . S
C1045 H1048 0.950 . S
C1046 C1045 1.387 . S
C1046 C1049 1.387 . S
H1047 C1043 0.950 . S
H1048 C1045 0.950 . S
C1049 C1040 1.390 . S
C1049 H1042 0.950 . S
C1049 C1046 1.387 . S
C1050 C1051 1.387 . S
C1050 H1054 0.950 . S
C1050 C1059 1.390 . S
C1051 C1050 1.387 . S
C1051 C1053 1.387 . S
H1052 C1059 0.950 . S
C1053 C1051 1.387 . S
C1053 C1055 1.390 . S
C1053 H1057 0.950 . S
H1054 C1050 0.950 . S
C1055 C1053 1.390 . S
C1055 C1056 1.387 . S
C1055 H1058 0.950 . S
C1056 C1055 1.387 . S
C1056 C1059 1.387 . S
H1057 C1053 0.950 . S
H1058 C1055 0.950 . S
C1059 C1050 1.390 . S
C1059 H1052 0.950 . S
C1059 C1056 1.387 . S
C1060 C1061 1.387 . S
C1060 H1064 0.950 . S
C1060 C1069 1.390 . S
C1061 C1060 1.387 . S
C1061 C1063 1.387 . S
H1062 C1069 0.950 . S
C1063 C1061 1.387 . S
C1063 C1065 1.390 . S
C1063 H1067 0.950 . S
H1064 C1060 0.950 . S
C1065 C1063 1.390 . S
C1065 C1066 1.387 . S
C1065 H1068 0.950 . S
C1066 C1065 1.387 . S
C1066 C1069 1.387 . S
H1067 C1063 0.950 . S
H1068 C1065 0.950 . S
C1069 C1060 1.390 . S
C1069 H1062 0.950 . S
C1069 C1066 1.387 . S
C1070 C1071 1.387 . S
C1070 H1074 0.950 . S
C1070 C1079 1.390 . S
C1071 C1070 1.387 . S
C1071 C1073 1.387 . S
H1072 C1079 0.950 . S
C1073 C1071 1.387 . S
C1073 C1075 1.390 . S
C1073 H1077 0.950 . S
H1074 C1070 0.950 . S
C1075 C1073 1.390 . S
C1075 C1076 1.387 . S
C1075 H1078 0.950 . S
C1076 C1075 1.387 . S
C1076 C1079 1.387 . S
H1077 C1073 0.950 . S
H1078 C1075 0.950 . S
C1079 C1070 1.390 . S
C1079 H1072 0.950 . S
C1079 C1076 1.387 . S
C1080 C1081 1.387 1_565 S
C1080 H1084 0.950 . S
C1080 C1089 1.390 . S
C1081 C1080 1.387 1_545 S
C1081 C1083 1.387 . S
H1082 C1089 0.950 . S
C1083 C1081 1.387 . S
C1083 C1085 1.390 . S
C1083 H1087 0.950 . S
H1084 C1080 0.950 . S
C1085 C1083 1.390 . S
C1085 C1086 1.387 1_545 S
C1085 H1088 0.950 . S
C1086 C1085 1.387 1_565 S
C1086 C1089 1.387 . S
H1087 C1083 0.950 . S
H1088 C1085 0.950 . S
C1089 C1080 1.390 . S
C1089 H1082 0.950 . S
C1089 C1086 1.387 . S
C1090 C1091 1.387 1_655 S
C1090 H1094 0.950 . S
C1090 C1099 1.390 . S
C1091 C1090 1.387 1_455 S
C1091 C1093 1.387 1_565 S
H1092 C1099 0.950 1_556 S
C1093 C1091 1.387 1_545 S
C1093 C1095 1.390 . S
C1093 H1097 0.950 . S
H1094 C1090 0.950 . S
C1095 C1093 1.390 . S
C1095 C1096 1.387 1_455 S
C1095 H1098 0.950 . S
C1096 C1095 1.387 1_655 S
C1096 C1099 1.387 1_545 S
H1097 C1093 0.950 . S
H1098 C1095 0.950 . S
C1099 C1090 1.390 . S
C1099 H1092 0.950 1_554 S
C1099 C1096 1.387 1_565 S
C1100 C1101 1.387 . S
C1100 H1104 0.950 . S
C1100 C1109 1.390 . S
C1101 C1100 1.387 . S
C1101 C1103 1.387 1_565 S
H1102 C1109 0.950 1_556 S
C1103 C1101 1.387 1_545 S
C1103 C1105 1.390 . S
C1103 H1107 0.950 . S
H1104 C1100 0.950 . S
C1105 C1103 1.390 . S
C1105 C1106 1.387 . S
C1105 H1108 0.950 . S
C1106 C1105 1.387 . S
C1106 C1109 1.387 1_545 S
H1107 C1103 0.950 . S
H1108 C1105 0.950 . S
C1109 C1100 1.390 . S
C1109 H1102 0.950 1_554 S
C1109 C1106 1.387 1_565 S
C1110 C1111 1.387 1_545 S
C1110 H1114 0.950 . S
C1110 C1119 1.390 . S
C1111 C1110 1.387 1_565 S
C1111 C1113 1.387 1_655 S
H1112 C1119 0.950 . S
C1113 C1111 1.387 1_455 S
C1113 C1115 1.390 . S
C1113 H1117 0.950 . S
H1114 C1110 0.950 . S
C1115 C1113 1.390 . S
C1115 C1116 1.387 1_565 S
C1115 H1118 0.950 . S
C1116 C1115 1.387 1_545 S
C1116 C1119 1.387 1_455 S
H1117 C1113 0.950 . S
H1118 C1115 0.950 . S
C1119 C1110 1.390 . S
C1119 H1112 0.950 . S
C1119 C1116 1.387 1_655 S
C1120 C1121 1.387 . S
C1120 H1124 0.950 . S
C1120 C1129 1.390 1_455 S
C1121 C1120 1.387 . S
C1121 C1123 1.387 . S
H1122 C1129 0.950 . S
C1123 C1121 1.387 . S
C1123 C1125 1.390 1_455 S
C1123 H1127 0.950 . S
H1124 C1120 0.950 . S
C1125 C1123 1.390 1_655 S
C1125 C1126 1.387 . S
C1125 H1128 0.950 . S
C1126 C1125 1.387 . S
C1126 C1129 1.387 . S
H1127 C1123 0.950 . S
H1128 C1125 0.950 . S
C1129 C1120 1.390 1_655 S
C1129 H1122 0.950 . S
C1129 C1126 1.387 . S
C1130 C1131 1.387 . S
C1130 H1134 0.950 . S
C1130 C1139 1.390 . S
C1131 C1130 1.387 . S
C1131 C1133 1.387 . S
H1132 C1139 0.950 . S
C1133 C1131 1.387 . S
C1133 C1135 1.390 . S
C1133 H1137 0.950 . S
H1134 C1130 0.950 . S
C1135 C1133 1.390 . S
C1135 C1136 1.387 . S
C1135 H1138 0.950 . S
C1136 C1135 1.387 . S
C1136 C1139 1.387 . S
H1137 C1133 0.950 . S
H1138 C1135 0.950 . S
C1139 C1130 1.390 . S
C1139 H1132 0.950 . S
C1139 C1136 1.387 . S
C1140 C1141 1.387 . S
C1140 H1144 0.950 . S
C1140 C1149 1.390 . S
C1141 C1140 1.387 . S
C1141 C1143 1.387 . S
H1142 C1149 0.950 . S
C1143 C1141 1.387 . S
C1143 C1145 1.390 . S
C1143 H1147 0.950 . S
H1144 C1140 0.950 . S
C1145 C1143 1.390 . S
C1145 C1146 1.387 . S
C1145 H1148 0.950 . S
C1146 C1145 1.387 . S
C1146 C1149 1.387 . S
H1147 C1143 0.950 . S
H1148 C1145 0.950 . S
C1149 C1140 1.390 . S
C1149 H1142 0.950 . S
C1149 C1146 1.387 . S
C1150 C1151 1.387 . S
C1150 H1154 0.950 . S
C1150 C1159 1.390 . S
C1151 C1150 1.387 . S
C1151 C1153 1.387 . S
H1152 C1159 0.950 . S
C1153 C1151 1.387 . S
C1153 C1155 1.390 . S
C1153 H1157 0.950 . S
H1154 C1150 0.950 . S
C1155 C1153 1.390 . S
C1155 C1156 1.387 . S
C1155 H1158 0.950 . S
C1156 C1155 1.387 . S
C1156 C1159 1.387 . S
H1157 C1153 0.950 . S
H1158 C1155 0.950 . S
C1159 C1150 1.390 . S
C1159 H1152 0.950 . S
C1159 C1156 1.387 . S
C1160 C1161 1.387 . S
C1160 H1164 0.950 . S
C1160 C1169 1.390 1_655 S
C1161 C1160 1.387 . S
C1161 C1163 1.387 . S
H1162 C1169 0.950 . S
C1163 C1161 1.387 . S
C1163 C1165 1.390 1_655 S
C1163 H1167 0.950 . S
H1164 C1160 0.950 . S
C1165 C1163 1.390 1_455 S
C1165 C1166 1.387 . S
C1165 H1168 0.950 . S
C1166 C1165 1.387 . S
C1166 C1169 1.387 . S
H1167 C1163 0.950 . S
H1168 C1165 0.950 . S
C1169 C1160 1.390 1_455 S
C1169 H1162 0.950 . S
C1169 C1166 1.387 . S
C1170 C1171 1.387 . S
C1170 H1174 0.950 . S
C1170 C1179 1.390 1_554 S
C1171 C1170 1.387 . S
C1171 C1173 1.387 . S
H1172 C1179 0.950 . S
C1173 C1171 1.387 . S
C1173 C1175 1.390 . S
C1173 H1177 0.950 . S
H1174 C1170 0.950 . S
C1175 C1173 1.390 . S
C1175 C1176 1.387 1_554 S
C1175 H1178 0.950 . S
C1176 C1175 1.387 1_556 S
C1176 C1179 1.387 . S
H1177 C1173 0.950 . S
H1178 C1175 0.950 . S
C1179 C1170 1.390 1_556 S
C1179 H1172 0.950 . S
C1179 C1176 1.387 . S
C1180 C1181 1.387 . S
C1180 H1184 0.950 . S
C1180 C1189 1.390 . S
C1181 C1180 1.387 . S
C1181 C1183 1.387 . S
H1182 C1189 0.950 . S
C1183 C1181 1.387 . S
C1183 C1185 1.390 . S
C1183 H1187 0.950 . S
H1184 C1180 0.950 . S
C1185 C1183 1.390 . S
C1185 C1186 1.387 . S
C1185 H1188 0.950 . S
C1186 C1185 1.387 . S
C1186 C1189 1.387 . S
H1187 C1183 0.950 . S
H1188 C1185 0.950 . S
C1189 C1180 1.390 . S
C1189 H1182 0.950 . S
C1189 C1186 1.387 . S
C1190 C1191 1.387 . S
C1190 H1194 0.950 . S
C1190 C1199 1.390 . S
C1191 C1190 1.387 . S
C1191 C1193 1.387 . S
H1192 C1199 0.950 . S
C1193 C1191 1.387 . S
C1193 C1195 1.390 . S
C1193 H1197 0.950 . S
H1194 C1190 0.950 . S
C1195 C1193 1.390 . S
C1195 C1196 1.387 . S
C1195 H1198 0.950 . S
C1196 C1195 1.387 . S
C1196 C1199 1.387 . S
H1197 C1193 0.950 . S
H1198 C1195 0.950 . S
C1199 C1190 1.390 . S
C1199 H1192 0.950 . S
C1199 C1196 1.387 . S
C1200 C1201 1.387 . S
C1200 H1204 0.950 . S
C1200 C1209 1.390 1_455 S
C1201 C1200 1.387 . S
C1201 C1203 1.387 . S
H1202 C1209 0.950 . S
C1203 C1201 1.387 . S
C1203 C1205 1.390 1_455 S
C1203 H1207 0.950 . S
H1204 C1200 0.950 . S
C1205 C1203 1.390 1_655 S
C1205 C1206 1.387 . S
C1205 H1208 0.950 . S
C1206 C1205 1.387 . S
C1206 C1209 1.387 . S
H1207 C1203 0.950 . S
H1208 C1205 0.950 . S
C1209 C1200 1.390 1_655 S
C1209 H1202 0.950 . S
C1209 C1206 1.387 . S
C1210 C1211 1.387 . S
C1210 H1214 0.950 . S
C1210 C1219 1.390 . S
C1211 C1210 1.387 . S
C1211 C1213 1.387 . S
H1212 C1219 0.950 . S
C1213 C1211 1.387 . S
C1213 C1215 1.390 1_554 S
C1213 H1217 0.950 . S
H1214 C1210 0.950 . S
C1215 C1213 1.390 1_556 S
C1215 C1216 1.387 . S
C1215 H1218 0.950 . S
C1216 C1215 1.387 . S
C1216 C1219 1.387 1_556 S
H1217 C1213 0.950 . S
H1218 C1215 0.950 . S
C1219 C1210 1.390 . S
C1219 H1212 0.950 . S
C1219 C1216 1.387 1_554 S
C1220 C1221 1.387 . S
C1220 H1224 0.950 . S
C1220 C1229 1.390 . S
C1221 C1220 1.387 . S
C1221 C1223 1.387 . S
H1222 C1229 0.950 . S
C1223 C1221 1.387 . S
C1223 C1225 1.390 . S
C1223 H1227 0.950 . S
H1224 C1220 0.950 . S
C1225 C1223 1.390 . S
C1225 C1226 1.387 . S
C1225 H1228 0.950 . S
C1226 C1225 1.387 . S
C1226 C1229 1.387 . S
H1227 C1223 0.950 . S
H1228 C1225 0.950 . S
C1229 C1220 1.390 . S
C1229 H1222 0.950 . S
C1229 C1226 1.387 . S
C1230 C1231 1.387 . S
C1230 H1234 0.950 . S
C1230 C1239 1.390 . S
C1231 C1230 1.387 . S
C1231 C1233 1.387 . S
H1232 C1239 0.950 . S
C1233 C1231 1.387 . S
C1233 C1235 1.390 . S
C1233 H1237 0.950 . S
H1234 C1230 0.950 . S
C1235 C1233 1.390 . S
C1235 C1236 1.387 . S
C1235 H1238 0.950 . S
C1236 C1235 1.387 . S
C1236 C1239 1.387 . S
H1237 C1233 0.950 . S
H1238 C1235 0.950 . S
C1239 C1230 1.390 . S
C1239 H1232 0.950 . S
C1239 C1236 1.387 . S
C1240 C1241 1.387 . S
C1240 H1244 0.950 . S
C1240 C1249 1.390 1_455 S
C1241 C1240 1.387 . S
C1241 C1243 1.387 . S
H1242 C1249 0.950 . S
C1243 C1241 1.387 . S
C1243 C1245 1.390 1_455 S
C1243 H1247 0.950 . S
H1244 C1240 0.950 . S
C1245 C1243 1.390 1_655 S
C1245 C1246 1.387 . S
C1245 H1248 0.950 . S
C1246 C1245 1.387 . S
C1246 C1249 1.387 . S
H1247 C1243 0.950 . S
H1248 C1245 0.950 . S
C1249 C1240 1.390 1_655 S
C1249 H1242 0.950 . S
C1249 C1246 1.387 . S
C1250 C1251 1.387 . S
C1250 H1254 0.950 . S
C1250 C1259 1.390 . S
C1251 C1250 1.387 . S
C1251 C1253 1.387 . S
H1252 C1259 0.950 . S
C1253 C1251 1.387 . S
C1253 C1255 1.390 . S
C1253 H1257 0.950 . S
H1254 C1250 0.950 . S
C1255 C1253 1.390 . S
C1255 C1256 1.387 . S
C1255 H1258 0.950 . S
C1256 C1255 1.387 . S
C1256 C1259 1.387 . S
H1257 C1253 0.950 . S
H1258 C1255 0.950 . S
C1259 C1250 1.390 . S
C1259 H1252 0.950 . S
C1259 C1256 1.387 . S
C1260 C1261 1.387 . S
C1260 H1264 0.950 . S
C1260 C1269 1.390 . S
C1261 C1260 1.387 . S
C1261 C1263 1.387 . S
H1262 C1269 0.950 . S
C1263 C1261 1.387 . S
C1263 C1265 1.390 . S
C1263 H1267 0.950 . S
H1264 C1260 0.950 . S
C1265 C1263 1.390 . S
C1265 C1266 1.387 . S
C1265 H1268 0.950 . S
C1266 C1265 1.387 . S
C1266 C1269 1.387 . S
H1267 C1263 0.950 . S
H1268 C1265 0.950 . S
C1269 C1260 1.390 . S
C1269 H1262 0.950 . S
C1269 C1266 1.387 . S
C1270 C1271 1.387 . S
C1270 H1274 0.950 . S
C1270 C1279 1.390 . S
C1271 C1270 1.387 . S
C1271 C1273 1.387 . S
H1272 C1279 0.950 . S
C1273 C1271 1.387 . S
C1273 C1275 1.390 . S
C1273 H1277 0.950 . S
H1274 C1270 0.950 . S
C1275 C1273 1.390 . S
C1275 C1276 1.387 . S
C1275 H1278 0.950 . S
C1276 C1275 1.387 . S
C1276 C1279 1.387 . S
H1277 C1273 0.950 . S
H1278 C1275 0.950 . S
C1279 C1270 1.390 . S
C1279 H1272 0.950 . S
C1279 C1276 1.387 . S
C1280 C1281 1.387 . S
C1280 H1284 0.950 . S
C1280 C1289 1.390 . S
C1281 C1280 1.387 . S
C1281 C1283 1.387 . S
H1282 C1289 0.950 . S
C1283 C1281 1.387 . S
C1283 C1285 1.390 . S
C1283 H1287 0.950 . S
H1284 C1280 0.950 . S
C1285 C1283 1.390 . S
C1285 C1286 1.387 . S
C1285 H1288 0.950 . S
C1286 C1285 1.387 . S
C1286 C1289 1.387 . S
H1287 C1283 0.950 . S
H1288 C1285 0.950 . S
C1289 C1280 1.390 . S
C1289 H1282 0.950 . S
C1289 C1286 1.387 . S
C1290 C1291 1.387 . S
C1290 H1294 0.950 . S
C1290 C1299 1.390 . S
C1291 C1290 1.387 . S
C1291 C1293 1.387 . S
H1292 C1299 0.950 . S
C1293 C1291 1.387 . S
C1293 C1295 1.390 . S
C1293 H1297 0.950 . S
H1294 C1290 0.950 . S
C1295 C1293 1.390 . S
C1295 C1296 1.387 . S
C1295 H1298 0.950 . S
C1296 C1295 1.387 . S
C1296 C1299 1.387 . S
H1297 C1293 0.950 . S
H1298 C1295 0.950 . S
C1299 C1290 1.390 . S
C1299 H1292 0.950 . S
C1299 C1296 1.387 . S
C1300 C1301 1.387 1_455 S
C1300 H1304 0.950 . S
C1300 C1309 1.390 . S
C1301 C1300 1.387 1_655 S
C1301 C1303 1.387 . S
H1302 C1309 0.950 . S
C1303 C1301 1.387 . S
C1303 C1305 1.390 1_655 S
C1303 H1307 0.950 . S
H1304 C1300 0.950 . S
C1305 C1303 1.390 1_455 S
C1305 C1306 1.387 . S
C1305 H1308 0.950 . S
C1306 C1305 1.387 . S
C1306 C1309 1.387 . S
H1307 C1303 0.950 . S
H1308 C1305 0.950 . S
C1309 C1300 1.390 . S
C1309 H1302 0.950 . S
C1309 C1306 1.387 . S
C1310 C1311 1.387 . S
C1310 H1314 0.950 . S
C1310 C1319 1.390 1_556 S
C1311 C1310 1.387 . S
C1311 C1313 1.387 1_556 S
H1312 C1319 0.950 . S
C1313 C1311 1.387 1_554 S
C1313 C1315 1.390 . S
C1313 H1317 0.950 . S
H1314 C1310 0.950 . S
C1315 C1313 1.390 . S
C1315 C1316 1.387 . S
C1315 H1318 0.950 . S
C1316 C1315 1.387 . S
C1316 C1319 1.387 . S
H1317 C1313 0.950 . S
H1318 C1315 0.950 . S
C1319 C1310 1.390 1_554 S
C1319 H1312 0.950 . S
C1319 C1316 1.387 . S
C1320 C1321 1.387 . S
C1320 H1324 0.950 . S
C1320 C1329 1.390 . S
C1321 C1320 1.387 . S
C1321 C1323 1.387 . S
H1322 C1329 0.950 . S
C1323 C1321 1.387 . S
C1323 C1325 1.390 . S
C1323 H1327 0.950 . S
H1324 C1320 0.950 . S
C1325 C1323 1.390 . S
C1325 C1326 1.387 . S
C1325 H1328 0.950 . S
C1326 C1325 1.387 . S
C1326 C1329 1.387 . S
H1327 C1323 0.950 . S
H1328 C1325 0.950 . S
C1329 C1320 1.390 . S
C1329 H1322 0.950 . S
C1329 C1326 1.387 . S
C1330 C1331 1.387 . S
C1330 H1334 0.950 . S
C1330 C1339 1.390 . S
C1331 C1330 1.387 . S
C1331 C1333 1.387 . S
H1332 C1339 0.950 . S
C1333 C1331 1.387 . S
C1333 C1335 1.390 . S
C1333 H1337 0.950 . S
H1334 C1330 0.950 . S
C1335 C1333 1.390 . S
C1335 C1336 1.387 . S
C1335 H1338 0.950 . S
C1336 C1335 1.387 . S
C1336 C1339 1.387 . S
H1337 C1333 0.950 . S
H1338 C1335 0.950 . S
C1339 C1330 1.390 . S
C1339 H1332 0.950 . S
C1339 C1336 1.387 . S
C1340 C1341 1.387 . S
C1340 H1344 0.950 . S
C1340 C1349 1.390 1_455 S
C1341 C1340 1.387 . S
C1341 C1343 1.387 . S
H1342 C1349 0.950 . S
C1343 C1341 1.387 . S
C1343 C1345 1.390 1_455 S
C1343 H1347 0.950 . S
H1344 C1340 0.950 . S
C1345 C1343 1.390 1_655 S
C1345 C1346 1.387 . S
C1345 H1348 0.950 . S
C1346 C1345 1.387 . S
C1346 C1349 1.387 . S
H1347 C1343 0.950 . S
H1348 C1345 0.950 . S
C1349 C1340 1.390 1_655 S
C1349 H1342 0.950 . S
C1349 C1346 1.387 . S
C1350 C1351 1.387 . S
C1350 H1354 0.950 . S
C1350 C1359 1.390 . S
C1351 C1350 1.387 . S
C1351 C1353 1.387 . S
H1352 C1359 0.950 . S
C1353 C1351 1.387 . S
C1353 C1355 1.390 . S
C1353 H1357 0.950 . S
H1354 C1350 0.950 . S
C1355 C1353 1.390 . S
C1355 C1356 1.387 . S
C1355 H1358 0.950 . S
C1356 C1355 1.387 . S
C1356 C1359 1.387 . S
H1357 C1353 0.950 . S
H1358 C1355 0.950 . S
C1359 C1350 1.390 . S
C1359 H1352 0.950 . S
C1359 C1356 1.387 . S
C1360 C1361 1.387 . S
C1360 H1364 0.950 . S
C1360 C1369 1.390 . S
C1361 C1360 1.387 . S
C1361 C1363 1.387 . S
H1362 C1369 0.950 . S
C1363 C1361 1.387 . S
C1363 C1365 1.390 . S
C1363 H1367 0.950 . S
H1364 C1360 0.950 . S
C1365 C1363 1.390 . S
C1365 C1366 1.387 . S
C1365 H1368 0.950 . S
C1366 C1365 1.387 . S
C1366 C1369 1.387 . S
H1367 C1363 0.950 . S
H1368 C1365 0.950 . S
C1369 C1360 1.390 . S
C1369 H1362 0.950 . S
C1369 C1366 1.387 . S
C1370 C1371 1.387 . S
C1370 H1374 0.950 . S
C1370 C1379 1.390 . S
C1371 C1370 1.387 . S
C1371 C1373 1.387 . S
H1372 C1379 0.950 . S
C1373 C1371 1.387 . S
C1373 C1375 1.390 . S
C1373 H1377 0.950 . S
H1374 C1370 0.950 . S
C1375 C1373 1.390 . S
C1375 C1376 1.387 . S
C1375 H1378 0.950 . S
C1376 C1375 1.387 . S
C1376 C1379 1.387 . S
H1377 C1373 0.950 . S
H1378 C1375 0.950 . S
C1379 C1370 1.390 . S
C1379 H1372 0.950 . S
C1379 C1376 1.387 . S
C1380 C1381 1.387 . S
C1380 H1384 0.950 . S
C1380 C1389 1.390 1_455 S
C1381 C1380 1.387 . S
C1381 C1383 1.387 . S
H1382 C1389 0.950 . S
C1383 C1381 1.387 . S
C1383 C1385 1.390 1_455 S
C1383 H1387 0.950 . S
H1384 C1380 0.950 . S
C1385 C1383 1.390 1_655 S
C1385 C1386 1.387 . S
C1385 H1388 0.950 . S
C1386 C1385 1.387 . S
C1386 C1389 1.387 . S
H1387 C1383 0.950 . S
H1388 C1385 0.950 . S
C1389 C1380 1.390 1_655 S
C1389 H1382 0.950 . S
C1389 C1386 1.387 . S
C1390 C1391 1.387 . S
C1390 H1394 0.950 . S
C1390 C1399 1.390 . S
C1391 C1390 1.387 . S
C1391 C1393 1.387 . S
H1392 C1399 0.950 . S
C1393 C1391 1.387 . S
C1393 C1395 1.390 . S
C1393 H1397 0.950 . S
H1394 C1390 0.950 . S
C1395 C1393 1.390 . S
C1395 C1396 1.387 . S
C1395 H1398 0.950 . S
C1396 C1395 1.387 . S
C1396 C1399 1.387 . S
H1397 C1393 0.950 . S
H1398 C1395 0.950 . S
C1399 C1390 1.390 . S
C1399 H1392 0.950 . S
C1399 C1396 1.387 . S
C1400 C1401 1.387 . S
C1400 H1404 0.950 . S
C1400 C1409 1.390 . S
C1401 C1400 1.387 . S
C1401 C1403 1.387 . S
H1402 C1409 0.950 . S
C1403 C1401 1.387 . S
C1403 C1405 1.390 . S
C1403 H1407 0.950 . S
H1404 C1400 0.950 . S
C1405 C1403 1.390 . S
C1405 C1406 1.387 . S
C1405 H1408 0.950 . S
C1406 C1405 1.387 . S
C1406 C1409 1.387 . S
H1407 C1403 0.950 . S
H1408 C1405 0.950 . S
C1409 C1400 1.390 . S
C1409 H1402 0.950 . S
C1409 C1406 1.387 . S
C1410 C1411 1.387 . S
C1410 H1414 0.950 . S
C1410 C1419 1.390 . S
C1411 C1410 1.387 . S
C1411 C1413 1.387 . S
H1412 C1419 0.950 . S
C1413 C1411 1.387 . S
C1413 C1415 1.390 . S
C1413 H1417 0.950 . S
H1414 C1410 0.950 . S
C1415 C1413 1.390 . S
C1415 C1416 1.387 . S
C1415 H1418 0.950 . S
C1416 C1415 1.387 . S
C1416 C1419 1.387 . S
H1417 C1413 0.950 . S
H1418 C1415 0.950 . S
C1419 C1410 1.390 . S
C1419 H1412 0.950 . S
C1419 C1416 1.387 . S
C1420 C1421 1.387 . S
C1420 H1424 0.950 . S
C1420 C1429 1.390 1_455 S
C1421 C1420 1.387 . S
C1421 C1423 1.387 . S
H1422 C1429 0.950 . S
C1423 C1421 1.387 . S
C1423 C1425 1.390 1_455 S
C1423 H1427 0.950 . S
H1424 C1420 0.950 . S
C1425 C1423 1.390 1_655 S
C1425 C1426 1.387 . S
C1425 H1428 0.950 . S
C1426 C1425 1.387 . S
C1426 C1429 1.387 . S
H1427 C1423 0.950 . S
H1428 C1425 0.950 . S
C1429 C1420 1.390 1_655 S
C1429 H1422 0.950 . S
C1429 C1426 1.387 . S
C1430 C1431 1.387 . S
C1430 H1434 0.950 . S
C1430 C1439 1.390 1_556 S
C1431 C1430 1.387 . S
C1431 C1433 1.387 1_556 S
H1432 C1439 0.950 . S
C1433 C1431 1.387 1_554 S
C1433 C1435 1.390 . S
C1433 H1437 0.950 . S
H1434 C1430 0.950 . S
C1435 C1433 1.390 . S
C1435 C1436 1.387 . S
C1435 H1438 0.950 . S
C1436 C1435 1.387 . S
C1436 C1439 1.387 . S
H1437 C1433 0.950 . S
H1438 C1435 0.950 . S
C1439 C1430 1.390 1_554 S
C1439 H1432 0.950 . S
C1439 C1436 1.387 . S
C1440 C1441 1.387 . S
C1440 H1444 0.950 . S
C1440 C1449 1.390 . S
C1441 C1440 1.387 . S
C1441 C1443 1.387 . S
H1442 C1449 0.950 . S
C1443 C1441 1.387 . S
C1443 C1445 1.390 . S
C1443 H1447 0.950 . S
H1444 C1440 0.950 . S
C1445 C1443 1.390 . S
C1445 C1446 1.387 . S
C1445 H1448 0.950 . S
C1446 C1445 1.387 . S
C1446 C1449 1.387 . S
H1447 C1443 0.950 . S
H1448 C1445 0.950 . S
C1449 C1440 1.390 . S
C1449 H1442 0.950 . S
C1449 C1446 1.387 . S
C1450 C1451 1.387 . S
C1450 H1454 0.950 . S
C1450 C1459 1.390 1_556 S
C1451 C1450 1.387 . S
C1451 C1453 1.387 . S
H1452 C1459 0.950 . S
C1453 C1451 1.387 . S
C1453 C1455 1.390 1_556 S
C1453 H1457 0.950 . S
H1454 C1450 0.950 . S
C1455 C1453 1.390 1_554 S
C1455 C1456 1.387 . S
C1455 H1458 0.950 . S
C1456 C1455 1.387 . S
C1456 C1459 1.387 . S
H1457 C1453 0.950 . S
H1458 C1455 0.950 . S
C1459 C1450 1.390 1_554 S
C1459 H1452 0.950 . S
C1459 C1456 1.387 . S
C1460 C1461 1.387 . S
C1460 H1464 0.950 . S
C1460 C1469 1.390 . S
C1461 C1460 1.387 . S
C1461 C1463 1.387 . S
H1462 C1469 0.950 . S
C1463 C1461 1.387 . S
C1463 C1465 1.390 . S
C1463 H1467 0.950 . S
H1464 C1460 0.950 . S
C1465 C1463 1.390 . S
C1465 C1466 1.387 . S
C1465 H1468 0.950 . S
C1466 C1465 1.387 . S
C1466 C1469 1.387 . S
H1467 C1463 0.950 . S
H1468 C1465 0.950 . S
C1469 C1460 1.390 . S
C1469 H1462 0.950 . S
C1469 C1466 1.387 . S
C1470 C1471 1.387 . S
C1470 H1474 0.950 . S
C1470 C1479 1.390 . S
C1471 C1470 1.387 . S
C1471 C1473 1.387 . S
H1472 C1479 0.950 . S
C1473 C1471 1.387 . S
C1473 C1475 1.390 . S
C1473 H1477 0.950 . S
H1474 C1470 0.950 . S
C1475 C1473 1.390 . S
C1475 C1476 1.387 . S
C1475 H1478 0.950 . S
C1476 C1475 1.387 . S
C1476 C1479 1.387 . S
H1477 C1473 0.950 . S
H1478 C1475 0.950 . S
C1479 C1470 1.390 . S
C1479 H1472 0.950 . S
C1479 C1476 1.387 . S
C1480 C1481 1.387 . S
C1480 H1484 0.950 . S
C1480 C1489 1.390 . S
C1481 C1480 1.387 . S
C1481 C1483 1.387 . S
H1482 C1489 0.950 . S
C1483 C1481 1.387 . S
C1483 C1485 1.390 . S
C1483 H1487 0.950 . S
H1484 C1480 0.950 . S
C1485 C1483 1.390 . S
C1485 C1486 1.387 . S
C1485 H1488 0.950 . S
C1486 C1485 1.387 . S
C1486 C1489 1.387 . S
H1487 C1483 0.950 . S
H1488 C1485 0.950 . S
C1489 C1480 1.390 . S
C1489 H1482 0.950 . S
C1489 C1486 1.387 . S
C1490 C1491 1.387 . S
C1490 H1494 0.950 . S
C1490 C1499 1.390 . S
C1491 C1490 1.387 . S
C1491 C1493 1.387 . S
H1492 C1499 0.950 . S
C1493 C1491 1.387 . S
C1493 C1495 1.390 . S
C1493 H1497 0.950 . S
H1494 C1490 0.950 . S
C1495 C1493 1.390 . S
C1495 C1496 1.387 . S
C1495 H1498 0.950 . S
C1496 C1495 1.387 . S
C1496 C1499 1.387 . S
H1497 C1493 0.950 . S
H1498 C1495 0.950 . S
C1499 C1490 1.390 . S
C1499 H1492 0.950 . S
C1499 C1496 1.387 . S
C1500 C1501 1.387 . S
C1500 H1504 0.950 . S
C1500 C1509 1.390 . S
C1501 C1500 1.387 . S
C1501 C1503 1.387 . S
H1502 C1509 0.950 . S
C1503 C1501 1.387 . S
C1503 C1505 1.390 . S
C1503 H1507 0.950 . S
H1504 C1500 0.950 . S
C1505 C1503 1.390 . S
C1505 C1506 1.387 . S
C1505 H1508 0.950 . S
C1506 C1505 1.387 . S
C1506 C1509 1.387 . S
H1507 C1503 0.950 . S
H1508 C1505 0.950 . S
C1509 C1500 1.390 . S
C1509 H1502 0.950 . S
C1509 C1506 1.387 . S
C1510 C1511 1.387 . S
C1510 H1514 0.950 . S
C1510 C1519 1.390 . S
C1511 C1510 1.387 . S
C1511 C1513 1.387 . S
H1512 C1519 0.950 . S
C1513 C1511 1.387 . S
C1513 C1515 1.390 . S
C1513 H1517 0.950 . S
H1514 C1510 0.950 . S
C1515 C1513 1.390 . S
C1515 C1516 1.387 . S
C1515 H1518 0.950 . S
C1516 C1515 1.387 . S
C1516 C1519 1.387 . S
H1517 C1513 0.950 . S
H1518 C1515 0.950 . S
C1519 C1510 1.390 . S
C1519 H1512 0.950 . S
C1519 C1516 1.387 . S
C1520 C1521 1.387 . S
C1520 H1524 0.950 . S
C1520 C1529 1.390 1_565 S
C1521 C1520 1.387 . S
C1521 C1523 1.405 . S
H1522 C1529 0.950 . S
C1523 C1521 1.405 . S
C1523 C1525 1.369 1_565 S
C1523 H1527 0.954 . S
H1524 C1520 0.950 . S
C1525 C1523 1.369 1_545 S
C1525 C1526 1.387 . S
C1525 H1528 0.950 . S
C1526 C1525 1.387 . S
C1526 C1529 1.387 . S
H1527 C1523 0.954 . S
H1528 C1525 0.950 . S
C1529 C1520 1.390 1_545 S
C1529 H1522 0.950 . S
C1529 C1526 1.387 . S
C1530 C1531 1.387 . S
C1530 H1534 0.950 . S
C1530 C1539 1.390 . S
C1531 C1530 1.387 . S
C1531 C1533 1.387 . S
H1532 C1539 0.950 . S
C1533 C1531 1.387 . S
C1533 C1535 1.390 . S
C1533 H1537 0.950 . S
H1534 C1530 0.950 . S
C1535 C1533 1.390 . S
C1535 C1536 1.387 . S
C1535 H1538 0.950 . S
C1536 C1535 1.387 . S
C1536 C1539 1.387 . S
H1537 C1533 0.950 . S
H1538 C1535 0.950 . S
C1539 C1530 1.390 . S
C1539 H1532 0.950 . S
C1539 C1536 1.387 . S
C1540 C1541 1.387 . S
C1540 H1544 0.950 . S
C1540 C1549 1.390 1_545 S
C1541 C1540 1.387 . S
C1541 C1543 1.387 . S
H1542 C1549 0.950 . S
C1543 C1541 1.387 . S
C1543 C1545 1.390 1_545 S
C1543 H1547 0.950 . S
H1544 C1540 0.950 . S
C1545 C1543 1.390 1_565 S
C1545 C1546 1.387 . S
C1545 H1548 0.950 . S
C1546 C1545 1.387 . S
C1546 C1549 1.387 . S
H1547 C1543 0.950 . S
H1548 C1545 0.950 . S
C1549 C1540 1.390 1_565 S
C1549 H1542 0.950 . S
C1549 C1546 1.387 . S
C1550 C1551 1.387 . S
C1550 H1554 0.950 . S
C1550 C1559 1.390 . S
C1551 C1550 1.387 . S
C1551 C1553 1.387 . S
H1552 C1559 0.950 . S
C1553 C1551 1.387 . S
C1553 C1555 1.390 . S
C1553 H1557 0.950 . S
H1554 C1550 0.950 . S
C1555 C1553 1.390 . S
C1555 C1556 1.387 1_554 S
C1555 H1558 0.950 1_554 S
C1556 C1555 1.387 1_556 S
C1556 C1559 1.387 1_556 S
H1557 C1553 0.950 . S
H1558 C1555 0.950 1_556 S
C1559 C1550 1.390 . S
C1559 H1552 0.950 . S
C1559 C1556 1.387 1_554 S
C1560 C1561 1.387 1_545 S
C1560 H1564 0.950 . S
C1560 C1569 1.390 . S
C1561 C1560 1.387 1_565 S
C1561 C1563 1.387 . S
H1562 C1569 0.950 . S
C1563 C1561 1.387 . S
C1563 C1565 1.390 . S
C1563 H1567 0.950 . S
H1564 C1560 0.950 . S
C1565 C1563 1.390 . S
C1565 C1566 1.387 1_565 S
C1565 H1568 0.950 . S
C1566 C1565 1.387 1_545 S
C1566 C1569 1.387 . S
H1567 C1563 0.950 . S
H1568 C1565 0.950 . S
C1569 C1560 1.390 . S
C1569 H1562 0.950 . S
C1569 C1566 1.387 . S
C1570 C1571 1.387 . S
C1570 H1574 0.950 . S
C1570 C1579 1.390 . S
C1571 C1570 1.387 . S
C1571 C1573 1.387 . S
H1572 C1579 0.950 . S
C1573 C1571 1.387 . S
C1573 C1575 1.390 . S
C1573 H1577 0.950 . S
H1574 C1570 0.950 . S
C1575 C1573 1.390 . S
C1575 C1576 1.387 . S
C1575 H1578 0.950 . S
C1576 C1575 1.387 . S
C1576 C1579 1.387 . S
H1577 C1573 0.950 . S
H1578 C1575 0.950 . S
C1579 C1570 1.390 . S
C1579 H1572 0.950 . S
C1579 C1576 1.387 . S
C1580 C1581 1.387 . S
C1580 H1584 0.950 . S
C1580 C1589 1.390 1_565 S
C1581 C1580 1.387 . S
C1581 C1583 1.387 . S
H1582 C1589 0.950 . S
C1583 C1581 1.387 . S
C1583 C1585 1.390 1_565 S
C1583 H1587 0.950 . S
H1584 C1580 0.950 . S
C1585 C1583 1.390 1_545 S
C1585 C1586 1.387 . S
C1585 H1588 0.950 . S
C1586 C1585 1.387 . S
C1586 C1589 1.387 . S
H1587 C1583 0.950 . S
H1588 C1585 0.950 . S
C1589 C1580 1.390 1_545 S
C1589 H1582 0.950 . S
C1589 C1586 1.387 . S
C1590 C1591 1.387 . S
C1590 H1594 0.950 . S
C1590 C1599 1.390 . S
C1591 C1590 1.387 . S
C1591 C1593 1.387 . S
H1592 C1599 0.950 . S
C1593 C1591 1.387 . S
C1593 C1595 1.390 . S
C1593 H1597 0.950 . S
H1594 C1590 0.950 . S
C1595 C1593 1.390 . S
C1595 C1596 1.387 . S
C1595 H1598 0.950 . S
C1596 C1595 1.387 . S
C1596 C1599 1.387 . S
H1597 C1593 0.950 . S
H1598 C1595 0.950 . S
C1599 C1590 1.390 . S
C1599 H1592 0.950 . S
C1599 C1596 1.387 . S
C641 C18 0.862 . S
C646 C81 0.866 . S
C651 C101 0.856 . S
C656 C38 0.856 . S
C661 C41 0.743 . S
C666 C121 0.743 . S
C671 C141 0.759 . S
C676 C61 0.759 . S
C681 C179 0.859 . S
C686 C242 0.862 . S
C691 C199 0.856 . S
C696 C262 0.856 . S
C701 C282 0.743 . S
C706 C202 0.743 . S
C711 C222 0.753 . S
C716 C302 0.753 1_554 S
C721 C401 0.866 . S
C726 C338 0.865 . S
C731 C358 0.855 . S
C736 C421 0.852 . S
C741 C361 0.743 . S
C746 C441 0.743 . S
C751 C381 0.759 . S
C756 C461 0.759 . S
C761 C499 0.863 . S
C766 C562 0.866 . S
C771 C582 0.852 . S
C776 C519 0.853 . S
C781 C522 0.743 . S
C786 C602 0.743 . S
C791 C622 0.753 . S
C796 C542 0.753 . S
C801 C428 1.534 . S
C806 C9 1.525 . S
C811 C448 1.600 . S
C816 C29 1.601 . S
C821 C468 1.608 . S
C826 C48 1.602 . S
C831 C68 1.538 . S
C836 C408 1.539 . S
C841 C88 1.541 . S
C846 C388 1.538 . S
C851 C329 1.525 . S
C856 C108 1.533 . S
C861 C128 1.600 1_556 S
C866 C349 1.601 . S
C871 C148 1.610 . S
C876 C368 1.605 . S
C881 C168 1.521 . S
C886 C589 1.530 . S
C891 C609 1.596 . S
C896 C188 1.597 . S
C901 C629 1.607 . S
C906 C209 1.606 . S
C911 C229 1.539 . S
C916 C569 1.539 . S
C921 C249 1.541 . S
C926 C549 1.537 . S
C931 C269 1.532 . S
C936 C488 1.524 . S
C941 C289 1.599 . S
C946 C508 1.600 . S
C951 C309 1.607 . S
C956 C529 1.602 1_556 S
C961 C169 0.641 . S
C966 C8 0.641 . S
C971 C28 0.656 . S
C976 C509 0.656 . S
C981 C208 0.645 . S
C986 C49 0.645 . S
C991 C69 0.648 . S
C996 C548 0.648 . S
C1001 C248 0.396 . S
C1006 C89 0.396 . S
C1011 C588 0.383 . S
C1016 C109 0.383 . S
C1021 C129 0.651 . S
C1026 C288 0.651 . S
C1031 C149 0.657 . S
C1036 C628 0.657 . S
C1041 C348 0.648 . S
C1046 C189 0.648 . S
C1051 C389 0.650 . S
C1056 C228 0.650 . S
C1061 C268 0.376 . S
C1066 C429 0.376 . S
C1071 C469 0.658 . S
C1076 C308 0.658 . S
C1081 C489 0.648 . S
C1086 C328 0.648 . S
C1091 C528 0.644 . S
C1096 C369 0.644 . S
C1101 C568 0.397 . S
C1106 C409 0.397 . S
C1111 C449 0.640 . S
C1116 C608 0.640 . S
C1121 C19 1.702 . S
C1126 C258 1.705 . S
C1131 C598 1.707 1_554 S
C1136 C39 1.701 . S
C1141 C298 1.567 . S
C1146 C42 1.534 . S
C1151 C62 1.541 . S
C1156 C638 1.571 . S
C1161 C161 1.346 . S
C1166 C82 1.334 . S
C1171 C501 1.333 . S
C1176 C102 1.321 . S
C1181 C218 1.564 . S
C1186 C122 1.532 . S
C1191 C558 1.574 . S
C1196 C142 1.543 . S
C1201 C99 1.705 . S
C1206 C178 1.702 . S
C1211 C439 1.707 . S
C1216 C198 1.701 . S
C1221 C139 1.569 . S
C1226 C201 1.536 . S
C1231 C221 1.539 . S
C1236 C479 1.572 . S
C1241 C2 1.346 . S
C1246 C241 1.334 . S
C1251 C342 1.334 1_554 S
C1256 C261 1.321 . S
C1261 C281 1.533 . S
C1266 C59 1.564 . S
C1271 C301 1.545 . S
C1276 C399 1.575 . S
C1281 C578 1.708 . S
C1286 C339 1.703 . S
C1291 C278 1.709 . S
C1296 C359 1.702 . S
C1301 C362 1.534 . S
C1306 C618 1.566 . S
C1311 C318 1.571 . S
C1316 C382 1.538 . S
C1321 C402 1.334 . S
C1326 C481 1.344 . S
C1331 C422 1.319 . S
C1336 C181 1.333 . S
C1341 C538 1.566 . S
C1346 C442 1.535 . S
C1351 C238 1.574 . S
C1356 C462 1.543 1_554 S
C1361 C498 1.703 . S
C1366 C419 1.710 . S
C1371 C518 1.702 . S
C1376 C119 1.707 . S
C1381 C521 1.536 . S
C1386 C459 1.569 . S
C1391 C541 1.538 1_554 S
C1396 C159 1.571 . S
C1401 C322 1.346 . S
C1406 C561 1.334 . S
C1411 C22 1.334 . S
C1416 C581 1.320 . S
C1421 C601 1.535 . S
C1426 C379 1.566 . S
C1431 C79 1.573 . S
C1436 C621 1.543 . S
C1441 C98 2.064 . S
C1446 C1 2.025 . S
C1451 C118 2.059 . S
C1456 C21 2.021 . S
C1461 C58 2.276 . S
C1466 C138 2.275 . S
C1471 C158 2.282 . S
C1476 C78 2.281 . S
C1481 C259 2.065 . S
C1486 C162 2.026 . S
C1491 C182 2.021 1_554 S
C1496 C279 2.059 . S
C1501 C219 2.275 . S
C1506 C299 2.275 . S
C1511 C319 2.282 . S
C1516 C239 2.281 . S
C1521 C321 2.026 . S
C1526 C418 2.063 . S
C1531 C438 2.058 . S
C1536 C341 2.021 . S
C1541 C378 2.276 . S
C1546 C458 2.276 . S
C1551 C398 2.281 . S
C1556 C478 2.282 . S
C1561 C579 2.065 1_556 S
C1566 C482 2.026 . S
C1571 C599 2.059 . S
C1576 C502 2.021 . S
C1581 C539 2.276 . S
C1586 C619 2.276 . S
C1591 C639 2.282 . S
C1596 C559 2.281 1_554 S
