# Generated by pormake.
# Topology ecv, (8)-cn, num edge types: 1
# Building blocks:
#     Node 0, Type 0, BuildingBlock: EBIMEJ_clean_sbu_0, # of connection points: 8
#     Node 1, Type 0, BuildingBlock: EBIMEJ_clean_sbu_0, # of connection points: 8
#     Node 2, Type 0, BuildingBlock: EBIMEJ_clean_sbu_0, # of connection points: 8
#     Node 3, Type 0, BuildingBlock: EBIMEJ_clean_sbu_0, # of connection points: 8
#     Node 4, Type 0, BuildingBlock: EBIMEJ_clean_sbu_0, # of connection points: 8
#     Node 5, Type 0, BuildingBlock: EBIMEJ_clean_sbu_0, # of connection points: 8
#     Node 6, Type 0, BuildingBlock: EBIMEJ_clean_sbu_0, # of connection points: 8
#     Node 7, Type 0, BuildingBlock: EBIMEJ_clean_sbu_0, # of connection points: 8
#     Node 8, Type 0, BuildingBlock: EBIMEJ_clean_sbu_0, # of connection points: 8
#     Node 9, Type 0, BuildingBlock: EBIMEJ_clean_sbu_0, # of connection points: 8
#     Node 10, Type 0, BuildingBlock: EBIMEJ_clean_sbu_0, # of connection points: 8
#     Node 11, Type 0, BuildingBlock: EBIMEJ_clean_sbu_0, # of connection points: 8
#     Node 12, Type 0, BuildingBlock: EBIMEJ_clean_sbu_0, # of connection points: 8
#     Node 13, Type 0, BuildingBlock: EBIMEJ_clean_sbu_0, # of connection points: 8
#     Node 14, Type 0, BuildingBlock: EBIMEJ_clean_sbu_0, # of connection points: 8
#     Node 15, Type 0, BuildingBlock: EBIMEJ_clean_sbu_0, # of connection points: 8
#     Edge 16, Type (0, 0), BuildingBlock: XUDNAN_clean_linker_2, # of connection points: 2
#     Edge 17, Type (0, 0), BuildingBlock: XUDNAN_clean_linker_2, # of connection points: 2
#     Edge 18, Type (0, 0), BuildingBlock: XUDNAN_clean_linker_2, # of connection points: 2
#     Edge 19, Type (0, 0), BuildingBlock: XUDNAN_clean_linker_2, # of connection points: 2
#     Edge 20, Type (0, 0), BuildingBlock: XUDNAN_clean_linker_2, # of connection points: 2
#     Edge 21, Type (0, 0), BuildingBlock: XUDNAN_clean_linker_2, # of connection points: 2
#     Edge 22, Type (0, 0), BuildingBlock: XUDNAN_clean_linker_2, # of connection points: 2
#     Edge 23, Type (0, 0), BuildingBlock: XUDNAN_clean_linker_2, # of connection points: 2
#     Edge 24, Type (0, 0), BuildingBlock: XUDNAN_clean_linker_2, # of connection points: 2
#     Edge 25, Type (0, 0), BuildingBlock: XUDNAN_clean_linker_2, # of connection points: 2
#     Edge 26, Type (0, 0), BuildingBlock: XUDNAN_clean_linker_2, # of connection points: 2
#     Edge 27, Type (0, 0), BuildingBlock: XUDNAN_clean_linker_2, # of connection points: 2
#     Edge 28, Type (0, 0), BuildingBlock: XUDNAN_clean_linker_2, # of connection points: 2
#     Edge 29, Type (0, 0), BuildingBlock: XUDNAN_clean_linker_2, # of connection points: 2
#     Edge 30, Type (0, 0), BuildingBlock: XUDNAN_clean_linker_2, # of connection points: 2
#     Edge 31, Type (0, 0), BuildingBlock: XUDNAN_clean_linker_2, # of connection points: 2
#     Edge 32, Type (0, 0), BuildingBlock: XUDNAN_clean_linker_2, # of connection points: 2
#     Edge 33, Type (0, 0), BuildingBlock: XUDNAN_clean_linker_2, # of connection points: 2
#     Edge 34, Type (0, 0), BuildingBlock: XUDNAN_clean_linker_2, # of connection points: 2
#     Edge 35, Type (0, 0), BuildingBlock: XUDNAN_clean_linker_2, # of connection points: 2
#     Edge 36, Type (0, 0), BuildingBlock: XUDNAN_clean_linker_2, # of connection points: 2
#     Edge 37, Type (0, 0), BuildingBlock: XUDNAN_clean_linker_2, # of connection points: 2
#     Edge 38, Type (0, 0), BuildingBlock: XUDNAN_clean_linker_2, # of connection points: 2
#     Edge 39, Type (0, 0), BuildingBlock: XUDNAN_clean_linker_2, # of connection points: 2
#     Edge 40, Type (0, 0), BuildingBlock: XUDNAN_clean_linker_2, # of connection points: 2
#     Edge 41, Type (0, 0), BuildingBlock: XUDNAN_clean_linker_2, # of connection points: 2
#     Edge 42, Type (0, 0), BuildingBlock: XUDNAN_clean_linker_2, # of connection points: 2
#     Edge 43, Type (0, 0), BuildingBlock: XUDNAN_clean_linker_2, # of connection points: 2
#     Edge 44, Type (0, 0), BuildingBlock: XUDNAN_clean_linker_2, # of connection points: 2
#     Edge 45, Type (0, 0), BuildingBlock: XUDNAN_clean_linker_2, # of connection points: 2
#     Edge 46, Type (0, 0), BuildingBlock: XUDNAN_clean_linker_2, # of connection points: 2
#     Edge 47, Type (0, 0), BuildingBlock: XUDNAN_clean_linker_2, # of connection points: 2
#     Edge 48, Type (0, 0), BuildingBlock: XUDNAN_clean_linker_2, # of connection points: 2
#     Edge 49, Type (0, 0), BuildingBlock: XUDNAN_clean_linker_2, # of connection points: 2
#     Edge 50, Type (0, 0), BuildingBlock: XUDNAN_clean_linker_2, # of connection points: 2
#     Edge 51, Type (0, 0), BuildingBlock: XUDNAN_clean_linker_2, # of connection points: 2
#     Edge 52, Type (0, 0), BuildingBlock: XUDNAN_clean_linker_2, # of connection points: 2
#     Edge 53, Type (0, 0), BuildingBlock: XUDNAN_clean_linker_2, # of connection points: 2
#     Edge 54, Type (0, 0), BuildingBlock: XUDNAN_clean_linker_2, # of connection points: 2
#     Edge 55, Type (0, 0), BuildingBlock: XUDNAN_clean_linker_2, # of connection points: 2
#     Edge 56, Type (0, 0), BuildingBlock: XUDNAN_clean_linker_2, # of connection points: 2
#     Edge 57, Type (0, 0), BuildingBlock: XUDNAN_clean_linker_2, # of connection points: 2
#     Edge 58, Type (0, 0), BuildingBlock: XUDNAN_clean_linker_2, # of connection points: 2
#     Edge 59, Type (0, 0), BuildingBlock: XUDNAN_clean_linker_2, # of connection points: 2
#     Edge 60, Type (0, 0), BuildingBlock: XUDNAN_clean_linker_2, # of connection points: 2
#     Edge 61, Type (0, 0), BuildingBlock: XUDNAN_clean_linker_2, # of connection points: 2
#     Edge 62, Type (0, 0), BuildingBlock: XUDNAN_clean_linker_2, # of connection points: 2
#     Edge 63, Type (0, 0), BuildingBlock: XUDNAN_clean_linker_2, # of connection points: 2
#     Edge 64, Type (0, 0), BuildingBlock: XUDNAN_clean_linker_2, # of connection points: 2
#     Edge 65, Type (0, 0), BuildingBlock: XUDNAN_clean_linker_2, # of connection points: 2
#     Edge 66, Type (0, 0), BuildingBlock: XUDNAN_clean_linker_2, # of connection points: 2
#     Edge 67, Type (0, 0), BuildingBlock: XUDNAN_clean_linker_2, # of connection points: 2
#     Edge 68, Type (0, 0), BuildingBlock: XUDNAN_clean_linker_2, # of connection points: 2
#     Edge 69, Type (0, 0), BuildingBlock: XUDNAN_clean_linker_2, # of connection points: 2
#     Edge 70, Type (0, 0), BuildingBlock: XUDNAN_clean_linker_2, # of connection points: 2
#     Edge 71, Type (0, 0), BuildingBlock: XUDNAN_clean_linker_2, # of connection points: 2
#     Edge 72, Type (0, 0), BuildingBlock: XUDNAN_clean_linker_2, # of connection points: 2
#     Edge 73, Type (0, 0), BuildingBlock: XUDNAN_clean_linker_2, # of connection points: 2
#     Edge 74, Type (0, 0), BuildingBlock: XUDNAN_clean_linker_2, # of connection points: 2
#     Edge 75, Type (0, 0), BuildingBlock: XUDNAN_clean_linker_2, # of connection points: 2
#     Edge 76, Type (0, 0), BuildingBlock: XUDNAN_clean_linker_2, # of connection points: 2
#     Edge 77, Type (0, 0), BuildingBlock: XUDNAN_clean_linker_2, # of connection points: 2
#     Edge 78, Type (0, 0), BuildingBlock: XUDNAN_clean_linker_2, # of connection points: 2
#     Edge 79, Type (0, 0), BuildingBlock: XUDNAN_clean_linker_2, # of connection points: 2
# Relax obj value: 0.075
# Max RMSD: 0.179
# Mean RMSD: 0.179
data_MOF--net-ecv--node1-EBIMEJ_clean_sbu_0--edge1-XUDNAN_clean_linker_2
_symmetry_space_group_name_H-M    P1
_symmetry_Int_Tables_number       1
_symmetry_cell_setting            triclinic
loop_
_symmetry_equiv_pos_as_xyz
'x, y, z'
_cell_length_a     15.970331
_cell_length_b     29.081837
_cell_length_c     136.86717
_cell_angle_alpha  101.18466
_cell_angle_beta   90.000717
_cell_angle_gamma 89.997165
loop_
_atom_site_label
_atom_site_type_symbol
_atom_site_fract_x
_atom_site_fract_y
_atom_site_fract_z
_atom_type_partial_charge
Co0 Co 0.19079 0.18058 0.43656 0.0
Co1 Co 0.088 0.10746 0.44823 0.0
Co2 Co 0.17873 0.18991 0.46024 0.0
H3 H 0.18304 0.17196 0.4485 0.0
O4 O 0.19135 0.14214 0.44699 0.0
H5 H 0.09295 0.12202 0.46019 0.0
O6 O 0.08135 0.1515 0.46188 0.0
Co7 Co 0.09945 0.11283 0.47212 0.0
O8 O 0.98632 0.08657 0.46725 0.0
O9 O 0.98464 0.07416 0.45051 0.0
O10 O 0.16628 0.16147 0.48181 0.0
O11 O 0.17348 0.22396 0.47444 0.0
O12 O 0.21156 0.22191 0.42602 0.0
O13 O 0.26994 0.15745 0.42463 0.0
O14 O 0.19635 0.07219 0.46674 0.0
O15 O 0.16107 0.05142 0.45072 0.0
C16 C 0.32442 0.22265 0.45042 0.0
C17 C 0.06746 0.10703 0.4269 0.0
C18 C 0.06071 0.09291 0.4887 0.0
C19 C 0.07507 0.25114 0.44826 0.0
C20 C 0.95132 0.07118 0.45885 0.0
C21 C 0.18021 0.20504 0.48215 0.0
C22 C 0.26074 0.19329 0.42088 0.0
C23 C 0.20432 0.04492 0.45833 0.0
O24 O 0.30689 0.19409 0.44239 0.0
O25 O 0.27636 0.22811 0.458 0.0
O26 O 0.08027 0.08062 0.43336 0.0
O27 O 0.093 0.14944 0.42843 0.0
O28 O 0.09317 0.06448 0.48162 0.0
O29 O 0.05074 0.1322 0.48634 0.0
O30 O 0.10276 0.23011 0.43986 0.0
O31 O 0.09881 0.23953 0.45645 0.0
Co32 Co 0.18701 0.09901 0.84806 0.0
Co33 Co 0.08926 0.17437 0.83641 0.0
Co34 Co 0.1774 0.09245 0.8241 0.0
H35 H 0.18008 0.10808 0.83602 0.0
O36 O 0.18963 0.13765 0.83764 0.0
H37 H 0.09854 0.16353 0.82447 0.0
O38 O 0.0853 0.13459 0.82229 0.0
Co39 Co 0.11179 0.17841 0.8131 0.0
O40 O 0.03772 0.23169 0.82011 0.0
O41 O 0.99189 0.21219 0.83425 0.0
O42 O 0.16496 0.12531 0.80278 0.0
O43 O 0.17271 0.06111 0.80971 0.0
O44 O 0.2029 0.05965 0.8591 0.0
O45 O 0.26144 0.12391 0.86039 0.0
O46 O 0.20078 0.22509 0.81917 0.0
O47 O 0.16714 0.22919 0.83518 0.0
C48 C 0.31743 0.05699 0.83409 0.0
C49 C 0.06848 0.17429 0.85796 0.0
C50 C 0.05731 0.19809 0.79713 0.0
C51 C 0.07 0.03047 0.8355 0.0
C52 C 0.99074 0.23851 0.82783 0.0
C53 C 0.17711 0.08119 0.80213 0.0
C54 C 0.25026 0.08895 0.86437 0.0
C55 C 0.20834 0.24424 0.82833 0.0
O56 O 0.30182 0.08864 0.84169 0.0
O57 O 0.26997 0.0509 0.82646 0.0
O58 O 0.07904 0.1993 0.85124 0.0
O59 O 0.09521 0.13227 0.85691 0.0
O60 O 0.13137 0.20512 0.80018 0.0
O61 O 0.01538 0.17899 0.80302 0.0
O62 O 0.10145 0.04842 0.84393 0.0
O63 O 0.09146 0.04445 0.82745 0.0
Co64 Co 0.9201 0.93543 0.56532 0.0
Co65 Co 0.82496 0.84916 0.57395 0.0
Co66 Co 0.90715 0.92744 0.58855 0.0
H67 H 0.91264 0.91815 0.57658 0.0
O68 O 0.92462 0.88908 0.57429 0.0
H69 H 0.82151 0.85837 0.58596 0.0
O70 O 0.80881 0.88727 0.58822 0.0
Co71 Co 0.82056 0.84317 0.59749 0.0
O72 O 0.71995 0.80929 0.59069 0.0
O73 O 0.72368 0.8106 0.57433 0.0
O74 O 0.91189 0.87643 0.6066 0.0
O75 O 0.90176 0.94898 0.60346 0.0
O76 O 0.91637 0.99618 0.55945 0.0
O77 O 0.96614 0.93566 0.55108 0.0
O78 O 0.90634 0.79263 0.59253 0.0
O79 O 0.89948 0.79478 0.57627 0.0
C80 C 0.04795 0.96427 0.58016 0.0
C81 C 0.8401 0.84872 0.5521 0.0
C82 C 0.73196 0.84101 0.61268 0.0
C83 C 0.80087 0.99679 0.57875 0.0
C84 C 0.68925 0.79932 0.58193 0.0
C85 C 0.92187 0.92068 0.60923 0.0
C86 C 0.94917 0.97796 0.55127 0.0
C87 C 0.92701 0.77646 0.58352 0.0
O88 O 0.02874 0.93189 0.57285 0.0
O89 O 0.00493 0.96804 0.58808 0.0
O90 O 0.833 0.82422 0.55896 0.0
O91 O 0.86388 0.89144 0.554 0.0
O92 O 0.81067 0.83914 0.6126 0.0
O93 O 0.70471 0.84413 0.60424 0.0
O94 O 0.82946 0.98131 0.57007 0.0
O95 O 0.82644 0.98089 0.58643 0.0
Co96 Co 0.8878 0.8582 0.22125 0.0
Co97 Co 0.82381 0.94606 0.21103 0.0
Co98 Co 0.90955 0.86429 0.19805 0.0
H99 H 0.90082 0.87389 0.20996 0.0
O100 O 0.91508 0.90254 0.21227 0.0
H101 H 0.8211 0.93266 0.19907 0.0
O102 O 0.80989 0.90327 0.1971 0.0
Co103 Co 0.82066 0.94507 0.18731 0.0
O104 O 0.76148 1.00324 0.19431 0.0
O105 O 0.73307 0.99018 0.20956 0.0
O106 O 0.90898 0.90946 0.17828 0.0
O107 O 0.91823 0.84042 0.18314 0.0
O108 O 0.90202 0.8091 0.23046 0.0
O109 O 0.92488 0.87915 0.23596 0.0
O110 O 0.91614 0.98853 0.19191 0.0
O111 O 0.91266 0.99468 0.20847 0.0
C112 C 0.0395 0.82046 0.20826 0.0
C113 C 0.80129 0.94448 0.23144 0.0
C114 C 0.74904 0.9473 0.17094 0.0
C115 C 0.79657 0.79064 0.20603 0.0
C116 C 0.72747 1.01484 0.20285 0.0
C117 C 0.9323 0.86672 0.17675 0.0
C118 C 0.92346 0.83886 0.23797 0.0
C119 C 0.94288 1.00663 0.20055 0.0
O120 O 1.00241 0.8329 0.21664 0.0
O121 O 0.00916 0.82727 0.20002 0.0
O122 O 0.8267 0.9722 0.22581 0.0
O123 O 0.79354 0.90073 0.22782 0.0
O124 O 0.71552 0.93194 0.17799 0.0
O125 O 0.82247 0.96052 0.17319 0.0
O126 O 0.8064 0.80786 0.21523 0.0
O127 O 0.83321 0.80836 0.1992 0.0
Co128 Co 0.17659 0.69448 0.93777 0.0
Co129 Co 0.10546 0.60453 0.94694 0.0
Co130 Co 0.17697 0.68744 0.96118 0.0
H131 H 0.18007 0.67831 0.94919 0.0
O132 O 0.19662 0.6501 0.94687 0.0
H133 H 0.10982 0.61145 0.95888 0.0
O134 O 0.09147 0.63904 0.96143 0.0
Co135 Co 0.12229 0.59351 0.96997 0.0
O136 O 0.04868 0.54162 0.96263 0.0
O137 O 0.01646 0.55846 0.94772 0.0
O138 O 0.20134 0.63886 0.97881 0.0
O139 O 0.16931 0.70992 0.9761 0.0
O140 O 0.19999 0.72966 0.92625 0.0
O141 O 0.25718 0.66593 0.92609 0.0
O142 O 0.20992 0.54765 0.96372 0.0
O143 O 0.19301 0.55346 0.94776 0.0
C144 C 0.26866 0.76192 0.95394 0.0
C145 C 0.07932 0.613 0.92624 0.0
C146 C 0.07203 0.57624 0.98636 0.0
C147 C 0.05893 0.75341 0.95203 0.0
C148 C 0.00949 0.53328 0.95434 0.0
C149 C 0.19274 0.68295 0.98201 0.0
C150 C 0.24917 0.69953 0.92159 0.0
C151 C 0.22739 0.53448 0.95455 0.0
O152 O 0.2367 0.75083 0.94528 0.0
O153 O 0.26091 0.73703 0.9606 0.0
O154 O 0.10289 0.58491 0.93191 0.0
O155 O 0.08967 0.6572 0.92878 0.0
O156 O 0.11345 0.54833 0.98003 0.0
O157 O 0.05918 0.61393 0.98339 0.0
O158 O 0.08998 0.74321 0.94331 0.0
O159 O 0.08313 0.73296 0.95911 0.0
Co160 Co 0.19401 0.60291 0.3477 0.0
Co161 Co 0.0842 0.67526 0.33694 0.0
Co162 Co 0.17664 0.59589 0.32394 0.0
H163 H 0.18324 0.61232 0.33578 0.0
O164 O 0.19036 0.64219 0.33744 0.0
H165 H 0.08676 0.66361 0.32508 0.0
O166 O 0.07709 0.63414 0.32294 0.0
Co167 Co 0.088 0.67835 0.31367 0.0
O168 O 0.96835 0.68897 0.31864 0.0
O169 O 0.97793 0.70732 0.33531 0.0
O170 O 0.1304 0.6258 0.30289 0.0
O171 O 0.16882 0.56354 0.30945 0.0
O172 O 0.21244 0.56234 0.35842 0.0
O173 O 0.27535 0.6253 0.35947 0.0
O174 O 0.1815 0.72218 0.31877 0.0
O175 O 0.15074 0.73409 0.33498 0.0
C176 C 0.32457 0.56356 0.33324 0.0
C177 C 0.06755 0.67234 0.35808 0.0
C178 C 0.05868 0.72098 0.29965 0.0
C179 C 0.07951 0.53182 0.33589 0.0
C180 C 0.93773 0.70642 0.32719 0.0
C181 C 0.15467 0.58329 0.30196 0.0
C182 C 0.26375 0.59019 0.3634 0.0
C183 C 0.18906 0.74598 0.32754 0.0
O184 O 0.30828 0.59355 0.34111 0.0
O185 O 0.27574 0.55764 0.32572 0.0
O186 O 0.07953 0.6998 0.35185 0.0
O187 O 0.09547 0.63035 0.35635 0.0
O188 O 0.05681 0.73932 0.30876 0.0
O189 O 0.07829 0.67846 0.29849 0.0
O190 O 0.10951 0.55194 0.34422 0.0
O191 O 0.09925 0.54496 0.3277 0.0
Co192 Co 0.91507 0.42482 0.06339 0.0
Co193 Co 0.82089 0.34627 0.0744 0.0
Co194 Co 0.91898 0.42372 0.08706 0.0
H195 H 0.91415 0.41181 0.07508 0.0
O196 O 0.92222 0.38212 0.07309 0.0
H197 H 0.82442 0.3584 0.08631 0.0
O198 O 0.81698 0.388 0.08842 0.0
Co199 Co 0.82626 0.34467 0.09791 0.0
O200 O 0.72278 0.30964 0.09249 0.0
O201 O 0.71781 0.31103 0.07616 0.0
O202 O 0.92809 0.37447 0.10527 0.0
O203 O 0.93021 0.44706 0.10197 0.0
O204 O 0.91727 0.48547 0.05748 0.0
O205 O 0.9519 0.42242 0.04869 0.0
O206 O 0.9058 0.29084 0.09294 0.0
O207 O 0.8954 0.29177 0.07667 0.0
C208 C 0.06 0.45317 0.07657 0.0
C209 C 0.82818 0.33612 0.05209 0.0
C210 C 0.74267 0.35104 0.11371 0.0
C211 C 0.80539 0.4903 0.07759 0.0
C212 C 0.68738 0.30001 0.08401 0.0
C213 C 0.94936 0.41757 0.10756 0.0
C214 C 0.94239 0.46554 0.04901 0.0
C215 C 0.92418 0.27378 0.0839 0.0
O216 O 0.03375 0.42498 0.06885 0.0
O217 O 0.01885 0.45958 0.08471 0.0
O218 O 0.8189 0.3175 0.05981 0.0
O219 O 0.85849 0.37716 0.0525 0.0
O220 O 0.81044 0.32884 0.1121 0.0
O221 O 0.72389 0.36961 0.10645 0.0
O222 O 0.82363 0.46944 0.0688 0.0
O223 O 0.84098 0.47907 0.0853 0.0
Co224 Co 0.89475 0.35131 0.72047 0.0
Co225 Co 0.83128 0.44074 0.71084 0.0
Co226 Co 0.90922 0.35851 0.69692 0.0
H227 H 0.90362 0.36711 0.70901 0.0
O228 O 0.92063 0.39529 0.71131 0.0
H229 H 0.8242 0.42833 0.69889 0.0
O230 O 0.81095 0.39933 0.69681 0.0
Co231 Co 0.82187 0.44163 0.68718 0.0
O232 O 0.76482 0.49941 0.69458 0.0
O233 O 0.74232 0.48694 0.71002 0.0
O234 O 0.90802 0.40683 0.67767 0.0
O235 O 0.91239 0.33634 0.6819 0.0
O236 O 0.84437 0.31435 0.73068 0.0
O237 O 0.96529 0.33942 0.73261 0.0
O238 O 0.92415 0.48046 0.69128 0.0
O239 O 0.92026 0.48801 0.70787 0.0
C240 C 0.03681 0.32225 0.70681 0.0
C241 C 0.83142 0.44335 0.73253 0.0
C242 C 0.73695 0.44852 0.67198 0.0
C243 C 0.79751 0.28567 0.70526 0.0
C244 C 0.73369 0.51117 0.70327 0.0
C245 C 0.92841 0.36361 0.67575 0.0
C246 C 0.90886 0.31699 0.73603 0.0
C247 C 0.95128 0.49874 0.69989 0.0
O248 O 0.00764 0.35471 0.71359 0.0
O249 O 0.00644 0.31831 0.69814 0.0
O250 O 0.84266 0.46749 0.72566 0.0
O251 O 0.83035 0.39854 0.73061 0.0
O252 O 0.77921 0.48083 0.67709 0.0
O253 O 0.74205 0.41184 0.67554 0.0
O254 O 0.81131 0.30192 0.71444 0.0
O255 O 0.83127 0.3037 0.69829 0.0
Co256 Co 0.70001 0.17697 0.93721 0.0
Co257 Co 0.58766 0.1063 0.94832 0.0
Co258 Co 0.68133 0.18602 0.96102 0.0
H259 H 0.68846 0.16846 0.9492 0.0
O260 O 0.69485 0.1385 0.94765 0.0
H261 H 0.59286 0.11801 0.96017 0.0
O262 O 0.5826 0.14743 0.96231 0.0
Co263 Co 0.59986 0.10365 0.97157 0.0
O264 O 0.48341 0.08283 0.96676 0.0
O265 O 0.48031 0.07558 0.95011 0.0
O266 O 0.64047 0.15761 0.98205 0.0
O267 O 0.67316 0.22022 0.97542 0.0
O268 O 0.80056 0.17021 0.92732 0.0
O269 O 0.68832 0.19783 0.92364 0.0
O270 O 0.69099 0.05923 0.96607 0.0
O271 O 0.652 0.04658 0.95013 0.0
C272 C 0.82991 0.2182 0.95165 0.0
C273 C 0.57041 0.10855 0.92716 0.0
C274 C 0.58717 0.07033 0.98719 0.0
C275 C 0.58464 0.24869 0.94875 0.0
C276 C 0.44668 0.07109 0.95835 0.0
C277 C 0.6611 0.20059 0.98297 0.0
C278 C 0.7618 0.18703 0.92083 0.0
C279 C 0.69365 0.0348 0.95734 0.0
O280 O 0.81438 0.18884 0.94366 0.0
O281 O 0.77987 0.22412 0.95906 0.0
O282 O 0.58072 0.08139 0.93346 0.0
O283 O 0.60066 0.14997 0.92874 0.0
O284 O 0.65296 0.08737 0.98429 0.0
O285 O 0.52846 0.07172 0.98114 0.0
O286 O 0.61667 0.22885 0.9405 0.0
O287 O 0.60291 0.23572 0.95699 0.0
Co288 Co 0.67502 0.08766 0.3475 0.0
Co289 Co 0.60363 0.17606 0.33731 0.0
Co290 Co 0.67626 0.09118 0.32405 0.0
H291 H 0.67878 0.10268 0.33599 0.0
O292 O 0.69468 0.13114 0.33811 0.0
H293 H 0.61023 0.16705 0.32526 0.0
O294 O 0.59197 0.13914 0.32301 0.0
Co295 Co 0.6231 0.18226 0.31381 0.0
O296 O 0.55536 0.23757 0.32107 0.0
O297 O 0.51551 0.22161 0.33582 0.0
O298 O 0.67867 0.12981 0.30342 0.0
O299 O 0.66738 0.0638 0.30955 0.0
O300 O 0.69938 0.05127 0.35881 0.0
O301 O 0.75554 0.11548 0.35927 0.0
O302 O 0.71095 0.22871 0.32009 0.0
O303 O 0.69184 0.22596 0.33619 0.0
C304 C 0.76501 1.01737 0.33192 0.0
C305 C 0.57812 0.17162 0.35832 0.0
C306 C 0.57584 0.20062 0.29734 0.0
C307 C 0.55653 0.02769 0.33368 0.0
C308 C 0.51378 0.24704 0.3292 0.0
C309 C 0.68186 0.08498 0.30233 0.0
C310 C 0.74818 0.08123 0.3636 0.0
C311 C 0.72733 0.24343 0.32927 0.0
O312 O 0.73207 0.02924 0.3405 0.0
O313 O 0.75986 0.04217 0.32522 0.0
O314 O 0.59878 0.19853 0.35227 0.0
O315 O 0.58977 0.12742 0.35621 0.0
O316 O 0.59623 0.23094 0.3048 0.0
O317 O 0.58229 0.16025 0.29925 0.0
O318 O 0.58746 0.03858 0.3424 0.0
O319 O 0.5815 0.04724 0.32652 0.0
Co320 Co 0.38532 0.92615 0.06377 0.0
Co321 Co 0.3204 0.84086 0.07443 0.0
Co322 Co 0.40195 0.92386 0.08734 0.0
H323 H 0.39662 0.91253 0.07534 0.0
O324 O 0.41198 0.88394 0.07322 0.0
H325 H 0.32145 0.85303 0.08636 0.0
O326 O 0.30753 0.88188 0.08848 0.0
Co327 Co 0.32827 0.83823 0.09784 0.0
O328 O 0.26586 0.78103 0.09071 0.0
O329 O 0.2287 0.79765 0.07602 0.0
O330 O 0.40637 0.88021 0.1074 0.0
O331 O 0.40778 0.94895 0.10218 0.0
O332 O 0.36677 0.94277 0.04973 0.0
O333 O 0.4844 0.94843 0.05611 0.0
O334 O 0.41984 0.79097 0.0929 0.0
O335 O 0.40626 0.79138 0.07667 0.0
C336 C 0.49668 0.9905 0.07883 0.0
C337 C 0.3224 0.83155 0.05221 0.0
C338 C 0.25305 0.83207 0.1137 0.0
C339 C 0.27239 0.98224 0.07811 0.0
C340 C 0.22596 0.77162 0.08249 0.0
C341 C 0.4236 0.92389 0.10877 0.0
C342 C 0.44186 0.95388 0.0487 0.0
C343 C 0.43945 0.77494 0.08386 0.0
O344 O 0.45329 0.98147 0.07086 0.0
O345 O 0.495 0.96545 0.0855 0.0
O346 O 0.32457 0.81201 0.05986 0.0
O347 O 0.33628 0.87533 0.0528 0.0
O348 O 0.29718 0.80035 0.10866 0.0
O349 O 0.25179 0.86773 0.10976 0.0
O350 O 0.27732 0.95393 0.06978 0.0
O351 O 0.31942 0.97677 0.08546 0.0
Co352 Co 0.39735 0.85306 0.72082 0.0
Co353 Co 0.325 0.93888 0.71089 0.0
Co354 Co 0.41576 0.85989 0.6977 0.0
H355 H 0.40834 0.86919 0.70958 0.0
O356 O 0.42054 0.8981 0.71193 0.0
H357 H 0.32119 0.92527 0.69899 0.0
O358 O 0.31238 0.89565 0.697 0.0
Co359 Co 0.3171 0.93771 0.68729 0.0
O360 O 0.26122 0.99642 0.69455 0.0
O361 O 0.22958 0.98017 0.70946 0.0
O362 O 0.40149 0.90353 0.67741 0.0
O363 O 0.42286 0.8361 0.68276 0.0
O364 O 0.40773 0.80442 0.73014 0.0
O365 O 0.44706 0.8728 0.73494 0.0
O366 O 0.41642 0.97878 0.69145 0.0
O367 O 0.40911 0.98936 0.70808 0.0
C368 C 0.55098 0.81965 0.70768 0.0
C369 C 0.30849 0.93781 0.73158 0.0
C370 C 0.21971 0.93608 0.67275 0.0
C371 C 0.30696 0.78507 0.70575 0.0
C372 C 0.22421 1.00587 0.70294 0.0
C373 C 0.42953 0.86171 0.67611 0.0
C374 C 0.43947 0.8332 0.73721 0.0
C375 C 0.44103 0.99923 0.70005 0.0
O376 O 0.5134 0.8306 0.71606 0.0
O377 O 0.51923 0.82587 0.69947 0.0
O378 O 0.3286 0.96553 0.72569 0.0
O379 O 0.30412 0.89367 0.72821 0.0
O380 O 0.29811 0.93499 0.67215 0.0
O381 O 0.1966 0.93732 0.68158 0.0
O382 O 0.314 0.80366 0.71491 0.0
O383 O 0.3451 0.80199 0.69892 0.0
Co384 Co 0.67334 0.69398 0.43741 0.0
Co385 Co 0.5968 0.60815 0.44788 0.0
Co386 Co 0.68234 0.68959 0.46073 0.0
H387 H 0.67959 0.67836 0.44882 0.0
O388 O 0.69194 0.64944 0.4466 0.0
H389 H 0.60618 0.61718 0.45992 0.0
O390 O 0.59182 0.64582 0.4622 0.0
Co391 Co 0.61921 0.60157 0.47134 0.0
O392 O 0.54883 0.5474 0.46412 0.0
O393 O 0.50451 0.56606 0.44981 0.0
O394 O 0.67339 0.6531 0.482 0.0
O395 O 0.68055 0.71755 0.47525 0.0
O396 O 0.73737 0.66256 0.42447 0.0
O397 O 0.72161 0.73427 0.42778 0.0
O398 O 0.70575 0.5545 0.46482 0.0
O399 O 0.68081 0.55579 0.44876 0.0
C400 C 0.77708 0.75932 0.45254 0.0
C401 C 0.56977 0.61215 0.42679 0.0
C402 C 0.57218 0.58448 0.48795 0.0
C403 C 0.56298 0.75658 0.45168 0.0
C404 C 0.50404 0.53965 0.45623 0.0
C405 C 0.68604 0.69715 0.48274 0.0
C406 C 0.75156 0.70052 0.42166 0.0
C407 C 0.71847 0.53864 0.45559 0.0
O408 O 0.73754 0.75023 0.44432 0.0
O409 O 0.77314 0.73354 0.45906 0.0
O410 O 0.58739 0.58522 0.43296 0.0
O411 O 0.58584 0.65595 0.42872 0.0
O412 O 0.61085 0.55601 0.48142 0.0
O413 O 0.56125 0.6226 0.48508 0.0
O414 O 0.58372 0.74192 0.44262 0.0
O415 O 0.59498 0.73883 0.45878 0.0
Co416 Co 0.68723 0.59736 0.84774 0.0
Co417 Co 0.58802 0.67395 0.83672 0.0
Co418 Co 0.6767 0.59328 0.82403 0.0
H419 H 0.67983 0.60806 0.83589 0.0
O420 O 0.68908 0.63759 0.83767 0.0
H421 H 0.59758 0.66446 0.82477 0.0
O422 O 0.58421 0.63569 0.8224 0.0
Co423 Co 0.61335 0.6807 0.81357 0.0
O424 O 0.53053 0.72981 0.82039 0.0
O425 O 0.48964 0.71162 0.83485 0.0
O426 O 0.65629 0.62636 0.80275 0.0
O427 O 0.67265 0.56256 0.80965 0.0
O428 O 0.71977 0.55462 0.85768 0.0
O429 O 0.75765 0.62391 0.8603 0.0
O430 O 0.70397 0.7249 0.81997 0.0
O431 O 0.66433 0.73012 0.83582 0.0
C432 C 0.81876 0.55695 0.83364 0.0
C433 C 0.56398 0.66885 0.85791 0.0
C434 C 0.58994 0.71723 0.79857 0.0
C435 C 0.56829 0.5307 0.8352 0.0
C436 C 0.4847 0.7367 0.82821 0.0
C437 C 0.67264 0.58266 0.80207 0.0
C438 C 0.75938 0.58609 0.86344 0.0
C439 C 0.7082 0.74472 0.82911 0.0
O440 O 0.80275 0.58632 0.84159 0.0
O441 O 0.76989 0.55177 0.82614 0.0
O442 O 0.57783 0.69628 0.85171 0.0
O443 O 0.58927 0.62637 0.85618 0.0
O444 O 0.61527 0.73849 0.80691 0.0
O445 O 0.57843 0.67448 0.79864 0.0
O446 O 0.59891 0.54843 0.84368 0.0
O447 O 0.59114 0.54471 0.82721 0.0
Co448 Co 0.39459 0.43939 0.5653 0.0
Co449 Co 0.32439 0.34796 0.57316 0.0
Co450 Co 0.40027 0.42709 0.5881 0.0
H451 H 0.40232 0.42008 0.57623 0.0
O452 O 0.41838 0.39203 0.57363 0.0
H453 H 0.31882 0.3561 0.58513 0.0
O454 O 0.30402 0.38457 0.58753 0.0
Co455 Co 0.31925 0.3387 0.59643 0.0
O456 O 0.2429 0.28949 0.58861 0.0
O457 O 0.22989 0.3044 0.57318 0.0
O458 O 0.40443 0.37399 0.60617 0.0
O459 O 0.39674 0.44661 0.60309 0.0
O460 O 0.39601 0.49816 0.55878 0.0
O461 O 0.45014 0.43687 0.55136 0.0
O462 O 0.41236 0.29303 0.59153 0.0
O463 O 0.40555 0.2959 0.57531 0.0
C464 C 0.514 0.49217 0.58118 0.0
C465 C 0.32901 0.35165 0.55167 0.0
C466 C 0.24114 0.3307 0.61204 0.0
C467 C 0.2727 0.48476 0.57904 0.0
C468 C 0.21064 0.28148 0.5799 0.0
C469 C 0.41729 0.41804 0.60879 0.0
C470 C 0.43328 0.4787 0.55098 0.0
C471 C 0.43491 0.2782 0.58256 0.0
O472 O 0.479 0.48482 0.57264 0.0
O473 O 0.49604 0.46946 0.58798 0.0
O474 O 0.33524 0.32509 0.55816 0.0
O475 O 0.33644 0.39603 0.55409 0.0
O476 O 0.2782 0.29791 0.60636 0.0
O477 O 0.24827 0.36829 0.60886 0.0
O478 O 0.28025 0.45493 0.57101 0.0
O479 O 0.32078 0.48163 0.58644 0.0
Co480 Co 0.39775 0.35808 0.22169 0.0
Co481 Co 0.32508 0.44339 0.2111 0.0
Co482 Co 0.41857 0.36449 0.19842 0.0
H483 H 0.4087 0.37371 0.21036 0.0
O484 O 0.41995 0.40283 0.21264 0.0
H485 H 0.32071 0.4281 0.1993 0.0
O486 O 0.31339 0.39835 0.19744 0.0
Co487 Co 0.31549 0.43968 0.18756 0.0
O488 O 0.25452 0.49776 0.19401 0.0
O489 O 0.23031 0.48494 0.20936 0.0
O490 O 0.4256 0.4166 0.18097 0.0
O491 O 0.43032 0.34316 0.18339 0.0
O492 O 0.4209 0.29691 0.22688 0.0
O493 O 0.4084 0.35933 0.23695 0.0
O494 O 0.40821 0.48609 0.19133 0.0
O495 O 0.40996 0.49257 0.2079 0.0
C496 C 0.5541 0.3267 0.2088 0.0
C497 C 0.33004 0.45387 0.23301 0.0
C498 C 0.22418 0.42714 0.17219 0.0
C499 C 0.30602 0.29145 0.2063 0.0
C500 C 0.22168 0.50919 0.20261 0.0
C501 C 0.44602 0.37382 0.17797 0.0
C502 C 0.42256 0.31615 0.23593 0.0
C503 C 0.43665 0.50482 0.19986 0.0
O504 O 0.51618 0.3389 0.21714 0.0
O505 O 0.52258 0.33161 0.20048 0.0
O506 O 0.32949 0.47413 0.22546 0.0
O507 O 0.34785 0.41038 0.23237 0.0
O508 O 0.23731 0.46611 0.17774 0.0
O509 O 0.26109 0.39526 0.17552 0.0
O510 O 0.3088 0.31241 0.21537 0.0
O511 O 0.34929 0.30589 0.19951 0.0
H512 H 0.37874 0.29037 0.46573 0.0
H513 H 0.40492 0.23997 0.43385 0.0
H514 H 0.45483 0.31758 0.43195 0.0
H515 H 0.29124 0.39205 0.46465 0.0
H516 H 0.34282 0.42821 0.47511 0.0
H517 H 0.33006 0.36652 0.47477 0.0
H518 H 0.4899 0.35545 0.47662 0.0
H519 H 0.50291 0.4177 0.47757 0.0
H520 H 0.56091 0.3774 0.46836 0.0
H521 H 0.46801 0.40338 0.43292 0.0
H522 H 0.48536 0.48914 0.4374 0.0
H523 H 0.45025 0.48328 0.46861 0.0
C524 C 0.39897 0.29492 0.45842 0.0
C525 C 0.38629 0.25952 0.44992 0.0
C526 C 0.41345 0.26672 0.44047 0.0
C527 C 0.44128 0.31085 0.4393 0.0
C528 C 0.44377 0.34653 0.44768 0.0
C529 C 0.42693 0.33866 0.45713 0.0
C530 C 0.42791 0.38373 0.46479 0.0
C531 C 0.34295 0.39312 0.47014 0.0
C532 C 0.49972 0.38356 0.47227 0.0
C533 C 0.44406 0.41823 0.45808 0.0
C534 C 0.4527 0.39616 0.44825 0.0
C535 C 0.46348 0.42107 0.44062 0.0
C536 C 0.47145 0.46979 0.44322 0.0
C537 C 0.46912 0.49254 0.45335 0.0
C538 C 0.45226 0.46659 0.46081 0.0
H539 H 0.88843 1.00908 0.44315 0.0
H540 H 0.85903 0.05884 0.47497 0.0
H541 H 0.80365 0.98215 0.47665 0.0
H542 H 0.70305 0.91918 0.44038 0.0
H543 H 0.7635 0.88015 0.43119 0.0
H544 H 0.77127 0.94266 0.43206 0.0
H545 H 0.93195 0.93508 0.43374 0.0
H546 H 0.92476 0.87344 0.43367 0.0
H547 H 0.97415 0.91173 0.444 0.0
H548 H 0.79779 0.89665 0.47579 0.0
H549 H 0.79163 0.81037 0.47142 0.0
H550 H 0.82812 0.81652 0.44026 0.0
C551 C 0.86528 1.00487 0.45036 0.0
C552 C 0.8807 0.03904 0.45897 0.0
C553 C 0.8493 0.03254 0.46829 0.0
C554 C 0.81813 0.98898 0.46934 0.0
C555 C 0.8159 0.95353 0.46093 0.0
C556 C 0.83435 0.96153 0.45151 0.0
C557 C 0.83683 0.91635 0.4439 0.0
C558 C 0.76432 0.91447 0.43645 0.0
C559 C 0.92199 0.90877 0.43853 0.0
C560 C 0.82399 0.88181 0.45066 0.0
C561 C 0.8114 0.90383 0.46043 0.0
C562 C 0.80436 0.87892 0.46811 0.0
C563 C 0.80305 0.82999 0.46559 0.0
C564 C 0.80857 0.8071 0.4555 0.0
C565 C 0.82311 0.8333 0.44803 0.0
H566 H 0.38727 0.99109 0.81957 0.0
H567 H 0.36373 0.033 0.85165 0.0
H568 H 0.39794 0.9529 0.85357 0.0
H569 H 0.29498 0.88726 0.81631 0.0
H570 H 0.36583 0.8546 0.80729 0.0
H571 H 0.35567 0.91689 0.80829 0.0
H572 H 0.515 0.92908 0.81147 0.0
H573 H 0.52604 0.8665 0.8099 0.0
H574 H 0.5646 0.90385 0.82104 0.0
H575 H 0.40485 0.86586 0.85168 0.0
H576 H 0.42933 0.78092 0.84659 0.0
H577 H 0.4519 0.79701 0.81577 0.0
C578 C 0.39303 0.98388 0.82702 0.0
C579 C 0.3707 1.01767 0.83543 0.0
C580 C 0.37941 1.00735 0.84508 0.0
C581 C 0.39823 0.96184 0.84626 0.0
C582 C 0.41131 0.92802 0.83772 0.0
C583 C 0.41325 0.93895 0.82833 0.0
C584 C 0.4278 0.89602 0.82036 0.0
C585 C 0.35677 0.88828 0.81261 0.0
C586 C 0.51349 0.89906 0.81541 0.0
C587 C 0.42749 0.8589 0.82668 0.0
C588 C 0.41818 0.87803 0.83667 0.0
C589 C 0.41422 0.85043 0.8439 0.0
C590 C 0.42658 0.80214 0.84091 0.0
C591 C 0.44319 0.78245 0.83079 0.0
C592 C 0.4395 0.81101 0.82356 0.0
H593 H 0.93785 0.29494 0.81544 0.0
H594 H 0.96764 0.28801 0.84666 0.0
H595 H 0.95024 0.37371 0.85124 0.0
H596 H 0.04962 0.39989 0.81601 0.0
H597 H 0.98044 0.4224 0.80765 0.0
H598 H 0.99178 0.36004 0.80669 0.0
H599 H 0.83157 0.35046 0.80887 0.0
H600 H 0.81957 0.41228 0.80928 0.0
H601 H 0.77922 0.38652 0.81928 0.0
H602 H 0.94047 0.45978 0.85228 0.0
H603 H 0.89545 0.53825 0.85033 0.0
H604 H 0.87148 0.48851 0.81841 0.0
C605 C 0.93843 0.31138 0.82325 0.0
C606 C 0.95412 0.28518 0.83069 0.0
C607 C 0.95467 0.30757 0.84085 0.0
C608 C 0.94665 0.35625 0.84351 0.0
C609 C 0.9374 0.38144 0.83591 0.0
C610 C 0.93017 0.3597 0.82604 0.0
C611 C 0.91598 0.39456 0.81936 0.0
C612 C 0.98882 0.39418 0.81199 0.0
C613 C 0.83156 0.38544 0.81388 0.0
C614 C 0.91493 0.43937 0.82707 0.0
C615 C 0.92987 0.43113 0.83653 0.0
C616 C 0.92817 0.46676 0.84493 0.0
C617 C 0.90317 0.51134 0.84372 0.0
C618 C 0.87796 0.51901 0.83423 0.0
C619 C 0.89001 0.48353 0.82575 0.0
H620 H 0.6134 0.53433 0.56949 0.0
H621 H 0.49917 0.55279 0.59877 0.0
H622 H 0.50611 0.63847 0.60027 0.0
H623 H 0.75553 0.63637 0.57537 0.0
H624 H 0.74429 0.64799 0.56297 0.0
H625 H 0.73542 0.58898 0.56502 0.0
H626 H 0.5899 0.5838 0.55629 0.0
H627 H 0.59674 0.64401 0.55488 0.0
H628 H 0.509 0.62485 0.56134 0.0
H629 H 0.5076 0.72016 0.59767 0.0
H630 H 0.55913 0.79551 0.59442 0.0
H631 H 0.67465 0.72395 0.56703 0.0
C632 C 0.59363 0.55652 0.57641 0.0
C633 C 0.55538 0.53737 0.58399 0.0
C634 C 0.52944 0.56702 0.59292 0.0
C635 C 0.53094 0.61562 0.59372 0.0
C636 C 0.56018 0.63329 0.58561 0.0
C637 C 0.59506 0.60494 0.57736 0.0
C638 C 0.62599 0.63299 0.56989 0.0
C639 C 0.72093 0.62622 0.56822 0.0
C640 C 0.57751 0.62064 0.56002 0.0
C641 C 0.60451 0.68178 0.57536 0.0
C642 C 0.56341 0.68086 0.58422 0.0
C643 C 0.54041 0.72147 0.59081 0.0
C644 C 0.56882 0.76407 0.58884 0.0
C645 C 0.6221 0.76482 0.58062 0.0
C646 C 0.63332 0.72408 0.57331 0.0
H647 H 0.06956 0.04619 0.59333 0.0
H648 H 0.10867 0.98072 0.56234 0.0
H649 H 0.13391 0.05868 0.55825 0.0
H650 H 0.95832 0.14493 0.58891 0.0
H651 H 0.00503 0.18484 0.59919 0.0
H652 H 0.99336 0.12383 0.59976 0.0
H653 H 0.15294 0.11649 0.6029 0.0
H654 H 0.16405 0.17792 0.60281 0.0
H655 H 0.22648 0.13564 0.59453 0.0
H656 H 0.15206 0.14432 0.55767 0.0
H657 H 0.18921 0.22834 0.56122 0.0
H658 H 0.12876 0.23569 0.59241 0.0
C659 C 0.08471 0.04794 0.58569 0.0
C660 C 0.08526 1.00758 0.57811 0.0
C661 C 0.10678 1.01141 0.56825 0.0
C662 C 0.12031 0.0555 0.56584 0.0
C663 C 0.11285 0.0949 0.57341 0.0
C664 C 0.09754 0.09131 0.58317 0.0
C665 C 0.09485 0.1385 0.59002 0.0
C666 C 0.00769 0.14859 0.59474 0.0
C667 C 0.16368 0.14237 0.59803 0.0
C668 C 0.11268 0.16941 0.58262 0.0
C669 C 0.12172 0.14385 0.57305 0.0
C670 C 0.14467 0.16479 0.56512 0.0
C671 C 0.16467 0.21261 0.56718 0.0
C672 C 0.16208 0.2382 0.5771 0.0
C673 C 0.13086 0.21692 0.58475 0.0
H674 H 0.67262 0.07156 0.19065 0.0
H675 H 0.72938 0.0687 0.22156 0.0
H676 H 0.72533 0.1551 0.22554 0.0
H677 H 0.79382 0.17409 0.18885 0.0
H678 H 0.71773 0.19599 0.18116 0.0
H679 H 0.7278 0.13379 0.18059 0.0
H680 H 0.57008 0.12714 0.18486 0.0
H681 H 0.55926 0.18851 0.18482 0.0
H682 H 0.52761 0.16586 0.19561 0.0
H683 H 0.713 0.24035 0.2262 0.0
H684 H 0.65253 0.31618 0.22457 0.0
H685 H 0.61154 0.26356 0.19304 0.0
C686 C 0.68303 0.08914 0.19829 0.0
C687 C 0.70145 0.06373 0.20578 0.0
C688 C 0.71419 0.08766 0.21571 0.0
C689 C 0.71411 0.13666 0.218 0.0
C690 C 0.70135 0.16071 0.21027 0.0
C691 C 0.68355 0.13775 0.20068 0.0
C692 C 0.6639 0.17147 0.19392 0.0
C693 C 0.72979 0.16865 0.18564 0.0
C694 C 0.57496 0.16277 0.18956 0.0
C695 C 0.67022 0.21721 0.20131 0.0
C696 C 0.6946 0.2103 0.21062 0.0
C697 C 0.69471 0.24641 0.21894 0.0
C698 C 0.66086 0.2895 0.21792 0.0
C699 C 0.62583 0.29515 0.20872 0.0
C700 C 0.63834 0.26029 0.20014 0.0
H701 H 0.09083 0.75534 0.19252 0.0
H702 H 0.14067 0.81019 0.22377 0.0
H703 H 0.20408 0.73505 0.22538 0.0
H704 H 0.01261 0.65798 0.19536 0.0
H705 H 0.0543 0.61874 0.18464 0.0
H706 H 0.04231 0.67985 0.18439 0.0
H707 H 0.19946 0.68848 0.18049 0.0
H708 H 0.21152 0.62643 0.17999 0.0
H709 H 0.27753 0.66749 0.18808 0.0
H710 H 0.21931 0.65034 0.22494 0.0
H711 H 0.2258 0.564 0.2212 0.0
H712 H 0.16007 0.56416 0.19041 0.0
C713 C 0.12008 0.7526 0.19953 0.0
C714 C 0.10974 0.78793 0.20806 0.0
C715 C 0.14754 0.7831 0.21716 0.0
C716 C 0.1833 0.74048 0.21816 0.0
C717 C 0.18214 0.704 0.20993 0.0
C718 C 0.15481 0.71008 0.20065 0.0
C719 C 0.14851 0.66389 0.1934 0.0
C720 C 0.05914 0.65464 0.18922 0.0
C721 C 0.21315 0.66142 0.18499 0.0
C722 C 0.17064 0.63092 0.20024 0.0
C723 C 0.19055 0.65461 0.2097 0.0
C724 C 0.20652 0.63132 0.21748 0.0
C725 C 0.20796 0.58233 0.21534 0.0
C726 C 0.19346 0.55767 0.2055 0.0
C727 C 0.17166 0.58229 0.19798 0.0
H728 H 0.39135 1.00663 0.94272 0.0
H729 H 0.34231 0.06444 0.97384 0.0
H730 H 0.28092 0.98948 0.9759 0.0
H731 H 0.20716 0.91639 0.93894 0.0
H732 H 0.27419 0.8755 0.93096 0.0
H733 H 0.28305 0.93742 0.93109 0.0
H734 H 0.4411 0.93152 0.93485 0.0
H735 H 0.43246 0.8707 0.9355 0.0
H736 H 0.47342 0.91182 0.94598 0.0
H737 H 0.26823 0.90438 0.97592 0.0
H738 H 0.26374 0.81776 0.97249 0.0
H739 H 0.33077 0.81601 0.94167 0.0
C740 C 0.36239 1.0046 0.94978 0.0
C741 C 0.37334 0.04059 0.95817 0.0
C742 C 0.33533 0.03677 0.96734 0.0
C743 C 0.30084 0.99419 0.96861 0.0
C744 C 0.30281 0.95685 0.96054 0.0
C745 C 0.32907 0.96213 0.95117 0.0
C746 C 0.33701 0.91539 0.94415 0.0
C747 C 0.27141 0.9109 0.93579 0.0
C748 C 0.42629 0.90693 0.93988 0.0
C749 C 0.31747 0.88318 0.95123 0.0
C750 C 0.29683 0.90752 0.9606 0.0
C751 C 0.28172 0.88484 0.96852 0.0
C752 C 0.28149 0.83575 0.96657 0.0
C753 C 0.29685 0.81047 0.95681 0.0
C754 C 0.31854 0.83459 0.9492 0.0
H755 H 0.86965 0.29195 0.96643 0.0
H756 H 0.92452 0.23021 0.93558 0.0
H757 H 0.97417 0.30664 0.93282 0.0
H758 H 0.7807 0.38927 0.96212 0.0
H759 H 0.82133 0.42988 0.9727 0.0
H760 H 0.80943 0.36903 0.97331 0.0
H761 H 0.96637 0.36212 0.97761 0.0
H762 H 0.97794 0.42373 0.97764 0.0
H763 H 0.04491 0.38184 0.9699 0.0
H764 H 0.98813 0.39178 0.93248 0.0
H765 H 0.0051 0.47781 0.93587 0.0
H766 H 0.93707 0.48311 0.96678 0.0
C767 C 0.89572 0.29385 0.95922 0.0
C768 C 0.89116 0.25545 0.95116 0.0
C769 C 0.92623 0.25934 0.94184 0.0
C770 C 0.95403 0.30273 0.94017 0.0
C771 C 0.94812 0.34115 0.94797 0.0
C772 C 0.92316 0.33682 0.95742 0.0
C773 C 0.91633 0.38397 0.96432 0.0
C774 C 0.82662 0.39354 0.96834 0.0
C775 C 0.98023 0.38816 0.97287 0.0
C776 C 0.93862 0.41545 0.95717 0.0
C777 C 0.95635 0.39021 0.94777 0.0
C778 C 0.97596 0.41197 0.93985 0.0
C779 C 0.98363 0.46083 0.94179 0.0
C780 C 0.97217 0.48675 0.95158 0.0
C781 C 0.94582 0.46394 0.95923 0.0
H782 H 0.45923 0.30162 0.31645 0.0
H783 H 0.49436 0.29975 0.34784 0.0
H784 H 0.47134 0.38523 0.35191 0.0
H785 H 0.56233 0.40939 0.31624 0.0
H786 H 0.48974 0.42853 0.30777 0.0
H787 H 0.50713 0.36685 0.30718 0.0
H788 H 0.3487 0.35312 0.30955 0.0
H789 H 0.33039 0.41423 0.30967 0.0
H790 H 0.29425 0.38855 0.31988 0.0
H791 H 0.45347 0.4707 0.35244 0.0
H792 H 0.40273 0.54746 0.35005 0.0
H793 H 0.37696 0.49302 0.31831 0.0
C794 C 0.46042 0.31909 0.3242 0.0
C795 C 0.4786 0.29432 0.33183 0.0
C796 C 0.47958 0.31814 0.34189 0.0
C797 C 0.4682 0.36673 0.34425 0.0
C798 C 0.4554 0.39049 0.33648 0.0
C799 C 0.44874 0.36734 0.32669 0.0
C800 C 0.42994 0.40069 0.31979 0.0
C801 C 0.50158 0.40139 0.31231 0.0
C802 C 0.3458 0.38844 0.31441 0.0
C803 C 0.42547 0.44626 0.32727 0.0
C804 C 0.44277 0.43976 0.33681 0.0
C805 C 0.43938 0.4763 0.34502 0.0
C806 C 0.41107 0.51994 0.34356 0.0
C807 C 0.38433 0.52592 0.33401 0.0
C808 C 0.39682 0.48947 0.32569 0.0
H809 H 0.82151 0.9621 0.34427 0.0
H810 H 0.76093 0.96194 0.31334 0.0
H811 H 0.76446 0.87535 0.30974 0.0
H812 H 0.96462 0.86737 0.33978 0.0
H813 H 0.93278 0.84624 0.35075 0.0
H814 H 0.9226 0.90732 0.35038 0.0
H815 H 0.76472 0.90177 0.35473 0.0
H816 H 0.77428 0.83981 0.3545 0.0
H817 H 0.69839 0.86082 0.34666 0.0
H818 H 0.77574 0.79007 0.30957 0.0
H819 H 0.83559 0.71468 0.31153 0.0
H820 H 0.88064 0.77084 0.34285 0.0
C821 C 0.81018 0.94384 0.3367 0.0
C822 C 0.79091 0.96841 0.32909 0.0
C823 C 0.77686 0.94358 0.31926 0.0
C824 C 0.77659 0.89451 0.31721 0.0
C825 C 0.78999 0.87136 0.32508 0.0
C826 C 0.80887 0.89522 0.33456 0.0
C827 C 0.8283 0.86244 0.34153 0.0
C828 C 0.91734 0.87133 0.34585 0.0
C829 C 0.76246 0.86647 0.34985 0.0
C830 C 0.82138 0.81609 0.33436 0.0
C831 C 0.79624 0.82192 0.325 0.0
C832 C 0.79484 0.78492 0.31686 0.0
C833 C 0.82844 0.74205 0.31809 0.0
C834 C 0.86513 0.73758 0.32729 0.0
C835 C 0.85332 0.7733 0.33573 0.0
H836 H 0.56961 0.04123 0.06651 0.0
H837 H 0.48763 0.04725 0.09697 0.0
H838 H 0.49566 0.1335 0.10009 0.0
H839 H 0.7204 0.13395 0.0724 0.0
H840 H 0.70125 0.15448 0.06098 0.0
H841 H 0.68471 0.09386 0.06145 0.0
H842 H 0.53304 0.10158 0.05513 0.0
H843 H 0.54807 0.16313 0.05525 0.0
H844 H 0.4632 0.14418 0.0622 0.0
H845 H 0.50882 0.2171 0.09985 0.0
H846 H 0.57416 0.29186 0.09833 0.0
H847 H 0.64995 0.2321 0.0681 0.0
C848 C 0.55535 0.06084 0.07389 0.0
C849 C 0.52824 0.03812 0.08151 0.0
C850 C 0.5098 0.06434 0.09109 0.0
C851 C 0.51195 0.11323 0.09285 0.0
C852 C 0.53333 0.13475 0.08496 0.0
C853 C 0.55804 0.1095 0.07581 0.0
C854 C 0.58721 0.14107 0.06895 0.0
C855 C 0.67882 0.13024 0.06577 0.0
C856 C 0.52939 0.13725 0.05985 0.0
C857 C 0.57812 0.18814 0.07585 0.0
C858 C 0.54333 0.18367 0.08489 0.0
C859 C 0.53576 0.2213 0.09283 0.0
C860 C 0.57248 0.26365 0.09187 0.0
C861 C 0.61769 0.26704 0.08315 0.0
C862 C 0.61451 0.23036 0.07477 0.0
H863 H 0.1332 0.51733 0.09105 0.0
H864 H 0.1156 0.47341 0.05894 0.0
H865 H 0.15999 0.55189 0.05688 0.0
H866 H 0.03803 0.61873 0.09239 0.0
H867 H 0.09969 0.65348 0.10214 0.0
H868 H 0.09084 0.59132 0.1014 0.0
H869 H 0.25218 0.5811 0.10041 0.0
H870 H 0.26204 0.64373 0.10175 0.0
H871 H 0.31047 0.6055 0.09134 0.0
H872 H 0.17469 0.63857 0.05848 0.0
H873 H 0.19205 0.72421 0.06356 0.0
H874 H 0.19135 0.71067 0.09463 0.0
C875 C 0.14292 0.52345 0.08358 0.0
C876 C 0.11965 0.48973 0.07519 0.0
C877 C 0.13284 0.49889 0.0655 0.0
C878 C 0.15739 0.54352 0.06425 0.0
C879 C 0.17034 0.57769 0.07275 0.0
C880 C 0.16649 0.56775 0.08222 0.0
C881 C 0.17398 0.61149 0.09016 0.0
C882 C 0.09599 0.61915 0.09691 0.0
C883 C 0.25448 0.61039 0.09627 0.0
C884 C 0.17913 0.64767 0.08367 0.0
C885 C 0.17734 0.62767 0.07366 0.0
C886 C 0.17803 0.65462 0.06629 0.0
C887 C 0.18626 0.70325 0.06926 0.0
C888 C 0.19341 0.72391 0.07949 0.0
C889 C 0.18646 0.69581 0.08675 0.0
H890 H 0.60153 0.75425 0.69206 0.0
H891 H 0.65761 0.81316 0.72294 0.0
H892 H 0.72316 0.73888 0.72482 0.0
H893 H 0.52294 0.65949 0.69612 0.0
H894 H 0.56015 0.61813 0.68546 0.0
H895 H 0.54917 0.67877 0.68474 0.0
H896 H 0.70502 0.68502 0.67996 0.0
H897 H 0.71571 0.62326 0.67989 0.0
H898 H 0.78527 0.66465 0.68736 0.0
H899 H 0.73993 0.65443 0.72486 0.0
H900 H 0.74481 0.56792 0.72162 0.0
H901 H 0.66688 0.56418 0.69109 0.0
C902 C 0.63281 0.75262 0.699 0.0
C903 C 0.62357 0.78877 0.70739 0.0
C904 C 0.66384 0.7854 0.71644 0.0
C905 C 0.7007 0.74326 0.71759 0.0
C906 C 0.69777 0.70577 0.70956 0.0
C907 C 0.66784 0.71048 0.7003 0.0
C908 C 0.65818 0.6635 0.69341 0.0
C909 C 0.56724 0.65452 0.68973 0.0
C910 C 0.71977 0.65883 0.68464 0.0
C911 C 0.68198 0.63179 0.70043 0.0
C912 C 0.70546 0.65662 0.70967 0.0
C913 C 0.72414 0.63451 0.71757 0.0
C914 C 0.72461 0.58549 0.71574 0.0
C915 C 0.70617 0.55972 0.7061 0.0
C916 C 0.68145 0.58322 0.69851 0.0
H917 H 0.17517 0.27218 0.70008 0.0
H918 H 0.95384 0.27165 0.71808 0.0
H919 H 0.99022 0.19453 0.72147 0.0
H920 H 0.14488 0.16109 0.68761 0.0
H921 H 0.25336 0.14401 0.68615 0.0
H922 H 0.22496 0.20469 0.68749 0.0
H923 H 0.32425 0.22655 0.70269 0.0
H924 H 0.35402 0.16581 0.70127 0.0
H925 H 0.31385 0.19681 0.71303 0.0
H926 H 0.03939 0.11385 0.72101 0.0
H927 H 0.0953 0.03315 0.71601 0.0
H928 H 0.27488 0.08329 0.69666 0.0
C929 C 0.13705 0.25642 0.7051 0.0
C930 C 0.06531 0.27908 0.70957 0.0
C931 C 0.01296 0.25661 0.71549 0.0
C932 C 0.0325 0.21234 0.71726 0.0
C933 C 0.10364 0.19056 0.71275 0.0
C934 C 0.15498 0.21162 0.70673 0.0
C935 C 0.21876 0.17766 0.70138 0.0
C936 C 0.20986 0.17151 0.68999 0.0
C937 C 0.30799 0.19263 0.7048 0.0
C938 C 0.19263 0.13409 0.70501 0.0
C939 C 0.12766 0.14238 0.71175 0.0
C940 C 0.09099 0.1068 0.71581 0.0
C941 C 0.12239 0.06129 0.71289 0.0
C942 C 0.18783 0.05235 0.70584 0.0
C943 C 0.22348 0.08919 0.70193 0.0
H944 H 0.25308 0.96897 0.44256 0.0
H945 H 0.29038 0.02515 0.47413 0.0
H946 H 0.37835 0.95874 0.47553 0.0
H947 H 0.24901 0.84593 0.44456 0.0
H948 H 0.3089 0.82493 0.43343 0.0
H949 H 0.24653 0.87731 0.43443 0.0
H950 H 0.37736 0.92371 0.43079 0.0
H951 H 0.43983 0.87134 0.42972 0.0
H952 H 0.46966 0.92368 0.43838 0.0
H953 H 0.45854 0.88555 0.47436 0.0
H954 H 0.53815 0.81208 0.47 0.0
H955 H 0.46279 0.7997 0.4391 0.0
C956 C 0.28009 0.96744 0.44974 0.0
C957 C 0.26277 1.0034 0.45822 0.0
C958 C 0.30067 0.9991 0.46744 0.0
C959 C 0.35142 0.96099 0.46838 0.0
C960 C 0.36621 0.92635 0.46006 0.0
C961 C 0.33305 0.92912 0.45085 0.0
C962 C 0.36234 0.88659 0.44316 0.0
C963 C 0.2872 0.85694 0.43863 0.0
C964 C 0.41545 0.90228 0.43503 0.0
C965 C 0.4158 0.85997 0.44956 0.0
C966 C 0.41608 0.88375 0.4593 0.0
C967 C 0.45906 0.86662 0.46673 0.0
C968 C 0.50397 0.82441 0.46417 0.0
C969 C 0.50716 0.79924 0.45421 0.0
C970 C 0.46183 0.81762 0.44681 0.0
H971 H 0.01329 0.32119 0.46399 0.0
H972 H 1.00055 0.27345 0.43189 0.0
H973 H 0.91314 0.34082 0.43046 0.0
H974 H 0.79572 0.36523 0.46663 0.0
H975 H 0.82119 0.41524 0.47617 0.0
H976 H 0.88245 0.36237 0.47493 0.0
H977 H 0.01695 0.40988 0.47325 0.0
H978 H 0.95594 0.46279 0.47441 0.0
H979 H 0.02269 0.44478 0.46373 0.0
H980 H 0.83061 0.41482 0.43201 0.0
H981 H 0.75034 0.48814 0.4368 0.0
H982 H 0.80939 0.49042 0.46787 0.0
C983 C 0.99139 0.32463 0.45668 0.0
C984 C 0.01522 0.2913 0.44806 0.0
C985 C 0.98471 0.29791 0.43866 0.0
C986 C 0.93452 0.3364 0.43772 0.0
C987 C 0.91365 0.36879 0.44624 0.0
C988 C 0.94008 0.36328 0.45557 0.0
C989 C 0.90727 0.40378 0.46347 0.0
C990 C 0.84815 0.38556 0.47073 0.0
C991 C 0.98007 0.43197 0.46904 0.0
C992 C 0.85952 0.43271 0.45708 0.0
C993 C 0.86441 0.41172 0.44716 0.0
C994 C 0.82614 0.43153 0.43978 0.0
C995 C 0.78074 0.47353 0.44258 0.0
C996 C 0.77312 0.49583 0.45271 0.0
C997 C 0.81385 0.47482 0.46004 0.0
H998 H 0.31107 0.28737 0.81612 0.0
H999 H 0.22367 0.30228 0.84663 0.0
H1000 H 0.30038 0.37688 0.85107 0.0
H1001 H 0.52008 0.33558 0.82232 0.0
H1002 H 0.5252 0.36541 0.81196 0.0
H1003 H 0.46346 0.31286 0.81102 0.0
H1004 H 0.3334 0.35741 0.80649 0.0
H1005 H 0.39455 0.41022 0.80749 0.0
H1006 H 0.30027 0.41033 0.81474 0.0
H1007 H 0.38275 0.45068 0.85234 0.0
H1008 H 0.47463 0.51633 0.85087 0.0
H1009 H 0.51679 0.45649 0.81962 0.0
C1010 C 0.30844 0.30612 0.82377 0.0
C1011 C 0.26071 0.28818 0.83103 0.0
C1012 C 0.25944 0.31444 0.84091 0.0
C1013 C 0.30275 0.35724 0.84351 0.0
C1014 C 0.34808 0.37395 0.83619 0.0
C1015 C 0.35214 0.34913 0.82654 0.0
C1016 C 0.40698 0.37522 0.82021 0.0
C1017 C 0.48347 0.34549 0.81614 0.0
C1018 C 0.35573 0.38911 0.81173 0.0
C1019 C 0.43315 0.41852 0.82783 0.0
C1020 C 0.39747 0.41682 0.83697 0.0
C1021 C 0.41127 0.45215 0.84524 0.0
C1022 C 0.46407 0.48958 0.84429 0.0
C1023 C 0.50423 0.49227 0.83513 0.0
C1024 C 0.48709 0.45618 0.82672 0.0
H1025 H 0.80861 0.78832 0.81683 0.0
H1026 H 0.72616 0.80221 0.8475 0.0
H1027 H 0.80423 0.87656 0.85189 0.0
H1028 H 0.01844 0.83542 0.82244 0.0
H1029 H 0.02139 0.86578 0.81215 0.0
H1030 H 0.95919 0.81345 0.8113 0.0
H1031 H 0.82834 0.85882 0.8073 0.0
H1032 H 0.88997 0.91141 0.8082 0.0
H1033 H 0.79737 0.91161 0.81574 0.0
H1034 H 0.88838 0.95001 0.85307 0.0
H1035 H 0.98028 1.0154 0.85143 0.0
H1036 H 0.01509 0.95671 0.82 0.0
C1037 C 0.80733 0.80675 0.8245 0.0
C1038 C 0.7607 0.78862 0.83183 0.0
C1039 C 0.76104 0.81456 0.84173 0.0
C1040 C 0.80518 0.85716 0.8443 0.0
C1041 C 0.84947 0.87402 0.83691 0.0
C1042 C 0.85159 0.84956 0.82722 0.0
C1043 C 0.90513 0.87574 0.82078 0.0
C1044 C 0.98052 0.84581 0.81641 0.0
C1045 C 0.85203 0.89025 0.81251 0.0
C1046 C 0.93319 0.91864 0.82839 0.0
C1047 C 0.89941 0.9167 0.83762 0.0
C1048 C 0.91534 0.95165 0.84589 0.0
C1049 C 0.96817 0.98895 0.84484 0.0
C1050 C 0.00627 0.99193 0.83558 0.0
C1051 C 0.98708 0.95619 0.82718 0.0
H1052 H 0.554 0.24589 0.59468 0.0
H1053 H 0.43559 0.2107 0.56564 0.0
H1054 H 0.5087 0.13458 0.56251 0.0
H1055 H 0.75752 0.1918 0.58625 0.0
H1056 H 0.77744 0.17165 0.59768 0.0
H1057 H 0.71533 0.22354 0.59784 0.0
H1058 H 0.5949 0.18697 0.60641 0.0
H1059 H 0.65622 0.13472 0.60616 0.0
H1060 H 0.55349 0.1306 0.6006 0.0
H1061 H 0.58639 0.06077 0.56273 0.0
H1062 H 0.68261 0.99786 0.56483 0.0
H1063 H 0.76512 0.07919 0.59321 0.0
C1064 C 0.54425 0.22234 0.58761 0.0
C1065 C 0.48863 0.23481 0.58038 0.0
C1066 C 0.47808 0.20271 0.57126 0.0
C1067 C 0.51893 0.15901 0.56945 0.0
C1068 C 0.57194 0.1476 0.57674 0.0
C1069 C 0.5866 0.17863 0.58556 0.0
C1070 C 0.65019 0.15778 0.59188 0.0
C1071 C 0.72984 0.18799 0.59351 0.0
C1072 C 0.61136 0.1522 0.60186 0.0
C1073 C 0.66804 0.10999 0.58528 0.0
C1074 C 0.6208 0.1051 0.57666 0.0
C1075 C 0.6243 0.06453 0.56939 0.0
C1076 C 0.67943 0.02873 0.5707 0.0
C1077 C 0.73246 0.03298 0.57917 0.0
C1078 C 0.72517 0.07417 0.5867 0.0
H1079 H 0.20994 0.55733 0.59447 0.0
H1080 H 0.21411 0.51059 0.5623 0.0
H1081 H 0.13304 0.57911 0.56027 0.0
H1082 H 0.99408 0.60191 0.59523 0.0
H1083 H 0.01369 0.65184 0.60503 0.0
H1084 H 0.07501 0.59924 0.60429 0.0
H1085 H 0.21083 0.64729 0.60389 0.0
H1086 H 0.14987 0.7 0.60459 0.0
H1087 H 0.22314 0.68268 0.59453 0.0
H1088 H 0.05294 0.6529 0.56115 0.0
H1089 H 0.97069 0.72566 0.56519 0.0
H1090 H 0.00725 0.72767 0.59672 0.0
C1091 C 0.19357 0.56147 0.58701 0.0
C1092 C 0.21932 0.52747 0.57857 0.0
C1093 C 0.19566 0.53498 0.56897 0.0
C1094 C 0.14941 0.57432 0.56768 0.0
C1095 C 0.12507 0.60676 0.57603 0.0
C1096 C 0.14526 0.60085 0.58554 0.0
C1097 C 0.10775 0.64115 0.59316 0.0
C1098 C 0.04384 0.62242 0.59982 0.0
C1099 C 0.17704 0.66946 0.59941 0.0
C1100 C 0.06451 0.67028 0.58641 0.0
C1101 C 0.07613 0.64961 0.57655 0.0
C1102 C 0.0432 0.66938 0.56886 0.0
C1103 C 0.99645 0.71107 0.57124 0.0
C1104 C 0.98173 0.73319 0.58127 0.0
C1105 C 0.01697 0.71215 0.58896 0.0
H1106 H 0.4802 0.58275 0.21494 0.0
H1107 H 0.5398 0.51426 0.18464 0.0
H1108 H 0.63319 0.57911 0.18296 0.0
H1109 H 0.47965 0.70048 0.21043 0.0
H1110 H 0.52902 0.7268 0.22201 0.0
H1111 H 0.46783 0.67415 0.22123 0.0
H1112 H 0.5943 0.63232 0.22749 0.0
H1113 H 0.65565 0.68499 0.22837 0.0
H1114 H 0.69309 0.6306 0.22105 0.0
H1115 H 0.71511 0.65342 0.18386 0.0
H1116 H 0.79035 0.72887 0.18805 0.0
H1117 H 0.68621 0.75098 0.2179 0.0
C1118 C 0.51415 0.58099 0.20803 0.0
C1119 C 0.50159 0.54273 0.19993 0.0
C1120 C 0.54698 0.54275 0.19098 0.0
C1121 C 0.60061 0.5797 0.18991 0.0
C1122 C 0.60992 0.61719 0.19786 0.0
C1123 C 0.56907 0.61805 0.20681 0.0
C1124 C 0.59106 0.6632 0.21411 0.0
C1125 C 0.51219 0.69291 0.21712 0.0
C1126 C 0.63621 0.65211 0.2233 0.0
C1127 C 0.65001 0.6872 0.20783 0.0
C1128 C 0.65924 0.66003 0.19845 0.0
C1129 C 0.70876 0.67486 0.19122 0.0
C1130 C 0.75111 0.71812 0.19366 0.0
C1131 C 0.74494 0.74648 0.2033 0.0
C1132 C 0.69291 0.73046 0.21045 0.0
H1133 H 0.19377 0.25315 0.21827 0.0
H1134 H 0.303 0.2272 0.18865 0.0
H1135 H 0.22817 0.15164 0.18472 0.0
H1136 H 0.2 0.13335 0.22202 0.0
H1137 H 0.10064 0.13592 0.22835 0.0
H1138 H 0.16231 0.18838 0.22904 0.0
H1139 H 0.03734 0.2295 0.22229 0.0
H1140 H 0.97512 0.17732 0.22166 0.0
H1141 H 0.98878 0.20232 0.21071 0.0
H1142 H 0.14636 0.07773 0.18403 0.0
H1143 H 0.05165 1.01364 0.18575 0.0
H1144 H 0.98546 0.0854 0.21561 0.0
C1145 C 0.20171 0.23175 0.21092 0.0
C1146 C 0.25516 0.2468 0.20376 0.0
C1147 C 0.26295 0.21722 0.19427 0.0
C1148 C 0.22075 0.17389 0.19199 0.0
C1149 C 0.16985 0.16005 0.19921 0.0
C1150 C 0.15907 0.18827 0.20845 0.0
C1151 C 0.09884 0.16499 0.21475 0.0
C1152 C 0.14309 0.15509 0.2241 0.0
C1153 C 0.02037 0.19535 0.21751 0.0
C1154 C 0.07734 0.11931 0.20758 0.0
C1155 C 0.1202 0.11738 0.19872 0.0
C1156 C 0.11223 0.07916 0.19091 0.0
C1157 C 0.0578 0.04262 0.192 0.0
C1158 C 0.00987 0.04373 0.20082 0.0
C1159 C 0.02127 0.0827 0.20881 0.0
H1160 H 0.31776 0.48784 0.96701 0.0
H1161 H 0.26341 0.48426 0.93578 0.0
H1162 H 0.34506 0.41103 0.9313 0.0
H1163 H 0.53152 0.44297 0.96343 0.0
H1164 H 0.5241 0.4091 0.97312 0.0
H1165 H 0.46293 0.46176 0.97391 0.0
H1166 H 0.3279 0.4147 0.97555 0.0
H1167 H 0.3885 0.36178 0.97468 0.0
H1168 H 0.30339 0.36402 0.96613 0.0
H1169 H 0.42732 0.33677 0.93017 0.0
H1170 H 0.51344 0.26955 0.93207 0.0
H1171 H 0.52054 0.31948 0.96413 0.0
C1172 C 0.32361 0.47204 0.9592 0.0
C1173 C 0.28383 0.49251 0.95173 0.0
C1174 C 0.29329 0.47003 0.94164 0.0
C1175 C 0.33935 0.42811 0.93903 0.0
C1176 C 0.37638 0.40874 0.94657 0.0
C1177 C 0.36986 0.43015 0.95644 0.0
C1178 C 0.41619 0.40178 0.96306 0.0
C1179 C 0.48795 0.43062 0.96871 0.0
C1180 C 0.35536 0.38456 0.97028 0.0
C1181 C 0.44981 0.36093 0.95535 0.0
C1182 C 0.42531 0.36584 0.94591 0.0
C1183 C 0.44728 0.33289 0.93753 0.0
C1184 C 0.49669 0.29452 0.93873 0.0
C1185 C 0.52523 0.28862 0.94827 0.0
C1186 C 0.50014 0.3224 0.95673 0.0
H1187 H 0.03094 0.8247 0.94156 0.0
H1188 H 0.94127 0.77025 0.96701 0.0
H1189 H 0.83441 0.83297 0.97013 0.0
H1190 H 0.00727 0.94686 0.953 0.0
H1191 H 0.97587 0.96506 0.94168 0.0
H1192 H 0.04283 0.91477 0.94112 0.0
H1193 H 0.93778 0.86402 0.92932 0.0
H1194 H 0.87004 0.91403 0.92986 0.0
H1195 H 0.83014 0.86098 0.93311 0.0
H1196 H 0.73758 0.90128 0.97061 0.0
H1197 H 0.664 0.97424 0.96941 0.0
H1198 H 0.81578 0.98855 0.94388 0.0
C1199 C 0.98832 0.82565 0.94775 0.0
C1200 C 0.99433 0.79176 0.95398 0.0
C1201 C 0.93825 0.79529 0.96211 0.0
C1202 C 0.877 0.83084 0.96391 0.0
C1203 C 0.8726 0.8633 0.95761 0.0
C1204 C 0.92731 0.86145 0.94975 0.0
C1205 C 0.91145 0.90227 0.94442 0.0
C1206 C 0.98895 0.93413 0.9451 0.0
C1207 C 0.88582 0.88423 0.93353 0.0
C1208 C 0.83869 0.92726 0.95048 0.0
C1209 C 0.81744 0.90371 0.95801 0.0
C1210 C 0.7538 0.91985 0.96474 0.0
C1211 C 0.7121 0.96146 0.96397 0.0
C1212 C 0.73316 0.9873 0.95652 0.0
C1213 C 0.79686 0.96939 0.94955 0.0
H1214 H 0.30833 0.7928 0.34148 0.0
H1215 H 0.16842 0.80528 0.31492 0.0
H1216 H 0.24315 0.87773 0.31396 0.0
H1217 H 0.31943 0.92017 0.35194 0.0
H1218 H 0.42532 0.91799 0.35639 0.0
H1219 H 0.3581 0.86756 0.35552 0.0
H1220 H 0.4681 0.81672 0.34443 0.0
H1221 H 0.53523 0.86713 0.34528 0.0
H1222 H 0.50442 0.83451 0.33325 0.0
H1223 H 0.33811 0.94626 0.31485 0.0
H1224 H 0.44322 1.00959 0.31834 0.0
H1225 H 0.52417 0.95762 0.34447 0.0
C1226 C 0.2925 0.81132 0.33559 0.0
C1227 C 0.23161 0.79279 0.32828 0.0
C1228 C 0.21444 0.81808 0.3206 0.0
C1229 C 0.25677 0.85959 0.31997 0.0
C1230 C 0.31736 0.87633 0.32706 0.0
C1231 C 0.33528 0.8534 0.33478 0.0
C1232 C 0.40564 0.87919 0.34119 0.0
C1233 C 0.37528 0.89731 0.3519 0.0
C1234 C 0.48291 0.84748 0.34102 0.0
C1235 C 0.42355 0.91975 0.33584 0.0
C1236 C 0.37198 0.91703 0.32767 0.0
C1237 C 0.37832 0.94907 0.3213 0.0
C1238 C 0.43853 0.98501 0.32333 0.0
C1239 C 0.49178 0.9894 0.33173 0.0
C1240 C 0.48367 0.95603 0.33807 0.0
H1241 H 0.0079 0.46486 0.32021 0.0
H1242 H 0.0197 0.50462 0.3525 0.0
H1243 H 0.93668 0.43608 0.35407 0.0
H1244 H 0.79026 0.42088 0.31967 0.0
H1245 H 0.80857 0.37302 0.30938 0.0
H1246 H 0.86903 0.42613 0.31051 0.0
H1247 H 0.00574 0.37787 0.30994 0.0
H1248 H 0.94563 0.32469 0.30888 0.0
H1249 H 0.02098 0.34003 0.31878 0.0
H1250 H 0.85608 0.36193 0.35263 0.0
H1251 H 0.77386 0.28921 0.34799 0.0
H1252 H 0.80671 0.29489 0.31674 0.0
C1253 C 0.99239 0.45938 0.3276 0.0
C1254 C 0.02194 0.49085 0.3362 0.0
C1255 C 0.99945 0.48167 0.34571 0.0
C1256 C 0.95183 0.44245 0.34674 0.0
C1257 C 0.92525 0.41195 0.33821 0.0
C1258 C 0.94353 0.41998 0.3288 0.0
C1259 C 0.9052 0.38121 0.32094 0.0
C1260 C 0.83936 0.40152 0.31476 0.0
C1261 C 0.97348 0.35436 0.31424 0.0
C1262 C 0.86425 0.35025 0.32744 0.0
C1263 C 0.87688 0.36885 0.33738 0.0
C1264 C 0.84553 0.34702 0.34485 0.0
C1265 C 0.79899 0.30542 0.34214 0.0
C1266 C 0.78354 0.28556 0.332 0.0
C1267 C 0.81749 0.30855 0.32457 0.0
H1268 H 0.55369 0.7381 0.09605 0.0
H1269 H 0.44576 0.71153 0.06636 0.0
H1270 H 0.52091 0.63643 0.06247 0.0
H1271 H 0.76026 0.68798 0.08819 0.0
H1272 H 0.77586 0.66292 0.09911 0.0
H1273 H 0.71264 0.71483 0.09985 0.0
H1274 H 0.58954 0.67308 0.10677 0.0
H1275 H 0.65204 0.62085 0.10596 0.0
H1276 H 0.55193 0.61795 0.09979 0.0
H1277 H 0.59928 0.56288 0.06182 0.0
H1278 H 0.69326 0.49864 0.06325 0.0
H1279 H 0.76689 0.57016 0.09292 0.0
C1280 C 0.54653 0.71664 0.0887 0.0
C1281 C 0.49333 0.73148 0.08149 0.0
C1282 C 0.48618 0.70191 0.07199 0.0
C1283 C 0.52833 0.65872 0.06973 0.0
C1284 C 0.57916 0.64507 0.07696 0.0
C1285 C 0.59009 0.6733 0.0862 0.0
C1286 C 0.65161 0.65007 0.09238 0.0
C1287 C 0.72974 0.68078 0.09504 0.0
C1288 C 0.60872 0.63989 0.10179 0.0
C1289 C 0.67325 0.60442 0.08515 0.0
C1290 C 0.629 0.60256 0.07639 0.0
C1291 C 0.63515 0.56434 0.06859 0.0
C1292 C 0.6895 0.5277 0.06952 0.0
C1293 C 0.7399 0.52866 0.07815 0.0
C1294 C 0.73003 0.56768 0.08621 0.0
H1295 H 0.18303 0.04357 0.09352 0.0
H1296 H 0.25384 0.02431 0.06234 0.0
H1297 H 0.1771 0.09525 0.06077 0.0
H1298 H 0.97203 0.08612 0.08991 0.0
H1299 H 0.9699 0.12891 0.10136 0.0
H1300 H 0.03292 0.07683 0.10045 0.0
H1301 H 0.16392 0.12796 0.10569 0.0
H1302 H 0.10123 0.18017 0.10663 0.0
H1303 H 0.19271 0.17232 0.09876 0.0
H1304 H 0.09033 0.16702 0.06196 0.0
H1305 H 0.99911 0.23632 0.06611 0.0
H1306 H 0.97844 0.21382 0.09647 0.0
C1307 C 0.18253 0.05443 0.08639 0.0
C1308 C 0.22451 0.02718 0.07802 0.0
C1309 C 0.22156 0.04327 0.06885 0.0
C1310 C 0.17819 0.08403 0.06786 0.0
C1311 C 0.13647 0.10941 0.07608 0.0
C1312 C 0.13783 0.09551 0.08519 0.0
C1313 C 0.08496 0.12951 0.09268 0.0
C1314 C 0.01055 0.10381 0.09632 0.0
C1315 C 0.13895 0.15394 0.10146 0.0
C1316 C 0.05494 0.1644 0.08635 0.0
C1317 C 0.08563 0.15173 0.07678 0.0
C1318 C 0.06604 0.17736 0.06945 0.0
C1319 C 0.01372 0.21688 0.07188 0.0
C1320 C 0.98089 0.23131 0.08162 0.0
C1321 C 1.00249 0.20436 0.08896 0.0
H1322 H 0.48501 0.07774 0.71509 0.0
H1323 H 0.54411 1.00842 0.68481 0.0
H1324 H 0.63499 0.07367 0.68289 0.0
H1325 H 0.48539 0.1971 0.71074 0.0
H1326 H 0.53533 0.22137 0.72238 0.0
H1327 H 0.47301 0.16893 0.72129 0.0
H1328 H 0.60215 0.12738 0.7274 0.0
H1329 H 0.6637 0.17987 0.72808 0.0
H1330 H 0.69942 0.12537 0.72064 0.0
H1331 H 0.71232 0.14864 0.68339 0.0
H1332 H 0.78687 0.22433 0.6873 0.0
H1333 H 0.69061 0.24617 0.71752 0.0
C1334 C 0.51826 0.0759 0.70814 0.0
C1335 C 0.50578 0.0373 0.70009 0.0
C1336 C 0.55077 0.03716 0.69111 0.0
C1337 C 0.60302 0.07437 0.68989 0.0
C1338 C 0.612 0.11219 0.69776 0.0
C1339 C 0.57248 0.1131 0.7068 0.0
C1340 C 0.59577 0.15824 0.71404 0.0
C1341 C 0.51766 0.18813 0.71731 0.0
C1342 C 0.64307 0.14704 0.72308 0.0
C1343 C 0.65309 0.18225 0.70759 0.0
C1344 C 0.66058 0.15509 0.69819 0.0
C1345 C 0.70758 0.17007 0.69078 0.0
C1346 C 0.74943 0.21347 0.69304 0.0
C1347 C 0.74533 0.24176 0.7027 0.0
C1348 C 0.69568 0.22564 0.71005 0.0
H1349 H 0.98776 0.57887 0.71458 0.0
H1350 H 0.06518 0.50354 0.68544 0.0
H1351 H 0.1601 0.56792 0.68375 0.0
H1352 H 0.9895 0.69318 0.70862 0.0
H1353 H 0.03163 0.72303 0.72036 0.0
H1354 H 0.97166 0.67005 0.71974 0.0
H1355 H 0.09461 0.63213 0.72762 0.0
H1356 H 0.1546 0.6852 0.72838 0.0
H1357 H 0.19699 0.63006 0.722 0.0
H1358 H 0.2402 0.64279 0.68441 0.0
H1359 H 0.31165 0.71949 0.68832 0.0
H1360 H 0.19056 0.74776 0.71727 0.0
C1361 C 0.02628 0.57542 0.70797 0.0
C1362 C 0.01845 0.53546 0.70016 0.0
C1363 C 0.06922 0.53334 0.69155 0.0
C1364 C 0.12356 0.56999 0.69049 0.0
C1365 C 0.12802 0.60927 0.69811 0.0
C1366 C 0.08194 0.6121 0.70677 0.0
C1367 C 0.09893 0.65893 0.71374 0.0
C1368 C 0.01812 0.68801 0.71573 0.0
C1369 C 0.13865 0.6511 0.72352 0.0
C1370 C 0.16113 0.68163 0.70762 0.0
C1371 C 0.17623 0.65239 0.69858 0.0
C1372 C 0.22939 0.66582 0.69152 0.0
C1373 C 0.2695 0.70978 0.69378 0.0
C1374 C 0.25749 0.74018 0.7031 0.0
C1375 C 0.20179 0.7256 0.71007 0.0
H1376 H 0.37106 0.13469 0.40916 0.0
H1377 H 0.24942 0.26976 0.41184 0.0
H1378 H 0.32255 0.28252 0.39659 0.0
H1379 H 0.57103 0.16829 0.40034 0.0
H1380 H 0.58606 0.11302 0.39193 0.0
H1381 H 0.52541 0.11558 0.40311 0.0
H1382 H 0.39974 0.07687 0.39264 0.0
H1383 H 0.46024 0.07395 0.38144 0.0
H1384 H 0.35998 0.10295 0.38265 0.0
H1385 H 0.40947 0.27854 0.38029 0.0
H1386 H 0.49527 0.25668 0.36489 0.0
H1387 H 0.55981 0.12561 0.37371 0.0
C1388 C 0.35994 0.16706 0.40657 0.0
C1389 C 0.30442 0.20122 0.41172 0.0
C1390 C 0.29162 0.24303 0.40803 0.0
C1391 C 0.3331 0.25063 0.39938 0.0
C1392 C 0.38765 0.21617 0.39448 0.0
C1393 C 0.40089 0.1752 0.39799 0.0
C1394 C 0.46072 0.14298 0.39133 0.0
C1395 C 0.54053 0.13449 0.39702 0.0
C1396 C 0.41758 0.09646 0.38674 0.0
C1397 C 0.47913 0.17197 0.3835 0.0
C1398 C 0.43685 0.21415 0.38536 0.0
C1399 C 0.44314 0.24562 0.37883 0.0
C1400 C 0.49243 0.23312 0.37011 0.0
C1401 C 0.53462 0.18945 0.36801 0.0
C1402 C 0.52856 0.15931 0.37498 0.0
H1403 H 0.85532 0.14331 0.37561 0.0
H1404 H 0.73877 1.00694 0.37315 0.0
H1405 H 0.80871 0.99664 0.38871 0.0
H1406 H 0.0544 0.11262 0.38531 0.0
H1407 H 0.06699 0.16831 0.39364 0.0
H1408 H 0.00814 0.16469 0.38229 0.0
H1409 H 0.88039 0.20278 0.3924 0.0
H1410 H 0.93898 0.2066 0.40377 0.0
H1411 H 0.83943 0.17686 0.40236 0.0
H1412 H 0.89314 1.00184 0.40512 0.0
H1413 H 0.97995 0.0233 0.42042 0.0
H1414 H 0.04115 0.15539 0.41183 0.0
C1415 C 0.84458 0.11124 0.37833 0.0
C1416 C 0.79123 0.07593 0.37308 0.0
C1417 C 0.77908 0.0346 0.37698 0.0
C1418 C 0.81878 0.02837 0.38584 0.0
C1419 C 0.87104 0.06374 0.39084 0.0
C1420 C 0.88386 0.10443 0.3872 0.0
C1421 C 0.94223 0.13735 0.394 0.0
C1422 C 0.0227 0.14625 0.38848 0.0
C1423 C 0.89758 0.18363 0.39839 0.0
C1424 C 0.96028 0.10897 0.402 0.0
C1425 C 0.9189 0.06655 0.4001 0.0
C1426 C 0.92591 0.03503 0.40663 0.0
C1427 C 0.97569 0.04739 0.41532 0.0
C1428 C 0.01815 0.091 0.41746 0.0
C1429 C 0.0101 0.12166 0.41056 0.0
H1430 H 0.53906 0.15993 0.91272 0.0
H1431 H 0.48284 0.02547 0.9205 0.0
H1432 H 0.39388 1.00546 0.90537 0.0
H1433 H 0.33477 0.18095 0.90375 0.0
H1434 H 0.37392 0.20889 0.89401 0.0
H1435 H 0.4335 0.21157 0.90528 0.0
H1436 H 0.56155 0.17604 0.89491 0.0
H1437 H 0.50262 0.17302 0.88359 0.0
H1438 H 0.55096 0.12092 0.88632 0.0
H1439 H 0.30868 1.00132 0.88905 0.0
H1440 H 0.23951 1.01274 0.87347 0.0
H1441 H 0.35221 0.15048 0.87684 0.0
C1442 C 0.50864 0.12602 0.9113 0.0
C1443 C 0.51882 0.09418 0.91789 0.0
C1444 C 0.47686 0.05043 0.91561 0.0
C1445 C 0.42591 0.03886 0.90703 0.0
C1446 C 0.41712 0.07138 0.90076 0.0
C1447 C 0.45765 0.11409 0.90284 0.0
C1448 C 0.43803 0.14343 0.89508 0.0
C1449 C 0.39234 0.18889 0.89982 0.0
C1450 C 0.51805 0.15394 0.88965 0.0
C1451 C 0.38049 0.11056 0.88819 0.0
C1452 C 0.36875 0.06918 0.89158 0.0
C1453 C 0.31778 0.03363 0.88638 0.0
C1454 C 0.27856 0.04045 0.87752 0.0
C1455 C 0.29027 0.08249 0.87389 0.0
C1456 C 0.34187 0.11792 0.87938 0.0
H1457 H 0.92433 0.17189 0.9138 0.0
H1458 H 0.67865 0.21525 0.90559 0.0
H1459 H 0.73362 0.22404 0.88917 0.0
H1460 H 0.04264 0.2515 0.90079 0.0
H1461 H 0.12573 0.20981 0.89711 0.0
H1462 H 0.06845 0.20963 0.90845 0.0
H1463 H 0.03144 0.12203 0.9023 0.0
H1464 H 0.08922 0.12207 0.89102 0.0
H1465 H 0.981 0.10401 0.89038 0.0
H1466 H 0.81581 0.22701 0.87331 0.0
H1467 H 0.91393 0.21575 0.85899 0.0
H1468 H 0.10461 0.16796 0.87721 0.0
C1469 C 0.88227 0.18347 0.90856 0.0
C1470 C 0.79694 0.19293 0.91102 0.0
C1471 C 0.74415 0.20795 0.90392 0.0
C1472 C 0.77499 0.21325 0.89457 0.0
C1473 C 0.85936 0.20387 0.89238 0.0
C1474 C 0.91227 0.18913 0.89917 0.0
C1475 C 0.99972 0.1799 0.89483 0.0
C1476 C 0.06288 0.21477 0.90064 0.0
C1477 C 0.02686 0.12896 0.89462 0.0
C1478 C 0.98661 0.18936 0.88439 0.0
C1479 C 0.90593 0.20456 0.88321 0.0
C1480 C 0.87929 0.21545 0.87419 0.0
C1481 C 0.93564 0.20941 0.86611 0.0
C1482 C 0.01717 0.19163 0.86701 0.0
C1483 C 0.04296 0.1822 0.87634 0.0
H1484 H 0.59504 0.85532 0.67015 0.0
H1485 H 0.34082 0.8328 0.65927 0.0
H1486 H 0.39218 0.82178 0.64194 0.0
H1487 H 0.66105 0.92181 0.65286 0.0
H1488 H 0.7655 0.89817 0.65108 0.0
H1489 H 0.71143 0.89847 0.66263 0.0
H1490 H 0.73212 0.80883 0.66054 0.0
H1491 H 0.78744 0.80841 0.64904 0.0
H1492 H 0.69788 0.77087 0.64923 0.0
H1493 H 0.46778 0.82227 0.626 0.0
H1494 H 0.5637 0.82782 0.61222 0.0
H1495 H 0.77308 0.84834 0.6328 0.0
C1496 C 0.55094 0.84588 0.66408 0.0
C1497 C 0.46403 0.8429 0.66604 0.0
C1498 C 0.40766 0.83329 0.65793 0.0
C1499 C 0.43634 0.82748 0.64806 0.0
C1500 C 0.52196 0.83148 0.64635 0.0
C1501 C 0.57886 0.83982 0.65411 0.0
C1502 C 0.66704 0.84504 0.65015 0.0
C1503 C 0.70336 0.89377 0.65444 0.0
C1504 C 0.72453 0.80596 0.65237 0.0
C1505 C 0.65042 0.83929 0.63901 0.0
C1506 C 0.56612 0.83155 0.63704 0.0
C1507 C 0.53407 0.82748 0.62744 0.0
C1508 C 0.5893 0.83083 0.61963 0.0
C1509 C 0.67632 0.83793 0.62133 0.0
C1510 C 0.70716 0.84221 0.63121 0.0
H1511 H 0.08483 0.92467 0.61562 0.0
H1512 H 0.82945 0.94802 0.62597 0.0
H1513 H 0.87804 0.95637 0.64342 0.0
H1514 H 0.1473 0.85569 0.63251 0.0
H1515 H 0.25176 0.87908 0.63454 0.0
H1516 H 0.19902 0.88009 0.62296 0.0
H1517 H 0.22002 0.96987 0.62548 0.0
H1518 H 0.27427 0.96903 0.63699 0.0
H1519 H 0.18501 1.00685 0.63687 0.0
H1520 H 0.95328 0.95427 0.65965 0.0
H1521 H 0.04991 0.9486 0.67349 0.0
H1522 H 0.25828 0.92801 0.65277 0.0
C1523 C 0.03984 0.93354 0.62161 0.0
C1524 C 0.95364 0.93762 0.61948 0.0
C1525 C 0.89595 0.94676 0.62747 0.0
C1526 C 0.92303 0.95099 0.6374 0.0
C1527 C 0.00828 0.94606 0.63925 0.0
C1528 C 0.06612 0.93828 0.63158 0.0
C1529 C 0.15368 0.93249 0.63558 0.0
C1530 C 0.19003 0.88395 0.63113 0.0
C1531 C 0.21168 0.97191 0.63362 0.0
C1532 C 0.13589 0.93717 0.64664 0.0
C1533 C 0.05158 0.94497 0.6486 0.0
C1534 C 0.01952 0.94882 0.65821 0.0
C1535 C 0.07494 0.94534 0.66603 0.0
C1536 C 0.16184 0.93811 0.66427 0.0
C1537 C 0.19233 0.93387 0.6544 0.0
H1538 H 0.58846 0.92007 0.16402 0.0
H1539 H 0.81845 0.98182 0.15567 0.0
H1540 H 0.75505 0.98979 0.13965 0.0
H1541 H 0.5422 0.85214 0.13989 0.0
H1542 H 0.43056 0.86115 0.14086 0.0
H1543 H 0.49222 0.86292 0.15193 0.0
H1544 H 0.43384 0.94566 0.15912 0.0
H1545 H 0.37287 0.9442 0.14798 0.0
H1546 H 0.4451 0.99163 0.15208 0.0
H1547 H 0.6659 0.99193 0.12434 0.0
H1548 H 0.56595 0.97727 0.11022 0.0
H1549 H 0.39655 0.90997 0.12781 0.0
C1550 C 0.62525 0.93547 0.15883 0.0
C1551 C 0.70853 0.95075 0.16121 0.0
C1552 C 0.7545 0.97025 0.15413 0.0
C1553 C 0.71881 0.97511 0.14499 0.0
C1554 C 0.63654 0.96031 0.14291 0.0
C1555 C 0.59053 0.94034 0.14958 0.0
C1556 C 0.50471 0.92521 0.14525 0.0
C1557 C 0.49173 0.8722 0.14443 0.0
C1558 C 0.43501 0.95334 0.15148 0.0
C1559 C 0.51091 0.93833 0.13502 0.0
C1560 C 0.58654 0.95979 0.13393 0.0
C1561 C 0.60637 0.97528 0.12515 0.0
C1562 C 0.5488 0.9673 0.11718 0.0
C1563 C 0.4729 0.94309 0.11792 0.0
C1564 C 0.45358 0.92914 0.12705 0.0
H1565 H 0.97081 0.91622 0.16221 0.0
H1566 H 0.00504 0.77925 0.16982 0.0
H1567 H 0.08982 0.75496 0.15445 0.0
H1568 H 0.95287 0.87852 0.13577 0.0
H1569 H 0.00939 0.92826 0.13308 0.0
H1570 H 0.95058 0.93365 0.14447 0.0
H1571 H 0.08378 0.96243 0.15464 0.0
H1572 H 0.14307 0.95709 0.14329 0.0
H1573 H 0.17719 0.92696 0.15291 0.0
H1574 H 0.1743 0.74699 0.13807 0.0
H1575 H 0.24757 0.75541 0.12258 0.0
H1576 H 0.15794 0.8984 0.12611 0.0
C1577 C 0.99537 0.88085 0.1607 0.0
C1578 C 0.98036 0.84958 0.16731 0.0
C1579 C 0.01481 0.80385 0.16492 0.0
C1580 C 0.06331 0.78984 0.1562 0.0
C1581 C 0.07717 0.82192 0.14993 0.0
C1582 C 0.04392 0.86651 0.15213 0.0
C1583 C 0.06856 0.89502 0.14438 0.0
C1584 C 0.99072 0.90971 0.13911 0.0
C1585 C 0.12127 0.9379 0.14909 0.0
C1586 C 0.12082 0.85953 0.13737 0.0
C1587 C 0.1253 0.81755 0.14069 0.0
C1588 C 0.17084 0.77973 0.13544 0.0
C1589 C 0.21243 0.78488 0.12664 0.0
C1590 C 0.20862 0.82754 0.12308 0.0
C1591 C 0.16204 0.86528 0.12858 0.0
H1592 H 0.53819 0.62061 0.87308 0.0
H1593 H 0.47757 0.7524 0.86433 0.0
H1594 H 0.39184 0.77479 0.87965 0.0
H1595 H 0.33768 0.60033 0.88295 0.0
H1596 H 0.37938 0.57516 0.89296 0.0
H1597 H 0.43725 0.57057 0.88152 0.0
H1598 H 0.56579 0.60932 0.89134 0.0
H1599 H 0.50845 0.61391 0.90283 0.0
H1600 H 0.55416 0.6655 0.89953 0.0
H1601 H 0.30843 0.78129 0.89601 0.0
H1602 H 0.23941 0.77263 0.91172 0.0
H1603 H 0.35525 0.63629 0.90971 0.0
C1604 C 0.50737 0.65441 0.87434 0.0
C1605 C 0.5152 0.68475 0.86738 0.0
C1606 C 0.47332 0.72854 0.86947 0.0
C1607 C 0.42418 0.74147 0.87818 0.0
C1608 C 0.41739 0.71038 0.88478 0.0
C1609 C 0.45834 0.66779 0.88295 0.0
C1610 C 0.44083 0.64028 0.89112 0.0
C1611 C 0.39613 0.59384 0.88688 0.0
C1612 C 0.52214 0.63176 0.89653 0.0
C1613 C 0.38314 0.67385 0.89789 0.0
C1614 C 0.37029 0.7141 0.8941 0.0
C1615 C 0.31855 0.74994 0.89901 0.0
C1616 C 0.27939 0.74464 0.90796 0.0
C1617 C 0.29168 0.70382 0.91203 0.0
C1618 C 0.34451 0.668 0.90686 0.0
H1619 H 0.03557 0.66513 0.91243 0.0
H1620 H 0.01944 0.52357 0.91806 0.0
H1621 H 0.93709 0.50019 0.90246 0.0
H1622 H 0.82853 0.6711 0.90336 0.0
H1623 H 0.85755 0.70562 0.89429 0.0
H1624 H 0.91772 0.70973 0.90555 0.0
H1625 H 0.05272 0.68846 0.89515 0.0
H1626 H 0.99307 0.6845 0.88385 0.0
H1627 H 0.05567 0.63548 0.8858 0.0
H1628 H 0.85114 0.49407 0.88606 0.0
H1629 H 0.77463 0.50523 0.87092 0.0
H1630 H 0.84748 0.65155 0.87668 0.0
C1631 C 0.01545 0.62896 0.91043 0.0
C1632 C 0.03454 0.59617 0.91657 0.0
C1633 C 0.00637 0.54936 0.91353 0.0
C1634 C 0.95923 0.53586 0.90467 0.0
C1635 C 0.94069 0.56954 0.89892 0.0
C1636 C 0.96844 0.61513 0.90173 0.0
C1637 C 0.93948 0.64537 0.89451 0.0
C1638 C 0.88244 0.6853 0.89974 0.0
C1639 C 0.01471 0.66457 0.88953 0.0
C1640 C 0.89071 0.60985 0.88711 0.0
C1641 C 0.89191 0.56622 0.88974 0.0
C1642 C 0.8502 0.52813 0.88399 0.0
C1643 C 0.80669 0.53481 0.87539 0.0
C1644 C 0.80478 0.57927 0.87259 0.0
C1645 C 0.84758 0.61711 0.87858 0.0
H1646 H 0.37714 0.64745 0.375 0.0
H1647 H 0.24532 0.51561 0.37286 0.0
H1648 H 0.31418 0.50331 0.38838 0.0
H1649 H 0.57266 0.61064 0.3846 0.0
H1650 H 0.59016 0.66635 0.39276 0.0
H1651 H 0.53228 0.66363 0.38136 0.0
H1652 H 0.40738 0.70643 0.39132 0.0
H1653 H 0.46513 0.70948 0.40272 0.0
H1654 H 0.36284 0.68283 0.4014 0.0
H1655 H 0.39738 0.50734 0.40488 0.0
H1656 H 0.4812 0.52893 0.42043 0.0
H1657 H 0.55802 0.65695 0.41111 0.0
C1658 C 0.36302 0.61585 0.37776 0.0
C1659 C 0.30579 0.58247 0.37268 0.0
C1660 C 0.28895 0.5417 0.3766 0.0
C1661 C 0.32796 0.53437 0.38542 0.0
C1662 C 0.38413 0.56803 0.39026 0.0
C1663 C 0.40148 0.60798 0.38653 0.0
C1664 C 0.46226 0.63955 0.3932 0.0
C1665 C 0.54418 0.64536 0.38765 0.0
C1666 C 0.42198 0.68738 0.39741 0.0
C1667 C 0.47618 0.61142 0.40129 0.0
C1668 C 0.4311 0.57017 0.39953 0.0
C1669 C 0.43322 0.53952 0.40627 0.0
C1670 C 0.48135 0.55188 0.41508 0.0
C1671 C 0.52643 0.59463 0.41708 0.0
C1672 C 0.52438 0.62399 0.40992 0.0
H1673 H 0.81483 0.631 0.40661 0.0
H1674 H 0.79282 0.78188 0.41559 0.0
H1675 H 0.86796 0.79197 0.40034 0.0
H1676 H 0.02208 0.62934 0.39619 0.0
H1677 H 1.00061 0.58144 0.386 0.0
H1678 H 0.94389 0.58625 0.39752 0.0
H1679 H 0.8037 0.58473 0.38794 0.0
H1680 H 0.86007 0.5801 0.37639 0.0
H1681 H 0.7858 0.6269 0.3801 0.0
H1682 H 0.94651 0.7854 0.38365 0.0
H1683 H 0.02427 0.76235 0.36773 0.0
H1684 H 0.99734 0.6162 0.3699 0.0
C1685 C 0.82583 0.66616 0.40537 0.0
C1686 C 0.79749 0.70565 0.41236 0.0
C1687 C 0.81337 0.751 0.41038 0.0
C1688 C 0.85616 0.75712 0.40171 0.0
C1689 C 0.88312 0.71756 0.39497 0.0
C1690 C 0.86863 0.67292 0.39672 0.0
C1691 C 0.90449 0.63622 0.38832 0.0
C1692 C 0.97177 0.60658 0.39225 0.0
C1693 C 0.83435 0.60515 0.38287 0.0
C1694 C 0.94262 0.66706 0.38169 0.0
C1695 C 0.92896 0.71391 0.38556 0.0
C1696 C 0.95763 0.74873 0.38059 0.0
C1697 C 1.00175 0.73535 0.37152 0.0
C1698 C 0.018 0.68751 0.36751 0.0
C1699 C 0.98719 0.65321 0.37273 0.0
H1700 H 0.5893 0.32426 0.16919 0.0
H1701 H 0.37452 0.4046 0.16293 0.0
H1702 H 0.42055 0.39952 0.14587 0.0
H1703 H 0.72941 0.38538 0.15611 0.0
H1704 H 0.79583 0.3364 0.15108 0.0
H1705 H 0.73969 0.33704 0.16252 0.0
H1706 H 0.67135 0.25739 0.15501 0.0
H1707 H 0.72801 0.25624 0.14357 0.0
H1708 H 0.61554 0.25089 0.14337 0.0
H1709 H 0.49201 0.39454 0.13019 0.0
H1710 H 0.5886 0.38947 0.11611 0.0
H1711 H 0.77008 0.31749 0.13143 0.0
C1712 C 0.55048 0.3388 0.16406 0.0
C1713 C 0.47388 0.36188 0.16732 0.0
C1714 C 0.42882 0.38353 0.16052 0.0
C1715 C 0.45574 0.38171 0.15078 0.0
C1716 C 0.53084 0.35949 0.14781 0.0
C1717 C 0.57853 0.33858 0.15417 0.0
C1718 C 0.66166 0.32195 0.14911 0.0
C1719 C 0.73605 0.34667 0.15506 0.0
C1720 C 0.66961 0.26842 0.14768 0.0
C1721 C 0.65251 0.33745 0.13908 0.0
C1722 C 0.57582 0.3587 0.13859 0.0
C1723 C 0.55212 0.37761 0.13041 0.0
C1724 C 0.60785 0.37471 0.12244 0.0
C1725 C 0.68715 0.35311 0.12258 0.0
C1726 C 0.70977 0.33405 0.13105 0.0
H1727 H 0.10443 0.48156 0.16469 0.0
H1728 H 0.25831 0.35709 0.15646 0.0
H1729 H 0.22114 0.35245 0.13888 0.0
H1730 H 0.93644 0.43019 0.14734 0.0
H1731 H 0.90413 0.48581 0.14466 0.0
H1732 H 0.94989 0.48307 0.15656 0.0
H1733 H 0.06144 0.54373 0.15372 0.0
H1734 H 0.01708 0.54574 0.14169 0.0
H1735 H 0.12622 0.53162 0.14273 0.0
H1736 H 0.17899 0.36469 0.12216 0.0
H1737 H 0.09598 0.3739 0.10756 0.0
H1738 H 0.94294 0.47941 0.12611 0.0
C1739 C 0.12998 0.45331 0.15916 0.0
C1740 C 0.1878 0.42091 0.16195 0.0
C1741 C 0.21689 0.38341 0.15454 0.0
C1742 C 0.19619 0.38051 0.14449 0.0
C1743 C 0.14223 0.4139 0.14193 0.0
C1744 C 0.10571 0.44809 0.14906 0.0
C1745 C 0.03993 0.47487 0.14427 0.0
C1746 C 0.95241 0.46807 0.14845 0.0
C1747 C 0.06254 0.5271 0.14569 0.0
C1748 C 0.04682 0.45088 0.13333 0.0
C1749 C 0.10872 0.41702 0.13222 0.0
C1750 C 0.12954 0.3906 0.12295 0.0
C1751 C 0.08257 0.39657 0.11466 0.0
C1752 C 0.01337 0.42765 0.11561 0.0
C1753 C 0.99663 0.45626 0.12507 0.0
H1754 H 0.45454 0.36641 0.62307 0.0
H1755 H 0.48303 0.50595 0.61663 0.0
H1756 H 0.56505 0.5293 0.6322 0.0
H1757 H 0.43398 0.40131 0.64988 0.0
H1758 H 0.49198 0.35155 0.6523 0.0
H1759 H 0.43319 0.34698 0.64092 0.0
H1760 H 0.56709 0.32039 0.6307 0.0
H1761 H 0.62641 0.32504 0.64204 0.0
H1762 H 0.6594 0.35671 0.63262 0.0
H1763 H 0.64908 0.53611 0.64846 0.0
H1764 H 0.72446 0.52659 0.66371 0.0
H1765 H 0.642 0.38198 0.65937 0.0
C1766 C 0.47728 0.40212 0.62492 0.0
C1767 C 0.46162 0.43439 0.61853 0.0
C1768 C 0.4932 0.48062 0.62135 0.0
C1769 C 0.54022 0.49411 0.6302 0.0
C1770 C 0.5552 0.46111 0.63621 0.0
C1771 C 0.52421 0.41608 0.63367 0.0
C1772 C 0.55002 0.38679 0.64126 0.0
C1773 C 0.47269 0.37072 0.64639 0.0
C1774 C 0.60393 0.34475 0.63636 0.0
C1775 C 0.60121 0.42215 0.64847 0.0
C1776 C 0.60326 0.46489 0.64544 0.0
C1777 C 0.64738 0.50281 0.65087 0.0
C1778 C 0.6902 0.49702 0.65955 0.0
C1779 C 0.68933 0.45356 0.66281 0.0
C1780 C 0.64388 0.41571 0.65714 0.0
H1781 H 0.16716 0.39964 0.62615 0.0
H1782 H 0.21228 0.24989 0.61905 0.0
H1783 H 0.13771 0.24061 0.63441 0.0
H1784 H 0.19532 0.41274 0.65275 0.0
H1785 H 0.11447 0.45644 0.65576 0.0
H1786 H 0.17122 0.4509 0.64421 0.0
H1787 H 0.03153 0.44006 0.63441 0.0
H1788 H 0.97438 0.44559 0.64592 0.0
H1789 H 0.96006 0.3945 0.63625 0.0
H1790 H 0.05653 0.24845 0.6511 0.0
H1791 H 0.97791 0.27298 0.66693 0.0
H1792 H 0.9863 0.41705 0.66272 0.0
C1793 C 0.16124 0.36487 0.62781 0.0
C1794 C 0.19571 0.32548 0.62134 0.0
C1795 C 0.18665 0.28066 0.62386 0.0
C1796 C 0.14425 0.27502 0.63259 0.0
C1797 C 0.111 0.31456 0.63882 0.0
C1798 C 0.1192 0.35864 0.63651 0.0
C1799 C 0.07836 0.39559 0.64443 0.0
C1800 C 0.14373 0.431 0.64959 0.0
C1801 C 0.00683 0.42038 0.63998 0.0
C1802 C 0.04507 0.36553 0.65149 0.0
C1803 C 0.06466 0.31888 0.64821 0.0
C1804 C 0.0408 0.28498 0.65369 0.0
C1805 C 0.99599 0.29918 0.66269 0.0
C1806 C 0.97484 0.3469 0.66616 0.0
C1807 C 1.00027 0.38013 0.66037 0.0
H1808 H 0.27922 0.26144 0.54134 0.0
H1809 H 0.34442 0.40137 0.53692 0.0
H1810 H 0.31572 0.3785 0.51928 0.0
H1811 H 0.36782 0.20012 0.51735 0.0
H1812 H 0.28553 0.15695 0.51503 0.0
H1813 H 0.31419 0.18271 0.52765 0.0
H1814 H 0.16046 0.20874 0.53144 0.0
H1815 H 0.13238 0.18261 0.51885 0.0
H1816 H 0.10881 0.2434 0.52364 0.0
H1817 H 0.27566 0.34427 0.50216 0.0
H1818 H 0.23025 0.29709 0.48609 0.0
H1819 H 0.18957 0.17815 0.50048 0.0
C1820 C 0.28814 0.28702 0.53664 0.0
C1821 C 0.31437 0.33341 0.54076 0.0
C1822 C 0.32458 0.36563 0.53421 0.0
C1823 C 0.30828 0.35311 0.52404 0.0
C1824 C 0.28147 0.30791 0.52027 0.0
C1825 C 0.27176 0.27503 0.52627 0.0
C1826 C 0.24117 0.22892 0.52003 0.0
C1827 C 0.30606 0.18987 0.52002 0.0
C1828 C 0.15557 0.21516 0.52372 0.0
C1829 C 0.23428 0.24184 0.50976 0.0
C1830 C 0.25824 0.28763 0.51013 0.0
C1831 C 0.25693 0.30817 0.50172 0.0
C1832 C 0.23077 0.28111 0.49261 0.0
C1833 C 0.20623 0.23384 0.49193 0.0
C1834 C 0.20805 0.21414 0.50068 0.0
H1835 H 1.00243 0.94142 0.53201 0.0
H1836 H 0.92758 0.07112 0.55141 0.0
H1837 H 0.94722 0.11344 0.53758 0.0
H1838 H 0.16234 0.9917 0.51846 0.0
H1839 H 0.13894 0.95449 0.50663 0.0
H1840 H 0.11918 0.93406 0.51803 0.0
H1841 H 0.96458 0.91787 0.51283 0.0
H1842 H 0.9837 0.93834 0.50142 0.0
H1843 H 0.90167 0.96444 0.50972 0.0
H1844 H 0.97284 0.14195 0.52165 0.0
H1845 H 0.00649 0.15546 0.50486 0.0
H1846 H 0.06702 1.0081 0.49536 0.0
C1847 C 0.99051 0.97877 0.53335 0.0
C1848 C 0.96336 1.00296 0.54285 0.0
C1849 C 0.94814 0.05177 0.54424 0.0
C1850 C 0.95915 0.07614 0.53641 0.0
C1851 C 0.98537 0.05136 0.52714 0.0
C1852 C 1.00107 1.00376 0.52556 0.0
C1853 C 0.02859 0.98573 0.51483 0.0
C1854 C 0.11756 0.96529 0.51447 0.0
C1855 C 0.9659 0.94945 0.50938 0.0
C1856 C 0.0265 0.03068 0.51066 0.0
C1857 C 1.00086 0.06797 0.51792 0.0
C1858 C 0.99304 0.11299 0.51593 0.0
C1859 C 0.01227 0.12032 0.50633 0.0
C1860 C 0.0396 0.083 0.49874 0.0
C1861 C 0.0466 0.03746 0.50098 0.0
H1862 H 0.28425 0.02958 0.74295 0.0
H1863 H 0.28716 0.88238 0.74518 0.0
H1864 H 0.25782 0.90348 0.76293 0.0
H1865 H 0.37846 0.07384 0.7673 0.0
H1866 H 0.31302 0.1252 0.77015 0.0
H1867 H 0.33696 0.0998 0.75737 0.0
H1868 H 0.17867 0.09262 0.75333 0.0
H1869 H 0.15452 0.11805 0.7661 0.0
H1870 H 0.11174 0.06174 0.76049 0.0
H1871 H 0.22848 0.93803 0.7805 0.0
H1872 H 0.19609 0.98569 0.79699 0.0
H1873 H 0.20492 0.11156 0.78431 0.0
C1874 C 0.27874 1.0019 0.74718 0.0
C1875 C 0.2889 0.95412 0.74247 0.0
C1876 C 0.28042 0.91923 0.7484 0.0
C1877 C 0.26351 0.93077 0.7586 0.0
C1878 C 0.25374 0.97761 0.76299 0.0
C1879 C 0.26036 1.01285 0.75753 0.0
C1880 C 0.24494 0.06036 0.76431 0.0
C1881 C 0.32301 0.09164 0.76481 0.0
C1882 C 0.16788 0.08461 0.76085 0.0
C1883 C 0.22873 0.04582 0.77429 0.0
C1884 C 0.23474 0.99786 0.77331 0.0
C1885 C 0.22331 0.97572 0.78139 0.0
C1886 C 0.2049 1.00318 0.79076 0.0
C1887 C 0.19749 0.05253 0.79207 0.0
C1888 C 0.20976 0.07394 0.78364 0.0
H1889 H 0.13778 0.23991 0.78305 0.0
H1890 H 0.89629 0.18775 0.79051 0.0
H1891 H 0.83374 0.21171 0.77579 0.0
H1892 H 0.06063 0.34121 0.77438 0.0
H1893 H 0.13472 0.33704 0.76431 0.0
H1894 H 0.1618 0.31486 0.77531 0.0
H1895 H 0.19413 0.23355 0.76444 0.0
H1896 H 0.16723 0.25544 0.7534 0.0
H1897 H 0.11521 0.20428 0.75607 0.0
H1898 H 0.79589 0.24183 0.76033 0.0
H1899 H 0.7856 0.27627 0.74523 0.0
H1900 H 0.05016 0.31045 0.74751 0.0
C1901 C 0.07183 0.23338 0.78155 0.0
C1902 C 0.02202 0.21175 0.78798 0.0
C1903 C 0.93593 0.20402 0.78573 0.0
C1904 C 0.8997 0.21758 0.77737 0.0
C1905 C 0.95012 0.23892 0.77122 0.0
C1906 C 0.0344 0.24675 0.77317 0.0
C1907 C 0.07406 0.27062 0.76533 0.0
C1908 C 0.10991 0.3188 0.77012 0.0
C1909 C 0.14166 0.2391 0.75947 0.0
C1910 C 0.99873 0.27554 0.75878 0.0
C1911 C 0.92805 0.25669 0.7623 0.0
C1912 C 0.85089 0.25668 0.75751 0.0
C1913 C 0.84561 0.27637 0.74892 0.0
C1914 C 0.91678 0.29624 0.74516 0.0
C1915 C 0.99442 0.29574 0.75021 0.0
H1916 H 0.68514 0.67215 0.50151 0.0
H1917 H 0.74167 0.78749 0.48658 0.0
H1918 H 0.7868 0.83518 0.50248 0.0
H1919 H 0.60415 0.7461 0.52433 0.0
H1920 H 0.64742 0.71071 0.53255 0.0
H1921 H 0.61926 0.68411 0.51998 0.0
H1922 H 0.76883 0.65112 0.51684 0.0
H1923 H 0.79799 0.67767 0.52939 0.0
H1924 H 0.85705 0.69049 0.51902 0.0
H1925 H 0.82866 0.87022 0.51929 0.0
H1926 H 0.86007 0.89484 0.5368 0.0
H1927 H 0.776 0.75986 0.54245 0.0
C1928 C 0.70692 0.70747 0.5016 0.0
C1929 C 0.7101 0.72578 0.49266 0.0
C1930 C 0.73853 0.77234 0.49319 0.0
C1931 C 0.76451 0.79984 0.50223 0.0
C1932 C 0.76122 0.78078 0.51081 0.0
C1933 C 0.73257 0.73596 0.51068 0.0
C1934 C 0.73483 0.72522 0.52119 0.0
C1935 C 0.64612 0.71601 0.52472 0.0
C1936 C 0.79318 0.68365 0.52163 0.0
C1937 C 0.77038 0.77093 0.52717 0.0
C1938 C 0.78478 0.802 0.52088 0.0
C1939 C 0.81741 0.8463 0.5243 0.0
C1940 C 0.83534 0.85985 0.53441 0.0
C1941 C 0.8211 0.82956 0.54128 0.0
C1942 C 0.7881 0.78405 0.53752 0.0
H1943 H 0.80799 0.03472 0.24375 0.0
H1944 H 0.74324 0.8895 0.24386 0.0
H1945 H 0.71049 0.90979 0.26155 0.0
H1946 H 0.90224 0.05779 0.26854 0.0
H1947 H 0.86178 0.11657 0.27197 0.0
H1948 H 0.88221 0.09169 0.25907 0.0
H1949 H 0.72887 0.10789 0.25452 0.0
H1950 H 0.70943 0.13356 0.26738 0.0
H1951 H 0.64449 0.08612 0.2611 0.0
H1952 H 0.68604 0.9432 0.27928 0.0
H1953 H 0.66401 0.99019 0.29608 0.0
H1954 H 0.73786 0.11554 0.28538 0.0
C1955 C 0.78648 1.00734 0.24749 0.0
C1956 C 0.77851 0.96037 0.24222 0.0
C1957 C 0.75023 0.92577 0.24753 0.0
C1958 C 0.73139 0.93683 0.25768 0.0
C1959 C 0.74019 0.98292 0.26264 0.0
C1960 C 0.76651 1.01787 0.25779 0.0
C1961 C 0.76931 0.06468 0.26509 0.0
C1962 C 0.85924 0.08381 0.26623 0.0
C1963 C 0.7094 0.10016 0.26183 0.0
C1964 C 0.73929 0.0503 0.27467 0.0
C1965 C 0.72403 1.00276 0.27304 0.0
C1966 C 0.69741 0.98058 0.28066 0.0
C1967 C 0.6852 1.00766 0.29022 0.0
C1968 C 0.69869 0.05674 0.29215 0.0
C1969 C 0.72647 0.07817 0.2842 0.0
H1970 H 0.04263 0.68501 0.27938 0.0
H1971 H 0.02874 0.81448 0.30126 0.0
H1972 H 0.99387 0.85768 0.28795 0.0
H1973 H 0.13381 0.73486 0.2594 0.0
H1974 H 0.07413 0.69854 0.24968 0.0
H1975 H 0.09968 0.67748 0.26087 0.0
H1976 H 0.94275 0.66298 0.26375 0.0
H1977 H 0.91652 0.684 0.25259 0.0
H1978 H 0.86907 0.71039 0.26429 0.0
H1979 H 0.96181 0.88755 0.27229 0.0
H1980 H 0.93091 0.90178 0.25547 0.0
H1981 H 0.95942 0.7533 0.24337 0.0
C1982 C 0.03253 0.72249 0.28135 0.0
C1983 C 0.03882 0.74636 0.29142 0.0
C1984 C 0.02453 0.79536 0.29366 0.0
C1985 C 0.00467 0.82025 0.28612 0.0
C1986 C 0.99872 0.79582 0.27631 0.0
C1987 C 0.01193 0.74799 0.27388 0.0
C1988 C 1.00007 0.73031 0.26272 0.0
C1989 C 0.08179 0.70904 0.25789 0.0
C1990 C 0.92779 0.69482 0.26072 0.0
C1991 C 0.97805 0.77565 0.25928 0.0
C1992 C 0.97827 0.81298 0.26726 0.0
C1993 C 0.96133 0.85854 0.26601 0.0
C1994 C 0.94391 0.86631 0.25639 0.0
C1995 C 0.94243 0.82879 0.24806 0.0
C1996 C 0.95952 0.78273 0.24957 0.0
H1997 H 0.30228 0.86012 0.03405 0.0
H1998 H 0.29572 0.73669 0.04758 0.0
H1999 H 0.26108 0.68808 0.03129 0.0
H2000 H 0.12942 0.82708 1.01703 0.0
H2001 H 0.17613 0.84946 1.00691 0.0
H2002 H 0.20166 0.8756 0.01959 0.0
H2003 H 0.36012 0.8605 1.01601 0.0
H2004 H 0.3339 0.83631 1.00322 0.0
H2005 H 0.39449 0.8024 1.0104 0.0
H2006 H 0.23199 0.65214 1.01384 0.0
H2007 H 0.20535 0.62939 0.99607 0.0
H2008 H 0.22179 0.77506 0.9929 0.0
C2009 C 0.29363 0.82284 0.0336 0.0
C2010 C 0.30211 0.8024 0.04221 0.0
C2011 C 0.28992 0.75344 0.0412 0.0
C2012 C 0.27012 0.72544 0.03194 0.0
C2013 C 0.26224 0.74663 0.02368 0.0
C2014 C 0.27332 0.79415 0.02436 0.0
C2015 C 0.26099 0.80751 1.01419 0.0
C2016 C 0.18766 0.84196 1.01445 0.0
C2017 C 0.34218 0.82789 1.01075 0.0
C2018 C 0.24062 0.75997 1.00771 0.0
C2019 C 0.24265 0.72563 1.01343 0.0
C2020 C 0.22947 0.67876 1.00931 0.0
C2021 C 0.21396 0.66627 0.9991 0.0
C2022 C 0.20976 0.70026 0.99291 0.0
C2023 C 0.22324 0.74811 0.99735 0.0
H2024 H 0.07209 0.49239 0.99324 0.0
H2025 H 0.01581 0.64047 1.00224 0.0
H2026 H 0.97767 0.62813 0.01903 0.0
H2027 H 0.90156 0.45054 1.00713 0.0
H2028 H 0.96342 0.4035 1.01023 0.0
H2029 H 0.98475 0.42473 0.99897 0.0
H2030 H 0.13905 0.43913 1.00473 0.0
H2031 H 0.11611 0.41906 1.0161 0.0
H2032 H 0.1609 0.47637 1.0166 0.0
H2033 H 0.94798 0.60035 0.03505 0.0
H2034 H 0.9244 0.5588 0.04893 0.0
H2035 H 0.99526 0.42765 0.02977 0.0
C2036 C 0.05148 0.52216 0.99875 0.0
C2037 C 0.04687 0.56753 0.99638 0.0
C2038 C 0.01942 0.60543 1.00382 0.0
C2039 C 0.9978 0.59875 1.01341 0.0
C2040 C 1.00295 0.55376 1.01551 0.0
C2041 C 0.02858 0.51597 1.00838 0.0
C2042 C 0.0278 0.47119 1.01262 0.0
C2043 C 0.96564 0.4354 1.0069 0.0
C2044 C 0.11624 0.45022 1.01251 0.0
C2045 C 0.99809 0.48976 0.02324 0.0
C2046 C 0.9845 0.53756 0.02473 0.0
C2047 C 0.95807 0.5629 0.03393 0.0
C2048 C 0.94483 0.53895 0.0418 0.0
C2049 C 0.95768 0.48993 0.0405 0.0
C2050 C 0.98477 0.46512 0.03104 0.0
H2051 H 0.28144 0.52279 0.29287 0.0
H2052 H 0.04791 0.58911 0.28709 0.0
H2053 H 0.07217 0.56663 0.2691 0.0
H2054 H 0.39745 0.55455 0.27304 0.0
H2055 H 0.45332 0.49999 0.26953 0.0
H2056 H 0.41789 0.51885 0.28217 0.0
H2057 H 0.33708 0.44112 0.28125 0.0
H2058 H 0.37397 0.42203 0.26867 0.0
H2059 H 0.26326 0.42269 0.27128 0.0
H2060 H 0.12783 0.54641 0.2519 0.0
H2061 H 0.19715 0.51307 0.23598 0.0
H2062 H 0.38832 0.45172 0.25199 0.0
C2063 C 0.23422 0.53105 0.2878 0.0
C2064 C 0.16265 0.55787 0.29144 0.0
C2065 C 0.10331 0.56882 0.28452 0.0
C2066 C 0.11667 0.55643 0.27425 0.0
C2067 C 0.18927 0.53216 0.27088 0.0
C2068 C 0.24604 0.51821 0.27737 0.0
C2069 C 0.3185 0.49189 0.27156 0.0
C2070 C 0.4017 0.51789 0.27424 0.0
C2071 C 0.32337 0.44142 0.2733 0.0
C2072 C 0.29282 0.49312 0.26088 0.0
C2073 C 0.21913 0.51775 0.26074 0.0
C2074 C 0.18484 0.52628 0.25188 0.0
C2075 C 0.2251 0.50762 0.24287 0.0
C2076 C 0.29785 0.47973 0.24272 0.0
C2077 C 0.33252 0.47278 0.25188 0.0
H2078 H 0.76935 0.27378 0.99212 0.0
H2079 H 0.56636 0.18338 0.99804 0.0
H2080 H 0.59051 0.20684 1.01591 0.0
H2081 H 0.90545 0.25706 1.01128 0.0
H2082 H 0.93805 0.31716 1.01523 0.0
H2083 H 0.90405 0.29642 1.00259 0.0
H2084 H 0.79408 0.36221 1.00454 0.0
H2085 H 0.82556 0.38342 1.01727 0.0
H2086 H 0.71794 0.36792 1.01443 0.0
H2087 H 0.64564 0.23007 0.03287 0.0
H2088 H 0.71126 0.26634 0.04878 0.0
H2089 H 0.87073 0.34919 0.03312 0.0
C2090 C 0.72846 0.2602 0.9972 0.0
C2091 C 0.66654 0.22608 0.99356 0.0
C2092 C 0.61496 0.20898 1.00053 0.0
C2093 C 0.62816 0.22198 1.01077 0.0
C2094 C 0.69184 0.25347 1.01412 0.0
C2095 C 0.7395 0.27385 1.00765 0.0
C2096 C 0.80245 0.30784 1.01356 0.0
C2097 C 0.89286 0.29374 1.01048 0.0
C2098 C 0.78392 0.35834 1.01237 0.0
C2099 C 0.78435 0.30147 0.02417 0.0
C2100 C 0.72063 0.26957 0.02424 0.0
C2101 C 0.69464 0.25587 0.03297 0.0
C2102 C 0.73291 0.27638 0.04198 0.0
C2103 C 0.79594 0.31083 0.04228 0.0
C2104 C 0.82233 0.32318 0.03318 0.0
H2105 H 0.64824 0.60337 0.78322 0.0
H2106 H 0.76126 0.50069 0.79839 0.0
H2107 H 0.81977 0.45938 0.78245 0.0
H2108 H 0.59143 0.51931 0.76065 0.0
H2109 H 0.61235 0.55976 0.75249 0.0
H2110 H 0.57987 0.58146 0.76516 0.0
H2111 H 0.71275 0.63398 0.76793 0.0
H2112 H 0.74482 0.61156 0.75527 0.0
H2113 H 0.81435 0.60732 0.76543 0.0
H2114 H 0.87262 0.43144 0.76543 0.0
H2115 H 0.89982 0.40948 0.74757 0.0
H2116 H 0.74635 0.52534 0.7422 0.0
C2117 C 0.68485 0.572 0.78318 0.0
C2118 C 0.70006 0.55544 0.79216 0.0
C2119 C 0.74801 0.51409 0.7917 0.0
C2120 C 0.78221 0.49053 0.78266 0.0
C2121 C 0.76737 0.5082 0.77404 0.0
C2122 C 0.71854 0.54738 0.77413 0.0
C2123 C 0.71004 0.55739 0.76361 0.0
C2124 C 0.61795 0.55428 0.76028 0.0
C2125 C 0.74773 0.60542 0.76303 0.0
C2126 C 0.76192 0.5176 0.75761 0.0
C2127 C 0.79516 0.49041 0.76392 0.0
C2128 C 0.84603 0.45207 0.76042 0.0
C2129 C 0.86102 0.43985 0.75019 0.0
C2130 C 0.8245 0.46504 0.74336 0.0
C2131 C 0.77567 0.50541 0.74718 0.0
H2132 H 0.44892 0.03166 0.995 0.0
H2133 H 0.70744 0.07266 1.00138 0.0
H2134 H 0.69709 0.04783 1.01758 0.0
H2135 H 0.3727 0.0695 0.02029 0.0
H2136 H 0.30055 0.0214 0.01972 0.0
H2137 H 0.32738 0.04209 1.00853 0.0
H2138 H 0.37584 0.95848 1.00011 0.0
H2139 H 0.34593 0.93821 1.01123 0.0
H2140 H 0.4509 0.92821 1.00642 0.0
H2141 H 0.65996 0.01906 0.03312 0.0
H2142 H 0.59903 0.98733 0.04698 0.0
H2143 H 0.3634 0.96368 0.031 0.0
C2144 C 0.50338 0.03519 0.9998 0.0
C2145 C 0.57937 0.05394 0.99685 0.0
C2146 C 0.64887 0.0582 1.00339 0.0
C2147 C 0.64352 0.04424 1.01264 0.0
C2148 C 0.56813 0.0259 1.01533 0.0
C2149 C 0.49915 0.02124 1.00912 0.0
C2150 C 0.42554 1.00061 1.01392 0.0
C2151 C 0.35221 0.03549 1.01572 0.0
C2152 C 0.39802 0.95356 1.00754 0.0
C2153 C 0.46434 0.99391 0.02372 0.0
C2154 C 0.54658 1.00904 0.02436 0.0
C2155 C 0.59576 1.00693 0.03268 0.0
C2156 C 0.56052 0.9887 0.04053 0.0
C2157 C 0.47657 0.97266 0.04011 0.0
C2158 C 0.42782 0.97551 0.03156 0.0
H2159 H 0.52488 0.28451 0.29222 0.0
H2160 H 0.57267 0.13801 0.27978 0.0
H2161 H 0.53736 0.1518 0.26303 0.0
H2162 H 0.34607 0.29034 0.27624 0.0
H2163 H 0.36295 0.34934 0.27459 0.0
H2164 H 0.39632 0.33209 0.28593 0.0
H2165 H 0.54826 0.35675 0.28373 0.0
H2166 H 0.51762 0.37775 0.27271 0.0
H2167 H 0.60157 0.33581 0.2721 0.0
H2168 H 0.50335 0.18146 0.24745 0.0
H2169 H 0.46352 0.22401 0.23422 0.0
H2170 H 0.43014 0.35129 0.25637 0.0
C2171 C 0.52849 0.25546 0.28595 0.0
C2172 C 0.5526 0.21016 0.28734 0.0
C2173 C 0.55478 0.17297 0.27895 0.0
C2174 C 0.53508 0.18048 0.26937 0.0
C2175 C 0.51215 0.22538 0.26823 0.0
C2176 C 0.50772 0.2622 0.27628 0.0
C2177 C 0.4762 0.30627 0.273 0.0
C2178 C 0.39038 0.32039 0.27773 0.0
C2179 C 0.53974 0.34652 0.27554 0.0
C2180 C 0.46831 0.28914 0.26177 0.0
C2181 C 0.48858 0.24214 0.25923 0.0
C2182 C 0.4868 0.21819 0.24936 0.0
C2183 C 0.46401 0.24274 0.24187 0.0
C2184 C 0.44327 0.29102 0.2442 0.0
C2185 C 0.44529 0.31439 0.25433 0.0
H2186 H 0.54215 0.6784 0.77902 0.0
H2187 H 0.59965 0.8102 0.79875 0.0
H2188 H 0.56436 0.85297 0.78545 0.0
H2189 H 0.6317 0.7126 0.75684 0.0
H2190 H 0.5542 0.68231 0.7484 0.0
H2191 H 0.58147 0.66088 0.75947 0.0
H2192 H 0.42673 0.66453 0.76493 0.0
H2193 H 0.39805 0.68568 0.75386 0.0
H2194 H 0.36962 0.71875 0.76595 0.0
H2195 H 0.52155 0.88234 0.77031 0.0
H2196 H 0.47985 0.89661 0.75383 0.0
H2197 H 0.4529 0.74682 0.74308 0.0
C2198 C 0.54723 0.71624 0.78051 0.0
C2199 C 0.57225 0.74107 0.79005 0.0
C2200 C 0.57924 0.7905 0.79162 0.0
C2201 C 0.55963 0.81514 0.78408 0.0
C2202 C 0.53436 0.78997 0.77483 0.0
C2203 C 0.52898 0.7416 0.77294 0.0
C2204 C 0.5023 0.72354 0.76217 0.0
C2205 C 0.57155 0.69304 0.75638 0.0
C2206 C 0.41921 0.69654 0.76171 0.0
C2207 C 0.49188 0.76936 0.75844 0.0
C2208 C 0.51112 0.8071 0.76591 0.0
C2209 C 0.50682 0.85305 0.76438 0.0
C2210 C 0.4831 0.86082 0.75497 0.0
C2211 C 0.46336 0.82297 0.74712 0.0
C2212 C 0.46745 0.77654 0.74893 0.0
H2213 H 0.49759 0.43985 0.53224 0.0
H2214 H 0.40785 0.57031 0.55008 0.0
H2215 H 0.4343 0.61049 0.53608 0.0
H2216 H 0.66227 0.48979 0.51928 0.0
H2217 H 0.6451 0.4508 0.50751 0.0
H2218 H 0.62049 0.43192 0.51896 0.0
H2219 H 0.46889 0.41306 0.5128 0.0
H2220 H 0.4929 0.43198 0.50133 0.0
H2221 H 0.40666 0.45804 0.50893 0.0
H2222 H 0.46856 0.63703 0.52015 0.0
H2223 H 0.50976 0.64845 0.50342 0.0
H2224 H 0.57734 0.50146 0.49531 0.0
C2225 C 0.48398 0.47693 0.5332 0.0
C2226 C 0.4513 0.50202 0.54236 0.0
C2227 C 0.43341 0.55035 0.54323 0.0
C2228 C 0.44808 0.57352 0.53528 0.0
C2229 C 0.48004 0.54796 0.52638 0.0
C2230 C 0.49768 0.50069 0.52525 0.0
C2231 C 0.53056 0.48159 0.51478 0.0
C2232 C 0.61993 0.4624 0.51516 0.0
C2233 C 0.47123 0.44394 0.50913 0.0
C2234 C 0.52953 0.52561 0.51026 0.0
C2235 C 0.49968 0.56336 0.51711 0.0
C2236 C 0.49198 0.6077 0.51474 0.0
C2237 C 0.51549 0.61384 0.50518 0.0
C2238 C 0.54687 0.57602 0.49799 0.0
C2239 C 0.55387 0.53121 0.50062 0.0
loop_
_geom_bond_atom_site_label_1
_geom_bond_atom_site_label_2
_geom_bond_distance
_geom_bond_site_symmetry_2
_ccdc_geom_bond_type
Co0 H3 2.400 . S
Co0 O4 2.009 . S
Co0 O12 2.115 . S
Co0 O13 2.315 . S
Co0 O24 2.053 . S
Co0 O27 2.094 . S
Co0 O30 2.122 . S
Co1 O4 2.126 . S
Co1 H5 2.388 . S
Co1 O6 2.053 . S
Co1 O9 2.047 . S
Co1 O15 2.113 . S
Co1 O26 2.063 . S
Co2 H3 2.388 . S
Co2 O4 2.053 . S
Co2 O6 2.126 . S
Co2 O11 2.063 . S
Co2 O25 2.047 . S
Co2 O31 2.113 . S
H3 Co0 2.400 . S
H3 Co2 2.388 . S
H3 O4 0.760 . S
O4 Co0 2.009 . S
O4 Co1 2.126 . S
O4 Co2 2.053 . S
O4 H3 0.760 . S
H5 Co1 2.388 . S
H5 O6 0.760 . S
H5 Co7 2.400 . S
O6 Co1 2.053 . S
O6 Co2 2.126 . S
O6 H5 0.760 . S
O6 Co7 2.009 . S
Co7 H5 2.400 . S
Co7 O6 2.009 . S
Co7 O8 2.053 . S
Co7 O10 2.094 . S
Co7 O14 2.122 . S
Co7 O28 2.115 . S
Co7 O29 2.315 . S
O8 Co7 2.053 . S
O8 C20 1.259 . S
O9 Co1 2.047 . S
O9 C20 1.257 . S
O10 Co7 2.094 . S
O10 C21 1.253 . S
O11 Co2 2.063 . S
O11 C21 1.268 . S
O12 Co0 2.115 . S
O12 C22 1.281 . S
O13 Co0 2.315 . S
O13 C22 1.252 . S
O14 Co7 2.122 . S
O14 C23 1.272 . S
O15 Co1 2.113 . S
O15 C23 1.245 . S
C16 O24 1.259 . S
C16 O25 1.257 . S
C17 O26 1.268 . S
C17 O27 1.253 . S
C18 O28 1.281 . S
C18 O29 1.252 . S
C19 O30 1.272 . S
C19 O31 1.245 . S
C20 O8 1.259 . S
C20 O9 1.257 . S
C21 O10 1.253 . S
C21 O11 1.268 . S
C22 O12 1.281 . S
C22 O13 1.252 . S
C23 O14 1.272 . S
C23 O15 1.245 . S
O24 Co0 2.053 . S
O24 C16 1.259 . S
O25 Co2 2.047 . S
O25 C16 1.257 . S
O26 Co1 2.063 . S
O26 C17 1.268 . S
O27 Co0 2.094 . S
O27 C17 1.253 . S
O28 Co7 2.115 . S
O28 C18 1.281 . S
O29 Co7 2.315 . S
O29 C18 1.252 . S
O30 Co0 2.122 . S
O30 C19 1.272 . S
O31 Co2 2.113 . S
O31 C19 1.245 . S
Co32 H35 2.400 . S
Co32 O36 2.009 . S
Co32 O44 2.115 . S
Co32 O45 2.315 . S
Co32 O56 2.053 . S
Co32 O59 2.094 . S
Co32 O62 2.122 . S
Co33 O36 2.126 . S
Co33 H37 2.388 . S
Co33 O38 2.053 . S
Co33 O41 2.047 . S
Co33 O47 2.113 . S
Co33 O58 2.063 . S
Co34 H35 2.388 . S
Co34 O36 2.053 . S
Co34 O38 2.126 . S
Co34 O43 2.063 . S
Co34 O57 2.047 . S
Co34 O63 2.113 . S
H35 Co32 2.400 . S
H35 Co34 2.388 . S
H35 O36 0.760 . S
O36 Co32 2.009 . S
O36 Co33 2.126 . S
O36 Co34 2.053 . S
O36 H35 0.760 . S
H37 Co33 2.388 . S
H37 O38 0.760 . S
H37 Co39 2.400 . S
O38 Co33 2.053 . S
O38 Co34 2.126 . S
O38 H37 0.760 . S
O38 Co39 2.009 . S
Co39 H37 2.400 . S
Co39 O38 2.009 . S
Co39 O40 2.053 . S
Co39 O42 2.094 . S
Co39 O46 2.122 . S
Co39 O60 2.115 . S
Co39 O61 2.315 . S
O40 Co39 2.053 . S
O40 C52 1.259 . S
O41 Co33 2.047 . S
O41 C52 1.257 . S
O42 Co39 2.094 . S
O42 C53 1.253 . S
O43 Co34 2.063 . S
O43 C53 1.268 . S
O44 Co32 2.115 . S
O44 C54 1.281 . S
O45 Co32 2.315 . S
O45 C54 1.252 . S
O46 Co39 2.122 . S
O46 C55 1.272 . S
O47 Co33 2.113 . S
O47 C55 1.245 . S
C48 O56 1.259 . S
C48 O57 1.257 . S
C49 O58 1.268 . S
C49 O59 1.253 . S
C50 O60 1.281 . S
C50 O61 1.252 . S
C51 O62 1.272 . S
C51 O63 1.245 . S
C52 O40 1.259 . S
C52 O41 1.257 . S
C53 O42 1.253 . S
C53 O43 1.268 . S
C54 O44 1.281 . S
C54 O45 1.252 . S
C55 O46 1.272 . S
C55 O47 1.245 . S
O56 Co32 2.053 . S
O56 C48 1.259 . S
O57 Co34 2.047 . S
O57 C48 1.257 . S
O58 Co33 2.063 . S
O58 C49 1.268 . S
O59 Co32 2.094 . S
O59 C49 1.253 . S
O60 Co39 2.115 . S
O60 C50 1.281 . S
O61 Co39 2.315 . S
O61 C50 1.252 . S
O62 Co32 2.122 . S
O62 C51 1.272 . S
O63 Co34 2.113 . S
O63 C51 1.245 . S
Co64 H67 2.400 . S
Co64 O68 2.009 . S
Co64 O76 2.115 . S
Co64 O77 2.315 . S
Co64 O88 2.053 . S
Co64 O91 2.094 . S
Co64 O94 2.122 . S
Co65 O68 2.126 . S
Co65 H69 2.388 . S
Co65 O70 2.053 . S
Co65 O73 2.047 . S
Co65 O79 2.113 . S
Co65 O90 2.063 . S
Co66 H67 2.388 . S
Co66 O68 2.053 . S
Co66 O70 2.126 . S
Co66 O75 2.063 . S
Co66 O89 2.047 . S
Co66 O95 2.113 . S
H67 Co64 2.400 . S
H67 Co66 2.388 . S
H67 O68 0.760 . S
O68 Co64 2.009 . S
O68 Co65 2.126 . S
O68 Co66 2.053 . S
O68 H67 0.760 . S
H69 Co65 2.388 . S
H69 O70 0.760 . S
H69 Co71 2.400 . S
O70 Co65 2.053 . S
O70 Co66 2.126 . S
O70 H69 0.760 . S
O70 Co71 2.009 . S
Co71 H69 2.400 . S
Co71 O70 2.009 . S
Co71 O72 2.053 . S
Co71 O74 2.094 . S
Co71 O78 2.122 . S
Co71 O92 2.115 . S
Co71 O93 2.315 . S
O72 Co71 2.053 . S
O72 C84 1.259 . S
O73 Co65 2.047 . S
O73 C84 1.257 . S
O74 Co71 2.094 . S
O74 C85 1.253 . S
O75 Co66 2.063 . S
O75 C85 1.268 . S
O76 Co64 2.115 . S
O76 C86 1.281 . S
O77 Co64 2.315 . S
O77 C86 1.252 . S
O78 Co71 2.122 . S
O78 C87 1.272 . S
O79 Co65 2.113 . S
O79 C87 1.245 . S
C80 O88 1.259 . S
C80 O89 1.257 . S
C81 O90 1.268 . S
C81 O91 1.253 . S
C82 O92 1.281 . S
C82 O93 1.252 . S
C83 O94 1.272 . S
C83 O95 1.245 . S
C84 O72 1.259 . S
C84 O73 1.257 . S
C85 O74 1.253 . S
C85 O75 1.268 . S
C86 O76 1.281 . S
C86 O77 1.252 . S
C87 O78 1.272 . S
C87 O79 1.245 . S
O88 Co64 2.053 . S
O88 C80 1.259 . S
O89 Co66 2.047 . S
O89 C80 1.257 . S
O90 Co65 2.063 . S
O90 C81 1.268 . S
O91 Co64 2.094 . S
O91 C81 1.253 . S
O92 Co71 2.115 . S
O92 C82 1.281 . S
O93 Co71 2.315 . S
O93 C82 1.252 . S
O94 Co64 2.122 . S
O94 C83 1.272 . S
O95 Co66 2.113 . S
O95 C83 1.245 . S
Co96 H99 2.400 . S
Co96 O100 2.009 . S
Co96 O108 2.115 . S
Co96 O109 2.315 . S
Co96 O120 2.053 . S
Co96 O123 2.094 . S
Co96 O126 2.122 . S
Co97 O100 2.126 . S
Co97 H101 2.388 . S
Co97 O102 2.053 . S
Co97 O105 2.047 . S
Co97 O111 2.113 . S
Co97 O122 2.063 . S
Co98 H99 2.388 . S
Co98 O100 2.053 . S
Co98 O102 2.126 . S
Co98 O107 2.063 . S
Co98 O121 2.047 . S
Co98 O127 2.113 . S
H99 Co96 2.400 . S
H99 Co98 2.388 . S
H99 O100 0.760 . S
O100 Co96 2.009 . S
O100 Co97 2.126 . S
O100 Co98 2.053 . S
O100 H99 0.760 . S
H101 Co97 2.388 . S
H101 O102 0.760 . S
H101 Co103 2.400 . S
O102 Co97 2.053 . S
O102 Co98 2.126 . S
O102 H101 0.760 . S
O102 Co103 2.009 . S
Co103 H101 2.400 . S
Co103 O102 2.009 . S
Co103 O104 2.053 . S
Co103 O106 2.094 . S
Co103 O110 2.122 . S
Co103 O124 2.115 . S
Co103 O125 2.315 . S
O104 Co103 2.053 . S
O104 C116 1.259 . S
O105 Co97 2.047 . S
O105 C116 1.257 . S
O106 Co103 2.094 . S
O106 C117 1.253 . S
O107 Co98 2.063 . S
O107 C117 1.268 . S
O108 Co96 2.115 . S
O108 C118 1.281 . S
O109 Co96 2.315 . S
O109 C118 1.252 . S
O110 Co103 2.122 . S
O110 C119 1.272 . S
O111 Co97 2.113 . S
O111 C119 1.245 . S
C112 O120 1.259 . S
C112 O121 1.257 . S
C113 O122 1.268 . S
C113 O123 1.253 . S
C114 O124 1.281 . S
C114 O125 1.252 . S
C115 O126 1.272 . S
C115 O127 1.245 . S
C116 O104 1.259 . S
C116 O105 1.257 . S
C117 O106 1.253 . S
C117 O107 1.268 . S
C118 O108 1.281 . S
C118 O109 1.252 . S
C119 O110 1.272 . S
C119 O111 1.245 . S
O120 Co96 2.053 . S
O120 C112 1.259 . S
O121 Co98 2.047 . S
O121 C112 1.257 . S
O122 Co97 2.063 . S
O122 C113 1.268 . S
O123 Co96 2.094 . S
O123 C113 1.253 . S
O124 Co103 2.115 . S
O124 C114 1.281 . S
O125 Co103 2.315 . S
O125 C114 1.252 . S
O126 Co96 2.122 . S
O126 C115 1.272 . S
O127 Co98 2.113 . S
O127 C115 1.245 . S
Co128 H131 2.400 . S
Co128 O132 2.009 . S
Co128 O140 2.115 . S
Co128 O141 2.315 . S
Co128 O152 2.053 . S
Co128 O155 2.094 . S
Co128 O158 2.122 . S
Co129 O132 2.126 . S
Co129 H133 2.388 . S
Co129 O134 2.053 . S
Co129 O137 2.047 . S
Co129 O143 2.113 . S
Co129 O154 2.063 . S
Co130 H131 2.388 . S
Co130 O132 2.053 . S
Co130 O134 2.126 . S
Co130 O139 2.063 . S
Co130 O153 2.047 . S
Co130 O159 2.113 . S
H131 Co128 2.400 . S
H131 Co130 2.388 . S
H131 O132 0.760 . S
O132 Co128 2.009 . S
O132 Co129 2.126 . S
O132 Co130 2.053 . S
O132 H131 0.760 . S
H133 Co129 2.388 . S
H133 O134 0.760 . S
H133 Co135 2.400 . S
O134 Co129 2.053 . S
O134 Co130 2.126 . S
O134 H133 0.760 . S
O134 Co135 2.009 . S
Co135 H133 2.400 . S
Co135 O134 2.009 . S
Co135 O136 2.053 . S
Co135 O138 2.094 . S
Co135 O142 2.122 . S
Co135 O156 2.115 . S
Co135 O157 2.315 . S
O136 Co135 2.053 . S
O136 C148 1.259 . S
O137 Co129 2.047 . S
O137 C148 1.257 . S
O138 Co135 2.094 . S
O138 C149 1.253 . S
O139 Co130 2.063 . S
O139 C149 1.268 . S
O140 Co128 2.115 . S
O140 C150 1.281 . S
O141 Co128 2.315 . S
O141 C150 1.252 . S
O142 Co135 2.122 . S
O142 C151 1.272 . S
O143 Co129 2.113 . S
O143 C151 1.245 . S
C144 O152 1.259 . S
C144 O153 1.257 . S
C145 O154 1.268 . S
C145 O155 1.253 . S
C146 O156 1.281 . S
C146 O157 1.252 . S
C147 O158 1.272 . S
C147 O159 1.245 . S
C148 O136 1.259 . S
C148 O137 1.257 . S
C149 O138 1.253 . S
C149 O139 1.268 . S
C150 O140 1.281 . S
C150 O141 1.252 . S
C151 O142 1.272 . S
C151 O143 1.245 . S
O152 Co128 2.053 . S
O152 C144 1.259 . S
O153 Co130 2.047 . S
O153 C144 1.257 . S
O154 Co129 2.063 . S
O154 C145 1.268 . S
O155 Co128 2.094 . S
O155 C145 1.253 . S
O156 Co135 2.115 . S
O156 C146 1.281 . S
O157 Co135 2.315 . S
O157 C146 1.252 . S
O158 Co128 2.122 . S
O158 C147 1.272 . S
O159 Co130 2.113 . S
O159 C147 1.245 . S
Co160 H163 2.400 . S
Co160 O164 2.009 . S
Co160 O172 2.115 . S
Co160 O173 2.315 . S
Co160 O184 2.053 . S
Co160 O187 2.094 . S
Co160 O190 2.122 . S
Co161 O164 2.126 . S
Co161 H165 2.388 . S
Co161 O166 2.053 . S
Co161 O169 2.047 . S
Co161 O175 2.113 . S
Co161 O186 2.063 . S
Co162 H163 2.388 . S
Co162 O164 2.053 . S
Co162 O166 2.126 . S
Co162 O171 2.063 . S
Co162 O185 2.047 . S
Co162 O191 2.113 . S
H163 Co160 2.400 . S
H163 Co162 2.388 . S
H163 O164 0.760 . S
O164 Co160 2.009 . S
O164 Co161 2.126 . S
O164 Co162 2.053 . S
O164 H163 0.760 . S
H165 Co161 2.388 . S
H165 O166 0.760 . S
H165 Co167 2.400 . S
O166 Co161 2.053 . S
O166 Co162 2.126 . S
O166 H165 0.760 . S
O166 Co167 2.009 . S
Co167 H165 2.400 . S
Co167 O166 2.009 . S
Co167 O168 2.053 . S
Co167 O170 2.094 . S
Co167 O174 2.122 . S
Co167 O188 2.115 . S
Co167 O189 2.315 . S
O168 Co167 2.053 . S
O168 C180 1.259 . S
O169 Co161 2.047 . S
O169 C180 1.257 . S
O170 Co167 2.094 . S
O170 C181 1.253 . S
O171 Co162 2.063 . S
O171 C181 1.268 . S
O172 Co160 2.115 . S
O172 C182 1.281 . S
O173 Co160 2.315 . S
O173 C182 1.252 . S
O174 Co167 2.122 . S
O174 C183 1.272 . S
O175 Co161 2.113 . S
O175 C183 1.245 . S
C176 O184 1.259 . S
C176 O185 1.257 . S
C177 O186 1.268 . S
C177 O187 1.253 . S
C178 O188 1.281 . S
C178 O189 1.252 . S
C179 O190 1.272 . S
C179 O191 1.245 . S
C180 O168 1.259 . S
C180 O169 1.257 . S
C181 O170 1.253 . S
C181 O171 1.268 . S
C182 O172 1.281 . S
C182 O173 1.252 . S
C183 O174 1.272 . S
C183 O175 1.245 . S
O184 Co160 2.053 . S
O184 C176 1.259 . S
O185 Co162 2.047 . S
O185 C176 1.257 . S
O186 Co161 2.063 . S
O186 C177 1.268 . S
O187 Co160 2.094 . S
O187 C177 1.253 . S
O188 Co167 2.115 . S
O188 C178 1.281 . S
O189 Co167 2.315 . S
O189 C178 1.252 . S
O190 Co160 2.122 . S
O190 C179 1.272 . S
O191 Co162 2.113 . S
O191 C179 1.245 . S
Co192 H195 2.400 . S
Co192 O196 2.009 . S
Co192 O204 2.115 . S
Co192 O205 2.315 . S
Co192 O216 2.053 . S
Co192 O219 2.094 . S
Co192 O222 2.122 . S
Co193 O196 2.126 . S
Co193 H197 2.388 . S
Co193 O198 2.053 . S
Co193 O201 2.047 . S
Co193 O207 2.113 . S
Co193 O218 2.063 . S
Co194 H195 2.388 . S
Co194 O196 2.053 . S
Co194 O198 2.126 . S
Co194 O203 2.063 . S
Co194 O217 2.047 . S
Co194 O223 2.113 . S
H195 Co192 2.400 . S
H195 Co194 2.388 . S
H195 O196 0.760 . S
O196 Co192 2.009 . S
O196 Co193 2.126 . S
O196 Co194 2.053 . S
O196 H195 0.760 . S
H197 Co193 2.388 . S
H197 O198 0.760 . S
H197 Co199 2.400 . S
O198 Co193 2.053 . S
O198 Co194 2.126 . S
O198 H197 0.760 . S
O198 Co199 2.009 . S
Co199 H197 2.400 . S
Co199 O198 2.009 . S
Co199 O200 2.053 . S
Co199 O202 2.094 . S
Co199 O206 2.122 . S
Co199 O220 2.115 . S
Co199 O221 2.315 . S
O200 Co199 2.053 . S
O200 C212 1.259 . S
O201 Co193 2.047 . S
O201 C212 1.257 . S
O202 Co199 2.094 . S
O202 C213 1.253 . S
O203 Co194 2.063 . S
O203 C213 1.268 . S
O204 Co192 2.115 . S
O204 C214 1.281 . S
O205 Co192 2.315 . S
O205 C214 1.252 . S
O206 Co199 2.122 . S
O206 C215 1.272 . S
O207 Co193 2.113 . S
O207 C215 1.245 . S
C208 O216 1.259 . S
C208 O217 1.257 . S
C209 O218 1.268 . S
C209 O219 1.253 . S
C210 O220 1.281 . S
C210 O221 1.252 . S
C211 O222 1.272 . S
C211 O223 1.245 . S
C212 O200 1.259 . S
C212 O201 1.257 . S
C213 O202 1.253 . S
C213 O203 1.268 . S
C214 O204 1.281 . S
C214 O205 1.252 . S
C215 O206 1.272 . S
C215 O207 1.245 . S
O216 Co192 2.053 . S
O216 C208 1.259 . S
O217 Co194 2.047 . S
O217 C208 1.257 . S
O218 Co193 2.063 . S
O218 C209 1.268 . S
O219 Co192 2.094 . S
O219 C209 1.253 . S
O220 Co199 2.115 . S
O220 C210 1.281 . S
O221 Co199 2.315 . S
O221 C210 1.252 . S
O222 Co192 2.122 . S
O222 C211 1.272 . S
O223 Co194 2.113 . S
O223 C211 1.245 . S
Co224 H227 2.400 . S
Co224 O228 2.009 . S
Co224 O236 2.115 . S
Co224 O237 2.315 . S
Co224 O248 2.053 . S
Co224 O251 2.094 . S
Co224 O254 2.122 . S
Co225 O228 2.126 . S
Co225 H229 2.388 . S
Co225 O230 2.053 . S
Co225 O233 2.047 . S
Co225 O239 2.113 . S
Co225 O250 2.063 . S
Co226 H227 2.388 . S
Co226 O228 2.053 . S
Co226 O230 2.126 . S
Co226 O235 2.063 . S
Co226 O249 2.047 . S
Co226 O255 2.113 . S
H227 Co224 2.400 . S
H227 Co226 2.388 . S
H227 O228 0.760 . S
O228 Co224 2.009 . S
O228 Co225 2.126 . S
O228 Co226 2.053 . S
O228 H227 0.760 . S
H229 Co225 2.388 . S
H229 O230 0.760 . S
H229 Co231 2.400 . S
O230 Co225 2.053 . S
O230 Co226 2.126 . S
O230 H229 0.760 . S
O230 Co231 2.009 . S
Co231 H229 2.400 . S
Co231 O230 2.009 . S
Co231 O232 2.053 . S
Co231 O234 2.094 . S
Co231 O238 2.122 . S
Co231 O252 2.115 . S
Co231 O253 2.315 . S
O232 Co231 2.053 . S
O232 C244 1.259 . S
O233 Co225 2.047 . S
O233 C244 1.257 . S
O234 Co231 2.094 . S
O234 C245 1.253 . S
O235 Co226 2.063 . S
O235 C245 1.268 . S
O236 Co224 2.115 . S
O236 C246 1.281 . S
O237 Co224 2.315 . S
O237 C246 1.252 . S
O238 Co231 2.122 . S
O238 C247 1.272 . S
O239 Co225 2.113 . S
O239 C247 1.245 . S
C240 O248 1.259 . S
C240 O249 1.257 . S
C241 O250 1.268 . S
C241 O251 1.253 . S
C242 O252 1.281 . S
C242 O253 1.252 . S
C243 O254 1.272 . S
C243 O255 1.245 . S
C244 O232 1.259 . S
C244 O233 1.257 . S
C245 O234 1.253 . S
C245 O235 1.268 . S
C246 O236 1.281 . S
C246 O237 1.252 . S
C247 O238 1.272 . S
C247 O239 1.245 . S
O248 Co224 2.053 . S
O248 C240 1.259 . S
O249 Co226 2.047 . S
O249 C240 1.257 . S
O250 Co225 2.063 . S
O250 C241 1.268 . S
O251 Co224 2.094 . S
O251 C241 1.253 . S
O252 Co231 2.115 . S
O252 C242 1.281 . S
O253 Co231 2.315 . S
O253 C242 1.252 . S
O254 Co224 2.122 . S
O254 C243 1.272 . S
O255 Co226 2.113 . S
O255 C243 1.245 . S
Co256 H259 2.400 . S
Co256 O260 2.009 . S
Co256 O268 2.115 . S
Co256 O269 2.315 . S
Co256 O280 2.053 . S
Co256 O283 2.094 . S
Co256 O286 2.122 . S
Co257 O260 2.126 . S
Co257 H261 2.388 . S
Co257 O262 2.053 . S
Co257 O265 2.047 . S
Co257 O271 2.113 . S
Co257 O282 2.063 . S
Co258 H259 2.388 . S
Co258 O260 2.053 . S
Co258 O262 2.126 . S
Co258 O267 2.063 . S
Co258 O281 2.047 . S
Co258 O287 2.113 . S
H259 Co256 2.400 . S
H259 Co258 2.388 . S
H259 O260 0.760 . S
O260 Co256 2.009 . S
O260 Co257 2.126 . S
O260 Co258 2.053 . S
O260 H259 0.760 . S
H261 Co257 2.388 . S
H261 O262 0.760 . S
H261 Co263 2.400 . S
O262 Co257 2.053 . S
O262 Co258 2.126 . S
O262 H261 0.760 . S
O262 Co263 2.009 . S
Co263 H261 2.400 . S
Co263 O262 2.009 . S
Co263 O264 2.053 . S
Co263 O266 2.094 . S
Co263 O270 2.122 . S
Co263 O284 2.115 . S
Co263 O285 2.315 . S
O264 Co263 2.053 . S
O264 C276 1.259 . S
O265 Co257 2.047 . S
O265 C276 1.257 . S
O266 Co263 2.094 . S
O266 C277 1.253 . S
O267 Co258 2.063 . S
O267 C277 1.268 . S
O268 Co256 2.115 . S
O268 C278 1.281 . S
O269 Co256 2.315 . S
O269 C278 1.252 . S
O270 Co263 2.122 . S
O270 C279 1.272 . S
O271 Co257 2.113 . S
O271 C279 1.245 . S
C272 O280 1.259 . S
C272 O281 1.257 . S
C273 O282 1.268 . S
C273 O283 1.253 . S
C274 O284 1.281 . S
C274 O285 1.252 . S
C275 O286 1.272 . S
C275 O287 1.245 . S
C276 O264 1.259 . S
C276 O265 1.257 . S
C277 O266 1.253 . S
C277 O267 1.268 . S
C278 O268 1.281 . S
C278 O269 1.252 . S
C279 O270 1.272 . S
C279 O271 1.245 . S
O280 Co256 2.053 . S
O280 C272 1.259 . S
O281 Co258 2.047 . S
O281 C272 1.257 . S
O282 Co257 2.063 . S
O282 C273 1.268 . S
O283 Co256 2.094 . S
O283 C273 1.253 . S
O284 Co263 2.115 . S
O284 C274 1.281 . S
O285 Co263 2.315 . S
O285 C274 1.252 . S
O286 Co256 2.122 . S
O286 C275 1.272 . S
O287 Co258 2.113 . S
O287 C275 1.245 . S
Co288 H291 2.400 . S
Co288 O292 2.009 . S
Co288 O300 2.115 . S
Co288 O301 2.315 . S
Co288 O312 2.053 . S
Co288 O315 2.094 . S
Co288 O318 2.122 . S
Co289 O292 2.126 . S
Co289 H293 2.388 . S
Co289 O294 2.053 . S
Co289 O297 2.047 . S
Co289 O303 2.113 . S
Co289 O314 2.063 . S
Co290 H291 2.388 . S
Co290 O292 2.053 . S
Co290 O294 2.126 . S
Co290 O299 2.063 . S
Co290 O313 2.047 . S
Co290 O319 2.113 . S
H291 Co288 2.400 . S
H291 Co290 2.388 . S
H291 O292 0.760 . S
O292 Co288 2.009 . S
O292 Co289 2.126 . S
O292 Co290 2.053 . S
O292 H291 0.760 . S
H293 Co289 2.388 . S
H293 O294 0.760 . S
H293 Co295 2.400 . S
O294 Co289 2.053 . S
O294 Co290 2.126 . S
O294 H293 0.760 . S
O294 Co295 2.009 . S
Co295 H293 2.400 . S
Co295 O294 2.009 . S
Co295 O296 2.053 . S
Co295 O298 2.094 . S
Co295 O302 2.122 . S
Co295 O316 2.115 . S
Co295 O317 2.315 . S
O296 Co295 2.053 . S
O296 C308 1.259 . S
O297 Co289 2.047 . S
O297 C308 1.257 . S
O298 Co295 2.094 . S
O298 C309 1.253 . S
O299 Co290 2.063 . S
O299 C309 1.268 . S
O300 Co288 2.115 . S
O300 C310 1.281 . S
O301 Co288 2.315 . S
O301 C310 1.252 . S
O302 Co295 2.122 . S
O302 C311 1.272 . S
O303 Co289 2.113 . S
O303 C311 1.245 . S
C304 O312 1.259 . S
C304 O313 1.257 . S
C305 O314 1.268 . S
C305 O315 1.253 . S
C306 O316 1.281 . S
C306 O317 1.252 . S
C307 O318 1.272 . S
C307 O319 1.245 . S
C308 O296 1.259 . S
C308 O297 1.257 . S
C309 O298 1.253 . S
C309 O299 1.268 . S
C310 O300 1.281 . S
C310 O301 1.252 . S
C311 O302 1.272 . S
C311 O303 1.245 . S
O312 Co288 2.053 . S
O312 C304 1.259 . S
O313 Co290 2.047 . S
O313 C304 1.257 . S
O314 Co289 2.063 . S
O314 C305 1.268 . S
O315 Co288 2.094 . S
O315 C305 1.253 . S
O316 Co295 2.115 . S
O316 C306 1.281 . S
O317 Co295 2.315 . S
O317 C306 1.252 . S
O318 Co288 2.122 . S
O318 C307 1.272 . S
O319 Co290 2.113 . S
O319 C307 1.245 . S
Co320 H323 2.400 . S
Co320 O324 2.009 . S
Co320 O332 2.115 . S
Co320 O333 2.315 . S
Co320 O344 2.053 . S
Co320 O347 2.094 . S
Co320 O350 2.122 . S
Co321 O324 2.126 . S
Co321 H325 2.388 . S
Co321 O326 2.053 . S
Co321 O329 2.047 . S
Co321 O335 2.113 . S
Co321 O346 2.063 . S
Co322 H323 2.388 . S
Co322 O324 2.053 . S
Co322 O326 2.126 . S
Co322 O331 2.063 . S
Co322 O345 2.047 . S
Co322 O351 2.113 . S
H323 Co320 2.400 . S
H323 Co322 2.388 . S
H323 O324 0.760 . S
O324 Co320 2.009 . S
O324 Co321 2.126 . S
O324 Co322 2.053 . S
O324 H323 0.760 . S
H325 Co321 2.388 . S
H325 O326 0.760 . S
H325 Co327 2.400 . S
O326 Co321 2.053 . S
O326 Co322 2.126 . S
O326 H325 0.760 . S
O326 Co327 2.009 . S
Co327 H325 2.400 . S
Co327 O326 2.009 . S
Co327 O328 2.053 . S
Co327 O330 2.094 . S
Co327 O334 2.122 . S
Co327 O348 2.115 . S
Co327 O349 2.315 . S
O328 Co327 2.053 . S
O328 C340 1.259 . S
O329 Co321 2.047 . S
O329 C340 1.257 . S
O330 Co327 2.094 . S
O330 C341 1.253 . S
O331 Co322 2.063 . S
O331 C341 1.268 . S
O332 Co320 2.115 . S
O332 C342 1.281 . S
O333 Co320 2.315 . S
O333 C342 1.252 . S
O334 Co327 2.122 . S
O334 C343 1.272 . S
O335 Co321 2.113 . S
O335 C343 1.245 . S
C336 O344 1.259 . S
C336 O345 1.257 . S
C337 O346 1.268 . S
C337 O347 1.253 . S
C338 O348 1.281 . S
C338 O349 1.252 . S
C339 O350 1.272 . S
C339 O351 1.245 . S
C340 O328 1.259 . S
C340 O329 1.257 . S
C341 O330 1.253 . S
C341 O331 1.268 . S
C342 O332 1.281 . S
C342 O333 1.252 . S
C343 O334 1.272 . S
C343 O335 1.245 . S
O344 Co320 2.053 . S
O344 C336 1.259 . S
O345 Co322 2.047 . S
O345 C336 1.257 . S
O346 Co321 2.063 . S
O346 C337 1.268 . S
O347 Co320 2.094 . S
O347 C337 1.253 . S
O348 Co327 2.115 . S
O348 C338 1.281 . S
O349 Co327 2.315 . S
O349 C338 1.252 . S
O350 Co320 2.122 . S
O350 C339 1.272 . S
O351 Co322 2.113 . S
O351 C339 1.245 . S
Co352 H355 2.400 . S
Co352 O356 2.009 . S
Co352 O364 2.115 . S
Co352 O365 2.315 . S
Co352 O376 2.053 . S
Co352 O379 2.094 . S
Co352 O382 2.122 . S
Co353 O356 2.126 . S
Co353 H357 2.388 . S
Co353 O358 2.053 . S
Co353 O361 2.047 . S
Co353 O367 2.113 . S
Co353 O378 2.063 . S
Co354 H355 2.388 . S
Co354 O356 2.053 . S
Co354 O358 2.126 . S
Co354 O363 2.063 . S
Co354 O377 2.047 . S
Co354 O383 2.113 . S
H355 Co352 2.400 . S
H355 Co354 2.388 . S
H355 O356 0.760 . S
O356 Co352 2.009 . S
O356 Co353 2.126 . S
O356 Co354 2.053 . S
O356 H355 0.760 . S
H357 Co353 2.388 . S
H357 O358 0.760 . S
H357 Co359 2.400 . S
O358 Co353 2.053 . S
O358 Co354 2.126 . S
O358 H357 0.760 . S
O358 Co359 2.009 . S
Co359 H357 2.400 . S
Co359 O358 2.009 . S
Co359 O360 2.053 . S
Co359 O362 2.094 . S
Co359 O366 2.122 . S
Co359 O380 2.115 . S
Co359 O381 2.315 . S
O360 Co359 2.053 . S
O360 C372 1.259 . S
O361 Co353 2.047 . S
O361 C372 1.257 . S
O362 Co359 2.094 . S
O362 C373 1.253 . S
O363 Co354 2.063 . S
O363 C373 1.268 . S
O364 Co352 2.115 . S
O364 C374 1.281 . S
O365 Co352 2.315 . S
O365 C374 1.252 . S
O366 Co359 2.122 . S
O366 C375 1.272 . S
O367 Co353 2.113 . S
O367 C375 1.245 . S
C368 O376 1.259 . S
C368 O377 1.257 . S
C369 O378 1.268 . S
C369 O379 1.253 . S
C370 O380 1.281 . S
C370 O381 1.252 . S
C371 O382 1.272 . S
C371 O383 1.245 . S
C372 O360 1.259 . S
C372 O361 1.257 . S
C373 O362 1.253 . S
C373 O363 1.268 . S
C374 O364 1.281 . S
C374 O365 1.252 . S
C375 O366 1.272 . S
C375 O367 1.245 . S
O376 Co352 2.053 . S
O376 C368 1.259 . S
O377 Co354 2.047 . S
O377 C368 1.257 . S
O378 Co353 2.063 . S
O378 C369 1.268 . S
O379 Co352 2.094 . S
O379 C369 1.253 . S
O380 Co359 2.115 . S
O380 C370 1.281 . S
O381 Co359 2.315 . S
O381 C370 1.252 . S
O382 Co352 2.122 . S
O382 C371 1.272 . S
O383 Co354 2.113 . S
O383 C371 1.245 . S
Co384 H387 2.400 . S
Co384 O388 2.009 . S
Co384 O396 2.115 . S
Co384 O397 2.315 . S
Co384 O408 2.053 . S
Co384 O411 2.094 . S
Co384 O414 2.122 . S
Co385 O388 2.126 . S
Co385 H389 2.388 . S
Co385 O390 2.053 . S
Co385 O393 2.047 . S
Co385 O399 2.113 . S
Co385 O410 2.063 . S
Co386 H387 2.388 . S
Co386 O388 2.053 . S
Co386 O390 2.126 . S
Co386 O395 2.063 . S
Co386 O409 2.047 . S
Co386 O415 2.113 . S
H387 Co384 2.400 . S
H387 Co386 2.388 . S
H387 O388 0.760 . S
O388 Co384 2.009 . S
O388 Co385 2.126 . S
O388 Co386 2.053 . S
O388 H387 0.760 . S
H389 Co385 2.388 . S
H389 O390 0.760 . S
H389 Co391 2.400 . S
O390 Co385 2.053 . S
O390 Co386 2.126 . S
O390 H389 0.760 . S
O390 Co391 2.009 . S
Co391 H389 2.400 . S
Co391 O390 2.009 . S
Co391 O392 2.053 . S
Co391 O394 2.094 . S
Co391 O398 2.122 . S
Co391 O412 2.115 . S
Co391 O413 2.315 . S
O392 Co391 2.053 . S
O392 C404 1.259 . S
O393 Co385 2.047 . S
O393 C404 1.257 . S
O394 Co391 2.094 . S
O394 C405 1.253 . S
O395 Co386 2.063 . S
O395 C405 1.268 . S
O396 Co384 2.115 . S
O396 C406 1.281 . S
O397 Co384 2.315 . S
O397 C406 1.252 . S
O398 Co391 2.122 . S
O398 C407 1.272 . S
O399 Co385 2.113 . S
O399 C407 1.245 . S
C400 O408 1.259 . S
C400 O409 1.257 . S
C401 O410 1.268 . S
C401 O411 1.253 . S
C402 O412 1.281 . S
C402 O413 1.252 . S
C403 O414 1.272 . S
C403 O415 1.245 . S
C404 O392 1.259 . S
C404 O393 1.257 . S
C405 O394 1.253 . S
C405 O395 1.268 . S
C406 O396 1.281 . S
C406 O397 1.252 . S
C407 O398 1.272 . S
C407 O399 1.245 . S
O408 Co384 2.053 . S
O408 C400 1.259 . S
O409 Co386 2.047 . S
O409 C400 1.257 . S
O410 Co385 2.063 . S
O410 C401 1.268 . S
O411 Co384 2.094 . S
O411 C401 1.253 . S
O412 Co391 2.115 . S
O412 C402 1.281 . S
O413 Co391 2.315 . S
O413 C402 1.252 . S
O414 Co384 2.122 . S
O414 C403 1.272 . S
O415 Co386 2.113 . S
O415 C403 1.245 . S
Co416 H419 2.400 . S
Co416 O420 2.009 . S
Co416 O428 2.115 . S
Co416 O429 2.315 . S
Co416 O440 2.053 . S
Co416 O443 2.094 . S
Co416 O446 2.122 . S
Co417 O420 2.126 . S
Co417 H421 2.388 . S
Co417 O422 2.053 . S
Co417 O425 2.047 . S
Co417 O431 2.113 . S
Co417 O442 2.063 . S
Co418 H419 2.388 . S
Co418 O420 2.053 . S
Co418 O422 2.126 . S
Co418 O427 2.063 . S
Co418 O441 2.047 . S
Co418 O447 2.113 . S
H419 Co416 2.400 . S
H419 Co418 2.388 . S
H419 O420 0.760 . S
O420 Co416 2.009 . S
O420 Co417 2.126 . S
O420 Co418 2.053 . S
O420 H419 0.760 . S
H421 Co417 2.388 . S
H421 O422 0.760 . S
H421 Co423 2.400 . S
O422 Co417 2.053 . S
O422 Co418 2.126 . S
O422 H421 0.760 . S
O422 Co423 2.009 . S
Co423 H421 2.400 . S
Co423 O422 2.009 . S
Co423 O424 2.053 . S
Co423 O426 2.094 . S
Co423 O430 2.122 . S
Co423 O444 2.115 . S
Co423 O445 2.315 . S
O424 Co423 2.053 . S
O424 C436 1.259 . S
O425 Co417 2.047 . S
O425 C436 1.257 . S
O426 Co423 2.094 . S
O426 C437 1.253 . S
O427 Co418 2.063 . S
O427 C437 1.268 . S
O428 Co416 2.115 . S
O428 C438 1.281 . S
O429 Co416 2.315 . S
O429 C438 1.252 . S
O430 Co423 2.122 . S
O430 C439 1.272 . S
O431 Co417 2.113 . S
O431 C439 1.245 . S
C432 O440 1.259 . S
C432 O441 1.257 . S
C433 O442 1.268 . S
C433 O443 1.253 . S
C434 O444 1.281 . S
C434 O445 1.252 . S
C435 O446 1.272 . S
C435 O447 1.245 . S
C436 O424 1.259 . S
C436 O425 1.257 . S
C437 O426 1.253 . S
C437 O427 1.268 . S
C438 O428 1.281 . S
C438 O429 1.252 . S
C439 O430 1.272 . S
C439 O431 1.245 . S
O440 Co416 2.053 . S
O440 C432 1.259 . S
O441 Co418 2.047 . S
O441 C432 1.257 . S
O442 Co417 2.063 . S
O442 C433 1.268 . S
O443 Co416 2.094 . S
O443 C433 1.253 . S
O444 Co423 2.115 . S
O444 C434 1.281 . S
O445 Co423 2.315 . S
O445 C434 1.252 . S
O446 Co416 2.122 . S
O446 C435 1.272 . S
O447 Co418 2.113 . S
O447 C435 1.245 . S
Co448 H451 2.400 . S
Co448 O452 2.009 . S
Co448 O460 2.115 . S
Co448 O461 2.315 . S
Co448 O472 2.053 . S
Co448 O475 2.094 . S
Co448 O478 2.122 . S
Co449 O452 2.126 . S
Co449 H453 2.388 . S
Co449 O454 2.053 . S
Co449 O457 2.047 . S
Co449 O463 2.113 . S
Co449 O474 2.063 . S
Co450 H451 2.388 . S
Co450 O452 2.053 . S
Co450 O454 2.126 . S
Co450 O459 2.063 . S
Co450 O473 2.047 . S
Co450 O479 2.113 . S
H451 Co448 2.400 . S
H451 Co450 2.388 . S
H451 O452 0.760 . S
O452 Co448 2.009 . S
O452 Co449 2.126 . S
O452 Co450 2.053 . S
O452 H451 0.760 . S
H453 Co449 2.388 . S
H453 O454 0.760 . S
H453 Co455 2.400 . S
O454 Co449 2.053 . S
O454 Co450 2.126 . S
O454 H453 0.760 . S
O454 Co455 2.009 . S
Co455 H453 2.400 . S
Co455 O454 2.009 . S
Co455 O456 2.053 . S
Co455 O458 2.094 . S
Co455 O462 2.122 . S
Co455 O476 2.115 . S
Co455 O477 2.315 . S
O456 Co455 2.053 . S
O456 C468 1.259 . S
O457 Co449 2.047 . S
O457 C468 1.257 . S
O458 Co455 2.094 . S
O458 C469 1.253 . S
O459 Co450 2.063 . S
O459 C469 1.268 . S
O460 Co448 2.115 . S
O460 C470 1.281 . S
O461 Co448 2.315 . S
O461 C470 1.252 . S
O462 Co455 2.122 . S
O462 C471 1.272 . S
O463 Co449 2.113 . S
O463 C471 1.245 . S
C464 O472 1.259 . S
C464 O473 1.257 . S
C465 O474 1.268 . S
C465 O475 1.253 . S
C466 O476 1.281 . S
C466 O477 1.252 . S
C467 O478 1.272 . S
C467 O479 1.245 . S
C468 O456 1.259 . S
C468 O457 1.257 . S
C469 O458 1.253 . S
C469 O459 1.268 . S
C470 O460 1.281 . S
C470 O461 1.252 . S
C471 O462 1.272 . S
C471 O463 1.245 . S
O472 Co448 2.053 . S
O472 C464 1.259 . S
O473 Co450 2.047 . S
O473 C464 1.257 . S
O474 Co449 2.063 . S
O474 C465 1.268 . S
O475 Co448 2.094 . S
O475 C465 1.253 . S
O476 Co455 2.115 . S
O476 C466 1.281 . S
O477 Co455 2.315 . S
O477 C466 1.252 . S
O478 Co448 2.122 . S
O478 C467 1.272 . S
O479 Co450 2.113 . S
O479 C467 1.245 . S
Co480 H483 2.400 . S
Co480 O484 2.009 . S
Co480 O492 2.115 . S
Co480 O493 2.315 . S
Co480 O504 2.053 . S
Co480 O507 2.094 . S
Co480 O510 2.122 . S
Co481 O484 2.126 . S
Co481 H485 2.388 . S
Co481 O486 2.053 . S
Co481 O489 2.047 . S
Co481 O495 2.113 . S
Co481 O506 2.063 . S
Co482 H483 2.388 . S
Co482 O484 2.053 . S
Co482 O486 2.126 . S
Co482 O491 2.063 . S
Co482 O505 2.047 . S
Co482 O511 2.113 . S
H483 Co480 2.400 . S
H483 Co482 2.388 . S
H483 O484 0.760 . S
O484 Co480 2.009 . S
O484 Co481 2.126 . S
O484 Co482 2.053 . S
O484 H483 0.760 . S
H485 Co481 2.388 . S
H485 O486 0.760 . S
H485 Co487 2.400 . S
O486 Co481 2.053 . S
O486 Co482 2.126 . S
O486 H485 0.760 . S
O486 Co487 2.009 . S
Co487 H485 2.400 . S
Co487 O486 2.009 . S
Co487 O488 2.053 . S
Co487 O490 2.094 . S
Co487 O494 2.122 . S
Co487 O508 2.115 . S
Co487 O509 2.315 . S
O488 Co487 2.053 . S
O488 C500 1.259 . S
O489 Co481 2.047 . S
O489 C500 1.257 . S
O490 Co487 2.094 . S
O490 C501 1.253 . S
O491 Co482 2.063 . S
O491 C501 1.268 . S
O492 Co480 2.115 . S
O492 C502 1.281 . S
O493 Co480 2.315 . S
O493 C502 1.252 . S
O494 Co487 2.122 . S
O494 C503 1.272 . S
O495 Co481 2.113 . S
O495 C503 1.245 . S
C496 O504 1.259 . S
C496 O505 1.257 . S
C497 O506 1.268 . S
C497 O507 1.253 . S
C498 O508 1.281 . S
C498 O509 1.252 . S
C499 O510 1.272 . S
C499 O511 1.245 . S
C500 O488 1.259 . S
C500 O489 1.257 . S
C501 O490 1.253 . S
C501 O491 1.268 . S
C502 O492 1.281 . S
C502 O493 1.252 . S
C503 O494 1.272 . S
C503 O495 1.245 . S
O504 Co480 2.053 . S
O504 C496 1.259 . S
O505 Co482 2.047 . S
O505 C496 1.257 . S
O506 Co481 2.063 . S
O506 C497 1.268 . S
O507 Co480 2.094 . S
O507 C497 1.253 . S
O508 Co487 2.115 . S
O508 C498 1.281 . S
O509 Co487 2.315 . S
O509 C498 1.252 . S
O510 Co480 2.122 . S
O510 C499 1.272 . S
O511 Co482 2.113 . S
O511 C499 1.245 . S
H512 C524 0.930 . S
H513 C526 0.930 . S
H514 C527 0.930 . S
H515 C531 0.959 . S
H516 C531 0.959 . S
H517 C531 0.961 . S
H518 C532 0.960 . S
H519 C532 0.961 . S
H520 C532 0.959 . S
H521 C535 0.929 . S
H522 C536 0.931 . S
H523 C538 0.930 . S
C524 H512 0.930 . S
C524 C525 1.399 . S
C524 C529 1.399 . S
C525 C524 1.399 . S
C525 C526 1.376 . S
C526 H513 0.930 . S
C526 C525 1.376 . S
C526 C527 1.388 . S
C527 H514 0.930 . S
C527 C526 1.388 . S
C527 C528 1.390 . S
C528 C527 1.390 . S
C528 C529 1.394 . S
C528 C534 1.465 . S
C529 C524 1.399 . S
C529 C528 1.394 . S
C529 C530 1.516 . S
C530 C529 1.516 . S
C530 C531 1.502 . S
C530 C532 1.561 . S
C530 C533 1.526 . S
C531 H515 0.959 . S
C531 H516 0.959 . S
C531 H517 0.961 . S
C531 C530 1.502 . S
C532 H518 0.960 . S
C532 H519 0.961 . S
C532 H520 0.959 . S
C532 C530 1.561 . S
C533 C530 1.526 . S
C533 C534 1.396 . S
C533 C538 1.390 . S
C534 C528 1.465 . S
C534 C533 1.396 . S
C534 C535 1.399 . S
C535 H521 0.929 . S
C535 C534 1.399 . S
C535 C536 1.385 . S
C536 H522 0.931 . S
C536 C535 1.385 . S
C536 C537 1.389 . S
C537 C536 1.389 . S
C537 C538 1.387 . S
C538 H523 0.930 . S
C538 C533 1.390 . S
C538 C537 1.387 . S
H539 C551 0.930 . S
H540 C553 0.930 . S
H541 C554 0.930 . S
H542 C558 0.959 . S
H543 C558 0.959 . S
H544 C558 0.961 . S
H545 C559 0.960 . S
H546 C559 0.961 . S
H547 C559 0.959 . S
H548 C562 0.929 . S
H549 C563 0.931 . S
H550 C565 0.930 . S
C551 H539 0.930 . S
C551 C552 1.395 1_655 S
C551 C556 1.399 . S
C552 C551 1.395 1_455 S
C552 C553 1.379 . S
C553 H540 0.930 . S
C553 C552 1.379 . S
C553 C554 1.388 . S
C554 H541 0.930 . S
C554 C553 1.388 . S
C554 C555 1.390 1_455 S
C555 C554 1.390 1_655 S
C555 C556 1.394 . S
C555 C561 1.465 . S
C556 C551 1.399 . S
C556 C555 1.394 . S
C556 C557 1.516 . S
C557 C556 1.516 . S
C557 C558 1.502 . S
C557 C559 1.561 . S
C557 C560 1.526 . S
C558 H542 0.959 . S
C558 H543 0.959 . S
C558 H544 0.961 . S
C558 C557 1.502 . S
C559 H545 0.960 . S
C559 H546 0.961 . S
C559 H547 0.959 . S
C559 C557 1.561 . S
C560 C557 1.526 . S
C560 C561 1.396 . S
C560 C565 1.390 . S
C561 C555 1.465 . S
C561 C560 1.396 . S
C561 C562 1.399 . S
C562 H548 0.929 . S
C562 C561 1.399 . S
C562 C563 1.385 . S
C563 H549 0.931 . S
C563 C562 1.385 . S
C563 C564 1.389 . S
C564 C563 1.389 . S
C564 C565 1.387 . S
C565 H550 0.930 . S
C565 C560 1.390 . S
C565 C564 1.387 . S
H566 C578 0.930 . S
H567 C580 0.930 . S
H568 C581 0.930 . S
H569 C585 0.959 . S
H570 C585 0.959 . S
H571 C585 0.961 . S
H572 C586 0.960 . S
H573 C586 0.961 . S
H574 C586 0.959 . S
H575 C589 0.929 . S
H576 C590 0.931 . S
H577 C592 0.930 . S
C578 H566 0.930 . S
C578 C579 1.399 . S
C578 C583 1.399 . S
C579 C578 1.399 . S
C579 C580 1.376 . S
C580 H567 0.930 . S
C580 C579 1.376 . S
C580 C581 1.388 . S
C581 H568 0.930 . S
C581 C580 1.388 . S
C581 C582 1.390 . S
C582 C581 1.390 . S
C582 C583 1.394 . S
C582 C588 1.465 . S
C583 C578 1.399 . S
C583 C582 1.394 . S
C583 C584 1.516 . S
C584 C583 1.516 . S
C584 C585 1.502 . S
C584 C586 1.561 . S
C584 C587 1.526 . S
C585 H569 0.959 . S
C585 H570 0.959 . S
C585 H571 0.961 . S
C585 C584 1.502 . S
C586 H572 0.960 . S
C586 H573 0.961 . S
C586 H574 0.959 . S
C586 C584 1.561 . S
C587 C584 1.526 . S
C587 C588 1.396 . S
C587 C592 1.390 . S
C588 C582 1.465 . S
C588 C587 1.396 . S
C588 C589 1.399 . S
C589 H575 0.929 . S
C589 C588 1.399 . S
C589 C590 1.385 . S
C590 H576 0.931 . S
C590 C589 1.385 . S
C590 C591 1.389 . S
C591 C590 1.389 . S
C591 C592 1.387 . S
C592 H577 0.930 . S
C592 C587 1.390 . S
C592 C591 1.387 . S
H593 C605 0.930 . S
H594 C607 0.930 . S
H595 C608 0.930 . S
H596 C612 0.959 1_455 S
H597 C612 0.959 . S
H598 C612 0.961 1_455 S
H599 C613 0.960 . S
H600 C613 0.961 . S
H601 C613 0.959 . S
H602 C616 0.929 . S
H603 C617 0.931 . S
H604 C619 0.930 . S
C605 H593 0.930 . S
C605 C606 1.399 . S
C605 C610 1.399 . S
C606 C605 1.399 . S
C606 C607 1.376 . S
C607 H594 0.930 . S
C607 C606 1.376 . S
C607 C608 1.388 . S
C608 H595 0.930 . S
C608 C607 1.388 . S
C608 C609 1.390 . S
C609 C608 1.390 . S
C609 C610 1.394 . S
C609 C615 1.465 . S
C610 C605 1.399 . S
C610 C609 1.394 . S
C610 C611 1.516 . S
C611 C610 1.516 . S
C611 C612 1.502 . S
C611 C613 1.561 . S
C611 C614 1.526 . S
C612 H596 0.959 1_655 S
C612 H597 0.959 . S
C612 H598 0.961 1_655 S
C612 C611 1.502 . S
C613 H599 0.960 . S
C613 H600 0.961 . S
C613 H601 0.959 . S
C613 C611 1.561 . S
C614 C611 1.526 . S
C614 C615 1.396 . S
C614 C619 1.390 . S
C615 C609 1.465 . S
C615 C614 1.396 . S
C615 C616 1.399 . S
C616 H602 0.929 . S
C616 C615 1.399 . S
C616 C617 1.385 . S
C617 H603 0.931 . S
C617 C616 1.385 . S
C617 C618 1.389 . S
C618 C617 1.389 . S
C618 C619 1.387 . S
C619 H604 0.930 . S
C619 C614 1.390 . S
C619 C618 1.387 . S
H620 C632 0.930 . S
H621 C634 0.930 . S
H622 C635 0.930 . S
H623 C639 0.959 . S
H624 C639 0.959 . S
H625 C639 0.961 . S
H626 C640 0.960 . S
H627 C640 0.961 . S
H628 C640 0.959 . S
H629 C643 0.929 . S
H630 C644 0.931 . S
H631 C646 0.930 . S
C632 H620 0.930 . S
C632 C633 1.399 . S
C632 C637 1.399 . S
C633 C632 1.399 . S
C633 C634 1.376 . S
C634 H621 0.930 . S
C634 C633 1.376 . S
C634 C635 1.388 . S
C635 H622 0.930 . S
C635 C634 1.388 . S
C635 C636 1.390 . S
C636 C635 1.390 . S
C636 C637 1.394 . S
C636 C642 1.465 . S
C637 C632 1.399 . S
C637 C636 1.394 . S
C637 C638 1.516 . S
C638 C637 1.516 . S
C638 C639 1.502 . S
C638 C640 1.561 . S
C638 C641 1.526 . S
C639 H623 0.959 . S
C639 H624 0.959 . S
C639 H625 0.961 . S
C639 C638 1.502 . S
C640 H626 0.960 . S
C640 H627 0.961 . S
C640 H628 0.959 . S
C640 C638 1.561 . S
C641 C638 1.526 . S
C641 C642 1.396 . S
C641 C646 1.390 . S
C642 C636 1.465 . S
C642 C641 1.396 . S
C642 C643 1.399 . S
C643 H629 0.929 . S
C643 C642 1.399 . S
C643 C644 1.385 . S
C644 H630 0.931 . S
C644 C643 1.385 . S
C644 C645 1.389 . S
C645 C644 1.389 . S
C645 C646 1.387 . S
C646 H631 0.930 . S
C646 C641 1.390 . S
C646 C645 1.387 . S
H647 C659 0.932 . S
H648 C661 0.930 1_565 S
H649 C662 0.930 . S
H650 C666 0.959 . S
H651 C666 0.959 . S
H652 C666 0.961 . S
H653 C667 0.960 . S
H654 C667 0.961 . S
H655 C667 0.959 . S
H656 C670 0.929 . S
H657 C671 0.931 . S
H658 C673 0.930 . S
C659 H647 0.932 . S
C659 C660 1.399 1_655 S
C659 C664 1.397 1_655 S
C660 C659 1.399 1_455 S
C660 C661 1.376 . S
C661 H648 0.930 1_545 S
C661 C660 1.376 . S
C661 C662 1.388 . S
C662 H649 0.930 . S
C662 C661 1.388 . S
C662 C663 1.390 . S
C663 C662 1.390 . S
C663 C664 1.394 . S
C663 C669 1.465 . S
C664 C659 1.397 1_455 S
C664 C663 1.394 . S
C664 C665 1.516 . S
C665 C664 1.516 . S
C665 C666 1.502 1_455 S
C665 C667 1.561 . S
C665 C668 1.526 . S
C666 H650 0.959 . S
C666 H651 0.959 . S
C666 H652 0.961 . S
C666 C665 1.502 1_655 S
C667 H653 0.960 . S
C667 H654 0.961 . S
C667 H655 0.959 . S
C667 C665 1.561 . S
C668 C665 1.526 . S
C668 C669 1.396 . S
C668 C673 1.390 . S
C669 C663 1.465 . S
C669 C668 1.396 . S
C669 C670 1.399 . S
C670 H656 0.929 . S
C670 C669 1.399 . S
C670 C671 1.385 . S
C671 H657 0.931 . S
C671 C670 1.385 . S
C671 C672 1.389 . S
C672 C671 1.389 . S
C672 C673 1.387 . S
C673 H658 0.930 . S
C673 C668 1.390 . S
C673 C672 1.387 . S
H674 C686 0.930 . S
H675 C688 0.930 . S
H676 C689 0.930 . S
H677 C693 0.959 . S
H678 C693 0.959 . S
H679 C693 0.961 . S
H680 C694 0.960 . S
H681 C694 0.961 . S
H682 C694 0.959 . S
H683 C697 0.929 . S
H684 C698 0.931 . S
H685 C700 0.930 . S
C686 H674 0.930 . S
C686 C687 1.399 . S
C686 C691 1.399 . S
C687 C686 1.399 . S
C687 C688 1.376 . S
C688 H675 0.930 . S
C688 C687 1.376 . S
C688 C689 1.388 . S
C689 H676 0.930 . S
C689 C688 1.388 . S
C689 C690 1.390 . S
C690 C689 1.390 . S
C690 C691 1.394 . S
C690 C696 1.465 . S
C691 C686 1.399 . S
C691 C690 1.394 . S
C691 C692 1.516 . S
C692 C691 1.516 . S
C692 C693 1.502 . S
C692 C694 1.561 . S
C692 C695 1.526 . S
C693 H677 0.959 . S
C693 H678 0.959 . S
C693 H679 0.961 . S
C693 C692 1.502 . S
C694 H680 0.960 . S
C694 H681 0.961 . S
C694 H682 0.959 . S
C694 C692 1.561 . S
C695 C692 1.526 . S
C695 C696 1.396 . S
C695 C700 1.390 . S
C696 C690 1.465 . S
C696 C695 1.396 . S
C696 C697 1.399 . S
C697 H683 0.929 . S
C697 C696 1.399 . S
C697 C698 1.385 . S
C698 H684 0.931 . S
C698 C697 1.385 . S
C698 C699 1.389 . S
C699 C698 1.389 . S
C699 C700 1.387 . S
C700 H685 0.930 . S
C700 C695 1.390 . S
C700 C699 1.387 . S
H701 C713 0.930 1_655 S
H702 C715 0.930 . S
H703 C716 0.930 . S
H704 C720 0.959 . S
H705 C720 0.959 . S
H706 C720 0.961 . S
H707 C721 0.960 . S
H708 C721 0.961 . S
H709 C721 0.959 . S
H710 C724 0.929 . S
H711 C725 0.931 . S
H712 C727 0.930 . S
C713 H701 0.930 1_455 S
C713 C714 1.399 . S
C713 C718 1.399 . S
C714 C713 1.399 . S
C714 C715 1.376 . S
C715 H702 0.930 . S
C715 C714 1.376 . S
C715 C716 1.388 . S
C716 H703 0.930 . S
C716 C715 1.388 . S
C716 C717 1.390 . S
C717 C716 1.390 . S
C717 C718 1.394 . S
C717 C723 1.465 . S
C718 C713 1.399 . S
C718 C717 1.394 . S
C718 C719 1.516 . S
C719 C718 1.516 . S
C719 C720 1.502 1_455 S
C719 C721 1.561 . S
C719 C722 1.526 . S
C720 H704 0.959 . S
C720 H705 0.959 . S
C720 H706 0.961 . S
C720 C719 1.502 1_655 S
C721 H707 0.960 . S
C721 H708 0.961 . S
C721 H709 0.959 . S
C721 C719 1.561 . S
C722 C719 1.526 . S
C722 C723 1.396 . S
C722 C727 1.390 . S
C723 C717 1.465 . S
C723 C722 1.396 . S
C723 C724 1.399 . S
C724 H710 0.929 . S
C724 C723 1.399 . S
C724 C725 1.385 . S
C725 H711 0.931 . S
C725 C724 1.385 . S
C725 C726 1.389 . S
C726 C725 1.389 . S
C726 C727 1.387 . S
C727 H712 0.930 . S
C727 C722 1.390 . S
C727 C726 1.387 . S
H728 C740 0.930 . S
H729 C742 0.936 . S
H730 C743 0.930 . S
H731 C747 0.959 . S
H732 C747 0.959 . S
H733 C747 0.961 . S
H734 C748 0.960 . S
H735 C748 0.961 . S
H736 C748 0.959 . S
H737 C751 0.929 . S
H738 C752 0.931 . S
H739 C754 0.930 . S
C740 H728 0.930 . S
C740 C741 1.399 . S
C740 C745 1.399 . S
C741 C740 1.399 . S
C741 C742 1.376 . S
C742 H729 0.936 . S
C742 C741 1.376 . S
C742 C743 1.388 . S
C743 H730 0.930 . S
C743 C742 1.388 . S
C743 C744 1.390 . S
C744 C743 1.390 . S
C744 C745 1.394 . S
C744 C750 1.465 . S
C745 C740 1.399 . S
C745 C744 1.394 . S
C745 C746 1.516 . S
C746 C745 1.516 . S
C746 C747 1.502 . S
C746 C748 1.561 . S
C746 C749 1.526 . S
C747 H731 0.959 . S
C747 H732 0.959 . S
C747 H733 0.961 . S
C747 C746 1.502 . S
C748 H734 0.960 . S
C748 H735 0.961 . S
C748 H736 0.959 . S
C748 C746 1.561 . S
C749 C746 1.526 . S
C749 C750 1.396 . S
C749 C754 1.390 . S
C750 C744 1.465 . S
C750 C749 1.396 . S
C750 C751 1.399 . S
C751 H737 0.929 . S
C751 C750 1.399 . S
C751 C752 1.385 . S
C752 H738 0.931 . S
C752 C751 1.385 . S
C752 C753 1.389 . S
C753 C752 1.389 . S
C753 C754 1.387 . S
C754 H739 0.930 . S
C754 C749 1.390 . S
C754 C753 1.387 . S
H755 C767 0.930 . S
H756 C769 0.930 . S
H757 C770 0.930 . S
H758 C774 0.959 . S
H759 C774 0.959 . S
H760 C774 0.961 . S
H761 C775 0.960 . S
H762 C775 0.961 . S
H763 C775 0.959 . S
H764 C778 0.929 . S
H765 C779 0.931 . S
H766 C781 0.933 . S
C767 H755 0.930 . S
C767 C768 1.399 . S
C767 C772 1.399 . S
C768 C767 1.399 . S
C768 C769 1.376 . S
C769 H756 0.930 . S
C769 C768 1.376 . S
C769 C770 1.388 . S
C770 H757 0.930 . S
C770 C769 1.388 . S
C770 C771 1.390 . S
C771 C770 1.390 . S
C771 C772 1.394 . S
C771 C777 1.465 . S
C772 C767 1.399 . S
C772 C771 1.394 . S
C772 C773 1.516 . S
C773 C772 1.516 . S
C773 C774 1.502 . S
C773 C775 1.561 1_655 S
C773 C776 1.526 . S
C774 H758 0.959 . S
C774 H759 0.959 . S
C774 H760 0.961 . S
C774 C773 1.502 . S
C775 H761 0.960 . S
C775 H762 0.961 . S
C775 H763 0.959 . S
C775 C773 1.561 1_455 S
C776 C773 1.526 . S
C776 C777 1.396 . S
C776 C781 1.390 . S
C777 C771 1.465 . S
C777 C776 1.396 . S
C777 C778 1.399 . S
C778 H764 0.929 . S
C778 C777 1.399 . S
C778 C779 1.385 . S
C779 H765 0.931 . S
C779 C778 1.385 . S
C779 C780 1.389 . S
C780 C779 1.389 . S
C780 C781 1.387 . S
C781 H766 0.933 . S
C781 C776 1.390 . S
C781 C780 1.387 . S
H782 C794 0.930 . S
H783 C796 0.930 . S
H784 C797 0.930 . S
H785 C801 0.959 . S
H786 C801 0.959 . S
H787 C801 0.961 . S
H788 C802 0.960 . S
H789 C802 0.961 . S
H790 C802 0.959 . S
H791 C805 0.929 . S
H792 C806 0.931 . S
H793 C808 0.930 . S
C794 H782 0.930 . S
C794 C795 1.399 . S
C794 C799 1.399 . S
C795 C794 1.399 . S
C795 C796 1.376 . S
C796 H783 0.930 . S
C796 C795 1.376 . S
C796 C797 1.388 . S
C797 H784 0.930 . S
C797 C796 1.388 . S
C797 C798 1.390 . S
C798 C797 1.390 . S
C798 C799 1.394 . S
C798 C804 1.465 . S
C799 C794 1.399 . S
C799 C798 1.394 . S
C799 C800 1.516 . S
C800 C799 1.516 . S
C800 C801 1.502 . S
C800 C802 1.561 . S
C800 C803 1.526 . S
C801 H785 0.959 . S
C801 H786 0.959 . S
C801 H787 0.961 . S
C801 C800 1.502 . S
C802 H788 0.960 . S
C802 H789 0.961 . S
C802 H790 0.959 . S
C802 C800 1.561 . S
C803 C800 1.526 . S
C803 C804 1.396 . S
C803 C808 1.390 . S
C804 C798 1.465 . S
C804 C803 1.396 . S
C804 C805 1.399 . S
C805 H791 0.929 . S
C805 C804 1.399 . S
C805 C806 1.385 . S
C806 H792 0.931 . S
C806 C805 1.385 . S
C806 C807 1.389 . S
C807 C806 1.389 . S
C807 C808 1.387 . S
C808 H793 0.930 . S
C808 C803 1.390 . S
C808 C807 1.387 . S
H809 C821 0.930 . S
H810 C823 0.930 . S
H811 C824 0.930 . S
H812 C828 0.959 1_455 S
H813 C828 0.959 1_455 S
H814 C828 0.961 . S
H815 C829 0.960 . S
H816 C829 0.961 . S
H817 C829 0.959 . S
H818 C832 0.929 . S
H819 C833 0.931 . S
H820 C835 0.930 . S
C821 H809 0.930 . S
C821 C822 1.399 . S
C821 C826 1.399 . S
C822 C821 1.399 . S
C822 C823 1.376 . S
C823 H810 0.930 . S
C823 C822 1.376 . S
C823 C824 1.388 . S
C824 H811 0.930 . S
C824 C823 1.388 . S
C824 C825 1.390 . S
C825 C824 1.390 . S
C825 C826 1.394 . S
C825 C831 1.465 . S
C826 C821 1.399 . S
C826 C825 1.394 . S
C826 C827 1.516 . S
C827 C826 1.516 . S
C827 C828 1.502 . S
C827 C829 1.561 . S
C827 C830 1.526 . S
C828 H812 0.959 1_655 S
C828 H813 0.959 1_655 S
C828 H814 0.961 . S
C828 C827 1.502 . S
C829 H815 0.960 . S
C829 H816 0.961 . S
C829 H817 0.959 . S
C829 C827 1.561 . S
C830 C827 1.526 . S
C830 C831 1.396 . S
C830 C835 1.390 . S
C831 C825 1.465 . S
C831 C830 1.396 . S
C831 C832 1.399 . S
C832 H818 0.929 . S
C832 C831 1.399 . S
C832 C833 1.385 . S
C833 H819 0.931 . S
C833 C832 1.385 . S
C833 C834 1.389 . S
C834 C833 1.389 . S
C834 C835 1.387 . S
C835 H820 0.930 . S
C835 C830 1.390 . S
C835 C834 1.387 . S
H836 C848 0.930 . S
H837 C850 0.930 . S
H838 C851 0.930 . S
H839 C855 0.959 . S
H840 C855 0.959 . S
H841 C855 0.961 . S
H842 C856 0.960 . S
H843 C856 0.961 . S
H844 C856 0.959 . S
H845 C859 0.929 . S
H846 C860 0.931 . S
H847 C862 0.930 . S
C848 H836 0.930 . S
C848 C849 1.399 . S
C848 C853 1.399 . S
C849 C848 1.399 . S
C849 C850 1.376 . S
C850 H837 0.930 . S
C850 C849 1.376 . S
C850 C851 1.388 . S
C851 H838 0.930 . S
C851 C850 1.388 . S
C851 C852 1.390 . S
C852 C851 1.390 . S
C852 C853 1.394 . S
C852 C858 1.465 . S
C853 C848 1.399 . S
C853 C852 1.394 . S
C853 C854 1.516 . S
C854 C853 1.516 . S
C854 C855 1.502 . S
C854 C856 1.561 . S
C854 C857 1.526 . S
C855 H839 0.959 . S
C855 H840 0.959 . S
C855 H841 0.961 . S
C855 C854 1.502 . S
C856 H842 0.960 . S
C856 H843 0.961 . S
C856 H844 0.959 . S
C856 C854 1.561 . S
C857 C854 1.526 . S
C857 C858 1.396 . S
C857 C862 1.390 . S
C858 C852 1.465 . S
C858 C857 1.396 . S
C858 C859 1.399 . S
C859 H845 0.929 . S
C859 C858 1.399 . S
C859 C860 1.385 . S
C860 H846 0.931 . S
C860 C859 1.385 . S
C860 C861 1.389 . S
C861 C860 1.389 . S
C861 C862 1.387 . S
C862 H847 0.930 . S
C862 C857 1.390 . S
C862 C861 1.387 . S
H863 C875 0.930 . S
H864 C877 0.930 . S
H865 C878 0.930 . S
H866 C882 0.959 1_655 S
H867 C882 0.959 . S
H868 C882 0.961 1_655 S
H869 C883 0.960 . S
H870 C883 0.961 . S
H871 C883 0.959 . S
H872 C886 0.929 . S
H873 C887 0.931 . S
H874 C889 0.930 . S
C875 H863 0.930 . S
C875 C876 1.399 . S
C875 C880 1.399 . S
C876 C875 1.399 . S
C876 C877 1.376 . S
C877 H864 0.930 . S
C877 C876 1.376 . S
C877 C878 1.388 . S
C878 H865 0.930 . S
C878 C877 1.388 . S
C878 C879 1.390 . S
C879 C878 1.390 . S
C879 C880 1.394 . S
C879 C885 1.465 . S
C880 C875 1.399 . S
C880 C879 1.394 . S
C880 C881 1.516 . S
C881 C880 1.516 . S
C881 C882 1.502 . S
C881 C883 1.561 . S
C881 C884 1.526 . S
C882 H866 0.959 1_455 S
C882 H867 0.959 . S
C882 H868 0.961 1_455 S
C882 C881 1.502 . S
C883 H869 0.960 . S
C883 H870 0.961 . S
C883 H871 0.959 . S
C883 C881 1.561 . S
C884 C881 1.526 . S
C884 C885 1.396 . S
C884 C889 1.390 . S
C885 C879 1.465 . S
C885 C884 1.396 . S
C885 C886 1.399 . S
C886 H872 0.929 . S
C886 C885 1.399 . S
C886 C887 1.385 . S
C887 H873 0.931 . S
C887 C886 1.385 . S
C887 C888 1.389 . S
C888 C887 1.389 . S
C888 C889 1.387 . S
C889 H874 0.930 . S
C889 C884 1.390 . S
C889 C888 1.387 . S
H890 C902 0.930 . S
H891 C904 0.930 . S
H892 C905 0.930 . S
H893 C909 0.959 . S
H894 C909 0.959 . S
H895 C909 0.961 . S
H896 C910 0.960 . S
H897 C910 0.961 . S
H898 C910 0.959 . S
H899 C913 0.929 . S
H900 C914 0.931 . S
H901 C916 0.930 . S
C902 H890 0.930 . S
C902 C903 1.399 . S
C902 C907 1.399 . S
C903 C902 1.399 . S
C903 C904 1.376 . S
C904 H891 0.930 . S
C904 C903 1.376 . S
C904 C905 1.388 . S
C905 H892 0.930 . S
C905 C904 1.388 . S
C905 C906 1.390 . S
C906 C905 1.390 . S
C906 C907 1.394 . S
C906 C912 1.465 . S
C907 C902 1.399 . S
C907 C906 1.394 . S
C907 C908 1.516 . S
C908 C907 1.516 . S
C908 C909 1.502 . S
C908 C910 1.561 . S
C908 C911 1.526 . S
C909 H893 0.959 . S
C909 H894 0.959 . S
C909 H895 0.961 . S
C909 C908 1.502 . S
C910 H896 0.960 . S
C910 H897 0.961 . S
C910 H898 0.959 . S
C910 C908 1.561 . S
C911 C908 1.526 . S
C911 C912 1.396 . S
C911 C916 1.390 . S
C912 C906 1.465 . S
C912 C911 1.396 . S
C912 C913 1.399 . S
C913 H899 0.929 . S
C913 C912 1.399 . S
C913 C914 1.385 . S
C914 H900 0.931 . S
C914 C913 1.385 . S
C914 C915 1.389 . S
C915 C914 1.389 . S
C915 C916 1.387 . S
C916 H901 0.930 . S
C916 C911 1.390 . S
C916 C915 1.387 . S
H917 C929 0.930 . S
H918 C931 0.930 . S
H919 C932 0.930 . S
H920 C936 0.959 . S
H921 C936 0.959 . S
H922 C936 0.961 . S
H923 C937 0.960 . S
H924 C937 0.961 . S
H925 C937 0.959 . S
H926 C940 0.929 1_655 S
H927 C941 0.931 1_565 S
H928 C943 0.930 . S
C929 H917 0.930 . S
C929 C930 1.392 1_455 S
C929 C934 1.399 . S
C930 C929 1.392 1_655 S
C930 C931 1.382 . S
C931 H918 0.930 . S
C931 C930 1.382 . S
C931 C932 1.388 . S
C932 H919 0.930 . S
C932 C931 1.388 . S
C932 C933 1.390 1_655 S
C933 C932 1.390 1_455 S
C933 C934 1.394 . S
C933 C939 1.465 . S
C934 C929 1.399 . S
C934 C933 1.394 . S
C934 C935 1.516 . S
C935 C934 1.516 . S
C935 C936 1.502 . S
C935 C937 1.561 . S
C935 C938 1.526 . S
C936 H920 0.959 . S
C936 H921 0.959 . S
C936 H922 0.961 . S
C936 C935 1.502 . S
C937 H923 0.960 . S
C937 H924 0.961 . S
C937 H925 0.959 . S
C937 C935 1.561 . S
C938 C935 1.526 . S
C938 C939 1.396 . S
C938 C943 1.390 . S
C939 C933 1.465 . S
C939 C938 1.396 . S
C939 C940 1.399 . S
C940 H926 0.929 1_455 S
C940 C939 1.399 . S
C940 C941 1.385 . S
C941 H927 0.931 1_545 S
C941 C940 1.385 . S
C941 C942 1.389 . S
C942 C941 1.389 . S
C942 C943 1.387 . S
C943 H928 0.930 . S
C943 C938 1.390 . S
C943 C942 1.387 . S
H944 C956 0.930 . S
H945 C958 0.930 1_545 S
H946 C959 0.930 . S
H947 C963 0.959 . S
H948 C963 0.959 . S
H949 C963 0.961 . S
H950 C964 0.960 . S
H951 C964 0.961 . S
H952 C964 0.959 . S
H953 C967 0.929 . S
H954 C968 0.931 . S
H955 C970 0.930 . S
C956 H944 0.930 . S
C956 C957 1.399 . S
C956 C961 1.399 . S
C957 C956 1.399 . S
C957 C958 1.376 . S
C958 H945 0.930 1_565 S
C958 C957 1.376 . S
C958 C959 1.388 . S
C959 H946 0.930 . S
C959 C958 1.388 . S
C959 C960 1.390 . S
C960 C959 1.390 . S
C960 C961 1.394 . S
C960 C966 1.465 . S
C961 C956 1.399 . S
C961 C960 1.394 . S
C961 C962 1.516 . S
C962 C961 1.516 . S
C962 C963 1.502 . S
C962 C964 1.561 . S
C962 C965 1.526 . S
C963 H947 0.959 . S
C963 H948 0.959 . S
C963 H949 0.961 . S
C963 C962 1.502 . S
C964 H950 0.960 . S
C964 H951 0.961 . S
C964 H952 0.959 . S
C964 C962 1.561 . S
C965 C962 1.526 . S
C965 C966 1.396 . S
C965 C970 1.390 . S
C966 C960 1.465 . S
C966 C965 1.396 . S
C966 C967 1.399 . S
C967 H953 0.929 . S
C967 C966 1.399 . S
C967 C968 1.385 . S
C968 H954 0.931 . S
C968 C967 1.385 . S
C968 C969 1.389 . S
C969 C968 1.389 . S
C969 C970 1.387 . S
C970 H955 0.930 . S
C970 C965 1.390 . S
C970 C969 1.387 . S
H971 C983 0.930 . S
H972 C985 0.930 . S
H973 C986 0.930 . S
H974 C990 0.959 . S
H975 C990 0.959 . S
H976 C990 0.961 . S
H977 C991 0.960 . S
H978 C991 0.961 . S
H979 C991 0.959 . S
H980 C994 0.929 . S
H981 C995 0.931 . S
H982 C997 0.930 . S
C983 H971 0.930 . S
C983 C984 1.399 1_655 S
C983 C988 1.399 . S
C984 C983 1.399 1_455 S
C984 C985 1.376 . S
C985 H972 0.930 . S
C985 C984 1.376 . S
C985 C986 1.388 . S
C986 H973 0.930 . S
C986 C985 1.388 . S
C986 C987 1.390 1_455 S
C987 C986 1.390 1_655 S
C987 C988 1.394 . S
C987 C993 1.465 . S
C988 C983 1.399 . S
C988 C987 1.394 . S
C988 C989 1.516 . S
C989 C988 1.516 . S
C989 C990 1.502 . S
C989 C991 1.561 . S
C989 C992 1.526 . S
C990 H974 0.959 . S
C990 H975 0.959 . S
C990 H976 0.961 . S
C990 C989 1.502 . S
C991 H977 0.960 . S
C991 H978 0.961 . S
C991 H979 0.959 . S
C991 C989 1.561 . S
C992 C989 1.526 . S
C992 C993 1.396 . S
C992 C997 1.390 . S
C993 C987 1.465 . S
C993 C992 1.396 . S
C993 C994 1.399 . S
C994 H980 0.929 . S
C994 C993 1.399 . S
C994 C995 1.385 . S
C995 H981 0.931 . S
C995 C994 1.385 . S
C995 C996 1.389 . S
C996 C995 1.389 . S
C996 C997 1.387 . S
C997 H982 0.930 . S
C997 C992 1.390 . S
C997 C996 1.387 . S
H998 C1010 0.930 . S
H999 C1012 0.930 . S
H1000 C1013 0.930 . S
H1001 C1017 0.959 . S
H1002 C1017 0.959 . S
H1003 C1017 0.961 . S
H1004 C1018 0.960 . S
H1005 C1018 0.961 . S
H1006 C1018 0.959 . S
H1007 C1021 0.929 . S
H1008 C1022 0.931 . S
H1009 C1024 0.930 . S
C1010 H998 0.930 . S
C1010 C1011 1.399 . S
C1010 C1015 1.399 . S
C1011 C1010 1.399 . S
C1011 C1012 1.376 . S
C1012 H999 0.930 . S
C1012 C1011 1.376 . S
C1012 C1013 1.388 . S
C1013 H1000 0.930 . S
C1013 C1012 1.388 . S
C1013 C1014 1.390 . S
C1014 C1013 1.390 . S
C1014 C1015 1.394 . S
C1014 C1020 1.465 . S
C1015 C1010 1.399 . S
C1015 C1014 1.394 . S
C1015 C1016 1.516 . S
C1016 C1015 1.516 . S
C1016 C1017 1.502 . S
C1016 C1018 1.561 . S
C1016 C1019 1.526 . S
C1017 H1001 0.959 . S
C1017 H1002 0.959 . S
C1017 H1003 0.961 . S
C1017 C1016 1.502 . S
C1018 H1004 0.960 . S
C1018 H1005 0.961 . S
C1018 H1006 0.959 . S
C1018 C1016 1.561 . S
C1019 C1016 1.526 . S
C1019 C1020 1.396 . S
C1019 C1024 1.390 . S
C1020 C1014 1.465 . S
C1020 C1019 1.396 . S
C1020 C1021 1.399 . S
C1021 H1007 0.929 . S
C1021 C1020 1.399 . S
C1021 C1022 1.385 . S
C1022 H1008 0.931 . S
C1022 C1021 1.385 . S
C1022 C1023 1.389 . S
C1023 C1022 1.389 . S
C1023 C1024 1.387 . S
C1024 H1009 0.930 . S
C1024 C1019 1.390 . S
C1024 C1023 1.387 . S
H1025 C1037 0.930 . S
H1026 C1039 0.930 . S
H1027 C1040 0.930 . S
H1028 C1044 0.959 . S
H1029 C1044 0.959 . S
H1030 C1044 0.961 . S
H1031 C1045 0.960 . S
H1032 C1045 0.961 . S
H1033 C1045 0.959 . S
H1034 C1048 0.929 . S
H1035 C1049 0.931 1_545 S
H1036 C1051 0.930 . S
C1037 H1025 0.930 . S
C1037 C1038 1.399 . S
C1037 C1042 1.399 . S
C1038 C1037 1.399 . S
C1038 C1039 1.376 . S
C1039 H1026 0.930 . S
C1039 C1038 1.376 . S
C1039 C1040 1.388 . S
C1040 H1027 0.930 . S
C1040 C1039 1.388 . S
C1040 C1041 1.390 . S
C1041 C1040 1.390 . S
C1041 C1042 1.394 . S
C1041 C1047 1.465 . S
C1042 C1037 1.399 . S
C1042 C1041 1.394 . S
C1042 C1043 1.516 . S
C1043 C1042 1.516 . S
C1043 C1044 1.502 1_655 S
C1043 C1045 1.561 . S
C1043 C1046 1.526 . S
C1044 H1028 0.959 . S
C1044 H1029 0.959 . S
C1044 H1030 0.961 . S
C1044 C1043 1.502 1_455 S
C1045 H1031 0.960 . S
C1045 H1032 0.961 . S
C1045 H1033 0.959 . S
C1045 C1043 1.561 . S
C1046 C1043 1.526 . S
C1046 C1047 1.396 . S
C1046 C1051 1.390 1_655 S
C1047 C1041 1.465 . S
C1047 C1046 1.396 . S
C1047 C1048 1.399 . S
C1048 H1034 0.929 . S
C1048 C1047 1.399 . S
C1048 C1049 1.385 . S
C1049 H1035 0.931 1_565 S
C1049 C1048 1.385 . S
C1049 C1050 1.389 1_655 S
C1050 C1049 1.389 1_455 S
C1050 C1051 1.387 . S
C1051 H1036 0.930 . S
C1051 C1046 1.390 1_455 S
C1051 C1050 1.387 . S
H1052 C1064 0.930 . S
H1053 C1066 0.930 . S
H1054 C1067 0.930 . S
H1055 C1071 0.959 . S
H1056 C1071 0.959 . S
H1057 C1071 0.961 . S
H1058 C1072 0.960 . S
H1059 C1072 0.961 . S
H1060 C1072 0.959 . S
H1061 C1075 0.929 . S
H1062 C1076 0.931 1_565 S
H1063 C1078 0.930 . S
C1064 H1052 0.930 . S
C1064 C1065 1.399 . S
C1064 C1069 1.399 . S
C1065 C1064 1.399 . S
C1065 C1066 1.376 . S
C1066 H1053 0.930 . S
C1066 C1065 1.376 . S
C1066 C1067 1.388 . S
C1067 H1054 0.930 . S
C1067 C1066 1.388 . S
C1067 C1068 1.390 . S
C1068 C1067 1.390 . S
C1068 C1069 1.394 . S
C1068 C1074 1.465 . S
C1069 C1064 1.399 . S
C1069 C1068 1.394 . S
C1069 C1070 1.516 . S
C1070 C1069 1.516 . S
C1070 C1071 1.502 . S
C1070 C1072 1.561 . S
C1070 C1073 1.526 . S
C1071 H1055 0.959 . S
C1071 H1056 0.959 . S
C1071 H1057 0.961 . S
C1071 C1070 1.502 . S
C1072 H1058 0.960 . S
C1072 H1059 0.961 . S
C1072 H1060 0.959 . S
C1072 C1070 1.561 . S
C1073 C1070 1.526 . S
C1073 C1074 1.396 . S
C1073 C1078 1.390 . S
C1074 C1068 1.465 . S
C1074 C1073 1.396 . S
C1074 C1075 1.399 . S
C1075 H1061 0.929 . S
C1075 C1074 1.399 . S
C1075 C1076 1.385 . S
C1076 H1062 0.931 1_545 S
C1076 C1075 1.385 . S
C1076 C1077 1.389 . S
C1077 C1076 1.389 . S
C1077 C1078 1.387 . S
C1078 H1063 0.930 . S
C1078 C1073 1.390 . S
C1078 C1077 1.387 . S
H1079 C1091 0.930 . S
H1080 C1093 0.930 . S
H1081 C1094 0.930 . S
H1082 C1098 0.959 1_655 S
H1083 C1098 0.959 1_655 S
H1084 C1098 0.961 . S
H1085 C1099 0.960 . S
H1086 C1099 0.961 . S
H1087 C1099 0.959 . S
H1088 C1102 0.929 . S
H1089 C1103 0.931 . S
H1090 C1105 0.930 1_655 S
C1091 H1079 0.930 . S
C1091 C1092 1.399 . S
C1091 C1096 1.399 . S
C1092 C1091 1.399 . S
C1092 C1093 1.376 . S
C1093 H1080 0.930 . S
C1093 C1092 1.376 . S
C1093 C1094 1.388 . S
C1094 H1081 0.930 . S
C1094 C1093 1.388 . S
C1094 C1095 1.390 . S
C1095 C1094 1.390 . S
C1095 C1096 1.394 . S
C1095 C1101 1.465 . S
C1096 C1091 1.399 . S
C1096 C1095 1.394 . S
C1096 C1097 1.516 . S
C1097 C1096 1.516 . S
C1097 C1098 1.502 . S
C1097 C1099 1.561 . S
C1097 C1100 1.526 . S
C1098 H1082 0.959 1_455 S
C1098 H1083 0.959 1_455 S
C1098 H1084 0.961 . S
C1098 C1097 1.502 . S
C1099 H1085 0.960 . S
C1099 H1086 0.961 . S
C1099 H1087 0.959 . S
C1099 C1097 1.561 . S
C1100 C1097 1.526 . S
C1100 C1101 1.396 . S
C1100 C1105 1.390 . S
C1101 C1095 1.465 . S
C1101 C1100 1.396 . S
C1101 C1102 1.399 . S
C1102 H1088 0.929 . S
C1102 C1101 1.399 . S
C1102 C1103 1.385 . S
C1103 H1089 0.931 . S
C1103 C1102 1.385 . S
C1103 C1104 1.389 1_455 S
C1104 C1103 1.389 1_655 S
C1104 C1105 1.387 1_655 S
C1105 H1090 0.930 1_455 S
C1105 C1100 1.390 . S
C1105 C1104 1.387 1_455 S
H1106 C1118 0.930 . S
H1107 C1120 0.930 . S
H1108 C1121 0.930 . S
H1109 C1125 0.959 . S
H1110 C1125 0.959 . S
H1111 C1125 0.961 . S
H1112 C1126 0.960 . S
H1113 C1126 0.961 . S
H1114 C1126 0.959 . S
H1115 C1129 0.929 . S
H1116 C1130 0.931 . S
H1117 C1132 0.930 . S
C1118 H1106 0.930 . S
C1118 C1119 1.399 . S
C1118 C1123 1.399 . S
C1119 C1118 1.399 . S
C1119 C1120 1.376 . S
C1120 H1107 0.930 . S
C1120 C1119 1.376 . S
C1120 C1121 1.388 . S
C1121 H1108 0.930 . S
C1121 C1120 1.388 . S
C1121 C1122 1.390 . S
C1122 C1121 1.390 . S
C1122 C1123 1.394 . S
C1122 C1128 1.465 . S
C1123 C1118 1.399 . S
C1123 C1122 1.394 . S
C1123 C1124 1.516 . S
C1124 C1123 1.516 . S
C1124 C1125 1.502 . S
C1124 C1126 1.561 . S
C1124 C1127 1.526 . S
C1125 H1109 0.959 . S
C1125 H1110 0.959 . S
C1125 H1111 0.961 . S
C1125 C1124 1.502 . S
C1126 H1112 0.960 . S
C1126 H1113 0.961 . S
C1126 H1114 0.959 . S
C1126 C1124 1.561 . S
C1127 C1124 1.526 . S
C1127 C1128 1.396 . S
C1127 C1132 1.390 . S
C1128 C1122 1.465 . S
C1128 C1127 1.396 . S
C1128 C1129 1.399 . S
C1129 H1115 0.929 . S
C1129 C1128 1.399 . S
C1129 C1130 1.385 . S
C1130 H1116 0.931 . S
C1130 C1129 1.385 . S
C1130 C1131 1.389 . S
C1131 C1130 1.389 . S
C1131 C1132 1.387 . S
C1132 H1117 0.930 . S
C1132 C1127 1.390 . S
C1132 C1131 1.387 . S
H1133 C1145 0.930 . S
H1134 C1147 0.930 . S
H1135 C1148 0.930 . S
H1136 C1152 0.959 . S
H1137 C1152 0.959 . S
H1138 C1152 0.961 . S
H1139 C1153 0.960 . S
H1140 C1153 0.961 . S
H1141 C1153 0.959 . S
H1142 C1156 0.929 . S
H1143 C1157 0.931 . S
H1144 C1159 0.930 . S
C1145 H1133 0.930 . S
C1145 C1146 1.399 . S
C1145 C1150 1.399 . S
C1146 C1145 1.399 . S
C1146 C1147 1.376 . S
C1147 H1134 0.930 . S
C1147 C1146 1.376 . S
C1147 C1148 1.388 . S
C1148 H1135 0.930 . S
C1148 C1147 1.388 . S
C1148 C1149 1.390 . S
C1149 C1148 1.390 . S
C1149 C1150 1.394 . S
C1149 C1155 1.465 . S
C1150 C1145 1.399 . S
C1150 C1149 1.394 . S
C1150 C1151 1.516 . S
C1151 C1150 1.516 . S
C1151 C1152 1.502 . S
C1151 C1153 1.561 . S
C1151 C1154 1.526 . S
C1152 H1136 0.959 . S
C1152 H1137 0.959 . S
C1152 H1138 0.961 . S
C1152 C1151 1.502 . S
C1153 H1139 0.960 . S
C1153 H1140 0.961 . S
C1153 H1141 0.959 . S
C1153 C1151 1.561 . S
C1154 C1151 1.526 . S
C1154 C1155 1.396 . S
C1154 C1159 1.390 . S
C1155 C1149 1.465 . S
C1155 C1154 1.396 . S
C1155 C1156 1.399 1_455 S
C1156 H1142 0.929 . S
C1156 C1155 1.399 1_655 S
C1156 C1157 1.385 . S
C1157 H1143 0.931 . S
C1157 C1156 1.385 . S
C1157 C1158 1.389 . S
C1158 C1157 1.389 . S
C1158 C1159 1.387 1_655 S
C1159 H1144 0.930 . S
C1159 C1154 1.390 . S
C1159 C1158 1.387 1_455 S
H1160 C1172 0.930 . S
H1161 C1174 0.930 . S
H1162 C1175 0.930 . S
H1163 C1179 0.959 . S
H1164 C1179 0.959 . S
H1165 C1179 0.961 . S
H1166 C1180 0.960 . S
H1167 C1180 0.961 . S
H1168 C1180 0.959 . S
H1169 C1183 0.929 . S
H1170 C1184 0.931 . S
H1171 C1186 0.930 . S
C1172 H1160 0.930 . S
C1172 C1173 1.399 . S
C1172 C1177 1.399 . S
C1173 C1172 1.399 . S
C1173 C1174 1.376 . S
C1174 H1161 0.930 . S
C1174 C1173 1.376 . S
C1174 C1175 1.388 . S
C1175 H1162 0.930 . S
C1175 C1174 1.388 . S
C1175 C1176 1.390 . S
C1176 C1175 1.390 . S
C1176 C1177 1.394 . S
C1176 C1182 1.465 . S
C1177 C1172 1.399 . S
C1177 C1176 1.394 . S
C1177 C1178 1.516 . S
C1178 C1177 1.516 . S
C1178 C1179 1.502 . S
C1178 C1180 1.561 . S
C1178 C1181 1.526 . S
C1179 H1163 0.959 . S
C1179 H1164 0.959 . S
C1179 H1165 0.961 . S
C1179 C1178 1.502 . S
C1180 H1166 0.960 . S
C1180 H1167 0.961 . S
C1180 H1168 0.959 . S
C1180 C1178 1.561 . S
C1181 C1178 1.526 . S
C1181 C1182 1.396 . S
C1181 C1186 1.390 . S
C1182 C1176 1.465 . S
C1182 C1181 1.396 . S
C1182 C1183 1.399 . S
C1183 H1169 0.929 . S
C1183 C1182 1.399 . S
C1183 C1184 1.385 . S
C1184 H1170 0.931 . S
C1184 C1183 1.385 . S
C1184 C1185 1.389 . S
C1185 C1184 1.389 . S
C1185 C1186 1.387 . S
C1186 H1171 0.930 . S
C1186 C1181 1.390 . S
C1186 C1185 1.387 . S
H1187 C1199 0.930 . S
H1188 C1201 0.930 . S
H1189 C1202 0.930 . S
H1190 C1206 0.959 . S
H1191 C1206 0.959 . S
H1192 C1206 0.961 . S
H1193 C1207 0.960 . S
H1194 C1207 0.961 . S
H1195 C1207 0.959 . S
H1196 C1210 0.929 . S
H1197 C1211 0.931 . S
H1198 C1213 0.930 . S
C1199 H1187 0.930 . S
C1199 C1200 1.399 . S
C1199 C1204 1.399 1_455 S
C1200 C1199 1.399 . S
C1200 C1201 1.376 1_455 S
C1201 H1188 0.930 . S
C1201 C1200 1.376 1_655 S
C1201 C1202 1.388 . S
C1202 H1189 0.930 . S
C1202 C1201 1.388 . S
C1202 C1203 1.390 . S
C1203 C1202 1.390 . S
C1203 C1204 1.394 . S
C1203 C1209 1.465 . S
C1204 C1199 1.399 1_655 S
C1204 C1203 1.394 . S
C1204 C1205 1.516 . S
C1205 C1204 1.516 . S
C1205 C1206 1.502 1_655 S
C1205 C1207 1.561 . S
C1205 C1208 1.526 . S
C1206 H1190 0.959 . S
C1206 H1191 0.959 . S
C1206 H1192 0.961 . S
C1206 C1205 1.502 1_455 S
C1207 H1193 0.960 . S
C1207 H1194 0.961 . S
C1207 H1195 0.959 . S
C1207 C1205 1.561 . S
C1208 C1205 1.526 . S
C1208 C1209 1.396 . S
C1208 C1213 1.390 . S
C1209 C1203 1.465 . S
C1209 C1208 1.396 . S
C1209 C1210 1.399 . S
C1210 H1196 0.929 . S
C1210 C1209 1.399 . S
C1210 C1211 1.385 . S
C1211 H1197 0.931 . S
C1211 C1210 1.385 . S
C1211 C1212 1.389 . S
C1212 C1211 1.389 . S
C1212 C1213 1.387 . S
C1213 H1198 0.930 . S
C1213 C1208 1.390 . S
C1213 C1212 1.387 . S
H1214 C1226 0.930 . S
H1215 C1228 0.930 . S
H1216 C1229 0.930 . S
H1217 C1233 0.959 . S
H1218 C1233 0.959 . S
H1219 C1233 0.961 . S
H1220 C1234 0.960 . S
H1221 C1234 0.961 . S
H1222 C1234 0.959 . S
H1223 C1237 0.929 . S
H1224 C1238 0.931 . S
H1225 C1240 0.930 . S
C1226 H1214 0.930 . S
C1226 C1227 1.399 . S
C1226 C1231 1.399 . S
C1227 C1226 1.399 . S
C1227 C1228 1.376 . S
C1228 H1215 0.930 . S
C1228 C1227 1.376 . S
C1228 C1229 1.388 . S
C1229 H1216 0.930 . S
C1229 C1228 1.388 . S
C1229 C1230 1.390 . S
C1230 C1229 1.390 . S
C1230 C1231 1.394 . S
C1230 C1236 1.465 . S
C1231 C1226 1.399 . S
C1231 C1230 1.394 . S
C1231 C1232 1.516 . S
C1232 C1231 1.516 . S
C1232 C1233 1.502 . S
C1232 C1234 1.561 . S
C1232 C1235 1.526 . S
C1233 H1217 0.959 . S
C1233 H1218 0.959 . S
C1233 H1219 0.961 . S
C1233 C1232 1.502 . S
C1234 H1220 0.960 . S
C1234 H1221 0.961 . S
C1234 H1222 0.959 . S
C1234 C1232 1.561 . S
C1235 C1232 1.526 . S
C1235 C1236 1.396 . S
C1235 C1240 1.390 . S
C1236 C1230 1.465 . S
C1236 C1235 1.396 . S
C1236 C1237 1.399 . S
C1237 H1223 0.929 . S
C1237 C1236 1.399 . S
C1237 C1238 1.385 . S
C1238 H1224 0.931 . S
C1238 C1237 1.385 . S
C1238 C1239 1.389 . S
C1239 C1238 1.389 . S
C1239 C1240 1.387 . S
C1240 H1225 0.930 . S
C1240 C1235 1.390 . S
C1240 C1239 1.387 . S
H1241 C1253 0.930 . S
H1242 C1255 0.930 . S
H1243 C1256 0.930 . S
H1244 C1260 0.959 . S
H1245 C1260 0.959 . S
H1246 C1260 0.961 . S
H1247 C1261 0.960 . S
H1248 C1261 0.961 . S
H1249 C1261 0.959 . S
H1250 C1264 0.929 . S
H1251 C1265 0.931 . S
H1252 C1267 0.930 . S
C1253 H1241 0.930 . S
C1253 C1254 1.399 1_655 S
C1253 C1258 1.399 . S
C1254 C1253 1.399 1_455 S
C1254 C1255 1.376 . S
C1255 H1242 0.930 . S
C1255 C1254 1.376 . S
C1255 C1256 1.388 . S
C1256 H1243 0.930 . S
C1256 C1255 1.388 . S
C1256 C1257 1.390 1_455 S
C1257 C1256 1.390 1_655 S
C1257 C1258 1.394 . S
C1257 C1263 1.465 . S
C1258 C1253 1.399 . S
C1258 C1257 1.394 . S
C1258 C1259 1.516 . S
C1259 C1258 1.516 . S
C1259 C1260 1.502 . S
C1259 C1261 1.561 . S
C1259 C1262 1.526 . S
C1260 H1244 0.959 . S
C1260 H1245 0.959 . S
C1260 H1246 0.961 . S
C1260 C1259 1.502 . S
C1261 H1247 0.960 . S
C1261 H1248 0.961 . S
C1261 H1249 0.959 . S
C1261 C1259 1.561 . S
C1262 C1259 1.526 . S
C1262 C1263 1.396 . S
C1262 C1267 1.390 . S
C1263 C1257 1.465 . S
C1263 C1262 1.396 . S
C1263 C1264 1.399 . S
C1264 H1250 0.929 . S
C1264 C1263 1.399 . S
C1264 C1265 1.385 . S
C1265 H1251 0.931 . S
C1265 C1264 1.385 . S
C1265 C1266 1.389 . S
C1266 C1265 1.389 . S
C1266 C1267 1.387 . S
C1267 H1252 0.930 . S
C1267 C1262 1.390 . S
C1267 C1266 1.387 . S
H1268 C1280 0.930 . S
H1269 C1282 0.930 . S
H1270 C1283 0.930 . S
H1271 C1287 0.959 . S
H1272 C1287 0.959 . S
H1273 C1287 0.961 . S
H1274 C1288 0.960 . S
H1275 C1288 0.961 . S
H1276 C1288 0.959 . S
H1277 C1291 0.929 . S
H1278 C1292 0.931 . S
H1279 C1294 0.930 . S
C1280 H1268 0.930 . S
C1280 C1281 1.399 . S
C1280 C1285 1.399 . S
C1281 C1280 1.399 . S
C1281 C1282 1.376 . S
C1282 H1269 0.930 . S
C1282 C1281 1.376 . S
C1282 C1283 1.388 . S
C1283 H1270 0.930 . S
C1283 C1282 1.388 . S
C1283 C1284 1.390 . S
C1284 C1283 1.390 . S
C1284 C1285 1.394 . S
C1284 C1290 1.465 . S
C1285 C1280 1.399 . S
C1285 C1284 1.394 . S
C1285 C1286 1.516 . S
C1286 C1285 1.516 . S
C1286 C1287 1.502 . S
C1286 C1288 1.561 . S
C1286 C1289 1.526 . S
C1287 H1271 0.959 . S
C1287 H1272 0.959 . S
C1287 H1273 0.961 . S
C1287 C1286 1.502 . S
C1288 H1274 0.960 . S
C1288 H1275 0.961 . S
C1288 H1276 0.959 . S
C1288 C1286 1.561 . S
C1289 C1286 1.526 . S
C1289 C1290 1.396 . S
C1289 C1294 1.390 . S
C1290 C1284 1.465 . S
C1290 C1289 1.396 . S
C1290 C1291 1.399 . S
C1291 H1277 0.929 . S
C1291 C1290 1.399 . S
C1291 C1292 1.385 . S
C1292 H1278 0.931 . S
C1292 C1291 1.385 . S
C1292 C1293 1.389 . S
C1293 C1292 1.389 . S
C1293 C1294 1.387 . S
C1294 H1279 0.930 . S
C1294 C1289 1.390 . S
C1294 C1293 1.387 . S
H1295 C1307 0.930 . S
H1296 C1309 0.930 . S
H1297 C1310 0.930 . S
H1298 C1314 0.959 . S
H1299 C1314 0.959 . S
H1300 C1314 0.961 . S
H1301 C1315 0.960 . S
H1302 C1315 0.961 . S
H1303 C1315 0.959 . S
H1304 C1318 0.929 . S
H1305 C1319 0.931 . S
H1306 C1321 0.930 . S
C1307 H1295 0.930 . S
C1307 C1308 1.399 . S
C1307 C1312 1.399 . S
C1308 C1307 1.399 . S
C1308 C1309 1.376 . S
C1309 H1296 0.930 . S
C1309 C1308 1.376 . S
C1309 C1310 1.388 . S
C1310 H1297 0.930 . S
C1310 C1309 1.388 . S
C1310 C1311 1.390 . S
C1311 C1310 1.390 . S
C1311 C1312 1.394 . S
C1311 C1317 1.465 . S
C1312 C1307 1.399 . S
C1312 C1311 1.394 . S
C1312 C1313 1.516 . S
C1313 C1312 1.516 . S
C1313 C1314 1.502 1_455 S
C1313 C1315 1.561 . S
C1313 C1316 1.526 . S
C1314 H1298 0.959 . S
C1314 H1299 0.959 . S
C1314 H1300 0.961 . S
C1314 C1313 1.502 1_655 S
C1315 H1301 0.960 . S
C1315 H1302 0.961 . S
C1315 H1303 0.959 . S
C1315 C1313 1.561 . S
C1316 C1313 1.526 . S
C1316 C1317 1.396 . S
C1316 C1321 1.390 1_455 S
C1317 C1311 1.465 . S
C1317 C1316 1.396 . S
C1317 C1318 1.399 . S
C1318 H1304 0.929 . S
C1318 C1317 1.399 . S
C1318 C1319 1.385 . S
C1319 H1305 0.931 . S
C1319 C1318 1.385 . S
C1319 C1320 1.389 1_455 S
C1320 C1319 1.389 1_655 S
C1320 C1321 1.387 . S
C1321 H1306 0.930 . S
C1321 C1316 1.390 1_655 S
C1321 C1320 1.387 . S
H1322 C1334 0.930 . S
H1323 C1336 0.930 1_565 S
H1324 C1337 0.930 . S
H1325 C1341 0.959 . S
H1326 C1341 0.959 . S
H1327 C1341 0.961 . S
H1328 C1342 0.960 . S
H1329 C1342 0.961 . S
H1330 C1342 0.959 . S
H1331 C1345 0.929 . S
H1332 C1346 0.931 . S
H1333 C1348 0.930 . S
C1334 H1322 0.930 . S
C1334 C1335 1.399 . S
C1334 C1339 1.399 . S
C1335 C1334 1.399 . S
C1335 C1336 1.376 . S
C1336 H1323 0.930 1_545 S
C1336 C1335 1.376 . S
C1336 C1337 1.388 . S
C1337 H1324 0.930 . S
C1337 C1336 1.388 . S
C1337 C1338 1.390 . S
C1338 C1337 1.390 . S
C1338 C1339 1.394 . S
C1338 C1344 1.465 . S
C1339 C1334 1.399 . S
C1339 C1338 1.394 . S
C1339 C1340 1.516 . S
C1340 C1339 1.516 . S
C1340 C1341 1.502 . S
C1340 C1342 1.561 . S
C1340 C1343 1.526 . S
C1341 H1325 0.959 . S
C1341 H1326 0.959 . S
C1341 H1327 0.961 . S
C1341 C1340 1.502 . S
C1342 H1328 0.960 . S
C1342 H1329 0.961 . S
C1342 H1330 0.959 . S
C1342 C1340 1.561 . S
C1343 C1340 1.526 . S
C1343 C1344 1.396 . S
C1343 C1348 1.390 . S
C1344 C1338 1.465 . S
C1344 C1343 1.396 . S
C1344 C1345 1.399 . S
C1345 H1331 0.929 . S
C1345 C1344 1.399 . S
C1345 C1346 1.385 . S
C1346 H1332 0.931 . S
C1346 C1345 1.385 . S
C1346 C1347 1.389 . S
C1347 C1346 1.389 . S
C1347 C1348 1.387 . S
C1348 H1333 0.930 . S
C1348 C1343 1.390 . S
C1348 C1347 1.387 . S
H1349 C1361 0.930 . S
H1350 C1363 0.930 . S
H1351 C1364 0.930 . S
H1352 C1368 0.959 . S
H1353 C1368 0.959 . S
H1354 C1368 0.961 . S
H1355 C1369 0.960 . S
H1356 C1369 0.961 . S
H1357 C1369 0.959 . S
H1358 C1372 0.929 . S
H1359 C1373 0.931 . S
H1360 C1375 0.930 . S
C1361 H1349 0.930 . S
C1361 C1362 1.399 . S
C1361 C1366 1.399 1_655 S
C1362 C1361 1.399 . S
C1362 C1363 1.376 1_655 S
C1363 H1350 0.930 . S
C1363 C1362 1.376 1_455 S
C1363 C1364 1.388 . S
C1364 H1351 0.930 . S
C1364 C1363 1.388 . S
C1364 C1365 1.390 . S
C1365 C1364 1.390 . S
C1365 C1366 1.394 . S
C1365 C1371 1.465 . S
C1366 C1361 1.399 1_455 S
C1366 C1365 1.394 . S
C1366 C1367 1.516 . S
C1367 C1366 1.516 . S
C1367 C1368 1.502 1_455 S
C1367 C1369 1.561 . S
C1367 C1370 1.526 . S
C1368 H1352 0.959 . S
C1368 H1353 0.959 . S
C1368 H1354 0.961 . S
C1368 C1367 1.502 1_655 S
C1369 H1355 0.960 . S
C1369 H1356 0.961 . S
C1369 H1357 0.959 . S
C1369 C1367 1.561 . S
C1370 C1367 1.526 . S
C1370 C1371 1.396 . S
C1370 C1375 1.390 . S
C1371 C1365 1.465 . S
C1371 C1370 1.396 . S
C1371 C1372 1.399 . S
C1372 H1358 0.929 . S
C1372 C1371 1.399 . S
C1372 C1373 1.385 . S
C1373 H1359 0.931 . S
C1373 C1372 1.385 . S
C1373 C1374 1.389 . S
C1374 C1373 1.389 . S
C1374 C1375 1.387 . S
C1375 H1360 0.930 . S
C1375 C1370 1.390 . S
C1375 C1374 1.387 . S
H1376 C1388 0.930 . S
H1377 C1390 0.930 . S
H1378 C1391 0.930 . S
H1379 C1395 0.959 . S
H1380 C1395 0.959 . S
H1381 C1395 0.961 . S
H1382 C1396 0.960 . S
H1383 C1396 0.961 . S
H1384 C1396 0.959 . S
H1385 C1399 0.929 . S
H1386 C1400 0.931 . S
H1387 C1402 0.930 . S
C1388 H1376 0.930 . S
C1388 C1389 1.399 . S
C1388 C1393 1.399 . S
C1389 C1388 1.399 . S
C1389 C1390 1.376 . S
C1390 H1377 0.930 . S
C1390 C1389 1.376 . S
C1390 C1391 1.388 . S
C1391 H1378 0.930 . S
C1391 C1390 1.388 . S
C1391 C1392 1.390 . S
C1392 C1391 1.390 . S
C1392 C1393 1.394 . S
C1392 C1398 1.465 . S
C1393 C1388 1.399 . S
C1393 C1392 1.394 . S
C1393 C1394 1.516 . S
C1394 C1393 1.516 . S
C1394 C1395 1.502 . S
C1394 C1396 1.561 . S
C1394 C1397 1.526 . S
C1395 H1379 0.959 . S
C1395 H1380 0.959 . S
C1395 H1381 0.961 . S
C1395 C1394 1.502 . S
C1396 H1382 0.960 . S
C1396 H1383 0.961 . S
C1396 H1384 0.959 . S
C1396 C1394 1.561 . S
C1397 C1394 1.526 . S
C1397 C1398 1.396 . S
C1397 C1402 1.390 . S
C1398 C1392 1.465 . S
C1398 C1397 1.396 . S
C1398 C1399 1.399 . S
C1399 H1385 0.929 . S
C1399 C1398 1.399 . S
C1399 C1400 1.385 . S
C1400 H1386 0.931 . S
C1400 C1399 1.385 . S
C1400 C1401 1.389 . S
C1401 C1400 1.389 . S
C1401 C1402 1.387 . S
C1402 H1387 0.930 . S
C1402 C1397 1.390 . S
C1402 C1401 1.387 . S
H1403 C1415 0.930 . S
H1404 C1417 0.930 1_565 S
H1405 C1418 0.930 1_565 S
H1406 C1422 0.959 . S
H1407 C1422 0.959 . S
H1408 C1422 0.961 1_655 S
H1409 C1423 0.960 . S
H1410 C1423 0.961 . S
H1411 C1423 0.959 . S
H1412 C1426 0.929 1_565 S
H1413 C1427 0.931 . S
H1414 C1429 0.930 . S
C1415 H1403 0.930 . S
C1415 C1416 1.399 . S
C1415 C1420 1.399 . S
C1416 C1415 1.399 . S
C1416 C1417 1.376 . S
C1417 H1404 0.930 1_545 S
C1417 C1416 1.376 . S
C1417 C1418 1.388 . S
C1418 H1405 0.930 1_545 S
C1418 C1417 1.388 . S
C1418 C1419 1.390 . S
C1419 C1418 1.390 . S
C1419 C1420 1.394 . S
C1419 C1425 1.465 . S
C1420 C1415 1.399 . S
C1420 C1419 1.394 . S
C1420 C1421 1.516 . S
C1421 C1420 1.516 . S
C1421 C1422 1.502 1_655 S
C1421 C1423 1.561 . S
C1421 C1424 1.526 . S
C1422 H1406 0.959 . S
C1422 H1407 0.959 . S
C1422 H1408 0.961 1_455 S
C1422 C1421 1.502 1_455 S
C1423 H1409 0.960 . S
C1423 H1410 0.961 . S
C1423 H1411 0.959 . S
C1423 C1421 1.561 . S
C1424 C1421 1.526 . S
C1424 C1425 1.396 . S
C1424 C1429 1.390 1_655 S
C1425 C1419 1.465 . S
C1425 C1424 1.396 . S
C1425 C1426 1.399 . S
C1426 H1412 0.929 1_545 S
C1426 C1425 1.399 . S
C1426 C1427 1.385 1_655 S
C1427 H1413 0.931 . S
C1427 C1426 1.385 1_455 S
C1427 C1428 1.389 . S
C1428 C1427 1.389 . S
C1428 C1429 1.387 . S
C1429 H1414 0.930 . S
C1429 C1424 1.390 1_455 S
C1429 C1428 1.387 . S
H1430 C1442 0.930 . S
H1431 C1444 0.930 . S
H1432 C1445 0.930 1_565 S
H1433 C1449 0.959 . S
H1434 C1449 0.959 . S
H1435 C1449 0.961 . S
H1436 C1450 0.960 . S
H1437 C1450 0.961 . S
H1438 C1450 0.959 . S
H1439 C1453 0.929 1_565 S
H1440 C1454 0.931 1_565 S
H1441 C1456 0.930 . S
C1442 H1430 0.930 . S
C1442 C1443 1.399 . S
C1442 C1447 1.399 . S
C1443 C1442 1.399 . S
C1443 C1444 1.376 . S
C1444 H1431 0.930 . S
C1444 C1443 1.376 . S
C1444 C1445 1.388 . S
C1445 H1432 0.930 1_545 S
C1445 C1444 1.388 . S
C1445 C1446 1.390 . S
C1446 C1445 1.390 . S
C1446 C1447 1.394 . S
C1446 C1452 1.465 . S
C1447 C1442 1.399 . S
C1447 C1446 1.394 . S
C1447 C1448 1.516 . S
C1448 C1447 1.516 . S
C1448 C1449 1.502 . S
C1448 C1450 1.561 . S
C1448 C1451 1.526 . S
C1449 H1433 0.959 . S
C1449 H1434 0.959 . S
C1449 H1435 0.961 . S
C1449 C1448 1.502 . S
C1450 H1436 0.960 . S
C1450 H1437 0.961 . S
C1450 H1438 0.959 . S
C1450 C1448 1.561 . S
C1451 C1448 1.526 . S
C1451 C1452 1.396 . S
C1451 C1456 1.390 . S
C1452 C1446 1.465 . S
C1452 C1451 1.396 . S
C1452 C1453 1.399 . S
C1453 H1439 0.929 1_545 S
C1453 C1452 1.399 . S
C1453 C1454 1.385 . S
C1454 H1440 0.931 1_545 S
C1454 C1453 1.385 . S
C1454 C1455 1.389 . S
C1455 C1454 1.389 . S
C1455 C1456 1.387 . S
C1456 H1441 0.930 . S
C1456 C1451 1.390 . S
C1456 C1455 1.387 . S
H1457 C1469 0.930 . S
H1458 C1471 0.930 . S
H1459 C1472 0.930 . S
H1460 C1476 0.959 . S
H1461 C1476 0.959 . S
H1462 C1476 0.961 . S
H1463 C1477 0.960 1_655 S
H1464 C1477 0.961 . S
H1465 C1477 0.959 . S
H1466 C1480 0.929 . S
H1467 C1481 0.931 . S
H1468 C1483 0.930 . S
C1469 H1457 0.930 . S
C1469 C1470 1.399 . S
C1469 C1474 1.399 . S
C1470 C1469 1.399 . S
C1470 C1471 1.376 . S
C1471 H1458 0.930 . S
C1471 C1470 1.376 . S
C1471 C1472 1.388 . S
C1472 H1459 0.930 . S
C1472 C1471 1.388 . S
C1472 C1473 1.390 . S
C1473 C1472 1.390 . S
C1473 C1474 1.394 . S
C1473 C1479 1.465 . S
C1474 C1469 1.399 . S
C1474 C1473 1.394 . S
C1474 C1475 1.516 . S
C1475 C1474 1.516 . S
C1475 C1476 1.502 . S
C1475 C1477 1.561 1_655 S
C1475 C1478 1.526 . S
C1476 H1460 0.959 . S
C1476 H1461 0.959 . S
C1476 H1462 0.961 . S
C1476 C1475 1.502 . S
C1477 H1463 0.960 1_455 S
C1477 H1464 0.961 . S
C1477 H1465 0.959 . S
C1477 C1475 1.561 1_455 S
C1478 C1475 1.526 . S
C1478 C1479 1.396 . S
C1478 C1483 1.390 1_655 S
C1479 C1473 1.465 . S
C1479 C1478 1.396 . S
C1479 C1480 1.399 . S
C1480 H1466 0.929 . S
C1480 C1479 1.399 . S
C1480 C1481 1.385 1_655 S
C1481 H1467 0.931 . S
C1481 C1480 1.385 1_455 S
C1481 C1482 1.389 . S
C1482 C1481 1.389 . S
C1482 C1483 1.387 . S
C1483 H1468 0.930 . S
C1483 C1478 1.390 1_455 S
C1483 C1482 1.387 . S
H1484 C1496 0.930 . S
H1485 C1498 0.930 . S
H1486 C1499 0.930 . S
H1487 C1503 0.959 . S
H1488 C1503 0.959 . S
H1489 C1503 0.961 . S
H1490 C1504 0.960 . S
H1491 C1504 0.961 . S
H1492 C1504 0.959 . S
H1493 C1507 0.929 . S
H1494 C1508 0.931 . S
H1495 C1510 0.930 . S
C1496 H1484 0.930 . S
C1496 C1497 1.399 . S
C1496 C1501 1.399 . S
C1497 C1496 1.399 . S
C1497 C1498 1.376 . S
C1498 H1485 0.930 . S
C1498 C1497 1.376 . S
C1498 C1499 1.388 . S
C1499 H1486 0.930 . S
C1499 C1498 1.388 . S
C1499 C1500 1.390 . S
C1500 C1499 1.390 . S
C1500 C1501 1.394 . S
C1500 C1506 1.465 . S
C1501 C1496 1.399 . S
C1501 C1500 1.394 . S
C1501 C1502 1.516 . S
C1502 C1501 1.516 . S
C1502 C1503 1.502 . S
C1502 C1504 1.561 . S
C1502 C1505 1.526 . S
C1503 H1487 0.959 . S
C1503 H1488 0.959 . S
C1503 H1489 0.961 . S
C1503 C1502 1.502 . S
C1504 H1490 0.960 . S
C1504 H1491 0.961 . S
C1504 H1492 0.959 . S
C1504 C1502 1.561 . S
C1505 C1502 1.526 . S
C1505 C1506 1.396 . S
C1505 C1510 1.390 . S
C1506 C1500 1.465 . S
C1506 C1505 1.396 . S
C1506 C1507 1.399 . S
C1507 H1493 0.929 . S
C1507 C1506 1.399 . S
C1507 C1508 1.385 . S
C1508 H1494 0.931 . S
C1508 C1507 1.385 . S
C1508 C1509 1.389 . S
C1509 C1508 1.389 . S
C1509 C1510 1.387 . S
C1510 H1495 0.930 . S
C1510 C1505 1.390 . S
C1510 C1509 1.387 . S
H1511 C1523 0.930 1_455 S
H1512 C1525 0.930 . S
H1513 C1526 0.930 . S
H1514 C1530 0.945 1_565 S
H1515 C1530 0.970 . S
H1516 C1530 0.973 . S
H1517 C1531 0.960 . S
H1518 C1531 0.961 . S
H1519 C1531 0.959 1_655 S
H1520 C1534 0.929 . S
H1521 C1535 0.931 . S
H1522 C1537 0.930 . S
C1523 H1511 0.930 1_655 S
C1523 C1524 1.399 . S
C1523 C1528 1.399 1_655 S
C1524 C1523 1.399 . S
C1524 C1525 1.376 . S
C1525 H1512 0.930 . S
C1525 C1524 1.376 . S
C1525 C1526 1.388 . S
C1526 H1513 0.930 . S
C1526 C1525 1.388 . S
C1526 C1527 1.390 1_655 S
C1527 C1526 1.390 1_455 S
C1527 C1528 1.394 . S
C1527 C1533 1.465 . S
C1528 C1523 1.399 1_455 S
C1528 C1527 1.394 . S
C1528 C1529 1.516 . S
C1529 C1528 1.516 . S
C1529 C1530 1.493 1_565 S
C1529 C1531 1.561 1_565 S
C1529 C1532 1.526 . S
C1530 H1514 0.945 1_545 S
C1530 H1515 0.970 . S
C1530 H1516 0.973 . S
C1530 C1529 1.493 1_545 S
C1531 H1517 0.960 . S
C1531 H1518 0.961 . S
C1531 H1519 0.959 1_455 S
C1531 C1529 1.561 1_545 S
C1532 C1529 1.526 . S
C1532 C1533 1.396 . S
C1532 C1537 1.390 . S
C1533 C1527 1.465 . S
C1533 C1532 1.396 . S
C1533 C1534 1.399 . S
C1534 H1520 0.929 . S
C1534 C1533 1.399 . S
C1534 C1535 1.385 . S
C1535 H1521 0.931 . S
C1535 C1534 1.385 . S
C1535 C1536 1.389 . S
C1536 C1535 1.389 . S
C1536 C1537 1.387 . S
C1537 H1522 0.930 . S
C1537 C1532 1.390 . S
C1537 C1536 1.387 . S
H1538 C1550 0.930 . S
H1539 C1552 0.930 . S
H1540 C1553 0.930 . S
H1541 C1557 0.959 1_565 S
H1542 C1557 0.959 . S
H1543 C1557 0.961 . S
H1544 C1558 0.960 . S
H1545 C1558 0.961 . S
H1546 C1558 0.959 . S
H1547 C1561 0.929 . S
H1548 C1562 0.931 . S
H1549 C1564 0.930 . S
C1550 H1538 0.930 . S
C1550 C1551 1.399 . S
C1550 C1555 1.399 . S
C1551 C1550 1.399 . S
C1551 C1552 1.376 . S
C1552 H1539 0.930 . S
C1552 C1551 1.376 . S
C1552 C1553 1.388 . S
C1553 H1540 0.930 . S
C1553 C1552 1.388 . S
C1553 C1554 1.390 . S
C1554 C1553 1.390 . S
C1554 C1555 1.394 . S
C1554 C1560 1.465 . S
C1555 C1550 1.399 . S
C1555 C1554 1.394 . S
C1555 C1556 1.516 . S
C1556 C1555 1.516 . S
C1556 C1557 1.502 1_565 S
C1556 C1558 1.561 1_565 S
C1556 C1559 1.526 . S
C1557 H1541 0.959 1_545 S
C1557 H1542 0.959 . S
C1557 H1543 0.961 . S
C1557 C1556 1.502 1_545 S
C1558 H1544 0.960 . S
C1558 H1545 0.961 . S
C1558 H1546 0.959 . S
C1558 C1556 1.561 1_545 S
C1559 C1556 1.526 . S
C1559 C1560 1.396 . S
C1559 C1564 1.390 . S
C1560 C1554 1.465 . S
C1560 C1559 1.396 . S
C1560 C1561 1.399 . S
C1561 H1547 0.929 . S
C1561 C1560 1.399 . S
C1561 C1562 1.385 . S
C1562 H1548 0.931 . S
C1562 C1561 1.385 . S
C1562 C1563 1.389 . S
C1563 C1562 1.389 . S
C1563 C1564 1.387 . S
C1564 H1549 0.930 . S
C1564 C1559 1.390 . S
C1564 C1563 1.387 . S
H1565 C1577 0.930 . S
H1566 C1579 0.930 . S
H1567 C1580 0.930 . S
H1568 C1584 0.959 . S
H1569 C1584 0.959 1_455 S
H1570 C1584 0.961 . S
H1571 C1585 0.960 . S
H1572 C1585 0.961 . S
H1573 C1585 0.959 . S
H1574 C1588 0.929 . S
H1575 C1589 0.931 . S
H1576 C1591 0.930 . S
C1577 H1565 0.930 . S
C1577 C1578 1.399 . S
C1577 C1582 1.399 1_655 S
C1578 C1577 1.399 . S
C1578 C1579 1.376 . S
C1579 H1566 0.930 . S
C1579 C1578 1.376 . S
C1579 C1580 1.388 1_655 S
C1580 H1567 0.930 . S
C1580 C1579 1.388 1_455 S
C1580 C1581 1.390 . S
C1581 C1580 1.390 . S
C1581 C1582 1.394 . S
C1581 C1587 1.465 . S
C1582 C1577 1.399 1_455 S
C1582 C1581 1.394 . S
C1582 C1583 1.516 . S
C1583 C1582 1.516 . S
C1583 C1584 1.502 1_455 S
C1583 C1585 1.561 . S
C1583 C1586 1.526 . S
C1584 H1568 0.959 . S
C1584 H1569 0.959 1_655 S
C1584 H1570 0.961 . S
C1584 C1583 1.502 1_655 S
C1585 H1571 0.960 . S
C1585 H1572 0.961 . S
C1585 H1573 0.959 . S
C1585 C1583 1.561 . S
C1586 C1583 1.526 . S
C1586 C1587 1.396 . S
C1586 C1591 1.390 . S
C1587 C1581 1.465 . S
C1587 C1586 1.396 . S
C1587 C1588 1.399 . S
C1588 H1574 0.929 . S
C1588 C1587 1.399 . S
C1588 C1589 1.385 . S
C1589 H1575 0.931 . S
C1589 C1588 1.385 . S
C1589 C1590 1.389 . S
C1590 C1589 1.389 . S
C1590 C1591 1.387 . S
C1591 H1576 0.930 . S
C1591 C1586 1.390 . S
C1591 C1590 1.387 . S
H1592 C1604 0.930 . S
H1593 C1606 0.930 . S
H1594 C1607 0.930 . S
H1595 C1611 0.959 . S
H1596 C1611 0.959 . S
H1597 C1611 0.961 . S
H1598 C1612 0.960 . S
H1599 C1612 0.961 . S
H1600 C1612 0.959 . S
H1601 C1615 0.929 . S
H1602 C1616 0.931 . S
H1603 C1618 0.930 . S
C1604 H1592 0.930 . S
C1604 C1605 1.399 . S
C1604 C1609 1.399 . S
C1605 C1604 1.399 . S
C1605 C1606 1.376 . S
C1606 H1593 0.930 . S
C1606 C1605 1.376 . S
C1606 C1607 1.388 . S
C1607 H1594 0.930 . S
C1607 C1606 1.388 . S
C1607 C1608 1.390 . S
C1608 C1607 1.390 . S
C1608 C1609 1.394 . S
C1608 C1614 1.465 . S
C1609 C1604 1.399 . S
C1609 C1608 1.394 . S
C1609 C1610 1.516 . S
C1610 C1609 1.516 . S
C1610 C1611 1.502 . S
C1610 C1612 1.561 . S
C1610 C1613 1.526 . S
C1611 H1595 0.959 . S
C1611 H1596 0.959 . S
C1611 H1597 0.961 . S
C1611 C1610 1.502 . S
C1612 H1598 0.960 . S
C1612 H1599 0.961 . S
C1612 H1600 0.959 . S
C1612 C1610 1.561 . S
C1613 C1610 1.526 . S
C1613 C1614 1.396 . S
C1613 C1618 1.390 . S
C1614 C1608 1.465 . S
C1614 C1613 1.396 . S
C1614 C1615 1.399 . S
C1615 H1601 0.929 . S
C1615 C1614 1.399 . S
C1615 C1616 1.385 . S
C1616 H1602 0.931 . S
C1616 C1615 1.385 . S
C1616 C1617 1.389 . S
C1617 C1616 1.389 . S
C1617 C1618 1.387 . S
C1618 H1603 0.930 . S
C1618 C1613 1.390 . S
C1618 C1617 1.387 . S
H1619 C1631 0.931 . S
H1620 C1633 0.930 . S
H1621 C1634 0.930 . S
H1622 C1638 0.959 . S
H1623 C1638 0.959 . S
H1624 C1638 0.961 . S
H1625 C1639 0.960 . S
H1626 C1639 0.961 . S
H1627 C1639 0.959 . S
H1628 C1642 0.929 . S
H1629 C1643 0.931 . S
H1630 C1645 0.930 . S
C1631 H1619 0.931 . S
C1631 C1632 1.395 1_655 S
C1631 C1636 1.402 . S
C1632 C1631 1.395 1_455 S
C1632 C1633 1.376 . S
C1633 H1620 0.930 . S
C1633 C1632 1.376 . S
C1633 C1634 1.388 . S
C1634 H1621 0.930 . S
C1634 C1633 1.388 . S
C1634 C1635 1.390 1_455 S
C1635 C1634 1.390 1_655 S
C1635 C1636 1.394 . S
C1635 C1641 1.465 . S
C1636 C1631 1.402 . S
C1636 C1635 1.394 . S
C1636 C1637 1.516 . S
C1637 C1636 1.516 . S
C1637 C1638 1.502 . S
C1637 C1639 1.561 . S
C1637 C1640 1.526 . S
C1638 H1622 0.959 . S
C1638 H1623 0.959 . S
C1638 H1624 0.961 . S
C1638 C1637 1.502 . S
C1639 H1625 0.960 . S
C1639 H1626 0.961 . S
C1639 H1627 0.959 . S
C1639 C1637 1.561 . S
C1640 C1637 1.526 . S
C1640 C1641 1.396 . S
C1640 C1645 1.390 . S
C1641 C1635 1.465 . S
C1641 C1640 1.396 . S
C1641 C1642 1.399 . S
C1642 H1628 0.929 . S
C1642 C1641 1.399 . S
C1642 C1643 1.385 . S
C1643 H1629 0.931 . S
C1643 C1642 1.385 . S
C1643 C1644 1.389 . S
C1644 C1643 1.389 . S
C1644 C1645 1.387 . S
C1645 H1630 0.930 . S
C1645 C1640 1.390 . S
C1645 C1644 1.387 . S
H1646 C1658 0.930 . S
H1647 C1660 0.930 . S
H1648 C1661 0.930 . S
H1649 C1665 0.959 . S
H1650 C1665 0.959 . S
H1651 C1665 0.961 . S
H1652 C1666 0.960 . S
H1653 C1666 0.961 . S
H1654 C1666 0.959 . S
H1655 C1669 0.929 . S
H1656 C1670 0.931 . S
H1657 C1672 0.930 . S
C1658 H1646 0.930 . S
C1658 C1659 1.399 . S
C1658 C1663 1.399 . S
C1659 C1658 1.399 . S
C1659 C1660 1.376 . S
C1660 H1647 0.930 . S
C1660 C1659 1.376 . S
C1660 C1661 1.388 . S
C1661 H1648 0.930 . S
C1661 C1660 1.388 . S
C1661 C1662 1.390 . S
C1662 C1661 1.390 . S
C1662 C1663 1.394 . S
C1662 C1668 1.465 . S
C1663 C1658 1.399 . S
C1663 C1662 1.394 . S
C1663 C1664 1.516 . S
C1664 C1663 1.516 . S
C1664 C1665 1.502 . S
C1664 C1666 1.561 . S
C1664 C1667 1.526 . S
C1665 H1649 0.959 . S
C1665 H1650 0.959 . S
C1665 H1651 0.961 . S
C1665 C1664 1.502 . S
C1666 H1652 0.960 . S
C1666 H1653 0.961 . S
C1666 H1654 0.959 . S
C1666 C1664 1.561 . S
C1667 C1664 1.526 . S
C1667 C1668 1.396 . S
C1667 C1672 1.390 . S
C1668 C1662 1.465 . S
C1668 C1667 1.396 . S
C1668 C1669 1.399 . S
C1669 H1655 0.929 . S
C1669 C1668 1.399 . S
C1669 C1670 1.385 . S
C1670 H1656 0.931 . S
C1670 C1669 1.385 . S
C1670 C1671 1.389 . S
C1671 C1670 1.389 . S
C1671 C1672 1.387 . S
C1672 H1657 0.930 . S
C1672 C1667 1.390 . S
C1672 C1671 1.387 . S
H1673 C1685 0.930 . S
H1674 C1687 0.930 . S
H1675 C1688 0.930 . S
H1676 C1692 0.959 . S
H1677 C1692 0.959 . S
H1678 C1692 0.961 . S
H1679 C1693 0.960 . S
H1680 C1693 0.961 . S
H1681 C1693 0.959 . S
H1682 C1696 0.929 . S
H1683 C1697 0.931 . S
H1684 C1699 0.930 . S
C1685 H1673 0.930 . S
C1685 C1686 1.399 . S
C1685 C1690 1.399 . S
C1686 C1685 1.399 . S
C1686 C1687 1.376 . S
C1687 H1674 0.930 . S
C1687 C1686 1.376 . S
C1687 C1688 1.388 . S
C1688 H1675 0.930 . S
C1688 C1687 1.388 . S
C1688 C1689 1.390 . S
C1689 C1688 1.390 . S
C1689 C1690 1.394 . S
C1689 C1695 1.465 . S
C1690 C1685 1.399 . S
C1690 C1689 1.394 . S
C1690 C1691 1.516 . S
C1691 C1690 1.516 . S
C1691 C1692 1.502 . S
C1691 C1693 1.561 . S
C1691 C1694 1.526 . S
C1692 H1676 0.959 . S
C1692 H1677 0.959 . S
C1692 H1678 0.961 . S
C1692 C1691 1.502 . S
C1693 H1679 0.960 . S
C1693 H1680 0.961 . S
C1693 H1681 0.959 . S
C1693 C1691 1.561 . S
C1694 C1691 1.526 . S
C1694 C1695 1.396 . S
C1694 C1699 1.390 . S
C1695 C1689 1.465 . S
C1695 C1694 1.396 . S
C1695 C1696 1.399 1_655 S
C1696 H1682 0.929 . S
C1696 C1695 1.399 1_455 S
C1696 C1697 1.385 . S
C1697 H1683 0.931 . S
C1697 C1696 1.385 . S
C1697 C1698 1.389 . S
C1698 C1697 1.389 . S
C1698 C1699 1.387 1_455 S
C1699 H1684 0.930 . S
C1699 C1694 1.390 . S
C1699 C1698 1.387 1_655 S
H1700 C1712 0.930 . S
H1701 C1714 0.930 . S
H1702 C1715 0.930 . S
H1703 C1719 0.959 . S
H1704 C1719 0.959 . S
H1705 C1719 0.961 . S
H1706 C1720 0.960 . S
H1707 C1720 0.961 . S
H1708 C1720 0.959 . S
H1709 C1723 0.929 . S
H1710 C1724 0.931 . S
H1711 C1726 0.930 . S
C1712 H1700 0.930 . S
C1712 C1713 1.399 . S
C1712 C1717 1.399 . S
C1713 C1712 1.399 . S
C1713 C1714 1.376 . S
C1714 H1701 0.930 . S
C1714 C1713 1.376 . S
C1714 C1715 1.388 . S
C1715 H1702 0.930 . S
C1715 C1714 1.388 . S
C1715 C1716 1.390 . S
C1716 C1715 1.390 . S
C1716 C1717 1.394 . S
C1716 C1722 1.465 . S
C1717 C1712 1.399 . S
C1717 C1716 1.394 . S
C1717 C1718 1.516 . S
C1718 C1717 1.516 . S
C1718 C1719 1.502 . S
C1718 C1720 1.561 . S
C1718 C1721 1.526 . S
C1719 H1703 0.959 . S
C1719 H1704 0.959 . S
C1719 H1705 0.961 . S
C1719 C1718 1.502 . S
C1720 H1706 0.960 . S
C1720 H1707 0.961 . S
C1720 H1708 0.959 . S
C1720 C1718 1.561 . S
C1721 C1718 1.526 . S
C1721 C1722 1.396 . S
C1721 C1726 1.390 . S
C1722 C1716 1.465 . S
C1722 C1721 1.396 . S
C1722 C1723 1.399 . S
C1723 H1709 0.929 . S
C1723 C1722 1.399 . S
C1723 C1724 1.385 . S
C1724 H1710 0.931 . S
C1724 C1723 1.385 . S
C1724 C1725 1.389 . S
C1725 C1724 1.389 . S
C1725 C1726 1.387 . S
C1726 H1711 0.930 . S
C1726 C1721 1.390 . S
C1726 C1725 1.387 . S
H1727 C1739 0.930 . S
H1728 C1741 0.930 . S
H1729 C1742 0.930 . S
H1730 C1746 0.959 . S
H1731 C1746 0.959 . S
H1732 C1746 0.961 . S
H1733 C1747 0.960 . S
H1734 C1747 0.961 . S
H1735 C1747 0.959 . S
H1736 C1750 0.929 . S
H1737 C1751 0.932 . S
H1738 C1753 0.930 . S
C1739 H1727 0.930 . S
C1739 C1740 1.399 . S
C1739 C1744 1.399 . S
C1740 C1739 1.399 . S
C1740 C1741 1.376 . S
C1741 H1728 0.930 . S
C1741 C1740 1.376 . S
C1741 C1742 1.388 . S
C1742 H1729 0.930 . S
C1742 C1741 1.388 . S
C1742 C1743 1.390 . S
C1743 C1742 1.390 . S
C1743 C1744 1.394 . S
C1743 C1749 1.465 . S
C1744 C1739 1.399 . S
C1744 C1743 1.394 . S
C1744 C1745 1.516 . S
C1745 C1744 1.516 . S
C1745 C1746 1.502 1_455 S
C1745 C1747 1.561 . S
C1745 C1748 1.526 . S
C1746 H1730 0.959 . S
C1746 H1731 0.959 . S
C1746 H1732 0.961 . S
C1746 C1745 1.502 1_655 S
C1747 H1733 0.960 . S
C1747 H1734 0.961 . S
C1747 H1735 0.959 . S
C1747 C1745 1.561 . S
C1748 C1745 1.526 . S
C1748 C1749 1.396 . S
C1748 C1753 1.390 1_455 S
C1749 C1743 1.465 . S
C1749 C1748 1.396 . S
C1749 C1750 1.399 . S
C1750 H1736 0.929 . S
C1750 C1749 1.399 . S
C1750 C1751 1.379 1_455 S
C1751 H1737 0.932 . S
C1751 C1750 1.379 1_655 S
C1751 C1752 1.394 . S
C1752 C1751 1.394 . S
C1752 C1753 1.387 . S
C1753 H1738 0.930 . S
C1753 C1748 1.390 1_655 S
C1753 C1752 1.387 . S
H1754 C1766 0.930 . S
H1755 C1768 0.930 . S
H1756 C1769 0.930 . S
H1757 C1773 0.959 . S
H1758 C1773 0.959 . S
H1759 C1773 0.961 . S
H1760 C1774 0.960 . S
H1761 C1774 0.961 . S
H1762 C1774 0.959 . S
H1763 C1777 0.929 . S
H1764 C1778 0.931 . S
H1765 C1780 0.930 . S
C1766 H1754 0.930 . S
C1766 C1767 1.399 . S
C1766 C1771 1.399 . S
C1767 C1766 1.399 . S
C1767 C1768 1.376 . S
C1768 H1755 0.930 . S
C1768 C1767 1.376 . S
C1768 C1769 1.388 . S
C1769 H1756 0.930 . S
C1769 C1768 1.388 . S
C1769 C1770 1.390 . S
C1770 C1769 1.390 . S
C1770 C1771 1.394 . S
C1770 C1776 1.465 . S
C1771 C1766 1.399 . S
C1771 C1770 1.394 . S
C1771 C1772 1.516 . S
C1772 C1771 1.516 . S
C1772 C1773 1.502 . S
C1772 C1774 1.561 . S
C1772 C1775 1.526 . S
C1773 H1757 0.959 . S
C1773 H1758 0.959 . S
C1773 H1759 0.961 . S
C1773 C1772 1.502 . S
C1774 H1760 0.960 . S
C1774 H1761 0.961 . S
C1774 H1762 0.959 . S
C1774 C1772 1.561 . S
C1775 C1772 1.526 . S
C1775 C1776 1.396 . S
C1775 C1780 1.390 . S
C1776 C1770 1.465 . S
C1776 C1775 1.396 . S
C1776 C1777 1.399 . S
C1777 H1763 0.929 . S
C1777 C1776 1.399 . S
C1777 C1778 1.385 . S
C1778 H1764 0.931 . S
C1778 C1777 1.385 . S
C1778 C1779 1.389 . S
C1779 C1778 1.389 . S
C1779 C1780 1.387 . S
C1780 H1765 0.930 . S
C1780 C1775 1.390 . S
C1780 C1779 1.387 . S
H1781 C1793 0.930 . S
H1782 C1795 0.930 . S
H1783 C1796 0.930 . S
H1784 C1800 0.959 . S
H1785 C1800 0.959 . S
H1786 C1800 0.961 . S
H1787 C1801 0.960 . S
H1788 C1801 0.961 . S
H1789 C1801 0.959 . S
H1790 C1804 0.929 . S
H1791 C1805 0.931 . S
H1792 C1807 0.930 . S
C1793 H1781 0.930 . S
C1793 C1794 1.399 . S
C1793 C1798 1.399 . S
C1794 C1793 1.399 . S
C1794 C1795 1.376 . S
C1795 H1782 0.930 . S
C1795 C1794 1.376 . S
C1795 C1796 1.388 . S
C1796 H1783 0.930 . S
C1796 C1795 1.388 . S
C1796 C1797 1.390 . S
C1797 C1796 1.390 . S
C1797 C1798 1.394 . S
C1797 C1803 1.465 . S
C1798 C1793 1.399 . S
C1798 C1797 1.394 . S
C1798 C1799 1.516 . S
C1799 C1798 1.516 . S
C1799 C1800 1.502 . S
C1799 C1801 1.561 . S
C1799 C1802 1.526 . S
C1800 H1784 0.959 . S
C1800 H1785 0.959 . S
C1800 H1786 0.961 . S
C1800 C1799 1.502 . S
C1801 H1787 0.960 . S
C1801 H1788 0.961 . S
C1801 H1789 0.959 . S
C1801 C1799 1.561 . S
C1802 C1799 1.526 . S
C1802 C1803 1.396 . S
C1802 C1807 1.390 . S
C1803 C1797 1.465 . S
C1803 C1802 1.396 . S
C1803 C1804 1.399 1_455 S
C1804 H1790 0.929 . S
C1804 C1803 1.399 1_655 S
C1804 C1805 1.385 . S
C1805 H1791 0.931 . S
C1805 C1804 1.385 . S
C1805 C1806 1.389 . S
C1806 C1805 1.389 . S
C1806 C1807 1.387 1_655 S
C1807 H1792 0.930 . S
C1807 C1802 1.390 . S
C1807 C1806 1.387 1_455 S
H1808 C1820 0.930 . S
H1809 C1822 0.930 . S
H1810 C1823 0.930 . S
H1811 C1827 0.959 . S
H1812 C1827 0.959 . S
H1813 C1827 0.961 . S
H1814 C1828 0.960 . S
H1815 C1828 0.961 . S
H1816 C1828 0.959 . S
H1817 C1831 0.929 . S
H1818 C1832 0.931 . S
H1819 C1834 0.930 . S
C1820 H1808 0.930 . S
C1820 C1821 1.399 . S
C1820 C1825 1.399 . S
C1821 C1820 1.399 . S
C1821 C1822 1.376 . S
C1822 H1809 0.930 . S
C1822 C1821 1.376 . S
C1822 C1823 1.388 . S
C1823 H1810 0.930 . S
C1823 C1822 1.388 . S
C1823 C1824 1.390 . S
C1824 C1823 1.390 . S
C1824 C1825 1.394 . S
C1824 C1830 1.465 . S
C1825 C1820 1.399 . S
C1825 C1824 1.394 . S
C1825 C1826 1.516 . S
C1826 C1825 1.516 . S
C1826 C1827 1.502 . S
C1826 C1828 1.561 . S
C1826 C1829 1.526 . S
C1827 H1811 0.959 . S
C1827 H1812 0.959 . S
C1827 H1813 0.961 . S
C1827 C1826 1.502 . S
C1828 H1814 0.960 . S
C1828 H1815 0.961 . S
C1828 H1816 0.959 . S
C1828 C1826 1.561 . S
C1829 C1826 1.526 . S
C1829 C1830 1.396 . S
C1829 C1834 1.390 . S
C1830 C1824 1.465 . S
C1830 C1829 1.396 . S
C1830 C1831 1.399 . S
C1831 H1817 0.929 . S
C1831 C1830 1.399 . S
C1831 C1832 1.385 . S
C1832 H1818 0.931 . S
C1832 C1831 1.385 . S
C1832 C1833 1.389 . S
C1833 C1832 1.389 . S
C1833 C1834 1.387 . S
C1834 H1819 0.930 . S
C1834 C1829 1.390 . S
C1834 C1833 1.387 . S
H1835 C1847 0.930 . S
H1836 C1849 0.930 1_545 S
H1837 C1850 0.930 . S
H1838 C1854 0.959 . S
H1839 C1854 0.959 . S
H1840 C1854 0.961 . S
H1841 C1855 0.960 . S
H1842 C1855 0.961 . S
H1843 C1855 0.959 . S
H1844 C1858 0.929 . S
H1845 C1859 0.931 . S
H1846 C1861 0.930 1_565 S
C1847 H1835 0.930 . S
C1847 C1848 1.399 . S
C1847 C1852 1.399 . S
C1848 C1847 1.399 . S
C1848 C1849 1.376 . S
C1849 H1836 0.930 1_565 S
C1849 C1848 1.376 . S
C1849 C1850 1.388 1_565 S
C1850 H1837 0.930 . S
C1850 C1849 1.388 1_545 S
C1850 C1851 1.390 . S
C1851 C1850 1.390 . S
C1851 C1852 1.394 1_545 S
C1851 C1857 1.465 . S
C1852 C1847 1.399 . S
C1852 C1851 1.394 1_565 S
C1852 C1853 1.516 1_655 S
C1853 C1852 1.516 1_455 S
C1853 C1854 1.502 . S
C1853 C1855 1.561 1_455 S
C1853 C1856 1.526 . S
C1854 H1838 0.959 . S
C1854 H1839 0.959 . S
C1854 H1840 0.961 . S
C1854 C1853 1.502 . S
C1855 H1841 0.960 . S
C1855 H1842 0.961 . S
C1855 H1843 0.959 . S
C1855 C1853 1.561 1_655 S
C1856 C1853 1.526 . S
C1856 C1857 1.396 1_465 S
C1856 C1861 1.390 1_565 S
C1857 C1851 1.465 . S
C1857 C1856 1.396 1_645 S
C1857 C1858 1.399 . S
C1858 H1844 0.929 . S
C1858 C1857 1.399 . S
C1858 C1859 1.385 1_655 S
C1859 H1845 0.931 . S
C1859 C1858 1.385 1_455 S
C1859 C1860 1.389 . S
C1860 C1859 1.389 . S
C1860 C1861 1.387 . S
C1861 H1846 0.930 1_545 S
C1861 C1856 1.390 1_545 S
C1861 C1860 1.387 . S
H1862 C1874 0.930 1_545 S
H1863 C1876 0.930 . S
H1864 C1877 0.930 . S
H1865 C1881 0.959 . S
H1866 C1881 0.959 . S
H1867 C1881 0.961 . S
H1868 C1882 0.960 . S
H1869 C1882 0.961 . S
H1870 C1882 0.959 . S
H1871 C1885 0.929 . S
H1872 C1886 0.931 1_565 S
H1873 C1888 0.930 . S
C1874 H1862 0.930 1_565 S
C1874 C1875 1.399 . S
C1874 C1879 1.397 1_565 S
C1875 C1874 1.399 . S
C1875 C1876 1.376 . S
C1876 H1863 0.930 . S
C1876 C1875 1.376 . S
C1876 C1877 1.388 . S
C1877 H1864 0.930 . S
C1877 C1876 1.388 . S
C1877 C1878 1.390 . S
C1878 C1877 1.390 . S
C1878 C1879 1.381 1_565 S
C1878 C1884 1.465 . S
C1879 C1874 1.397 1_545 S
C1879 C1878 1.381 1_545 S
C1879 C1880 1.530 . S
C1880 C1879 1.530 . S
C1880 C1881 1.502 . S
C1880 C1882 1.561 . S
C1880 C1883 1.526 . S
C1881 H1865 0.959 . S
C1881 H1866 0.959 . S
C1881 H1867 0.961 . S
C1881 C1880 1.502 . S
C1882 H1868 0.960 . S
C1882 H1869 0.961 . S
C1882 H1870 0.959 . S
C1882 C1880 1.561 . S
C1883 C1880 1.526 . S
C1883 C1884 1.396 1_545 S
C1883 C1888 1.390 . S
C1884 C1878 1.465 . S
C1884 C1883 1.396 1_565 S
C1884 C1885 1.399 . S
C1885 H1871 0.929 . S
C1885 C1884 1.399 . S
C1885 C1886 1.385 1_565 S
C1886 H1872 0.931 1_545 S
C1886 C1885 1.385 1_545 S
C1886 C1887 1.389 . S
C1887 C1886 1.389 . S
C1887 C1888 1.387 . S
C1888 H1873 0.930 . S
C1888 C1883 1.390 . S
C1888 C1887 1.387 . S
H1889 C1901 0.930 . S
H1890 C1903 0.930 . S
H1891 C1904 0.930 . S
H1892 C1908 0.959 . S
H1893 C1908 0.959 . S
H1894 C1908 0.961 . S
H1895 C1909 0.960 . S
H1896 C1909 0.961 . S
H1897 C1909 0.959 . S
H1898 C1912 0.929 . S
H1899 C1913 0.931 . S
H1900 C1915 0.930 . S
C1901 H1889 0.930 . S
C1901 C1902 1.399 . S
C1901 C1906 1.399 . S
C1902 C1901 1.399 . S
C1902 C1903 1.376 1_455 S
C1903 H1890 0.930 . S
C1903 C1902 1.376 1_655 S
C1903 C1904 1.388 . S
C1904 H1891 0.930 . S
C1904 C1903 1.388 . S
C1904 C1905 1.390 . S
C1905 C1904 1.390 . S
C1905 C1906 1.394 1_655 S
C1905 C1911 1.465 . S
C1906 C1901 1.399 . S
C1906 C1905 1.394 1_455 S
C1906 C1907 1.516 . S
C1907 C1906 1.516 . S
C1907 C1908 1.502 . S
C1907 C1909 1.561 . S
C1907 C1910 1.526 . S
C1908 H1892 0.959 . S
C1908 H1893 0.959 . S
C1908 H1894 0.961 . S
C1908 C1907 1.502 . S
C1909 H1895 0.960 . S
C1909 H1896 0.961 . S
C1909 H1897 0.959 . S
C1909 C1907 1.561 . S
C1910 C1907 1.526 . S
C1910 C1911 1.396 1_455 S
C1910 C1915 1.390 . S
C1911 C1905 1.465 . S
C1911 C1910 1.396 1_655 S
C1911 C1912 1.399 . S
C1912 H1898 0.929 . S
C1912 C1911 1.399 . S
C1912 C1913 1.385 . S
C1913 H1899 0.931 . S
C1913 C1912 1.385 . S
C1913 C1914 1.389 . S
C1914 C1913 1.389 . S
C1914 C1915 1.387 1_655 S
C1915 H1900 0.930 . S
C1915 C1910 1.390 . S
C1915 C1914 1.387 1_455 S
H1916 C1928 0.930 . S
H1917 C1930 0.930 . S
H1918 C1931 0.930 . S
H1919 C1935 0.959 . S
H1920 C1935 0.959 . S
H1921 C1935 0.961 . S
H1922 C1936 0.960 . S
H1923 C1936 0.961 . S
H1924 C1936 0.959 . S
H1925 C1939 0.929 . S
H1926 C1940 0.931 . S
H1927 C1942 0.930 . S
C1928 H1916 0.930 . S
C1928 C1929 1.399 . S
C1928 C1933 1.399 . S
C1929 C1928 1.399 . S
C1929 C1930 1.376 . S
C1930 H1917 0.930 . S
C1930 C1929 1.376 . S
C1930 C1931 1.388 . S
C1931 H1918 0.930 . S
C1931 C1930 1.388 . S
C1931 C1932 1.390 . S
C1932 C1931 1.390 . S
C1932 C1933 1.394 . S
C1932 C1938 1.465 . S
C1933 C1928 1.399 . S
C1933 C1932 1.394 . S
C1933 C1934 1.516 . S
C1934 C1933 1.516 . S
C1934 C1935 1.502 . S
C1934 C1936 1.561 . S
C1934 C1937 1.526 . S
C1935 H1919 0.959 . S
C1935 H1920 0.959 . S
C1935 H1921 0.961 . S
C1935 C1934 1.502 . S
C1936 H1922 0.960 . S
C1936 H1923 0.961 . S
C1936 H1924 0.959 . S
C1936 C1934 1.561 . S
C1937 C1934 1.526 . S
C1937 C1938 1.396 . S
C1937 C1942 1.390 . S
C1938 C1932 1.465 . S
C1938 C1937 1.396 . S
C1938 C1939 1.399 . S
C1939 H1925 0.929 . S
C1939 C1938 1.399 . S
C1939 C1940 1.385 . S
C1940 H1926 0.931 . S
C1940 C1939 1.385 . S
C1940 C1941 1.389 . S
C1941 C1940 1.389 . S
C1941 C1942 1.387 . S
C1942 H1927 0.930 . S
C1942 C1937 1.390 . S
C1942 C1941 1.387 . S
H1943 C1955 0.930 1_545 S
H1944 C1957 0.930 . S
H1945 C1958 0.930 . S
H1946 C1962 0.959 . S
H1947 C1962 0.959 . S
H1948 C1962 0.961 . S
H1949 C1963 0.960 . S
H1950 C1963 0.961 . S
H1951 C1963 0.959 . S
H1952 C1966 0.929 . S
H1953 C1967 0.931 1_565 S
H1954 C1969 0.930 . S
C1955 H1943 0.930 1_565 S
C1955 C1956 1.399 . S
C1955 C1960 1.399 . S
C1956 C1955 1.399 . S
C1956 C1957 1.376 . S
C1957 H1944 0.930 . S
C1957 C1956 1.376 . S
C1957 C1958 1.388 . S
C1958 H1945 0.930 . S
C1958 C1957 1.388 . S
C1958 C1959 1.390 . S
C1959 C1958 1.390 . S
C1959 C1960 1.398 . S
C1959 C1965 1.465 . S
C1960 C1955 1.399 . S
C1960 C1959 1.398 . S
C1960 C1961 1.512 1_565 S
C1961 C1960 1.512 1_545 S
C1961 C1962 1.502 . S
C1961 C1963 1.561 . S
C1961 C1964 1.526 . S
C1962 H1946 0.959 . S
C1962 H1947 0.959 . S
C1962 H1948 0.961 . S
C1962 C1961 1.502 . S
C1963 H1949 0.960 . S
C1963 H1950 0.961 . S
C1963 H1951 0.959 . S
C1963 C1961 1.561 . S
C1964 C1961 1.526 . S
C1964 C1965 1.396 1_545 S
C1964 C1969 1.390 . S
C1965 C1959 1.465 . S
C1965 C1964 1.396 1_565 S
C1965 C1966 1.399 . S
C1966 H1952 0.929 . S
C1966 C1965 1.399 . S
C1966 C1967 1.385 1_565 S
C1967 H1953 0.931 1_545 S
C1967 C1966 1.385 1_545 S
C1967 C1968 1.389 . S
C1968 C1967 1.389 . S
C1968 C1969 1.387 . S
C1969 H1954 0.930 . S
C1969 C1964 1.390 . S
C1969 C1968 1.387 . S
H1970 C1982 0.930 . S
H1971 C1984 0.930 1_655 S
H1972 C1985 0.930 . S
H1973 C1989 0.959 . S
H1974 C1989 0.959 . S
H1975 C1989 0.961 . S
H1976 C1990 0.960 . S
H1977 C1990 0.961 . S
H1978 C1990 0.959 . S
H1979 C1993 0.929 . S
H1980 C1994 0.931 . S
H1981 C1996 0.930 . S
C1982 H1970 0.930 . S
C1982 C1983 1.399 . S
C1982 C1987 1.399 . S
C1983 C1982 1.399 . S
C1983 C1984 1.376 . S
C1984 H1971 0.930 1_455 S
C1984 C1983 1.376 . S
C1984 C1985 1.388 1_455 S
C1985 H1972 0.930 . S
C1985 C1984 1.388 1_655 S
C1985 C1986 1.390 . S
C1986 C1985 1.390 . S
C1986 C1987 1.394 1_655 S
C1986 C1992 1.465 . S
C1987 C1982 1.399 . S
C1987 C1986 1.394 1_455 S
C1987 C1988 1.516 . S
C1988 C1987 1.516 . S
C1988 C1989 1.502 . S
C1988 C1990 1.561 1_455 S
C1988 C1991 1.526 1_455 S
C1989 H1973 0.959 . S
C1989 H1974 0.959 . S
C1989 H1975 0.961 . S
C1989 C1988 1.502 . S
C1990 H1976 0.960 . S
C1990 H1977 0.961 . S
C1990 H1978 0.959 . S
C1990 C1988 1.561 1_655 S
C1991 C1988 1.526 1_655 S
C1991 C1992 1.396 . S
C1991 C1996 1.390 . S
C1992 C1986 1.465 . S
C1992 C1991 1.396 . S
C1992 C1993 1.399 . S
C1993 H1979 0.929 . S
C1993 C1992 1.399 . S
C1993 C1994 1.385 . S
C1994 H1980 0.931 . S
C1994 C1993 1.385 . S
C1994 C1995 1.389 . S
C1995 C1994 1.389 . S
C1995 C1996 1.387 . S
C1996 H1981 0.930 . S
C1996 C1991 1.390 . S
C1996 C1995 1.387 . S
H1997 C2009 0.930 . S
H1998 C2011 0.930 . S
H1999 C2012 0.930 . S
H2000 C2016 0.959 . S
H2001 C2016 0.959 . S
H2002 C2016 1.026 . S
H2003 C2017 0.960 . S
H2004 C2017 0.961 . S
H2005 C2017 0.959 . S
H2006 C2020 0.929 . S
H2007 C2021 0.931 . S
H2008 C2023 0.930 . S
C2009 H1997 0.930 . S
C2009 C2010 1.399 . S
C2009 C2014 1.399 . S
C2010 C2009 1.399 . S
C2010 C2011 1.376 . S
C2011 H1998 0.930 . S
C2011 C2010 1.376 . S
C2011 C2012 1.388 . S
C2012 H1999 0.930 . S
C2012 C2011 1.388 . S
C2012 C2013 1.390 . S
C2013 C2012 1.390 . S
C2013 C2014 1.394 . S
C2013 C2019 1.465 1_554 S
C2014 C2009 1.399 . S
C2014 C2013 1.394 . S
C2014 C2015 1.516 1_554 S
C2015 C2014 1.516 1_556 S
C2015 C2016 1.502 . S
C2015 C2017 1.561 . S
C2015 C2018 1.526 . S
C2016 H2000 0.959 . S
C2016 H2001 0.959 . S
C2016 H2002 1.026 . S
C2016 C2015 1.502 . S
C2017 H2003 0.960 . S
C2017 H2004 0.961 . S
C2017 H2005 0.959 . S
C2017 C2015 1.561 . S
C2018 C2015 1.526 . S
C2018 C2019 1.396 . S
C2018 C2023 1.390 . S
C2019 C2013 1.465 1_556 S
C2019 C2018 1.396 . S
C2019 C2020 1.399 . S
C2020 H2006 0.929 . S
C2020 C2019 1.399 . S
C2020 C2021 1.385 . S
C2021 H2007 0.931 . S
C2021 C2020 1.385 . S
C2021 C2022 1.389 . S
C2022 C2021 1.389 . S
C2022 C2023 1.387 . S
C2023 H2008 0.930 . S
C2023 C2018 1.390 . S
C2023 C2022 1.387 . S
H2024 C2036 0.930 1_655 S
H2025 C2038 0.930 . S
H2026 C2039 0.930 1_554 S
H2027 C2043 0.959 . S
H2028 C2043 0.959 . S
H2029 C2043 0.961 . S
H2030 C2044 0.960 . S
H2031 C2044 0.961 1_655 S
H2032 C2044 0.959 . S
H2033 C2047 0.929 . S
H2034 C2048 0.931 . S
H2035 C2050 0.930 . S
C2036 H2024 0.930 1_455 S
C2036 C2037 1.399 . S
C2036 C2041 1.399 . S
C2037 C2036 1.399 . S
C2037 C2038 1.376 . S
C2038 H2025 0.930 . S
C2038 C2037 1.376 . S
C2038 C2039 1.388 . S
C2039 H2026 0.930 1_556 S
C2039 C2038 1.388 . S
C2039 C2040 1.390 . S
C2040 C2039 1.390 . S
C2040 C2041 1.394 . S
C2040 C2046 1.465 1_556 S
C2041 C2036 1.399 . S
C2041 C2040 1.394 . S
C2041 C2042 1.516 1_455 S
C2042 C2041 1.516 1_655 S
C2042 C2043 1.502 . S
C2042 C2044 1.561 1_655 S
C2042 C2045 1.526 1_556 S
C2043 H2027 0.959 . S
C2043 H2028 0.959 . S
C2043 H2029 0.961 . S
C2043 C2042 1.502 . S
C2044 H2030 0.960 . S
C2044 H2031 0.961 1_455 S
C2044 H2032 0.959 . S
C2044 C2042 1.561 1_455 S
C2045 C2042 1.526 1_554 S
C2045 C2046 1.396 1_655 S
C2045 C2050 1.390 . S
C2046 C2040 1.465 1_554 S
C2046 C2045 1.396 1_455 S
C2046 C2047 1.399 . S
C2047 H2033 0.929 . S
C2047 C2046 1.399 . S
C2047 C2048 1.385 . S
C2048 H2034 0.931 . S
C2048 C2047 1.385 . S
C2048 C2049 1.389 1_455 S
C2049 C2048 1.389 1_655 S
C2049 C2050 1.387 . S
C2050 H2035 0.930 . S
C2050 C2045 1.390 . S
C2050 C2049 1.387 . S
H2051 C2063 0.930 . S
H2052 C2065 0.930 . S
H2053 C2066 0.930 . S
H2054 C2070 0.959 . S
H2055 C2070 0.959 . S
H2056 C2070 0.961 . S
H2057 C2071 0.960 . S
H2058 C2071 0.961 . S
H2059 C2071 0.959 . S
H2060 C2074 0.929 . S
H2061 C2075 0.931 . S
H2062 C2077 0.930 . S
C2063 H2051 0.930 . S
C2063 C2064 1.399 . S
C2063 C2068 1.399 . S
C2064 C2063 1.399 . S
C2064 C2065 1.376 . S
C2065 H2052 0.930 . S
C2065 C2064 1.376 . S
C2065 C2066 1.388 . S
C2066 H2053 0.930 . S
C2066 C2065 1.388 . S
C2066 C2067 1.390 . S
C2067 C2066 1.390 . S
C2067 C2068 1.394 . S
C2067 C2073 1.465 . S
C2068 C2063 1.399 . S
C2068 C2067 1.394 . S
C2068 C2069 1.516 . S
C2069 C2068 1.516 . S
C2069 C2070 1.502 . S
C2069 C2071 1.561 . S
C2069 C2072 1.526 . S
C2070 H2054 0.959 . S
C2070 H2055 0.959 . S
C2070 H2056 0.961 . S
C2070 C2069 1.502 . S
C2071 H2057 0.960 . S
C2071 H2058 0.961 . S
C2071 H2059 0.959 . S
C2071 C2069 1.561 . S
C2072 C2069 1.526 . S
C2072 C2073 1.396 . S
C2072 C2077 1.390 . S
C2073 C2067 1.465 . S
C2073 C2072 1.396 . S
C2073 C2074 1.399 . S
C2074 H2060 0.929 . S
C2074 C2073 1.399 . S
C2074 C2075 1.385 . S
C2075 H2061 0.931 . S
C2075 C2074 1.385 . S
C2075 C2076 1.389 . S
C2076 C2075 1.389 . S
C2076 C2077 1.387 . S
C2077 H2062 0.930 . S
C2077 C2072 1.390 . S
C2077 C2076 1.387 . S
H2078 C2090 0.930 . S
H2079 C2092 0.930 . S
H2080 C2093 0.930 . S
H2081 C2097 0.959 . S
H2082 C2097 0.959 . S
H2083 C2097 0.961 . S
H2084 C2098 0.960 . S
H2085 C2098 0.961 . S
H2086 C2098 0.959 . S
H2087 C2101 0.929 . S
H2088 C2102 0.931 . S
H2089 C2104 0.930 . S
C2090 H2078 0.930 . S
C2090 C2091 1.399 . S
C2090 C2095 1.399 . S
C2091 C2090 1.399 . S
C2091 C2092 1.376 . S
C2092 H2079 0.930 . S
C2092 C2091 1.376 . S
C2092 C2093 1.388 . S
C2093 H2080 0.930 . S
C2093 C2092 1.388 . S
C2093 C2094 1.390 . S
C2094 C2093 1.390 . S
C2094 C2095 1.394 . S
C2094 C2100 1.465 1_556 S
C2095 C2090 1.399 . S
C2095 C2094 1.394 . S
C2095 C2096 1.516 . S
C2096 C2095 1.516 . S
C2096 C2097 1.502 . S
C2096 C2098 1.561 . S
C2096 C2099 1.526 1_556 S
C2097 H2081 0.959 . S
C2097 H2082 0.959 . S
C2097 H2083 0.961 . S
C2097 C2096 1.502 . S
C2098 H2084 0.960 . S
C2098 H2085 0.961 . S
C2098 H2086 0.959 . S
C2098 C2096 1.561 . S
C2099 C2096 1.526 1_554 S
C2099 C2100 1.396 . S
C2099 C2104 1.390 . S
C2100 C2094 1.465 1_554 S
C2100 C2099 1.396 . S
C2100 C2101 1.399 . S
C2101 H2087 0.929 . S
C2101 C2100 1.399 . S
C2101 C2102 1.385 . S
C2102 H2088 0.931 . S
C2102 C2101 1.385 . S
C2102 C2103 1.389 . S
C2103 C2102 1.389 . S
C2103 C2104 1.387 . S
C2104 H2089 0.930 . S
C2104 C2099 1.390 . S
C2104 C2103 1.387 . S
H2105 C2117 0.930 . S
H2106 C2119 0.930 . S
H2107 C2120 0.930 . S
H2108 C2124 0.959 . S
H2109 C2124 0.959 . S
H2110 C2124 0.961 . S
H2111 C2125 0.960 . S
H2112 C2125 0.961 . S
H2113 C2125 0.959 . S
H2114 C2128 0.929 . S
H2115 C2129 0.931 . S
H2116 C2131 0.930 . S
C2117 H2105 0.930 . S
C2117 C2118 1.399 . S
C2117 C2122 1.399 . S
C2118 C2117 1.399 . S
C2118 C2119 1.376 . S
C2119 H2106 0.930 . S
C2119 C2118 1.376 . S
C2119 C2120 1.388 . S
C2120 H2107 0.930 . S
C2120 C2119 1.388 . S
C2120 C2121 1.390 . S
C2121 C2120 1.390 . S
C2121 C2122 1.394 . S
C2121 C2127 1.465 . S
C2122 C2117 1.399 . S
C2122 C2121 1.394 . S
C2122 C2123 1.516 . S
C2123 C2122 1.516 . S
C2123 C2124 1.502 . S
C2123 C2125 1.561 . S
C2123 C2126 1.526 . S
C2124 H2108 0.959 . S
C2124 H2109 0.959 . S
C2124 H2110 0.961 . S
C2124 C2123 1.502 . S
C2125 H2111 0.960 . S
C2125 H2112 0.961 . S
C2125 H2113 0.959 . S
C2125 C2123 1.561 . S
C2126 C2123 1.526 . S
C2126 C2127 1.396 . S
C2126 C2131 1.390 . S
C2127 C2121 1.465 . S
C2127 C2126 1.396 . S
C2127 C2128 1.399 . S
C2128 H2114 0.929 . S
C2128 C2127 1.399 . S
C2128 C2129 1.385 . S
C2129 H2115 0.931 . S
C2129 C2128 1.385 . S
C2129 C2130 1.389 . S
C2130 C2129 1.389 . S
C2130 C2131 1.387 . S
C2131 H2116 0.930 . S
C2131 C2126 1.390 . S
C2131 C2130 1.387 . S
H2132 C2144 0.930 . S
H2133 C2146 0.930 . S
H2134 C2147 0.930 1_554 S
H2135 C2151 0.959 1_545 S
H2136 C2151 0.959 . S
H2137 C2151 0.961 . S
H2138 C2152 0.960 . S
H2139 C2152 0.961 . S
H2140 C2152 0.959 . S
H2141 C2155 0.929 . S
H2142 C2156 0.931 . S
H2143 C2158 0.930 . S
C2144 H2132 0.930 . S
C2144 C2145 1.399 . S
C2144 C2149 1.399 . S
C2145 C2144 1.399 . S
C2145 C2146 1.376 . S
C2146 H2133 0.930 . S
C2146 C2145 1.376 . S
C2146 C2147 1.388 . S
C2147 H2134 0.930 1_556 S
C2147 C2146 1.388 . S
C2147 C2148 1.390 . S
C2148 C2147 1.390 . S
C2148 C2149 1.394 . S
C2148 C2154 1.465 1_546 S
C2149 C2144 1.399 . S
C2149 C2148 1.394 . S
C2149 C2150 1.516 1_545 S
C2150 C2149 1.516 1_565 S
C2150 C2151 1.502 . S
C2150 C2152 1.561 . S
C2150 C2153 1.526 1_556 S
C2151 H2135 0.959 1_565 S
C2151 H2136 0.959 . S
C2151 H2137 0.961 . S
C2151 C2150 1.502 . S
C2152 H2138 0.960 . S
C2152 H2139 0.961 . S
C2152 H2140 0.959 . S
C2152 C2150 1.561 . S
C2153 C2150 1.526 1_554 S
C2153 C2154 1.396 . S
C2153 C2158 1.390 . S
C2154 C2148 1.465 1_564 S
C2154 C2153 1.396 . S
C2154 C2155 1.399 1_565 S
C2155 H2141 0.929 . S
C2155 C2154 1.399 1_545 S
C2155 C2156 1.385 1_545 S
C2156 H2142 0.931 . S
C2156 C2155 1.385 1_565 S
C2156 C2157 1.389 . S
C2157 C2156 1.389 . S
C2157 C2158 1.387 . S
C2158 H2143 0.930 . S
C2158 C2153 1.390 . S
C2158 C2157 1.387 . S
H2159 C2171 0.930 . S
H2160 C2173 0.930 . S
H2161 C2174 0.930 . S
H2162 C2178 0.959 . S
H2163 C2178 0.959 . S
H2164 C2178 0.961 . S
H2165 C2179 0.960 . S
H2166 C2179 0.961 . S
H2167 C2179 0.959 . S
H2168 C2182 0.929 . S
H2169 C2183 0.931 . S
H2170 C2185 0.930 . S
C2171 H2159 0.930 . S
C2171 C2172 1.399 . S
C2171 C2176 1.399 . S
C2172 C2171 1.399 . S
C2172 C2173 1.376 . S
C2173 H2160 0.930 . S
C2173 C2172 1.376 . S
C2173 C2174 1.388 . S
C2174 H2161 0.930 . S
C2174 C2173 1.388 . S
C2174 C2175 1.390 . S
C2175 C2174 1.390 . S
C2175 C2176 1.394 . S
C2175 C2181 1.465 . S
C2176 C2171 1.399 . S
C2176 C2175 1.394 . S
C2176 C2177 1.516 . S
C2177 C2176 1.516 . S
C2177 C2178 1.502 . S
C2177 C2179 1.561 . S
C2177 C2180 1.526 . S
C2178 H2162 0.959 . S
C2178 H2163 0.959 . S
C2178 H2164 0.961 . S
C2178 C2177 1.502 . S
C2179 H2165 0.960 . S
C2179 H2166 0.961 . S
C2179 H2167 0.959 . S
C2179 C2177 1.561 . S
C2180 C2177 1.526 . S
C2180 C2181 1.396 . S
C2180 C2185 1.390 . S
C2181 C2175 1.465 . S
C2181 C2180 1.396 . S
C2181 C2182 1.399 . S
C2182 H2168 0.929 . S
C2182 C2181 1.399 . S
C2182 C2183 1.385 . S
C2183 H2169 0.931 . S
C2183 C2182 1.385 . S
C2183 C2184 1.389 . S
C2184 C2183 1.389 . S
C2184 C2185 1.387 . S
C2185 H2170 0.930 . S
C2185 C2180 1.390 . S
C2185 C2184 1.387 . S
H2186 C2198 0.930 . S
H2187 C2200 0.930 . S
H2188 C2201 0.930 . S
H2189 C2205 0.959 . S
H2190 C2205 0.959 . S
H2191 C2205 0.961 . S
H2192 C2206 0.960 . S
H2193 C2206 0.961 . S
H2194 C2206 0.959 . S
H2195 C2209 0.929 . S
H2196 C2210 0.931 . S
H2197 C2212 0.930 . S
C2198 H2186 0.930 . S
C2198 C2199 1.399 . S
C2198 C2203 1.399 . S
C2199 C2198 1.399 . S
C2199 C2200 1.376 . S
C2200 H2187 0.930 . S
C2200 C2199 1.376 . S
C2200 C2201 1.388 . S
C2201 H2188 0.930 . S
C2201 C2200 1.388 . S
C2201 C2202 1.390 . S
C2202 C2201 1.390 . S
C2202 C2203 1.394 . S
C2202 C2208 1.465 . S
C2203 C2198 1.399 . S
C2203 C2202 1.394 . S
C2203 C2204 1.516 . S
C2204 C2203 1.516 . S
C2204 C2205 1.502 . S
C2204 C2206 1.561 . S
C2204 C2207 1.526 . S
C2205 H2189 0.959 . S
C2205 H2190 0.959 . S
C2205 H2191 0.961 . S
C2205 C2204 1.502 . S
C2206 H2192 0.960 . S
C2206 H2193 0.961 . S
C2206 H2194 0.959 . S
C2206 C2204 1.561 . S
C2207 C2204 1.526 . S
C2207 C2208 1.396 . S
C2207 C2212 1.390 . S
C2208 C2202 1.465 . S
C2208 C2207 1.396 . S
C2208 C2209 1.399 . S
C2209 H2195 0.929 . S
C2209 C2208 1.399 . S
C2209 C2210 1.385 . S
C2210 H2196 0.931 . S
C2210 C2209 1.385 . S
C2210 C2211 1.389 . S
C2211 C2210 1.389 . S
C2211 C2212 1.387 . S
C2212 H2197 0.930 . S
C2212 C2207 1.390 . S
C2212 C2211 1.387 . S
H2213 C2225 0.930 . S
H2214 C2227 0.930 . S
H2215 C2228 0.930 . S
H2216 C2232 0.959 . S
H2217 C2232 0.959 . S
H2218 C2232 0.961 . S
H2219 C2233 0.960 . S
H2220 C2233 0.961 . S
H2221 C2233 0.959 . S
H2222 C2236 0.929 . S
H2223 C2237 0.931 . S
H2224 C2239 0.930 . S
C2225 H2213 0.930 . S
C2225 C2226 1.399 . S
C2225 C2230 1.399 . S
C2226 C2225 1.399 . S
C2226 C2227 1.376 . S
C2227 H2214 0.930 . S
C2227 C2226 1.376 . S
C2227 C2228 1.388 . S
C2228 H2215 0.930 . S
C2228 C2227 1.388 . S
C2228 C2229 1.390 . S
C2229 C2228 1.390 . S
C2229 C2230 1.394 . S
C2229 C2235 1.465 . S
C2230 C2225 1.399 . S
C2230 C2229 1.394 . S
C2230 C2231 1.516 . S
C2231 C2230 1.516 . S
C2231 C2232 1.502 . S
C2231 C2233 1.561 . S
C2231 C2234 1.526 . S
C2232 H2216 0.959 . S
C2232 H2217 0.959 . S
C2232 H2218 0.961 . S
C2232 C2231 1.502 . S
C2233 H2219 0.960 . S
C2233 H2220 0.961 . S
C2233 H2221 0.959 . S
C2233 C2231 1.561 . S
C2234 C2231 1.526 . S
C2234 C2235 1.396 . S
C2234 C2239 1.390 . S
C2235 C2229 1.465 . S
C2235 C2234 1.396 . S
C2235 C2236 1.399 . S
C2236 H2222 0.929 . S
C2236 C2235 1.399 . S
C2236 C2237 1.385 . S
C2237 H2223 0.931 . S
C2237 C2236 1.385 . S
C2237 C2238 1.389 . S
C2238 C2237 1.389 . S
C2238 C2239 1.387 . S
C2239 H2224 0.930 . S
C2239 C2234 1.390 . S
C2239 C2238 1.387 . S
C525 C16 0.873 . S
C537 C404 0.873 . S
C552 C20 0.837 1_565 S
C564 C400 0.899 . S
C579 C48 0.834 1_565 S
C591 C436 0.900 . S
C606 C52 0.899 1_655 S
C618 C432 0.841 . S
C633 C464 0.861 . S
C645 C84 0.865 . S
C660 C80 0.881 1_445 S
C672 C468 0.866 . S
C687 C116 0.899 1_545 S
C699 C496 0.842 . S
C714 C112 0.877 1_455 S
C726 C500 0.869 . S
C741 C276 0.836 1_565 S
C753 C144 0.894 . S
C768 C272 0.855 . S
C780 C148 0.889 1_655 S
C795 C308 0.900 . S
C807 C176 0.838 . S
C822 C304 0.869 1_565 S
C834 C180 0.857 1_655 S
C849 C336 0.867 1_545 S
C861 C212 0.859 . S
C876 C208 0.866 1_455 S
C888 C340 0.880 . S
C903 C368 0.882 . S
C915 C244 0.864 . S
C930 C240 0.837 . S
C942 C372 0.898 1_545 S
C957 C23 1.547 1_565 S
C969 C403 1.562 . S
C984 C19 1.518 . S
C996 C407 1.581 . S
C1011 C55 1.562 . S
C1023 C435 1.530 . S
C1038 C439 1.547 . S
C1050 C51 1.543 1_565 S
C1065 C471 1.534 . S
C1077 C83 1.557 1_545 S
C1092 C467 1.517 . S
C1104 C87 1.580 . S
C1119 C503 1.550 . S
C1131 C115 1.559 . S
C1146 C499 1.582 . S
C1158 C119 1.519 1_545 S
C1173 C151 1.560 . S
C1185 C275 1.532 . S
C1200 C147 1.581 . S
C1212 C279 1.518 1_565 S
C1227 C183 1.524 . S
C1239 C307 1.580 1_565 S
C1254 C179 1.519 . S
C1266 C311 1.581 . S
C1281 C343 1.550 . S
C1293 C211 1.540 . S
C1308 C339 1.519 1_545 S
C1320 C215 1.581 . S
C1335 C375 1.544 1_545 S
C1347 C243 1.564 . S
C1362 C247 1.550 . S
C1374 C371 1.560 . S
C1389 C22 1.999 . S
C1401 C305 1.964 . S
C1416 C310 1.999 . S
C1428 C17 1.963 . S
C1443 C273 1.980 . S
C1455 C54 1.976 . S
C1470 C278 1.971 . S
C1482 C49 1.932 . S
C1497 C373 1.951 . S
C1509 C82 1.968 . S
C1524 C85 1.950 . S
C1536 C370 1.969 . S
C1551 C114 1.993 . S
C1563 C341 1.924 . S
C1578 C117 1.956 . S
C1590 C338 1.993 . S
C1605 C433 1.978 . S
C1617 C150 1.986 . S
C1632 C145 1.980 . S
C1644 C438 1.973 . S
C1659 C182 1.996 . S
C1671 C401 1.968 . S
C1686 C406 1.971 . S
C1698 C177 1.979 . S
C1713 C501 1.957 . S
C1725 C210 1.966 . S
C1740 C498 1.996 . S
C1752 C213 1.924 . S
C1767 C469 1.955 . S
C1779 C242 1.994 . S
C1794 C466 1.962 . S
C1806 C245 1.979 . S
C1821 C465 1.694 . S
C1833 C21 1.683 . S
C1848 C86 1.659 . S
C1860 C18 1.711 . S
C1875 C369 1.694 . S
C1887 C53 1.683 . S
C1902 C50 1.698 . S
C1914 C246 1.678 . S
C1929 C405 1.693 . S
C1941 C81 1.684 . S
C1956 C113 1.692 . S
C1968 C309 1.686 . S
C1983 C178 1.664 . S
C1995 C118 1.708 . S
C2010 C337 1.683 . S
C2022 C149 1.691 . S
C2037 C146 1.700 . S
C2049 C214 1.661 . S
C2064 C181 1.680 . S
C2076 C497 1.694 . S
C2091 C277 1.682 . S
C2103 C209 1.691 . S
C2118 C437 1.691 . S
C2130 C241 1.687 . S
C2145 C274 1.691 . S
C2157 C342 1.668 . S
C2172 C306 1.702 . S
C2184 C502 1.659 . S
C2199 C434 1.663 . S
C2211 C374 1.709 . S
C2226 C470 1.673 . S
C2238 C402 1.701 . S
