# Generated by pormake.
# Topology lcv-a, (4)-cn, num edge types: 1
# Building blocks:
#     Node 0, Type 0, BuildingBlock: CEKHIL_clean_sbu_0, # of connection points: 4
#     Node 1, Type 0, BuildingBlock: CEKHIL_clean_sbu_0, # of connection points: 4
#     Node 2, Type 0, BuildingBlock: CEKHIL_clean_sbu_0, # of connection points: 4
#     Node 3, Type 0, BuildingBlock: CEKHIL_clean_sbu_0, # of connection points: 4
#     Node 4, Type 0, BuildingBlock: CEKHIL_clean_sbu_0, # of connection points: 4
#     Node 5, Type 0, BuildingBlock: CEKHIL_clean_sbu_0, # of connection points: 4
#     Node 6, Type 0, BuildingBlock: CEKHIL_clean_sbu_0, # of connection points: 4
#     Node 7, Type 0, BuildingBlock: CEKHIL_clean_sbu_0, # of connection points: 4
#     Node 8, Type 0, BuildingBlock: CEKHIL_clean_sbu_0, # of connection points: 4
#     Node 9, Type 0, BuildingBlock: CEKHIL_clean_sbu_0, # of connection points: 4
#     Node 10, Type 0, BuildingBlock: CEKHIL_clean_sbu_0, # of connection points: 4
#     Node 11, Type 0, BuildingBlock: CEKHIL_clean_sbu_0, # of connection points: 4
#     Node 12, Type 0, BuildingBlock: CEKHIL_clean_sbu_0, # of connection points: 4
#     Node 13, Type 0, BuildingBlock: CEKHIL_clean_sbu_0, # of connection points: 4
#     Node 14, Type 0, BuildingBlock: CEKHIL_clean_sbu_0, # of connection points: 4
#     Node 15, Type 0, BuildingBlock: CEKHIL_clean_sbu_0, # of connection points: 4
#     Node 16, Type 0, BuildingBlock: CEKHIL_clean_sbu_0, # of connection points: 4
#     Node 17, Type 0, BuildingBlock: CEKHIL_clean_sbu_0, # of connection points: 4
#     Node 18, Type 0, BuildingBlock: CEKHIL_clean_sbu_0, # of connection points: 4
#     Node 19, Type 0, BuildingBlock: CEKHIL_clean_sbu_0, # of connection points: 4
#     Node 20, Type 0, BuildingBlock: CEKHIL_clean_sbu_0, # of connection points: 4
#     Node 21, Type 0, BuildingBlock: CEKHIL_clean_sbu_0, # of connection points: 4
#     Node 22, Type 0, BuildingBlock: CEKHIL_clean_sbu_0, # of connection points: 4
#     Node 23, Type 0, BuildingBlock: CEKHIL_clean_sbu_0, # of connection points: 4
#     Node 24, Type 0, BuildingBlock: CEKHIL_clean_sbu_0, # of connection points: 4
#     Node 25, Type 0, BuildingBlock: CEKHIL_clean_sbu_0, # of connection points: 4
#     Node 26, Type 0, BuildingBlock: CEKHIL_clean_sbu_0, # of connection points: 4
#     Node 27, Type 0, BuildingBlock: CEKHIL_clean_sbu_0, # of connection points: 4
#     Node 28, Type 0, BuildingBlock: CEKHIL_clean_sbu_0, # of connection points: 4
#     Node 29, Type 0, BuildingBlock: CEKHIL_clean_sbu_0, # of connection points: 4
#     Node 30, Type 0, BuildingBlock: CEKHIL_clean_sbu_0, # of connection points: 4
#     Node 31, Type 0, BuildingBlock: CEKHIL_clean_sbu_0, # of connection points: 4
#     Node 32, Type 0, BuildingBlock: CEKHIL_clean_sbu_0, # of connection points: 4
#     Node 33, Type 0, BuildingBlock: CEKHIL_clean_sbu_0, # of connection points: 4
#     Node 34, Type 0, BuildingBlock: CEKHIL_clean_sbu_0, # of connection points: 4
#     Node 35, Type 0, BuildingBlock: CEKHIL_clean_sbu_0, # of connection points: 4
#     Node 36, Type 0, BuildingBlock: CEKHIL_clean_sbu_0, # of connection points: 4
#     Node 37, Type 0, BuildingBlock: CEKHIL_clean_sbu_0, # of connection points: 4
#     Node 38, Type 0, BuildingBlock: CEKHIL_clean_sbu_0, # of connection points: 4
#     Node 39, Type 0, BuildingBlock: CEKHIL_clean_sbu_0, # of connection points: 4
#     Node 40, Type 0, BuildingBlock: CEKHIL_clean_sbu_0, # of connection points: 4
#     Node 41, Type 0, BuildingBlock: CEKHIL_clean_sbu_0, # of connection points: 4
#     Node 42, Type 0, BuildingBlock: CEKHIL_clean_sbu_0, # of connection points: 4
#     Node 43, Type 0, BuildingBlock: CEKHIL_clean_sbu_0, # of connection points: 4
#     Node 44, Type 0, BuildingBlock: CEKHIL_clean_sbu_0, # of connection points: 4
#     Node 45, Type 0, BuildingBlock: CEKHIL_clean_sbu_0, # of connection points: 4
#     Node 46, Type 0, BuildingBlock: CEKHIL_clean_sbu_0, # of connection points: 4
#     Node 47, Type 0, BuildingBlock: CEKHIL_clean_sbu_0, # of connection points: 4
#     Edge 48, Type (0, 0), BuildingBlock: KIFKEQ_clean_linker_1, # of connection points: 2
#     Edge 49, Type (0, 0), BuildingBlock: KIFKEQ_clean_linker_1, # of connection points: 2
#     Edge 50, Type (0, 0), BuildingBlock: KIFKEQ_clean_linker_1, # of connection points: 2
#     Edge 51, Type (0, 0), BuildingBlock: KIFKEQ_clean_linker_1, # of connection points: 2
#     Edge 52, Type (0, 0), BuildingBlock: KIFKEQ_clean_linker_1, # of connection points: 2
#     Edge 53, Type (0, 0), BuildingBlock: KIFKEQ_clean_linker_1, # of connection points: 2
#     Edge 54, Type (0, 0), BuildingBlock: KIFKEQ_clean_linker_1, # of connection points: 2
#     Edge 55, Type (0, 0), BuildingBlock: KIFKEQ_clean_linker_1, # of connection points: 2
#     Edge 56, Type (0, 0), BuildingBlock: KIFKEQ_clean_linker_1, # of connection points: 2
#     Edge 57, Type (0, 0), BuildingBlock: KIFKEQ_clean_linker_1, # of connection points: 2
#     Edge 58, Type (0, 0), BuildingBlock: KIFKEQ_clean_linker_1, # of connection points: 2
#     Edge 59, Type (0, 0), BuildingBlock: KIFKEQ_clean_linker_1, # of connection points: 2
#     Edge 60, Type (0, 0), BuildingBlock: KIFKEQ_clean_linker_1, # of connection points: 2
#     Edge 61, Type (0, 0), BuildingBlock: KIFKEQ_clean_linker_1, # of connection points: 2
#     Edge 62, Type (0, 0), BuildingBlock: KIFKEQ_clean_linker_1, # of connection points: 2
#     Edge 63, Type (0, 0), BuildingBlock: KIFKEQ_clean_linker_1, # of connection points: 2
#     Edge 64, Type (0, 0), BuildingBlock: KIFKEQ_clean_linker_1, # of connection points: 2
#     Edge 65, Type (0, 0), BuildingBlock: KIFKEQ_clean_linker_1, # of connection points: 2
#     Edge 66, Type (0, 0), BuildingBlock: KIFKEQ_clean_linker_1, # of connection points: 2
#     Edge 67, Type (0, 0), BuildingBlock: KIFKEQ_clean_linker_1, # of connection points: 2
#     Edge 68, Type (0, 0), BuildingBlock: KIFKEQ_clean_linker_1, # of connection points: 2
#     Edge 69, Type (0, 0), BuildingBlock: KIFKEQ_clean_linker_1, # of connection points: 2
#     Edge 70, Type (0, 0), BuildingBlock: KIFKEQ_clean_linker_1, # of connection points: 2
#     Edge 71, Type (0, 0), BuildingBlock: KIFKEQ_clean_linker_1, # of connection points: 2
#     Edge 72, Type (0, 0), BuildingBlock: KIFKEQ_clean_linker_1, # of connection points: 2
#     Edge 73, Type (0, 0), BuildingBlock: KIFKEQ_clean_linker_1, # of connection points: 2
#     Edge 74, Type (0, 0), BuildingBlock: KIFKEQ_clean_linker_1, # of connection points: 2
#     Edge 75, Type (0, 0), BuildingBlock: KIFKEQ_clean_linker_1, # of connection points: 2
#     Edge 76, Type (0, 0), BuildingBlock: KIFKEQ_clean_linker_1, # of connection points: 2
#     Edge 77, Type (0, 0), BuildingBlock: KIFKEQ_clean_linker_1, # of connection points: 2
#     Edge 78, Type (0, 0), BuildingBlock: KIFKEQ_clean_linker_1, # of connection points: 2
#     Edge 79, Type (0, 0), BuildingBlock: KIFKEQ_clean_linker_1, # of connection points: 2
#     Edge 80, Type (0, 0), BuildingBlock: KIFKEQ_clean_linker_1, # of connection points: 2
#     Edge 81, Type (0, 0), BuildingBlock: KIFKEQ_clean_linker_1, # of connection points: 2
#     Edge 82, Type (0, 0), BuildingBlock: KIFKEQ_clean_linker_1, # of connection points: 2
#     Edge 83, Type (0, 0), BuildingBlock: KIFKEQ_clean_linker_1, # of connection points: 2
#     Edge 84, Type (0, 0), BuildingBlock: KIFKEQ_clean_linker_1, # of connection points: 2
#     Edge 85, Type (0, 0), BuildingBlock: KIFKEQ_clean_linker_1, # of connection points: 2
#     Edge 86, Type (0, 0), BuildingBlock: KIFKEQ_clean_linker_1, # of connection points: 2
#     Edge 87, Type (0, 0), BuildingBlock: KIFKEQ_clean_linker_1, # of connection points: 2
#     Edge 88, Type (0, 0), BuildingBlock: KIFKEQ_clean_linker_1, # of connection points: 2
#     Edge 89, Type (0, 0), BuildingBlock: KIFKEQ_clean_linker_1, # of connection points: 2
#     Edge 90, Type (0, 0), BuildingBlock: KIFKEQ_clean_linker_1, # of connection points: 2
#     Edge 91, Type (0, 0), BuildingBlock: KIFKEQ_clean_linker_1, # of connection points: 2
#     Edge 92, Type (0, 0), BuildingBlock: KIFKEQ_clean_linker_1, # of connection points: 2
#     Edge 93, Type (0, 0), BuildingBlock: KIFKEQ_clean_linker_1, # of connection points: 2
#     Edge 94, Type (0, 0), BuildingBlock: KIFKEQ_clean_linker_1, # of connection points: 2
#     Edge 95, Type (0, 0), BuildingBlock: KIFKEQ_clean_linker_1, # of connection points: 2
#     Edge 96, Type (0, 0), BuildingBlock: KIFKEQ_clean_linker_1, # of connection points: 2
#     Edge 97, Type (0, 0), BuildingBlock: KIFKEQ_clean_linker_1, # of connection points: 2
#     Edge 98, Type (0, 0), BuildingBlock: KIFKEQ_clean_linker_1, # of connection points: 2
#     Edge 99, Type (0, 0), BuildingBlock: KIFKEQ_clean_linker_1, # of connection points: 2
#     Edge 100, Type (0, 0), BuildingBlock: KIFKEQ_clean_linker_1, # of connection points: 2
#     Edge 101, Type (0, 0), BuildingBlock: KIFKEQ_clean_linker_1, # of connection points: 2
#     Edge 102, Type (0, 0), BuildingBlock: KIFKEQ_clean_linker_1, # of connection points: 2
#     Edge 103, Type (0, 0), BuildingBlock: KIFKEQ_clean_linker_1, # of connection points: 2
#     Edge 104, Type (0, 0), BuildingBlock: KIFKEQ_clean_linker_1, # of connection points: 2
#     Edge 105, Type (0, 0), BuildingBlock: KIFKEQ_clean_linker_1, # of connection points: 2
#     Edge 106, Type (0, 0), BuildingBlock: KIFKEQ_clean_linker_1, # of connection points: 2
#     Edge 107, Type (0, 0), BuildingBlock: KIFKEQ_clean_linker_1, # of connection points: 2
#     Edge 108, Type (0, 0), BuildingBlock: KIFKEQ_clean_linker_1, # of connection points: 2
#     Edge 109, Type (0, 0), BuildingBlock: KIFKEQ_clean_linker_1, # of connection points: 2
#     Edge 110, Type (0, 0), BuildingBlock: KIFKEQ_clean_linker_1, # of connection points: 2
#     Edge 111, Type (0, 0), BuildingBlock: KIFKEQ_clean_linker_1, # of connection points: 2
#     Edge 112, Type (0, 0), BuildingBlock: KIFKEQ_clean_linker_1, # of connection points: 2
#     Edge 113, Type (0, 0), BuildingBlock: KIFKEQ_clean_linker_1, # of connection points: 2
#     Edge 114, Type (0, 0), BuildingBlock: KIFKEQ_clean_linker_1, # of connection points: 2
#     Edge 115, Type (0, 0), BuildingBlock: KIFKEQ_clean_linker_1, # of connection points: 2
#     Edge 116, Type (0, 0), BuildingBlock: KIFKEQ_clean_linker_1, # of connection points: 2
#     Edge 117, Type (0, 0), BuildingBlock: KIFKEQ_clean_linker_1, # of connection points: 2
#     Edge 118, Type (0, 0), BuildingBlock: KIFKEQ_clean_linker_1, # of connection points: 2
#     Edge 119, Type (0, 0), BuildingBlock: KIFKEQ_clean_linker_1, # of connection points: 2
#     Edge 120, Type (0, 0), BuildingBlock: KIFKEQ_clean_linker_1, # of connection points: 2
#     Edge 121, Type (0, 0), BuildingBlock: KIFKEQ_clean_linker_1, # of connection points: 2
#     Edge 122, Type (0, 0), BuildingBlock: KIFKEQ_clean_linker_1, # of connection points: 2
#     Edge 123, Type (0, 0), BuildingBlock: KIFKEQ_clean_linker_1, # of connection points: 2
#     Edge 124, Type (0, 0), BuildingBlock: KIFKEQ_clean_linker_1, # of connection points: 2
#     Edge 125, Type (0, 0), BuildingBlock: KIFKEQ_clean_linker_1, # of connection points: 2
#     Edge 126, Type (0, 0), BuildingBlock: KIFKEQ_clean_linker_1, # of connection points: 2
#     Edge 127, Type (0, 0), BuildingBlock: KIFKEQ_clean_linker_1, # of connection points: 2
#     Edge 128, Type (0, 0), BuildingBlock: KIFKEQ_clean_linker_1, # of connection points: 2
#     Edge 129, Type (0, 0), BuildingBlock: KIFKEQ_clean_linker_1, # of connection points: 2
#     Edge 130, Type (0, 0), BuildingBlock: KIFKEQ_clean_linker_1, # of connection points: 2
#     Edge 131, Type (0, 0), BuildingBlock: KIFKEQ_clean_linker_1, # of connection points: 2
#     Edge 132, Type (0, 0), BuildingBlock: KIFKEQ_clean_linker_1, # of connection points: 2
#     Edge 133, Type (0, 0), BuildingBlock: KIFKEQ_clean_linker_1, # of connection points: 2
#     Edge 134, Type (0, 0), BuildingBlock: KIFKEQ_clean_linker_1, # of connection points: 2
#     Edge 135, Type (0, 0), BuildingBlock: KIFKEQ_clean_linker_1, # of connection points: 2
#     Edge 136, Type (0, 0), BuildingBlock: KIFKEQ_clean_linker_1, # of connection points: 2
#     Edge 137, Type (0, 0), BuildingBlock: KIFKEQ_clean_linker_1, # of connection points: 2
#     Edge 138, Type (0, 0), BuildingBlock: KIFKEQ_clean_linker_1, # of connection points: 2
#     Edge 139, Type (0, 0), BuildingBlock: KIFKEQ_clean_linker_1, # of connection points: 2
#     Edge 140, Type (0, 0), BuildingBlock: KIFKEQ_clean_linker_1, # of connection points: 2
#     Edge 141, Type (0, 0), BuildingBlock: KIFKEQ_clean_linker_1, # of connection points: 2
#     Edge 142, Type (0, 0), BuildingBlock: KIFKEQ_clean_linker_1, # of connection points: 2
#     Edge 143, Type (0, 0), BuildingBlock: KIFKEQ_clean_linker_1, # of connection points: 2
# Relax obj value: 0.870
# Max RMSD: 0.535
# Mean RMSD: 0.408
data_MOF--net-lcv-a--node1-CEKHIL_clean_sbu_0--edge1-KIFKEQ_clean_linker_1
_symmetry_space_group_name_H-M    P1
_symmetry_Int_Tables_number       1
_symmetry_cell_setting            triclinic
loop_
_symmetry_equiv_pos_as_xyz
'x, y, z'
_cell_length_a     86.636521
_cell_length_b     86.698232
_cell_length_c     86.669599
_cell_angle_alpha  90.02313
_cell_angle_beta   89.995691
_cell_angle_gamma 89.967982
loop_
_atom_site_label
_atom_site_type_symbol
_atom_site_fract_x
_atom_site_fract_y
_atom_site_fract_z
_atom_type_partial_charge
Co0 Co 0.00924 0.37402 0.23614 0.0
O1 O 0.99615 0.38834 0.24671 0.0
O2 O 0.0081 0.39286 0.22447 0.0
C3 C 0.02335 0.36669 0.25645 0.0
O4 O 0.02394 0.36203 0.22207 0.0
Co5 Co 0.00733 0.33934 0.24445 0.0
O6 O 0.02479 0.33723 0.22971 0.0
C7 C 0.98342 0.3529 0.22463 0.0
C8 C -0.00089 0.39775 0.23546 0.0
C9 C 0.02923 0.34817 0.22092 0.0
O10 O 0.991 0.36562 0.22463 0.0
O11 O 0.98733 0.34125 0.23283 0.0
O12 O 0.02653 0.37942 0.24925 0.0
O13 O 0.01065 0.35995 0.25244 0.0
Co14 Co 0.96628 0.81925 0.46939 0.0
O15 O 0.94904 0.81689 0.48275 0.0
O16 O 0.94922 0.83171 0.46189 0.0
C17 C 0.98321 0.82154 0.48872 0.0
O18 O 0.98276 0.82455 0.4532 0.0
Co19 Co 0.99229 0.79474 0.47047 0.0
O20 O 0.00395 0.81045 0.45846 0.0
C21 C 0.96302 0.78756 0.45464 0.0
C22 C 0.94164 0.82604 0.47359 0.0
C23 C 0.99712 0.82117 0.45106 0.0
O24 O 0.95875 0.80163 0.45642 0.0
O25 O 0.97554 0.78218 0.46038 0.0
O26 O 0.9758 0.83367 0.48391 0.0
O27 O 0.97953 0.80863 0.48236 0.0
Co28 Co 0.58766 0.73245 0.74169 0.0
O29 O 0.59172 0.71351 0.75211 0.0
O30 O 0.59447 0.71718 0.72689 0.0
C31 C 0.5653 0.73778 0.75306 0.0
O32 O 0.58388 0.75054 0.72667 0.0
Co33 Co 0.58968 0.76209 0.75895 0.0
O34 O 0.57883 0.77124 0.74126 0.0
C35 C 0.61505 0.75123 0.74082 0.0
C36 C 0.5959 0.70812 0.73879 0.0
C37 C 0.57934 0.76465 0.72817 0.0
O38 O 0.60949 0.73858 0.74561 0.0
O39 O 0.60927 0.76371 0.74602 0.0
O40 O 0.56591 0.72851 0.74125 0.0
O41 O 0.57844 0.74219 0.75899 0.0
Co42 Co 0.58134 0.3221 0.96157 0.0
O43 O 0.59753 0.32345 0.97639 0.0
O44 O 0.59629 0.30577 0.95796 0.0
C45 C 0.5627 0.3252 0.9795 0.0
O46 O 0.56595 0.31663 0.94463 0.0
Co47 Co 0.56214 0.34929 0.9547 0.0
O48 O 0.54981 0.33641 0.94062 0.0
C49 C 0.59102 0.34644 0.9381 0.0
C50 C 0.60383 0.31183 0.96947 0.0
C51 C 0.55434 0.32279 0.93775 0.0
O52 O 0.59361 0.33493 0.94689 0.0
O53 O 0.57874 0.3545 0.93927 0.0
O54 O 0.56833 0.31183 0.97586 0.0
O55 O 0.56885 0.33702 0.97254 0.0
Co56 Co 0.99878 0.74028 0.34821 0.0
O57 O 0.98804 0.7267 0.33452 0.0
O58 O 0.99791 0.71984 0.35709 0.0
C59 C 0.01397 0.75101 0.33028 0.0
O60 O 0.01112 0.75148 0.3651 0.0
Co61 Co 0.99499 0.77555 0.34356 0.0
O62 O 0.0121 0.77665 0.35881 0.0
C63 C 0.97022 0.75805 0.35879 0.0
C64 C 0.99058 0.71593 0.34455 0.0
C65 C 0.01613 0.76535 0.36735 0.0
O66 O 0.97883 0.74597 0.35857 0.0
O67 O 0.97403 0.77072 0.35222 0.0
O68 O 0.01769 0.73784 0.33637 0.0
O69 O 0.00049 0.75625 0.3339 0.0
Co70 Co 0.56897 0.77085 0.62411 0.0
O71 O 0.58609 0.77436 0.60923 0.0
O72 O 0.58484 0.78589 0.63129 0.0
C73 C 0.56494 0.75741 0.60028 0.0
O74 O 0.55508 0.77248 0.64268 0.0
Co75 Co 0.5553 0.73942 0.62685 0.0
O76 O 0.54392 0.7491 0.64458 0.0
C77 C 0.58451 0.74155 0.63929 0.0
C78 C 0.59244 0.78395 0.61875 0.0
C79 C 0.54584 0.76294 0.64924 0.0
O80 O 0.58247 0.7555 0.63512 0.0
O81 O 0.57449 0.73128 0.63642 0.0
O82 O 0.57777 0.76423 0.60389 0.0
O83 O 0.55587 0.75661 0.612 0.0
Co84 Co 0.58989 0.34895 0.82573 0.0
O85 O 0.59464 0.36728 0.81434 0.0
O86 O 0.59386 0.36545 0.83994 0.0
C87 C 0.56943 0.34172 0.81218 0.0
O88 O 0.58489 0.33207 0.84172 0.0
Co89 Co 0.59462 0.31765 0.81155 0.0
O90 O 0.58217 0.30985 0.82886 0.0
C91 C 0.61736 0.3312 0.83174 0.0
C92 C 0.59626 0.37382 0.82772 0.0
C93 C 0.5812 0.31766 0.84124 0.0
O94 O 0.6122 0.34339 0.82547 0.0
O95 O 0.61247 0.31817 0.8269 0.0
O96 O 0.56827 0.35218 0.82288 0.0
O97 O 0.58335 0.33721 0.80854 0.0
Co98 Co 0.99715 0.28699 0.11679 0.0
O99 O 0.98004 0.28649 0.10307 0.0
O100 O 0.9812 0.27377 0.12524 0.0
C101 C 0.01504 0.28498 0.09827 0.0
O102 O 0.01369 0.28479 0.13362 0.0
Co103 Co 0.02007 0.31431 0.11417 0.0
O104 O 0.03314 0.30087 0.12744 0.0
C105 C 0.98993 0.31927 0.12891 0.0
C106 C 0.97317 0.27795 0.11321 0.0
C107 C 0.02753 0.28996 0.13557 0.0
O108 O 0.98748 0.3047 0.1281 0.0
O109 O 0.00187 0.32572 0.12307 0.0
O110 O 0.00862 0.27254 0.10372 0.0
O111 O 0.00961 0.29786 0.10331 0.0
Co112 Co 0.23502 0.0098 0.37985 0.0
O113 O 0.2431 0.9961 0.39527 0.0
O114 O 0.22022 0.00771 0.39607 0.0
C115 C 0.25562 0.02476 0.37592 0.0
O116 O 0.22287 0.02493 0.36676 0.0
Co117 Co 0.24772 0.00944 0.34661 0.0
O118 O 0.23324 0.02693 0.34307 0.0
C119 C 0.22635 0.98512 0.35594 0.0
C120 C 0.23005 0.99833 0.40239 0.0
C121 C 0.22334 0.03091 0.3532 0.0
O122 O 0.22506 0.99202 0.36897 0.0
O123 O 0.23578 0.98955 0.34548 0.0
O124 O 0.2469 0.02687 0.38794 0.0
O125 O 0.25318 0.01213 0.36828 0.0
Co126 Co 0.33236 0.94926 0.58756 0.0
O127 O 0.33159 0.96536 0.60264 0.0
O128 O 0.32473 0.9411 0.60685 0.0
C129 C 0.3216 0.96411 0.56956 0.0
O130 O 0.3304 0.92921 0.57495 0.0
Co131 Co 0.35165 0.94885 0.56106 0.0
O132 O 0.33741 0.93444 0.55086 0.0
C133 C 0.3625 0.93455 0.58877 0.0
C134 C 0.32678 0.95496 0.61224 0.0
C135 C 0.33063 0.92585 0.56049 0.0
O136 O 0.35368 0.94467 0.59455 0.0
O137 O 0.36375 0.93357 0.57415 0.0
O138 O 0.31343 0.95577 0.57894 0.0
O139 O 0.33663 0.96321 0.57076 0.0
Co140 Co 0.34353 0.09726 0.84928 0.0
O141 O 0.32862 0.112 0.85647 0.0
O142 O 0.34433 0.09853 0.87149 0.0
C143 C 0.32731 0.08493 0.83321 0.0
O144 O 0.36003 0.08056 0.84583 0.0
Co145 Co 0.3527 0.09627 0.81462 0.0
O146 O 0.36198 0.07607 0.82031 0.0
C147 C 0.36594 0.12019 0.83513 0.0
C148 C 0.33292 0.10824 0.87029 0.0
C149 C 0.36519 0.0727 0.83427 0.0
O150 O 0.35966 0.11382 0.84698 0.0
O151 O 0.36333 0.11575 0.82126 0.0
O152 O 0.3274 0.08166 0.84781 0.0
O153 O 0.33589 0.0964 0.82915 0.0
Co154 Co 0.30919 0.12032 0.12357 0.0
O155 O 0.30371 0.10821 0.14088 0.0
O156 O 0.32047 0.12754 0.1416 0.0
C157 C 0.31104 0.10029 0.10746 0.0
O158 O 0.31749 0.13518 0.10713 0.0
Co159 Co 0.28662 0.12075 0.09585 0.0
O160 O 0.30414 0.13107 0.08521 0.0
C161 C 0.27894 0.1385 0.12364 0.0
C162 C 0.31225 0.11735 0.14903 0.0
C163 C 0.31516 0.13745 0.09259 0.0
O164 O 0.29234 0.1352 0.12897 0.0
O165 O 0.27386 0.13324 0.1108 0.0
O166 O 0.32289 0.10406 0.11591 0.0
O167 O 0.29855 0.108 0.10983 0.0
Co168 Co 0.24784 0.11083 0.27331 0.0
O169 O 0.26585 0.12188 0.26461 0.0
O170 O 0.2508 0.10682 0.25125 0.0
C171 C 0.26088 0.10052 0.29479 0.0
O172 O 0.23064 0.09602 0.27743 0.0
Co173 Co 0.23577 0.12279 0.30585 0.0
O174 O 0.21916 0.10776 0.29806 0.0
C175 C 0.25197 0.14111 0.28352 0.0
C176 C 0.26324 0.11483 0.25161 0.0
C177 C 0.2195 0.09751 0.28722 0.0
O178 O 0.25925 0.13132 0.27487 0.0
O179 O 0.25211 0.13814 0.29799 0.0
O180 O 0.26375 0.09589 0.28112 0.0
O181 O 0.25153 0.11172 0.29464 0.0
Co182 Co 0.22664 0.96003 0.53385 0.0
O183 O 0.21237 0.96897 0.51938 0.0
O184 O 0.23038 0.9516 0.51378 0.0
C185 C 0.23347 0.98215 0.54519 0.0
O186 O 0.24418 0.94849 0.54501 0.0
Co187 Co 0.22174 0.9594 0.56828 0.0
O188 O 0.2436 0.9535 0.57032 0.0
C189 C 0.21287 0.93311 0.54891 0.0
C190 C 0.21935 0.96059 0.50906 0.0
C191 C 0.25019 0.94767 0.55862 0.0
O192 O 0.21187 0.943 0.5381 0.0
O193 O 0.21694 0.93711 0.56252 0.0
O194 O 0.2394 0.97785 0.53213 0.0
O195 O 0.22233 0.97361 0.55064 0.0
Co196 Co 0.34924 0.98882 0.74748 0.0
O197 O 0.33552 0.97774 0.73412 0.0
O198 O 0.35723 0.98914 0.72674 0.0
C199 C 0.33107 0.00264 0.75973 0.0
O200 O 0.36611 0.00162 0.75804 0.0
Co201 Co 0.34701 0.98365 0.78285 0.0
O202 O 0.36325 -0.00021 0.7838 0.0
C203 C 0.36217 0.96027 0.76353 0.0
C204 C 0.34503 0.98118 0.72308 0.0
C205 C 0.3702 0.00508 0.77194 0.0
O206 O 0.36105 0.96938 0.7519 0.0
O207 O 0.3559 0.96317 0.7766 0.0
O208 O 0.33611 0.00698 0.74631 0.0
O209 O 0.33586 0.98932 0.76439 0.0
Co210 Co 0.29241 0.12521 0.98985 0.0
O211 O 0.29046 0.11209 0.97235 0.0
O212 O 0.27734 0.13382 0.97574 0.0
C213 C 0.29278 0.10586 0.00694 0.0
O214 O 0.29136 0.14152 0.00695 0.0
Co215 Co 0.32155 0.12298 0.01045 0.0
O216 O 0.30957 0.13642 0.02475 0.0
C217 C 0.32351 0.13809 0.98006 0.0
C218 C 0.28089 0.12219 0.96688 0.0
C219 C 0.29789 0.14406 0.02009 0.0
O220 O 0.30878 0.13726 0.97892 0.0
O221 O 0.33106 0.13206 0.99126 0.0
O222 O 0.2796 0.11123 0.00209 0.0
O223 O 0.30492 0.1117 0.0007 0.0
Co224 Co 0.37578 0.24193 0.00564 0.0
O225 O 0.3891 0.25419 0.99301 0.0
O226 O 0.39486 0.23102 0.00224 0.0
C227 C 0.36905 0.26086 0.02179 0.0
O228 O 0.36497 0.22619 0.01959 0.0
Co229 Co 0.3409 0.24932 0.0072 0.0
O230 O 0.34129 0.23518 0.02529 0.0
C231 C 0.35325 0.2326 0.98027 0.0
C232 C 0.39905 0.24311 0.99437 0.0
C233 C 0.35224 0.22555 0.0273 0.0
O234 O 0.36653 0.2322 0.98683 0.0
O235 O 0.34165 0.23976 0.98603 0.0
O236 O 0.38192 0.25345 0.02382 0.0
O237 O 0.36152 0.25768 0.00931 0.0
Co238 Co 0.85322 0.34366 0.09307 0.0
O239 O 0.86208 0.32749 0.10518 0.0
O240 O 0.87557 0.34473 0.09201 0.0
C241 C 0.83608 0.32876 0.08071 0.0
O242 O 0.84721 0.36177 0.07892 0.0
Co243 Co 0.81869 0.35123 0.09923 0.0
O244 O 0.82145 0.36488 0.08103 0.0
C245 C 0.84229 0.36261 0.1207 0.0
C246 C 0.87543 0.33248 0.10075 0.0
C247 C 0.83442 0.36843 0.07501 0.0
O248 O 0.85288 0.35779 0.11149 0.0
O249 O 0.82795 0.35962 0.11876 0.0
O250 O 0.85022 0.32957 0.07589 0.0
O251 O 0.83331 0.33541 0.09376 0.0
Co252 Co 0.96133 0.58065 0.32937 0.0
O253 O 0.9765 0.59636 0.33208 0.0
O254 O 0.95564 0.59875 0.31749 0.0
C255 C 0.97898 0.56212 0.32545 0.0
O256 O 0.94342 0.56653 0.32293 0.0
Co257 Co 0.95733 0.55623 0.3519 0.0
O258 O 0.94298 0.54561 0.33803 0.0
C259 C 0.93879 0.58364 0.35506 0.0
C260 C 0.96805 0.60496 0.32327 0.0
C261 C 0.93805 0.55317 0.32654 0.0
O262 O 0.94936 0.58966 0.34685 0.0
O263 O 0.93933 0.56943 0.35876 0.0
O264 O 0.97356 0.5706 0.3144 0.0
O265 O 0.9741 0.56521 0.33938 0.0
Co266 Co 0.72827 0.76 0.59792 0.0
O267 O 0.71447 0.77413 0.60776 0.0
O268 O 0.70718 0.75492 0.59255 0.0
C269 C 0.74475 0.77757 0.58887 0.0
O270 O 0.74017 0.7434 0.58546 0.0
Co271 Co 0.76025 0.75671 0.61259 0.0
O272 O 0.76453 0.74341 0.59476 0.0
C273 C 0.7358 0.73456 0.61888 0.0
C274 C 0.70335 0.76665 0.60117 0.0
C275 C 0.75439 0.73877 0.58524 0.0
O276 O 0.72692 0.74597 0.61615 0.0
O277 O 0.75042 0.73647 0.61919 0.0
O278 O 0.73193 0.77455 0.58179 0.0
O279 O 0.74634 0.77147 0.60256 0.0
Co280 Co 0.11292 0.9936 0.28527 0.0
O281 O 0.10048 0.97566 0.28343 0.0
O282 O 0.12097 0.98064 0.2689 0.0
C283 C 0.09345 0.01043 0.28796 0.0
O284 O 0.1281 0.01162 0.28415 0.0
Co285 Co 0.11168 0.01107 0.31652 0.0
O286 O 0.12298 0.02704 0.30445 0.0
C287 C 0.12959 0.98253 0.31437 0.0
C288 C 0.1101 0.97105 0.27296 0.0
C289 C 0.12997 0.02425 0.29178 0.0
O290 O 0.12713 0.98251 0.29979 0.0
O291 O 0.1233 0.99222 0.32359 0.0
O292 O 0.09761 0.00595 0.27423 0.0
O293 O 0.09989 0.00325 0.29926 0.0
Co294 Co 0.26118 0.8125 0.49774 0.0
O295 O 0.24625 0.80142 0.48576 0.0
O296 O 0.24357 0.80757 0.51047 0.0
C297 C 0.28217 0.79868 0.49068 0.0
O298 O 0.27448 0.82405 0.51372 0.0
Co299 Co 0.28611 0.83119 0.48028 0.0
O300 O 0.29451 0.83483 0.50107 0.0
C301 C 0.2569 0.84608 0.48965 0.0
C302 C 0.23796 0.80093 0.49821 0.0
C303 C 0.28722 0.83181 0.51343 0.0
O304 O 0.25126 0.83269 0.49234 0.0
O305 O 0.27065 0.84809 0.48462 0.0
O306 O 0.27258 0.79367 0.501 0.0
O307 O 0.27744 0.81079 0.48318 0.0
Co308 Co 0.95633 0.53242 0.24356 0.0
O309 O 0.97105 0.51794 0.23585 0.0
O310 O 0.95233 0.51237 0.25245 0.0
C311 C 0.97391 0.55048 0.24909 0.0
O312 O 0.93913 0.54438 0.25442 0.0
Co313 Co 0.94948 0.56154 0.22735 0.0
O314 O 0.9397 0.56892 0.2466 0.0
C315 C 0.93409 0.5339 0.21637 0.0
C316 C 0.96387 0.50769 0.24402 0.0
C317 C 0.93494 0.55855 0.25575 0.0
O318 O 0.9423 0.52683 0.2263 0.0
O319 O 0.93472 0.54853 0.21468 0.0
O320 O 0.97039 0.53958 0.25867 0.0
O321 O 0.96731 0.55005 0.23556 0.0
Co322 Co 0.62423 0.5743 0.76042 0.0
O323 O 0.61098 0.59043 0.75319 0.0
O324 O 0.63625 0.59269 0.75672 0.0
C325 C 0.60922 0.56687 0.77958 0.0
O326 O 0.64183 0.56015 0.76873 0.0
Co327 Co 0.61868 0.54268 0.75561 0.0
O328 O 0.63062 0.5378 0.77414 0.0
C329 C 0.63771 0.5588 0.73487 0.0
C330 C 0.62329 0.59889 0.7523 0.0
C331 C 0.64194 0.54686 0.77558 0.0
O332 O 0.62716 0.56812 0.73854 0.0
O333 O 0.6367 0.5453 0.74048 0.0
O334 O 0.61871 0.57837 0.781 0.0
O335 O 0.60784 0.56032 0.76597 0.0
Co336 Co 0.47827 0.82143 0.76882 0.0
O337 O 0.46638 0.83219 0.78407 0.0
O338 O 0.48815 0.84079 0.77377 0.0
C339 C 0.47882 0.79815 0.78043 0.0
O340 O 0.49356 0.81281 0.75289 0.0
Co341 Co 0.46147 0.79572 0.75053 0.0
O342 O 0.48257 0.79118 0.74338 0.0
C343 C 0.46123 0.82759 0.73868 0.0
C344 C 0.47692 0.84278 0.78357 0.0
C345 C 0.49389 0.80043 0.74458 0.0
O346 O 0.467 0.832 0.75157 0.0
O347 O 0.45766 0.81351 0.73598 0.0
O348 O 0.48775 0.80929 0.7848 0.0
O349 O 0.46792 0.80226 0.77094 0.0
Co350 Co 0.53442 0.25162 0.96104 0.0
O351 O 0.51917 0.2489 0.97672 0.0
O352 O 0.51619 0.26336 0.95581 0.0
C353 C 0.55368 0.25568 0.97786 0.0
O354 O 0.54757 0.2579 0.9426 0.0
Co355 Co 0.55982 0.22968 0.95604 0.0
O356 O 0.57008 0.24536 0.94306 0.0
C357 C 0.5302 0.22203 0.94247 0.0
C358 C 0.51033 0.25764 0.9684 0.0
C359 C 0.56142 0.25588 0.93775 0.0
O360 O 0.52527 0.23405 0.94938 0.0
O361 O 0.5443 0.2178 0.94322 0.0
O362 O 0.54481 0.2667 0.97301 0.0
O363 O 0.55052 0.24182 0.97291 0.0
Co364 Co 0.11354 0.26973 0.25559 0.0
O365 O 0.12451 0.26213 0.27321 0.0
O366 O 0.11233 0.24753 0.25608 0.0
C367 C 0.10035 0.28798 0.26829 0.0
O368 O 0.1005 0.27388 0.23626 0.0
Co369 Co 0.11969 0.30331 0.245 0.0
O370 O 0.10299 0.29895 0.22988 0.0
C371 C 0.14221 0.2791 0.2375 0.0
C372 C 0.12006 0.24852 0.26894 0.0
C373 C 0.09716 0.28561 0.2277 0.0
O374 O 0.13279 0.26889 0.24267 0.0
O375 O 0.13989 0.29362 0.23893 0.0
O376 O 0.09561 0.2738 0.2683 0.0
O377 O 0.11373 0.29034 0.26211 0.0
Co378 Co 0.10485 0.79925 0.48246 0.0
O379 O 0.12151 0.79983 0.49681 0.0
O380 O 0.11932 0.78279 0.47785 0.0
C381 C 0.08634 0.8025 0.50024 0.0
O382 O 0.08863 0.79508 0.46571 0.0
Co383 Co 0.08438 0.82842 0.47885 0.0
O384 O 0.07149 0.81459 0.46583 0.0
C385 C 0.11543 0.82798 0.46524 0.0
C386 C 0.12723 0.78813 0.48947 0.0
C387 C 0.07607 0.80149 0.46087 0.0
O388 O 0.1164 0.81348 0.46823 0.0
O389 O 0.10424 0.83643 0.46992 0.0
O390 O 0.09183 0.78878 0.4976 0.0
O391 O 0.09306 0.81364 0.49306 0.0
Co392 Co 0.49216 0.24887 0.82319 0.0
O393 O 0.48237 0.23585 0.80829 0.0
O394 O 0.50408 0.23028 0.82069 0.0
C395 C 0.49074 0.27052 0.80905 0.0
O396 O 0.50573 0.25984 0.83916 0.0
Co397 Co 0.47322 0.27507 0.8383 0.0
O398 O 0.49325 0.28121 0.84719 0.0
C399 C 0.4743 0.24418 0.85284 0.0
C400 C 0.49381 0.22645 0.81041 0.0
C401 C 0.50501 0.27244 0.84705 0.0
O402 O 0.48061 0.2389 0.84055 0.0
O403 O 0.47011 0.2583 0.85421 0.0
O404 O 0.5015 0.26041 0.80674 0.0
O405 O 0.48002 0.26654 0.81876 0.0
Co406 Co 0.13347 0.31833 0.11916 0.0
O407 O 0.15167 0.31898 0.10693 0.0
O408 O 0.14603 0.33563 0.12557 0.0
C409 C 0.11736 0.31329 0.0996 0.0
O410 O 0.11528 0.32137 0.13384 0.0
Co411 Co 0.11506 0.28777 0.12146 0.0
O412 O 0.09923 0.30112 0.13151 0.0
C413 C 0.14437 0.2908 0.13815 0.0
C414 C 0.15584 0.33063 0.11533 0.0
C415 C 0.10244 0.31448 0.1368 0.0
O416 O 0.14443 0.30523 0.13481 0.0
O417 O 0.13433 0.28138 0.1328 0.0
O418 O 0.1214 0.32749 0.10243 0.0
O419 O 0.12413 0.30288 0.10774 0.0
Co420 Co 0.09307 0.85631 0.34249 0.0
O421 O 0.10699 0.86407 0.32716 0.0
O422 O 0.09157 0.87856 0.3415 0.0
C423 C 0.08309 0.83779 0.32743 0.0
O424 O 0.07675 0.85185 0.35912 0.0
Co425 Co 0.09684 0.82256 0.35394 0.0
O426 O 0.07587 0.82611 0.36265 0.0
C427 C 0.11781 0.84688 0.36539 0.0
C428 C 0.10156 0.87762 0.33029 0.0
C429 C 0.07049 0.83962 0.36491 0.0
O430 O 0.10959 0.85731 0.35876 0.0
O431 O 0.11555 0.83239 0.36356 0.0
O432 O 0.07789 0.85179 0.32658 0.0
O433 O 0.09496 0.83578 0.3362 0.0
Co434 Co 0.50741 0.83541 0.62206 0.0
O435 O 0.49059 0.84138 0.60916 0.0
O436 O 0.48913 0.82394 0.62781 0.0
C437 C 0.52433 0.8327 0.60288 0.0
O438 O 0.52278 0.82608 0.63749 0.0
Co439 Co 0.53474 0.85598 0.62632 0.0
O440 O 0.54568 0.83737 0.63359 0.0
C441 C 0.50772 0.86166 0.6455 0.0
C442 C 0.48222 0.83183 0.61704 0.0
C443 C 0.53751 0.82679 0.63954 0.0
O444 O 0.50114 0.85136 0.63734 0.0
O445 O 0.52183 0.86549 0.64343 0.0
O446 O 0.51486 0.82177 0.60661 0.0
O447 O 0.52269 0.84589 0.60995 0.0
Co448 Co 0.76478 0.47456 0.82289 0.0
O449 O 0.78123 0.46417 0.83288 0.0
O450 O 0.76518 0.4809 0.84422 0.0
C451 C 0.78228 0.4869 0.80436 0.0
O452 O 0.7466 0.48709 0.81426 0.0
Co453 Co 0.7629 0.47007 0.78191 0.0
O454 O 0.74827 0.48714 0.78786 0.0
C455 C 0.75415 0.45242 0.8014 0.0
C456 C 0.77715 0.47168 0.8452 0.0
C457 C 0.74204 0.4914 0.80064 0.0
O458 O 0.76525 0.46178 0.80425 0.0
O459 O 0.75139 0.45054 0.78721 0.0
O460 O 0.77956 0.49143 0.81783 0.0
O461 O 0.77481 0.47454 0.80147 0.0
Co462 Co 0.7953 0.4787 0.10354 0.0
O463 O 0.79583 0.49403 0.11931 0.0
O464 O 0.77824 0.47549 0.11761 0.0
C465 C 0.79988 0.49542 0.08442 0.0
O466 O 0.79094 0.46118 0.0883 0.0
Co467 Co 0.82431 0.47242 0.08358 0.0
O468 O 0.80966 0.46066 0.07031 0.0
C469 C 0.82292 0.46078 0.11554 0.0
C470 C 0.78362 0.48747 0.1249 0.0
C471 C 0.79666 0.45615 0.07552 0.0
O472 O 0.80862 0.46466 0.1163 0.0
O473 O 0.8316 0.46411 0.10404 0.0
O474 O 0.78585 0.49346 0.08939 0.0
O475 O 0.81052 0.48798 0.09166 0.0
Co476 Co 0.82624 0.59426 0.35184 0.0
O477 O 0.81399 0.60079 0.36898 0.0
O478 O 0.83957 0.5992 0.36896 0.0
C479 C 0.81243 0.57379 0.34533 0.0
O480 O 0.84273 0.58724 0.33599 0.0
Co481 Co 0.81379 0.59789 0.31987 0.0
O482 O 0.82948 0.58247 0.31437 0.0
C483 C 0.8349 0.61973 0.33276 0.0
C484 C 0.82691 0.60269 0.37629 0.0
C485 C 0.84191 0.58182 0.32211 0.0
O486 O 0.82703 0.61602 0.34452 0.0
O487 O 0.8304 0.61463 0.31971 0.0
O488 O 0.82244 0.57309 0.35652 0.0
O489 O 0.80942 0.58747 0.33974 0.0
Co490 Co 0.75789 0.61784 0.57053 0.0
O491 O 0.75194 0.60367 0.5864 0.0
O492 O 0.76572 0.62492 0.59011 0.0
C493 C 0.76594 0.59994 0.55395 0.0
O494 O 0.76652 0.63511 0.55675 0.0
Co495 Co 0.74075 0.6196 0.54052 0.0
O496 O 0.75911 0.63041 0.53247 0.0
C497 C 0.72859 0.63687 0.56674 0.0
C498 C 0.75891 0.61286 0.59593 0.0
C499 C 0.7674 0.63766 0.54211 0.0
O500 O 0.73899 0.6301 0.57462 0.0
O501 O 0.72712 0.63474 0.5522 0.0
O502 O 0.77473 0.60498 0.56495 0.0
O503 O 0.75168 0.60481 0.55379 0.0
Co504 Co 0.75609 0.5898 0.73571 0.0
O505 O 0.76666 0.5977 0.71816 0.0
O506 O 0.74345 0.58692 0.7175 0.0
C507 C 0.77585 0.57688 0.7455 0.0
O508 O 0.7421 0.57966 0.7522 0.0
Co509 Co 0.76355 0.60233 0.76668 0.0
O510 O 0.755 0.58287 0.77432 0.0
C511 C 0.73705 0.61283 0.74997 0.0
C512 C 0.7548 0.59349 0.71012 0.0
C513 C 0.74431 0.57651 0.76663 0.0
O514 O 0.74655 0.61045 0.73908 0.0
O515 O 0.74198 0.61143 0.76377 0.0
O516 O 0.76747 0.57116 0.73447 0.0
O517 O 0.77342 0.59134 0.74919 0.0
Co518 Co 0.82346 0.47076 0.96695 0.0
O519 O 0.82368 0.48209 0.9482 0.0
O520 O 0.83686 0.46052 0.95225 0.0
C521 C 0.82528 0.49146 0.98225 0.0
O522 O 0.826 0.45639 0.98558 0.0
Co523 Co 0.79589 0.47607 0.98909 0.0
O524 O 0.80897 0.46404 0.00366 0.0
C525 C 0.79132 0.45737 0.96131 0.0
C526 C 0.83253 0.47136 0.94275 0.0
C527 C 0.82033 0.4557 -0.00065 0.0
O528 O 0.80595 0.45787 0.95902 0.0
O529 O 0.7846 0.46501 0.97202 0.0
O530 O 0.83775 0.48542 0.97644 0.0
O531 O 0.81243 0.48565 0.97756 0.0
Co532 Co 0.81927 0.49805 0.25232 0.0
O533 O 0.80251 0.49118 0.23973 0.0
O534 O 0.8166 0.51204 0.23514 0.0
C535 C 0.80696 0.49556 0.27486 0.0
O536 O 0.83738 0.50867 0.26343 0.0
Co537 Co 0.83437 0.4743 0.27411 0.0
O538 O 0.84685 0.49195 0.28102 0.0
C539 C 0.84641 0.47821 0.24257 0.0
C540 C 0.80526 0.50304 0.23108 0.0
C541 C 0.84678 0.50504 0.27442 0.0
O542 O 0.83432 0.48613 0.23952 0.0
O543 O 0.84875 0.47214 0.25583 0.0
O544 O 0.80493 0.50756 0.26621 0.0
O545 O 0.81501 0.48439 0.26886 0.0
Co546 Co 0.83692 0.64655 0.50963 0.0
O547 O 0.84087 0.6313 0.49428 0.0
O548 O 0.82238 0.64889 0.49277 0.0
C549 C 0.83836 0.62927 0.52884 0.0
O550 O 0.82869 0.6636 0.52363 0.0
Co551 Co 0.8606 0.65572 0.53199 0.0
O552 O 0.84409 0.66571 0.54421 0.0
C553 C 0.86341 0.66823 0.5013 0.0
C554 C 0.82966 0.63733 0.48648 0.0
C555 C 0.83163 0.66882 0.53718 0.0
O556 O 0.85102 0.66082 0.49855 0.0
O557 O 0.86992 0.66805 0.51451 0.0
O558 O 0.82558 0.63233 0.5217 0.0
O559 O 0.85056 0.63679 0.52423 0.0
Co560 Co 0.81743 0.76544 0.48139 0.0
O561 O 0.82638 0.78503 0.47679 0.0
O562 O 0.83929 0.76501 0.48613 0.0
C563 C 0.79724 0.77438 0.49414 0.0
O564 O 0.81119 0.74338 0.48835 0.0
Co565 Co 0.78824 0.75649 0.46548 0.0
O566 O 0.78609 0.74158 0.48232 0.0
C567 C 0.81747 0.74648 0.45326 0.0
C568 C 0.83938 0.77928 0.48136 0.0
C569 C 0.7979 0.73664 0.48946 0.0
O570 O 0.8222 0.75868 0.4599 0.0
O571 O 0.80318 0.74297 0.45363 0.0
O572 O 0.81051 0.77271 0.50083 0.0
O573 O 0.7967 0.77259 0.47916 0.0
Co574 Co 0.3423 0.83654 0.59509 0.0
O575 O 0.36021 0.82365 0.59629 0.0
O576 O 0.36016 0.84902 0.59961 0.0
C577 C 0.33356 0.82591 0.57356 0.0
O578 O 0.32625 0.85429 0.59363 0.0
Co579 Co 0.31241 0.82596 0.60208 0.0
O580 O 0.30351 0.84295 0.59029 0.0
C581 C 0.3295 0.8406 0.62513 0.0
C582 C 0.36785 0.83612 0.5994 0.0
C583 C 0.31183 0.85492 0.58989 0.0
O584 O 0.33905 0.83268 0.61749 0.0
O585 O 0.31542 0.83917 0.62135 0.0
O586 O 0.34352 0.83711 0.57338 0.0
O587 O 0.32917 0.82055 0.58704 0.0
Co588 Co 0.48336 0.09879 0.796 0.0
O589 O 0.49693 0.11604 0.79466 0.0
O590 O 0.47702 0.11179 0.77906 0.0
C591 C 0.50227 0.08151 0.79955 0.0
O592 O 0.46713 0.08182 0.7935 0.0
Co593 Co 0.48165 0.079 0.82572 0.0
O594 O 0.46974 0.06445 0.81255 0.0
C595 C 0.46651 0.10953 0.82488 0.0
C596 C 0.48853 0.12053 0.78312 0.0
C597 C 0.4637 0.06884 0.79987 0.0
O598 O 0.46942 0.1106 0.81036 0.0
O599 O 0.47138 0.09838 0.83328 0.0
O600 O 0.49863 0.08579 0.78563 0.0
O601 O 0.49508 0.08838 0.81058 0.0
Co602 Co 0.27114 0.26194 0.10826 0.0
O603 O 0.26339 0.27867 0.1205 0.0
O604 O 0.24907 0.26339 0.10581 0.0
C605 C 0.29053 0.27534 0.09763 0.0
O606 O 0.27546 0.24375 0.09367 0.0
Co607 Co 0.30418 0.24937 0.11405 0.0
O608 O 0.30102 0.23895 0.09384 0.0
C609 C 0.27829 0.2392 0.13396 0.0
C610 C 0.24996 0.27541 0.11479 0.0
C611 C 0.28753 0.23678 0.08838 0.0
O612 O 0.26876 0.24716 0.12587 0.0
O613 O 0.29293 0.23951 0.13182 0.0
O614 O 0.27666 0.27629 0.09209 0.0
O615 O 0.29194 0.26758 0.11029 0.0
Co616 Co 0.64502 0.50493 0.8476 0.0
O617 O 0.63237 0.48837 0.8546 0.0
O618 O 0.64334 0.48962 0.83145 0.0
C619 C 0.62924 0.52356 0.85542 0.0
O620 O 0.65881 0.52055 0.83646 0.0
Co621 Co 0.66028 0.52626 0.8704 0.0
O622 O 0.66394 0.54004 0.85263 0.0
C623 C 0.67522 0.49679 0.86378 0.0
C624 C 0.63496 0.482 0.84133 0.0
C625 C 0.66416 0.53414 0.83923 0.0
O626 O 0.66351 0.49385 0.85538 0.0
O627 O 0.67669 0.50952 0.87111 0.0
O628 O 0.62735 0.51669 0.84227 0.0
O629 O 0.63997 0.51821 0.8645 0.0
Co630 Co 0.73677 0.34563 0.99462 0.0
O631 O 0.72453 0.33121 0.9832 0.0
O632 O 0.71532 0.35188 0.99512 0.0
C633 C 0.75009 0.32812 0.0082 0.0
O634 O 0.74638 0.36274 0.00791 0.0
Co635 Co 0.77231 0.34551 0.98976 0.0
O636 O 0.77206 0.35852 0.00869 0.0
C637 C 0.75231 0.36123 0.96717 0.0
C638 C 0.71267 0.33943 0.98711 0.0
C639 C 0.76 0.36564 0.01325 0.0
O640 O 0.74048 0.35839 0.97564 0.0
O641 O 0.76581 0.3559 0.97005 0.0
O642 O 0.73634 0.33218 0.01252 0.0
O643 O 0.75446 0.33326 0.9949 0.0
Co644 Co 0.46987 0.96711 0.82484 0.0
O645 O 0.48235 0.94901 0.82473 0.0
O646 O 0.46051 0.95155 0.83788 0.0
C647 C 0.48995 0.98314 0.82705 0.0
O648 O 0.45418 0.98462 0.82789 0.0
Co649 Co 0.47357 0.99131 0.79886 0.0
O650 O 0.46095 0.00457 0.81276 0.0
C651 C 0.45748 0.96206 0.79243 0.0
C652 C 0.472 0.94284 0.83355 0.0
C653 C 0.45268 -0.00125 0.82343 0.0
O654 O 0.45784 0.95886 0.80689 0.0
O655 O 0.464 0.97399 0.78666 0.0
O656 O 0.484 0.97704 0.83942 0.0
O657 O 0.48409 0.97884 0.8141 0.0
Co658 Co 0.11978 0.13011 0.31774 0.0
O659 O 0.10861 0.14881 0.31517 0.0
O660 O 0.12667 0.14491 0.33296 0.0
C661 C 0.09937 0.11446 0.31517 0.0
O662 O 0.1334 0.11205 0.3239 0.0
Co663 Co 0.1212 0.10666 0.29075 0.0
O664 O 0.13 0.09283 0.30682 0.0
C665 C 0.14172 0.13369 0.29026 0.0
C666 C 0.11698 0.15427 0.32631 0.0
C667 C 0.13568 0.09812 0.31932 0.0
O668 O 0.13647 0.13766 0.30355 0.0
O669 O 0.13642 0.1222 0.28261 0.0
O670 O 0.10234 0.12069 0.32851 0.0
O671 O 0.10788 0.11894 0.30383 0.0
H672 H 0.05424 0.37051 0.25404 0.0
H673 H 0.01943 0.34431 0.27814 0.0
H674 H 0.07387 0.35277 0.26272 0.0
H675 H 0.03933 0.32706 0.28808 0.0
H676 H 0.10788 0.31798 0.27441 0.0
H677 H 0.08997 0.33929 0.2788 0.0
H678 H 0.05169 0.3073 0.27576 0.0
H679 H 0.06953 0.28625 0.27257 0.0
C680 C 0.0509 0.36127 0.26177 0.0
C681 C 0.03532 0.35848 0.26513 0.0
C682 C 0.06222 0.35111 0.2669 0.0
C683 C 0.0582 0.33815 0.27581 0.0
C684 C 0.04279 0.33656 0.28075 0.0
C685 C 0.03138 0.34648 0.27519 0.0
C686 C 0.09563 0.31559 0.27505 0.0
C687 C 0.09003 0.30058 0.27288 0.0
C688 C 0.08535 0.32777 0.27751 0.0
C689 C 0.06929 0.32516 0.27737 0.0
C690 C 0.06389 0.3099 0.2762 0.0
C691 C 0.07416 0.29775 0.27414 0.0
H692 H 0.07687 0.82894 0.51394 0.0
H693 H 0.06295 0.78209 0.5045 0.0
H694 H 0.05034 0.83561 0.52054 0.0
H695 H 0.03644 0.78877 0.51028 0.0
H696 H 0.98972 0.80106 0.51117 0.0
H697 H 0.01466 0.79766 0.52373 0.0
H698 H 0.03091 0.83951 0.50189 0.0
H699 H 0.00571 0.84323 0.49021 0.0
C700 C 0.06816 0.81999 0.51368 0.0
C701 C 0.07174 0.80514 0.50833 0.0
C702 C 0.05298 0.8238 0.51742 0.0
C703 C 0.04116 0.8129 0.51547 0.0
C704 C 0.04518 0.79753 0.51196 0.0
C705 C 0.0604 0.79366 0.50851 0.0
C706 C 0.9985 0.80982 0.50965 0.0
C707 C 0.99609 0.82222 0.49955 0.0
C708 C 0.01277 0.80787 0.51677 0.0
C709 C 0.02496 0.818 0.51342 0.0
C710 C 0.02184 0.83145 0.5048 0.0
C711 C 0.00741 0.83359 0.49798 0.0
H712 H 0.55852 0.74367 0.7833 0.0
H713 H 0.53804 0.74022 0.73813 0.0
H714 H 0.53362 0.7504 0.79415 0.0
H715 H 0.51343 0.748 0.74839 0.0
H716 H 0.47244 0.77154 0.76354 0.0
H717 H 0.49113 0.75082 0.76 0.0
H718 H 0.5179 0.76919 0.79809 0.0
H719 H 0.49884 0.78856 0.80207 0.0
C720 C 0.54866 0.74465 0.77567 0.0
C721 C 0.55026 0.7419 0.75984 0.0
C722 C 0.53427 0.74862 0.78184 0.0
C723 C 0.52123 0.75064 0.7722 0.0
C724 C 0.52287 0.74691 0.75643 0.0
C725 C 0.53715 0.74254 0.75039 0.0
C726 C 0.4821 0.77071 0.77141 0.0
C727 C 0.4848 0.78228 0.78236 0.0
C728 C 0.49308 0.75896 0.76924 0.0
C729 C 0.50696 0.75882 0.77788 0.0
C730 C 0.5079 0.76881 0.79067 0.0
C731 C 0.49682 0.78017 0.79302 0.0
H732 H 0.5412 0.25195 0.00615 0.0
H733 H 0.58205 0.26778 0.9828 0.0
H734 H 0.54241 0.27402 0.02344 0.0
H735 H 0.58378 0.28937 0.00031 0.0
H736 H 0.53363 0.31876 0.98989 0.0
H737 H 0.53437 0.29641 0.00641 0.0
H738 H 0.57994 0.30932 0.02177 0.0
H739 H 0.57862 0.3322 0.00567 0.0
C740 C 0.55126 0.25937 0.00559 0.0
C741 C 0.56117 0.2586 0.99276 0.0
C742 C 0.55187 0.27214 0.01548 0.0
C743 C 0.56265 0.28394 0.01271 0.0
C744 C 0.575 0.28076 0.00258 0.0
C745 C 0.57414 0.26821 0.99249 0.0
C746 C 0.54322 0.31764 0.99784 0.0
C747 C 0.55676 0.32611 0.99535 0.0
C748 C 0.54378 0.30458 0.00731 0.0
C749 C 0.55785 0.30037 0.01434 0.0
C750 C 0.56921 0.31186 0.01588 0.0
C751 C 0.56835 0.32513 0.00668 0.0
H752 H 0.00917 0.77401 0.30957 0.0
H753 H 0.04477 0.75065 0.33539 0.0
H754 H 0.02758 0.79395 0.30217 0.0
H755 H 0.06283 0.77098 0.32916 0.0
H756 H 0.09379 0.80916 0.32039 0.0
H757 H 0.07836 0.78644 0.31423 0.0
H758 H 0.03698 0.81444 0.31612 0.0
H759 H 0.05252 0.83705 0.32106 0.0
C760 C 0.02103 0.77306 0.31344 0.0
C761 C 0.02558 0.76101 0.32318 0.0
C762 C 0.03155 0.78452 0.30934 0.0
C763 C 0.04662 0.78437 0.3154 0.0
C764 C 0.05142 0.77152 0.32411 0.0
C765 C 0.04102 0.75986 0.32781 0.0
C766 C 0.08141 0.8104 0.31905 0.0
C767 C 0.07426 0.82472 0.32138 0.0
C768 C 0.07256 0.79741 0.31562 0.0
C769 C 0.05635 0.79846 0.31496 0.0
C770 C 0.0494 0.81309 0.31629 0.0
C771 C 0.0583 0.82611 0.31929 0.0
H772 H 0.58094 0.76647 0.57453 0.0
H773 H 0.53455 0.75987 0.59131 0.0
H774 H 0.57315 0.79054 0.56245 0.0
H775 H 0.52656 0.78328 0.57838 0.0
H776 H 0.51501 0.82822 0.57367 0.0
H777 H 0.5261 0.80715 0.55874 0.0
H778 H 0.56684 0.8087 0.58732 0.0
H779 H 0.55546 0.82932 0.60251 0.0
C780 C 0.5688 0.76949 0.57467 0.0
C781 C 0.55863 0.76213 0.58505 0.0
C782 C 0.56438 0.78336 0.56771 0.0
C783 C 0.54948 0.78918 0.5702 0.0
C784 C 0.53829 0.7793 0.57663 0.0
C785 C 0.54287 0.76573 0.58406 0.0
C786 C 0.52684 0.82485 0.57599 0.0
C787 C 0.53427 0.83008 0.58944 0.0
C788 C 0.53314 0.8127 0.56745 0.0
C789 C 0.54711 0.806 0.57213 0.0
C790 C 0.556 0.81359 0.58345 0.0
C791 C 0.54953 0.82554 0.59217 0.0
H792 H 0.56627 0.3146 0.79635 0.0
H793 H 0.5407 0.35404 0.81295 0.0
H794 H 0.54208 0.30169 0.79014 0.0
H795 H 0.51652 0.34128 0.80651 0.0
H796 H 0.50097 0.27807 0.78079 0.0
H797 H 0.5178 0.29999 0.77591 0.0
H798 H 0.50441 0.31967 0.81973 0.0
H799 H 0.487 0.29809 0.82413 0.0
C800 C 0.5555 0.32068 0.79821 0.0
C801 C 0.55533 0.33514 0.80539 0.0
C802 C 0.54161 0.31336 0.79456 0.0
C803 C 0.52733 0.32045 0.79796 0.0
C804 C 0.52728 0.33546 0.80395 0.0
C805 C 0.54115 0.34273 0.80765 0.0
C806 C 0.50097 0.28755 0.78895 0.0
C807 C 0.49325 0.28617 0.80314 0.0
C808 C 0.51076 0.29999 0.78624 0.0
C809 C 0.51298 0.31115 0.79774 0.0
C810 C 0.50315 0.31112 0.81071 0.0
C811 C 0.49316 0.29872 0.8133 0.0
H812 H 0.0394 0.26548 0.10116 0.0
H813 H 0.02282 0.30488 0.0757 0.0
H814 H 0.06566 0.27141 0.0933 0.0
H815 H 0.04902 0.31053 0.06716 0.0
H816 H 0.0926 0.33127 0.0925 0.0
H817 H 0.0676 0.32189 0.084 0.0
H818 H 0.08704 0.27651 0.07662 0.0
H819 H 0.11195 0.28589 0.08572 0.0
C820 C 0.04132 0.27491 0.09319 0.0
C821 C 0.02929 0.28492 0.08924 0.0
C822 C 0.05638 0.27834 0.08861 0.0
C823 C 0.05948 0.29172 0.0799 0.0
C824 C 0.04704 0.3004 0.07419 0.0
C825 C 0.03206 0.29712 0.079 0.0
C826 C 0.09163 0.31946 0.08852 0.0
C827 C 0.10399 0.30919 0.0901 0.0
C828 C 0.07732 0.31405 0.08354 0.0
C829 C 0.07525 0.29832 0.07994 0.0
C830 C 0.08819 0.28858 0.07966 0.0
C831 C 0.10243 0.29395 0.08483 0.0
H832 H 0.26029 0.10982 0.325 0.0
H833 H 0.27206 0.07156 0.29539 0.0
H834 H 0.26548 0.09385 0.34764 0.0
H835 H 0.27592 0.0553 0.31752 0.0
H836 H 0.28001 0.02491 0.35601 0.0
H837 H 0.28734 0.04601 0.33892 0.0
H838 H 0.25288 0.07506 0.36061 0.0
H839 H 0.2469 0.0546 0.37842 0.0
C840 C 0.26404 0.09801 0.32339 0.0
C841 C 0.26557 0.09182 0.30853 0.0
C842 C 0.26694 0.08879 0.33632 0.0
C843 C 0.27089 0.07308 0.33458 0.0
C844 C 0.27319 0.0673 0.31958 0.0
C845 C 0.27076 0.07661 0.30675 0.0
C846 C 0.27452 0.03605 0.35742 0.0
C847 C 0.2628 0.03811 0.36835 0.0
C848 C 0.27851 0.04811 0.3475 0.0
C849 C 0.27032 0.06218 0.34788 0.0
C850 C 0.25959 0.06456 0.35985 0.0
C851 C 0.25604 0.05271 0.3701 0.0
H852 H 0.30835 0.97021 0.54193 0.0
H853 H 0.31663 0.98908 0.58718 0.0
H854 H 0.28619 0.98725 0.53894 0.0
H855 H 0.29394 0.00563 0.58458 0.0
H856 H 0.24577 0.00843 0.53403 0.0
H857 H 0.27203 0.01524 0.54114 0.0
H858 H 0.26724 0.98903 0.58316 0.0
H859 H 0.24089 0.98233 0.57602 0.0
C860 C 0.30601 0.97871 0.5508 0.0
C861 C 0.31416 0.97845 0.5647 0.0
C862 C 0.29327 0.98846 0.54917 0.0
C863 C 0.28831 0.99768 0.56163 0.0
C864 C 0.2976 -0.00126 0.57481 0.0
C865 C 0.3106 0.98931 0.57624 0.0
C866 C 0.24994 0.00504 0.54532 0.0
C867 C 0.24188 0.99396 0.55401 0.0
C868 C 0.26502 0.00893 0.54935 0.0
C869 C 0.27184 0.00203 0.56227 0.0
C870 C 0.26233 0.99424 0.57291 0.0
C871 C 0.24722 0.9903 0.5688 0.0
H872 H 0.31669 0.02937 0.75175 0.0
H873 H 0.32736 0.00041 0.79086 0.0
H874 H 0.30845 0.04986 0.76916 0.0
H875 H 0.32006 0.02104 0.80822 0.0
H876 H 0.30984 0.05929 0.8386 0.0
H877 H 0.30351 0.03911 0.82004 0.0
H878 H 0.32424 0.06634 0.7837 0.0
H879 H 0.32976 0.08663 0.80201 0.0
C880 C 0.31705 0.02731 0.76408 0.0
C881 C 0.32306 0.0135 0.77 0.0
C882 C 0.31238 0.03905 0.77405 0.0
C883 C 0.31397 0.03728 0.79009 0.0
C884 C 0.31859 0.02286 0.79596 0.0
C885 C 0.32297 0.01103 0.78598 0.0
C886 C 0.31265 0.06108 0.82655 0.0
C887 C 0.32067 0.0743 0.82178 0.0
C888 C 0.30907 0.04951 0.81593 0.0
C889 C 0.31366 0.05092 0.80043 0.0
C890 C 0.32041 0.06482 0.7955 0.0
C891 C 0.32378 0.07644 0.80606 0.0
H892 H 0.2899 0.07896 0.09953 0.0
H893 H 0.3336 0.09843 0.0859 0.0
H894 H 0.28567 0.06972 0.07331 0.0
H895 H 0.32922 0.08989 0.05959 0.0
H896 H 0.3169 0.08693 0.01284 0.0
H897 H 0.32279 0.07465 0.03742 0.0
H898 H 0.27816 0.08883 0.05478 0.0
H899 H 0.27219 0.10058 0.03009 0.0
C900 C 0.29891 0.08063 0.09102 0.0
C901 C 0.31189 0.08966 0.09444 0.0
C902 C 0.29647 0.0754 0.07602 0.0
C903 C 0.30677 0.07961 0.06426 0.0
C904 C 0.32096 0.08649 0.06833 0.0
C905 C 0.32352 0.09146 0.08342 0.0
C906 C 0.30817 0.08693 0.0218 0.0
C907 C 0.29429 0.09508 0.01987 0.0
C908 C 0.31153 0.07985 0.03583 0.0
C909 C 0.30116 0.08111 0.04819 0.0
C910 C 0.28645 0.08758 0.04552 0.0
C911 C 0.28302 0.09448 0.0314 0.0
H912 H 0.29037 0.28382 0.06762 0.0
H913 H 0.32071 0.27725 0.10661 0.0
H914 H 0.31229 0.28601 0.05073 0.0
H915 H 0.34304 0.28056 0.08975 0.0
H916 H 0.3713 0.25459 0.05222 0.0
H917 H 0.35441 0.26399 0.07237 0.0
H918 H 0.3341 0.29637 0.04016 0.0
H919 H 0.35025 0.2858 0.01967 0.0
C920 C 0.30181 0.28336 0.07266 0.0
C921 C 0.30389 0.27996 0.08832 0.0
C922 C 0.31448 0.28483 0.06296 0.0
C923 C 0.32957 0.28322 0.06877 0.0
C924 C 0.33161 0.28141 0.08479 0.0
C925 C 0.31885 0.27959 0.09447 0.0
C926 C 0.36347 0.26398 0.04959 0.0
C927 C 0.36176 0.2693 0.03444 0.0
C928 C 0.35383 0.26951 0.06119 0.0
C929 C 0.34255 0.28074 0.05787 0.0
C930 C 0.34224 0.28733 0.04302 0.0
C931 C 0.35153 0.2814 0.0313 0.0
H932 H 0.74875 0.33074 0.03926 0.0
H933 H 0.77658 0.31228 0.00231 0.0
H934 H 0.76947 0.32624 0.05733 0.0
H935 H 0.79714 0.30649 0.02067 0.0
H936 H 0.83674 0.32671 0.0496 0.0
H937 H 0.81528 0.32161 0.03254 0.0
H938 H 0.78619 0.31202 0.07205 0.0
H939 H 0.80764 0.31839 0.08915 0.0
C940 C 0.75914 0.32514 0.03513 0.0
C941 C 0.76122 0.32206 0.0194 0.0
C942 C 0.77105 0.32242 0.04555 0.0
C943 C 0.78518 0.3162 0.04049 0.0
C944 C 0.78662 0.31175 0.02492 0.0
C945 C 0.77484 0.3149 0.01441 0.0
C946 C 0.8258 0.32329 0.05462 0.0
C947 C 0.8237 0.32317 0.07064 0.0
C948 C 0.81347 0.32018 0.04481 0.0
C949 C 0.79884 0.31652 0.05085 0.0
C950 C 0.79715 0.31521 0.06696 0.0
C951 C 0.80941 0.31876 0.07678 0.0
H952 H 0.00264 0.53918 0.24552 0.0
H953 H 0.97754 0.57891 0.26156 0.0
H954 H 0.01938 0.54055 0.26802 0.0
H955 H 0.99472 0.58092 0.28351 0.0
H956 H 0.98568 0.53334 0.31502 0.0
H957 H -0.00052 0.53331 0.29077 0.0
H958 H 0.01958 0.57737 0.30218 0.0
H959 H 0.00652 0.57671 0.32699 0.0
C960 C 0.00161 0.5491 0.25308 0.0
C961 C 0.98843 0.55856 0.25222 0.0
C962 C 0.01118 0.54979 0.26607 0.0
C963 C 0.00797 0.56044 0.27784 0.0
C964 C 0.99738 0.5724 0.27475 0.0
C965 C 0.98752 0.57137 0.26202 0.0
C966 C 0.99421 0.54226 0.31307 0.0
C967 C 0.99425 0.55552 0.32231 0.0
C968 C 0.00207 0.54239 0.29897 0.0
C969 C 0.0099 0.55581 0.29422 0.0
C970 C 0.01332 0.56704 0.30538 0.0
C971 C 0.0059 0.56655 0.31973 0.0
H972 H 0.77693 0.75572 0.50817 0.0
H973 H 0.79065 0.80326 0.50364 0.0
H974 H 0.76696 0.76099 0.53389 0.0
H975 H 0.78035 0.80869 0.52947 0.0
H976 H 0.74209 0.80355 0.5722 0.0
H977 H 0.75376 0.80588 0.54668 0.0
H978 H 0.78557 0.76933 0.55807 0.0
H979 H 0.7744 0.7676 0.58388 0.0
C980 C 0.77695 0.76749 0.51228 0.0
C981 C 0.78433 0.77912 0.50384 0.0
C982 C 0.77165 0.77042 0.52718 0.0
C983 C 0.77347 0.78511 0.53377 0.0
C984 C 0.77908 0.79723 0.52466 0.0
C985 C 0.78459 0.79421 0.50978 0.0
C986 C 0.75225 0.79672 0.56961 0.0
C987 C 0.75696 0.78493 0.57974 0.0
C988 C 0.75873 0.79789 0.55491 0.0
C989 C 0.77002 0.7873 0.55029 0.0
C990 C 0.77648 0.7773 0.56131 0.0
C991 C 0.77018 0.77637 0.57613 0.0
H992 H 0.0964 0.09046 0.33498 0.0
H993 H 0.08091 0.10775 0.29099 0.0
H994 H 0.08742 0.06484 0.32813 0.0
H995 H 0.0709 0.08232 0.28435 0.0
H996 H 0.09166 0.03509 0.26873 0.0
H997 H 0.08562 0.06129 0.27632 0.0
H998 H 0.07056 0.04497 0.32105 0.0
H999 H 0.0775 0.01875 0.31356 0.0
C1000 C 0.09033 0.08889 0.32417 0.0
C1001 C 0.08953 0.10087 0.31339 0.0
C1002 C 0.08509 0.0742 0.32019 0.0
C1003 C 0.07874 0.07139 0.30547 0.0
C1004 C 0.07615 0.08396 0.29557 0.0
C1005 C 0.08175 0.09854 0.2994 0.0
C1006 C 0.08656 0.03706 0.27998 0.0
C1007 C 0.08534 0.02504 0.29069 0.0
C1008 C 0.08299 0.05211 0.28437 0.0
C1009 C 0.0779 0.05534 0.29948 0.0
C1010 C 0.07487 0.04296 0.30949 0.0
C1011 C 0.07874 0.02794 0.30519 0.0
H1012 H 0.35133 0.82664 0.54766 0.0
H1013 H 0.31089 0.80497 0.56714 0.0
H1014 H 0.34692 0.81338 0.52332 0.0
H1015 H 0.30614 0.7921 0.54261 0.0
H1016 H 0.30835 0.81553 0.48355 0.0
H1017 H 0.32776 0.81784 0.50366 0.0
H1018 H 0.31357 0.77391 0.52237 0.0
H1019 H 0.29374 0.77211 0.50267 0.0
C1020 C 0.34152 0.81894 0.54678 0.0
C1021 C 0.33124 0.81702 0.55923 0.0
C1022 C 0.33912 0.81125 0.53284 0.0
C1023 C 0.32625 0.80164 0.53096 0.0
C1024 C 0.31639 0.79916 0.5437 0.0
C1025 C 0.31893 0.8067 0.55773 0.0
C1026 C 0.30981 0.80609 0.49157 0.0
C1027 C 0.29857 0.79454 0.49277 0.0
C1028 C 0.32101 0.80735 0.50314 0.0
C1029 C 0.32128 0.79661 0.51534 0.0
C1030 C 0.31298 0.78282 0.51362 0.0
C1031 C 0.30174 0.7817 0.50217 0.0
H1032 H 0.59699 0.58659 0.80032 0.0
H1033 H 0.60084 0.53816 0.78958 0.0
H1034 H 0.59223 0.58041 0.82732 0.0
H1035 H 0.59587 0.53192 0.81658 0.0
H1036 H 0.63416 0.55441 0.85666 0.0
H1037 H 0.61734 0.56922 0.83998 0.0
H1038 H 0.58222 0.53419 0.84412 0.0
H1039 H 0.59893 0.51981 0.86149 0.0
C1040 C 0.59601 0.57457 0.80361 0.0
C1041 C 0.59973 0.56281 0.79305 0.0
C1042 C 0.59319 0.57108 0.81906 0.0
C1043 C 0.594 0.55576 0.8241 0.0
C1044 C 0.59514 0.54388 0.81301 0.0
C1045 C 0.59804 0.5474 0.79751 0.0
C1046 C 0.62234 0.55057 0.85522 0.0
C1047 C 0.61813 0.5356 0.85951 0.0
C1048 C 0.61268 0.55898 0.84542 0.0
C1049 C 0.59878 0.5524 0.84015 0.0
C1050 C 0.59303 0.53933 0.84773 0.0
C1051 C 0.60258 0.53121 0.85788 0.0
H1052 H 0.80374 0.50824 0.81078 0.0
H1053 H 0.77671 0.48997 0.77315 0.0
H1054 H 0.80976 0.53106 0.79556 0.0
H1055 H 0.78249 0.51291 0.75798 0.0
H1056 H 0.78363 0.57573 0.7763 0.0
H1057 H 0.79164 0.55211 0.78937 0.0
H1058 H 0.80067 0.53066 0.74527 0.0
H1059 H 0.79218 0.55404 0.73231 0.0
C1060 C 0.79946 0.50891 0.79904 0.0
C1061 C 0.78947 0.49751 0.79323 0.0
C1062 C 0.80286 0.52202 0.7904 0.0
C1063 C 0.79635 0.52395 0.77574 0.0
C1064 C 0.78773 0.51175 0.76926 0.0
C1065 C 0.78436 0.49857 0.77795 0.0
C1066 C 0.78784 0.56618 0.76946 0.0
C1067 C 0.78672 0.56645 0.75334 0.0
C1068 C 0.79249 0.55262 0.77691 0.0
C1069 C 0.7963 0.53935 0.76827 0.0
C1070 C 0.79738 0.54054 0.7522 0.0
C1071 C 0.79264 0.55398 0.7448 0.0
H1072 H 0.80452 0.51377 0.98887 0.0
H1073 H 0.84601 0.49197 0.00567 0.0
H1074 H 0.7995 0.52426 0.01448 0.0
H1075 H 0.8407 0.50161 0.03138 0.0
H1076 H 0.82687 0.50948 0.07752 0.0
H1077 H 0.83517 0.51824 0.05212 0.0
H1078 H 0.78952 0.50855 0.03428 0.0
H1079 H 0.78118 0.50062 0.05979 0.0
C1080 C 0.81283 0.51169 0.99798 0.0
C1081 C 0.82543 0.50182 0.99556 0.0
C1082 C 0.80993 0.51761 0.01264 0.0
C1083 C 0.81935 0.5133 0.02511 0.0
C1084 C 0.83314 0.50518 0.0221 0.0
C1085 C 0.8362 0.49955 0.00735 0.0
C1086 C 0.81853 0.50973 0.0682 0.0
C1087 C 0.80353 0.50404 0.07037 0.0
C1088 C 0.82327 0.51474 0.05369 0.0
C1089 C 0.81318 0.51371 0.04106 0.0
C1090 C 0.79765 0.5096 0.04371 0.0
C1091 C 0.79284 0.50489 0.05831 0.0
H1092 H 0.8144 0.54523 0.35793 0.0
H1093 H 0.79589 0.56977 0.31868 0.0
H1094 H 0.80811 0.52073 0.34573 0.0
H1095 H 0.78961 0.54519 0.30645 0.0
H1096 H 0.82466 0.49218 0.30068 0.0
H1097 H 0.82125 0.50943 0.32257 0.0
H1098 H 0.77507 0.52005 0.30709 0.0
H1099 H 0.77871 0.503 0.28505 0.0
C1100 C 0.80869 0.5454 0.34681 0.0
C1101 C 0.80586 0.55941 0.33909 0.0
C1102 C 0.80507 0.53135 0.33989 0.0
C1103 C 0.79846 0.53102 0.32515 0.0
C1104 C 0.79453 0.54507 0.31794 0.0
C1105 C 0.79821 0.55916 0.32486 0.0
C1106 C 0.81349 0.49744 0.30246 0.0
C1107 C 0.80212 0.49667 0.29101 0.0
C1108 C 0.81152 0.50743 0.31499 0.0
C1109 C 0.79807 0.5165 0.31616 0.0
C1110 C 0.78568 0.51347 0.30622 0.0
C1111 C 0.78768 0.50352 0.29375 0.0
H1112 H 0.83193 0.6186 0.55749 0.0
H1113 H 0.84487 0.60417 0.51175 0.0
H1114 H 0.81475 0.59665 0.55956 0.0
H1115 H 0.82664 0.58286 0.51324 0.0
H1116 H 0.77676 0.57168 0.56102 0.0
H1117 H 0.8034 0.56695 0.55364 0.0
H1118 H 0.79808 0.59826 0.51537 0.0
H1119 H 0.77173 0.60349 0.52326 0.0
C1120 C 0.83205 0.61006 0.54835 0.0
C1121 C 0.83932 0.61331 0.53431 0.0
C1122 C 0.82203 0.59748 0.54943 0.0
C1123 C 0.81898 0.58837 0.53631 0.0
C1124 C 0.8287 0.58975 0.52346 0.0
C1125 C 0.83925 0.60195 0.52269 0.0
C1126 C 0.78088 0.57659 0.55027 0.0
C1127 C 0.77261 0.58866 0.54323 0.0
C1128 C 0.79624 0.57391 0.54612 0.0
C1129 C 0.80297 0.58275 0.53438 0.0
C1130 C 0.79324 0.59146 0.52469 0.0
C1131 C 0.77801 0.59443 0.52914 0.0
H1132 H 0.50659 0.05647 0.78111 0.0
H1133 H 0.51811 0.07538 0.82571 0.0
H1134 H 0.51315 0.03087 0.79027 0.0
H1135 H 0.52519 0.04977 0.83488 0.0
H1136 H 0.49203 0.00745 0.84673 0.0
H1137 H 0.50505 0.03157 0.84084 0.0
H1138 H 0.52739 0.01006 0.8017 0.0
H1139 H 0.51378 0.98613 0.80736 0.0
C1140 C 0.51128 0.05522 0.79263 0.0
C1141 C 0.51139 0.06768 0.80288 0.0
C1142 C 0.51515 0.04054 0.79793 0.0
C1143 C 0.51926 0.03824 0.81351 0.0
C1144 C 0.52168 0.05115 0.82296 0.0
C1145 C 0.51763 0.06578 0.81771 0.0
C1146 C 0.50027 0.00774 0.83733 0.0
C1147 C 0.50168 0.99523 0.82725 0.0
C1148 C 0.50783 0.02154 0.83393 0.0
C1149 C 0.51693 0.02283 0.82049 0.0
C1150 C 0.52015 0.00951 0.81188 0.0
C1151 C 0.51239 0.99584 0.81513 0.0
H1152 H 0.97081 0.3748 0.2056 0.0
H1153 H 0.97031 0.32584 0.21496 0.0
H1154 H 0.96262 0.36981 0.17922 0.0
H1155 H 0.96248 0.32089 0.1887 0.0
H1156 H 0.96219 0.31052 0.14129 0.0
H1157 H 0.94993 0.32186 0.16389 0.0
H1158 H 0.98217 0.35985 0.16201 0.0
H1159 H 0.99419 0.34871 0.13944 0.0
C1160 C 0.96835 0.36301 0.20225 0.0
C1161 C 0.972 0.35065 0.21212 0.0
C1162 C 0.96366 0.36017 0.1871 0.0
C1163 C 0.96263 0.34495 0.18164 0.0
C1164 C 0.9634 0.33279 0.19238 0.0
C1165 C 0.96801 0.33563 0.20754 0.0
C1166 C 0.96633 0.32156 0.14541 0.0
C1167 C 0.97959 0.3284 0.13898 0.0
C1168 C 0.95925 0.32808 0.15834 0.0
C1169 C 0.96534 0.3415 0.16507 0.0
C1170 C 0.97714 0.34947 0.15723 0.0
C1171 C 0.98419 0.34298 0.14429 0.0
H1172 H 0.95818 0.7339 0.37539 0.0
H1173 H 0.95265 0.78281 0.36751 0.0
H1174 H 0.94601 0.73663 0.40054 0.0
H1175 H 0.94108 0.78561 0.39263 0.0
H1176 H 0.93597 0.79462 0.4397 0.0
H1177 H 0.92688 0.78289 0.41584 0.0
H1178 H 0.96149 0.74723 0.4205 0.0
H1179 H 0.9702 0.75862 0.44432 0.0
C1180 C 0.95386 0.74514 0.37874 0.0
C1181 C 0.95719 0.7583 0.36985 0.0
C1182 C 0.9469 0.74671 0.3932 0.0
C1183 C 0.94337 0.76145 0.39899 0.0
C1184 C 0.94392 0.77407 0.38878 0.0
C1185 C 0.95073 0.77249 0.37429 0.0
C1186 C 0.94128 0.78396 0.43589 0.0
C1187 C 0.95431 0.77794 0.44352 0.0
C1188 C 0.93603 0.77722 0.42221 0.0
C1189 C 0.94381 0.76446 0.41589 0.0
C1190 C 0.95523 0.75712 0.42484 0.0
C1191 C 0.96041 0.76379 0.43853 0.0
H1192 H 0.61489 0.77417 0.71891 0.0
H1193 H 0.62914 0.72702 0.7266 0.0
H1194 H 0.61433 0.76939 0.69127 0.0
H1195 H 0.62824 0.72221 0.69892 0.0
H1196 H 0.5865 0.71934 0.66172 0.0
H1197 H 0.60207 0.72136 0.68508 0.0
H1198 H 0.62625 0.76038 0.66581 0.0
H1199 H 0.61091 0.75819 0.64234 0.0
C1200 C 0.61868 0.76303 0.71471 0.0
C1201 C 0.6216 0.75085 0.72501 0.0
C1202 C 0.61829 0.76025 0.69881 0.0
C1203 C 0.62084 0.74529 0.693 0.0
C1204 C 0.62596 0.73376 0.70312 0.0
C1205 C 0.62656 0.73659 0.71897 0.0
C1206 C 0.59565 0.72784 0.66214 0.0
C1207 C 0.59726 0.73878 0.65032 0.0
C1208 C 0.60457 0.72905 0.67556 0.0
C1209 C 0.61519 0.74123 0.67735 0.0
C1210 C 0.61802 0.75103 0.66481 0.0
C1211 C 0.60924 0.74972 0.65137 0.0
H1212 H 0.58732 0.36522 0.91277 0.0
H1213 H 0.61769 0.33067 0.93216 0.0
H1214 H 0.59989 0.36191 0.88775 0.0
H1215 H 0.62978 0.32713 0.90707 0.0
H1216 H 0.61654 0.30956 0.85498 0.0
H1217 H 0.61511 0.31554 0.88245 0.0
H1218 H 0.62698 0.3629 0.87296 0.0
H1219 H 0.62885 0.35694 0.84554 0.0
C1220 C 0.59697 0.35733 0.91188 0.0
C1221 C 0.6013 0.34809 0.92448 0.0
C1222 C 0.60414 0.35539 0.89752 0.0
C1223 C 0.61566 0.34411 0.89549 0.0
C1224 C 0.62084 0.33579 0.90832 0.0
C1225 C 0.6139 0.33791 0.92271 0.0
C1226 C 0.61963 0.32105 0.85877 0.0
C1227 C 0.62253 0.33283 0.84799 0.0
C1228 C 0.61871 0.32451 0.87453 0.0
C1229 C 0.62064 0.33976 0.87973 0.0
C1230 C 0.62524 0.35111 0.86919 0.0
C1231 C 0.62641 0.34763 0.85351 0.0
H1232 H 0.15521 0.97416 0.29872 0.0
H1233 H 0.13289 0.96909 0.34289 0.0
H1234 H 0.17914 0.96561 0.30948 0.0
H1235 H 0.15657 0.95858 0.35363 0.0
H1236 H 0.20143 0.97708 0.37331 0.0
H1237 H 0.17749 0.96779 0.36361 0.0
H1238 H 0.19963 0.956 0.32029 0.0
H1239 H 0.22351 0.96716 0.32975 0.0
C1240 C 0.15531 0.97057 0.3107 0.0
C1241 C 0.14238 0.97289 0.32014 0.0
C1242 C 0.16919 0.96545 0.31699 0.0
C1243 C 0.17041 0.96208 0.33288 0.0
C1244 C 0.15664 0.96205 0.34166 0.0
C1245 C 0.14289 0.96787 0.33549 0.0
C1246 C 0.20132 0.97232 0.36175 0.0
C1247 C 0.21418 0.97377 0.35198 0.0
C1248 C 0.18736 0.96675 0.35608 0.0
C1249 C 0.18598 0.96205 0.34056 0.0
C1250 C 0.19972 0.96065 0.33186 0.0
C1251 C 0.21361 0.9668 0.33738 0.0
H1252 H 0.35825 0.84635 0.63602 0.0
H1253 H 0.31485 0.86881 0.62604 0.0
H1254 H 0.37188 0.87047 0.63117 0.0
H1255 H 0.32854 0.89317 0.62229 0.0
H1256 H 0.3636 0.93465 0.62013 0.0
H1257 H 0.35714 0.91252 0.63626 0.0
H1258 H 0.36264 0.8824 0.59707 0.0
H1259 H 0.36843 0.90455 0.58063 0.0
C1260 C 0.3515 0.85664 0.63377 0.0
C1261 C 0.33552 0.85554 0.63084 0.0
C1262 C 0.35937 0.8704 0.63092 0.0
C1263 C 0.35122 0.88341 0.62601 0.0
C1264 C 0.33501 0.88309 0.6259 0.0
C1265 C 0.32715 0.86919 0.62825 0.0
C1266 C 0.36412 0.92324 0.61504 0.0
C1267 C 0.36624 0.92139 0.59899 0.0
C1268 C 0.36033 0.91063 0.62432 0.0
C1269 C 0.35927 0.89592 0.6178 0.0
C1270 C 0.36347 0.89373 0.60229 0.0
C1271 C 0.36694 0.9064 0.59291 0.0
H1272 H 0.38187 0.13638 0.81328 0.0
H1273 H 0.38026 0.12806 0.8624 0.0
H1274 H 0.40874 0.14281 0.81512 0.0
H1275 H 0.40723 0.13555 0.86449 0.0
H1276 H 0.45053 0.10618 0.85176 0.0
H1277 H 0.42671 0.11876 0.85835 0.0
H1278 H 0.43315 0.15092 0.82069 0.0
H1279 H 0.45677 0.13745 0.81348 0.0
C1280 C 0.38709 0.13659 0.82464 0.0
C1281 C 0.37918 0.13076 0.83752 0.0
C1282 C 0.40265 0.14046 0.82576 0.0
C1283 C 0.41055 0.13879 0.83987 0.0
C1284 C 0.40175 0.13612 0.85328 0.0
C1285 C 0.38619 0.13195 0.85211 0.0
C1286 C 0.44712 0.11618 0.84509 0.0
C1287 C 0.45516 0.12035 0.83166 0.0
C1288 C 0.4334 0.12362 0.84899 0.0
C1289 C 0.42749 0.13555 0.83965 0.0
C1290 C 0.43693 0.14132 0.82773 0.0
C1291 C 0.45052 0.13364 0.82362 0.0
H1292 H 0.25766 0.15851 0.11179 0.0
H1293 H 0.28075 0.14601 0.15413 0.0
H1294 H 0.25078 0.18324 0.12289 0.0
H1295 H 0.27338 0.17056 0.16552 0.0
H1296 H 0.29389 0.21996 0.15354 0.0
H1297 H 0.28674 0.19346 0.15808 0.0
H1298 H 0.24098 0.20258 0.14043 0.0
H1299 H 0.24827 0.22922 0.13561 0.0
C1300 C 0.26062 0.16073 0.12373 0.0
C1301 C 0.27018 0.15056 0.1319 0.0
C1302 C 0.25657 0.17493 0.13021 0.0
C1303 C 0.26194 0.1791 0.14499 0.0
C1304 C 0.26942 0.16788 0.15397 0.0
C1305 C 0.27364 0.15379 0.14743 0.0
C1306 C 0.28208 0.21655 0.15125 0.0
C1307 C 0.27195 0.22648 0.14343 0.0
C1308 C 0.27789 0.20126 0.15395 0.0
C1309 C 0.26346 0.19571 0.14893 0.0
C1310 C 0.25236 0.2064 0.14391 0.0
C1311 C 0.25656 0.22173 0.14121 0.0
H1312 H 0.15538 0.13192 0.26163 0.0
H1313 H 0.16081 0.15237 0.30677 0.0
H1314 H 0.18166 0.13943 0.25512 0.0
H1315 H 0.18713 0.15871 0.30091 0.0
H1316 H 0.23545 0.16576 0.29316 0.0
H1317 H 0.20784 0.16998 0.29013 0.0
H1318 H 0.20538 0.12998 0.26031 0.0
H1319 H 0.23287 0.12714 0.26192 0.0
C1320 C 0.16211 0.1382 0.27009 0.0
C1321 C 0.15608 0.14124 0.28483 0.0
C1322 C 0.17728 0.14237 0.26644 0.0
C1323 C 0.1869 0.14929 0.2776 0.0
C1324 C 0.1803 0.15352 0.29184 0.0
C1325 C 0.16507 0.14972 0.29532 0.0
C1326 C 0.22901 0.15824 0.28553 0.0
C1327 C 0.23633 0.14575 0.27827 0.0
C1328 C 0.2131 0.16049 0.28395 0.0
C1329 C 0.20405 0.14993 0.27553 0.0
C1330 C 0.21171 0.13841 0.26698 0.0
C1331 C 0.22767 0.13656 0.26811 0.0
H1332 H 0.23336 0.91165 0.55918 0.0
H1333 H 0.19686 0.91875 0.52603 0.0
H1334 H 0.24304 0.89006 0.54385 0.0
H1335 H 0.20638 0.89698 0.51085 0.0
H1336 H 0.26882 0.873 0.50061 0.0
H1337 H 0.25578 0.89182 0.51698 0.0
H1338 H 0.21261 0.86788 0.51039 0.0
H1339 H 0.22571 0.84881 0.49415 0.0
C1340 C 0.22694 0.90813 0.54905 0.0
C1341 C 0.21434 0.91691 0.54381 0.0
C1342 C 0.23266 0.89595 0.54011 0.0
C1343 C 0.22566 0.8921 0.52597 0.0
C1344 C 0.21204 0.89974 0.52165 0.0
C1345 C 0.2065 0.9121 0.53043 0.0
C1346 C 0.25647 0.87197 0.50225 0.0
C1347 C 0.24829 0.85946 0.49594 0.0
C1348 C 0.24906 0.88258 0.51189 0.0
C1349 C 0.23325 0.88111 0.51521 0.0
C1350 C 0.22483 0.86922 0.50812 0.0
C1351 C 0.23231 0.8584 0.49871 0.0
H1352 H 0.37227 0.94175 0.78704 0.0
H1353 H 0.3794 0.95098 0.73856 0.0
H1354 H 0.39841 0.93266 0.7892 0.0
H1355 H 0.40565 0.94126 0.7406 0.0
H1356 H 0.44635 0.9692 0.76384 0.0
H1357 H 0.42377 0.95819 0.75189 0.0
H1358 H 0.42313 0.92192 0.78616 0.0
H1359 H 0.44561 0.93341 0.79851 0.0
C1360 C 0.37916 0.94114 0.77663 0.0
C1361 C 0.3741 0.94804 0.76287 0.0
C1362 C 0.39428 0.93576 0.77783 0.0
C1363 C 0.40448 0.9371 0.76524 0.0
C1364 C 0.39829 0.94078 0.7507 0.0
C1365 C 0.38319 0.94633 0.74953 0.0
C1366 C 0.44173 0.9586 0.76856 0.0
C1367 C 0.44732 0.9526 0.78251 0.0
C1368 C 0.42878 0.9521 0.76158 0.0
C1369 C 0.42121 0.93942 0.76839 0.0
C1370 C 0.42835 0.93199 0.78092 0.0
C1371 C 0.44122 0.93861 0.78802 0.0
H1372 H 0.31217 0.15146 0.95375 0.0
H1373 H 0.35331 0.14837 0.98178 0.0
H1374 H 0.32196 0.17497 0.94196 0.0
H1375 H 0.36293 0.1718 0.97026 0.0
H1376 H 0.37483 0.21666 0.96346 0.0
H1377 H 0.37028 0.19143 0.95204 0.0
H1378 H 0.32112 0.19834 0.95693 0.0
H1379 H 0.32562 0.22349 0.96796 0.0
C1380 C 0.32352 0.15551 0.95706 0.0
C1381 C 0.33164 0.14851 0.96927 0.0
C1382 C 0.32915 0.16896 0.95022 0.0
C1383 C 0.34292 0.17563 0.95557 0.0
C1384 C 0.35218 0.16715 0.9659 0.0
C1385 C 0.34658 0.1537 0.97269 0.0
C1386 C 0.36302 0.21308 0.96145 0.0
C1387 C 0.35059 0.22167 0.96742 0.0
C1388 C 0.36043 0.1986 0.95487 0.0
C1389 C 0.3454 0.19254 0.95433 0.0
C1390 C 0.3329 0.20247 0.95743 0.0
C1391 C 0.33548 0.21696 0.96391 0.0
H1392 H 0.8664 0.38253 0.11867 0.0
H1393 H 0.82689 0.37164 0.14695 0.0
H1394 H 0.86542 0.40879 0.12711 0.0
H1395 H 0.8267 0.39792 0.15679 0.0
H1396 H 0.80631 0.4411 0.13338 0.0
H1397 H 0.81564 0.4177 0.14474 0.0
H1398 H 0.86275 0.43243 0.13664 0.0
H1399 H 0.85304 0.45548 0.1239 0.0
C1400 C 0.85798 0.38556 0.1274 0.0
C1401 C 0.84618 0.37526 0.13147 0.0
C1402 C 0.8574 0.40084 0.13239 0.0
C1403 C 0.84518 0.406 0.14185 0.0
C1404 C 0.83557 0.39473 0.1486 0.0
C1405 C 0.83581 0.37955 0.14316 0.0
C1406 C 0.81869 0.43955 0.13435 0.0
C1407 C 0.82892 0.44976 0.12709 0.0
C1408 C 0.82418 0.42602 0.14107 0.0
C1409 C 0.84009 0.42251 0.14095 0.0
C1410 C 0.8504 0.43415 0.13614 0.0
C1411 C 0.84485 0.44749 0.12894 0.0
H1412 H 0.90974 0.57315 0.36203 0.0
H1413 H 0.93509 0.61463 0.35084 0.0
H1414 H 0.88552 0.5868 0.35693 0.0
H1415 H 0.91084 0.62795 0.34534 0.0
H1416 H 0.85932 0.61447 0.31294 0.0
H1417 H 0.8858 0.60892 0.3211 0.0
H1418 H 0.87485 0.62346 0.36734 0.0
H1419 H 0.8486 0.62973 0.35922 0.0
C1420 C 0.91017 0.58527 0.35904 0.0
C1421 C 0.92439 0.59274 0.35683 0.0
C1422 C 0.89632 0.593 0.35592 0.0
C1423 C 0.89648 0.60828 0.35051 0.0
C1424 C 0.91052 0.61613 0.3494 0.0
C1425 C 0.92435 0.60849 0.35266 0.0
C1426 C 0.86269 0.61721 0.32466 0.0
C1427 C 0.85168 0.62216 0.33552 0.0
C1428 C 0.87781 0.61386 0.32935 0.0
C1429 C 0.88207 0.6154 0.3449 0.0
C1430 C 0.87169 0.62202 0.35533 0.0
C1431 C 0.8567 0.62565 0.35061 0.0
H1432 H 0.72045 0.63747 0.59691 0.0
H1433 H 0.72008 0.66522 0.55556 0.0
H1434 H 0.71854 0.66071 0.61265 0.0
H1435 H 0.71762 0.68851 0.57142 0.0
H1436 H 0.7078 0.727 0.60645 0.0
H1437 H 0.70078 0.70254 0.59459 0.0
H1438 H 0.74212 0.68176 0.61289 0.0
H1439 H 0.74961 0.70647 0.62434 0.0
C1440 C 0.71918 0.64848 0.59114 0.0
C1441 C 0.72054 0.64951 0.57496 0.0
C1442 C 0.71824 0.66178 0.6002 0.0
C1443 C 0.7182 0.67635 0.59325 0.0
C1444 C 0.71762 0.67735 0.57704 0.0
C1445 C 0.71883 0.66401 0.56793 0.0
C1446 C 0.71529 0.71718 0.60832 0.0
C1447 C 0.72948 0.71883 0.61616 0.0
C1448 C 0.71123 0.70318 0.60142 0.0
C1449 C 0.72098 0.69037 0.60267 0.0
C1450 C 0.73438 0.69152 0.61178 0.0
C1451 C 0.73864 0.70564 0.6184 0.0
H1452 H 0.90422 0.54227 0.21057 0.0
H1453 H 0.93586 0.50391 0.20765 0.0
H1454 H 0.88255 0.52427 0.21087 0.0
H1455 H 0.91424 0.48594 0.20821 0.0
H1456 H 0.87697 0.47105 0.24701 0.0
H1457 H 0.89849 0.48257 0.23313 0.0
H1458 H 0.86699 0.50142 0.19951 0.0
H1459 H 0.84542 0.48963 0.21313 0.0
C1460 C 0.90651 0.53007 0.20909 0.0
C1461 C 0.92173 0.52451 0.20928 0.0
C1462 C 0.8941 0.51971 0.2094 0.0
C1463 C 0.89675 0.50368 0.20993 0.0
C1464 C 0.91187 0.49821 0.20805 0.0
C1465 C 0.92423 0.50854 0.20759 0.0
C1466 C 0.87464 0.47698 0.23627 0.0
C1467 C 0.85939 0.47964 0.23142 0.0
C1468 C 0.88701 0.48367 0.22831 0.0
C1469 C 0.88436 0.49316 0.21539 0.0
C1470 C 0.86933 0.49435 0.20955 0.0
C1471 C 0.85699 0.4875 0.21736 0.0
H1472 H 0.7231 0.6124 0.72166 0.0
H1473 H 0.71329 0.60621 0.77017 0.0
H1474 H 0.69903 0.5993 0.7151 0.0
H1475 H 0.68899 0.5934 0.76341 0.0
H1476 H 0.66689 0.54783 0.74127 0.0
H1477 H 0.68987 0.56407 0.74457 0.0
H1478 H 0.66601 0.60232 0.72361 0.0
H1479 H 0.64291 0.58638 0.72081 0.0
C1480 C 0.71564 0.60865 0.73096 0.0
C1481 C 0.72043 0.60997 0.74648 0.0
C1482 C 0.70188 0.6011 0.72714 0.0
C1483 C 0.69254 0.59486 0.73876 0.0
C1484 C 0.69628 0.59779 0.75426 0.0
C1485 C 0.71011 0.6053 0.75811 0.0
C1486 C 0.66665 0.55957 0.73704 0.0
C1487 C 0.65292 0.56591 0.73123 0.0
C1488 C 0.67974 0.56891 0.73907 0.0
C1489 C 0.67945 0.58456 0.7348 0.0
C1490 C 0.6664 0.59037 0.72725 0.0
C1491 C 0.65326 0.58115 0.7255 0.0
H1492 H 0.4768 0.86604 0.64764 0.0
H1493 H 0.51859 0.86683 0.67471 0.0
H1494 H 0.46159 0.86249 0.67102 0.0
H1495 H 0.50333 0.86341 0.69817 0.0
H1496 H 0.45269 0.82297 0.70846 0.0
H1497 H 0.46175 0.83763 0.68628 0.0
H1498 H 0.48185 0.87155 0.71666 0.0
H1499 H 0.47264 0.85709 0.7389 0.0
C1500 C 0.48269 0.86621 0.65867 0.0
C1501 C 0.49893 0.86658 0.65931 0.0
C1502 C 0.47396 0.864 0.67204 0.0
C1503 C 0.48127 0.86232 0.68639 0.0
C1504 C 0.49734 0.86468 0.68728 0.0
C1505 C 0.50612 0.86679 0.67383 0.0
C1506 C 0.45852 0.83384 0.71046 0.0
C1507 C 0.4621 0.83864 0.72554 0.0
C1508 C 0.46374 0.84227 0.69771 0.0
C1509 C 0.47275 0.85564 0.69973 0.0
C1510 C 0.47513 0.8612 0.71475 0.0
C1511 C 0.46972 0.8529 0.7275 0.0
H1512 H 0.49919 0.2189 0.94558 0.0
H1513 H 0.53656 0.21105 0.9136 0.0
H1514 H 0.48081 0.21876 0.9243 0.0
H1515 H 0.51819 0.211 0.89227 0.0
H1516 H 0.48419 0.21418 0.85498 0.0
H1517 H 0.49498 0.20205 0.87791 0.0
H1518 H 0.47869 0.24011 0.90562 0.0
H1519 H 0.46795 0.25228 0.88281 0.0
C1520 C 0.50339 0.21642 0.93406 0.0
C1521 C 0.51935 0.21516 0.93122 0.0
C1522 C 0.49286 0.2165 0.92185 0.0
C1523 C 0.49806 0.21526 0.90656 0.0
C1524 C 0.51378 0.21196 0.90392 0.0
C1525 C 0.52435 0.21188 0.91617 0.0
C1526 C 0.4824 0.21974 0.86603 0.0
C1527 C 0.47545 0.23444 0.86693 0.0
C1528 C 0.4887 0.21278 0.87917 0.0
C1529 C 0.48799 0.22023 0.89353 0.0
C1530 C 0.47944 0.234 0.89474 0.0
C1531 C 0.47323 0.24102 0.8816 0.0
H1532 H 0.15162 0.26101 0.14647 0.0
H1533 H 0.16127 0.30853 0.1578 0.0
H1534 H 0.16271 0.25296 0.17094 0.0
H1535 H 0.17096 0.30091 0.18247 0.0
H1536 H 0.16916 0.29366 0.22926 0.0
H1537 H 0.18107 0.29152 0.20393 0.0
H1538 H 0.152 0.25208 0.19411 0.0
H1539 H 0.14157 0.25338 0.21963 0.0
C1540 C 0.15628 0.26973 0.15411 0.0
C1541 C 0.15485 0.28546 0.15054 0.0
C1542 C 0.16254 0.26514 0.16827 0.0
C1543 C 0.16685 0.27624 0.17939 0.0
C1544 C 0.16755 0.2918 0.17466 0.0
C1545 C 0.16175 0.29631 0.16037 0.0
C1546 C 0.16594 0.28411 0.22187 0.0
C1547 C 0.15389 0.27416 0.2261 0.0
C1548 C 0.17257 0.28299 0.20719 0.0
C1549 C 0.16658 0.27249 0.19628 0.0
C1550 C 0.1567 0.26076 0.20172 0.0
C1551 C 0.15056 0.26151 0.21657 0.0
H1552 H 0.12152 0.85851 0.45929 0.0
H1553 H 0.13361 0.81237 0.44494 0.0
H1554 H 0.13241 0.86873 0.43551 0.0
H1555 H 0.14328 0.82217 0.42096 0.0
H1556 H 0.11281 0.87004 0.38571 0.0
H1557 H 0.12122 0.86974 0.41213 0.0
H1558 H 0.15465 0.83423 0.40111 0.0
H1559 H 0.14495 0.83365 0.37475 0.0
C1560 C 0.12677 0.85058 0.45118 0.0
C1561 C 0.12612 0.83458 0.45368 0.0
C1562 C 0.13292 0.85641 0.43744 0.0
C1563 C 0.13799 0.84631 0.42574 0.0
C1564 C 0.13936 0.8305 0.42937 0.0
C1565 C 0.13362 0.82475 0.44324 0.0
C1566 C 0.12237 0.86258 0.38878 0.0
C1567 C 0.1278 0.85143 0.37838 0.0
C1568 C 0.12732 0.86239 0.4041 0.0
C1569 C 0.13805 0.85124 0.40918 0.0
C1570 C 0.14567 0.8423 0.39792 0.0
C1571 C 0.1403 0.8421 0.38271 0.0
H1572 H 0.72293 0.45475 0.79727 0.0
H1573 H 0.7576 0.44715 0.83214 0.0
H1574 H 0.70436 0.46175 0.81733 0.0
H1575 H 0.73931 0.45533 0.85215 0.0
H1576 H 0.70634 0.50275 0.8637 0.0
H1577 H 0.72583 0.48646 0.85116 0.0
H1578 H 0.6923 0.45011 0.84601 0.0
H1579 H 0.67303 0.466 0.85898 0.0
C1580 C 0.72644 0.45401 0.80924 0.0
C1581 C 0.74185 0.45079 0.81314 0.0
C1582 C 0.71586 0.45819 0.82071 0.0
C1583 C 0.72057 0.45937 0.83619 0.0
C1584 C 0.73551 0.45472 0.84026 0.0
C1585 C 0.74595 0.45012 0.82882 0.0
C1586 C 0.70338 0.49098 0.86072 0.0
C1587 C 0.68813 0.4857 0.86225 0.0
C1588 C 0.71448 0.48171 0.85342 0.0
C1589 C 0.71042 0.46715 0.8475 0.0
C1590 C 0.69565 0.46131 0.85043 0.0
C1591 C 0.68468 0.47041 0.85792 0.0
H1592 H 0.73331 0.38594 0.96902 0.0
H1593 H 0.76916 0.36608 0.94074 0.0
H1594 H 0.73928 0.41108 0.95933 0.0
H1595 H 0.77419 0.39127 0.92946 0.0
H1596 H 0.80265 0.43261 0.94579 0.0
H1597 H 0.78883 0.40989 0.93858 0.0
H1598 H 0.74555 0.43309 0.9483 0.0
H1599 H 0.75988 0.45556 0.95706 0.0
C1600 C 0.74196 0.38685 0.96002 0.0
C1601 C 0.75126 0.37417 0.95615 0.0
C1602 C 0.74544 0.40147 0.95432 0.0
C1603 C 0.75806 0.40364 0.94426 0.0
C1604 C 0.76518 0.39036 0.93805 0.0
C1605 C 0.76212 0.37579 0.94427 0.0
C1606 C 0.79016 0.43299 0.94619 0.0
C1607 C 0.7824 0.44564 0.95269 0.0
C1608 C 0.78205 0.41984 0.94182 0.0
C1609 C 0.76587 0.41907 0.94349 0.0
C1610 C 0.75801 0.43272 0.94769 0.0
C1611 C 0.76621 0.44575 0.95259 0.0
H1612 H 0.81327 0.71543 0.4488 0.0
H1613 H 0.84868 0.75045 0.45124 0.0
H1614 H 0.83238 0.69587 0.45504 0.0
H1615 H 0.86768 0.73085 0.45789 0.0
H1616 H 0.87162 0.69844 0.50427 0.0
H1617 H 0.86568 0.71776 0.48472 0.0
H1618 H 0.85822 0.68172 0.45117 0.0
H1619 H 0.86436 0.66244 0.47068 0.0
C1620 C 0.82523 0.7189 0.44989 0.0
C1621 C 0.82932 0.73457 0.44996 0.0
C1622 C 0.83624 0.70766 0.45352 0.0
C1623 C 0.85146 0.71192 0.45731 0.0
C1624 C 0.856 0.72729 0.45523 0.0
C1625 C 0.84506 0.73849 0.45137 0.0
C1626 C 0.86976 0.6947 0.49249 0.0
C1627 C 0.86818 0.67898 0.48904 0.0
C1628 C 0.86623 0.70576 0.48126 0.0
C1629 C 0.86109 0.70118 0.46652 0.0
C1630 C 0.86193 0.68554 0.46247 0.0
C1631 C 0.86557 0.67453 0.47363 0.0
H1632 H 0.0352 0.31982 0.20865 0.0
H1633 H 0.04803 0.36779 0.20447 0.0
H1634 H 0.05231 0.31333 0.18739 0.0
H1635 H 0.06552 0.36113 0.1832 0.0
H1636 H 0.1082 0.3361 0.15924 0.0
H1637 H 0.09034 0.34538 0.1791 0.0
H1638 H 0.05373 0.31843 0.15876 0.0
H1639 H 0.0715 0.30941 0.1388 0.0
C1640 C 0.04177 0.32899 0.20329 0.0
C1641 C 0.04024 0.34435 0.20832 0.0
C1642 C 0.05152 0.32525 0.19101 0.0
C1643 C 0.06024 0.33671 0.18358 0.0
C1644 C 0.05897 0.35205 0.18874 0.0
C1645 C 0.04893 0.35586 0.20088 0.0
C1646 C 0.09627 0.33237 0.15886 0.0
C1647 C 0.09132 0.32174 0.14764 0.0
C1648 C 0.08605 0.33769 0.17023 0.0
C1649 C 0.07069 0.33247 0.17062 0.0
C1650 C 0.06557 0.32244 0.15894 0.0
C1651 C 0.07575 0.31722 0.14756 0.0
H1652 H 0.04492 0.8215 0.36628 0.0
H1653 H 0.0667 0.86039 0.38839 0.0
H1654 H 0.02535 0.82084 0.3866 0.0
H1655 H 0.0474 0.85935 0.40914 0.0
H1656 H 0.02707 0.8305 0.45172 0.0
H1657 H 0.04311 0.83838 0.42988 0.0
H1658 H 0.00342 0.83585 0.39989 0.0
H1659 H 0.9873 0.82823 0.4219 0.0
C1660 C 0.04533 0.83009 0.37535 0.0
C1661 C 0.0573 0.84103 0.37573 0.0
C1662 C 0.03411 0.82973 0.38698 0.0
C1663 C 0.03489 0.83996 0.39955 0.0
C1664 C 0.04654 0.85128 0.39964 0.0
C1665 C 0.05752 0.85194 0.38773 0.0
C1666 C 0.02171 0.83201 0.44053 0.0
C1667 C 0.00595 0.82875 0.43851 0.0
C1668 C 0.03087 0.83659 0.42803 0.0
C1669 C 0.02455 0.83769 0.41313 0.0
C1670 C 0.00863 0.83506 0.41122 0.0
C1671 C -0.00062 0.83081 0.42383 0.0
H1672 H 0.58204 0.75741 0.69713 0.0
H1673 H 0.56841 0.79402 0.72817 0.0
H1674 H 0.57458 0.77352 0.67516 0.0
H1675 H 0.56151 0.81 0.70659 0.0
H1676 H 0.5283 0.82435 0.66902 0.0
H1677 H 0.54136 0.81135 0.69004 0.0
H1678 H 0.57673 0.79553 0.65879 0.0
H1679 H 0.5638 0.80938 0.63759 0.0
C1680 C 0.57752 0.76886 0.69928 0.0
C1681 C 0.57545 0.7742 0.71447 0.0
C1682 C 0.57343 0.77821 0.68668 0.0
C1683 C 0.56692 0.79295 0.68905 0.0
C1684 C 0.56581 0.79852 0.70422 0.0
C1685 C 0.56987 0.78928 0.7167 0.0
C1686 C 0.53875 0.81791 0.66659 0.0
C1687 C 0.54477 0.81736 0.65164 0.0
C1688 C 0.54639 0.81059 0.67869 0.0
C1689 C 0.55991 0.80195 0.67611 0.0
C1690 C 0.56609 0.80164 0.6611 0.0
C1691 C 0.5587 0.80949 0.649 0.0
H1692 H 0.54571 0.29257 0.93691 0.0
H1693 H 0.54635 0.33429 0.90989 0.0
H1694 H 0.53514 0.27851 0.91501 0.0
H1695 H 0.53611 0.32038 0.88783 0.0
H1696 H 0.52926 0.2924 0.84606 0.0
H1697 H 0.54206 0.30354 0.86854 0.0
H1698 H 0.51643 0.27248 0.89813 0.0
H1699 H 0.50486 0.26073 0.87554 0.0
C1700 C 0.54361 0.29867 0.9262 0.0
C1701 C 0.54699 0.3144 0.92496 0.0
C1702 C 0.53757 0.29064 0.91358 0.0
C1703 C 0.53539 0.29804 0.89925 0.0
C1704 C 0.53826 0.31401 0.89835 0.0
C1705 C 0.54391 0.32209 0.91107 0.0
C1706 C 0.52704 0.28755 0.85737 0.0
C1707 C 0.51638 0.27556 0.85914 0.0
C1708 C 0.53401 0.29418 0.87034 0.0
C1709 C 0.52996 0.28933 0.88536 0.0
C1710 C 0.52001 0.27658 0.88691 0.0
C1711 C 0.5134 0.26972 0.87392 0.0
H1712 H 0.0816 0.77399 0.4455 0.0
H1713 H 0.04973 0.8123 0.44742 0.0
H1714 H 0.06763 0.76371 0.42306 0.0
H1715 H 0.03604 0.80212 0.4252 0.0
H1716 H 0.02999 0.79278 0.37423 0.0
H1717 H 0.04446 0.79971 0.39719 0.0
H1718 H 0.04006 0.75328 0.41438 0.0
H1719 H 0.02538 0.7461 0.39117 0.0
C1720 C 0.07157 0.78015 0.44129 0.0
C1721 C 0.06694 0.7941 0.44825 0.0
C1722 C 0.06355 0.77422 0.42846 0.0
C1723 C 0.05087 0.78223 0.42224 0.0
C1724 C 0.04593 0.79582 0.42955 0.0
C1725 C 0.05379 0.80163 0.44236 0.0
C1726 C 0.03208 0.78393 0.3828 0.0
C1727 C 0.02627 0.76887 0.38084 0.0
C1728 C 0.04034 0.78798 0.39602 0.0
C1729 C 0.04316 0.77715 0.40771 0.0
C1730 C 0.03803 0.76189 0.40556 0.0
C1731 C 0.02961 0.7578 0.39228 0.0
H1732 H 0.55091 0.75179 0.67782 0.0
H1733 H 0.52356 0.78482 0.65274 0.0
H1734 H 0.54131 0.76201 0.7021 0.0
H1735 H 0.51225 0.79392 0.67688 0.0
H1736 H 0.50382 0.81849 0.72113 0.0
H1737 H 0.51618 0.80897 0.69787 0.0
H1738 H 0.52281 0.76455 0.71985 0.0
H1739 H 0.51065 0.77454 0.74298 0.0
C1740 C 0.54244 0.761 0.67758 0.0
C1741 C 0.53814 0.76775 0.66356 0.0
C1742 C 0.53679 0.76683 0.69152 0.0
C1743 C 0.52612 0.77912 0.69171 0.0
C1744 C 0.5209 0.78494 0.67741 0.0
C1745 C 0.52717 0.7796 0.66351 0.0
C1746 C 0.50875 0.80699 0.72118 0.0
C1747 C 0.50664 0.79728 0.7339 0.0
C1748 C 0.51555 0.80131 0.70767 0.0
C1749 C 0.52051 0.78581 0.70666 0.0
C1750 C 0.51944 0.77657 0.71998 0.0
C1751 C 0.51259 0.78227 0.7334 0.0
H1752 H 0.55247 0.24978 0.90884 0.0
H1753 H 0.58077 0.28069 0.93559 0.0
H1754 H 0.55729 0.26494 0.88582 0.0
H1755 H 0.5863 0.29584 0.9123 0.0
H1756 H 0.57698 0.28675 0.84413 0.0
H1757 H 0.57455 0.27173 0.86728 0.0
H1758 H 0.57528 0.31344 0.89466 0.0
H1759 H 0.57877 0.32866 0.87113 0.0
C1760 C 0.56008 0.25968 0.90961 0.0
C1761 C 0.56626 0.26415 0.92383 0.0
C1762 C 0.56297 0.26836 0.89641 0.0
C1763 C 0.57224 0.28171 0.89708 0.0
C1764 C 0.57891 0.28582 0.91135 0.0
C1765 C 0.57593 0.27708 0.92464 0.0
C1766 C 0.57655 0.29285 0.85502 0.0
C1767 C 0.57795 0.30901 0.85567 0.0
C1768 C 0.57507 0.28415 0.86841 0.0
C1769 C 0.57455 0.29128 0.88296 0.0
C1770 C 0.57581 0.30749 0.88369 0.0
C1771 C 0.57756 0.31626 0.87018 0.0
H1772 H 0.0185 0.28299 0.16512 0.0
H1773 H 0.05834 0.28454 0.13535 0.0
H1774 H 0.03546 0.27942 0.18756 0.0
H1775 H 0.07524 0.28096 0.15761 0.0
H1776 H 0.09763 0.30204 0.20107 0.0
H1777 H 0.08094 0.29959 0.17875 0.0
H1778 H 0.05612 0.26264 0.20104 0.0
H1779 H 0.07333 0.26483 0.22356 0.0
C1780 C 0.03085 0.2821 0.16333 0.0
C1781 C 0.03714 0.28427 0.14854 0.0
C1782 C 0.04056 0.28008 0.17617 0.0
C1783 C 0.05672 0.28017 0.1744 0.0
C1784 C 0.06287 0.28113 0.15942 0.0
C1785 C 0.0532 0.28316 0.14666 0.0
C1786 C 0.08866 0.29334 0.20127 0.0
C1787 C 0.0868 0.28366 0.21416 0.0
C1788 C 0.07913 0.29187 0.18838 0.0
C1789 C 0.06719 0.28091 0.18806 0.0
C1790 C 0.0652 0.27123 0.20096 0.0
C1791 C 0.07506 0.27244 0.21381 0.0
H1792 H 0.16011 0.10779 0.33678 0.0
H1793 H 0.13713 0.06675 0.32046 0.0
H1794 H 0.18175 0.09202 0.34588 0.0
H1795 H 0.15918 0.05113 0.3287 0.0
H1796 H 0.21128 0.03634 0.32462 0.0
H1797 H 0.18924 0.05282 0.31818 0.0
H1798 H 0.18604 0.06735 0.36569 0.0
H1799 H 0.20785 0.05057 0.37229 0.0
C1800 C 0.15956 0.09539 0.33535 0.0
C1801 C 0.1471 0.08849 0.32756 0.0
C1802 C 0.17198 0.08642 0.34044 0.0
C1803 C 0.1722 0.07048 0.33766 0.0
C1804 C 0.15937 0.06347 0.33069 0.0
C1805 C 0.14682 0.07238 0.32594 0.0
C1806 C 0.20599 0.04317 0.33366 0.0
C1807 C 0.21122 0.04213 0.34897 0.0
C1808 C 0.19334 0.05248 0.32999 0.0
C1809 C 0.18595 0.06118 0.3415 0.0
C1810 C 0.19157 0.06069 0.35666 0.0
C1811 C 0.204 0.0511 0.36041 0.0
H1812 H 0.30795 0.92104 0.53952 0.0
H1813 H 0.34009 0.8972 0.56904 0.0
H1814 H 0.29725 0.89631 0.53109 0.0
H1815 H 0.32945 0.87236 0.56067 0.0
H1816 H 0.31582 0.83289 0.52583 0.0
H1817 H 0.32684 0.8552 0.5388 0.0
H1818 H 0.28138 0.87555 0.54149 0.0
H1819 H 0.27044 0.85278 0.52921 0.0
C1820 C 0.31267 0.91045 0.5442 0.0
C1821 C 0.32453 0.91093 0.55516 0.0
C1822 C 0.30647 0.89631 0.53952 0.0
C1823 C 0.31211 0.88235 0.54562 0.0
C1824 C 0.32468 0.88287 0.5559 0.0
C1825 C 0.33072 0.89706 0.56076 0.0
C1826 C 0.30811 0.84165 0.53018 0.0
C1827 C 0.29227 0.84091 0.52684 0.0
C1828 C 0.31444 0.85463 0.53736 0.0
C1829 C 0.30506 0.86737 0.54093 0.0
C1830 C 0.28899 0.86605 0.53876 0.0
C1831 C 0.28263 0.85284 0.532 0.0
H1832 H 0.38948 0.072 0.85444 0.0
H1833 H 0.36657 0.04511 0.81939 0.0
H1834 H 0.41057 0.05308 0.85513 0.0
H1835 H 0.38721 0.02597 0.82052 0.0
H1836 H 0.42337 0.9897 0.83093 0.0
H1837 H 0.40125 0.00637 0.83681 0.0
H1838 H 0.43103 0.04625 0.83526 0.0
H1839 H 0.45306 0.02958 0.82956 0.0
C1840 C 0.38875 0.06184 0.84721 0.0
C1841 C 0.37641 0.06004 0.83684 0.0
C1842 C 0.40087 0.05107 0.84752 0.0
C1843 C 0.40067 0.03808 0.83775 0.0
C1844 C 0.38779 0.03583 0.82813 0.0
C1845 C 0.37594 0.0468 0.8275 0.0
C1846 C 0.42523 0.00198 0.83225 0.0
C1847 C 0.43992 0.00836 0.82966 0.0
C1848 C 0.41255 0.01155 0.83549 0.0
C1849 C 0.41435 0.02766 0.83646 0.0
C1850 C 0.42923 0.0339 0.83475 0.0
C1851 C 0.44184 0.02437 0.83134 0.0
H1852 H 0.33345 0.22534 0.05258 0.0
H1853 H 0.36486 0.19653 0.02674 0.0
H1854 H 0.32716 0.20356 0.06929 0.0
H1855 H 0.35837 0.17463 0.0434 0.0
H1856 H 0.3229 0.13754 0.06209 0.0
H1857 H 0.33395 0.15879 0.04726 0.0
H1858 H 0.33882 0.18542 0.08907 0.0
H1859 H 0.32771 0.1641 0.10394 0.0
C1860 C 0.33912 0.21438 0.05056 0.0
C1861 C 0.34963 0.21266 0.0383 0.0
C1862 C 0.33558 0.20193 0.06019 0.0
C1863 C 0.34223 0.18736 0.05765 0.0
C1864 C 0.35299 0.1857 0.04559 0.0
C1865 C 0.35677 0.19826 0.03612 0.0
C1866 C 0.3266 0.14782 0.06816 0.0
C1867 C 0.3244 0.14916 0.08419 0.0
C1868 C 0.333 0.15997 0.05967 0.0
C1869 C 0.33721 0.17382 0.06698 0.0
C1870 C 0.33558 0.17493 0.0831 0.0
C1871 C 0.32937 0.16267 0.09164 0.0
H1872 H 0.18937 0.10557 0.28464 0.0
H1873 H 0.21962 0.06615 0.28614 0.0
H1874 H 0.1672 0.08867 0.28165 0.0
H1875 H 0.19745 0.04895 0.28463 0.0
H1876 H 0.15675 0.01912 0.27557 0.0
H1877 H 0.17793 0.03725 0.27172 0.0
H1878 H 0.15083 0.07305 0.29354 0.0
H1879 H 0.12962 0.05516 0.29653 0.0
C1880 C 0.19118 0.0932 0.28455 0.0
C1881 C 0.20612 0.08711 0.28569 0.0
C1882 C 0.17844 0.08341 0.28294 0.0
C1883 C 0.18027 0.06721 0.28299 0.0
C1884 C 0.19539 0.06124 0.28413 0.0
C1885 C 0.20816 0.07108 0.28521 0.0
C1886 C 0.15527 0.03098 0.27921 0.0
C1887 C 0.14168 0.03564 0.28671 0.0
C1888 C 0.16754 0.04138 0.27727 0.0
C1889 C 0.16651 0.05666 0.28284 0.0
C1890 C 0.15235 0.06148 0.28921 0.0
C1891 C 0.14014 0.05114 0.29108 0.0
H1892 H 0.25929 0.92333 0.5409 0.0
H1893 H 0.26985 0.94714 0.58339 0.0
H1894 H 0.2751 0.90178 0.54908 0.0
H1895 H 0.28604 0.92552 0.59152 0.0
H1896 H 0.32167 0.88478 0.59552 0.0
H1897 H 0.30862 0.90879 0.58805 0.0
H1898 H 0.27142 0.88225 0.56824 0.0
H1899 H 0.28428 0.8586 0.57554 0.0
C1900 C 0.2654 0.92419 0.55178 0.0
C1901 C 0.26312 0.93686 0.56157 0.0
C1902 C 0.27438 0.91171 0.55658 0.0
C1903 C 0.28164 0.91173 0.57113 0.0
C1904 C 0.28057 0.92506 0.5803 0.0
C1905 C 0.2713 0.93745 0.57562 0.0
C1906 C 0.31065 0.88413 0.58968 0.0
C1907 C 0.30417 0.86974 0.58593 0.0
C1908 C 0.30316 0.89788 0.5854 0.0
C1909 C 0.28923 0.89745 0.57702 0.0
C1910 C 0.28244 0.88305 0.57407 0.0
C1911 C 0.28979 0.86943 0.57842 0.0
H1912 H 0.45953 0.03787 0.80333 0.0
H1913 H 0.43993 0.07773 0.78085 0.0
H1914 H 0.43755 0.02238 0.79508 0.0
H1915 H 0.41778 0.06223 0.77266 0.0
H1916 H 0.38477 0.02516 0.75189 0.0
H1917 H 0.40825 0.04028 0.75673 0.0
H1918 H 0.4108 0.02141 0.80272 0.0
H1919 H 0.38761 0.00651 0.79801 0.0
C1920 C 0.45052 0.04332 0.79661 0.0
C1921 C 0.45136 0.0591 0.79301 0.0
C1922 C 0.4379 0.03445 0.79187 0.0
C1923 C 0.42573 0.04111 0.78343 0.0
C1924 C 0.42696 0.05671 0.7791 0.0
C1925 C 0.43965 0.0656 0.78382 0.0
C1926 C 0.39035 0.0243 0.76304 0.0
C1927 C 0.38419 0.01469 0.77459 0.0
C1928 C 0.40377 0.03299 0.76583 0.0
C1929 C 0.41146 0.03202 0.78012 0.0
C1930 C 0.40531 0.02234 0.79155 0.0
C1931 C 0.39186 0.01389 0.78887 0.0
H1932 H 0.26756 0.21252 0.08881 0.0
H1933 H 0.30429 0.23286 0.06211 0.0
H1934 H 0.26794 0.18975 0.07189 0.0
H1935 H 0.30413 0.21049 0.04477 0.0
H1936 H 0.28834 0.17235 0.01007 0.0
H1937 H 0.28379 0.19551 0.02571 0.0
H1938 H 0.29177 0.16914 0.06715 0.0
H1939 H 0.29656 0.14604 0.05151 0.0
C1940 C 0.27537 0.21231 0.07904 0.0
C1941 C 0.2858 0.22449 0.07666 0.0
C1942 C 0.27566 0.19926 0.06946 0.0
C1943 C 0.28608 0.19838 0.05704 0.0
C1944 C 0.29596 0.21091 0.05421 0.0
C1945 C 0.29602 0.22371 0.06409 0.0
C1946 C 0.28882 0.17144 0.02252 0.0
C1947 C 0.29284 0.1574 0.02958 0.0
C1948 C 0.28633 0.1847 0.03145 0.0
C1949 C 0.2874 0.1841 0.04762 0.0
C1950 C 0.29073 0.1699 0.05471 0.0
C1951 C 0.29356 0.15672 0.04577 0.0
H1952 H 0.81789 0.45634 0.03065 0.0
H1953 H 0.83588 0.42853 0.99343 0.0
H1954 H 0.82329 0.43564 0.04882 0.0
H1955 H 0.84129 0.40764 0.01177 0.0
H1956 H 0.85718 0.37721 0.0542 0.0
H1957 H 0.85626 0.39889 0.03587 0.0
H1958 H 0.81058 0.41047 0.05205 0.0
H1959 H 0.81143 0.38923 0.07008 0.0
C1960 C 0.82311 0.44583 0.02635 0.0
C1961 C 0.82617 0.44401 0.01051 0.0
C1962 C 0.8262 0.43394 0.03678 0.0
C1963 C 0.83245 0.41985 0.03171 0.0
C1964 C 0.83648 0.41835 0.01605 0.0
C1965 C 0.83337 0.43032 0.00554 0.0
C1966 C 0.84697 0.38441 0.05382 0.0
C1967 C 0.83439 0.38137 0.06364 0.0
C1968 C 0.84642 0.39678 0.04329 0.0
C1969 C 0.83339 0.40651 0.04258 0.0
C1970 C 0.82089 0.4034 0.05241 0.0
C1971 C 0.82136 0.39106 0.06271 0.0
H1972 H 0.84617 0.53011 0.29348 0.0
H1973 H 0.8763 0.50149 0.2662 0.0
H1974 H 0.86858 0.54186 0.30592 0.0
H1975 H 0.89869 0.51251 0.27889 0.0
H1976 H 0.93734 0.5433 0.2968 0.0
H1977 H 0.91556 0.53192 0.28316 0.0
H1978 H 0.88733 0.5372 0.32405 0.0
H1979 H 0.90939 0.5482 0.33761 0.0
C1980 C 0.85765 0.52673 0.28983 0.0
C1981 C 0.85961 0.51524 0.27865 0.0
C1982 C 0.87053 0.53315 0.29719 0.0
C1983 C 0.88562 0.52806 0.29364 0.0
C1984 C 0.88743 0.51698 0.2819 0.0
C1985 C 0.87458 0.51068 0.27451 0.0
C1986 C 0.9264 0.54208 0.30273 0.0
C1987 C 0.92483 0.54687 0.31806 0.0
C1988 C 0.91388 0.53547 0.295 0.0
C1989 C 0.89935 0.53407 0.30224 0.0
C1990 C 0.89806 0.53858 0.31781 0.0
C1991 C 0.9107 0.54481 0.32564 0.0
H1992 H 0.80902 0.65969 0.55656 0.0
H1993 H 0.82843 0.69988 0.53481 0.0
H1994 H 0.7883 0.67526 0.56726 0.0
H1995 H 0.80785 0.71583 0.54559 0.0
H1996 H 0.76388 0.74035 0.55526 0.0
H1997 H 0.78257 0.72274 0.54359 0.0
H1998 H 0.77838 0.6927 0.58329 0.0
H1999 H 0.75908 0.70966 0.59393 0.0
C2000 C 0.8089 0.67199 0.55431 0.0
C2001 C 0.8201 0.67864 0.54479 0.0
C2002 C 0.79705 0.68103 0.56051 0.0
C2003 C 0.79597 0.69692 0.55708 0.0
C2004 C 0.8078 0.7036 0.54809 0.0
C2005 C 0.81972 0.69454 0.54202 0.0
C2006 C 0.76634 0.72949 0.56092 0.0
C2007 C 0.75968 0.72612 0.57527 0.0
C2008 C 0.77749 0.7196 0.55455 0.0
C2009 C 0.78255 0.70638 0.56266 0.0
C2010 C 0.77492 0.70256 0.57648 0.0
C2011 C 0.76358 0.71223 0.58258 0.0
H2012 H 0.93433 0.57845 0.28034 0.0
H2013 H 0.90624 0.54729 0.25365 0.0
H2014 H 0.91211 0.58425 0.29702 0.0
H2015 H 0.88421 0.55286 0.26997 0.0
H2016 H 0.84373 0.57498 0.29161 0.0
H2017 H 0.86622 0.5711 0.27603 0.0
H2018 H 0.89514 0.57428 0.31656 0.0
H2019 H 0.87213 0.57893 0.33242 0.0
C2020 C 0.92337 0.57288 0.2781 0.0
C2021 C 0.92192 0.56228 0.26594 0.0
C2022 C 0.91068 0.57611 0.28765 0.0
C2023 C 0.89629 0.56902 0.28494 0.0
C2024 C 0.89495 0.55876 0.27239 0.0
C2025 C 0.90761 0.55539 0.26307 0.0
C2026 C 0.8548 0.57473 0.2974 0.0
C2027 C 0.85602 0.57728 0.31341 0.0
C2028 C 0.86783 0.57244 0.28835 0.0
C2029 C 0.88261 0.57218 0.29495 0.0
C2030 C 0.88395 0.57449 0.31102 0.0
C2031 C 0.87076 0.57697 0.32017 0.0
H2032 H 0.71654 0.49325 0.81975 0.0
H2033 H 0.7349 0.50999 0.77663 0.0
H2034 H 0.69189 0.5055 0.81394 0.0
H2035 H 0.71057 0.52132 0.77033 0.0
H2036 H 0.67125 0.55448 0.76777 0.0
H2037 H 0.69432 0.53981 0.77227 0.0
H2038 H 0.66903 0.50906 0.80233 0.0
H2039 H 0.64545 0.52312 0.79628 0.0
C2040 C 0.7154 0.49978 0.80917 0.0
C2041 C 0.72782 0.50083 0.79881 0.0
C2042 C 0.7011 0.50662 0.80561 0.0
C2043 C 0.69894 0.51495 0.79172 0.0
C2044 C 0.71153 0.51581 0.78146 0.0
C2045 C 0.72568 0.5091 0.78503 0.0
C2046 C 0.6706 0.54456 0.77526 0.0
C2047 C 0.65649 0.54 0.7815 0.0
C2048 C 0.68399 0.53603 0.77801 0.0
C2049 C 0.68405 0.52326 0.7881 0.0
C2050 C 0.66985 0.51896 0.7948 0.0
C2051 C 0.65624 0.52711 0.79139 0.0
H2052 H 0.79292 0.45323 0.04441 0.0
H2053 H 0.7825 0.43079 0.08757 0.0
H2054 H 0.78187 0.43132 0.0303 0.0
H2055 H 0.77173 0.40872 0.07346 0.0
H2056 H 0.7794 0.36649 0.0379 0.0
H2057 H 0.78617 0.38887 0.05375 0.0
H2058 H 0.75369 0.41674 0.02836 0.0
H2059 H 0.74647 0.39415 0.01279 0.0
C2060 C 0.78815 0.44366 0.05085 0.0
C2061 C 0.78855 0.44369 0.06706 0.0
C2062 C 0.78175 0.43119 0.0428 0.0
C2063 C 0.7759 0.41836 0.05081 0.0
C2064 C 0.77612 0.41848 0.06702 0.0
C2065 C 0.7822 0.43112 0.07508 0.0
C2066 C 0.77346 0.37731 0.03593 0.0
C2067 C 0.76232 0.37856 0.0242 0.0
C2068 C 0.77735 0.3901 0.04499 0.0
C2069 C 0.7705 0.40453 0.04223 0.0
C2070 C 0.75914 0.40574 0.0307 0.0
C2071 C 0.75493 0.39281 0.0219 0.0
H2072 H 0.79041 0.64065 0.5206 0.0
H2073 H 0.75965 0.66653 0.54988 0.0
H2074 H 0.79893 0.66468 0.50825 0.0
H2075 H 0.76769 0.69028 0.53759 0.0
H2076 H 0.8185 0.71303 0.49637 0.0
H2077 H 0.8124 0.68861 0.50943 0.0
H2078 H 0.76531 0.70403 0.51563 0.0
H2079 H 0.77145 0.72799 0.50322 0.0
C2080 C 0.7858 0.65155 0.52462 0.0
C2081 C 0.77475 0.65188 0.53648 0.0
C2082 C 0.79062 0.66531 0.51754 0.0
C2083 C 0.78414 0.67958 0.5219 0.0
C2084 C 0.77296 0.67965 0.53373 0.0
C2085 C 0.76849 0.66604 0.54104 0.0
C2086 C 0.80698 0.71124 0.50088 0.0
C2087 C 0.79553 0.72254 0.49888 0.0
C2088 C 0.80339 0.69717 0.50819 0.0
C2089 C 0.78837 0.6943 0.5139 0.0
C2090 C 0.77711 0.70579 0.51192 0.0
C2091 C 0.78064 0.71963 0.50464 0.0
H2092 H 0.65992 0.55842 0.81917 0.0
H2093 H 0.69334 0.52557 0.83569 0.0
H2094 H 0.67954 0.56981 0.80216 0.0
H2095 H 0.71264 0.53613 0.81863 0.0
H2096 H 0.7488 0.56198 0.79393 0.0
H2097 H 0.72942 0.55445 0.81241 0.0
H2098 H 0.69371 0.56712 0.77987 0.0
H2099 H 0.71348 0.57321 0.76086 0.0
C2100 C 0.67145 0.55358 0.81897 0.0
C2101 C 0.67514 0.54089 0.82828 0.0
C2102 C 0.68272 0.56006 0.80927 0.0
C2103 C 0.69783 0.55393 0.80881 0.0
C2104 C 0.70138 0.54151 0.81867 0.0
C2105 C 0.6902 0.53515 0.82828 0.0
C2106 C 0.73678 0.56261 0.79052 0.0
C2107 C 0.73261 0.56834 0.77593 0.0
C2108 C 0.72556 0.55834 0.8012 0.0
C2109 C 0.70976 0.55966 0.79768 0.0
C2110 C 0.70565 0.56559 0.78309 0.0
C2111 C 0.71696 0.56916 0.77211 0.0
H2112 H 0.01122 0.42306 0.22158 0.0
H2113 H 0.97323 0.40782 0.24995 0.0
H2114 H 0.00231 0.44956 0.22387 0.0
H2115 H 0.96363 0.43418 0.25148 0.0
H2116 H 0.96044 0.48486 0.2655 0.0
H2117 H 0.96858 0.45798 0.26303 0.0
H2118 H 0.98367 0.467 0.21627 0.0
H2119 H 0.97651 0.49386 0.21923 0.0
C2120 C 0.00077 0.42539 0.22803 0.0
C2121 C 0.99292 0.41349 0.23561 0.0
C2122 C 0.99558 0.44057 0.22931 0.0
C2123 C 0.98222 0.44407 0.23789 0.0
C2124 C 0.97414 0.432 0.24508 0.0
C2125 C 0.97954 0.41687 0.24409 0.0
C2126 C 0.96554 0.48099 0.25476 0.0
C2127 C 0.96807 0.49137 0.24264 0.0
C2128 C 0.9701 0.4656 0.25326 0.0
C2129 C 0.97691 0.46029 0.23946 0.0
C2130 C 0.97891 0.4707 0.22721 0.0
C2131 C 0.97471 0.4861 0.22886 0.0
H2132 H 0.92007 0.82776 0.45072 0.0
H2133 H 0.92551 0.82535 0.50017 0.0
H2134 H 0.89341 0.81875 0.4533 0.0
H2135 H 0.89901 0.81633 0.50274 0.0
H2136 H 0.86739 0.7733 0.49465 0.0
H2137 H 0.89057 0.78935 0.49346 0.0
H2138 H 0.86629 0.82262 0.46544 0.0
H2139 H 0.8431 0.8067 0.4667 0.0
C2140 C 0.91533 0.82606 0.46216 0.0
C2141 C 0.92481 0.82706 0.47523 0.0
C2142 C 0.90014 0.82077 0.46364 0.0
C2143 C 0.89439 0.81646 0.47819 0.0
C2144 C 0.90333 0.81926 0.49138 0.0
C2145 C 0.91841 0.82457 0.48991 0.0
C2146 C 0.867 0.78405 0.48831 0.0
C2147 C 0.85348 0.78875 0.48079 0.0
C2148 C 0.88019 0.7933 0.48773 0.0
C2149 C 0.8801 0.80728 0.47947 0.0
C2150 C 0.86661 0.81192 0.4719 0.0
C2151 C 0.85338 0.8028 0.47265 0.0
H2152 H 0.59987 0.6116 0.73591 0.0
H2153 H 0.6446 0.62196 0.75535 0.0
H2154 H 0.59647 0.63862 0.72906 0.0
H2155 H 0.64108 0.64919 0.74857 0.0
H2156 H 0.61072 0.69303 0.76155 0.0
H2157 H 0.62077 0.66688 0.76122 0.0
H2158 H 0.6071 0.66208 0.71354 0.0
H2159 H 0.59716 0.68869 0.71378 0.0
C2160 C 0.60908 0.61963 0.73851 0.0
C2161 C 0.62236 0.61479 0.74646 0.0
C2162 C 0.6072 0.63505 0.73441 0.0
C2163 C 0.61849 0.64594 0.73835 0.0
C2164 C 0.6322 0.64096 0.74547 0.0
C2165 C 0.63419 0.62545 0.74938 0.0
C2166 C 0.61 0.68648 0.75092 0.0
C2167 C 0.60294 0.69273 0.73776 0.0
C2168 C 0.61595 0.67159 0.75069 0.0
C2169 C 0.61475 0.66253 0.73735 0.0
C2170 C 0.60817 0.66891 0.72396 0.0
C2171 C 0.60247 0.68404 0.7241 0.0
H2172 H 0.68528 0.35142 0.99719 0.0
H2173 H 0.70456 0.31465 0.96956 0.0
H2174 H 0.65954 0.34066 0.99341 0.0
H2175 H 0.67885 0.30379 0.96596 0.0
H2176 H 0.61772 0.31261 0.99729 0.0
H2177 H 0.64508 0.3175 0.00159 0.0
H2178 H 0.65398 0.31005 0.95311 0.0
H2179 H 0.62655 0.30487 0.94891 0.0
C2180 C 0.68401 0.34111 0.99025 0.0
C2181 C 0.69693 0.33389 0.9837 0.0
C2182 C 0.66931 0.33482 0.98824 0.0
C2183 C 0.66723 0.32121 0.9796 0.0
C2184 C 0.6801 0.31425 0.97269 0.0
C2185 C 0.69481 0.3205 0.97475 0.0
C2186 C 0.62565 0.31137 0.9877 0.0
C2187 C 0.6201 0.30845 0.97277 0.0
C2188 C 0.64125 0.3144 0.9901 0.0
C2189 C 0.65155 0.31465 0.9776 0.0
C2190 C 0.64628 0.31002 0.96295 0.0
C2191 C 0.63061 0.30689 0.96056 0.0
H2192 H 0.99567 0.61862 0.32792 0.0
H2193 H 0.94802 0.62862 0.31719 0.0
H2194 H 0.00043 0.64586 0.33264 0.0
H2195 H 0.95278 0.65606 0.32206 0.0
H2196 H 0.97322 0.70579 0.32046 0.0
H2197 H 0.96763 0.67919 0.31329 0.0
H2198 H 0.99193 0.66326 0.35379 0.0
H2199 H 0.9977 0.68991 0.3609 0.0
C2200 C 0.98628 0.62671 0.32627 0.0
C2201 C 0.97146 0.62154 0.32227 0.0
C2202 C 0.98897 0.64227 0.32915 0.0
C2203 C 0.97689 0.653 0.32809 0.0
C2204 C 0.96229 0.648 0.323 0.0
C2205 C 0.95959 0.63235 0.32011 0.0
C2206 C 0.97729 0.69661 0.3279 0.0
C2207 C 0.98601 0.69991 0.3412 0.0
C2208 C 0.97403 0.6814 0.3238 0.0
C2209 C 0.9795 0.66918 0.33286 0.0
C2210 C 0.98781 0.67248 0.34642 0.0
C2211 C 0.99101 0.68772 0.35058 0.0
H2212 H 0.67732 0.75514 0.58749 0.0
H2213 H 0.69301 0.78931 0.62026 0.0
H2214 H 0.65073 0.76357 0.59164 0.0
H2215 H 0.66649 0.79777 0.62429 0.0
H2216 H 0.61463 0.78889 0.64058 0.0
H2217 H 0.64242 0.78683 0.63596 0.0
H2218 H 0.6342 0.78656 0.58679 0.0
H2219 H 0.60653 0.78836 0.59144 0.0
C2220 C 0.6751 0.76447 0.59551 0.0
C2221 C 0.68722 0.77154 0.60353 0.0
C2222 C 0.65991 0.7694 0.5978 0.0
C2223 C 0.65658 0.78144 0.60819 0.0
C2224 C 0.66872 0.78846 0.61625 0.0
C2225 C 0.68389 0.78361 0.61389 0.0
C2226 C 0.61885 0.78907 0.62882 0.0
C2227 C 0.60853 0.78862 0.61636 0.0
C2228 C 0.63473 0.78777 0.62615 0.0
C2229 C 0.64039 0.78611 0.61101 0.0
C2230 C 0.63011 0.78741 0.59858 0.0
C2231 C 0.61431 0.78864 0.60124 0.0
H2232 H 0.59068 0.39359 0.85132 0.0
H2233 H 0.61297 0.39017 0.8069 0.0
H2234 H 0.59928 0.42018 0.85364 0.0
H2235 H 0.62256 0.41645 0.80959 0.0
H2236 H 0.62704 0.46882 0.81371 0.0
H2237 H 0.61668 0.44283 0.80977 0.0
H2238 H 0.62159 0.43378 0.85865 0.0
H2239 H 0.63084 0.45981 0.86254 0.0
C2240 C 0.59754 0.39855 0.84212 0.0
C2241 C 0.6012 0.38993 0.82896 0.0
C2242 C 0.60259 0.41374 0.84347 0.0
C2243 C 0.6118 0.42045 0.83188 0.0
C2244 C 0.61532 0.41177 0.81863 0.0
C2245 C 0.60992 0.39669 0.81712 0.0
C2246 C 0.6258 0.46119 0.82352 0.0
C2247 C 0.62949 0.46628 0.83842 0.0
C2248 C 0.61997 0.44631 0.82131 0.0
C2249 C 0.61809 0.43624 0.83394 0.0
C2250 C 0.62234 0.44132 0.84873 0.0
C2251 C 0.62778 0.45622 0.85096 0.0
H2252 H 0.95344 0.281 0.13743 0.0
H2253 H 0.95505 0.2756 0.08796 0.0
H2254 H 0.92816 0.29333 0.13524 0.0
H2255 H 0.92977 0.28774 0.08576 0.0
H2256 H 0.90366 0.3339 0.08672 0.0
H2257 H 0.92537 0.31627 0.09046 0.0
H2258 H 0.90019 0.29265 0.12636 0.0
H2259 H 0.8785 0.31027 0.12267 0.0
C2260 C 0.948 0.28162 0.12619 0.0
C2261 C 0.95623 0.27754 0.11284 0.0
C2262 C 0.93362 0.28888 0.12491 0.0
C2263 C 0.92733 0.29197 0.11028 0.0
C2264 C 0.93461 0.2859 0.09714 0.0
C2265 C 0.94893 0.2787 0.09843 0.0
C2266 C 0.90285 0.32509 0.09554 0.0
C2267 C 0.8894 0.32344 0.10436 0.0
C2268 C 0.91517 0.31486 0.09754 0.0
C2269 C 0.91429 0.30289 0.10849 0.0
C2270 C 0.90111 0.30168 0.11778 0.0
C2271 C 0.88875 0.3118 0.11567 0.0
H2272 H 0.20274 0.98342 0.49532 0.0
H2273 H 0.22963 0.94259 0.48547 0.0
H2274 H 0.20315 0.99025 0.46813 0.0
H2275 H 0.22963 0.94916 0.45814 0.0
H2276 H 0.20234 0.99743 0.41715 0.0
H2277 H 0.19644 0.98506 0.4417 0.0
H2278 H 0.24365 0.96915 0.44488 0.0
H2279 H 0.24939 0.98109 0.42016 0.0
C2280 C 0.20831 0.97565 0.48727 0.0
C2281 C 0.21641 0.96265 0.4925 0.0
C2282 C 0.2085 0.97953 0.47166 0.0
C2283 C 0.21668 0.97038 0.46104 0.0
C2284 C 0.22356 0.95662 0.46612 0.0
C2285 C 0.22348 0.95282 0.48174 0.0
C2286 C 0.21141 0.99118 0.42307 0.0
C2287 C 0.22637 0.99035 0.41688 0.0
C2288 C 0.20803 0.9841 0.43711 0.0
C2289 C 0.21957 0.97615 0.44524 0.0
C2290 C 0.23442 0.97496 0.43878 0.0
C2291 C 0.23777 0.98194 0.4247 0.0
H2292 H 0.32461 0.93469 0.63634 0.0
H2293 H 0.32764 0.98326 0.6255 0.0
H2294 H 0.32828 0.94068 0.66371 0.0
H2295 H 0.33129 0.98916 0.6527 0.0
H2296 H 0.32247 0.96174 0.71302 0.0
H2297 H 0.31614 0.95509 0.68637 0.0
H2298 H 0.35375 0.9836 0.6704 0.0
H2299 H 0.36009 0.99028 0.69701 0.0
C2300 C 0.32568 0.94664 0.63984 0.0
C2301 C 0.32595 0.9585 0.62882 0.0
C2302 C 0.32783 0.95005 0.65546 0.0
C2303 C 0.33034 0.96535 0.66022 0.0
C2304 C 0.3297 0.97725 0.64927 0.0
C2305 C 0.3275 0.97386 0.63373 0.0
C2306 C 0.32942 0.96654 0.70382 0.0
C2307 C 0.34174 0.97658 0.70706 0.0
C2308 C 0.32581 0.96269 0.6886 0.0
C2309 C 0.33437 0.96894 0.67638 0.0
C2310 C 0.34683 0.9788 0.67964 0.0
C2311 C 0.35052 0.98254 0.69485 0.0
H2312 H 0.28261 0.14689 0.94773 0.0
H2313 H 0.27545 0.09766 0.94847 0.0
H2314 H 0.29352 0.14488 0.92179 0.0
H2315 H 0.28613 0.09567 0.92254 0.0
H2316 H 0.31037 0.1303 0.87146 0.0
H2317 H 0.29214 0.13496 0.89261 0.0
H2318 H 0.3158 0.10093 0.92022 0.0
H2319 H 0.33402 0.09637 0.89931 0.0
C2320 C 0.28241 0.1358 0.94196 0.0
C2321 C 0.27849 0.12237 0.95014 0.0
C2322 C 0.28883 0.13463 0.92718 0.0
C2323 C 0.29114 0.12005 0.9205 0.0
C2324 C 0.2848 0.10699 0.92767 0.0
C2325 C 0.27847 0.10816 0.9424 0.0
C2326 C 0.31179 0.12399 0.88215 0.0
C2327 C 0.3236 0.11293 0.88374 0.0
C2328 C 0.30131 0.12661 0.89416 0.0
C2329 C 0.30234 0.118 0.90781 0.0
C2330 C 0.31452 0.10743 0.90962 0.0
C2331 C 0.32509 0.10497 0.89774 0.0
H2332 H 0.26622 0.09356 0.22925 0.0
H2333 H 0.28448 0.13728 0.24464 0.0
H2334 H 0.28216 0.09492 0.20623 0.0
H2335 H 0.30021 0.13892 0.22098 0.0
H2336 H 0.28379 0.11741 0.15998 0.0
H2337 H 0.27526 0.1178 0.18643 0.0
H2338 H 0.32246 0.12151 0.20197 0.0
H2339 H 0.33127 0.12157 0.17469 0.0
C2340 C 0.27372 0.10344 0.22771 0.0
C2341 C 0.27385 0.11552 0.23843 0.0
C2342 C 0.28297 0.10412 0.21466 0.0
C2343 C 0.29228 0.11707 0.21188 0.0
C2344 C 0.2932 0.12878 0.22301 0.0
C2345 C 0.28408 0.12793 0.23636 0.0
C2346 C 0.29245 0.1184 0.16896 0.0
C2347 C 0.30822 0.11908 0.16537 0.0
C2348 C 0.28753 0.11866 0.18409 0.0
C2349 C 0.29823 0.11932 0.19614 0.0
C2350 C 0.31405 0.12089 0.19275 0.0
C2351 C 0.31906 0.12087 0.17728 0.0
H2352 H 0.41013 0.26671 0.97688 0.0
H2353 H 0.4236 0.22383 0.99847 0.0
H2354 H 0.43697 0.27175 0.97008 0.0
H2355 H 0.45041 0.22879 0.99146 0.0
H2356 H 0.48666 0.26575 0.94916 0.0
H2357 H 0.45907 0.26214 0.95412 0.0
H2358 H 0.4694 0.24809 0.00082 0.0
H2359 H 0.4968 0.25151 0.99585 0.0
C2360 C 0.4188 0.25825 0.97997 0.0
C2361 C 0.41483 0.24495 0.98836 0.0
C2362 C 0.43414 0.26114 0.97603 0.0
C2363 C 0.44576 0.2508 0.98048 0.0
C2364 C 0.44168 0.23712 0.98819 0.0
C2365 C 0.42634 0.23421 0.99208 0.0
C2366 C 0.48296 0.26225 0.96057 0.0
C2367 C 0.49382 0.2588 0.97209 0.0
C2368 C 0.46721 0.2601 0.96338 0.0
C2369 C 0.46218 0.25448 0.97774 0.0
C2370 C 0.47301 0.25201 0.98951 0.0
C2371 C 0.48867 0.25413 0.98671 0.0
H2372 H 0.08633 0.90509 0.32832 0.0
H2373 H 0.12423 0.87941 0.30851 0.0
H2374 H 0.08955 0.92488 0.30859 0.0
H2375 H 0.12745 0.89931 0.28876 0.0
H2376 H 0.08671 0.9513 0.26713 0.0
H2377 H 0.08575 0.92599 0.2793 0.0
H2378 H 0.13482 0.92815 0.28765 0.0
H2379 H 0.13576 0.95341 0.2753 0.0
C2380 C 0.09547 0.90377 0.31989 0.0
C2381 C 0.10501 0.89071 0.31996 0.0
C2382 C 0.09716 0.91496 0.30844 0.0
C2383 C 0.1085 0.91338 0.29691 0.0
C2384 C 0.11851 0.90068 0.29739 0.0
C2385 C 0.1167 0.88938 0.30875 0.0
C2386 C 0.09745 0.9459 0.27063 0.0
C2387 C 0.11125 0.95436 0.27053 0.0
C2388 C 0.09685 0.93157 0.27788 0.0
C2389 C 0.1101 0.92548 0.28496 0.0
C2390 C 0.1244 0.93269 0.28245 0.0
C2391 C 0.12498 0.94707 0.27513 0.0
H2392 H 0.14344 0.79477 0.51526 0.0
H2393 H 0.14653 0.76977 0.47226 0.0
H2394 H 0.17097 0.79283 0.51859 0.0
H2395 H 0.17438 0.76701 0.47597 0.0
H2396 H 0.2205 0.79416 0.47317 0.0
H2397 H 0.19406 0.78515 0.47271 0.0
H2398 H 0.19462 0.78112 0.52248 0.0
H2399 H 0.22094 0.79113 0.52289 0.0
C2400 C 0.14999 0.78838 0.50673 0.0
C2401 C 0.14292 0.7828 0.49327 0.0
C2402 C 0.16587 0.7871 0.50873 0.0
C2403 C 0.17505 0.78006 0.49737 0.0
C2404 C 0.1677 0.77291 0.48474 0.0
C2405 C 0.15174 0.77433 0.48266 0.0
C2406 C 0.21502 0.79119 0.48401 0.0
C2407 C 0.22262 0.79366 0.49809 0.0
C2408 C 0.19988 0.7858 0.48375 0.0
C2409 C 0.19205 0.7825 0.49758 0.0
C2410 C 0.20013 0.7839 0.51162 0.0
C2411 C 0.21521 0.78962 0.51189 0.0
H2412 H 0.49657 0.86736 0.78486 0.0
H2413 H 0.45588 0.84815 0.80633 0.0
H2414 H 0.49521 0.88942 0.8022 0.0
H2415 H 0.45472 0.87007 0.82393 0.0
H2416 H 0.44724 0.92384 0.83128 0.0
H2417 H 0.44861 0.89736 0.82195 0.0
H2418 H 0.49802 0.89748 0.82883 0.0
H2419 H 0.49662 0.92414 0.83764 0.0
C2420 C 0.48743 0.86779 0.79337 0.0
C2421 C 0.47629 0.8561 0.79415 0.0
C2422 C 0.48673 0.88034 0.80345 0.0
C2423 C 0.47492 0.88142 0.81457 0.0
C2424 C 0.4639 0.8696 0.81547 0.0
C2425 C 0.46458 0.85707 0.80536 0.0
C2426 C 0.45826 0.91792 0.83155 0.0
C2427 C 0.47185 0.92599 0.83503 0.0
C2428 C 0.45909 0.90277 0.82608 0.0
C2429 C 0.47351 0.89551 0.8242 0.0
C2430 C 0.48681 0.90295 0.82971 0.0
C2431 C 0.48599 0.91811 0.83499 0.0
H2432 H 0.0933 0.17447 0.32654 0.0
H2433 H 0.14299 0.17151 0.32796 0.0
H2434 H 0.09511 0.20002 0.31497 0.0
H2435 H 0.14483 0.19703 0.31614 0.0
H2436 H 0.13791 0.24682 0.29485 0.0
H2437 H 0.13746 0.22654 0.31452 0.0
H2438 H 0.10519 0.20063 0.28679 0.0
H2439 H 0.10565 0.22072 0.26716 0.0
C2440 C 0.10459 0.17969 0.3252 0.0
C2441 C 0.118 0.17104 0.32788 0.0
C2442 C 0.10564 0.19418 0.31838 0.0
C2443 C 0.1201 0.20013 0.31418 0.0
C2444 C 0.13355 0.19257 0.31915 0.0
C2445 C 0.13249 0.17805 0.32609 0.0
C2446 C 0.13087 0.23668 0.29289 0.0
C2447 C 0.12176 0.23533 0.2795 0.0
C2448 C 0.13057 0.22518 0.30418 0.0
C2449 C 0.12097 0.21231 0.30233 0.0
C2450 C 0.11236 0.21069 0.28867 0.0
C2451 C 0.1128 0.22206 0.27733 0.0
H2452 H 0.46606 0.14103 0.77603 0.0
H2453 H 0.51549 0.13539 0.77801 0.0
H2454 H 0.46912 0.16885 0.77756 0.0
H2455 H 0.51872 0.1633 0.77873 0.0
H2456 H 0.51341 0.20235 0.81511 0.0
H2457 H 0.51374 0.17787 0.80152 0.0
H2458 H 0.47772 0.19417 0.77102 0.0
H2459 H 0.47707 0.21853 0.78505 0.0
C2460 C 0.47761 0.14582 0.77586 0.0
C2461 C 0.49053 0.1362 0.77721 0.0
C2462 C 0.47941 0.16179 0.77677 0.0
C2463 C 0.49418 0.16824 0.77881 0.0
C2464 C 0.50718 0.15862 0.7777 0.0
C2465 C 0.50536 0.14267 0.7771 0.0
C2466 C 0.5057 0.20076 0.8054 0.0
C2467 C 0.49503 0.21219 0.80132 0.0
C2468 C 0.50601 0.1868 0.79744 0.0
C2469 C 0.49574 0.18405 0.78513 0.0
C2470 C 0.48564 0.19586 0.78054 0.0
C2471 C 0.48525 0.20978 0.78861 0.0
H2472 H 0.24818 0.30011 0.13431 0.0
H2473 H 0.22273 0.27551 0.09917 0.0
H2474 H 0.2282 0.32011 0.13478 0.0
H2475 H 0.20293 0.29542 0.09965 0.0
H2476 H 0.17328 0.33253 0.14112 0.0
H2477 H 0.19918 0.32156 0.14185 0.0
H2478 H 0.20154 0.32393 0.09216 0.0
H2479 H 0.17551 0.33455 0.09145 0.0
C2480 C 0.23827 0.29891 0.12679 0.0
C2481 C 0.23699 0.28625 0.11668 0.0
C2482 C 0.22694 0.3104 0.12701 0.0
C2483 C 0.2143 0.30952 0.11694 0.0
C2484 C 0.21282 0.29662 0.1072 0.0
C2485 C 0.22402 0.28508 0.1071 0.0
C2486 C 0.17974 0.3317 0.13044 0.0
C2487 C 0.17236 0.33403 0.1162 0.0
C2488 C 0.19452 0.32522 0.13085 0.0
C2489 C 0.20201 0.32135 0.11701 0.0
C2490 C 0.19575 0.32643 0.10296 0.0
C2491 C 0.18098 0.33276 0.10256 0.0
H2492 H 0.38784 0.86018 0.60334 0.0
H2493 H 0.38521 0.81038 0.60368 0.0
H2494 H 0.41557 0.85861 0.60844 0.0
H2495 H 0.41282 0.80887 0.60877 0.0
H2496 H 0.46061 0.81481 0.63275 0.0
H2497 H 0.43251 0.8159 0.62949 0.0
H2498 H 0.43806 0.84885 0.59256 0.0
H2499 H 0.46588 0.84779 0.59571 0.0
C2500 C 0.39317 0.84893 0.60453 0.0
C2501 C 0.38444 0.83541 0.60293 0.0
C2502 C 0.409 0.84803 0.60743 0.0
C2503 C 0.41628 0.83361 0.60893 0.0
C2504 C 0.40746 0.82012 0.60777 0.0
C2505 C 0.39169 0.82101 0.60473 0.0
C2506 C 0.4558 0.82216 0.62386 0.0
C2507 C 0.46542 0.83122 0.61451 0.0
C2508 C 0.43976 0.82281 0.62203 0.0
C2509 C 0.43318 0.83262 0.61091 0.0
C2510 C 0.44284 0.84143 0.60141 0.0
C2511 C 0.45878 0.8407 0.60315 0.0
H2512 H 0.83585 0.49422 0.92187 0.0
H2513 H 0.82912 0.4451 0.92609 0.0
H2514 H 0.82392 0.49374 0.89641 0.0
H2515 H 0.81698 0.44459 0.9007 0.0
H2516 H 0.79908 0.45012 0.85107 0.0
H2517 H 0.8173 0.44943 0.87244 0.0
H2518 H 0.79565 0.48981 0.89207 0.0
H2519 H 0.77745 0.49064 0.8705 0.0
C2520 C 0.83254 0.4832 0.91699 0.0
C2521 C 0.83326 0.46972 0.92594 0.0
C2522 C 0.82543 0.48297 0.90257 0.0
C2523 C 0.81902 0.46924 0.89688 0.0
C2524 C 0.82171 0.45538 0.90488 0.0
C2525 C 0.82888 0.45561 0.91933 0.0
C2526 C 0.79814 0.45883 0.85999 0.0
C2527 C 0.78684 0.47048 0.85913 0.0
C2528 C 0.80862 0.45841 0.8722 0.0
C2529 C 0.80808 0.4697 0.88375 0.0
C2530 C 0.79656 0.48116 0.88309 0.0
C2531 C 0.78599 0.48152 0.8709 0.0
H2532 H 0.77759 0.49038 0.2236 0.0
H2533 H 0.81335 0.52031 0.20609 0.0
H2534 H 0.76552 0.48977 0.19822 0.0
H2535 H 0.80167 0.51932 0.18062 0.0
H2536 H 0.782 0.51668 0.13564 0.0
H2537 H 0.78142 0.52415 0.16275 0.0
H2538 H 0.77331 0.47658 0.17538 0.0
H2539 H 0.7732 0.46938 0.14824 0.0
C2540 C 0.78272 0.49704 0.21435 0.0
C2541 C 0.79654 0.50521 0.21669 0.0
C2542 C 0.77582 0.49666 0.19982 0.0
C2543 C 0.78271 0.5043 0.18731 0.0
C2544 C 0.7959 0.51343 0.19 0.0
C2545 C 0.80271 0.51394 0.20459 0.0
C2546 C 0.77942 0.50799 0.14424 0.0
C2547 C 0.77786 0.49245 0.14 0.0
C2548 C 0.77923 0.51222 0.15975 0.0
C2549 C 0.77782 0.50091 0.17125 0.0
C2550 C 0.77442 0.48563 0.16685 0.0
C2551 C 0.77434 0.48145 0.15128 0.0
H2552 H 0.85141 0.60511 0.39598 0.0
H2553 H 0.80248 0.61419 0.39228 0.0
H2554 H 0.85093 0.61414 0.42269 0.0
H2555 H 0.80204 0.62314 0.41894 0.0
H2556 H 0.81351 0.65196 0.46348 0.0
H2557 H 0.81262 0.64442 0.43618 0.0
H2558 H 0.83881 0.60334 0.44671 0.0
H2559 H 0.83972 0.61077 0.4737 0.0
C2560 C 0.84059 0.60907 0.40085 0.0
C2561 C 0.82696 0.60875 0.39215 0.0
C2562 C 0.8403 0.61419 0.41612 0.0
C2563 C 0.8264 0.61919 0.42287 0.0
C2564 C 0.81289 0.61939 0.41399 0.0
C2565 C 0.81315 0.61416 0.39878 0.0
C2566 C 0.81881 0.6412 0.45995 0.0
C2567 C 0.82676 0.632 0.47064 0.0
C2568 C 0.81837 0.63693 0.44437 0.0
C2569 C 0.82593 0.62346 0.43936 0.0
C2570 C 0.83323 0.61397 0.45022 0.0
C2571 C 0.83362 0.61818 0.46568 0.0
H2572 H 0.76949 0.63148 0.619 0.0
H2573 H 0.74622 0.5882 0.6106 0.0
H2574 H 0.76724 0.62724 0.64673 0.0
H2575 H 0.74425 0.58383 0.63829 0.0
H2576 H 0.73112 0.58854 0.68959 0.0
H2577 H 0.73144 0.59375 0.66177 0.0
H2578 H 0.77856 0.60968 0.66539 0.0
H2579 H 0.77817 0.60481 0.69287 0.0
C2580 C 0.76402 0.62102 0.62308 0.0
C2581 C 0.75815 0.61012 0.61266 0.0
C2582 C 0.76271 0.61859 0.63894 0.0
C2583 C 0.75557 0.60519 0.64466 0.0
C2584 C 0.74962 0.59434 0.63422 0.0
C2585 C 0.7509 0.59679 0.61837 0.0
C2586 C 0.7415 0.59316 0.68438 0.0
C2587 C 0.75459 0.59628 0.69337 0.0
C2588 C 0.74171 0.5961 0.6685 0.0
C2589 C 0.75501 0.60222 0.66145 0.0
C2590 C 0.76805 0.60526 0.67051 0.0
C2591 C 0.76784 0.60235 0.68627 0.0
loop_
_geom_bond_atom_site_label_1
_geom_bond_atom_site_label_2
_geom_bond_distance
_geom_bond_site_symmetry_2
_ccdc_geom_bond_type
Co0 O1 2.216 1_455 S
Co0 O2 2.091 . S
Co0 O4 2.004 . S
Co0 O10 2.021 1_455 S
Co0 O12 2.137 . S
Co0 O13 2.244 . S
O1 Co0 2.216 1_655 S
O1 C8 1.247 . S
O2 Co0 2.091 . S
O2 C8 1.261 1_455 S
C3 O12 1.247 . S
C3 O13 1.272 . S
O4 Co0 2.004 . S
O4 C9 1.259 . S
Co5 O6 2.061 . S
Co5 O11 2.052 1_455 S
Co5 O13 2.135 . S
O6 Co5 2.061 . S
O6 C9 1.235 . S
C7 O10 1.238 . S
C7 O11 1.241 . S
C8 O1 1.247 . S
C8 O2 1.261 1_655 S
C9 O4 1.259 . S
C9 O6 1.235 . S
O10 Co0 2.021 1_655 S
O10 C7 1.238 . S
O11 Co5 2.052 1_655 S
O11 C7 1.241 . S
O12 Co0 2.137 . S
O12 C3 1.247 . S
O13 Co0 2.244 . S
O13 C3 1.272 . S
O13 Co5 2.135 . S
Co14 O15 2.216 . S
Co14 O16 2.091 . S
Co14 O18 2.004 . S
Co14 O24 2.021 . S
Co14 O26 2.137 . S
Co14 O27 2.244 . S
O15 Co14 2.216 . S
O15 C22 1.247 . S
O16 Co14 2.091 . S
O16 C22 1.261 . S
C17 O26 1.247 . S
C17 O27 1.272 . S
O18 Co14 2.004 . S
O18 C23 1.259 . S
Co19 O20 2.071 . S
Co19 O25 2.052 1_455 S
Co19 O27 2.135 1_455 S
O20 Co19 2.071 . S
O20 C23 1.208 1_455 S
C21 O24 1.238 . S
C21 O25 1.241 . S
C22 O15 1.247 . S
C22 O16 1.261 . S
C23 O18 1.259 . S
C23 O20 1.208 1_655 S
O24 Co14 2.021 . S
O24 C21 1.238 . S
O25 Co19 2.052 1_655 S
O25 C21 1.241 . S
O26 Co14 2.137 . S
O26 C17 1.247 . S
O27 Co14 2.244 . S
O27 C17 1.272 . S
O27 Co19 2.135 1_655 S
Co28 O29 2.216 . S
Co28 O30 2.091 . S
Co28 O32 2.004 . S
Co28 O38 2.021 . S
Co28 O40 2.137 . S
Co28 O41 2.244 . S
O29 Co28 2.216 . S
O29 C36 1.247 . S
O30 Co28 2.091 . S
O30 C36 1.261 . S
C31 O40 1.247 . S
C31 O41 1.272 . S
O32 Co28 2.004 . S
O32 C37 1.259 . S
Co33 O34 2.061 . S
Co33 O39 2.052 . S
Co33 O41 2.135 . S
O34 Co33 2.061 . S
O34 C37 1.235 . S
C35 O38 1.238 . S
C35 O39 1.241 . S
C36 O29 1.247 . S
C36 O30 1.261 . S
C37 O32 1.259 . S
C37 O34 1.235 . S
O38 Co28 2.021 . S
O38 C35 1.238 . S
O39 Co33 2.052 . S
O39 C35 1.241 . S
O40 Co28 2.137 . S
O40 C31 1.247 . S
O41 Co28 2.244 . S
O41 C31 1.272 . S
O41 Co33 2.135 . S
Co42 O43 2.216 . S
Co42 O44 2.091 . S
Co42 O46 2.004 . S
Co42 O52 2.021 . S
Co42 O54 2.137 . S
Co42 O55 2.244 . S
O43 Co42 2.216 . S
O43 C50 1.247 . S
O44 Co42 2.091 . S
O44 C50 1.261 . S
C45 O54 1.247 . S
C45 O55 1.272 . S
O46 Co42 2.004 . S
O46 C51 1.259 . S
Co47 O48 2.061 . S
Co47 O53 2.052 . S
Co47 O55 2.135 . S
O48 Co47 2.061 . S
O48 C51 1.235 . S
C49 O52 1.238 . S
C49 O53 1.241 . S
C50 O43 1.247 . S
C50 O44 1.261 . S
C51 O46 1.259 . S
C51 O48 1.235 . S
O52 Co42 2.021 . S
O52 C49 1.238 . S
O53 Co47 2.052 . S
O53 C49 1.241 . S
O54 Co42 2.137 . S
O54 C45 1.247 . S
O55 Co42 2.244 . S
O55 C45 1.272 . S
O55 Co47 2.135 . S
Co56 O57 2.216 1_455 S
Co56 O58 2.091 1_455 S
Co56 O60 2.004 . S
Co56 O66 2.021 1_455 S
Co56 O68 2.137 . S
Co56 O69 2.244 . S
O57 Co56 2.216 1_655 S
O57 C64 1.247 . S
O58 Co56 2.091 1_655 S
O58 C64 1.261 . S
C59 O68 1.247 . S
C59 O69 1.272 . S
O60 Co56 2.004 . S
O60 C65 1.259 . S
Co61 O62 2.061 . S
Co61 O67 2.052 1_455 S
Co61 O69 2.135 . S
O62 Co61 2.061 . S
O62 C65 1.235 . S
C63 O66 1.238 . S
C63 O67 1.241 . S
C64 O57 1.247 . S
C64 O58 1.261 . S
C65 O60 1.259 . S
C65 O62 1.235 . S
O66 Co56 2.021 1_655 S
O66 C63 1.238 . S
O67 Co61 2.052 1_655 S
O67 C63 1.241 . S
O68 Co56 2.137 . S
O68 C59 1.247 . S
O69 Co56 2.244 . S
O69 C59 1.272 . S
O69 Co61 2.135 . S
Co70 O71 2.216 . S
Co70 O72 2.091 . S
Co70 O74 2.004 . S
Co70 O80 2.021 . S
Co70 O82 2.137 . S
Co70 O83 2.244 . S
O71 Co70 2.216 . S
O71 C78 1.247 . S
O72 Co70 2.091 . S
O72 C78 1.261 . S
C73 O82 1.247 . S
C73 O83 1.272 . S
O74 Co70 2.004 . S
O74 C79 1.259 . S
Co75 O76 2.061 . S
Co75 O81 2.052 . S
Co75 O83 2.135 . S
O76 Co75 2.061 . S
O76 C79 1.235 . S
C77 O80 1.238 . S
C77 O81 1.241 . S
C78 O71 1.247 . S
C78 O72 1.261 . S
C79 O74 1.259 . S
C79 O76 1.235 . S
O80 Co70 2.021 . S
O80 C77 1.238 . S
O81 Co75 2.052 . S
O81 C77 1.241 . S
O82 Co70 2.137 . S
O82 C73 1.247 . S
O83 Co70 2.244 . S
O83 C73 1.272 . S
O83 Co75 2.135 . S
Co84 O85 2.216 . S
Co84 O86 2.091 . S
Co84 O88 2.004 . S
Co84 O94 2.021 . S
Co84 O96 2.137 . S
Co84 O97 2.244 . S
O85 Co84 2.216 . S
O85 C92 1.247 . S
O86 Co84 2.091 . S
O86 C92 1.261 . S
C87 O96 1.247 . S
C87 O97 1.272 . S
O88 Co84 2.004 . S
O88 C93 1.259 . S
Co89 O90 2.061 . S
Co89 O95 2.052 . S
Co89 O97 2.135 . S
O90 Co89 2.061 . S
O90 C93 1.235 . S
C91 O94 1.238 . S
C91 O95 1.241 . S
C92 O85 1.247 . S
C92 O86 1.261 . S
C93 O88 1.259 . S
C93 O90 1.235 . S
O94 Co84 2.021 . S
O94 C91 1.238 . S
O95 Co89 2.052 . S
O95 C91 1.241 . S
O96 Co84 2.137 . S
O96 C87 1.247 . S
O97 Co84 2.244 . S
O97 C87 1.272 . S
O97 Co89 2.135 . S
Co98 O99 2.216 . S
Co98 O100 2.091 . S
Co98 O102 2.004 1_655 S
Co98 O108 2.021 . S
Co98 O110 2.137 1_655 S
Co98 O111 2.244 1_655 S
O99 Co98 2.216 . S
O99 C106 1.247 . S
O100 Co98 2.091 . S
O100 C106 1.261 . S
C101 O110 1.247 . S
C101 O111 1.272 . S
O102 Co98 2.004 1_455 S
O102 C107 1.259 . S
Co103 O104 2.061 . S
Co103 O109 2.052 . S
Co103 O111 2.135 . S
O104 Co103 2.061 . S
O104 C107 1.235 . S
C105 O108 1.238 . S
C105 O109 1.241 1_655 S
C106 O99 1.247 . S
C106 O100 1.261 . S
C107 O102 1.259 . S
C107 O104 1.235 . S
O108 Co98 2.021 . S
O108 C105 1.238 . S
O109 Co103 2.052 . S
O109 C105 1.241 1_455 S
O110 Co98 2.137 1_455 S
O110 C101 1.247 . S
O111 Co98 2.244 1_455 S
O111 C101 1.272 . S
O111 Co103 2.135 . S
Co112 O113 2.216 1_545 S
Co112 O114 2.091 . S
Co112 O116 2.004 . S
Co112 O122 2.021 1_545 S
Co112 O124 2.137 . S
Co112 O125 2.244 . S
O113 Co112 2.216 1_565 S
O113 C120 1.247 . S
O114 Co112 2.091 . S
O114 C120 1.261 1_545 S
C115 O124 1.247 . S
C115 O125 1.272 . S
O116 Co112 2.004 . S
O116 C121 1.259 . S
Co117 O118 2.061 . S
Co117 O123 2.052 1_545 S
Co117 O125 2.135 . S
O118 Co117 2.061 . S
O118 C121 1.235 . S
C119 O122 1.238 . S
C119 O123 1.241 . S
C120 O113 1.247 . S
C120 O114 1.261 1_565 S
C121 O116 1.259 . S
C121 O118 1.235 . S
O122 Co112 2.021 1_565 S
O122 C119 1.238 . S
O123 Co117 2.052 1_565 S
O123 C119 1.241 . S
O124 Co112 2.137 . S
O124 C115 1.247 . S
O125 Co112 2.244 . S
O125 C115 1.272 . S
O125 Co117 2.135 . S
Co126 O127 2.216 . S
Co126 O128 2.091 . S
Co126 O130 2.004 . S
Co126 O136 2.021 . S
Co126 O138 2.137 . S
Co126 O139 2.244 . S
O127 Co126 2.216 . S
O127 C134 1.247 . S
O128 Co126 2.091 . S
O128 C134 1.261 . S
C129 O138 1.247 . S
C129 O139 1.272 . S
O130 Co126 2.004 . S
O130 C135 1.259 . S
Co131 O132 2.061 . S
Co131 O137 2.052 . S
Co131 O139 2.135 . S
O132 Co131 2.061 . S
O132 C135 1.235 . S
C133 O136 1.238 . S
C133 O137 1.241 . S
C134 O127 1.247 . S
C134 O128 1.261 . S
C135 O130 1.259 . S
C135 O132 1.235 . S
O136 Co126 2.021 . S
O136 C133 1.238 . S
O137 Co131 2.052 . S
O137 C133 1.241 . S
O138 Co126 2.137 . S
O138 C129 1.247 . S
O139 Co126 2.244 . S
O139 C129 1.272 . S
O139 Co131 2.135 . S
Co140 O141 2.216 . S
Co140 O142 2.091 . S
Co140 O144 2.004 . S
Co140 O150 2.021 . S
Co140 O152 2.137 . S
Co140 O153 2.244 . S
O141 Co140 2.216 . S
O141 C148 1.247 . S
O142 Co140 2.091 . S
O142 C148 1.261 . S
C143 O152 1.247 . S
C143 O153 1.272 . S
O144 Co140 2.004 . S
O144 C149 1.259 . S
Co145 O146 2.061 . S
Co145 O151 2.052 . S
Co145 O153 2.135 . S
O146 Co145 2.061 . S
O146 C149 1.235 . S
C147 O150 1.238 . S
C147 O151 1.241 . S
C148 O141 1.247 . S
C148 O142 1.261 . S
C149 O144 1.259 . S
C149 O146 1.235 . S
O150 Co140 2.021 . S
O150 C147 1.238 . S
O151 Co145 2.052 . S
O151 C147 1.241 . S
O152 Co140 2.137 . S
O152 C143 1.247 . S
O153 Co140 2.244 . S
O153 C143 1.272 . S
O153 Co145 2.135 . S
Co154 O155 2.216 . S
Co154 O156 2.091 . S
Co154 O158 2.004 . S
Co154 O164 2.021 . S
Co154 O166 2.137 . S
Co154 O167 2.244 . S
O155 Co154 2.216 . S
O155 C162 1.247 . S
O156 Co154 2.091 . S
O156 C162 1.261 . S
C157 O166 1.247 . S
C157 O167 1.272 . S
O158 Co154 2.004 . S
O158 C163 1.259 . S
Co159 O160 2.061 . S
Co159 O165 2.052 . S
Co159 O167 2.135 . S
O160 Co159 2.061 . S
O160 C163 1.235 . S
C161 O164 1.238 . S
C161 O165 1.241 . S
C162 O155 1.247 . S
C162 O156 1.261 . S
C163 O158 1.259 . S
C163 O160 1.235 . S
O164 Co154 2.021 . S
O164 C161 1.238 . S
O165 Co159 2.052 . S
O165 C161 1.241 . S
O166 Co154 2.137 . S
O166 C157 1.247 . S
O167 Co154 2.244 . S
O167 C157 1.272 . S
O167 Co159 2.135 . S
Co168 O169 2.216 . S
Co168 O170 2.091 . S
Co168 O172 2.004 . S
Co168 O178 2.021 . S
Co168 O180 2.137 . S
Co168 O181 2.244 . S
O169 Co168 2.216 . S
O169 C176 1.247 . S
O170 Co168 2.091 . S
O170 C176 1.261 . S
C171 O180 1.247 . S
C171 O181 1.272 . S
O172 Co168 2.004 . S
O172 C177 1.259 . S
Co173 O174 2.061 . S
Co173 O179 2.052 . S
Co173 O181 2.135 . S
O174 Co173 2.061 . S
O174 C177 1.235 . S
C175 O178 1.238 . S
C175 O179 1.241 . S
C176 O169 1.247 . S
C176 O170 1.261 . S
C177 O172 1.259 . S
C177 O174 1.235 . S
O178 Co168 2.021 . S
O178 C175 1.238 . S
O179 Co173 2.052 . S
O179 C175 1.241 . S
O180 Co168 2.137 . S
O180 C171 1.247 . S
O181 Co168 2.244 . S
O181 C171 1.272 . S
O181 Co173 2.135 . S
Co182 O183 2.216 . S
Co182 O184 2.091 . S
Co182 O186 2.004 . S
Co182 O192 2.021 . S
Co182 O194 2.137 . S
Co182 O195 2.244 . S
O183 Co182 2.216 . S
O183 C190 1.247 . S
O184 Co182 2.091 . S
O184 C190 1.261 . S
C185 O194 1.247 . S
C185 O195 1.272 . S
O186 Co182 2.004 . S
O186 C191 1.259 . S
Co187 O188 2.061 . S
Co187 O193 2.052 . S
Co187 O195 2.135 . S
O188 Co187 2.061 . S
O188 C191 1.235 . S
C189 O192 1.238 . S
C189 O193 1.241 . S
C190 O183 1.247 . S
C190 O184 1.261 . S
C191 O186 1.259 . S
C191 O188 1.235 . S
O192 Co182 2.021 . S
O192 C189 1.238 . S
O193 Co187 2.052 . S
O193 C189 1.241 . S
O194 Co182 2.137 . S
O194 C185 1.247 . S
O195 Co182 2.244 . S
O195 C185 1.272 . S
O195 Co187 2.135 . S
Co196 O197 2.216 1_545 S
Co196 O198 2.091 1_545 S
Co196 O200 2.004 . S
Co196 O206 2.021 1_545 S
Co196 O208 2.137 . S
Co196 O209 2.244 . S
O197 Co196 2.216 1_565 S
O197 C204 1.247 . S
O198 Co196 2.091 1_565 S
O198 C204 1.261 . S
C199 O208 1.247 . S
C199 O209 1.272 . S
O200 Co196 2.004 . S
O200 C205 1.259 . S
Co201 O202 2.061 . S
Co201 O207 2.052 1_545 S
Co201 O209 2.135 . S
O202 Co201 2.061 . S
O202 C205 1.235 . S
C203 O206 1.238 . S
C203 O207 1.241 . S
C204 O197 1.247 . S
C204 O198 1.261 . S
C205 O200 1.259 . S
C205 O202 1.235 . S
O206 Co196 2.021 1_565 S
O206 C203 1.238 . S
O207 Co201 2.052 1_565 S
O207 C203 1.241 . S
O208 Co196 2.137 . S
O208 C199 1.247 . S
O209 Co196 2.244 . S
O209 C199 1.272 . S
O209 Co201 2.135 . S
Co210 O211 2.216 . S
Co210 O212 2.091 . S
Co210 O214 2.004 1_556 S
Co210 O220 2.021 . S
Co210 O222 2.137 1_556 S
Co210 O223 2.244 1_556 S
O211 Co210 2.216 . S
O211 C218 1.247 . S
O212 Co210 2.091 . S
O212 C218 1.261 . S
C213 O222 1.247 . S
C213 O223 1.272 . S
O214 Co210 2.004 1_554 S
O214 C219 1.259 . S
Co215 O216 2.061 . S
Co215 O221 2.052 . S
Co215 O223 2.135 . S
O216 Co215 2.061 . S
O216 C219 1.235 . S
C217 O220 1.238 . S
C217 O221 1.241 1_556 S
C218 O211 1.247 . S
C218 O212 1.261 . S
C219 O214 1.259 . S
C219 O216 1.235 . S
O220 Co210 2.021 . S
O220 C217 1.238 . S
O221 Co215 2.052 . S
O221 C217 1.241 1_554 S
O222 Co210 2.137 1_554 S
O222 C213 1.247 . S
O223 Co210 2.244 1_554 S
O223 C213 1.272 . S
O223 Co215 2.135 . S
Co224 O225 2.216 1_554 S
Co224 O226 2.091 . S
Co224 O228 2.004 . S
Co224 O234 2.021 1_554 S
Co224 O236 2.137 . S
Co224 O237 2.244 . S
O225 Co224 2.216 1_556 S
O225 C232 1.247 . S
O226 Co224 2.091 . S
O226 C232 1.261 1_554 S
C227 O236 1.247 . S
C227 O237 1.272 . S
O228 Co224 2.004 . S
O228 C233 1.259 . S
Co229 O230 2.061 . S
Co229 O235 2.052 1_554 S
Co229 O237 2.135 . S
O230 Co229 2.061 . S
O230 C233 1.235 . S
C231 O234 1.238 . S
C231 O235 1.241 . S
C232 O225 1.247 . S
C232 O226 1.261 1_556 S
C233 O228 1.259 . S
C233 O230 1.235 . S
O234 Co224 2.021 1_556 S
O234 C231 1.238 . S
O235 Co229 2.052 1_556 S
O235 C231 1.241 . S
O236 Co224 2.137 . S
O236 C227 1.247 . S
O237 Co224 2.244 . S
O237 C227 1.272 . S
O237 Co229 2.135 . S
Co238 O239 2.216 . S
Co238 O240 2.091 . S
Co238 O242 2.004 . S
Co238 O248 2.021 . S
Co238 O250 2.137 . S
Co238 O251 2.244 . S
O239 Co238 2.216 . S
O239 C246 1.247 . S
O240 Co238 2.091 . S
O240 C246 1.261 . S
C241 O250 1.247 . S
C241 O251 1.272 . S
O242 Co238 2.004 . S
O242 C247 1.259 . S
Co243 O244 2.061 . S
Co243 O249 2.052 . S
Co243 O251 2.135 . S
O244 Co243 2.061 . S
O244 C247 1.235 . S
C245 O248 1.238 . S
C245 O249 1.241 . S
C246 O239 1.247 . S
C246 O240 1.261 . S
C247 O242 1.259 . S
C247 O244 1.235 . S
O248 Co238 2.021 . S
O248 C245 1.238 . S
O249 Co243 2.052 . S
O249 C245 1.241 . S
O250 Co238 2.137 . S
O250 C241 1.247 . S
O251 Co238 2.244 . S
O251 C241 1.272 . S
O251 Co243 2.135 . S
Co252 O253 2.216 . S
Co252 O254 2.091 . S
Co252 O256 2.004 . S
Co252 O262 2.021 . S
Co252 O264 2.137 . S
Co252 O265 2.244 . S
O253 Co252 2.216 . S
O253 C260 1.247 . S
O254 Co252 2.091 . S
O254 C260 1.261 . S
C255 O264 1.247 . S
C255 O265 1.272 . S
O256 Co252 2.004 . S
O256 C261 1.259 . S
Co257 O258 2.061 . S
Co257 O263 2.052 . S
Co257 O265 2.135 . S
O258 Co257 2.061 . S
O258 C261 1.235 . S
C259 O262 1.238 . S
C259 O263 1.241 . S
C260 O253 1.247 . S
C260 O254 1.261 . S
C261 O256 1.259 . S
C261 O258 1.235 . S
O262 Co252 2.021 . S
O262 C259 1.238 . S
O263 Co257 2.052 . S
O263 C259 1.241 . S
O264 Co252 2.137 . S
O264 C255 1.247 . S
O265 Co252 2.244 . S
O265 C255 1.272 . S
O265 Co257 2.135 . S
Co266 O267 2.216 . S
Co266 O268 2.091 . S
Co266 O270 2.004 . S
Co266 O276 2.021 . S
Co266 O278 2.137 . S
Co266 O279 2.244 . S
O267 Co266 2.216 . S
O267 C274 1.247 . S
O268 Co266 2.091 . S
O268 C274 1.261 . S
C269 O278 1.247 . S
C269 O279 1.272 . S
O270 Co266 2.004 . S
O270 C275 1.259 . S
Co271 O272 2.061 . S
Co271 O277 2.052 . S
Co271 O279 2.135 . S
O272 Co271 2.061 . S
O272 C275 1.235 . S
C273 O276 1.238 . S
C273 O277 1.241 . S
C274 O267 1.247 . S
C274 O268 1.261 . S
C275 O270 1.259 . S
C275 O272 1.235 . S
O276 Co266 2.021 . S
O276 C273 1.238 . S
O277 Co271 2.052 . S
O277 C273 1.241 . S
O278 Co266 2.137 . S
O278 C269 1.247 . S
O279 Co266 2.244 . S
O279 C269 1.272 . S
O279 Co271 2.135 . S
Co280 O281 2.216 . S
Co280 O282 2.091 . S
Co280 O284 2.004 1_565 S
Co280 O290 2.021 . S
Co280 O292 2.137 1_565 S
Co280 O293 2.244 1_565 S
O281 Co280 2.216 . S
O281 C288 1.247 . S
O282 Co280 2.091 . S
O282 C288 1.261 . S
C283 O292 1.247 . S
C283 O293 1.272 . S
O284 Co280 2.004 1_545 S
O284 C289 1.259 . S
Co285 O286 2.061 . S
Co285 O291 2.052 . S
Co285 O293 2.135 . S
O286 Co285 2.061 . S
O286 C289 1.235 . S
C287 O290 1.238 . S
C287 O291 1.241 1_565 S
C288 O281 1.247 . S
C288 O282 1.261 . S
C289 O284 1.259 . S
C289 O286 1.235 . S
O290 Co280 2.021 . S
O290 C287 1.238 . S
O291 Co285 2.052 . S
O291 C287 1.241 1_545 S
O292 Co280 2.137 1_545 S
O292 C283 1.247 . S
O293 Co280 2.244 1_545 S
O293 C283 1.272 . S
O293 Co285 2.135 . S
Co294 O295 2.216 . S
Co294 O296 2.091 . S
Co294 O298 2.004 . S
Co294 O304 2.021 . S
Co294 O306 2.137 . S
Co294 O307 2.244 . S
O295 Co294 2.216 . S
O295 C302 1.247 . S
O296 Co294 2.091 . S
O296 C302 1.261 . S
C297 O306 1.247 . S
C297 O307 1.272 . S
O298 Co294 2.004 . S
O298 C303 1.259 . S
Co299 O300 2.061 . S
Co299 O305 2.052 . S
Co299 O307 2.135 . S
O300 Co299 2.061 . S
O300 C303 1.235 . S
C301 O304 1.238 . S
C301 O305 1.241 . S
C302 O295 1.247 . S
C302 O296 1.261 . S
C303 O298 1.259 . S
C303 O300 1.235 . S
O304 Co294 2.021 . S
O304 C301 1.238 . S
O305 Co299 2.052 . S
O305 C301 1.241 . S
O306 Co294 2.137 . S
O306 C297 1.247 . S
O307 Co294 2.244 . S
O307 C297 1.272 . S
O307 Co299 2.135 . S
Co308 O309 2.216 . S
Co308 O310 2.091 . S
Co308 O312 2.004 . S
Co308 O318 2.021 . S
Co308 O320 2.137 . S
Co308 O321 2.244 . S
O309 Co308 2.216 . S
O309 C316 1.247 . S
O310 Co308 2.091 . S
O310 C316 1.261 . S
C311 O320 1.247 . S
C311 O321 1.272 . S
O312 Co308 2.004 . S
O312 C317 1.259 . S
Co313 O314 2.061 . S
Co313 O319 2.052 . S
Co313 O321 2.135 . S
O314 Co313 2.061 . S
O314 C317 1.235 . S
C315 O318 1.238 . S
C315 O319 1.241 . S
C316 O309 1.247 . S
C316 O310 1.261 . S
C317 O312 1.259 . S
C317 O314 1.235 . S
O318 Co308 2.021 . S
O318 C315 1.238 . S
O319 Co313 2.052 . S
O319 C315 1.241 . S
O320 Co308 2.137 . S
O320 C311 1.247 . S
O321 Co308 2.244 . S
O321 C311 1.272 . S
O321 Co313 2.135 . S
Co322 O323 2.216 . S
Co322 O324 2.091 . S
Co322 O326 2.004 . S
Co322 O332 2.021 . S
Co322 O334 2.137 . S
Co322 O335 2.244 . S
O323 Co322 2.216 . S
O323 C330 1.247 . S
O324 Co322 2.091 . S
O324 C330 1.261 . S
C325 O334 1.247 . S
C325 O335 1.272 . S
O326 Co322 2.004 . S
O326 C331 1.259 . S
Co327 O328 2.061 . S
Co327 O333 2.052 . S
Co327 O335 2.135 . S
O328 Co327 2.061 . S
O328 C331 1.235 . S
C329 O332 1.238 . S
C329 O333 1.241 . S
C330 O323 1.247 . S
C330 O324 1.261 . S
C331 O326 1.259 . S
C331 O328 1.235 . S
O332 Co322 2.021 . S
O332 C329 1.238 . S
O333 Co327 2.052 . S
O333 C329 1.241 . S
O334 Co322 2.137 . S
O334 C325 1.247 . S
O335 Co322 2.244 . S
O335 C325 1.272 . S
O335 Co327 2.135 . S
Co336 O337 2.216 . S
Co336 O338 2.091 . S
Co336 O340 2.004 . S
Co336 O346 2.021 . S
Co336 O348 2.137 . S
Co336 O349 2.244 . S
O337 Co336 2.216 . S
O337 C344 1.247 . S
O338 Co336 2.091 . S
O338 C344 1.261 . S
C339 O348 1.247 . S
C339 O349 1.272 . S
O340 Co336 2.004 . S
O340 C345 1.259 . S
Co341 O342 2.061 . S
Co341 O347 2.052 . S
Co341 O349 2.135 . S
O342 Co341 2.061 . S
O342 C345 1.235 . S
C343 O346 1.238 . S
C343 O347 1.241 . S
C344 O337 1.247 . S
C344 O338 1.261 . S
C345 O340 1.259 . S
C345 O342 1.235 . S
O346 Co336 2.021 . S
O346 C343 1.238 . S
O347 Co341 2.052 . S
O347 C343 1.241 . S
O348 Co336 2.137 . S
O348 C339 1.247 . S
O349 Co336 2.244 . S
O349 C339 1.272 . S
O349 Co341 2.135 . S
Co350 O351 2.216 . S
Co350 O352 2.091 . S
Co350 O354 2.004 . S
Co350 O360 2.021 . S
Co350 O362 2.137 . S
Co350 O363 2.244 . S
O351 Co350 2.216 . S
O351 C358 1.247 . S
O352 Co350 2.091 . S
O352 C358 1.261 . S
C353 O362 1.247 . S
C353 O363 1.272 . S
O354 Co350 2.004 . S
O354 C359 1.259 . S
Co355 O356 2.061 . S
Co355 O361 2.052 . S
Co355 O363 2.135 . S
O356 Co355 2.061 . S
O356 C359 1.235 . S
C357 O360 1.238 . S
C357 O361 1.241 . S
C358 O351 1.247 . S
C358 O352 1.261 . S
C359 O354 1.259 . S
C359 O356 1.235 . S
O360 Co350 2.021 . S
O360 C357 1.238 . S
O361 Co355 2.052 . S
O361 C357 1.241 . S
O362 Co350 2.137 . S
O362 C353 1.247 . S
O363 Co350 2.244 . S
O363 C353 1.272 . S
O363 Co355 2.135 . S
Co364 O365 2.216 . S
Co364 O366 2.091 . S
Co364 O368 2.004 . S
Co364 O374 2.021 . S
Co364 O376 2.137 . S
Co364 O377 2.244 . S
O365 Co364 2.216 . S
O365 C372 1.247 . S
O366 Co364 2.091 . S
O366 C372 1.261 . S
C367 O376 1.247 . S
C367 O377 1.272 . S
O368 Co364 2.004 . S
O368 C373 1.259 . S
Co369 O370 2.061 . S
Co369 O375 2.052 . S
Co369 O377 2.135 . S
O370 Co369 2.061 . S
O370 C373 1.235 . S
C371 O374 1.238 . S
C371 O375 1.241 . S
C372 O365 1.247 . S
C372 O366 1.261 . S
C373 O368 1.259 . S
C373 O370 1.235 . S
O374 Co364 2.021 . S
O374 C371 1.238 . S
O375 Co369 2.052 . S
O375 C371 1.241 . S
O376 Co364 2.137 . S
O376 C367 1.247 . S
O377 Co364 2.244 . S
O377 C367 1.272 . S
O377 Co369 2.135 . S
Co378 O379 2.216 . S
Co378 O380 2.091 . S
Co378 O382 2.004 . S
Co378 O388 2.021 . S
Co378 O390 2.137 . S
Co378 O391 2.244 . S
O379 Co378 2.216 . S
O379 C386 1.247 . S
O380 Co378 2.091 . S
O380 C386 1.261 . S
C381 O390 1.247 . S
C381 O391 1.272 . S
O382 Co378 2.004 . S
O382 C387 1.259 . S
Co383 O384 2.061 . S
Co383 O389 2.052 . S
Co383 O391 2.135 . S
O384 Co383 2.061 . S
O384 C387 1.235 . S
C385 O388 1.238 . S
C385 O389 1.241 . S
C386 O379 1.247 . S
C386 O380 1.261 . S
C387 O382 1.259 . S
C387 O384 1.235 . S
O388 Co378 2.021 . S
O388 C385 1.238 . S
O389 Co383 2.052 . S
O389 C385 1.241 . S
O390 Co378 2.137 . S
O390 C381 1.247 . S
O391 Co378 2.244 . S
O391 C381 1.272 . S
O391 Co383 2.135 . S
Co392 O393 2.216 . S
Co392 O394 2.091 . S
Co392 O396 2.004 . S
Co392 O402 2.021 . S
Co392 O404 2.137 . S
Co392 O405 2.244 . S
O393 Co392 2.216 . S
O393 C400 1.247 . S
O394 Co392 2.091 . S
O394 C400 1.261 . S
C395 O404 1.247 . S
C395 O405 1.272 . S
O396 Co392 2.004 . S
O396 C401 1.259 . S
Co397 O398 2.061 . S
Co397 O403 2.052 . S
Co397 O405 2.135 . S
O398 Co397 2.061 . S
O398 C401 1.235 . S
C399 O402 1.238 . S
C399 O403 1.241 . S
C400 O393 1.247 . S
C400 O394 1.261 . S
C401 O396 1.259 . S
C401 O398 1.235 . S
O402 Co392 2.021 . S
O402 C399 1.238 . S
O403 Co397 2.052 . S
O403 C399 1.241 . S
O404 Co392 2.137 . S
O404 C395 1.247 . S
O405 Co392 2.244 . S
O405 C395 1.272 . S
O405 Co397 2.135 . S
Co406 O407 2.216 . S
Co406 O408 2.091 . S
Co406 O410 2.004 . S
Co406 O416 2.021 . S
Co406 O418 2.137 . S
Co406 O419 2.244 . S
O407 Co406 2.216 . S
O407 C414 1.247 . S
O408 Co406 2.091 . S
O408 C414 1.261 . S
C409 O418 1.247 . S
C409 O419 1.272 . S
O410 Co406 2.004 . S
O410 C415 1.259 . S
Co411 O412 2.061 . S
Co411 O417 2.052 . S
Co411 O419 2.135 . S
O412 Co411 2.061 . S
O412 C415 1.235 . S
C413 O416 1.238 . S
C413 O417 1.241 . S
C414 O407 1.247 . S
C414 O408 1.261 . S
C415 O410 1.259 . S
C415 O412 1.235 . S
O416 Co406 2.021 . S
O416 C413 1.238 . S
O417 Co411 2.052 . S
O417 C413 1.241 . S
O418 Co406 2.137 . S
O418 C409 1.247 . S
O419 Co406 2.244 . S
O419 C409 1.272 . S
O419 Co411 2.135 . S
Co420 O421 2.216 . S
Co420 O422 2.091 . S
Co420 O424 2.004 . S
Co420 O430 2.021 . S
Co420 O432 2.137 . S
Co420 O433 2.244 . S
O421 Co420 2.216 . S
O421 C428 1.247 . S
O422 Co420 2.091 . S
O422 C428 1.261 . S
C423 O432 1.247 . S
C423 O433 1.272 . S
O424 Co420 2.004 . S
O424 C429 1.259 . S
Co425 O426 2.061 . S
Co425 O431 2.052 . S
Co425 O433 2.135 . S
O426 Co425 2.061 . S
O426 C429 1.235 . S
C427 O430 1.238 . S
C427 O431 1.241 . S
C428 O421 1.247 . S
C428 O422 1.261 . S
C429 O424 1.259 . S
C429 O426 1.235 . S
O430 Co420 2.021 . S
O430 C427 1.238 . S
O431 Co425 2.052 . S
O431 C427 1.241 . S
O432 Co420 2.137 . S
O432 C423 1.247 . S
O433 Co420 2.244 . S
O433 C423 1.272 . S
O433 Co425 2.135 . S
Co434 O435 2.216 . S
Co434 O436 2.091 . S
Co434 O438 2.004 . S
Co434 O444 2.021 . S
Co434 O446 2.137 . S
Co434 O447 2.244 . S
O435 Co434 2.216 . S
O435 C442 1.247 . S
O436 Co434 2.091 . S
O436 C442 1.261 . S
C437 O446 1.247 . S
C437 O447 1.272 . S
O438 Co434 2.004 . S
O438 C443 1.259 . S
Co439 O440 2.061 . S
Co439 O445 2.052 . S
Co439 O447 2.135 . S
O440 Co439 2.061 . S
O440 C443 1.235 . S
C441 O444 1.238 . S
C441 O445 1.241 . S
C442 O435 1.247 . S
C442 O436 1.261 . S
C443 O438 1.259 . S
C443 O440 1.235 . S
O444 Co434 2.021 . S
O444 C441 1.238 . S
O445 Co439 2.052 . S
O445 C441 1.241 . S
O446 Co434 2.137 . S
O446 C437 1.247 . S
O447 Co434 2.244 . S
O447 C437 1.272 . S
O447 Co439 2.135 . S
Co448 O449 2.216 . S
Co448 O450 2.091 . S
Co448 O452 2.004 . S
Co448 O458 2.021 . S
Co448 O460 2.137 . S
Co448 O461 2.244 . S
O449 Co448 2.216 . S
O449 C456 1.247 . S
O450 Co448 2.091 . S
O450 C456 1.261 . S
C451 O460 1.247 . S
C451 O461 1.272 . S
O452 Co448 2.004 . S
O452 C457 1.259 . S
Co453 O454 2.061 . S
Co453 O459 2.052 . S
Co453 O461 2.135 . S
O454 Co453 2.061 . S
O454 C457 1.235 . S
C455 O458 1.238 . S
C455 O459 1.241 . S
C456 O449 1.247 . S
C456 O450 1.261 . S
C457 O452 1.259 . S
C457 O454 1.235 . S
O458 Co448 2.021 . S
O458 C455 1.238 . S
O459 Co453 2.052 . S
O459 C455 1.241 . S
O460 Co448 2.137 . S
O460 C451 1.247 . S
O461 Co448 2.244 . S
O461 C451 1.272 . S
O461 Co453 2.135 . S
Co462 O463 2.216 . S
Co462 O464 2.091 . S
Co462 O466 2.004 . S
Co462 O472 2.021 . S
Co462 O474 2.137 . S
Co462 O475 2.244 . S
O463 Co462 2.216 . S
O463 C470 1.247 . S
O464 Co462 2.091 . S
O464 C470 1.261 . S
C465 O474 1.247 . S
C465 O475 1.272 . S
O466 Co462 2.004 . S
O466 C471 1.259 . S
Co467 O468 2.061 . S
Co467 O473 2.052 . S
Co467 O475 2.135 . S
O468 Co467 2.061 . S
O468 C471 1.235 . S
C469 O472 1.238 . S
C469 O473 1.241 . S
C470 O463 1.247 . S
C470 O464 1.261 . S
C471 O466 1.259 . S
C471 O468 1.235 . S
O472 Co462 2.021 . S
O472 C469 1.238 . S
O473 Co467 2.052 . S
O473 C469 1.241 . S
O474 Co462 2.137 . S
O474 C465 1.247 . S
O475 Co462 2.244 . S
O475 C465 1.272 . S
O475 Co467 2.135 . S
Co476 O477 2.216 . S
Co476 O478 2.091 . S
Co476 O480 2.004 . S
Co476 O486 2.021 . S
Co476 O488 2.137 . S
Co476 O489 2.244 . S
O477 Co476 2.216 . S
O477 C484 1.247 . S
O478 Co476 2.091 . S
O478 C484 1.261 . S
C479 O488 1.247 . S
C479 O489 1.272 . S
O480 Co476 2.004 . S
O480 C485 1.259 . S
Co481 O482 2.061 . S
Co481 O487 2.052 . S
Co481 O489 2.135 . S
O482 Co481 2.061 . S
O482 C485 1.235 . S
C483 O486 1.238 . S
C483 O487 1.241 . S
C484 O477 1.247 . S
C484 O478 1.261 . S
C485 O480 1.259 . S
C485 O482 1.235 . S
O486 Co476 2.021 . S
O486 C483 1.238 . S
O487 Co481 2.052 . S
O487 C483 1.241 . S
O488 Co476 2.137 . S
O488 C479 1.247 . S
O489 Co476 2.244 . S
O489 C479 1.272 . S
O489 Co481 2.135 . S
Co490 O491 2.216 . S
Co490 O492 2.091 . S
Co490 O494 2.004 . S
Co490 O500 2.021 . S
Co490 O502 2.137 . S
Co490 O503 2.244 . S
O491 Co490 2.216 . S
O491 C498 1.247 . S
O492 Co490 2.091 . S
O492 C498 1.261 . S
C493 O502 1.247 . S
C493 O503 1.272 . S
O494 Co490 2.004 . S
O494 C499 1.259 . S
Co495 O496 2.061 . S
Co495 O501 2.052 . S
Co495 O503 2.135 . S
O496 Co495 2.061 . S
O496 C499 1.235 . S
C497 O500 1.238 . S
C497 O501 1.241 . S
C498 O491 1.247 . S
C498 O492 1.261 . S
C499 O494 1.259 . S
C499 O496 1.235 . S
O500 Co490 2.021 . S
O500 C497 1.238 . S
O501 Co495 2.052 . S
O501 C497 1.241 . S
O502 Co490 2.137 . S
O502 C493 1.247 . S
O503 Co490 2.244 . S
O503 C493 1.272 . S
O503 Co495 2.135 . S
Co504 O505 2.216 . S
Co504 O506 2.091 . S
Co504 O508 2.004 . S
Co504 O514 2.021 . S
Co504 O516 2.137 . S
Co504 O517 2.244 . S
O505 Co504 2.216 . S
O505 C512 1.247 . S
O506 Co504 2.091 . S
O506 C512 1.261 . S
C507 O516 1.247 . S
C507 O517 1.272 . S
O508 Co504 2.004 . S
O508 C513 1.259 . S
Co509 O510 2.061 . S
Co509 O515 2.052 . S
Co509 O517 2.135 . S
O510 Co509 2.061 . S
O510 C513 1.235 . S
C511 O514 1.238 . S
C511 O515 1.241 . S
C512 O505 1.247 . S
C512 O506 1.261 . S
C513 O508 1.259 . S
C513 O510 1.235 . S
O514 Co504 2.021 . S
O514 C511 1.238 . S
O515 Co509 2.052 . S
O515 C511 1.241 . S
O516 Co504 2.137 . S
O516 C507 1.247 . S
O517 Co504 2.244 . S
O517 C507 1.272 . S
O517 Co509 2.135 . S
Co518 O519 2.216 . S
Co518 O520 2.091 . S
Co518 O522 2.004 . S
Co518 O528 2.021 . S
Co518 O530 2.137 . S
Co518 O531 2.244 . S
O519 Co518 2.216 . S
O519 C526 1.247 . S
O520 Co518 2.091 . S
O520 C526 1.261 . S
C521 O530 1.247 . S
C521 O531 1.272 . S
O522 Co518 2.004 . S
O522 C527 1.259 . S
Co523 O524 2.071 . S
Co523 O529 2.052 1_554 S
Co523 O531 2.135 1_554 S
O524 Co523 2.071 . S
O524 C527 1.208 1_554 S
C525 O528 1.238 . S
C525 O529 1.241 . S
C526 O519 1.247 . S
C526 O520 1.261 . S
C527 O522 1.259 . S
C527 O524 1.208 1_556 S
O528 Co518 2.021 . S
O528 C525 1.238 . S
O529 Co523 2.052 1_556 S
O529 C525 1.241 . S
O530 Co518 2.137 . S
O530 C521 1.247 . S
O531 Co518 2.244 . S
O531 C521 1.272 . S
O531 Co523 2.135 1_556 S
Co532 O533 2.216 . S
Co532 O534 2.091 . S
Co532 O536 2.004 . S
Co532 O542 2.021 . S
Co532 O544 2.137 . S
Co532 O545 2.244 . S
O533 Co532 2.216 . S
O533 C540 1.247 . S
O534 Co532 2.091 . S
O534 C540 1.261 . S
C535 O544 1.247 . S
C535 O545 1.272 . S
O536 Co532 2.004 . S
O536 C541 1.259 . S
Co537 O538 2.061 . S
Co537 O543 2.052 . S
Co537 O545 2.135 . S
O538 Co537 2.061 . S
O538 C541 1.235 . S
C539 O542 1.238 . S
C539 O543 1.241 . S
C540 O533 1.247 . S
C540 O534 1.261 . S
C541 O536 1.259 . S
C541 O538 1.235 . S
O542 Co532 2.021 . S
O542 C539 1.238 . S
O543 Co537 2.052 . S
O543 C539 1.241 . S
O544 Co532 2.137 . S
O544 C535 1.247 . S
O545 Co532 2.244 . S
O545 C535 1.272 . S
O545 Co537 2.135 . S
Co546 O547 2.216 . S
Co546 O548 2.091 . S
Co546 O550 2.004 . S
Co546 O556 2.021 . S
Co546 O558 2.137 . S
Co546 O559 2.244 . S
O547 Co546 2.216 . S
O547 C554 1.247 . S
O548 Co546 2.091 . S
O548 C554 1.261 . S
C549 O558 1.247 . S
C549 O559 1.272 . S
O550 Co546 2.004 . S
O550 C555 1.259 . S
Co551 O552 2.061 . S
Co551 O557 2.052 . S
Co551 O559 2.135 . S
O552 Co551 2.061 . S
O552 C555 1.235 . S
C553 O556 1.238 . S
C553 O557 1.241 . S
C554 O547 1.247 . S
C554 O548 1.261 . S
C555 O550 1.259 . S
C555 O552 1.235 . S
O556 Co546 2.021 . S
O556 C553 1.238 . S
O557 Co551 2.052 . S
O557 C553 1.241 . S
O558 Co546 2.137 . S
O558 C549 1.247 . S
O559 Co546 2.244 . S
O559 C549 1.272 . S
O559 Co551 2.135 . S
Co560 O561 2.216 . S
Co560 O562 2.091 . S
Co560 O564 2.004 . S
Co560 O570 2.021 . S
Co560 O572 2.137 . S
Co560 O573 2.244 . S
O561 Co560 2.216 . S
O561 C568 1.247 . S
O562 Co560 2.091 . S
O562 C568 1.261 . S
C563 O572 1.247 . S
C563 O573 1.272 . S
O564 Co560 2.004 . S
O564 C569 1.259 . S
Co565 O566 2.061 . S
Co565 O571 2.052 . S
Co565 O573 2.135 . S
O566 Co565 2.061 . S
O566 C569 1.235 . S
C567 O570 1.238 . S
C567 O571 1.241 . S
C568 O561 1.247 . S
C568 O562 1.261 . S
C569 O564 1.259 . S
C569 O566 1.235 . S
O570 Co560 2.021 . S
O570 C567 1.238 . S
O571 Co565 2.052 . S
O571 C567 1.241 . S
O572 Co560 2.137 . S
O572 C563 1.247 . S
O573 Co560 2.244 . S
O573 C563 1.272 . S
O573 Co565 2.135 . S
Co574 O575 2.216 . S
Co574 O576 2.091 . S
Co574 O578 2.004 . S
Co574 O584 2.021 . S
Co574 O586 2.137 . S
Co574 O587 2.244 . S
O575 Co574 2.216 . S
O575 C582 1.247 . S
O576 Co574 2.091 . S
O576 C582 1.261 . S
C577 O586 1.247 . S
C577 O587 1.272 . S
O578 Co574 2.004 . S
O578 C583 1.259 . S
Co579 O580 2.061 . S
Co579 O585 2.052 . S
Co579 O587 2.135 . S
O580 Co579 2.061 . S
O580 C583 1.235 . S
C581 O584 1.238 . S
C581 O585 1.241 . S
C582 O575 1.247 . S
C582 O576 1.261 . S
C583 O578 1.259 . S
C583 O580 1.235 . S
O584 Co574 2.021 . S
O584 C581 1.238 . S
O585 Co579 2.052 . S
O585 C581 1.241 . S
O586 Co574 2.137 . S
O586 C577 1.247 . S
O587 Co574 2.244 . S
O587 C577 1.272 . S
O587 Co579 2.135 . S
Co588 O589 2.216 . S
Co588 O590 2.091 . S
Co588 O592 2.004 . S
Co588 O598 2.021 . S
Co588 O600 2.137 . S
Co588 O601 2.244 . S
O589 Co588 2.216 . S
O589 C596 1.247 . S
O590 Co588 2.091 . S
O590 C596 1.261 . S
C591 O600 1.247 . S
C591 O601 1.272 . S
O592 Co588 2.004 . S
O592 C597 1.259 . S
Co593 O594 2.061 . S
Co593 O599 2.052 . S
Co593 O601 2.135 . S
O594 Co593 2.061 . S
O594 C597 1.235 . S
C595 O598 1.238 . S
C595 O599 1.241 . S
C596 O589 1.247 . S
C596 O590 1.261 . S
C597 O592 1.259 . S
C597 O594 1.235 . S
O598 Co588 2.021 . S
O598 C595 1.238 . S
O599 Co593 2.052 . S
O599 C595 1.241 . S
O600 Co588 2.137 . S
O600 C591 1.247 . S
O601 Co588 2.244 . S
O601 C591 1.272 . S
O601 Co593 2.135 . S
Co602 O603 2.216 . S
Co602 O604 2.091 . S
Co602 O606 2.004 . S
Co602 O612 2.021 . S
Co602 O614 2.137 . S
Co602 O615 2.244 . S
O603 Co602 2.216 . S
O603 C610 1.247 . S
O604 Co602 2.091 . S
O604 C610 1.261 . S
C605 O614 1.247 . S
C605 O615 1.272 . S
O606 Co602 2.004 . S
O606 C611 1.259 . S
Co607 O608 2.061 . S
Co607 O613 2.052 . S
Co607 O615 2.135 . S
O608 Co607 2.061 . S
O608 C611 1.235 . S
C609 O612 1.238 . S
C609 O613 1.241 . S
C610 O603 1.247 . S
C610 O604 1.261 . S
C611 O606 1.259 . S
C611 O608 1.235 . S
O612 Co602 2.021 . S
O612 C609 1.238 . S
O613 Co607 2.052 . S
O613 C609 1.241 . S
O614 Co602 2.137 . S
O614 C605 1.247 . S
O615 Co602 2.244 . S
O615 C605 1.272 . S
O615 Co607 2.135 . S
Co616 O617 2.216 . S
Co616 O618 2.091 . S
Co616 O620 2.004 . S
Co616 O626 2.021 . S
Co616 O628 2.137 . S
Co616 O629 2.244 . S
O617 Co616 2.216 . S
O617 C624 1.247 . S
O618 Co616 2.091 . S
O618 C624 1.261 . S
C619 O628 1.247 . S
C619 O629 1.272 . S
O620 Co616 2.004 . S
O620 C625 1.259 . S
Co621 O622 2.061 . S
Co621 O627 2.052 . S
Co621 O629 2.135 . S
O622 Co621 2.061 . S
O622 C625 1.235 . S
C623 O626 1.238 . S
C623 O627 1.241 . S
C624 O617 1.247 . S
C624 O618 1.261 . S
C625 O620 1.259 . S
C625 O622 1.235 . S
O626 Co616 2.021 . S
O626 C623 1.238 . S
O627 Co621 2.052 . S
O627 C623 1.241 . S
O628 Co616 2.137 . S
O628 C619 1.247 . S
O629 Co616 2.244 . S
O629 C619 1.272 . S
O629 Co621 2.135 . S
Co630 O631 2.216 1_554 S
Co630 O632 2.091 1_554 S
Co630 O634 2.004 . S
Co630 O640 2.021 1_554 S
Co630 O642 2.137 . S
Co630 O643 2.244 . S
O631 Co630 2.216 1_556 S
O631 C638 1.247 . S
O632 Co630 2.091 1_556 S
O632 C638 1.261 . S
C633 O642 1.247 . S
C633 O643 1.272 . S
O634 Co630 2.004 . S
O634 C639 1.259 . S
Co635 O636 2.061 . S
Co635 O641 2.052 1_554 S
Co635 O643 2.135 . S
O636 Co635 2.061 . S
O636 C639 1.235 . S
C637 O640 1.238 . S
C637 O641 1.241 . S
C638 O631 1.247 . S
C638 O632 1.261 . S
C639 O634 1.259 . S
C639 O636 1.235 . S
O640 Co630 2.021 1_556 S
O640 C637 1.238 . S
O641 Co635 2.052 1_556 S
O641 C637 1.241 . S
O642 Co630 2.137 . S
O642 C633 1.247 . S
O643 Co630 2.244 . S
O643 C633 1.272 . S
O643 Co635 2.135 . S
Co644 O645 2.216 . S
Co644 O646 2.091 . S
Co644 O648 2.004 . S
Co644 O654 2.021 . S
Co644 O656 2.137 . S
Co644 O657 2.244 . S
O645 Co644 2.216 . S
O645 C652 1.247 . S
O646 Co644 2.091 . S
O646 C652 1.261 . S
C647 O656 1.247 . S
C647 O657 1.272 . S
O648 Co644 2.004 . S
O648 C653 1.259 . S
Co649 O650 2.071 . S
Co649 O655 2.052 1_545 S
Co649 O657 2.135 1_545 S
O650 Co649 2.071 . S
O650 C653 1.208 1_545 S
C651 O654 1.238 . S
C651 O655 1.241 . S
C652 O645 1.247 . S
C652 O646 1.261 . S
C653 O648 1.259 . S
C653 O650 1.208 1_565 S
O654 Co644 2.021 . S
O654 C651 1.238 . S
O655 Co649 2.052 1_565 S
O655 C651 1.241 . S
O656 Co644 2.137 . S
O656 C647 1.247 . S
O657 Co644 2.244 . S
O657 C647 1.272 . S
O657 Co649 2.135 1_565 S
Co658 O659 2.216 . S
Co658 O660 2.091 . S
Co658 O662 2.004 . S
Co658 O668 2.021 . S
Co658 O670 2.137 . S
Co658 O671 2.244 . S
O659 Co658 2.216 . S
O659 C666 1.247 . S
O660 Co658 2.091 . S
O660 C666 1.261 . S
C661 O670 1.247 . S
C661 O671 1.272 . S
O662 Co658 2.004 . S
O662 C667 1.259 . S
Co663 O664 2.061 . S
Co663 O669 2.052 . S
Co663 O671 2.135 . S
O664 Co663 2.061 . S
O664 C667 1.235 . S
C665 O668 1.238 . S
C665 O669 1.241 . S
C666 O659 1.247 . S
C666 O660 1.261 . S
C667 O662 1.259 . S
C667 O664 1.235 . S
O668 Co658 2.021 . S
O668 C665 1.238 . S
O669 Co663 2.052 . S
O669 C665 1.241 . S
O670 Co658 2.137 . S
O670 C661 1.247 . S
O671 Co658 2.244 . S
O671 C661 1.272 . S
O671 Co663 2.135 . S
H672 C680 0.950 . S
H673 C685 0.950 . S
H674 C682 0.950 . S
H675 C684 0.950 . S
H676 C686 0.950 . S
H677 C688 0.950 . S
H678 C690 0.950 . S
H679 C691 0.950 . S
C680 H672 0.950 . S
C680 C681 1.386 . S
C680 C682 1.391 . S
C681 C680 1.386 . S
C681 C685 1.393 . S
C682 H674 0.950 . S
C682 C680 1.391 . S
C682 C683 1.400 . S
C683 C682 1.400 . S
C683 C684 1.398 . S
C683 C689 1.491 . S
C684 H675 0.950 . S
C684 C683 1.398 . S
C684 C685 1.391 . S
C685 H673 0.950 . S
C685 C681 1.393 . S
C685 C684 1.391 . S
C686 H676 0.950 . S
C686 C687 1.386 . S
C686 C688 1.391 . S
C687 C686 1.386 . S
C687 C691 1.393 . S
C688 H677 0.950 . S
C688 C686 1.391 . S
C688 C689 1.400 . S
C689 C683 1.491 . S
C689 C688 1.400 . S
C689 C690 1.398 . S
C690 H678 0.950 . S
C690 C689 1.398 . S
C690 C691 1.391 . S
C691 H679 0.950 . S
C691 C687 1.393 . S
C691 C690 1.391 . S
H692 C700 0.950 . S
H693 C705 0.950 . S
H694 C702 0.950 . S
H695 C704 0.950 . S
H696 C706 0.950 1_655 S
H697 C708 0.950 . S
H698 C710 0.950 . S
H699 C711 0.928 1_655 S
C700 H692 0.950 . S
C700 C701 1.386 . S
C700 C702 1.391 . S
C701 C700 1.386 . S
C701 C705 1.393 . S
C702 H694 0.950 . S
C702 C700 1.391 . S
C702 C703 1.400 . S
C703 C702 1.400 . S
C703 C704 1.398 . S
C703 C709 1.491 . S
C704 H695 0.950 . S
C704 C703 1.398 . S
C704 C705 1.391 . S
C705 H693 0.950 . S
C705 C701 1.393 . S
C705 C704 1.391 . S
C706 H696 0.950 1_455 S
C706 C707 1.386 1_455 S
C706 C708 1.391 . S
C707 C706 1.386 1_655 S
C707 C711 1.393 1_655 S
C708 H697 0.950 . S
C708 C706 1.391 . S
C708 C709 1.400 . S
C709 C703 1.491 . S
C709 C708 1.400 . S
C709 C710 1.398 . S
C710 H698 0.950 . S
C710 C709 1.398 . S
C710 C711 1.391 . S
C711 H699 0.928 1_455 S
C711 C707 1.393 1_455 S
C711 C710 1.391 . S
H712 C720 0.950 . S
H713 C725 0.950 . S
H714 C722 0.950 . S
H715 C724 0.950 . S
H716 C726 0.950 . S
H717 C728 0.950 . S
H718 C730 0.950 . S
H719 C731 0.950 . S
C720 H712 0.950 . S
C720 C721 1.386 . S
C720 C722 1.391 . S
C721 C720 1.386 . S
C721 C725 1.393 . S
C722 H714 0.950 . S
C722 C720 1.391 . S
C722 C723 1.400 . S
C723 C722 1.400 . S
C723 C724 1.398 . S
C723 C729 1.491 . S
C724 H715 0.950 . S
C724 C723 1.398 . S
C724 C725 1.391 . S
C725 H713 0.950 . S
C725 C721 1.393 . S
C725 C724 1.391 . S
C726 H716 0.950 . S
C726 C727 1.386 . S
C726 C728 1.391 . S
C727 C726 1.386 . S
C727 C731 1.393 . S
C728 H717 0.950 . S
C728 C726 1.391 . S
C728 C729 1.400 . S
C729 C723 1.491 . S
C729 C728 1.400 . S
C729 C730 1.398 . S
C730 H718 0.950 . S
C730 C729 1.398 . S
C730 C731 1.391 . S
C731 H719 0.950 . S
C731 C727 1.393 . S
C731 C730 1.391 . S
H732 C740 0.961 . S
H733 C745 0.950 . S
H734 C742 0.950 . S
H735 C744 0.950 . S
H736 C746 0.950 . S
H737 C748 0.950 . S
H738 C750 0.950 . S
H739 C751 0.950 . S
C740 H732 0.961 . S
C740 C741 1.373 1_554 S
C740 C742 1.393 . S
C741 C740 1.373 1_556 S
C741 C745 1.393 . S
C742 H734 0.950 . S
C742 C740 1.393 . S
C742 C743 1.400 1_554 S
C743 C742 1.400 1_556 S
C743 C744 1.398 . S
C743 C749 1.491 . S
C744 H735 0.950 . S
C744 C743 1.398 . S
C744 C745 1.391 . S
C745 H733 0.950 . S
C745 C741 1.393 . S
C745 C744 1.391 . S
C746 H736 0.950 . S
C746 C747 1.386 . S
C746 C748 1.391 . S
C747 C746 1.386 . S
C747 C751 1.393 1_556 S
C748 H737 0.950 . S
C748 C746 1.391 . S
C748 C749 1.400 . S
C749 C743 1.491 . S
C749 C748 1.400 . S
C749 C750 1.398 1_556 S
C750 H738 0.950 . S
C750 C749 1.398 1_554 S
C750 C751 1.391 . S
C751 H739 0.950 . S
C751 C747 1.393 1_554 S
C751 C750 1.391 . S
H752 C760 0.950 . S
H753 C765 0.950 . S
H754 C762 0.950 . S
H755 C764 0.950 . S
H756 C766 0.950 . S
H757 C768 0.950 . S
H758 C770 0.950 . S
H759 C771 0.950 . S
C760 H752 0.950 . S
C760 C761 1.386 . S
C760 C762 1.391 . S
C761 C760 1.386 . S
C761 C765 1.393 . S
C762 H754 0.950 . S
C762 C760 1.391 . S
C762 C763 1.400 . S
C763 C762 1.400 . S
C763 C764 1.398 . S
C763 C769 1.491 . S
C764 H755 0.950 . S
C764 C763 1.398 . S
C764 C765 1.391 . S
C765 H753 0.950 . S
C765 C761 1.393 . S
C765 C764 1.391 . S
C766 H756 0.950 . S
C766 C767 1.386 . S
C766 C768 1.391 . S
C767 C766 1.386 . S
C767 C771 1.393 . S
C768 H757 0.950 . S
C768 C766 1.391 . S
C768 C769 1.400 . S
C769 C763 1.491 . S
C769 C768 1.400 . S
C769 C770 1.398 . S
C770 H758 0.950 . S
C770 C769 1.398 . S
C770 C771 1.391 . S
C771 H759 0.950 . S
C771 C767 1.393 . S
C771 C770 1.391 . S
H772 C780 0.950 . S
H773 C785 0.950 . S
H774 C782 0.950 . S
H775 C784 0.950 . S
H776 C786 0.950 . S
H777 C788 0.950 . S
H778 C790 0.950 . S
H779 C791 0.950 . S
C780 H772 0.950 . S
C780 C781 1.386 . S
C780 C782 1.391 . S
C781 C780 1.386 . S
C781 C785 1.393 . S
C782 H774 0.950 . S
C782 C780 1.391 . S
C782 C783 1.400 . S
C783 C782 1.400 . S
C783 C784 1.398 . S
C783 C789 1.491 . S
C784 H775 0.950 . S
C784 C783 1.398 . S
C784 C785 1.391 . S
C785 H773 0.950 . S
C785 C781 1.393 . S
C785 C784 1.391 . S
C786 H776 0.950 . S
C786 C787 1.386 . S
C786 C788 1.391 . S
C787 C786 1.386 . S
C787 C791 1.393 . S
C788 H777 0.950 . S
C788 C786 1.391 . S
C788 C789 1.400 . S
C789 C783 1.491 . S
C789 C788 1.400 . S
C789 C790 1.398 . S
C790 H778 0.950 . S
C790 C789 1.398 . S
C790 C791 1.391 . S
C791 H779 0.950 . S
C791 C787 1.393 . S
C791 C790 1.391 . S
H792 C800 0.950 . S
H793 C805 0.950 . S
H794 C802 0.950 . S
H795 C804 0.950 . S
H796 C806 0.950 . S
H797 C808 0.950 . S
H798 C810 0.950 . S
H799 C811 0.950 . S
C800 H792 0.950 . S
C800 C801 1.386 . S
C800 C802 1.391 . S
C801 C800 1.386 . S
C801 C805 1.393 . S
C802 H794 0.950 . S
C802 C800 1.391 . S
C802 C803 1.400 . S
C803 C802 1.400 . S
C803 C804 1.398 . S
C803 C809 1.491 . S
C804 H795 0.950 . S
C804 C803 1.398 . S
C804 C805 1.391 . S
C805 H793 0.950 . S
C805 C801 1.393 . S
C805 C804 1.391 . S
C806 H796 0.950 . S
C806 C807 1.386 . S
C806 C808 1.391 . S
C807 C806 1.386 . S
C807 C811 1.393 . S
C808 H797 0.950 . S
C808 C806 1.391 . S
C808 C809 1.400 . S
C809 C803 1.491 . S
C809 C808 1.400 . S
C809 C810 1.398 . S
C810 H798 0.950 . S
C810 C809 1.398 . S
C810 C811 1.391 . S
C811 H799 0.950 . S
C811 C807 1.393 . S
C811 C810 1.391 . S
H812 C820 0.950 . S
H813 C825 0.950 . S
H814 C822 0.950 . S
H815 C824 0.950 . S
H816 C826 0.950 . S
H817 C828 0.950 . S
H818 C830 0.950 . S
H819 C831 0.950 . S
C820 H812 0.950 . S
C820 C821 1.386 . S
C820 C822 1.391 . S
C821 C820 1.386 . S
C821 C825 1.393 . S
C822 H814 0.950 . S
C822 C820 1.391 . S
C822 C823 1.400 . S
C823 C822 1.400 . S
C823 C824 1.398 . S
C823 C829 1.491 . S
C824 H815 0.950 . S
C824 C823 1.398 . S
C824 C825 1.391 . S
C825 H813 0.950 . S
C825 C821 1.393 . S
C825 C824 1.391 . S
C826 H816 0.950 . S
C826 C827 1.386 . S
C826 C828 1.391 . S
C827 C826 1.386 . S
C827 C831 1.393 . S
C828 H817 0.950 . S
C828 C826 1.391 . S
C828 C829 1.400 . S
C829 C823 1.491 . S
C829 C828 1.400 . S
C829 C830 1.398 . S
C830 H818 0.950 . S
C830 C829 1.398 . S
C830 C831 1.391 . S
C831 H819 0.950 . S
C831 C827 1.393 . S
C831 C830 1.391 . S
H832 C840 0.950 . S
H833 C845 0.950 . S
H834 C842 0.950 . S
H835 C844 0.950 . S
H836 C846 0.950 . S
H837 C848 0.950 . S
H838 C850 0.950 . S
H839 C851 0.950 . S
C840 H832 0.950 . S
C840 C841 1.386 . S
C840 C842 1.391 . S
C841 C840 1.386 . S
C841 C845 1.393 . S
C842 H834 0.950 . S
C842 C840 1.391 . S
C842 C843 1.400 . S
C843 C842 1.400 . S
C843 C844 1.398 . S
C843 C849 1.491 . S
C844 H835 0.950 . S
C844 C843 1.398 . S
C844 C845 1.391 . S
C845 H833 0.950 . S
C845 C841 1.393 . S
C845 C844 1.391 . S
C846 H836 0.950 . S
C846 C847 1.386 . S
C846 C848 1.391 . S
C847 C846 1.386 . S
C847 C851 1.393 . S
C848 H837 0.950 . S
C848 C846 1.391 . S
C848 C849 1.400 . S
C849 C843 1.491 . S
C849 C848 1.400 . S
C849 C850 1.398 . S
C850 H838 0.950 . S
C850 C849 1.398 . S
C850 C851 1.391 . S
C851 H839 0.950 . S
C851 C847 1.393 . S
C851 C850 1.391 . S
H852 C860 0.950 . S
H853 C865 0.950 . S
H854 C862 0.950 . S
H855 C864 0.950 . S
H856 C866 0.950 1_545 S
H857 C868 0.950 1_545 S
H858 C870 0.950 . S
H859 C871 0.950 . S
C860 H852 0.950 . S
C860 C861 1.386 . S
C860 C862 1.391 . S
C861 C860 1.386 . S
C861 C865 1.393 1_565 S
C862 H854 0.950 . S
C862 C860 1.391 . S
C862 C863 1.400 . S
C863 C862 1.400 . S
C863 C864 1.398 1_565 S
C863 C869 1.491 . S
C864 H855 0.950 . S
C864 C863 1.398 1_545 S
C864 C865 1.391 . S
C865 H853 0.950 . S
C865 C861 1.393 1_545 S
C865 C864 1.391 . S
C866 H856 0.950 1_565 S
C866 C867 1.386 . S
C866 C868 1.391 . S
C867 C866 1.386 . S
C867 C871 1.393 . S
C868 H857 0.950 1_565 S
C868 C866 1.391 . S
C868 C869 1.400 . S
C869 C863 1.491 . S
C869 C868 1.400 . S
C869 C870 1.398 . S
C870 H858 0.950 . S
C870 C869 1.398 . S
C870 C871 1.391 . S
C871 H859 0.950 . S
C871 C867 1.393 . S
C871 C870 1.391 . S
H872 C880 0.950 . S
H873 C885 0.950 . S
H874 C882 0.950 . S
H875 C884 0.950 . S
H876 C886 0.950 . S
H877 C888 0.950 . S
H878 C890 0.950 . S
H879 C891 0.950 . S
C880 H872 0.950 . S
C880 C881 1.386 . S
C880 C882 1.391 . S
C881 C880 1.386 . S
C881 C885 1.393 . S
C882 H874 0.950 . S
C882 C880 1.391 . S
C882 C883 1.400 . S
C883 C882 1.400 . S
C883 C884 1.398 . S
C883 C889 1.491 . S
C884 H875 0.950 . S
C884 C883 1.398 . S
C884 C885 1.391 . S
C885 H873 0.950 . S
C885 C881 1.393 . S
C885 C884 1.391 . S
C886 H876 0.950 . S
C886 C887 1.386 . S
C886 C888 1.391 . S
C887 C886 1.386 . S
C887 C891 1.393 . S
C888 H877 0.950 . S
C888 C886 1.391 . S
C888 C889 1.400 . S
C889 C883 1.491 . S
C889 C888 1.400 . S
C889 C890 1.398 . S
C890 H878 0.950 . S
C890 C889 1.398 . S
C890 C891 1.391 . S
C891 H879 0.950 . S
C891 C887 1.393 . S
C891 C890 1.391 . S
H892 C900 0.950 . S
H893 C905 0.950 . S
H894 C902 0.950 . S
H895 C904 0.950 . S
H896 C906 0.950 . S
H897 C908 0.950 . S
H898 C910 0.950 . S
H899 C911 0.950 . S
C900 H892 0.950 . S
C900 C901 1.386 . S
C900 C902 1.391 . S
C901 C900 1.386 . S
C901 C905 1.393 . S
C902 H894 0.950 . S
C902 C900 1.391 . S
C902 C903 1.400 . S
C903 C902 1.400 . S
C903 C904 1.398 . S
C903 C909 1.491 . S
C904 H895 0.950 . S
C904 C903 1.398 . S
C904 C905 1.391 . S
C905 H893 0.950 . S
C905 C901 1.393 . S
C905 C904 1.391 . S
C906 H896 0.950 . S
C906 C907 1.386 . S
C906 C908 1.391 . S
C907 C906 1.386 . S
C907 C911 1.393 . S
C908 H897 0.950 . S
C908 C906 1.391 . S
C908 C909 1.400 . S
C909 C903 1.491 . S
C909 C908 1.400 . S
C909 C910 1.398 . S
C910 H898 0.950 . S
C910 C909 1.398 . S
C910 C911 1.391 . S
C911 H899 0.950 . S
C911 C907 1.393 . S
C911 C910 1.391 . S
H912 C920 0.950 . S
H913 C925 0.950 . S
H914 C922 0.950 . S
H915 C924 0.950 . S
H916 C926 0.950 . S
H917 C928 0.950 . S
H918 C930 0.950 . S
H919 C931 0.950 . S
C920 H912 0.950 . S
C920 C921 1.386 . S
C920 C922 1.391 . S
C921 C920 1.386 . S
C921 C925 1.393 . S
C922 H914 0.950 . S
C922 C920 1.391 . S
C922 C923 1.400 . S
C923 C922 1.400 . S
C923 C924 1.398 . S
C923 C929 1.491 . S
C924 H915 0.950 . S
C924 C923 1.398 . S
C924 C925 1.391 . S
C925 H913 0.950 . S
C925 C921 1.393 . S
C925 C924 1.391 . S
C926 H916 0.950 . S
C926 C927 1.386 . S
C926 C928 1.391 . S
C927 C926 1.386 . S
C927 C931 1.393 . S
C928 H917 0.950 . S
C928 C926 1.391 . S
C928 C929 1.400 . S
C929 C923 1.491 . S
C929 C928 1.400 . S
C929 C930 1.398 . S
C930 H918 0.950 . S
C930 C929 1.398 . S
C930 C931 1.391 . S
C931 H919 0.950 . S
C931 C927 1.393 . S
C931 C930 1.391 . S
H932 C940 0.950 . S
H933 C945 0.950 . S
H934 C942 0.950 . S
H935 C944 0.950 . S
H936 C946 0.950 . S
H937 C948 0.950 . S
H938 C950 0.950 . S
H939 C951 0.950 . S
C940 H932 0.950 . S
C940 C941 1.386 . S
C940 C942 1.391 . S
C941 C940 1.386 . S
C941 C945 1.393 . S
C942 H934 0.950 . S
C942 C940 1.391 . S
C942 C943 1.400 . S
C943 C942 1.400 . S
C943 C944 1.398 . S
C943 C949 1.491 . S
C944 H935 0.950 . S
C944 C943 1.398 . S
C944 C945 1.391 . S
C945 H933 0.950 . S
C945 C941 1.393 . S
C945 C944 1.391 . S
C946 H936 0.950 . S
C946 C947 1.386 . S
C946 C948 1.391 . S
C947 C946 1.386 . S
C947 C951 1.393 . S
C948 H937 0.950 . S
C948 C946 1.391 . S
C948 C949 1.400 . S
C949 C943 1.491 . S
C949 C948 1.400 . S
C949 C950 1.398 . S
C950 H938 0.950 . S
C950 C949 1.398 . S
C950 C951 1.391 . S
C951 H939 0.950 . S
C951 C947 1.393 . S
C951 C950 1.391 . S
H952 C960 0.950 . S
H953 C965 0.950 . S
H954 C962 0.950 . S
H955 C964 0.950 . S
H956 C966 0.950 . S
H957 C968 0.950 . S
H958 C970 0.950 . S
H959 C971 0.950 . S
C960 H952 0.950 . S
C960 C961 1.386 1_455 S
C960 C962 1.391 . S
C961 C960 1.386 1_655 S
C961 C965 1.393 . S
C962 H954 0.950 . S
C962 C960 1.391 . S
C962 C963 1.400 1_455 S
C963 C962 1.400 1_655 S
C963 C964 1.398 . S
C963 C969 1.491 . S
C964 H955 0.950 . S
C964 C963 1.398 . S
C964 C965 1.391 . S
C965 H953 0.950 . S
C965 C961 1.393 . S
C965 C964 1.391 . S
C966 H956 0.950 . S
C966 C967 1.386 . S
C966 C968 1.391 . S
C967 C966 1.386 . S
C967 C971 1.393 1_655 S
C968 H957 0.950 . S
C968 C966 1.391 . S
C968 C969 1.400 . S
C969 C963 1.491 . S
C969 C968 1.400 . S
C969 C970 1.398 1_655 S
C970 H958 0.950 . S
C970 C969 1.398 1_455 S
C970 C971 1.391 . S
C971 H959 0.950 . S
C971 C967 1.393 1_455 S
C971 C970 1.391 . S
H972 C980 0.950 . S
H973 C985 0.950 . S
H974 C982 0.950 . S
H975 C984 0.950 . S
H976 C986 0.950 . S
H977 C988 0.950 . S
H978 C990 0.950 . S
H979 C991 0.950 . S
C980 H972 0.950 . S
C980 C981 1.386 . S
C980 C982 1.391 . S
C981 C980 1.386 . S
C981 C985 1.393 . S
C982 H974 0.950 . S
C982 C980 1.391 . S
C982 C983 1.400 . S
C983 C982 1.400 . S
C983 C984 1.398 . S
C983 C989 1.491 . S
C984 H975 0.950 . S
C984 C983 1.398 . S
C984 C985 1.391 . S
C985 H973 0.950 . S
C985 C981 1.393 . S
C985 C984 1.391 . S
C986 H976 0.950 . S
C986 C987 1.386 . S
C986 C988 1.391 . S
C987 C986 1.386 . S
C987 C991 1.393 . S
C988 H977 0.950 . S
C988 C986 1.391 . S
C988 C989 1.400 . S
C989 C983 1.491 . S
C989 C988 1.400 . S
C989 C990 1.398 . S
C990 H978 0.950 . S
C990 C989 1.398 . S
C990 C991 1.391 . S
C991 H979 0.950 . S
C991 C987 1.393 . S
C991 C990 1.391 . S
H992 C1000 0.950 . S
H993 C1005 0.950 . S
H994 C1002 0.950 . S
H995 C1004 0.950 . S
H996 C1006 0.950 . S
H997 C1008 0.950 . S
H998 C1010 0.950 . S
H999 C1011 0.950 . S
C1000 H992 0.950 . S
C1000 C1001 1.386 . S
C1000 C1002 1.391 . S
C1001 C1000 1.386 . S
C1001 C1005 1.393 . S
C1002 H994 0.950 . S
C1002 C1000 1.391 . S
C1002 C1003 1.400 . S
C1003 C1002 1.400 . S
C1003 C1004 1.398 . S
C1003 C1009 1.491 . S
C1004 H995 0.950 . S
C1004 C1003 1.398 . S
C1004 C1005 1.391 . S
C1005 H993 0.950 . S
C1005 C1001 1.393 . S
C1005 C1004 1.391 . S
C1006 H996 0.950 . S
C1006 C1007 1.386 . S
C1006 C1008 1.391 . S
C1007 C1006 1.386 . S
C1007 C1011 1.393 . S
C1008 H997 0.950 . S
C1008 C1006 1.391 . S
C1008 C1009 1.400 . S
C1009 C1003 1.491 . S
C1009 C1008 1.400 . S
C1009 C1010 1.398 . S
C1010 H998 0.950 . S
C1010 C1009 1.398 . S
C1010 C1011 1.391 . S
C1011 H999 0.950 . S
C1011 C1007 1.393 . S
C1011 C1010 1.391 . S
H1012 C1020 0.950 . S
H1013 C1025 0.950 . S
H1014 C1022 0.950 . S
H1015 C1024 0.950 . S
H1016 C1026 0.950 . S
H1017 C1028 0.950 . S
H1018 C1030 0.950 . S
H1019 C1031 0.950 . S
C1020 H1012 0.950 . S
C1020 C1021 1.386 . S
C1020 C1022 1.391 . S
C1021 C1020 1.386 . S
C1021 C1025 1.393 . S
C1022 H1014 0.950 . S
C1022 C1020 1.391 . S
C1022 C1023 1.400 . S
C1023 C1022 1.400 . S
C1023 C1024 1.398 . S
C1023 C1029 1.491 . S
C1024 H1015 0.950 . S
C1024 C1023 1.398 . S
C1024 C1025 1.391 . S
C1025 H1013 0.950 . S
C1025 C1021 1.393 . S
C1025 C1024 1.391 . S
C1026 H1016 0.950 . S
C1026 C1027 1.386 . S
C1026 C1028 1.391 . S
C1027 C1026 1.386 . S
C1027 C1031 1.393 . S
C1028 H1017 0.950 . S
C1028 C1026 1.391 . S
C1028 C1029 1.400 . S
C1029 C1023 1.491 . S
C1029 C1028 1.400 . S
C1029 C1030 1.398 . S
C1030 H1018 0.950 . S
C1030 C1029 1.398 . S
C1030 C1031 1.391 . S
C1031 H1019 0.950 . S
C1031 C1027 1.393 . S
C1031 C1030 1.391 . S
H1032 C1040 0.950 . S
H1033 C1045 0.950 . S
H1034 C1042 0.950 . S
H1035 C1044 0.950 . S
H1036 C1046 0.950 . S
H1037 C1048 0.950 . S
H1038 C1050 0.950 . S
H1039 C1051 0.950 . S
C1040 H1032 0.950 . S
C1040 C1041 1.386 . S
C1040 C1042 1.391 . S
C1041 C1040 1.386 . S
C1041 C1045 1.393 . S
C1042 H1034 0.950 . S
C1042 C1040 1.391 . S
C1042 C1043 1.400 . S
C1043 C1042 1.400 . S
C1043 C1044 1.398 . S
C1043 C1049 1.491 . S
C1044 H1035 0.950 . S
C1044 C1043 1.398 . S
C1044 C1045 1.391 . S
C1045 H1033 0.950 . S
C1045 C1041 1.393 . S
C1045 C1044 1.391 . S
C1046 H1036 0.950 . S
C1046 C1047 1.386 . S
C1046 C1048 1.391 . S
C1047 C1046 1.386 . S
C1047 C1051 1.393 . S
C1048 H1037 0.950 . S
C1048 C1046 1.391 . S
C1048 C1049 1.400 . S
C1049 C1043 1.491 . S
C1049 C1048 1.400 . S
C1049 C1050 1.398 . S
C1050 H1038 0.950 . S
C1050 C1049 1.398 . S
C1050 C1051 1.391 . S
C1051 H1039 0.950 . S
C1051 C1047 1.393 . S
C1051 C1050 1.391 . S
H1052 C1060 0.950 . S
H1053 C1065 0.950 . S
H1054 C1062 0.950 . S
H1055 C1064 0.950 . S
H1056 C1066 0.950 . S
H1057 C1068 0.950 . S
H1058 C1070 0.950 . S
H1059 C1071 0.950 . S
C1060 H1052 0.950 . S
C1060 C1061 1.386 . S
C1060 C1062 1.391 . S
C1061 C1060 1.386 . S
C1061 C1065 1.393 . S
C1062 H1054 0.950 . S
C1062 C1060 1.391 . S
C1062 C1063 1.400 . S
C1063 C1062 1.400 . S
C1063 C1064 1.398 . S
C1063 C1069 1.491 . S
C1064 H1055 0.950 . S
C1064 C1063 1.398 . S
C1064 C1065 1.391 . S
C1065 H1053 0.950 . S
C1065 C1061 1.393 . S
C1065 C1064 1.391 . S
C1066 H1056 0.950 . S
C1066 C1067 1.386 . S
C1066 C1068 1.391 . S
C1067 C1066 1.386 . S
C1067 C1071 1.393 . S
C1068 H1057 0.950 . S
C1068 C1066 1.391 . S
C1068 C1069 1.400 . S
C1069 C1063 1.491 . S
C1069 C1068 1.400 . S
C1069 C1070 1.398 . S
C1070 H1058 0.950 . S
C1070 C1069 1.398 . S
C1070 C1071 1.391 . S
C1071 H1059 0.950 . S
C1071 C1067 1.393 . S
C1071 C1070 1.391 . S
H1072 C1080 0.950 1_556 S
H1073 C1085 0.950 . S
H1074 C1082 0.950 . S
H1075 C1084 0.950 . S
H1076 C1086 0.950 . S
H1077 C1088 0.950 . S
H1078 C1090 0.950 . S
H1079 C1091 0.950 . S
C1080 H1072 0.950 1_554 S
C1080 C1081 1.386 1_554 S
C1080 C1082 1.391 . S
C1081 C1080 1.386 1_556 S
C1081 C1085 1.393 1_556 S
C1082 H1074 0.950 . S
C1082 C1080 1.391 . S
C1082 C1083 1.400 . S
C1083 C1082 1.400 . S
C1083 C1084 1.398 . S
C1083 C1089 1.491 . S
C1084 H1075 0.950 . S
C1084 C1083 1.398 . S
C1084 C1085 1.391 . S
C1085 H1073 0.950 . S
C1085 C1081 1.393 1_554 S
C1085 C1084 1.391 . S
C1086 H1076 0.950 . S
C1086 C1087 1.386 . S
C1086 C1088 1.391 . S
C1087 C1086 1.386 . S
C1087 C1091 1.393 . S
C1088 H1077 0.950 . S
C1088 C1086 1.391 . S
C1088 C1089 1.400 . S
C1089 C1083 1.491 . S
C1089 C1088 1.400 . S
C1089 C1090 1.398 . S
C1090 H1078 0.950 . S
C1090 C1089 1.398 . S
C1090 C1091 1.391 . S
C1091 H1079 0.950 . S
C1091 C1087 1.393 . S
C1091 C1090 1.391 . S
H1092 C1100 0.950 . S
H1093 C1105 0.950 . S
H1094 C1102 0.950 . S
H1095 C1104 0.950 . S
H1096 C1106 0.950 . S
H1097 C1108 0.950 . S
H1098 C1110 0.950 . S
H1099 C1111 0.950 . S
C1100 H1092 0.950 . S
C1100 C1101 1.386 . S
C1100 C1102 1.391 . S
C1101 C1100 1.386 . S
C1101 C1105 1.393 . S
C1102 H1094 0.950 . S
C1102 C1100 1.391 . S
C1102 C1103 1.400 . S
C1103 C1102 1.400 . S
C1103 C1104 1.398 . S
C1103 C1109 1.491 . S
C1104 H1095 0.950 . S
C1104 C1103 1.398 . S
C1104 C1105 1.391 . S
C1105 H1093 0.950 . S
C1105 C1101 1.393 . S
C1105 C1104 1.391 . S
C1106 H1096 0.950 . S
C1106 C1107 1.386 . S
C1106 C1108 1.391 . S
C1107 C1106 1.386 . S
C1107 C1111 1.393 . S
C1108 H1097 0.950 . S
C1108 C1106 1.391 . S
C1108 C1109 1.400 . S
C1109 C1103 1.491 . S
C1109 C1108 1.400 . S
C1109 C1110 1.398 . S
C1110 H1098 0.950 . S
C1110 C1109 1.398 . S
C1110 C1111 1.391 . S
C1111 H1099 0.950 . S
C1111 C1107 1.393 . S
C1111 C1110 1.391 . S
H1112 C1120 0.950 . S
H1113 C1125 0.950 . S
H1114 C1122 0.950 . S
H1115 C1124 0.950 . S
H1116 C1126 0.950 . S
H1117 C1128 0.950 . S
H1118 C1130 0.950 . S
H1119 C1131 0.950 . S
C1120 H1112 0.950 . S
C1120 C1121 1.386 . S
C1120 C1122 1.391 . S
C1121 C1120 1.386 . S
C1121 C1125 1.393 . S
C1122 H1114 0.950 . S
C1122 C1120 1.391 . S
C1122 C1123 1.400 . S
C1123 C1122 1.400 . S
C1123 C1124 1.398 . S
C1123 C1129 1.491 . S
C1124 H1115 0.950 . S
C1124 C1123 1.398 . S
C1124 C1125 1.391 . S
C1125 H1113 0.950 . S
C1125 C1121 1.393 . S
C1125 C1124 1.391 . S
C1126 H1116 0.950 . S
C1126 C1127 1.386 . S
C1126 C1128 1.391 . S
C1127 C1126 1.386 . S
C1127 C1131 1.393 . S
C1128 H1117 0.950 . S
C1128 C1126 1.391 . S
C1128 C1129 1.400 . S
C1129 C1123 1.491 . S
C1129 C1128 1.400 . S
C1129 C1130 1.398 . S
C1130 H1118 0.950 . S
C1130 C1129 1.398 . S
C1130 C1131 1.391 . S
C1131 H1119 0.950 . S
C1131 C1127 1.393 . S
C1131 C1130 1.391 . S
H1132 C1140 0.950 . S
H1133 C1145 0.950 . S
H1134 C1142 0.950 . S
H1135 C1144 0.950 . S
H1136 C1146 0.950 1_565 S
H1137 C1148 0.950 . S
H1138 C1150 0.950 . S
H1139 C1151 0.950 1_565 S
C1140 H1132 0.950 . S
C1140 C1141 1.386 . S
C1140 C1142 1.391 . S
C1141 C1140 1.386 . S
C1141 C1145 1.393 . S
C1142 H1134 0.950 . S
C1142 C1140 1.391 . S
C1142 C1143 1.400 . S
C1143 C1142 1.400 . S
C1143 C1144 1.398 . S
C1143 C1149 1.491 . S
C1144 H1135 0.950 . S
C1144 C1143 1.398 . S
C1144 C1145 1.391 . S
C1145 H1133 0.950 . S
C1145 C1141 1.393 . S
C1145 C1144 1.391 . S
C1146 H1136 0.950 1_545 S
C1146 C1147 1.386 1_545 S
C1146 C1148 1.391 . S
C1147 C1146 1.386 1_565 S
C1147 C1151 1.393 1_565 S
C1148 H1137 0.950 . S
C1148 C1146 1.391 . S
C1148 C1149 1.400 . S
C1149 C1143 1.491 . S
C1149 C1148 1.400 . S
C1149 C1150 1.398 . S
C1150 H1138 0.950 . S
C1150 C1149 1.398 . S
C1150 C1151 1.391 . S
C1151 H1139 0.950 1_545 S
C1151 C1147 1.393 1_545 S
C1151 C1150 1.391 . S
H1152 C1160 0.950 . S
H1153 C1165 0.950 1_455 S
H1154 C1162 0.950 . S
H1155 C1164 0.924 1_455 S
H1156 C1166 0.950 . S
H1157 C1168 0.950 . S
H1158 C1170 0.950 . S
H1159 C1171 0.950 . S
C1160 H1152 0.950 . S
C1160 C1161 1.386 . S
C1160 C1162 1.391 . S
C1161 C1160 1.386 . S
C1161 C1165 1.393 . S
C1162 H1154 0.950 . S
C1162 C1160 1.391 . S
C1162 C1163 1.400 . S
C1163 C1162 1.400 . S
C1163 C1164 1.422 . S
C1163 C1169 1.491 . S
C1164 H1155 0.924 1_655 S
C1164 C1163 1.422 . S
C1164 C1165 1.393 . S
C1165 H1153 0.950 1_655 S
C1165 C1161 1.393 . S
C1165 C1164 1.393 . S
C1166 H1156 0.950 . S
C1166 C1167 1.386 1_455 S
C1166 C1168 1.391 . S
C1167 C1166 1.386 1_655 S
C1167 C1171 1.393 . S
C1168 H1157 0.950 . S
C1168 C1166 1.391 . S
C1168 C1169 1.400 1_455 S
C1169 C1163 1.491 . S
C1169 C1168 1.400 1_655 S
C1169 C1170 1.398 . S
C1170 H1158 0.950 . S
C1170 C1169 1.398 . S
C1170 C1171 1.391 . S
C1171 H1159 0.950 . S
C1171 C1167 1.393 . S
C1171 C1170 1.391 . S
H1172 C1180 0.950 . S
H1173 C1185 0.950 . S
H1174 C1182 0.950 . S
H1175 C1184 0.950 . S
H1176 C1186 0.950 . S
H1177 C1188 0.950 . S
H1178 C1190 0.950 . S
H1179 C1191 0.950 . S
C1180 H1172 0.950 . S
C1180 C1181 1.386 . S
C1180 C1182 1.391 . S
C1181 C1180 1.386 . S
C1181 C1185 1.393 . S
C1182 H1174 0.950 . S
C1182 C1180 1.391 . S
C1182 C1183 1.400 . S
C1183 C1182 1.400 . S
C1183 C1184 1.398 . S
C1183 C1189 1.491 . S
C1184 H1175 0.950 . S
C1184 C1183 1.398 . S
C1184 C1185 1.391 . S
C1185 H1173 0.950 . S
C1185 C1181 1.393 . S
C1185 C1184 1.391 . S
C1186 H1176 0.950 . S
C1186 C1187 1.386 . S
C1186 C1188 1.391 . S
C1187 C1186 1.386 . S
C1187 C1191 1.393 . S
C1188 H1177 0.950 . S
C1188 C1186 1.391 . S
C1188 C1189 1.400 . S
C1189 C1183 1.491 . S
C1189 C1188 1.400 . S
C1189 C1190 1.398 . S
C1190 H1178 0.950 . S
C1190 C1189 1.398 . S
C1190 C1191 1.391 . S
C1191 H1179 0.950 . S
C1191 C1187 1.393 . S
C1191 C1190 1.391 . S
H1192 C1200 0.950 . S
H1193 C1205 0.950 . S
H1194 C1202 0.950 . S
H1195 C1204 0.950 . S
H1196 C1206 0.950 . S
H1197 C1208 0.950 . S
H1198 C1210 0.950 . S
H1199 C1211 0.950 . S
C1200 H1192 0.950 . S
C1200 C1201 1.386 . S
C1200 C1202 1.391 . S
C1201 C1200 1.386 . S
C1201 C1205 1.393 . S
C1202 H1194 0.950 . S
C1202 C1200 1.391 . S
C1202 C1203 1.400 . S
C1203 C1202 1.400 . S
C1203 C1204 1.398 . S
C1203 C1209 1.491 . S
C1204 H1195 0.950 . S
C1204 C1203 1.398 . S
C1204 C1205 1.391 . S
C1205 H1193 0.950 . S
C1205 C1201 1.393 . S
C1205 C1204 1.391 . S
C1206 H1196 0.950 . S
C1206 C1207 1.386 . S
C1206 C1208 1.391 . S
C1207 C1206 1.386 . S
C1207 C1211 1.393 . S
C1208 H1197 0.950 . S
C1208 C1206 1.391 . S
C1208 C1209 1.400 . S
C1209 C1203 1.491 . S
C1209 C1208 1.400 . S
C1209 C1210 1.398 . S
C1210 H1198 0.950 . S
C1210 C1209 1.398 . S
C1210 C1211 1.391 . S
C1211 H1199 0.950 . S
C1211 C1207 1.393 . S
C1211 C1210 1.391 . S
H1212 C1220 0.950 . S
H1213 C1225 0.950 . S
H1214 C1222 0.950 . S
H1215 C1224 0.950 . S
H1216 C1226 0.950 . S
H1217 C1228 0.950 . S
H1218 C1230 0.950 . S
H1219 C1231 0.950 . S
C1220 H1212 0.950 . S
C1220 C1221 1.386 . S
C1220 C1222 1.391 . S
C1221 C1220 1.386 . S
C1221 C1225 1.393 . S
C1222 H1214 0.950 . S
C1222 C1220 1.391 . S
C1222 C1223 1.400 . S
C1223 C1222 1.400 . S
C1223 C1224 1.398 . S
C1223 C1229 1.491 . S
C1224 H1215 0.950 . S
C1224 C1223 1.398 . S
C1224 C1225 1.391 . S
C1225 H1213 0.950 . S
C1225 C1221 1.393 . S
C1225 C1224 1.391 . S
C1226 H1216 0.950 . S
C1226 C1227 1.386 . S
C1226 C1228 1.391 . S
C1227 C1226 1.386 . S
C1227 C1231 1.393 . S
C1228 H1217 0.950 . S
C1228 C1226 1.391 . S
C1228 C1229 1.400 . S
C1229 C1223 1.491 . S
C1229 C1228 1.400 . S
C1229 C1230 1.398 . S
C1230 H1218 0.950 . S
C1230 C1229 1.398 . S
C1230 C1231 1.391 . S
C1231 H1219 0.950 . S
C1231 C1227 1.393 . S
C1231 C1230 1.391 . S
H1232 C1240 0.950 1_545 S
H1233 C1245 0.950 . S
H1234 C1242 0.950 1_545 S
H1235 C1244 0.950 . S
H1236 C1246 0.950 . S
H1237 C1248 0.950 . S
H1238 C1250 0.950 . S
H1239 C1251 0.950 . S
C1240 H1232 0.950 1_565 S
C1240 C1241 1.386 . S
C1240 C1242 1.391 . S
C1241 C1240 1.386 . S
C1241 C1245 1.393 . S
C1242 H1234 0.950 1_565 S
C1242 C1240 1.391 . S
C1242 C1243 1.400 . S
C1243 C1242 1.400 . S
C1243 C1244 1.398 . S
C1243 C1249 1.491 . S
C1244 H1235 0.950 . S
C1244 C1243 1.398 . S
C1244 C1245 1.391 . S
C1245 H1233 0.950 . S
C1245 C1241 1.393 . S
C1245 C1244 1.391 . S
C1246 H1236 0.950 . S
C1246 C1247 1.386 . S
C1246 C1248 1.391 . S
C1247 C1246 1.386 . S
C1247 C1251 1.393 . S
C1248 H1237 0.950 . S
C1248 C1246 1.391 . S
C1248 C1249 1.400 . S
C1249 C1243 1.491 . S
C1249 C1248 1.400 . S
C1249 C1250 1.398 . S
C1250 H1238 0.950 . S
C1250 C1249 1.398 . S
C1250 C1251 1.391 . S
C1251 H1239 0.950 . S
C1251 C1247 1.393 . S
C1251 C1250 1.391 . S
H1252 C1260 0.950 . S
H1253 C1265 0.950 . S
H1254 C1262 0.950 . S
H1255 C1264 0.950 . S
H1256 C1266 0.950 . S
H1257 C1268 0.950 . S
H1258 C1270 0.950 . S
H1259 C1271 0.950 . S
C1260 H1252 0.950 . S
C1260 C1261 1.386 . S
C1260 C1262 1.391 . S
C1261 C1260 1.386 . S
C1261 C1265 1.393 . S
C1262 H1254 0.950 . S
C1262 C1260 1.391 . S
C1262 C1263 1.400 . S
C1263 C1262 1.400 . S
C1263 C1264 1.398 . S
C1263 C1269 1.491 . S
C1264 H1255 0.950 . S
C1264 C1263 1.398 . S
C1264 C1265 1.391 . S
C1265 H1253 0.950 . S
C1265 C1261 1.393 . S
C1265 C1264 1.391 . S
C1266 H1256 0.950 . S
C1266 C1267 1.386 . S
C1266 C1268 1.391 . S
C1267 C1266 1.386 . S
C1267 C1271 1.393 . S
C1268 H1257 0.950 . S
C1268 C1266 1.391 . S
C1268 C1269 1.400 . S
C1269 C1263 1.491 . S
C1269 C1268 1.400 . S
C1269 C1270 1.398 . S
C1270 H1258 0.950 . S
C1270 C1269 1.398 . S
C1270 C1271 1.391 . S
C1271 H1259 0.950 . S
C1271 C1267 1.393 . S
C1271 C1270 1.391 . S
H1272 C1280 0.950 . S
H1273 C1285 0.950 . S
H1274 C1282 0.950 . S
H1275 C1284 0.950 . S
H1276 C1286 0.950 . S
H1277 C1288 0.950 . S
H1278 C1290 0.950 . S
H1279 C1291 0.950 . S
C1280 H1272 0.950 . S
C1280 C1281 1.386 . S
C1280 C1282 1.391 . S
C1281 C1280 1.386 . S
C1281 C1285 1.393 . S
C1282 H1274 0.950 . S
C1282 C1280 1.391 . S
C1282 C1283 1.400 . S
C1283 C1282 1.400 . S
C1283 C1284 1.398 . S
C1283 C1289 1.491 . S
C1284 H1275 0.950 . S
C1284 C1283 1.398 . S
C1284 C1285 1.391 . S
C1285 H1273 0.950 . S
C1285 C1281 1.393 . S
C1285 C1284 1.391 . S
C1286 H1276 0.950 . S
C1286 C1287 1.386 . S
C1286 C1288 1.391 . S
C1287 C1286 1.386 . S
C1287 C1291 1.393 . S
C1288 H1277 0.950 . S
C1288 C1286 1.391 . S
C1288 C1289 1.400 . S
C1289 C1283 1.491 . S
C1289 C1288 1.400 . S
C1289 C1290 1.398 . S
C1290 H1278 0.950 . S
C1290 C1289 1.398 . S
C1290 C1291 1.391 . S
C1291 H1279 0.950 . S
C1291 C1287 1.393 . S
C1291 C1290 1.391 . S
H1292 C1300 0.950 . S
H1293 C1305 0.950 . S
H1294 C1302 0.950 . S
H1295 C1304 0.950 . S
H1296 C1306 0.950 . S
H1297 C1308 0.950 . S
H1298 C1310 0.950 . S
H1299 C1311 0.950 . S
C1300 H1292 0.950 . S
C1300 C1301 1.386 . S
C1300 C1302 1.391 . S
C1301 C1300 1.386 . S
C1301 C1305 1.393 . S
C1302 H1294 0.950 . S
C1302 C1300 1.391 . S
C1302 C1303 1.400 . S
C1303 C1302 1.400 . S
C1303 C1304 1.398 . S
C1303 C1309 1.491 . S
C1304 H1295 0.950 . S
C1304 C1303 1.398 . S
C1304 C1305 1.391 . S
C1305 H1293 0.950 . S
C1305 C1301 1.393 . S
C1305 C1304 1.391 . S
C1306 H1296 0.950 . S
C1306 C1307 1.386 . S
C1306 C1308 1.391 . S
C1307 C1306 1.386 . S
C1307 C1311 1.393 . S
C1308 H1297 0.950 . S
C1308 C1306 1.391 . S
C1308 C1309 1.400 . S
C1309 C1303 1.491 . S
C1309 C1308 1.400 . S
C1309 C1310 1.398 . S
C1310 H1298 0.950 . S
C1310 C1309 1.398 . S
C1310 C1311 1.391 . S
C1311 H1299 0.950 . S
C1311 C1307 1.393 . S
C1311 C1310 1.391 . S
H1312 C1320 0.950 . S
H1313 C1325 0.950 . S
H1314 C1322 0.950 . S
H1315 C1324 0.950 . S
H1316 C1326 0.950 . S
H1317 C1328 0.950 . S
H1318 C1330 0.950 . S
H1319 C1331 0.950 . S
C1320 H1312 0.950 . S
C1320 C1321 1.386 . S
C1320 C1322 1.391 . S
C1321 C1320 1.386 . S
C1321 C1325 1.393 . S
C1322 H1314 0.950 . S
C1322 C1320 1.391 . S
C1322 C1323 1.400 . S
C1323 C1322 1.400 . S
C1323 C1324 1.398 . S
C1323 C1329 1.491 . S
C1324 H1315 0.950 . S
C1324 C1323 1.398 . S
C1324 C1325 1.391 . S
C1325 H1313 0.950 . S
C1325 C1321 1.393 . S
C1325 C1324 1.391 . S
C1326 H1316 0.950 . S
C1326 C1327 1.386 . S
C1326 C1328 1.391 . S
C1327 C1326 1.386 . S
C1327 C1331 1.393 . S
C1328 H1317 0.950 . S
C1328 C1326 1.391 . S
C1328 C1329 1.400 . S
C1329 C1323 1.491 . S
C1329 C1328 1.400 . S
C1329 C1330 1.398 . S
C1330 H1318 0.950 . S
C1330 C1329 1.398 . S
C1330 C1331 1.391 . S
C1331 H1319 0.950 . S
C1331 C1327 1.393 . S
C1331 C1330 1.391 . S
H1332 C1340 0.950 . S
H1333 C1345 0.950 . S
H1334 C1342 0.950 . S
H1335 C1344 0.950 . S
H1336 C1346 0.950 . S
H1337 C1348 0.950 . S
H1338 C1350 0.950 . S
H1339 C1351 0.950 . S
C1340 H1332 0.950 . S
C1340 C1341 1.386 . S
C1340 C1342 1.391 . S
C1341 C1340 1.386 . S
C1341 C1345 1.393 . S
C1342 H1334 0.950 . S
C1342 C1340 1.391 . S
C1342 C1343 1.400 . S
C1343 C1342 1.400 . S
C1343 C1344 1.398 . S
C1343 C1349 1.491 . S
C1344 H1335 0.950 . S
C1344 C1343 1.398 . S
C1344 C1345 1.391 . S
C1345 H1333 0.950 . S
C1345 C1341 1.393 . S
C1345 C1344 1.391 . S
C1346 H1336 0.950 . S
C1346 C1347 1.386 . S
C1346 C1348 1.391 . S
C1347 C1346 1.386 . S
C1347 C1351 1.393 . S
C1348 H1337 0.950 . S
C1348 C1346 1.391 . S
C1348 C1349 1.400 . S
C1349 C1343 1.491 . S
C1349 C1348 1.400 . S
C1349 C1350 1.398 . S
C1350 H1338 0.950 . S
C1350 C1349 1.398 . S
C1350 C1351 1.391 . S
C1351 H1339 0.950 . S
C1351 C1347 1.393 . S
C1351 C1350 1.391 . S
H1352 C1360 0.950 . S
H1353 C1365 0.950 . S
H1354 C1362 0.950 . S
H1355 C1364 0.950 . S
H1356 C1366 0.950 . S
H1357 C1368 0.950 . S
H1358 C1370 0.950 . S
H1359 C1371 0.950 . S
C1360 H1352 0.950 . S
C1360 C1361 1.386 . S
C1360 C1362 1.391 . S
C1361 C1360 1.386 . S
C1361 C1365 1.393 . S
C1362 H1354 0.950 . S
C1362 C1360 1.391 . S
C1362 C1363 1.400 . S
C1363 C1362 1.400 . S
C1363 C1364 1.398 . S
C1363 C1369 1.491 . S
C1364 H1355 0.950 . S
C1364 C1363 1.398 . S
C1364 C1365 1.391 . S
C1365 H1353 0.950 . S
C1365 C1361 1.393 . S
C1365 C1364 1.391 . S
C1366 H1356 0.950 . S
C1366 C1367 1.386 . S
C1366 C1368 1.391 . S
C1367 C1366 1.386 . S
C1367 C1371 1.393 . S
C1368 H1357 0.950 . S
C1368 C1366 1.391 . S
C1368 C1369 1.400 . S
C1369 C1363 1.491 . S
C1369 C1368 1.400 . S
C1369 C1370 1.398 . S
C1370 H1358 0.950 . S
C1370 C1369 1.398 . S
C1370 C1371 1.391 . S
C1371 H1359 0.950 . S
C1371 C1367 1.393 . S
C1371 C1370 1.391 . S
H1372 C1380 0.950 . S
H1373 C1385 0.950 . S
H1374 C1382 0.950 . S
H1375 C1384 0.950 . S
H1376 C1386 0.950 . S
H1377 C1388 0.950 . S
H1378 C1390 0.950 . S
H1379 C1391 0.950 . S
C1380 H1372 0.950 . S
C1380 C1381 1.386 . S
C1380 C1382 1.391 . S
C1381 C1380 1.386 . S
C1381 C1385 1.393 . S
C1382 H1374 0.950 . S
C1382 C1380 1.391 . S
C1382 C1383 1.400 . S
C1383 C1382 1.400 . S
C1383 C1384 1.398 . S
C1383 C1389 1.491 . S
C1384 H1375 0.950 . S
C1384 C1383 1.398 . S
C1384 C1385 1.391 . S
C1385 H1373 0.950 . S
C1385 C1381 1.393 . S
C1385 C1384 1.391 . S
C1386 H1376 0.950 . S
C1386 C1387 1.386 . S
C1386 C1388 1.391 . S
C1387 C1386 1.386 . S
C1387 C1391 1.393 . S
C1388 H1377 0.950 . S
C1388 C1386 1.391 . S
C1388 C1389 1.400 . S
C1389 C1383 1.491 . S
C1389 C1388 1.400 . S
C1389 C1390 1.398 . S
C1390 H1378 0.950 . S
C1390 C1389 1.398 . S
C1390 C1391 1.391 . S
C1391 H1379 0.950 . S
C1391 C1387 1.393 . S
C1391 C1390 1.391 . S
H1392 C1400 0.950 . S
H1393 C1405 0.950 . S
H1394 C1402 0.950 . S
H1395 C1404 0.950 . S
H1396 C1406 0.950 . S
H1397 C1408 0.950 . S
H1398 C1410 0.950 . S
H1399 C1411 0.950 . S
C1400 H1392 0.950 . S
C1400 C1401 1.386 . S
C1400 C1402 1.391 . S
C1401 C1400 1.386 . S
C1401 C1405 1.393 . S
C1402 H1394 0.950 . S
C1402 C1400 1.391 . S
C1402 C1403 1.400 . S
C1403 C1402 1.400 . S
C1403 C1404 1.398 . S
C1403 C1409 1.491 . S
C1404 H1395 0.950 . S
C1404 C1403 1.398 . S
C1404 C1405 1.391 . S
C1405 H1393 0.950 . S
C1405 C1401 1.393 . S
C1405 C1404 1.391 . S
C1406 H1396 0.950 . S
C1406 C1407 1.386 . S
C1406 C1408 1.391 . S
C1407 C1406 1.386 . S
C1407 C1411 1.393 . S
C1408 H1397 0.950 . S
C1408 C1406 1.391 . S
C1408 C1409 1.400 . S
C1409 C1403 1.491 . S
C1409 C1408 1.400 . S
C1409 C1410 1.398 . S
C1410 H1398 0.950 . S
C1410 C1409 1.398 . S
C1410 C1411 1.391 . S
C1411 H1399 0.950 . S
C1411 C1407 1.393 . S
C1411 C1410 1.391 . S
H1412 C1420 0.950 . S
H1413 C1425 0.950 . S
H1414 C1422 0.950 . S
H1415 C1424 0.950 . S
H1416 C1426 0.950 . S
H1417 C1428 0.950 . S
H1418 C1430 0.950 . S
H1419 C1431 0.950 . S
C1420 H1412 0.950 . S
C1420 C1421 1.386 . S
C1420 C1422 1.391 . S
C1421 C1420 1.386 . S
C1421 C1425 1.393 . S
C1422 H1414 0.950 . S
C1422 C1420 1.391 . S
C1422 C1423 1.400 . S
C1423 C1422 1.400 . S
C1423 C1424 1.398 . S
C1423 C1429 1.491 . S
C1424 H1415 0.950 . S
C1424 C1423 1.398 . S
C1424 C1425 1.391 . S
C1425 H1413 0.950 . S
C1425 C1421 1.393 . S
C1425 C1424 1.391 . S
C1426 H1416 0.950 . S
C1426 C1427 1.386 . S
C1426 C1428 1.391 . S
C1427 C1426 1.386 . S
C1427 C1431 1.393 . S
C1428 H1417 0.950 . S
C1428 C1426 1.391 . S
C1428 C1429 1.400 . S
C1429 C1423 1.491 . S
C1429 C1428 1.400 . S
C1429 C1430 1.398 . S
C1430 H1418 0.950 . S
C1430 C1429 1.398 . S
C1430 C1431 1.391 . S
C1431 H1419 0.950 . S
C1431 C1427 1.393 . S
C1431 C1430 1.391 . S
H1432 C1440 0.950 . S
H1433 C1445 0.950 . S
H1434 C1442 0.950 . S
H1435 C1444 0.950 . S
H1436 C1446 0.950 . S
H1437 C1448 0.950 . S
H1438 C1450 0.950 . S
H1439 C1451 0.950 . S
C1440 H1432 0.950 . S
C1440 C1441 1.386 . S
C1440 C1442 1.391 . S
C1441 C1440 1.386 . S
C1441 C1445 1.393 . S
C1442 H1434 0.950 . S
C1442 C1440 1.391 . S
C1442 C1443 1.400 . S
C1443 C1442 1.400 . S
C1443 C1444 1.398 . S
C1443 C1449 1.491 . S
C1444 H1435 0.950 . S
C1444 C1443 1.398 . S
C1444 C1445 1.391 . S
C1445 H1433 0.950 . S
C1445 C1441 1.393 . S
C1445 C1444 1.391 . S
C1446 H1436 0.950 . S
C1446 C1447 1.386 . S
C1446 C1448 1.391 . S
C1447 C1446 1.386 . S
C1447 C1451 1.393 . S
C1448 H1437 0.950 . S
C1448 C1446 1.391 . S
C1448 C1449 1.400 . S
C1449 C1443 1.491 . S
C1449 C1448 1.400 . S
C1449 C1450 1.398 . S
C1450 H1438 0.950 . S
C1450 C1449 1.398 . S
C1450 C1451 1.391 . S
C1451 H1439 0.950 . S
C1451 C1447 1.393 . S
C1451 C1450 1.391 . S
H1452 C1460 0.950 . S
H1453 C1465 0.950 . S
H1454 C1462 0.950 . S
H1455 C1464 0.950 . S
H1456 C1466 0.950 . S
H1457 C1468 0.950 . S
H1458 C1470 0.950 . S
H1459 C1471 0.950 . S
C1460 H1452 0.950 . S
C1460 C1461 1.386 . S
C1460 C1462 1.391 . S
C1461 C1460 1.386 . S
C1461 C1465 1.393 . S
C1462 H1454 0.950 . S
C1462 C1460 1.391 . S
C1462 C1463 1.400 . S
C1463 C1462 1.400 . S
C1463 C1464 1.398 . S
C1463 C1469 1.491 . S
C1464 H1455 0.950 . S
C1464 C1463 1.398 . S
C1464 C1465 1.391 . S
C1465 H1453 0.950 . S
C1465 C1461 1.393 . S
C1465 C1464 1.391 . S
C1466 H1456 0.950 . S
C1466 C1467 1.386 . S
C1466 C1468 1.391 . S
C1467 C1466 1.386 . S
C1467 C1471 1.393 . S
C1468 H1457 0.950 . S
C1468 C1466 1.391 . S
C1468 C1469 1.400 . S
C1469 C1463 1.491 . S
C1469 C1468 1.400 . S
C1469 C1470 1.398 . S
C1470 H1458 0.950 . S
C1470 C1469 1.398 . S
C1470 C1471 1.391 . S
C1471 H1459 0.950 . S
C1471 C1467 1.393 . S
C1471 C1470 1.391 . S
H1472 C1480 0.950 . S
H1473 C1485 0.950 . S
H1474 C1482 0.950 . S
H1475 C1484 0.950 . S
H1476 C1486 0.950 . S
H1477 C1488 0.950 . S
H1478 C1490 0.950 . S
H1479 C1491 0.950 . S
C1480 H1472 0.950 . S
C1480 C1481 1.386 . S
C1480 C1482 1.391 . S
C1481 C1480 1.386 . S
C1481 C1485 1.393 . S
C1482 H1474 0.950 . S
C1482 C1480 1.391 . S
C1482 C1483 1.400 . S
C1483 C1482 1.400 . S
C1483 C1484 1.398 . S
C1483 C1489 1.491 . S
C1484 H1475 0.950 . S
C1484 C1483 1.398 . S
C1484 C1485 1.391 . S
C1485 H1473 0.950 . S
C1485 C1481 1.393 . S
C1485 C1484 1.391 . S
C1486 H1476 0.950 . S
C1486 C1487 1.386 . S
C1486 C1488 1.391 . S
C1487 C1486 1.386 . S
C1487 C1491 1.393 . S
C1488 H1477 0.950 . S
C1488 C1486 1.391 . S
C1488 C1489 1.400 . S
C1489 C1483 1.491 . S
C1489 C1488 1.400 . S
C1489 C1490 1.398 . S
C1490 H1478 0.950 . S
C1490 C1489 1.398 . S
C1490 C1491 1.391 . S
C1491 H1479 0.950 . S
C1491 C1487 1.393 . S
C1491 C1490 1.391 . S
H1492 C1500 0.950 . S
H1493 C1505 0.950 . S
H1494 C1502 0.950 . S
H1495 C1504 0.950 . S
H1496 C1506 0.950 . S
H1497 C1508 0.950 . S
H1498 C1510 0.950 . S
H1499 C1511 0.950 . S
C1500 H1492 0.950 . S
C1500 C1501 1.386 . S
C1500 C1502 1.391 . S
C1501 C1500 1.386 . S
C1501 C1505 1.393 . S
C1502 H1494 0.950 . S
C1502 C1500 1.391 . S
C1502 C1503 1.400 . S
C1503 C1502 1.400 . S
C1503 C1504 1.398 . S
C1503 C1509 1.491 . S
C1504 H1495 0.950 . S
C1504 C1503 1.398 . S
C1504 C1505 1.391 . S
C1505 H1493 0.950 . S
C1505 C1501 1.393 . S
C1505 C1504 1.391 . S
C1506 H1496 0.950 . S
C1506 C1507 1.386 . S
C1506 C1508 1.391 . S
C1507 C1506 1.386 . S
C1507 C1511 1.393 . S
C1508 H1497 0.950 . S
C1508 C1506 1.391 . S
C1508 C1509 1.400 . S
C1509 C1503 1.491 . S
C1509 C1508 1.400 . S
C1509 C1510 1.398 . S
C1510 H1498 0.950 . S
C1510 C1509 1.398 . S
C1510 C1511 1.391 . S
C1511 H1499 0.950 . S
C1511 C1507 1.393 . S
C1511 C1510 1.391 . S
H1512 C1520 0.950 . S
H1513 C1525 0.950 . S
H1514 C1522 0.950 . S
H1515 C1524 0.950 . S
H1516 C1526 0.950 . S
H1517 C1528 0.950 . S
H1518 C1530 0.950 . S
H1519 C1531 0.950 . S
C1520 H1512 0.950 . S
C1520 C1521 1.386 . S
C1520 C1522 1.391 . S
C1521 C1520 1.386 . S
C1521 C1525 1.393 . S
C1522 H1514 0.950 . S
C1522 C1520 1.391 . S
C1522 C1523 1.400 . S
C1523 C1522 1.400 . S
C1523 C1524 1.398 . S
C1523 C1529 1.491 . S
C1524 H1515 0.950 . S
C1524 C1523 1.398 . S
C1524 C1525 1.391 . S
C1525 H1513 0.950 . S
C1525 C1521 1.393 . S
C1525 C1524 1.391 . S
C1526 H1516 0.950 . S
C1526 C1527 1.386 . S
C1526 C1528 1.391 . S
C1527 C1526 1.386 . S
C1527 C1531 1.393 . S
C1528 H1517 0.950 . S
C1528 C1526 1.391 . S
C1528 C1529 1.400 . S
C1529 C1523 1.491 . S
C1529 C1528 1.400 . S
C1529 C1530 1.398 . S
C1530 H1518 0.950 . S
C1530 C1529 1.398 . S
C1530 C1531 1.391 . S
C1531 H1519 0.950 . S
C1531 C1527 1.393 . S
C1531 C1530 1.391 . S
H1532 C1540 0.950 . S
H1533 C1545 0.950 . S
H1534 C1542 0.950 . S
H1535 C1544 0.950 . S
H1536 C1546 0.950 . S
H1537 C1548 0.950 . S
H1538 C1550 0.950 . S
H1539 C1551 0.950 . S
C1540 H1532 0.950 . S
C1540 C1541 1.386 . S
C1540 C1542 1.391 . S
C1541 C1540 1.386 . S
C1541 C1545 1.393 . S
C1542 H1534 0.950 . S
C1542 C1540 1.391 . S
C1542 C1543 1.400 . S
C1543 C1542 1.400 . S
C1543 C1544 1.398 . S
C1543 C1549 1.491 . S
C1544 H1535 0.950 . S
C1544 C1543 1.398 . S
C1544 C1545 1.391 . S
C1545 H1533 0.950 . S
C1545 C1541 1.393 . S
C1545 C1544 1.391 . S
C1546 H1536 0.950 . S
C1546 C1547 1.386 . S
C1546 C1548 1.391 . S
C1547 C1546 1.386 . S
C1547 C1551 1.393 . S
C1548 H1537 0.950 . S
C1548 C1546 1.391 . S
C1548 C1549 1.400 . S
C1549 C1543 1.491 . S
C1549 C1548 1.400 . S
C1549 C1550 1.398 . S
C1550 H1538 0.950 . S
C1550 C1549 1.398 . S
C1550 C1551 1.391 . S
C1551 H1539 0.950 . S
C1551 C1547 1.393 . S
C1551 C1550 1.391 . S
H1552 C1560 0.950 . S
H1553 C1565 0.950 . S
H1554 C1562 0.950 . S
H1555 C1564 0.950 . S
H1556 C1566 0.950 . S
H1557 C1568 0.950 . S
H1558 C1570 0.950 . S
H1559 C1571 0.950 . S
C1560 H1552 0.950 . S
C1560 C1561 1.386 . S
C1560 C1562 1.391 . S
C1561 C1560 1.386 . S
C1561 C1565 1.393 . S
C1562 H1554 0.950 . S
C1562 C1560 1.391 . S
C1562 C1563 1.400 . S
C1563 C1562 1.400 . S
C1563 C1564 1.398 . S
C1563 C1569 1.491 . S
C1564 H1555 0.950 . S
C1564 C1563 1.398 . S
C1564 C1565 1.391 . S
C1565 H1553 0.950 . S
C1565 C1561 1.393 . S
C1565 C1564 1.391 . S
C1566 H1556 0.950 . S
C1566 C1567 1.386 . S
C1566 C1568 1.391 . S
C1567 C1566 1.386 . S
C1567 C1571 1.393 . S
C1568 H1557 0.950 . S
C1568 C1566 1.391 . S
C1568 C1569 1.400 . S
C1569 C1563 1.491 . S
C1569 C1568 1.400 . S
C1569 C1570 1.398 . S
C1570 H1558 0.950 . S
C1570 C1569 1.398 . S
C1570 C1571 1.391 . S
C1571 H1559 0.950 . S
C1571 C1567 1.393 . S
C1571 C1570 1.391 . S
H1572 C1580 0.950 . S
H1573 C1585 0.950 . S
H1574 C1582 0.950 . S
H1575 C1584 0.950 . S
H1576 C1586 0.950 . S
H1577 C1588 0.950 . S
H1578 C1590 0.950 . S
H1579 C1591 0.950 . S
C1580 H1572 0.950 . S
C1580 C1581 1.386 . S
C1580 C1582 1.391 . S
C1581 C1580 1.386 . S
C1581 C1585 1.393 . S
C1582 H1574 0.950 . S
C1582 C1580 1.391 . S
C1582 C1583 1.400 . S
C1583 C1582 1.400 . S
C1583 C1584 1.398 . S
C1583 C1589 1.491 . S
C1584 H1575 0.950 . S
C1584 C1583 1.398 . S
C1584 C1585 1.391 . S
C1585 H1573 0.950 . S
C1585 C1581 1.393 . S
C1585 C1584 1.391 . S
C1586 H1576 0.950 . S
C1586 C1587 1.386 . S
C1586 C1588 1.391 . S
C1587 C1586 1.386 . S
C1587 C1591 1.393 . S
C1588 H1577 0.950 . S
C1588 C1586 1.391 . S
C1588 C1589 1.400 . S
C1589 C1583 1.491 . S
C1589 C1588 1.400 . S
C1589 C1590 1.398 . S
C1590 H1578 0.950 . S
C1590 C1589 1.398 . S
C1590 C1591 1.391 . S
C1591 H1579 0.950 . S
C1591 C1587 1.393 . S
C1591 C1590 1.391 . S
H1592 C1600 0.950 . S
H1593 C1605 0.950 . S
H1594 C1602 0.950 . S
H1595 C1604 0.950 . S
H1596 C1606 0.950 . S
H1597 C1608 0.950 . S
H1598 C1610 0.950 . S
H1599 C1611 0.950 . S
C1600 H1592 0.950 . S
C1600 C1601 1.386 . S
C1600 C1602 1.391 . S
C1601 C1600 1.386 . S
C1601 C1605 1.393 . S
C1602 H1594 0.950 . S
C1602 C1600 1.391 . S
C1602 C1603 1.400 . S
C1603 C1602 1.400 . S
C1603 C1604 1.398 . S
C1603 C1609 1.491 . S
C1604 H1595 0.950 . S
C1604 C1603 1.398 . S
C1604 C1605 1.391 . S
C1605 H1593 0.950 . S
C1605 C1601 1.393 . S
C1605 C1604 1.391 . S
C1606 H1596 0.950 . S
C1606 C1607 1.386 . S
C1606 C1608 1.391 . S
C1607 C1606 1.386 . S
C1607 C1611 1.393 . S
C1608 H1597 0.950 . S
C1608 C1606 1.391 . S
C1608 C1609 1.400 . S
C1609 C1603 1.491 . S
C1609 C1608 1.400 . S
C1609 C1610 1.398 . S
C1610 H1598 0.950 . S
C1610 C1609 1.398 . S
C1610 C1611 1.391 . S
C1611 H1599 0.950 . S
C1611 C1607 1.393 . S
C1611 C1610 1.391 . S
H1612 C1620 0.950 . S
H1613 C1625 0.950 . S
H1614 C1622 0.950 . S
H1615 C1624 0.950 . S
H1616 C1626 0.950 . S
H1617 C1628 0.950 . S
H1618 C1630 0.950 . S
H1619 C1631 0.950 . S
C1620 H1612 0.950 . S
C1620 C1621 1.386 . S
C1620 C1622 1.391 . S
C1621 C1620 1.386 . S
C1621 C1625 1.393 . S
C1622 H1614 0.950 . S
C1622 C1620 1.391 . S
C1622 C1623 1.400 . S
C1623 C1622 1.400 . S
C1623 C1624 1.398 . S
C1623 C1629 1.491 . S
C1624 H1615 0.950 . S
C1624 C1623 1.398 . S
C1624 C1625 1.391 . S
C1625 H1613 0.950 . S
C1625 C1621 1.393 . S
C1625 C1624 1.391 . S
C1626 H1616 0.950 . S
C1626 C1627 1.386 . S
C1626 C1628 1.391 . S
C1627 C1626 1.386 . S
C1627 C1631 1.393 . S
C1628 H1617 0.950 . S
C1628 C1626 1.391 . S
C1628 C1629 1.400 . S
C1629 C1623 1.491 . S
C1629 C1628 1.400 . S
C1629 C1630 1.398 . S
C1630 H1618 0.950 . S
C1630 C1629 1.398 . S
C1630 C1631 1.391 . S
C1631 H1619 0.950 . S
C1631 C1627 1.393 . S
C1631 C1630 1.391 . S
H1632 C1640 0.950 . S
H1633 C1645 0.950 . S
H1634 C1642 0.950 . S
H1635 C1644 0.950 . S
H1636 C1646 0.950 . S
H1637 C1648 0.950 . S
H1638 C1650 0.950 . S
H1639 C1651 0.950 . S
C1640 H1632 0.950 . S
C1640 C1641 1.386 . S
C1640 C1642 1.391 . S
C1641 C1640 1.386 . S
C1641 C1645 1.393 . S
C1642 H1634 0.950 . S
C1642 C1640 1.391 . S
C1642 C1643 1.400 . S
C1643 C1642 1.400 . S
C1643 C1644 1.398 . S
C1643 C1649 1.491 . S
C1644 H1635 0.950 . S
C1644 C1643 1.398 . S
C1644 C1645 1.391 . S
C1645 H1633 0.950 . S
C1645 C1641 1.393 . S
C1645 C1644 1.391 . S
C1646 H1636 0.950 . S
C1646 C1647 1.386 . S
C1646 C1648 1.391 . S
C1647 C1646 1.386 . S
C1647 C1651 1.393 . S
C1648 H1637 0.950 . S
C1648 C1646 1.391 . S
C1648 C1649 1.400 . S
C1649 C1643 1.491 . S
C1649 C1648 1.400 . S
C1649 C1650 1.398 . S
C1650 H1638 0.950 . S
C1650 C1649 1.398 . S
C1650 C1651 1.391 . S
C1651 H1639 0.950 . S
C1651 C1647 1.393 . S
C1651 C1650 1.391 . S
H1652 C1660 0.950 . S
H1653 C1665 0.950 . S
H1654 C1662 0.950 . S
H1655 C1664 0.950 . S
H1656 C1666 0.950 . S
H1657 C1668 0.950 . S
H1658 C1670 0.950 . S
H1659 C1671 0.950 . S
C1660 H1652 0.950 . S
C1660 C1661 1.386 . S
C1660 C1662 1.391 . S
C1661 C1660 1.386 . S
C1661 C1665 1.393 . S
C1662 H1654 0.950 . S
C1662 C1660 1.391 . S
C1662 C1663 1.400 . S
C1663 C1662 1.400 . S
C1663 C1664 1.398 . S
C1663 C1669 1.491 . S
C1664 H1655 0.950 . S
C1664 C1663 1.398 . S
C1664 C1665 1.391 . S
C1665 H1653 0.950 . S
C1665 C1661 1.393 . S
C1665 C1664 1.391 . S
C1666 H1656 0.950 . S
C1666 C1667 1.386 1_455 S
C1666 C1668 1.391 . S
C1667 C1666 1.386 1_655 S
C1667 C1671 1.393 . S
C1668 H1657 0.950 . S
C1668 C1666 1.391 . S
C1668 C1669 1.400 . S
C1669 C1663 1.491 . S
C1669 C1668 1.400 . S
C1669 C1670 1.398 . S
C1670 H1658 0.950 . S
C1670 C1669 1.398 . S
C1670 C1671 1.391 1_455 S
C1671 H1659 0.950 . S
C1671 C1667 1.393 . S
C1671 C1670 1.391 1_655 S
H1672 C1680 0.950 . S
H1673 C1685 0.950 . S
H1674 C1682 0.950 . S
H1675 C1684 0.950 . S
H1676 C1686 0.950 . S
H1677 C1688 0.950 . S
H1678 C1690 0.950 . S
H1679 C1691 0.950 . S
C1680 H1672 0.950 . S
C1680 C1681 1.386 . S
C1680 C1682 1.391 . S
C1681 C1680 1.386 . S
C1681 C1685 1.393 . S
C1682 H1674 0.950 . S
C1682 C1680 1.391 . S
C1682 C1683 1.400 . S
C1683 C1682 1.400 . S
C1683 C1684 1.398 . S
C1683 C1689 1.491 . S
C1684 H1675 0.950 . S
C1684 C1683 1.398 . S
C1684 C1685 1.391 . S
C1685 H1673 0.950 . S
C1685 C1681 1.393 . S
C1685 C1684 1.391 . S
C1686 H1676 0.950 . S
C1686 C1687 1.386 . S
C1686 C1688 1.391 . S
C1687 C1686 1.386 . S
C1687 C1691 1.393 . S
C1688 H1677 0.950 . S
C1688 C1686 1.391 . S
C1688 C1689 1.400 . S
C1689 C1683 1.491 . S
C1689 C1688 1.400 . S
C1689 C1690 1.398 . S
C1690 H1678 0.950 . S
C1690 C1689 1.398 . S
C1690 C1691 1.391 . S
C1691 H1679 0.950 . S
C1691 C1687 1.393 . S
C1691 C1690 1.391 . S
H1692 C1700 0.950 . S
H1693 C1705 0.950 . S
H1694 C1702 0.950 . S
H1695 C1704 0.950 . S
H1696 C1706 0.950 . S
H1697 C1708 0.950 . S
H1698 C1710 0.950 . S
H1699 C1711 0.950 . S
C1700 H1692 0.950 . S
C1700 C1701 1.386 . S
C1700 C1702 1.391 . S
C1701 C1700 1.386 . S
C1701 C1705 1.393 . S
C1702 H1694 0.950 . S
C1702 C1700 1.391 . S
C1702 C1703 1.400 . S
C1703 C1702 1.400 . S
C1703 C1704 1.398 . S
C1703 C1709 1.491 . S
C1704 H1695 0.950 . S
C1704 C1703 1.398 . S
C1704 C1705 1.391 . S
C1705 H1693 0.950 . S
C1705 C1701 1.393 . S
C1705 C1704 1.391 . S
C1706 H1696 0.950 . S
C1706 C1707 1.386 . S
C1706 C1708 1.391 . S
C1707 C1706 1.386 . S
C1707 C1711 1.393 . S
C1708 H1697 0.950 . S
C1708 C1706 1.391 . S
C1708 C1709 1.400 . S
C1709 C1703 1.491 . S
C1709 C1708 1.400 . S
C1709 C1710 1.398 . S
C1710 H1698 0.950 . S
C1710 C1709 1.398 . S
C1710 C1711 1.391 . S
C1711 H1699 0.950 . S
C1711 C1707 1.393 . S
C1711 C1710 1.391 . S
H1712 C1720 0.950 . S
H1713 C1725 0.950 . S
H1714 C1722 0.950 . S
H1715 C1724 0.950 . S
H1716 C1726 0.950 . S
H1717 C1728 0.950 . S
H1718 C1730 0.950 . S
H1719 C1731 0.950 . S
C1720 H1712 0.950 . S
C1720 C1721 1.386 . S
C1720 C1722 1.391 . S
C1721 C1720 1.386 . S
C1721 C1725 1.393 . S
C1722 H1714 0.950 . S
C1722 C1720 1.391 . S
C1722 C1723 1.400 . S
C1723 C1722 1.400 . S
C1723 C1724 1.398 . S
C1723 C1729 1.491 . S
C1724 H1715 0.950 . S
C1724 C1723 1.398 . S
C1724 C1725 1.391 . S
C1725 H1713 0.950 . S
C1725 C1721 1.393 . S
C1725 C1724 1.391 . S
C1726 H1716 0.950 . S
C1726 C1727 1.386 . S
C1726 C1728 1.391 . S
C1727 C1726 1.386 . S
C1727 C1731 1.393 . S
C1728 H1717 0.950 . S
C1728 C1726 1.391 . S
C1728 C1729 1.400 . S
C1729 C1723 1.491 . S
C1729 C1728 1.400 . S
C1729 C1730 1.398 . S
C1730 H1718 0.950 . S
C1730 C1729 1.398 . S
C1730 C1731 1.391 . S
C1731 H1719 0.950 . S
C1731 C1727 1.393 . S
C1731 C1730 1.391 . S
H1732 C1740 0.950 . S
H1733 C1745 0.950 . S
H1734 C1742 0.950 . S
H1735 C1744 0.950 . S
H1736 C1746 0.950 . S
H1737 C1748 0.950 . S
H1738 C1750 0.950 . S
H1739 C1751 0.950 . S
C1740 H1732 0.950 . S
C1740 C1741 1.386 . S
C1740 C1742 1.391 . S
C1741 C1740 1.386 . S
C1741 C1745 1.393 . S
C1742 H1734 0.950 . S
C1742 C1740 1.391 . S
C1742 C1743 1.400 . S
C1743 C1742 1.400 . S
C1743 C1744 1.398 . S
C1743 C1749 1.491 . S
C1744 H1735 0.950 . S
C1744 C1743 1.398 . S
C1744 C1745 1.391 . S
C1745 H1733 0.950 . S
C1745 C1741 1.393 . S
C1745 C1744 1.391 . S
C1746 H1736 0.950 . S
C1746 C1747 1.386 . S
C1746 C1748 1.391 . S
C1747 C1746 1.386 . S
C1747 C1751 1.393 . S
C1748 H1737 0.950 . S
C1748 C1746 1.391 . S
C1748 C1749 1.400 . S
C1749 C1743 1.491 . S
C1749 C1748 1.400 . S
C1749 C1750 1.398 . S
C1750 H1738 0.950 . S
C1750 C1749 1.398 . S
C1750 C1751 1.391 . S
C1751 H1739 0.950 . S
C1751 C1747 1.393 . S
C1751 C1750 1.391 . S
H1752 C1760 0.950 . S
H1753 C1765 0.950 . S
H1754 C1762 0.950 . S
H1755 C1764 0.950 . S
H1756 C1766 0.950 . S
H1757 C1768 0.950 . S
H1758 C1770 0.950 . S
H1759 C1771 0.950 . S
C1760 H1752 0.950 . S
C1760 C1761 1.386 . S
C1760 C1762 1.391 . S
C1761 C1760 1.386 . S
C1761 C1765 1.393 . S
C1762 H1754 0.950 . S
C1762 C1760 1.391 . S
C1762 C1763 1.400 . S
C1763 C1762 1.400 . S
C1763 C1764 1.398 . S
C1763 C1769 1.491 . S
C1764 H1755 0.950 . S
C1764 C1763 1.398 . S
C1764 C1765 1.391 . S
C1765 H1753 0.950 . S
C1765 C1761 1.393 . S
C1765 C1764 1.391 . S
C1766 H1756 0.950 . S
C1766 C1767 1.386 . S
C1766 C1768 1.391 . S
C1767 C1766 1.386 . S
C1767 C1771 1.393 . S
C1768 H1757 0.950 . S
C1768 C1766 1.391 . S
C1768 C1769 1.400 . S
C1769 C1763 1.491 . S
C1769 C1768 1.400 . S
C1769 C1770 1.398 . S
C1770 H1758 0.950 . S
C1770 C1769 1.398 . S
C1770 C1771 1.391 . S
C1771 H1759 0.950 . S
C1771 C1767 1.393 . S
C1771 C1770 1.391 . S
H1772 C1780 0.950 . S
H1773 C1785 0.950 . S
H1774 C1782 0.950 . S
H1775 C1784 0.950 . S
H1776 C1786 0.950 . S
H1777 C1788 0.950 . S
H1778 C1790 0.950 . S
H1779 C1791 0.950 . S
C1780 H1772 0.950 . S
C1780 C1781 1.386 . S
C1780 C1782 1.391 . S
C1781 C1780 1.386 . S
C1781 C1785 1.393 . S
C1782 H1774 0.950 . S
C1782 C1780 1.391 . S
C1782 C1783 1.400 . S
C1783 C1782 1.400 . S
C1783 C1784 1.398 . S
C1783 C1789 1.491 . S
C1784 H1775 0.950 . S
C1784 C1783 1.398 . S
C1784 C1785 1.391 . S
C1785 H1773 0.950 . S
C1785 C1781 1.393 . S
C1785 C1784 1.391 . S
C1786 H1776 0.950 . S
C1786 C1787 1.386 . S
C1786 C1788 1.391 . S
C1787 C1786 1.386 . S
C1787 C1791 1.393 . S
C1788 H1777 0.950 . S
C1788 C1786 1.391 . S
C1788 C1789 1.400 . S
C1789 C1783 1.491 . S
C1789 C1788 1.400 . S
C1789 C1790 1.398 . S
C1790 H1778 0.950 . S
C1790 C1789 1.398 . S
C1790 C1791 1.391 . S
C1791 H1779 0.950 . S
C1791 C1787 1.393 . S
C1791 C1790 1.391 . S
H1792 C1800 0.950 . S
H1793 C1805 0.950 . S
H1794 C1802 0.950 . S
H1795 C1804 0.950 . S
H1796 C1806 0.950 . S
H1797 C1808 0.950 . S
H1798 C1810 0.950 . S
H1799 C1811 0.950 . S
C1800 H1792 0.950 . S
C1800 C1801 1.386 . S
C1800 C1802 1.391 . S
C1801 C1800 1.386 . S
C1801 C1805 1.393 . S
C1802 H1794 0.950 . S
C1802 C1800 1.391 . S
C1802 C1803 1.400 . S
C1803 C1802 1.400 . S
C1803 C1804 1.398 . S
C1803 C1809 1.491 . S
C1804 H1795 0.950 . S
C1804 C1803 1.398 . S
C1804 C1805 1.391 . S
C1805 H1793 0.950 . S
C1805 C1801 1.393 . S
C1805 C1804 1.391 . S
C1806 H1796 0.950 . S
C1806 C1807 1.386 . S
C1806 C1808 1.391 . S
C1807 C1806 1.386 . S
C1807 C1811 1.393 . S
C1808 H1797 0.950 . S
C1808 C1806 1.391 . S
C1808 C1809 1.400 . S
C1809 C1803 1.491 . S
C1809 C1808 1.400 . S
C1809 C1810 1.398 . S
C1810 H1798 0.950 . S
C1810 C1809 1.398 . S
C1810 C1811 1.391 . S
C1811 H1799 0.950 . S
C1811 C1807 1.393 . S
C1811 C1810 1.391 . S
H1812 C1820 0.950 . S
H1813 C1825 0.950 . S
H1814 C1822 0.950 . S
H1815 C1824 0.950 . S
H1816 C1826 0.950 . S
H1817 C1828 0.950 . S
H1818 C1830 0.950 . S
H1819 C1831 0.950 . S
C1820 H1812 0.950 . S
C1820 C1821 1.386 . S
C1820 C1822 1.391 . S
C1821 C1820 1.386 . S
C1821 C1825 1.393 . S
C1822 H1814 0.950 . S
C1822 C1820 1.391 . S
C1822 C1823 1.400 . S
C1823 C1822 1.400 . S
C1823 C1824 1.398 . S
C1823 C1829 1.491 . S
C1824 H1815 0.950 . S
C1824 C1823 1.398 . S
C1824 C1825 1.391 . S
C1825 H1813 0.950 . S
C1825 C1821 1.393 . S
C1825 C1824 1.391 . S
C1826 H1816 0.950 . S
C1826 C1827 1.386 . S
C1826 C1828 1.391 . S
C1827 C1826 1.386 . S
C1827 C1831 1.393 . S
C1828 H1817 0.950 . S
C1828 C1826 1.391 . S
C1828 C1829 1.400 . S
C1829 C1823 1.491 . S
C1829 C1828 1.400 . S
C1829 C1830 1.398 . S
C1830 H1818 0.950 . S
C1830 C1829 1.398 . S
C1830 C1831 1.391 . S
C1831 H1819 0.950 . S
C1831 C1827 1.393 . S
C1831 C1830 1.391 . S
H1832 C1840 0.950 . S
H1833 C1845 0.950 . S
H1834 C1842 0.950 . S
H1835 C1844 0.950 . S
H1836 C1846 0.917 1_565 S
H1837 C1848 0.950 . S
H1838 C1850 0.950 . S
H1839 C1851 0.950 . S
C1840 H1832 0.950 . S
C1840 C1841 1.386 . S
C1840 C1842 1.391 . S
C1841 C1840 1.386 . S
C1841 C1845 1.393 . S
C1842 H1834 0.950 . S
C1842 C1840 1.391 . S
C1842 C1843 1.400 . S
C1843 C1842 1.400 . S
C1843 C1844 1.398 . S
C1843 C1849 1.491 . S
C1844 H1835 0.950 . S
C1844 C1843 1.398 . S
C1844 C1845 1.391 . S
C1845 H1833 0.950 . S
C1845 C1841 1.393 . S
C1845 C1844 1.391 . S
C1846 H1836 0.917 1_545 S
C1846 C1847 1.378 1_545 S
C1846 C1848 1.436 . S
C1847 C1846 1.378 1_565 S
C1847 C1851 1.393 1_565 S
C1848 H1837 0.950 . S
C1848 C1846 1.436 . S
C1848 C1849 1.400 . S
C1849 C1843 1.491 . S
C1849 C1848 1.400 . S
C1849 C1850 1.398 . S
C1850 H1838 0.950 . S
C1850 C1849 1.398 . S
C1850 C1851 1.391 . S
C1851 H1839 0.950 . S
C1851 C1847 1.393 1_545 S
C1851 C1850 1.391 . S
H1852 C1860 0.950 . S
H1853 C1865 0.950 . S
H1854 C1862 0.950 . S
H1855 C1864 0.950 . S
H1856 C1866 0.950 . S
H1857 C1868 0.950 . S
H1858 C1870 0.950 . S
H1859 C1871 0.950 . S
C1860 H1852 0.950 . S
C1860 C1861 1.386 . S
C1860 C1862 1.391 . S
C1861 C1860 1.386 . S
C1861 C1865 1.393 . S
C1862 H1854 0.950 . S
C1862 C1860 1.391 . S
C1862 C1863 1.400 . S
C1863 C1862 1.400 . S
C1863 C1864 1.398 . S
C1863 C1869 1.491 . S
C1864 H1855 0.950 . S
C1864 C1863 1.398 . S
C1864 C1865 1.391 . S
C1865 H1853 0.950 . S
C1865 C1861 1.393 . S
C1865 C1864 1.391 . S
C1866 H1856 0.950 . S
C1866 C1867 1.386 . S
C1866 C1868 1.391 . S
C1867 C1866 1.386 . S
C1867 C1871 1.393 . S
C1868 H1857 0.950 . S
C1868 C1866 1.391 . S
C1868 C1869 1.400 . S
C1869 C1863 1.491 . S
C1869 C1868 1.400 . S
C1869 C1870 1.398 . S
C1870 H1858 0.950 . S
C1870 C1869 1.398 . S
C1870 C1871 1.391 . S
C1871 H1859 0.950 . S
C1871 C1867 1.393 . S
C1871 C1870 1.391 . S
H1872 C1880 0.950 . S
H1873 C1885 0.950 . S
H1874 C1882 0.950 . S
H1875 C1884 0.950 . S
H1876 C1886 0.950 . S
H1877 C1888 0.950 . S
H1878 C1890 0.950 . S
H1879 C1891 0.950 . S
C1880 H1872 0.950 . S
C1880 C1881 1.386 . S
C1880 C1882 1.391 . S
C1881 C1880 1.386 . S
C1881 C1885 1.393 . S
C1882 H1874 0.950 . S
C1882 C1880 1.391 . S
C1882 C1883 1.400 . S
C1883 C1882 1.400 . S
C1883 C1884 1.398 . S
C1883 C1889 1.491 . S
C1884 H1875 0.950 . S
C1884 C1883 1.398 . S
C1884 C1885 1.391 . S
C1885 H1873 0.950 . S
C1885 C1881 1.393 . S
C1885 C1884 1.391 . S
C1886 H1876 0.950 . S
C1886 C1887 1.386 . S
C1886 C1888 1.391 . S
C1887 C1886 1.386 . S
C1887 C1891 1.393 . S
C1888 H1877 0.950 . S
C1888 C1886 1.391 . S
C1888 C1889 1.400 . S
C1889 C1883 1.491 . S
C1889 C1888 1.400 . S
C1889 C1890 1.398 . S
C1890 H1878 0.950 . S
C1890 C1889 1.398 . S
C1890 C1891 1.391 . S
C1891 H1879 0.950 . S
C1891 C1887 1.393 . S
C1891 C1890 1.391 . S
H1892 C1900 0.950 . S
H1893 C1905 0.950 . S
H1894 C1902 0.950 . S
H1895 C1904 0.950 . S
H1896 C1906 0.950 . S
H1897 C1908 0.950 . S
H1898 C1910 0.950 . S
H1899 C1911 0.950 . S
C1900 H1892 0.950 . S
C1900 C1901 1.386 . S
C1900 C1902 1.391 . S
C1901 C1900 1.386 . S
C1901 C1905 1.393 . S
C1902 H1894 0.950 . S
C1902 C1900 1.391 . S
C1902 C1903 1.400 . S
C1903 C1902 1.400 . S
C1903 C1904 1.398 . S
C1903 C1909 1.491 . S
C1904 H1895 0.950 . S
C1904 C1903 1.398 . S
C1904 C1905 1.391 . S
C1905 H1893 0.950 . S
C1905 C1901 1.393 . S
C1905 C1904 1.391 . S
C1906 H1896 0.950 . S
C1906 C1907 1.386 . S
C1906 C1908 1.391 . S
C1907 C1906 1.386 . S
C1907 C1911 1.393 . S
C1908 H1897 0.950 . S
C1908 C1906 1.391 . S
C1908 C1909 1.400 . S
C1909 C1903 1.491 . S
C1909 C1908 1.400 . S
C1909 C1910 1.398 . S
C1910 H1898 0.950 . S
C1910 C1909 1.398 . S
C1910 C1911 1.391 . S
C1911 H1899 0.950 . S
C1911 C1907 1.393 . S
C1911 C1910 1.391 . S
H1912 C1920 0.950 . S
H1913 C1925 0.950 . S
H1914 C1922 0.950 . S
H1915 C1924 0.950 . S
H1916 C1926 0.950 . S
H1917 C1928 0.950 . S
H1918 C1930 0.950 . S
H1919 C1931 0.950 . S
C1920 H1912 0.950 . S
C1920 C1921 1.386 . S
C1920 C1922 1.391 . S
C1921 C1920 1.386 . S
C1921 C1925 1.393 . S
C1922 H1914 0.950 . S
C1922 C1920 1.391 . S
C1922 C1923 1.400 . S
C1923 C1922 1.400 . S
C1923 C1924 1.398 . S
C1923 C1929 1.491 . S
C1924 H1915 0.950 . S
C1924 C1923 1.398 . S
C1924 C1925 1.391 . S
C1925 H1913 0.950 . S
C1925 C1921 1.393 . S
C1925 C1924 1.391 . S
C1926 H1916 0.950 . S
C1926 C1927 1.386 . S
C1926 C1928 1.391 . S
C1927 C1926 1.386 . S
C1927 C1931 1.393 . S
C1928 H1917 0.950 . S
C1928 C1926 1.391 . S
C1928 C1929 1.400 . S
C1929 C1923 1.491 . S
C1929 C1928 1.400 . S
C1929 C1930 1.398 . S
C1930 H1918 0.950 . S
C1930 C1929 1.398 . S
C1930 C1931 1.391 . S
C1931 H1919 0.950 . S
C1931 C1927 1.393 . S
C1931 C1930 1.391 . S
H1932 C1940 0.950 . S
H1933 C1945 0.950 . S
H1934 C1942 0.950 . S
H1935 C1944 0.950 . S
H1936 C1946 0.950 . S
H1937 C1948 0.950 . S
H1938 C1950 0.950 . S
H1939 C1951 0.950 . S
C1940 H1932 0.950 . S
C1940 C1941 1.386 . S
C1940 C1942 1.391 . S
C1941 C1940 1.386 . S
C1941 C1945 1.393 . S
C1942 H1934 0.950 . S
C1942 C1940 1.391 . S
C1942 C1943 1.400 . S
C1943 C1942 1.400 . S
C1943 C1944 1.398 . S
C1943 C1949 1.491 . S
C1944 H1935 0.950 . S
C1944 C1943 1.398 . S
C1944 C1945 1.391 . S
C1945 H1933 0.950 . S
C1945 C1941 1.393 . S
C1945 C1944 1.391 . S
C1946 H1936 0.950 . S
C1946 C1947 1.386 . S
C1946 C1948 1.391 . S
C1947 C1946 1.386 . S
C1947 C1951 1.393 . S
C1948 H1937 0.950 . S
C1948 C1946 1.391 . S
C1948 C1949 1.400 . S
C1949 C1943 1.491 . S
C1949 C1948 1.400 . S
C1949 C1950 1.398 . S
C1950 H1938 0.950 . S
C1950 C1949 1.398 . S
C1950 C1951 1.391 . S
C1951 H1939 0.950 . S
C1951 C1947 1.393 . S
C1951 C1950 1.391 . S
H1952 C1960 0.950 . S
H1953 C1965 0.950 . S
H1954 C1962 0.950 . S
H1955 C1964 0.950 . S
H1956 C1966 0.950 . S
H1957 C1968 0.950 . S
H1958 C1970 0.950 . S
H1959 C1971 0.950 . S
C1960 H1952 0.950 . S
C1960 C1961 1.386 1_554 S
C1960 C1962 1.391 . S
C1961 C1960 1.386 1_556 S
C1961 C1965 1.393 . S
C1962 H1954 0.950 . S
C1962 C1960 1.391 . S
C1962 C1963 1.400 . S
C1963 C1962 1.400 . S
C1963 C1964 1.398 . S
C1963 C1969 1.491 . S
C1964 H1955 0.950 . S
C1964 C1963 1.398 . S
C1964 C1965 1.391 1_554 S
C1965 H1953 0.950 . S
C1965 C1961 1.393 . S
C1965 C1964 1.391 1_556 S
C1966 H1956 0.950 . S
C1966 C1967 1.386 . S
C1966 C1968 1.391 . S
C1967 C1966 1.386 . S
C1967 C1971 1.393 . S
C1968 H1957 0.950 . S
C1968 C1966 1.391 . S
C1968 C1969 1.400 . S
C1969 C1963 1.491 . S
C1969 C1968 1.400 . S
C1969 C1970 1.398 . S
C1970 H1958 0.950 . S
C1970 C1969 1.398 . S
C1970 C1971 1.391 . S
C1971 H1959 0.950 . S
C1971 C1967 1.393 . S
C1971 C1970 1.391 . S
H1972 C1980 0.950 . S
H1973 C1985 0.950 . S
H1974 C1982 0.950 . S
H1975 C1984 0.950 . S
H1976 C1986 0.950 . S
H1977 C1988 0.950 . S
H1978 C1990 0.950 . S
H1979 C1991 0.950 . S
C1980 H1972 0.950 . S
C1980 C1981 1.386 . S
C1980 C1982 1.391 . S
C1981 C1980 1.386 . S
C1981 C1985 1.393 . S
C1982 H1974 0.950 . S
C1982 C1980 1.391 . S
C1982 C1983 1.400 . S
C1983 C1982 1.400 . S
C1983 C1984 1.398 . S
C1983 C1989 1.491 . S
C1984 H1975 0.950 . S
C1984 C1983 1.398 . S
C1984 C1985 1.391 . S
C1985 H1973 0.950 . S
C1985 C1981 1.393 . S
C1985 C1984 1.391 . S
C1986 H1976 0.950 . S
C1986 C1987 1.386 . S
C1986 C1988 1.391 . S
C1987 C1986 1.386 . S
C1987 C1991 1.393 . S
C1988 H1977 0.950 . S
C1988 C1986 1.391 . S
C1988 C1989 1.400 . S
C1989 C1983 1.491 . S
C1989 C1988 1.400 . S
C1989 C1990 1.398 . S
C1990 H1978 0.950 . S
C1990 C1989 1.398 . S
C1990 C1991 1.391 . S
C1991 H1979 0.950 . S
C1991 C1987 1.393 . S
C1991 C1990 1.391 . S
H1992 C2000 0.950 . S
H1993 C2005 0.950 . S
H1994 C2002 0.950 . S
H1995 C2004 0.950 . S
H1996 C2006 0.950 . S
H1997 C2008 0.950 . S
H1998 C2010 0.950 . S
H1999 C2011 0.950 . S
C2000 H1992 0.950 . S
C2000 C2001 1.386 . S
C2000 C2002 1.391 . S
C2001 C2000 1.386 . S
C2001 C2005 1.393 . S
C2002 H1994 0.950 . S
C2002 C2000 1.391 . S
C2002 C2003 1.400 . S
C2003 C2002 1.400 . S
C2003 C2004 1.398 . S
C2003 C2009 1.491 . S
C2004 H1995 0.950 . S
C2004 C2003 1.398 . S
C2004 C2005 1.391 . S
C2005 H1993 0.950 . S
C2005 C2001 1.393 . S
C2005 C2004 1.391 . S
C2006 H1996 0.950 . S
C2006 C2007 1.386 . S
C2006 C2008 1.391 . S
C2007 C2006 1.386 . S
C2007 C2011 1.393 . S
C2008 H1997 0.950 . S
C2008 C2006 1.391 . S
C2008 C2009 1.400 . S
C2009 C2003 1.491 . S
C2009 C2008 1.400 . S
C2009 C2010 1.398 . S
C2010 H1998 0.950 . S
C2010 C2009 1.398 . S
C2010 C2011 1.391 . S
C2011 H1999 0.950 . S
C2011 C2007 1.393 . S
C2011 C2010 1.391 . S
H2012 C2020 0.950 . S
H2013 C2025 0.950 . S
H2014 C2022 0.950 . S
H2015 C2024 0.950 . S
H2016 C2026 0.950 . S
H2017 C2028 0.950 . S
H2018 C2030 0.950 . S
H2019 C2031 0.950 . S
C2020 H2012 0.950 . S
C2020 C2021 1.386 . S
C2020 C2022 1.391 . S
C2021 C2020 1.386 . S
C2021 C2025 1.393 . S
C2022 H2014 0.950 . S
C2022 C2020 1.391 . S
C2022 C2023 1.400 . S
C2023 C2022 1.400 . S
C2023 C2024 1.398 . S
C2023 C2029 1.491 . S
C2024 H2015 0.950 . S
C2024 C2023 1.398 . S
C2024 C2025 1.391 . S
C2025 H2013 0.950 . S
C2025 C2021 1.393 . S
C2025 C2024 1.391 . S
C2026 H2016 0.950 . S
C2026 C2027 1.386 . S
C2026 C2028 1.391 . S
C2027 C2026 1.386 . S
C2027 C2031 1.393 . S
C2028 H2017 0.950 . S
C2028 C2026 1.391 . S
C2028 C2029 1.400 . S
C2029 C2023 1.491 . S
C2029 C2028 1.400 . S
C2029 C2030 1.398 . S
C2030 H2018 0.950 . S
C2030 C2029 1.398 . S
C2030 C2031 1.391 . S
C2031 H2019 0.950 . S
C2031 C2027 1.393 . S
C2031 C2030 1.391 . S
H2032 C2040 0.950 . S
H2033 C2045 0.950 . S
H2034 C2042 0.950 . S
H2035 C2044 0.950 . S
H2036 C2046 0.950 . S
H2037 C2048 0.950 . S
H2038 C2050 0.950 . S
H2039 C2051 0.950 . S
C2040 H2032 0.950 . S
C2040 C2041 1.386 . S
C2040 C2042 1.391 . S
C2041 C2040 1.386 . S
C2041 C2045 1.393 . S
C2042 H2034 0.950 . S
C2042 C2040 1.391 . S
C2042 C2043 1.400 . S
C2043 C2042 1.400 . S
C2043 C2044 1.398 . S
C2043 C2049 1.491 . S
C2044 H2035 0.950 . S
C2044 C2043 1.398 . S
C2044 C2045 1.391 . S
C2045 H2033 0.950 . S
C2045 C2041 1.393 . S
C2045 C2044 1.391 . S
C2046 H2036 0.950 . S
C2046 C2047 1.386 . S
C2046 C2048 1.391 . S
C2047 C2046 1.386 . S
C2047 C2051 1.393 . S
C2048 H2037 0.950 . S
C2048 C2046 1.391 . S
C2048 C2049 1.400 . S
C2049 C2043 1.491 . S
C2049 C2048 1.400 . S
C2049 C2050 1.398 . S
C2050 H2038 0.950 . S
C2050 C2049 1.398 . S
C2050 C2051 1.391 . S
C2051 H2039 0.950 . S
C2051 C2047 1.393 . S
C2051 C2050 1.391 . S
H2052 C2060 0.950 . S
H2053 C2065 0.950 . S
H2054 C2062 0.950 . S
H2055 C2064 0.950 . S
H2056 C2066 0.950 . S
H2057 C2068 0.950 . S
H2058 C2070 0.950 . S
H2059 C2071 0.950 . S
C2060 H2052 0.950 . S
C2060 C2061 1.386 . S
C2060 C2062 1.391 . S
C2061 C2060 1.386 . S
C2061 C2065 1.393 . S
C2062 H2054 0.950 . S
C2062 C2060 1.391 . S
C2062 C2063 1.400 . S
C2063 C2062 1.400 . S
C2063 C2064 1.398 . S
C2063 C2069 1.491 . S
C2064 H2055 0.950 . S
C2064 C2063 1.398 . S
C2064 C2065 1.391 . S
C2065 H2053 0.950 . S
C2065 C2061 1.393 . S
C2065 C2064 1.391 . S
C2066 H2056 0.950 . S
C2066 C2067 1.386 . S
C2066 C2068 1.391 . S
C2067 C2066 1.386 . S
C2067 C2071 1.393 . S
C2068 H2057 0.950 . S
C2068 C2066 1.391 . S
C2068 C2069 1.400 . S
C2069 C2063 1.491 . S
C2069 C2068 1.400 . S
C2069 C2070 1.398 . S
C2070 H2058 0.950 . S
C2070 C2069 1.398 . S
C2070 C2071 1.391 . S
C2071 H2059 0.950 . S
C2071 C2067 1.393 . S
C2071 C2070 1.391 . S
H2072 C2080 0.950 . S
H2073 C2085 0.950 . S
H2074 C2082 0.950 . S
H2075 C2084 0.950 . S
H2076 C2086 0.950 . S
H2077 C2088 0.950 . S
H2078 C2090 0.950 . S
H2079 C2091 0.950 . S
C2080 H2072 0.950 . S
C2080 C2081 1.386 . S
C2080 C2082 1.391 . S
C2081 C2080 1.386 . S
C2081 C2085 1.393 . S
C2082 H2074 0.950 . S
C2082 C2080 1.391 . S
C2082 C2083 1.400 . S
C2083 C2082 1.400 . S
C2083 C2084 1.398 . S
C2083 C2089 1.491 . S
C2084 H2075 0.950 . S
C2084 C2083 1.398 . S
C2084 C2085 1.391 . S
C2085 H2073 0.950 . S
C2085 C2081 1.393 . S
C2085 C2084 1.391 . S
C2086 H2076 0.950 . S
C2086 C2087 1.386 . S
C2086 C2088 1.391 . S
C2087 C2086 1.386 . S
C2087 C2091 1.393 . S
C2088 H2077 0.950 . S
C2088 C2086 1.391 . S
C2088 C2089 1.400 . S
C2089 C2083 1.491 . S
C2089 C2088 1.400 . S
C2089 C2090 1.398 . S
C2090 H2078 0.950 . S
C2090 C2089 1.398 . S
C2090 C2091 1.391 . S
C2091 H2079 0.950 . S
C2091 C2087 1.393 . S
C2091 C2090 1.391 . S
H2092 C2100 0.950 . S
H2093 C2105 0.950 . S
H2094 C2102 0.950 . S
H2095 C2104 0.950 . S
H2096 C2106 0.950 . S
H2097 C2108 0.950 . S
H2098 C2110 0.950 . S
H2099 C2111 0.950 . S
C2100 H2092 0.950 . S
C2100 C2101 1.386 . S
C2100 C2102 1.391 . S
C2101 C2100 1.386 . S
C2101 C2105 1.393 . S
C2102 H2094 0.950 . S
C2102 C2100 1.391 . S
C2102 C2103 1.400 . S
C2103 C2102 1.400 . S
C2103 C2104 1.398 . S
C2103 C2109 1.491 . S
C2104 H2095 0.950 . S
C2104 C2103 1.398 . S
C2104 C2105 1.391 . S
C2105 H2093 0.950 . S
C2105 C2101 1.393 . S
C2105 C2104 1.391 . S
C2106 H2096 0.950 . S
C2106 C2107 1.386 . S
C2106 C2108 1.391 . S
C2107 C2106 1.386 . S
C2107 C2111 1.393 . S
C2108 H2097 0.950 . S
C2108 C2106 1.391 . S
C2108 C2109 1.400 . S
C2109 C2103 1.491 . S
C2109 C2108 1.400 . S
C2109 C2110 1.398 . S
C2110 H2098 0.950 . S
C2110 C2109 1.398 . S
C2110 C2111 1.391 . S
C2111 H2099 0.950 . S
C2111 C2107 1.393 . S
C2111 C2110 1.391 . S
H2112 C2120 0.950 . S
H2113 C2125 0.950 . S
H2114 C2122 0.950 . S
H2115 C2124 0.950 . S
H2116 C2126 0.950 . S
H2117 C2128 0.950 . S
H2118 C2130 0.950 1_455 S
H2119 C2131 0.950 1_455 S
C2120 H2112 0.950 . S
C2120 C2121 1.386 1_455 S
C2120 C2122 1.391 . S
C2121 C2120 1.386 1_655 S
C2121 C2125 1.393 . S
C2122 H2114 0.950 . S
C2122 C2120 1.391 . S
C2122 C2123 1.400 1_455 S
C2123 C2122 1.400 1_655 S
C2123 C2124 1.398 . S
C2123 C2129 1.491 . S
C2124 H2115 0.950 . S
C2124 C2123 1.398 . S
C2124 C2125 1.391 . S
C2125 H2113 0.950 . S
C2125 C2121 1.393 . S
C2125 C2124 1.391 . S
C2126 H2116 0.950 . S
C2126 C2127 1.386 . S
C2126 C2128 1.391 . S
C2127 C2126 1.386 . S
C2127 C2131 1.393 . S
C2128 H2117 0.950 . S
C2128 C2126 1.391 . S
C2128 C2129 1.400 . S
C2129 C2123 1.491 . S
C2129 C2128 1.400 . S
C2129 C2130 1.398 . S
C2130 H2118 0.950 1_655 S
C2130 C2129 1.398 . S
C2130 C2131 1.391 . S
C2131 H2119 0.950 1_655 S
C2131 C2127 1.393 . S
C2131 C2130 1.391 . S
H2132 C2140 0.950 . S
H2133 C2145 0.950 . S
H2134 C2142 0.950 . S
H2135 C2144 0.950 . S
H2136 C2146 0.950 . S
H2137 C2148 0.950 . S
H2138 C2150 0.950 . S
H2139 C2151 0.950 . S
C2140 H2132 0.950 . S
C2140 C2141 1.386 . S
C2140 C2142 1.391 . S
C2141 C2140 1.386 . S
C2141 C2145 1.393 . S
C2142 H2134 0.950 . S
C2142 C2140 1.391 . S
C2142 C2143 1.400 . S
C2143 C2142 1.400 . S
C2143 C2144 1.398 . S
C2143 C2149 1.491 . S
C2144 H2135 0.950 . S
C2144 C2143 1.398 . S
C2144 C2145 1.391 . S
C2145 H2133 0.950 . S
C2145 C2141 1.393 . S
C2145 C2144 1.391 . S
C2146 H2136 0.950 . S
C2146 C2147 1.386 . S
C2146 C2148 1.391 . S
C2147 C2146 1.386 . S
C2147 C2151 1.393 . S
C2148 H2137 0.950 . S
C2148 C2146 1.391 . S
C2148 C2149 1.400 . S
C2149 C2143 1.491 . S
C2149 C2148 1.400 . S
C2149 C2150 1.398 . S
C2150 H2138 0.950 . S
C2150 C2149 1.398 . S
C2150 C2151 1.391 . S
C2151 H2139 0.950 . S
C2151 C2147 1.393 . S
C2151 C2150 1.391 . S
H2152 C2160 0.950 . S
H2153 C2165 0.950 . S
H2154 C2162 0.950 . S
H2155 C2164 0.950 . S
H2156 C2166 0.950 . S
H2157 C2168 0.950 . S
H2158 C2170 0.950 . S
H2159 C2171 0.950 . S
C2160 H2152 0.950 . S
C2160 C2161 1.386 . S
C2160 C2162 1.391 . S
C2161 C2160 1.386 . S
C2161 C2165 1.393 . S
C2162 H2154 0.950 . S
C2162 C2160 1.391 . S
C2162 C2163 1.400 . S
C2163 C2162 1.400 . S
C2163 C2164 1.398 . S
C2163 C2169 1.491 . S
C2164 H2155 0.950 . S
C2164 C2163 1.398 . S
C2164 C2165 1.391 . S
C2165 H2153 0.950 . S
C2165 C2161 1.393 . S
C2165 C2164 1.391 . S
C2166 H2156 0.950 . S
C2166 C2167 1.386 . S
C2166 C2168 1.391 . S
C2167 C2166 1.386 . S
C2167 C2171 1.393 . S
C2168 H2157 0.950 . S
C2168 C2166 1.391 . S
C2168 C2169 1.400 . S
C2169 C2163 1.491 . S
C2169 C2168 1.400 . S
C2169 C2170 1.398 . S
C2170 H2158 0.950 . S
C2170 C2169 1.398 . S
C2170 C2171 1.391 . S
C2171 H2159 0.950 . S
C2171 C2167 1.393 . S
C2171 C2170 1.391 . S
H2172 C2180 0.950 . S
H2173 C2185 0.950 1_554 S
H2174 C2182 0.950 . S
H2175 C2184 0.950 1_554 S
H2176 C2186 0.950 1_554 S
H2177 C2188 0.950 1_554 S
H2178 C2190 0.950 . S
H2179 C2191 0.950 . S
C2180 H2172 0.950 . S
C2180 C2181 1.386 . S
C2180 C2182 1.391 . S
C2181 C2180 1.386 . S
C2181 C2185 1.393 . S
C2182 H2174 0.950 . S
C2182 C2180 1.391 . S
C2182 C2183 1.400 . S
C2183 C2182 1.400 . S
C2183 C2184 1.398 . S
C2183 C2189 1.491 . S
C2184 H2175 0.950 1_556 S
C2184 C2183 1.398 . S
C2184 C2185 1.391 . S
C2185 H2173 0.950 1_556 S
C2185 C2181 1.393 . S
C2185 C2184 1.391 . S
C2186 H2176 0.950 1_556 S
C2186 C2187 1.386 . S
C2186 C2188 1.391 . S
C2187 C2186 1.386 . S
C2187 C2191 1.393 . S
C2188 H2177 0.950 1_556 S
C2188 C2186 1.391 . S
C2188 C2189 1.400 . S
C2189 C2183 1.491 . S
C2189 C2188 1.400 . S
C2189 C2190 1.398 . S
C2190 H2178 0.950 . S
C2190 C2189 1.398 . S
C2190 C2191 1.391 . S
C2191 H2179 0.950 . S
C2191 C2187 1.393 . S
C2191 C2190 1.391 . S
H2192 C2200 0.950 . S
H2193 C2205 0.950 . S
H2194 C2202 0.950 . S
H2195 C2204 0.950 . S
H2196 C2206 0.950 . S
H2197 C2208 0.950 . S
H2198 C2210 0.950 . S
H2199 C2211 0.950 . S
C2200 H2192 0.950 . S
C2200 C2201 1.386 . S
C2200 C2202 1.391 . S
C2201 C2200 1.386 . S
C2201 C2205 1.393 . S
C2202 H2194 0.950 . S
C2202 C2200 1.391 . S
C2202 C2203 1.400 . S
C2203 C2202 1.400 . S
C2203 C2204 1.398 . S
C2203 C2209 1.491 . S
C2204 H2195 0.950 . S
C2204 C2203 1.398 . S
C2204 C2205 1.391 . S
C2205 H2193 0.950 . S
C2205 C2201 1.393 . S
C2205 C2204 1.391 . S
C2206 H2196 0.950 . S
C2206 C2207 1.386 . S
C2206 C2208 1.391 . S
C2207 C2206 1.386 . S
C2207 C2211 1.393 . S
C2208 H2197 0.950 . S
C2208 C2206 1.391 . S
C2208 C2209 1.400 . S
C2209 C2203 1.491 . S
C2209 C2208 1.400 . S
C2209 C2210 1.398 . S
C2210 H2198 0.950 . S
C2210 C2209 1.398 . S
C2210 C2211 1.391 . S
C2211 H2199 0.950 . S
C2211 C2207 1.393 . S
C2211 C2210 1.391 . S
H2212 C2220 0.950 . S
H2213 C2225 0.950 . S
H2214 C2222 0.950 . S
H2215 C2224 0.950 . S
H2216 C2226 0.950 . S
H2217 C2228 0.950 . S
H2218 C2230 0.950 . S
H2219 C2231 0.950 . S
C2220 H2212 0.950 . S
C2220 C2221 1.386 . S
C2220 C2222 1.391 . S
C2221 C2220 1.386 . S
C2221 C2225 1.393 . S
C2222 H2214 0.950 . S
C2222 C2220 1.391 . S
C2222 C2223 1.400 . S
C2223 C2222 1.400 . S
C2223 C2224 1.398 . S
C2223 C2229 1.491 . S
C2224 H2215 0.950 . S
C2224 C2223 1.398 . S
C2224 C2225 1.391 . S
C2225 H2213 0.950 . S
C2225 C2221 1.393 . S
C2225 C2224 1.391 . S
C2226 H2216 0.950 . S
C2226 C2227 1.386 . S
C2226 C2228 1.391 . S
C2227 C2226 1.386 . S
C2227 C2231 1.393 . S
C2228 H2217 0.950 . S
C2228 C2226 1.391 . S
C2228 C2229 1.400 . S
C2229 C2223 1.491 . S
C2229 C2228 1.400 . S
C2229 C2230 1.398 . S
C2230 H2218 0.950 . S
C2230 C2229 1.398 . S
C2230 C2231 1.391 . S
C2231 H2219 0.950 . S
C2231 C2227 1.393 . S
C2231 C2230 1.391 . S
H2232 C2240 0.950 . S
H2233 C2245 0.950 . S
H2234 C2242 0.950 . S
H2235 C2244 0.950 . S
H2236 C2246 0.950 . S
H2237 C2248 0.950 . S
H2238 C2250 0.950 . S
H2239 C2251 0.950 . S
C2240 H2232 0.950 . S
C2240 C2241 1.386 . S
C2240 C2242 1.391 . S
C2241 C2240 1.386 . S
C2241 C2245 1.393 . S
C2242 H2234 0.950 . S
C2242 C2240 1.391 . S
C2242 C2243 1.400 . S
C2243 C2242 1.400 . S
C2243 C2244 1.398 . S
C2243 C2249 1.491 . S
C2244 H2235 0.950 . S
C2244 C2243 1.398 . S
C2244 C2245 1.391 . S
C2245 H2233 0.950 . S
C2245 C2241 1.393 . S
C2245 C2244 1.391 . S
C2246 H2236 0.950 . S
C2246 C2247 1.386 . S
C2246 C2248 1.391 . S
C2247 C2246 1.386 . S
C2247 C2251 1.393 . S
C2248 H2237 0.950 . S
C2248 C2246 1.391 . S
C2248 C2249 1.400 . S
C2249 C2243 1.491 . S
C2249 C2248 1.400 . S
C2249 C2250 1.398 . S
C2250 H2238 0.950 . S
C2250 C2249 1.398 . S
C2250 C2251 1.391 . S
C2251 H2239 0.950 . S
C2251 C2247 1.393 . S
C2251 C2250 1.391 . S
H2252 C2260 0.950 . S
H2253 C2265 0.950 . S
H2254 C2262 0.950 . S
H2255 C2264 0.950 . S
H2256 C2266 0.950 . S
H2257 C2268 0.950 . S
H2258 C2270 0.950 . S
H2259 C2271 0.950 . S
C2260 H2252 0.950 . S
C2260 C2261 1.386 . S
C2260 C2262 1.391 . S
C2261 C2260 1.386 . S
C2261 C2265 1.393 . S
C2262 H2254 0.950 . S
C2262 C2260 1.391 . S
C2262 C2263 1.400 . S
C2263 C2262 1.400 . S
C2263 C2264 1.398 . S
C2263 C2269 1.491 . S
C2264 H2255 0.950 . S
C2264 C2263 1.398 . S
C2264 C2265 1.391 . S
C2265 H2253 0.950 . S
C2265 C2261 1.393 . S
C2265 C2264 1.391 . S
C2266 H2256 0.950 . S
C2266 C2267 1.386 . S
C2266 C2268 1.391 . S
C2267 C2266 1.386 . S
C2267 C2271 1.393 . S
C2268 H2257 0.950 . S
C2268 C2266 1.391 . S
C2268 C2269 1.400 . S
C2269 C2263 1.491 . S
C2269 C2268 1.400 . S
C2269 C2270 1.398 . S
C2270 H2258 0.950 . S
C2270 C2269 1.398 . S
C2270 C2271 1.391 . S
C2271 H2259 0.950 . S
C2271 C2267 1.393 . S
C2271 C2270 1.391 . S
H2272 C2280 0.950 1_545 S
H2273 C2285 0.950 . S
H2274 C2282 0.950 1_545 S
H2275 C2284 0.950 . S
H2276 C2286 0.950 . S
H2277 C2288 0.950 . S
H2278 C2290 0.950 . S
H2279 C2291 0.950 . S
C2280 H2272 0.950 1_565 S
C2280 C2281 1.386 . S
C2280 C2282 1.391 . S
C2281 C2280 1.386 . S
C2281 C2285 1.393 . S
C2282 H2274 0.950 1_565 S
C2282 C2280 1.391 . S
C2282 C2283 1.400 . S
C2283 C2282 1.400 . S
C2283 C2284 1.398 . S
C2283 C2289 1.491 . S
C2284 H2275 0.950 . S
C2284 C2283 1.398 . S
C2284 C2285 1.391 . S
C2285 H2273 0.950 . S
C2285 C2281 1.393 . S
C2285 C2284 1.391 . S
C2286 H2276 0.950 . S
C2286 C2287 1.386 . S
C2286 C2288 1.391 . S
C2287 C2286 1.386 . S
C2287 C2291 1.393 1_565 S
C2288 H2277 0.950 . S
C2288 C2286 1.391 . S
C2288 C2289 1.400 . S
C2289 C2283 1.491 . S
C2289 C2288 1.400 . S
C2289 C2290 1.398 1_565 S
C2290 H2278 0.950 . S
C2290 C2289 1.398 1_545 S
C2290 C2291 1.391 . S
C2291 H2279 0.950 . S
C2291 C2287 1.393 1_545 S
C2291 C2290 1.391 . S
H2292 C2300 0.950 . S
H2293 C2305 0.950 1_545 S
H2294 C2302 0.950 . S
H2295 C2304 0.950 1_545 S
H2296 C2306 0.950 1_545 S
H2297 C2308 0.950 1_545 S
H2298 C2310 0.950 . S
H2299 C2311 0.950 . S
C2300 H2292 0.950 . S
C2300 C2301 1.386 . S
C2300 C2302 1.391 . S
C2301 C2300 1.386 . S
C2301 C2305 1.393 . S
C2302 H2294 0.950 . S
C2302 C2300 1.391 . S
C2302 C2303 1.400 . S
C2303 C2302 1.400 . S
C2303 C2304 1.398 . S
C2303 C2309 1.491 . S
C2304 H2295 0.950 1_565 S
C2304 C2303 1.398 . S
C2304 C2305 1.391 . S
C2305 H2293 0.950 1_565 S
C2305 C2301 1.393 . S
C2305 C2304 1.391 . S
C2306 H2296 0.950 1_565 S
C2306 C2307 1.386 . S
C2306 C2308 1.391 . S
C2307 C2306 1.386 . S
C2307 C2311 1.393 . S
C2308 H2297 0.950 1_565 S
C2308 C2306 1.391 . S
C2308 C2309 1.400 . S
C2309 C2303 1.491 . S
C2309 C2308 1.400 . S
C2309 C2310 1.398 . S
C2310 H2298 0.950 . S
C2310 C2309 1.398 . S
C2310 C2311 1.391 . S
C2311 H2299 0.950 . S
C2311 C2307 1.393 . S
C2311 C2310 1.391 . S
H2312 C2320 0.950 . S
H2313 C2325 0.950 . S
H2314 C2322 0.950 . S
H2315 C2324 0.950 . S
H2316 C2326 0.950 . S
H2317 C2328 0.950 . S
H2318 C2330 0.950 . S
H2319 C2331 0.950 . S
C2320 H2312 0.950 . S
C2320 C2321 1.386 . S
C2320 C2322 1.391 . S
C2321 C2320 1.386 . S
C2321 C2325 1.393 . S
C2322 H2314 0.950 . S
C2322 C2320 1.391 . S
C2322 C2323 1.400 . S
C2323 C2322 1.400 . S
C2323 C2324 1.398 . S
C2323 C2329 1.491 . S
C2324 H2315 0.950 . S
C2324 C2323 1.398 . S
C2324 C2325 1.391 . S
C2325 H2313 0.950 . S
C2325 C2321 1.393 . S
C2325 C2324 1.391 . S
C2326 H2316 0.950 . S
C2326 C2327 1.386 . S
C2326 C2328 1.391 . S
C2327 C2326 1.386 . S
C2327 C2331 1.393 . S
C2328 H2317 0.950 . S
C2328 C2326 1.391 . S
C2328 C2329 1.400 . S
C2329 C2323 1.491 . S
C2329 C2328 1.400 . S
C2329 C2330 1.398 . S
C2330 H2318 0.950 . S
C2330 C2329 1.398 . S
C2330 C2331 1.391 . S
C2331 H2319 0.950 . S
C2331 C2327 1.393 . S
C2331 C2330 1.391 . S
H2332 C2340 0.950 . S
H2333 C2345 0.950 . S
H2334 C2342 0.950 . S
H2335 C2344 0.950 . S
H2336 C2346 0.950 . S
H2337 C2348 0.950 . S
H2338 C2350 0.950 . S
H2339 C2351 0.950 . S
C2340 H2332 0.950 . S
C2340 C2341 1.386 . S
C2340 C2342 1.391 . S
C2341 C2340 1.386 . S
C2341 C2345 1.393 . S
C2342 H2334 0.950 . S
C2342 C2340 1.391 . S
C2342 C2343 1.400 . S
C2343 C2342 1.400 . S
C2343 C2344 1.398 . S
C2343 C2349 1.491 . S
C2344 H2335 0.950 . S
C2344 C2343 1.398 . S
C2344 C2345 1.391 . S
C2345 H2333 0.950 . S
C2345 C2341 1.393 . S
C2345 C2344 1.391 . S
C2346 H2336 0.950 . S
C2346 C2347 1.386 . S
C2346 C2348 1.391 . S
C2347 C2346 1.386 . S
C2347 C2351 1.393 . S
C2348 H2337 0.950 . S
C2348 C2346 1.391 . S
C2348 C2349 1.400 . S
C2349 C2343 1.491 . S
C2349 C2348 1.400 . S
C2349 C2350 1.398 . S
C2350 H2338 0.950 . S
C2350 C2349 1.398 . S
C2350 C2351 1.391 . S
C2351 H2339 0.950 . S
C2351 C2347 1.393 . S
C2351 C2350 1.391 . S
H2352 C2360 0.950 . S
H2353 C2365 0.950 . S
H2354 C2362 0.950 . S
H2355 C2364 0.950 . S
H2356 C2366 0.950 . S
H2357 C2368 0.950 . S
H2358 C2370 0.950 1_554 S
H2359 C2371 0.950 1_554 S
C2360 H2352 0.950 . S
C2360 C2361 1.386 1_554 S
C2360 C2362 1.391 . S
C2361 C2360 1.386 1_556 S
C2361 C2365 1.393 . S
C2362 H2354 0.950 . S
C2362 C2360 1.391 . S
C2362 C2363 1.400 1_554 S
C2363 C2362 1.400 1_556 S
C2363 C2364 1.398 . S
C2363 C2369 1.491 . S
C2364 H2355 0.950 . S
C2364 C2363 1.398 . S
C2364 C2365 1.391 . S
C2365 H2353 0.950 . S
C2365 C2361 1.393 . S
C2365 C2364 1.391 . S
C2366 H2356 0.950 . S
C2366 C2367 1.386 . S
C2366 C2368 1.391 . S
C2367 C2366 1.386 . S
C2367 C2371 1.393 . S
C2368 H2357 0.950 . S
C2368 C2366 1.391 . S
C2368 C2369 1.400 . S
C2369 C2363 1.491 . S
C2369 C2368 1.400 . S
C2369 C2370 1.398 . S
C2370 H2358 0.950 1_556 S
C2370 C2369 1.398 . S
C2370 C2371 1.391 . S
C2371 H2359 0.950 1_556 S
C2371 C2367 1.393 . S
C2371 C2370 1.391 . S
H2372 C2380 0.950 . S
H2373 C2385 0.950 . S
H2374 C2382 0.950 . S
H2375 C2384 0.950 . S
H2376 C2386 0.950 . S
H2377 C2388 0.950 . S
H2378 C2390 0.950 . S
H2379 C2391 0.950 . S
C2380 H2372 0.950 . S
C2380 C2381 1.386 . S
C2380 C2382 1.391 . S
C2381 C2380 1.386 . S
C2381 C2385 1.393 . S
C2382 H2374 0.950 . S
C2382 C2380 1.391 . S
C2382 C2383 1.400 . S
C2383 C2382 1.400 . S
C2383 C2384 1.398 . S
C2383 C2389 1.491 . S
C2384 H2375 0.950 . S
C2384 C2383 1.398 . S
C2384 C2385 1.391 . S
C2385 H2373 0.950 . S
C2385 C2381 1.393 . S
C2385 C2384 1.391 . S
C2386 H2376 0.950 . S
C2386 C2387 1.386 . S
C2386 C2388 1.391 . S
C2387 C2386 1.386 . S
C2387 C2391 1.393 . S
C2388 H2377 0.950 . S
C2388 C2386 1.391 . S
C2388 C2389 1.400 . S
C2389 C2383 1.491 . S
C2389 C2388 1.400 . S
C2389 C2390 1.398 . S
C2390 H2378 0.950 . S
C2390 C2389 1.398 . S
C2390 C2391 1.391 . S
C2391 H2379 0.950 . S
C2391 C2387 1.393 . S
C2391 C2390 1.391 . S
H2392 C2400 0.950 . S
H2393 C2405 0.950 . S
H2394 C2402 0.950 . S
H2395 C2404 0.950 . S
H2396 C2406 0.950 . S
H2397 C2408 0.950 . S
H2398 C2410 0.950 . S
H2399 C2411 0.950 . S
C2400 H2392 0.950 . S
C2400 C2401 1.386 . S
C2400 C2402 1.391 . S
C2401 C2400 1.386 . S
C2401 C2405 1.393 . S
C2402 H2394 0.950 . S
C2402 C2400 1.391 . S
C2402 C2403 1.400 . S
C2403 C2402 1.400 . S
C2403 C2404 1.398 . S
C2403 C2409 1.491 . S
C2404 H2395 0.950 . S
C2404 C2403 1.398 . S
C2404 C2405 1.391 . S
C2405 H2393 0.950 . S
C2405 C2401 1.393 . S
C2405 C2404 1.391 . S
C2406 H2396 0.950 . S
C2406 C2407 1.386 . S
C2406 C2408 1.391 . S
C2407 C2406 1.386 . S
C2407 C2411 1.393 . S
C2408 H2397 0.950 . S
C2408 C2406 1.391 . S
C2408 C2409 1.400 . S
C2409 C2403 1.491 . S
C2409 C2408 1.400 . S
C2409 C2410 1.398 . S
C2410 H2398 0.950 . S
C2410 C2409 1.398 . S
C2410 C2411 1.391 . S
C2411 H2399 0.950 . S
C2411 C2407 1.393 . S
C2411 C2410 1.391 . S
H2412 C2420 0.950 . S
H2413 C2425 0.950 . S
H2414 C2422 0.950 . S
H2415 C2424 0.950 . S
H2416 C2426 0.950 . S
H2417 C2428 0.950 . S
H2418 C2430 0.950 . S
H2419 C2431 0.950 . S
C2420 H2412 0.950 . S
C2420 C2421 1.386 . S
C2420 C2422 1.391 . S
C2421 C2420 1.386 . S
C2421 C2425 1.393 . S
C2422 H2414 0.950 . S
C2422 C2420 1.391 . S
C2422 C2423 1.400 . S
C2423 C2422 1.400 . S
C2423 C2424 1.398 . S
C2423 C2429 1.491 . S
C2424 H2415 0.950 . S
C2424 C2423 1.398 . S
C2424 C2425 1.391 . S
C2425 H2413 0.950 . S
C2425 C2421 1.393 . S
C2425 C2424 1.391 . S
C2426 H2416 0.950 . S
C2426 C2427 1.386 . S
C2426 C2428 1.391 . S
C2427 C2426 1.386 . S
C2427 C2431 1.393 . S
C2428 H2417 0.950 . S
C2428 C2426 1.391 . S
C2428 C2429 1.400 . S
C2429 C2423 1.491 . S
C2429 C2428 1.400 . S
C2429 C2430 1.398 . S
C2430 H2418 0.950 . S
C2430 C2429 1.398 . S
C2430 C2431 1.391 . S
C2431 H2419 0.950 . S
C2431 C2427 1.393 . S
C2431 C2430 1.391 . S
H2432 C2440 0.950 . S
H2433 C2445 0.950 . S
H2434 C2442 0.950 . S
H2435 C2444 0.950 . S
H2436 C2446 0.950 . S
H2437 C2448 0.950 . S
H2438 C2450 0.950 . S
H2439 C2451 0.950 . S
C2440 H2432 0.950 . S
C2440 C2441 1.386 . S
C2440 C2442 1.391 . S
C2441 C2440 1.386 . S
C2441 C2445 1.393 . S
C2442 H2434 0.950 . S
C2442 C2440 1.391 . S
C2442 C2443 1.400 . S
C2443 C2442 1.400 . S
C2443 C2444 1.398 . S
C2443 C2449 1.491 . S
C2444 H2435 0.950 . S
C2444 C2443 1.398 . S
C2444 C2445 1.391 . S
C2445 H2433 0.950 . S
C2445 C2441 1.393 . S
C2445 C2444 1.391 . S
C2446 H2436 0.950 . S
C2446 C2447 1.386 . S
C2446 C2448 1.391 . S
C2447 C2446 1.386 . S
C2447 C2451 1.393 . S
C2448 H2437 0.950 . S
C2448 C2446 1.391 . S
C2448 C2449 1.400 . S
C2449 C2443 1.491 . S
C2449 C2448 1.400 . S
C2449 C2450 1.398 . S
C2450 H2438 0.950 . S
C2450 C2449 1.398 . S
C2450 C2451 1.391 . S
C2451 H2439 0.950 . S
C2451 C2447 1.393 . S
C2451 C2450 1.391 . S
H2452 C2460 0.950 . S
H2453 C2465 0.950 . S
H2454 C2462 0.950 . S
H2455 C2464 0.950 . S
H2456 C2466 0.950 . S
H2457 C2468 0.950 . S
H2458 C2470 0.950 . S
H2459 C2471 0.950 . S
C2460 H2452 0.950 . S
C2460 C2461 1.386 . S
C2460 C2462 1.391 . S
C2461 C2460 1.386 . S
C2461 C2465 1.393 . S
C2462 H2454 0.950 . S
C2462 C2460 1.391 . S
C2462 C2463 1.400 . S
C2463 C2462 1.400 . S
C2463 C2464 1.398 . S
C2463 C2469 1.491 . S
C2464 H2455 0.950 . S
C2464 C2463 1.398 . S
C2464 C2465 1.391 . S
C2465 H2453 0.950 . S
C2465 C2461 1.393 . S
C2465 C2464 1.391 . S
C2466 H2456 0.950 . S
C2466 C2467 1.386 . S
C2466 C2468 1.391 . S
C2467 C2466 1.386 . S
C2467 C2471 1.393 . S
C2468 H2457 0.950 . S
C2468 C2466 1.391 . S
C2468 C2469 1.400 . S
C2469 C2463 1.491 . S
C2469 C2468 1.400 . S
C2469 C2470 1.398 . S
C2470 H2458 0.950 . S
C2470 C2469 1.398 . S
C2470 C2471 1.391 . S
C2471 H2459 0.950 . S
C2471 C2467 1.393 . S
C2471 C2470 1.391 . S
H2472 C2480 0.950 . S
H2473 C2485 0.950 . S
H2474 C2482 0.950 . S
H2475 C2484 0.950 . S
H2476 C2486 0.950 . S
H2477 C2488 0.950 . S
H2478 C2490 0.950 . S
H2479 C2491 0.950 . S
C2480 H2472 0.950 . S
C2480 C2481 1.386 . S
C2480 C2482 1.391 . S
C2481 C2480 1.386 . S
C2481 C2485 1.393 . S
C2482 H2474 0.950 . S
C2482 C2480 1.391 . S
C2482 C2483 1.400 . S
C2483 C2482 1.400 . S
C2483 C2484 1.398 . S
C2483 C2489 1.491 . S
C2484 H2475 0.950 . S
C2484 C2483 1.398 . S
C2484 C2485 1.391 . S
C2485 H2473 0.950 . S
C2485 C2481 1.393 . S
C2485 C2484 1.391 . S
C2486 H2476 0.950 . S
C2486 C2487 1.386 . S
C2486 C2488 1.391 . S
C2487 C2486 1.386 . S
C2487 C2491 1.393 . S
C2488 H2477 0.950 . S
C2488 C2486 1.391 . S
C2488 C2489 1.400 . S
C2489 C2483 1.491 . S
C2489 C2488 1.400 . S
C2489 C2490 1.398 . S
C2490 H2478 0.950 . S
C2490 C2489 1.398 . S
C2490 C2491 1.391 . S
C2491 H2479 0.950 . S
C2491 C2487 1.393 . S
C2491 C2490 1.391 . S
H2492 C2500 0.950 . S
H2493 C2505 0.950 . S
H2494 C2502 0.950 . S
H2495 C2504 0.950 . S
H2496 C2506 0.950 . S
H2497 C2508 0.950 . S
H2498 C2510 0.950 . S
H2499 C2511 0.950 . S
C2500 H2492 0.950 . S
C2500 C2501 1.386 . S
C2500 C2502 1.391 . S
C2501 C2500 1.386 . S
C2501 C2505 1.393 . S
C2502 H2494 0.950 . S
C2502 C2500 1.391 . S
C2502 C2503 1.400 . S
C2503 C2502 1.400 . S
C2503 C2504 1.398 . S
C2503 C2509 1.491 . S
C2504 H2495 0.950 . S
C2504 C2503 1.398 . S
C2504 C2505 1.391 . S
C2505 H2493 0.950 . S
C2505 C2501 1.393 . S
C2505 C2504 1.391 . S
C2506 H2496 0.950 . S
C2506 C2507 1.386 . S
C2506 C2508 1.391 . S
C2507 C2506 1.386 . S
C2507 C2511 1.393 . S
C2508 H2497 0.950 . S
C2508 C2506 1.391 . S
C2508 C2509 1.400 . S
C2509 C2503 1.491 . S
C2509 C2508 1.400 . S
C2509 C2510 1.398 . S
C2510 H2498 0.950 . S
C2510 C2509 1.398 . S
C2510 C2511 1.391 . S
C2511 H2499 0.950 . S
C2511 C2507 1.393 . S
C2511 C2510 1.391 . S
H2512 C2520 0.950 . S
H2513 C2525 0.950 . S
H2514 C2522 0.950 . S
H2515 C2524 0.950 . S
H2516 C2526 0.950 . S
H2517 C2528 0.950 . S
H2518 C2530 0.950 . S
H2519 C2531 0.950 . S
C2520 H2512 0.950 . S
C2520 C2521 1.386 . S
C2520 C2522 1.391 . S
C2521 C2520 1.386 . S
C2521 C2525 1.393 . S
C2522 H2514 0.950 . S
C2522 C2520 1.391 . S
C2522 C2523 1.400 . S
C2523 C2522 1.400 . S
C2523 C2524 1.398 . S
C2523 C2529 1.491 . S
C2524 H2515 0.950 . S
C2524 C2523 1.398 . S
C2524 C2525 1.391 . S
C2525 H2513 0.950 . S
C2525 C2521 1.393 . S
C2525 C2524 1.391 . S
C2526 H2516 0.950 . S
C2526 C2527 1.386 . S
C2526 C2528 1.391 . S
C2527 C2526 1.386 . S
C2527 C2531 1.393 . S
C2528 H2517 0.950 . S
C2528 C2526 1.391 . S
C2528 C2529 1.400 . S
C2529 C2523 1.491 . S
C2529 C2528 1.400 . S
C2529 C2530 1.398 . S
C2530 H2518 0.950 . S
C2530 C2529 1.398 . S
C2530 C2531 1.391 . S
C2531 H2519 0.950 . S
C2531 C2527 1.393 . S
C2531 C2530 1.391 . S
H2532 C2540 0.950 . S
H2533 C2545 0.950 . S
H2534 C2542 0.950 . S
H2535 C2544 0.950 . S
H2536 C2546 0.950 . S
H2537 C2548 0.950 . S
H2538 C2550 0.950 . S
H2539 C2551 0.950 . S
C2540 H2532 0.950 . S
C2540 C2541 1.386 . S
C2540 C2542 1.391 . S
C2541 C2540 1.386 . S
C2541 C2545 1.393 . S
C2542 H2534 0.950 . S
C2542 C2540 1.391 . S
C2542 C2543 1.400 . S
C2543 C2542 1.400 . S
C2543 C2544 1.398 . S
C2543 C2549 1.491 . S
C2544 H2535 0.950 . S
C2544 C2543 1.398 . S
C2544 C2545 1.391 . S
C2545 H2533 0.950 . S
C2545 C2541 1.393 . S
C2545 C2544 1.391 . S
C2546 H2536 0.950 . S
C2546 C2547 1.386 . S
C2546 C2548 1.391 . S
C2547 C2546 1.386 . S
C2547 C2551 1.393 . S
C2548 H2537 0.950 . S
C2548 C2546 1.391 . S
C2548 C2549 1.400 . S
C2549 C2543 1.491 . S
C2549 C2548 1.400 . S
C2549 C2550 1.398 . S
C2550 H2538 0.950 . S
C2550 C2549 1.398 . S
C2550 C2551 1.391 . S
C2551 H2539 0.950 . S
C2551 C2547 1.393 . S
C2551 C2550 1.391 . S
H2552 C2560 0.950 . S
H2553 C2565 0.950 . S
H2554 C2562 0.950 . S
H2555 C2564 0.950 . S
H2556 C2566 0.950 . S
H2557 C2568 0.950 . S
H2558 C2570 0.950 . S
H2559 C2571 0.950 . S
C2560 H2552 0.950 . S
C2560 C2561 1.386 . S
C2560 C2562 1.391 . S
C2561 C2560 1.386 . S
C2561 C2565 1.393 . S
C2562 H2554 0.950 . S
C2562 C2560 1.391 . S
C2562 C2563 1.400 . S
C2563 C2562 1.400 . S
C2563 C2564 1.398 . S
C2563 C2569 1.491 . S
C2564 H2555 0.950 . S
C2564 C2563 1.398 . S
C2564 C2565 1.391 . S
C2565 H2553 0.950 . S
C2565 C2561 1.393 . S
C2565 C2564 1.391 . S
C2566 H2556 0.950 . S
C2566 C2567 1.386 . S
C2566 C2568 1.391 . S
C2567 C2566 1.386 . S
C2567 C2571 1.393 . S
C2568 H2557 0.950 . S
C2568 C2566 1.391 . S
C2568 C2569 1.400 . S
C2569 C2563 1.491 . S
C2569 C2568 1.400 . S
C2569 C2570 1.398 . S
C2570 H2558 0.950 . S
C2570 C2569 1.398 . S
C2570 C2571 1.391 . S
C2571 H2559 0.950 . S
C2571 C2567 1.393 . S
C2571 C2570 1.391 . S
H2572 C2580 0.950 . S
H2573 C2585 0.950 . S
H2574 C2582 0.950 . S
H2575 C2584 0.950 . S
H2576 C2586 0.950 . S
H2577 C2588 0.950 . S
H2578 C2590 0.950 . S
H2579 C2591 0.950 . S
C2580 H2572 0.950 . S
C2580 C2581 1.386 . S
C2580 C2582 1.391 . S
C2581 C2580 1.386 . S
C2581 C2585 1.393 . S
C2582 H2574 0.950 . S
C2582 C2580 1.391 . S
C2582 C2583 1.400 . S
C2583 C2582 1.400 . S
C2583 C2584 1.398 . S
C2583 C2589 1.491 . S
C2584 H2575 0.950 . S
C2584 C2583 1.398 . S
C2584 C2585 1.391 . S
C2585 H2573 0.950 . S
C2585 C2581 1.393 . S
C2585 C2584 1.391 . S
C2586 H2576 0.950 . S
C2586 C2587 1.386 . S
C2586 C2588 1.391 . S
C2587 C2586 1.386 . S
C2587 C2591 1.393 . S
C2588 H2577 0.950 . S
C2588 C2586 1.391 . S
C2588 C2589 1.400 . S
C2589 C2583 1.491 . S
C2589 C2588 1.400 . S
C2589 C2590 1.398 . S
C2590 H2578 0.950 . S
C2590 C2589 1.398 . S
C2590 C2591 1.391 . S
C2591 H2579 0.950 . S
C2591 C2587 1.393 . S
C2591 C2590 1.391 . S
C681 C3 0.603 . S
C687 C367 0.518 . S
C701 C381 0.630 . S
C707 C17 0.676 . S
C721 C31 1.214 . S
C727 C339 1.279 . S
C741 C353 1.402 . S
C747 C45 1.386 . S
C761 C59 0.612 . S
C767 C423 0.567 . S
C781 C73 1.224 . S
C787 C437 1.191 . S
C801 C87 1.433 . S
C807 C395 1.483 . S
C821 C101 0.621 . S
C827 C409 0.535 . S
C841 C171 0.502 . S
C847 C115 0.664 . S
C861 C129 1.382 . S
C867 C185 1.351 . S
C881 C199 0.655 . S
C887 C143 0.479 . S
C901 C157 0.521 . S
C907 C213 0.629 . S
C921 C605 0.583 . S
C927 C227 0.603 . S
C941 C633 0.651 . S
C947 C241 0.531 . S
C961 C311 1.396 . S
C967 C255 1.395 . S
C981 C563 1.226 . S
C987 C269 1.213 . S
C1001 C661 0.563 . S
C1007 C283 0.555 . S
C1021 C577 1.448 . S
C1027 C297 1.504 . S
C1041 C325 1.192 . S
C1047 C619 1.244 . S
C1061 C451 1.252 . S
C1067 C507 1.255 . S
C1081 C521 0.614 . S
C1087 C465 0.687 . S
C1101 C479 1.484 . S
C1107 C535 1.481 . S
C1121 C549 1.214 . S
C1127 C493 1.174 . S
C1141 C591 0.657 . S
C1147 C647 0.623 . S
C1161 C7 0.722 . S
C1167 C105 0.458 . S
C1181 C63 0.697 . S
C1187 C21 0.459 . S
C1201 C35 1.210 . S
C1207 C77 1.167 . S
C1221 C49 1.280 . S
C1227 C91 1.260 . S
C1241 C287 0.435 . S
C1247 C119 0.775 . S
C1261 C581 1.273 . S
C1267 C133 1.301 . S
C1281 C147 0.857 . S
C1287 C595 0.381 . S
C1301 C161 0.486 . S
C1307 C609 0.826 . S
C1321 C665 0.490 . S
C1327 C175 0.821 . S
C1341 C189 1.330 . S
C1347 C301 1.297 . S
C1361 C203 0.753 . S
C1367 C651 0.404 . S
C1381 C217 0.407 . S
C1387 C231 0.791 . S
C1401 C245 0.781 . S
C1407 C469 0.466 . S
C1421 C259 1.299 . S
C1427 C483 1.267 . S
C1441 C497 1.165 . S
C1447 C273 1.203 . S
C1461 C315 1.341 . S
C1467 C539 1.307 . S
C1481 C511 1.182 . S
C1487 C329 1.170 . S
C1501 C441 1.159 . S
C1507 C343 1.122 . S
C1521 C357 1.287 . S
C1527 C399 1.338 . S
C1541 C413 0.465 . S
C1547 C371 0.839 . S
C1561 C385 0.419 . S
C1567 C427 0.821 . S
C1581 C455 1.163 . S
C1587 C623 1.132 . S
C1601 C637 0.668 . S
C1607 C525 0.489 . S
C1621 C567 1.174 . S
C1627 C553 1.136 . S
C1641 C9 1.235 . S
C1647 C415 0.994 . S
C1661 C429 1.241 . S
C1667 C23 1.073 . S
C1681 C37 1.054 . S
C1687 C443 1.032 . S
C1701 C51 0.932 . S
C1707 C401 0.949 . S
C1721 C387 1.052 . S
C1727 C65 1.184 . S
C1741 C79 1.035 . S
C1747 C345 1.014 . S
C1761 C359 0.969 . S
C1767 C93 0.972 . S
C1781 C107 1.090 . S
C1787 C373 1.284 . S
C1801 C667 1.035 . S
C1807 C121 1.237 . S
C1821 C135 0.923 . S
C1827 C303 0.953 . S
C1841 C149 1.251 . S
C1847 C653 1.036 . S
C1861 C233 1.229 . S
C1867 C163 1.047 . S
C1881 C177 1.285 . S
C1887 C289 1.033 . S
C1901 C191 0.978 . S
C1907 C583 0.961 . S
C1921 C597 1.004 . S
C1927 C205 1.182 . S
C1941 C611 1.286 . S
C1947 C219 1.036 . S
C1961 C527 1.022 . S
C1967 C247 1.248 . S
C1981 C541 0.920 . S
C1987 C261 0.946 . S
C2001 C555 1.028 . S
C2007 C275 1.049 . S
C2021 C317 0.957 . S
C2027 C485 0.972 . S
C2041 C457 1.042 . S
C2047 C331 1.019 . S
C2061 C471 1.017 . S
C2067 C639 1.190 . S
C2081 C499 1.020 . S
C2087 C569 1.024 . S
C2101 C625 1.033 . S
C2107 C513 1.054 . S
C2121 C8 1.600 . S
C2127 C316 1.650 . S
C2141 C22 1.743 . S
C2147 C568 1.800 . S
C2161 C330 1.775 . S
C2167 C36 1.768 . S
C2181 C638 1.652 . S
C2187 C50 1.702 . S
C2201 C260 1.702 . S
C2207 C64 1.651 . S
C2221 C274 1.769 . S
C2227 C78 1.776 . S
C2241 C92 1.767 . S
C2247 C624 1.784 . S
C2261 C106 1.622 . S
C2267 C246 1.635 . S
C2281 C190 1.645 . S
C2287 C120 1.595 . S
C2301 C134 1.698 . S
C2307 C204 1.651 . S
C2321 C218 1.640 . S
C2327 C148 1.652 . S
C2341 C176 1.578 . S
C2347 C162 1.600 . S
C2361 C232 1.596 . S
C2367 C358 1.647 . S
C2381 C428 1.649 . S
C2387 C288 1.618 . S
C2401 C386 1.681 . S
C2407 C302 1.716 . S
C2421 C344 1.796 . S
C2427 C652 1.753 . S
C2441 C666 1.612 . S
C2447 C372 1.592 . S
C2461 C596 1.683 . S
C2467 C400 1.729 . S
C2481 C610 1.575 . S
C2487 C414 1.593 . S
C2501 C582 1.765 . S
C2507 C442 1.778 . S
C2521 C526 1.755 . S
C2527 C456 1.796 . S
C2541 C540 1.717 . S
C2547 C470 1.669 . S
C2561 C484 1.766 . S
C2567 C554 1.782 . S
C2581 C498 1.762 . S
C2587 C512 1.767 . S
