# Generated by pormake.
# Topology vbw, (6)-cn, num edge types: 1
# Building blocks:
#     Node 0, Type 0, BuildingBlock: OJICUG_clean_sbu_0, # of connection points: 6
#     Node 1, Type 0, BuildingBlock: OJICUG_clean_sbu_0, # of connection points: 6
#     Node 2, Type 0, BuildingBlock: OJICUG_clean_sbu_0, # of connection points: 6
#     Node 3, Type 0, BuildingBlock: OJICUG_clean_sbu_0, # of connection points: 6
#     Node 4, Type 0, BuildingBlock: OJICUG_clean_sbu_0, # of connection points: 6
#     Node 5, Type 0, BuildingBlock: OJICUG_clean_sbu_0, # of connection points: 6
#     Node 6, Type 0, BuildingBlock: OJICUG_clean_sbu_0, # of connection points: 6
#     Node 7, Type 0, BuildingBlock: OJICUG_clean_sbu_0, # of connection points: 6
#     Node 8, Type 0, BuildingBlock: OJICUG_clean_sbu_0, # of connection points: 6
#     Node 9, Type 0, BuildingBlock: OJICUG_clean_sbu_0, # of connection points: 6
#     Node 10, Type 0, BuildingBlock: OJICUG_clean_sbu_0, # of connection points: 6
#     Node 11, Type 0, BuildingBlock: OJICUG_clean_sbu_0, # of connection points: 6
#     Node 12, Type 0, BuildingBlock: OJICUG_clean_sbu_0, # of connection points: 6
#     Node 13, Type 0, BuildingBlock: OJICUG_clean_sbu_0, # of connection points: 6
#     Node 14, Type 0, BuildingBlock: OJICUG_clean_sbu_0, # of connection points: 6
#     Node 15, Type 0, BuildingBlock: OJICUG_clean_sbu_0, # of connection points: 6
#     Edge 16, Type (0, 0), BuildingBlock: KIFKEQ_clean_linker_1, # of connection points: 2
#     Edge 17, Type (0, 0), BuildingBlock: KIFKEQ_clean_linker_1, # of connection points: 2
#     Edge 18, Type (0, 0), BuildingBlock: KIFKEQ_clean_linker_1, # of connection points: 2
#     Edge 19, Type (0, 0), BuildingBlock: KIFKEQ_clean_linker_1, # of connection points: 2
#     Edge 20, Type (0, 0), BuildingBlock: KIFKEQ_clean_linker_1, # of connection points: 2
#     Edge 21, Type (0, 0), BuildingBlock: KIFKEQ_clean_linker_1, # of connection points: 2
#     Edge 22, Type (0, 0), BuildingBlock: KIFKEQ_clean_linker_1, # of connection points: 2
#     Edge 23, Type (0, 0), BuildingBlock: KIFKEQ_clean_linker_1, # of connection points: 2
#     Edge 24, Type (0, 0), BuildingBlock: KIFKEQ_clean_linker_1, # of connection points: 2
#     Edge 25, Type (0, 0), BuildingBlock: KIFKEQ_clean_linker_1, # of connection points: 2
#     Edge 26, Type (0, 0), BuildingBlock: KIFKEQ_clean_linker_1, # of connection points: 2
#     Edge 27, Type (0, 0), BuildingBlock: KIFKEQ_clean_linker_1, # of connection points: 2
#     Edge 28, Type (0, 0), BuildingBlock: KIFKEQ_clean_linker_1, # of connection points: 2
#     Edge 29, Type (0, 0), BuildingBlock: KIFKEQ_clean_linker_1, # of connection points: 2
#     Edge 30, Type (0, 0), BuildingBlock: KIFKEQ_clean_linker_1, # of connection points: 2
#     Edge 31, Type (0, 0), BuildingBlock: KIFKEQ_clean_linker_1, # of connection points: 2
#     Edge 32, Type (0, 0), BuildingBlock: KIFKEQ_clean_linker_1, # of connection points: 2
#     Edge 33, Type (0, 0), BuildingBlock: KIFKEQ_clean_linker_1, # of connection points: 2
#     Edge 34, Type (0, 0), BuildingBlock: KIFKEQ_clean_linker_1, # of connection points: 2
#     Edge 35, Type (0, 0), BuildingBlock: KIFKEQ_clean_linker_1, # of connection points: 2
#     Edge 36, Type (0, 0), BuildingBlock: KIFKEQ_clean_linker_1, # of connection points: 2
#     Edge 37, Type (0, 0), BuildingBlock: KIFKEQ_clean_linker_1, # of connection points: 2
#     Edge 38, Type (0, 0), BuildingBlock: KIFKEQ_clean_linker_1, # of connection points: 2
#     Edge 39, Type (0, 0), BuildingBlock: KIFKEQ_clean_linker_1, # of connection points: 2
#     Edge 40, Type (0, 0), BuildingBlock: KIFKEQ_clean_linker_1, # of connection points: 2
#     Edge 41, Type (0, 0), BuildingBlock: KIFKEQ_clean_linker_1, # of connection points: 2
#     Edge 42, Type (0, 0), BuildingBlock: KIFKEQ_clean_linker_1, # of connection points: 2
#     Edge 43, Type (0, 0), BuildingBlock: KIFKEQ_clean_linker_1, # of connection points: 2
#     Edge 44, Type (0, 0), BuildingBlock: KIFKEQ_clean_linker_1, # of connection points: 2
#     Edge 45, Type (0, 0), BuildingBlock: KIFKEQ_clean_linker_1, # of connection points: 2
#     Edge 46, Type (0, 0), BuildingBlock: KIFKEQ_clean_linker_1, # of connection points: 2
#     Edge 47, Type (0, 0), BuildingBlock: KIFKEQ_clean_linker_1, # of connection points: 2
#     Edge 48, Type (0, 0), BuildingBlock: KIFKEQ_clean_linker_1, # of connection points: 2
#     Edge 49, Type (0, 0), BuildingBlock: KIFKEQ_clean_linker_1, # of connection points: 2
#     Edge 50, Type (0, 0), BuildingBlock: KIFKEQ_clean_linker_1, # of connection points: 2
#     Edge 51, Type (0, 0), BuildingBlock: KIFKEQ_clean_linker_1, # of connection points: 2
#     Edge 52, Type (0, 0), BuildingBlock: KIFKEQ_clean_linker_1, # of connection points: 2
#     Edge 53, Type (0, 0), BuildingBlock: KIFKEQ_clean_linker_1, # of connection points: 2
#     Edge 54, Type (0, 0), BuildingBlock: KIFKEQ_clean_linker_1, # of connection points: 2
#     Edge 55, Type (0, 0), BuildingBlock: KIFKEQ_clean_linker_1, # of connection points: 2
#     Edge 56, Type (0, 0), BuildingBlock: KIFKEQ_clean_linker_1, # of connection points: 2
#     Edge 57, Type (0, 0), BuildingBlock: KIFKEQ_clean_linker_1, # of connection points: 2
#     Edge 58, Type (0, 0), BuildingBlock: KIFKEQ_clean_linker_1, # of connection points: 2
#     Edge 59, Type (0, 0), BuildingBlock: KIFKEQ_clean_linker_1, # of connection points: 2
#     Edge 60, Type (0, 0), BuildingBlock: KIFKEQ_clean_linker_1, # of connection points: 2
#     Edge 61, Type (0, 0), BuildingBlock: KIFKEQ_clean_linker_1, # of connection points: 2
#     Edge 62, Type (0, 0), BuildingBlock: KIFKEQ_clean_linker_1, # of connection points: 2
#     Edge 63, Type (0, 0), BuildingBlock: KIFKEQ_clean_linker_1, # of connection points: 2
# Relax obj value: 0.200
# Max RMSD: 0.231
# Mean RMSD: 0.231
data_MOF--net-vbw--node1-OJICUG_clean_sbu_0--edge1-KIFKEQ_clean_linker_1
_symmetry_space_group_name_H-M    P1
_symmetry_Int_Tables_number       1
_symmetry_cell_setting            triclinic
loop_
_symmetry_equiv_pos_as_xyz
'x, y, z'
_cell_length_a     59.195945
_cell_length_b     47.149352
_cell_length_c     29.360206
_cell_angle_alpha  90.01281
_cell_angle_beta   90.067562
_cell_angle_gamma 90.001767
loop_
_atom_site_label
_atom_site_type_symbol
_atom_site_fract_x
_atom_site_fract_y
_atom_site_fract_z
_atom_type_partial_charge
Sc0 Sc 0.15427 0.15128 0.06166 0.0
Sc1 Sc 0.11712 0.20435 0.09377 0.0
Sc2 Sc 0.11789 0.13949 0.15271 0.0
O3 O 0.12954 0.16494 0.10291 0.0
C4 C 0.12281 0.09807 0.06547 0.0
C5 C 0.12435 0.18939 0.99326 0.0
C6 C 0.0729 0.16946 0.12136 0.0
C7 C 0.1701 0.21214 0.0751 0.0
C8 C 0.16954 0.12384 0.15611 0.0
C9 C 0.12063 0.20111 0.20071 0.0
O10 O 0.13442 0.11545 0.04198 0.0
O11 O 0.10997 0.19656 0.02316 0.0
O12 O 0.08332 0.14717 0.13371 0.0
O13 O 0.17479 0.1862 0.08108 0.0
O14 O 0.15139 0.12975 0.17705 0.0
O15 O 0.12305 0.21492 0.16378 0.0
O16 O 0.17157 0.12698 0.11335 0.0
O17 O 0.14988 0.22144 0.07445 0.0
O18 O 0.11732 0.1743 0.20199 0.0
O19 O 0.14196 0.17513 0.00315 0.0
O20 O 0.11749 0.10266 0.10712 0.0
O21 O 0.083 0.19215 0.10986 0.0
Sc22 Sc 0.32455 0.8595 0.56282 0.0
Sc23 Sc 0.35673 0.80153 0.59495 0.0
Sc24 Sc 0.36083 0.86542 0.65505 0.0
O25 O 0.34763 0.84215 0.60434 0.0
C26 C 0.35953 0.9083 0.56918 0.0
C27 C 0.35137 0.81798 0.49467 0.0
C28 C 0.40342 0.83146 0.62313 0.0
C29 C 0.30312 0.80115 0.57678 0.0
C30 C 0.31078 0.88628 0.65832 0.0
C31 C 0.35386 0.80405 0.70152 0.0
O32 O 0.3477 0.89202 0.54419 0.0
O33 O 0.36477 0.80889 0.52501 0.0
O34 O 0.39442 0.85465 0.63559 0.0
O35 O 0.30107 0.82776 0.58116 0.0
O36 O 0.32799 0.87686 0.67913 0.0
O37 O 0.34961 0.7913 0.66435 0.0
O38 O 0.30935 0.88605 0.61506 0.0
O39 O 0.32235 0.7888 0.57631 0.0
O40 O 0.35987 0.83008 0.70311 0.0
O41 O 0.33481 0.83424 0.50401 0.0
O42 O 0.36334 0.90316 0.61135 0.0
O43 O 0.39195 0.80981 0.61114 0.0
Sc44 Sc 0.15423 0.8534 0.9354 0.0
Sc45 Sc 0.11916 0.79788 0.905 0.0
Sc46 Sc 0.11811 0.86118 0.84301 0.0
O47 O 0.13026 0.83759 0.8944 0.0
C48 C 0.12177 0.90501 0.9274 0.0
C49 C 0.12479 0.81517 0.00477 0.0
C50 C 0.07411 0.83058 0.87542 0.0
C51 C 0.17208 0.79336 0.92692 0.0
C52 C 0.16893 0.87896 0.83916 0.0
C53 C 0.12278 0.79876 0.79849 0.0
O54 O 0.13299 0.88825 0.95273 0.0
O55 O 0.11096 0.80699 0.97441 0.0
O56 O 0.08402 0.85316 0.86295 0.0
O57 O 0.17602 0.8192 0.91827 0.0
O58 O 0.15136 0.87051 0.81843 0.0
O59 O 0.12667 0.78622 0.83607 0.0
O60 O 0.17073 0.87795 0.88233 0.0
O61 O 0.15216 0.7831 0.9274 0.0
O62 O 0.11755 0.82506 0.7962 0.0
O63 O 0.14215 0.83003 0.99502 0.0
O64 O 0.11737 0.89953 0.88556 0.0
O65 O 0.0847 0.80818 0.88688 0.0
Sc66 Sc 0.35998 0.14238 0.34678 0.0
Sc67 Sc 0.35535 0.20708 0.40487 0.0
Sc68 Sc 0.32446 0.14857 0.44004 0.0
O69 O 0.34678 0.16608 0.39716 0.0
C70 C 0.30996 0.1214 0.34495 0.0
C71 C 0.35323 0.20328 0.29847 0.0
C72 C 0.30185 0.20647 0.42269 0.0
C73 C 0.40225 0.17674 0.38033 0.0
C74 C 0.35939 0.0999 0.433 0.0
C75 C 0.35076 0.19176 0.50661 0.0
O76 O 0.32698 0.13046 0.32301 0.0
O77 O 0.34849 0.21609 0.33522 0.0
O78 O 0.30035 0.17968 0.42254 0.0
O79 O 0.3934 0.15347 0.36767 0.0
O80 O 0.34805 0.11646 0.4583 0.0
O81 O 0.36311 0.20189 0.47538 0.0
O82 O 0.36255 0.10474 0.39058 0.0
O83 O 0.39072 0.19876 0.39015 0.0
O84 O 0.33513 0.1739 0.49837 0.0
O85 O 0.35936 0.17729 0.29751 0.0
O86 O 0.30898 0.12204 0.38826 0.0
O87 O 0.32075 0.21955 0.42149 0.0
Sc88 Sc 0.8605 0.86253 0.84495 0.0
Sc89 Sc 0.85895 0.79881 0.90514 0.0
Sc90 Sc 0.82253 0.85306 0.93351 0.0
O91 O 0.84754 0.83828 0.8944 0.0
C92 C 0.85461 0.90521 0.93029 0.0
C93 C 0.90411 0.83212 0.87938 0.0
C94 C 0.85109 0.81478 0.004 0.0
C95 C 0.85703 0.80038 0.79895 0.0
C96 C 0.80963 0.87951 0.83699 0.0
C97 C 0.80575 0.79299 0.92252 0.0
O98 O 0.85985 0.90036 0.88865 0.0
O99 O 0.89346 0.80937 0.88837 0.0
O100 O 0.83343 0.82871 0.99294 0.0
O101 O 0.86235 0.82669 0.79747 0.0
O102 O 0.80709 0.87826 0.87998 0.0
O103 O 0.82584 0.7834 0.92519 0.0
O104 O 0.82763 0.87139 0.8175 0.0
O105 O 0.85239 0.78761 0.83593 0.0
O106 O 0.80157 0.81867 0.913 0.0
O107 O 0.89425 0.85502 0.86826 0.0
O108 O 0.84306 0.88795 0.9541 0.0
O109 O 0.86609 0.80815 0.97503 0.0
Sc110 Sc 0.65143 0.14911 0.44302 0.0
Sc111 Sc 0.61831 0.20646 0.4136 0.0
Sc112 Sc 0.61526 0.14402 0.35089 0.0
O113 O 0.62815 0.16648 0.40243 0.0
C114 C 0.66557 0.12526 0.34563 0.0
C115 C 0.67127 0.208 0.43712 0.0
C116 C 0.62089 0.2066 0.30831 0.0
C117 C 0.62303 0.18815 0.51234 0.0
C118 C 0.6181 0.09909 0.43304 0.0
C119 C 0.57234 0.1758 0.38373 0.0
O120 O 0.66684 0.12414 0.38893 0.0
O121 O 0.65163 0.21915 0.43777 0.0
O122 O 0.6139 0.18098 0.30626 0.0
O123 O 0.64025 0.17308 0.50253 0.0
O124 O 0.61496 0.10474 0.39088 0.0
O125 O 0.58362 0.19804 0.39346 0.0
O126 O 0.62866 0.11558 0.4599 0.0
O127 O 0.60915 0.19646 0.48217 0.0
O128 O 0.58161 0.15236 0.37334 0.0
O129 O 0.67446 0.18222 0.42671 0.0
O130 O 0.6484 0.13525 0.32523 0.0
O131 O 0.62704 0.21835 0.3453 0.0
Sc132 Sc 0.82141 0.14983 0.06734 0.0
Sc133 Sc 0.8575 0.20402 0.09775 0.0
Sc134 Sc 0.85855 0.14011 0.15736 0.0
O135 O 0.84608 0.1645 0.10753 0.0
C136 C 0.80751 0.1237 0.16325 0.0
C137 C 0.80437 0.20977 0.07802 0.0
C138 C 0.85492 0.20202 0.20366 0.0
C139 C 0.85057 0.18847 0.99854 0.0
C140 C 0.85327 0.09761 0.07161 0.0
C141 C 0.90253 0.17014 0.12466 0.0
O142 O 0.8055 0.12451 0.12011 0.0
O143 O 0.82445 0.21954 0.0762 0.0
O144 O 0.86061 0.17584 0.20478 0.0
O145 O 0.83281 0.17446 0.00859 0.0
O146 O 0.85797 0.1023 0.11357 0.0
O147 O 0.89204 0.19301 0.11526 0.0
O148 O 0.84214 0.11504 0.04726 0.0
O149 O 0.86529 0.19486 0.02826 0.0
O150 O 0.89248 0.14735 0.13561 0.0
O151 O 0.80028 0.18407 0.08748 0.0
O152 O 0.82536 0.13176 0.18343 0.0
O153 O 0.8501 0.215 0.16695 0.0
Sc154 Sc 0.65081 0.85708 0.5609 0.0
Sc155 Sc 0.61907 0.79959 0.5965 0.0
Sc156 Sc 0.61685 0.86313 0.65628 0.0
O157 O 0.62885 0.83992 0.60466 0.0
C158 C 0.66719 0.88194 0.65669 0.0
C159 C 0.67151 0.79819 0.56876 0.0
C160 C 0.62363 0.80136 0.70169 0.0
C161 C 0.62118 0.81619 0.49607 0.0
C162 C 0.61776 0.90721 0.57281 0.0
C163 C 0.57354 0.83073 0.62649 0.0
O164 O 0.66767 0.88236 0.61323 0.0
O165 O 0.65206 0.7866 0.57107 0.0
O166 O 0.61675 0.82705 0.70314 0.0
O167 O 0.63803 0.83259 0.50289 0.0
O168 O 0.61559 0.90191 0.61529 0.0
O169 O 0.58469 0.80816 0.61831 0.0
O170 O 0.62757 0.89039 0.54544 0.0
O171 O 0.60863 0.80772 0.5283 0.0
O172 O 0.58294 0.85427 0.63576 0.0
O173 O 0.67459 0.82448 0.57523 0.0
O174 O 0.65036 0.87251 0.67877 0.0
O175 O 0.62885 0.78911 0.66459 0.0
Sc176 Sc 0.6517 0.64766 0.06187 0.0
Sc177 Sc 0.62147 0.70668 0.09953 0.0
Sc178 Sc 0.61615 0.64118 0.15576 0.0
O179 O 0.62963 0.66525 0.10565 0.0
C180 C 0.61662 0.59859 0.06998 0.0
C181 C 0.62503 0.69099 0.99619 0.0
C182 C 0.57416 0.67663 0.12339 0.0
C183 C 0.67472 0.7061 0.08006 0.0
C184 C 0.66649 0.62035 0.15726 0.0
C185 C 0.62323 0.7011 0.20603 0.0
O186 O 0.6286 0.61461 0.04505 0.0
O187 O 0.61443 0.70321 0.0282 0.0
O188 O 0.58278 0.65328 0.13635 0.0
O189 O 0.67596 0.67939 0.07613 0.0
O190 O 0.64902 0.62825 0.17895 0.0
O191 O 0.62796 0.71475 0.17009 0.0
O192 O 0.66813 0.62248 0.11414 0.0
O193 O 0.65607 0.7193 0.08495 0.0
O194 O 0.61698 0.67524 0.20578 0.0
O195 O 0.63967 0.67171 0.00348 0.0
O196 O 0.61286 0.60392 0.11194 0.0
O197 O 0.58594 0.69823 0.11232 0.0
Sc198 Sc 0.82275 0.35353 0.56293 0.0
Sc199 Sc 0.85572 0.29806 0.60697 0.0
Sc200 Sc 0.85705 0.36555 0.65923 0.0
O201 O 0.84524 0.33906 0.60969 0.0
C202 C 0.85559 0.40634 0.57116 0.0
C203 C 0.85027 0.31049 0.50057 0.0
C204 C 0.90118 0.3324 0.6256 0.0
C205 C 0.80298 0.29297 0.59 0.0
C206 C 0.80505 0.38202 0.65603 0.0
C207 C 0.85484 0.30736 0.71445 0.0
O208 O 0.84205 0.39075 0.54889 0.0
O209 O 0.85727 0.29663 0.53466 0.0
O210 O 0.89134 0.35287 0.64583 0.0
O211 O 0.80169 0.31774 0.57332 0.0
O212 O 0.82371 0.37989 0.67721 0.0
O213 O 0.85588 0.29236 0.67883 0.0
O214 O 0.80273 0.3746 0.61458 0.0
O215 O 0.82132 0.28207 0.6047 0.0
O216 O 0.85397 0.33431 0.71353 0.0
O217 O 0.83865 0.33306 0.50463 0.0
O218 O 0.86184 0.40058 0.61172 0.0
O219 O 0.89063 0.31135 0.60846 0.0
Sc220 Sc 0.65052 0.3559 0.94646 0.0
Sc221 Sc 0.61913 0.29784 0.90587 0.0
Sc222 Sc 0.61555 0.36427 0.85049 0.0
O223 O 0.62833 0.33928 0.90094 0.0
C224 C 0.61638 0.40699 0.93601 0.0
C225 C 0.62331 0.31353 0.0112 0.0
C226 C 0.57252 0.32972 0.88509 0.0
C227 C 0.67214 0.29576 0.92478 0.0
C228 C 0.66703 0.38277 0.85124 0.0
C229 C 0.61995 0.30478 0.79838 0.0
O230 O 0.62988 0.39203 0.9594 0.0
O231 O 0.61598 0.29901 0.97803 0.0
O232 O 0.58173 0.35128 0.86674 0.0
O233 O 0.67297 0.32139 0.93765 0.0
O234 O 0.64852 0.3787 0.83023 0.0
O235 O 0.62081 0.29026 0.83456 0.0
O236 O 0.66951 0.37721 0.89341 0.0
O237 O 0.65393 0.2835 0.91236 0.0
O238 O 0.61836 0.33169 0.79821 0.0
O239 O 0.63555 0.33546 0.00571 0.0
O240 O 0.61069 0.40054 0.89542 0.0
O241 O 0.58367 0.30859 0.90029 0.0
Sc242 Sc 0.85823 0.63928 0.34379 0.0
Sc243 Sc 0.85673 0.70588 0.39951 0.0
Sc244 Sc 0.8241 0.6491 0.44015 0.0
O245 O 0.84644 0.66482 0.39445 0.0
C246 C 0.80662 0.62188 0.34604 0.0
C247 C 0.85442 0.6991 0.29196 0.0
C248 C 0.80371 0.70974 0.41894 0.0
C249 C 0.90235 0.67226 0.37654 0.0
C250 C 0.85712 0.59705 0.43013 0.0
C251 C 0.8528 0.69059 0.50448 0.0
O252 O 0.82478 0.62611 0.324 0.0
O253 O 0.85382 0.7136 0.32824 0.0
O254 O 0.80205 0.68383 0.42989 0.0
O255 O 0.89253 0.65074 0.35933 0.0
O256 O 0.84454 0.61291 0.45406 0.0
O257 O 0.86137 0.7043 0.47167 0.0
O258 O 0.86224 0.60281 0.38895 0.0
O259 O 0.89176 0.69391 0.39143 0.0
O260 O 0.8391 0.67013 0.49851 0.0
O261 O 0.85596 0.67215 0.29173 0.0
O262 O 0.8048 0.6272 0.38836 0.0
O263 O 0.8224 0.72153 0.40842 0.0
Sc264 Sc 0.35923 0.36657 0.84628 0.0
Sc265 Sc 0.35549 0.30127 0.90449 0.0
Sc266 Sc 0.3252 0.36016 0.94315 0.0
O267 O 0.34679 0.34261 0.89802 0.0
C268 C 0.35997 0.40974 0.93171 0.0
C269 C 0.40222 0.33169 0.87789 0.0
C270 C 0.35278 0.31745 0.00812 0.0
C271 C 0.35194 0.3062 0.79724 0.0
C272 C 0.3084 0.38664 0.84845 0.0
C273 C 0.3024 0.30111 0.9257 0.0
O274 O 0.36379 0.40386 0.88993 0.0
O275 O 0.3908 0.31058 0.89225 0.0
O276 O 0.33859 0.33733 0.00153 0.0
O277 O 0.35655 0.33261 0.79606 0.0
O278 O 0.30719 0.38394 0.8915 0.0
O279 O 0.32092 0.28803 0.91836 0.0
O280 O 0.32592 0.37986 0.82594 0.0
O281 O 0.34961 0.29267 0.83422 0.0
O282 O 0.30128 0.32764 0.93208 0.0
O283 O 0.39321 0.35418 0.86218 0.0
O284 O 0.34786 0.39416 0.95709 0.0
O285 O 0.36237 0.30446 0.97569 0.0
Sc286 Sc 0.15333 0.64861 0.43542 0.0
Sc287 Sc 0.11787 0.70397 0.40482 0.0
Sc288 Sc 0.11715 0.64052 0.34267 0.0
O289 O 0.12923 0.6643 0.39426 0.0
C290 C 0.16841 0.62368 0.33898 0.0
C291 C 0.171 0.7093 0.4249 0.0
C292 C 0.12122 0.70279 0.29782 0.0
C293 C 0.12402 0.68669 0.50517 0.0
C294 C 0.12108 0.59659 0.42683 0.0
C295 C 0.0728 0.6707 0.37603 0.0
O296 O 0.17024 0.6248 0.38213 0.0
O297 O 0.15104 0.71947 0.42458 0.0
O298 O 0.11661 0.67634 0.29545 0.0
O299 O 0.14107 0.67132 0.49534 0.0
O300 O 0.11642 0.60222 0.38518 0.0
O301 O 0.08332 0.6929 0.38872 0.0
O302 O 0.1324 0.6133 0.45208 0.0
O303 O 0.11046 0.69561 0.47487 0.0
O304 O 0.08279 0.6485 0.36199 0.0
O305 O 0.17511 0.68311 0.4197 0.0
O306 O 0.15058 0.63137 0.31835 0.0
O307 O 0.12447 0.71553 0.33546 0.0
Sc308 Sc 0.32511 0.65123 0.06296 0.0
Sc309 Sc 0.35742 0.70933 0.09908 0.0
Sc310 Sc 0.36183 0.64346 0.15517 0.0
O311 O 0.34824 0.66811 0.10574 0.0
C312 C 0.31112 0.62356 0.15854 0.0
C313 C 0.30372 0.71054 0.08475 0.0
C314 C 0.35716 0.70358 0.20627 0.0
C315 C 0.35128 0.69384 0.99569 0.0
C316 C 0.35976 0.60124 0.06856 0.0
C317 C 0.40426 0.67776 0.1192 0.0
O318 O 0.30873 0.62644 0.11571 0.0
O319 O 0.32265 0.72319 0.08954 0.0
O320 O 0.36076 0.67692 0.20647 0.0
O321 O 0.33678 0.67453 0.0036 0.0
O322 O 0.36476 0.60661 0.11004 0.0
O323 O 0.39286 0.69946 0.10729 0.0
O324 O 0.34705 0.61723 0.04502 0.0
O325 O 0.36207 0.70627 0.02718 0.0
O326 O 0.39535 0.65529 0.13509 0.0
O327 O 0.30197 0.68403 0.07846 0.0
O328 O 0.32913 0.63065 0.17916 0.0
O329 O 0.35428 0.71775 0.17008 0.0
Sc330 Sc 0.1538 0.35006 0.56383 0.0
Sc331 Sc 0.11569 0.2976 0.59387 0.0
Sc332 Sc 0.11648 0.36244 0.65311 0.0
O333 O 0.12841 0.33682 0.60378 0.0
C334 C 0.16818 0.37785 0.65865 0.0
C335 C 0.16882 0.289 0.57862 0.0
C336 C 0.11816 0.30086 0.70114 0.0
C337 C 0.12462 0.31214 0.49379 0.0
C338 C 0.12256 0.40356 0.56576 0.0
C339 C 0.07148 0.3331 0.61939 0.0
O340 O 0.17066 0.3744 0.61606 0.0
O341 O 0.14854 0.28001 0.57668 0.0
O342 O 0.11539 0.32776 0.70245 0.0
O343 O 0.1422 0.32617 0.50474 0.0
O344 O 0.11667 0.39906 0.60713 0.0
O345 O 0.08149 0.31041 0.60763 0.0
O346 O 0.13447 0.38612 0.54295 0.0
O347 O 0.10969 0.30534 0.52281 0.0
O348 O 0.08198 0.35503 0.63312 0.0
O349 O 0.17368 0.31488 0.58485 0.0
O350 O 0.14977 0.37213 0.67882 0.0
O351 O 0.12042 0.28698 0.66423 0.0
H352 H 0.21351 0.12816 0.12984 0.0
H353 H 0.17176 0.10187 0.24272 0.0
H354 H 0.247 0.12171 0.17585 0.0
H355 H 0.20556 0.09361 0.28846 0.0
H356 H 0.26629 0.12404 0.37358 0.0
H357 H 0.23242 0.11908 0.32787 0.0
H358 H 0.27314 0.09389 0.21243 0.0
H359 H 0.3072 0.10075 0.25785 0.0
C360 C 0.2115 0.12021 0.16422 0.0
C361 C 0.18989 0.11573 0.18267 0.0
C362 C 0.23085 0.11628 0.19073 0.0
C363 C 0.22923 0.10722 0.23631 0.0
C364 C 0.20759 0.10126 0.25395 0.0
C365 C 0.18816 0.10576 0.22761 0.0
C366 C 0.268 0.11693 0.33866 0.0
C367 C 0.28946 0.11301 0.31924 0.0
C368 C 0.24846 0.11394 0.3123 0.0
C369 C 0.24982 0.1064 0.26596 0.0
C370 C 0.27131 0.10055 0.24752 0.0
C371 C 0.2909 0.10418 0.27366 0.0
H372 H 0.20757 0.90532 0.86899 0.0
H373 H 0.17518 0.87335 0.74738 0.0
H374 H 0.24165 0.91523 0.82527 0.0
H375 H 0.20937 0.88214 0.70426 0.0
H376 H 0.27039 0.90805 0.6279 0.0
H377 H 0.23568 0.91385 0.67152 0.0
H378 H 0.27084 0.8876 0.79357 0.0
H379 H 0.30551 0.88294 0.75061 0.0
C380 C 0.20764 0.9006 0.83288 0.0
C381 C 0.18868 0.88827 0.81185 0.0
C382 C 0.22724 0.90615 0.80782 0.0
C383 C 0.22845 0.89922 0.76124 0.0
C384 C 0.20907 0.88815 0.73985 0.0
C385 C 0.18943 0.88289 0.76477 0.0
C386 C 0.27082 0.90413 0.66423 0.0
C387 C 0.29074 0.8947 0.68555 0.0
C388 C 0.25085 0.90724 0.68923 0.0
C389 C 0.25028 0.90078 0.73604 0.0
C390 C 0.27056 0.89306 0.75776 0.0
C391 C 0.29052 0.8902 0.73291 0.0
H392 H 0.70762 0.90211 0.62362 0.0
H393 H 0.67342 0.88022 0.74882 0.0
H394 H 0.74267 0.90905 0.66601 0.0
H395 H 0.70836 0.88606 0.79054 0.0
H396 H 0.77118 0.90711 0.86404 0.0
H397 H 0.73714 0.91553 0.81934 0.0
H398 H 0.76959 0.87889 0.70134 0.0
H399 H 0.80381 0.87158 0.74547 0.0
C400 C 0.70747 0.8991 0.66019 0.0
C401 C 0.68769 0.89033 0.68265 0.0
C402 C 0.72763 0.90288 0.68448 0.0
C403 C 0.72849 0.89784 0.73172 0.0
C404 C 0.7084 0.89053 0.75437 0.0
C405 C 0.68829 0.88694 0.73023 0.0
C406 C 0.77117 0.90131 0.82834 0.0
C407 C 0.79015 0.88836 0.80852 0.0
C408 C 0.75159 0.906 0.80273 0.0
C409 C 0.75041 0.89751 0.75681 0.0
C410 C 0.76986 0.886 0.7364 0.0
C411 C 0.78952 0.88163 0.76187 0.0
H412 H 0.70512 0.10087 0.37514 0.0
H413 H 0.67146 0.13112 0.25377 0.0
H414 H 0.73955 0.09328 0.33131 0.0
H415 H 0.70592 0.12448 0.21057 0.0
H416 H 0.76756 0.10039 0.13405 0.0
H417 H 0.73314 0.09356 0.17815 0.0
H418 H 0.76764 0.12318 0.29895 0.0
H419 H 0.80213 0.12905 0.25538 0.0
C420 C 0.70496 0.10563 0.33906 0.0
C421 C 0.68553 0.11687 0.31815 0.0
C422 C 0.72477 0.10144 0.31396 0.0
C423 C 0.72566 0.10854 0.26744 0.0
C424 C 0.70588 0.11842 0.24614 0.0
C425 C 0.68606 0.12243 0.2711 0.0
C426 C 0.76791 0.10497 0.1702 0.0
C427 C 0.78759 0.11556 0.19101 0.0
C428 C 0.74811 0.10121 0.19546 0.0
C429 C 0.74746 0.10817 0.24205 0.0
C430 C 0.76749 0.1173 0.26331 0.0
C431 C 0.78732 0.12083 0.23816 0.0
H432 H 0.76275 0.62842 0.3723 0.0
H433 H 0.80376 0.59678 0.26182 0.0
H434 H 0.72907 0.62181 0.32667 0.0
H435 H 0.76979 0.58865 0.21662 0.0
H436 H 0.7104 0.62109 0.12923 0.0
H437 H 0.74397 0.61548 0.17564 0.0
H438 H 0.70232 0.59343 0.2913 0.0
H439 H 0.66857 0.60064 0.24507 0.0
C440 C 0.76453 0.61926 0.33864 0.0
C441 C 0.78602 0.61336 0.32062 0.0
C442 C 0.74509 0.61529 0.31238 0.0
C443 C 0.74652 0.60485 0.26753 0.0
C444 C 0.76797 0.59736 0.25053 0.0
C445 C 0.78748 0.60181 0.27658 0.0
C446 C 0.70838 0.61451 0.16435 0.0
C447 C 0.68676 0.61158 0.18352 0.0
C448 C 0.72774 0.61115 0.1911 0.0
C449 C 0.72604 0.6043 0.23765 0.0
C450 C 0.70438 0.59946 0.25598 0.0
C451 C 0.68498 0.60333 0.22936 0.0
H452 H 0.6684 0.4043 0.76445 0.0
H453 H 0.71146 0.37967 0.8766 0.0
H454 H 0.70158 0.41115 0.71665 0.0
H455 H 0.74446 0.38542 0.82853 0.0
H456 H 0.76076 0.37531 0.63153 0.0
H457 H 0.72761 0.38152 0.679 0.0
H458 H 0.7696 0.41443 0.78736 0.0
H459 H 0.80298 0.40715 0.74026 0.0
C460 C 0.68495 0.40063 0.77909 0.0
C461 C 0.6872 0.39124 0.82435 0.0
C462 C 0.70401 0.40435 0.75153 0.0
C463 C 0.72579 0.39849 0.76835 0.0
C464 C 0.72806 0.3905 0.81434 0.0
C465 C 0.70904 0.38707 0.84201 0.0
C466 C 0.76294 0.38437 0.66516 0.0
C467 C 0.78462 0.39048 0.68214 0.0
C468 C 0.74382 0.38807 0.69247 0.0
C469 C 0.74582 0.39826 0.73738 0.0
C470 C 0.7674 0.40595 0.75337 0.0
C471 C 0.78656 0.40197 0.72619 0.0
H472 H 0.30467 0.40844 0.76212 0.0
H473 H 0.26483 0.38093 0.877 0.0
H474 H 0.27036 0.41336 0.71683 0.0
H475 H 0.2308 0.38412 0.83137 0.0
H476 H 0.16951 0.39879 0.74609 0.0
H477 H 0.20289 0.40841 0.79241 0.0
H478 H 0.24553 0.38371 0.67959 0.0
H479 H 0.2124 0.37577 0.63308 0.0
C480 C 0.28856 0.40371 0.77783 0.0
C481 C 0.28754 0.3942 0.82312 0.0
C482 C 0.26884 0.40622 0.75172 0.0
C483 C 0.24764 0.39864 0.76991 0.0
C484 C 0.24661 0.39053 0.81601 0.0
C485 C 0.26625 0.38858 0.84233 0.0
C486 C 0.18605 0.39589 0.73107 0.0
C487 C 0.18822 0.38645 0.68588 0.0
C488 C 0.20526 0.4012 0.75774 0.0
C489 C 0.22713 0.39668 0.74015 0.0
C490 C 0.22916 0.38805 0.69442 0.0
C491 C 0.21003 0.38325 0.66763 0.0
H492 H 0.30562 0.62738 0.25084 0.0
H493 H 0.27125 0.60051 0.12827 0.0
H494 H 0.27097 0.62143 0.29378 0.0
H495 H 0.23667 0.59345 0.17172 0.0
H496 H 0.17456 0.62968 0.24717 0.0
H497 H 0.2092 0.62339 0.20435 0.0
H498 H 0.24262 0.5924 0.3255 0.0
H499 H 0.20804 0.59978 0.36889 0.0
C500 C 0.29083 0.61945 0.23321 0.0
C501 C 0.29122 0.61476 0.1859 0.0
C502 C 0.27088 0.61589 0.25799 0.0
C503 C 0.25082 0.60726 0.23625 0.0
C504 C 0.25161 0.60077 0.18947 0.0
C505 C 0.27153 0.60461 0.16456 0.0
C506 C 0.18916 0.62111 0.26463 0.0
C507 C 0.18852 0.61555 0.31167 0.0
C508 C 0.2091 0.61731 0.2399 0.0
C509 C 0.2289 0.60758 0.26141 0.0
C510 C 0.22788 0.6005 0.30794 0.0
C511 C 0.20798 0.60456 0.33281 0.0
H512 H 0.08609 0.20416 0.94619 0.0
H513 H 0.15896 0.20553 0.93835 0.0
H514 H 0.084 0.23121 0.87475 0.0
H515 H 0.15674 0.23329 0.86812 0.0
H516 H 0.13434 0.31707 0.78473 0.0
H517 H 0.13554 0.28845 0.85472 0.0
H518 H 0.10246 0.2196 0.78465 0.0
H519 H 0.10189 0.24762 0.71446 0.0
C520 C 0.1016 0.20994 0.92897 0.0
C521 C 0.12267 0.20243 0.94754 0.0
C522 C 0.10039 0.22547 0.88836 0.0
C523 C 0.12023 0.23443 0.86646 0.0
C524 C 0.14125 0.2267 0.88465 0.0
C525 C 0.14247 0.21056 0.9245 0.0
C526 C 0.12728 0.29588 0.78439 0.0
C527 C 0.11813 0.28451 0.74416 0.0
C528 C 0.12804 0.27954 0.82424 0.0
C529 C 0.11908 0.25193 0.82475 0.0
C530 C 0.10942 0.24086 0.78495 0.0
C531 C 0.1092 0.25685 0.74489 0.0
H532 H 0.31657 0.80352 0.4387 0.0
H533 H 0.38933 0.80139 0.44927 0.0
H534 H 0.31849 0.77446 0.36958 0.0
H535 H 0.39119 0.77307 0.37927 0.0
H536 H 0.37659 0.7546 0.22073 0.0
H537 H 0.37572 0.78344 0.28992 0.0
H538 H 0.33678 0.71865 0.3576 0.0
H539 H 0.33827 0.68911 0.28841 0.0
C540 C 0.33298 0.79747 0.42559 0.0
C541 C 0.35283 0.80494 0.44904 0.0
C542 C 0.33403 0.78056 0.38651 0.0
C543 C 0.35496 0.7714 0.36966 0.0
C544 C 0.37486 0.77984 0.39189 0.0
C545 C 0.3738 0.79614 0.43162 0.0
C546 C 0.36799 0.74641 0.25051 0.0
C547 C 0.35747 0.71967 0.24937 0.0
C548 C 0.36754 0.76288 0.28996 0.0
C549 C 0.35608 0.75326 0.3287 0.0
C550 C 0.34562 0.72647 0.32786 0.0
C551 C 0.34659 0.70958 0.28859 0.0
H552 H 0.13439 0.75817 0.28853 0.0
H553 H 0.11001 0.68656 0.2107 0.0
H554 H 0.13423 0.78719 0.22003 0.0
H555 H 0.11016 0.71567 0.14195 0.0
H556 H 0.09022 0.78272 0.03839 0.0
H557 H 0.08946 0.75625 0.10955 0.0
H558 H 0.15399 0.79206 0.14705 0.0
H559 H 0.15475 0.81882 0.076 0.0
C560 C 0.12909 0.74851 0.2568 0.0
C561 C 0.12214 0.71994 0.25532 0.0
C562 C 0.1291 0.76519 0.21744 0.0
C563 C 0.12206 0.75383 0.17554 0.0
C564 C 0.11534 0.72521 0.17385 0.0
C565 C 0.11544 0.70844 0.21322 0.0
C566 C 0.10412 0.78535 0.06204 0.0
C567 C 0.12257 0.80295 0.05125 0.0
C568 C 0.10377 0.7699 0.10268 0.0
C569 C 0.1218 0.77171 0.13372 0.0
C570 C 0.13977 0.79027 0.12397 0.0
C571 C 0.14017 0.80568 0.08322 0.0
H572 H 0.33867 0.2511 0.78748 0.0
H573 H 0.36195 0.32331 0.70981 0.0
H574 H 0.33929 0.2221 0.71934 0.0
H575 H 0.362 0.29416 0.64093 0.0
H576 H 0.38383 0.22705 0.53876 0.0
H577 H 0.3834 0.25474 0.60871 0.0
H578 H 0.32049 0.2151 0.64741 0.0
H579 H 0.32108 0.18698 0.5778 0.0
C580 C 0.34373 0.26095 0.75576 0.0
C581 C 0.3504 0.28962 0.75431 0.0
C582 C 0.34396 0.24424 0.71655 0.0
C583 C 0.35083 0.2557 0.6747 0.0
C584 C 0.35698 0.28454 0.67285 0.0
C585 C 0.35674 0.30135 0.71223 0.0
C586 C 0.37006 0.22388 0.56248 0.0
C587 C 0.35247 0.20475 0.55253 0.0
C588 C 0.36969 0.24004 0.60235 0.0
C589 C 0.35173 0.2375 0.63333 0.0
C590 C 0.33464 0.21751 0.62438 0.0
C591 C 0.33502 0.20128 0.58449 0.0
H592 H 0.8156 0.7984 0.05681 0.0
H593 H 0.88855 0.79831 0.0517 0.0
H594 H 0.8168 0.76871 0.12511 0.0
H595 H 0.88965 0.76929 0.12092 0.0
H596 H 0.87542 0.74898 0.2763 0.0
H597 H 0.875 0.77758 0.20706 0.0
H598 H 0.8332 0.71487 0.14097 0.0
H599 H 0.83411 0.68556 0.21043 0.0
C600 C 0.83189 0.79259 0.07084 0.0
C601 C 0.85202 0.8009 0.04913 0.0
C602 C 0.83253 0.77529 0.10951 0.0
C603 C 0.8533 0.76656 0.12783 0.0
C604 C 0.87343 0.77572 0.10724 0.0
C605 C 0.8728 0.79243 0.0679 0.0
C606 C 0.86623 0.74118 0.24692 0.0
C607 C 0.85473 0.71509 0.24869 0.0
C608 C 0.86608 0.75751 0.20735 0.0
C609 C 0.85401 0.74844 0.16895 0.0
C610 C 0.84254 0.72231 0.17039 0.0
C611 C 0.84316 0.70552 0.20984 0.0
H612 H 0.58538 0.20743 0.55629 0.0
H613 H 0.65791 0.2007 0.56946 0.0
H614 H 0.58418 0.23672 0.62521 0.0
H615 H 0.65666 0.2307 0.63739 0.0
H616 H 0.64186 0.31644 0.71806 0.0
H617 H 0.6425 0.28648 0.64926 0.0
H618 H 0.5967 0.22761 0.71345 0.0
H619 H 0.59655 0.25683 0.78212 0.0
C620 C 0.60099 0.21188 0.57424 0.0
C621 C 0.6217 0.20158 0.55772 0.0
C622 C 0.60031 0.22875 0.61337 0.0
C623 C 0.62037 0.2362 0.63595 0.0
C624 C 0.64102 0.22546 0.62013 0.0
C625 C 0.64165 0.20799 0.58169 0.0
C626 C 0.63185 0.29721 0.71712 0.0
C627 C 0.61924 0.28882 0.75524 0.0
C628 C 0.63232 0.28005 0.67811 0.0
C629 C 0.61969 0.25478 0.67643 0.0
C630 C 0.60653 0.247 0.71401 0.0
C631 C 0.60651 0.26367 0.75319 0.0
H632 H 0.88042 0.26167 0.73381 0.0
H633 H 0.8309 0.31787 0.79297 0.0
H634 H 0.87977 0.23237 0.80212 0.0
H635 H 0.82996 0.28794 0.86172 0.0
H636 H 0.81565 0.20366 0.94294 0.0
H637 H 0.8173 0.2346 0.8762 0.0
H638 H 0.88994 0.23793 0.88753 0.0
H639 H 0.88835 0.20742 0.95481 0.0
C640 C 0.8695 0.26784 0.76169 0.0
C641 C 0.85568 0.29199 0.75819 0.0
C642 C 0.86918 0.25109 0.80077 0.0
C643 C 0.85473 0.25781 0.83696 0.0
C644 C 0.84113 0.28225 0.83399 0.0
C645 C 0.8418 0.29945 0.79502 0.0
C646 C 0.83201 0.21056 0.93072 0.0
C647 C 0.85191 0.2029 0.95391 0.0
C648 C 0.83289 0.22862 0.89298 0.0
C649 C 0.85371 0.23887 0.87715 0.0
C650 C 0.87367 0.23035 0.89919 0.0
C651 C 0.87277 0.21277 0.93746 0.0
H652 H 0.65342 0.74104 0.23401 0.0
H653 H 0.59246 0.69778 0.27431 0.0
H654 H 0.65196 0.76975 0.30295 0.0
H655 H 0.58969 0.72786 0.34126 0.0
H656 H 0.60204 0.76493 0.48024 0.0
H657 H 0.60313 0.73709 0.41155 0.0
H658 H 0.63538 0.80675 0.34092 0.0
H659 H 0.63584 0.83394 0.41175 0.0
C660 C 0.63966 0.73779 0.25777 0.0
C661 C 0.62323 0.71697 0.24932 0.0
C662 C 0.63858 0.75454 0.29702 0.0
C663 C 0.62063 0.75147 0.3281 0.0
C664 C 0.60412 0.73059 0.31912 0.0
C665 C 0.60562 0.71328 0.2806 0.0
C666 C 0.60908 0.77458 0.44993 0.0
C667 C 0.61875 0.8018 0.45149 0.0
C668 C 0.60964 0.75851 0.41012 0.0
C669 C 0.61934 0.76941 0.37008 0.0
C670 C 0.62822 0.7972 0.37115 0.0
C671 C 0.62821 0.81305 0.41158 0.0
H672 H 0.65221 0.6821 0.92198 0.0
H673 H 0.5924 0.72728 0.96508 0.0
H674 H 0.65195 0.70823 0.85043 0.0
H675 H 0.59186 0.75289 0.89315 0.0
H676 H 0.61445 0.81881 0.78901 0.0
H677 H 0.61373 0.79002 0.85792 0.0
H678 H 0.63272 0.71625 0.77951 0.0
H679 H 0.63403 0.74505 0.71094 0.0
C680 C 0.63868 0.69708 0.9158 0.0
C681 C 0.62241 0.70268 0.94952 0.0
C682 C 0.63855 0.71214 0.87472 0.0
C683 C 0.62209 0.73303 0.86628 0.0
C684 C 0.60513 0.73748 0.89898 0.0
C685 C 0.6053 0.72254 0.94007 0.0
C686 C 0.6186 0.79649 0.78646 0.0
C687 C 0.62429 0.78434 0.74429 0.0
C688 C 0.61798 0.7799 0.82595 0.0
C689 C 0.62297 0.75071 0.82426 0.0
C690 C 0.62897 0.73867 0.78221 0.0
C691 C 0.62965 0.75525 0.74278 0.0
H692 H 0.86359 0.25646 0.48375 0.0
H693 H 0.84378 0.33351 0.41465 0.0
H694 H 0.86488 0.23167 0.41246 0.0
H695 H 0.84654 0.30873 0.34151 0.0
H696 H 0.82835 0.24736 0.22534 0.0
H697 H 0.82874 0.27522 0.29528 0.0
H698 H 0.88367 0.22357 0.34624 0.0
H699 H 0.88204 0.19472 0.27772 0.0
C700 C 0.86006 0.26845 0.45308 0.0
C701 C 0.85363 0.29717 0.45518 0.0
C702 C 0.86096 0.25409 0.41174 0.0
C703 C 0.85598 0.26803 0.37067 0.0
C704 C 0.85016 0.29706 0.37241 0.0
C705 C 0.84881 0.31142 0.41428 0.0
C706 C 0.84036 0.24191 0.25179 0.0
C707 C 0.85494 0.21861 0.24641 0.0
C708 C 0.8408 0.25811 0.29174 0.0
C709 C 0.85617 0.25177 0.32691 0.0
C710 C 0.87112 0.22878 0.32074 0.0
C711 C 0.87028 0.21219 0.28132 0.0
H712 H 0.60412 0.26286 0.03218 0.0
H713 H 0.63472 0.33639 0.09508 0.0
H714 H 0.60321 0.23909 0.10426 0.0
H715 H 0.63234 0.31291 0.16928 0.0
H716 H 0.65011 0.24857 0.28257 0.0
H717 H 0.64879 0.27702 0.21308 0.0
H718 H 0.58703 0.23433 0.17373 0.0
H719 H 0.58954 0.2047 0.24111 0.0
C720 C 0.61015 0.27439 0.06171 0.0
C721 C 0.61959 0.30166 0.05749 0.0
C722 C 0.60944 0.26067 0.10359 0.0
C723 C 0.61762 0.27392 0.14317 0.0
C724 C 0.62622 0.30174 0.13951 0.0
C725 C 0.62735 0.3154 0.09704 0.0
C726 C 0.6364 0.24524 0.25868 0.0
C727 C 0.62019 0.22407 0.26662 0.0
C728 C 0.63545 0.26178 0.21908 0.0
C729 C 0.61791 0.25796 0.18717 0.0
C730 C 0.60124 0.23741 0.19644 0.0
C731 C 0.60258 0.2204 0.23522 0.0
H732 H 0.88532 0.72795 0.53225 0.0
H733 H 0.82827 0.67981 0.58173 0.0
H734 H 0.88714 0.75345 0.6042 0.0
H735 H 0.82981 0.70579 0.65342 0.0
H736 H 0.84976 0.74335 0.79044 0.0
H737 H 0.85089 0.71466 0.72189 0.0
H738 H 0.86497 0.78952 0.642 0.0
H739 H 0.86442 0.81835 0.71103 0.0
C740 C 0.87333 0.72252 0.55869 0.0
C741 C 0.85656 0.70189 0.55104 0.0
C742 C 0.87424 0.73739 0.5998 0.0
C743 C 0.85837 0.73207 0.63431 0.0
C744 C 0.84237 0.71037 0.62766 0.0
C745 C 0.84151 0.69538 0.58653 0.0
C746 C 0.85307 0.75384 0.75832 0.0
C747 C 0.857 0.78329 0.75641 0.0
C748 C 0.85364 0.73729 0.7189 0.0
C749 C 0.85807 0.7497 0.6764 0.0
C750 C 0.86188 0.77917 0.67432 0.0
C751 C 0.86139 0.79577 0.71386 0.0
H752 H 0.36338 0.18648 0.21081 0.0
H753 H 0.34248 0.2593 0.28985 0.0
H754 H 0.36448 0.21614 0.14256 0.0
H755 H 0.3443 0.28877 0.22253 0.0
H756 H 0.32558 0.32527 0.08239 0.0
H757 H 0.32553 0.29762 0.15234 0.0
H758 H 0.38602 0.25418 0.10862 0.0
H759 H 0.38575 0.28134 0.03811 0.0
C760 C 0.359 0.20871 0.2137 0.0
C761 C 0.35282 0.22037 0.25594 0.0
C762 C 0.35985 0.22581 0.17468 0.0
C763 C 0.3546 0.25494 0.17707 0.0
C764 C 0.34819 0.26642 0.21921 0.0
C765 C 0.34725 0.2494 0.25798 0.0
C766 C 0.33917 0.31031 0.08811 0.0
C767 C 0.3556 0.30548 0.05448 0.0
C768 C 0.33911 0.29432 0.12823 0.0
C769 C 0.35558 0.27329 0.13584 0.0
C770 C 0.37275 0.26964 0.10336 0.0
C771 C 0.37275 0.28551 0.06317 0.0
H772 H 0.13535 0.74312 0.78925 0.0
H773 H 0.11142 0.81498 0.71148 0.0
H774 H 0.13439 0.71391 0.72097 0.0
H775 H 0.11083 0.78571 0.64296 0.0
H776 H 0.08991 0.7197 0.53931 0.0
H777 H 0.08961 0.74586 0.61077 0.0
H778 H 0.15346 0.70802 0.64791 0.0
H779 H 0.1537 0.68151 0.57663 0.0
C780 C 0.13001 0.75281 0.75757 0.0
C781 C 0.1234 0.7815 0.75606 0.0
C782 C 0.12954 0.736 0.71833 0.0
C783 C 0.1224 0.74737 0.67652 0.0
C784 C 0.11606 0.77614 0.6748 0.0
C785 C 0.11659 0.79301 0.71405 0.0
C786 C 0.10374 0.71654 0.56296 0.0
C787 C 0.12189 0.69851 0.55194 0.0
C788 C 0.10366 0.73181 0.60378 0.0
C789 C 0.12168 0.72942 0.63476 0.0
C790 C 0.13927 0.71031 0.62489 0.0
C791 C 0.13938 0.69504 0.58397 0.0
H792 H 0.323 0.6862 0.92261 0.0
H793 H 0.38458 0.72848 0.96341 0.0
H794 H 0.32328 0.7125 0.85108 0.0
H795 H 0.38504 0.7543 0.89174 0.0
H796 H 0.36329 0.82141 0.7889 0.0
H797 H 0.36335 0.79262 0.8579 0.0
H798 H 0.34278 0.71948 0.77952 0.0
H799 H 0.34217 0.74821 0.7109 0.0
C800 C 0.33689 0.70056 0.91591 0.0
C801 C 0.35368 0.70534 0.94894 0.0
C802 C 0.33701 0.71573 0.87492 0.0
C803 C 0.35398 0.73589 0.86603 0.0
C804 C 0.37141 0.73948 0.89801 0.0
C805 C 0.37126 0.72442 0.93893 0.0
C806 C 0.35864 0.79925 0.78639 0.0
C807 C 0.35279 0.78721 0.74421 0.0
C808 C 0.35887 0.78266 0.8259 0.0
C809 C 0.35327 0.75365 0.82417 0.0
C810 C 0.34702 0.74176 0.78217 0.0
C811 C 0.34677 0.75831 0.74273 0.0
H812 H 0.08696 0.29736 0.44481 0.0
H813 H 0.1599 0.29589 0.44056 0.0
H814 H 0.08571 0.27042 0.37318 0.0
H815 H 0.1585 0.26819 0.37013 0.0
H816 H 0.13573 0.18432 0.28492 0.0
H817 H 0.13662 0.21274 0.35519 0.0
H818 H 0.10593 0.28281 0.28393 0.0
H819 H 0.10567 0.255 0.21354 0.0
C820 C 0.10266 0.29156 0.42837 0.0
C821 C 0.12351 0.29903 0.448 0.0
C822 C 0.10194 0.27608 0.38765 0.0
C823 C 0.12202 0.26713 0.36666 0.0
C824 C 0.14282 0.27478 0.38594 0.0
C825 C 0.14357 0.29088 0.42591 0.0
C826 C 0.12917 0.20576 0.28435 0.0
C827 C 0.12075 0.2175 0.24375 0.0
C828 C 0.12974 0.22199 0.32437 0.0
C829 C 0.12131 0.24985 0.32465 0.0
C830 C 0.11247 0.26135 0.28441 0.0
C831 C 0.11244 0.24546 0.24423 0.0
H832 H 0.04474 0.1235 0.11857 0.0
H833 H 0.04469 0.21512 0.123 0.0
H834 H 0.0036 0.12353 0.11729 0.0
H835 H 0.00366 0.21517 0.12373 0.0
H836 H 0.9304 0.20749 0.08097 0.0
H837 H 0.97151 0.20672 0.07818 0.0
H838 H 0.97206 0.13231 0.16429 0.0
H839 H 0.93102 0.13241 0.16538 0.0
C840 C 0.03593 0.14363 0.11964 0.0
C841 C 0.04796 0.1693 0.12081 0.0
C842 C 0.01234 0.14367 0.11915 0.0
C843 C 0.00026 0.16936 0.12047 0.0
C844 C 0.01236 0.19501 0.1218 0.0
C845 C 0.03592 0.19498 0.12166 0.0
C846 C 0.93933 0.19098 0.09926 0.0
C847 C 0.92747 0.17001 0.12334 0.0
C848 C 0.96291 0.19059 0.09786 0.0
C849 C 0.97516 0.16946 0.12105 0.0
C850 C 0.96322 0.14858 0.1453 0.0
C851 C 0.93967 0.14875 0.14618 0.0
H852 H 0.43071 0.79253 0.58055 0.0
H853 H 0.43245 0.86647 0.66764 0.0
H854 H 0.47202 0.79144 0.5802 0.0
H855 H 0.47332 0.8648 0.66851 0.0
H856 H 0.54616 0.78383 0.62851 0.0
H857 H 0.50491 0.78278 0.62765 0.0
H858 H 0.50365 0.87424 0.61781 0.0
H859 H 0.54458 0.87536 0.62023 0.0
C860 C 0.43988 0.80838 0.59986 0.0
C861 C 0.42832 0.82977 0.62368 0.0
C862 C 0.46352 0.80768 0.59984 0.0
C863 C 0.47595 0.82822 0.62394 0.0
C864 C 0.46429 0.84909 0.64865 0.0
C865 C 0.44081 0.84996 0.6483 0.0
C866 C 0.53702 0.80368 0.62619 0.0
C867 C 0.54862 0.82969 0.62494 0.0
C868 C 0.51341 0.80306 0.62543 0.0
C869 C 0.50099 0.82843 0.62306 0.0
C870 C 0.51267 0.85434 0.62075 0.0
C871 C 0.53618 0.85498 0.62197 0.0
H872 H 0.93263 0.87746 0.88456 0.0
H873 H 0.93181 0.78587 0.87761 0.0
H874 H 0.97371 0.87685 0.88558 0.0
H875 H 0.97291 0.7853 0.87686 0.0
H876 H 0.04653 0.7932 0.91974 0.0
H877 H 0.00542 0.79376 0.92295 0.0
H878 H 0.0044 0.86759 0.83561 0.0
H879 H 0.04542 0.86765 0.83382 0.0
C880 C 0.94124 0.8572 0.88298 0.0
C881 C 0.929 0.83172 0.88091 0.0
C882 C 0.96478 0.85685 0.88332 0.0
C883 C 0.9766 0.83103 0.88102 0.0
C884 C 0.96434 0.80553 0.87932 0.0
C885 C 0.94078 0.80586 0.87952 0.0
C886 C 0.03751 0.80952 0.90122 0.0
C887 C 0.04921 0.83042 0.87663 0.0
C888 C 0.01395 0.80978 0.9029 0.0
C889 C 0.00162 0.83076 0.87962 0.0
C890 C 0.01337 0.85147 0.85469 0.0
C891 C 0.0369 0.8514 0.85342 0.0
H892 H 0.43095 0.13242 0.39169 0.0
H893 H 0.42965 0.22361 0.37708 0.0
H894 H 0.47187 0.13335 0.39458 0.0
H895 H 0.47095 0.22448 0.37819 0.0
H896 H 0.54528 0.21602 0.42333 0.0
H897 H 0.50404 0.21719 0.42469 0.0
H898 H 0.50215 0.14072 0.34347 0.0
H899 H 0.54307 0.13898 0.34356 0.0
C900 C 0.43945 0.15269 0.38874 0.0
C901 C 0.4271 0.17792 0.3837 0.0
C902 C 0.46294 0.15321 0.39017 0.0
C903 C 0.47472 0.17894 0.3859 0.0
C904 C 0.46238 0.20432 0.38189 0.0
C905 C 0.43875 0.20383 0.38105 0.0
C906 C 0.536 0.19949 0.4058 0.0
C907 C 0.54742 0.17726 0.38371 0.0
C908 C 0.51239 0.20024 0.40639 0.0
C909 C 0.49978 0.17891 0.38456 0.0
C910 C 0.51129 0.1571 0.36163 0.0
C911 C 0.5348 0.15618 0.36147 0.0
H912 H 0.5441 0.64253 0.16664 0.0
H913 H 0.54796 0.71491 0.0766 0.0
H914 H 0.50327 0.64411 0.16314 0.0
H915 H 0.50671 0.7159 0.07181 0.0
H916 H 0.43161 0.72457 0.11595 0.0
H917 H 0.47287 0.72548 0.11538 0.0
H918 H 0.47393 0.63384 0.11061 0.0
H919 H 0.43295 0.63294 0.11294 0.0
C920 C 0.53622 0.65867 0.14573 0.0
C921 C 0.54928 0.67847 0.12162 0.0
C922 C 0.51276 0.65947 0.14349 0.0
C923 C 0.50171 0.67985 0.11662 0.0
C924 C 0.51472 0.70002 0.09301 0.0
C925 C 0.53832 0.6994 0.09564 0.0
C926 C 0.44071 0.70467 0.11452 0.0
C927 C 0.42909 0.67868 0.11516 0.0
C928 C 0.46433 0.70519 0.11399 0.0
C929 C 0.47669 0.67973 0.1136 0.0
C930 C 0.46495 0.65383 0.11219 0.0
C931 C 0.44144 0.6533 0.11332 0.0
H932 H 0.93025 0.36635 0.67299 0.0
H933 H 0.92854 0.30019 0.57102 0.0
H934 H 0.97122 0.36689 0.66955 0.0
H935 H 0.96961 0.30145 0.56643 0.0
H936 H 0.04287 0.28804 0.61045 0.0
H937 H 0.00186 0.28847 0.61031 0.0
H938 H 0.00243 0.37983 0.62278 0.0
H939 H 0.04358 0.37933 0.62453 0.0
C940 C 0.9386 0.3521 0.64946 0.0
C941 C 0.9261 0.33313 0.62241 0.0
C942 C 0.96213 0.35256 0.64727 0.0
C943 C 0.97374 0.33424 0.61768 0.0
C944 C 0.96122 0.31553 0.59014 0.0
C945 C 0.93767 0.31488 0.59263 0.0
C946 C 0.03428 0.30826 0.613 0.0
C947 C 0.04652 0.33366 0.61769 0.0
C948 C 0.01072 0.30851 0.61263 0.0
C949 C -0.00118 0.33418 0.61651 0.0
C950 C 0.01106 0.35964 0.62047 0.0
C951 C 0.03466 0.35937 0.62127 0.0
H952 H 0.54467 0.28355 0.893 0.0
H953 H 0.54407 0.37501 0.88378 0.0
H954 H 0.50342 0.28315 0.89181 0.0
H955 H 0.50308 0.37474 0.88442 0.0
H956 H 0.42861 0.2956 0.92825 0.0
H957 H 0.46977 0.29475 0.93294 0.0
H958 H 0.4732 0.36289 0.83467 0.0
H959 H 0.43227 0.36444 0.83134 0.0
C960 C 0.53572 0.30357 0.89137 0.0
C961 C 0.5476 0.32928 0.88798 0.0
C962 C 0.51209 0.30336 0.89086 0.0
C963 C 0.4999 0.3289 0.88747 0.0
C964 C 0.51188 0.35463 0.8858 0.0
C965 C 0.53542 0.3548 0.88571 0.0
C966 C 0.4382 0.31036 0.90763 0.0
C967 C 0.42717 0.33022 0.87966 0.0
C968 C 0.46179 0.30979 0.91018 0.0
C969 C 0.47483 0.32891 0.88449 0.0
C970 C 0.46372 0.34833 0.85582 0.0
C971 C 0.44021 0.3491 0.85367 0.0
H972 H 0.04385 0.63578 0.3302 0.0
H973 H 0.04532 0.70593 0.42492 0.0
H974 H 0.0028 0.63656 0.3311 0.0
H975 H 0.00422 0.70595 0.42743 0.0
H976 H 0.93077 0.71777 0.38373 0.0
H977 H 0.97191 0.71741 0.38391 0.0
H978 H 0.97132 0.62579 0.37673 0.0
H979 H 0.93028 0.6263 0.37453 0.0
C980 C 0.0354 0.65118 0.35162 0.0
C981 C 0.04784 0.67083 0.37741 0.0
C982 C 0.01183 0.65153 0.35237 0.0
C983 C 0.00012 0.67127 0.37946 0.0
C984 C 0.01262 0.69077 0.40557 0.0
C985 C 0.03621 0.69066 0.40433 0.0
C986 C 0.93946 0.69757 0.38232 0.0
C987 C 0.92729 0.67209 0.37884 0.0
C988 C 0.96306 0.69733 0.38266 0.0
C989 C 0.975 0.67157 0.38016 0.0
C990 C 0.96274 0.64607 0.37768 0.0
C991 C 0.93918 0.64634 0.37669 0.0
H992 H 0.13064 0.08163 0.97764 0.0
H993 H 0.10068 0.05246 0.10346 0.0
H994 H 0.12483 0.03532 0.94402 0.0
H995 H 0.09423 0.00602 0.06899 0.0
H996 H 0.12353 0.92066 0.01674 0.0
H997 H 0.11854 0.96754 0.04867 0.0
H998 H 0.09952 0.99952 0.91614 0.0
H999 H 0.10522 0.95234 0.88354 0.0
C1000 C 0.12245 0.06549 0.99801 0.0
C1001 C 0.11649 0.07075 0.04366 0.0
C1002 C 0.11889 0.0389 0.97842 0.0
C1003 C 0.10918 0.0168 0.0038 0.0
C1004 C 0.10209 0.02244 0.04868 0.0
C1005 C 0.10571 0.04911 0.06841 0.0
C1006 C 0.11803 0.93754 0.99429 0.0
C1007 C 0.11517 0.93275 0.9473 0.0
C1008 C 0.11493 0.96448 0.01283 0.0
C1009 C 0.10879 0.98745 0.985 0.0
C1010 C 0.10461 0.98238 0.93844 0.0
C1011 C 0.10775 0.9553 0.91977 0.0
H1012 H 0.38021 0.95378 0.61106 0.0
H1013 H 0.35668 0.92408 0.48 0.0
H1014 H 0.38776 1.00035 0.57786 0.0
H1015 H 0.3633 0.97042 0.44766 0.0
H1016 H 0.37967 0.0543 0.3908 0.0
H1017 H 0.38729 0.00774 0.4239 0.0
H1018 H 0.3638 0.03788 0.55459 0.0
H1019 H 0.3571 0.08423 0.52231 0.0
C1020 C 0.37691 0.95702 0.57514 0.0
C1021 C 0.36741 0.93529 0.54852 0.0
C1022 C 0.38112 0.98376 0.55612 0.0
C1023 C 0.37585 0.98935 0.51015 0.0
C1024 C 0.3678 0.967 0.48299 0.0
C1025 C 0.36372 0.94036 0.50184 0.0
C1026 C 0.37659 0.05111 0.42679 0.0
C1027 C 0.36734 0.0729 0.45357 0.0
C1028 C 0.38085 0.02437 0.44576 0.0
C1029 C 0.37586 0.01884 0.49185 0.0
C1030 C 0.36807 0.04125 0.51915 0.0
C1031 C 0.36395 0.0679 0.50034 0.0
H1032 H 0.87265 0.05082 0.11207 0.0
H1033 H 0.8482 0.08203 0.98262 0.0
H1034 H 0.87895 0.00425 0.07781 0.0
H1035 H 0.85381 0.03567 0.94913 0.0
H1036 H 0.87358 0.95234 0.89014 0.0
H1037 H 0.87914 0.99904 0.92453 0.0
H1038 H 0.8543 0.96698 0.05292 0.0
H1039 H 0.84942 0.92052 0.01931 0.0
C1040 C 0.86882 0.04789 0.0763 0.0
C1041 C 0.8596 0.07013 0.05039 0.0
C1042 C 0.87233 0.02116 0.05669 0.0
C1043 C 0.86671 0.0161 0.01075 0.0
C1044 C 0.8586 0.03877 0.98439 0.0
C1045 C 0.85513 0.06539 0.00388 0.0
C1046 C 0.86968 0.95517 0.92589 0.0
C1047 C 0.86072 0.93272 0.95167 0.0
C1048 C 0.87276 0.98197 0.94557 0.0
C1049 C 0.86697 0.98688 0.99143 0.0
C1050 C 0.85919 0.96401 0.0177 0.0
C1051 C 0.85614 0.93732 0.99814 0.0
H1052 H 0.61973 0.04781 0.39043 0.0
H1053 H 0.60132 0.0878 0.51718 0.0
H1054 H 0.61499 1.00139 0.42516 0.0
H1055 H 0.59489 0.04148 0.55146 0.0
H1056 H 0.62033 0.95846 0.61525 0.0
H1057 H 0.6158 0.00492 0.58065 0.0
H1058 H 0.59393 0.96518 0.45516 0.0
H1059 H 0.60013 0.91875 0.48928 0.0
C1060 C 0.61394 0.04658 0.42537 0.0
C1061 C 0.6111 0.0713 0.45127 0.0
C1062 C 0.61108 0.01992 0.44542 0.0
C1063 C 0.60479 0.01739 0.4916 0.0
C1064 C 0.60041 0.04237 0.51636 0.0
C1065 C 0.60385 0.06897 0.49662 0.0
C1066 C 0.61418 0.95977 0.58055 0.0
C1067 C 0.61079 0.93509 0.5548 0.0
C1068 C 0.61145 0.98647 0.56056 0.0
C1069 C 0.60473 0.9891 0.51462 0.0
C1070 C 0.59979 0.9642 0.49006 0.0
C1071 C 0.6031 0.93753 0.50972 0.0
H1072 H 0.61862 0.58262 0.98076 0.0
H1073 H 0.59608 0.55349 0.11274 0.0
H1074 H 0.61158 0.5361 0.94904 0.0
H1075 H 0.58827 0.50679 0.0803 0.0
H1076 H 0.62014 0.42335 0.02468 0.0
H1077 H 0.61322 0.46979 0.05663 0.0
H1078 H 0.5868 0.4983 0.9272 0.0
H1079 H 0.59447 0.4516 0.89446 0.0
C1080 C 0.61171 0.56644 0.00292 0.0
C1081 C 0.60843 0.57167 0.04964 0.0
C1082 C 0.6074 0.53973 0.98446 0.0
C1083 C 0.59959 0.51753 0.01216 0.0
C1084 C 0.59468 0.52331 0.05818 0.0
C1085 C 0.59907 0.55011 0.07676 0.0
C1086 C 0.61258 0.43933 0.00299 0.0
C1087 C 0.60834 0.43388 0.95663 0.0
C1088 C 0.60834 0.46599 0.02159 0.0
C1089 C 0.59965 0.48795 0.99444 0.0
C1090 C 0.59387 0.48196 0.94887 0.0
C1091 C 0.59816 0.45517 0.93014 0.0
H1092 H 0.85526 0.58217 0.51973 0.0
H1093 H 0.87581 0.5504 0.38802 0.0
H1094 H 0.86117 0.53574 0.55274 0.0
H1095 H 0.88241 0.50369 0.42171 0.0
H1096 H 0.87822 0.45146 0.60967 0.0
H1097 H 0.88571 0.49759 0.57481 0.0
H1098 H 0.85681 0.46779 0.44833 0.0
H1099 H 0.84999 0.42186 0.48238 0.0
C1100 C 0.86148 0.56539 0.49788 0.0
C1101 C 0.86461 0.56993 0.45093 0.0
C1102 C 0.86513 0.53872 0.51706 0.0
C1103 C 0.87207 0.51583 0.48988 0.0
C1104 C 0.87669 0.52078 0.44348 0.0
C1105 C 0.87303 0.54759 0.4242 0.0
C1106 C 0.87389 0.45461 0.57419 0.0
C1107 C 0.86314 0.43307 0.54915 0.0
C1108 C 0.87808 0.48109 0.55424 0.0
C1109 C 0.87165 0.48654 0.50885 0.0
C1110 C 0.86222 0.46438 0.48315 0.0
C1111 C 0.85805 0.43802 0.50298 0.0
H1112 H 0.36006 0.42509 0.0212 0.0
H1113 H 0.37839 0.45589 0.88761 0.0
H1114 H 0.36654 0.47167 0.05298 0.0
H1115 H 0.38575 0.50275 0.92007 0.0
H1116 H 0.38259 0.55647 0.10782 0.0
H1117 H 0.39026 0.51018 0.07368 0.0
H1118 H 0.36126 0.53906 0.94673 0.0
H1119 H 0.35443 0.58514 0.97994 0.0
C1120 C 0.36595 0.44169 0.99864 0.0
C1121 C 0.3682 0.43683 0.95155 0.0
C1122 C 0.36994 0.46847 0.01712 0.0
C1123 C 0.37642 0.49119 0.98911 0.0
C1124 C 0.38034 0.48586 0.94252 0.0
C1125 C 0.37627 0.45895 0.92392 0.0
C1126 C 0.37828 0.55307 0.07238 0.0
C1127 C 0.3675 0.57443 0.047 0.0
C1128 C 0.38257 0.52649 0.05282 0.0
C1129 C 0.37613 0.52067 0.00753 0.0
C1130 C 0.3667 0.54268 0.98147 0.0
C1131 C 0.36251 0.56916 1.00086 0.0
H1132 H 0.12223 0.5811 0.51624 0.0
H1133 H 0.10562 0.54886 0.3825 0.0
H1134 H 0.1176 0.53414 0.54814 0.0
H1135 H 0.10032 0.50156 0.415 0.0
H1136 H 0.0996 0.44896 0.60228 0.0
H1137 H 0.09325 0.49527 0.56733 0.0
H1138 H 0.12597 0.46631 0.44435 0.0
H1139 H 0.13174 0.4201 0.47847 0.0
C1140 C 0.11719 0.56407 0.49366 0.0
C1141 C 0.11467 0.56874 0.44657 0.0
C1142 C 0.11429 0.53707 0.51216 0.0
C1143 C 0.10874 0.51394 0.48416 0.0
C1144 C 0.10494 0.51886 0.43744 0.0
C1145 C 0.10783 0.546 0.41883 0.0
C1146 C 0.10515 0.45235 0.56757 0.0
C1147 C 0.11647 0.43084 0.54353 0.0
C1148 C 0.10158 0.47895 0.54756 0.0
C1149 C 0.10926 0.48464 0.50311 0.0
C1150 C 0.11958 0.46267 0.4784 0.0
C1151 C 0.1231 0.43615 0.49828 0.0
H1152 H 0.16667 0.24991 0.0062 0.0
H1153 H 0.21437 0.21184 0.09923 0.0
H1154 H 0.19764 0.26843 0.96084 0.0
H1155 H 0.24553 0.23173 0.05547 0.0
H1156 H 0.29779 0.24539 0.95067 0.0
H1157 H 0.26425 0.22428 0.98509 0.0
H1158 H 0.22684 0.3013 0.95807 0.0
H1159 H 0.25964 0.32143 0.92146 0.0
C1160 C 0.18382 0.24655 0.01796 0.0
C1161 C 0.18822 0.22974 0.05637 0.0
C1162 C 0.2016 0.2569 0.99173 0.0
C1163 C 0.22411 0.2511 0.004 0.0
C1164 C 0.22841 0.23579 0.04419 0.0
C1165 C 0.21063 0.22495 0.06987 0.0
C1166 C 0.28215 0.25731 0.95065 0.0
C1167 C 0.28144 0.28522 0.93426 0.0
C1168 C 0.26305 0.24548 0.97112 0.0
C1169 C 0.24308 0.26148 0.9757 0.0
C1170 C 0.24189 0.28836 0.95537 0.0
C1171 C 0.26079 0.29997 0.93449 0.0
H1172 H 0.29943 0.74586 0.54786 0.0
H1173 H 0.26016 0.82147 0.57435 0.0
H1174 H 0.26662 0.72435 0.51124 0.0
H1175 H 0.22834 0.80108 0.53525 0.0
H1176 H 0.16836 0.74882 0.4912 0.0
H1177 H 0.19958 0.7686 0.53425 0.0
H1178 H 0.24687 0.72844 0.44215 0.0
H1179 H 0.21535 0.70708 0.40101 0.0
C1180 C 0.28378 0.75773 0.54643 0.0
C1181 C 0.28255 0.78548 0.56354 0.0
C1182 C 0.26508 0.74564 0.52472 0.0
C1183 C 0.24495 0.76123 0.51927 0.0
C1184 C 0.24342 0.78829 0.53891 0.0
C1185 C 0.26185 0.80009 0.56125 0.0
C1186 C 0.18543 0.74487 0.47949 0.0
C1187 C 0.18953 0.72672 0.44259 0.0
C1188 C 0.20339 0.75605 0.50435 0.0
C1189 C 0.22584 0.74987 0.49209 0.0
C1190 C 0.22984 0.73298 0.45342 0.0
C1191 C 0.21184 0.72122 0.42924 0.0
H1192 H 0.21675 0.79408 0.90609 0.0
H1193 H 0.16828 0.75982 1.00108 0.0
H1194 H 0.24754 0.77706 0.95401 0.0
H1195 H 0.19883 0.74431 0.05047 0.0
H1196 H 0.26072 0.69183 0.09477 0.0
H1197 H 0.2278 0.71165 0.05808 0.0
H1198 H 0.26597 0.78691 0.02371 0.0
H1199 H 0.29958 0.766 0.05819 0.0
C1200 C 0.21278 0.78246 0.9369 0.0
C1201 C 0.19027 0.77772 0.94953 0.0
C1202 C 0.23033 0.77331 0.96492 0.0
C1203 C 0.22568 0.75984 0.00664 0.0
C1204 C 0.20308 0.75438 0.01846 0.0
C1205 C 0.18555 0.76298 0.98993 0.0
C1206 C 0.26199 0.71291 0.08028 0.0
C1207 C 0.28288 0.72703 0.07809 0.0
C1208 C 0.24302 0.72437 0.05931 0.0
C1209 C 0.24443 0.75047 0.03654 0.0
C1210 C 0.2646 0.76622 0.03946 0.0
C1211 C 0.28376 0.75452 0.05998 0.0
H1212 H 0.29723 0.26037 0.45662 0.0
H1213 H 0.25898 0.18683 0.41403 0.0
H1214 H 0.2636 0.27933 0.4936 0.0
H1215 H 0.22616 0.20454 0.45343 0.0
H1216 H 0.16577 0.25333 0.50706 0.0
H1217 H 0.19705 0.23652 0.46108 0.0
H1218 H 0.24419 0.26872 0.56141 0.0
H1219 H 0.21267 0.28728 0.60569 0.0
C1220 C 0.28157 0.24856 0.45433 0.0
C1221 C 0.28087 0.22188 0.43326 0.0
C1222 C 0.26241 0.2591 0.4763 0.0
C1223 C 0.24239 0.24297 0.47789 0.0
C1224 C 0.24123 0.21755 0.45317 0.0
C1225 C 0.26017 0.20731 0.43063 0.0
C1226 C 0.18282 0.256 0.51991 0.0
C1227 C 0.18692 0.27136 0.55998 0.0
C1228 C 0.20079 0.24661 0.49334 0.0
C1229 C 0.2232 0.25178 0.50701 0.0
C1230 C 0.22717 0.26526 0.54903 0.0
C1231 C 0.20918 0.27528 0.575 0.0
H1232 H 0.76086 0.79553 0.90289 0.0
H1233 H 0.80947 0.75565 0.99211 0.0
H1234 H 0.73017 0.77651 0.94896 0.0
H1235 H 0.77908 0.73825 0.03981 0.0
H1236 H 0.71756 0.6856 0.08184 0.0
H1237 H 0.74987 0.70585 0.04392 0.0
H1238 H 0.71237 0.78323 0.02023 0.0
H1239 H 0.67923 0.762 0.05585 0.0
C1240 C 0.76491 0.78236 0.93202 0.0
C1241 C 0.78744 0.77674 0.94366 0.0
C1242 C 0.7474 0.77198 0.959 0.0
C1243 C 0.75215 0.75633 0.99867 0.0
C1244 C 0.77475 0.74998 0.00933 0.0
C1245 C 0.7922 0.75978 0.98176 0.0
C1246 C 0.71626 0.70715 0.06925 0.0
C1247 C 0.69565 0.72194 0.07069 0.0
C1248 C 0.73491 0.71885 0.04763 0.0
C1249 C 0.73354 0.74588 0.02784 0.0
C1250 C 0.71368 0.76192 0.03371 0.0
C1251 C 0.69482 0.74999 0.05485 0.0
H1252 H 0.79911 0.23632 0.57105 0.0
H1253 H 0.76028 0.31186 0.5988 0.0
H1254 H 0.76539 0.21371 0.53937 0.0
H1255 H 0.72727 0.29041 0.56499 0.0
H1256 H 0.66783 0.24329 0.50951 0.0
H1257 H 0.69814 0.2584 0.55968 0.0
H1258 H 0.747 0.22001 0.46901 0.0
H1259 H 0.71633 0.20316 0.42066 0.0
C1260 C 0.78321 0.24769 0.57175 0.0
C1261 C 0.7823 0.27593 0.58648 0.0
C1262 C 0.76401 0.23504 0.55276 0.0
C1263 C 0.7438 0.2506 0.54806 0.0
C1264 C 0.74243 0.27769 0.56775 0.0
C1265 C 0.76144 0.2901 0.58711 0.0
C1266 C 0.6851 0.23856 0.49992 0.0
C1267 C 0.68982 0.22241 0.46092 0.0
C1268 C 0.7025 0.24702 0.52888 0.0
C1269 C 0.72509 0.24019 0.51879 0.0
C1270 C 0.7298 0.22493 0.47869 0.0
C1271 C 0.71231 0.21584 0.45036 0.0
H1272 H 0.6768 0.23953 0.94635 0.0
H1273 H 0.71476 0.31588 0.91905 0.0
H1274 H 0.71049 0.21803 0.97996 0.0
H1275 H 0.74775 0.29538 0.95469 0.0
H1276 H 0.80783 0.24643 0.00724 0.0
H1277 H 0.77721 0.2631 0.95902 0.0
H1278 H 0.72869 0.22525 0.0509 0.0
H1279 H 0.75954 0.20714 0.09752 0.0
C1280 C 0.69248 0.25136 0.94632 0.0
C1281 C 0.69311 0.27949 0.93093 0.0
C1282 C 0.71166 0.23933 0.96638 0.0
C1283 C 0.73162 0.25535 0.97147 0.0
C1284 C 0.73275 0.28238 0.95162 0.0
C1285 C 0.71376 0.29421 0.93124 0.0
C1286 C 0.79059 0.24226 0.01765 0.0
C1287 C 0.78599 0.22574 0.0563 0.0
C1288 C 0.77301 0.2516 0.98978 0.0
C1289 C 0.75044 0.24513 1.00058 0.0
C1290 C 0.74587 0.22985 0.04068 0.0
C1291 C 0.76348 0.22001 0.068 0.0
H1292 H 0.76068 0.69118 0.41214 0.0
H1293 H 0.80017 0.7661 0.44115 0.0
H1294 H 0.72797 0.71273 0.44664 0.0
H1295 H 0.76668 0.78884 0.47332 0.0
H1296 H 0.71628 0.80191 0.58827 0.0
H1297 H 0.74737 0.78348 0.54263 0.0
H1298 H 0.69918 0.74522 0.45014 0.0
H1299 H 0.66839 0.76206 0.49764 0.0
C1300 C 0.76211 0.71277 0.42451 0.0
C1301 C 0.78309 0.72673 0.42502 0.0
C1302 C 0.74324 0.72525 0.44418 0.0
C1303 C 0.74477 0.75228 0.46402 0.0
C1304 C 0.76515 0.76756 0.45979 0.0
C1305 C 0.78423 0.75482 0.44056 0.0
C1306 C 0.71251 0.78886 0.55883 0.0
C1307 C 0.69008 0.78278 0.54697 0.0
C1308 C 0.73024 0.77885 0.53204 0.0
C1309 C 0.72585 0.76319 0.49218 0.0
C1310 C 0.7033 0.75683 0.48086 0.0
C1311 C 0.68561 0.76625 0.50828 0.0
loop_
_geom_bond_atom_site_label_1
_geom_bond_atom_site_label_2
_geom_bond_distance
_geom_bond_site_symmetry_2
_ccdc_geom_bond_type
Sc0 O3 2.025 . S
Sc0 O10 2.105 . S
Sc0 O13 2.105 . S
Sc0 O16 2.105 . S
Sc0 O19 2.105 1_554 S
Sc1 O3 2.025 . S
Sc1 O11 2.105 1_554 S
Sc1 O15 2.105 . S
Sc1 O17 2.105 . S
Sc1 O21 2.105 . S
Sc2 O3 2.025 . S
Sc2 O12 2.105 . S
Sc2 O14 2.105 . S
Sc2 O18 2.105 . S
Sc2 O20 2.105 . S
O3 Sc0 2.025 . S
O3 Sc1 2.025 . S
O3 Sc2 2.025 . S
C4 O10 1.268 . S
C4 O20 1.268 . S
C5 O11 1.268 . S
C5 O19 1.268 . S
C6 O12 1.268 . S
C6 O21 1.268 . S
C7 O13 1.268 . S
C7 O17 1.268 . S
C8 O14 1.268 . S
C8 O16 1.268 . S
C9 O15 1.268 . S
C9 O18 1.268 . S
O10 Sc0 2.105 . S
O10 C4 1.268 . S
O11 Sc1 2.105 1_556 S
O11 C5 1.268 . S
O12 Sc2 2.105 . S
O12 C6 1.268 . S
O13 Sc0 2.105 . S
O13 C7 1.268 . S
O14 Sc2 2.105 . S
O14 C8 1.268 . S
O15 Sc1 2.105 . S
O15 C9 1.268 . S
O16 Sc0 2.105 . S
O16 C8 1.268 . S
O17 Sc1 2.105 . S
O17 C7 1.268 . S
O18 Sc2 2.105 . S
O18 C9 1.268 . S
O19 Sc0 2.105 1_556 S
O19 C5 1.268 . S
O20 Sc2 2.105 . S
O20 C4 1.268 . S
O21 Sc1 2.105 . S
O21 C6 1.268 . S
Sc22 O25 2.025 . S
Sc22 O32 2.105 . S
Sc22 O35 2.105 . S
Sc22 O38 2.105 . S
Sc22 O41 2.105 . S
Sc23 O25 2.025 . S
Sc23 O33 2.105 . S
Sc23 O37 2.105 . S
Sc23 O39 2.105 . S
Sc23 O43 2.105 . S
Sc24 O25 2.025 . S
Sc24 O34 2.105 . S
Sc24 O36 2.105 . S
Sc24 O40 2.105 . S
Sc24 O42 2.105 . S
O25 Sc22 2.025 . S
O25 Sc23 2.025 . S
O25 Sc24 2.025 . S
C26 O32 1.268 . S
C26 O42 1.268 . S
C27 O33 1.268 . S
C27 O41 1.268 . S
C28 O34 1.268 . S
C28 O43 1.268 . S
C29 O35 1.268 . S
C29 O39 1.268 . S
C30 O36 1.268 . S
C30 O38 1.268 . S
C31 O37 1.268 . S
C31 O40 1.268 . S
O32 Sc22 2.105 . S
O32 C26 1.268 . S
O33 Sc23 2.105 . S
O33 C27 1.268 . S
O34 Sc24 2.105 . S
O34 C28 1.268 . S
O35 Sc22 2.105 . S
O35 C29 1.268 . S
O36 Sc24 2.105 . S
O36 C30 1.268 . S
O37 Sc23 2.105 . S
O37 C31 1.268 . S
O38 Sc22 2.105 . S
O38 C30 1.268 . S
O39 Sc23 2.105 . S
O39 C29 1.268 . S
O40 Sc24 2.105 . S
O40 C31 1.268 . S
O41 Sc22 2.105 . S
O41 C27 1.268 . S
O42 Sc24 2.105 . S
O42 C26 1.268 . S
O43 Sc23 2.105 . S
O43 C28 1.268 . S
Sc44 O47 2.025 . S
Sc44 O54 2.105 . S
Sc44 O57 2.105 . S
Sc44 O60 2.105 . S
Sc44 O63 2.105 1_556 S
Sc45 O47 2.025 . S
Sc45 O55 2.105 1_556 S
Sc45 O59 2.105 . S
Sc45 O61 2.105 . S
Sc45 O65 2.105 . S
Sc46 O47 2.025 . S
Sc46 O56 2.105 . S
Sc46 O58 2.105 . S
Sc46 O62 2.105 . S
Sc46 O64 2.105 . S
O47 Sc44 2.025 . S
O47 Sc45 2.025 . S
O47 Sc46 2.025 . S
C48 O54 1.268 . S
C48 O64 1.268 . S
C49 O55 1.268 . S
C49 O63 1.268 . S
C50 O56 1.268 . S
C50 O65 1.268 . S
C51 O57 1.268 . S
C51 O61 1.268 . S
C52 O58 1.268 . S
C52 O60 1.268 . S
C53 O59 1.268 . S
C53 O62 1.268 . S
O54 Sc44 2.105 . S
O54 C48 1.268 . S
O55 Sc45 2.105 1_554 S
O55 C49 1.268 . S
O56 Sc46 2.105 . S
O56 C50 1.268 . S
O57 Sc44 2.105 . S
O57 C51 1.268 . S
O58 Sc46 2.105 . S
O58 C52 1.268 . S
O59 Sc45 2.105 . S
O59 C53 1.268 . S
O60 Sc44 2.105 . S
O60 C52 1.268 . S
O61 Sc45 2.105 . S
O61 C51 1.268 . S
O62 Sc46 2.105 . S
O62 C53 1.268 . S
O63 Sc44 2.105 1_554 S
O63 C49 1.268 . S
O64 Sc46 2.105 . S
O64 C48 1.268 . S
O65 Sc45 2.105 . S
O65 C50 1.268 . S
Sc66 O69 2.025 . S
Sc66 O76 2.105 . S
Sc66 O79 2.105 . S
Sc66 O82 2.105 . S
Sc66 O85 2.105 . S
Sc67 O69 2.025 . S
Sc67 O77 2.105 . S
Sc67 O81 2.105 . S
Sc67 O83 2.105 . S
Sc67 O87 2.105 . S
Sc68 O69 2.025 . S
Sc68 O78 2.105 . S
Sc68 O80 2.105 . S
Sc68 O84 2.105 . S
Sc68 O86 2.105 . S
O69 Sc66 2.025 . S
O69 Sc67 2.025 . S
O69 Sc68 2.025 . S
C70 O76 1.268 . S
C70 O86 1.268 . S
C71 O77 1.268 . S
C71 O85 1.268 . S
C72 O78 1.268 . S
C72 O87 1.268 . S
C73 O79 1.268 . S
C73 O83 1.268 . S
C74 O80 1.268 . S
C74 O82 1.268 . S
C75 O81 1.268 . S
C75 O84 1.268 . S
O76 Sc66 2.105 . S
O76 C70 1.268 . S
O77 Sc67 2.105 . S
O77 C71 1.268 . S
O78 Sc68 2.105 . S
O78 C72 1.268 . S
O79 Sc66 2.105 . S
O79 C73 1.268 . S
O80 Sc68 2.105 . S
O80 C74 1.268 . S
O81 Sc67 2.105 . S
O81 C75 1.268 . S
O82 Sc66 2.105 . S
O82 C74 1.268 . S
O83 Sc67 2.105 . S
O83 C73 1.268 . S
O84 Sc68 2.105 . S
O84 C75 1.268 . S
O85 Sc66 2.105 . S
O85 C71 1.268 . S
O86 Sc68 2.105 . S
O86 C70 1.268 . S
O87 Sc67 2.105 . S
O87 C72 1.268 . S
Sc88 O91 2.025 . S
Sc88 O98 2.105 . S
Sc88 O101 2.105 . S
Sc88 O104 2.105 . S
Sc88 O107 2.105 . S
Sc89 O91 2.025 . S
Sc89 O99 2.105 . S
Sc89 O103 2.105 . S
Sc89 O105 2.105 . S
Sc89 O109 2.105 1_556 S
Sc90 O91 2.025 . S
Sc90 O100 2.105 1_556 S
Sc90 O102 2.105 . S
Sc90 O106 2.105 . S
Sc90 O108 2.105 . S
O91 Sc88 2.025 . S
O91 Sc89 2.025 . S
O91 Sc90 2.025 . S
C92 O98 1.268 . S
C92 O108 1.268 . S
C93 O99 1.268 . S
C93 O107 1.268 . S
C94 O100 1.268 . S
C94 O109 1.268 . S
C95 O101 1.268 . S
C95 O105 1.268 . S
C96 O102 1.268 . S
C96 O104 1.268 . S
C97 O103 1.268 . S
C97 O106 1.268 . S
O98 Sc88 2.105 . S
O98 C92 1.268 . S
O99 Sc89 2.105 . S
O99 C93 1.268 . S
O100 Sc90 2.105 1_554 S
O100 C94 1.268 . S
O101 Sc88 2.105 . S
O101 C95 1.268 . S
O102 Sc90 2.105 . S
O102 C96 1.268 . S
O103 Sc89 2.105 . S
O103 C97 1.268 . S
O104 Sc88 2.105 . S
O104 C96 1.268 . S
O105 Sc89 2.105 . S
O105 C95 1.268 . S
O106 Sc90 2.105 . S
O106 C97 1.268 . S
O107 Sc88 2.105 . S
O107 C93 1.268 . S
O108 Sc90 2.105 . S
O108 C92 1.268 . S
O109 Sc89 2.105 1_554 S
O109 C94 1.268 . S
Sc110 O113 2.025 . S
Sc110 O120 2.105 . S
Sc110 O123 2.105 . S
Sc110 O126 2.105 . S
Sc110 O129 2.105 . S
Sc111 O113 2.025 . S
Sc111 O121 2.105 . S
Sc111 O125 2.105 . S
Sc111 O127 2.105 . S
Sc111 O131 2.105 . S
Sc112 O113 2.025 . S
Sc112 O122 2.105 . S
Sc112 O124 2.105 . S
Sc112 O128 2.105 . S
Sc112 O130 2.105 . S
O113 Sc110 2.025 . S
O113 Sc111 2.025 . S
O113 Sc112 2.025 . S
C114 O120 1.268 . S
C114 O130 1.268 . S
C115 O121 1.268 . S
C115 O129 1.268 . S
C116 O122 1.268 . S
C116 O131 1.268 . S
C117 O123 1.268 . S
C117 O127 1.268 . S
C118 O124 1.268 . S
C118 O126 1.268 . S
C119 O125 1.268 . S
C119 O128 1.268 . S
O120 Sc110 2.105 . S
O120 C114 1.268 . S
O121 Sc111 2.105 . S
O121 C115 1.268 . S
O122 Sc112 2.105 . S
O122 C116 1.268 . S
O123 Sc110 2.105 . S
O123 C117 1.268 . S
O124 Sc112 2.105 . S
O124 C118 1.268 . S
O125 Sc111 2.105 . S
O125 C119 1.268 . S
O126 Sc110 2.105 . S
O126 C118 1.268 . S
O127 Sc111 2.105 . S
O127 C117 1.268 . S
O128 Sc112 2.105 . S
O128 C119 1.268 . S
O129 Sc110 2.105 . S
O129 C115 1.268 . S
O130 Sc112 2.105 . S
O130 C114 1.268 . S
O131 Sc111 2.105 . S
O131 C116 1.268 . S
Sc132 O135 2.025 . S
Sc132 O142 2.105 . S
Sc132 O145 2.105 1_554 S
Sc132 O148 2.105 . S
Sc132 O151 2.105 . S
Sc133 O135 2.025 . S
Sc133 O143 2.105 . S
Sc133 O147 2.105 . S
Sc133 O149 2.105 1_554 S
Sc133 O153 2.105 . S
Sc134 O135 2.025 . S
Sc134 O144 2.105 . S
Sc134 O146 2.105 . S
Sc134 O150 2.105 . S
Sc134 O152 2.105 . S
O135 Sc132 2.025 . S
O135 Sc133 2.025 . S
O135 Sc134 2.025 . S
C136 O142 1.268 . S
C136 O152 1.268 . S
C137 O143 1.268 . S
C137 O151 1.268 . S
C138 O144 1.268 . S
C138 O153 1.268 . S
C139 O145 1.268 . S
C139 O149 1.268 . S
C140 O146 1.268 . S
C140 O148 1.268 . S
C141 O147 1.268 . S
C141 O150 1.268 . S
O142 Sc132 2.105 . S
O142 C136 1.268 . S
O143 Sc133 2.105 . S
O143 C137 1.268 . S
O144 Sc134 2.105 . S
O144 C138 1.268 . S
O145 Sc132 2.105 1_556 S
O145 C139 1.268 . S
O146 Sc134 2.105 . S
O146 C140 1.268 . S
O147 Sc133 2.105 . S
O147 C141 1.268 . S
O148 Sc132 2.105 . S
O148 C140 1.268 . S
O149 Sc133 2.105 1_556 S
O149 C139 1.268 . S
O150 Sc134 2.105 . S
O150 C141 1.268 . S
O151 Sc132 2.105 . S
O151 C137 1.268 . S
O152 Sc134 2.105 . S
O152 C136 1.268 . S
O153 Sc133 2.105 . S
O153 C138 1.268 . S
Sc154 O157 2.025 . S
Sc154 O164 2.105 . S
Sc154 O167 2.105 . S
Sc154 O170 2.105 . S
Sc154 O173 2.105 . S
Sc155 O157 2.025 . S
Sc155 O165 2.105 . S
Sc155 O169 2.105 . S
Sc155 O171 2.105 . S
Sc155 O175 2.105 . S
Sc156 O157 2.025 . S
Sc156 O166 2.105 . S
Sc156 O168 2.105 . S
Sc156 O172 2.105 . S
Sc156 O174 2.105 . S
O157 Sc154 2.025 . S
O157 Sc155 2.025 . S
O157 Sc156 2.025 . S
C158 O164 1.268 . S
C158 O174 1.268 . S
C159 O165 1.268 . S
C159 O173 1.268 . S
C160 O166 1.268 . S
C160 O175 1.268 . S
C161 O167 1.268 . S
C161 O171 1.268 . S
C162 O168 1.268 . S
C162 O170 1.268 . S
C163 O169 1.268 . S
C163 O172 1.268 . S
O164 Sc154 2.105 . S
O164 C158 1.268 . S
O165 Sc155 2.105 . S
O165 C159 1.268 . S
O166 Sc156 2.105 . S
O166 C160 1.268 . S
O167 Sc154 2.105 . S
O167 C161 1.268 . S
O168 Sc156 2.105 . S
O168 C162 1.268 . S
O169 Sc155 2.105 . S
O169 C163 1.268 . S
O170 Sc154 2.105 . S
O170 C162 1.268 . S
O171 Sc155 2.105 . S
O171 C161 1.268 . S
O172 Sc156 2.105 . S
O172 C163 1.268 . S
O173 Sc154 2.105 . S
O173 C159 1.268 . S
O174 Sc156 2.105 . S
O174 C158 1.268 . S
O175 Sc155 2.105 . S
O175 C160 1.268 . S
Sc176 O179 2.025 . S
Sc176 O186 2.105 . S
Sc176 O189 2.105 . S
Sc176 O192 2.105 . S
Sc176 O195 2.105 1_554 S
Sc177 O179 2.025 . S
Sc177 O187 2.105 1_554 S
Sc177 O191 2.105 . S
Sc177 O193 2.105 . S
Sc177 O197 2.105 . S
Sc178 O179 2.025 . S
Sc178 O188 2.105 . S
Sc178 O190 2.105 . S
Sc178 O194 2.105 . S
Sc178 O196 2.105 . S
O179 Sc176 2.025 . S
O179 Sc177 2.025 . S
O179 Sc178 2.025 . S
C180 O186 1.268 . S
C180 O196 1.268 . S
C181 O187 1.268 . S
C181 O195 1.268 . S
C182 O188 1.268 . S
C182 O197 1.268 . S
C183 O189 1.268 . S
C183 O193 1.268 . S
C184 O190 1.268 . S
C184 O192 1.268 . S
C185 O191 1.268 . S
C185 O194 1.268 . S
O186 Sc176 2.105 . S
O186 C180 1.268 . S
O187 Sc177 2.105 1_556 S
O187 C181 1.268 . S
O188 Sc178 2.105 . S
O188 C182 1.268 . S
O189 Sc176 2.105 . S
O189 C183 1.268 . S
O190 Sc178 2.105 . S
O190 C184 1.268 . S
O191 Sc177 2.105 . S
O191 C185 1.268 . S
O192 Sc176 2.105 . S
O192 C184 1.268 . S
O193 Sc177 2.105 . S
O193 C183 1.268 . S
O194 Sc178 2.105 . S
O194 C185 1.268 . S
O195 Sc176 2.105 1_556 S
O195 C181 1.268 . S
O196 Sc178 2.105 . S
O196 C180 1.268 . S
O197 Sc177 2.105 . S
O197 C182 1.268 . S
Sc198 O201 2.025 . S
Sc198 O208 2.105 . S
Sc198 O211 2.105 . S
Sc198 O214 2.105 . S
Sc198 O217 2.105 . S
Sc199 O201 2.025 . S
Sc199 O209 2.105 . S
Sc199 O213 2.105 . S
Sc199 O215 2.105 . S
Sc199 O219 2.105 . S
Sc200 O201 2.025 . S
Sc200 O210 2.105 . S
Sc200 O212 2.105 . S
Sc200 O216 2.105 . S
Sc200 O218 2.105 . S
O201 Sc198 2.025 . S
O201 Sc199 2.025 . S
O201 Sc200 2.025 . S
C202 O208 1.268 . S
C202 O218 1.268 . S
C203 O209 1.268 . S
C203 O217 1.268 . S
C204 O210 1.268 . S
C204 O219 1.268 . S
C205 O211 1.268 . S
C205 O215 1.268 . S
C206 O212 1.268 . S
C206 O214 1.268 . S
C207 O213 1.268 . S
C207 O216 1.268 . S
O208 Sc198 2.105 . S
O208 C202 1.268 . S
O209 Sc199 2.105 . S
O209 C203 1.268 . S
O210 Sc200 2.105 . S
O210 C204 1.268 . S
O211 Sc198 2.105 . S
O211 C205 1.268 . S
O212 Sc200 2.105 . S
O212 C206 1.268 . S
O213 Sc199 2.105 . S
O213 C207 1.268 . S
O214 Sc198 2.105 . S
O214 C206 1.268 . S
O215 Sc199 2.105 . S
O215 C205 1.268 . S
O216 Sc200 2.105 . S
O216 C207 1.268 . S
O217 Sc198 2.105 . S
O217 C203 1.268 . S
O218 Sc200 2.105 . S
O218 C202 1.268 . S
O219 Sc199 2.105 . S
O219 C204 1.268 . S
Sc220 O223 2.025 . S
Sc220 O230 2.105 . S
Sc220 O233 2.105 . S
Sc220 O236 2.105 . S
Sc220 O239 2.105 1_556 S
Sc221 O223 2.025 . S
Sc221 O231 2.105 1_556 S
Sc221 O235 2.105 . S
Sc221 O237 2.105 . S
Sc221 O241 2.105 . S
Sc222 O223 2.025 . S
Sc222 O232 2.105 . S
Sc222 O234 2.105 . S
Sc222 O238 2.105 . S
Sc222 O240 2.105 . S
O223 Sc220 2.025 . S
O223 Sc221 2.025 . S
O223 Sc222 2.025 . S
C224 O230 1.268 . S
C224 O240 1.268 . S
C225 O231 1.268 . S
C225 O239 1.268 . S
C226 O232 1.268 . S
C226 O241 1.268 . S
C227 O233 1.268 . S
C227 O237 1.268 . S
C228 O234 1.268 . S
C228 O236 1.268 . S
C229 O235 1.268 . S
C229 O238 1.268 . S
O230 Sc220 2.105 . S
O230 C224 1.268 . S
O231 Sc221 2.105 1_554 S
O231 C225 1.268 . S
O232 Sc222 2.105 . S
O232 C226 1.268 . S
O233 Sc220 2.105 . S
O233 C227 1.268 . S
O234 Sc222 2.105 . S
O234 C228 1.268 . S
O235 Sc221 2.105 . S
O235 C229 1.268 . S
O236 Sc220 2.105 . S
O236 C228 1.268 . S
O237 Sc221 2.105 . S
O237 C227 1.268 . S
O238 Sc222 2.105 . S
O238 C229 1.268 . S
O239 Sc220 2.105 1_554 S
O239 C225 1.268 . S
O240 Sc222 2.105 . S
O240 C224 1.268 . S
O241 Sc221 2.105 . S
O241 C226 1.268 . S
Sc242 O245 2.025 . S
Sc242 O252 2.105 . S
Sc242 O255 2.105 . S
Sc242 O258 2.105 . S
Sc242 O261 2.105 . S
Sc243 O245 2.025 . S
Sc243 O253 2.105 . S
Sc243 O257 2.105 . S
Sc243 O259 2.105 . S
Sc243 O263 2.105 . S
Sc244 O245 2.025 . S
Sc244 O254 2.105 . S
Sc244 O256 2.105 . S
Sc244 O260 2.105 . S
Sc244 O262 2.105 . S
O245 Sc242 2.025 . S
O245 Sc243 2.025 . S
O245 Sc244 2.025 . S
C246 O252 1.268 . S
C246 O262 1.268 . S
C247 O253 1.268 . S
C247 O261 1.268 . S
C248 O254 1.268 . S
C248 O263 1.268 . S
C249 O255 1.268 . S
C249 O259 1.268 . S
C250 O256 1.268 . S
C250 O258 1.268 . S
C251 O257 1.268 . S
C251 O260 1.268 . S
O252 Sc242 2.105 . S
O252 C246 1.268 . S
O253 Sc243 2.105 . S
O253 C247 1.268 . S
O254 Sc244 2.105 . S
O254 C248 1.268 . S
O255 Sc242 2.105 . S
O255 C249 1.268 . S
O256 Sc244 2.105 . S
O256 C250 1.268 . S
O257 Sc243 2.105 . S
O257 C251 1.268 . S
O258 Sc242 2.105 . S
O258 C250 1.268 . S
O259 Sc243 2.105 . S
O259 C249 1.268 . S
O260 Sc244 2.105 . S
O260 C251 1.268 . S
O261 Sc242 2.105 . S
O261 C247 1.268 . S
O262 Sc244 2.105 . S
O262 C246 1.268 . S
O263 Sc243 2.105 . S
O263 C248 1.268 . S
Sc264 O267 2.025 . S
Sc264 O274 2.105 . S
Sc264 O277 2.105 . S
Sc264 O280 2.105 . S
Sc264 O283 2.105 . S
Sc265 O267 2.025 . S
Sc265 O275 2.105 . S
Sc265 O279 2.105 . S
Sc265 O281 2.105 . S
Sc265 O285 2.105 1_556 S
Sc266 O267 2.025 . S
Sc266 O276 2.105 1_556 S
Sc266 O278 2.105 . S
Sc266 O282 2.105 . S
Sc266 O284 2.105 . S
O267 Sc264 2.025 . S
O267 Sc265 2.025 . S
O267 Sc266 2.025 . S
C268 O274 1.268 . S
C268 O284 1.268 . S
C269 O275 1.268 . S
C269 O283 1.268 . S
C270 O276 1.268 . S
C270 O285 1.268 . S
C271 O277 1.268 . S
C271 O281 1.268 . S
C272 O278 1.268 . S
C272 O280 1.268 . S
C273 O279 1.268 . S
C273 O282 1.268 . S
O274 Sc264 2.105 . S
O274 C268 1.268 . S
O275 Sc265 2.105 . S
O275 C269 1.268 . S
O276 Sc266 2.105 1_554 S
O276 C270 1.268 . S
O277 Sc264 2.105 . S
O277 C271 1.268 . S
O278 Sc266 2.105 . S
O278 C272 1.268 . S
O279 Sc265 2.105 . S
O279 C273 1.268 . S
O280 Sc264 2.105 . S
O280 C272 1.268 . S
O281 Sc265 2.105 . S
O281 C271 1.268 . S
O282 Sc266 2.105 . S
O282 C273 1.268 . S
O283 Sc264 2.105 . S
O283 C269 1.268 . S
O284 Sc266 2.105 . S
O284 C268 1.268 . S
O285 Sc265 2.105 1_554 S
O285 C270 1.268 . S
Sc286 O289 2.025 . S
Sc286 O296 2.105 . S
Sc286 O299 2.105 . S
Sc286 O302 2.105 . S
Sc286 O305 2.105 . S
Sc287 O289 2.025 . S
Sc287 O297 2.105 . S
Sc287 O301 2.105 . S
Sc287 O303 2.105 . S
Sc287 O307 2.105 . S
Sc288 O289 2.025 . S
Sc288 O298 2.105 . S
Sc288 O300 2.105 . S
Sc288 O304 2.105 . S
Sc288 O306 2.105 . S
O289 Sc286 2.025 . S
O289 Sc287 2.025 . S
O289 Sc288 2.025 . S
C290 O296 1.268 . S
C290 O306 1.268 . S
C291 O297 1.268 . S
C291 O305 1.268 . S
C292 O298 1.268 . S
C292 O307 1.268 . S
C293 O299 1.268 . S
C293 O303 1.268 . S
C294 O300 1.268 . S
C294 O302 1.268 . S
C295 O301 1.268 . S
C295 O304 1.268 . S
O296 Sc286 2.105 . S
O296 C290 1.268 . S
O297 Sc287 2.105 . S
O297 C291 1.268 . S
O298 Sc288 2.105 . S
O298 C292 1.268 . S
O299 Sc286 2.105 . S
O299 C293 1.268 . S
O300 Sc288 2.105 . S
O300 C294 1.268 . S
O301 Sc287 2.105 . S
O301 C295 1.268 . S
O302 Sc286 2.105 . S
O302 C294 1.268 . S
O303 Sc287 2.105 . S
O303 C293 1.268 . S
O304 Sc288 2.105 . S
O304 C295 1.268 . S
O305 Sc286 2.105 . S
O305 C291 1.268 . S
O306 Sc288 2.105 . S
O306 C290 1.268 . S
O307 Sc287 2.105 . S
O307 C292 1.268 . S
Sc308 O311 2.025 . S
Sc308 O318 2.105 . S
Sc308 O321 2.105 1_554 S
Sc308 O324 2.105 . S
Sc308 O327 2.105 . S
Sc309 O311 2.025 . S
Sc309 O319 2.105 . S
Sc309 O323 2.105 . S
Sc309 O325 2.105 1_554 S
Sc309 O329 2.105 . S
Sc310 O311 2.025 . S
Sc310 O320 2.105 . S
Sc310 O322 2.105 . S
Sc310 O326 2.105 . S
Sc310 O328 2.105 . S
O311 Sc308 2.025 . S
O311 Sc309 2.025 . S
O311 Sc310 2.025 . S
C312 O318 1.268 . S
C312 O328 1.268 . S
C313 O319 1.268 . S
C313 O327 1.268 . S
C314 O320 1.268 . S
C314 O329 1.268 . S
C315 O321 1.268 . S
C315 O325 1.268 . S
C316 O322 1.268 . S
C316 O324 1.268 . S
C317 O323 1.268 . S
C317 O326 1.268 . S
O318 Sc308 2.105 . S
O318 C312 1.268 . S
O319 Sc309 2.105 . S
O319 C313 1.268 . S
O320 Sc310 2.105 . S
O320 C314 1.268 . S
O321 Sc308 2.105 1_556 S
O321 C315 1.268 . S
O322 Sc310 2.105 . S
O322 C316 1.268 . S
O323 Sc309 2.105 . S
O323 C317 1.268 . S
O324 Sc308 2.105 . S
O324 C316 1.268 . S
O325 Sc309 2.105 1_556 S
O325 C315 1.268 . S
O326 Sc310 2.105 . S
O326 C317 1.268 . S
O327 Sc308 2.105 . S
O327 C313 1.268 . S
O328 Sc310 2.105 . S
O328 C312 1.268 . S
O329 Sc309 2.105 . S
O329 C314 1.268 . S
Sc330 O333 2.025 . S
Sc330 O340 2.105 . S
Sc330 O343 2.105 . S
Sc330 O346 2.105 . S
Sc330 O349 2.105 . S
Sc331 O333 2.025 . S
Sc331 O341 2.105 . S
Sc331 O345 2.105 . S
Sc331 O347 2.105 . S
Sc331 O351 2.105 . S
Sc332 O333 2.025 . S
Sc332 O342 2.105 . S
Sc332 O344 2.105 . S
Sc332 O348 2.105 . S
Sc332 O350 2.105 . S
O333 Sc330 2.025 . S
O333 Sc331 2.025 . S
O333 Sc332 2.025 . S
C334 O340 1.268 . S
C334 O350 1.268 . S
C335 O341 1.268 . S
C335 O349 1.268 . S
C336 O342 1.268 . S
C336 O351 1.268 . S
C337 O343 1.268 . S
C337 O347 1.268 . S
C338 O344 1.268 . S
C338 O346 1.268 . S
C339 O345 1.268 . S
C339 O348 1.268 . S
O340 Sc330 2.105 . S
O340 C334 1.268 . S
O341 Sc331 2.105 . S
O341 C335 1.268 . S
O342 Sc332 2.105 . S
O342 C336 1.268 . S
O343 Sc330 2.105 . S
O343 C337 1.268 . S
O344 Sc332 2.105 . S
O344 C338 1.268 . S
O345 Sc331 2.105 . S
O345 C339 1.268 . S
O346 Sc330 2.105 . S
O346 C338 1.268 . S
O347 Sc331 2.105 . S
O347 C337 1.268 . S
O348 Sc332 2.105 . S
O348 C339 1.268 . S
O349 Sc330 2.105 . S
O349 C335 1.268 . S
O350 Sc332 2.105 . S
O350 C334 1.268 . S
O351 Sc331 2.105 . S
O351 C336 1.268 . S
H352 C360 0.950 . S
H353 C365 0.950 . S
H354 C362 0.950 . S
H355 C364 0.950 . S
H356 C366 0.950 . S
H357 C368 0.950 . S
H358 C370 0.950 . S
H359 C371 0.950 . S
C360 H352 0.950 . S
C360 C361 1.386 . S
C360 C362 1.391 . S
C361 C360 1.386 . S
C361 C365 1.393 . S
C362 H354 0.950 . S
C362 C360 1.391 . S
C362 C363 1.400 . S
C363 C362 1.400 . S
C363 C364 1.398 . S
C363 C369 1.491 . S
C364 H355 0.950 . S
C364 C363 1.398 . S
C364 C365 1.391 . S
C365 H353 0.950 . S
C365 C361 1.393 . S
C365 C364 1.391 . S
C366 H356 0.950 . S
C366 C367 1.386 . S
C366 C368 1.391 . S
C367 C366 1.386 . S
C367 C371 1.393 . S
C368 H357 0.950 . S
C368 C366 1.391 . S
C368 C369 1.400 . S
C369 C363 1.491 . S
C369 C368 1.400 . S
C369 C370 1.398 . S
C370 H358 0.950 . S
C370 C369 1.398 . S
C370 C371 1.391 . S
C371 H359 0.950 . S
C371 C367 1.393 . S
C371 C370 1.391 . S
H372 C380 0.950 . S
H373 C385 0.950 . S
H374 C382 0.950 . S
H375 C384 0.950 . S
H376 C386 0.950 . S
H377 C388 0.950 . S
H378 C390 0.950 . S
H379 C391 0.950 . S
C380 H372 0.950 . S
C380 C381 1.386 . S
C380 C382 1.391 . S
C381 C380 1.386 . S
C381 C385 1.393 . S
C382 H374 0.950 . S
C382 C380 1.391 . S
C382 C383 1.400 . S
C383 C382 1.400 . S
C383 C384 1.398 . S
C383 C389 1.491 . S
C384 H375 0.950 . S
C384 C383 1.398 . S
C384 C385 1.391 . S
C385 H373 0.950 . S
C385 C381 1.393 . S
C385 C384 1.391 . S
C386 H376 0.950 . S
C386 C387 1.386 . S
C386 C388 1.391 . S
C387 C386 1.386 . S
C387 C391 1.393 . S
C388 H377 0.950 . S
C388 C386 1.391 . S
C388 C389 1.400 . S
C389 C383 1.491 . S
C389 C388 1.400 . S
C389 C390 1.398 . S
C390 H378 0.950 . S
C390 C389 1.398 . S
C390 C391 1.391 . S
C391 H379 0.950 . S
C391 C387 1.393 . S
C391 C390 1.391 . S
H392 C400 0.950 . S
H393 C405 0.950 . S
H394 C402 0.950 . S
H395 C404 0.950 . S
H396 C406 0.950 . S
H397 C408 0.950 . S
H398 C410 0.950 . S
H399 C411 0.950 . S
C400 H392 0.950 . S
C400 C401 1.386 . S
C400 C402 1.391 . S
C401 C400 1.386 . S
C401 C405 1.393 . S
C402 H394 0.950 . S
C402 C400 1.391 . S
C402 C403 1.400 . S
C403 C402 1.400 . S
C403 C404 1.398 . S
C403 C409 1.491 . S
C404 H395 0.950 . S
C404 C403 1.398 . S
C404 C405 1.391 . S
C405 H393 0.950 . S
C405 C401 1.393 . S
C405 C404 1.391 . S
C406 H396 0.950 . S
C406 C407 1.386 . S
C406 C408 1.391 . S
C407 C406 1.386 . S
C407 C411 1.393 . S
C408 H397 0.950 . S
C408 C406 1.391 . S
C408 C409 1.400 . S
C409 C403 1.491 . S
C409 C408 1.400 . S
C409 C410 1.398 . S
C410 H398 0.950 . S
C410 C409 1.398 . S
C410 C411 1.391 . S
C411 H399 0.950 . S
C411 C407 1.393 . S
C411 C410 1.391 . S
H412 C420 0.950 . S
H413 C425 0.950 . S
H414 C422 0.950 . S
H415 C424 0.950 . S
H416 C426 0.950 . S
H417 C428 0.950 . S
H418 C430 0.950 . S
H419 C431 0.950 . S
C420 H412 0.950 . S
C420 C421 1.386 . S
C420 C422 1.391 . S
C421 C420 1.386 . S
C421 C425 1.393 . S
C422 H414 0.950 . S
C422 C420 1.391 . S
C422 C423 1.400 . S
C423 C422 1.400 . S
C423 C424 1.398 . S
C423 C429 1.491 . S
C424 H415 0.950 . S
C424 C423 1.398 . S
C424 C425 1.391 . S
C425 H413 0.950 . S
C425 C421 1.393 . S
C425 C424 1.391 . S
C426 H416 0.950 . S
C426 C427 1.386 . S
C426 C428 1.391 . S
C427 C426 1.386 . S
C427 C431 1.393 . S
C428 H417 0.950 . S
C428 C426 1.391 . S
C428 C429 1.400 . S
C429 C423 1.491 . S
C429 C428 1.400 . S
C429 C430 1.398 . S
C430 H418 0.950 . S
C430 C429 1.398 . S
C430 C431 1.391 . S
C431 H419 0.950 . S
C431 C427 1.393 . S
C431 C430 1.391 . S
H432 C440 0.950 . S
H433 C445 0.950 . S
H434 C442 0.950 . S
H435 C444 0.950 . S
H436 C446 0.950 . S
H437 C448 0.950 . S
H438 C450 0.950 . S
H439 C451 0.950 . S
C440 H432 0.950 . S
C440 C441 1.386 . S
C440 C442 1.391 . S
C441 C440 1.386 . S
C441 C445 1.393 . S
C442 H434 0.950 . S
C442 C440 1.391 . S
C442 C443 1.400 . S
C443 C442 1.400 . S
C443 C444 1.398 . S
C443 C449 1.491 . S
C444 H435 0.950 . S
C444 C443 1.398 . S
C444 C445 1.391 . S
C445 H433 0.950 . S
C445 C441 1.393 . S
C445 C444 1.391 . S
C446 H436 0.950 . S
C446 C447 1.386 . S
C446 C448 1.391 . S
C447 C446 1.386 . S
C447 C451 1.393 . S
C448 H437 0.950 . S
C448 C446 1.391 . S
C448 C449 1.400 . S
C449 C443 1.491 . S
C449 C448 1.400 . S
C449 C450 1.398 . S
C450 H438 0.950 . S
C450 C449 1.398 . S
C450 C451 1.391 . S
C451 H439 0.950 . S
C451 C447 1.393 . S
C451 C450 1.391 . S
H452 C460 0.950 . S
H453 C465 0.950 . S
H454 C462 0.950 . S
H455 C464 0.950 . S
H456 C466 0.950 . S
H457 C468 0.950 . S
H458 C470 0.950 . S
H459 C471 0.950 . S
C460 H452 0.950 . S
C460 C461 1.386 . S
C460 C462 1.391 . S
C461 C460 1.386 . S
C461 C465 1.393 . S
C462 H454 0.950 . S
C462 C460 1.391 . S
C462 C463 1.400 . S
C463 C462 1.400 . S
C463 C464 1.398 . S
C463 C469 1.491 . S
C464 H455 0.950 . S
C464 C463 1.398 . S
C464 C465 1.391 . S
C465 H453 0.950 . S
C465 C461 1.393 . S
C465 C464 1.391 . S
C466 H456 0.950 . S
C466 C467 1.386 . S
C466 C468 1.391 . S
C467 C466 1.386 . S
C467 C471 1.393 . S
C468 H457 0.950 . S
C468 C466 1.391 . S
C468 C469 1.400 . S
C469 C463 1.491 . S
C469 C468 1.400 . S
C469 C470 1.398 . S
C470 H458 0.950 . S
C470 C469 1.398 . S
C470 C471 1.391 . S
C471 H459 0.950 . S
C471 C467 1.393 . S
C471 C470 1.391 . S
H472 C480 0.950 . S
H473 C485 0.950 . S
H474 C482 0.950 . S
H475 C484 0.950 . S
H476 C486 0.950 . S
H477 C488 0.950 . S
H478 C490 0.950 . S
H479 C491 0.950 . S
C480 H472 0.950 . S
C480 C481 1.386 . S
C480 C482 1.391 . S
C481 C480 1.386 . S
C481 C485 1.393 . S
C482 H474 0.950 . S
C482 C480 1.391 . S
C482 C483 1.400 . S
C483 C482 1.400 . S
C483 C484 1.398 . S
C483 C489 1.491 . S
C484 H475 0.950 . S
C484 C483 1.398 . S
C484 C485 1.391 . S
C485 H473 0.950 . S
C485 C481 1.393 . S
C485 C484 1.391 . S
C486 H476 0.950 . S
C486 C487 1.386 . S
C486 C488 1.391 . S
C487 C486 1.386 . S
C487 C491 1.393 . S
C488 H477 0.950 . S
C488 C486 1.391 . S
C488 C489 1.400 . S
C489 C483 1.491 . S
C489 C488 1.400 . S
C489 C490 1.398 . S
C490 H478 0.950 . S
C490 C489 1.398 . S
C490 C491 1.391 . S
C491 H479 0.950 . S
C491 C487 1.393 . S
C491 C490 1.391 . S
H492 C500 0.950 . S
H493 C505 0.950 . S
H494 C502 0.950 . S
H495 C504 0.950 . S
H496 C506 0.950 . S
H497 C508 0.950 . S
H498 C510 0.950 . S
H499 C511 0.950 . S
C500 H492 0.950 . S
C500 C501 1.386 . S
C500 C502 1.391 . S
C501 C500 1.386 . S
C501 C505 1.393 . S
C502 H494 0.950 . S
C502 C500 1.391 . S
C502 C503 1.400 . S
C503 C502 1.400 . S
C503 C504 1.398 . S
C503 C509 1.491 . S
C504 H495 0.950 . S
C504 C503 1.398 . S
C504 C505 1.391 . S
C505 H493 0.950 . S
C505 C501 1.393 . S
C505 C504 1.391 . S
C506 H496 0.950 . S
C506 C507 1.386 . S
C506 C508 1.391 . S
C507 C506 1.386 . S
C507 C511 1.393 . S
C508 H497 0.950 . S
C508 C506 1.391 . S
C508 C509 1.400 . S
C509 C503 1.491 . S
C509 C508 1.400 . S
C509 C510 1.398 . S
C510 H498 0.950 . S
C510 C509 1.398 . S
C510 C511 1.391 . S
C511 H499 0.950 . S
C511 C507 1.393 . S
C511 C510 1.391 . S
H512 C520 0.950 . S
H513 C525 0.950 . S
H514 C522 0.950 . S
H515 C524 0.950 . S
H516 C526 0.950 . S
H517 C528 0.950 . S
H518 C530 0.950 . S
H519 C531 0.950 . S
C520 H512 0.950 . S
C520 C521 1.386 . S
C520 C522 1.391 . S
C521 C520 1.386 . S
C521 C525 1.393 . S
C522 H514 0.950 . S
C522 C520 1.391 . S
C522 C523 1.400 . S
C523 C522 1.400 . S
C523 C524 1.398 . S
C523 C529 1.491 . S
C524 H515 0.950 . S
C524 C523 1.398 . S
C524 C525 1.391 . S
C525 H513 0.950 . S
C525 C521 1.393 . S
C525 C524 1.391 . S
C526 H516 0.950 . S
C526 C527 1.386 . S
C526 C528 1.391 . S
C527 C526 1.386 . S
C527 C531 1.393 . S
C528 H517 0.950 . S
C528 C526 1.391 . S
C528 C529 1.400 . S
C529 C523 1.491 . S
C529 C528 1.400 . S
C529 C530 1.398 . S
C530 H518 0.950 . S
C530 C529 1.398 . S
C530 C531 1.391 . S
C531 H519 0.950 . S
C531 C527 1.393 . S
C531 C530 1.391 . S
H532 C540 0.950 . S
H533 C545 0.950 . S
H534 C542 0.950 . S
H535 C544 0.950 . S
H536 C546 0.950 . S
H537 C548 0.950 . S
H538 C550 0.950 . S
H539 C551 0.950 . S
C540 H532 0.950 . S
C540 C541 1.386 . S
C540 C542 1.391 . S
C541 C540 1.386 . S
C541 C545 1.393 . S
C542 H534 0.950 . S
C542 C540 1.391 . S
C542 C543 1.400 . S
C543 C542 1.400 . S
C543 C544 1.398 . S
C543 C549 1.491 . S
C544 H535 0.950 . S
C544 C543 1.398 . S
C544 C545 1.391 . S
C545 H533 0.950 . S
C545 C541 1.393 . S
C545 C544 1.391 . S
C546 H536 0.950 . S
C546 C547 1.386 . S
C546 C548 1.391 . S
C547 C546 1.386 . S
C547 C551 1.393 . S
C548 H537 0.950 . S
C548 C546 1.391 . S
C548 C549 1.400 . S
C549 C543 1.491 . S
C549 C548 1.400 . S
C549 C550 1.398 . S
C550 H538 0.950 . S
C550 C549 1.398 . S
C550 C551 1.391 . S
C551 H539 0.950 . S
C551 C547 1.393 . S
C551 C550 1.391 . S
H552 C560 0.950 . S
H553 C565 0.950 . S
H554 C562 0.950 . S
H555 C564 0.950 . S
H556 C566 0.950 . S
H557 C568 0.950 . S
H558 C570 0.950 . S
H559 C571 0.950 . S
C560 H552 0.950 . S
C560 C561 1.386 . S
C560 C562 1.391 . S
C561 C560 1.386 . S
C561 C565 1.393 . S
C562 H554 0.950 . S
C562 C560 1.391 . S
C562 C563 1.400 . S
C563 C562 1.400 . S
C563 C564 1.398 . S
C563 C569 1.491 . S
C564 H555 0.950 . S
C564 C563 1.398 . S
C564 C565 1.391 . S
C565 H553 0.950 . S
C565 C561 1.393 . S
C565 C564 1.391 . S
C566 H556 0.950 . S
C566 C567 1.386 . S
C566 C568 1.391 . S
C567 C566 1.386 . S
C567 C571 1.393 . S
C568 H557 0.950 . S
C568 C566 1.391 . S
C568 C569 1.400 . S
C569 C563 1.491 . S
C569 C568 1.400 . S
C569 C570 1.398 . S
C570 H558 0.950 . S
C570 C569 1.398 . S
C570 C571 1.391 . S
C571 H559 0.950 . S
C571 C567 1.393 . S
C571 C570 1.391 . S
H572 C580 0.950 . S
H573 C585 0.950 . S
H574 C582 0.950 . S
H575 C584 0.950 . S
H576 C586 0.950 . S
H577 C588 0.950 . S
H578 C590 0.950 . S
H579 C591 0.950 . S
C580 H572 0.950 . S
C580 C581 1.386 . S
C580 C582 1.391 . S
C581 C580 1.386 . S
C581 C585 1.393 . S
C582 H574 0.950 . S
C582 C580 1.391 . S
C582 C583 1.400 . S
C583 C582 1.400 . S
C583 C584 1.398 . S
C583 C589 1.491 . S
C584 H575 0.950 . S
C584 C583 1.398 . S
C584 C585 1.391 . S
C585 H573 0.950 . S
C585 C581 1.393 . S
C585 C584 1.391 . S
C586 H576 0.950 . S
C586 C587 1.386 . S
C586 C588 1.391 . S
C587 C586 1.386 . S
C587 C591 1.393 . S
C588 H577 0.950 . S
C588 C586 1.391 . S
C588 C589 1.400 . S
C589 C583 1.491 . S
C589 C588 1.400 . S
C589 C590 1.398 . S
C590 H578 0.950 . S
C590 C589 1.398 . S
C590 C591 1.391 . S
C591 H579 0.950 . S
C591 C587 1.393 . S
C591 C590 1.391 . S
H592 C600 0.950 . S
H593 C605 0.950 . S
H594 C602 0.950 . S
H595 C604 0.950 . S
H596 C606 0.950 . S
H597 C608 0.950 . S
H598 C610 0.950 . S
H599 C611 0.950 . S
C600 H592 0.950 . S
C600 C601 1.386 . S
C600 C602 1.391 . S
C601 C600 1.386 . S
C601 C605 1.393 . S
C602 H594 0.950 . S
C602 C600 1.391 . S
C602 C603 1.400 . S
C603 C602 1.400 . S
C603 C604 1.398 . S
C603 C609 1.491 . S
C604 H595 0.950 . S
C604 C603 1.398 . S
C604 C605 1.391 . S
C605 H593 0.950 . S
C605 C601 1.393 . S
C605 C604 1.391 . S
C606 H596 0.950 . S
C606 C607 1.386 . S
C606 C608 1.391 . S
C607 C606 1.386 . S
C607 C611 1.393 . S
C608 H597 0.950 . S
C608 C606 1.391 . S
C608 C609 1.400 . S
C609 C603 1.491 . S
C609 C608 1.400 . S
C609 C610 1.398 . S
C610 H598 0.950 . S
C610 C609 1.398 . S
C610 C611 1.391 . S
C611 H599 0.950 . S
C611 C607 1.393 . S
C611 C610 1.391 . S
H612 C620 0.950 . S
H613 C625 0.950 . S
H614 C622 0.950 . S
H615 C624 0.950 . S
H616 C626 0.950 . S
H617 C628 0.950 . S
H618 C630 0.950 . S
H619 C631 0.950 . S
C620 H612 0.950 . S
C620 C621 1.386 . S
C620 C622 1.391 . S
C621 C620 1.386 . S
C621 C625 1.393 . S
C622 H614 0.950 . S
C622 C620 1.391 . S
C622 C623 1.400 . S
C623 C622 1.400 . S
C623 C624 1.398 . S
C623 C629 1.491 . S
C624 H615 0.950 . S
C624 C623 1.398 . S
C624 C625 1.391 . S
C625 H613 0.950 . S
C625 C621 1.393 . S
C625 C624 1.391 . S
C626 H616 0.950 . S
C626 C627 1.386 . S
C626 C628 1.391 . S
C627 C626 1.386 . S
C627 C631 1.393 . S
C628 H617 0.950 . S
C628 C626 1.391 . S
C628 C629 1.400 . S
C629 C623 1.491 . S
C629 C628 1.400 . S
C629 C630 1.398 . S
C630 H618 0.950 . S
C630 C629 1.398 . S
C630 C631 1.391 . S
C631 H619 0.950 . S
C631 C627 1.393 . S
C631 C630 1.391 . S
H632 C640 0.950 . S
H633 C645 0.950 . S
H634 C642 0.950 . S
H635 C644 0.950 . S
H636 C646 0.950 . S
H637 C648 0.950 . S
H638 C650 0.950 . S
H639 C651 0.950 . S
C640 H632 0.950 . S
C640 C641 1.386 . S
C640 C642 1.391 . S
C641 C640 1.386 . S
C641 C645 1.393 . S
C642 H634 0.950 . S
C642 C640 1.391 . S
C642 C643 1.400 . S
C643 C642 1.400 . S
C643 C644 1.398 . S
C643 C649 1.491 . S
C644 H635 0.950 . S
C644 C643 1.398 . S
C644 C645 1.391 . S
C645 H633 0.950 . S
C645 C641 1.393 . S
C645 C644 1.391 . S
C646 H636 0.950 . S
C646 C647 1.386 . S
C646 C648 1.391 . S
C647 C646 1.386 . S
C647 C651 1.393 . S
C648 H637 0.950 . S
C648 C646 1.391 . S
C648 C649 1.400 . S
C649 C643 1.491 . S
C649 C648 1.400 . S
C649 C650 1.398 . S
C650 H638 0.950 . S
C650 C649 1.398 . S
C650 C651 1.391 . S
C651 H639 0.950 . S
C651 C647 1.393 . S
C651 C650 1.391 . S
H652 C660 0.950 . S
H653 C665 0.950 . S
H654 C662 0.950 . S
H655 C664 0.950 . S
H656 C666 0.950 . S
H657 C668 0.950 . S
H658 C670 0.950 . S
H659 C671 0.950 . S
C660 H652 0.950 . S
C660 C661 1.386 . S
C660 C662 1.391 . S
C661 C660 1.386 . S
C661 C665 1.393 . S
C662 H654 0.950 . S
C662 C660 1.391 . S
C662 C663 1.400 . S
C663 C662 1.400 . S
C663 C664 1.398 . S
C663 C669 1.491 . S
C664 H655 0.950 . S
C664 C663 1.398 . S
C664 C665 1.391 . S
C665 H653 0.950 . S
C665 C661 1.393 . S
C665 C664 1.391 . S
C666 H656 0.950 . S
C666 C667 1.386 . S
C666 C668 1.391 . S
C667 C666 1.386 . S
C667 C671 1.393 . S
C668 H657 0.950 . S
C668 C666 1.391 . S
C668 C669 1.400 . S
C669 C663 1.491 . S
C669 C668 1.400 . S
C669 C670 1.398 . S
C670 H658 0.950 . S
C670 C669 1.398 . S
C670 C671 1.391 . S
C671 H659 0.950 . S
C671 C667 1.393 . S
C671 C670 1.391 . S
H672 C680 0.950 . S
H673 C685 0.950 . S
H674 C682 0.950 . S
H675 C684 0.950 . S
H676 C686 0.950 . S
H677 C688 0.950 . S
H678 C690 0.950 . S
H679 C691 0.950 . S
C680 H672 0.950 . S
C680 C681 1.386 . S
C680 C682 1.391 . S
C681 C680 1.386 . S
C681 C685 1.393 . S
C682 H674 0.950 . S
C682 C680 1.391 . S
C682 C683 1.400 . S
C683 C682 1.400 . S
C683 C684 1.398 . S
C683 C689 1.491 . S
C684 H675 0.950 . S
C684 C683 1.398 . S
C684 C685 1.391 . S
C685 H673 0.950 . S
C685 C681 1.393 . S
C685 C684 1.391 . S
C686 H676 0.950 . S
C686 C687 1.386 . S
C686 C688 1.391 . S
C687 C686 1.386 . S
C687 C691 1.393 . S
C688 H677 0.950 . S
C688 C686 1.391 . S
C688 C689 1.400 . S
C689 C683 1.491 . S
C689 C688 1.400 . S
C689 C690 1.398 . S
C690 H678 0.950 . S
C690 C689 1.398 . S
C690 C691 1.391 . S
C691 H679 0.950 . S
C691 C687 1.393 . S
C691 C690 1.391 . S
H692 C700 0.950 . S
H693 C705 0.950 . S
H694 C702 0.950 . S
H695 C704 0.950 . S
H696 C706 0.950 . S
H697 C708 0.950 . S
H698 C710 0.950 . S
H699 C711 0.950 . S
C700 H692 0.950 . S
C700 C701 1.386 . S
C700 C702 1.391 . S
C701 C700 1.386 . S
C701 C705 1.393 . S
C702 H694 0.950 . S
C702 C700 1.391 . S
C702 C703 1.400 . S
C703 C702 1.400 . S
C703 C704 1.398 . S
C703 C709 1.491 . S
C704 H695 0.950 . S
C704 C703 1.398 . S
C704 C705 1.391 . S
C705 H693 0.950 . S
C705 C701 1.393 . S
C705 C704 1.391 . S
C706 H696 0.950 . S
C706 C707 1.386 . S
C706 C708 1.391 . S
C707 C706 1.386 . S
C707 C711 1.393 . S
C708 H697 0.950 . S
C708 C706 1.391 . S
C708 C709 1.400 . S
C709 C703 1.491 . S
C709 C708 1.400 . S
C709 C710 1.398 . S
C710 H698 0.950 . S
C710 C709 1.398 . S
C710 C711 1.391 . S
C711 H699 0.950 . S
C711 C707 1.393 . S
C711 C710 1.391 . S
H712 C720 0.950 . S
H713 C725 0.950 . S
H714 C722 0.950 . S
H715 C724 0.950 . S
H716 C726 0.950 . S
H717 C728 0.950 . S
H718 C730 0.950 . S
H719 C731 0.950 . S
C720 H712 0.950 . S
C720 C721 1.386 . S
C720 C722 1.391 . S
C721 C720 1.386 . S
C721 C725 1.393 . S
C722 H714 0.950 . S
C722 C720 1.391 . S
C722 C723 1.400 . S
C723 C722 1.400 . S
C723 C724 1.398 . S
C723 C729 1.491 . S
C724 H715 0.950 . S
C724 C723 1.398 . S
C724 C725 1.391 . S
C725 H713 0.950 . S
C725 C721 1.393 . S
C725 C724 1.391 . S
C726 H716 0.950 . S
C726 C727 1.386 . S
C726 C728 1.391 . S
C727 C726 1.386 . S
C727 C731 1.393 . S
C728 H717 0.950 . S
C728 C726 1.391 . S
C728 C729 1.400 . S
C729 C723 1.491 . S
C729 C728 1.400 . S
C729 C730 1.398 . S
C730 H718 0.950 . S
C730 C729 1.398 . S
C730 C731 1.391 . S
C731 H719 0.950 . S
C731 C727 1.393 . S
C731 C730 1.391 . S
H732 C740 0.950 . S
H733 C745 0.950 . S
H734 C742 0.950 . S
H735 C744 0.950 . S
H736 C746 0.950 . S
H737 C748 0.950 . S
H738 C750 0.950 . S
H739 C751 0.950 . S
C740 H732 0.950 . S
C740 C741 1.386 . S
C740 C742 1.391 . S
C741 C740 1.386 . S
C741 C745 1.393 . S
C742 H734 0.950 . S
C742 C740 1.391 . S
C742 C743 1.400 . S
C743 C742 1.400 . S
C743 C744 1.398 . S
C743 C749 1.491 . S
C744 H735 0.950 . S
C744 C743 1.398 . S
C744 C745 1.391 . S
C745 H733 0.950 . S
C745 C741 1.393 . S
C745 C744 1.391 . S
C746 H736 0.950 . S
C746 C747 1.386 . S
C746 C748 1.391 . S
C747 C746 1.386 . S
C747 C751 1.393 . S
C748 H737 0.950 . S
C748 C746 1.391 . S
C748 C749 1.400 . S
C749 C743 1.491 . S
C749 C748 1.400 . S
C749 C750 1.398 . S
C750 H738 0.950 . S
C750 C749 1.398 . S
C750 C751 1.391 . S
C751 H739 0.950 . S
C751 C747 1.393 . S
C751 C750 1.391 . S
H752 C760 0.950 . S
H753 C765 0.950 . S
H754 C762 0.950 . S
H755 C764 0.950 . S
H756 C766 0.950 . S
H757 C768 0.950 . S
H758 C770 0.950 . S
H759 C771 0.950 . S
C760 H752 0.950 . S
C760 C761 1.386 . S
C760 C762 1.391 . S
C761 C760 1.386 . S
C761 C765 1.393 . S
C762 H754 0.950 . S
C762 C760 1.391 . S
C762 C763 1.400 . S
C763 C762 1.400 . S
C763 C764 1.398 . S
C763 C769 1.491 . S
C764 H755 0.950 . S
C764 C763 1.398 . S
C764 C765 1.391 . S
C765 H753 0.950 . S
C765 C761 1.393 . S
C765 C764 1.391 . S
C766 H756 0.950 . S
C766 C767 1.386 . S
C766 C768 1.391 . S
C767 C766 1.386 . S
C767 C771 1.393 . S
C768 H757 0.950 . S
C768 C766 1.391 . S
C768 C769 1.400 . S
C769 C763 1.491 . S
C769 C768 1.400 . S
C769 C770 1.398 . S
C770 H758 0.950 . S
C770 C769 1.398 . S
C770 C771 1.391 . S
C771 H759 0.950 . S
C771 C767 1.393 . S
C771 C770 1.391 . S
H772 C780 0.950 . S
H773 C785 0.950 . S
H774 C782 0.950 . S
H775 C784 0.950 . S
H776 C786 0.950 . S
H777 C788 0.950 . S
H778 C790 0.950 . S
H779 C791 0.950 . S
C780 H772 0.950 . S
C780 C781 1.386 . S
C780 C782 1.391 . S
C781 C780 1.386 . S
C781 C785 1.393 . S
C782 H774 0.950 . S
C782 C780 1.391 . S
C782 C783 1.400 . S
C783 C782 1.400 . S
C783 C784 1.398 . S
C783 C789 1.491 . S
C784 H775 0.950 . S
C784 C783 1.398 . S
C784 C785 1.391 . S
C785 H773 0.950 . S
C785 C781 1.393 . S
C785 C784 1.391 . S
C786 H776 0.950 . S
C786 C787 1.386 . S
C786 C788 1.391 . S
C787 C786 1.386 . S
C787 C791 1.393 . S
C788 H777 0.950 . S
C788 C786 1.391 . S
C788 C789 1.400 . S
C789 C783 1.491 . S
C789 C788 1.400 . S
C789 C790 1.398 . S
C790 H778 0.950 . S
C790 C789 1.398 . S
C790 C791 1.391 . S
C791 H779 0.950 . S
C791 C787 1.393 . S
C791 C790 1.391 . S
H792 C800 0.950 . S
H793 C805 0.950 . S
H794 C802 0.950 . S
H795 C804 0.950 . S
H796 C806 0.950 . S
H797 C808 0.950 . S
H798 C810 0.950 . S
H799 C811 0.950 . S
C800 H792 0.950 . S
C800 C801 1.386 . S
C800 C802 1.391 . S
C801 C800 1.386 . S
C801 C805 1.393 . S
C802 H794 0.950 . S
C802 C800 1.391 . S
C802 C803 1.400 . S
C803 C802 1.400 . S
C803 C804 1.398 . S
C803 C809 1.491 . S
C804 H795 0.950 . S
C804 C803 1.398 . S
C804 C805 1.391 . S
C805 H793 0.950 . S
C805 C801 1.393 . S
C805 C804 1.391 . S
C806 H796 0.950 . S
C806 C807 1.386 . S
C806 C808 1.391 . S
C807 C806 1.386 . S
C807 C811 1.393 . S
C808 H797 0.950 . S
C808 C806 1.391 . S
C808 C809 1.400 . S
C809 C803 1.491 . S
C809 C808 1.400 . S
C809 C810 1.398 . S
C810 H798 0.950 . S
C810 C809 1.398 . S
C810 C811 1.391 . S
C811 H799 0.950 . S
C811 C807 1.393 . S
C811 C810 1.391 . S
H812 C820 0.950 . S
H813 C825 0.950 . S
H814 C822 0.950 . S
H815 C824 0.950 . S
H816 C826 0.950 . S
H817 C828 0.950 . S
H818 C830 0.950 . S
H819 C831 0.950 . S
C820 H812 0.950 . S
C820 C821 1.386 . S
C820 C822 1.391 . S
C821 C820 1.386 . S
C821 C825 1.393 . S
C822 H814 0.950 . S
C822 C820 1.391 . S
C822 C823 1.400 . S
C823 C822 1.400 . S
C823 C824 1.398 . S
C823 C829 1.491 . S
C824 H815 0.950 . S
C824 C823 1.398 . S
C824 C825 1.391 . S
C825 H813 0.950 . S
C825 C821 1.393 . S
C825 C824 1.391 . S
C826 H816 0.950 . S
C826 C827 1.386 . S
C826 C828 1.391 . S
C827 C826 1.386 . S
C827 C831 1.393 . S
C828 H817 0.950 . S
C828 C826 1.391 . S
C828 C829 1.400 . S
C829 C823 1.491 . S
C829 C828 1.400 . S
C829 C830 1.398 . S
C830 H818 0.950 . S
C830 C829 1.398 . S
C830 C831 1.391 . S
C831 H819 0.950 . S
C831 C827 1.393 . S
C831 C830 1.391 . S
H832 C840 0.950 . S
H833 C845 0.950 . S
H834 C842 0.950 . S
H835 C844 0.950 . S
H836 C846 0.950 . S
H837 C848 0.950 . S
H838 C850 0.950 . S
H839 C851 0.950 . S
C840 H832 0.950 . S
C840 C841 1.386 . S
C840 C842 1.391 . S
C841 C840 1.386 . S
C841 C845 1.393 . S
C842 H834 0.950 . S
C842 C840 1.391 . S
C842 C843 1.400 . S
C843 C842 1.400 . S
C843 C844 1.398 . S
C843 C849 1.491 1_455 S
C844 H835 0.950 . S
C844 C843 1.398 . S
C844 C845 1.391 . S
C845 H833 0.950 . S
C845 C841 1.393 . S
C845 C844 1.391 . S
C846 H836 0.950 . S
C846 C847 1.386 . S
C846 C848 1.391 . S
C847 C846 1.386 . S
C847 C851 1.393 . S
C848 H837 0.950 . S
C848 C846 1.391 . S
C848 C849 1.400 . S
C849 C843 1.491 1_655 S
C849 C848 1.400 . S
C849 C850 1.398 . S
C850 H838 0.950 . S
C850 C849 1.398 . S
C850 C851 1.391 . S
C851 H839 0.950 . S
C851 C847 1.393 . S
C851 C850 1.391 . S
H852 C860 0.950 . S
H853 C865 0.950 . S
H854 C862 0.950 . S
H855 C864 0.950 . S
H856 C866 0.950 . S
H857 C868 0.950 . S
H858 C870 0.950 . S
H859 C871 0.950 . S
C860 H852 0.950 . S
C860 C861 1.386 . S
C860 C862 1.391 . S
C861 C860 1.386 . S
C861 C865 1.393 . S
C862 H854 0.950 . S
C862 C860 1.391 . S
C862 C863 1.400 . S
C863 C862 1.400 . S
C863 C864 1.398 . S
C863 C869 1.491 . S
C864 H855 0.950 . S
C864 C863 1.398 . S
C864 C865 1.391 . S
C865 H853 0.950 . S
C865 C861 1.393 . S
C865 C864 1.391 . S
C866 H856 0.950 . S
C866 C867 1.386 . S
C866 C868 1.391 . S
C867 C866 1.386 . S
C867 C871 1.393 . S
C868 H857 0.950 . S
C868 C866 1.391 . S
C868 C869 1.400 . S
C869 C863 1.491 . S
C869 C868 1.400 . S
C869 C870 1.398 . S
C870 H858 0.950 . S
C870 C869 1.398 . S
C870 C871 1.391 . S
C871 H859 0.950 . S
C871 C867 1.393 . S
C871 C870 1.391 . S
H872 C880 0.950 . S
H873 C885 0.950 . S
H874 C882 0.950 . S
H875 C884 0.950 . S
H876 C886 0.950 . S
H877 C888 0.950 . S
H878 C890 0.950 . S
H879 C891 0.950 . S
C880 H872 0.950 . S
C880 C881 1.386 . S
C880 C882 1.391 . S
C881 C880 1.386 . S
C881 C885 1.393 . S
C882 H874 0.950 . S
C882 C880 1.391 . S
C882 C883 1.400 . S
C883 C882 1.400 . S
C883 C884 1.398 . S
C883 C889 1.491 1_655 S
C884 H875 0.950 . S
C884 C883 1.398 . S
C884 C885 1.391 . S
C885 H873 0.950 . S
C885 C881 1.393 . S
C885 C884 1.391 . S
C886 H876 0.950 . S
C886 C887 1.386 . S
C886 C888 1.391 . S
C887 C886 1.386 . S
C887 C891 1.393 . S
C888 H877 0.950 . S
C888 C886 1.391 . S
C888 C889 1.400 . S
C889 C883 1.491 1_455 S
C889 C888 1.400 . S
C889 C890 1.398 . S
C890 H878 0.950 . S
C890 C889 1.398 . S
C890 C891 1.391 . S
C891 H879 0.950 . S
C891 C887 1.393 . S
C891 C890 1.391 . S
H892 C900 0.950 . S
H893 C905 0.950 . S
H894 C902 0.950 . S
H895 C904 0.950 . S
H896 C906 0.950 . S
H897 C908 0.950 . S
H898 C910 0.950 . S
H899 C911 0.950 . S
C900 H892 0.950 . S
C900 C901 1.386 . S
C900 C902 1.391 . S
C901 C900 1.386 . S
C901 C905 1.393 . S
C902 H894 0.950 . S
C902 C900 1.391 . S
C902 C903 1.400 . S
C903 C902 1.400 . S
C903 C904 1.398 . S
C903 C909 1.491 . S
C904 H895 0.950 . S
C904 C903 1.398 . S
C904 C905 1.391 . S
C905 H893 0.950 . S
C905 C901 1.393 . S
C905 C904 1.391 . S
C906 H896 0.950 . S
C906 C907 1.386 . S
C906 C908 1.391 . S
C907 C906 1.386 . S
C907 C911 1.393 . S
C908 H897 0.950 . S
C908 C906 1.391 . S
C908 C909 1.400 . S
C909 C903 1.491 . S
C909 C908 1.400 . S
C909 C910 1.398 . S
C910 H898 0.950 . S
C910 C909 1.398 . S
C910 C911 1.391 . S
C911 H899 0.950 . S
C911 C907 1.393 . S
C911 C910 1.391 . S
H912 C920 0.950 . S
H913 C925 0.950 . S
H914 C922 0.950 . S
H915 C924 0.950 . S
H916 C926 0.950 . S
H917 C928 0.950 . S
H918 C930 0.950 . S
H919 C931 0.950 . S
C920 H912 0.950 . S
C920 C921 1.386 . S
C920 C922 1.391 . S
C921 C920 1.386 . S
C921 C925 1.393 . S
C922 H914 0.950 . S
C922 C920 1.391 . S
C922 C923 1.400 . S
C923 C922 1.400 . S
C923 C924 1.398 . S
C923 C929 1.491 . S
C924 H915 0.950 . S
C924 C923 1.398 . S
C924 C925 1.391 . S
C925 H913 0.950 . S
C925 C921 1.393 . S
C925 C924 1.391 . S
C926 H916 0.950 . S
C926 C927 1.386 . S
C926 C928 1.391 . S
C927 C926 1.386 . S
C927 C931 1.393 . S
C928 H917 0.950 . S
C928 C926 1.391 . S
C928 C929 1.400 . S
C929 C923 1.491 . S
C929 C928 1.400 . S
C929 C930 1.398 . S
C930 H918 0.950 . S
C930 C929 1.398 . S
C930 C931 1.391 . S
C931 H919 0.950 . S
C931 C927 1.393 . S
C931 C930 1.391 . S
H932 C940 0.950 . S
H933 C945 0.950 . S
H934 C942 0.950 . S
H935 C944 0.950 . S
H936 C946 0.950 . S
H937 C948 0.950 . S
H938 C950 0.950 . S
H939 C951 0.950 . S
C940 H932 0.950 . S
C940 C941 1.386 . S
C940 C942 1.391 . S
C941 C940 1.386 . S
C941 C945 1.393 . S
C942 H934 0.950 . S
C942 C940 1.391 . S
C942 C943 1.400 . S
C943 C942 1.400 . S
C943 C944 1.398 . S
C943 C949 1.491 1_655 S
C944 H935 0.950 . S
C944 C943 1.398 . S
C944 C945 1.391 . S
C945 H933 0.950 . S
C945 C941 1.393 . S
C945 C944 1.391 . S
C946 H936 0.950 . S
C946 C947 1.386 . S
C946 C948 1.391 . S
C947 C946 1.386 . S
C947 C951 1.393 . S
C948 H937 0.950 . S
C948 C946 1.391 . S
C948 C949 1.400 . S
C949 C943 1.491 1_455 S
C949 C948 1.400 . S
C949 C950 1.398 . S
C950 H938 0.950 . S
C950 C949 1.398 . S
C950 C951 1.391 . S
C951 H939 0.950 . S
C951 C947 1.393 . S
C951 C950 1.391 . S
H952 C960 0.950 . S
H953 C965 0.950 . S
H954 C962 0.950 . S
H955 C964 0.950 . S
H956 C966 0.950 . S
H957 C968 0.950 . S
H958 C970 0.950 . S
H959 C971 0.950 . S
C960 H952 0.950 . S
C960 C961 1.386 . S
C960 C962 1.391 . S
C961 C960 1.386 . S
C961 C965 1.393 . S
C962 H954 0.950 . S
C962 C960 1.391 . S
C962 C963 1.400 . S
C963 C962 1.400 . S
C963 C964 1.398 . S
C963 C969 1.491 . S
C964 H955 0.950 . S
C964 C963 1.398 . S
C964 C965 1.391 . S
C965 H953 0.950 . S
C965 C961 1.393 . S
C965 C964 1.391 . S
C966 H956 0.950 . S
C966 C967 1.386 . S
C966 C968 1.391 . S
C967 C966 1.386 . S
C967 C971 1.393 . S
C968 H957 0.950 . S
C968 C966 1.391 . S
C968 C969 1.400 . S
C969 C963 1.491 . S
C969 C968 1.400 . S
C969 C970 1.398 . S
C970 H958 0.950 . S
C970 C969 1.398 . S
C970 C971 1.391 . S
C971 H959 0.950 . S
C971 C967 1.393 . S
C971 C970 1.391 . S
H972 C980 0.950 . S
H973 C985 0.950 . S
H974 C982 0.950 . S
H975 C984 0.950 . S
H976 C986 0.950 . S
H977 C988 0.950 . S
H978 C990 0.950 . S
H979 C991 0.950 . S
C980 H972 0.950 . S
C980 C981 1.386 . S
C980 C982 1.391 . S
C981 C980 1.386 . S
C981 C985 1.393 . S
C982 H974 0.950 . S
C982 C980 1.391 . S
C982 C983 1.400 . S
C983 C982 1.400 . S
C983 C984 1.398 . S
C983 C989 1.491 1_455 S
C984 H975 0.950 . S
C984 C983 1.398 . S
C984 C985 1.391 . S
C985 H973 0.950 . S
C985 C981 1.393 . S
C985 C984 1.391 . S
C986 H976 0.950 . S
C986 C987 1.386 . S
C986 C988 1.391 . S
C987 C986 1.386 . S
C987 C991 1.393 . S
C988 H977 0.950 . S
C988 C986 1.391 . S
C988 C989 1.400 . S
C989 C983 1.491 1_655 S
C989 C988 1.400 . S
C989 C990 1.398 . S
C990 H978 0.950 . S
C990 C989 1.398 . S
C990 C991 1.391 . S
C991 H979 0.950 . S
C991 C987 1.393 . S
C991 C990 1.391 . S
H992 C1000 0.950 . S
H993 C1005 0.950 . S
H994 C1002 0.950 . S
H995 C1004 0.950 . S
H996 C1006 0.950 . S
H997 C1008 0.950 . S
H998 C1010 0.950 . S
H999 C1011 0.950 . S
C1000 H992 0.950 . S
C1000 C1001 1.386 1_556 S
C1000 C1002 1.391 . S
C1001 C1000 1.386 1_554 S
C1001 C1005 1.393 . S
C1002 H994 0.950 . S
C1002 C1000 1.391 . S
C1002 C1003 1.400 1_556 S
C1003 C1002 1.400 1_554 S
C1003 C1004 1.398 . S
C1003 C1009 1.491 1_544 S
C1004 H995 0.950 . S
C1004 C1003 1.398 . S
C1004 C1005 1.391 . S
C1005 H993 0.950 . S
C1005 C1001 1.393 . S
C1005 C1004 1.391 . S
C1006 H996 0.950 . S
C1006 C1007 1.386 1_554 S
C1006 C1008 1.391 . S
C1007 C1006 1.386 1_556 S
C1007 C1011 1.393 . S
C1008 H997 0.950 . S
C1008 C1006 1.391 . S
C1008 C1009 1.400 1_554 S
C1009 C1003 1.491 1_566 S
C1009 C1008 1.400 1_556 S
C1009 C1010 1.398 . S
C1010 H998 0.950 . S
C1010 C1009 1.398 . S
C1010 C1011 1.391 . S
C1011 H999 0.950 . S
C1011 C1007 1.393 . S
C1011 C1010 1.391 . S
H1012 C1020 0.950 . S
H1013 C1025 0.950 . S
H1014 C1022 0.950 . S
H1015 C1024 0.950 . S
H1016 C1026 0.950 . S
H1017 C1028 0.950 . S
H1018 C1030 0.950 . S
H1019 C1031 0.950 . S
C1020 H1012 0.950 . S
C1020 C1021 1.386 . S
C1020 C1022 1.391 . S
C1021 C1020 1.386 . S
C1021 C1025 1.393 . S
C1022 H1014 0.950 . S
C1022 C1020 1.391 . S
C1022 C1023 1.400 . S
C1023 C1022 1.400 . S
C1023 C1024 1.398 . S
C1023 C1029 1.491 1_565 S
C1024 H1015 0.950 . S
C1024 C1023 1.398 . S
C1024 C1025 1.391 . S
C1025 H1013 0.950 . S
C1025 C1021 1.393 . S
C1025 C1024 1.391 . S
C1026 H1016 0.950 . S
C1026 C1027 1.386 . S
C1026 C1028 1.391 . S
C1027 C1026 1.386 . S
C1027 C1031 1.393 . S
C1028 H1017 0.950 . S
C1028 C1026 1.391 . S
C1028 C1029 1.400 . S
C1029 C1023 1.491 1_545 S
C1029 C1028 1.400 . S
C1029 C1030 1.398 . S
C1030 H1018 0.950 . S
C1030 C1029 1.398 . S
C1030 C1031 1.391 . S
C1031 H1019 0.950 . S
C1031 C1027 1.393 . S
C1031 C1030 1.391 . S
H1032 C1040 0.950 . S
H1033 C1045 0.950 . S
H1034 C1042 0.950 . S
H1035 C1044 0.950 . S
H1036 C1046 0.950 . S
H1037 C1048 0.950 . S
H1038 C1050 0.950 . S
H1039 C1051 0.950 . S
C1040 H1032 0.950 . S
C1040 C1041 1.386 . S
C1040 C1042 1.391 . S
C1041 C1040 1.386 . S
C1041 C1045 1.393 1_554 S
C1042 H1034 0.950 . S
C1042 C1040 1.391 . S
C1042 C1043 1.400 . S
C1043 C1042 1.400 . S
C1043 C1044 1.398 1_554 S
C1043 C1049 1.491 1_544 S
C1044 H1035 0.950 . S
C1044 C1043 1.398 1_556 S
C1044 C1045 1.391 . S
C1045 H1033 0.950 . S
C1045 C1041 1.393 1_556 S
C1045 C1044 1.391 . S
C1046 H1036 0.950 . S
C1046 C1047 1.386 . S
C1046 C1048 1.391 . S
C1047 C1046 1.386 . S
C1047 C1051 1.393 1_556 S
C1048 H1037 0.950 . S
C1048 C1046 1.391 . S
C1048 C1049 1.400 . S
C1049 C1043 1.491 1_566 S
C1049 C1048 1.400 . S
C1049 C1050 1.398 1_556 S
C1050 H1038 0.950 . S
C1050 C1049 1.398 1_554 S
C1050 C1051 1.391 . S
C1051 H1039 0.950 . S
C1051 C1047 1.393 1_554 S
C1051 C1050 1.391 . S
H1052 C1060 0.950 . S
H1053 C1065 0.950 . S
H1054 C1062 0.950 . S
H1055 C1064 0.950 . S
H1056 C1066 0.950 . S
H1057 C1068 0.950 . S
H1058 C1070 0.950 . S
H1059 C1071 0.950 . S
C1060 H1052 0.950 . S
C1060 C1061 1.386 . S
C1060 C1062 1.391 . S
C1061 C1060 1.386 . S
C1061 C1065 1.393 . S
C1062 H1054 0.950 . S
C1062 C1060 1.391 . S
C1062 C1063 1.400 . S
C1063 C1062 1.400 . S
C1063 C1064 1.398 . S
C1063 C1069 1.491 1_545 S
C1064 H1055 0.950 . S
C1064 C1063 1.398 . S
C1064 C1065 1.391 . S
C1065 H1053 0.950 . S
C1065 C1061 1.393 . S
C1065 C1064 1.391 . S
C1066 H1056 0.950 . S
C1066 C1067 1.386 . S
C1066 C1068 1.391 . S
C1067 C1066 1.386 . S
C1067 C1071 1.393 . S
C1068 H1057 0.950 . S
C1068 C1066 1.391 . S
C1068 C1069 1.400 . S
C1069 C1063 1.491 1_565 S
C1069 C1068 1.400 . S
C1069 C1070 1.398 . S
C1070 H1058 0.950 . S
C1070 C1069 1.398 . S
C1070 C1071 1.391 . S
C1071 H1059 0.950 . S
C1071 C1067 1.393 . S
C1071 C1070 1.391 . S
H1072 C1080 0.950 . S
H1073 C1085 0.950 . S
H1074 C1082 0.950 . S
H1075 C1084 0.950 . S
H1076 C1086 0.950 . S
H1077 C1088 0.950 . S
H1078 C1090 0.950 . S
H1079 C1091 0.950 . S
C1080 H1072 0.950 . S
C1080 C1081 1.386 1_556 S
C1080 C1082 1.391 . S
C1081 C1080 1.386 1_554 S
C1081 C1085 1.393 . S
C1082 H1074 0.950 . S
C1082 C1080 1.391 . S
C1082 C1083 1.400 1_556 S
C1083 C1082 1.400 1_554 S
C1083 C1084 1.398 . S
C1083 C1089 1.491 1_554 S
C1084 H1075 0.950 . S
C1084 C1083 1.398 . S
C1084 C1085 1.391 . S
C1085 H1073 0.950 . S
C1085 C1081 1.393 . S
C1085 C1084 1.391 . S
C1086 H1076 0.950 . S
C1086 C1087 1.386 1_554 S
C1086 C1088 1.391 . S
C1087 C1086 1.386 1_556 S
C1087 C1091 1.393 . S
C1088 H1077 0.950 . S
C1088 C1086 1.391 . S
C1088 C1089 1.400 1_554 S
C1089 C1083 1.491 1_556 S
C1089 C1088 1.400 1_556 S
C1089 C1090 1.398 . S
C1090 H1078 0.950 . S
C1090 C1089 1.398 . S
C1090 C1091 1.391 . S
C1091 H1079 0.950 . S
C1091 C1087 1.393 . S
C1091 C1090 1.391 . S
H1092 C1100 0.950 . S
H1093 C1105 0.950 . S
H1094 C1102 0.950 . S
H1095 C1104 0.950 . S
H1096 C1106 0.950 . S
H1097 C1108 0.950 . S
H1098 C1110 0.950 . S
H1099 C1111 0.950 . S
C1100 H1092 0.950 . S
C1100 C1101 1.386 . S
C1100 C1102 1.391 . S
C1101 C1100 1.386 . S
C1101 C1105 1.393 . S
C1102 H1094 0.950 . S
C1102 C1100 1.391 . S
C1102 C1103 1.400 . S
C1103 C1102 1.400 . S
C1103 C1104 1.398 . S
C1103 C1109 1.491 . S
C1104 H1095 0.950 . S
C1104 C1103 1.398 . S
C1104 C1105 1.391 . S
C1105 H1093 0.950 . S
C1105 C1101 1.393 . S
C1105 C1104 1.391 . S
C1106 H1096 0.950 . S
C1106 C1107 1.386 . S
C1106 C1108 1.391 . S
C1107 C1106 1.386 . S
C1107 C1111 1.393 . S
C1108 H1097 0.950 . S
C1108 C1106 1.391 . S
C1108 C1109 1.400 . S
C1109 C1103 1.491 . S
C1109 C1108 1.400 . S
C1109 C1110 1.398 . S
C1110 H1098 0.950 . S
C1110 C1109 1.398 . S
C1110 C1111 1.391 . S
C1111 H1099 0.950 . S
C1111 C1107 1.393 . S
C1111 C1110 1.391 . S
H1112 C1120 0.950 . S
H1113 C1125 0.950 . S
H1114 C1122 0.951 . S
H1115 C1124 0.950 . S
H1116 C1126 0.950 . S
H1117 C1128 0.951 . S
H1118 C1130 0.950 . S
H1119 C1131 0.950 . S
C1120 H1112 0.950 . S
C1120 C1121 1.386 . S
C1120 C1122 1.390 1_556 S
C1121 C1120 1.386 . S
C1121 C1125 1.393 . S
C1122 H1114 0.951 . S
C1122 C1120 1.390 1_554 S
C1122 C1123 1.400 1_554 S
C1123 C1122 1.400 1_556 S
C1123 C1124 1.398 . S
C1123 C1129 1.491 1_556 S
C1124 H1115 0.950 . S
C1124 C1123 1.398 . S
C1124 C1125 1.391 . S
C1125 H1113 0.950 . S
C1125 C1121 1.393 . S
C1125 C1124 1.391 . S
C1126 H1116 0.950 . S
C1126 C1127 1.386 . S
C1126 C1128 1.390 1_554 S
C1127 C1126 1.386 . S
C1127 C1131 1.393 . S
C1128 H1117 0.951 . S
C1128 C1126 1.390 1_556 S
C1128 C1129 1.400 1_556 S
C1129 C1123 1.491 1_554 S
C1129 C1128 1.400 1_554 S
C1129 C1130 1.398 . S
C1130 H1118 0.950 . S
C1130 C1129 1.398 . S
C1130 C1131 1.391 . S
C1131 H1119 0.950 . S
C1131 C1127 1.393 . S
C1131 C1130 1.391 . S
H1132 C1140 0.950 . S
H1133 C1145 0.950 . S
H1134 C1142 0.950 . S
H1135 C1144 0.950 . S
H1136 C1146 0.950 . S
H1137 C1148 0.950 . S
H1138 C1150 0.950 . S
H1139 C1151 0.950 . S
C1140 H1132 0.950 . S
C1140 C1141 1.386 . S
C1140 C1142 1.391 . S
C1141 C1140 1.386 . S
C1141 C1145 1.393 . S
C1142 H1134 0.950 . S
C1142 C1140 1.391 . S
C1142 C1143 1.400 . S
C1143 C1142 1.400 . S
C1143 C1144 1.398 . S
C1143 C1149 1.491 . S
C1144 H1135 0.950 . S
C1144 C1143 1.398 . S
C1144 C1145 1.391 . S
C1145 H1133 0.950 . S
C1145 C1141 1.393 . S
C1145 C1144 1.391 . S
C1146 H1136 0.950 . S
C1146 C1147 1.386 . S
C1146 C1148 1.391 . S
C1147 C1146 1.386 . S
C1147 C1151 1.393 . S
C1148 H1137 0.950 . S
C1148 C1146 1.391 . S
C1148 C1149 1.400 . S
C1149 C1143 1.491 . S
C1149 C1148 1.400 . S
C1149 C1150 1.398 . S
C1150 H1138 0.950 . S
C1150 C1149 1.398 . S
C1150 C1151 1.391 . S
C1151 H1139 0.950 . S
C1151 C1147 1.393 . S
C1151 C1150 1.391 . S
H1152 C1160 0.950 . S
H1153 C1165 0.950 . S
H1154 C1162 0.950 . S
H1155 C1164 0.950 . S
H1156 C1166 0.950 . S
H1157 C1168 0.950 . S
H1158 C1170 0.950 . S
H1159 C1171 0.950 . S
C1160 H1152 0.950 . S
C1160 C1161 1.386 . S
C1160 C1162 1.391 1_554 S
C1161 C1160 1.386 . S
C1161 C1165 1.393 . S
C1162 H1154 0.950 . S
C1162 C1160 1.391 1_556 S
C1162 C1163 1.400 1_556 S
C1163 C1162 1.400 1_554 S
C1163 C1164 1.398 . S
C1163 C1169 1.491 1_554 S
C1164 H1155 0.950 . S
C1164 C1163 1.398 . S
C1164 C1165 1.391 . S
C1165 H1153 0.950 . S
C1165 C1161 1.393 . S
C1165 C1164 1.391 . S
C1166 H1156 0.950 . S
C1166 C1167 1.386 . S
C1166 C1168 1.391 1_556 S
C1167 C1166 1.386 . S
C1167 C1171 1.393 . S
C1168 H1157 0.950 . S
C1168 C1166 1.391 1_554 S
C1168 C1169 1.400 1_554 S
C1169 C1163 1.491 1_556 S
C1169 C1168 1.400 1_556 S
C1169 C1170 1.398 . S
C1170 H1158 0.950 . S
C1170 C1169 1.398 . S
C1170 C1171 1.391 . S
C1171 H1159 0.950 . S
C1171 C1167 1.393 . S
C1171 C1170 1.391 . S
H1172 C1180 0.950 . S
H1173 C1185 0.950 . S
H1174 C1182 0.950 . S
H1175 C1184 0.950 . S
H1176 C1186 0.950 . S
H1177 C1188 0.950 . S
H1178 C1190 0.950 . S
H1179 C1191 0.950 . S
C1180 H1172 0.950 . S
C1180 C1181 1.386 . S
C1180 C1182 1.391 . S
C1181 C1180 1.386 . S
C1181 C1185 1.393 . S
C1182 H1174 0.950 . S
C1182 C1180 1.391 . S
C1182 C1183 1.400 . S
C1183 C1182 1.400 . S
C1183 C1184 1.398 . S
C1183 C1189 1.491 . S
C1184 H1175 0.950 . S
C1184 C1183 1.398 . S
C1184 C1185 1.391 . S
C1185 H1173 0.950 . S
C1185 C1181 1.393 . S
C1185 C1184 1.391 . S
C1186 H1176 0.950 . S
C1186 C1187 1.386 . S
C1186 C1188 1.391 . S
C1187 C1186 1.386 . S
C1187 C1191 1.393 . S
C1188 H1177 0.950 . S
C1188 C1186 1.391 . S
C1188 C1189 1.400 . S
C1189 C1183 1.491 . S
C1189 C1188 1.400 . S
C1189 C1190 1.398 . S
C1190 H1178 0.950 . S
C1190 C1189 1.398 . S
C1190 C1191 1.391 . S
C1191 H1179 0.950 . S
C1191 C1187 1.393 . S
C1191 C1190 1.391 . S
H1192 C1200 0.950 . S
H1193 C1205 0.950 . S
H1194 C1202 0.950 . S
H1195 C1204 0.954 . S
H1196 C1206 0.950 . S
H1197 C1208 0.950 . S
H1198 C1210 0.954 . S
H1199 C1211 0.950 . S
C1200 H1192 0.950 . S
C1200 C1201 1.386 . S
C1200 C1202 1.391 . S
C1201 C1200 1.386 . S
C1201 C1205 1.393 . S
C1202 H1194 0.950 . S
C1202 C1200 1.391 . S
C1202 C1203 1.400 . S
C1203 C1202 1.400 . S
C1203 C1204 1.397 1_556 S
C1203 C1209 1.491 1_556 S
C1204 H1195 0.954 . S
C1204 C1203 1.397 1_554 S
C1204 C1205 1.388 1_554 S
C1205 H1193 0.950 . S
C1205 C1201 1.393 . S
C1205 C1204 1.388 1_556 S
C1206 H1196 0.950 . S
C1206 C1207 1.386 . S
C1206 C1208 1.391 . S
C1207 C1206 1.386 . S
C1207 C1211 1.393 . S
C1208 H1197 0.950 . S
C1208 C1206 1.391 . S
C1208 C1209 1.400 . S
C1209 C1203 1.491 1_554 S
C1209 C1208 1.400 . S
C1209 C1210 1.397 1_554 S
C1210 H1198 0.954 . S
C1210 C1209 1.397 1_556 S
C1210 C1211 1.388 1_556 S
C1211 H1199 0.950 . S
C1211 C1207 1.393 . S
C1211 C1210 1.388 1_554 S
H1212 C1220 0.950 . S
H1213 C1225 0.950 . S
H1214 C1222 0.950 . S
H1215 C1224 0.950 . S
H1216 C1226 0.950 . S
H1217 C1228 0.950 . S
H1218 C1230 0.950 . S
H1219 C1231 0.950 . S
C1220 H1212 0.950 . S
C1220 C1221 1.386 . S
C1220 C1222 1.391 . S
C1221 C1220 1.386 . S
C1221 C1225 1.393 . S
C1222 H1214 0.950 . S
C1222 C1220 1.391 . S
C1222 C1223 1.400 . S
C1223 C1222 1.400 . S
C1223 C1224 1.398 . S
C1223 C1229 1.491 . S
C1224 H1215 0.950 . S
C1224 C1223 1.398 . S
C1224 C1225 1.391 . S
C1225 H1213 0.950 . S
C1225 C1221 1.393 . S
C1225 C1224 1.391 . S
C1226 H1216 0.950 . S
C1226 C1227 1.386 . S
C1226 C1228 1.391 . S
C1227 C1226 1.386 . S
C1227 C1231 1.393 . S
C1228 H1217 0.950 . S
C1228 C1226 1.391 . S
C1228 C1229 1.400 . S
C1229 C1223 1.491 . S
C1229 C1228 1.400 . S
C1229 C1230 1.398 . S
C1230 H1218 0.950 . S
C1230 C1229 1.398 . S
C1230 C1231 1.391 . S
C1231 H1219 0.950 . S
C1231 C1227 1.393 . S
C1231 C1230 1.391 . S
H1232 C1240 0.950 . S
H1233 C1245 0.950 1_554 S
H1234 C1242 0.950 . S
H1235 C1244 0.950 . S
H1236 C1246 0.950 . S
H1237 C1248 0.950 . S
H1238 C1250 0.950 . S
H1239 C1251 0.950 1_556 S
C1240 H1232 0.950 . S
C1240 C1241 1.386 . S
C1240 C1242 1.391 . S
C1241 C1240 1.386 . S
C1241 C1245 1.393 . S
C1242 H1234 0.950 . S
C1242 C1240 1.391 . S
C1242 C1243 1.400 . S
C1243 C1242 1.400 . S
C1243 C1244 1.398 1_556 S
C1243 C1249 1.491 1_556 S
C1244 H1235 0.950 . S
C1244 C1243 1.398 1_554 S
C1244 C1245 1.391 1_554 S
C1245 H1233 0.950 1_556 S
C1245 C1241 1.393 . S
C1245 C1244 1.391 1_556 S
C1246 H1236 0.950 . S
C1246 C1247 1.386 . S
C1246 C1248 1.391 . S
C1247 C1246 1.386 . S
C1247 C1251 1.393 . S
C1248 H1237 0.950 . S
C1248 C1246 1.391 . S
C1248 C1249 1.400 . S
C1249 C1243 1.491 1_554 S
C1249 C1248 1.400 . S
C1249 C1250 1.398 1_554 S
C1250 H1238 0.950 . S
C1250 C1249 1.398 1_556 S
C1250 C1251 1.391 1_556 S
C1251 H1239 0.950 1_554 S
C1251 C1247 1.393 . S
C1251 C1250 1.391 1_554 S
H1252 C1260 0.950 . S
H1253 C1265 0.950 . S
H1254 C1262 0.950 . S
H1255 C1264 0.950 . S
H1256 C1266 0.950 . S
H1257 C1268 0.950 . S
H1258 C1270 0.950 . S
H1259 C1271 0.950 . S
C1260 H1252 0.950 . S
C1260 C1261 1.386 . S
C1260 C1262 1.391 . S
C1261 C1260 1.386 . S
C1261 C1265 1.393 . S
C1262 H1254 0.950 . S
C1262 C1260 1.391 . S
C1262 C1263 1.400 . S
C1263 C1262 1.400 . S
C1263 C1264 1.398 . S
C1263 C1269 1.491 . S
C1264 H1255 0.950 . S
C1264 C1263 1.398 . S
C1264 C1265 1.391 . S
C1265 H1253 0.950 . S
C1265 C1261 1.393 . S
C1265 C1264 1.391 . S
C1266 H1256 0.950 . S
C1266 C1267 1.386 . S
C1266 C1268 1.391 . S
C1267 C1266 1.386 . S
C1267 C1271 1.393 . S
C1268 H1257 0.950 . S
C1268 C1266 1.391 . S
C1268 C1269 1.400 . S
C1269 C1263 1.491 . S
C1269 C1268 1.400 . S
C1269 C1270 1.398 . S
C1270 H1258 0.950 . S
C1270 C1269 1.398 . S
C1270 C1271 1.391 . S
C1271 H1259 0.950 . S
C1271 C1267 1.393 . S
C1271 C1270 1.391 . S
H1272 C1280 0.950 1_554 S
H1273 C1285 0.950 . S
H1274 C1282 0.950 . S
H1275 C1284 0.950 . S
H1276 C1286 0.950 1_556 S
H1277 C1288 0.950 . S
H1278 C1290 0.950 . S
H1279 C1291 0.950 . S
C1280 H1272 0.950 1_556 S
C1280 C1281 1.386 . S
C1280 C1282 1.391 1_556 S
C1281 C1280 1.386 . S
C1281 C1285 1.393 . S
C1282 H1274 0.950 . S
C1282 C1280 1.391 1_554 S
C1282 C1283 1.400 1_554 S
C1283 C1282 1.400 1_556 S
C1283 C1284 1.398 . S
C1283 C1289 1.491 1_556 S
C1284 H1275 0.950 . S
C1284 C1283 1.398 . S
C1284 C1285 1.391 . S
C1285 H1273 0.950 . S
C1285 C1281 1.393 . S
C1285 C1284 1.391 . S
C1286 H1276 0.950 1_554 S
C1286 C1287 1.386 . S
C1286 C1288 1.391 1_554 S
C1287 C1286 1.386 . S
C1287 C1291 1.393 . S
C1288 H1277 0.950 . S
C1288 C1286 1.391 1_556 S
C1288 C1289 1.400 1_556 S
C1289 C1283 1.491 1_554 S
C1289 C1288 1.400 1_554 S
C1289 C1290 1.398 . S
C1290 H1278 0.950 . S
C1290 C1289 1.398 . S
C1290 C1291 1.391 . S
C1291 H1279 0.950 . S
C1291 C1287 1.393 . S
C1291 C1290 1.391 . S
H1292 C1300 0.950 . S
H1293 C1305 0.950 . S
H1294 C1302 0.950 . S
H1295 C1304 0.950 . S
H1296 C1306 0.950 . S
H1297 C1308 0.950 . S
H1298 C1310 0.950 . S
H1299 C1311 0.950 . S
C1300 H1292 0.950 . S
C1300 C1301 1.386 . S
C1300 C1302 1.391 . S
C1301 C1300 1.386 . S
C1301 C1305 1.393 . S
C1302 H1294 0.950 . S
C1302 C1300 1.391 . S
C1302 C1303 1.400 . S
C1303 C1302 1.400 . S
C1303 C1304 1.398 . S
C1303 C1309 1.491 . S
C1304 H1295 0.950 . S
C1304 C1303 1.398 . S
C1304 C1305 1.391 . S
C1305 H1293 0.950 . S
C1305 C1301 1.393 . S
C1305 C1304 1.391 . S
C1306 H1296 0.950 . S
C1306 C1307 1.386 . S
C1306 C1308 1.391 . S
C1307 C1306 1.386 . S
C1307 C1311 1.393 . S
C1308 H1297 0.950 . S
C1308 C1306 1.391 . S
C1308 C1309 1.400 . S
C1309 C1303 1.491 . S
C1309 C1308 1.400 . S
C1309 C1310 1.398 . S
C1310 H1298 0.950 . S
C1310 C1309 1.398 . S
C1310 C1311 1.391 . S
C1311 H1299 0.950 . S
C1311 C1307 1.393 . S
C1311 C1310 1.391 . S
C361 C8 1.577 . S
C367 C70 1.580 . S
C381 C52 1.578 . S
C387 C30 1.581 . S
C401 C158 1.579 . S
C407 C96 1.577 . S
C421 C114 1.579 . S
C427 C136 1.577 . S
C441 C246 1.577 . S
C447 C184 1.580 . S
C461 C228 1.580 . S
C467 C206 1.580 . S
C481 C272 1.577 . S
C487 C334 1.579 . S
C501 C312 1.579 . S
C507 C290 1.580 . S
C521 C5 1.479 . S
C527 C336 1.605 . S
C541 C27 1.507 . S
C547 C314 1.604 . S
C561 C292 1.609 . S
C567 C49 1.506 . S
C581 C271 1.607 . S
C587 C75 1.511 . S
C601 C94 1.490 . S
C607 C247 1.608 . S
C621 C117 1.505 . S
C627 C229 1.603 . S
C641 C207 1.606 . S
C647 C139 1.511 . S
C661 C185 1.601 . S
C667 C161 1.493 . S
C681 C181 1.511 . S
C687 C160 1.606 . S
C701 C203 1.493 . S
C707 C138 1.601 . S
C721 C225 1.478 . S
C727 C116 1.604 . S
C741 C251 1.487 . S
C747 C95 1.600 . S
C761 C71 1.608 . S
C767 C270 1.510 . S
C781 C53 1.603 . S
C787 C293 1.477 . S
C801 C315 1.479 . S
C807 C31 1.601 . S
C821 C337 1.507 . S
C827 C9 1.604 . S
C841 C6 1.426 . S
C847 C141 1.443 . S
C861 C28 1.437 . S
C867 C163 1.432 . S
C881 C93 1.443 . S
C887 C50 1.426 . S
C901 C73 1.426 . S
C907 C119 1.443 . S
C921 C182 1.428 . S
C927 C317 1.441 . S
C941 C204 1.426 . S
C947 C339 1.443 . S
C961 C226 1.436 . S
C967 C269 1.434 . S
C981 C295 1.440 . S
C987 C249 1.430 . S
C1001 C4 1.519 . S
C1007 C48 1.535 . S
C1021 C26 1.535 . S
C1027 C74 1.520 . S
C1041 C140 1.514 . S
C1047 C92 1.529 . S
C1061 C118 1.523 . S
C1067 C162 1.535 . S
C1081 C180 1.515 . S
C1087 C224 1.525 . S
C1101 C250 1.520 . S
C1107 C202 1.517 . S
C1121 C268 1.534 . S
C1127 C316 1.527 . S
C1141 C294 1.535 . S
C1147 C338 1.521 . S
C1161 C7 0.954 . S
C1167 C273 0.954 . S
C1181 C29 0.954 . S
C1187 C291 0.954 . S
C1201 C51 0.902 . S
C1207 C313 0.902 . S
C1221 C72 0.953 . S
C1227 C335 0.953 . S
C1241 C97 0.952 . S
C1247 C183 0.952 . S
C1261 C205 0.953 . S
C1267 C115 0.953 . S
C1281 C227 0.931 . S
C1287 C137 0.931 . S
C1301 C248 0.921 . S
C1307 C159 0.921 . S
