# Generated by pormake.
# Topology afw, (4)-cn, num edge types: 1
# Building blocks:
#     Node 0, Type 0, BuildingBlock: UXUYUI_clean_sbu_0, # of connection points: 4
#     Node 1, Type 0, BuildingBlock: UXUYUI_clean_sbu_0, # of connection points: 4
#     Node 2, Type 0, BuildingBlock: UXUYUI_clean_sbu_0, # of connection points: 4
#     Node 3, Type 0, BuildingBlock: UXUYUI_clean_sbu_0, # of connection points: 4
#     Node 4, Type 0, BuildingBlock: UXUYUI_clean_sbu_0, # of connection points: 4
#     Node 5, Type 0, BuildingBlock: UXUYUI_clean_sbu_0, # of connection points: 4
#     Node 6, Type 0, BuildingBlock: UXUYUI_clean_sbu_0, # of connection points: 4
#     Node 7, Type 0, BuildingBlock: UXUYUI_clean_sbu_0, # of connection points: 4
#     Node 8, Type 0, BuildingBlock: UXUYUI_clean_sbu_0, # of connection points: 4
#     Edge 9, Type (0, 0), BuildingBlock: CIFDUS_clean_linker_0, # of connection points: 2
#     Edge 10, Type (0, 0), BuildingBlock: CIFDUS_clean_linker_0, # of connection points: 2
#     Edge 11, Type (0, 0), BuildingBlock: CIFDUS_clean_linker_0, # of connection points: 2
#     Edge 12, Type (0, 0), BuildingBlock: CIFDUS_clean_linker_0, # of connection points: 2
#     Edge 13, Type (0, 0), BuildingBlock: CIFDUS_clean_linker_0, # of connection points: 2
#     Edge 14, Type (0, 0), BuildingBlock: CIFDUS_clean_linker_0, # of connection points: 2
#     Edge 15, Type (0, 0), BuildingBlock: CIFDUS_clean_linker_0, # of connection points: 2
#     Edge 16, Type (0, 0), BuildingBlock: CIFDUS_clean_linker_0, # of connection points: 2
#     Edge 17, Type (0, 0), BuildingBlock: CIFDUS_clean_linker_0, # of connection points: 2
#     Edge 18, Type (0, 0), BuildingBlock: CIFDUS_clean_linker_0, # of connection points: 2
#     Edge 19, Type (0, 0), BuildingBlock: CIFDUS_clean_linker_0, # of connection points: 2
#     Edge 20, Type (0, 0), BuildingBlock: CIFDUS_clean_linker_0, # of connection points: 2
#     Edge 21, Type (0, 0), BuildingBlock: CIFDUS_clean_linker_0, # of connection points: 2
#     Edge 22, Type (0, 0), BuildingBlock: CIFDUS_clean_linker_0, # of connection points: 2
#     Edge 23, Type (0, 0), BuildingBlock: CIFDUS_clean_linker_0, # of connection points: 2
#     Edge 24, Type (0, 0), BuildingBlock: CIFDUS_clean_linker_0, # of connection points: 2
#     Edge 25, Type (0, 0), BuildingBlock: CIFDUS_clean_linker_0, # of connection points: 2
#     Edge 26, Type (0, 0), BuildingBlock: CIFDUS_clean_linker_0, # of connection points: 2
# Relax obj value: 0.350
# Max RMSD: 0.270
# Mean RMSD: 0.270
data_MOF--net-afw--node1-UXUYUI_clean_sbu_0--edge1-CIFDUS_clean_linker_0
_symmetry_space_group_name_H-M    P1
_symmetry_Int_Tables_number       1
_symmetry_cell_setting            triclinic
loop_
_symmetry_equiv_pos_as_xyz
'x, y, z'
_cell_length_a     52.783412
_cell_length_b     52.762226
_cell_length_c     49.429897
_cell_angle_alpha  89.988208
_cell_angle_beta   89.966032
_cell_angle_gamma 120.01951
loop_
_atom_site_label
_atom_site_type_symbol
_atom_site_fract_x
_atom_site_fract_y
_atom_site_fract_z
_atom_type_partial_charge
Li0 Li 0.01523 0.24499 0.02486 0.0
Li1 Li 0.98738 0.20535 0.99397 0.0
Li2 Li 0.0392 0.22063 0.00117 0.0
Li3 Li 0.02329 0.24957 0.97584 0.0
C4 C 0.98823 0.17725 0.03822 0.0
N5 N 0.9486 0.12171 0.05648 0.0
C6 C 0.98613 0.15263 0.02541 0.0
C7 C 0.9702 0.1736 0.06035 0.0
C8 C 0.96591 0.12474 0.03491 0.0
C9 C 0.95033 0.14534 0.06929 0.0
C10 C 0.95948 0.2354 -0.00218 0.0
C11 C 0.91263 0.2192 0.97672 0.0
N12 N 0.90097 0.21902 0.00131 0.0
C13 C 0.94703 0.23516 0.02287 0.0
C14 C 0.94217 0.2275 0.97453 0.0
C15 C 0.91742 0.2268 0.02421 0.0
C16 C 0.01499 0.28999 0.05455 0.0
N17 N 0.01623 0.26498 0.05684 0.0
C18 C 0.01534 0.26722 0.10501 0.0
C19 C 0.01714 0.25381 0.08134 0.0
C20 C 0.01256 0.2923 0.1033 0.0
C21 C 0.01305 0.30407 0.07767 0.0
H22 H 0.01454 0.29841 0.0347 0.0
H23 H 0.01852 0.23408 0.08249 0.0
C24 C 0.948 0.1525 0.96815 0.0
N25 N 0.94998 0.17071 0.98852 0.0
C26 C 0.92402 0.12421 0.96661 0.0
C27 C 0.90376 0.13432 0.00625 0.0
C28 C 0.92801 0.16251 0.00688 0.0
C29 C 0.90211 0.11448 0.98647 0.0
H30 H 0.96597 0.15912 0.95419 0.0
H31 H 0.93027 0.17697 0.02329 0.0
C32 C 0.07657 0.27646 0.02184 0.0
N33 N 0.12368 0.30341 0.05664 0.0
C34 C 0.09987 0.30434 0.01587 0.0
C35 C 0.07724 0.26226 0.04547 0.0
C36 C 0.12349 0.31761 0.03373 0.0
C37 C 0.10124 0.27625 0.06282 0.0
C38 C 0.02018 0.21264 0.93953 0.0
C39 C 0.04558 0.21607 0.9273 0.0
C40 C -0.00168 0.21259 0.92354 0.0
C41 C 0.04896 0.22001 0.8993 0.0
C42 C 0.00253 0.21664 0.89562 0.0
N43 N 0.02758 0.22028 0.88418 0.0
C44 C 0.06418 0.18999 0.02525 0.0
C45 C 0.09288 0.22223 0.99018 0.0
C46 C 0.08455 0.18089 0.02901 0.0
N47 N 0.06831 0.20978 0.00569 0.0
C48 C 0.11394 0.21374 0.99324 0.0
C49 C 0.10972 0.19254 0.0127 0.0
H50 H 0.04503 0.1812 0.038 0.0
H51 H 0.09612 0.23874 0.97544 0.0
C52 C 0.0157 0.28441 0.93671 0.0
N53 N 0.03463 0.27648 0.94687 0.0
C54 C 0.02397 0.30375 0.91491 0.0
C55 C 0.07118 0.30666 0.91482 0.0
C56 C 0.06202 0.28732 0.93664 0.0
C57 C 0.05201 0.31504 0.90361 0.0
H58 H 0.99418 0.27568 0.9455 0.0
H59 H 0.07657 0.28061 0.94527 0.0
O60 O 0.00743 0.20472 0.0288 0.0
O61 O 0.98851 0.24372 0.99606 0.0
O62 O 0.05341 0.26323 0.00442 0.0
O63 O 0.01673 0.20948 0.967 0.0
H64 H -0.00036 0.15505 0.00802 0.0
H65 H 0.97115 0.19234 0.07024 0.0
H66 H 0.96388 0.10551 0.02504 0.0
H67 H 0.93614 0.14218 0.08629 0.0
H68 H 0.89897 0.21291 0.95887 0.0
H69 H 0.95989 0.24091 0.04118 0.0
H70 H 0.95137 0.22767 0.95495 0.0
H71 H 0.90749 0.22636 0.04349 0.0
H72 H 0.01478 0.2573 0.12434 0.0
H73 H 0.01127 0.32355 0.07553 0.0
H74 H 0.92383 0.10943 0.9513 0.0
H75 H 0.88732 0.12757 0.02197 0.0
H76 H 0.09968 0.31557 -0.0024 0.0
H77 H 0.05948 0.24064 0.05038 0.0
H78 H 0.14167 0.33919 0.02938 0.0
H79 H 0.10204 0.26551 0.08117 0.0
H80 H 0.06254 0.21577 0.93926 0.0
H81 H 0.97844 0.20972 0.93264 0.0
H82 H 0.0686 0.22288 0.8896 0.0
H83 H 0.9859 0.21693 0.88306 0.0
H84 H 0.08023 0.16435 0.04413 0.0
H85 H 0.13328 0.22369 0.98058 0.0
H86 H 0.00867 0.30997 0.90713 0.0
H87 H 0.09285 0.31454 0.90652 0.0
Li88 Li 0.83296 0.82017 0.00725 0.0
Li89 Li 0.79265 0.80296 0.03924 0.0
Li90 Li 0.78509 0.80222 0.98908 0.0
Li91 Li 0.80758 0.84863 0.01373 0.0
C92 C 0.81403 0.76507 0.01071 0.0
N93 N 0.84642 0.73707 0.0106 0.0
C94 C 0.82224 0.75789 0.03513 0.0
C95 C 0.82217 0.7579 0.98623 0.0
C96 C 0.83863 0.74375 0.03464 0.0
C97 C 0.83859 0.74379 0.9866 0.0
C98 C 0.83599 0.8542 0.06517 0.0
C99 C 0.82202 0.87682 0.10008 0.0
N100 N 0.84638 0.88272 0.11435 0.0
C101 C 0.86111 0.86086 0.08005 0.0
C102 C 0.81648 0.86254 0.07517 0.0
C103 C 0.86588 0.87513 0.10492 0.0
C104 C 0.88143 0.82801 0.97603 0.0
N105 N 0.87042 0.82409 0.00149 0.0
C106 C 0.91531 0.83134 0.02013 0.0
C107 C 0.88634 0.8247 0.02331 0.0
C108 C 0.92784 0.83687 0.99412 0.0
C109 C 0.91004 0.83403 0.97182 0.0
H110 H 0.86832 0.82724 0.95901 0.0
H111 H 0.87678 0.82088 0.04326 0.0
C112 C 0.74763 0.76043 0.07083 0.0
N113 N 0.7762 0.78186 0.07164 0.0
C114 C 0.73421 0.74357 0.09377 0.0
C115 C 0.7799 0.77114 0.1179 0.0
C116 C 0.79248 0.78731 0.09445 0.0
C117 C 0.75043 0.74889 0.11769 0.0
H118 H 0.73534 0.75644 0.05228 0.0
H119 H 0.81536 0.80374 0.09438 0.0
C120 C 0.81813 0.84295 0.95275 0.0
N121 N 0.81088 0.84955 0.89831 0.0
C122 C 0.81425 0.86595 0.94391 0.0
C123 C 0.81859 0.82347 0.93384 0.0
C124 C 0.81058 0.86889 0.91632 0.0
C125 C 0.81478 0.82711 0.90644 0.0
C126 C 0.7457 0.81947 0.02672 0.0
C127 C 0.72796 0.82273 0.00766 0.0
C128 C 0.74 0.82015 0.05429 0.0
C129 C 0.70546 0.8274 0.01642 0.0
C130 C 0.71727 0.82483 0.06226 0.0
N131 N 0.70063 0.82837 0.04332 0.0
C132 C 0.75293 0.75323 0.95485 0.0
C133 C 0.74816 0.79464 0.94504 0.0
C134 C 0.73511 0.73809 0.93287 0.0
N135 N 0.75923 0.78105 0.96031 0.0
C136 C 0.72998 0.78023 0.92319 0.0
C137 C 0.7234 0.75167 0.91684 0.0
H138 H 0.76194 0.7429 0.9674 0.0
H139 H 0.75411 0.817 0.94935 0.0
C140 C 0.84075 0.90816 0.02402 0.0
N141 N 0.81391 0.8875 0.01508 0.0
C142 C 0.84806 0.93738 0.02555 0.0
C143 C 0.80052 0.92404 0.00727 0.0
C144 C 0.79386 0.89482 0.00662 0.0
C145 C 0.82786 0.9456 0.01704 0.0
H146 H 0.85666 0.90195 0.02975 0.0
H147 H 0.77305 0.87821 -0.00124 0.0
O148 O 0.79868 0.77964 0.01079 0.0
O149 O 0.83095 0.84012 0.04077 0.0
O150 O 0.82155 0.83964 0.97975 0.0
O151 O 0.76751 0.81426 0.01842 0.0
H152 H 0.81628 0.76343 0.05425 0.0
H153 H 0.8162 0.7635 0.96715 0.0
H154 H 0.84525 0.73817 0.05339 0.0
H155 H 0.84519 0.73827 0.96782 0.0
H156 H 0.80705 0.88337 0.10798 0.0
H157 H 0.87678 0.85507 0.07257 0.0
H158 H 0.79762 0.85864 0.06355 0.0
H159 H 0.88514 0.88024 0.11668 0.0
H160 H 0.92802 0.83343 0.03802 0.0
H161 H 0.91833 0.83725 0.95133 0.0
H162 H 0.71142 0.72661 0.09284 0.0
H163 H 0.79332 0.77544 0.13577 0.0
H164 H 0.81409 0.88139 0.95817 0.0
H165 H 0.82115 0.80529 0.9403 0.0
H166 H 0.80748 0.88654 0.90922 0.0
H167 H 0.81478 0.812 0.89164 0.0
H168 H 0.73163 0.82198 0.98631 0.0
H169 H 0.75281 0.81697 0.0695 0.0
H170 H 0.69179 0.8302 0.00182 0.0
H171 H 0.7128 0.82553 0.08352 0.0
H172 H 0.73039 0.71602 0.92855 0.0
H173 H 0.72175 0.79158 0.91095 0.0
H174 H 0.86963 0.95354 0.0326 0.0
H175 H 0.78457 0.92973 0.00022 0.0
Li176 Li 0.221 0.03276 0.00184 0.0
Li177 Li 0.24382 0.00783 0.02366 0.0
Li178 Li 0.2374 0.0058 0.97508 0.0
Li179 Li 0.19584 0.97933 0.00532 0.0
C180 C 0.28672 0.05433 0.98309 0.0
N181 N 0.33722 0.07939 0.95232 0.0
C182 C 0.31129 0.05317 0.99185 0.0
C183 C 0.28786 0.06831 0.95871 0.0
C184 C 0.33662 0.06598 0.97601 0.0
C185 C 0.31358 0.08079 0.94342 0.0
C186 C 0.21231 0.0126 0.06182 0.0
C187 C 0.21407 0.99524 0.10655 0.0
N188 N 0.22468 0.0228 0.11637 0.0
C189 C 0.22321 0.04075 0.07237 0.0
C190 C 0.20762 0.98963 0.07905 0.0
C191 C 0.22931 0.04545 0.10001 0.0
C192 C 0.19042 0.06053 0.01758 0.0
N193 N 0.21406 0.06481 0.00298 0.0
C194 C 0.22203 0.11111 0.98733 0.0
C195 C 0.2302 0.08968 0.98837 0.0
C196 C 0.19736 0.10695 0.00184 0.0
C197 C 0.18174 0.08148 0.01743 0.0
H198 H 0.17777 0.04035 0.0287 0.0
H199 H 0.24881 0.09247 0.97686 0.0
C200 C 0.27103 0.98798 0.06141 0.0
N201 N 0.26929 0.0113 0.0521 0.0
C202 C 0.28878 0.99119 0.08361 0.0
C203 C 0.30295 0.04242 0.08558 0.0
C204 C 0.28507 0.03824 0.06339 0.0
C205 C 0.30487 0.01869 0.09609 0.0
H206 H 0.25842 0.96687 0.05184 0.0
H207 H 0.28323 0.05635 0.05543 0.0
C208 C 0.18223 0.01394 0.96343 0.0
N209 N 0.14884 0.03766 0.94578 0.0
C210 C 0.15423 0.00392 0.97404 0.0
C211 C 0.19321 0.036 0.94381 0.0
C212 C 0.13769 0.01617 0.96483 0.0
C213 C 0.17601 0.04774 0.93518 0.0
C214 C 0.2155 0.94377 -0.00252 0.0
C215 C 0.21088 0.93114 0.97179 0.0
C216 C 0.20423 0.9258 0.02025 0.0
C217 C 0.19497 0.90069 0.96932 0.0
C218 C 0.18839 0.89545 0.01693 0.0
N219 N 0.18412 0.88362 0.99174 0.0
C220 C 0.27663 -0.0014 0.94209 0.0
C221 C 0.23921 0.00162 0.91832 0.0
C222 C 0.28681 0.99287 0.91814 0.0
N223 N 0.25316 0.00266 0.94172 0.0
C224 C 0.24854 0.99578 0.89391 0.0
C225 C 0.27232 0.99082 0.89374 0.0
H226 H 0.28675 -0.00125 0.96116 0.0
H227 H 0.22017 0.00421 0.91872 0.0
C228 C 0.1428 0.93792 0.03123 0.0
N229 N 0.15813 0.94563 0.00766 0.0
C230 C 0.11338 0.91601 0.0314 0.0
C231 C 0.11653 0.90989 0.98325 0.0
C232 C 0.14587 0.93173 0.98404 0.0
C233 C 0.09972 0.90241 0.00701 0.0
H234 H 0.15291 0.94976 0.04958 0.0
H235 H 0.15853 0.93869 0.96555 0.0
O236 O 0.2616 0.04165 -0.00183 0.0
O237 O 0.20686 0.00769 0.0347 0.0
O238 O 0.19918 0.00294 0.97284 0.0
O239 O 0.23053 0.97356 0.00031 0.0
H240 H 0.31077 0.04227 0.01055 0.0
H241 H 0.26891 0.06898 0.95138 0.0
H242 H 0.35577 0.06517 0.9825 0.0
H243 H 0.31469 0.09148 0.92442 0.0
H244 H 0.21077 0.97771 0.12006 0.0
H245 H 0.22737 0.05889 0.05932 0.0
H246 H 0.1996 0.9678 0.0712 0.0
H247 H 0.23789 0.06715 0.10841 0.0
H248 H 0.23461 0.13051 0.97511 0.0
H249 H 0.16231 0.07726 0.02854 0.0
H250 H 0.28987 0.97241 0.09092 0.0
H251 H 0.31451 0.06388 0.09483 0.0
H252 H 0.14551 0.98722 0.98953 0.0
H253 H 0.21502 0.04441 0.93571 0.0
H254 H 0.11606 0.00872 0.97296 0.0
H255 H 0.18434 0.06498 0.92018 0.0
H256 H 0.21922 0.94464 0.95391 0.0
H257 H 0.2073 0.93519 0.04026 0.0
H258 H 0.19114 0.89062 0.94955 0.0
H259 H 0.17939 0.8813 0.03436 0.0
H260 H 0.3049 0.98867 0.91891 0.0
H261 H 0.23684 0.99444 0.87548 0.0
H262 H 0.10101 0.91116 0.05005 0.0
H263 H 0.10674 0.89984 0.96407 0.0
Li264 Li 0.65489 0.53262 0.34005 0.0
Li265 Li 0.67921 0.57904 0.3639 0.0
Li266 Li 0.68205 0.57814 0.31345 0.0
Li267 Li 0.70963 0.56304 0.34288 0.0
C268 C 0.61938 0.55767 0.32805 0.0
N269 N 0.56386 0.54207 0.31005 0.0
C270 C 0.59839 0.55635 0.34615 0.0
C271 C 0.61226 0.55164 0.30068 0.0
C272 C 0.57041 0.54826 0.3367 0.0
C273 C 0.58405 0.54364 0.292 0.0
C274 C 0.67676 0.53979 0.39932 0.0
C275 C 0.69456 0.55514 0.44472 0.0
N276 N 0.66815 0.53448 0.45464 0.0
C277 C 0.64988 0.51854 0.40995 0.0
C278 C 0.69939 0.55807 0.41682 0.0
C279 C 0.64594 0.51625 0.43799 0.0
C280 C 0.63279 0.47367 0.33357 0.0
N281 N 0.62401 0.49314 0.33983 0.0
C282 C 0.57462 0.45438 0.34548 0.0
C283 C 0.59563 0.48418 0.34603 0.0
C284 C 0.58307 0.43391 0.33834 0.0
C285 C 0.6126 0.44388 0.33248 0.0
H286 H 0.65563 0.48139 0.32941 0.0
H287 H 0.58931 0.49999 0.35165 0.0
C288 C 0.69659 0.62593 0.40138 0.0
N289 N 0.67517 0.59862 0.39426 0.0
C290 C 0.69377 0.63899 0.42493 0.0
C291 C 0.64687 0.59564 0.433 0.0
C292 C 0.65044 0.58363 0.40925 0.0
C293 C 0.66882 0.62354 0.44122 0.0
H294 H 0.71599 0.63737 0.38899 0.0
H295 H 0.63377 0.562 0.40304 0.0
C296 C 0.67946 0.52692 0.28774 0.0
N297 N 0.66867 0.49558 0.24018 0.0
C298 C 0.702 0.525 0.27479 0.0
C299 C 0.65133 0.51251 0.27665 0.0
C300 C 0.69614 0.50919 0.25071 0.0
C301 C 0.64633 0.49686 0.25257 0.0
C302 C 0.74309 0.62012 0.33847 0.0
C303 C 0.75632 0.63255 0.31373 0.0
C304 C 0.76037 0.62559 0.36153 0.0
C305 C 0.78676 0.64998 0.31242 0.0
C306 C 0.79073 0.6431 0.35937 0.0
N307 N 0.80319 0.65482 0.33506 0.0
C308 C 0.67414 0.61716 0.2806 0.0
C309 C 0.69568 0.59277 0.25833 0.0
C310 C 0.67671 0.63315 0.25722 0.0
N311 N 0.68371 0.59756 0.28071 0.0
C312 C 0.69839 0.60801 0.23449 0.0
C313 C 0.68912 0.62871 0.23384 0.0
H314 H 0.66495 0.62067 0.29882 0.0
H315 H 0.704 0.57783 0.25915 0.0
C316 C 0.74639 0.54498 0.36626 0.0
N317 N 0.74384 0.55987 0.345 0.0
C318 C 0.76851 0.53786 0.36658 0.0
C319 C 0.78573 0.56257 0.32363 0.0
C320 C 0.76329 0.56928 0.32418 0.0
C321 C 0.78802 0.54593 0.34468 0.0
H322 H 0.73033 0.53728 0.3823 0.0
H323 H 0.7605 0.58074 0.30734 0.0
O324 O 0.64696 0.56576 0.33701 0.0
O325 O 0.68084 0.54271 0.37192 0.0
O326 O 0.68488 0.54227 0.31144 0.0
O327 O 0.71335 0.60276 0.34011 0.0
H328 H 0.60355 0.56139 0.36732 0.0
H329 H 0.62835 0.55339 0.28618 0.0
H330 H 0.55391 0.54694 0.35055 0.0
H331 H 0.57825 0.5388 0.27089 0.0
H332 H 0.71179 0.56932 0.45849 0.0
H333 H 0.63217 0.50415 0.39671 0.0
H334 H 0.72035 0.57454 0.40892 0.0
H335 H 0.62519 0.50004 0.4465 0.0
H336 H 0.55206 0.44744 0.35032 0.0
H337 H 0.62011 0.42873 0.32752 0.0
H338 H 0.71114 0.66057 0.43067 0.0
H339 H 0.62711 0.58323 0.44482 0.0
H340 H 0.72382 0.53569 0.28315 0.0
H341 H 0.63339 0.51287 0.28674 0.0
H342 H 0.71344 0.50769 0.24042 0.0
H343 H 0.62465 0.4856 0.24382 0.0
H344 H 0.74329 0.62868 0.29571 0.0
H345 H 0.75047 0.61624 0.38084 0.0
H346 H 0.79731 0.65963 0.29338 0.0
H347 H 0.8044 0.64737 0.37702 0.0
H348 H 0.66935 0.64898 0.25745 0.0
H349 H 0.70868 0.60446 0.21706 0.0
H350 H 0.76914 0.52459 0.383 0.0
H351 H 0.80042 0.56934 0.30643 0.0
Li352 Li 0.49243 0.12979 0.33584 0.0
Li353 Li 0.44655 0.1172 0.35841 0.0
Li354 Li 0.44893 0.11532 0.30966 0.0
Li355 Li 0.47144 0.16194 0.33374 0.0
C356 C 0.4663 0.07301 0.34038 0.0
N357 N 0.49006 0.03755 0.34976 0.0
C358 C 0.46523 0.06184 0.36627 0.0
C359 C 0.47942 0.06611 0.31926 0.0
C360 C 0.47734 0.04393 0.37059 0.0
C361 C 0.49135 0.04818 0.32442 0.0
C362 C 0.50258 0.17716 0.37773 0.0
C363 C 0.50705 0.21922 0.40139 0.0
N364 N 0.53665 0.23263 0.399 0.0
C365 C 0.53306 0.19136 0.37557 0.0
C366 C 0.48945 0.19116 0.39083 0.0
C367 C 0.54989 0.21938 0.38646 0.0
C368 C 0.54842 0.14475 0.31802 0.0
N369 N 0.5289 0.13085 0.33825 0.0
C370 C 0.56504 0.12695 0.36415 0.0
C371 C 0.53649 0.12167 0.36096 0.0
C372 C 0.58606 0.14236 0.34401 0.0
C373 C 0.57717 0.15071 0.32045 0.0
H374 H 0.54217 0.15272 0.30063 0.0
H375 H 0.52079 0.1115 0.37713 0.0
C376 C 0.40299 0.06883 0.38651 0.0
N377 N 0.42299 0.09775 0.38888 0.0
C378 C 0.38767 0.0527 0.40919 0.0
C379 C 0.41238 0.09693 0.43589 0.0
C380 C 0.42752 0.11209 0.41277 0.0
C381 C 0.39286 0.0666 0.43449 0.0
H382 H 0.39996 0.05803 0.3672 0.0
H383 H 0.44353 0.13508 0.41407 0.0
C384 C 0.49012 0.15252 0.27685 0.0
N385 N 0.49089 0.15609 0.22104 0.0
C386 C 0.48452 0.17284 0.26403 0.0
C387 C 0.49629 0.13415 0.26127 0.0
C388 C 0.48501 0.1743 0.23579 0.0
C389 C 0.4965 0.13624 0.23308 0.0
C390 C 0.40228 0.12111 0.34173 0.0
C391 C 0.37981 0.09437 0.33204 0.0
C392 C 0.39672 0.13517 0.36294 0.0
C393 C 0.35208 0.08207 0.34382 0.0
C394 C 0.3687 0.12212 0.37421 0.0
N395 N 0.34715 0.09607 0.36451 0.0
C396 C 0.42531 0.07176 0.26788 0.0
C397 C 0.41917 0.11314 0.26326 0.0
C398 C 0.41263 0.06139 0.24251 0.0
N399 N 0.42872 0.09747 0.27739 0.0
C400 C 0.40693 0.10392 0.23774 0.0
C401 C 0.40392 0.07798 0.22699 0.0
H402 H 0.43287 0.05963 0.27972 0.0
H403 H 0.42189 0.13331 0.27159 0.0
C404 C 0.51093 0.21958 0.3227 0.0
N405 N 0.48278 0.20204 0.33068 0.0
C406 C 0.52201 0.24945 0.31924 0.0
C407 C 0.475 0.24289 0.33265 0.0
C408 C 0.46469 0.21291 0.33564 0.0
C409 C 0.50396 0.26145 0.32412 0.0
H410 H 0.52475 0.21023 0.31895 0.0
H411 H 0.44234 0.19837 0.34184 0.0
O412 O 0.4548 0.0908 0.33576 0.0
O413 O 0.48565 0.14997 0.36665 0.0
O414 O 0.48896 0.15019 0.30447 0.0
O415 O 0.42975 0.13311 0.33094 0.0
H416 H 0.45552 0.06723 0.38295 0.0
H417 H 0.48067 0.07474 0.29916 0.0
H418 H 0.47675 0.03522 0.39054 0.0
H419 H 0.50169 0.04278 0.30829 0.0
H420 H 0.49716 0.2304 0.41133 0.0
H421 H 0.54366 0.18103 0.36541 0.0
H422 H 0.4659 0.18079 0.39225 0.0
H423 H 0.57349 0.23065 0.38484 0.0
H424 H 0.57081 0.11998 0.3826 0.0
H425 H 0.59263 0.16334 0.30469 0.0
H426 H 0.37316 0.02934 0.40712 0.0
H427 H 0.41667 0.10867 0.45484 0.0
H428 H 0.47934 0.187 0.27568 0.0
H429 H 0.50052 0.1182 0.27082 0.0
H430 H 0.48053 0.18978 0.22561 0.0
H431 H 0.50103 0.12201 0.22079 0.0
H432 H 0.38381 0.08309 0.31578 0.0
H433 H 0.41396 0.15569 0.3709 0.0
H434 H 0.3345 0.06133 0.33661 0.0
H435 H 0.36412 0.13266 0.39076 0.0
H436 H 0.41041 0.04117 0.23478 0.0
H437 H 0.39997 0.11698 0.22645 0.0
H438 H 0.5446 0.2631 0.3131 0.0
H439 H 0.46045 0.25139 0.33654 0.0
Li440 Li 0.89804 0.34676 0.35467 0.0
Li441 Li 0.87751 0.36919 0.32535 0.0
Li442 Li 0.8527 0.31419 0.3319 0.0
Li443 Li 0.89709 0.34019 0.30428 0.0
C444 C 0.85647 0.34915 0.38513 0.0
N445 N 0.85069 0.35722 0.43953 0.0
C446 C 0.86063 0.37599 0.39442 0.0
C447 C 0.84884 0.32626 0.40343 0.0
C448 C 0.85774 0.37968 0.42202 0.0
C449 C 0.84618 0.33081 0.43088 0.0
C450 C 0.93815 0.40465 0.31799 0.0
C451 C 0.95985 0.44135 0.28306 0.0
N452 N 0.9779 0.46101 0.30176 0.0
C453 C 0.95717 0.42512 0.33679 0.0
C454 C 0.93971 0.41274 0.29085 0.0
C455 C 0.977 0.45353 0.32822 0.0
C456 C 0.92724 0.33378 0.39614 0.0
N457 N 0.91944 0.35326 0.3871 0.0
C458 C 0.94003 0.38314 0.42618 0.0
C459 C 0.92594 0.37781 0.4013 0.0
C460 C 0.94801 0.36326 0.43625 0.0
C461 C 0.94182 0.33848 0.42083 0.0
H462 H 0.92201 0.31457 0.38428 0.0
H463 H 0.91991 0.39315 0.39338 0.0
C464 C 0.84602 0.39571 0.3078 0.0
N465 N 0.87076 0.40108 0.32104 0.0
C466 C 0.83882 0.41766 0.30518 0.0
C467 C 0.88254 0.45029 0.33017 0.0
C468 C 0.88897 0.42769 0.33219 0.0
C469 C 0.85707 0.44533 0.31664 0.0
H470 H 0.8315 0.37412 0.29979 0.0
H471 H 0.90801 0.43116 0.34336 0.0
C472 C 0.87939 0.28187 0.33629 0.0
N473 N 0.85974 0.22274 0.34155 0.0
C474 C 0.88198 0.26622 0.31468 0.0
C475 C 0.86724 0.26754 0.3607 0.0
C476 C 0.87181 0.23632 0.31771 0.0
C477 C 0.8573 0.23762 0.36292 0.0
C478 C 0.85016 0.3365 0.27219 0.0
C479 C 0.82857 0.31027 0.26079 0.0
C480 C 0.86268 0.3621 0.2567 0.0
C481 C 0.82041 0.30996 0.23385 0.0
C482 C 0.85392 0.3609 0.22985 0.0
N483 N 0.83318 0.33506 0.21905 0.0
C484 C 0.79528 0.28104 0.35055 0.0
C485 C 0.80857 0.2555 0.31948 0.0
C486 C 0.76669 0.25761 0.35162 0.0
N487 N 0.81545 0.27969 0.3345 0.0
C488 C 0.78024 0.23139 0.32011 0.0
C489 C 0.75868 0.23243 0.33602 0.0
H490 H 0.80113 0.30078 0.3618 0.0
H491 H 0.82477 0.25523 0.30632 0.0
C492 C 0.94557 0.35392 0.26973 0.0
N493 N 0.91616 0.33685 0.27311 0.0
C494 C 0.95886 0.35197 0.24595 0.0
C495 C 0.9114 0.31449 0.23006 0.0
C496 C 0.89917 0.31695 0.25415 0.0
C497 C 0.94154 0.33234 0.22563 0.0
H498 H 0.95867 0.36919 0.28538 0.0
H499 H 0.8761 0.30278 0.25784 0.0
O500 O 0.85962 0.34527 0.35822 0.0
O501 O 0.9185 0.37676 0.3261 0.0
O502 O 0.88911 0.31114 0.33364 0.0
O503 O 0.85841 0.33714 0.29856 0.0
H504 H 0.86629 0.39386 0.38052 0.0
H505 H 0.84503 0.30521 0.39653 0.0
H506 H 0.86113 0.40041 0.42952 0.0
H507 H 0.84049 0.31334 0.44529 0.0
H508 H 0.96122 0.4479 0.26212 0.0
H509 H 0.95658 0.41918 0.35781 0.0
H510 H 0.92579 0.39703 0.27591 0.0
H511 H 0.99171 0.46963 0.3426 0.0
H512 H 0.94493 0.40276 0.43731 0.0
H513 H 0.94774 0.32274 0.428 0.0
H514 H 0.81861 0.41266 0.29514 0.0
H515 H 0.89713 0.47127 0.33937 0.0
H516 H 0.89167 0.277 0.29577 0.0
H517 H 0.86548 0.27938 0.37774 0.0
H518 H 0.87353 0.22391 0.30111 0.0
H519 H 0.84768 0.22623 0.38166 0.0
H520 H 0.81839 0.29031 0.27252 0.0
H521 H 0.87868 0.38276 0.26538 0.0
H522 H 0.80392 0.28975 0.22472 0.0
H523 H 0.8635 0.38056 0.21763 0.0
H524 H 0.75075 0.25983 0.36365 0.0
H525 H 0.77515 0.21245 0.30782 0.0
H526 H 0.98223 0.36594 0.24327 0.0
H527 H 0.89747 0.29852 0.21516 0.0
Li528 Li 0.34392 0.9045 0.6891 0.0
Li529 Li 0.31267 0.86267 0.66011 0.0
Li530 Li 0.36609 0.88274 0.65968 0.0
Li531 Li 0.34398 0.90824 0.63961 0.0
C532 C 0.33844 0.84243 0.70378 0.0
N533 N 0.33806 0.79644 0.73101 0.0
C534 C 0.32626 0.81482 0.69173 0.0
C535 C 0.35019 0.84653 0.72983 0.0
C536 C 0.32633 0.79188 0.70577 0.0
C537 C 0.34988 0.82305 0.74321 0.0
C538 C 0.28223 0.88869 0.66699 0.0
C539 C 0.23401 0.86451 0.6472 0.0
N540 N 0.2224 0.86496 0.67164 0.0
C541 C 0.26985 0.88913 0.69187 0.0
C542 C 0.26421 0.87651 0.64441 0.0
C543 C 0.23955 0.87695 0.69382 0.0
C544 C 0.35929 0.95169 0.7252 0.0
N545 N 0.34506 0.92208 0.72253 0.0
C546 C 0.32503 0.91564 0.76688 0.0
C547 C 0.3287 0.90401 0.74289 0.0
C548 C 0.33848 0.94612 0.76986 0.0
C549 C 0.35647 0.9643 0.74903 0.0
H550 H 0.37185 0.96546 0.70845 0.0
H551 H 0.31734 0.88056 0.73994 0.0
C552 C 0.26956 0.80803 0.63929 0.0
N553 N 0.27691 0.82655 0.66067 0.0
C554 C 0.24767 0.7788 0.64201 0.0
C555 C 0.24006 0.78891 0.6881 0.0
C556 C 0.2622 0.81788 0.68453 0.0
C557 C 0.23341 0.76864 0.66703 0.0
H558 H 0.28216 0.81537 0.6208 0.0
H559 H 0.269 0.83298 0.70136 0.0
C560 C 0.40365 0.93962 0.67922 0.0
N561 N 0.45409 0.96973 0.70955 0.0
C562 C 0.42586 0.96715 0.6708 0.0
C563 C 0.40702 0.92748 0.70312 0.0
C564 C 0.45123 0.98201 0.68639 0.0
C565 C 0.43269 0.94302 0.71816 0.0
C566 C 0.34275 0.87363 0.60177 0.0
C567 C 0.37048 0.88316 0.59075 0.0
C568 C 0.31966 0.86913 0.58485 0.0
C569 C 0.3747 0.88834 0.56295 0.0
C570 C 0.32479 0.8746 0.55716 0.0
N571 N 0.35198 0.88403 0.54687 0.0
C572 C 0.38404 0.84291 0.64851 0.0
C573 C 0.42446 0.88995 0.65729 0.0
C574 C 0.40256 0.83161 0.64424 0.0
N575 N 0.39507 0.87141 0.65549 0.0
C576 C 0.4439 0.8796 0.653 0.0
C577 C 0.43298 0.84999 0.6465 0.0
H578 H 0.36076 0.82896 0.64588 0.0
H579 H 0.43304 0.91284 0.66156 0.0
C580 C 0.32844 0.93935 0.60174 0.0
N581 N 0.34988 0.93462 0.61127 0.0
C582 C 0.33463 0.95987 0.58121 0.0
C583 C 0.38469 0.96999 0.58089 0.0
C584 C 0.37756 0.94944 0.60138 0.0
C585 C 0.36316 0.97562 0.57066 0.0
H586 H 0.30667 0.92743 0.61023 0.0
H587 H 0.39411 0.94518 0.60945 0.0
O588 O 0.33809 0.86511 0.69062 0.0
O589 O 0.31182 0.90017 0.66474 0.0
O590 O 0.37855 0.92506 0.66431 0.0
O591 O 0.33836 0.86914 0.62904 0.0
H592 H 0.31694 0.81108 0.67168 0.0
H593 H 0.35932 0.86758 0.73974 0.0
H594 H 0.31703 0.77044 0.69661 0.0
H595 H 0.35895 0.82597 0.76335 0.0
H596 H 0.21979 0.8548 0.62993 0.0
H597 H 0.28344 0.89876 0.70948 0.0
H598 H 0.27342 0.87601 0.62502 0.0
H599 H 0.22967 0.87704 0.71298 0.0
H600 H 0.3111 0.90098 0.78261 0.0
H601 H 0.36694 0.9879 0.75059 0.0
H602 H 0.24362 0.76391 0.62537 0.0
H603 H 0.22942 0.7821 0.70762 0.0
H604 H 0.42351 0.97694 0.65242 0.0
H605 H 0.39009 0.90626 0.70991 0.0
H606 H 0.46862 0.00331 0.6801 0.0
H607 H 0.4356 0.93383 0.73667 0.0
H608 H 0.38864 0.88691 0.60355 0.0
H609 H 0.29807 0.86172 0.59303 0.0
H610 H 0.39609 0.8959 0.55416 0.0
H611 H 0.30717 0.87139 0.54385 0.0
H612 H 0.39303 0.80859 0.63947 0.0
H613 H 0.4672 0.89472 0.65435 0.0
H614 H 0.31747 0.96372 0.57401 0.0
H615 H 0.4068 0.98118 0.573 0.0
Li616 Li 0.12224 0.45415 0.68498 0.0
Li617 Li 0.1644 0.47242 0.65577 0.0
Li618 Li 0.13789 0.49995 0.66008 0.0
Li619 Li 0.11732 0.45401 0.63582 0.0
C620 C 0.17725 0.49223 0.7091 0.0
N621 N 0.21315 0.49336 0.75033 0.0
C622 C 0.17666 0.46653 0.71703 0.0
C623 C 0.19601 0.51851 0.72226 0.0
C624 C 0.19498 0.46753 0.73787 0.0
C625 C 0.21402 0.51864 0.74303 0.0
C626 C 0.14197 0.41367 0.65389 0.0
C627 C 0.16704 0.39585 0.62569 0.0
N628 N 0.16543 0.37769 0.64598 0.0
C629 C 0.14043 0.3947 0.67441 0.0
C630 C 0.15526 0.41415 0.62928 0.0
C631 C 0.15246 0.37673 0.67004 0.0
C632 C 0.08553 0.40436 0.71535 0.0
N633 N 0.10435 0.43361 0.71727 0.0
C634 C 0.09908 0.43187 0.7653 0.0
C635 C 0.11086 0.44765 0.7415 0.0
C636 C 0.08041 0.4014 0.76409 0.0
C637 C 0.07328 0.3877 0.73864 0.0
H638 H 0.08065 0.39388 0.69574 0.0
H639 H 0.12562 0.47102 0.74241 0.0
C640 C 0.22124 0.50371 0.63712 0.0
N641 N 0.2033 0.47928 0.65154 0.0
C642 C 0.25084 0.51277 0.63433 0.0
C643 C 0.24303 0.47098 0.66084 0.0
C644 C 0.21356 0.46288 0.66334 0.0
C645 C 0.26224 0.4965 0.64647 0.0
H646 H 0.2127 0.51672 0.62842 0.0
H647 H 0.19914 0.44385 0.67518 0.0
C648 C 0.08122 0.47223 0.6805 0.0
N649 N 0.04775 0.48454 0.71522 0.0
C650 C 0.05119 0.45985 0.6761 0.0
C651 C 0.09425 0.4909 0.70255 0.0
C652 C 0.03463 0.46633 0.69388 0.0
C653 C 0.07695 0.49684 0.71987 0.0
C654 C 0.15132 0.49426 0.60018 0.0
C655 C 0.13681 0.50841 0.59037 0.0
C656 C 0.16343 0.48296 0.58199 0.0
C657 C 0.13408 0.51046 0.56246 0.0
C658 C 0.16024 0.48545 0.55423 0.0
N659 N 0.14571 0.49899 0.54511 0.0
C660 C 0.16979 0.55973 0.66863 0.0
C661 C 0.12165 0.54389 0.65305 0.0
C662 C 0.1761 0.5887 0.66906 0.0
N663 N 0.14297 0.53809 0.6608 0.0
C664 C 0.12713 0.57272 0.65291 0.0
C665 C 0.15468 0.59552 0.66105 0.0
H666 H 0.18644 0.55446 0.67409 0.0
H667 H 0.10058 0.52621 0.64664 0.0
C668 C 0.09157 0.41052 0.59434 0.0
N669 N 0.0926 0.43429 0.60612 0.0
C670 C 0.07366 0.3974 0.5719 0.0
C671 C 0.05788 0.43317 0.57458 0.0
C672 C 0.0759 0.44542 0.59702 0.0
C673 C 0.05665 0.40887 0.56162 0.0
H674 H 0.10456 0.40168 0.60231 0.0
H675 H 0.07699 0.46419 0.607 0.0
O676 O 0.15951 0.49177 0.68868 0.0
O677 O 0.13034 0.43149 0.65783 0.0
O678 O 0.0976 0.46598 0.6632 0.0
O679 O 0.1537 0.49152 0.62744 0.0
H680 H 0.16217 0.44602 0.70722 0.0
H681 H 0.19663 0.53861 0.71656 0.0
H682 H 0.19475 0.44777 0.74415 0.0
H683 H 0.22867 0.53884 0.75336 0.0
H684 H 0.17751 0.39613 0.60679 0.0
H685 H 0.13018 0.39392 0.69358 0.0
H686 H 0.15666 0.42866 0.61321 0.0
H687 H 0.15152 0.36204 0.68579 0.0
H688 H 0.10476 0.44335 0.78447 0.0
H689 H 0.0592 0.36424 0.73679 0.0
H690 H 0.26481 0.53297 0.62364 0.0
H691 H 0.25073 0.45761 0.6704 0.0
H692 H 0.0408 0.44537 0.65909 0.0
H693 H 0.11747 0.50078 0.70626 0.0
H694 H 0.01135 0.4569 0.69072 0.0
H695 H 0.08675 0.51124 0.73701 0.0
H696 H 0.12737 0.51734 0.60415 0.0
H697 H 0.17526 0.47248 0.58922 0.0
H698 H 0.12264 0.5211 0.55459 0.0
H699 H 0.16937 0.47667 0.53992 0.0
H700 H 0.19781 0.6057 0.67492 0.0
H701 H 0.11008 0.57714 0.64656 0.0
H702 H 0.07302 0.37842 0.56282 0.0
H703 H 0.04551 0.44304 0.56716 0.0
Li704 Li 0.55507 0.70472 0.67167 0.0
Li705 Li 0.57336 0.68347 0.7046 0.0
Li706 Li 0.57418 0.67492 0.65406 0.0
Li707 Li 0.529 0.65329 0.67935 0.0
C708 C 0.61066 0.74074 0.66745 0.0
N709 N 0.63839 0.79884 0.65197 0.0
C710 C 0.62092 0.7628 0.687 0.0
C711 C 0.61465 0.74822 0.64003 0.0
C712 C 0.63485 0.79205 0.67876 0.0
C713 C 0.62869 0.77772 0.63261 0.0
C714 C 0.5207 0.67932 0.72855 0.0
C715 C 0.50684 0.65851 0.7733 0.0
N716 N 0.48827 0.66926 0.77533 0.0
C717 C 0.5015 0.6902 0.73114 0.0
C718 C 0.52341 0.66336 0.74983 0.0
C719 C 0.48527 0.68485 0.75492 0.0
C720 C 0.5481 0.74632 0.64041 0.0
N721 N 0.55116 0.73814 0.66571 0.0
C722 C 0.54198 0.77397 0.68555 0.0
C723 C 0.54924 0.75206 0.68803 0.0
C724 C 0.5369 0.78179 0.65977 0.0
C725 C 0.54101 0.76831 0.63694 0.0
H726 H 0.55014 0.73507 0.62298 0.0
H727 H 0.55214 0.74525 0.70787 0.0
C728 C 0.60292 0.67261 0.74728 0.0
N729 N 0.5931 0.69034 0.73783 0.0
C730 C 0.61603 0.67772 0.77277 0.0
C731 C 0.60873 0.71922 0.77793 0.0
C732 C 0.59569 0.71324 0.75251 0.0
C733 C 0.61895 0.70125 0.78849 0.0
H734 H 0.60018 0.65432 0.73518 0.0
H735 H 0.58721 0.72662 0.74455 0.0
C736 C 0.51287 0.67216 0.63318 0.0
N737 N 0.46283 0.66866 0.61183 0.0
C738 C 0.49326 0.67523 0.64998 0.0
C739 C 0.50697 0.6672 0.60553 0.0
C740 C 0.46811 0.67342 0.6388 0.0
C741 C 0.48157 0.66553 0.59512 0.0
C742 C 0.54785 0.61662 0.68571 0.0
C743 C 0.54281 0.60041 0.66197 0.0
C744 C 0.53707 0.60215 0.71034 0.0
C745 C 0.52679 0.56987 0.66324 0.0
C746 C 0.52112 0.57158 0.71075 0.0
N747 N 0.51633 0.55621 0.68739 0.0
C748 C 0.61249 0.65832 0.63098 0.0
C749 C 0.59018 0.67556 0.60004 0.0
C750 C 0.62609 0.65218 0.60978 0.0
N751 N 0.59472 0.66945 0.62566 0.0
C752 C 0.60344 0.66994 0.57827 0.0
C753 C 0.62135 0.65772 0.58299 0.0
H754 H 0.61555 0.65362 0.65164 0.0
H755 H 0.57581 0.68431 0.59651 0.0
C756 C 0.47265 0.61151 0.70167 0.0
N757 N 0.49055 0.61905 0.67976 0.0
C758 C 0.44367 0.58897 0.7 0.0
C759 C 0.45231 0.58087 0.65368 0.0
C760 C 0.48112 0.60378 0.65621 0.0
C761 C 0.43288 0.57371 0.67556 0.0
H762 H 0.4803 0.62344 0.72027 0.0
H763 H 0.49578 0.60999 0.63907 0.0
O764 O 0.59618 0.71195 0.67504 0.0
O765 O 0.53722 0.68496 0.70558 0.0
O766 O 0.53763 0.67366 0.64361 0.0
O767 O 0.56291 0.64653 0.68477 0.0
H768 H 0.61802 0.75742 0.70829 0.0
H769 H 0.60665 0.73143 0.62464 0.0
H770 H 0.64279 0.80935 0.69368 0.0
H771 H 0.63177 0.78381 0.61146 0.0
H772 H 0.50867 0.64611 0.78985 0.0
H773 H 0.4991 0.70265 0.71496 0.0
H774 H 0.53777 0.65439 0.74815 0.0
H775 H 0.47032 0.69312 0.75715 0.0
H776 H 0.53881 0.78346 0.70375 0.0
H777 H 0.53787 0.77403 0.61667 0.0
H778 H 0.62335 0.66316 0.78024 0.0
H779 H 0.61094 0.73789 0.78909 0.0
H780 H 0.4973 0.67889 0.6714 0.0
H781 H 0.52181 0.6646 0.59225 0.0
H782 H 0.45278 0.67578 0.65159 0.0
H783 H 0.47674 0.66171 0.57375 0.0
H784 H 0.55083 0.61128 0.64272 0.0
H785 H 0.54087 0.61437 0.7289 0.0
H786 H 0.52255 0.55703 0.645 0.0
H787 H 0.51252 0.56007 0.72964 0.0
H788 H 0.63987 0.64292 0.61425 0.0
H789 H 0.59886 0.67411 0.55791 0.0
H790 H 0.42955 0.5846 0.71736 0.0
H791 H 0.44519 0.5694 0.63458 0.0
H792 H 0.18099 0.13001 0.04263 0.0
H793 H 0.18916 0.13039 0.95582 0.0
H794 H 0.16505 0.15953 0.95155 0.0
H795 H 0.13702 0.18019 0.97232 0.0
H796 H 0.12913 0.17991 0.05927 0.0
H797 H 0.15757 0.15525 0.06365 0.0
C798 C 0.17771 0.13675 0.02282 0.0
C799 C 0.18658 0.12793 -0.00042 0.0
C800 C 0.1636 0.15319 0.02053 0.0
C801 C 0.18264 0.13709 0.97402 0.0
C802 C 0.16867 0.15355 0.97156 0.0
C803 C 0.14207 0.17534 0.99226 0.0
C804 C 0.13054 0.18148 0.01541 0.0
C805 C 0.15844 0.16111 0.99465 0.0
C806 C 0.13715 0.17482 0.04108 0.0
C807 C 0.15352 0.16082 0.04363 0.0
H808 H 0.82613 0.97773 0.97503 0.0
H809 H 0.84951 0.98341 0.05925 0.0
H810 H 0.87113 0.0366 0.05798 0.0
H811 H 0.88871 0.08148 0.03158 0.0
H812 H 0.86847 0.0765 0.94658 0.0
H813 H 0.83999 0.02299 0.94943 0.0
C814 C 0.83536 0.99064 0.9932 0.0
C815 C 0.83639 0.97688 0.01718 0.0
C816 C 0.84852 0.02127 0.99207 0.0
C817 C 0.8487 0.99371 0.04056 0.0
C818 C 0.86107 0.02406 0.03982 0.0
C819 C 0.87737 0.06873 0.01385 0.0
C820 C 0.88061 0.08284 0.98891 0.0
C821 C 0.86187 0.03811 0.0155 0.0
C822 C 0.86634 0.06603 0.96596 0.0
C823 C 0.85014 0.03549 0.96759 0.0
H824 H 0.9635 0.82292 0.02328 0.0
H825 H 0.96456 0.877 0.95703 0.0
H826 H 0.01721 0.89902 0.95331 0.0
H827 H 0.06348 0.90688 0.97155 0.0
H828 H 0.06387 0.85676 0.04026 0.0
H829 H 0.01021 0.82977 0.04074 0.0
C830 C 0.97519 0.83957 0.00806 0.0
C831 C 0.95976 0.84812 0.99049 0.0
C832 C 0.00584 0.85316 0.00666 0.0
C833 C 0.97546 0.86937 0.97055 0.0
C834 C 0.00576 0.88233 0.96856 0.0
C835 C 0.05181 0.88961 0.98627 0.0
C836 C 0.06751 0.88365 0.00574 0.0
C837 C 0.02119 0.87483 0.98683 0.0
C838 C 0.05216 0.86171 0.02511 0.0
C839 C 0.02154 0.84633 0.02538 0.0
H840 H 0.85924 0.48043 0.35789 0.0
H841 H 0.83471 0.4607 0.27399 0.0
H842 H 0.81392 0.49293 0.27457 0.0
H843 H 0.79811 0.52227 0.3002 0.0
H844 H 0.82197 0.54162 0.38426 0.0
H845 H 0.84804 0.51424 0.38224 0.0
C846 C 0.84996 0.48371 0.33956 0.0
C847 C 0.84825 0.46797 0.316 0.0
C848 C 0.83775 0.50201 0.34014 0.0
C849 C 0.83584 0.4722 0.2925 0.0
C850 C 0.82403 0.49068 0.2928 0.0
C851 C 0.80968 0.5212 0.3179 0.0
C852 C 0.80797 0.53383 0.34239 0.0
C853 C 0.82418 0.50506 0.31669 0.0
C854 C 0.82268 0.53178 0.36526 0.0
C855 C 0.83758 0.51614 0.36411 0.0
H856 H 0.49915 0.29914 0.35854 0.0
H857 H 0.53569 0.29505 0.28166 0.0
H858 H 0.56125 0.3483 0.27814 0.0
H859 H 0.57681 0.39595 0.29878 0.0
H860 H 0.54169 0.40079 0.37612 0.0
H861 H 0.51134 0.34733 0.37733 0.0
C862 C 0.51225 0.30994 0.3408 0.0
C863 C 0.51588 0.29329 0.32056 0.0
C864 C 0.5272 0.34064 0.33906 0.0
C865 C 0.53301 0.3075 0.29772 0.0
C866 C 0.54757 0.3379 0.29566 0.0
C867 C 0.56234 0.38526 0.31581 0.0
C868 C 0.56172 0.40214 0.33748 0.0
C869 C 0.54546 0.35468 0.31654 0.0
C870 C 0.54248 0.38819 0.35918 0.0
C871 C 0.5253 0.35765 0.35996 0.0
H872 H 0.62665 0.14702 0.30704 0.0
H873 H 0.61684 0.16191 0.39134 0.0
H874 H 0.66969 0.1872 0.39715 0.0
H875 H 0.7187 0.21094 0.37703 0.0
H876 H 0.72829 0.2009 0.29156 0.0
H877 H 0.67578 0.1678 0.28763 0.0
C878 C 0.63603 0.15568 0.32673 0.0
C879 C 0.61766 0.15284 0.34858 0.0
C880 C 0.66655 0.17137 0.32971 0.0
C881 C 0.63026 0.16349 0.37414 0.0
C882 C 0.66059 0.17831 0.37745 0.0
C883 C 0.70934 0.20146 0.35754 0.0
C884 C 0.7275 0.20881 0.3346 0.0
C885 C 0.67894 0.18331 0.35516 0.0
C886 C 0.71502 0.19559 0.30966 0.0
C887 C 0.68488 0.17683 0.30731 0.0
H888 H 0.48255 0.86333 0.67474 0.0
H889 H 0.42828 0.80961 0.60912 0.0
H890 H 0.45718 0.78539 0.60612 0.0
H891 H 0.49474 0.77633 0.62483 0.0
H892 H 0.55052 0.83119 0.68915 0.0
H893 H 0.52427 0.85837 0.68965 0.0
C894 C 0.47739 0.84678 0.65939 0.0
C895 C 0.45289 0.83797 0.64254 0.0
C896 C 0.49423 0.833 0.65762 0.0
C897 C 0.44649 0.8163 0.62287 0.0
C898 C 0.46313 0.80254 0.621 0.0
C899 C 0.50177 0.79473 0.63848 0.0
C900 C 0.52441 0.80145 0.65712 0.0
C901 C 0.48661 0.81025 0.63868 0.0
C902 C 0.5328 0.82514 0.67492 0.0
C903 C 0.51786 0.84076 0.67518 0.0
H904 H 0.19314 0.72645 0.63349 0.0
H905 H 0.2334 0.7389 0.71208 0.0
H906 H 0.20963 0.68621 0.71838 0.0
H907 H 0.18209 0.63677 0.69965 0.0
H908 H 0.1436 0.62371 0.62032 0.0
H909 H 0.16178 0.67629 0.61631 0.0
C910 C 0.19648 0.7176 0.65208 0.0
C911 C 0.21514 0.7367 0.6722 0.0
C912 C 0.18327 0.68713 0.65537 0.0
C913 C 0.21888 0.72485 0.69637 0.0
C914 C 0.20554 0.69464 0.69991 0.0
C915 C 0.17752 0.64545 0.68157 0.0
C916 C 0.1619 0.62651 0.66018 0.0
C917 C 0.18841 0.67564 0.67925 0.0
C918 C 0.15555 0.63788 0.63709 0.0
C919 C 0.16612 0.66795 0.63471 0.0
H920 H 0.29645 0.49434 0.68675 0.0
H921 H 0.30032 0.52358 0.60444 0.0
H922 H 0.35359 0.54822 0.60554 0.0
H923 H 0.39882 0.56564 0.63138 0.0
H924 H 0.3951 0.53428 0.71282 0.0
H925 H 0.34184 0.5059 0.71029 0.0
C926 C 0.30881 0.50541 0.66876 0.0
C927 C 0.29427 0.50748 0.64572 0.0
C928 C 0.33947 0.5194 0.66943 0.0
C929 C 0.31087 0.52224 0.62273 0.0
C930 C 0.34137 0.53624 0.62327 0.0
C931 C 0.38653 0.55199 0.64836 0.0
C932 C 0.40106 0.55255 0.67242 0.0
C933 C 0.35591 0.53561 0.64676 0.0
C934 C 0.38452 0.53489 0.69427 0.0
C935 C 0.35404 0.51854 0.69282 0.0
H936 H 0.01968 0.31103 0.85928 0.0
H937 H 0.10498 0.36418 0.89502 0.0
H938 H 0.1209 0.396 0.85535 0.0
H939 H 0.11119 0.40765 0.80995 0.0
H940 H 0.02566 0.35528 0.77445 0.0
H941 H 0.00916 0.32428 0.81476 0.0
C942 C 0.04161 0.32982 0.85857 0.0
C943 C 0.06114 0.33513 0.88004 0.0
C944 C 0.05061 0.34809 0.83574 0.0
C945 C 0.08965 0.35933 0.8786 0.0
C946 C 0.09873 0.37763 0.85599 0.0
C947 C 0.08878 0.38977 0.8112 0.0
C948 C 0.0697 0.38378 0.78922 0.0
C949 C 0.07947 0.37207 0.83437 0.0
C950 C 0.04089 0.36015 0.79097 0.0
C951 C 0.03141 0.34249 0.81404 0.0
H952 H 0.67076 0.74556 0.90484 0.0
H953 H 0.73509 0.72461 0.87572 0.0
H954 H 0.70724 0.70505 0.83381 0.0
H955 H 0.66696 0.69822 0.80401 0.0
H956 H 0.60216 0.71835 0.83397 0.0
H957 H 0.62802 0.73421 0.87695 0.0
C958 C 0.6785 0.73649 0.88935 0.0
C959 C 0.70496 0.73672 0.89309 0.0
C960 C 0.66251 0.72549 0.86541 0.0
C961 C 0.71467 0.72455 0.87319 0.0
C962 C 0.69887 0.71356 0.84922 0.0
C963 C 0.65817 0.70553 0.82011 0.0
C964 C 0.63294 0.70758 0.81557 0.0
C965 C 0.67306 0.71448 0.84489 0.0
C966 C 0.62196 0.71727 0.83665 0.0
C967 C 0.63662 0.72619 0.86131 0.0
H968 H 0.28486 0.93038 0.78884 0.0
H969 H 0.37644 0.99025 0.80323 0.0
H970 H 0.36409 0.01022 0.84268 0.0
H971 H 0.32695 0.00961 0.87354 0.0
H972 H 0.23545 0.94963 0.85818 0.0
H973 H 0.24803 0.93086 0.81843 0.0
C974 C 0.3021 0.94766 0.80077 0.0
C975 C 0.33148 0.9586 0.79352 0.0
C976 C 0.29483 0.95909 0.82307 0.0
C977 C 0.35366 0.98148 0.80861 0.0
C978 C 0.3466 0.99283 0.83111 0.0
C979 C 0.30984 0.99245 0.86144 0.0
C980 C 0.28033 0.98105 0.86873 0.0
C981 C 0.31724 0.98166 0.83861 0.0
C982 C 0.2583 0.95904 0.85276 0.0
C983 C 0.26547 0.94813 0.83016 0.0
H984 H 0.3578 0.02579 0.21201 0.0
H985 H 0.42287 0.10988 0.18095 0.0
H986 H 0.39959 0.09744 0.13645 0.0
H987 H 0.35852 0.06455 0.10776 0.0
H988 H 0.29114 0.98183 0.13952 0.0
H989 H 0.31791 0.99138 0.18209 0.0
C990 C 0.36705 0.04108 0.1953 0.0
C991 C 0.39178 0.06871 0.19958 0.0
C992 C 0.35312 0.03406 0.16999 0.0
C993 C 0.40362 0.08857 0.17799 0.0
C994 C 0.39035 0.08148 0.15263 0.0
C995 C 0.34968 0.04859 0.12399 0.0
C996 C 0.32272 0.02271 0.12058 0.0
C997 C 0.36468 0.05462 0.14862 0.0
C998 C 0.31194 0.00189 0.14155 0.0
C999 C 0.32711 0.00744 0.16599 0.0
H1000 H 0.97188 0.30872 0.10888 0.0
H1001 H 0.03874 0.30198 0.15303 0.0
H1002 H 0.02416 0.31627 0.19475 0.0
H1003 H 0.98967 0.32678 0.21918 0.0
H1004 H 0.92216 0.33202 0.1747 0.0
H1005 H 0.94001 0.32263 0.13244 0.0
C1006 C 0.98372 0.31102 0.12749 0.0
C1007 C 0.00632 0.3043 0.12789 0.0
C1008 C 0.97495 0.31877 0.15135 0.0
C1009 C 0.02106 0.3068 0.1523 0.0
C1010 C 0.01277 0.315 0.17612 0.0
C1011 C 0.97925 0.32635 0.20014 0.0
C1012 C 0.95455 0.32985 0.19998 0.0
C1013 C 0.98934 0.32045 0.17598 0.0
C1014 C 0.941 0.329 0.17528 0.0
C1015 C 0.95121 0.32369 0.15115 0.0
H1016 H 0.71337 0.6876 0.23166 0.0
H1017 H 0.67745 0.61054 0.18137 0.0
H1018 H 0.69142 0.64109 0.14074 0.0
H1019 H 0.71725 0.68975 0.11973 0.0
H1020 H 0.75455 0.76684 0.17006 0.0
H1021 H 0.73652 0.73623 0.21056 0.0
C1022 C 0.7081 0.67752 0.21179 0.0
C1023 C 0.69446 0.64693 0.20943 0.0
C1024 C 0.71669 0.69521 0.1886 0.0
C1025 C 0.68816 0.6341 0.18361 0.0
C1026 C 0.69612 0.65153 0.16042 0.0
C1027 C 0.72096 0.69983 0.13954 0.0
C1028 C 0.73727 0.73045 0.14196 0.0
C1029 C 0.71091 0.68212 0.16269 0.0
C1030 C 0.74232 0.74326 0.16776 0.0
C1031 C 0.73196 0.7258 0.19088 0.0
H1032 H 0.00216 0.40041 0.55267 0.0
H1033 H 0.06969 0.38869 0.51567 0.0
H1034 H 0.0407 0.37093 0.47435 0.0
H1035 H -0.00216 0.36238 0.44749 0.0
H1036 H 0.93194 0.37701 0.48378 0.0
H1037 H 0.95882 0.39043 0.52652 0.0
C1038 C 0.01063 0.39412 0.53553 0.0
C1039 C 0.03816 0.39611 0.53723 0.0
C1040 C 0.99422 0.38465 0.51164 0.0
C1041 C 0.04846 0.38715 0.51504 0.0
C1042 C 0.032 0.3772 0.49131 0.0
C1043 C 0.98924 0.36812 0.46492 0.0
C1044 C 0.96311 0.36887 0.46259 0.0
C1045 C 0.00507 0.37631 0.48924 0.0
C1046 C 0.95222 0.3766 0.48513 0.0
C1047 C 0.96753 0.38421 0.50953 0.0
H1048 H 0.65299 0.5969 0.48994 0.0
H1049 H 0.67701 0.67831 0.44956 0.0
H1050 H 0.66651 0.69714 0.4908 0.0
H1051 H 0.64697 0.68884 0.53723 0.0
H1052 H 0.62205 0.60677 0.57695 0.0
H1053 H 0.63675 0.5899 0.53717 0.0
C1054 C 0.65598 0.61879 0.49025 0.0
C1055 C 0.66536 0.63609 0.46676 0.0
C1056 C 0.64973 0.6293 0.51386 0.0
C1057 C 0.6698 0.66464 0.46747 0.0
C1058 C 0.66366 0.67532 0.49096 0.0
C1059 C 0.64488 0.66731 0.53717 0.0
C1060 C 0.63326 0.64901 0.55992 0.0
C1061 C 0.65305 0.65761 0.5141 0.0
C1062 C 0.63114 0.62137 0.55978 0.0
C1063 C 0.63933 0.61161 0.53698 0.0
H1064 H 0.33096 0.97189 0.52611 0.0
H1065 H 0.41248 0.02908 0.56659 0.0
H1066 H 0.42786 0.06318 0.52872 0.0
H1067 H 0.42009 0.07454 0.48283 0.0
H1068 H 0.33817 0.01872 0.44237 0.0
H1069 H 0.32095 0.9863 0.48172 0.0
C1070 C 0.35184 0.99208 0.52687 0.0
C1071 C 0.37074 0.99768 0.54895 0.0
C1072 C 0.36058 0.01169 0.505 0.0
C1073 C 0.39781 0.02389 0.54954 0.0
C1074 C 0.40657 0.04349 0.52797 0.0
C1075 C 0.39814 0.05576 0.48277 0.0
C1076 C 0.38055 0.04905 0.45954 0.0
C1077 C 0.38841 0.03729 0.50538 0.0
C1078 C 0.35238 0.02418 0.45979 0.0
C1079 C 0.34248 0.00568 0.48232 0.0
loop_
_geom_bond_atom_site_label_1
_geom_bond_atom_site_label_2
_geom_bond_distance
_geom_bond_site_symmetry_2
_ccdc_geom_bond_type
Li0 N17 1.990 . S
Li0 O60 1.956 . S
Li0 O61 1.959 1_454 S
Li0 O62 1.961 . S
Li1 N25 1.999 . S
Li1 O60 1.935 1_656 S
Li1 O61 1.956 . S
Li1 O63 1.984 1_655 S
Li2 N47 1.990 . S
Li2 O60 1.961 . S
Li2 O62 1.956 . S
Li2 O63 1.970 1_554 S
Li3 N53 1.990 . S
Li3 O61 1.968 1_455 S
Li3 O62 1.970 1_556 S
Li3 O63 1.956 . S
C4 C6 1.348 1_455 S
C4 C7 1.356 . S
C4 O60 1.325 . S
N5 C8 1.314 . S
N5 C9 1.279 1_655 S
C6 C4 1.348 1_655 S
C6 C8 1.353 . S
C6 H64 0.929 . S
C7 C4 1.356 . S
C7 C9 1.358 . S
C7 H65 0.930 . S
C8 N5 1.314 . S
C8 C6 1.353 . S
C8 H66 0.930 . S
C9 N5 1.279 1_455 S
C9 C7 1.358 . S
C9 H67 0.930 . S
C10 C13 1.348 1_556 S
C10 C14 1.356 . S
C10 O61 1.327 . S
C11 N12 1.279 . S
C11 C14 1.358 . S
C11 H68 0.930 . S
N12 C11 1.279 . S
N12 C15 1.314 1_556 S
C13 C10 1.348 1_554 S
C13 C15 1.353 . S
C13 H69 0.929 . S
C14 C10 1.356 . S
C14 C11 1.358 . S
C14 H70 0.930 . S
C15 N12 1.314 1_554 S
C15 C13 1.353 . S
C15 H71 0.930 . S
C16 N17 1.314 . S
C16 C21 1.353 . S
C16 H22 0.930 . S
N17 Li0 1.990 . S
N17 C16 1.314 . S
N17 C19 1.279 1_455 S
C18 C19 1.358 . S
C18 C20 1.356 . S
C18 H72 0.930 . S
C19 N17 1.279 1_655 S
C19 C18 1.358 . S
C19 H23 0.930 . S
C20 C18 1.356 . S
C20 C21 1.348 1_655 S
C21 C16 1.353 . S
C21 C20 1.348 1_455 S
C21 H73 0.929 . S
H22 C16 0.930 . S
H23 C19 0.930 . S
C24 N25 1.314 . S
C24 C26 1.353 . S
C24 H30 0.930 . S
N25 Li1 1.999 . S
N25 C24 1.314 . S
N25 C28 1.279 . S
C26 C24 1.353 . S
C26 C29 1.348 . S
C26 H74 0.929 . S
C27 C28 1.358 . S
C27 C29 1.356 . S
C27 H75 0.930 . S
C28 N25 1.279 . S
C28 C27 1.358 . S
C28 H31 0.930 . S
C29 C26 1.348 . S
C29 C27 1.356 . S
H30 C24 0.930 . S
H31 C28 0.930 . S
C32 C34 1.348 1_554 S
C32 C35 1.356 . S
C32 O62 1.325 . S
N33 C36 1.314 . S
N33 C37 1.279 . S
C34 C32 1.348 1_556 S
C34 C36 1.353 1_556 S
C34 H76 0.929 . S
C35 C32 1.356 . S
C35 C37 1.358 . S
C35 H77 0.930 . S
C36 N33 1.314 . S
C36 C34 1.353 1_554 S
C36 H78 0.930 1_554 S
C37 N33 1.279 . S
C37 C35 1.358 . S
C37 H79 0.930 . S
C38 C39 1.348 . S
C38 C40 1.356 . S
C38 O63 1.325 . S
C39 C38 1.348 . S
C39 C41 1.353 . S
C39 H80 0.929 . S
C40 C38 1.356 . S
C40 C42 1.358 . S
C40 H81 0.930 1_455 S
C41 C39 1.353 . S
C41 N43 1.314 . S
C41 H82 0.930 . S
C42 C40 1.358 . S
C42 N43 1.279 . S
C42 H83 0.930 1_455 S
N43 C41 1.314 . S
N43 C42 1.279 . S
C44 C46 1.353 . S
C44 N47 1.314 . S
C44 H50 0.930 . S
C45 N47 1.279 . S
C45 C48 1.358 . S
C45 H51 0.930 . S
C46 C44 1.353 . S
C46 C49 1.348 . S
C46 H84 0.929 . S
N47 Li2 1.990 . S
N47 C44 1.314 . S
N47 C45 1.279 . S
C48 C45 1.358 . S
C48 C49 1.356 . S
C48 H85 0.930 . S
C49 C46 1.348 . S
C49 C48 1.356 . S
H50 C44 0.930 . S
H51 C45 0.930 . S
C52 N53 1.314 . S
C52 C54 1.353 . S
C52 H58 0.930 . S
N53 Li3 1.990 . S
N53 C52 1.314 . S
N53 C56 1.279 . S
C54 C52 1.353 . S
C54 C57 1.348 . S
C54 H86 0.929 . S
C55 C56 1.358 . S
C55 C57 1.356 . S
C55 H87 0.930 . S
C56 N53 1.279 . S
C56 C55 1.358 . S
C56 H59 0.930 . S
C57 C54 1.348 . S
C57 C55 1.356 . S
H58 C52 0.930 . S
H59 C56 0.930 . S
O60 Li0 1.956 . S
O60 Li1 1.935 1_454 S
O60 Li2 1.961 . S
O60 C4 1.325 . S
O61 Li0 1.959 1_656 S
O61 Li1 1.956 . S
O61 Li3 1.968 1_655 S
O61 C10 1.327 . S
O62 Li0 1.961 . S
O62 Li2 1.956 . S
O62 Li3 1.970 1_554 S
O62 C32 1.325 . S
O63 Li1 1.984 1_455 S
O63 Li2 1.970 1_556 S
O63 Li3 1.956 . S
O63 C38 1.325 . S
H64 C6 0.929 . S
H65 C7 0.930 . S
H66 C8 0.930 . S
H67 C9 0.930 . S
H68 C11 0.930 . S
H69 C13 0.929 . S
H70 C14 0.930 . S
H71 C15 0.930 . S
H72 C18 0.930 . S
H73 C21 0.929 . S
H74 C26 0.929 . S
H75 C27 0.930 . S
H76 C34 0.929 . S
H77 C35 0.930 . S
H78 C36 0.930 1_556 S
H79 C37 0.930 . S
H80 C39 0.929 . S
H81 C40 0.930 1_655 S
H82 C41 0.930 . S
H83 C42 0.930 1_655 S
H84 C46 0.929 . S
H85 C48 0.930 . S
H86 C54 0.929 . S
H87 C55 0.930 . S
Li88 N105 1.999 . S
Li88 O148 1.956 . S
Li88 O149 1.935 1_556 S
Li88 O150 1.984 . S
Li89 N113 1.990 . S
Li89 O148 1.959 1_554 S
Li89 O149 1.956 . S
Li89 O151 1.961 . S
Li90 N135 1.990 . S
Li90 O148 1.968 . S
Li90 O150 1.956 . S
Li90 O151 1.970 1_556 S
Li91 N141 1.990 . S
Li91 O149 1.961 . S
Li91 O150 1.970 1_554 S
Li91 O151 1.956 . S
C92 C94 1.348 1_556 S
C92 C95 1.356 . S
C92 O148 1.327 . S
N93 C96 1.314 1_556 S
N93 C97 1.279 . S
C94 C92 1.348 1_554 S
C94 C96 1.353 . S
C94 H152 0.929 . S
C95 C92 1.356 . S
C95 C97 1.358 . S
C95 H153 0.930 . S
C96 N93 1.314 1_554 S
C96 C94 1.353 . S
C96 H154 0.930 . S
C97 N93 1.279 . S
C97 C95 1.358 . S
C97 H155 0.930 . S
C98 C101 1.348 . S
C98 C102 1.356 . S
C98 O149 1.325 . S
C99 N100 1.279 . S
C99 C102 1.358 . S
C99 H156 0.930 . S
N100 C99 1.279 . S
N100 C103 1.314 . S
C101 C98 1.348 . S
C101 C103 1.353 . S
C101 H157 0.929 . S
C102 C98 1.356 . S
C102 C99 1.358 . S
C102 H158 0.930 . S
C103 N100 1.314 . S
C103 C101 1.353 . S
C103 H159 0.930 . S
C104 N105 1.314 . S
C104 C109 1.353 . S
C104 H110 0.930 . S
N105 Li88 1.999 . S
N105 C104 1.314 . S
N105 C107 1.279 . S
C106 C107 1.358 . S
C106 C108 1.356 . S
C106 H160 0.930 . S
C107 N105 1.279 . S
C107 C106 1.358 . S
C107 H111 0.930 . S
C108 C106 1.356 . S
C108 C109 1.348 . S
C109 C104 1.353 . S
C109 C108 1.348 . S
C109 H161 0.929 . S
H110 C104 0.930 . S
H111 C107 0.930 . S
C112 N113 1.314 . S
C112 C114 1.353 . S
C112 H118 0.930 . S
N113 Li89 1.990 . S
N113 C112 1.314 . S
N113 C116 1.279 . S
C114 C112 1.353 . S
C114 C117 1.348 . S
C114 H162 0.929 . S
C115 C116 1.358 . S
C115 C117 1.356 . S
C115 H163 0.930 . S
C116 N113 1.279 . S
C116 C115 1.358 . S
C116 H119 0.930 . S
C117 C114 1.348 . S
C117 C115 1.356 . S
H118 C112 0.930 . S
H119 C116 0.930 . S
C120 C122 1.348 . S
C120 C123 1.356 . S
C120 O150 1.325 . S
N121 C124 1.314 . S
N121 C125 1.279 . S
C122 C120 1.348 . S
C122 C124 1.353 . S
C122 H164 0.929 . S
C123 C120 1.356 . S
C123 C125 1.358 . S
C123 H165 0.930 . S
C124 N121 1.314 . S
C124 C122 1.353 . S
C124 H166 0.930 . S
C125 N121 1.279 . S
C125 C123 1.358 . S
C125 H167 0.930 . S
C126 C127 1.348 1_554 S
C126 C128 1.356 . S
C126 O151 1.325 . S
C127 C126 1.348 1_556 S
C127 C129 1.353 1_556 S
C127 H168 0.929 . S
C128 C126 1.356 . S
C128 C130 1.358 . S
C128 H169 0.930 . S
C129 C127 1.353 1_554 S
C129 N131 1.314 . S
C129 H170 0.930 1_554 S
C130 C128 1.358 . S
C130 N131 1.279 . S
C130 H171 0.930 . S
N131 C129 1.314 . S
N131 C130 1.279 . S
C132 C134 1.353 . S
C132 N135 1.314 . S
C132 H138 0.930 . S
C133 N135 1.279 . S
C133 C136 1.358 . S
C133 H139 0.930 . S
C134 C132 1.353 . S
C134 C137 1.348 . S
C134 H172 0.929 . S
N135 Li90 1.990 . S
N135 C132 1.314 . S
N135 C133 1.279 . S
C136 C133 1.358 . S
C136 C137 1.356 . S
C136 H173 0.930 . S
C137 C134 1.348 . S
C137 C136 1.356 . S
H138 C132 0.930 . S
H139 C133 0.930 . S
C140 N141 1.314 . S
C140 C142 1.353 . S
C140 H146 0.930 . S
N141 Li91 1.990 . S
N141 C140 1.314 . S
N141 C144 1.279 . S
C142 C140 1.353 . S
C142 C145 1.348 . S
C142 H174 0.929 . S
C143 C144 1.358 . S
C143 C145 1.356 . S
C143 H175 0.930 . S
C144 N141 1.279 . S
C144 C143 1.358 . S
C144 H147 0.930 . S
C145 C142 1.348 . S
C145 C143 1.356 . S
H146 C140 0.930 . S
H147 C144 0.930 . S
O148 Li88 1.956 . S
O148 Li89 1.959 1_556 S
O148 Li90 1.968 . S
O148 C92 1.327 . S
O149 Li88 1.935 1_554 S
O149 Li89 1.956 . S
O149 Li91 1.961 . S
O149 C98 1.325 . S
O150 Li88 1.984 . S
O150 Li90 1.956 . S
O150 Li91 1.970 1_556 S
O150 C120 1.325 . S
O151 Li89 1.961 . S
O151 Li90 1.970 1_554 S
O151 Li91 1.956 . S
O151 C126 1.325 . S
H152 C94 0.929 . S
H153 C95 0.930 . S
H154 C96 0.930 . S
H155 C97 0.930 . S
H156 C99 0.930 . S
H157 C101 0.929 . S
H158 C102 0.930 . S
H159 C103 0.930 . S
H160 C106 0.930 . S
H161 C109 0.929 . S
H162 C114 0.929 . S
H163 C115 0.930 . S
H164 C122 0.929 . S
H165 C123 0.930 . S
H166 C124 0.930 . S
H167 C125 0.930 . S
H168 C127 0.929 . S
H169 C128 0.930 . S
H170 C129 0.930 1_556 S
H171 C130 0.930 . S
H172 C134 0.929 . S
H173 C136 0.930 . S
H174 C142 0.929 . S
H175 C143 0.930 . S
Li176 N193 1.999 . S
Li176 O236 1.956 . S
Li176 O237 1.935 1_556 S
Li176 O238 1.984 . S
Li177 N201 1.990 . S
Li177 O236 1.959 1_554 S
Li177 O237 1.956 . S
Li177 O239 1.961 1_545 S
Li178 N223 1.990 . S
Li178 O236 1.968 . S
Li178 O238 1.956 . S
Li178 O239 1.970 1_546 S
Li179 N229 1.990 . S
Li179 O237 1.961 1_565 S
Li179 O238 1.970 1_564 S
Li179 O239 1.956 . S
C180 C182 1.348 1_556 S
C180 C183 1.356 . S
C180 O236 1.327 . S
N181 C184 1.314 1_556 S
N181 C185 1.279 . S
C182 C180 1.348 1_554 S
C182 C184 1.353 . S
C182 H240 0.929 . S
C183 C180 1.356 . S
C183 C185 1.358 . S
C183 H241 0.930 . S
C184 N181 1.314 1_554 S
C184 C182 1.353 . S
C184 H242 0.930 . S
C185 N181 1.279 . S
C185 C183 1.358 . S
C185 H243 0.930 . S
C186 C189 1.348 . S
C186 C190 1.356 . S
C186 O237 1.325 . S
C187 N188 1.279 . S
C187 C190 1.358 . S
C187 H244 0.930 1_545 S
N188 C187 1.279 . S
N188 C191 1.314 . S
C189 C186 1.348 . S
C189 C191 1.353 . S
C189 H245 0.929 . S
C190 C186 1.356 . S
C190 C187 1.358 . S
C190 H246 0.930 1_545 S
C191 N188 1.314 . S
C191 C189 1.353 . S
C191 H247 0.930 . S
C192 N193 1.314 . S
C192 C197 1.353 . S
C192 H198 0.930 . S
N193 Li176 1.999 . S
N193 C192 1.314 . S
N193 C195 1.279 . S
C194 C195 1.358 . S
C194 C196 1.356 . S
C194 H248 0.930 . S
C195 N193 1.279 . S
C195 C194 1.358 . S
C195 H199 0.930 . S
C196 C194 1.356 . S
C196 C197 1.348 . S
C197 C192 1.353 . S
C197 C196 1.348 . S
C197 H249 0.929 . S
H198 C192 0.930 . S
H199 C195 0.930 . S
C200 N201 1.314 . S
C200 C202 1.353 . S
C200 H206 0.930 . S
N201 Li177 1.990 . S
N201 C200 1.314 . S
N201 C204 1.279 . S
C202 C200 1.353 . S
C202 C205 1.348 . S
C202 H250 0.929 . S
C203 C204 1.358 . S
C203 C205 1.356 . S
C203 H251 0.930 . S
C204 N201 1.279 . S
C204 C203 1.358 . S
C204 H207 0.930 . S
C205 C202 1.348 . S
C205 C203 1.356 . S
H206 C200 0.930 . S
H207 C204 0.930 . S
C208 C210 1.348 1_545 S
C208 C211 1.356 . S
C208 O238 1.325 . S
N209 C212 1.314 . S
N209 C213 1.279 1_565 S
C210 C208 1.348 1_565 S
C210 C212 1.353 . S
C210 H252 0.929 . S
C211 C208 1.356 . S
C211 C213 1.358 . S
C211 H253 0.930 . S
C212 N209 1.314 . S
C212 C210 1.353 . S
C212 H254 0.930 . S
C213 N209 1.279 1_545 S
C213 C211 1.358 . S
C213 H255 0.930 . S
C214 C215 1.348 1_554 S
C214 C216 1.356 . S
C214 O239 1.325 . S
C215 C214 1.348 1_556 S
C215 C217 1.353 1_556 S
C215 H256 0.929 . S
C216 C214 1.356 . S
C216 C218 1.358 . S
C216 H257 0.930 . S
C217 C215 1.353 1_554 S
C217 N219 1.314 . S
C217 H258 0.930 1_554 S
C218 C216 1.358 . S
C218 N219 1.279 . S
C218 H259 0.930 . S
N219 C217 1.314 . S
N219 C218 1.279 . S
C220 C222 1.353 . S
C220 N223 1.314 . S
C220 H226 0.930 . S
C221 N223 1.279 1_565 S
C221 C224 1.358 . S
C221 H227 0.930 . S
C222 C220 1.353 . S
C222 C225 1.348 1_545 S
C222 H260 0.929 . S
N223 Li178 1.990 . S
N223 C220 1.314 . S
N223 C221 1.279 1_545 S
C224 C221 1.358 . S
C224 C225 1.356 . S
C224 H261 0.930 . S
C225 C222 1.348 1_565 S
C225 C224 1.356 . S
H226 C220 0.930 . S
H227 C221 0.930 . S
C228 N229 1.314 . S
C228 C230 1.353 . S
C228 H234 0.930 . S
N229 Li179 1.990 . S
N229 C228 1.314 . S
N229 C232 1.279 . S
C230 C228 1.353 . S
C230 C233 1.348 . S
C230 H262 0.929 . S
C231 C232 1.358 . S
C231 C233 1.356 . S
C231 H263 0.930 . S
C232 N229 1.279 . S
C232 C231 1.358 . S
C232 H235 0.930 . S
C233 C230 1.348 . S
C233 C231 1.356 . S
H234 C228 0.930 . S
H235 C232 0.930 . S
O236 Li176 1.956 . S
O236 Li177 1.959 1_556 S
O236 Li178 1.968 . S
O236 C180 1.327 . S
O237 Li176 1.935 1_554 S
O237 Li177 1.956 . S
O237 Li179 1.961 1_545 S
O237 C186 1.325 . S
O238 Li176 1.984 . S
O238 Li178 1.956 . S
O238 Li179 1.970 1_546 S
O238 C208 1.325 . S
O239 Li177 1.961 1_565 S
O239 Li178 1.970 1_564 S
O239 Li179 1.956 . S
O239 C214 1.325 . S
H240 C182 0.929 . S
H241 C183 0.930 . S
H242 C184 0.930 . S
H243 C185 0.930 . S
H244 C187 0.930 1_565 S
H245 C189 0.929 . S
H246 C190 0.930 1_565 S
H247 C191 0.930 . S
H248 C194 0.930 . S
H249 C197 0.929 . S
H250 C202 0.929 . S
H251 C203 0.930 . S
H252 C210 0.929 . S
H253 C211 0.930 . S
H254 C212 0.930 . S
H255 C213 0.930 . S
H256 C215 0.929 . S
H257 C216 0.930 . S
H258 C217 0.930 1_556 S
H259 C218 0.930 . S
H260 C222 0.929 . S
H261 C224 0.930 . S
H262 C230 0.929 . S
H263 C231 0.930 . S
Li264 N281 1.990 . S
Li264 O324 1.956 . S
Li264 O325 1.970 . S
Li264 O326 1.961 . S
Li265 N289 1.990 . S
Li265 O324 1.970 . S
Li265 O325 1.956 . S
Li265 O327 1.961 . S
Li266 N311 1.990 . S
Li266 O324 1.961 . S
Li266 O326 1.956 . S
Li266 O327 1.970 . S
Li267 N317 1.990 . S
Li267 O325 1.961 . S
Li267 O326 1.970 . S
Li267 O327 1.956 . S
C268 C270 1.348 . S
C268 C271 1.356 . S
C268 O324 1.325 . S
N269 C272 1.314 . S
N269 C273 1.279 . S
C270 C268 1.348 . S
C270 C272 1.353 . S
C270 H328 0.929 . S
C271 C268 1.356 . S
C271 C273 1.358 . S
C271 H329 0.930 . S
C272 N269 1.314 . S
C272 C270 1.353 . S
C272 H330 0.930 . S
C273 N269 1.279 . S
C273 C271 1.358 . S
C273 H331 0.930 . S
C274 C277 1.348 . S
C274 C278 1.356 . S
C274 O325 1.325 . S
C275 N276 1.279 . S
C275 C278 1.358 . S
C275 H332 0.930 . S
N276 C275 1.279 . S
N276 C279 1.314 . S
C277 C274 1.348 . S
C277 C279 1.353 . S
C277 H333 0.929 . S
C278 C274 1.356 . S
C278 C275 1.358 . S
C278 H334 0.930 . S
C279 N276 1.314 . S
C279 C277 1.353 . S
C279 H335 0.930 . S
C280 N281 1.314 . S
C280 C285 1.353 . S
C280 H286 0.930 . S
N281 Li264 1.990 . S
N281 C280 1.314 . S
N281 C283 1.279 . S
C282 C283 1.358 . S
C282 C284 1.356 . S
C282 H336 0.930 . S
C283 N281 1.279 . S
C283 C282 1.358 . S
C283 H287 0.930 . S
C284 C282 1.356 . S
C284 C285 1.348 . S
C285 C280 1.353 . S
C285 C284 1.348 . S
C285 H337 0.929 . S
H286 C280 0.930 . S
H287 C283 0.930 . S
C288 N289 1.314 . S
C288 C290 1.353 . S
C288 H294 0.930 . S
N289 Li265 1.990 . S
N289 C288 1.314 . S
N289 C292 1.279 . S
C290 C288 1.353 . S
C290 C293 1.348 . S
C290 H338 0.929 . S
C291 C292 1.358 . S
C291 C293 1.356 . S
C291 H339 0.930 . S
C292 N289 1.279 . S
C292 C291 1.358 . S
C292 H295 0.930 . S
C293 C290 1.348 . S
C293 C291 1.356 . S
H294 C288 0.930 . S
H295 C292 0.930 . S
C296 C298 1.348 . S
C296 C299 1.356 . S
C296 O326 1.325 . S
N297 C300 1.314 . S
N297 C301 1.279 . S
C298 C296 1.348 . S
C298 C300 1.353 . S
C298 H340 0.929 . S
C299 C296 1.356 . S
C299 C301 1.358 . S
C299 H341 0.930 . S
C300 N297 1.314 . S
C300 C298 1.353 . S
C300 H342 0.930 . S
C301 N297 1.279 . S
C301 C299 1.358 . S
C301 H343 0.930 . S
C302 C303 1.348 . S
C302 C304 1.356 . S
C302 O327 1.325 . S
C303 C302 1.348 . S
C303 C305 1.353 . S
C303 H344 0.929 . S
C304 C302 1.356 . S
C304 C306 1.358 . S
C304 H345 0.930 . S
C305 C303 1.353 . S
C305 N307 1.314 . S
C305 H346 0.930 . S
C306 C304 1.358 . S
C306 N307 1.279 . S
C306 H347 0.930 . S
N307 C305 1.314 . S
N307 C306 1.279 . S
C308 C310 1.353 . S
C308 N311 1.314 . S
C308 H314 0.930 . S
C309 N311 1.279 . S
C309 C312 1.358 . S
C309 H315 0.930 . S
C310 C308 1.353 . S
C310 C313 1.348 . S
C310 H348 0.929 . S
N311 Li266 1.990 . S
N311 C308 1.314 . S
N311 C309 1.279 . S
C312 C309 1.358 . S
C312 C313 1.356 . S
C312 H349 0.930 . S
C313 C310 1.348 . S
C313 C312 1.356 . S
H314 C308 0.930 . S
H315 C309 0.930 . S
C316 N317 1.314 . S
C316 C318 1.353 . S
C316 H322 0.930 . S
N317 Li267 1.990 . S
N317 C316 1.314 . S
N317 C320 1.279 . S
C318 C316 1.353 . S
C318 C321 1.348 . S
C318 H350 0.929 . S
C319 C320 1.358 . S
C319 C321 1.356 . S
C319 H351 0.930 . S
C320 N317 1.279 . S
C320 C319 1.358 . S
C320 H323 0.930 . S
C321 C318 1.348 . S
C321 C319 1.356 . S
H322 C316 0.930 . S
H323 C320 0.930 . S
O324 Li264 1.956 . S
O324 Li265 1.970 . S
O324 Li266 1.961 . S
O324 C268 1.325 . S
O325 Li264 1.970 . S
O325 Li265 1.956 . S
O325 Li267 1.961 . S
O325 C274 1.325 . S
O326 Li264 1.961 . S
O326 Li266 1.956 . S
O326 Li267 1.970 . S
O326 C296 1.325 . S
O327 Li265 1.961 . S
O327 Li266 1.970 . S
O327 Li267 1.956 . S
O327 C302 1.325 . S
H328 C270 0.929 . S
H329 C271 0.930 . S
H330 C272 0.930 . S
H331 C273 0.930 . S
H332 C275 0.930 . S
H333 C277 0.929 . S
H334 C278 0.930 . S
H335 C279 0.930 . S
H336 C282 0.930 . S
H337 C285 0.929 . S
H338 C290 0.929 . S
H339 C291 0.930 . S
H340 C298 0.929 . S
H341 C299 0.930 . S
H342 C300 0.930 . S
H343 C301 0.930 . S
H344 C303 0.929 . S
H345 C304 0.930 . S
H346 C305 0.930 . S
H347 C306 0.930 . S
H348 C310 0.929 . S
H349 C312 0.930 . S
H350 C318 0.929 . S
H351 C319 0.930 . S
Li352 N369 1.990 . S
Li352 O412 1.956 . S
Li352 O413 1.970 . S
Li352 O414 1.961 . S
Li353 N377 1.990 . S
Li353 O412 1.970 . S
Li353 O413 1.956 . S
Li353 O415 1.961 . S
Li354 N399 1.990 . S
Li354 O412 1.961 . S
Li354 O414 1.956 . S
Li354 O415 1.970 . S
Li355 N405 1.990 . S
Li355 O413 1.961 . S
Li355 O414 1.970 . S
Li355 O415 1.956 . S
C356 C358 1.348 . S
C356 C359 1.356 . S
C356 O412 1.325 . S
N357 C360 1.314 . S
N357 C361 1.279 . S
C358 C356 1.348 . S
C358 C360 1.353 . S
C358 H416 0.929 . S
C359 C356 1.356 . S
C359 C361 1.358 . S
C359 H417 0.930 . S
C360 N357 1.314 . S
C360 C358 1.353 . S
C360 H418 0.930 . S
C361 N357 1.279 . S
C361 C359 1.358 . S
C361 H419 0.930 . S
C362 C365 1.348 . S
C362 C366 1.356 . S
C362 O413 1.325 . S
C363 N364 1.279 . S
C363 C366 1.358 . S
C363 H420 0.930 . S
N364 C363 1.279 . S
N364 C367 1.314 . S
C365 C362 1.348 . S
C365 C367 1.353 . S
C365 H421 0.929 . S
C366 C362 1.356 . S
C366 C363 1.358 . S
C366 H422 0.930 . S
C367 N364 1.314 . S
C367 C365 1.353 . S
C367 H423 0.930 . S
C368 N369 1.314 . S
C368 C373 1.353 . S
C368 H374 0.930 . S
N369 Li352 1.990 . S
N369 C368 1.314 . S
N369 C371 1.279 . S
C370 C371 1.358 . S
C370 C372 1.356 . S
C370 H424 0.930 . S
C371 N369 1.279 . S
C371 C370 1.358 . S
C371 H375 0.930 . S
C372 C370 1.356 . S
C372 C373 1.348 . S
C373 C368 1.353 . S
C373 C372 1.348 . S
C373 H425 0.929 . S
H374 C368 0.930 . S
H375 C371 0.930 . S
C376 N377 1.314 . S
C376 C378 1.353 . S
C376 H382 0.930 . S
N377 Li353 1.990 . S
N377 C376 1.314 . S
N377 C380 1.279 . S
C378 C376 1.353 . S
C378 C381 1.348 . S
C378 H426 0.929 . S
C379 C380 1.358 . S
C379 C381 1.356 . S
C379 H427 0.930 . S
C380 N377 1.279 . S
C380 C379 1.358 . S
C380 H383 0.930 . S
C381 C378 1.348 . S
C381 C379 1.356 . S
H382 C376 0.930 . S
H383 C380 0.930 . S
C384 C386 1.348 . S
C384 C387 1.356 . S
C384 O414 1.325 . S
N385 C388 1.314 . S
N385 C389 1.279 . S
C386 C384 1.348 . S
C386 C388 1.353 . S
C386 H428 0.929 . S
C387 C384 1.356 . S
C387 C389 1.358 . S
C387 H429 0.930 . S
C388 N385 1.314 . S
C388 C386 1.353 . S
C388 H430 0.930 . S
C389 N385 1.279 . S
C389 C387 1.358 . S
C389 H431 0.930 . S
C390 C391 1.348 . S
C390 C392 1.356 . S
C390 O415 1.325 . S
C391 C390 1.348 . S
C391 C393 1.353 . S
C391 H432 0.929 . S
C392 C390 1.356 . S
C392 C394 1.358 . S
C392 H433 0.930 . S
C393 C391 1.353 . S
C393 N395 1.314 . S
C393 H434 0.930 . S
C394 C392 1.358 . S
C394 N395 1.279 . S
C394 H435 0.930 . S
N395 C393 1.314 . S
N395 C394 1.279 . S
C396 C398 1.353 . S
C396 N399 1.314 . S
C396 H402 0.930 . S
C397 N399 1.279 . S
C397 C400 1.358 . S
C397 H403 0.930 . S
C398 C396 1.353 . S
C398 C401 1.348 . S
C398 H436 0.929 . S
N399 Li354 1.990 . S
N399 C396 1.314 . S
N399 C397 1.279 . S
C400 C397 1.358 . S
C400 C401 1.356 . S
C400 H437 0.930 . S
C401 C398 1.348 . S
C401 C400 1.356 . S
H402 C396 0.930 . S
H403 C397 0.930 . S
C404 N405 1.314 . S
C404 C406 1.353 . S
C404 H410 0.930 . S
N405 Li355 1.990 . S
N405 C404 1.314 . S
N405 C408 1.279 . S
C406 C404 1.353 . S
C406 C409 1.348 . S
C406 H438 0.929 . S
C407 C408 1.358 . S
C407 C409 1.356 . S
C407 H439 0.930 . S
C408 N405 1.279 . S
C408 C407 1.358 . S
C408 H411 0.930 . S
C409 C406 1.348 . S
C409 C407 1.356 . S
H410 C404 0.930 . S
H411 C408 0.930 . S
O412 Li352 1.956 . S
O412 Li353 1.970 . S
O412 Li354 1.961 . S
O412 C356 1.325 . S
O413 Li352 1.970 . S
O413 Li353 1.956 . S
O413 Li355 1.961 . S
O413 C362 1.325 . S
O414 Li352 1.961 . S
O414 Li354 1.956 . S
O414 Li355 1.970 . S
O414 C384 1.325 . S
O415 Li353 1.961 . S
O415 Li354 1.970 . S
O415 Li355 1.956 . S
O415 C390 1.325 . S
H416 C358 0.929 . S
H417 C359 0.930 . S
H418 C360 0.930 . S
H419 C361 0.930 . S
H420 C363 0.930 . S
H421 C365 0.929 . S
H422 C366 0.930 . S
H423 C367 0.930 . S
H424 C370 0.930 . S
H425 C373 0.929 . S
H426 C378 0.929 . S
H427 C379 0.930 . S
H428 C386 0.929 . S
H429 C387 0.930 . S
H430 C388 0.930 . S
H431 C389 0.930 . S
H432 C391 0.929 . S
H433 C392 0.930 . S
H434 C393 0.930 . S
H435 C394 0.930 . S
H436 C398 0.929 . S
H437 C400 0.930 . S
H438 C406 0.929 . S
H439 C407 0.930 . S
Li440 N457 1.990 . S
Li440 O500 1.956 . S
Li440 O501 1.970 . S
Li440 O502 1.961 . S
Li441 N465 1.990 . S
Li441 O500 1.970 . S
Li441 O501 1.956 . S
Li441 O503 1.961 . S
Li442 N487 1.990 . S
Li442 O500 1.961 . S
Li442 O502 1.956 . S
Li442 O503 1.970 . S
Li443 N493 1.990 . S
Li443 O501 1.961 . S
Li443 O502 1.970 . S
Li443 O503 1.956 . S
C444 C446 1.348 . S
C444 C447 1.356 . S
C444 O500 1.325 . S
N445 C448 1.314 . S
N445 C449 1.279 . S
C446 C444 1.348 . S
C446 C448 1.353 . S
C446 H504 0.929 . S
C447 C444 1.356 . S
C447 C449 1.358 . S
C447 H505 0.930 . S
C448 N445 1.314 . S
C448 C446 1.353 . S
C448 H506 0.930 . S
C449 N445 1.279 . S
C449 C447 1.358 . S
C449 H507 0.930 . S
C450 C453 1.348 . S
C450 C454 1.356 . S
C450 O501 1.325 . S
C451 N452 1.295 . S
C451 C454 1.358 . S
C451 H508 0.930 . S
N452 C451 1.295 . S
N452 C455 1.319 . S
C453 C450 1.348 . S
C453 C455 1.353 . S
C453 H509 0.929 . S
C454 C450 1.356 . S
C454 C451 1.358 . S
C454 H510 0.930 . S
C455 N452 1.319 . S
C455 C453 1.353 . S
C455 H511 0.930 1_655 S
C456 N457 1.314 . S
C456 C461 1.353 . S
C456 H462 0.930 . S
N457 Li440 1.990 . S
N457 C456 1.314 . S
N457 C459 1.279 . S
C458 C459 1.358 . S
C458 C460 1.356 . S
C458 H512 0.930 . S
C459 N457 1.279 . S
C459 C458 1.358 . S
C459 H463 0.930 . S
C460 C458 1.356 . S
C460 C461 1.348 . S
C461 C456 1.353 . S
C461 C460 1.348 . S
C461 H513 0.929 . S
H462 C456 0.930 . S
H463 C459 0.930 . S
C464 N465 1.314 . S
C464 C466 1.353 . S
C464 H470 0.930 . S
N465 Li441 1.990 . S
N465 C464 1.314 . S
N465 C468 1.279 . S
C466 C464 1.353 . S
C466 C469 1.348 . S
C466 H514 0.929 . S
C467 C468 1.358 . S
C467 C469 1.356 . S
C467 H515 0.930 . S
C468 N465 1.279 . S
C468 C467 1.358 . S
C468 H471 0.930 . S
C469 C466 1.348 . S
C469 C467 1.356 . S
H470 C464 0.930 . S
H471 C468 0.930 . S
C472 C474 1.348 . S
C472 C475 1.356 . S
C472 O502 1.325 . S
N473 C476 1.314 . S
N473 C477 1.279 . S
C474 C472 1.348 . S
C474 C476 1.353 . S
C474 H516 0.929 . S
C475 C472 1.356 . S
C475 C477 1.358 . S
C475 H517 0.930 . S
C476 N473 1.314 . S
C476 C474 1.353 . S
C476 H518 0.930 . S
C477 N473 1.279 . S
C477 C475 1.358 . S
C477 H519 0.930 . S
C478 C479 1.348 . S
C478 C480 1.356 . S
C478 O503 1.325 . S
C479 C478 1.348 . S
C479 C481 1.353 . S
C479 H520 0.929 . S
C480 C478 1.356 . S
C480 C482 1.358 . S
C480 H521 0.930 . S
C481 C479 1.353 . S
C481 N483 1.314 . S
C481 H522 0.930 . S
C482 C480 1.358 . S
C482 N483 1.279 . S
C482 H523 0.930 . S
N483 C481 1.314 . S
N483 C482 1.279 . S
C484 C486 1.353 . S
C484 N487 1.314 . S
C484 H490 0.930 . S
C485 N487 1.279 . S
C485 C488 1.358 . S
C485 H491 0.930 . S
C486 C484 1.353 . S
C486 C489 1.348 . S
C486 H524 0.929 . S
N487 Li442 1.990 . S
N487 C484 1.314 . S
N487 C485 1.279 . S
C488 C485 1.358 . S
C488 C489 1.356 . S
C488 H525 0.930 . S
C489 C486 1.348 . S
C489 C488 1.356 . S
H490 C484 0.930 . S
H491 C485 0.930 . S
C492 N493 1.314 . S
C492 C494 1.353 . S
C492 H498 0.930 . S
N493 Li443 1.990 . S
N493 C492 1.314 . S
N493 C496 1.279 . S
C494 C492 1.353 . S
C494 C497 1.348 . S
C494 H526 0.929 . S
C495 C496 1.358 . S
C495 C497 1.356 . S
C495 H527 0.930 . S
C496 N493 1.279 . S
C496 C495 1.358 . S
C496 H499 0.930 . S
C497 C494 1.348 . S
C497 C495 1.356 . S
H498 C492 0.930 . S
H499 C496 0.930 . S
O500 Li440 1.956 . S
O500 Li441 1.970 . S
O500 Li442 1.961 . S
O500 C444 1.325 . S
O501 Li440 1.970 . S
O501 Li441 1.956 . S
O501 Li443 1.961 . S
O501 C450 1.325 . S
O502 Li440 1.961 . S
O502 Li442 1.956 . S
O502 Li443 1.970 . S
O502 C472 1.325 . S
O503 Li441 1.961 . S
O503 Li442 1.970 . S
O503 Li443 1.956 . S
O503 C478 1.325 . S
H504 C446 0.929 . S
H505 C447 0.930 . S
H506 C448 0.930 . S
H507 C449 0.930 . S
H508 C451 0.930 . S
H509 C453 0.929 . S
H510 C454 0.930 . S
H511 C455 0.930 1_455 S
H512 C458 0.930 . S
H513 C461 0.929 . S
H514 C466 0.929 . S
H515 C467 0.930 . S
H516 C474 0.929 . S
H517 C475 0.930 . S
H518 C476 0.930 . S
H519 C477 0.930 . S
H520 C479 0.929 . S
H521 C480 0.930 . S
H522 C481 0.930 . S
H523 C482 0.930 . S
H524 C486 0.929 . S
H525 C488 0.930 . S
H526 C494 0.929 . S
H527 C495 0.930 . S
Li528 N545 1.990 . S
Li528 O588 1.956 . S
Li528 O589 1.970 . S
Li528 O590 1.961 . S
Li529 N553 1.990 . S
Li529 O588 1.970 . S
Li529 O589 1.956 . S
Li529 O591 1.961 . S
Li530 N575 1.990 . S
Li530 O588 1.961 . S
Li530 O590 1.956 . S
Li530 O591 1.970 . S
Li531 N581 1.990 . S
Li531 O589 1.961 . S
Li531 O590 1.970 . S
Li531 O591 1.956 . S
C532 C534 1.348 . S
C532 C535 1.356 . S
C532 O588 1.325 . S
N533 C536 1.314 . S
N533 C537 1.279 . S
C534 C532 1.348 . S
C534 C536 1.353 . S
C534 H592 0.929 . S
C535 C532 1.356 . S
C535 C537 1.358 . S
C535 H593 0.930 . S
C536 N533 1.314 . S
C536 C534 1.353 . S
C536 H594 0.930 . S
C537 N533 1.279 . S
C537 C535 1.358 . S
C537 H595 0.930 . S
C538 C541 1.348 . S
C538 C542 1.356 . S
C538 O589 1.325 . S
C539 N540 1.279 . S
C539 C542 1.358 . S
C539 H596 0.930 . S
N540 C539 1.279 . S
N540 C543 1.314 . S
C541 C538 1.348 . S
C541 C543 1.353 . S
C541 H597 0.929 . S
C542 C538 1.356 . S
C542 C539 1.358 . S
C542 H598 0.930 . S
C543 N540 1.314 . S
C543 C541 1.353 . S
C543 H599 0.930 . S
C544 N545 1.314 . S
C544 C549 1.353 . S
C544 H550 0.930 . S
N545 Li528 1.990 . S
N545 C544 1.314 . S
N545 C547 1.279 . S
C546 C547 1.358 . S
C546 C548 1.356 . S
C546 H600 0.930 . S
C547 N545 1.279 . S
C547 C546 1.358 . S
C547 H551 0.930 . S
C548 C546 1.356 . S
C548 C549 1.348 . S
C549 C544 1.353 . S
C549 C548 1.348 . S
C549 H601 0.929 . S
H550 C544 0.930 . S
H551 C547 0.930 . S
C552 N553 1.314 . S
C552 C554 1.353 . S
C552 H558 0.930 . S
N553 Li529 1.990 . S
N553 C552 1.314 . S
N553 C556 1.279 . S
C554 C552 1.353 . S
C554 C557 1.348 . S
C554 H602 0.929 . S
C555 C556 1.358 . S
C555 C557 1.356 . S
C555 H603 0.930 . S
C556 N553 1.279 . S
C556 C555 1.358 . S
C556 H559 0.930 . S
C557 C554 1.348 . S
C557 C555 1.356 . S
H558 C552 0.930 . S
H559 C556 0.930 . S
C560 C562 1.348 . S
C560 C563 1.356 . S
C560 O590 1.325 . S
N561 C564 1.310 1_545 S
N561 C565 1.263 1_545 S
C562 C560 1.348 . S
C562 C564 1.353 . S
C562 H604 0.929 . S
C563 C560 1.356 . S
C563 C565 1.358 . S
C563 H605 0.930 . S
C564 N561 1.310 1_565 S
C564 C562 1.353 . S
C564 H606 0.930 1_565 S
C565 N561 1.263 1_565 S
C565 C563 1.358 . S
C565 H607 0.930 . S
C566 C567 1.348 . S
C566 C568 1.356 . S
C566 O591 1.325 . S
C567 C566 1.348 . S
C567 C569 1.353 . S
C567 H608 0.929 . S
C568 C566 1.356 . S
C568 C570 1.358 . S
C568 H609 0.930 . S
C569 C567 1.353 . S
C569 N571 1.314 . S
C569 H610 0.930 . S
C570 C568 1.358 . S
C570 N571 1.279 . S
C570 H611 0.930 . S
N571 C569 1.314 . S
N571 C570 1.279 . S
C572 C574 1.353 . S
C572 N575 1.314 . S
C572 H578 0.930 . S
C573 N575 1.279 . S
C573 C576 1.358 . S
C573 H579 0.930 . S
C574 C572 1.353 . S
C574 C577 1.348 . S
C574 H612 0.929 . S
N575 Li530 1.990 . S
N575 C572 1.314 . S
N575 C573 1.279 . S
C576 C573 1.358 . S
C576 C577 1.356 . S
C576 H613 0.930 . S
C577 C574 1.348 . S
C577 C576 1.356 . S
H578 C572 0.930 . S
H579 C573 0.930 . S
C580 N581 1.314 . S
C580 C582 1.353 . S
C580 H586 0.930 . S
N581 Li531 1.990 . S
N581 C580 1.314 . S
N581 C584 1.279 . S
C582 C580 1.353 . S
C582 C585 1.348 . S
C582 H614 0.929 . S
C583 C584 1.358 . S
C583 C585 1.356 . S
C583 H615 0.930 . S
C584 N581 1.279 . S
C584 C583 1.358 . S
C584 H587 0.930 . S
C585 C582 1.348 . S
C585 C583 1.356 . S
H586 C580 0.930 . S
H587 C584 0.930 . S
O588 Li528 1.956 . S
O588 Li529 1.970 . S
O588 Li530 1.961 . S
O588 C532 1.325 . S
O589 Li528 1.970 . S
O589 Li529 1.956 . S
O589 Li531 1.961 . S
O589 C538 1.325 . S
O590 Li528 1.961 . S
O590 Li530 1.956 . S
O590 Li531 1.970 . S
O590 C560 1.325 . S
O591 Li529 1.961 . S
O591 Li530 1.970 . S
O591 Li531 1.956 . S
O591 C566 1.325 . S
H592 C534 0.929 . S
H593 C535 0.930 . S
H594 C536 0.930 . S
H595 C537 0.930 . S
H596 C539 0.930 . S
H597 C541 0.929 . S
H598 C542 0.930 . S
H599 C543 0.930 . S
H600 C546 0.930 . S
H601 C549 0.929 . S
H602 C554 0.929 . S
H603 C555 0.930 . S
H604 C562 0.929 . S
H605 C563 0.930 . S
H606 C564 0.930 1_545 S
H607 C565 0.930 . S
H608 C567 0.929 . S
H609 C568 0.930 . S
H610 C569 0.930 . S
H611 C570 0.930 . S
H612 C574 0.929 . S
H613 C576 0.930 . S
H614 C582 0.929 . S
H615 C583 0.930 . S
Li616 N633 1.990 . S
Li616 O676 1.956 . S
Li616 O677 1.970 . S
Li616 O678 1.961 . S
Li617 N641 1.990 . S
Li617 O676 1.970 . S
Li617 O677 1.956 . S
Li617 O679 1.961 . S
Li618 N663 1.990 . S
Li618 O676 1.961 . S
Li618 O678 1.956 . S
Li618 O679 1.970 . S
Li619 N669 1.990 . S
Li619 O677 1.961 . S
Li619 O678 1.970 . S
Li619 O679 1.956 . S
C620 C622 1.348 . S
C620 C623 1.356 . S
C620 O676 1.325 . S
N621 C624 1.314 . S
N621 C625 1.279 . S
C622 C620 1.348 . S
C622 C624 1.353 . S
C622 H680 0.929 . S
C623 C620 1.356 . S
C623 C625 1.358 . S
C623 H681 0.930 . S
C624 N621 1.314 . S
C624 C622 1.353 . S
C624 H682 0.930 . S
C625 N621 1.279 . S
C625 C623 1.358 . S
C625 H683 0.930 . S
C626 C629 1.348 . S
C626 C630 1.356 . S
C626 O677 1.325 . S
C627 N628 1.279 . S
C627 C630 1.358 . S
C627 H684 0.930 . S
N628 C627 1.279 . S
N628 C631 1.314 . S
C629 C626 1.348 . S
C629 C631 1.353 . S
C629 H685 0.929 . S
C630 C626 1.356 . S
C630 C627 1.358 . S
C630 H686 0.930 . S
C631 N628 1.314 . S
C631 C629 1.353 . S
C631 H687 0.930 . S
C632 N633 1.314 . S
C632 C637 1.353 . S
C632 H638 0.930 . S
N633 Li616 1.990 . S
N633 C632 1.314 . S
N633 C635 1.279 . S
C634 C635 1.358 . S
C634 C636 1.356 . S
C634 H688 0.930 . S
C635 N633 1.279 . S
C635 C634 1.358 . S
C635 H639 0.930 . S
C636 C634 1.356 . S
C636 C637 1.348 . S
C637 C632 1.353 . S
C637 C636 1.348 . S
C637 H689 0.929 . S
H638 C632 0.930 . S
H639 C635 0.930 . S
C640 N641 1.314 . S
C640 C642 1.353 . S
C640 H646 0.930 . S
N641 Li617 1.990 . S
N641 C640 1.314 . S
N641 C644 1.279 . S
C642 C640 1.353 . S
C642 C645 1.348 . S
C642 H690 0.929 . S
C643 C644 1.358 . S
C643 C645 1.356 . S
C643 H691 0.930 . S
C644 N641 1.279 . S
C644 C643 1.358 . S
C644 H647 0.930 . S
C645 C642 1.348 . S
C645 C643 1.356 . S
H646 C640 0.930 . S
H647 C644 0.930 . S
C648 C650 1.348 . S
C648 C651 1.356 . S
C648 O678 1.325 . S
N649 C652 1.314 . S
N649 C653 1.279 . S
C650 C648 1.348 . S
C650 C652 1.353 . S
C650 H692 0.929 . S
C651 C648 1.356 . S
C651 C653 1.358 . S
C651 H693 0.930 . S
C652 N649 1.314 . S
C652 C650 1.353 . S
C652 H694 0.930 . S
C653 N649 1.279 . S
C653 C651 1.358 . S
C653 H695 0.930 . S
C654 C655 1.348 . S
C654 C656 1.356 . S
C654 O679 1.325 . S
C655 C654 1.348 . S
C655 C657 1.353 . S
C655 H696 0.929 . S
C656 C654 1.356 . S
C656 C658 1.358 . S
C656 H697 0.930 . S
C657 C655 1.353 . S
C657 N659 1.314 . S
C657 H698 0.930 . S
C658 C656 1.358 . S
C658 N659 1.279 . S
C658 H699 0.930 . S
N659 C657 1.314 . S
N659 C658 1.279 . S
C660 C662 1.353 . S
C660 N663 1.314 . S
C660 H666 0.930 . S
C661 N663 1.279 . S
C661 C664 1.358 . S
C661 H667 0.930 . S
C662 C660 1.353 . S
C662 C665 1.348 . S
C662 H700 0.929 . S
N663 Li618 1.990 . S
N663 C660 1.314 . S
N663 C661 1.279 . S
C664 C661 1.358 . S
C664 C665 1.356 . S
C664 H701 0.930 . S
C665 C662 1.348 . S
C665 C664 1.356 . S
H666 C660 0.930 . S
H667 C661 0.930 . S
C668 N669 1.314 . S
C668 C670 1.353 . S
C668 H674 0.930 . S
N669 Li619 1.990 . S
N669 C668 1.314 . S
N669 C672 1.279 . S
C670 C668 1.353 . S
C670 C673 1.348 . S
C670 H702 0.929 . S
C671 C672 1.358 . S
C671 C673 1.356 . S
C671 H703 0.930 . S
C672 N669 1.279 . S
C672 C671 1.358 . S
C672 H675 0.930 . S
C673 C670 1.348 . S
C673 C671 1.356 . S
H674 C668 0.930 . S
H675 C672 0.930 . S
O676 Li616 1.956 . S
O676 Li617 1.970 . S
O676 Li618 1.961 . S
O676 C620 1.325 . S
O677 Li616 1.970 . S
O677 Li617 1.956 . S
O677 Li619 1.961 . S
O677 C626 1.325 . S
O678 Li616 1.961 . S
O678 Li618 1.956 . S
O678 Li619 1.970 . S
O678 C648 1.325 . S
O679 Li617 1.961 . S
O679 Li618 1.970 . S
O679 Li619 1.956 . S
O679 C654 1.325 . S
H680 C622 0.929 . S
H681 C623 0.930 . S
H682 C624 0.930 . S
H683 C625 0.930 . S
H684 C627 0.930 . S
H685 C629 0.929 . S
H686 C630 0.930 . S
H687 C631 0.930 . S
H688 C634 0.930 . S
H689 C637 0.929 . S
H690 C642 0.929 . S
H691 C643 0.930 . S
H692 C650 0.929 . S
H693 C651 0.930 . S
H694 C652 0.930 . S
H695 C653 0.930 . S
H696 C655 0.929 . S
H697 C656 0.930 . S
H698 C657 0.930 . S
H699 C658 0.930 . S
H700 C662 0.929 . S
H701 C664 0.930 . S
H702 C670 0.929 . S
H703 C671 0.930 . S
Li704 N721 1.990 . S
Li704 O764 1.956 . S
Li704 O765 1.970 . S
Li704 O766 1.961 . S
Li705 N729 1.990 . S
Li705 O764 1.970 . S
Li705 O765 1.956 . S
Li705 O767 1.961 . S
Li706 N751 1.990 . S
Li706 O764 1.961 . S
Li706 O766 1.956 . S
Li706 O767 1.970 . S
Li707 N757 1.990 . S
Li707 O765 1.961 . S
Li707 O766 1.970 . S
Li707 O767 1.956 . S
C708 C710 1.348 . S
C708 C711 1.356 . S
C708 O764 1.325 . S
N709 C712 1.314 . S
N709 C713 1.279 . S
C710 C708 1.348 . S
C710 C712 1.353 . S
C710 H768 0.929 . S
C711 C708 1.356 . S
C711 C713 1.358 . S
C711 H769 0.930 . S
C712 N709 1.314 . S
C712 C710 1.353 . S
C712 H770 0.930 . S
C713 N709 1.279 . S
C713 C711 1.358 . S
C713 H771 0.930 . S
C714 C717 1.348 . S
C714 C718 1.356 . S
C714 O765 1.325 . S
C715 N716 1.279 . S
C715 C718 1.358 . S
C715 H772 0.930 . S
N716 C715 1.279 . S
N716 C719 1.314 . S
C717 C714 1.348 . S
C717 C719 1.353 . S
C717 H773 0.929 . S
C718 C714 1.356 . S
C718 C715 1.358 . S
C718 H774 0.930 . S
C719 N716 1.314 . S
C719 C717 1.353 . S
C719 H775 0.930 . S
C720 N721 1.314 . S
C720 C725 1.353 . S
C720 H726 0.930 . S
N721 Li704 1.990 . S
N721 C720 1.314 . S
N721 C723 1.279 . S
C722 C723 1.358 . S
C722 C724 1.356 . S
C722 H776 0.930 . S
C723 N721 1.279 . S
C723 C722 1.358 . S
C723 H727 0.930 . S
C724 C722 1.356 . S
C724 C725 1.348 . S
C725 C720 1.353 . S
C725 C724 1.348 . S
C725 H777 0.929 . S
H726 C720 0.930 . S
H727 C723 0.930 . S
C728 N729 1.314 . S
C728 C730 1.353 . S
C728 H734 0.930 . S
N729 Li705 1.990 . S
N729 C728 1.314 . S
N729 C732 1.279 . S
C730 C728 1.353 . S
C730 C733 1.348 . S
C730 H778 0.929 . S
C731 C732 1.358 . S
C731 C733 1.356 . S
C731 H779 0.930 . S
C732 N729 1.279 . S
C732 C731 1.358 . S
C732 H735 0.930 . S
C733 C730 1.348 . S
C733 C731 1.356 . S
H734 C728 0.930 . S
H735 C732 0.930 . S
C736 C738 1.348 . S
C736 C739 1.356 . S
C736 O766 1.325 . S
N737 C740 1.314 . S
N737 C741 1.279 . S
C738 C736 1.348 . S
C738 C740 1.353 . S
C738 H780 0.929 . S
C739 C736 1.356 . S
C739 C741 1.358 . S
C739 H781 0.930 . S
C740 N737 1.314 . S
C740 C738 1.353 . S
C740 H782 0.930 . S
C741 N737 1.279 . S
C741 C739 1.358 . S
C741 H783 0.930 . S
C742 C743 1.348 . S
C742 C744 1.356 . S
C742 O767 1.325 . S
C743 C742 1.348 . S
C743 C745 1.353 . S
C743 H784 0.929 . S
C744 C742 1.356 . S
C744 C746 1.358 . S
C744 H785 0.930 . S
C745 C743 1.353 . S
C745 N747 1.314 . S
C745 H786 0.930 . S
C746 C744 1.358 . S
C746 N747 1.279 . S
C746 H787 0.930 . S
N747 C745 1.314 . S
N747 C746 1.279 . S
C748 C750 1.353 . S
C748 N751 1.314 . S
C748 H754 0.930 . S
C749 N751 1.279 . S
C749 C752 1.358 . S
C749 H755 0.930 . S
C750 C748 1.353 . S
C750 C753 1.348 . S
C750 H788 0.929 . S
N751 Li706 1.990 . S
N751 C748 1.314 . S
N751 C749 1.279 . S
C752 C749 1.358 . S
C752 C753 1.356 . S
C752 H789 0.930 . S
C753 C750 1.348 . S
C753 C752 1.356 . S
H754 C748 0.930 . S
H755 C749 0.930 . S
C756 N757 1.314 . S
C756 C758 1.353 . S
C756 H762 0.930 . S
N757 Li707 1.990 . S
N757 C756 1.314 . S
N757 C760 1.279 . S
C758 C756 1.353 . S
C758 C761 1.348 . S
C758 H790 0.929 . S
C759 C760 1.358 . S
C759 C761 1.356 . S
C759 H791 0.930 . S
C760 N757 1.279 . S
C760 C759 1.358 . S
C760 H763 0.930 . S
C761 C758 1.348 . S
C761 C759 1.356 . S
H762 C756 0.930 . S
H763 C760 0.930 . S
O764 Li704 1.956 . S
O764 Li705 1.970 . S
O764 Li706 1.961 . S
O764 C708 1.325 . S
O765 Li704 1.970 . S
O765 Li705 1.956 . S
O765 Li707 1.961 . S
O765 C714 1.325 . S
O766 Li704 1.961 . S
O766 Li706 1.956 . S
O766 Li707 1.970 . S
O766 C736 1.325 . S
O767 Li705 1.961 . S
O767 Li706 1.970 . S
O767 Li707 1.956 . S
O767 C742 1.325 . S
H768 C710 0.929 . S
H769 C711 0.930 . S
H770 C712 0.930 . S
H771 C713 0.930 . S
H772 C715 0.930 . S
H773 C717 0.929 . S
H774 C718 0.930 . S
H775 C719 0.930 . S
H776 C722 0.930 . S
H777 C725 0.929 . S
H778 C730 0.929 . S
H779 C731 0.930 . S
H780 C738 0.929 . S
H781 C739 0.930 . S
H782 C740 0.930 . S
H783 C741 0.930 . S
H784 C743 0.929 . S
H785 C744 0.930 . S
H786 C745 0.930 . S
H787 C746 0.930 . S
H788 C750 0.929 . S
H789 C752 0.930 . S
H790 C758 0.929 . S
H791 C759 0.930 . S
H792 C798 0.930 . S
H793 C801 0.930 . S
H794 C802 0.930 . S
H795 C803 0.939 . S
H796 C806 0.930 . S
H797 C807 0.930 . S
C798 H792 0.930 . S
C798 C799 1.355 1_554 S
C798 C800 1.415 . S
C799 C798 1.355 1_556 S
C799 C801 1.419 . S
C800 C798 1.415 . S
C800 C805 1.424 1_554 S
C800 C807 1.409 . S
C801 H793 0.930 . S
C801 C799 1.419 . S
C801 C802 1.362 . S
C802 H794 0.930 . S
C802 C801 1.362 . S
C802 C805 1.411 . S
C803 H795 0.939 . S
C803 C804 1.355 . S
C803 C805 1.414 1_554 S
C804 C803 1.355 . S
C804 C806 1.419 . S
C805 C800 1.424 1_556 S
C805 C802 1.411 . S
C805 C803 1.414 1_556 S
C806 H796 0.930 . S
C806 C804 1.419 . S
C806 C807 1.362 . S
C807 H797 0.930 . S
C807 C800 1.409 . S
C807 C806 1.362 . S
H808 C814 0.930 1_556 S
H809 C817 0.930 . S
H810 C818 0.930 . S
H811 C819 0.930 . S
H812 C822 0.930 . S
H813 C823 0.930 . S
C814 H808 0.930 1_554 S
C814 C815 1.355 . S
C814 C816 1.415 1_564 S
C815 C814 1.355 . S
C815 C817 1.419 . S
C816 C814 1.415 1_546 S
C816 C821 1.425 1_556 S
C816 C823 1.409 . S
C817 H809 0.930 . S
C817 C815 1.419 . S
C817 C818 1.362 1_565 S
C818 H810 0.930 . S
C818 C817 1.362 1_545 S
C818 C821 1.409 . S
C819 H811 0.930 . S
C819 C820 1.355 1_554 S
C819 C821 1.415 . S
C820 C819 1.355 1_556 S
C820 C822 1.419 . S
C821 C816 1.425 1_554 S
C821 C818 1.409 . S
C821 C819 1.415 . S
C822 H812 0.930 . S
C822 C820 1.419 . S
C822 C823 1.362 . S
C823 H813 0.930 . S
C823 C816 1.409 . S
C823 C822 1.362 . S
H824 C830 0.930 . S
H825 C833 0.930 . S
H826 C834 0.930 . S
H827 C835 0.930 . S
H828 C838 0.930 . S
H829 C839 0.930 . S
C830 H824 0.930 . S
C830 C831 1.355 . S
C830 C832 1.415 1_656 S
C831 C830 1.355 . S
C831 C833 1.419 . S
C832 C830 1.415 1_454 S
C832 C837 1.425 . S
C832 C839 1.409 . S
C833 H825 0.930 . S
C833 C831 1.419 . S
C833 C834 1.362 1_655 S
C834 H826 0.930 . S
C834 C833 1.362 1_455 S
C834 C837 1.409 1_556 S
C835 H827 0.930 . S
C835 C836 1.355 . S
C835 C837 1.415 . S
C836 C835 1.355 . S
C836 C838 1.419 . S
C837 C832 1.425 . S
C837 C834 1.409 1_554 S
C837 C835 1.415 . S
C838 H828 0.930 . S
C838 C836 1.419 . S
C838 C839 1.362 . S
C839 H829 0.930 . S
C839 C832 1.409 . S
C839 C838 1.362 . S
H840 C846 0.930 . S
H841 C849 0.930 . S
H842 C850 0.930 . S
H843 C851 0.930 . S
H844 C854 0.930 . S
H845 C855 0.930 . S
C846 H840 0.930 . S
C846 C847 1.355 . S
C846 C848 1.415 . S
C847 C846 1.355 . S
C847 C849 1.419 . S
C848 C846 1.415 . S
C848 C853 1.425 . S
C848 C855 1.409 . S
C849 H841 0.930 . S
C849 C847 1.419 . S
C849 C850 1.362 . S
C850 H842 0.930 . S
C850 C849 1.362 . S
C850 C853 1.409 . S
C851 H843 0.930 . S
C851 C852 1.355 . S
C851 C853 1.415 . S
C852 C851 1.355 . S
C852 C854 1.419 . S
C853 C848 1.425 . S
C853 C850 1.409 . S
C853 C851 1.415 . S
C854 H844 0.930 . S
C854 C852 1.419 . S
C854 C855 1.362 . S
C855 H845 0.930 . S
C855 C848 1.409 . S
C855 C854 1.362 . S
H856 C862 0.930 . S
H857 C865 0.930 . S
H858 C866 0.930 . S
H859 C867 0.930 . S
H860 C870 0.930 . S
H861 C871 0.930 . S
C862 H856 0.930 . S
C862 C863 1.355 . S
C862 C864 1.415 . S
C863 C862 1.355 . S
C863 C865 1.419 . S
C864 C862 1.415 . S
C864 C869 1.425 . S
C864 C871 1.409 . S
C865 H857 0.930 . S
C865 C863 1.419 . S
C865 C866 1.362 . S
C866 H858 0.930 . S
C866 C865 1.362 . S
C866 C869 1.409 . S
C867 H859 0.930 . S
C867 C868 1.355 . S
C867 C869 1.415 . S
C868 C867 1.355 . S
C868 C870 1.419 . S
C869 C864 1.425 . S
C869 C866 1.409 . S
C869 C867 1.415 . S
C870 H860 0.930 . S
C870 C868 1.419 . S
C870 C871 1.362 . S
C871 H861 0.930 . S
C871 C864 1.409 . S
C871 C870 1.362 . S
H872 C878 0.930 . S
H873 C881 0.930 . S
H874 C882 0.930 . S
H875 C883 0.930 . S
H876 C886 0.930 . S
H877 C887 0.930 . S
C878 H872 0.930 . S
C878 C879 1.355 . S
C878 C880 1.415 . S
C879 C878 1.355 . S
C879 C881 1.419 . S
C880 C878 1.415 . S
C880 C885 1.425 . S
C880 C887 1.409 . S
C881 H873 0.930 . S
C881 C879 1.419 . S
C881 C882 1.362 . S
C882 H874 0.930 . S
C882 C881 1.362 . S
C882 C885 1.409 . S
C883 H875 0.930 . S
C883 C884 1.355 . S
C883 C885 1.415 . S
C884 C883 1.355 . S
C884 C886 1.419 . S
C885 C880 1.425 . S
C885 C882 1.409 . S
C885 C883 1.415 . S
C886 H876 0.930 . S
C886 C884 1.419 . S
C886 C887 1.362 . S
C887 H877 0.930 . S
C887 C880 1.409 . S
C887 C886 1.362 . S
H888 C894 0.930 . S
H889 C897 0.930 . S
H890 C898 0.930 . S
H891 C899 0.930 . S
H892 C902 0.930 . S
H893 C903 0.930 . S
C894 H888 0.930 . S
C894 C895 1.355 . S
C894 C896 1.415 . S
C895 C894 1.355 . S
C895 C897 1.419 . S
C896 C894 1.415 . S
C896 C901 1.425 . S
C896 C903 1.409 . S
C897 H889 0.930 . S
C897 C895 1.419 . S
C897 C898 1.362 . S
C898 H890 0.930 . S
C898 C897 1.362 . S
C898 C901 1.409 . S
C899 H891 0.930 . S
C899 C900 1.355 . S
C899 C901 1.415 . S
C900 C899 1.355 . S
C900 C902 1.419 . S
C901 C896 1.425 . S
C901 C898 1.409 . S
C901 C899 1.415 . S
C902 H892 0.930 . S
C902 C900 1.419 . S
C902 C903 1.362 . S
C903 H893 0.930 . S
C903 C896 1.409 . S
C903 C902 1.362 . S
H904 C910 0.930 . S
H905 C913 0.930 . S
H906 C914 0.930 . S
H907 C915 0.930 . S
H908 C918 0.930 . S
H909 C919 0.930 . S
C910 H904 0.930 . S
C910 C911 1.355 . S
C910 C912 1.415 . S
C911 C910 1.355 . S
C911 C913 1.419 . S
C912 C910 1.415 . S
C912 C917 1.425 . S
C912 C919 1.409 . S
C913 H905 0.930 . S
C913 C911 1.419 . S
C913 C914 1.362 . S
C914 H906 0.930 . S
C914 C913 1.362 . S
C914 C917 1.409 . S
C915 H907 0.930 . S
C915 C916 1.355 . S
C915 C917 1.415 . S
C916 C915 1.355 . S
C916 C918 1.419 . S
C917 C912 1.425 . S
C917 C914 1.409 . S
C917 C915 1.415 . S
C918 H908 0.930 . S
C918 C916 1.419 . S
C918 C919 1.362 . S
C919 H909 0.930 . S
C919 C912 1.409 . S
C919 C918 1.362 . S
H920 C926 0.930 . S
H921 C929 0.930 . S
H922 C930 0.930 . S
H923 C931 0.930 . S
H924 C934 0.930 . S
H925 C935 0.930 . S
C926 H920 0.930 . S
C926 C927 1.355 . S
C926 C928 1.415 . S
C927 C926 1.355 . S
C927 C929 1.419 . S
C928 C926 1.415 . S
C928 C933 1.425 . S
C928 C935 1.409 . S
C929 H921 0.930 . S
C929 C927 1.419 . S
C929 C930 1.362 . S
C930 H922 0.930 . S
C930 C929 1.362 . S
C930 C933 1.409 . S
C931 H923 0.930 . S
C931 C932 1.355 . S
C931 C933 1.415 . S
C932 C931 1.355 . S
C932 C934 1.419 . S
C933 C928 1.425 . S
C933 C930 1.409 . S
C933 C931 1.415 . S
C934 H924 0.930 . S
C934 C932 1.419 . S
C934 C935 1.362 . S
C935 H925 0.930 . S
C935 C928 1.409 . S
C935 C934 1.362 . S
H936 C942 0.930 . S
H937 C945 0.930 . S
H938 C946 0.930 . S
H939 C947 0.930 . S
H940 C950 0.930 . S
H941 C951 0.930 . S
C942 H936 0.930 . S
C942 C943 1.355 . S
C942 C944 1.415 . S
C943 C942 1.355 . S
C943 C945 1.419 . S
C944 C942 1.415 . S
C944 C949 1.425 . S
C944 C951 1.409 . S
C945 H937 0.930 . S
C945 C943 1.419 . S
C945 C946 1.362 . S
C946 H938 0.930 . S
C946 C945 1.362 . S
C946 C949 1.409 . S
C947 H939 0.930 . S
C947 C948 1.355 . S
C947 C949 1.415 . S
C948 C947 1.355 . S
C948 C950 1.419 . S
C949 C944 1.425 . S
C949 C946 1.409 . S
C949 C947 1.415 . S
C950 H940 0.930 . S
C950 C948 1.419 . S
C950 C951 1.362 . S
C951 H941 0.930 . S
C951 C944 1.409 . S
C951 C950 1.362 . S
H952 C958 0.930 . S
H953 C961 0.930 . S
H954 C962 0.930 . S
H955 C963 0.930 . S
H956 C966 0.930 . S
H957 C967 0.930 . S
C958 H952 0.930 . S
C958 C959 1.355 . S
C958 C960 1.415 . S
C959 C958 1.355 . S
C959 C961 1.419 . S
C960 C958 1.415 . S
C960 C965 1.425 . S
C960 C967 1.409 . S
C961 H953 0.930 . S
C961 C959 1.419 . S
C961 C962 1.362 . S
C962 H954 0.930 . S
C962 C961 1.362 . S
C962 C965 1.409 . S
C963 H955 0.930 . S
C963 C964 1.355 . S
C963 C965 1.415 . S
C964 C963 1.355 . S
C964 C966 1.419 . S
C965 C960 1.425 . S
C965 C962 1.409 . S
C965 C963 1.415 . S
C966 H956 0.930 . S
C966 C964 1.419 . S
C966 C967 1.362 . S
C967 H957 0.930 . S
C967 C960 1.409 . S
C967 C966 1.362 . S
H968 C974 0.930 . S
H969 C977 0.930 . S
H970 C978 0.930 1_545 S
H971 C979 0.930 1_545 S
H972 C982 0.930 . S
H973 C983 0.930 . S
C974 H968 0.930 . S
C974 C975 1.355 . S
C974 C976 1.415 . S
C975 C974 1.355 . S
C975 C977 1.419 . S
C976 C974 1.415 . S
C976 C981 1.425 . S
C976 C983 1.409 . S
C977 H969 0.930 . S
C977 C975 1.419 . S
C977 C978 1.362 . S
C978 H970 0.930 1_565 S
C978 C977 1.362 . S
C978 C981 1.409 . S
C979 H971 0.930 1_565 S
C979 C980 1.355 . S
C979 C981 1.415 . S
C980 C979 1.355 . S
C980 C982 1.419 . S
C981 C976 1.425 . S
C981 C978 1.409 . S
C981 C979 1.415 . S
C982 H972 0.930 . S
C982 C980 1.419 . S
C982 C983 1.362 . S
C983 H973 0.930 . S
C983 C976 1.409 . S
C983 C982 1.362 . S
H984 C990 0.930 . S
H985 C993 0.930 . S
H986 C994 0.930 . S
H987 C995 0.930 . S
H988 C998 0.930 . S
H989 C999 0.930 . S
C990 H984 0.930 . S
C990 C991 1.355 . S
C990 C992 1.415 . S
C991 C990 1.355 . S
C991 C993 1.419 . S
C992 C990 1.415 . S
C992 C997 1.425 . S
C992 C999 1.409 . S
C993 H985 0.930 . S
C993 C991 1.419 . S
C993 C994 1.362 . S
C994 H986 0.930 . S
C994 C993 1.362 . S
C994 C997 1.409 . S
C995 H987 0.930 . S
C995 C996 1.355 . S
C995 C997 1.415 . S
C996 C995 1.355 . S
C996 C998 1.419 . S
C997 C992 1.425 . S
C997 C994 1.409 . S
C997 C995 1.415 . S
C998 H988 0.930 . S
C998 C996 1.419 . S
C998 C999 1.362 . S
C999 H989 0.930 . S
C999 C992 1.409 . S
C999 C998 1.362 . S
H1000 C1006 0.930 . S
H1001 C1009 0.930 . S
H1002 C1010 0.930 . S
H1003 C1011 0.930 . S
H1004 C1014 0.930 . S
H1005 C1015 0.930 . S
C1006 H1000 0.930 . S
C1006 C1007 1.355 . S
C1006 C1008 1.415 . S
C1007 C1006 1.355 . S
C1007 C1009 1.419 1_655 S
C1008 C1006 1.415 . S
C1008 C1013 1.425 . S
C1008 C1015 1.409 . S
C1009 H1001 0.930 . S
C1009 C1007 1.419 1_455 S
C1009 C1010 1.362 . S
C1010 H1002 0.930 . S
C1010 C1009 1.362 . S
C1010 C1013 1.409 1_455 S
C1011 H1003 0.930 . S
C1011 C1012 1.355 . S
C1011 C1013 1.415 . S
C1012 C1011 1.355 . S
C1012 C1014 1.419 . S
C1013 C1008 1.425 . S
C1013 C1010 1.409 1_655 S
C1013 C1011 1.415 . S
C1014 H1004 0.930 . S
C1014 C1012 1.419 . S
C1014 C1015 1.362 . S
C1015 H1005 0.930 . S
C1015 C1008 1.409 . S
C1015 C1014 1.362 . S
H1016 C1022 0.930 . S
H1017 C1025 0.930 . S
H1018 C1026 0.930 . S
H1019 C1027 0.930 . S
H1020 C1030 0.930 . S
H1021 C1031 0.930 . S
C1022 H1016 0.930 . S
C1022 C1023 1.355 . S
C1022 C1024 1.415 . S
C1023 C1022 1.355 . S
C1023 C1025 1.419 . S
C1024 C1022 1.415 . S
C1024 C1029 1.425 . S
C1024 C1031 1.409 . S
C1025 H1017 0.930 . S
C1025 C1023 1.419 . S
C1025 C1026 1.362 . S
C1026 H1018 0.930 . S
C1026 C1025 1.362 . S
C1026 C1029 1.409 . S
C1027 H1019 0.930 . S
C1027 C1028 1.355 . S
C1027 C1029 1.415 . S
C1028 C1027 1.355 . S
C1028 C1030 1.419 . S
C1029 C1024 1.425 . S
C1029 C1026 1.409 . S
C1029 C1027 1.415 . S
C1030 H1020 0.930 . S
C1030 C1028 1.419 . S
C1030 C1031 1.362 . S
C1031 H1021 0.930 . S
C1031 C1024 1.409 . S
C1031 C1030 1.362 . S
H1032 C1038 0.930 . S
H1033 C1041 0.930 . S
H1034 C1042 0.930 . S
H1035 C1043 0.930 . S
H1036 C1046 0.930 . S
H1037 C1047 0.930 . S
C1038 H1032 0.930 . S
C1038 C1039 1.355 . S
C1038 C1040 1.415 . S
C1039 C1038 1.355 . S
C1039 C1041 1.419 . S
C1040 C1038 1.415 . S
C1040 C1045 1.425 . S
C1040 C1047 1.409 1_455 S
C1041 H1033 0.930 . S
C1041 C1039 1.419 . S
C1041 C1042 1.362 . S
C1042 H1034 0.930 . S
C1042 C1041 1.362 . S
C1042 C1045 1.409 . S
C1043 H1035 0.930 . S
C1043 C1044 1.355 1_455 S
C1043 C1045 1.415 . S
C1044 C1043 1.355 1_655 S
C1044 C1046 1.419 . S
C1045 C1040 1.425 . S
C1045 C1042 1.409 . S
C1045 C1043 1.415 . S
C1046 H1036 0.930 . S
C1046 C1044 1.419 . S
C1046 C1047 1.362 . S
C1047 H1037 0.930 . S
C1047 C1040 1.409 1_655 S
C1047 C1046 1.362 . S
H1048 C1054 0.930 . S
H1049 C1057 0.930 . S
H1050 C1058 0.930 . S
H1051 C1059 0.930 . S
H1052 C1062 0.930 . S
H1053 C1063 0.930 . S
C1054 H1048 0.930 . S
C1054 C1055 1.355 . S
C1054 C1056 1.415 . S
C1055 C1054 1.355 . S
C1055 C1057 1.419 . S
C1056 C1054 1.415 . S
C1056 C1061 1.425 . S
C1056 C1063 1.409 . S
C1057 H1049 0.930 . S
C1057 C1055 1.419 . S
C1057 C1058 1.362 . S
C1058 H1050 0.930 . S
C1058 C1057 1.362 . S
C1058 C1061 1.409 . S
C1059 H1051 0.930 . S
C1059 C1060 1.355 . S
C1059 C1061 1.415 . S
C1060 C1059 1.355 . S
C1060 C1062 1.419 . S
C1061 C1056 1.425 . S
C1061 C1058 1.409 . S
C1061 C1059 1.415 . S
C1062 H1052 0.930 . S
C1062 C1060 1.419 . S
C1062 C1063 1.362 . S
C1063 H1053 0.930 . S
C1063 C1056 1.409 . S
C1063 C1062 1.362 . S
H1064 C1070 0.930 . S
H1065 C1073 0.930 . S
H1066 C1074 0.930 . S
H1067 C1075 0.930 . S
H1068 C1078 0.930 . S
H1069 C1079 0.930 1_565 S
C1070 H1064 0.930 . S
C1070 C1071 1.355 . S
C1070 C1072 1.415 1_565 S
C1071 C1070 1.355 . S
C1071 C1073 1.419 1_565 S
C1072 C1070 1.415 1_545 S
C1072 C1077 1.425 . S
C1072 C1079 1.409 . S
C1073 H1065 0.930 . S
C1073 C1071 1.419 1_545 S
C1073 C1074 1.362 . S
C1074 H1066 0.930 . S
C1074 C1073 1.362 . S
C1074 C1077 1.409 . S
C1075 H1067 0.930 . S
C1075 C1076 1.355 . S
C1075 C1077 1.415 . S
C1076 C1075 1.355 . S
C1076 C1078 1.419 . S
C1077 C1072 1.425 . S
C1077 C1074 1.409 . S
C1077 C1075 1.415 . S
C1078 H1068 0.930 . S
C1078 C1076 1.419 . S
C1078 C1079 1.362 . S
C1079 H1069 0.930 1_545 S
C1079 C1072 1.409 . S
C1079 C1078 1.362 . S
C799 C196 1.141 . S
C804 C49 1.204 . S
C815 C145 1.175 . S
C820 C29 1.215 . S
C831 C108 1.119 . S
C836 C233 1.185 . S
C847 C469 1.150 . S
C852 C321 1.209 . S
C863 C409 1.108 . S
C868 C284 1.145 . S
C879 C372 1.163 . S
C884 C489 1.109 . S
C895 C577 1.111 . S
C900 C724 1.170 . S
C911 C557 1.110 . S
C916 C665 1.136 . S
C927 C645 1.182 . S
C932 C761 1.214 . S
C943 C57 1.224 . S
C948 C636 1.246 . S
C959 C137 1.244 . S
C964 C733 1.224 . S
C975 C548 1.248 . S
C980 C225 1.225 . S
C991 C401 1.234 . S
C996 C205 1.230 . S
C1007 C20 1.243 . S
C1012 C497 1.224 . S
C1023 C313 1.236 . S
C1028 C117 1.228 . S
C1039 C673 1.242 . S
C1044 C460 1.225 . S
C1055 C293 1.235 . S
C1060 C753 1.245 . S
C1071 C585 1.227 . S
C1076 C381 1.249 . S
