# Generated by pormake.
# Topology bcu, (8)-cn, num edge types: 1
# Building blocks:
#     Node 0, Type 0, BuildingBlock: TAGTUT_clean_sbu_1, # of connection points: 8
#     Node 1, Type 0, BuildingBlock: TAGTUT_clean_sbu_1, # of connection points: 8
#     Edge 2, Type (0, 0), BuildingBlock: MIFKUJ_clean_linker_0, # of connection points: 2
#     Edge 3, Type (0, 0), BuildingBlock: MIFKUJ_clean_linker_0, # of connection points: 2
#     Edge 4, Type (0, 0), BuildingBlock: MIFKUJ_clean_linker_0, # of connection points: 2
#     Edge 5, Type (0, 0), BuildingBlock: MIFKUJ_clean_linker_0, # of connection points: 2
#     Edge 6, Type (0, 0), BuildingBlock: MIFKUJ_clean_linker_0, # of connection points: 2
#     Edge 7, Type (0, 0), BuildingBlock: MIFKUJ_clean_linker_0, # of connection points: 2
#     Edge 8, Type (0, 0), BuildingBlock: MIFKUJ_clean_linker_0, # of connection points: 2
#     Edge 9, Type (0, 0), BuildingBlock: MIFKUJ_clean_linker_0, # of connection points: 2
# Relax obj value: 0.021
# Max RMSD: 0.083
# Mean RMSD: 0.083
data_MOF--net-bcu--node1-TAGTUT_clean_sbu_1--edge1-MIFKUJ_clean_linker_0
_symmetry_space_group_name_H-M    P1
_symmetry_Int_Tables_number       1
_symmetry_cell_setting            triclinic
loop_
_symmetry_equiv_pos_as_xyz
'x, y, z'
_cell_length_a     25.293102
_cell_length_b     23.23242
_cell_length_c     26.709425
_cell_angle_alpha  90.887488
_cell_angle_beta   93.568407
_cell_angle_gamma 107.14557
loop_
_atom_site_label
_atom_site_type_symbol
_atom_site_fract_x
_atom_site_fract_y
_atom_site_fract_z
_atom_type_partial_charge
C0 C 0.88534 0.13725 0.04482 0.0
C1 C 0.91715 0.109 0.89136 0.0
C2 C 0.90231 0.88046 0.94921 0.0
Mg3 Mg 0.99006 0.1359 -0.00967 0.0
O4 O 0.96434 0.05512 0.00762 0.0
Mg5 Mg 0.88674 0.00895 0.98422 0.0
Mg6 Mg 1.00389 0.99703 0.9874 0.0
O7 O 0.04374 0.93885 0.96762 0.0
Mg8 Mg 0.0182 0.85861 0.98642 0.0
Mg9 Mg 0.1208 0.98514 -0.00682 0.0
C10 C 0.10484 0.1129 0.0282 0.0
C11 C 0.08371 0.05423 0.89881 0.0
O12 O 0.8609 0.08354 0.02691 0.0
O13 O 0.93572 0.1655 0.03672 0.0
O14 O 0.88788 0.06187 0.9118 0.0
O15 O 0.96223 0.14268 0.91326 0.0
O16 O 0.07727 0.1495 0.01507 0.0
O17 O 0.08282 0.05553 0.02672 0.0
C18 C 0.9262 0.94024 0.07714 0.0
O19 O 0.97329 0.94664 0.05903 0.0
O20 O 0.88884 0.95991 0.05551 0.0
O21 O 0.1479 0.91064 0.95236 0.0
O22 O 0.0735 0.82831 0.94171 0.0
O23 O 0.11852 0.93288 0.06624 0.0
C24 C 0.12416 0.85672 0.93468 0.0
O25 O 0.04431 0.85202 0.06383 0.0
O26 O 0.93107 0.84505 0.96246 0.0
C27 C 0.08882 0.88582 0.08644 0.0
O28 O 0.92375 0.93798 0.94886 0.0
O29 O 0.03586 0.04785 0.91565 0.0
O30 O 0.12022 0.03416 0.92158 0.0
C31 C 0.38568 0.64433 0.54194 0.0
C32 C 0.42098 0.61435 0.39027 0.0
C33 C 0.40526 0.3881 0.44892 0.0
Mg34 Mg 0.49162 0.64227 0.49023 0.0
O35 O 0.46628 0.56223 0.50951 0.0
Mg36 Mg 0.38922 0.5157 0.484 0.0
Mg37 Mg 0.50628 0.50406 0.48995 0.0
O38 O 0.54574 0.44588 0.46985 0.0
Mg39 Mg 0.51985 0.36502 0.48697 0.0
Mg40 Mg 0.62331 0.49197 0.4932 0.0
C41 C 0.60766 0.62076 0.52776 0.0
C42 C 0.58397 0.5606 0.40015 0.0
O43 O 0.36198 0.5903 0.5245 0.0
O44 O 0.4363 0.67276 0.53478 0.0
O45 O 0.39133 0.56747 0.41072 0.0
O46 O 0.4655 0.64833 0.41273 0.0
O47 O 0.57873 0.65587 0.51421 0.0
O48 O 0.58648 0.5632 0.52851 0.0
C49 C 0.42648 0.44713 0.57864 0.0
O50 O 0.47432 0.45347 0.5618 0.0
O51 O 0.38992 0.46706 0.55579 0.0
O52 O 0.64907 0.41728 0.45053 0.0
O53 O 0.5742 0.33539 0.44062 0.0
O54 O 0.62203 0.43899 0.56562 0.0
C55 C 0.6246 0.3636 0.43258 0.0
O56 O 0.54766 0.35815 0.56402 0.0
O57 O 0.43265 0.35131 0.46198 0.0
C58 C 0.59273 0.39181 0.58599 0.0
O59 O 0.42745 0.44543 0.45078 0.0
O60 O 0.53687 0.55424 0.41822 0.0
O61 O 0.62131 0.54096 0.42187 0.0
H62 H 0.1741 0.22777 0.02709 0.0
H63 H 0.23562 0.27837 0.09877 0.0
H64 H 0.21436 0.10678 0.1676 0.0
H65 H 0.15518 0.05611 0.09569 0.0
H66 H 0.18373 0.27388 0.18093 0.0
H67 H 0.30132 0.11444 0.26601 0.0
H68 H 0.35624 0.04989 0.23749 0.0
H69 H 0.40264 0.16167 0.11137 0.0
H70 H 0.3484 0.22721 0.13934 0.0
H71 H 0.33567 0.27331 0.44909 0.0
H72 H 0.27462 0.22353 0.37687 0.0
H73 H 0.29699 0.39589 0.30911 0.0
H74 H 0.35568 0.44574 0.38155 0.0
H75 H 0.32753 0.22908 0.29498 0.0
H76 H 0.21095 0.38905 0.21007 0.0
H77 H 0.15657 0.45419 0.23861 0.0
H78 H 0.10871 0.34195 0.36421 0.0
H79 H 0.16242 0.27586 0.33624 0.0
C80 C 0.18495 0.20064 0.05636 0.0
C81 C 0.15838 0.13839 0.05685 0.0
C82 C 0.21988 0.22961 0.09734 0.0
C83 C 0.22827 0.1965 0.13898 0.0
C84 C 0.20861 0.13334 0.13589 0.0
C85 C 0.1745 0.10429 0.09456 0.0
C86 C 0.24614 0.22741 0.18847 0.0
C87 C 0.21606 0.26514 0.20555 0.0
C88 C 0.28645 0.21377 0.22116 0.0
C89 C 0.32047 0.17555 0.20466 0.0
C90 C 0.32353 0.1255 0.23238 0.0
C91 C 0.35444 0.08864 0.21623 0.0
C92 C 0.3828 0.10159 0.17259 0.0
C93 C 0.38048 0.15156 0.14508 0.0
C94 C 0.34956 0.18851 0.16101 0.0
C95 C 0.32514 0.30078 0.41994 0.0
C96 C 0.35189 0.36302 0.41992 0.0
C97 C 0.29049 0.27229 0.37864 0.0
C98 C 0.28257 0.30586 0.33716 0.0
C99 C 0.30238 0.36899 0.34069 0.0
C100 C 0.33621 0.39756 0.38232 0.0
C101 C 0.26503 0.27541 0.28746 0.0
C102 C 0.2952 0.23781 0.27035 0.0
C103 C 0.22485 0.28922 0.25473 0.0
C104 C 0.19103 0.32768 0.27116 0.0
C105 C 0.18852 0.37801 0.24359 0.0
C106 C 0.15793 0.41521 0.25974 0.0
C107 C 0.12931 0.40229 0.30325 0.0
C108 C 0.13106 0.35202 0.33061 0.0
C109 C 0.16167 0.31475 0.31467 0.0
H110 H 0.10575 0.43121 0.31574 0.0
H111 H 0.40662 0.07293 0.16011 0.0
H112 H 0.77674 0.09621 0.06799 0.0
H113 H 0.73245 0.13632 0.13331 0.0
H114 H 0.88365 0.2805 0.16751 0.0
H115 H 0.92838 0.24094 0.10242 0.0
H116 H 0.8419 0.22206 0.25155 0.0
H117 H 0.77615 0.31105 0.10955 0.0
H118 H 0.73139 0.31273 0.02514 0.0
H119 H 0.57864 0.19456 0.07143 0.0
H120 H 0.62275 0.19143 0.15597 0.0
H121 H 0.73322 0.40459 0.40944 0.0
H122 H 0.7775 0.36445 0.34413 0.0
H123 H 0.62627 0.22032 0.30992 0.0
H124 H 0.58155 0.25991 0.37499 0.0
H125 H 0.66803 0.27872 0.22588 0.0
H126 H 0.73374 0.18969 0.36785 0.0
H127 H 0.77845 0.18795 0.45226 0.0
H128 H 0.93124 0.30612 0.40605 0.0
H129 H 0.88717 0.30931 0.3215 0.0
C130 C 0.80041 0.13692 0.0889 0.0
C131 C 0.8562 0.16522 0.07997 0.0
C132 C 0.77498 0.15981 0.12619 0.0
C133 C 0.80484 0.21133 0.15522 0.0
C134 C 0.85999 0.24057 0.14558 0.0
C135 C 0.88535 0.218 0.10812 0.0
C136 C 0.77936 0.23313 0.19718 0.0
C137 C 0.80432 0.23531 0.2459 0.0
C138 C 0.72959 0.24885 0.18981 0.0
C139 C 0.70295 0.25048 0.13896 0.0
C140 C 0.73317 0.28494 0.10161 0.0
C141 C 0.70789 0.28625 0.05376 0.0
C142 C 0.65226 0.25363 0.04288 0.0
C143 C 0.62176 0.21972 0.07988 0.0
C144 C 0.64688 0.21819 0.12779 0.0
C145 C 0.70954 0.36389 0.38853 0.0
C146 C 0.65374 0.33561 0.39745 0.0
C147 C 0.73496 0.34098 0.35125 0.0
C148 C 0.7051 0.28946 0.32222 0.0
C149 C 0.64994 0.26025 0.33185 0.0
C150 C 0.62459 0.28283 0.3693 0.0
C151 C 0.73057 0.26765 0.28025 0.0
C152 C 0.70561 0.26547 0.23154 0.0
C153 C 0.78033 0.25193 0.28762 0.0
C154 C 0.80695 0.25027 0.33848 0.0
C155 C 0.77672 0.21579 0.37581 0.0
C156 C 0.80198 0.21444 0.42366 0.0
C157 C 0.85761 0.24705 0.43456 0.0
C158 C 0.88812 0.28097 0.39758 0.0
C159 C 0.86303 0.28253 0.34967 0.0
H160 H 0.8771 0.24592 0.47163 0.0
H161 H 0.63275 0.25474 0.00582 0.0
H162 H 0.93141 0.82718 0.09603 0.0
H163 H 0.87459 0.75959 0.15497 0.0
H164 H 0.82646 0.90845 0.2157 0.0
H165 H 0.88291 0.97552 0.15721 0.0
H166 H 0.83168 0.82671 0.28709 0.0
H167 H 0.75437 0.82954 0.11709 0.0
H168 H 0.7518 0.81804 0.02492 0.0
H169 H 0.74745 0.63272 0.03764 0.0
H170 H 0.75123 0.64349 0.12998 0.0
H171 H 0.57886 0.67365 0.38112 0.0
H172 H 0.63576 0.74111 0.32215 0.0
H173 H 0.68379 0.59208 0.26164 0.0
H174 H 0.62727 0.52513 0.32017 0.0
H175 H 0.67867 0.67381 0.19014 0.0
H176 H 0.75592 0.67096 0.36012 0.0
H177 H 0.75858 0.68248 0.4523 0.0
H178 H 0.76312 0.86786 0.4396 0.0
H179 H 0.75923 0.85707 0.34726 0.0
C180 C 0.91086 0.84576 0.12372 0.0
C181 C 0.91107 0.90613 0.12232 0.0
C182 C 0.878 0.80717 0.1569 0.0
C183 C 0.84542 0.82896 0.18874 0.0
C184 C 0.85103 0.89076 0.19125 0.0
C185 C 0.88335 0.92903 0.15797 0.0
C186 C 0.7997 0.78723 0.21383 0.0
C187 C 0.79808 0.79349 0.26593 0.0
C188 C 0.75594 0.74393 0.18601 0.0
C189 C 0.75368 0.73749 0.13047 0.0
C190 C 0.75339 0.7865 0.10026 0.0
C191 C 0.75167 0.7801 0.04799 0.0
C192 C 0.74947 0.72468 0.02547 0.0
C193 C 0.7492 0.67562 0.05516 0.0
C194 C 0.75119 0.68186 0.10746 0.0
C195 C 0.59941 0.655 0.35347 0.0
C196 C 0.59915 0.59463 0.35494 0.0
C197 C 0.63231 0.69352 0.32027 0.0
C198 C 0.66488 0.67164 0.28849 0.0
C199 C 0.65923 0.60983 0.28605 0.0
C200 C 0.62686 0.57164 0.31935 0.0
C201 C 0.71064 0.71331 0.2634 0.0
C202 C 0.71227 0.70703 0.2113 0.0
C203 C 0.75441 0.7566 0.29121 0.0
C204 C 0.75668 0.76303 0.34675 0.0
C205 C 0.75694 0.71402 0.37696 0.0
C206 C 0.75872 0.72043 0.42923 0.0
C207 C 0.76102 0.77587 0.45176 0.0
C208 C 0.7613 0.82494 0.42207 0.0
C209 C 0.75925 0.81869 0.36978 0.0
H210 H 0.76287 0.78094 0.49222 0.0
H211 H 0.74768 0.71962 0.98501 0.0
H212 H 0.18071 0.9457 0.14697 0.0
H213 H 0.23665 0.89934 0.2013 0.0
H214 H 0.11125 0.72738 0.17901 0.0
H215 H 0.05444 0.77347 0.12546 0.0
H216 H 0.16341 0.73867 0.27234 0.0
H217 H 0.21697 0.7653 0.10197 0.0
H218 H 0.24384 0.82508 0.0271 0.0
H219 H 0.38763 0.93967 0.11117 0.0
H220 H 0.36124 0.88089 0.1867 0.0
H221 H 0.32939 0.55371 0.3297 0.0
H222 H 0.27324 0.59937 0.27493 0.0
H223 H 0.39791 0.77188 0.29687 0.0
H224 H 0.45493 0.72649 0.35083 0.0
H225 H 0.34589 0.75985 0.20343 0.0
H226 H 0.2918 0.73335 0.37395 0.0
H227 H 0.26489 0.67326 0.44866 0.0
H228 H 0.12197 0.55795 0.36395 0.0
H229 H 0.1484 0.61707 0.2886 0.0
C230 C 0.16412 0.8984 0.15484 0.0
C231 C 0.11354 0.86307 0.13091 0.0
C232 C 0.1964 0.87186 0.18567 0.0
C233 C 0.17896 0.80949 0.19278 0.0
C234 C 0.12586 0.77545 0.17351 0.0
C235 C 0.09331 0.80202 0.14293 0.0
C236 C 0.21811 0.77882 0.21546 0.0
C237 C 0.20303 0.74285 0.25698 0.0
C238 C 0.27013 0.78463 0.19572 0.0
C239 C 0.28695 0.81896 0.15003 0.0
C240 C 0.25424 0.80334 0.1045 0.0
C241 C 0.26937 0.83703 0.06196 0.0
C242 C 0.31738 0.88617 0.0644 0.0
C243 C 0.35047 0.90157 0.10934 0.0
C244 C 0.3355 0.86803 0.152 0.0
C245 C 0.34577 0.60098 0.32166 0.0
C246 C 0.39621 0.63668 0.34561 0.0
C247 C 0.31338 0.62712 0.29058 0.0
C248 C 0.33054 0.68945 0.28324 0.0
C249 C 0.38351 0.72384 0.30254 0.0
C250 C 0.41619 0.69766 0.33336 0.0
C251 C 0.29121 0.71976 0.26034 0.0
C252 C 0.30626 0.75566 0.21877 0.0
C253 C 0.23914 0.71385 0.28001 0.0
C254 C 0.22225 0.67937 0.32561 0.0
C255 C 0.2547 0.6951 0.37127 0.0
C256 C 0.23955 0.66123 0.41371 0.0
C257 C 0.19177 0.61179 0.41103 0.0
C258 C 0.15894 0.59628 0.36597 0.0
C259 C 0.17393 0.63001 0.32341 0.0
H260 H 0.18016 0.58555 0.4439 0.0
H261 H 0.32898 0.91227 0.03146 0.0
H262 H 0.08328 0.7529 0.87691 0.0
H263 H 0.12913 0.71634 0.81118 0.0
H264 H 0.27913 0.8612 0.84857 0.0
H265 H 0.23332 0.89887 0.914 0.0
H266 H 0.25079 0.85522 0.75037 0.0
H267 H 0.27017 0.7146 0.87438 0.0
H268 H 0.23896 0.63754 0.93732 0.0
H269 H 0.13054 0.51921 0.82443 0.0
H270 H 0.1605 0.59593 0.76092 0.0
H271 H 0.42662 0.74827 0.59955 0.0
H272 H 0.38085 0.78496 0.66527 0.0
H273 H 0.23079 0.6401 0.62808 0.0
H274 H 0.27652 0.60231 0.56266 0.0
H275 H 0.25924 0.64612 0.72623 0.0
H276 H 0.23984 0.7868 0.60222 0.0
H277 H 0.27108 0.86388 0.5393 0.0
H278 H 0.37957 0.98211 0.6522 0.0
H279 H 0.34959 0.90538 0.71568 0.0
C280 C 0.12634 0.77647 0.87187 0.0
C281 C 0.15448 0.82914 0.90052 0.0
C282 C 0.15253 0.75537 0.83426 0.0
C283 C 0.20755 0.78603 0.82501 0.0
C284 C 0.23654 0.83706 0.85497 0.0
C285 C 0.21031 0.85839 0.89246 0.0
C286 C 0.23348 0.7673 0.78188 0.0
C287 C 0.25348 0.80974 0.74546 0.0
C288 C 0.23535 0.70749 0.77481 0.0
C289 C 0.21722 0.66128 0.81298 0.0
C290 C 0.23932 0.67236 0.86305 0.0
C291 C 0.22192 0.62869 0.89881 0.0
C292 C 0.1827 0.57357 0.8849 0.0
C293 C 0.16088 0.56195 0.83516 0.0
C294 C 0.17809 0.60549 0.79926 0.0
C295 C 0.38356 0.72474 0.60462 0.0
C296 C 0.35539 0.67202 0.57604 0.0
C297 C 0.35741 0.74591 0.64223 0.0
C298 C 0.3024 0.71528 0.65154 0.0
C299 C 0.27338 0.66421 0.62164 0.0
C300 C 0.29956 0.64282 0.58415 0.0
C301 C 0.27654 0.73404 0.6947 0.0
C302 C 0.25655 0.6916 0.73113 0.0
C303 C 0.27468 0.79385 0.70179 0.0
C304 C 0.29283 0.84007 0.66363 0.0
C305 C 0.27071 0.82902 0.61356 0.0
C306 C 0.28812 0.8727 0.5778 0.0
C307 C 0.32737 0.9278 0.59172 0.0
C308 C 0.34921 0.93939 0.64146 0.0
C309 C 0.33199 0.89584 0.67735 0.0
H310 H 0.34079 0.96156 0.56399 0.0
H311 H 0.1693 0.53981 0.91264 0.0
H312 H 0.37279 0.47814 0.65338 0.0
H313 H 0.31627 0.40963 0.71063 0.0
H314 H 0.38054 0.26764 0.66022 0.0
H315 H 0.43709 0.33673 0.60189 0.0
H316 H 0.26901 0.23509 0.64915 0.0
H317 H 0.40511 0.3229 0.78245 0.0
H318 H 0.46993 0.40532 0.83461 0.0
H319 H 0.3342 0.46646 0.87759 0.0
H320 H 0.2686 0.38494 0.82509 0.0
H321 H 0.13749 0.02348 0.82403 0.0
H322 H 0.194 0.09215 0.76688 0.0
H323 H 0.12966 0.23397 0.81755 0.0
H324 H 0.07313 0.16471 0.87579 0.0
H325 H 0.24115 0.26669 0.82848 0.0
H326 H 0.10505 0.1789 0.69523 0.0
H327 H 0.04019 0.09654 0.64305 0.0
H328 H 0.17588 0.03541 0.59992 0.0
H329 H 0.24152 0.11688 0.65244 0.0
C330 C 0.37654 0.43297 0.656 0.0
C331 C 0.40921 0.41255 0.62345 0.0
C332 C 0.34415 0.39378 0.68871 0.0
C333 C 0.34396 0.33339 0.68963 0.0
C334 C 0.38006 0.31411 0.65999 0.0
C335 C 0.41287 0.35367 0.62724 0.0
C336 C 0.30103 0.28956 0.71657 0.0
C337 C 0.26357 0.24126 0.68864 0.0
C338 C 0.29261 0.29912 0.76753 0.0
C339 C 0.33195 0.34799 0.7995 0.0
C340 C 0.3891 0.35416 0.80273 0.0
C341 C 0.42599 0.40069 0.83242 0.0
C342 C 0.40621 0.44116 0.85933 0.0
C343 C 0.34947 0.43509 0.85672 0.0
C344 C 0.3124 0.38867 0.82705 0.0
C345 C 0.13373 0.06865 0.8215 0.0
C346 C 0.10103 0.08897 0.85408 0.0
C347 C 0.16611 0.10793 0.78884 0.0
C348 C 0.16626 0.16831 0.788 0.0
C349 C 0.13016 0.18751 0.8177 0.0
C350 C 0.09736 0.14786 0.85041 0.0
C351 C 0.20914 0.2122 0.76106 0.0
C352 C 0.24659 0.26052 0.78898 0.0
C353 C 0.21755 0.20266 0.71009 0.0
C354 C 0.17819 0.15382 0.67811 0.0
C355 C 0.12105 0.14766 0.67492 0.0
C356 C 0.08413 0.10116 0.64522 0.0
C357 C 0.10389 0.06071 0.61825 0.0
C358 C 0.16063 0.06677 0.62083 0.0
C359 C 0.19772 0.11316 0.65051 0.0
H360 H 0.07524 0.02473 0.59529 0.0
H361 H 0.43484 0.47716 0.88228 0.0
H362 H 0.81836 0.05374 0.83874 0.0
H363 H 0.76367 0.10269 0.78623 0.0
H364 H 0.90137 0.26554 0.79203 0.0
H365 H 0.956 0.21745 0.84631 0.0
H366 H 0.81115 0.29022 0.81781 0.0
H367 H 0.85305 0.17689 0.68222 0.0
H368 H 0.86041 0.08454 0.64028 0.0
H369 H 0.6845 0.00406 0.64274 0.0
H370 H 0.67616 0.09558 0.68545 0.0
H371 H 0.69156 0.44686 0.63862 0.0
H372 H 0.74615 0.39777 0.69109 0.0
H373 H 0.60831 0.23504 0.68516 0.0
H374 H 0.55376 0.28329 0.63092 0.0
H375 H 0.6985 0.21021 0.65949 0.0
H376 H 0.65654 0.32355 0.79494 0.0
H377 H 0.64914 0.41583 0.83697 0.0
H378 H 0.82511 0.49622 0.8349 0.0
H379 H 0.83349 0.40478 0.79207 0.0
C380 C 0.83772 0.0995 0.8279 0.0
C381 C 0.8914 0.13191 0.84756 0.0
C382 C 0.80624 0.12751 0.79768 0.0
C383 C 0.82814 0.1881 0.78542 0.0
C384 C 0.88334 0.21898 0.80146 0.0
C385 C 0.91477 0.19113 0.83209 0.0
C386 C 0.79202 0.22041 0.75957 0.0
C387 C 0.78722 0.27325 0.78273 0.0
C388 C 0.75939 0.19733 0.71465 0.0
C389 C 0.76404 0.143 0.68739 0.0
C390 C 0.81595 0.13943 0.674 0.0
C391 C 0.8203 0.08721 0.65009 0.0
C392 C 0.77298 0.03841 0.63896 0.0
C393 C 0.72113 0.04188 0.65143 0.0
C394 C 0.71655 0.09395 0.67542 0.0
C395 C 0.67214 0.40111 0.64942 0.0
C396 C 0.61844 0.36878 0.62974 0.0
C397 C 0.70357 0.37301 0.67961 0.0
C398 C 0.6816 0.31242 0.69184 0.0
C399 C 0.62639 0.28161 0.67576 0.0
C400 C 0.59501 0.30955 0.64515 0.0
C401 C 0.71765 0.28004 0.71772 0.0
C402 C 0.72243 0.22719 0.69456 0.0
C403 C 0.75026 0.30311 0.76265 0.0
C404 C 0.74558 0.35741 0.78994 0.0
C405 C 0.69365 0.36098 0.80326 0.0
C406 C 0.68927 0.41316 0.82722 0.0
C407 C 0.73661 0.46191 0.83849 0.0
C408 C 0.78847 0.45844 0.82609 0.0
C409 C 0.79307 0.40641 0.80204 0.0
H410 H 0.7331 0.50233 0.85689 0.0
H411 H 0.77646 0.99795 0.62061 0.0
H412 H 0.67701 0.56609 0.57812 0.0
H413 H 0.73947 0.61361 0.6502 0.0
H414 H 0.72239 0.78669 0.60981 0.0
H415 H 0.66354 0.74062 0.53629 0.0
H416 H 0.80998 0.80377 0.67016 0.0
H417 H 0.61543 0.67784 0.67124 0.0
H418 H 0.5427 0.58108 0.6525 0.0
H419 H 0.63441 0.49017 0.74632 0.0
H420 H 0.70779 0.58639 0.76532 0.0
H421 H 0.83309 0.93607 0.89985 0.0
H422 H 0.76992 0.8895 0.82793 0.0
H423 H 0.78641 0.71565 0.86657 0.0
H424 H 0.84598 0.76078 0.93992 0.0
H425 H 0.69845 0.69956 0.80694 0.0
H426 H 0.89347 0.82545 0.80501 0.0
H427 H 0.96609 0.9223 0.82379 0.0
H428 H 0.87315 0.01345 0.73161 0.0
H429 H 0.7999 0.91715 0.71255 0.0
C430 C 0.68896 0.61469 0.58302 0.0
C431 C 0.66263 0.64922 0.55358 0.0
C432 C 0.72443 0.64178 0.62446 0.0
C433 C 0.73216 0.7028 0.63699 0.0
C434 C 0.71531 0.73904 0.60178 0.0
C435 C 0.68116 0.71237 0.55979 0.0
C436 C 0.74497 0.72567 0.6896 0.0
C437 C 0.78561 0.78103 0.70003 0.0
C438 C 0.71266 0.69626 0.72855 0.0
C439 C 0.66709 0.63915 0.7195 0.0
C440 C 0.61985 0.63723 0.68806 0.0
C441 C 0.57862 0.58249 0.6773 0.0
C442 C 0.58394 0.52951 0.69819 0.0
C443 C 0.63032 0.53124 0.7302 0.0
C444 C 0.67168 0.58587 0.74105 0.0
C445 C 0.82089 0.88751 0.8946 0.0
C446 C 0.84721 0.85249 0.92349 0.0
C447 C 0.78499 0.86096 0.85326 0.0
C448 C 0.77685 0.79999 0.84024 0.0
C449 C 0.79378 0.76327 0.87496 0.0
C450 C 0.82835 0.7894 0.91686 0.0
C451 C 0.76355 0.77759 0.78754 0.0
C452 C 0.72279 0.72232 0.77707 0.0
C453 C 0.79572 0.80711 0.74854 0.0
C454 C 0.84122 0.86427 0.75756 0.0
C455 C 0.88877 0.86614 0.78854 0.0
C456 C 0.92993 0.92092 0.79934 0.0
C457 C 0.92422 0.97399 0.77892 0.0
C458 C 0.87754 0.97231 0.74735 0.0
C459 C 0.83624 0.91764 0.73647 0.0
H460 H 0.95597 0.0164 0.78757 0.0
H461 H 0.55214 0.48714 0.68958 0.0
loop_
_geom_bond_atom_site_label_1
_geom_bond_atom_site_label_2
_geom_bond_distance
_geom_bond_site_symmetry_2
_ccdc_geom_bond_type
C0 O12 1.241 . S
C0 O13 1.280 . S
C1 O14 1.277 . S
C1 O15 1.245 . S
C2 O26 1.247 . S
C2 O28 1.289 . S
Mg3 O4 1.926 . S
Mg3 O13 1.984 . S
Mg3 O15 1.988 1_554 S
Mg3 O16 2.061 1_655 S
O4 Mg3 1.926 . S
O4 Mg5 1.986 1_554 S
O4 Mg6 1.917 1_655 S
Mg5 O4 1.986 1_556 S
Mg5 O12 2.042 1_556 S
Mg5 O14 2.041 . S
Mg5 O20 2.038 1_546 S
Mg5 O28 2.238 1_545 S
Mg6 O4 1.917 1_455 S
Mg6 O7 1.917 1_544 S
Mg6 O17 2.106 . S
Mg6 O19 2.079 1_445 S
Mg6 O28 2.106 1_444 S
Mg6 O29 2.079 1_554 S
O7 Mg6 1.917 1_566 S
O7 Mg8 1.926 . S
O7 Mg9 1.986 1_556 S
Mg8 O7 1.926 . S
Mg8 O22 1.984 . S
Mg8 O25 1.988 1_556 S
Mg8 O26 2.061 1_455 S
Mg9 O7 1.986 1_554 S
Mg9 O17 2.238 1_565 S
Mg9 O21 2.042 1_554 S
Mg9 O23 2.041 . S
Mg9 O30 2.038 1_564 S
C10 O16 1.247 . S
C10 O17 1.289 . S
C11 O29 1.245 . S
C11 O30 1.274 . S
O12 C0 1.241 . S
O12 Mg5 2.042 1_554 S
O13 C0 1.280 . S
O13 Mg3 1.984 . S
O14 C1 1.277 . S
O14 Mg5 2.041 . S
O15 C1 1.245 . S
O15 Mg3 1.988 1_556 S
O16 Mg3 2.061 1_455 S
O16 C10 1.247 . S
O17 Mg6 2.106 . S
O17 Mg9 2.238 1_545 S
O17 C10 1.289 . S
C18 O19 1.245 . S
C18 O20 1.274 . S
O19 Mg6 2.079 1_665 S
O19 C18 1.245 . S
O20 Mg5 2.038 1_564 S
O20 C18 1.274 . S
O21 Mg9 2.042 1_556 S
O21 C24 1.241 . S
O22 Mg8 1.984 . S
O22 C24 1.280 . S
O23 Mg9 2.041 . S
O23 C27 1.277 . S
C24 O21 1.241 . S
C24 O22 1.280 . S
O25 Mg8 1.988 1_554 S
O25 C27 1.245 . S
O26 C2 1.247 . S
O26 Mg8 2.061 1_655 S
C27 O23 1.277 . S
C27 O25 1.245 . S
O28 C2 1.289 . S
O28 Mg5 2.238 1_565 S
O28 Mg6 2.106 1_666 S
O29 Mg6 2.079 1_556 S
O29 C11 1.245 . S
O30 Mg9 2.038 1_546 S
O30 C11 1.274 . S
C31 O43 1.241 . S
C31 O44 1.280 . S
C32 O45 1.277 . S
C32 O46 1.245 . S
C33 O57 1.247 . S
C33 O59 1.289 . S
Mg34 O35 1.926 . S
Mg34 O44 1.984 . S
Mg34 O46 1.988 . S
Mg34 O47 2.061 . S
O35 Mg34 1.926 . S
O35 Mg36 1.986 . S
O35 Mg37 1.917 . S
Mg36 O35 1.986 . S
Mg36 O43 2.042 . S
Mg36 O45 2.041 . S
Mg36 O51 2.038 . S
Mg36 O59 2.238 . S
Mg37 O35 1.917 . S
Mg37 O38 1.917 . S
Mg37 O48 2.106 . S
Mg37 O50 2.079 . S
Mg37 O59 2.106 . S
Mg37 O60 2.079 . S
O38 Mg37 1.917 . S
O38 Mg39 1.926 . S
O38 Mg40 1.986 . S
Mg39 O38 1.926 . S
Mg39 O53 1.984 . S
Mg39 O56 1.988 . S
Mg39 O57 2.061 . S
Mg40 O38 1.986 . S
Mg40 O48 2.238 . S
Mg40 O52 2.042 . S
Mg40 O54 2.041 . S
Mg40 O61 2.038 . S
C41 O47 1.247 . S
C41 O48 1.289 . S
C42 O60 1.245 . S
C42 O61 1.274 . S
O43 C31 1.241 . S
O43 Mg36 2.042 . S
O44 C31 1.280 . S
O44 Mg34 1.984 . S
O45 C32 1.277 . S
O45 Mg36 2.041 . S
O46 C32 1.245 . S
O46 Mg34 1.988 . S
O47 Mg34 2.061 . S
O47 C41 1.247 . S
O48 Mg37 2.106 . S
O48 Mg40 2.238 . S
O48 C41 1.289 . S
C49 O50 1.245 . S
C49 O51 1.274 . S
O50 Mg37 2.079 . S
O50 C49 1.245 . S
O51 Mg36 2.038 . S
O51 C49 1.274 . S
O52 Mg40 2.042 . S
O52 C55 1.241 . S
O53 Mg39 1.984 . S
O53 C55 1.280 . S
O54 Mg40 2.041 . S
O54 C58 1.277 . S
C55 O52 1.241 . S
C55 O53 1.280 . S
O56 Mg39 1.988 . S
O56 C58 1.245 . S
O57 C33 1.247 . S
O57 Mg39 2.061 . S
C58 O54 1.277 . S
C58 O56 1.245 . S
O59 C33 1.289 . S
O59 Mg36 2.238 . S
O59 Mg37 2.106 . S
O60 Mg37 2.079 . S
O60 C42 1.245 . S
O61 Mg40 2.038 . S
O61 C42 1.274 . S
H62 C80 0.951 . S
H63 C82 0.951 . S
H64 C84 0.950 . S
H65 C85 0.950 . S
H66 C87 0.950 . S
H67 C90 0.950 . S
H68 C91 0.950 . S
H69 C93 0.950 . S
H70 C94 0.950 . S
H71 C95 0.951 . S
H72 C97 0.951 . S
H73 C99 0.950 . S
H74 C100 0.950 . S
H75 C102 0.950 . S
H76 C105 0.950 . S
H77 C106 0.950 . S
H78 C108 0.950 . S
H79 C109 0.950 . S
C80 H62 0.951 . S
C80 C81 1.366 . S
C80 C82 1.388 . S
C81 C80 1.366 . S
C81 C85 1.385 . S
C82 H63 0.951 . S
C82 C80 1.388 . S
C82 C83 1.366 . S
C83 C82 1.366 . S
C83 C84 1.414 . S
C83 C86 1.499 . S
C84 H64 0.950 . S
C84 C83 1.414 . S
C84 C85 1.374 . S
C85 H65 0.950 . S
C85 C81 1.385 . S
C85 C84 1.374 . S
C86 C83 1.499 . S
C86 C87 1.373 . S
C86 C88 1.389 . S
C87 H66 0.950 . S
C87 C86 1.373 . S
C87 C103 1.377 . S
C88 C86 1.389 . S
C88 C89 1.524 . S
C88 C102 1.377 . S
C89 C88 1.524 . S
C89 C90 1.397 . S
C89 C94 1.363 . S
C90 H67 0.950 . S
C90 C89 1.397 . S
C90 C91 1.334 . S
C91 H68 0.950 . S
C91 C90 1.334 . S
C91 C92 1.287 . S
C92 C91 1.287 . S
C92 C93 1.524 . S
C92 H111 0.913 . S
C93 H69 0.950 . S
C93 C92 1.524 . S
C93 C94 1.415 . S
C94 H70 0.950 . S
C94 C89 1.363 . S
C94 C93 1.415 . S
C95 H71 0.951 . S
C95 C96 1.366 . S
C95 C97 1.388 . S
C96 C95 1.366 . S
C96 C100 1.385 . S
C97 H72 0.951 . S
C97 C95 1.388 . S
C97 C98 1.366 . S
C98 C97 1.366 . S
C98 C99 1.414 . S
C98 C101 1.499 . S
C99 H73 0.950 . S
C99 C98 1.414 . S
C99 C100 1.374 . S
C100 H74 0.950 . S
C100 C96 1.385 . S
C100 C99 1.374 . S
C101 C98 1.499 . S
C101 C102 1.373 . S
C101 C103 1.389 . S
C102 H75 0.950 . S
C102 C88 1.377 . S
C102 C101 1.373 . S
C103 C87 1.377 . S
C103 C101 1.389 . S
C103 C104 1.524 . S
C104 C103 1.524 . S
C104 C105 1.397 . S
C104 C109 1.363 . S
C105 H76 0.950 . S
C105 C104 1.397 . S
C105 C106 1.334 . S
C106 H77 0.950 . S
C106 C105 1.334 . S
C106 C107 1.287 . S
C107 C106 1.287 . S
C107 C108 1.524 . S
C107 H110 0.999 . S
C108 H78 0.950 . S
C108 C107 1.524 . S
C108 C109 1.415 . S
C109 H79 0.950 . S
C109 C104 1.363 . S
C109 C108 1.415 . S
H110 C107 0.999 . S
H111 C92 0.913 . S
H112 C130 0.951 . S
H113 C132 0.951 . S
H114 C134 0.950 . S
H115 C135 0.950 . S
H116 C137 0.950 . S
H117 C140 0.950 . S
H118 C141 0.950 . S
H119 C143 0.950 . S
H120 C144 0.950 . S
H121 C145 0.951 . S
H122 C147 0.951 . S
H123 C149 0.950 . S
H124 C150 0.950 . S
H125 C152 0.950 . S
H126 C155 0.950 . S
H127 C156 0.950 . S
H128 C158 0.950 . S
H129 C159 0.950 . S
C130 H112 0.951 . S
C130 C131 1.366 . S
C130 C132 1.388 . S
C131 C130 1.366 . S
C131 C135 1.385 . S
C132 H113 0.951 . S
C132 C130 1.388 . S
C132 C133 1.366 . S
C133 C132 1.366 . S
C133 C134 1.414 . S
C133 C136 1.499 . S
C134 H114 0.950 . S
C134 C133 1.414 . S
C134 C135 1.374 . S
C135 H115 0.950 . S
C135 C131 1.385 . S
C135 C134 1.374 . S
C136 C133 1.499 . S
C136 C137 1.373 . S
C136 C138 1.389 . S
C137 H116 0.950 . S
C137 C136 1.373 . S
C137 C153 1.377 . S
C138 C136 1.389 . S
C138 C139 1.524 . S
C138 C152 1.377 . S
C139 C138 1.524 . S
C139 C140 1.397 . S
C139 C144 1.363 . S
C140 H117 0.950 . S
C140 C139 1.397 . S
C140 C141 1.334 . S
C141 H118 0.950 . S
C141 C140 1.334 . S
C141 C142 1.287 . S
C142 C141 1.287 . S
C142 C143 1.524 . S
C142 H161 0.913 . S
C143 H119 0.950 . S
C143 C142 1.524 . S
C143 C144 1.415 . S
C144 H120 0.950 . S
C144 C139 1.363 . S
C144 C143 1.415 . S
C145 H121 0.951 . S
C145 C146 1.366 . S
C145 C147 1.388 . S
C146 C145 1.366 . S
C146 C150 1.385 . S
C147 H122 0.951 . S
C147 C145 1.388 . S
C147 C148 1.366 . S
C148 C147 1.366 . S
C148 C149 1.414 . S
C148 C151 1.499 . S
C149 H123 0.950 . S
C149 C148 1.414 . S
C149 C150 1.374 . S
C150 H124 0.950 . S
C150 C146 1.385 . S
C150 C149 1.374 . S
C151 C148 1.499 . S
C151 C152 1.373 . S
C151 C153 1.389 . S
C152 H125 0.950 . S
C152 C138 1.377 . S
C152 C151 1.373 . S
C153 C137 1.377 . S
C153 C151 1.389 . S
C153 C154 1.524 . S
C154 C153 1.524 . S
C154 C155 1.397 . S
C154 C159 1.363 . S
C155 H126 0.950 . S
C155 C154 1.397 . S
C155 C156 1.334 . S
C156 H127 0.950 . S
C156 C155 1.334 . S
C156 C157 1.287 . S
C157 C156 1.287 . S
C157 C158 1.524 . S
C157 H160 0.999 . S
C158 H128 0.950 . S
C158 C157 1.524 . S
C158 C159 1.415 . S
C159 H129 0.950 . S
C159 C154 1.363 . S
C159 C158 1.415 . S
H160 C157 0.999 . S
H161 C142 0.913 . S
H162 C180 0.951 . S
H163 C182 0.951 . S
H164 C184 0.950 . S
H165 C185 0.950 . S
H166 C187 0.950 . S
H167 C190 0.950 . S
H168 C191 0.950 . S
H169 C193 0.950 . S
H170 C194 0.950 . S
H171 C195 0.951 . S
H172 C197 0.951 . S
H173 C199 0.950 . S
H174 C200 0.950 . S
H175 C202 0.950 . S
H176 C205 0.950 . S
H177 C206 0.950 . S
H178 C208 0.950 . S
H179 C209 0.950 . S
C180 H162 0.951 . S
C180 C181 1.366 . S
C180 C182 1.388 . S
C181 C180 1.366 . S
C181 C185 1.385 . S
C182 H163 0.951 . S
C182 C180 1.388 . S
C182 C183 1.366 . S
C183 C182 1.366 . S
C183 C184 1.414 . S
C183 C186 1.499 . S
C184 H164 0.950 . S
C184 C183 1.414 . S
C184 C185 1.374 . S
C185 H165 0.950 . S
C185 C181 1.385 . S
C185 C184 1.374 . S
C186 C183 1.499 . S
C186 C187 1.373 . S
C186 C188 1.389 . S
C187 H166 0.950 . S
C187 C186 1.373 . S
C187 C203 1.377 . S
C188 C186 1.389 . S
C188 C189 1.524 . S
C188 C202 1.377 . S
C189 C188 1.524 . S
C189 C190 1.397 . S
C189 C194 1.363 . S
C190 H167 0.950 . S
C190 C189 1.397 . S
C190 C191 1.334 . S
C191 H168 0.950 . S
C191 C190 1.334 . S
C191 C192 1.287 . S
C192 C191 1.287 . S
C192 C193 1.524 . S
C192 H211 0.913 . S
C193 H169 0.950 . S
C193 C192 1.524 . S
C193 C194 1.415 . S
C194 H170 0.950 . S
C194 C189 1.363 . S
C194 C193 1.415 . S
C195 H171 0.951 . S
C195 C196 1.366 . S
C195 C197 1.388 . S
C196 C195 1.366 . S
C196 C200 1.385 . S
C197 H172 0.951 . S
C197 C195 1.388 . S
C197 C198 1.366 . S
C198 C197 1.366 . S
C198 C199 1.414 . S
C198 C201 1.499 . S
C199 H173 0.950 . S
C199 C198 1.414 . S
C199 C200 1.374 . S
C200 H174 0.950 . S
C200 C196 1.385 . S
C200 C199 1.374 . S
C201 C198 1.499 . S
C201 C202 1.373 . S
C201 C203 1.389 . S
C202 H175 0.950 . S
C202 C188 1.377 . S
C202 C201 1.373 . S
C203 C187 1.377 . S
C203 C201 1.389 . S
C203 C204 1.524 . S
C204 C203 1.524 . S
C204 C205 1.397 . S
C204 C209 1.363 . S
C205 H176 0.950 . S
C205 C204 1.397 . S
C205 C206 1.334 . S
C206 H177 0.950 . S
C206 C205 1.334 . S
C206 C207 1.287 . S
C207 C206 1.287 . S
C207 C208 1.524 . S
C207 H210 0.999 . S
C208 H178 0.950 . S
C208 C207 1.524 . S
C208 C209 1.415 . S
C209 H179 0.950 . S
C209 C204 1.363 . S
C209 C208 1.415 . S
H210 C207 0.999 . S
H211 C192 0.913 . S
H212 C230 0.951 . S
H213 C232 0.951 . S
H214 C234 0.950 . S
H215 C235 0.950 . S
H216 C237 0.950 . S
H217 C240 0.950 . S
H218 C241 0.950 . S
H219 C243 0.950 . S
H220 C244 0.950 . S
H221 C245 0.951 . S
H222 C247 0.951 . S
H223 C249 0.950 . S
H224 C250 0.950 . S
H225 C252 0.950 . S
H226 C255 0.950 . S
H227 C256 0.950 . S
H228 C258 0.950 . S
H229 C259 0.950 . S
C230 H212 0.951 . S
C230 C231 1.366 . S
C230 C232 1.388 . S
C231 C230 1.366 . S
C231 C235 1.385 . S
C232 H213 0.951 . S
C232 C230 1.388 . S
C232 C233 1.366 . S
C233 C232 1.366 . S
C233 C234 1.414 . S
C233 C236 1.499 . S
C234 H214 0.950 . S
C234 C233 1.414 . S
C234 C235 1.374 . S
C235 H215 0.950 . S
C235 C231 1.385 . S
C235 C234 1.374 . S
C236 C233 1.499 . S
C236 C237 1.373 . S
C236 C238 1.389 . S
C237 H216 0.950 . S
C237 C236 1.373 . S
C237 C253 1.377 . S
C238 C236 1.389 . S
C238 C239 1.524 . S
C238 C252 1.377 . S
C239 C238 1.524 . S
C239 C240 1.397 . S
C239 C244 1.363 . S
C240 H217 0.950 . S
C240 C239 1.397 . S
C240 C241 1.334 . S
C241 H218 0.950 . S
C241 C240 1.334 . S
C241 C242 1.287 . S
C242 C241 1.287 . S
C242 C243 1.524 . S
C242 H261 0.913 . S
C243 H219 0.950 . S
C243 C242 1.524 . S
C243 C244 1.415 . S
C244 H220 0.950 . S
C244 C239 1.363 . S
C244 C243 1.415 . S
C245 H221 0.951 . S
C245 C246 1.366 . S
C245 C247 1.388 . S
C246 C245 1.366 . S
C246 C250 1.385 . S
C247 H222 0.951 . S
C247 C245 1.388 . S
C247 C248 1.366 . S
C248 C247 1.366 . S
C248 C249 1.414 . S
C248 C251 1.499 . S
C249 H223 0.950 . S
C249 C248 1.414 . S
C249 C250 1.374 . S
C250 H224 0.950 . S
C250 C246 1.385 . S
C250 C249 1.374 . S
C251 C248 1.499 . S
C251 C252 1.373 . S
C251 C253 1.389 . S
C252 H225 0.950 . S
C252 C238 1.377 . S
C252 C251 1.373 . S
C253 C237 1.377 . S
C253 C251 1.389 . S
C253 C254 1.524 . S
C254 C253 1.524 . S
C254 C255 1.397 . S
C254 C259 1.363 . S
C255 H226 0.950 . S
C255 C254 1.397 . S
C255 C256 1.334 . S
C256 H227 0.950 . S
C256 C255 1.334 . S
C256 C257 1.287 . S
C257 C256 1.287 . S
C257 C258 1.524 . S
C257 H260 0.999 . S
C258 H228 0.950 . S
C258 C257 1.524 . S
C258 C259 1.415 . S
C259 H229 0.950 . S
C259 C254 1.363 . S
C259 C258 1.415 . S
H260 C257 0.999 . S
H261 C242 0.913 . S
H262 C280 0.951 . S
H263 C282 0.951 . S
H264 C284 0.950 . S
H265 C285 0.950 . S
H266 C287 0.950 . S
H267 C290 0.950 . S
H268 C291 0.950 . S
H269 C293 0.950 . S
H270 C294 0.950 . S
H271 C295 0.951 . S
H272 C297 0.951 . S
H273 C299 0.950 . S
H274 C300 0.950 . S
H275 C302 0.950 . S
H276 C305 0.950 . S
H277 C306 0.950 . S
H278 C308 0.950 . S
H279 C309 0.950 . S
C280 H262 0.951 . S
C280 C281 1.366 . S
C280 C282 1.388 . S
C281 C280 1.366 . S
C281 C285 1.385 . S
C282 H263 0.951 . S
C282 C280 1.388 . S
C282 C283 1.366 . S
C283 C282 1.366 . S
C283 C284 1.414 . S
C283 C286 1.499 . S
C284 H264 0.950 . S
C284 C283 1.414 . S
C284 C285 1.374 . S
C285 H265 0.950 . S
C285 C281 1.385 . S
C285 C284 1.374 . S
C286 C283 1.499 . S
C286 C287 1.373 . S
C286 C288 1.389 . S
C287 H266 0.950 . S
C287 C286 1.373 . S
C287 C303 1.377 . S
C288 C286 1.389 . S
C288 C289 1.524 . S
C288 C302 1.377 . S
C289 C288 1.524 . S
C289 C290 1.397 . S
C289 C294 1.363 . S
C290 H267 0.950 . S
C290 C289 1.397 . S
C290 C291 1.334 . S
C291 H268 0.950 . S
C291 C290 1.334 . S
C291 C292 1.287 . S
C292 C291 1.287 . S
C292 C293 1.524 . S
C292 H311 0.913 . S
C293 H269 0.950 . S
C293 C292 1.524 . S
C293 C294 1.415 . S
C294 H270 0.950 . S
C294 C289 1.363 . S
C294 C293 1.415 . S
C295 H271 0.951 . S
C295 C296 1.366 . S
C295 C297 1.388 . S
C296 C295 1.366 . S
C296 C300 1.385 . S
C297 H272 0.951 . S
C297 C295 1.388 . S
C297 C298 1.366 . S
C298 C297 1.366 . S
C298 C299 1.414 . S
C298 C301 1.499 . S
C299 H273 0.950 . S
C299 C298 1.414 . S
C299 C300 1.374 . S
C300 H274 0.950 . S
C300 C296 1.385 . S
C300 C299 1.374 . S
C301 C298 1.499 . S
C301 C302 1.373 . S
C301 C303 1.389 . S
C302 H275 0.950 . S
C302 C288 1.377 . S
C302 C301 1.373 . S
C303 C287 1.377 . S
C303 C301 1.389 . S
C303 C304 1.524 . S
C304 C303 1.524 . S
C304 C305 1.397 . S
C304 C309 1.363 . S
C305 H276 0.950 . S
C305 C304 1.397 . S
C305 C306 1.334 . S
C306 H277 0.950 . S
C306 C305 1.334 . S
C306 C307 1.287 . S
C307 C306 1.287 . S
C307 C308 1.524 . S
C307 H310 0.999 . S
C308 H278 0.950 . S
C308 C307 1.524 . S
C308 C309 1.415 . S
C309 H279 0.950 . S
C309 C304 1.363 . S
C309 C308 1.415 . S
H310 C307 0.999 . S
H311 C292 0.913 . S
H312 C330 0.951 . S
H313 C332 0.951 . S
H314 C334 0.950 . S
H315 C335 0.950 . S
H316 C337 0.950 . S
H317 C340 0.950 . S
H318 C341 0.950 . S
H319 C343 0.950 . S
H320 C344 0.950 . S
H321 C345 0.951 . S
H322 C347 0.951 . S
H323 C349 0.950 . S
H324 C350 0.950 . S
H325 C352 0.950 . S
H326 C355 0.950 . S
H327 C356 0.950 . S
H328 C358 0.950 . S
H329 C359 0.950 . S
C330 H312 0.951 . S
C330 C331 1.366 . S
C330 C332 1.388 . S
C331 C330 1.366 . S
C331 C335 1.385 . S
C332 H313 0.951 . S
C332 C330 1.388 . S
C332 C333 1.366 . S
C333 C332 1.366 . S
C333 C334 1.414 . S
C333 C336 1.499 . S
C334 H314 0.950 . S
C334 C333 1.414 . S
C334 C335 1.374 . S
C335 H315 0.950 . S
C335 C331 1.385 . S
C335 C334 1.374 . S
C336 C333 1.499 . S
C336 C337 1.373 . S
C336 C338 1.389 . S
C337 H316 0.950 . S
C337 C336 1.373 . S
C337 C353 1.377 . S
C338 C336 1.389 . S
C338 C339 1.524 . S
C338 C352 1.377 . S
C339 C338 1.524 . S
C339 C340 1.397 . S
C339 C344 1.363 . S
C340 H317 0.950 . S
C340 C339 1.397 . S
C340 C341 1.334 . S
C341 H318 0.950 . S
C341 C340 1.334 . S
C341 C342 1.287 . S
C342 C341 1.287 . S
C342 C343 1.524 . S
C342 H361 0.913 . S
C343 H319 0.950 . S
C343 C342 1.524 . S
C343 C344 1.415 . S
C344 H320 0.950 . S
C344 C339 1.363 . S
C344 C343 1.415 . S
C345 H321 0.951 . S
C345 C346 1.366 . S
C345 C347 1.388 . S
C346 C345 1.366 . S
C346 C350 1.385 . S
C347 H322 0.951 . S
C347 C345 1.388 . S
C347 C348 1.366 . S
C348 C347 1.366 . S
C348 C349 1.414 . S
C348 C351 1.499 . S
C349 H323 0.950 . S
C349 C348 1.414 . S
C349 C350 1.374 . S
C350 H324 0.950 . S
C350 C346 1.385 . S
C350 C349 1.374 . S
C351 C348 1.499 . S
C351 C352 1.373 . S
C351 C353 1.389 . S
C352 H325 0.950 . S
C352 C338 1.377 . S
C352 C351 1.373 . S
C353 C337 1.377 . S
C353 C351 1.389 . S
C353 C354 1.524 . S
C354 C353 1.524 . S
C354 C355 1.397 . S
C354 C359 1.363 . S
C355 H326 0.950 . S
C355 C354 1.397 . S
C355 C356 1.334 . S
C356 H327 0.950 . S
C356 C355 1.334 . S
C356 C357 1.287 . S
C357 C356 1.287 . S
C357 C358 1.524 . S
C357 H360 0.999 1_545 S
C358 H328 0.950 . S
C358 C357 1.524 . S
C358 C359 1.415 . S
C359 H329 0.950 . S
C359 C354 1.363 . S
C359 C358 1.415 . S
H360 C357 0.999 1_565 S
H361 C342 0.913 . S
H362 C380 0.951 . S
H363 C382 0.951 . S
H364 C384 0.950 . S
H365 C385 0.950 . S
H366 C387 0.950 . S
H367 C390 0.950 . S
H368 C391 0.950 . S
H369 C393 0.950 . S
H370 C394 0.950 . S
H371 C395 0.951 . S
H372 C397 0.951 . S
H373 C399 0.950 . S
H374 C400 0.950 . S
H375 C402 0.950 . S
H376 C405 0.950 . S
H377 C406 0.950 . S
H378 C408 0.950 . S
H379 C409 0.950 . S
C380 H362 0.951 . S
C380 C381 1.366 . S
C380 C382 1.388 . S
C381 C380 1.366 . S
C381 C385 1.385 . S
C382 H363 0.951 . S
C382 C380 1.388 . S
C382 C383 1.366 . S
C383 C382 1.366 . S
C383 C384 1.414 . S
C383 C386 1.499 . S
C384 H364 0.950 . S
C384 C383 1.414 . S
C384 C385 1.374 . S
C385 H365 0.950 . S
C385 C381 1.385 . S
C385 C384 1.374 . S
C386 C383 1.499 . S
C386 C387 1.373 . S
C386 C388 1.389 . S
C387 H366 0.950 . S
C387 C386 1.373 . S
C387 C403 1.377 . S
C388 C386 1.389 . S
C388 C389 1.524 . S
C388 C402 1.377 . S
C389 C388 1.524 . S
C389 C390 1.397 . S
C389 C394 1.363 . S
C390 H367 0.950 . S
C390 C389 1.397 . S
C390 C391 1.334 . S
C391 H368 0.950 . S
C391 C390 1.334 . S
C391 C392 1.287 . S
C392 C391 1.287 . S
C392 C393 1.524 . S
C392 H411 0.913 1_545 S
C393 H369 0.950 . S
C393 C392 1.524 . S
C393 C394 1.415 . S
C394 H370 0.950 . S
C394 C389 1.363 . S
C394 C393 1.415 . S
C395 H371 0.951 . S
C395 C396 1.366 . S
C395 C397 1.388 . S
C396 C395 1.366 . S
C396 C400 1.385 . S
C397 H372 0.951 . S
C397 C395 1.388 . S
C397 C398 1.366 . S
C398 C397 1.366 . S
C398 C399 1.414 . S
C398 C401 1.499 . S
C399 H373 0.950 . S
C399 C398 1.414 . S
C399 C400 1.374 . S
C400 H374 0.950 . S
C400 C396 1.385 . S
C400 C399 1.374 . S
C401 C398 1.499 . S
C401 C402 1.373 . S
C401 C403 1.389 . S
C402 H375 0.950 . S
C402 C388 1.377 . S
C402 C401 1.373 . S
C403 C387 1.377 . S
C403 C401 1.389 . S
C403 C404 1.524 . S
C404 C403 1.524 . S
C404 C405 1.397 . S
C404 C409 1.363 . S
C405 H376 0.950 . S
C405 C404 1.397 . S
C405 C406 1.334 . S
C406 H377 0.950 . S
C406 C405 1.334 . S
C406 C407 1.287 . S
C407 C406 1.287 . S
C407 C408 1.524 . S
C407 H410 0.999 . S
C408 H378 0.950 . S
C408 C407 1.524 . S
C408 C409 1.415 . S
C409 H379 0.950 . S
C409 C404 1.363 . S
C409 C408 1.415 . S
H410 C407 0.999 . S
H411 C392 0.913 1_565 S
H412 C430 0.951 . S
H413 C432 0.951 . S
H414 C434 0.950 . S
H415 C435 0.950 . S
H416 C437 0.950 . S
H417 C440 0.950 . S
H418 C441 0.950 . S
H419 C443 0.950 . S
H420 C444 0.950 . S
H421 C445 0.951 . S
H422 C447 0.951 . S
H423 C449 0.950 . S
H424 C450 0.950 . S
H425 C452 0.950 . S
H426 C455 0.950 . S
H427 C456 0.950 1_545 S
H428 C458 0.950 . S
H429 C459 0.950 . S
C430 H412 0.951 . S
C430 C431 1.366 . S
C430 C432 1.388 . S
C431 C430 1.366 . S
C431 C435 1.385 . S
C432 H413 0.951 . S
C432 C430 1.388 . S
C432 C433 1.366 . S
C433 C432 1.366 . S
C433 C434 1.414 . S
C433 C436 1.499 . S
C434 H414 0.950 . S
C434 C433 1.414 . S
C434 C435 1.374 . S
C435 H415 0.950 . S
C435 C431 1.385 . S
C435 C434 1.374 . S
C436 C433 1.499 . S
C436 C437 1.373 . S
C436 C438 1.389 . S
C437 H416 0.950 . S
C437 C436 1.373 . S
C437 C453 1.377 . S
C438 C436 1.389 . S
C438 C439 1.524 . S
C438 C452 1.377 . S
C439 C438 1.524 . S
C439 C440 1.397 . S
C439 C444 1.363 . S
C440 H417 0.950 . S
C440 C439 1.397 . S
C440 C441 1.334 . S
C441 H418 0.950 . S
C441 C440 1.334 . S
C441 C442 1.287 . S
C442 C441 1.287 . S
C442 C443 1.524 . S
C442 H461 0.913 . S
C443 H419 0.950 . S
C443 C442 1.524 . S
C443 C444 1.415 . S
C444 H420 0.950 . S
C444 C439 1.363 . S
C444 C443 1.415 . S
C445 H421 0.951 . S
C445 C446 1.366 . S
C445 C447 1.388 . S
C446 C445 1.366 . S
C446 C450 1.385 . S
C447 H422 0.951 . S
C447 C445 1.388 . S
C447 C448 1.366 . S
C448 C447 1.366 . S
C448 C449 1.414 . S
C448 C451 1.499 . S
C449 H423 0.950 . S
C449 C448 1.414 . S
C449 C450 1.374 . S
C450 H424 0.950 . S
C450 C446 1.385 . S
C450 C449 1.374 . S
C451 C448 1.499 . S
C451 C452 1.373 . S
C451 C453 1.389 . S
C452 H425 0.950 . S
C452 C438 1.377 . S
C452 C451 1.373 . S
C453 C437 1.377 . S
C453 C451 1.389 . S
C453 C454 1.524 . S
C454 C453 1.524 . S
C454 C455 1.397 . S
C454 C459 1.363 . S
C455 H426 0.950 . S
C455 C454 1.397 . S
C455 C456 1.334 . S
C456 H427 0.950 1_565 S
C456 C455 1.334 . S
C456 C457 1.287 . S
C457 C456 1.287 . S
C457 C458 1.524 . S
C457 H460 0.999 1_565 S
C458 H428 0.950 . S
C458 C457 1.524 . S
C458 C459 1.415 . S
C459 H429 0.950 . S
C459 C454 1.363 . S
C459 C458 1.415 . S
H460 C457 0.999 1_545 S
H461 C442 0.913 . S
C81 C10 0.710 . S
C96 C33 0.706 . S
C131 C0 1.655 . S
C146 C55 1.653 . S
C181 C18 1.502 . S
C196 C42 1.502 . S
C231 C27 1.822 . S
C246 C32 1.820 . S
C281 C24 1.655 . S
C296 C31 1.656 . S
C331 C49 1.502 . S
C346 C11 1.502 . S
C381 C1 1.822 . S
C396 C58 1.823 . S
C431 C41 0.710 . S
C446 C2 0.713 . S
