# Generated by pormake.
# Topology smk, (6)-cn, num edge types: 1
# Building blocks:
#     Node 0, Type 0, BuildingBlock: UKALOJ_clean_sbu_0, # of connection points: 6
#     Node 1, Type 0, BuildingBlock: UKALOJ_clean_sbu_0, # of connection points: 6
#     Node 2, Type 0, BuildingBlock: UKALOJ_clean_sbu_0, # of connection points: 6
#     Node 3, Type 0, BuildingBlock: UKALOJ_clean_sbu_0, # of connection points: 6
#     Node 4, Type 0, BuildingBlock: UKALOJ_clean_sbu_0, # of connection points: 6
#     Node 5, Type 0, BuildingBlock: UKALOJ_clean_sbu_0, # of connection points: 6
#     Edge 6, Type (0, 0), BuildingBlock: MIFKUJ_clean_linker_0, # of connection points: 2
#     Edge 7, Type (0, 0), BuildingBlock: MIFKUJ_clean_linker_0, # of connection points: 2
#     Edge 8, Type (0, 0), BuildingBlock: MIFKUJ_clean_linker_0, # of connection points: 2
#     Edge 9, Type (0, 0), BuildingBlock: MIFKUJ_clean_linker_0, # of connection points: 2
#     Edge 10, Type (0, 0), BuildingBlock: MIFKUJ_clean_linker_0, # of connection points: 2
#     Edge 11, Type (0, 0), BuildingBlock: MIFKUJ_clean_linker_0, # of connection points: 2
#     Edge 12, Type (0, 0), BuildingBlock: MIFKUJ_clean_linker_0, # of connection points: 2
#     Edge 13, Type (0, 0), BuildingBlock: MIFKUJ_clean_linker_0, # of connection points: 2
#     Edge 14, Type (0, 0), BuildingBlock: MIFKUJ_clean_linker_0, # of connection points: 2
#     Edge 15, Type (0, 0), BuildingBlock: MIFKUJ_clean_linker_0, # of connection points: 2
#     Edge 16, Type (0, 0), BuildingBlock: MIFKUJ_clean_linker_0, # of connection points: 2
#     Edge 17, Type (0, 0), BuildingBlock: MIFKUJ_clean_linker_0, # of connection points: 2
#     Edge 18, Type (0, 0), BuildingBlock: MIFKUJ_clean_linker_0, # of connection points: 2
#     Edge 19, Type (0, 0), BuildingBlock: MIFKUJ_clean_linker_0, # of connection points: 2
#     Edge 20, Type (0, 0), BuildingBlock: MIFKUJ_clean_linker_0, # of connection points: 2
#     Edge 21, Type (0, 0), BuildingBlock: MIFKUJ_clean_linker_0, # of connection points: 2
#     Edge 22, Type (0, 0), BuildingBlock: MIFKUJ_clean_linker_0, # of connection points: 2
#     Edge 23, Type (0, 0), BuildingBlock: MIFKUJ_clean_linker_0, # of connection points: 2
# Relax obj value: 0.278
# Max RMSD: 0.213
# Mean RMSD: 0.213
data_MOF--net-smk--node1-UKALOJ_clean_sbu_0--edge1-MIFKUJ_clean_linker_0
_symmetry_space_group_name_H-M    P1
_symmetry_Int_Tables_number       1
_symmetry_cell_setting            triclinic
loop_
_symmetry_equiv_pos_as_xyz
'x, y, z'
_cell_length_a     58.352291
_cell_length_b     58.195909
_cell_length_c     18.906185
_cell_angle_alpha  90.260844
_cell_angle_beta   90.085428
_cell_angle_gamma 119.97043
loop_
_atom_site_label
_atom_site_type_symbol
_atom_site_fract_x
_atom_site_fract_y
_atom_site_fract_z
_atom_type_partial_charge
Zn0 Zn 0.42916 0.22073 0.5269 0.0
O1 O 0.39913 0.18178 0.55895 0.0
C2 C 0.45488 0.23169 0.66709 0.0
Zn3 Zn 0.45998 0.20849 0.53348 0.0
C4 C 0.40594 0.16451 0.5718 0.0
O5 O 0.43021 0.17108 0.56763 0.0
C6 C 0.48358 0.26384 0.48423 0.0
O7 O 0.45168 0.19494 0.42955 0.0
O8 O 0.42191 0.20741 0.42197 0.0
N9 N 0.48727 0.19605 0.53983 0.0
C10 C 0.51095 0.20634 0.57278 0.0
C11 C 0.50425 0.1711 0.51978 0.0
N12 N 0.48319 0.17415 0.50697 0.0
N13 N 0.52188 0.19094 0.56139 0.0
C14 C 0.38717 0.23779 0.56428 0.0
C15 C 0.38135 0.25099 0.46455 0.0
N16 N 0.40194 0.23352 0.51684 0.0
N17 N 0.3981 0.24161 0.45481 0.0
N18 N 0.37429 0.24894 0.53298 0.0
H19 H 0.38758 0.21304 0.64806 0.0
H20 H 0.36458 0.22505 0.66034 0.0
H21 H 0.39939 0.24739 0.6714 0.0
C22 C 0.38446 0.23017 0.64048 0.0
C23 C 0.5241 0.23217 0.61251 0.0
H24 H 0.54577 0.24277 0.60332 0.0
H25 H 0.5207 0.22812 0.66986 0.0
H26 H 0.51611 0.24509 0.59699 0.0
O27 O 0.48902 0.24571 0.49723 0.0
O28 O 0.45997 0.25915 0.49295 0.0
C29 C 0.43419 0.19678 0.39419 0.0
O30 O 0.43721 0.2336 0.63259 0.0
O31 O 0.46761 0.22191 0.63756 0.0
Zn32 Zn 0.2275 0.4249 0.73817 0.0
O33 O 0.23458 0.39351 0.76189 0.0
C34 C 0.23709 0.44429 0.88318 0.0
Zn35 Zn 0.27018 0.45589 0.75482 0.0
C36 C 0.25828 0.39922 0.77454 0.0
O37 O 0.27639 0.42348 0.77782 0.0
C38 C 0.23918 0.48081 0.71133 0.0
O39 O 0.27958 0.45379 0.64977 0.0
O40 O 0.23792 0.42285 0.6343 0.0
N41 N 0.30954 0.48198 0.77973 0.0
C42 C 0.32305 0.50779 0.79971 0.0
C43 C 0.34933 0.49254 0.81016 0.0
N44 N 0.32604 0.4727 0.78608 0.0
N45 N 0.34801 0.51479 0.81984 0.0
C46 C 0.16778 0.38097 0.75316 0.0
C47 C 0.15228 0.3844 0.65419 0.0
N48 N 0.1884 0.39884 0.71442 0.0
N49 N 0.17868 0.40068 0.65271 0.0
N50 N 0.14491 0.37167 0.7165 0.0
H51 H 0.18952 0.37699 0.83982 0.0
H52 H 0.15431 0.35401 0.84144 0.0
H53 H 0.16674 0.38825 0.86346 0.0
C54 C 0.16977 0.37457 0.82876 0.0
C55 C 0.31243 0.52641 0.79331 0.0
H56 H 0.30632 0.52632 0.73774 0.0
H57 H 0.32733 0.54717 0.80639 0.0
H58 H 0.2949 0.51966 0.82791 0.0
O59 O 0.2625 0.4867 0.72911 0.0
O60 O 0.22095 0.45664 0.71094 0.0
C61 C 0.26119 0.4369 0.61027 0.0
O62 O 0.21842 0.42783 0.84369 0.0
O63 O 0.26031 0.45785 0.8588 0.0
Zn64 Zn 0.81719 0.22094 0.83501 0.0
O65 O 0.85535 0.22817 0.86666 0.0
C66 C 0.80549 0.23194 0.97794 0.0
Zn67 Zn 0.82929 0.26384 0.84895 0.0
C68 C 0.8729 0.25197 0.88145 0.0
O69 O 0.86675 0.27008 0.88 0.0
C70 C 0.77425 0.2336 0.79824 0.0
O71 O 0.84233 0.27181 0.74417 0.0
O72 O 0.831 0.22993 0.73102 0.0
N73 N 0.84244 0.30348 0.86518 0.0
C74 C 0.83316 0.31641 0.90477 0.0
C75 C 0.86821 0.34575 0.85428 0.0
N76 N 0.86423 0.32179 0.83396 0.0
N77 N 0.8491 0.34293 0.89924 0.0
C78 C 0.79785 0.16039 0.85754 0.0
C79 C 0.78859 0.14549 0.75201 0.0
N80 N 0.80423 0.18133 0.81508 0.0
N81 N 0.79857 0.17195 0.7495 0.0
N82 N 0.78786 0.13771 0.81931 0.0
H83 H 0.82111 0.1809 0.94907 0.0
H84 H 0.80427 0.14512 0.95482 0.0
H85 H 0.78579 0.16217 0.96303 0.0
C86 C 0.80264 0.16226 0.93571 0.0
C87 C 0.80785 0.30317 0.94564 0.0
H88 H 0.79798 0.31525 0.94417 0.0
H89 H 0.81245 0.30139 0.00158 0.0
H90 H 0.79414 0.28311 0.92456 0.0
O91 O 0.79197 0.25693 0.81582 0.0
O92 O 0.77939 0.21477 0.80161 0.0
C93 C 0.84077 0.25314 0.70581 0.0
O94 O 0.80367 0.21312 0.93976 0.0
O95 O 0.81589 0.25522 0.95307 0.0
Zn96 Zn 0.60944 0.80775 0.04941 0.0
O97 O 0.63735 0.84811 0.02327 0.0
C98 C 0.60824 0.82423 0.1935 0.0
Zn99 Zn 0.57797 0.8188 0.06253 0.0
C100 C 0.63002 0.86536 0.02229 0.0
O101 O 0.60617 0.85834 0.03698 0.0
C102 C 0.55673 0.76103 0.08396 0.0
O103 O 0.56691 0.81082 0.95708 0.0
O104 O 0.59759 0.79957 0.94461 0.0
N105 N 0.55076 0.83064 0.08197 0.0
C106 C 0.52417 0.81867 0.07628 0.0
C107 C 0.53756 0.85673 0.12268 0.0
N108 N 0.55897 0.85431 0.11057 0.0
N109 N 0.51534 0.83461 0.10206 0.0
C110 C 0.64337 0.7801 0.06643 0.0
C111 C 0.67335 0.79991 -0.01099 0.0
N112 N 0.63806 0.7974 0.03305 0.0
N113 N 0.6567 0.80961 -0.01511 0.0
N114 N 0.66538 0.78123 0.03954 0.0
H115 H 0.64121 0.76091 0.16561 0.0
H116 H 0.61298 0.74341 0.10814 0.0
H117 H 0.61751 0.77201 0.15623 0.0
C118 C 0.62797 0.76333 0.12794 0.0
C119 C 0.50728 0.79212 0.04212 0.0
H120 H 0.51872 0.78797 0.00246 0.0
H121 H 0.48976 0.7912 0.01621 0.0
H122 H 0.50035 0.77656 0.08317 0.0
O123 O 0.55014 0.77881 0.0867 0.0
O124 O 0.58075 0.7678 0.07216 0.0
C125 C 0.57873 0.80195 0.91907 0.0
O126 O 0.62054 0.81601 0.15537 0.0
O127 O 0.58958 0.82669 0.16727 0.0
Zn128 Zn 0.77569 0.57414 0.21061 0.0
O129 O 0.77134 0.57992 0.10398 0.0
C130 C 0.80794 0.54987 0.17267 0.0
Zn131 Zn 0.81867 0.60532 0.20488 0.0
C132 C 0.79073 0.59809 0.07071 0.0
O133 O 0.81323 0.61089 0.1001 0.0
C134 C 0.80283 0.58335 0.34751 0.0
O135 O 0.80952 0.63587 0.22958 0.0
O136 O 0.76769 0.60465 0.23439 0.0
N137 N 0.85874 0.63247 0.19428 0.0
C138 C 0.87817 0.64733 0.24099 0.0
C139 C 0.89641 0.65259 0.14038 0.0
N140 N 0.87021 0.63598 0.1317 0.0
N141 N 0.90193 0.65991 0.2087 0.0
C142 C 0.72195 0.52433 0.25229 0.0
C143 C 0.69468 0.52838 0.18564 0.0
N144 N 0.73597 0.54684 0.21499 0.0
N145 N 0.71894 0.54928 0.17369 0.0
N146 N 0.69605 0.51254 0.23509 0.0
H147 H 0.72227 0.49104 0.30075 0.0
H148 H 0.73253 0.5195 0.35689 0.0
H149 H 0.75461 0.51997 0.28966 0.0
C150 C 0.73366 0.51305 0.30236 0.0
C151 C 0.8739 0.65043 0.31743 0.0
H152 H 0.8545 0.64927 0.32486 0.0
H153 H 0.88981 0.66972 0.33836 0.0
H154 H 0.8744 0.63433 0.34726 0.0
O155 O 0.82272 0.59955 0.31158 0.0
O156 O 0.78048 0.56966 0.31765 0.0
C157 C 0.78522 0.6291 0.23703 0.0
O158 O 0.78427 0.54419 0.18459 0.0
O159 O 0.82645 0.57394 0.17749 0.0
Zn160 Zn 0.22521 0.80894 0.39756 0.0
O161 O 0.18675 0.80129 0.4257 0.0
C162 C 0.2357 0.79632 0.53896 0.0
Zn163 Zn 0.2124 0.76578 0.40693 0.0
C164 C 0.16884 0.77755 0.43871 0.0
O165 O 0.17473 0.75924 0.4385 0.0
C166 C 0.26792 0.79665 0.35786 0.0
O167 O 0.19904 0.75849 0.30314 0.0
O168 O 0.21226 0.80097 0.29272 0.0
N169 N 0.19959 0.72613 0.42218 0.0
C170 C 0.21209 0.71369 0.44803 0.0
C171 C 0.17192 0.68414 0.42908 0.0
N172 N 0.17465 0.70772 0.41053 0.0
N173 N 0.19507 0.68731 0.45324 0.0
C174 C 0.24039 0.86808 0.42662 0.0
C175 C 0.26077 0.88672 0.33192 0.0
N176 N 0.23846 0.84872 0.38303 0.0
N177 N 0.25095 0.86041 0.32396 0.0
N178 N 0.25421 0.89203 0.39569 0.0
H179 H 0.21445 0.84327 0.50919 0.0
H180 H 0.22347 0.87788 0.51437 0.0
H181 H 0.2473 0.86828 0.53727 0.0
C182 C 0.23061 0.86394 0.50113 0.0
C183 C 0.24142 0.72716 0.46016 0.0
H184 H 0.25128 0.73142 0.40805 0.0
H185 H 0.2477 0.71482 0.48925 0.0
H186 H 0.24849 0.74623 0.48856 0.0
O187 O 0.24984 0.77317 0.37202 0.0
O188 O 0.26327 0.81566 0.36587 0.0
C189 C 0.2015 0.77775 0.26625 0.0
O190 O 0.23777 0.81571 0.5034 0.0
O191 O 0.22578 0.77354 0.51057 0.0
H192 H 0.46403 0.18318 0.31272 0.0
H193 H 0.46549 0.18381 0.18387 0.0
H194 H 0.39757 0.19459 0.177 0.0
H195 H 0.39597 0.19419 0.30602 0.0
H196 H 0.40448 0.165 0.05576 0.0
H197 H 0.44985 0.24636 0.19914 0.0
H198 H 0.48019 0.27281 0.29583 0.0
H199 H 0.54361 0.26818 0.19473 0.0
H200 H 0.5134 0.24095 0.09863 0.0
H201 H 0.42097 0.23713 0.75507 0.0
H202 H 0.41846 0.23114 0.88241 0.0
H203 H 0.4918 0.23 0.88034 0.0
H204 H 0.49462 0.23632 0.75246 0.0
H205 H 0.48327 0.25271 0.00466 0.0
H206 H 0.44106 0.17485 0.85866 0.0
H207 H 0.41213 0.14701 0.76152 0.0
H208 H 0.34486 0.14343 0.86424 0.0
H209 H 0.37353 0.17184 0.96125 0.0
C210 C 0.44883 0.18476 0.28385 0.0
C211 C 0.43043 0.18956 0.31903 0.0
C212 C 0.44962 0.18493 0.21037 0.0
C213 C 0.43195 0.18975 0.17191 0.0
C214 C 0.41138 0.19095 0.20647 0.0
C215 C 0.41068 0.19099 0.28001 0.0
C216 C 0.43841 0.19945 0.09936 0.0
C217 C 0.42156 0.18418 0.04433 0.0
C218 C 0.46102 0.22433 0.08532 0.0
C219 C 0.47928 0.24129 0.14225 0.0
C220 C 0.47017 0.2507 0.19799 0.0
C221 C 0.48732 0.26578 0.25276 0.0
C222 C 0.51376 0.27204 0.25151 0.0
C223 C 0.52309 0.26323 0.19565 0.0
C224 C 0.50596 0.24791 0.14115 0.0
C225 C 0.43709 0.23668 0.78168 0.0
C226 C 0.45762 0.23648 0.74362 0.0
C227 C 0.43556 0.23314 0.85446 0.0
C228 C 0.45457 0.22943 0.8896 0.0
C229 C 0.47683 0.23256 0.85336 0.0
C230 C 0.47832 0.23603 0.78042 0.0
C231 C 0.44918 0.21843 0.961 0.0
C232 C 0.46624 0.23347 0.01587 0.0
C233 C 0.42694 0.1932 0.97463 0.0
C234 C 0.40952 0.17575 0.9169 0.0
C235 C 0.42015 0.16836 0.86024 0.0
C236 C 0.40379 0.15245 0.80521 0.0
C237 C 0.37668 0.14351 0.80662 0.0
C238 C 0.36588 0.15042 0.86315 0.0
C239 C 0.38218 0.16644 0.91818 0.0
H240 H 0.36405 0.13116 0.76401 0.0
H241 H 0.52708 0.28387 0.29349 0.0
H242 H 0.23287 0.39508 0.52314 0.0
H243 H 0.23215 0.39651 0.39458 0.0
H244 H 0.29847 0.47646 0.39887 0.0
H245 H 0.29924 0.47521 0.52821 0.0
H246 H 0.25281 0.47186 0.34109 0.0
H247 H 0.30542 0.43073 0.31344 0.0
H248 H 0.31907 0.39759 0.33597 0.0
H249 H 0.24397 0.33565 0.25969 0.0
H250 H 0.22974 0.36839 0.23727 0.0
H251 H 0.26559 0.48633 0.96926 0.0
H252 H 0.26737 0.48518 0.09777 0.0
H253 H 0.20192 0.40474 0.09619 0.0
H254 H 0.20011 0.40573 0.96697 0.0
H255 H 0.24769 0.4099 0.15267 0.0
H256 H 0.19528 0.45114 0.179 0.0
H257 H 0.18114 0.48405 0.15932 0.0
H258 H 0.25536 0.54576 0.24106 0.0
H259 H 0.27019 0.5133 0.26002 0.0
C260 C 0.24779 0.41267 0.49654 0.0
C261 C 0.2657 0.43527 0.535 0.0
C262 C 0.24749 0.41338 0.42323 0.0
C263 C 0.26511 0.43668 0.3879 0.0
C264 C 0.28473 0.45837 0.42585 0.0
C265 C 0.28518 0.4576 0.49939 0.0
C266 C 0.25971 0.43978 0.31397 0.0
C267 C 0.25227 0.45877 0.29923 0.0
C268 C 0.25793 0.42181 0.2611 0.0
C269 C 0.26646 0.40203 0.27399 0.0
C270 C 0.29175 0.41003 0.30179 0.0
C271 C 0.29963 0.39133 0.31432 0.0
C272 C 0.28241 0.36454 0.29916 0.0
C273 C 0.2573 0.35641 0.27126 0.0
C274 C 0.24934 0.37505 0.25845 0.0
C275 C 0.25103 0.46871 -0.00347 0.0
C276 C 0.23301 0.44594 0.95874 0.0
C277 C 0.25196 0.46814 0.06981 0.0
C278 C 0.2349 0.4448 0.10585 0.0
C279 C 0.21523 0.42287 0.06869 0.0
C280 C 0.21414 0.4235 -0.00481 0.0
C281 C 0.24081 0.44203 0.17964 0.0
C282 C 0.24833 0.42309 0.19437 0.0
C283 C 0.24266 0.46007 0.23254 0.0
C284 C 0.23396 0.47977 0.22029 0.0
C285 C 0.20873 0.47177 0.19203 0.0
C286 C 0.20056 0.49034 0.18115 0.0
C287 C 0.21737 0.51699 0.19874 0.0
C288 C 0.24238 0.52511 0.22733 0.0
C289 C 0.25067 0.50662 0.23819 0.0
H290 H 0.21099 0.53133 0.19035 0.0
H291 H 0.28851 0.35008 0.30922 0.0
H292 H 0.78918 0.25946 0.05947 0.0
H293 H 0.79059 0.26164 0.18854 0.0
H294 H 0.80757 0.19754 0.19445 0.0
H295 H 0.80626 0.19531 0.06534 0.0
H296 H 0.77779 0.20133 0.31603 0.0
H297 H 0.85815 0.25464 0.17485 0.0
H298 H 0.87976 0.28549 0.07586 0.0
H299 H 0.86324 0.34235 0.17376 0.0
H300 H 0.8412 0.31163 0.27289 0.0
H301 H 0.85004 0.22209 0.61632 0.0
H302 H 0.84529 0.22073 0.48792 0.0
H303 H 0.83832 0.29109 0.4956 0.0
H304 H 0.84357 0.29291 0.62412 0.0
H305 H 0.86077 0.28577 0.36859 0.0
H306 H 0.78445 0.23666 0.51342 0.0
H307 H 0.75983 0.2065 0.61119 0.0
H308 H 0.76485 0.14332 0.50779 0.0
H309 H 0.78996 0.17329 0.40993 0.0
C310 C 0.79248 0.24537 0.08844 0.0
C311 C 0.79845 0.2278 0.05292 0.0
C312 C 0.793 0.24646 0.16194 0.0
C313 C 0.79976 0.23014 0.20024 0.0
C314 C 0.8024 0.2103 0.16529 0.0
C315 C 0.80172 0.20911 0.09162 0.0
C316 C 0.80956 0.23737 0.27308 0.0
C317 C 0.79595 0.21965 0.32768 0.0
C318 C 0.833 0.26162 0.28775 0.0
C319 C 0.84797 0.28084 0.23104 0.0
C320 C 0.85921 0.27376 0.1753 0.0
C321 C 0.87147 0.29118 0.11912 0.0
C322 C 0.87285 0.31585 0.11849 0.0
C323 C 0.86217 0.32324 0.17436 0.0
C324 C 0.84983 0.30585 0.23061 0.0
C325 C 0.84843 0.23779 0.59041 0.0
C326 C 0.84635 0.25713 0.62992 0.0
C327 C 0.84578 0.23702 0.51722 0.0
C328 C 0.84066 0.25535 0.4832 0.0
C329 C 0.84202 0.27667 0.52144 0.0
C330 C 0.84495 0.27762 0.59476 0.0
C331 C 0.82928 0.24946 0.41156 0.0
C332 C 0.84255 0.26748 0.35717 0.0
C333 C 0.80525 0.22569 0.39732 0.0
C334 C 0.78928 0.20728 0.45464 0.0
C335 C 0.78041 0.21636 0.51168 0.0
C336 C 0.76638 0.19932 0.56714 0.0
C337 C 0.76083 0.17302 0.56579 0.0
C338 C 0.76919 0.1637 0.50878 0.0
C339 C 0.78331 0.18071 0.45327 0.0
H340 H 0.75003 0.15987 0.60886 0.0
H341 H 0.88219 0.32925 0.07474 0.0
H342 H 0.59591 0.85341 0.28031 0.0
H343 H 0.59239 0.84984 0.40833 0.0
H344 H 0.62744 0.79973 0.4064 0.0
H345 H 0.63078 0.80299 0.27739 0.0
H346 H 0.57792 0.77569 0.46294 0.0
H347 H 0.6582 0.85793 0.49068 0.0
H348 H 0.69045 0.90511 0.47064 0.0
H349 H 0.63483 0.92695 0.54854 0.0
H350 H 0.60205 0.87985 0.56794 0.0
H351 H 0.59094 0.77226 0.83354 0.0
H352 H 0.59042 0.77225 0.70497 0.0
H353 H 0.55126 0.81855 0.70705 0.0
H354 H 0.55182 0.81879 0.83641 0.0
H355 H 0.60183 0.84395 0.65022 0.0
H356 H 0.5217 0.76129 0.62375 0.0
H357 H 0.49027 0.71411 0.64691 0.0
H358 H 0.54675 0.69315 0.57082 0.0
H359 H 0.57865 0.74026 0.54781 0.0
C360 C 0.60359 0.84228 0.30738 0.0
C361 C 0.6131 0.82802 0.26946 0.0
C362 C 0.60172 0.8404 0.38041 0.0
C363 C 0.60949 0.82437 0.41615 0.0
C364 C 0.6213 0.8121 0.37908 0.0
C365 C 0.62329 0.81408 0.30575 0.0
C366 C 0.60134 0.81728 0.4897 0.0
C367 C 0.58352 0.79051 0.50444 0.0
C368 C 0.60793 0.83688 0.54231 0.0
C369 C 0.62755 0.86528 0.53016 0.0
C370 C 0.65272 0.87275 0.50286 0.0
C371 C 0.67113 0.8995 0.49175 0.0
C372 C 0.66467 0.91901 0.50813 0.0
C373 C 0.6398 0.91181 0.53577 0.0
C374 C 0.6213 0.88508 0.54689 0.0
C375 C 0.58158 0.78184 0.8066 0.0
C376 C 0.57219 0.79627 0.84423 0.0
C377 C 0.58101 0.78153 0.73331 0.0
C378 C 0.57099 0.79558 0.69726 0.0
C379 C 0.55904 0.80763 0.73468 0.0
C380 C 0.55947 0.80781 0.80823 0.0
C381 C 0.57837 0.80243 0.62334 0.0
C382 C 0.59613 0.82916 0.60857 0.0
C383 C 0.57183 0.78279 0.57098 0.0
C384 C 0.55263 0.75437 0.58433 0.0
C385 C 0.52749 0.74665 0.61228 0.0
C386 C 0.50955 0.7199 0.62514 0.0
C387 C 0.51649 0.70064 0.61019 0.0
C388 C 0.54138 0.70809 0.58221 0.0
C389 C 0.55937 0.73482 0.56907 0.0
H390 H 0.50262 0.67996 0.62051 0.0
H391 H 0.67896 0.93971 0.49955 0.0
H392 H 0.84117 0.62185 0.42895 0.0
H393 H 0.83814 0.62989 0.55288 0.0
H394 H 0.76461 0.55563 0.56666 0.0
H395 H 0.76717 0.54781 0.44044 0.0
H396 H 0.76044 0.59679 0.61901 0.0
H397 H 0.82204 0.56408 0.64343 0.0
H398 H 0.86279 0.5631 0.61493 0.0
H399 H 0.90983 0.64476 0.67786 0.0
H400 H 0.86934 0.64629 0.70617 0.0
H401 H 0.75086 0.56769 0.97905 0.0
H402 H 0.75065 0.57501 0.85238 0.0
H403 H 0.82191 0.65109 0.87454 0.0
H404 H 0.8226 0.64361 0.00105 0.0
H405 H 0.82957 0.61691 0.8002 0.0
H406 H 0.76872 0.64771 0.79543 0.0
H407 H 0.72847 0.6492 0.82609 0.0
H408 H 0.68036 0.57281 0.72939 0.0
H409 H 0.72031 0.57066 0.69879 0.0
C410 C 0.82478 0.60679 0.45826 0.0
C411 C 0.80435 0.58429 0.42477 0.0
C412 C 0.823 0.6115 0.52931 0.0
C413 C 0.80112 0.59337 0.56842 0.0
C414 C 0.78153 0.56991 0.53663 0.0
C415 C 0.78313 0.56538 0.46496 0.0
C416 C 0.79811 0.59977 0.64148 0.0
C417 C 0.77531 0.60088 0.65919 0.0
C418 C 0.81828 0.60644 0.69209 0.0
C419 C 0.84265 0.60535 0.67638 0.0
C420 C 0.84107 0.58186 0.65089 0.0
C421 C 0.86412 0.5812 0.63484 0.0
C422 C 0.88888 0.60387 0.64443 0.0
C423 C 0.89064 0.62722 0.67043 0.0
C424 C 0.86765 0.62797 0.68663 0.0
C425 C 0.76606 0.58625 0.95709 0.0
C426 C 0.78737 0.60458 -0.00147 0.0
C427 C 0.7657 0.59062 0.88504 0.0
C428 C 0.78645 0.61348 0.85455 0.0
C429 C 0.80589 0.63328 0.89754 0.0
C430 C 0.80645 0.62878 0.96931 0.0
C431 C 0.79146 0.61317 0.77887 0.0
C432 C 0.81477 0.61327 0.76015 0.0
C433 C 0.77177 0.6077 0.7277 0.0
C434 C 0.74759 0.60899 0.74497 0.0
C435 C 0.74957 0.63114 0.78095 0.0
C436 C 0.72679 0.63214 0.79823 0.0
C437 C 0.70187 0.6111 0.77979 0.0
C438 C 0.69969 0.58909 0.74364 0.0
C439 C 0.72241 0.58801 0.72609 0.0
H440 H 0.68426 0.61187 0.79347 0.0
H441 H 0.90669 0.60334 0.63183 0.0
H442 H 0.19691 0.81196 0.17817 0.0
H443 H 0.19853 0.81128 0.04959 0.0
H444 H 0.19345 0.73474 0.05529 0.0
H445 H 0.1919 0.73524 0.18432 0.0
H446 H 0.23958 0.77417 -0.00311 0.0
H447 H 0.14686 0.73963 0.9699 0.0
H448 H 0.10382 0.73648 -0.0071 0.0
H449 H 0.13357 0.81542 0.91429 0.0
H450 H 0.17692 0.81917 0.89144 0.0
H451 H 0.24098 0.76166 0.62332 0.0
H452 H 0.23674 0.75923 0.75142 0.0
H453 H 0.23794 0.834 0.75505 0.0
H454 H 0.2418 0.83639 0.62644 0.0
H455 H 0.19249 0.79328 0.80808 0.0
H456 H 0.28569 0.82871 0.84123 0.0
H457 H 0.32932 0.83265 0.82232 0.0
H458 H 0.2988 0.7524 0.89119 0.0
H459 H 0.25492 0.74792 0.91017 0.0
C460 C 0.19535 0.79463 0.15196 0.0
C461 C 0.19504 0.77399 0.19082 0.0
C462 C 0.19606 0.79418 0.0786 0.0
C463 C 0.19639 0.77308 0.04363 0.0
C464 C 0.19331 0.75119 0.08196 0.0
C465 C 0.19242 0.75153 0.15544 0.0
C466 C 0.20479 0.77635 0.96966 0.0
C467 C 0.22903 0.77776 0.95501 0.0
C468 C 0.19139 0.782 0.91654 0.0
C469 C 0.16522 0.77973 0.92932 0.0
C470 C 0.14429 0.75638 0.95783 0.0
C471 C 0.1198 0.75445 0.97066 0.0
C472 C 0.11597 0.77574 0.95513 0.0
C473 C 0.13657 0.79895 0.92632 0.0
C474 C 0.16109 0.80096 0.91321 0.0
C475 C 0.24116 0.77799 0.65156 0.0
C476 C 0.2411 0.79893 0.61509 0.0
C477 C 0.2389 0.77665 0.72474 0.0
C478 C 0.23677 0.79632 0.76211 0.0
C479 C 0.23943 0.8186 0.72656 0.0
C480 C 0.24174 0.81998 0.65324 0.0
C481 C 0.22742 0.79134 0.83541 0.0
C482 C 0.20299 0.78957 0.84985 0.0
C483 C 0.24065 0.78537 0.88842 0.0
C484 C 0.26696 0.78791 0.87654 0.0
C485 C 0.28822 0.81183 0.85181 0.0
C486 C 0.31302 0.81419 0.8413 0.0
C487 C 0.31682 0.79278 0.85547 0.0
C488 C 0.29582 0.76896 0.88021 0.0
C489 C 0.271 0.76653 0.89102 0.0
H490 H 0.33603 0.79465 0.84737 0.0
H491 H 0.09703 0.77425 0.9654 0.0
H492 H 0.35179 0.14005 0.55584 0.0
H493 H 0.32115 0.09217 0.5424 0.0
H494 H 0.38454 0.07687 0.58981 0.0
H495 H 0.415 0.12422 0.6046 0.0
H496 H 0.35869 0.05845 0.45262 0.0
H497 H 0.33944 0.05754 0.70107 0.0
H498 H 0.32477 0.07195 0.80592 0.0
H499 H 0.24841 0.04367 0.71053 0.0
H500 H 0.26283 0.02961 0.6043 0.0
H501 H 0.30462 0.92181 0.43637 0.0
H502 H 0.32618 0.96741 0.48197 0.0
H503 H 0.25177 0.96637 0.47061 0.0
H504 H 0.23011 0.92016 0.42682 0.0
H505 H 0.27959 0.99393 0.58654 0.0
H506 H 0.297 0.99511 0.3402 0.0
H507 H 0.31072 0.98266 0.22997 0.0
H508 H 0.38894 1.01252 0.3145 0.0
H509 H 0.37558 0.02481 0.4257 0.0
C510 C 0.359 0.12643 0.56556 0.0
C511 C 0.38595 0.13603 0.58029 0.0
C512 C 0.34148 0.0991 0.55766 0.0
C513 C 0.35071 0.08106 0.56429 0.0
C514 C 0.3771 0.09049 0.58399 0.0
C515 C 0.39447 0.11762 0.59251 0.0
C516 C 0.33405 0.05285 0.54284 0.0
C517 C 0.34156 0.04427 0.48234 0.0
C518 C 0.31112 0.03469 0.58007 0.0
C519 C 0.30233 0.04281 0.64431 0.0
C520 C 0.31961 0.05464 0.70207 0.0
C521 C 0.31133 0.06271 0.76184 0.0
C522 C 0.2857 0.05879 0.76482 0.0
C523 C 0.26828 0.04673 0.70809 0.0
C524 C 0.2765 0.03871 0.64808 0.0
C525 C 0.29294 0.93133 0.44459 0.0
C526 C 0.2659 0.91782 0.42805 0.0
C527 C 0.30518 0.95734 0.47032 0.0
C528 C 0.29073 0.97058 0.47846 0.0
C529 C 0.26336 0.95664 0.4646 0.0
C530 C 0.25102 0.93039 0.43949 0.0
C531 C 0.30473 0.99933 0.49729 0.0
C532 C 0.29666 1.0081 0.55671 0.0
C533 C 0.32704 0.01795 0.45845 0.0
C534 C 0.33521 1.01067 0.39153 0.0
C535 C 0.31707 0.99885 0.33549 0.0
C536 C 0.32479 0.99185 0.27281 0.0
C537 C 0.35067 0.99674 0.2653 0.0
C538 C 0.36889 1.00871 0.32042 0.0
C539 C 0.36127 0.01572 0.38327 0.0
H540 H 0.35661 0.99131 0.21672 0.0
H541 H 0.27931 0.06503 0.81115 0.0
H542 H 0.3898 0.28315 0.64293 0.0
H543 H 0.36644 0.30446 0.69296 0.0
H544 H 0.30259 0.26195 0.54386 0.0
H545 H 0.3267 0.24135 0.49224 0.0
H546 H 0.31216 0.30978 0.55075 0.0
H547 H 0.29809 0.24606 0.72756 0.0
H548 H 0.31032 0.22188 0.81233 0.0
H549 H 0.35826 0.29399 0.92856 0.0
H550 H 0.34664 0.31871 0.84386 0.0
H551 H 0.22907 0.3488 0.72209 0.0
H552 H 0.24525 0.31855 0.6913 0.0
H553 H 0.3206 0.3721 0.78734 0.0
H554 H 0.30476 0.40274 0.8174 0.0
H555 H 0.30134 0.31545 0.80946 0.0
H556 H 0.31562 0.37862 0.62384 0.0
H557 H 0.30047 0.40076 0.54036 0.0
H558 H 0.24838 0.32596 0.44074 0.0
H559 H 0.26274 0.30324 0.52477 0.0
C560 C 0.37054 0.27799 0.62194 0.0
C561 C 0.35968 0.26015 0.56497 0.0
C562 C 0.35716 0.29018 0.65046 0.0
C563 C 0.33235 0.28441 0.62349 0.0
C564 C 0.32158 0.26665 0.56607 0.0
C565 C 0.33523 0.2548 0.53676 0.0
C566 C 0.31825 0.29771 0.65353 0.0
C567 C 0.3094 0.31053 0.60727 0.0
C568 C 0.31482 0.29911 0.72743 0.0
C569 C 0.32165 0.28428 0.77899 0.0
C570 C 0.31137 0.2568 0.77094 0.0
C571 C 0.31819 0.24299 0.81901 0.0
C572 C 0.3351 0.2564 0.87571 0.0
C573 C 0.34518 0.28364 0.88458 0.0
C574 C 0.33846 0.29755 0.83659 0.0
C575 C 0.24883 0.35383 0.73855 0.0
C576 C 0.26569 0.37829 0.77187 0.0
C577 C 0.25808 0.33656 0.72052 0.0
C578 C 0.28421 0.34326 0.73626 0.0
C579 C 0.30038 0.3666 0.77461 0.0
C580 C 0.29129 0.38408 0.79175 0.0
C581 C 0.29554 0.32742 0.70669 0.0
C582 C 0.30391 0.3143 0.75299 0.0
C583 C 0.29818 0.3254 0.63283 0.0
C584 C 0.29 0.33917 0.58127 0.0
C585 C 0.30075 0.36684 0.5846 0.0
C586 C 0.29232 0.3795 0.53717 0.0
C587 C 0.27337 0.36474 0.48559 0.0
C588 C 0.26296 0.33733 0.481 0.0
C589 C 0.27123 0.32455 0.52852 0.0
H590 H 0.26684 0.37455 0.44899 0.0
H591 H 0.34036 0.24568 0.91285 0.0
H592 H 0.91447 0.30115 0.91059 0.0
H593 H 0.96128 0.31611 0.89497 0.0
H594 H 0.94278 0.23576 0.85368 0.0
H595 H 0.89547 0.22043 0.86795 0.0
H596 H 0.99547 0.27699 0.94299 0.0
H597 H 0.94758 0.25901 0.71904 0.0
H598 H 0.91428 0.26117 0.64313 0.0
H599 H 0.95738 0.34621 0.65694 0.0
H600 H 0.99063 0.34449 0.73423 0.0
H601 H 0.11902 0.32088 0.76188 0.0
H602 H 0.07255 0.29557 0.79994 0.0
H603 H 0.06444 0.36444 0.76471 0.0
H604 H 0.1105 0.38922 0.72539 0.0
H605 H 0.02354 0.32326 0.71246 0.0
H606 H 0.07078 0.34302 0.93377 0.0
H607 H 0.10302 0.34333 0.01882 0.0
H608 H 0.06174 0.25816 0.01727 0.0
H609 H 0.02945 0.25736 0.93134 0.0
C610 C 0.92026 0.28645 0.89997 0.0
C611 C 0.90113 0.2596 0.8894 0.0
C612 C 0.94709 0.29508 0.8913 0.0
C613 C 0.95539 0.27706 0.87268 0.0
C614 C 0.93668 0.24992 0.86829 0.0
C615 C 0.90967 0.24123 0.87632 0.0
C616 C 0.9828 0.28737 0.84749 0.0
C617 C 1.00164 0.28664 0.89205 0.0
C618 C 0.99078 0.30046 0.78177 0.0
C619 C 0.97146 0.3016 0.73286 0.0
C620 C 0.94986 0.27815 0.70623 0.0
C621 C 0.931 0.27929 0.66296 0.0
C622 C 0.93368 0.30381 0.64534 0.0
C623 C 0.95531 0.32723 0.67068 0.0
C624 C 0.97418 0.32619 0.71419 0.0
C625 C 0.10723 0.3305 0.7632 0.0
C626 C 0.11818 0.35696 0.74167 0.0
C627 C 0.08076 0.31612 0.78484 0.0
C628 C 0.06497 0.32814 0.78593 0.0
C629 C 0.0761 0.35465 0.76426 0.0
C630 C 0.10237 0.36884 0.74206 0.0
C631 C 0.03672 0.31325 0.80817 0.0
C632 C 1.01756 0.31322 0.76296 0.0
C633 C 0.0286 0.29968 0.87359 0.0
C634 C 0.04789 0.30013 0.92552 0.0
C635 C 0.0687 0.32436 0.95115 0.0
C636 C 0.08696 0.32463 -0.00043 0.0
C637 C 0.08447 0.30078 0.02327 0.0
C638 C 0.06367 0.27662 -0.00125 0.0
C639 C 0.04538 0.27624 0.95022 0.0
H640 H 0.09863 0.30103 0.06077 0.0
H641 H 0.91902 0.30464 0.61198 0.0
H642 H 0.62383 0.90823 0.04402 0.0
H643 H 0.6532 0.95396 0.00852 0.0
H644 H 0.70747 0.93173 0.91957 0.0
H645 H 0.6784 0.88581 0.95743 0.0
H646 H 0.73457 0.97789 -0.01774 0.0
H647 H 0.66517 0.94255 0.81292 0.0
H648 H 0.61927 0.91889 0.76835 0.0
H649 H 0.60414 0.97626 0.86904 0.0
H650 H 0.64989 1.0001 0.91498 0.0
H651 H 0.79617 0.09877 0.77173 0.0
H652 H 0.77193 0.05174 0.8065 0.0
H653 H 0.72528 0.06863 0.95182 0.0
H654 H 0.74975 0.11553 0.91796 0.0
H655 H 0.69614 0.02441 0.85099 0.0
H656 H 0.76822 0.05856 0.02153 0.0
H657 H 0.81532 0.08157 0.05589 0.0
H658 H 0.82663 0.02501 0.93691 0.0
H659 H 0.77964 1.00188 0.90094 0.0
C660 C 0.64204 0.91302 0.01707 0.0
C661 C 0.64866 0.89331 0.00304 0.0
C662 C 0.65879 0.93921 -0.00359 0.0
C663 C 0.68231 0.94628 0.9598 0.0
C664 C 0.68937 0.92678 0.94736 0.0
C665 C 0.67273 0.90053 0.96894 0.0
C666 C 0.69922 0.97398 0.93437 0.0
C667 C 0.7262 0.98788 0.95261 0.0
C668 C 0.68845 0.98719 0.89558 0.0
C669 C 0.66091 0.97299 0.86789 0.0
C670 C 0.65201 0.95002 0.82598 0.0
C671 C 0.62602 0.9366 0.80039 0.0
C672 C 0.60878 0.94603 0.816 0.0
C673 C 0.61752 0.96896 0.85705 0.0
C674 C 0.64349 0.98246 0.8828 0.0
C675 C 0.78098 0.09236 0.81178 0.0
C676 C 0.77508 0.11069 0.84321 0.0
C677 C 0.76719 0.06562 0.83155 0.0
C678 C 0.7469 0.05679 0.88193 0.0
C679 C 0.74095 0.0751 0.91314 0.0
C680 C 0.75505 0.10186 0.89433 0.0
C681 C 0.73114 0.02829 0.90038 0.0
C682 C 0.70441 1.01426 0.88038 0.0
C683 C 0.74231 0.01486 0.93594 0.0
C684 C 0.77049 0.02868 0.95788 0.0
C685 C 0.7808 0.05118 0.00212 0.0
C686 C 0.80747 0.06421 0.02202 0.0
C687 C 0.82398 0.05481 -0.00157 0.0
C688 C 0.81383 0.0323 0.95505 0.0
C689 C 0.78718 0.01922 0.93493 0.0
H690 H 0.84462 0.06492 0.0139 0.0
H691 H 0.58867 0.9356 0.79617 0.0
H692 H 0.73511 0.62012 0.25424 0.0
H693 H 0.71863 0.64995 0.2248 0.0
H694 H 0.79824 0.71303 0.18686 0.0
H695 H 0.81514 0.68299 0.21513 0.0
H696 H 0.76074 0.72729 0.26098 0.0
H697 H 0.77058 0.68658 0.05108 0.0
H698 H 0.76619 0.64906 0.97944 0.0
H699 H 0.68164 0.61046 -0.00395 0.0
H700 H 0.68552 0.64759 0.06883 0.0
H701 H 0.71786 0.80256 0.05881 0.0
H702 H 0.74145 0.77963 0.09639 0.0
H703 H 0.66738 0.70585 0.10528 0.0
H704 H 0.64391 0.72872 0.0663 0.0
H705 H 0.70606 0.69967 0.04211 0.0
H706 H 0.69655 0.73987 0.25507 0.0
H707 H 0.70106 0.77684 0.32944 0.0
H708 H 0.78551 0.81653 0.30721 0.0
H709 H 0.78147 0.77994 0.23179 0.0
C710 C 0.7493 0.64048 0.24118 0.0
C711 C 0.77648 0.64906 0.2363 0.0
C712 C 0.73977 0.65748 0.22422 0.0
C713 C 0.75717 0.68351 0.20266 0.0
C714 C 0.78451 0.69293 0.2032 0.0
C715 C 0.79412 0.67577 0.21959 0.0
C716 C 0.74626 0.69972 0.17374 0.0
C717 C 0.7492 0.72162 0.21246 0.0
C718 C 0.73086 0.69194 0.11103 0.0
C719 C 0.72836 0.66976 0.06614 0.0
C720 C 0.75105 0.66999 0.04003 0.0
C721 C 0.74866 0.6488 -0.00084 0.0
C722 C 0.72367 0.62732 -0.01639 0.0
C723 C 0.701 0.62708 0.0084 0.0
C724 C 0.70328 0.64821 0.0494 0.0
C725 C 0.70669 0.78145 0.06879 0.0
C726 C 0.67903 0.76751 0.06125 0.0
C727 C 0.72013 0.76839 0.09051 0.0
C728 C 0.70615 0.74108 0.10469 0.0
C729 C 0.67857 0.72697 0.09521 0.0
C730 C 0.66512 0.74007 0.07377 0.0
C731 C 0.72023 0.72721 0.12973 0.0
C732 C 0.71783 0.70562 0.09023 0.0
C733 C 0.73621 0.73537 0.19156 0.0
C734 C 0.73868 0.75731 0.23716 0.0
C735 C 0.71607 0.75658 0.26556 0.0
C736 C 0.71854 0.77745 0.30799 0.0
C737 C 0.74355 0.79905 0.32288 0.0
C738 C 0.76615 0.7998 0.29553 0.0
C739 C 0.76378 0.779 0.25297 0.0
H740 H 0.74543 0.81518 0.35575 0.0
H741 H 0.72187 0.61092 0.95207 0.0
H742 H 0.92112 0.64369 0.31486 0.0
H743 H 0.96596 0.66693 0.36395 0.0
H744 H 0.98639 0.73201 0.22114 0.0
H745 H 0.94162 0.70791 0.16995 0.0
H746 H 0.02492 0.72293 0.22458 0.0
H747 H 0.97463 0.73419 0.40766 0.0
H748 H 0.9379 0.71942 0.49244 0.0
H749 H 0.96374 0.67113 0.59812 0.0
H750 H 1.00046 0.68538 0.51343 0.0
H751 H 0.14698 0.80678 0.39213 0.0
H752 H 0.10025 0.79021 0.3654 0.0
H753 H 0.07995 0.71496 0.45864 0.0
H754 H 0.12668 0.73122 0.48476 0.0
H755 H 0.04183 0.7325 0.4834 0.0
H756 H 0.09047 0.71984 0.29473 0.0
H757 H 0.12774 0.73564 0.21138 0.0
H758 H 0.10473 0.78796 0.11636 0.0
H759 H 0.06766 0.77293 0.20035 0.0
C760 C 0.93514 0.66314 0.29489 0.0
C761 C 0.9279 0.67435 0.23981 0.0
C762 C 0.96076 0.67647 0.32297 0.0
C763 C 0.97956 0.70164 0.29769 0.0
C764 C 0.97231 0.71275 0.24205 0.0
C765 C 0.94677 0.69911 0.21299 0.0
C766 C 1.00694 0.71588 0.32772 0.0
C767 C 0.02852 0.72544 0.28115 0.0
C768 C 1.01187 0.71882 0.40172 0.0
C769 C 0.9902 0.71073 0.45386 0.0
C770 C 0.97243 0.72035 0.44882 0.0
C771 C 0.95161 0.71207 0.49687 0.0
C772 C 0.94846 0.69431 0.55055 0.0
C773 C 0.9662 0.68489 0.5565 0.0
C774 C 0.98705 0.6931 0.50857 0.0
C775 C 0.13252 0.78699 0.40904 0.0
C776 C 0.14059 0.77023 0.44008 0.0
C777 C 0.10582 0.77751 0.39336 0.0
C778 C 0.08671 0.75125 0.40917 0.0
C779 C 0.0944 0.73528 0.44587 0.0
C780 C 0.12113 0.74461 0.46072 0.0
C781 C 0.05945 0.73946 0.38021 0.0
C782 C 0.03803 0.73026 0.42689 0.0
C783 C 0.05464 0.73699 0.30637 0.0
C784 C 0.07648 0.74551 0.2545 0.0
C785 C 0.09348 0.73488 0.25649 0.0
C786 C 0.11456 0.74368 0.20911 0.0
C787 C 0.11866 0.76287 0.15885 0.0
C788 C 0.10158 0.77317 0.15553 0.0
C789 C 0.08053 0.76452 0.20304 0.0
H790 H 0.13503 0.76972 0.12238 0.0
H791 H 0.9323 0.68788 0.58758 0.0
H792 H 0.48103 0.30912 0.46088 0.0
H793 H 0.51656 0.35205 0.41973 0.0
H794 H 0.56906 0.32001 0.40616 0.0
H795 H 0.53418 0.27767 0.45002 0.0
H796 H 0.59526 0.36556 0.45809 0.0
H797 H 0.54022 0.33261 0.25053 0.0
H798 H 0.499 0.31425 0.18028 0.0
H799 H 0.49046 0.38107 0.23719 0.0
H800 H 0.53176 0.39994 0.30717 0.0
H801 H 0.6619 0.47073 0.15673 0.0
H802 H 0.62537 0.42861 0.19982 0.0
H803 H 0.64381 0.45849 0.4142 0.0
H804 H 0.68117 0.49997 0.37071 0.0
H805 H 0.5821 0.41395 0.26147 0.0
H806 H 0.62751 0.40965 0.53117 0.0
H807 H 0.67148 0.42481 0.58421 0.0
H808 H 0.70324 0.4256 0.37892 0.0
H809 H 0.65939 0.41007 0.32483 0.0
C810 C 0.50017 0.31127 0.44917 0.0
C811 C 0.50472 0.28994 0.45867 0.0
C812 C 0.52044 0.33579 0.42508 0.0
C813 C 0.54552 0.3393 0.40875 0.0
C814 C 0.55002 0.31798 0.41856 0.0
C815 C 0.52995 0.29367 0.44349 0.0
C816 C 0.56731 0.36519 0.38273 0.0
C817 C 0.59232 0.37611 0.41508 0.0
C818 C 0.56382 0.37889 0.32579 0.0
C819 C 0.53884 0.36748 0.2847 0.0
C820 C 0.5294 0.34324 0.2485 0.0
C821 C 0.50609 0.33278 0.20863 0.0
C822 C 0.49201 0.34636 0.20482 0.0
C823 C 0.50134 0.37053 0.2404 0.0
C824 C 0.52475 0.38117 0.27992 0.0
C825 C 0.65808 0.46806 0.21299 0.0
C826 C 0.6744 0.48817 0.26069 0.0
C827 C 0.6372 0.44412 0.23766 0.0
C828 C 0.63197 0.44007 0.31051 0.0
C829 C 0.64781 0.46071 0.35799 0.0
C830 C 0.66907 0.4844 0.33333 0.0
C831 C 0.6101 0.41422 0.33649 0.0
C832 C 0.58503 0.40342 0.30451 0.0
C833 C 0.61385 0.40004 0.39176 0.0
C834 C 0.64022 0.40898 0.42393 0.0
C835 C 0.64385 0.41295 0.49742 0.0
C836 C 0.66876 0.42162 0.52765 0.0
C837 C 0.69015 0.42625 0.48494 0.0
C838 C 0.68667 0.4221 0.41192 0.0
C839 C 0.6618 0.41337 0.38145 0.0
H840 H 0.70942 0.43301 0.50843 0.0
H841 H 0.47395 0.33821 0.17401 0.0
H842 H 0.26637 0.53368 0.74487 0.0
H843 H 0.25754 0.56832 0.70277 0.0
H844 H 0.19081 0.50993 0.58224 0.0
H845 H 0.19915 0.47509 0.62522 0.0
H846 H 0.23037 0.55909 0.50713 0.0
H847 H 0.17542 0.52896 0.71644 0.0
H848 H 0.16751 0.51854 0.84342 0.0
H849 H 0.22475 0.59909 0.89643 0.0
H850 H 0.23329 0.60989 0.76969 0.0
H851 H 0.17774 0.6392 0.39431 0.0
H852 H 0.18377 0.60321 0.43977 0.0
H853 H 0.22794 0.65262 0.61728 0.0
H854 H 0.21963 0.68745 0.57503 0.0
H855 H 0.20008 0.60716 0.66383 0.0
H856 H 0.25673 0.63918 0.46272 0.0
H857 H 0.26963 0.65164 0.33854 0.0
H858 H 0.21637 0.57152 0.27199 0.0
H859 H 0.2028 0.55867 0.39566 0.0
C860 C 0.24979 0.52822 0.70957 0.0
C861 C 0.23347 0.50169 0.68828 0.0
C862 C 0.24473 0.54799 0.68576 0.0
C863 C 0.22354 0.54161 0.63945 0.0
C864 C 0.20726 0.51518 0.61797 0.0
C865 C 0.21198 0.49533 0.64283 0.0
C866 C 0.21862 0.5626 0.61247 0.0
C867 C 0.2234 0.56945 0.5409 0.0
C868 C 0.21048 0.57659 0.65744 0.0
C869 C 0.20519 0.57015 0.7336 0.0
C870 C 0.1865 0.54439 0.75518 0.0
C871 C 0.18186 0.53842 0.82711 0.0
C872 C 0.19568 0.55812 0.87797 0.0
C873 C 0.21409 0.58384 0.85698 0.0
C874 C 0.21882 0.5899 0.78511 0.0
C875 C 0.18875 0.64226 0.44294 0.0
C876 C 0.1993 0.66652 0.47947 0.0
C877 C 0.19244 0.62182 0.46863 0.0
C878 C 0.20714 0.62539 0.53086 0.0
C879 C 0.21691 0.64939 0.56857 0.0
C880 C 0.21264 0.66953 0.54374 0.0
C881 C 0.21186 0.60401 0.55763 0.0
C882 C 0.20706 0.59699 0.62944 0.0
C883 C 0.22065 0.59029 0.51306 0.0
C884 C 0.22851 0.59804 0.43845 0.0
C885 C 0.24757 0.62428 0.42155 0.0
C886 C 0.25503 0.6314 0.35124 0.0
C887 C 0.24376 0.6124 0.29739 0.0
C888 C 0.22503 0.58623 0.31373 0.0
C889 C 0.21744 0.57902 0.38393 0.0
H890 H 0.2496 0.61795 0.24301 0.0
H891 H 0.19206 0.55346 0.93363 0.0
H892 H 0.75691 0.26925 0.7888 0.0
H893 H 0.71369 0.26117 0.74886 0.0
H894 H 0.68903 0.17887 0.71086 0.0
H895 H 0.73224 0.18671 0.75139 0.0
H896 H 0.68849 0.24488 0.62441 0.0
H897 H 0.6227 0.14174 0.74876 0.0
H898 H 0.62323 0.11569 0.85076 0.0
H899 H 0.67384 0.18759 0.96493 0.0
H900 H 0.67332 0.21403 0.86405 0.0
H901 H 0.55794 0.18626 0.48372 0.0
H902 H 0.60077 0.19269 0.52433 0.0
H903 H 0.58446 0.20932 0.7351 0.0
H904 H 0.54148 0.20232 0.69472 0.0
H905 H 0.60548 0.17695 0.73736 0.0
H906 H 0.62519 0.25937 0.63066 0.0
H907 H 0.62484 0.28812 0.53578 0.0
H908 H 0.66699 0.26287 0.39954 0.0
H909 H 0.66724 0.23364 0.49332 0.0
C910 C 0.74232 0.2494 0.77201 0.0
C911 C 0.748 0.22858 0.77369 0.0
C912 C 0.71764 0.24485 0.74894 0.0
C913 C 0.69805 0.2194 0.72736 0.0
C914 C 0.70373 0.19861 0.72816 0.0
C915 C 0.72845 0.20313 0.75127 0.0
C916 C 0.67169 0.21471 0.70443 0.0
C917 C 0.67035 0.22994 0.64893 0.0
C918 C 0.64801 0.19554 0.73716 0.0
C919 C 0.64819 0.17984 0.79852 0.0
C920 C 0.63387 0.15197 0.79573 0.0
C921 C 0.63418 0.13715 0.85334 0.0
C922 C 0.64864 0.14998 0.91419 0.0
C923 C 0.66274 0.17767 0.91767 0.0
C924 C 0.66246 0.19258 0.86025 0.0
C925 C 0.56359 0.19125 0.53866 0.0
C926 C 0.5468 0.19446 0.58575 0.0
C927 C 0.58801 0.19501 0.56176 0.0
C928 C 0.59596 0.20185 0.63255 0.0
C929 C 0.57882 0.20425 0.68016 0.0
C930 C 0.55446 0.2006 0.65693 0.0
C931 C 0.6223 0.20688 0.65679 0.0
C932 C 0.62363 0.19173 0.71251 0.0
C933 C 0.646 0.22647 0.62514 0.0
C934 C 0.646 0.24412 0.56877 0.0
C935 C 0.6342 0.25979 0.58027 0.0
C936 C 0.63405 0.2762 0.52673 0.0
C937 C 0.64582 0.27727 0.46161 0.0
C938 C 0.65784 0.26199 0.44997 0.0
C939 C 0.65801 0.24551 0.50332 0.0
H940 H 0.64569 0.29 0.42022 0.0
H941 H 0.64887 0.13846 0.95869 0.0
H942 H 0.56192 0.71917 0.03909 0.0
H943 H 0.52622 0.67512 0.00519 0.0
H944 H 0.46869 0.69464 0.08396 0.0
H945 H 0.50432 0.73877 0.11846 0.0
H946 H 0.45524 0.64114 0.10874 0.0
H947 H 0.48404 0.70449 0.91753 0.0
H948 H 0.51732 0.73769 0.83736 0.0
H949 H 0.53578 0.67957 0.75844 0.0
H950 H 0.50299 0.64614 0.83914 0.0
H951 H 0.3429 0.54588 0.91906 0.0
H952 H 0.37823 0.58689 0.97081 0.0
H953 H 0.43591 0.5774 0.85082 0.0
H954 H 0.40018 0.53767 0.79413 0.0
H955 H 0.44993 0.62609 0.8492 0.0
H956 H 0.42244 0.56263 0.03721 0.0
H957 H 0.39071 0.5288 0.11891 0.0
H958 H 0.37136 0.58539 0.20495 0.0
H959 H 0.40275 0.61947 0.12315 0.0
C960 C 0.54174 0.7139 0.05111 0.0
C961 C 0.53595 0.73268 0.08047 0.0
C962 C 0.52134 0.68874 0.03125 0.0
C963 C 0.49481 0.68184 0.04071 0.0
C964 C 0.48904 0.69966 0.07568 0.0
C965 C 0.50943 0.7249 0.09518 0.0
C966 C 0.47321 0.65723 0.00829 0.0
C967 C 0.45389 0.63786 0.05198 0.0
C968 C 0.47181 0.65282 0.9343 0.0
C969 C 0.49126 0.67288 0.88503 0.0
C970 C 0.49536 0.69884 0.88356 0.0
C971 C 0.51413 0.7177 0.83802 0.0
C972 C 0.52875 0.71076 0.79322 0.0
C973 C 0.52453 0.68493 0.7935 0.0
C974 C 0.50585 0.66602 0.83909 0.0
C975 C 0.36302 0.55307 0.90189 0.0
C976 C 0.3687 0.53916 0.85036 0.0
C977 C 0.38334 0.5762 0.9329 0.0
C978 C 0.40994 0.58523 0.91566 0.0
C979 C 0.41562 0.57104 0.86498 0.0
C980 C 0.39524 0.54828 0.83275 0.0
C981 C 0.43183 0.60954 0.9496 0.0
C982 C 0.45122 0.62907 0.90607 0.0
C983 C 0.43345 0.61391 0.02384 0.0
C984 C 0.41479 0.59353 0.07363 0.0
C985 C 0.41132 0.56781 0.07329 0.0
C986 C 0.3934 0.5486 0.11965 0.0
C987 C 0.37898 0.55492 0.16697 0.0
C988 C 0.38252 0.58051 0.16822 0.0
C989 C 0.4004 0.59979 0.12194 0.0
H990 H 0.3651 0.54001 0.20276 0.0
H991 H 0.54323 0.72532 0.75791 0.0
H992 H 0.77273 0.49686 0.16155 0.0
H993 H 0.78105 0.46182 0.12143 0.0
H994 H 0.86366 0.51925 0.09381 0.0
H995 H 0.85555 0.55457 0.13479 0.0
H996 H 0.79758 0.45509 -0.00312 0.0
H997 H 0.89998 0.48814 0.12297 0.0
H998 H 0.9258 0.51214 0.22881 0.0
H999 H 0.85397 0.48995 0.34174 0.0
H1000 H 0.82773 0.46553 0.23695 0.0
H1001 H 0.85495 0.38641 0.83373 0.0
H1002 H 0.8495 0.4221 0.88556 0.0
H1003 H 0.83251 0.38312 0.08796 0.0
H1004 H 0.83863 0.34778 0.03637 0.0
H1005 H 0.86466 0.43661 0.10188 0.0
H1006 H 0.78272 0.37696 -0.01316 0.0
H1007 H 0.75426 0.35028 0.88756 0.0
H1008 H 0.77991 0.42095 0.76537 0.0
H1009 H 0.80885 0.44803 0.8636 0.0
C1010 C 0.79274 0.5021 0.14736 0.0
C1011 C 0.81349 0.52857 0.1513 0.0
C1012 C 0.79743 0.482 0.12423 0.0
C1013 C 0.82297 0.48784 0.10477 0.0
C1014 C 0.84383 0.51421 0.10931 0.0
C1015 C 0.83915 0.53439 0.13256 0.0
C1016 C 0.82743 0.46636 0.07775 0.0
C1017 C 0.8123 0.45112 0.01982 0.0
C1018 C 0.84634 0.46086 0.10824 0.0
C1019 C 0.86192 0.47526 0.17182 0.0
C1020 C 0.8897 0.48832 0.17047 0.0
C1021 C 0.90441 0.502 0.23027 0.0
C1022 C 0.89154 0.50265 0.29187 0.0
C1023 C 0.86392 0.48953 0.2939 0.0
C1024 C 0.84913 0.4758 0.23428 0.0
C1025 C 0.85015 0.38561 0.88929 0.0
C1026 C 0.84649 0.36407 0.93066 0.0
C1027 C 0.84696 0.40589 0.9188 0.0
C1028 C 0.84017 0.40505 -0.00963 0.0
C1029 C 0.83753 0.38405 0.0325 0.0
C1030 C 0.84065 0.36371 0.00286 0.0
C1031 C 0.83505 0.42567 0.02055 0.0
C1032 C 0.85004 0.44071 0.07888 0.0
C1033 C 0.81566 0.4307 -0.00867 0.0
C1034 C 0.79813 0.41449 0.93233 0.0
C1035 C 0.78244 0.38679 0.9386 0.0
C1036 C 0.7662 0.3716 0.88255 0.0
C1037 C 0.76532 0.3839 0.82013 0.0
C1038 C 0.78063 0.41144 0.81372 0.0
C1039 C 0.79695 0.42673 0.86958 0.0
H1040 H 0.75273 0.37211 0.77679 0.0
H1041 H 0.90296 0.51327 0.33809 0.0
H1042 H 0.49925 0.87047 0.09239 0.0
H1043 H 0.45626 0.86465 0.12728 0.0
H1044 H 0.42864 0.78254 0.17446 0.0
H1045 H 0.47183 0.7885 0.1424 0.0
H1046 H 0.39044 0.7926 0.10111 0.0
H1047 H 0.44903 0.82241 0.30457 0.0
H1048 H 0.49039 0.85264 0.36787 0.0
H1049 H 0.4764 0.91752 0.33371 0.0
H1050 H 0.43513 0.88773 0.26922 0.0
H1051 H 0.2826 0.75997 0.32556 0.0
H1052 H 0.32407 0.76759 0.27448 0.0
H1053 H 0.35269 0.85173 0.26998 0.0
H1054 H 0.31131 0.8443 0.32328 0.0
H1055 H 0.39052 0.84262 0.31464 0.0
H1056 H 0.33149 0.8142 0.11774 0.0
H1057 H 0.29006 0.78532 0.05292 0.0
H1058 H 0.30466 0.72017 0.06941 0.0
H1059 H 0.34603 0.74858 0.1351 0.0
C1060 C 0.48386 0.85108 0.10917 0.0
C1061 C 0.48885 0.82983 0.11312 0.0
C1062 C 0.45934 0.84779 0.12905 0.0
C1063 C 0.43929 0.82316 0.1534 0.0
C1064 C 0.44378 0.80162 0.155 0.0
C1065 C 0.46844 0.80499 0.13582 0.0
C1066 C 0.4144 0.82042 0.18211 0.0
C1067 C 0.39036 0.80331 0.14813 0.0
C1068 C 0.41446 0.83503 0.24224 0.0
C1069 C 0.43916 0.85291 0.28139 0.0
C1070 C 0.4549 0.84318 0.31001 0.0
C1071 C 0.4783 0.86022 0.3462 0.0
C1072 C 0.48606 0.887 0.35462 0.0
C1073 C 0.47039 0.89678 0.32704 0.0
C1074 C 0.44699 0.87982 0.29069 0.0
C1075 C 0.29774 0.78014 0.31453 0.0
C1076 C 0.2936 0.80152 0.32898 0.0
C1077 C 0.3214 0.78445 0.28448 0.0
C1078 C 0.34137 0.81019 0.26721 0.0
C1079 C 0.33752 0.83167 0.28256 0.0
C1080 C 0.31384 0.82738 0.31299 0.0
C1081 C 0.36635 0.81457 0.2341 0.0
C1082 C 0.39048 0.83201 0.26726 0.0
C1083 C 0.36636 0.80051 0.17266 0.0
C1084 C 0.34174 0.78346 0.13198 0.0
C1085 C 0.32578 0.79367 0.10794 0.0
C1086 C 0.30231 0.77739 0.07103 0.0
C1087 C 0.29466 0.75089 0.05747 0.0
C1088 C 0.31058 0.74068 0.08019 0.0
C1089 C 0.33406 0.75688 0.11716 0.0
H1090 H 0.27644 0.73828 0.02911 0.0
H1091 H 0.50418 0.90017 0.38268 0.0
loop_
_geom_bond_atom_site_label_1
_geom_bond_atom_site_label_2
_geom_bond_distance
_geom_bond_site_symmetry_2
_ccdc_geom_bond_type
Zn0 O1 2.055 . S
Zn0 O8 2.046 . S
Zn0 N16 2.036 . S
Zn0 O28 2.053 . S
Zn0 O30 2.066 . S
O1 Zn0 2.055 . S
O1 C4 1.259 . S
C2 O30 1.256 . S
C2 O31 1.244 . S
Zn3 O5 2.046 . S
Zn3 O7 2.055 . S
Zn3 N9 2.036 . S
Zn3 O27 2.066 . S
Zn3 O31 2.053 . S
C4 O1 1.259 . S
C4 O5 1.254 . S
O5 Zn3 2.046 . S
O5 C4 1.254 . S
C6 O27 1.256 . S
C6 O28 1.244 . S
O7 Zn3 2.055 . S
O7 C29 1.259 . S
O8 Zn0 2.046 . S
O8 C29 1.254 . S
N9 Zn3 2.036 . S
N9 C10 1.298 . S
N9 N12 1.398 . S
C10 N9 1.298 . S
C10 N13 1.367 . S
C10 C23 1.481 . S
C11 N12 1.299 . S
C11 N13 1.379 . S
N12 N9 1.398 . S
N12 C11 1.299 . S
N13 C10 1.367 . S
N13 C11 1.379 . S
C14 N16 1.298 . S
C14 N18 1.367 . S
C14 C22 1.481 . S
C15 N17 1.299 . S
C15 N18 1.379 . S
N16 Zn0 2.036 . S
N16 C14 1.298 . S
N16 N17 1.398 . S
N17 C15 1.299 . S
N17 N16 1.398 . S
N18 C14 1.367 . S
N18 C15 1.379 . S
H19 C22 0.980 . S
H20 C22 0.981 . S
H21 C22 0.981 . S
C22 C14 1.481 . S
C22 H19 0.980 . S
C22 H20 0.981 . S
C22 H21 0.981 . S
C23 C10 1.481 . S
C23 H24 0.980 . S
C23 H25 0.981 . S
C23 H26 0.981 . S
H24 C23 0.980 . S
H25 C23 0.981 . S
H26 C23 0.981 . S
O27 Zn3 2.066 . S
O27 C6 1.256 . S
O28 Zn0 2.053 . S
O28 C6 1.244 . S
C29 O7 1.259 . S
C29 O8 1.254 . S
O30 Zn0 2.066 . S
O30 C2 1.256 . S
O31 C2 1.244 . S
O31 Zn3 2.053 . S
Zn32 O33 2.055 . S
Zn32 O40 2.046 . S
Zn32 N48 2.036 . S
Zn32 O60 2.053 . S
Zn32 O62 2.066 . S
O33 Zn32 2.055 . S
O33 C36 1.259 . S
C34 O62 1.256 . S
C34 O63 1.244 . S
Zn35 O37 2.046 . S
Zn35 O39 2.055 . S
Zn35 N41 2.036 . S
Zn35 O59 2.066 . S
Zn35 O63 2.053 . S
C36 O33 1.259 . S
C36 O37 1.254 . S
O37 Zn35 2.046 . S
O37 C36 1.254 . S
C38 O59 1.256 . S
C38 O60 1.244 . S
O39 Zn35 2.055 . S
O39 C61 1.259 . S
O40 Zn32 2.046 . S
O40 C61 1.254 . S
N41 Zn35 2.036 . S
N41 C42 1.298 . S
N41 N44 1.398 . S
C42 N41 1.298 . S
C42 N45 1.367 . S
C42 C55 1.481 . S
C43 N44 1.299 . S
C43 N45 1.379 . S
N44 N41 1.398 . S
N44 C43 1.299 . S
N45 C42 1.367 . S
N45 C43 1.379 . S
C46 N48 1.298 . S
C46 N50 1.367 . S
C46 C54 1.481 . S
C47 N49 1.299 . S
C47 N50 1.379 . S
N48 Zn32 2.036 . S
N48 C46 1.298 . S
N48 N49 1.398 . S
N49 C47 1.299 . S
N49 N48 1.398 . S
N50 C46 1.367 . S
N50 C47 1.379 . S
H51 C54 0.980 . S
H52 C54 0.981 . S
H53 C54 0.981 . S
C54 C46 1.481 . S
C54 H51 0.980 . S
C54 H52 0.981 . S
C54 H53 0.981 . S
C55 C42 1.481 . S
C55 H56 0.980 . S
C55 H57 0.981 . S
C55 H58 0.981 . S
H56 C55 0.980 . S
H57 C55 0.981 . S
H58 C55 0.981 . S
O59 Zn35 2.066 . S
O59 C38 1.256 . S
O60 Zn32 2.053 . S
O60 C38 1.244 . S
C61 O39 1.259 . S
C61 O40 1.254 . S
O62 Zn32 2.066 . S
O62 C34 1.256 . S
O63 C34 1.244 . S
O63 Zn35 2.053 . S
Zn64 O65 2.055 . S
Zn64 O72 2.046 . S
Zn64 N80 2.036 . S
Zn64 O92 2.053 . S
Zn64 O94 2.066 1_556 S
O65 Zn64 2.055 . S
O65 C68 1.259 . S
C66 O94 1.256 . S
C66 O95 1.244 . S
Zn67 O69 2.046 . S
Zn67 O71 2.055 . S
Zn67 N73 2.036 . S
Zn67 O91 2.066 . S
Zn67 O95 2.053 1_556 S
C68 O65 1.259 . S
C68 O69 1.254 . S
O69 Zn67 2.046 . S
O69 C68 1.254 . S
C70 O91 1.256 . S
C70 O92 1.244 . S
O71 Zn67 2.055 . S
O71 C93 1.259 . S
O72 Zn64 2.046 . S
O72 C93 1.254 . S
N73 Zn67 2.036 . S
N73 C74 1.298 . S
N73 N76 1.398 1_556 S
C74 N73 1.298 . S
C74 N77 1.367 . S
C74 C87 1.481 . S
C75 N76 1.299 . S
C75 N77 1.379 1_554 S
N76 N73 1.398 1_554 S
N76 C75 1.299 . S
N77 C74 1.367 . S
N77 C75 1.379 1_556 S
C78 N80 1.298 . S
C78 N82 1.367 . S
C78 C86 1.481 . S
C79 N81 1.299 . S
C79 N82 1.379 . S
N80 Zn64 2.036 . S
N80 C78 1.298 . S
N80 N81 1.398 . S
N81 C79 1.299 . S
N81 N80 1.398 . S
N82 C78 1.367 . S
N82 C79 1.379 . S
H83 C86 0.980 . S
H84 C86 0.981 . S
H85 C86 0.981 1_554 S
C86 C78 1.481 . S
C86 H83 0.980 . S
C86 H84 0.981 . S
C86 H85 0.981 1_556 S
C87 C74 1.481 . S
C87 H88 0.980 . S
C87 H89 0.981 . S
C87 H90 0.981 . S
H88 C87 0.980 . S
H89 C87 0.981 . S
H90 C87 0.981 . S
O91 Zn67 2.066 . S
O91 C70 1.256 . S
O92 Zn64 2.053 . S
O92 C70 1.244 . S
C93 O71 1.259 . S
C93 O72 1.254 . S
O94 Zn64 2.066 1_554 S
O94 C66 1.256 . S
O95 C66 1.244 . S
O95 Zn67 2.053 1_554 S
Zn96 O97 2.055 . S
Zn96 O104 2.046 1_554 S
Zn96 N112 2.036 . S
Zn96 O124 2.053 . S
Zn96 O126 2.066 . S
O97 Zn96 2.055 . S
O97 C100 1.259 . S
C98 O126 1.256 . S
C98 O127 1.244 . S
Zn99 O101 2.046 . S
Zn99 O103 2.055 1_554 S
Zn99 N105 2.036 . S
Zn99 O123 2.066 . S
Zn99 O127 2.053 . S
C100 O97 1.259 . S
C100 O101 1.254 . S
O101 Zn99 2.046 . S
O101 C100 1.254 . S
C102 O123 1.256 . S
C102 O124 1.244 . S
O103 Zn99 2.055 1_556 S
O103 C125 1.259 . S
O104 Zn96 2.046 1_556 S
O104 C125 1.254 . S
N105 Zn99 2.036 . S
N105 C106 1.298 . S
N105 N108 1.398 . S
C106 N105 1.298 . S
C106 N109 1.367 . S
C106 C119 1.481 1_554 S
C107 N108 1.299 . S
C107 N109 1.379 . S
N108 N105 1.398 . S
N108 C107 1.299 . S
N109 C106 1.367 . S
N109 C107 1.379 . S
C110 N112 1.298 . S
C110 N114 1.367 . S
C110 C118 1.481 . S
C111 N113 1.299 . S
C111 N114 1.379 . S
N112 Zn96 2.036 . S
N112 C110 1.298 . S
N112 N113 1.398 . S
N113 C111 1.299 . S
N113 N112 1.398 . S
N114 C110 1.367 . S
N114 C111 1.379 . S
H115 C118 0.980 . S
H116 C118 0.981 . S
H117 C118 0.981 . S
C118 C110 1.481 . S
C118 H115 0.980 . S
C118 H116 0.981 . S
C118 H117 0.981 . S
C119 C106 1.481 1_556 S
C119 H120 0.980 . S
C119 H121 0.981 . S
C119 H122 0.981 . S
H120 C119 0.980 . S
H121 C119 0.981 . S
H122 C119 0.981 . S
O123 Zn99 2.066 . S
O123 C102 1.256 . S
O124 Zn96 2.053 . S
O124 C102 1.244 . S
C125 O103 1.259 . S
C125 O104 1.254 . S
O126 Zn96 2.066 . S
O126 C98 1.256 . S
O127 C98 1.244 . S
O127 Zn99 2.053 . S
Zn128 O129 2.055 . S
Zn128 O136 2.046 . S
Zn128 N144 2.036 . S
Zn128 O156 2.053 . S
Zn128 O158 2.066 . S
O129 Zn128 2.055 . S
O129 C132 1.259 . S
C130 O158 1.256 . S
C130 O159 1.244 . S
Zn131 O133 2.046 . S
Zn131 O135 2.055 . S
Zn131 N137 2.036 . S
Zn131 O155 2.066 . S
Zn131 O159 2.053 . S
C132 O129 1.259 . S
C132 O133 1.254 . S
O133 Zn131 2.046 . S
O133 C132 1.254 . S
C134 O155 1.256 . S
C134 O156 1.244 . S
O135 Zn131 2.055 . S
O135 C157 1.259 . S
O136 Zn128 2.046 . S
O136 C157 1.254 . S
N137 Zn131 2.036 . S
N137 C138 1.298 . S
N137 N140 1.398 . S
C138 N137 1.298 . S
C138 N141 1.367 . S
C138 C151 1.481 . S
C139 N140 1.299 . S
C139 N141 1.379 . S
N140 N137 1.398 . S
N140 C139 1.299 . S
N141 C138 1.367 . S
N141 C139 1.379 . S
C142 N144 1.298 . S
C142 N146 1.367 . S
C142 C150 1.481 . S
C143 N145 1.299 . S
C143 N146 1.379 . S
N144 Zn128 2.036 . S
N144 C142 1.298 . S
N144 N145 1.398 . S
N145 C143 1.299 . S
N145 N144 1.398 . S
N146 C142 1.367 . S
N146 C143 1.379 . S
H147 C150 0.980 . S
H148 C150 0.981 . S
H149 C150 0.981 . S
C150 C142 1.481 . S
C150 H147 0.980 . S
C150 H148 0.981 . S
C150 H149 0.981 . S
C151 C138 1.481 . S
C151 H152 0.980 . S
C151 H153 0.981 . S
C151 H154 0.981 . S
H152 C151 0.980 . S
H153 C151 0.981 . S
H154 C151 0.981 . S
O155 Zn131 2.066 . S
O155 C134 1.256 . S
O156 Zn128 2.053 . S
O156 C134 1.244 . S
C157 O135 1.259 . S
C157 O136 1.254 . S
O158 Zn128 2.066 . S
O158 C130 1.256 . S
O159 C130 1.244 . S
O159 Zn131 2.053 . S
Zn160 O161 2.055 . S
Zn160 O168 2.046 . S
Zn160 N176 2.036 . S
Zn160 O188 2.053 . S
Zn160 O190 2.066 . S
O161 Zn160 2.055 . S
O161 C164 1.259 . S
C162 O190 1.256 . S
C162 O191 1.244 . S
Zn163 O165 2.046 . S
Zn163 O167 2.055 . S
Zn163 N169 2.036 . S
Zn163 O187 2.066 . S
Zn163 O191 2.053 . S
C164 O161 1.259 . S
C164 O165 1.254 . S
O165 Zn163 2.046 . S
O165 C164 1.254 . S
C166 O187 1.256 . S
C166 O188 1.244 . S
O167 Zn163 2.055 . S
O167 C189 1.259 . S
O168 Zn160 2.046 . S
O168 C189 1.254 . S
N169 Zn163 2.036 . S
N169 C170 1.298 . S
N169 N172 1.398 . S
C170 N169 1.298 . S
C170 N173 1.367 . S
C170 C183 1.481 . S
C171 N172 1.299 . S
C171 N173 1.379 . S
N172 N169 1.398 . S
N172 C171 1.299 . S
N173 C170 1.367 . S
N173 C171 1.379 . S
C174 N176 1.298 . S
C174 N178 1.367 . S
C174 C182 1.481 . S
C175 N177 1.299 . S
C175 N178 1.379 . S
N176 Zn160 2.036 . S
N176 C174 1.298 . S
N176 N177 1.398 . S
N177 C175 1.299 . S
N177 N176 1.398 . S
N178 C174 1.367 . S
N178 C175 1.379 . S
H179 C182 0.980 . S
H180 C182 0.981 . S
H181 C182 0.981 . S
C182 C174 1.481 . S
C182 H179 0.980 . S
C182 H180 0.981 . S
C182 H181 0.981 . S
C183 C170 1.481 . S
C183 H184 0.980 . S
C183 H185 0.981 . S
C183 H186 0.981 . S
H184 C183 0.980 . S
H185 C183 0.981 . S
H186 C183 0.981 . S
O187 Zn163 2.066 . S
O187 C166 1.256 . S
O188 Zn160 2.053 . S
O188 C166 1.244 . S
C189 O167 1.259 . S
C189 O168 1.254 . S
O190 Zn160 2.066 . S
O190 C162 1.256 . S
O191 C162 1.244 . S
O191 Zn163 2.053 . S
H192 C210 0.951 . S
H193 C212 0.951 . S
H194 C214 0.950 . S
H195 C215 0.950 . S
H196 C217 0.950 . S
H197 C220 0.950 . S
H198 C221 0.950 . S
H199 C223 0.950 . S
H200 C224 0.950 . S
H201 C225 0.951 . S
H202 C227 0.951 . S
H203 C229 0.950 . S
H204 C230 0.950 . S
H205 C232 0.950 . S
H206 C235 0.950 . S
H207 C236 0.950 . S
H208 C238 0.952 . S
H209 C239 0.950 . S
C210 H192 0.951 . S
C210 C211 1.366 . S
C210 C212 1.388 . S
C211 C210 1.366 . S
C211 C215 1.385 . S
C212 H193 0.951 . S
C212 C210 1.388 . S
C212 C213 1.366 . S
C213 C212 1.366 . S
C213 C214 1.414 . S
C213 C216 1.499 . S
C214 H194 0.950 . S
C214 C213 1.414 . S
C214 C215 1.374 . S
C215 H195 0.950 . S
C215 C211 1.385 . S
C215 C214 1.374 . S
C216 C213 1.499 . S
C216 C217 1.373 . S
C216 C218 1.389 . S
C217 H196 0.950 . S
C217 C216 1.373 . S
C217 C233 1.377 . S
C218 C216 1.389 . S
C218 C219 1.524 . S
C218 C232 1.377 . S
C219 C218 1.524 . S
C219 C220 1.397 . S
C219 C224 1.363 . S
C220 H197 0.950 . S
C220 C219 1.397 . S
C220 C221 1.334 . S
C221 H198 0.950 . S
C221 C220 1.334 . S
C221 C222 1.287 . S
C222 C221 1.287 . S
C222 C223 1.524 . S
C222 H241 0.913 . S
C223 H199 0.950 . S
C223 C222 1.524 . S
C223 C224 1.415 . S
C224 H200 0.950 . S
C224 C219 1.363 . S
C224 C223 1.415 . S
C225 H201 0.951 . S
C225 C226 1.366 . S
C225 C227 1.388 . S
C226 C225 1.366 . S
C226 C230 1.385 . S
C227 H202 0.951 . S
C227 C225 1.388 . S
C227 C228 1.366 . S
C228 C227 1.366 . S
C228 C229 1.414 . S
C228 C231 1.499 . S
C229 H203 0.950 . S
C229 C228 1.414 . S
C229 C230 1.374 . S
C230 H204 0.950 . S
C230 C226 1.385 . S
C230 C229 1.374 . S
C231 C228 1.499 . S
C231 C232 1.373 1_556 S
C231 C233 1.389 1_556 S
C232 H205 0.950 . S
C232 C218 1.377 . S
C232 C231 1.373 1_554 S
C233 C217 1.377 . S
C233 C231 1.389 1_554 S
C233 C234 1.524 . S
C234 C233 1.524 . S
C234 C235 1.397 1_554 S
C234 C239 1.363 . S
C235 H206 0.950 . S
C235 C234 1.397 1_556 S
C235 C236 1.334 . S
C236 H207 0.950 . S
C236 C235 1.334 . S
C236 C237 1.287 . S
C237 C236 1.287 . S
C237 C238 1.516 1_556 S
C237 H240 0.999 . S
C238 H208 0.952 . S
C238 C237 1.516 1_554 S
C238 C239 1.420 . S
C239 H209 0.950 . S
C239 C234 1.363 . S
C239 C238 1.420 . S
H240 C237 0.999 . S
H241 C222 0.913 . S
H242 C260 0.951 . S
H243 C262 0.951 . S
H244 C264 0.950 . S
H245 C265 0.950 . S
H246 C267 0.950 . S
H247 C270 0.950 . S
H248 C271 0.950 . S
H249 C273 0.950 . S
H250 C274 0.950 . S
H251 C275 0.951 . S
H252 C277 0.951 . S
H253 C279 0.950 . S
H254 C280 0.950 . S
H255 C282 0.950 . S
H256 C285 0.950 . S
H257 C286 0.950 . S
H258 C288 0.950 . S
H259 C289 0.950 . S
C260 H242 0.951 . S
C260 C261 1.366 . S
C260 C262 1.388 . S
C261 C260 1.366 . S
C261 C265 1.385 . S
C262 H243 0.951 . S
C262 C260 1.388 . S
C262 C263 1.366 . S
C263 C262 1.366 . S
C263 C264 1.414 . S
C263 C266 1.499 . S
C264 H244 0.950 . S
C264 C263 1.414 . S
C264 C265 1.374 . S
C265 H245 0.950 . S
C265 C261 1.385 . S
C265 C264 1.374 . S
C266 C263 1.499 . S
C266 C267 1.373 . S
C266 C268 1.389 . S
C267 H246 0.950 . S
C267 C266 1.373 . S
C267 C283 1.377 . S
C268 C266 1.389 . S
C268 C269 1.524 . S
C268 C282 1.377 . S
C269 C268 1.524 . S
C269 C270 1.397 . S
C269 C274 1.363 . S
C270 H247 0.950 . S
C270 C269 1.397 . S
C270 C271 1.334 . S
C271 H248 0.950 . S
C271 C270 1.334 . S
C271 C272 1.287 . S
C272 C271 1.287 . S
C272 C273 1.524 . S
C272 H291 0.913 . S
C273 H249 0.950 . S
C273 C272 1.524 . S
C273 C274 1.415 . S
C274 H250 0.950 . S
C274 C269 1.363 . S
C274 C273 1.415 . S
C275 H251 0.951 . S
C275 C276 1.366 . S
C275 C277 1.388 1_556 S
C276 C275 1.366 . S
C276 C280 1.385 . S
C277 H252 0.951 . S
C277 C275 1.388 1_554 S
C277 C278 1.366 . S
C278 C277 1.366 . S
C278 C279 1.414 . S
C278 C281 1.499 . S
C279 H253 0.950 . S
C279 C278 1.414 . S
C279 C280 1.374 1_554 S
C280 H254 0.950 . S
C280 C276 1.385 . S
C280 C279 1.374 1_556 S
C281 C278 1.499 . S
C281 C282 1.373 . S
C281 C283 1.389 . S
C282 H255 0.950 . S
C282 C268 1.377 . S
C282 C281 1.373 . S
C283 C267 1.377 . S
C283 C281 1.389 . S
C283 C284 1.524 . S
C284 C283 1.524 . S
C284 C285 1.397 . S
C284 C289 1.363 . S
C285 H256 0.950 . S
C285 C284 1.397 . S
C285 C286 1.334 . S
C286 H257 0.950 . S
C286 C285 1.334 . S
C286 C287 1.287 . S
C287 C286 1.287 . S
C287 C288 1.524 . S
C287 H290 0.999 . S
C288 H258 0.950 . S
C288 C287 1.524 . S
C288 C289 1.415 . S
C289 H259 0.950 . S
C289 C284 1.363 . S
C289 C288 1.415 . S
H290 C287 0.999 . S
H291 C272 0.913 . S
H292 C310 0.951 . S
H293 C312 0.951 . S
H294 C314 0.950 . S
H295 C315 0.950 . S
H296 C317 0.950 . S
H297 C320 0.950 . S
H298 C321 0.950 . S
H299 C323 0.950 . S
H300 C324 0.950 . S
H301 C325 0.951 . S
H302 C327 0.951 . S
H303 C329 0.950 . S
H304 C330 0.950 . S
H305 C332 0.950 . S
H306 C335 0.950 . S
H307 C336 0.950 . S
H308 C338 0.950 . S
H309 C339 0.950 . S
C310 H292 0.951 . S
C310 C311 1.366 . S
C310 C312 1.388 . S
C311 C310 1.366 . S
C311 C315 1.385 . S
C312 H293 0.951 . S
C312 C310 1.388 . S
C312 C313 1.366 . S
C313 C312 1.366 . S
C313 C314 1.414 . S
C313 C316 1.499 . S
C314 H294 0.950 . S
C314 C313 1.414 . S
C314 C315 1.374 . S
C315 H295 0.950 . S
C315 C311 1.385 . S
C315 C314 1.374 . S
C316 C313 1.499 . S
C316 C317 1.373 . S
C316 C318 1.389 . S
C317 H296 0.950 . S
C317 C316 1.373 . S
C317 C333 1.377 . S
C318 C316 1.389 . S
C318 C319 1.524 . S
C318 C332 1.377 . S
C319 C318 1.524 . S
C319 C320 1.397 . S
C319 C324 1.363 . S
C320 H297 0.950 . S
C320 C319 1.397 . S
C320 C321 1.334 . S
C321 H298 0.950 . S
C321 C320 1.334 . S
C321 C322 1.287 . S
C322 C321 1.287 . S
C322 C323 1.524 . S
C322 H341 0.913 . S
C323 H299 0.950 . S
C323 C322 1.524 . S
C323 C324 1.415 . S
C324 H300 0.950 . S
C324 C319 1.363 . S
C324 C323 1.415 . S
C325 H301 0.951 . S
C325 C326 1.366 . S
C325 C327 1.388 . S
C326 C325 1.366 . S
C326 C330 1.385 . S
C327 H302 0.951 . S
C327 C325 1.388 . S
C327 C328 1.366 . S
C328 C327 1.366 . S
C328 C329 1.414 . S
C328 C331 1.499 . S
C329 H303 0.950 . S
C329 C328 1.414 . S
C329 C330 1.374 . S
C330 H304 0.950 . S
C330 C326 1.385 . S
C330 C329 1.374 . S
C331 C328 1.499 . S
C331 C332 1.373 . S
C331 C333 1.389 . S
C332 H305 0.950 . S
C332 C318 1.377 . S
C332 C331 1.373 . S
C333 C317 1.377 . S
C333 C331 1.389 . S
C333 C334 1.524 . S
C334 C333 1.524 . S
C334 C335 1.397 . S
C334 C339 1.363 . S
C335 H306 0.950 . S
C335 C334 1.397 . S
C335 C336 1.334 . S
C336 H307 0.950 . S
C336 C335 1.334 . S
C336 C337 1.287 . S
C337 C336 1.287 . S
C337 C338 1.524 . S
C337 H340 0.999 . S
C338 H308 0.950 . S
C338 C337 1.524 . S
C338 C339 1.415 . S
C339 H309 0.950 . S
C339 C334 1.363 . S
C339 C338 1.415 . S
H340 C337 0.999 . S
H341 C322 0.913 . S
H342 C360 0.951 . S
H343 C362 0.951 . S
H344 C364 0.950 . S
H345 C365 0.950 . S
H346 C367 0.950 . S
H347 C370 0.950 . S
H348 C371 0.950 . S
H349 C373 0.950 . S
H350 C374 0.950 . S
H351 C375 0.951 . S
H352 C377 0.951 . S
H353 C379 0.950 . S
H354 C380 0.950 . S
H355 C382 0.950 . S
H356 C385 0.950 . S
H357 C386 0.950 . S
H358 C388 0.950 . S
H359 C389 0.950 . S
C360 H342 0.951 . S
C360 C361 1.366 . S
C360 C362 1.388 . S
C361 C360 1.366 . S
C361 C365 1.385 . S
C362 H343 0.951 . S
C362 C360 1.388 . S
C362 C363 1.366 . S
C363 C362 1.366 . S
C363 C364 1.414 . S
C363 C366 1.499 . S
C364 H344 0.950 . S
C364 C363 1.414 . S
C364 C365 1.374 . S
C365 H345 0.950 . S
C365 C361 1.385 . S
C365 C364 1.374 . S
C366 C363 1.499 . S
C366 C367 1.373 . S
C366 C368 1.389 . S
C367 H346 0.950 . S
C367 C366 1.373 . S
C367 C383 1.377 . S
C368 C366 1.389 . S
C368 C369 1.524 . S
C368 C382 1.377 . S
C369 C368 1.524 . S
C369 C370 1.397 . S
C369 C374 1.363 . S
C370 H347 0.950 . S
C370 C369 1.397 . S
C370 C371 1.334 . S
C371 H348 0.950 . S
C371 C370 1.334 . S
C371 C372 1.287 . S
C372 C371 1.287 . S
C372 C373 1.524 . S
C372 H391 0.913 . S
C373 H349 0.950 . S
C373 C372 1.524 . S
C373 C374 1.415 . S
C374 H350 0.950 . S
C374 C369 1.363 . S
C374 C373 1.415 . S
C375 H351 0.951 . S
C375 C376 1.366 . S
C375 C377 1.388 . S
C376 C375 1.366 . S
C376 C380 1.385 . S
C377 H352 0.951 . S
C377 C375 1.388 . S
C377 C378 1.366 . S
C378 C377 1.366 . S
C378 C379 1.414 . S
C378 C381 1.499 . S
C379 H353 0.950 . S
C379 C378 1.414 . S
C379 C380 1.374 . S
C380 H354 0.950 . S
C380 C376 1.385 . S
C380 C379 1.374 . S
C381 C378 1.499 . S
C381 C382 1.373 . S
C381 C383 1.389 . S
C382 H355 0.950 . S
C382 C368 1.377 . S
C382 C381 1.373 . S
C383 C367 1.377 . S
C383 C381 1.389 . S
C383 C384 1.524 . S
C384 C383 1.524 . S
C384 C385 1.397 . S
C384 C389 1.363 . S
C385 H356 0.950 . S
C385 C384 1.397 . S
C385 C386 1.334 . S
C386 H357 0.950 . S
C386 C385 1.334 . S
C386 C387 1.287 . S
C387 C386 1.287 . S
C387 C388 1.524 . S
C387 H390 0.999 . S
C388 H358 0.950 . S
C388 C387 1.524 . S
C388 C389 1.415 . S
C389 H359 0.950 . S
C389 C384 1.363 . S
C389 C388 1.415 . S
H390 C387 0.999 . S
H391 C372 0.913 . S
H392 C410 0.951 . S
H393 C412 0.951 . S
H394 C414 0.950 . S
H395 C415 0.950 . S
H396 C417 0.950 . S
H397 C420 0.950 . S
H398 C421 0.950 . S
H399 C423 0.950 . S
H400 C424 0.950 . S
H401 C425 0.951 . S
H402 C427 0.951 . S
H403 C429 0.950 . S
H404 C430 0.950 . S
H405 C432 0.950 . S
H406 C435 0.950 . S
H407 C436 0.950 . S
H408 C438 0.950 . S
H409 C439 0.950 . S
C410 H392 0.951 . S
C410 C411 1.366 . S
C410 C412 1.388 . S
C411 C410 1.366 . S
C411 C415 1.385 . S
C412 H393 0.951 . S
C412 C410 1.388 . S
C412 C413 1.366 . S
C413 C412 1.366 . S
C413 C414 1.414 . S
C413 C416 1.499 . S
C414 H394 0.950 . S
C414 C413 1.414 . S
C414 C415 1.374 . S
C415 H395 0.950 . S
C415 C411 1.385 . S
C415 C414 1.374 . S
C416 C413 1.499 . S
C416 C417 1.373 . S
C416 C418 1.389 . S
C417 H396 0.950 . S
C417 C416 1.373 . S
C417 C433 1.377 . S
C418 C416 1.389 . S
C418 C419 1.524 . S
C418 C432 1.377 . S
C419 C418 1.524 . S
C419 C420 1.397 . S
C419 C424 1.363 . S
C420 H397 0.950 . S
C420 C419 1.397 . S
C420 C421 1.334 . S
C421 H398 0.950 . S
C421 C420 1.334 . S
C421 C422 1.287 . S
C422 C421 1.287 . S
C422 C423 1.524 . S
C422 H441 0.913 . S
C423 H399 0.950 . S
C423 C422 1.524 . S
C423 C424 1.415 . S
C424 H400 0.950 . S
C424 C419 1.363 . S
C424 C423 1.415 . S
C425 H401 0.951 . S
C425 C426 1.366 . S
C425 C427 1.388 1_554 S
C426 C425 1.366 . S
C426 C430 1.385 . S
C427 H402 0.951 . S
C427 C425 1.388 1_556 S
C427 C428 1.366 . S
C428 C427 1.366 . S
C428 C429 1.414 . S
C428 C431 1.499 . S
C429 H403 0.950 . S
C429 C428 1.414 . S
C429 C430 1.374 1_556 S
C430 H404 0.950 . S
C430 C426 1.385 . S
C430 C429 1.374 1_554 S
C431 C428 1.499 . S
C431 C432 1.373 . S
C431 C433 1.389 . S
C432 H405 0.950 . S
C432 C418 1.377 . S
C432 C431 1.373 . S
C433 C417 1.377 . S
C433 C431 1.389 . S
C433 C434 1.524 . S
C434 C433 1.524 . S
C434 C435 1.397 . S
C434 C439 1.363 . S
C435 H406 0.950 . S
C435 C434 1.397 . S
C435 C436 1.334 . S
C436 H407 0.950 . S
C436 C435 1.334 . S
C436 C437 1.287 . S
C437 C436 1.287 . S
C437 C438 1.524 . S
C437 H440 0.999 . S
C438 H408 0.950 . S
C438 C437 1.524 . S
C438 C439 1.415 . S
C439 H409 0.950 . S
C439 C434 1.363 . S
C439 C438 1.415 . S
H440 C437 0.999 . S
H441 C422 0.913 . S
H442 C460 0.951 . S
H443 C462 0.951 . S
H444 C464 0.950 . S
H445 C465 0.950 . S
H446 C467 0.950 . S
H447 C470 0.950 . S
H448 C471 0.950 . S
H449 C473 0.950 . S
H450 C474 0.950 . S
H451 C475 0.951 . S
H452 C477 0.951 . S
H453 C479 0.950 . S
H454 C480 0.950 . S
H455 C482 0.950 . S
H456 C485 0.950 . S
H457 C486 0.950 . S
H458 C488 0.950 . S
H459 C489 0.950 . S
C460 H442 0.951 . S
C460 C461 1.366 . S
C460 C462 1.388 . S
C461 C460 1.366 . S
C461 C465 1.385 . S
C462 H443 0.951 . S
C462 C460 1.388 . S
C462 C463 1.366 . S
C463 C462 1.366 . S
C463 C464 1.414 . S
C463 C466 1.499 1_554 S
C464 H444 0.950 . S
C464 C463 1.414 . S
C464 C465 1.374 . S
C465 H445 0.950 . S
C465 C461 1.385 . S
C465 C464 1.374 . S
C466 C463 1.499 1_556 S
C466 C467 1.373 . S
C466 C468 1.389 . S
C467 H446 0.950 . S
C467 C466 1.373 . S
C467 C483 1.377 . S
C468 C466 1.389 . S
C468 C469 1.524 . S
C468 C482 1.377 . S
C469 C468 1.524 . S
C469 C470 1.397 1_556 S
C469 C474 1.363 . S
C470 H447 0.950 . S
C470 C469 1.397 1_554 S
C470 C471 1.334 . S
C471 H448 0.950 . S
C471 C470 1.334 . S
C471 C472 1.287 . S
C472 C471 1.287 . S
C472 C473 1.524 1_554 S
C472 H491 0.913 . S
C473 H449 0.950 . S
C473 C472 1.524 1_556 S
C473 C474 1.415 . S
C474 H450 0.950 . S
C474 C469 1.363 . S
C474 C473 1.415 . S
C475 H451 0.951 . S
C475 C476 1.366 . S
C475 C477 1.388 . S
C476 C475 1.366 . S
C476 C480 1.385 . S
C477 H452 0.951 . S
C477 C475 1.388 . S
C477 C478 1.366 . S
C478 C477 1.366 . S
C478 C479 1.414 . S
C478 C481 1.499 . S
C479 H453 0.950 . S
C479 C478 1.414 . S
C479 C480 1.374 . S
C480 H454 0.950 . S
C480 C476 1.385 . S
C480 C479 1.374 . S
C481 C478 1.499 . S
C481 C482 1.373 . S
C481 C483 1.389 . S
C482 H455 0.950 . S
C482 C468 1.377 . S
C482 C481 1.373 . S
C483 C467 1.377 . S
C483 C481 1.389 . S
C483 C484 1.524 . S
C484 C483 1.524 . S
C484 C485 1.397 . S
C484 C489 1.363 . S
C485 H456 0.950 . S
C485 C484 1.397 . S
C485 C486 1.334 . S
C486 H457 0.950 . S
C486 C485 1.334 . S
C486 C487 1.287 . S
C487 C486 1.287 . S
C487 C488 1.524 . S
C487 H490 0.999 . S
C488 H458 0.950 . S
C488 C487 1.524 . S
C488 C489 1.415 . S
C489 H459 0.950 . S
C489 C484 1.363 . S
C489 C488 1.415 . S
H490 C487 0.999 . S
H491 C472 0.913 . S
H492 C510 0.951 . S
H493 C512 0.951 . S
H494 C514 0.950 . S
H495 C515 0.950 . S
H496 C517 0.950 . S
H497 C520 0.950 . S
H498 C521 0.950 . S
H499 C523 0.950 . S
H500 C524 0.950 . S
H501 C525 0.951 . S
H502 C527 0.951 . S
H503 C529 0.950 . S
H504 C530 0.950 . S
H505 C532 0.950 1_565 S
H506 C535 0.953 1_565 S
H507 C536 0.950 . S
H508 C538 0.950 . S
H509 C539 0.950 . S
C510 H492 0.951 . S
C510 C511 1.366 . S
C510 C512 1.388 . S
C511 C510 1.366 . S
C511 C515 1.385 . S
C512 H493 0.951 . S
C512 C510 1.388 . S
C512 C513 1.366 . S
C513 C512 1.366 . S
C513 C514 1.414 . S
C513 C516 1.499 . S
C514 H494 0.950 . S
C514 C513 1.414 . S
C514 C515 1.374 . S
C515 H495 0.950 . S
C515 C511 1.385 . S
C515 C514 1.374 . S
C516 C513 1.499 . S
C516 C517 1.373 . S
C516 C518 1.389 . S
C517 H496 0.950 . S
C517 C516 1.373 . S
C517 C533 1.377 . S
C518 C516 1.389 . S
C518 C519 1.524 . S
C518 C532 1.377 . S
C519 C518 1.524 . S
C519 C520 1.397 . S
C519 C524 1.363 . S
C520 H497 0.950 . S
C520 C519 1.397 . S
C520 C521 1.334 . S
C521 H498 0.950 . S
C521 C520 1.334 . S
C521 C522 1.287 . S
C522 C521 1.287 . S
C522 C523 1.524 . S
C522 H541 0.913 . S
C523 H499 0.950 . S
C523 C522 1.524 . S
C523 C524 1.415 . S
C524 H500 0.950 . S
C524 C519 1.363 . S
C524 C523 1.415 . S
C525 H501 0.951 . S
C525 C526 1.366 . S
C525 C527 1.388 . S
C526 C525 1.366 . S
C526 C530 1.385 . S
C527 H502 0.951 . S
C527 C525 1.388 . S
C527 C528 1.366 . S
C528 C527 1.366 . S
C528 C529 1.414 . S
C528 C531 1.505 . S
C529 H503 0.950 . S
C529 C528 1.414 . S
C529 C530 1.374 . S
C530 H504 0.950 . S
C530 C526 1.385 . S
C530 C529 1.374 . S
C531 C528 1.505 . S
C531 C532 1.371 1_565 S
C531 C533 1.386 1_565 S
C532 H505 0.950 1_545 S
C532 C518 1.377 . S
C532 C531 1.371 1_545 S
C533 C517 1.377 . S
C533 C531 1.386 1_545 S
C533 C534 1.524 . S
C534 C533 1.524 . S
C534 C535 1.397 . S
C534 C539 1.363 . S
C535 H506 0.953 1_545 S
C535 C534 1.397 . S
C535 C536 1.331 1_545 S
C536 H507 0.950 . S
C536 C535 1.331 1_565 S
C536 C537 1.287 1_565 S
C537 C536 1.287 1_545 S
C537 C538 1.524 . S
C537 H540 0.994 1_545 S
C538 H508 0.950 . S
C538 C537 1.524 . S
C538 C539 1.415 . S
C539 H509 0.950 . S
C539 C534 1.363 . S
C539 C538 1.415 . S
H540 C537 0.994 1_565 S
H541 C522 0.913 . S
H542 C560 0.951 . S
H543 C562 0.951 . S
H544 C564 0.950 . S
H545 C565 0.950 . S
H546 C567 0.950 . S
H547 C570 0.950 . S
H548 C571 0.950 . S
H549 C573 0.950 . S
H550 C574 0.950 . S
H551 C575 0.951 . S
H552 C577 0.951 . S
H553 C579 0.950 . S
H554 C580 0.950 . S
H555 C582 0.950 . S
H556 C585 0.950 . S
H557 C586 0.950 . S
H558 C588 0.950 . S
H559 C589 0.950 . S
C560 H542 0.951 . S
C560 C561 1.366 . S
C560 C562 1.388 . S
C561 C560 1.366 . S
C561 C565 1.385 . S
C562 H543 0.951 . S
C562 C560 1.388 . S
C562 C563 1.366 . S
C563 C562 1.366 . S
C563 C564 1.414 . S
C563 C566 1.499 . S
C564 H544 0.950 . S
C564 C563 1.414 . S
C564 C565 1.374 . S
C565 H545 0.950 . S
C565 C561 1.385 . S
C565 C564 1.374 . S
C566 C563 1.499 . S
C566 C567 1.373 . S
C566 C568 1.389 . S
C567 H546 0.950 . S
C567 C566 1.373 . S
C567 C583 1.377 . S
C568 C566 1.389 . S
C568 C569 1.524 . S
C568 C582 1.377 . S
C569 C568 1.524 . S
C569 C570 1.397 . S
C569 C574 1.363 . S
C570 H547 0.950 . S
C570 C569 1.397 . S
C570 C571 1.334 . S
C571 H548 0.950 . S
C571 C570 1.334 . S
C571 C572 1.287 . S
C572 C571 1.287 . S
C572 C573 1.524 . S
C572 H591 0.913 . S
C573 H549 0.950 . S
C573 C572 1.524 . S
C573 C574 1.415 . S
C574 H550 0.950 . S
C574 C569 1.363 . S
C574 C573 1.415 . S
C575 H551 0.951 . S
C575 C576 1.366 . S
C575 C577 1.388 . S
C576 C575 1.366 . S
C576 C580 1.385 . S
C577 H552 0.951 . S
C577 C575 1.388 . S
C577 C578 1.366 . S
C578 C577 1.366 . S
C578 C579 1.414 . S
C578 C581 1.499 . S
C579 H553 0.950 . S
C579 C578 1.414 . S
C579 C580 1.374 . S
C580 H554 0.950 . S
C580 C576 1.385 . S
C580 C579 1.374 . S
C581 C578 1.499 . S
C581 C582 1.373 . S
C581 C583 1.389 . S
C582 H555 0.950 . S
C582 C568 1.377 . S
C582 C581 1.373 . S
C583 C567 1.377 . S
C583 C581 1.389 . S
C583 C584 1.524 . S
C584 C583 1.524 . S
C584 C585 1.397 . S
C584 C589 1.363 . S
C585 H556 0.950 . S
C585 C584 1.397 . S
C585 C586 1.334 . S
C586 H557 0.950 . S
C586 C585 1.334 . S
C586 C587 1.287 . S
C587 C586 1.287 . S
C587 C588 1.524 . S
C587 H590 0.999 . S
C588 H558 0.950 . S
C588 C587 1.524 . S
C588 C589 1.415 . S
C589 H559 0.950 . S
C589 C584 1.363 . S
C589 C588 1.415 . S
H590 C587 0.999 . S
H591 C572 0.913 . S
H592 C610 0.951 . S
H593 C612 0.951 . S
H594 C614 0.950 . S
H595 C615 0.950 . S
H596 C617 0.950 . S
H597 C620 0.950 . S
H598 C621 0.950 . S
H599 C623 0.950 . S
H600 C624 0.950 . S
H601 C625 0.951 . S
H602 C627 0.951 . S
H603 C629 0.950 . S
H604 C630 0.950 . S
H605 C632 0.950 . S
H606 C635 0.950 . S
H607 C636 0.950 . S
H608 C638 0.950 . S
H609 C639 0.950 1_656 S
C610 H592 0.951 . S
C610 C611 1.366 . S
C610 C612 1.388 . S
C611 C610 1.366 . S
C611 C615 1.385 . S
C612 H593 0.951 . S
C612 C610 1.388 . S
C612 C613 1.366 . S
C613 C612 1.366 . S
C613 C614 1.414 . S
C613 C616 1.499 . S
C614 H594 0.950 . S
C614 C613 1.414 . S
C614 C615 1.374 . S
C615 H595 0.950 . S
C615 C611 1.385 . S
C615 C614 1.374 . S
C616 C613 1.499 . S
C616 C617 1.373 . S
C616 C618 1.389 . S
C617 H596 0.950 . S
C617 C616 1.373 . S
C617 C633 1.377 . S
C618 C616 1.389 . S
C618 C619 1.524 . S
C618 C632 1.377 . S
C619 C618 1.524 . S
C619 C620 1.397 . S
C619 C624 1.363 . S
C620 H597 0.950 . S
C620 C619 1.397 . S
C620 C621 1.334 . S
C621 H598 0.950 . S
C621 C620 1.334 . S
C621 C622 1.287 . S
C622 C621 1.287 . S
C622 C623 1.524 . S
C622 H641 0.913 . S
C623 H599 0.950 . S
C623 C622 1.524 . S
C623 C624 1.415 . S
C624 H600 0.950 . S
C624 C619 1.363 . S
C624 C623 1.415 . S
C625 H601 0.951 . S
C625 C626 1.366 . S
C625 C627 1.388 . S
C626 C625 1.366 . S
C626 C630 1.385 . S
C627 H602 0.951 . S
C627 C625 1.388 . S
C627 C628 1.366 . S
C628 C627 1.366 . S
C628 C629 1.414 . S
C628 C631 1.539 . S
C629 H603 0.950 . S
C629 C628 1.414 . S
C629 C630 1.374 . S
C630 H604 0.950 . S
C630 C626 1.385 . S
C630 C629 1.374 . S
C631 C628 1.539 . S
C631 C632 1.340 1_455 S
C631 C633 1.383 1_455 S
C632 H605 0.950 . S
C632 C618 1.377 . S
C632 C631 1.340 1_655 S
C633 C617 1.377 . S
C633 C631 1.383 1_655 S
C633 C634 1.524 1_655 S
C634 C633 1.524 1_455 S
C634 C635 1.397 . S
C634 C639 1.363 1_556 S
C635 H606 0.950 . S
C635 C634 1.397 . S
C635 C636 1.334 1_556 S
C636 H607 0.950 . S
C636 C635 1.334 1_554 S
C636 C637 1.287 . S
C637 C636 1.287 . S
C637 C638 1.524 . S
C637 H640 0.999 . S
C638 H608 0.950 . S
C638 C637 1.524 . S
C638 C639 1.415 . S
C639 H609 0.950 1_454 S
C639 C634 1.363 1_554 S
C639 C638 1.415 . S
H640 C637 0.999 . S
H641 C622 0.913 . S
H642 C660 0.951 . S
H643 C662 0.951 . S
H644 C664 0.950 1_556 S
H645 C665 0.950 1_556 S
H646 C667 0.950 1_556 S
H647 C670 0.950 1_556 S
H648 C671 0.950 . S
H649 C673 0.950 . S
H650 C674 0.950 . S
H651 C675 0.951 . S
H652 C677 0.951 . S
H653 C679 0.950 . S
H654 C680 0.950 . S
H655 C682 0.950 1_545 S
H656 C685 0.950 . S
H657 C686 0.950 . S
H658 C688 0.950 . S
H659 C689 0.950 . S
C660 H642 0.951 . S
C660 C661 1.366 . S
C660 C662 1.388 . S
C661 C660 1.366 . S
C661 C665 1.385 . S
C662 H643 0.951 . S
C662 C660 1.388 . S
C662 C663 1.366 . S
C663 C662 1.366 . S
C663 C664 1.414 . S
C663 C666 1.499 . S
C664 H644 0.950 1_554 S
C664 C663 1.414 . S
C664 C665 1.374 . S
C665 H645 0.950 1_554 S
C665 C661 1.385 . S
C665 C664 1.374 . S
C666 C663 1.499 . S
C666 C667 1.373 . S
C666 C668 1.389 . S
C667 H646 0.950 1_554 S
C667 C666 1.373 . S
C667 C683 1.377 1_554 S
C668 C666 1.389 . S
C668 C669 1.524 . S
C668 C682 1.377 . S
C669 C668 1.524 . S
C669 C670 1.397 . S
C669 C674 1.363 . S
C670 H647 0.950 1_554 S
C670 C669 1.397 . S
C670 C671 1.334 . S
C671 H648 0.950 . S
C671 C670 1.334 . S
C671 C672 1.287 . S
C672 C671 1.287 . S
C672 C673 1.524 . S
C672 H691 0.913 . S
C673 H649 0.950 . S
C673 C672 1.524 . S
C673 C674 1.415 . S
C674 H650 0.950 . S
C674 C669 1.363 . S
C674 C673 1.415 . S
C675 H651 0.951 . S
C675 C676 1.366 . S
C675 C677 1.388 . S
C676 C675 1.366 . S
C676 C680 1.385 1_556 S
C677 H652 0.951 . S
C677 C675 1.388 . S
C677 C678 1.366 . S
C678 C677 1.366 . S
C678 C679 1.414 1_556 S
C678 C681 1.531 1_556 S
C679 H653 0.950 . S
C679 C678 1.414 1_554 S
C679 C680 1.374 . S
C680 H654 0.950 . S
C680 C676 1.385 1_554 S
C680 C679 1.374 . S
C681 C678 1.531 1_554 S
C681 C682 1.378 1_545 S
C681 C683 1.352 1_544 S
C682 H655 0.950 1_565 S
C682 C668 1.377 . S
C682 C681 1.378 1_565 S
C683 C667 1.377 1_556 S
C683 C681 1.352 1_566 S
C683 C684 1.524 . S
C684 C683 1.524 . S
C684 C685 1.397 1_566 S
C684 C689 1.363 . S
C685 H656 0.950 . S
C685 C684 1.397 1_544 S
C685 C686 1.334 . S
C686 H657 0.950 . S
C686 C685 1.334 . S
C686 C687 1.287 1_554 S
C687 C686 1.287 1_556 S
C687 C688 1.524 1_545 S
C687 H690 0.999 . S
C688 H658 0.950 . S
C688 C687 1.524 1_565 S
C688 C689 1.415 . S
C689 H659 0.950 . S
C689 C684 1.363 . S
C689 C688 1.415 . S
H690 C687 0.999 . S
H691 C672 0.913 . S
H692 C710 0.951 . S
H693 C712 0.951 . S
H694 C714 0.950 . S
H695 C715 0.950 . S
H696 C717 0.950 . S
H697 C720 0.950 . S
H698 C721 0.950 . S
H699 C723 0.950 . S
H700 C724 0.950 . S
H701 C725 0.951 . S
H702 C727 0.951 . S
H703 C729 0.950 . S
H704 C730 0.950 . S
H705 C732 0.950 . S
H706 C735 0.950 . S
H707 C736 0.950 . S
H708 C738 0.950 . S
H709 C739 0.950 . S
C710 H692 0.951 . S
C710 C711 1.366 . S
C710 C712 1.388 . S
C711 C710 1.366 . S
C711 C715 1.385 . S
C712 H693 0.951 . S
C712 C710 1.388 . S
C712 C713 1.366 . S
C713 C712 1.366 . S
C713 C714 1.414 . S
C713 C716 1.499 . S
C714 H694 0.950 . S
C714 C713 1.414 . S
C714 C715 1.374 . S
C715 H695 0.950 . S
C715 C711 1.385 . S
C715 C714 1.374 . S
C716 C713 1.499 . S
C716 C717 1.373 . S
C716 C718 1.389 . S
C717 H696 0.950 . S
C717 C716 1.373 . S
C717 C733 1.377 . S
C718 C716 1.389 . S
C718 C719 1.524 . S
C718 C732 1.377 . S
C719 C718 1.524 . S
C719 C720 1.397 . S
C719 C724 1.363 . S
C720 H697 0.950 . S
C720 C719 1.397 . S
C720 C721 1.334 . S
C721 H698 0.950 . S
C721 C720 1.334 . S
C721 C722 1.287 . S
C722 C721 1.287 . S
C722 C723 1.524 . S
C722 H741 0.913 . S
C723 H699 0.950 . S
C723 C722 1.524 . S
C723 C724 1.415 . S
C724 H700 0.950 . S
C724 C719 1.363 . S
C724 C723 1.415 . S
C725 H701 0.951 . S
C725 C726 1.366 . S
C725 C727 1.388 . S
C726 C725 1.366 . S
C726 C730 1.385 . S
C727 H702 0.951 . S
C727 C725 1.388 . S
C727 C728 1.366 . S
C728 C727 1.366 . S
C728 C729 1.414 . S
C728 C731 1.499 . S
C729 H703 0.950 . S
C729 C728 1.414 . S
C729 C730 1.374 . S
C730 H704 0.950 . S
C730 C726 1.385 . S
C730 C729 1.374 . S
C731 C728 1.499 . S
C731 C732 1.373 . S
C731 C733 1.389 . S
C732 H705 0.950 . S
C732 C718 1.377 . S
C732 C731 1.373 . S
C733 C717 1.377 . S
C733 C731 1.389 . S
C733 C734 1.524 . S
C734 C733 1.524 . S
C734 C735 1.397 . S
C734 C739 1.363 . S
C735 H706 0.950 . S
C735 C734 1.397 . S
C735 C736 1.334 . S
C736 H707 0.950 . S
C736 C735 1.334 . S
C736 C737 1.287 . S
C737 C736 1.287 . S
C737 C738 1.524 . S
C737 H740 0.999 . S
C738 H708 0.950 . S
C738 C737 1.524 . S
C738 C739 1.415 . S
C739 H709 0.950 . S
C739 C734 1.363 . S
C739 C738 1.415 . S
H740 C737 0.999 . S
H741 C722 0.913 . S
H742 C760 0.951 . S
H743 C762 0.951 . S
H744 C764 0.950 . S
H745 C765 0.950 . S
H746 C767 0.950 . S
H747 C770 0.950 . S
H748 C771 0.950 . S
H749 C773 0.950 . S
H750 C774 0.950 1_455 S
H751 C775 0.951 . S
H752 C777 0.951 . S
H753 C779 0.950 . S
H754 C780 0.950 . S
H755 C782 0.950 . S
H756 C785 0.950 . S
H757 C786 0.950 . S
H758 C788 0.950 . S
H759 C789 0.950 . S
C760 H742 0.951 . S
C760 C761 1.366 . S
C760 C762 1.388 . S
C761 C760 1.366 . S
C761 C765 1.385 . S
C762 H743 0.951 . S
C762 C760 1.388 . S
C762 C763 1.366 . S
C763 C762 1.366 . S
C763 C764 1.414 . S
C763 C766 1.535 . S
C764 H744 0.950 . S
C764 C763 1.414 . S
C764 C765 1.374 . S
C765 H745 0.950 . S
C765 C761 1.385 . S
C765 C764 1.374 . S
C766 C763 1.535 . S
C766 C767 1.361 1_655 S
C766 C768 1.364 1_655 S
C767 H746 0.950 . S
C767 C766 1.361 1_455 S
C767 C783 1.377 . S
C768 C766 1.364 1_455 S
C768 C769 1.524 1_455 S
C768 C782 1.377 . S
C769 C768 1.524 1_655 S
C769 C770 1.397 . S
C769 C774 1.363 . S
C770 H747 0.950 . S
C770 C769 1.397 . S
C770 C771 1.334 . S
C771 H748 0.950 . S
C771 C770 1.334 . S
C771 C772 1.287 . S
C772 C771 1.287 . S
C772 C773 1.524 . S
C772 H791 0.913 . S
C773 H749 0.950 . S
C773 C772 1.524 . S
C773 C774 1.415 . S
C774 H750 0.950 1_655 S
C774 C769 1.363 . S
C774 C773 1.415 . S
C775 H751 0.951 . S
C775 C776 1.366 . S
C775 C777 1.388 . S
C776 C775 1.366 . S
C776 C780 1.385 . S
C777 H752 0.951 . S
C777 C775 1.388 . S
C777 C778 1.366 . S
C778 C777 1.366 . S
C778 C779 1.414 . S
C778 C781 1.499 . S
C779 H753 0.950 . S
C779 C778 1.414 . S
C779 C780 1.374 . S
C780 H754 0.950 . S
C780 C776 1.385 . S
C780 C779 1.374 . S
C781 C778 1.499 . S
C781 C782 1.373 . S
C781 C783 1.389 . S
C782 H755 0.950 . S
C782 C768 1.377 . S
C782 C781 1.373 . S
C783 C767 1.377 . S
C783 C781 1.389 . S
C783 C784 1.524 . S
C784 C783 1.524 . S
C784 C785 1.397 . S
C784 C789 1.363 . S
C785 H756 0.950 . S
C785 C784 1.397 . S
C785 C786 1.334 . S
C786 H757 0.950 . S
C786 C785 1.334 . S
C786 C787 1.287 . S
C787 C786 1.287 . S
C787 C788 1.524 . S
C787 H790 0.999 . S
C788 H758 0.950 . S
C788 C787 1.524 . S
C788 C789 1.415 . S
C789 H759 0.950 . S
C789 C784 1.363 . S
C789 C788 1.415 . S
H790 C787 0.999 . S
H791 C772 0.913 . S
H792 C810 0.951 . S
H793 C812 0.951 . S
H794 C814 0.950 . S
H795 C815 0.950 . S
H796 C817 0.950 . S
H797 C820 0.950 . S
H798 C821 0.950 . S
H799 C823 0.950 . S
H800 C824 0.950 . S
H801 C825 0.951 . S
H802 C827 0.951 . S
H803 C829 0.950 . S
H804 C830 0.950 . S
H805 C832 0.950 . S
H806 C835 0.950 . S
H807 C836 0.950 . S
H808 C838 0.950 . S
H809 C839 0.950 . S
C810 H792 0.951 . S
C810 C811 1.366 . S
C810 C812 1.388 . S
C811 C810 1.366 . S
C811 C815 1.385 . S
C812 H793 0.951 . S
C812 C810 1.388 . S
C812 C813 1.366 . S
C813 C812 1.366 . S
C813 C814 1.414 . S
C813 C816 1.499 . S
C814 H794 0.950 . S
C814 C813 1.414 . S
C814 C815 1.374 . S
C815 H795 0.950 . S
C815 C811 1.385 . S
C815 C814 1.374 . S
C816 C813 1.499 . S
C816 C817 1.373 . S
C816 C818 1.389 . S
C817 H796 0.950 . S
C817 C816 1.373 . S
C817 C833 1.377 . S
C818 C816 1.389 . S
C818 C819 1.524 . S
C818 C832 1.377 . S
C819 C818 1.524 . S
C819 C820 1.397 . S
C819 C824 1.363 . S
C820 H797 0.950 . S
C820 C819 1.397 . S
C820 C821 1.334 . S
C821 H798 0.950 . S
C821 C820 1.334 . S
C821 C822 1.287 . S
C822 C821 1.287 . S
C822 C823 1.524 . S
C822 H841 0.913 . S
C823 H799 0.950 . S
C823 C822 1.524 . S
C823 C824 1.415 . S
C824 H800 0.950 . S
C824 C819 1.363 . S
C824 C823 1.415 . S
C825 H801 0.951 . S
C825 C826 1.366 . S
C825 C827 1.388 . S
C826 C825 1.366 . S
C826 C830 1.385 . S
C827 H802 0.951 . S
C827 C825 1.388 . S
C827 C828 1.366 . S
C828 C827 1.366 . S
C828 C829 1.414 . S
C828 C831 1.499 . S
C829 H803 0.950 . S
C829 C828 1.414 . S
C829 C830 1.374 . S
C830 H804 0.950 . S
C830 C826 1.385 . S
C830 C829 1.374 . S
C831 C828 1.499 . S
C831 C832 1.373 . S
C831 C833 1.389 . S
C832 H805 0.950 . S
C832 C818 1.377 . S
C832 C831 1.373 . S
C833 C817 1.377 . S
C833 C831 1.389 . S
C833 C834 1.524 . S
C834 C833 1.524 . S
C834 C835 1.397 . S
C834 C839 1.363 . S
C835 H806 0.950 . S
C835 C834 1.397 . S
C835 C836 1.334 . S
C836 H807 0.950 . S
C836 C835 1.334 . S
C836 C837 1.287 . S
C837 C836 1.287 . S
C837 C838 1.524 . S
C837 H840 0.999 . S
C838 H808 0.950 . S
C838 C837 1.524 . S
C838 C839 1.415 . S
C839 H809 0.950 . S
C839 C834 1.363 . S
C839 C838 1.415 . S
H840 C837 0.999 . S
H841 C822 0.913 . S
H842 C860 0.951 . S
H843 C862 0.951 . S
H844 C864 0.950 . S
H845 C865 0.950 . S
H846 C867 0.950 . S
H847 C870 0.950 . S
H848 C871 0.950 . S
H849 C873 0.950 . S
H850 C874 0.950 . S
H851 C875 0.951 . S
H852 C877 0.951 . S
H853 C879 0.950 . S
H854 C880 0.950 . S
H855 C882 0.950 . S
H856 C885 0.950 . S
H857 C886 0.950 . S
H858 C888 0.950 . S
H859 C889 0.950 . S
C860 H842 0.951 . S
C860 C861 1.366 . S
C860 C862 1.388 . S
C861 C860 1.366 . S
C861 C865 1.385 . S
C862 H843 0.951 . S
C862 C860 1.388 . S
C862 C863 1.366 . S
C863 C862 1.366 . S
C863 C864 1.414 . S
C863 C866 1.499 . S
C864 H844 0.950 . S
C864 C863 1.414 . S
C864 C865 1.374 . S
C865 H845 0.950 . S
C865 C861 1.385 . S
C865 C864 1.374 . S
C866 C863 1.499 . S
C866 C867 1.373 . S
C866 C868 1.389 . S
C867 H846 0.950 . S
C867 C866 1.373 . S
C867 C883 1.377 . S
C868 C866 1.389 . S
C868 C869 1.524 . S
C868 C882 1.377 . S
C869 C868 1.524 . S
C869 C870 1.397 . S
C869 C874 1.363 . S
C870 H847 0.950 . S
C870 C869 1.397 . S
C870 C871 1.334 . S
C871 H848 0.950 . S
C871 C870 1.334 . S
C871 C872 1.287 . S
C872 C871 1.287 . S
C872 C873 1.524 . S
C872 H891 0.913 . S
C873 H849 0.950 . S
C873 C872 1.524 . S
C873 C874 1.415 . S
C874 H850 0.950 . S
C874 C869 1.363 . S
C874 C873 1.415 . S
C875 H851 0.951 . S
C875 C876 1.366 . S
C875 C877 1.388 . S
C876 C875 1.366 . S
C876 C880 1.385 . S
C877 H852 0.951 . S
C877 C875 1.388 . S
C877 C878 1.366 . S
C878 C877 1.366 . S
C878 C879 1.414 . S
C878 C881 1.499 . S
C879 H853 0.950 . S
C879 C878 1.414 . S
C879 C880 1.374 . S
C880 H854 0.950 . S
C880 C876 1.385 . S
C880 C879 1.374 . S
C881 C878 1.499 . S
C881 C882 1.373 . S
C881 C883 1.389 . S
C882 H855 0.950 . S
C882 C868 1.377 . S
C882 C881 1.373 . S
C883 C867 1.377 . S
C883 C881 1.389 . S
C883 C884 1.524 . S
C884 C883 1.524 . S
C884 C885 1.397 . S
C884 C889 1.363 . S
C885 H856 0.950 . S
C885 C884 1.397 . S
C885 C886 1.334 . S
C886 H857 0.950 . S
C886 C885 1.334 . S
C886 C887 1.287 . S
C887 C886 1.287 . S
C887 C888 1.524 . S
C887 H890 0.999 . S
C888 H858 0.950 . S
C888 C887 1.524 . S
C888 C889 1.415 . S
C889 H859 0.950 . S
C889 C884 1.363 . S
C889 C888 1.415 . S
H890 C887 0.999 . S
H891 C872 0.913 . S
H892 C910 0.951 . S
H893 C912 0.951 . S
H894 C914 0.950 . S
H895 C915 0.950 . S
H896 C917 0.950 . S
H897 C920 0.950 . S
H898 C921 0.950 . S
H899 C923 0.950 1_554 S
H900 C924 0.950 . S
H901 C925 0.951 . S
H902 C927 0.951 . S
H903 C929 0.950 . S
H904 C930 0.950 . S
H905 C932 0.950 . S
H906 C935 0.950 . S
H907 C936 0.950 . S
H908 C938 0.950 . S
H909 C939 0.950 . S
C910 H892 0.951 . S
C910 C911 1.366 . S
C910 C912 1.388 . S
C911 C910 1.366 . S
C911 C915 1.385 . S
C912 H893 0.951 . S
C912 C910 1.388 . S
C912 C913 1.366 . S
C913 C912 1.366 . S
C913 C914 1.414 . S
C913 C916 1.499 . S
C914 H894 0.950 . S
C914 C913 1.414 . S
C914 C915 1.374 . S
C915 H895 0.950 . S
C915 C911 1.385 . S
C915 C914 1.374 . S
C916 C913 1.499 . S
C916 C917 1.373 . S
C916 C918 1.389 . S
C917 H896 0.950 . S
C917 C916 1.373 . S
C917 C933 1.377 . S
C918 C916 1.389 . S
C918 C919 1.524 . S
C918 C932 1.377 . S
C919 C918 1.524 . S
C919 C920 1.397 . S
C919 C924 1.363 . S
C920 H897 0.950 . S
C920 C919 1.397 . S
C920 C921 1.334 . S
C921 H898 0.950 . S
C921 C920 1.334 . S
C921 C922 1.287 . S
C922 C921 1.287 . S
C922 C923 1.524 . S
C922 H941 0.913 . S
C923 H899 0.950 1_556 S
C923 C922 1.524 . S
C923 C924 1.415 . S
C924 H900 0.950 . S
C924 C919 1.363 . S
C924 C923 1.415 . S
C925 H901 0.951 . S
C925 C926 1.366 . S
C925 C927 1.388 . S
C926 C925 1.366 . S
C926 C930 1.385 . S
C927 H902 0.951 . S
C927 C925 1.388 . S
C927 C928 1.366 . S
C928 C927 1.366 . S
C928 C929 1.414 . S
C928 C931 1.499 . S
C929 H903 0.950 . S
C929 C928 1.414 . S
C929 C930 1.374 . S
C930 H904 0.950 . S
C930 C926 1.385 . S
C930 C929 1.374 . S
C931 C928 1.499 . S
C931 C932 1.373 . S
C931 C933 1.389 . S
C932 H905 0.950 . S
C932 C918 1.377 . S
C932 C931 1.373 . S
C933 C917 1.377 . S
C933 C931 1.389 . S
C933 C934 1.524 . S
C934 C933 1.524 . S
C934 C935 1.397 . S
C934 C939 1.363 . S
C935 H906 0.950 . S
C935 C934 1.397 . S
C935 C936 1.334 . S
C936 H907 0.950 . S
C936 C935 1.334 . S
C936 C937 1.287 . S
C937 C936 1.287 . S
C937 C938 1.524 . S
C937 H940 0.999 . S
C938 H908 0.950 . S
C938 C937 1.524 . S
C938 C939 1.415 . S
C939 H909 0.950 . S
C939 C934 1.363 . S
C939 C938 1.415 . S
H940 C937 0.999 . S
H941 C922 0.913 . S
H942 C960 0.951 . S
H943 C962 0.951 . S
H944 C964 0.950 . S
H945 C965 0.950 . S
H946 C967 0.950 . S
H947 C970 0.950 . S
H948 C971 0.950 . S
H949 C973 0.950 . S
H950 C974 0.950 . S
H951 C975 0.951 . S
H952 C977 0.951 . S
H953 C979 0.950 . S
H954 C980 0.950 . S
H955 C982 0.950 . S
H956 C985 0.950 . S
H957 C986 0.950 . S
H958 C988 0.950 . S
H959 C989 0.950 . S
C960 H942 0.951 . S
C960 C961 1.366 . S
C960 C962 1.388 . S
C961 C960 1.366 . S
C961 C965 1.385 1_554 S
C962 H943 0.951 . S
C962 C960 1.388 . S
C962 C963 1.366 1_554 S
C963 C962 1.366 1_556 S
C963 C964 1.414 . S
C963 C966 1.499 . S
C964 H944 0.950 . S
C964 C963 1.414 . S
C964 C965 1.374 . S
C965 H945 0.950 . S
C965 C961 1.385 1_556 S
C965 C964 1.374 . S
C966 C963 1.499 . S
C966 C967 1.373 . S
C966 C968 1.389 . S
C967 H946 0.950 . S
C967 C966 1.373 . S
C967 C983 1.377 . S
C968 C966 1.389 . S
C968 C969 1.524 . S
C968 C982 1.377 . S
C969 C968 1.524 . S
C969 C970 1.397 . S
C969 C974 1.363 1_556 S
C970 H947 0.950 . S
C970 C969 1.397 . S
C970 C971 1.334 . S
C971 H948 0.950 . S
C971 C970 1.334 . S
C971 C972 1.287 1_556 S
C972 C971 1.287 1_554 S
C972 C973 1.524 . S
C972 H991 0.913 . S
C973 H949 0.950 . S
C973 C972 1.524 . S
C973 C974 1.415 . S
C974 H950 0.950 . S
C974 C969 1.363 1_554 S
C974 C973 1.415 . S
C975 H951 0.951 . S
C975 C976 1.366 . S
C975 C977 1.388 . S
C976 C975 1.366 . S
C976 C980 1.385 . S
C977 H952 0.951 . S
C977 C975 1.388 . S
C977 C978 1.366 . S
C978 C977 1.366 . S
C978 C979 1.414 . S
C978 C981 1.499 . S
C979 H953 0.950 . S
C979 C978 1.414 . S
C979 C980 1.374 . S
C980 H954 0.950 . S
C980 C976 1.385 . S
C980 C979 1.374 . S
C981 C978 1.499 . S
C981 C982 1.373 . S
C981 C983 1.389 . S
C982 H955 0.950 . S
C982 C968 1.377 . S
C982 C981 1.373 . S
C983 C967 1.377 . S
C983 C981 1.389 . S
C983 C984 1.524 . S
C984 C983 1.524 . S
C984 C985 1.397 . S
C984 C989 1.363 . S
C985 H956 0.950 . S
C985 C984 1.397 . S
C985 C986 1.334 . S
C986 H957 0.950 . S
C986 C985 1.334 . S
C986 C987 1.287 . S
C987 C986 1.287 . S
C987 C988 1.524 . S
C987 H990 0.999 . S
C988 H958 0.950 . S
C988 C987 1.524 . S
C988 C989 1.415 . S
C989 H959 0.950 . S
C989 C984 1.363 . S
C989 C988 1.415 . S
H990 C987 0.999 . S
H991 C972 0.913 . S
H992 C1010 0.951 . S
H993 C1012 0.951 . S
H994 C1014 0.950 . S
H995 C1015 0.950 . S
H996 C1017 0.950 . S
H997 C1020 0.950 . S
H998 C1021 0.950 . S
H999 C1023 0.950 . S
H1000 C1024 0.950 . S
H1001 C1025 0.951 . S
H1002 C1027 0.951 . S
H1003 C1029 0.950 . S
H1004 C1030 0.950 . S
H1005 C1032 0.950 . S
H1006 C1035 0.950 1_554 S
H1007 C1036 0.950 . S
H1008 C1038 0.950 . S
H1009 C1039 0.950 . S
C1010 H992 0.951 . S
C1010 C1011 1.366 . S
C1010 C1012 1.388 . S
C1011 C1010 1.366 . S
C1011 C1015 1.385 . S
C1012 H993 0.951 . S
C1012 C1010 1.388 . S
C1012 C1013 1.366 . S
C1013 C1012 1.366 . S
C1013 C1014 1.414 . S
C1013 C1016 1.499 . S
C1014 H994 0.950 . S
C1014 C1013 1.414 . S
C1014 C1015 1.374 . S
C1015 H995 0.950 . S
C1015 C1011 1.385 . S
C1015 C1014 1.374 . S
C1016 C1013 1.499 . S
C1016 C1017 1.373 . S
C1016 C1018 1.389 . S
C1017 H996 0.950 . S
C1017 C1016 1.373 . S
C1017 C1033 1.377 . S
C1018 C1016 1.389 . S
C1018 C1019 1.524 . S
C1018 C1032 1.377 . S
C1019 C1018 1.524 . S
C1019 C1020 1.397 . S
C1019 C1024 1.363 . S
C1020 H997 0.950 . S
C1020 C1019 1.397 . S
C1020 C1021 1.334 . S
C1021 H998 0.950 . S
C1021 C1020 1.334 . S
C1021 C1022 1.287 . S
C1022 C1021 1.287 . S
C1022 C1023 1.524 . S
C1022 H1041 0.913 . S
C1023 H999 0.950 . S
C1023 C1022 1.524 . S
C1023 C1024 1.415 . S
C1024 H1000 0.950 . S
C1024 C1019 1.363 . S
C1024 C1023 1.415 . S
C1025 H1001 0.951 . S
C1025 C1026 1.366 . S
C1025 C1027 1.388 . S
C1026 C1025 1.366 . S
C1026 C1030 1.385 1_556 S
C1027 H1002 0.951 . S
C1027 C1025 1.388 . S
C1027 C1028 1.366 1_556 S
C1028 C1027 1.366 1_554 S
C1028 C1029 1.414 . S
C1028 C1031 1.499 . S
C1029 H1003 0.950 . S
C1029 C1028 1.414 . S
C1029 C1030 1.374 . S
C1030 H1004 0.950 . S
C1030 C1026 1.385 1_554 S
C1030 C1029 1.374 . S
C1031 C1028 1.499 . S
C1031 C1032 1.373 . S
C1031 C1033 1.389 . S
C1032 H1005 0.950 . S
C1032 C1018 1.377 . S
C1032 C1031 1.373 . S
C1033 C1017 1.377 . S
C1033 C1031 1.389 . S
C1033 C1034 1.524 1_554 S
C1034 C1033 1.524 1_556 S
C1034 C1035 1.397 . S
C1034 C1039 1.363 . S
C1035 H1006 0.950 1_556 S
C1035 C1034 1.397 . S
C1035 C1036 1.334 . S
C1036 H1007 0.950 . S
C1036 C1035 1.334 . S
C1036 C1037 1.287 . S
C1037 C1036 1.287 . S
C1037 C1038 1.524 . S
C1037 H1040 0.999 . S
C1038 H1008 0.950 . S
C1038 C1037 1.524 . S
C1038 C1039 1.415 . S
C1039 H1009 0.950 . S
C1039 C1034 1.363 . S
C1039 C1038 1.415 . S
H1040 C1037 0.999 . S
H1041 C1022 0.913 . S
H1042 C1060 0.951 . S
H1043 C1062 0.951 . S
H1044 C1064 0.950 . S
H1045 C1065 0.950 . S
H1046 C1067 0.950 . S
H1047 C1070 0.950 . S
H1048 C1071 0.950 . S
H1049 C1073 0.950 . S
H1050 C1074 0.950 . S
H1051 C1075 0.951 . S
H1052 C1077 0.951 . S
H1053 C1079 0.950 . S
H1054 C1080 0.950 . S
H1055 C1082 0.950 . S
H1056 C1085 0.950 . S
H1057 C1086 0.950 . S
H1058 C1088 0.950 . S
H1059 C1089 0.950 . S
C1060 H1042 0.951 . S
C1060 C1061 1.366 . S
C1060 C1062 1.388 . S
C1061 C1060 1.366 . S
C1061 C1065 1.385 . S
C1062 H1043 0.951 . S
C1062 C1060 1.388 . S
C1062 C1063 1.366 . S
C1063 C1062 1.366 . S
C1063 C1064 1.414 . S
C1063 C1066 1.499 . S
C1064 H1044 0.950 . S
C1064 C1063 1.414 . S
C1064 C1065 1.374 . S
C1065 H1045 0.950 . S
C1065 C1061 1.385 . S
C1065 C1064 1.374 . S
C1066 C1063 1.499 . S
C1066 C1067 1.373 . S
C1066 C1068 1.389 . S
C1067 H1046 0.950 . S
C1067 C1066 1.373 . S
C1067 C1083 1.377 . S
C1068 C1066 1.389 . S
C1068 C1069 1.524 . S
C1068 C1082 1.377 . S
C1069 C1068 1.524 . S
C1069 C1070 1.397 . S
C1069 C1074 1.363 . S
C1070 H1047 0.950 . S
C1070 C1069 1.397 . S
C1070 C1071 1.334 . S
C1071 H1048 0.950 . S
C1071 C1070 1.334 . S
C1071 C1072 1.287 . S
C1072 C1071 1.287 . S
C1072 C1073 1.524 . S
C1072 H1091 0.913 . S
C1073 H1049 0.950 . S
C1073 C1072 1.524 . S
C1073 C1074 1.415 . S
C1074 H1050 0.950 . S
C1074 C1069 1.363 . S
C1074 C1073 1.415 . S
C1075 H1051 0.951 . S
C1075 C1076 1.366 . S
C1075 C1077 1.388 . S
C1076 C1075 1.366 . S
C1076 C1080 1.385 . S
C1077 H1052 0.951 . S
C1077 C1075 1.388 . S
C1077 C1078 1.366 . S
C1078 C1077 1.366 . S
C1078 C1079 1.414 . S
C1078 C1081 1.499 . S
C1079 H1053 0.950 . S
C1079 C1078 1.414 . S
C1079 C1080 1.374 . S
C1080 H1054 0.950 . S
C1080 C1076 1.385 . S
C1080 C1079 1.374 . S
C1081 C1078 1.499 . S
C1081 C1082 1.373 . S
C1081 C1083 1.389 . S
C1082 H1055 0.950 . S
C1082 C1068 1.377 . S
C1082 C1081 1.373 . S
C1083 C1067 1.377 . S
C1083 C1081 1.389 . S
C1083 C1084 1.524 . S
C1084 C1083 1.524 . S
C1084 C1085 1.397 . S
C1084 C1089 1.363 . S
C1085 H1056 0.950 . S
C1085 C1084 1.397 . S
C1085 C1086 1.334 . S
C1086 H1057 0.950 . S
C1086 C1085 1.334 . S
C1086 C1087 1.287 . S
C1087 C1086 1.287 . S
C1087 C1088 1.524 . S
C1087 H1090 0.999 . S
C1088 H1058 0.950 . S
C1088 C1087 1.524 . S
C1088 C1089 1.415 . S
C1089 H1059 0.950 . S
C1089 C1084 1.363 . S
C1089 C1088 1.415 . S
H1090 C1087 0.999 . S
H1091 C1072 0.913 . S
C211 C29 0.859 . S
C226 C2 0.861 . S
C261 C61 0.859 . S
C276 C34 0.861 . S
C311 C66 0.862 . S
C326 C93 0.859 . S
C361 C98 0.861 . S
C376 C125 0.859 . S
C411 C134 0.862 . S
C426 C132 0.860 . S
C461 C189 0.860 . S
C476 C162 0.862 . S
C511 C4 1.460 . S
C526 N178 1.446 . S
C561 N18 1.445 . S
C576 C36 1.461 . S
C611 C68 1.461 . S
C626 N50 1.445 . S
C661 C100 1.461 . S
C676 N82 1.445 . S
C711 C157 1.461 . S
C726 N114 1.445 . S
C761 N141 1.445 . S
C776 C164 1.461 . S
C811 C6 1.924 . S
C826 N146 1.833 . S
C861 C38 1.924 . S
C876 N173 1.833 . S
C911 C70 1.924 . S
C926 N13 1.833 . S
C961 C102 1.924 . S
C976 N45 1.834 . S
C1011 C130 1.924 . S
C1026 N77 1.834 . S
C1061 N109 1.834 . S
C1076 C166 1.924 . S
