# Generated by pormake.
# Topology pcb, (4)-cn, num edge types: 1
# Building blocks:
#     Node 0, Type 0, BuildingBlock: AZAVOO_clean_sbu_0, # of connection points: 4
#     Node 1, Type 0, BuildingBlock: AZAVOO_clean_sbu_0, # of connection points: 4
#     Node 2, Type 0, BuildingBlock: AZAVOO_clean_sbu_0, # of connection points: 4
#     Node 3, Type 0, BuildingBlock: AZAVOO_clean_sbu_0, # of connection points: 4
#     Node 4, Type 0, BuildingBlock: AZAVOO_clean_sbu_0, # of connection points: 4
#     Node 5, Type 0, BuildingBlock: AZAVOO_clean_sbu_0, # of connection points: 4
#     Node 6, Type 0, BuildingBlock: AZAVOO_clean_sbu_0, # of connection points: 4
#     Node 7, Type 0, BuildingBlock: AZAVOO_clean_sbu_0, # of connection points: 4
#     Node 8, Type 0, BuildingBlock: AZAVOO_clean_sbu_0, # of connection points: 4
#     Node 9, Type 0, BuildingBlock: AZAVOO_clean_sbu_0, # of connection points: 4
#     Node 10, Type 0, BuildingBlock: AZAVOO_clean_sbu_0, # of connection points: 4
#     Node 11, Type 0, BuildingBlock: AZAVOO_clean_sbu_0, # of connection points: 4
#     Node 12, Type 0, BuildingBlock: AZAVOO_clean_sbu_0, # of connection points: 4
#     Node 13, Type 0, BuildingBlock: AZAVOO_clean_sbu_0, # of connection points: 4
#     Node 14, Type 0, BuildingBlock: AZAVOO_clean_sbu_0, # of connection points: 4
#     Node 15, Type 0, BuildingBlock: AZAVOO_clean_sbu_0, # of connection points: 4
#     Edge 16, Type (0, 0), BuildingBlock: AJUNOK_clean_linker_0, # of connection points: 2
#     Edge 17, Type (0, 0), BuildingBlock: AJUNOK_clean_linker_0, # of connection points: 2
#     Edge 18, Type (0, 0), BuildingBlock: AJUNOK_clean_linker_0, # of connection points: 2
#     Edge 19, Type (0, 0), BuildingBlock: AJUNOK_clean_linker_0, # of connection points: 2
#     Edge 20, Type (0, 0), BuildingBlock: AJUNOK_clean_linker_0, # of connection points: 2
#     Edge 21, Type (0, 0), BuildingBlock: AJUNOK_clean_linker_0, # of connection points: 2
#     Edge 22, Type (0, 0), BuildingBlock: AJUNOK_clean_linker_0, # of connection points: 2
#     Edge 23, Type (0, 0), BuildingBlock: AJUNOK_clean_linker_0, # of connection points: 2
#     Edge 24, Type (0, 0), BuildingBlock: AJUNOK_clean_linker_0, # of connection points: 2
#     Edge 25, Type (0, 0), BuildingBlock: AJUNOK_clean_linker_0, # of connection points: 2
#     Edge 26, Type (0, 0), BuildingBlock: AJUNOK_clean_linker_0, # of connection points: 2
#     Edge 27, Type (0, 0), BuildingBlock: AJUNOK_clean_linker_0, # of connection points: 2
#     Edge 28, Type (0, 0), BuildingBlock: AJUNOK_clean_linker_0, # of connection points: 2
#     Edge 29, Type (0, 0), BuildingBlock: AJUNOK_clean_linker_0, # of connection points: 2
#     Edge 30, Type (0, 0), BuildingBlock: AJUNOK_clean_linker_0, # of connection points: 2
#     Edge 31, Type (0, 0), BuildingBlock: AJUNOK_clean_linker_0, # of connection points: 2
#     Edge 32, Type (0, 0), BuildingBlock: AJUNOK_clean_linker_0, # of connection points: 2
#     Edge 33, Type (0, 0), BuildingBlock: AJUNOK_clean_linker_0, # of connection points: 2
#     Edge 34, Type (0, 0), BuildingBlock: AJUNOK_clean_linker_0, # of connection points: 2
#     Edge 35, Type (0, 0), BuildingBlock: AJUNOK_clean_linker_0, # of connection points: 2
#     Edge 36, Type (0, 0), BuildingBlock: AJUNOK_clean_linker_0, # of connection points: 2
#     Edge 37, Type (0, 0), BuildingBlock: AJUNOK_clean_linker_0, # of connection points: 2
#     Edge 38, Type (0, 0), BuildingBlock: AJUNOK_clean_linker_0, # of connection points: 2
#     Edge 39, Type (0, 0), BuildingBlock: AJUNOK_clean_linker_0, # of connection points: 2
#     Edge 40, Type (0, 0), BuildingBlock: AJUNOK_clean_linker_0, # of connection points: 2
#     Edge 41, Type (0, 0), BuildingBlock: AJUNOK_clean_linker_0, # of connection points: 2
#     Edge 42, Type (0, 0), BuildingBlock: AJUNOK_clean_linker_0, # of connection points: 2
#     Edge 43, Type (0, 0), BuildingBlock: AJUNOK_clean_linker_0, # of connection points: 2
#     Edge 44, Type (0, 0), BuildingBlock: AJUNOK_clean_linker_0, # of connection points: 2
#     Edge 45, Type (0, 0), BuildingBlock: AJUNOK_clean_linker_0, # of connection points: 2
#     Edge 46, Type (0, 0), BuildingBlock: AJUNOK_clean_linker_0, # of connection points: 2
#     Edge 47, Type (0, 0), BuildingBlock: AJUNOK_clean_linker_0, # of connection points: 2
# Relax obj value: 0.186
# Max RMSD: 0.084
# Mean RMSD: 0.079
data_MOF--net-pcb--node1-AZAVOO_clean_sbu_0--edge1-AJUNOK_clean_linker_0
_symmetry_space_group_name_H-M    P1
_symmetry_Int_Tables_number       1
_symmetry_cell_setting            triclinic
loop_
_symmetry_equiv_pos_as_xyz
'x, y, z'
_cell_length_a     35.701797
_cell_length_b     35.345265
_cell_length_c     36.512228
_cell_angle_alpha  90.379934
_cell_angle_beta   90.080307
_cell_angle_gamma 89.481384
loop_
_atom_site_label
_atom_site_type_symbol
_atom_site_fract_x
_atom_site_fract_y
_atom_site_fract_z
_atom_type_partial_charge
Mg0 Mg 0.15654 0.13249 0.12124 0.0
O1 O 0.09604 0.15594 0.1155 0.0
O2 O 0.0683 0.12043 0.07275 0.0
Mg3 Mg 0.108 0.07403 0.05335 0.0
C4 C 0.06766 0.14789 0.09559 0.0
C5 C 0.20062 0.18375 0.16749 0.0
O6 O 0.22104 0.17328 0.13922 0.0
O7 O 0.13574 0.08293 0.15552 0.0
O8 O 0.10806 0.04916 0.11116 0.0
O9 O 0.1755 0.16795 0.0746 0.0
O10 O 0.15517 0.10944 0.06896 0.0
C11 C 0.11759 0.05393 0.14462 0.0
C12 C 0.16723 0.13957 0.05365 0.0
O13 O 0.1679 0.17019 0.17037 0.0
Mg14 Mg 0.85148 0.16302 0.14758 0.0
O15 O 0.835 0.15642 0.08557 0.0
O16 O 0.87602 0.11306 0.06423 0.0
Mg17 Mg 0.92011 0.09674 0.10712 0.0
C18 C 0.84776 0.13503 0.05982 0.0
C19 C 0.80141 0.22417 0.183 0.0
O20 O 0.83553 0.23675 0.18812 0.0
O21 O 0.82722 0.10361 0.15933 0.0
O22 O 0.87461 0.06692 0.13926 0.0
O23 O 0.89328 0.20974 0.13505 0.0
O24 O 0.90593 0.14867 0.13541 0.0
C25 C 0.84326 0.07122 0.15559 0.0
C26 C 0.91707 0.18242 0.13003 0.0
O27 O 0.79714 0.19379 0.16445 0.0
Mg28 Mg 0.80246 0.83095 0.12606 0.0
O29 O 0.86835 0.8293 0.12599 0.0
O30 O 0.88315 0.86667 0.07892 0.0
Mg31 Mg 0.83193 0.89277 0.05077 0.0
C32 C 0.89268 0.84483 0.10517 0.0
C33 C 0.78472 0.76364 0.17629 0.0
O34 O 0.78771 0.7476 0.14394 0.0
O35 O 0.80301 0.89041 0.15335 0.0
O36 O 0.81676 0.92423 0.10338 0.0
O37 O 0.80027 0.78489 0.08294 0.0
O38 O 0.80059 0.8457 0.07112 0.0
C39 C 0.80751 0.92206 0.13705 0.0
C40 C 0.80016 0.81166 0.05913 0.0
O41 O 0.79461 0.79813 0.17983 0.0
Mg42 Mg 0.14227 0.83906 0.14785 0.0
O43 O 0.07726 0.83219 0.13947 0.0
O44 O 0.06278 0.88075 0.10245 0.0
Mg45 Mg 0.11209 0.92009 0.09229 0.0
C46 C 0.05359 0.85121 0.12024 0.0
C47 C 0.18137 0.78465 0.19607 0.0
O48 O 0.19614 0.81841 0.19929 0.0
O49 O 0.15304 0.81937 0.08736 0.0
O50 O 0.13972 0.87346 0.05814 0.0
O51 O 0.13256 0.87647 0.19811 0.0
O52 O 0.13647 0.89643 0.14121 0.0
C53 C 0.1522 0.83952 0.05821 0.0
C54 C 0.1306 0.90398 0.17506 0.0
O55 O 0.15404 0.78076 0.17375 0.0
Mg56 Mg 0.13672 0.81038 0.81793 0.0
O57 O 0.14122 0.87635 0.81788 0.0
O58 O 0.09311 0.896 0.85304 0.0
Mg59 Mg 0.05661 0.84671 0.87131 0.0
C60 C 0.12194 0.90264 0.8335 0.0
C61 C 0.2013 0.80677 0.75765 0.0
O62 O 0.19716 0.79862 0.7923 0.0
O63 O 0.15772 0.80895 0.87864 0.0
O64 O 0.10451 0.82576 0.90736 0.0
O65 O 0.09796 0.81113 0.76831 0.0
O66 O 0.07999 0.81489 0.82597 0.0
C67 C 0.13839 0.81398 0.90794 0.0
C68 C 0.07133 0.8153 0.79196 0.0
O69 O 0.19615 0.79921 0.79147 0.0
Mg70 Mg 0.13224 0.15659 0.83199 0.0
O71 O 0.13763 0.09051 0.82656 0.0
O72 O 0.10322 0.06815 0.87292 0.0
Mg73 Mg 0.07513 0.11555 0.90554 0.0
C74 C 0.12465 0.06303 0.84536 0.0
C75 C 0.19767 0.17496 0.77994 0.0
O76 O 0.21532 0.16611 0.81026 0.0
O77 O 0.07283 0.15552 0.80665 0.0
O78 O 0.04151 0.13275 0.85488 0.0
O79 O 0.17905 0.15906 0.87327 0.0
O80 O 0.11945 0.15216 0.8872 0.0
C81 C 0.0424 0.14568 0.82232 0.0
C82 C 0.15357 0.15432 0.89773 0.0
O83 O 0.16247 0.16924 0.77802 0.0
Mg84 Mg 0.80947 0.115 0.81594 0.0
O85 O 0.81185 0.12883 0.88048 0.0
O86 O 0.8524 0.08661 0.90464 0.0
Mg87 Mg 0.89112 0.07328 0.85779 0.0
C88 C 0.82677 0.1118 0.90816 0.0
C89 C 0.74959 0.15806 0.77115 0.0
O90 O 0.75852 0.12865 0.75065 0.0
O91 O 0.85977 0.15205 0.79901 0.0
O92 O 0.88594 0.13696 0.85082 0.0
O93 O 0.77829 0.06103 0.82815 0.0
O94 O 0.83971 0.06476 0.825 0.0
C95 C 0.88814 0.15298 0.82005 0.0
C96 C 0.81068 0.04459 0.83136 0.0
O97 O 0.76545 0.16138 0.80238 0.0
Mg98 Mg 0.83538 0.7952 0.83853 0.0
O99 O 0.82509 0.85997 0.84418 0.0
O100 O 0.86221 0.87925 0.89001 0.0
Mg101 Mg 0.89555 0.82965 0.9126 0.0
C102 C 0.83795 0.88599 0.86513 0.0
C103 C 0.76943 0.78286 0.78502 0.0
O104 O 0.75169 0.78188 0.81647 0.0
O105 O 0.89086 0.8062 0.8094 0.0
O106 O 0.92494 0.8271 0.85686 0.0
O107 O 0.79191 0.78481 0.88069 0.0
O108 O 0.85229 0.7916 0.89265 0.0
C109 C 0.9212 0.81916 0.82286 0.0
C110 C 0.81871 0.78745 0.90437 0.0
O111 O 0.80384 0.79178 0.7848 0.0
Mg112 Mg 0.67168 0.64007 0.61694 0.0
O113 O 0.60866 0.65539 0.61559 0.0
O114 O 0.583 0.62294 0.56919 0.0
Mg115 Mg 0.62739 0.58387 0.54465 0.0
C116 C 0.58072 0.64697 0.59531 0.0
C117 C 0.71087 0.69282 0.66507 0.0
O118 O 0.73069 0.68714 0.63523 0.0
O119 O 0.65735 0.58529 0.64701 0.0
O120 O 0.6298 0.55447 0.60051 0.0
O121 O 0.68266 0.68293 0.57411 0.0
O122 O 0.67081 0.62259 0.56269 0.0
C123 C 0.64005 0.55664 0.63402 0.0
C124 C 0.67701 0.65601 0.55071 0.0
O125 O 0.68061 0.67449 0.66871 0.0
Mg126 Mg 0.35496 0.65334 0.64126 0.0
O127 O 0.34291 0.64714 0.57813 0.0
O128 O 0.38249 0.60119 0.55938 0.0
Mg129 Mg 0.4199 0.58004 0.60626 0.0
C130 C 0.35652 0.62539 0.55305 0.0
C131 C 0.3065 0.72381 0.66452 0.0
O132 O 0.33912 0.73991 0.65976 0.0
O133 O 0.32401 0.5972 0.65208 0.0
O134 O 0.36892 0.55602 0.63484 0.0
O135 O 0.40323 0.69466 0.63151 0.0
O136 O 0.40854 0.63289 0.63411 0.0
C137 C 0.3372 0.56348 0.64938 0.0
C138 C 0.42439 0.66479 0.63003 0.0
O139 O 0.3026 0.68927 0.65512 0.0
Mg140 Mg 0.3011 0.32502 0.62338 0.0
O141 O 0.36691 0.3282 0.62283 0.0
O142 O 0.37799 0.36431 0.57399 0.0
Mg143 Mg 0.32435 0.38395 0.54492 0.0
C144 C 0.3897 0.34475 0.60112 0.0
C145 C 0.26414 0.27661 0.67349 0.0
O146 O 0.24476 0.2829 0.64347 0.0
O147 O 0.29723 0.38535 0.64775 0.0
O148 O 0.30711 0.41744 0.59593 0.0
O149 O 0.30247 0.27569 0.58434 0.0
O150 O 0.2972 0.33549 0.56798 0.0
C151 C 0.29863 0.41637 0.62987 0.0
C152 C 0.29984 0.30058 0.55872 0.0
O153 O 0.29528 0.29366 0.6774 0.0
Mg154 Mg 0.64 0.33687 0.64499 0.0
O155 O 0.5743 0.33505 0.63725 0.0
O156 O 0.56358 0.38292 0.59838 0.0
Mg157 Mg 0.6157 0.41761 0.58579 0.0
C158 C 0.55204 0.355 0.61726 0.0
C159 C 0.66377 0.28094 0.70423 0.0
O160 O 0.67097 0.31481 0.71722 0.0
O161 O 0.64772 0.31352 0.58526 0.0
O162 O 0.63835 0.36709 0.55375 0.0
O163 O 0.63503 0.37886 0.69296 0.0
O164 O 0.63934 0.39411 0.6349 0.0
C165 C 0.64784 0.33225 0.55521 0.0
C166 C 0.63567 0.40472 0.6682 0.0
O167 O 0.64742 0.27844 0.67313 0.0
Mg168 Mg 0.62273 0.32471 0.31725 0.0
O169 O 0.62686 0.39041 0.32632 0.0
O170 O 0.57893 0.40277 0.36446 0.0
Mg171 Mg 0.54227 0.35116 0.37462 0.0
C172 C 0.60748 0.41341 0.34622 0.0
C173 C 0.67823 0.28659 0.27027 0.0
O174 O 0.64665 0.26775 0.27025 0.0
O175 O 0.64365 0.31413 0.37703 0.0
O176 O 0.58999 0.32474 0.4074 0.0
O177 O 0.58479 0.33299 0.26778 0.0
O178 O 0.56604 0.3279 0.32503 0.0
C179 C 0.62407 0.3136 0.4065 0.0
C180 C 0.55787 0.33363 0.29136 0.0
O181 O 0.68021 0.31629 0.29023 0.0
Mg182 Mg 0.62867 0.6662 0.33134 0.0
O183 O 0.62996 0.6 0.33573 0.0
O184 O 0.59367 0.58893 0.38442 0.0
Mg185 Mg 0.56927 0.64318 0.40971 0.0
C186 C 0.6146 0.57712 0.35825 0.0
C187 C 0.68001 0.70143 0.28199 0.0
O188 O 0.67269 0.72237 0.31103 0.0
O189 O 0.56973 0.66295 0.30514 0.0
O190 O 0.53707 0.65316 0.35664 0.0
O191 O 0.67572 0.67075 0.37186 0.0
O192 O 0.61582 0.6726 0.38624 0.0
C193 C 0.53866 0.65934 0.32227 0.0
C194 C 0.65007 0.67284 0.39668 0.0
O195 O 0.66247 0.67028 0.27832 0.0
Mg196 Mg 0.3025 0.60221 0.31214 0.0
O197 O 0.31027 0.61511 0.37506 0.0
O198 O 0.35035 0.57017 0.39455 0.0
Mg199 Mg 0.36725 0.52973 0.34792 0.0
C200 C 0.3297 0.59928 0.40043 0.0
C201 C 0.24739 0.65558 0.2737 0.0
O202 O 0.23931 0.62167 0.2612 0.0
O203 O 0.3612 0.62668 0.3009 0.0
O204 O 0.39722 0.57802 0.31909 0.0
O205 O 0.25582 0.5604 0.32371 0.0
O206 O 0.31589 0.54602 0.32056 0.0
C207 C 0.39321 0.61039 0.30416 0.0
C208 C 0.28232 0.53537 0.3264 0.0
O209 O 0.27257 0.65843 0.29842 0.0
Mg210 Mg 0.32914 0.29381 0.33753 0.0
O211 O 0.30596 0.35496 0.34311 0.0
O212 O 0.33649 0.38197 0.38976 0.0
Mg213 Mg 0.38075 0.34099 0.41113 0.0
C214 C 0.31172 0.38309 0.36456 0.0
C215 C 0.26365 0.27508 0.28477 0.0
O216 O 0.24541 0.2764 0.31598 0.0
O217 O 0.38071 0.31596 0.30812 0.0
O218 O 0.40996 0.3439 0.35523 0.0
O219 O 0.28984 0.27399 0.38069 0.0
O220 O 0.34754 0.29363 0.39122 0.0
C221 C 0.40789 0.33496 0.3213 0.0
C222 C 0.31631 0.2816 0.40374 0.0
O223 O 0.29794 0.28434 0.28434 0.0
C224 C 0.20974 0.24268 0.25437 0.0
C225 C 0.24667 0.2562 0.25244 0.0
C226 C 0.19474 0.21999 0.22645 0.0
C227 C 0.21608 0.20989 0.19549 0.0
H228 H 0.19252 0.24868 0.27815 0.0
H229 H 0.16648 0.20962 0.22964 0.0
S230 S 0.3133 0.24052 0.1756 0.0
N231 N 0.30341 0.25981 0.21572 0.0
N232 N 0.2754 0.21722 0.16346 0.0
C233 C 0.25253 0.22454 0.19246 0.0
C234 C 0.26775 0.24772 0.22082 0.0
C235 C 0.70752 0.23644 0.2307 0.0
C236 C 0.70991 0.27252 0.24726 0.0
C237 C 0.73657 0.22165 0.20897 0.0
C238 C 0.76946 0.2422 0.20286 0.0
H239 H 0.68314 0.21899 0.23489 0.0
H240 H 0.73355 0.19341 0.1977 0.0
S241 S 0.78861 0.33943 0.23706 0.0
N242 N 0.74705 0.32942 0.25405 0.0
N243 N 0.80177 0.3017 0.21328 0.0
C244 C 0.7719 0.27878 0.21838 0.0
C245 C 0.74218 0.29389 0.24056 0.0
C246 C 0.75061 0.76552 0.23617 0.0
C247 C 0.76208 0.74488 0.20509 0.0
C248 C 0.72447 0.75086 0.26073 0.0
C249 C 0.7085 0.71484 0.25545 0.0
H250 H 0.76088 0.79386 0.24104 0.0
H251 H 0.71623 0.7685 0.28376 0.0
S252 S 0.73185 0.64742 0.18048 0.0
N253 N 0.75752 0.68496 0.1719 0.0
N254 N 0.70823 0.65769 0.21815 0.0
C255 C 0.72081 0.69314 0.22537 0.0
C256 C 0.74765 0.70803 0.20028 0.0
C257 C 0.1992 0.68479 0.23199 0.0
C258 C 0.22947 0.68943 0.25651 0.0
C259 C 0.18342 0.71558 0.21303 0.0
C260 C 0.19729 0.75243 0.2176 0.0
H261 H 0.18774 0.65697 0.22696 0.0
H262 H 0.16051 0.71028 0.19427 0.0
S263 S 0.2757 0.78022 0.27928 0.0
N264 N 0.27214 0.73411 0.2848 0.0
N265 N 0.24286 0.79182 0.24946 0.0
C266 C 0.22716 0.75759 0.24259 0.0
C267 C 0.2431 0.72622 0.26196 0.0
C268 C 0.27401 0.78356 0.68492 0.0
C269 C 0.27739 0.74386 0.68654 0.0
C270 C 0.24917 0.80357 0.708 0.0
C271 C 0.22802 0.78484 0.73462 0.0
H272 H 0.29071 0.7993 0.66563 0.0
H273 H 0.24705 0.83404 0.70547 0.0
S274 S 0.22562 0.68111 0.74955 0.0
N275 N 0.25622 0.68646 0.71615 0.0
N276 N 0.21075 0.72414 0.76028 0.0
C277 C 0.23088 0.74514 0.73642 0.0
C278 C 0.25527 0.72466 0.7122 0.0
C279 C 0.19688 0.21032 0.72083 0.0
C280 C 0.21692 0.19785 0.75166 0.0
C281 C 0.21264 0.23557 0.69597 0.0
C282 C 0.24917 0.24967 0.70078 0.0
H283 H 0.16838 0.20119 0.71613 0.0
H284 H 0.19558 0.24447 0.67298 0.0
S285 S 0.31468 0.22419 0.77573 0.0
N286 N 0.27633 0.20022 0.7847 0.0
N287 N 0.30568 0.24787 0.73786 0.0
C288 C 0.27001 0.23678 0.73093 0.0
C289 C 0.25401 0.21079 0.7563 0.0
C290 C 0.71133 0.18542 0.71955 0.0
C291 C 0.72382 0.18783 0.75624 0.0
C292 C 0.68994 0.21452 0.7034 0.0
C293 C 0.68018 0.24738 0.72321 0.0
H294 H 0.71911 0.16136 0.70259 0.0
H295 H 0.68255 0.21196 0.67471 0.0
S296 S 0.70116 0.26567 0.82147 0.0
N297 N 0.72138 0.22439 0.81281 0.0
N298 N 0.68135 0.27887 0.78267 0.0
C299 C 0.69065 0.24923 0.76047 0.0
C300 C 0.71239 0.2196 0.77691 0.0
C301 C 0.71782 0.74657 0.75512 0.0
C302 C 0.75233 0.76531 0.7521 0.0
C303 C 0.7041 0.72395 0.72654 0.0
C304 C 0.7243 0.71928 0.69377 0.0
H305 H 0.70188 0.74803 0.78031 0.0
H306 H 0.67799 0.70921 0.73065 0.0
S307 S 0.81384 0.76622 0.67018 0.0
N308 N 0.8046 0.78061 0.7123 0.0
N309 N 0.77897 0.73823 0.65865 0.0
C310 C 0.75779 0.73964 0.68956 0.0
C311 C 0.77172 0.76267 0.71866 0.0
C312 C 0.16533 0.18205 0.95885 0.0
C313 C 0.16283 0.1499 0.93634 0.0
C314 C 0.1681 0.1785 -0.00308 0.0
C315 C 0.1681 0.14265 0.01344 0.0
H316 H 0.16371 0.21008 0.94706 0.0
H317 H 0.1688 0.20401 0.01352 0.0
S318 S 0.16605 0.04985 0.96514 0.0
N319 N 0.16308 0.08148 0.93216 0.0
N320 N 0.16892 0.07432 0.00371 0.0
C321 C 0.16739 0.11026 -0.00924 0.0
C322 C 0.16451 0.11402 0.95211 0.0
C323 C 0.82959 0.15808 0.96027 0.0
C324 C 0.81782 0.12282 0.94643 0.0
C325 C 0.83549 0.16368 -0.00182 0.0
C326 C 0.82972 0.1342 0.02325 0.0
H327 H 0.83782 0.18013 0.94153 0.0
H328 H 0.84779 0.18997 0.00746 0.0
S329 S 0.79375 0.03869 0.00142 0.0
N330 N 0.79657 0.05974 0.96126 0.0
N331 N 0.80753 0.07027 0.03203 0.0
C332 C 0.81475 0.10017 0.01 0.0
C333 C 0.80877 0.09451 0.97169 0.0
C334 C 0.82665 0.76656 0.96859 0.0
C335 C 0.81077 0.79183 0.94333 0.0
C336 C 0.82189 0.77225 0.00631 0.0
C337 C 0.80219 0.80406 0.0196 0.0
H338 H 0.84309 0.74252 0.9591 0.0
H339 H 0.83482 0.75246 0.02511 0.0
S340 S 0.75571 0.8785 0.96398 0.0
N341 N 0.77435 0.84913 0.93357 0.0
N342 N 0.76625 0.86077 0.0045 0.0
C343 C 0.78603 0.82935 -0.00561 0.0
C344 C 0.79013 0.823 0.95614 0.0
C345 C 0.14088 0.79259 0.00821 0.0
C346 C 0.16151 0.82331 0.02178 0.0
C347 C 0.13744 0.78632 0.97026 0.0
C348 C 0.15514 0.81002 0.94476 0.0
H349 H 0.12395 0.77604 0.02664 0.0
H350 H 0.11794 0.76508 0.96075 0.0
S351 S 0.2171 0.89038 0.96669 0.0
N352 N 0.20353 0.8747 0.00704 0.0
N353 N 0.19755 0.86229 0.93594 0.0
C354 C 0.1792 0.83798 0.95816 0.0
C355 C 0.18226 0.84477 -0.00332 0.0
C356 C 0.00264 0.1632 0.07495 0.0
C357 C 0.03128 0.16787 0.10121 0.0
C358 C 0.96542 0.17275 0.08295 0.0
C359 C 0.95552 0.18792 0.11718 0.0
H360 H 0.00848 0.1495 0.04892 0.0
H361 H 0.94384 0.16528 0.06334 0.0
S362 S 0.01989 0.21143 0.19337 0.0
N363 N 0.04742 0.1932 0.16135 0.0
N364 N 0.97712 0.21121 0.17604 0.0
C365 C -0.01594 0.19636 0.14228 0.0
C366 C 0.02211 0.18644 0.13432 0.0
C367 C 0.83561 0.96903 0.1789 0.0
C368 C 0.80522 0.95841 0.15684 0.0
C369 C 0.84504 0.0073 0.183 0.0
C370 C 0.82407 0.03598 0.16554 0.0
H371 H 0.85491 0.9477 0.18907 0.0
H372 H 0.87117 0.01417 0.19653 0.0
S373 S 0.73789 0.0228 0.11076 0.0
N374 N 0.75108 0.97947 0.12198 0.0
N375 N 0.76847 0.05141 0.13025 0.0
C376 C 0.79082 0.02592 0.14769 0.0
C377 C 0.78147 -0.01301 0.14317 0.0
C378 C 0.95725 0.83965 0.07972 0.0
C379 C 0.93364 0.83825 0.11055 0.0
C380 C -0.00373 0.84073 0.08329 0.0
C381 C 0.01364 0.84019 0.11784 0.0
H382 H 0.94541 0.84158 0.05244 0.0
H383 H 0.01298 0.84385 0.05876 0.0
S384 S 0.96519 0.83425 0.20731 0.0
N385 N 0.9308 0.83418 0.17694 0.0
N386 N 0.00452 0.83617 0.18359 0.0
C387 C -0.00927 0.83642 0.14891 0.0
C388 C 0.95065 0.8354 0.14528 0.0
C389 C 0.14616 0.00662 0.18622 0.0
C390 C 0.11392 0.02082 0.16864 0.0
C391 C 0.14953 0.96794 0.19423 0.0
C392 C 0.12052 0.94285 0.18547 0.0
H393 H 0.17066 0.02423 0.18931 0.0
H394 H 0.17651 0.95702 0.20304 0.0
S395 S 0.02694 0.96799 0.14898 0.0
N396 N 0.04988 0.00839 0.14983 0.0
N397 N 0.05611 0.93592 0.16572 0.0
C398 C 0.08626 0.9578 0.17334 0.0
C399 C 0.08294 -0.0031 0.16476 0.0
C400 C 0.97135 0.7898 0.78491 0.0
C401 C 0.95476 0.82259 0.79993 0.0
C402 C 0.00967 0.78902 0.77621 0.0
C403 C 0.03195 0.82111 0.78195 0.0
H404 H 0.95589 0.76357 0.78396 0.0
H405 H 0.02267 0.76212 0.7692 0.0
S406 S -0.00056 0.91598 0.81212 0.0
N407 N 0.96166 0.88939 0.81403 0.0
N408 N 0.03336 0.88804 0.79676 0.0
C409 C 0.01439 0.85522 0.792 0.0
C410 C 0.97573 0.85593 0.80132 0.0
C411 C 0.15 0.96065 0.85984 0.0
C412 C 0.13267 0.94267 0.82997 0.0
C413 C 0.15055 0.00025 0.86274 0.0
C414 C 0.13386 0.02329 0.83588 0.0
H415 H 0.16081 0.94399 0.88238 0.0
H416 H 0.16195 0.01289 0.88738 0.0
S417 S 0.08614 -0.01003 0.75169 0.0
N418 N 0.09973 0.95067 0.77232 0.0
N419 N 0.10098 0.02525 0.77771 0.0
C420 C 0.11848 0.00571 0.80478 0.0
C421 C 0.11777 0.96529 0.80189 0.0
C422 C -0.01325 0.18642 0.81351 0.0
C423 C 0.00573 0.15241 0.80505 0.0
C424 C 0.94741 0.1883 0.81357 0.0
C425 C 0.92602 0.1564 0.80461 0.0
H426 H 0.00218 0.21032 0.82424 0.0
H427 H 0.93379 0.21358 0.82423 0.0
S428 S 0.96247 0.06235 0.77588 0.0
N429 N 0.00041 0.08747 0.7841 0.0
N430 N 0.92657 0.09127 0.78311 0.0
C431 C 0.94476 0.12361 0.79224 0.0
C432 C -0.0153 0.12153 0.79272 0.0
C433 C 0.85686 0.95313 0.86191 0.0
C434 C 0.82852 0.92612 0.85796 0.0
C435 C 0.85041 -0.00885 0.85381 0.0
C436 C 0.81508 0.00428 0.84211 0.0
H437 H 0.88482 0.94467 0.87033 0.0
H438 H 0.87374 0.01013 0.85642 0.0
S439 S 0.73058 0.94512 0.82923 0.0
N440 N 0.76337 0.91486 0.84248 0.0
N441 N 0.75074 -0.01298 0.82811 0.0
C442 C 0.78601 0.97772 0.83899 0.0
C443 C 0.79287 0.93851 0.8466 0.0
C444 C 0.68831 0.64843 0.4485 0.0
C445 C 0.65913 0.67182 0.43581 0.0
C446 C 0.69451 0.64401 0.4861 0.0
C447 C 0.67255 0.66387 0.51178 0.0
H448 H 0.70533 0.63225 0.42937 0.0
H449 H 0.71625 0.62463 0.49517 0.0
S450 S 0.59398 0.72974 0.49247 0.0
N451 N 0.60861 0.71556 0.45169 0.0
N452 N 0.62142 0.70825 0.52244 0.0
C453 C 0.64427 0.68834 0.49948 0.0
C454 C 0.63726 0.69207 0.46135 0.0
C455 C 0.31531 0.60122 0.503 0.0
C456 C 0.34238 0.62725 0.51491 0.0
C457 C 0.30873 0.59482 0.46543 0.0
C458 C 0.32898 0.6142 0.43847 0.0
H459 H 0.30089 0.58392 0.52279 0.0
H460 H 0.28933 0.57288 0.45745 0.0
S461 S 0.40199 0.68608 0.45538 0.0
N462 N 0.38859 0.6734 0.4968 0.0
N463 N 0.37619 0.66141 0.42633 0.0
C464 C 0.35475 0.6416 0.45005 0.0
C465 C 0.36148 0.64809 0.48826 0.0
C466 C 0.278 0.29881 0.45801 0.0
C467 C 0.31001 0.28119 0.44331 0.0
C468 C 0.2744 0.30389 0.49588 0.0
C469 C 0.30208 0.29034 0.51997 0.0
H470 H 0.25667 0.31052 0.44012 0.0
H471 H 0.25024 0.31923 0.50637 0.0
S472 S 0.38992 0.2403 0.49503 0.0
N473 N 0.36928 0.24921 0.45543 0.0
N474 N 0.36154 0.25737 0.52694 0.0
C475 C 0.33327 0.27109 0.50574 0.0
C476 C 0.33749 0.26688 0.46719 0.0
C477 C 0.67064 0.32704 0.45555 0.0
C478 C 0.64107 0.30477 0.44248 0.0
C479 C 0.67659 0.33162 0.4934 0.0
C480 C 0.65361 0.3136 0.51927 0.0
H481 H 0.68624 0.34454 0.43682 0.0
H482 H 0.69667 0.35252 0.50246 0.0
S483 S 0.5775 0.24638 0.49857 0.0
N484 N 0.59246 0.25999 0.45797 0.0
N485 N 0.60416 0.26821 0.52893 0.0
C486 C 0.62738 0.28742 0.50638 0.0
C487 C 0.62095 0.28315 0.46793 0.0
C488 C 0.52469 0.63106 0.63032 0.0
C489 C 0.54291 0.657 0.60786 0.0
C490 C 0.48669 0.63514 0.63826 0.0
C491 C 0.46532 0.66537 0.62408 0.0
H492 H 0.53964 0.6065 0.64066 0.0
H493 H 0.47372 0.61369 0.65498 0.0
S494 S 0.50092 0.74232 0.56549 0.0
N495 N 0.53791 0.71483 0.57263 0.0
N496 N 0.46587 0.723 0.58805 0.0
C497 C 0.48364 0.69264 0.60292 0.0
C498 C 0.52262 0.68822 0.59453 0.0
C499 C 0.28486 0.5206 0.63588 0.0
C500 C 0.31466 0.5304 0.65903 0.0
C501 C 0.27545 0.48252 0.63051 0.0
C502 C 0.2953 0.45338 0.64846 0.0
H503 H 0.27227 0.54169 0.61819 0.0
H504 H 0.25561 0.47562 0.60904 0.0
S505 S 0.36926 0.46561 0.71845 0.0
N506 N 0.35907 0.50906 0.70503 0.0
N507 N 0.3409 0.43749 0.69534 0.0
C508 C 0.32099 0.46338 0.67581 0.0
C509 C 0.33085 0.50207 0.68097 0.0
C510 C 0.4936 0.35223 0.58027 0.0
C511 C 0.51139 0.34616 0.61415 0.0
C512 C 0.45468 0.35007 0.57645 0.0
C513 C 0.43126 0.34193 0.60637 0.0
H514 H 0.50991 0.3597 0.55641 0.0
H515 H 0.44283 0.35576 0.54969 0.0
S516 S 0.46382 0.32177 0.70097 0.0
N517 N 0.50284 0.32986 0.67809 0.0
N518 N 0.42924 0.32592 0.67106 0.0
C519 C 0.44871 0.33408 0.64023 0.0
C520 C 0.48879 0.33616 0.64408 0.0
C521 C 0.66496 0.50507 0.6736 0.0
C522 C 0.63419 0.52278 0.65657 0.0
C523 C 0.66356 0.4666 0.68299 0.0
C524 C 0.63125 0.44524 0.67604 0.0
H525 H 0.69143 0.51965 0.67588 0.0
H526 H 0.68911 0.45262 0.69186 0.0
S527 S 0.54093 0.48087 0.63971 0.0
N528 N 0.56876 0.51795 0.63893 0.0
N529 N 0.56619 0.44592 0.65704 0.0
C530 C 0.59902 0.46396 0.66349 0.0
C531 C 0.60048 0.50279 0.65362 0.0
C532 C 0.45778 0.31095 0.27974 0.0
C533 C 0.44146 0.34154 0.29893 0.0
C534 C 0.49616 0.31079 0.27148 0.0
C535 C 0.51878 0.34142 0.28169 0.0
H536 H 0.44209 0.28524 0.2752 0.0
H537 H 0.50889 0.28488 0.26117 0.0
S538 S 0.48719 0.43207 0.32289 0.0
N539 N 0.44902 0.40601 0.32103 0.0
N540 N 0.52096 0.40583 0.3047 0.0
C541 C 0.50158 0.37419 0.2957 0.0
C542 C 0.4628 0.37424 0.30454 0.0
C543 C 0.61167 0.473 0.3824 0.0
C544 C 0.61686 0.45425 0.34869 0.0
C545 C 0.61315 0.51245 0.38523 0.0
C546 C 0.6196 0.53527 0.35442 0.0
H547 H 0.60507 0.45704 0.40676 0.0
H548 H 0.60788 0.52521 0.41181 0.0
S549 S 0.63704 0.50005 0.25989 0.0
N550 N 0.63071 0.46121 0.28398 0.0
N551 N 0.63328 0.53576 0.28915 0.0
C552 C 0.62682 0.51685 0.32074 0.0
C553 C 0.62548 0.47629 0.31791 0.0
C554 C 0.47222 0.67826 0.31536 0.0
C555 C 0.50279 0.6564 0.30262 0.0
C556 C 0.43527 0.66563 0.3112 0.0
C557 C 0.42801 0.63038 0.29486 0.0
H558 H 0.47714 0.70321 0.33202 0.0
H559 H 0.41292 0.68134 0.32462 0.0
S560 S 0.49766 0.56593 0.25142 0.0
N561 N 0.52289 0.60097 0.2682 0.0
N562 N 0.4536 0.57671 0.26098 0.0
C563 C 0.45793 0.61053 0.27834 0.0
C564 C 0.4954 0.62373 0.28202 0.0
C565 C 0.28346 0.42975 0.32102 0.0
C566 C 0.29317 0.42001 0.35717 0.0
C567 C 0.27548 0.46744 0.31165 0.0
C568 C 0.27611 0.49634 0.33822 0.0
H569 H 0.28521 0.40885 0.29924 0.0
H570 H 0.27177 0.47443 0.28301 0.0
S571 S 0.29321 0.485 0.4375 0.0
N572 N 0.2979 0.44183 0.42041 0.0
N573 N 0.28267 0.51245 0.40247 0.0
C574 C 0.28215 0.48652 0.37484 0.0
C575 C 0.29063 0.44833 0.38443 0.0
loop_
_geom_bond_atom_site_label_1
_geom_bond_atom_site_label_2
_geom_bond_distance
_geom_bond_site_symmetry_2
_ccdc_geom_bond_type
Mg0 O1 2.028 . S
Mg0 O7 1.986 . S
Mg0 O9 2.114 . S
Mg0 O10 2.251 . S
Mg0 O13 2.010 . S
O1 Mg0 2.028 . S
O1 C4 1.250 . S
O2 Mg3 2.028 . S
O2 C4 1.248 . S
Mg3 O2 2.028 . S
Mg3 O8 2.032 . S
Mg3 O10 2.079 . S
C4 O1 1.250 . S
C4 O2 1.248 . S
C5 O6 1.264 . S
C5 O13 1.249 . S
O6 C5 1.264 . S
O7 Mg0 1.986 . S
O7 C11 1.246 . S
O8 Mg3 2.032 . S
O8 C11 1.259 . S
O9 Mg0 2.114 . S
O9 C12 1.252 . S
O10 Mg0 2.251 . S
O10 Mg3 2.079 . S
O10 C12 1.273 . S
C11 O7 1.246 . S
C11 O8 1.259 . S
C12 O9 1.252 . S
C12 O10 1.273 . S
O13 Mg0 2.010 . S
O13 C5 1.249 . S
Mg14 O15 2.028 . S
Mg14 O21 1.986 . S
Mg14 O23 2.114 . S
Mg14 O24 2.251 . S
Mg14 O27 2.010 . S
O15 Mg14 2.028 . S
O15 C18 1.250 . S
O16 Mg17 2.028 . S
O16 C18 1.248 . S
Mg17 O16 2.028 . S
Mg17 O22 2.032 . S
Mg17 O24 2.079 . S
C18 O15 1.250 . S
C18 O16 1.248 . S
C19 O20 1.264 . S
C19 O27 1.249 . S
O20 C19 1.264 . S
O21 Mg14 1.986 . S
O21 C25 1.246 . S
O22 Mg17 2.032 . S
O22 C25 1.259 . S
O23 Mg14 2.114 . S
O23 C26 1.252 . S
O24 Mg14 2.251 . S
O24 Mg17 2.079 . S
O24 C26 1.273 . S
C25 O21 1.246 . S
C25 O22 1.259 . S
C26 O23 1.252 . S
C26 O24 1.273 . S
O27 Mg14 2.010 . S
O27 C19 1.249 . S
Mg28 O29 2.028 . S
Mg28 O35 1.986 . S
Mg28 O37 2.114 . S
Mg28 O38 2.251 . S
Mg28 O41 2.010 . S
O29 Mg28 2.028 . S
O29 C32 1.250 . S
O30 Mg31 2.028 . S
O30 C32 1.248 . S
Mg31 O30 2.028 . S
Mg31 O36 2.032 . S
Mg31 O38 2.079 . S
C32 O29 1.250 . S
C32 O30 1.248 . S
C33 O34 1.264 . S
C33 O41 1.249 . S
O34 C33 1.264 . S
O35 Mg28 1.986 . S
O35 C39 1.246 . S
O36 Mg31 2.032 . S
O36 C39 1.259 . S
O37 Mg28 2.114 . S
O37 C40 1.252 . S
O38 Mg28 2.251 . S
O38 Mg31 2.079 . S
O38 C40 1.273 . S
C39 O35 1.246 . S
C39 O36 1.259 . S
C40 O37 1.252 . S
C40 O38 1.273 . S
O41 Mg28 2.010 . S
O41 C33 1.249 . S
Mg42 O43 2.028 . S
Mg42 O49 1.986 . S
Mg42 O51 2.114 . S
Mg42 O52 2.251 . S
Mg42 O55 2.010 . S
O43 Mg42 2.028 . S
O43 C46 1.250 . S
O44 Mg45 2.028 . S
O44 C46 1.248 . S
Mg45 O44 2.028 . S
Mg45 O50 2.032 . S
Mg45 O52 2.079 . S
C46 O43 1.250 . S
C46 O44 1.248 . S
C47 O48 1.264 . S
C47 O55 1.249 . S
O48 C47 1.264 . S
O49 Mg42 1.986 . S
O49 C53 1.246 . S
O50 Mg45 2.032 . S
O50 C53 1.259 . S
O51 Mg42 2.114 . S
O51 C54 1.252 . S
O52 Mg42 2.251 . S
O52 Mg45 2.079 . S
O52 C54 1.273 . S
C53 O49 1.246 . S
C53 O50 1.259 . S
C54 O51 1.252 . S
C54 O52 1.273 . S
O55 Mg42 2.010 . S
O55 C47 1.249 . S
Mg56 O57 2.028 . S
Mg56 O63 1.986 . S
Mg56 O65 2.114 . S
Mg56 O66 2.251 . S
Mg56 O69 2.010 . S
O57 Mg56 2.028 . S
O57 C60 1.250 . S
O58 Mg59 2.028 . S
O58 C60 1.248 . S
Mg59 O58 2.028 . S
Mg59 O64 2.032 . S
Mg59 O66 2.079 . S
C60 O57 1.250 . S
C60 O58 1.248 . S
C61 O62 1.264 . S
C61 O69 1.249 . S
O62 C61 1.264 . S
O63 Mg56 1.986 . S
O63 C67 1.246 . S
O64 Mg59 2.032 . S
O64 C67 1.259 . S
O65 Mg56 2.114 . S
O65 C68 1.252 . S
O66 Mg56 2.251 . S
O66 Mg59 2.079 . S
O66 C68 1.273 . S
C67 O63 1.246 . S
C67 O64 1.259 . S
C68 O65 1.252 . S
C68 O66 1.273 . S
O69 Mg56 2.010 . S
O69 C61 1.249 . S
Mg70 O71 2.028 . S
Mg70 O77 1.986 . S
Mg70 O79 2.114 . S
Mg70 O80 2.251 . S
Mg70 O83 2.010 . S
O71 Mg70 2.028 . S
O71 C74 1.250 . S
O72 Mg73 2.028 . S
O72 C74 1.248 . S
Mg73 O72 2.028 . S
Mg73 O78 2.032 . S
Mg73 O80 2.079 . S
C74 O71 1.250 . S
C74 O72 1.248 . S
C75 O76 1.264 . S
C75 O83 1.249 . S
O76 C75 1.264 . S
O77 Mg70 1.986 . S
O77 C81 1.246 . S
O78 Mg73 2.032 . S
O78 C81 1.259 . S
O79 Mg70 2.114 . S
O79 C82 1.252 . S
O80 Mg70 2.251 . S
O80 Mg73 2.079 . S
O80 C82 1.273 . S
C81 O77 1.246 . S
C81 O78 1.259 . S
C82 O79 1.252 . S
C82 O80 1.273 . S
O83 Mg70 2.010 . S
O83 C75 1.249 . S
Mg84 O85 2.028 . S
Mg84 O91 1.986 . S
Mg84 O93 2.114 . S
Mg84 O94 2.251 . S
Mg84 O97 2.010 . S
O85 Mg84 2.028 . S
O85 C88 1.250 . S
O86 Mg87 2.028 . S
O86 C88 1.248 . S
Mg87 O86 2.028 . S
Mg87 O92 2.032 . S
Mg87 O94 2.079 . S
C88 O85 1.250 . S
C88 O86 1.248 . S
C89 O90 1.264 . S
C89 O97 1.249 . S
O90 C89 1.264 . S
O91 Mg84 1.986 . S
O91 C95 1.246 . S
O92 Mg87 2.032 . S
O92 C95 1.259 . S
O93 Mg84 2.114 . S
O93 C96 1.252 . S
O94 Mg84 2.251 . S
O94 Mg87 2.079 . S
O94 C96 1.273 . S
C95 O91 1.246 . S
C95 O92 1.259 . S
C96 O93 1.252 . S
C96 O94 1.273 . S
O97 Mg84 2.010 . S
O97 C89 1.249 . S
Mg98 O99 2.028 . S
Mg98 O105 1.986 . S
Mg98 O107 2.114 . S
Mg98 O108 2.251 . S
Mg98 O111 2.010 . S
O99 Mg98 2.028 . S
O99 C102 1.250 . S
O100 Mg101 2.028 . S
O100 C102 1.248 . S
Mg101 O100 2.028 . S
Mg101 O106 2.032 . S
Mg101 O108 2.079 . S
C102 O99 1.250 . S
C102 O100 1.248 . S
C103 O104 1.264 . S
C103 O111 1.249 . S
O104 C103 1.264 . S
O105 Mg98 1.986 . S
O105 C109 1.246 . S
O106 Mg101 2.032 . S
O106 C109 1.259 . S
O107 Mg98 2.114 . S
O107 C110 1.252 . S
O108 Mg98 2.251 . S
O108 Mg101 2.079 . S
O108 C110 1.273 . S
C109 O105 1.246 . S
C109 O106 1.259 . S
C110 O107 1.252 . S
C110 O108 1.273 . S
O111 Mg98 2.010 . S
O111 C103 1.249 . S
Mg112 O113 2.028 . S
Mg112 O119 1.986 . S
Mg112 O121 2.114 . S
Mg112 O122 2.251 . S
Mg112 O125 2.010 . S
O113 Mg112 2.028 . S
O113 C116 1.250 . S
O114 Mg115 2.028 . S
O114 C116 1.248 . S
Mg115 O114 2.028 . S
Mg115 O120 2.032 . S
Mg115 O122 2.079 . S
C116 O113 1.250 . S
C116 O114 1.248 . S
C117 O118 1.264 . S
C117 O125 1.249 . S
O118 C117 1.264 . S
O119 Mg112 1.986 . S
O119 C123 1.246 . S
O120 Mg115 2.032 . S
O120 C123 1.259 . S
O121 Mg112 2.114 . S
O121 C124 1.252 . S
O122 Mg112 2.251 . S
O122 Mg115 2.079 . S
O122 C124 1.273 . S
C123 O119 1.246 . S
C123 O120 1.259 . S
C124 O121 1.252 . S
C124 O122 1.273 . S
O125 Mg112 2.010 . S
O125 C117 1.249 . S
Mg126 O127 2.028 . S
Mg126 O133 1.986 . S
Mg126 O135 2.114 . S
Mg126 O136 2.251 . S
Mg126 O139 2.010 . S
O127 Mg126 2.028 . S
O127 C130 1.250 . S
O128 Mg129 2.028 . S
O128 C130 1.248 . S
Mg129 O128 2.028 . S
Mg129 O134 2.032 . S
Mg129 O136 2.079 . S
C130 O127 1.250 . S
C130 O128 1.248 . S
C131 O132 1.264 . S
C131 O139 1.249 . S
O132 C131 1.264 . S
O133 Mg126 1.986 . S
O133 C137 1.246 . S
O134 Mg129 2.032 . S
O134 C137 1.259 . S
O135 Mg126 2.114 . S
O135 C138 1.252 . S
O136 Mg126 2.251 . S
O136 Mg129 2.079 . S
O136 C138 1.273 . S
C137 O133 1.246 . S
C137 O134 1.259 . S
C138 O135 1.252 . S
C138 O136 1.273 . S
O139 Mg126 2.010 . S
O139 C131 1.249 . S
Mg140 O141 2.028 . S
Mg140 O147 1.986 . S
Mg140 O149 2.114 . S
Mg140 O150 2.251 . S
Mg140 O153 2.010 . S
O141 Mg140 2.028 . S
O141 C144 1.250 . S
O142 Mg143 2.028 . S
O142 C144 1.248 . S
Mg143 O142 2.028 . S
Mg143 O148 2.032 . S
Mg143 O150 2.079 . S
C144 O141 1.250 . S
C144 O142 1.248 . S
C145 O146 1.264 . S
C145 O153 1.249 . S
O146 C145 1.264 . S
O147 Mg140 1.986 . S
O147 C151 1.246 . S
O148 Mg143 2.032 . S
O148 C151 1.259 . S
O149 Mg140 2.114 . S
O149 C152 1.252 . S
O150 Mg140 2.251 . S
O150 Mg143 2.079 . S
O150 C152 1.273 . S
C151 O147 1.246 . S
C151 O148 1.259 . S
C152 O149 1.252 . S
C152 O150 1.273 . S
O153 Mg140 2.010 . S
O153 C145 1.249 . S
Mg154 O155 2.028 . S
Mg154 O161 1.986 . S
Mg154 O163 2.114 . S
Mg154 O164 2.251 . S
Mg154 O167 2.010 . S
O155 Mg154 2.028 . S
O155 C158 1.250 . S
O156 Mg157 2.028 . S
O156 C158 1.248 . S
Mg157 O156 2.028 . S
Mg157 O162 2.032 . S
Mg157 O164 2.079 . S
C158 O155 1.250 . S
C158 O156 1.248 . S
C159 O160 1.264 . S
C159 O167 1.249 . S
O160 C159 1.264 . S
O161 Mg154 1.986 . S
O161 C165 1.246 . S
O162 Mg157 2.032 . S
O162 C165 1.259 . S
O163 Mg154 2.114 . S
O163 C166 1.252 . S
O164 Mg154 2.251 . S
O164 Mg157 2.079 . S
O164 C166 1.273 . S
C165 O161 1.246 . S
C165 O162 1.259 . S
C166 O163 1.252 . S
C166 O164 1.273 . S
O167 Mg154 2.010 . S
O167 C159 1.249 . S
Mg168 O169 2.028 . S
Mg168 O175 1.986 . S
Mg168 O177 2.114 . S
Mg168 O178 2.251 . S
Mg168 O181 2.010 . S
O169 Mg168 2.028 . S
O169 C172 1.250 . S
O170 Mg171 2.028 . S
O170 C172 1.248 . S
Mg171 O170 2.028 . S
Mg171 O176 2.032 . S
Mg171 O178 2.079 . S
C172 O169 1.250 . S
C172 O170 1.248 . S
C173 O174 1.264 . S
C173 O181 1.249 . S
O174 C173 1.264 . S
O175 Mg168 1.986 . S
O175 C179 1.246 . S
O176 Mg171 2.032 . S
O176 C179 1.259 . S
O177 Mg168 2.114 . S
O177 C180 1.252 . S
O178 Mg168 2.251 . S
O178 Mg171 2.079 . S
O178 C180 1.273 . S
C179 O175 1.246 . S
C179 O176 1.259 . S
C180 O177 1.252 . S
C180 O178 1.273 . S
O181 Mg168 2.010 . S
O181 C173 1.249 . S
Mg182 O183 2.028 . S
Mg182 O189 1.986 . S
Mg182 O191 2.114 . S
Mg182 O192 2.251 . S
Mg182 O195 2.010 . S
O183 Mg182 2.028 . S
O183 C186 1.250 . S
O184 Mg185 2.028 . S
O184 C186 1.248 . S
Mg185 O184 2.028 . S
Mg185 O190 2.032 . S
Mg185 O192 2.079 . S
C186 O183 1.250 . S
C186 O184 1.248 . S
C187 O188 1.264 . S
C187 O195 1.249 . S
O188 C187 1.264 . S
O189 Mg182 1.986 . S
O189 C193 1.246 . S
O190 Mg185 2.032 . S
O190 C193 1.259 . S
O191 Mg182 2.114 . S
O191 C194 1.252 . S
O192 Mg182 2.251 . S
O192 Mg185 2.079 . S
O192 C194 1.273 . S
C193 O189 1.246 . S
C193 O190 1.259 . S
C194 O191 1.252 . S
C194 O192 1.273 . S
O195 Mg182 2.010 . S
O195 C187 1.249 . S
Mg196 O197 2.028 . S
Mg196 O203 1.986 . S
Mg196 O205 2.114 . S
Mg196 O206 2.251 . S
Mg196 O209 2.010 . S
O197 Mg196 2.028 . S
O197 C200 1.250 . S
O198 Mg199 2.028 . S
O198 C200 1.248 . S
Mg199 O198 2.028 . S
Mg199 O204 2.032 . S
Mg199 O206 2.079 . S
C200 O197 1.250 . S
C200 O198 1.248 . S
C201 O202 1.264 . S
C201 O209 1.249 . S
O202 C201 1.264 . S
O203 Mg196 1.986 . S
O203 C207 1.246 . S
O204 Mg199 2.032 . S
O204 C207 1.259 . S
O205 Mg196 2.114 . S
O205 C208 1.252 . S
O206 Mg196 2.251 . S
O206 Mg199 2.079 . S
O206 C208 1.273 . S
C207 O203 1.246 . S
C207 O204 1.259 . S
C208 O205 1.252 . S
C208 O206 1.273 . S
O209 Mg196 2.010 . S
O209 C201 1.249 . S
Mg210 O211 2.028 . S
Mg210 O217 1.986 . S
Mg210 O219 2.114 . S
Mg210 O220 2.251 . S
Mg210 O223 2.010 . S
O211 Mg210 2.028 . S
O211 C214 1.250 . S
O212 Mg213 2.028 . S
O212 C214 1.248 . S
Mg213 O212 2.028 . S
Mg213 O218 2.032 . S
Mg213 O220 2.079 . S
C214 O211 1.250 . S
C214 O212 1.248 . S
C215 O216 1.264 . S
C215 O223 1.249 . S
O216 C215 1.264 . S
O217 Mg210 1.986 . S
O217 C221 1.246 . S
O218 Mg213 2.032 . S
O218 C221 1.259 . S
O219 Mg210 2.114 . S
O219 C222 1.252 . S
O220 Mg210 2.251 . S
O220 Mg213 2.079 . S
O220 C222 1.273 . S
C221 O217 1.246 . S
C221 O218 1.259 . S
C222 O219 1.252 . S
C222 O220 1.273 . S
O223 Mg210 2.010 . S
O223 C215 1.249 . S
C224 C225 1.369 . S
C224 C226 1.419 . S
C224 H228 0.930 . S
C225 C224 1.369 . S
C225 C234 1.429 . S
C226 C224 1.419 . S
C226 C227 1.363 . S
C226 H229 0.929 . S
C227 C226 1.363 . S
C227 C233 1.428 . S
H228 C224 0.930 . S
H229 C226 0.929 . S
S230 N231 1.613 . S
S230 N232 1.610 . S
N231 S230 1.613 . S
N231 C234 1.350 . S
N232 S230 1.610 . S
N232 C233 1.351 . S
C233 C227 1.428 . S
C233 N232 1.351 . S
C233 C234 1.434 . S
C234 C225 1.429 . S
C234 N231 1.350 . S
C234 C233 1.434 . S
C235 C236 1.369 . S
C235 C237 1.419 . S
C235 H239 0.930 . S
C236 C235 1.369 . S
C236 C245 1.429 . S
C237 C235 1.419 . S
C237 C238 1.363 . S
C237 H240 0.929 . S
C238 C237 1.363 . S
C238 C244 1.428 . S
H239 C235 0.930 . S
H240 C237 0.929 . S
S241 N242 1.613 . S
S241 N243 1.610 . S
N242 S241 1.613 . S
N242 C245 1.350 . S
N243 S241 1.610 . S
N243 C244 1.351 . S
C244 C238 1.428 . S
C244 N243 1.351 . S
C244 C245 1.434 . S
C245 C236 1.429 . S
C245 N242 1.350 . S
C245 C244 1.434 . S
C246 C247 1.369 . S
C246 C248 1.419 . S
C246 H250 0.930 . S
C247 C246 1.369 . S
C247 C256 1.429 . S
C248 C246 1.419 . S
C248 C249 1.363 . S
C248 H251 0.929 . S
C249 C248 1.363 . S
C249 C255 1.428 . S
H250 C246 0.930 . S
H251 C248 0.929 . S
S252 N253 1.613 . S
S252 N254 1.610 . S
N253 S252 1.613 . S
N253 C256 1.350 . S
N254 S252 1.610 . S
N254 C255 1.351 . S
C255 C249 1.428 . S
C255 N254 1.351 . S
C255 C256 1.434 . S
C256 C247 1.429 . S
C256 N253 1.350 . S
C256 C255 1.434 . S
C257 C258 1.369 . S
C257 C259 1.419 . S
C257 H261 0.930 . S
C258 C257 1.369 . S
C258 C267 1.429 . S
C259 C257 1.419 . S
C259 C260 1.363 . S
C259 H262 0.929 . S
C260 C259 1.363 . S
C260 C266 1.428 . S
H261 C257 0.930 . S
H262 C259 0.929 . S
S263 N264 1.613 . S
S263 N265 1.610 . S
N264 S263 1.613 . S
N264 C267 1.350 . S
N265 S263 1.610 . S
N265 C266 1.351 . S
C266 C260 1.428 . S
C266 N265 1.351 . S
C266 C267 1.434 . S
C267 C258 1.429 . S
C267 N264 1.350 . S
C267 C266 1.434 . S
C268 C269 1.369 . S
C268 C270 1.419 . S
C268 H272 0.930 . S
C269 C268 1.369 . S
C269 C278 1.429 . S
C270 C268 1.419 . S
C270 C271 1.363 . S
C270 H273 0.929 . S
C271 C270 1.363 . S
C271 C277 1.428 . S
H272 C268 0.930 . S
H273 C270 0.929 . S
S274 N275 1.613 . S
S274 N276 1.610 . S
N275 S274 1.613 . S
N275 C278 1.350 . S
N276 S274 1.610 . S
N276 C277 1.351 . S
C277 C271 1.428 . S
C277 N276 1.351 . S
C277 C278 1.434 . S
C278 C269 1.429 . S
C278 N275 1.350 . S
C278 C277 1.434 . S
C279 C280 1.369 . S
C279 C281 1.419 . S
C279 H283 0.930 . S
C280 C279 1.369 . S
C280 C289 1.429 . S
C281 C279 1.419 . S
C281 C282 1.363 . S
C281 H284 0.929 . S
C282 C281 1.363 . S
C282 C288 1.428 . S
H283 C279 0.930 . S
H284 C281 0.929 . S
S285 N286 1.613 . S
S285 N287 1.610 . S
N286 S285 1.613 . S
N286 C289 1.350 . S
N287 S285 1.610 . S
N287 C288 1.351 . S
C288 C282 1.428 . S
C288 N287 1.351 . S
C288 C289 1.434 . S
C289 C280 1.429 . S
C289 N286 1.350 . S
C289 C288 1.434 . S
C290 C291 1.369 . S
C290 C292 1.419 . S
C290 H294 0.930 . S
C291 C290 1.369 . S
C291 C300 1.429 . S
C292 C290 1.419 . S
C292 C293 1.363 . S
C292 H295 0.929 . S
C293 C292 1.363 . S
C293 C299 1.428 . S
H294 C290 0.930 . S
H295 C292 0.929 . S
S296 N297 1.613 . S
S296 N298 1.610 . S
N297 S296 1.613 . S
N297 C300 1.350 . S
N298 S296 1.610 . S
N298 C299 1.351 . S
C299 C293 1.428 . S
C299 N298 1.351 . S
C299 C300 1.434 . S
C300 C291 1.429 . S
C300 N297 1.350 . S
C300 C299 1.434 . S
C301 C302 1.369 . S
C301 C303 1.419 . S
C301 H305 0.930 . S
C302 C301 1.369 . S
C302 C311 1.429 . S
C303 C301 1.419 . S
C303 C304 1.363 . S
C303 H306 0.929 . S
C304 C303 1.363 . S
C304 C310 1.428 . S
H305 C301 0.930 . S
H306 C303 0.929 . S
S307 N308 1.613 . S
S307 N309 1.610 . S
N308 S307 1.613 . S
N308 C311 1.350 . S
N309 S307 1.610 . S
N309 C310 1.351 . S
C310 C304 1.428 . S
C310 N309 1.351 . S
C310 C311 1.434 . S
C311 C302 1.429 . S
C311 N308 1.350 . S
C311 C310 1.434 . S
C312 C313 1.369 . S
C312 C314 1.419 1_556 S
C312 H316 0.930 . S
C313 C312 1.369 . S
C313 C322 1.429 . S
C314 C312 1.419 1_554 S
C314 C315 1.363 . S
C314 H317 0.929 . S
C315 C314 1.363 . S
C315 C321 1.428 . S
H316 C312 0.930 . S
H317 C314 0.929 . S
S318 N319 1.613 1_554 S
S318 N320 1.610 . S
N319 S318 1.613 1_556 S
N319 C322 1.350 . S
N320 S318 1.610 . S
N320 C321 1.351 . S
C321 C315 1.428 . S
C321 N320 1.351 . S
C321 C322 1.434 1_554 S
C322 C313 1.429 . S
C322 N319 1.350 . S
C322 C321 1.434 1_556 S
C323 C324 1.369 . S
C323 C325 1.419 1_556 S
C323 H327 0.930 . S
C324 C323 1.369 . S
C324 C333 1.429 . S
C325 C323 1.419 1_554 S
C325 C326 1.363 . S
C325 H328 0.929 . S
C326 C325 1.363 . S
C326 C332 1.428 . S
H327 C323 0.930 . S
H328 C325 0.929 . S
S329 N330 1.613 1_554 S
S329 N331 1.610 . S
N330 S329 1.613 1_556 S
N330 C333 1.350 . S
N331 S329 1.610 . S
N331 C332 1.351 . S
C332 C326 1.428 . S
C332 N331 1.351 . S
C332 C333 1.434 1_554 S
C333 C324 1.429 . S
C333 N330 1.350 . S
C333 C332 1.434 1_556 S
C334 C335 1.369 . S
C334 C336 1.419 1_556 S
C334 H338 0.930 . S
C335 C334 1.369 . S
C335 C344 1.429 . S
C336 C334 1.419 1_554 S
C336 C337 1.363 . S
C336 H339 0.929 . S
C337 C336 1.363 . S
C337 C343 1.428 . S
H338 C334 0.930 . S
H339 C336 0.929 . S
S340 N341 1.613 1_554 S
S340 N342 1.610 . S
N341 S340 1.613 1_556 S
N341 C344 1.350 . S
N342 S340 1.610 . S
N342 C343 1.351 . S
C343 C337 1.428 . S
C343 N342 1.351 . S
C343 C344 1.434 1_554 S
C344 C335 1.429 . S
C344 N341 1.350 . S
C344 C343 1.434 1_556 S
C345 C346 1.369 . S
C345 C347 1.419 1_554 S
C345 H349 0.930 . S
C346 C345 1.369 . S
C346 C355 1.429 . S
C347 C345 1.419 1_556 S
C347 C348 1.363 . S
C347 H350 0.929 . S
C348 C347 1.363 . S
C348 C354 1.428 . S
H349 C345 0.930 . S
H350 C347 0.929 . S
S351 N352 1.613 . S
S351 N353 1.610 1_554 S
N352 S351 1.613 . S
N352 C355 1.350 . S
N353 S351 1.610 1_556 S
N353 C354 1.351 . S
C354 C348 1.428 . S
C354 N353 1.351 . S
C354 C355 1.434 1_556 S
C355 C346 1.429 . S
C355 N352 1.350 . S
C355 C354 1.434 1_554 S
C356 C357 1.369 . S
C356 C358 1.419 1_455 S
C356 H360 0.930 . S
C357 C356 1.369 . S
C357 C366 1.429 . S
C358 C356 1.419 1_655 S
C358 C359 1.363 . S
C358 H361 0.929 . S
C359 C358 1.363 . S
C359 C365 1.428 . S
H360 C356 0.930 . S
H361 C358 0.929 . S
S362 N363 1.613 . S
S362 N364 1.610 1_455 S
N363 S362 1.613 . S
N363 C366 1.350 . S
N364 S362 1.610 1_655 S
N364 C365 1.351 . S
C365 C359 1.428 . S
C365 N364 1.351 . S
C365 C366 1.434 1_655 S
C366 C357 1.429 . S
C366 N363 1.350 . S
C366 C365 1.434 1_455 S
C367 C368 1.369 . S
C367 C369 1.419 1_565 S
C367 H371 0.930 . S
C368 C367 1.369 . S
C368 C377 1.429 . S
C369 C367 1.419 1_545 S
C369 C370 1.363 . S
C369 H372 0.929 . S
C370 C369 1.363 . S
C370 C376 1.428 . S
H371 C367 0.930 . S
H372 C369 0.929 . S
S373 N374 1.613 . S
S373 N375 1.610 1_565 S
N374 S373 1.613 . S
N374 C377 1.350 . S
N375 S373 1.610 1_545 S
N375 C376 1.351 . S
C376 C370 1.428 . S
C376 N375 1.351 . S
C376 C377 1.434 1_545 S
C377 C368 1.429 . S
C377 N374 1.350 . S
C377 C376 1.434 1_565 S
C378 C379 1.369 . S
C378 C380 1.419 1_655 S
C378 H382 0.930 . S
C379 C378 1.369 . S
C379 C388 1.429 . S
C380 C378 1.419 1_455 S
C380 C381 1.363 . S
C380 H383 0.929 . S
C381 C380 1.363 . S
C381 C387 1.428 . S
H382 C378 0.930 . S
H383 C380 0.929 . S
S384 N385 1.613 . S
S384 N386 1.610 1_655 S
N385 S384 1.613 . S
N385 C388 1.350 . S
N386 S384 1.610 1_455 S
N386 C387 1.351 . S
C387 C381 1.428 . S
C387 N386 1.351 . S
C387 C388 1.434 1_455 S
C388 C379 1.429 . S
C388 N385 1.350 . S
C388 C387 1.434 1_655 S
C389 C390 1.369 . S
C389 C391 1.419 1_545 S
C389 H393 0.930 . S
C390 C389 1.369 . S
C390 C399 1.429 . S
C391 C389 1.419 1_565 S
C391 C392 1.363 . S
C391 H394 0.929 . S
C392 C391 1.363 . S
C392 C398 1.428 . S
H393 C389 0.930 . S
H394 C391 0.929 . S
S395 N396 1.613 . S
S395 N397 1.610 1_545 S
N396 S395 1.613 . S
N396 C399 1.350 . S
N397 S395 1.610 1_565 S
N397 C398 1.351 . S
C398 C392 1.428 . S
C398 N397 1.351 . S
C398 C399 1.434 1_565 S
C399 C390 1.429 . S
C399 N396 1.350 . S
C399 C398 1.434 1_545 S
C400 C401 1.369 . S
C400 C402 1.419 1_655 S
C400 H404 0.930 . S
C401 C400 1.369 . S
C401 C410 1.429 . S
C402 C400 1.419 1_455 S
C402 C403 1.363 . S
C402 H405 0.929 . S
C403 C402 1.363 . S
C403 C409 1.428 . S
H404 C400 0.930 . S
H405 C402 0.929 . S
S406 N407 1.613 1_455 S
S406 N408 1.610 . S
N407 S406 1.613 1_655 S
N407 C410 1.350 . S
N408 S406 1.610 . S
N408 C409 1.351 . S
C409 C403 1.428 . S
C409 N408 1.351 . S
C409 C410 1.434 1_455 S
C410 C401 1.429 . S
C410 N407 1.350 . S
C410 C409 1.434 1_655 S
C411 C412 1.369 . S
C411 C413 1.419 1_565 S
C411 H415 0.930 . S
C412 C411 1.369 . S
C412 C421 1.429 . S
C413 C411 1.419 1_545 S
C413 C414 1.363 . S
C413 H416 0.929 . S
C414 C413 1.363 . S
C414 C420 1.428 . S
H415 C411 0.930 . S
H416 C413 0.929 . S
S417 N418 1.613 1_545 S
S417 N419 1.610 . S
N418 S417 1.613 1_565 S
N418 C421 1.350 . S
N419 S417 1.610 . S
N419 C420 1.351 . S
C420 C414 1.428 . S
C420 N419 1.351 . S
C420 C421 1.434 1_545 S
C421 C412 1.429 . S
C421 N418 1.350 . S
C421 C420 1.434 1_565 S
C422 C423 1.369 . S
C422 C424 1.419 1_455 S
C422 H426 0.930 . S
C423 C422 1.369 . S
C423 C432 1.429 . S
C424 C422 1.419 1_655 S
C424 C425 1.363 . S
C424 H427 0.929 . S
C425 C424 1.363 . S
C425 C431 1.428 . S
H426 C422 0.930 . S
H427 C424 0.929 . S
S428 N429 1.613 1_655 S
S428 N430 1.610 . S
N429 S428 1.613 1_455 S
N429 C432 1.350 . S
N430 S428 1.610 . S
N430 C431 1.351 . S
C431 C425 1.428 . S
C431 N430 1.351 . S
C431 C432 1.434 1_655 S
C432 C423 1.429 . S
C432 N429 1.350 . S
C432 C431 1.434 1_455 S
C433 C434 1.369 . S
C433 C435 1.419 1_565 S
C433 H437 0.930 . S
C434 C433 1.369 . S
C434 C443 1.429 . S
C435 C433 1.419 1_545 S
C435 C436 1.363 . S
C435 H438 0.929 . S
C436 C435 1.363 . S
C436 C442 1.428 . S
H437 C433 0.930 . S
H438 C435 0.929 . S
S439 N440 1.613 . S
S439 N441 1.610 1_565 S
N440 S439 1.613 . S
N440 C443 1.350 . S
N441 S439 1.610 1_545 S
N441 C442 1.351 . S
C442 C436 1.428 . S
C442 N441 1.351 . S
C442 C443 1.434 1_545 S
C443 C434 1.429 . S
C443 N440 1.350 . S
C443 C442 1.434 1_565 S
C444 C445 1.369 . S
C444 C446 1.419 . S
C444 H448 0.930 . S
C445 C444 1.369 . S
C445 C454 1.429 . S
C446 C444 1.419 . S
C446 C447 1.363 . S
C446 H449 0.929 . S
C447 C446 1.363 . S
C447 C453 1.428 . S
H448 C444 0.930 . S
H449 C446 0.929 . S
S450 N451 1.613 . S
S450 N452 1.610 . S
N451 S450 1.613 . S
N451 C454 1.350 . S
N452 S450 1.610 . S
N452 C453 1.351 . S
C453 C447 1.428 . S
C453 N452 1.351 . S
C453 C454 1.434 . S
C454 C445 1.429 . S
C454 N451 1.350 . S
C454 C453 1.434 . S
C455 C456 1.369 . S
C455 C457 1.419 . S
C455 H459 0.930 . S
C456 C455 1.369 . S
C456 C465 1.429 . S
C457 C455 1.419 . S
C457 C458 1.363 . S
C457 H460 0.929 . S
C458 C457 1.363 . S
C458 C464 1.428 . S
H459 C455 0.930 . S
H460 C457 0.929 . S
S461 N462 1.613 . S
S461 N463 1.610 . S
N462 S461 1.613 . S
N462 C465 1.350 . S
N463 S461 1.610 . S
N463 C464 1.351 . S
C464 C458 1.428 . S
C464 N463 1.351 . S
C464 C465 1.434 . S
C465 C456 1.429 . S
C465 N462 1.350 . S
C465 C464 1.434 . S
C466 C467 1.369 . S
C466 C468 1.419 . S
C466 H470 0.930 . S
C467 C466 1.369 . S
C467 C476 1.429 . S
C468 C466 1.419 . S
C468 C469 1.363 . S
C468 H471 0.929 . S
C469 C468 1.363 . S
C469 C475 1.428 . S
H470 C466 0.930 . S
H471 C468 0.929 . S
S472 N473 1.613 . S
S472 N474 1.610 . S
N473 S472 1.613 . S
N473 C476 1.350 . S
N474 S472 1.610 . S
N474 C475 1.351 . S
C475 C469 1.428 . S
C475 N474 1.351 . S
C475 C476 1.434 . S
C476 C467 1.429 . S
C476 N473 1.350 . S
C476 C475 1.434 . S
C477 C478 1.369 . S
C477 C479 1.419 . S
C477 H481 0.930 . S
C478 C477 1.369 . S
C478 C487 1.429 . S
C479 C477 1.419 . S
C479 C480 1.363 . S
C479 H482 0.929 . S
C480 C479 1.363 . S
C480 C486 1.428 . S
H481 C477 0.930 . S
H482 C479 0.929 . S
S483 N484 1.613 . S
S483 N485 1.610 . S
N484 S483 1.613 . S
N484 C487 1.350 . S
N485 S483 1.610 . S
N485 C486 1.351 . S
C486 C480 1.428 . S
C486 N485 1.351 . S
C486 C487 1.434 . S
C487 C478 1.429 . S
C487 N484 1.350 . S
C487 C486 1.434 . S
C488 C489 1.369 . S
C488 C490 1.419 . S
C488 H492 0.930 . S
C489 C488 1.369 . S
C489 C498 1.429 . S
C490 C488 1.419 . S
C490 C491 1.363 . S
C490 H493 0.929 . S
C491 C490 1.363 . S
C491 C497 1.428 . S
H492 C488 0.930 . S
H493 C490 0.929 . S
S494 N495 1.613 . S
S494 N496 1.610 . S
N495 S494 1.613 . S
N495 C498 1.350 . S
N496 S494 1.610 . S
N496 C497 1.351 . S
C497 C491 1.428 . S
C497 N496 1.351 . S
C497 C498 1.434 . S
C498 C489 1.429 . S
C498 N495 1.350 . S
C498 C497 1.434 . S
C499 C500 1.369 . S
C499 C501 1.419 . S
C499 H503 0.930 . S
C500 C499 1.369 . S
C500 C509 1.429 . S
C501 C499 1.419 . S
C501 C502 1.363 . S
C501 H504 0.929 . S
C502 C501 1.363 . S
C502 C508 1.428 . S
H503 C499 0.930 . S
H504 C501 0.929 . S
S505 N506 1.613 . S
S505 N507 1.610 . S
N506 S505 1.613 . S
N506 C509 1.350 . S
N507 S505 1.610 . S
N507 C508 1.351 . S
C508 C502 1.428 . S
C508 N507 1.351 . S
C508 C509 1.434 . S
C509 C500 1.429 . S
C509 N506 1.350 . S
C509 C508 1.434 . S
C510 C511 1.369 . S
C510 C512 1.419 . S
C510 H514 0.930 . S
C511 C510 1.369 . S
C511 C520 1.429 . S
C512 C510 1.419 . S
C512 C513 1.363 . S
C512 H515 0.929 . S
C513 C512 1.363 . S
C513 C519 1.428 . S
H514 C510 0.930 . S
H515 C512 0.929 . S
S516 N517 1.613 . S
S516 N518 1.610 . S
N517 S516 1.613 . S
N517 C520 1.350 . S
N518 S516 1.610 . S
N518 C519 1.351 . S
C519 C513 1.428 . S
C519 N518 1.351 . S
C519 C520 1.434 . S
C520 C511 1.429 . S
C520 N517 1.350 . S
C520 C519 1.434 . S
C521 C522 1.369 . S
C521 C523 1.419 . S
C521 H525 0.930 . S
C522 C521 1.369 . S
C522 C531 1.429 . S
C523 C521 1.419 . S
C523 C524 1.363 . S
C523 H526 0.929 . S
C524 C523 1.363 . S
C524 C530 1.428 . S
H525 C521 0.930 . S
H526 C523 0.929 . S
S527 N528 1.613 . S
S527 N529 1.610 . S
N528 S527 1.613 . S
N528 C531 1.350 . S
N529 S527 1.610 . S
N529 C530 1.351 . S
C530 C524 1.428 . S
C530 N529 1.351 . S
C530 C531 1.434 . S
C531 C522 1.429 . S
C531 N528 1.350 . S
C531 C530 1.434 . S
C532 C533 1.369 . S
C532 C534 1.419 . S
C532 H536 0.930 . S
C533 C532 1.369 . S
C533 C542 1.429 . S
C534 C532 1.419 . S
C534 C535 1.363 . S
C534 H537 0.929 . S
C535 C534 1.363 . S
C535 C541 1.428 . S
H536 C532 0.930 . S
H537 C534 0.929 . S
S538 N539 1.613 . S
S538 N540 1.610 . S
N539 S538 1.613 . S
N539 C542 1.350 . S
N540 S538 1.610 . S
N540 C541 1.351 . S
C541 C535 1.428 . S
C541 N540 1.351 . S
C541 C542 1.434 . S
C542 C533 1.429 . S
C542 N539 1.350 . S
C542 C541 1.434 . S
C543 C544 1.369 . S
C543 C545 1.419 . S
C543 H547 0.930 . S
C544 C543 1.369 . S
C544 C553 1.429 . S
C545 C543 1.419 . S
C545 C546 1.363 . S
C545 H548 0.929 . S
C546 C545 1.363 . S
C546 C552 1.428 . S
H547 C543 0.930 . S
H548 C545 0.929 . S
S549 N550 1.613 . S
S549 N551 1.610 . S
N550 S549 1.613 . S
N550 C553 1.350 . S
N551 S549 1.610 . S
N551 C552 1.351 . S
C552 C546 1.428 . S
C552 N551 1.351 . S
C552 C553 1.434 . S
C553 C544 1.429 . S
C553 N550 1.350 . S
C553 C552 1.434 . S
C554 C555 1.369 . S
C554 C556 1.419 . S
C554 H558 0.930 . S
C555 C554 1.369 . S
C555 C564 1.429 . S
C556 C554 1.419 . S
C556 C557 1.363 . S
C556 H559 0.929 . S
C557 C556 1.363 . S
C557 C563 1.428 . S
H558 C554 0.930 . S
H559 C556 0.929 . S
S560 N561 1.613 . S
S560 N562 1.610 . S
N561 S560 1.613 . S
N561 C564 1.350 . S
N562 S560 1.610 . S
N562 C563 1.351 . S
C563 C557 1.428 . S
C563 N562 1.351 . S
C563 C564 1.434 . S
C564 C555 1.429 . S
C564 N561 1.350 . S
C564 C563 1.434 . S
C565 C566 1.369 . S
C565 C567 1.419 . S
C565 H569 0.930 . S
C566 C565 1.369 . S
C566 C575 1.429 . S
C567 C565 1.419 . S
C567 C568 1.363 . S
C567 H570 0.929 . S
C568 C567 1.363 . S
C568 C574 1.428 . S
H569 C565 0.930 . S
H570 C567 0.929 . S
S571 N572 1.613 . S
S571 N573 1.610 . S
N572 S571 1.613 . S
N572 C575 1.350 . S
N573 S571 1.610 . S
N573 C574 1.351 . S
C574 C568 1.428 . S
C574 N573 1.351 . S
C574 C575 1.434 . S
C575 C566 1.429 . S
C575 N572 1.350 . S
C575 C574 1.434 . S
C225 C215 0.918 . S
C227 C5 0.916 . S
C236 C173 0.996 . S
C238 C19 0.973 . S
C247 C33 0.957 . S
C249 C187 0.966 . S
C258 C201 0.965 . S
C260 C47 0.980 . S
C269 C131 0.964 . S
C271 C61 0.980 . S
C280 C75 0.954 . S
C282 C145 0.965 . S
C291 C89 0.973 . S
C293 C159 0.997 . S
C302 C103 0.921 . S
C304 C117 0.916 . S
C313 C82 1.372 . S
C315 C12 1.369 . S
C324 C88 1.548 . S
C326 C18 1.546 . S
C335 C110 1.369 . S
C337 C40 1.371 . S
C346 C53 1.365 . S
C348 C67 1.367 . S
C357 C4 1.383 . S
C359 C26 1.462 . S
C368 C39 1.343 . S
C370 C25 1.356 . S
C379 C32 1.488 . S
C381 C46 1.484 . S
C390 C11 1.313 . S
C392 C54 1.356 . S
C401 C109 1.308 . S
C403 C68 1.354 . S
C412 C60 1.484 . S
C414 C74 1.486 . S
C423 C81 1.341 . S
C425 C95 1.353 . S
C434 C102 1.386 . S
C436 C96 1.463 . S
C445 C194 1.371 . S
C447 C124 1.373 . S
C456 C130 1.544 . S
C458 C200 1.543 . S
C467 C222 1.371 . S
C469 C152 1.374 . S
C478 C179 1.365 . S
C480 C165 1.367 . S
C489 C116 1.386 . S
C491 C138 1.463 . S
C500 C137 1.352 . S
C502 C151 1.343 . S
C511 C158 1.488 . S
C513 C144 1.489 . S
C522 C123 1.315 . S
C524 C166 1.356 . S
C533 C221 1.313 . S
C535 C180 1.356 . S
C544 C172 1.488 . S
C546 C186 1.490 . S
C555 C193 1.348 . S
C557 C207 1.357 . S
C566 C214 1.380 . S
C568 C208 1.463 . S
