# Generated by pormake.
# Topology fnp, (5)-cn, num edge types: 1
# Building blocks:
#     Node 0, Type 0, BuildingBlock: BEQFEK_clean_sbu_0, # of connection points: 5
#     Node 1, Type 0, BuildingBlock: BEQFEK_clean_sbu_0, # of connection points: 5
#     Node 2, Type 0, BuildingBlock: BEQFEK_clean_sbu_0, # of connection points: 5
#     Node 3, Type 0, BuildingBlock: BEQFEK_clean_sbu_0, # of connection points: 5
#     Node 4, Type 0, BuildingBlock: BEQFEK_clean_sbu_0, # of connection points: 5
#     Node 5, Type 0, BuildingBlock: BEQFEK_clean_sbu_0, # of connection points: 5
#     Node 6, Type 0, BuildingBlock: BEQFEK_clean_sbu_0, # of connection points: 5
#     Node 7, Type 0, BuildingBlock: BEQFEK_clean_sbu_0, # of connection points: 5
#     Node 8, Type 0, BuildingBlock: BEQFEK_clean_sbu_0, # of connection points: 5
#     Node 9, Type 0, BuildingBlock: BEQFEK_clean_sbu_0, # of connection points: 5
#     Node 10, Type 0, BuildingBlock: BEQFEK_clean_sbu_0, # of connection points: 5
#     Node 11, Type 0, BuildingBlock: BEQFEK_clean_sbu_0, # of connection points: 5
#     Node 12, Type 0, BuildingBlock: BEQFEK_clean_sbu_0, # of connection points: 5
#     Node 13, Type 0, BuildingBlock: BEQFEK_clean_sbu_0, # of connection points: 5
#     Node 14, Type 0, BuildingBlock: BEQFEK_clean_sbu_0, # of connection points: 5
#     Node 15, Type 0, BuildingBlock: BEQFEK_clean_sbu_0, # of connection points: 5
#     Node 16, Type 0, BuildingBlock: BEQFEK_clean_sbu_0, # of connection points: 5
#     Node 17, Type 0, BuildingBlock: BEQFEK_clean_sbu_0, # of connection points: 5
#     Node 18, Type 0, BuildingBlock: BEQFEK_clean_sbu_0, # of connection points: 5
#     Node 19, Type 0, BuildingBlock: BEQFEK_clean_sbu_0, # of connection points: 5
#     Node 20, Type 0, BuildingBlock: BEQFEK_clean_sbu_0, # of connection points: 5
#     Node 21, Type 0, BuildingBlock: BEQFEK_clean_sbu_0, # of connection points: 5
#     Node 22, Type 0, BuildingBlock: BEQFEK_clean_sbu_0, # of connection points: 5
#     Node 23, Type 0, BuildingBlock: BEQFEK_clean_sbu_0, # of connection points: 5
#     Edge 24, Type (0, 0), BuildingBlock: TEMPAE_clean_linker_10, # of connection points: 2
#     Edge 25, Type (0, 0), BuildingBlock: TEMPAE_clean_linker_10, # of connection points: 2
#     Edge 26, Type (0, 0), BuildingBlock: TEMPAE_clean_linker_10, # of connection points: 2
#     Edge 27, Type (0, 0), BuildingBlock: TEMPAE_clean_linker_10, # of connection points: 2
#     Edge 28, Type (0, 0), BuildingBlock: TEMPAE_clean_linker_10, # of connection points: 2
#     Edge 29, Type (0, 0), BuildingBlock: TEMPAE_clean_linker_10, # of connection points: 2
#     Edge 30, Type (0, 0), BuildingBlock: TEMPAE_clean_linker_10, # of connection points: 2
#     Edge 31, Type (0, 0), BuildingBlock: TEMPAE_clean_linker_10, # of connection points: 2
#     Edge 32, Type (0, 0), BuildingBlock: TEMPAE_clean_linker_10, # of connection points: 2
#     Edge 33, Type (0, 0), BuildingBlock: TEMPAE_clean_linker_10, # of connection points: 2
#     Edge 34, Type (0, 0), BuildingBlock: TEMPAE_clean_linker_10, # of connection points: 2
#     Edge 35, Type (0, 0), BuildingBlock: TEMPAE_clean_linker_10, # of connection points: 2
#     Edge 36, Type (0, 0), BuildingBlock: TEMPAE_clean_linker_10, # of connection points: 2
#     Edge 37, Type (0, 0), BuildingBlock: TEMPAE_clean_linker_10, # of connection points: 2
#     Edge 38, Type (0, 0), BuildingBlock: TEMPAE_clean_linker_10, # of connection points: 2
#     Edge 39, Type (0, 0), BuildingBlock: TEMPAE_clean_linker_10, # of connection points: 2
#     Edge 40, Type (0, 0), BuildingBlock: TEMPAE_clean_linker_10, # of connection points: 2
#     Edge 41, Type (0, 0), BuildingBlock: TEMPAE_clean_linker_10, # of connection points: 2
#     Edge 42, Type (0, 0), BuildingBlock: TEMPAE_clean_linker_10, # of connection points: 2
#     Edge 43, Type (0, 0), BuildingBlock: TEMPAE_clean_linker_10, # of connection points: 2
#     Edge 44, Type (0, 0), BuildingBlock: TEMPAE_clean_linker_10, # of connection points: 2
#     Edge 45, Type (0, 0), BuildingBlock: TEMPAE_clean_linker_10, # of connection points: 2
#     Edge 46, Type (0, 0), BuildingBlock: TEMPAE_clean_linker_10, # of connection points: 2
#     Edge 47, Type (0, 0), BuildingBlock: TEMPAE_clean_linker_10, # of connection points: 2
#     Edge 48, Type (0, 0), BuildingBlock: TEMPAE_clean_linker_10, # of connection points: 2
#     Edge 49, Type (0, 0), BuildingBlock: TEMPAE_clean_linker_10, # of connection points: 2
#     Edge 50, Type (0, 0), BuildingBlock: TEMPAE_clean_linker_10, # of connection points: 2
#     Edge 51, Type (0, 0), BuildingBlock: TEMPAE_clean_linker_10, # of connection points: 2
#     Edge 52, Type (0, 0), BuildingBlock: TEMPAE_clean_linker_10, # of connection points: 2
#     Edge 53, Type (0, 0), BuildingBlock: TEMPAE_clean_linker_10, # of connection points: 2
#     Edge 54, Type (0, 0), BuildingBlock: TEMPAE_clean_linker_10, # of connection points: 2
#     Edge 55, Type (0, 0), BuildingBlock: TEMPAE_clean_linker_10, # of connection points: 2
#     Edge 56, Type (0, 0), BuildingBlock: TEMPAE_clean_linker_10, # of connection points: 2
#     Edge 57, Type (0, 0), BuildingBlock: TEMPAE_clean_linker_10, # of connection points: 2
#     Edge 58, Type (0, 0), BuildingBlock: TEMPAE_clean_linker_10, # of connection points: 2
#     Edge 59, Type (0, 0), BuildingBlock: TEMPAE_clean_linker_10, # of connection points: 2
#     Edge 60, Type (0, 0), BuildingBlock: TEMPAE_clean_linker_10, # of connection points: 2
#     Edge 61, Type (0, 0), BuildingBlock: TEMPAE_clean_linker_10, # of connection points: 2
#     Edge 62, Type (0, 0), BuildingBlock: TEMPAE_clean_linker_10, # of connection points: 2
#     Edge 63, Type (0, 0), BuildingBlock: TEMPAE_clean_linker_10, # of connection points: 2
#     Edge 64, Type (0, 0), BuildingBlock: TEMPAE_clean_linker_10, # of connection points: 2
#     Edge 65, Type (0, 0), BuildingBlock: TEMPAE_clean_linker_10, # of connection points: 2
#     Edge 66, Type (0, 0), BuildingBlock: TEMPAE_clean_linker_10, # of connection points: 2
#     Edge 67, Type (0, 0), BuildingBlock: TEMPAE_clean_linker_10, # of connection points: 2
#     Edge 68, Type (0, 0), BuildingBlock: TEMPAE_clean_linker_10, # of connection points: 2
#     Edge 69, Type (0, 0), BuildingBlock: TEMPAE_clean_linker_10, # of connection points: 2
#     Edge 70, Type (0, 0), BuildingBlock: TEMPAE_clean_linker_10, # of connection points: 2
#     Edge 71, Type (0, 0), BuildingBlock: TEMPAE_clean_linker_10, # of connection points: 2
#     Edge 72, Type (0, 0), BuildingBlock: TEMPAE_clean_linker_10, # of connection points: 2
#     Edge 73, Type (0, 0), BuildingBlock: TEMPAE_clean_linker_10, # of connection points: 2
#     Edge 74, Type (0, 0), BuildingBlock: TEMPAE_clean_linker_10, # of connection points: 2
#     Edge 75, Type (0, 0), BuildingBlock: TEMPAE_clean_linker_10, # of connection points: 2
#     Edge 76, Type (0, 0), BuildingBlock: TEMPAE_clean_linker_10, # of connection points: 2
#     Edge 77, Type (0, 0), BuildingBlock: TEMPAE_clean_linker_10, # of connection points: 2
#     Edge 78, Type (0, 0), BuildingBlock: TEMPAE_clean_linker_10, # of connection points: 2
#     Edge 79, Type (0, 0), BuildingBlock: TEMPAE_clean_linker_10, # of connection points: 2
#     Edge 80, Type (0, 0), BuildingBlock: TEMPAE_clean_linker_10, # of connection points: 2
#     Edge 81, Type (0, 0), BuildingBlock: TEMPAE_clean_linker_10, # of connection points: 2
#     Edge 82, Type (0, 0), BuildingBlock: TEMPAE_clean_linker_10, # of connection points: 2
#     Edge 83, Type (0, 0), BuildingBlock: TEMPAE_clean_linker_10, # of connection points: 2
# Relax obj value: 0.500
# Max RMSD: 0.210
# Mean RMSD: 0.210
data_MOF--net-fnp--node1-BEQFEK_clean_sbu_0--edge1-TEMPAE_clean_linker_10
_symmetry_space_group_name_H-M    P1
_symmetry_Int_Tables_number       1
_symmetry_cell_setting            triclinic
loop_
_symmetry_equiv_pos_as_xyz
'x, y, z'
_cell_length_a     57.334684
_cell_length_b     56.943868
_cell_length_c     56.978727
_cell_angle_alpha  89.965074
_cell_angle_beta   89.965748
_cell_angle_gamma 90.128892
loop_
_atom_site_label
_atom_site_type_symbol
_atom_site_fract_x
_atom_site_fract_y
_atom_site_fract_z
_atom_type_partial_charge
Co0 Co 0.22674 0.17335 0.67508 0.0
Co1 Co 0.17525 0.18452 0.67239 0.0
C2 C 0.19955 0.20575 0.71066 0.0
O3 O 0.21794 0.19795 0.70049 0.0
O4 O 0.17943 0.19896 0.70391 0.0
C5 C 0.26022 0.14951 0.6989 0.0
O6 O 0.24088 0.14242 0.7091 0.0
C7 C 0.12376 0.18671 0.67509 0.0
C8 C 0.11443 0.18509 0.63751 0.0
C9 C 0.10487 0.18555 0.65984 0.0
N10 N 0.14351 0.18687 0.6623 0.0
N11 N 0.13776 0.18618 0.63985 0.0
C12 C 0.12317 0.18529 0.70131 0.0
H13 H 0.13955 0.1775 0.7081 0.0
H14 H 0.10805 0.17468 0.70735 0.0
H15 H 0.12147 0.20328 0.70858 0.0
C16 C 0.20937 0.12306 0.67123 0.0
N17 N 0.20638 0.14666 0.67248 0.0
N18 N 0.18398 0.15134 0.67214 0.0
C19 C 0.17201 0.13069 0.67167 0.0
C20 C 0.18776 0.11194 0.67134 0.0
C21 C 0.23231 0.11107 0.66753 0.0
H22 H 0.24537 0.12349 0.66026 0.0
H23 H 0.23866 0.10386 0.68444 0.0
H24 H 0.23018 0.09606 0.65529 0.0
O25 O 0.22858 0.18964 0.64544 0.0
O26 O 0.19499 0.20712 0.6521 0.0
H27 H 0.13858 0.13711 0.65648 0.0
H28 H 0.14009 0.11035 0.67352 0.0
C29 C 0.14601 0.12887 0.67245 0.0
H30 H 0.13939 0.1386 0.6879 0.0
H31 H 0.14982 0.18557 0.62615 0.0
O32 O 0.25876 0.16383 0.68206 0.0
C33 C 0.21502 0.2068 0.64217 0.0
Co34 Co 0.85984 0.73151 0.17092 0.0
Co35 Co 0.85106 0.67844 0.16596 0.0
C36 C 0.82851 0.70213 0.20523 0.0
O37 O 0.83612 0.72149 0.1966 0.0
O38 O 0.83511 0.68255 0.19665 0.0
C39 C 0.87101 0.77651 0.19369 0.0
O40 O 0.87532 0.79915 0.19254 0.0
C41 C 0.84947 0.62678 0.1703 0.0
C42 C 0.85565 0.61597 0.13358 0.0
C43 C 0.85269 0.60723 0.15608 0.0
N44 N 0.85091 0.64615 0.15683 0.0
N45 N 0.85436 0.63953 0.13488 0.0
C46 C 0.84419 0.62723 0.19604 0.0
H47 H 0.82844 0.63803 0.19911 0.0
H48 H 0.85888 0.63557 0.2056 0.0
H49 H 0.84091 0.6094 0.20315 0.0
C50 C 0.90996 0.71645 0.16892 0.0
N51 N 0.88682 0.71194 0.16785 0.0
N52 N 0.8834 0.68919 0.16691 0.0
C53 C 0.90449 0.67839 0.16803 0.0
C54 C 0.9223 0.69532 0.1694 0.0
C55 C 0.91996 0.74075 0.16923 0.0
H56 H 0.90907 0.75263 0.15841 0.0
H57 H 0.91999 0.74745 0.18751 0.0
H58 H 0.93809 0.74094 0.16239 0.0
O59 O 0.84295 0.73213 0.14156 0.0
O60 O 0.82894 0.69608 0.14405 0.0
H61 H 0.90497 0.64434 0.15236 0.0
H62 H 0.92472 0.64753 0.17691 0.0
C63 C 0.90732 0.65235 0.16995 0.0
H64 H 0.89375 0.6451 0.18175 0.0
H65 H 0.85643 0.65116 0.12086 0.0
O66 O 0.86874 0.76503 0.17475 0.0
C67 C 0.82814 0.71681 0.13549 0.0
Co68 Co 0.31777 0.37818 0.68247 0.0
Co69 Co 0.36721 0.35997 0.67785 0.0
C70 C 0.34202 0.34359 0.71808 0.0
O71 O 0.32456 0.35404 0.70878 0.0
O72 O 0.36244 0.34685 0.70988 0.0
C73 C 0.30041 0.41354 0.70735 0.0
O74 O 0.32189 0.41152 0.71511 0.0
C75 C 0.41781 0.35056 0.67957 0.0
C76 C 0.428 0.36095 0.64367 0.0
C77 C 0.43719 0.35496 0.66538 0.0
N78 N 0.39836 0.35465 0.66698 0.0
N79 N 0.40462 0.36037 0.64541 0.0
C80 C 0.41743 0.34202 0.70442 0.0
H81 H 0.40254 0.32986 0.70704 0.0
H82 H 0.41521 0.3572 0.71642 0.0
H83 H 0.43369 0.33249 0.70884 0.0
C84 C 0.34056 0.42321 0.66807 0.0
N85 N 0.34139 0.4 0.67316 0.0
N86 N 0.363 0.39371 0.67646 0.0
C87 C 0.37657 0.41334 0.67584 0.0
C88 C 0.36269 0.433 0.67062 0.0
C89 C 0.31896 0.43586 0.66039 0.0
H90 H 0.3037 0.42394 0.65975 0.0
H91 H 0.31555 0.45104 0.67205 0.0
H92 H 0.32157 0.44283 0.64242 0.0
O93 O 0.30943 0.35917 0.65599 0.0
O94 O 0.34357 0.34066 0.65764 0.0
H95 H 0.41081 0.40756 0.66256 0.0
H96 H 0.40921 0.43075 0.68383 0.0
C97 C 0.40243 0.41311 0.67919 0.0
H98 H 0.40717 0.40022 0.69299 0.0
H99 H 0.39294 0.36535 0.63229 0.0
O100 O 0.29226 0.39811 0.69347 0.0
C101 C 0.32244 0.34211 0.65013 0.0
Co102 Co 0.66518 0.8065 0.18624 0.0
Co103 Co 0.67415 0.85858 0.17837 0.0
C104 C 0.69971 0.83752 0.21613 0.0
O105 O 0.69151 0.81811 0.2083 0.0
O106 O 0.692 0.85694 0.20834 0.0
C107 C 0.64991 0.77228 0.21704 0.0
O108 O 0.63508 0.78857 0.22356 0.0
C109 C 0.6761 0.91043 0.17859 0.0
C110 C 0.67225 0.91837 0.14082 0.0
C111 C 0.67443 0.92885 0.16264 0.0
N112 N 0.67459 0.89007 0.16669 0.0
N113 N 0.67247 0.89497 0.14412 0.0
C114 C 0.68058 0.91186 0.20445 0.0
H115 H 0.69627 0.90139 0.20877 0.0
H116 H 0.66563 0.90413 0.21413 0.0
H117 H 0.68366 0.93013 0.21039 0.0
C118 C 0.61444 0.822 0.1838 0.0
N119 N 0.6378 0.82588 0.18431 0.0
N120 N 0.64174 0.84852 0.18202 0.0
C121 C 0.62092 0.85984 0.18138 0.0
C122 C 0.60272 0.84344 0.18249 0.0
C123 C 0.60339 0.79815 0.18362 0.0
H124 H 0.61667 0.78427 0.18113 0.0
H125 H 0.59389 0.79532 0.20036 0.0
H126 H 0.59051 0.79679 0.16921 0.0
O127 O 0.6787 0.80309 0.15542 0.0
O128 O 0.69401 0.83874 0.15576 0.0
H129 H 0.62604 0.89103 0.16121 0.0
H130 H 0.59999 0.89143 0.17892 0.0
C131 C 0.61849 0.88581 0.17836 0.0
H132 H 0.62843 0.89495 0.19233 0.0
H133 H 0.67084 0.8823 0.131 0.0
O134 O 0.65928 0.77427 0.19705 0.0
C135 C 0.69331 0.81781 0.14759 0.0
Co136 Co 0.22257 0.38369 0.85232 0.0
Co137 Co 0.17463 0.36383 0.86404 0.0
C138 C 0.19588 0.34744 0.82097 0.0
O139 O 0.21395 0.35884 0.82758 0.0
O140 O 0.17665 0.34994 0.83186 0.0
C141 C 0.236 0.41784 0.82326 0.0
O142 O 0.21386 0.41468 0.81824 0.0
C143 C 0.12458 0.35429 0.86605 0.0
C144 C 0.11765 0.35524 0.90418 0.0
C145 C 0.10673 0.35384 0.88253 0.0
N146 N 0.14501 0.35644 0.87743 0.0
N147 N 0.14078 0.35663 0.90023 0.0
C148 C 0.12256 0.35212 0.83993 0.0
H149 H 0.13413 0.33782 0.83378 0.0
H150 H 0.12847 0.36866 0.83149 0.0
H151 H 0.10452 0.34789 0.83433 0.0
C152 C 0.2 0.4286 0.8668 0.0
N153 N 0.19928 0.40512 0.86325 0.0
N154 N 0.1777 0.3978 0.86483 0.0
C155 C 0.16373 0.4169 0.86795 0.0
C156 C 0.17752 0.43729 0.86896 0.0
C157 C 0.22191 0.44258 0.87027 0.0
H158 H 0.23707 0.43089 0.87323 0.0
H159 H 0.22513 0.45395 0.85483 0.0
H160 H 0.21983 0.4544 0.88562 0.0
O161 O 0.2344 0.36526 0.87834 0.0
O162 O 0.20061 0.34621 0.8821 0.0
H163 H 0.1325 0.40659 0.88556 0.0
H164 H 0.12988 0.43356 0.86899 0.0
C165 C 0.13772 0.41576 0.86919 0.0
H166 H 0.13095 0.40541 0.85419 0.0
H167 H 0.15359 0.35885 0.91305 0.0
O168 O 0.24598 0.40403 0.83762 0.0
C169 C 0.22247 0.34834 0.88671 0.0
Co170 Co 0.66211 0.73347 0.3563 0.0
Co171 Co 0.67466 0.68017 0.36637 0.0
C172 C 0.69299 0.70437 0.32267 0.0
O173 O 0.68269 0.72385 0.32766 0.0
O174 O 0.69053 0.68626 0.3357 0.0
C175 C 0.65443 0.78716 0.35845 0.0
O176 O 0.6403 0.80396 0.36527 0.0
C177 C 0.67862 0.62805 0.36196 0.0
C178 C 0.66785 0.6175 0.39766 0.0
C179 C 0.67327 0.60843 0.37574 0.0
N180 N 0.6756 0.64755 0.37504 0.0
N181 N 0.66965 0.641 0.39646 0.0
C182 C 0.68732 0.62852 0.3372 0.0
H183 H 0.69925 0.64361 0.33459 0.0
H184 H 0.67231 0.6305 0.32507 0.0
H185 H 0.69696 0.61221 0.33292 0.0
C186 C 0.61398 0.71471 0.35916 0.0
N187 N 0.63732 0.71176 0.36083 0.0
N188 N 0.64195 0.68962 0.36531 0.0
C189 C 0.62136 0.67774 0.36648 0.0
C190 C 0.60283 0.69324 0.36273 0.0
C191 C 0.60271 0.738 0.3548 0.0
H192 H 0.60648 0.7498 0.36982 0.0
H193 H 0.61033 0.7461 0.33882 0.0
H194 H 0.58353 0.73659 0.35289 0.0
O195 O 0.68412 0.73413 0.38216 0.0
O196 O 0.69569 0.69784 0.389 0.0
H197 H 0.62337 0.6467 0.38739 0.0
H198 H 0.60156 0.64535 0.36466 0.0
C199 C 0.61936 0.65167 0.36902 0.0
H200 H 0.63204 0.64294 0.35724 0.0
H201 H 0.66581 0.65268 0.41003 0.0
O202 O 0.64828 0.76588 0.36171 0.0
C203 C 0.6972 0.71986 0.39282 0.0
Co204 Co 0.30884 0.1735 0.86901 0.0
Co205 Co 0.36101 0.18318 0.86713 0.0
C206 C 0.33444 0.20353 0.83004 0.0
O207 O 0.31652 0.19719 0.84205 0.0
O208 O 0.35465 0.19573 0.83524 0.0
C209 C 0.26315 0.16024 0.84982 0.0
O210 O 0.24088 0.15546 0.85252 0.0
C211 C 0.41228 0.1903 0.86257 0.0
C212 C 0.42365 0.17755 0.89734 0.0
C213 C 0.4321 0.18561 0.87599 0.0
N214 N 0.39329 0.18465 0.87534 0.0
N215 N 0.40026 0.17742 0.89619 0.0
C216 C 0.41107 0.20118 0.83869 0.0
H217 H 0.39537 0.21239 0.83728 0.0
H218 H 0.4098 0.1871 0.82529 0.0
H219 H 0.42668 0.21216 0.83514 0.0
C220 C 0.32493 0.12303 0.87232 0.0
N221 N 0.32885 0.14651 0.87163 0.0
N222 N 0.35127 0.15047 0.86968 0.0
C223 C 0.36243 0.12948 0.86845 0.0
C224 C 0.34613 0.11109 0.87015 0.0
C225 C 0.30099 0.11244 0.87247 0.0
H226 H 0.28975 0.12207 0.88504 0.0
H227 H 0.29318 0.11422 0.85476 0.0
H228 H 0.30122 0.09355 0.87707 0.0
O229 O 0.31038 0.19191 0.89765 0.0
O230 O 0.34387 0.20761 0.88708 0.0
H231 H 0.39667 0.13144 0.88285 0.0
H232 H 0.39358 0.1092 0.86082 0.0
C233 C 0.3883 0.1272 0.86583 0.0
H234 H 0.39474 0.13998 0.8526 0.0
H235 H 0.38901 0.17167 0.90941 0.0
O236 O 0.27558 0.1637 0.86791 0.0
C237 C 0.32469 0.20882 0.89845 0.0
Co238 Co 0.8695 0.81069 0.36415 0.0
Co239 Co 0.85926 0.86284 0.36688 0.0
C240 C 0.83995 0.83935 0.3273 0.0
O241 O 0.8469 0.82052 0.33754 0.0
O242 O 0.84645 0.85936 0.33485 0.0
C243 C 0.89232 0.77552 0.34084 0.0
O244 O 0.90065 0.79442 0.33054 0.0
C245 C 0.85516 0.91472 0.36461 0.0
C246 C 0.86168 0.92422 0.40162 0.0
C247 C 0.85786 0.93383 0.37961 0.0
N248 N 0.85774 0.89486 0.37718 0.0
N249 N 0.8614 0.90071 0.39931 0.0
C250 C 0.84921 0.91513 0.33903 0.0
H251 H 0.83515 0.90222 0.33546 0.0
H252 H 0.86475 0.90997 0.32865 0.0
H253 H 0.84312 0.93269 0.33333 0.0
C254 C 0.91955 0.82716 0.36855 0.0
N255 N 0.89618 0.83055 0.36761 0.0
N256 N 0.89188 0.85318 0.36766 0.0
C257 C 0.91254 0.8649 0.36744 0.0
C258 C 0.93091 0.84876 0.3678 0.0
C259 C 0.9311 0.8039 0.37229 0.0
H260 H 0.91855 0.79094 0.37953 0.0
H261 H 0.93825 0.79735 0.35544 0.0
H262 H 0.946 0.80587 0.38459 0.0
O263 O 0.85183 0.80911 0.393 0.0
O264 O 0.83548 0.84343 0.38624 0.0
H265 H 0.91033 0.89909 0.38253 0.0
H266 H 0.93252 0.89637 0.36019 0.0
C267 C 0.91462 0.891 0.36536 0.0
H268 H 0.90193 0.89757 0.35225 0.0
H269 H 0.86431 0.88861 0.41275 0.0
O270 O 0.87821 0.77812 0.35765 0.0
C271 C 0.83507 0.82318 0.39599 0.0
Co272 Co 0.67562 0.226 0.16877 0.0
Co273 Co 0.66916 0.17374 0.17885 0.0
C274 C 0.71026 0.19521 0.19848 0.0
O275 O 0.70228 0.21474 0.19063 0.0
O276 O 0.70059 0.17589 0.19272 0.0
C277 C 0.69973 0.26087 0.14467 0.0
O278 O 0.70929 0.24203 0.13549 0.0
C279 C 0.66962 0.12201 0.18034 0.0
C280 C 0.63195 0.114 0.18235 0.0
C281 C 0.65372 0.10356 0.18108 0.0
N282 N 0.65773 0.14233 0.18115 0.0
N283 N 0.63524 0.1374 0.18255 0.0
C284 C 0.69545 0.12057 0.17684 0.0
H285 H 0.7021 0.1368 0.16837 0.0
H286 H 0.70005 0.10511 0.16593 0.0
H287 H 0.70404 0.11875 0.19419 0.0
C288 C 0.66771 0.20995 0.11835 0.0
N289 N 0.66969 0.20633 0.14183 0.0
N290 N 0.66868 0.18367 0.14605 0.0
C291 C 0.66754 0.17213 0.12521 0.0
C292 C 0.66708 0.18835 0.10673 0.0
C293 C 0.66615 0.23367 0.10708 0.0
H294 H 0.66229 0.24735 0.1203 0.0
H295 H 0.6827 0.23768 0.09779 0.0
H296 H 0.65199 0.23409 0.09393 0.0
O297 O 0.64805 0.2293 0.18855 0.0
O298 O 0.65092 0.19332 0.20253 0.0
H299 H 0.6522 0.13908 0.13431 0.0
H300 H 0.66294 0.14048 0.10461 0.0
C301 C 0.66634 0.14598 0.12297 0.0
H302 H 0.68304 0.13826 0.12896 0.0
H303 H 0.62211 0.15005 0.1831 0.0
O304 O 0.68367 0.25827 0.15966 0.0
C305 C 0.64336 0.21432 0.2043 0.0
Co306 Co 0.81501 0.19105 0.66737 0.0
Co307 Co 0.86227 0.17087 0.6833 0.0
C308 C 0.84096 0.2165 0.70418 0.0
O309 O 0.82368 0.21669 0.69003 0.0
O310 O 0.85646 0.2004 0.70283 0.0
C311 C 0.77555 0.1819 0.63832 0.0
O312 O 0.78665 0.16248 0.63293 0.0
C313 C 0.91331 0.1745 0.68455 0.0
C314 C 0.92379 0.13858 0.69457 0.0
C315 C 0.93277 0.16039 0.68843 0.0
N316 N 0.89397 0.16149 0.68793 0.0
N317 N 0.90036 0.14007 0.69403 0.0
C318 C 0.91278 0.20009 0.67852 0.0
H319 H 0.91431 0.20224 0.65924 0.0
H320 H 0.92746 0.2095 0.68707 0.0
H321 H 0.89604 0.20804 0.684 0.0
C322 C 0.83843 0.18982 0.62005 0.0
N323 N 0.83805 0.18592 0.6435 0.0
N324 N 0.85704 0.1746 0.64955 0.0
C325 C 0.86928 0.16956 0.62967 0.0
C326 C 0.85789 0.17921 0.61015 0.0
C327 C 0.82085 0.20399 0.60699 0.0
H328 H 0.81322 0.19332 0.59264 0.0
H329 H 0.80729 0.21059 0.61887 0.0
H330 H 0.82943 0.21943 0.59885 0.0
O331 O 0.80788 0.16333 0.68695 0.0
O332 O 0.84099 0.14741 0.69882 0.0
H333 H 0.89495 0.14824 0.61197 0.0
H334 H 0.90631 0.16866 0.63307 0.0
C335 C 0.89177 0.15634 0.62937 0.0
H336 H 0.89165 0.14257 0.64315 0.0
H337 H 0.88873 0.12638 0.69751 0.0
O338 O 0.78481 0.19658 0.65244 0.0
C339 C 0.81875 0.14794 0.69873 0.0
Co340 Co 0.86762 0.31411 0.17571 0.0
Co341 Co 0.87953 0.36604 0.18626 0.0
C342 C 0.83673 0.34431 0.20766 0.0
O343 O 0.8415 0.3245 0.19817 0.0
O344 O 0.84929 0.36234 0.20336 0.0
C345 C 0.84593 0.26932 0.16229 0.0
O346 O 0.84773 0.24695 0.15696 0.0
C347 C 0.87512 0.41738 0.18679 0.0
C348 C 0.91202 0.42863 0.18742 0.0
C349 C 0.8894 0.43715 0.18656 0.0
N350 N 0.88873 0.39819 0.1877 0.0
N351 N 0.91075 0.40504 0.18833 0.0
C352 C 0.84917 0.41643 0.18398 0.0
H353 H 0.84374 0.39933 0.17639 0.0
H354 H 0.843 0.43092 0.17254 0.0
H355 H 0.84087 0.41827 0.20148 0.0
C356 C 0.87072 0.33095 0.12576 0.0
N357 N 0.87265 0.33434 0.1492 0.0
N358 N 0.87731 0.35655 0.15333 0.0
C359 C 0.87812 0.36808 0.13241 0.0
C360 C 0.87374 0.35224 0.11407 0.0
C361 C 0.86662 0.30751 0.11454 0.0
H362 H 0.876 0.29365 0.12436 0.0
H363 H 0.84771 0.3034 0.11479 0.0
H364 H 0.87268 0.30745 0.09604 0.0
O365 O 0.89525 0.31124 0.19517 0.0
O366 O 0.90214 0.34759 0.20675 0.0
H367 H 0.89734 0.39957 0.13931 0.0
H368 H 0.88188 0.39985 0.11163 0.0
C369 C 0.88115 0.39409 0.13018 0.0
H370 H 0.86626 0.40298 0.13874 0.0
H371 H 0.92492 0.39358 0.18874 0.0
O372 O 0.86436 0.28116 0.16542 0.0
C373 C 0.90624 0.3256 0.20803 0.0
Co374 Co 0.72474 0.34989 0.66417 0.0
Co375 Co 0.67692 0.36478 0.68267 0.0
C376 C 0.69562 0.32135 0.70063 0.0
O377 O 0.71417 0.32721 0.68976 0.0
O378 O 0.67678 0.33257 0.69707 0.0
C379 C 0.73057 0.31648 0.63375 0.0
O380 O 0.70876 0.31577 0.64083 0.0
C381 C 0.62793 0.37005 0.69695 0.0
C382 C 0.61892 0.4033 0.67931 0.0
C383 C 0.60904 0.38422 0.69082 0.0
N384 N 0.64761 0.37985 0.68849 0.0
N385 N 0.64214 0.40006 0.67856 0.0
C386 C 0.62773 0.34807 0.71137 0.0
H387 H 0.64369 0.34727 0.72233 0.0
H388 H 0.62753 0.33256 0.69958 0.0
H389 H 0.61234 0.34752 0.72317 0.0
C390 C 0.70458 0.36519 0.61907 0.0
N391 N 0.70275 0.36234 0.64253 0.0
N392 N 0.68103 0.36492 0.64896 0.0
C393 C 0.66798 0.36838 0.6293 0.0
C394 C 0.68257 0.36846 0.60951 0.0
C395 C 0.72729 0.36602 0.60605 0.0
H396 H 0.74191 0.36966 0.61828 0.0
H397 H 0.73045 0.34903 0.59715 0.0
H398 H 0.72668 0.37982 0.59229 0.0
O399 O 0.73821 0.3755 0.68219 0.0
O400 O 0.70395 0.38172 0.69996 0.0
H401 H 0.63695 0.38893 0.62945 0.0
H402 H 0.63475 0.36223 0.61287 0.0
C403 C 0.64198 0.37014 0.62912 0.0
H404 H 0.63447 0.36124 0.64472 0.0
H405 H 0.65404 0.41077 0.6697 0.0
O406 O 0.74476 0.3305 0.64383 0.0
C407 C 0.72612 0.38509 0.69837 0.0
Co408 Co 0.6935 0.32174 0.37871 0.0
Co409 Co 0.67216 0.36741 0.3588 0.0
C410 C 0.71852 0.35296 0.34193 0.0
O411 O 0.71663 0.33487 0.35497 0.0
O412 O 0.70313 0.369 0.34277 0.0
C413 C 0.72623 0.31747 0.41083 0.0
O414 O 0.72496 0.33991 0.40563 0.0
C415 C 0.66412 0.41625 0.34411 0.0
C416 C 0.63047 0.4237 0.3613 0.0
C417 C 0.64902 0.43453 0.34992 0.0
N418 N 0.65537 0.39599 0.35265 0.0
N419 N 0.63491 0.40051 0.36228 0.0
C420 C 0.68593 0.41756 0.32974 0.0
H421 H 0.6871 0.40193 0.31822 0.0
H422 H 0.70133 0.41777 0.34153 0.0
H423 H 0.68609 0.43343 0.31843 0.0
C424 C 0.67452 0.34079 0.42308 0.0
N425 N 0.67822 0.34259 0.39972 0.0
N426 N 0.67353 0.36395 0.39272 0.0
C427 C 0.6685 0.37704 0.41207 0.0
C428 C 0.66879 0.36264 0.43203 0.0
C429 C 0.67705 0.31858 0.43696 0.0
H430 H 0.67797 0.30309 0.42524 0.0
H431 H 0.69293 0.31965 0.44803 0.0
H432 H 0.66195 0.31633 0.44893 0.0
O433 O 0.66999 0.30579 0.35937 0.0
O434 O 0.65682 0.33887 0.34278 0.0
H435 H 0.64431 0.40538 0.41061 0.0
H436 H 0.66965 0.41124 0.42808 0.0
C437 C 0.66345 0.40277 0.41169 0.0
H438 H 0.67188 0.41118 0.39631 0.0
H439 H 0.6248 0.38806 0.37111 0.0
O440 O 0.71366 0.30292 0.39938 0.0
C441 C 0.65727 0.31632 0.34428 0.0
Co442 Co 0.7268 0.16728 0.86703 0.0
Co443 Co 0.67456 0.16813 0.85739 0.0
C444 C 0.70077 0.20623 0.83791 0.0
O445 O 0.71894 0.19453 0.84393 0.0
O446 O 0.6806 0.20023 0.84533 0.0
C447 C 0.77326 0.18554 0.88048 0.0
O448 O 0.79542 0.18183 0.88501 0.0
C449 C 0.6236 0.17169 0.84845 0.0
C450 C 0.61158 0.13903 0.86557 0.0
C451 C 0.60352 0.15912 0.85447 0.0
N452 N 0.64231 0.15974 0.85623 0.0
N453 N 0.63496 0.14008 0.86608 0.0
C454 C 0.62538 0.19391 0.83451 0.0
H455 H 0.64176 0.19404 0.82416 0.0
H456 H 0.6257 0.20913 0.84667 0.0
H457 H 0.61041 0.19568 0.8223 0.0
C458 C 0.71063 0.16526 0.91747 0.0
N459 N 0.70684 0.16491 0.89401 0.0
N460 N 0.68435 0.16583 0.88999 0.0
C461 C 0.67308 0.16722 0.91092 0.0
C462 C 0.68935 0.16687 0.92922 0.0
C463 C 0.73432 0.16474 0.92844 0.0
H464 H 0.74622 0.15366 0.91786 0.0
H465 H 0.74152 0.18283 0.92896 0.0
H466 H 0.73344 0.15787 0.94666 0.0
O467 O 0.72518 0.13844 0.84881 0.0
O468 O 0.69172 0.14838 0.83283 0.0
H469 H 0.63824 0.15432 0.91373 0.0
H470 H 0.64352 0.18086 0.92999 0.0
C471 C 0.64746 0.17146 0.9134 0.0
H472 H 0.64091 0.18183 0.89831 0.0
H473 H 0.64594 0.12772 0.87384 0.0
O474 O 0.76016 0.168 0.87643 0.0
C475 C 0.71094 0.13712 0.83193 0.0
Co476 Co 0.84758 0.22382 0.37284 0.0
Co477 Co 0.87061 0.1776 0.35813 0.0
C478 C 0.82343 0.19613 0.33739 0.0
O479 O 0.82184 0.21329 0.35174 0.0
O480 O 0.84079 0.18197 0.33842 0.0
C481 C 0.85777 0.2636 0.40045 0.0
O482 O 0.87695 0.25196 0.4052 0.0
C483 C 0.86866 0.12633 0.35652 0.0
C484 C 0.90536 0.11682 0.34967 0.0
C485 C 0.88349 0.10724 0.35391 0.0
N486 N 0.88119 0.14614 0.35393 0.0
N487 N 0.90308 0.14035 0.34963 0.0
C488 C 0.84353 0.12607 0.36362 0.0
H489 H 0.83863 0.14309 0.37171 0.0
H490 H 0.84005 0.11151 0.3761 0.0
H491 H 0.83258 0.12339 0.3478 0.0
C492 C 0.85007 0.20168 0.42069 0.0
N493 N 0.85419 0.20174 0.39729 0.0
N494 N 0.86643 0.18312 0.39173 0.0
C495 C 0.87171 0.17138 0.41186 0.0
C496 C 0.86143 0.18278 0.43109 0.0
C497 C 0.83482 0.21892 0.43311 0.0
H498 H 0.84451 0.2271 0.44783 0.0
H499 H 0.82815 0.23231 0.42094 0.0
H500 H 0.8195 0.20972 0.44065 0.0
O501 O 0.87357 0.23111 0.35134 0.0
O502 O 0.89379 0.19934 0.34278 0.0
H503 H 0.89997 0.1499 0.39989 0.0
H504 H 0.89201 0.14534 0.43042 0.0
C505 C 0.88529 0.14901 0.41256 0.0
H506 H 0.87372 0.1343 0.4073 0.0
H507 H 0.91658 0.15246 0.34732 0.0
O508 O 0.84237 0.25451 0.38709 0.0
C509 C 0.89049 0.22136 0.34088 0.0
Co510 Co 0.81262 0.36374 0.87495 0.0
Co511 Co 0.86446 0.36999 0.86438 0.0
C512 C 0.84213 0.32915 0.84416 0.0
O513 O 0.82297 0.33707 0.85261 0.0
O514 O 0.86146 0.33878 0.8496 0.0
C515 C 0.7796 0.33841 0.89881 0.0
O516 O 0.79906 0.32938 0.90694 0.0
C517 C 0.91555 0.36745 0.86319 0.0
C518 C 0.92527 0.40502 0.86241 0.0
C519 C 0.93456 0.3826 0.86332 0.0
N520 N 0.89598 0.38038 0.86226 0.0
N521 N 0.90191 0.4028 0.86156 0.0
C522 C 0.91576 0.34134 0.86617 0.0
H523 H 0.89933 0.33525 0.87447 0.0
H524 H 0.93082 0.33574 0.87702 0.0
H525 H 0.91722 0.33297 0.84864 0.0
C526 C 0.82921 0.37115 0.92522 0.0
N527 N 0.83253 0.36921 0.90169 0.0
N528 N 0.855 0.37006 0.89725 0.0
C529 C 0.86668 0.37109 0.91797 0.0
C530 C 0.85076 0.37172 0.93655 0.0
C531 C 0.80584 0.37264 0.93688 0.0
H532 H 0.79216 0.37739 0.92403 0.0
H533 H 0.80161 0.35555 0.94524 0.0
H534 H 0.80605 0.38607 0.95093 0.0
O535 O 0.80937 0.39169 0.85551 0.0
O536 O 0.84528 0.38969 0.84163 0.0
H537 H 0.89953 0.38679 0.90944 0.0
H538 H 0.89828 0.3744 0.93855 0.0
C539 C 0.89267 0.37201 0.92008 0.0
H540 H 0.90018 0.35549 0.91317 0.0
H541 H 0.88997 0.4166 0.8612 0.0
O542 O 0.78088 0.35533 0.8845 0.0
C543 C 0.82435 0.3972 0.84009 0.0
Co544 Co 0.1573 0.68939 0.23447 0.0
Co545 Co 0.17132 0.67544 0.18274 0.0
C546 C 0.19036 0.72007 0.20496 0.0
O547 O 0.17896 0.71689 0.22419 0.0
O548 O 0.18822 0.70583 0.18777 0.0
C549 C 0.14767 0.69107 0.28767 0.0
O550 O 0.13267 0.686 0.30438 0.0
C551 C 0.17378 0.67946 0.13117 0.0
C552 C 0.17642 0.64223 0.12064 0.0
C553 C 0.17506 0.66482 0.11169 0.0
N554 N 0.17439 0.66609 0.15064 0.0
N555 N 0.17617 0.64388 0.14421 0.0
C556 C 0.17001 0.70544 0.13142 0.0
H557 H 0.16133 0.71081 0.14798 0.0
H558 H 0.15933 0.71096 0.11615 0.0
H559 H 0.18717 0.71443 0.13039 0.0
C560 C 0.10974 0.68622 0.21448 0.0
N561 N 0.13312 0.68411 0.21227 0.0
N562 N 0.13828 0.67775 0.19072 0.0
C563 C 0.11799 0.67563 0.17851 0.0
C564 C 0.09908 0.68081 0.19322 0.0
C565 C 0.09796 0.69489 0.23624 0.0
H566 H 0.09638 0.68018 0.24892 0.0
H567 H 0.10862 0.70894 0.24446 0.0
H568 H 0.08028 0.70178 0.23239 0.0
O569 O 0.17848 0.66286 0.23752 0.0
O570 O 0.19066 0.65288 0.20219 0.0
H571 H 0.12813 0.65323 0.15013 0.0
H572 H 0.0985 0.66395 0.14817 0.0
C573 C 0.11662 0.66853 0.15329 0.0
H574 H 0.12281 0.68326 0.14216 0.0
H575 H 0.17665 0.62979 0.15592 0.0
O576 O 0.14204 0.68673 0.26648 0.0
C577 C 0.19142 0.6506 0.22444 0.0
Co578 Co 0.17065 0.86166 0.3109 0.0
Co579 Co 0.17919 0.86664 0.36329 0.0
C580 C 0.20344 0.82914 0.34116 0.0
O581 O 0.19601 0.83842 0.32212 0.0
O582 O 0.19556 0.83598 0.36088 0.0
C583 C 0.15503 0.83244 0.2757 0.0
O584 O 0.14031 0.82576 0.29206 0.0
C585 C 0.18555 0.86715 0.41512 0.0
C586 C 0.16781 0.90033 0.42406 0.0
C587 C 0.17836 0.88086 0.43408 0.0
N588 N 0.17881 0.87776 0.39509 0.0
N589 N 0.16866 0.8978 0.40062 0.0
C590 C 0.19986 0.8452 0.41567 0.0
H591 H 0.21209 0.845 0.40061 0.0
H592 H 0.18816 0.82971 0.41424 0.0
H593 H 0.2102 0.84401 0.43207 0.0
C594 C 0.1198 0.864 0.32598 0.0
N595 N 0.14311 0.86318 0.32996 0.0
N596 N 0.14687 0.86389 0.35269 0.0
C597 C 0.12597 0.86348 0.36392 0.0
C598 C 0.10791 0.86367 0.34739 0.0
C599 C 0.10899 0.86573 0.30212 0.0
H600 H 0.12249 0.86824 0.28842 0.0
H601 H 0.0987 0.8496 0.29852 0.0
H602 H 0.09688 0.88082 0.30135 0.0
O603 O 0.18475 0.89235 0.30898 0.0
O604 O 0.20045 0.88885 0.34417 0.0
H605 H 0.12381 0.88257 0.39602 0.0
H606 H 0.10647 0.85644 0.39576 0.0
C607 C 0.12332 0.86405 0.39004 0.0
H608 H 0.13782 0.85435 0.39849 0.0
H609 H 0.16151 0.90936 0.38836 0.0
O610 O 0.1653 0.85193 0.27829 0.0
C611 C 0.2001 0.89828 0.32377 0.0
Co612 Co 0.16644 0.67529 0.81413 0.0
Co613 Co 0.16686 0.6883 0.86636 0.0
C614 C 0.20502 0.70665 0.83792 0.0
O615 O 0.19381 0.6988 0.82005 0.0
O616 O 0.19854 0.70113 0.85866 0.0
C617 C 0.18462 0.65828 0.76902 0.0
O618 O 0.18148 0.65216 0.74702 0.0
C619 C 0.17249 0.69167 0.91848 0.0
C620 C 0.13566 0.69615 0.92891 0.0
C621 C 0.15794 0.69383 0.938 0.0
N622 N 0.15923 0.69234 0.89894 0.0
N623 N 0.13728 0.69519 0.9054 0.0
C624 C 0.19854 0.69 0.91825 0.0
H625 H 0.20571 0.69763 0.9019 0.0
H626 H 0.20376 0.67128 0.91904 0.0
H627 H 0.20614 0.6993 0.93356 0.0
C628 C 0.16054 0.62641 0.83326 0.0
N629 N 0.1627 0.64992 0.83605 0.0
N630 N 0.16376 0.65498 0.85848 0.0
C631 C 0.16283 0.6345 0.87076 0.0
C632 C 0.16073 0.61551 0.8552 0.0
C633 C 0.16008 0.61462 0.80975 0.0
H634 H 0.1474 0.62368 0.79818 0.0
H635 H 0.17753 0.61607 0.80149 0.0
H636 H 0.15552 0.59577 0.81099 0.0
O637 O 0.13832 0.69381 0.81412 0.0
O638 O 0.1457 0.71094 0.84802 0.0
H639 H 0.15067 0.64521 0.90459 0.0
H640 H 0.16019 0.61499 0.90329 0.0
C641 C 0.16372 0.63308 0.89694 0.0
H642 H 0.18122 0.63872 0.90301 0.0
H643 H 0.12332 0.69607 0.8937 0.0
O644 O 0.16695 0.66331 0.78143 0.0
C645 C 0.13509 0.71054 0.82829 0.0
Co646 Co 0.36542 0.67244 0.31442 0.0
Co647 Co 0.35522 0.67285 0.3667 0.0
C648 C 0.33842 0.71228 0.34186 0.0
O649 O 0.34454 0.70077 0.32349 0.0
O650 O 0.34465 0.70533 0.36213 0.0
C651 C 0.38957 0.69315 0.27789 0.0
O652 O 0.39957 0.70304 0.29613 0.0
C653 C 0.35209 0.6772 0.41856 0.0
C654 C 0.35367 0.63991 0.42916 0.0
C655 C 0.35281 0.66252 0.43811 0.0
N656 N 0.35292 0.66382 0.39908 0.0
N657 N 0.35365 0.64157 0.4056 0.0
C658 C 0.34934 0.70335 0.41822 0.0
H659 H 0.33561 0.70824 0.40546 0.0
H660 H 0.36593 0.7116 0.41245 0.0
H661 H 0.34433 0.7103 0.43567 0.0
C662 C 0.41507 0.66473 0.33108 0.0
N663 N 0.39185 0.66777 0.33437 0.0
N664 N 0.38764 0.66984 0.35692 0.0
C665 C 0.40829 0.66998 0.36853 0.0
C666 C 0.42656 0.66679 0.35254 0.0
C667 C 0.42628 0.65989 0.30783 0.0
H668 H 0.41301 0.65524 0.29449 0.0
H669 H 0.43646 0.67547 0.30212 0.0
H670 H 0.43859 0.64501 0.30933 0.0
O671 O 0.34582 0.64481 0.314 0.0
O672 O 0.33017 0.65444 0.34799 0.0
H673 H 0.40133 0.65848 0.40351 0.0
H674 H 0.42893 0.67338 0.40023 0.0
C675 C 0.41045 0.67312 0.3945 0.0
H676 H 0.40179 0.68971 0.39975 0.0
H677 H 0.35464 0.62749 0.39392 0.0
O678 O 0.37421 0.67762 0.28152 0.0
C679 C 0.32895 0.64376 0.32826 0.0
Co680 Co 0.36375 0.87106 0.81215 0.0
Co681 Co 0.36409 0.85988 0.86458 0.0
C682 C 0.32645 0.83912 0.83741 0.0
O683 O 0.33745 0.84668 0.81929 0.0
O684 O 0.33267 0.84563 0.85795 0.0
C685 C 0.34366 0.88576 0.76686 0.0
O686 O 0.34607 0.89099 0.74453 0.0
C687 C 0.35919 0.85859 0.91644 0.0
C688 C 0.39624 0.85592 0.92677 0.0
C689 C 0.37393 0.85804 0.93586 0.0
N690 N 0.37234 0.85704 0.89691 0.0
N691 N 0.3944 0.85517 0.90327 0.0
C692 C 0.33341 0.86258 0.91621 0.0
H693 H 0.3277 0.86913 0.8988 0.0
H694 H 0.32839 0.87528 0.93009 0.0
H695 H 0.32437 0.8457 0.91973 0.0
C696 C 0.36606 0.92102 0.8297 0.0
N697 N 0.36633 0.8975 0.83318 0.0
N698 N 0.36594 0.89307 0.85577 0.0
C699 C 0.36545 0.91392 0.86743 0.0
C700 C 0.36528 0.93251 0.85126 0.0
C701 C 0.36595 0.93238 0.80601 0.0
H702 H 0.37691 0.92217 0.79367 0.0
H703 H 0.34784 0.93267 0.79917 0.0
H704 H 0.37249 0.95071 0.80698 0.0
O705 O 0.39275 0.85375 0.81241 0.0
O706 O 0.38585 0.83756 0.84688 0.0
H707 H 0.37735 0.9057 0.90204 0.0
H708 H 0.36446 0.93457 0.89935 0.0
C709 C 0.36335 0.91603 0.8935 0.0
H710 H 0.34634 0.90868 0.89912 0.0
H711 H 0.40831 0.85413 0.89149 0.0
O712 O 0.36179 0.88155 0.77892 0.0
C713 C 0.39653 0.83765 0.8272 0.0
Co714 Co 0.36355 0.86409 0.23307 0.0
Co715 Co 0.35413 0.87226 0.18038 0.0
C716 C 0.33012 0.83272 0.20337 0.0
O717 O 0.33862 0.83987 0.22291 0.0
O718 O 0.33654 0.84218 0.18411 0.0
C719 C 0.37444 0.84014 0.27749 0.0
O720 O 0.37936 0.84089 0.3 0.0
C721 C 0.35069 0.86945 0.12859 0.0
C722 C 0.35689 0.90644 0.11859 0.0
C723 C 0.35286 0.88431 0.10932 0.0
N724 N 0.35361 0.88223 0.14826 0.0
N725 N 0.35718 0.90433 0.14211 0.0
C726 C 0.3446 0.84387 0.12862 0.0
H727 H 0.32922 0.84099 0.14003 0.0
H728 H 0.35933 0.83368 0.13606 0.0
H729 H 0.3403 0.83731 0.11084 0.0
C730 C 0.4134 0.86417 0.21699 0.0
N731 N 0.39027 0.86649 0.21301 0.0
N732 N 0.38661 0.86946 0.19048 0.0
C733 C 0.40756 0.86871 0.17929 0.0
C734 C 0.42545 0.86522 0.19574 0.0
C735 C 0.4238 0.86143 0.24093 0.0
H736 H 0.41405 0.87226 0.25375 0.0
H737 H 0.42249 0.84278 0.24641 0.0
H738 H 0.44242 0.86679 0.24111 0.0
O739 O 0.34793 0.89411 0.23504 0.0
O740 O 0.3337 0.89495 0.19905 0.0
H741 H 0.40675 0.8877 0.147 0.0
H742 H 0.42785 0.86413 0.14754 0.0
C743 C 0.41015 0.86955 0.15319 0.0
H744 H 0.39704 0.85783 0.14496 0.0
H745 H 0.3601 0.91794 0.15402 0.0
O746 O 0.37291 0.85927 0.26621 0.0
C747 C 0.33368 0.9023 0.22024 0.0
Co748 Co 0.17602 0.87416 0.73144 0.0
Co749 Co 0.16907 0.86088 0.67964 0.0
C750 C 0.20934 0.84014 0.70427 0.0
O751 O 0.20267 0.85087 0.7229 0.0
O752 O 0.19887 0.84372 0.68485 0.0
C753 C 0.19639 0.90155 0.76676 0.0
O754 O 0.20588 0.91169 0.74836 0.0
C755 C 0.17104 0.85372 0.62777 0.0
C756 C 0.13611 0.86663 0.61791 0.0
C757 C 0.15697 0.85879 0.60843 0.0
N758 N 0.15916 0.85906 0.64749 0.0
N759 N 0.13818 0.86635 0.64139 0.0
C760 C 0.19484 0.84298 0.62782 0.0
H761 H 0.19672 0.83107 0.64306 0.0
H762 H 0.20815 0.85708 0.62929 0.0
H763 H 0.19794 0.83267 0.61162 0.0
C764 C 0.16824 0.9234 0.7122 0.0
N765 N 0.17103 0.89982 0.71005 0.0
N766 N 0.17122 0.89432 0.68768 0.0
C767 C 0.17092 0.91453 0.67494 0.0
C768 C 0.16898 0.93384 0.69005 0.0
C769 C 0.16319 0.93576 0.73485 0.0
H770 H 0.15929 0.92302 0.74901 0.0
H771 H 0.17815 0.94716 0.73968 0.0
H772 H 0.14773 0.9472 0.73299 0.0
O773 O 0.14789 0.85602 0.73494 0.0
O774 O 0.14588 0.84132 0.69908 0.0
H775 H 0.15352 0.91204 0.64199 0.0
H776 H 0.17712 0.93272 0.64214 0.0
C777 C 0.17137 0.91533 0.64871 0.0
H778 H 0.18309 0.90147 0.64183 0.0
H779 H 0.12555 0.87202 0.6533 0.0
O780 O 0.18218 0.8849 0.76348 0.0
C781 C 0.13909 0.84171 0.72047 0.0
Co782 Co 0.35945 0.67094 0.73298 0.0
Co783 Co 0.37024 0.6844 0.68179 0.0
C784 C 0.32823 0.70518 0.70485 0.0
O785 O 0.33326 0.69379 0.72355 0.0
O786 O 0.34028 0.70222 0.68623 0.0
C787 C 0.33508 0.64513 0.76567 0.0
O788 O 0.32555 0.63766 0.74607 0.0
C789 C 0.36713 0.68705 0.63018 0.0
C790 C 0.40433 0.68827 0.62016 0.0
C791 C 0.382 0.68747 0.61088 0.0
N792 N 0.38014 0.68749 0.64984 0.0
N793 N 0.40234 0.6885 0.6437 0.0
C794 C 0.34121 0.68395 0.63017 0.0
H795 H 0.33527 0.67615 0.647 0.0
H796 H 0.33566 0.67259 0.61535 0.0
H797 H 0.33283 0.70137 0.62812 0.0
C798 C 0.36683 0.62168 0.71432 0.0
N799 N 0.3652 0.64533 0.71179 0.0
N800 N 0.36852 0.6508 0.68961 0.0
C801 C 0.37136 0.63054 0.67725 0.0
C802 C 0.37008 0.61127 0.6925 0.0
C803 C 0.3687 0.60912 0.73736 0.0
H804 H 0.37439 0.62132 0.75139 0.0
H805 H 0.35161 0.60123 0.742 0.0
H806 H 0.38145 0.59453 0.73604 0.0
O807 O 0.38733 0.68962 0.73782 0.0
O808 O 0.39288 0.70336 0.70188 0.0
H809 H 0.39109 0.63901 0.64656 0.0
H810 H 0.37583 0.61122 0.6448 0.0
C811 C 0.37482 0.62956 0.65126 0.0
H812 H 0.36008 0.63848 0.64245 0.0
H813 H 0.41617 0.68859 0.6556 0.0
O814 O 0.3515 0.65987 0.76444 0.0
C815 C 0.39779 0.7033 0.72376 0.0
C816 C 0.31327 0.29937 0.65097 0.0
C817 C 0.31045 0.32128 0.64011 0.0
C818 C 0.297 0.28113 0.64748 0.0
C819 C 0.27778 0.28461 0.63218 0.0
C820 C 0.276 0.30605 0.61966 0.0
C821 C 0.29209 0.32424 0.62409 0.0
C822 C 0.29937 0.25886 0.66168 0.0
C823 C 0.25627 0.31033 0.60269 0.0
C824 C 0.24438 0.22842 0.61781 0.0
C825 C 0.22626 0.22902 0.63439 0.0
C826 C 0.26034 0.24715 0.61569 0.0
C827 C 0.25863 0.26666 0.63101 0.0
C828 C 0.23954 0.26795 0.64683 0.0
C829 C 0.22341 0.2493 0.64805 0.0
C830 C 0.27996 0.2453 0.59813 0.0
C831 C 0.23715 0.28817 0.66379 0.0
H832 H 0.32702 0.29715 0.66385 0.0
H833 H 0.28964 0.34124 0.61588 0.0
H834 H 0.28463 0.25749 0.67425 0.0
H835 H 0.29856 0.24327 0.65004 0.0
H836 H 0.31595 0.2583 0.67175 0.0
H837 H 0.25941 0.32612 0.59166 0.0
H838 H 0.25377 0.29491 0.59105 0.0
H839 H 0.23982 0.31292 0.61259 0.0
H840 H 0.24687 0.21268 0.60742 0.0
H841 H 0.20983 0.2497 0.66131 0.0
H842 H 0.29651 0.24154 0.60746 0.0
H843 H 0.28228 0.26214 0.5886 0.0
H844 H 0.27684 0.23108 0.58515 0.0
H845 H 0.23652 0.30503 0.65407 0.0
H846 H 0.25262 0.28885 0.67548 0.0
H847 H 0.22125 0.28669 0.67486 0.0
C848 C 0.80665 0.74458 0.10944 0.0
C849 C 0.80607 0.72616 0.12582 0.0
C850 C 0.78758 0.7599 0.10681 0.0
C851 C 0.76787 0.75731 0.12159 0.0
C852 C 0.76648 0.73761 0.1368 0.0
C853 C 0.78542 0.72203 0.13837 0.0
C854 C 0.7894 0.77997 0.08961 0.0
C855 C 0.74609 0.73431 0.15328 0.0
C856 C 0.73582 0.81079 0.14501 0.0
C857 C 0.71364 0.80784 0.13511 0.0
C858 C 0.75403 0.79513 0.13984 0.0
C859 C 0.75024 0.77656 0.12366 0.0
C860 C 0.7286 0.77509 0.11176 0.0
C861 C 0.71037 0.7904 0.11803 0.0
C862 C 0.77656 0.79713 0.15345 0.0
C863 C 0.72408 0.75628 0.09369 0.0
H864 H 0.82266 0.74801 0.09987 0.0
H865 H 0.78502 0.70817 0.15143 0.0
H866 H 0.77249 0.7829 0.08062 0.0
H867 H 0.79393 0.79632 0.09916 0.0
H868 H 0.80309 0.77674 0.07619 0.0
H869 H 0.74683 0.71726 0.16275 0.0
H870 H 0.74604 0.74867 0.16646 0.0
H871 H 0.72939 0.73525 0.14355 0.0
H872 H 0.73827 0.82384 0.15865 0.0
H873 H 0.69316 0.78787 0.11055 0.0
H874 H 0.7917 0.79711 0.14135 0.0
H875 H 0.77839 0.78172 0.16524 0.0
H876 H 0.77728 0.81332 0.1643 0.0
H877 H 0.73948 0.75394 0.08212 0.0
H878 H 0.70866 0.76047 0.08267 0.0
H879 H 0.72077 0.7393 0.10265 0.0
C880 C 0.23116 0.30554 0.8879 0.0
C881 C 0.2356 0.32815 0.89658 0.0
C882 C 0.24695 0.28705 0.89169 0.0
C883 C 0.26734 0.29095 0.90527 0.0
C884 C 0.27102 0.31335 0.9155 0.0
C885 C 0.2554 0.33181 0.91058 0.0
C886 C 0.24265 0.2638 0.87967 0.0
C887 C 0.292 0.31815 0.93073 0.0
C888 C 0.29784 0.23398 0.92236 0.0
C889 C 0.31495 0.23214 0.90483 0.0
C890 C 0.2834 0.25393 0.92393 0.0
C891 C 0.2855 0.27209 0.90702 0.0
C892 C 0.30363 0.27088 0.89011 0.0
C893 C 0.31836 0.25115 0.8895 0.0
C894 C 0.26491 0.25482 0.94275 0.0
C895 C 0.30635 0.28955 0.87147 0.0
H896 H 0.21625 0.30274 0.87653 0.0
H897 H 0.25907 0.34932 0.91709 0.0
H898 H 0.25673 0.26046 0.86671 0.0
H899 H 0.24305 0.24928 0.89264 0.0
H900 H 0.22564 0.26332 0.87035 0.0
H901 H 0.29021 0.33485 0.94063 0.0
H902 H 0.29472 0.30359 0.94339 0.0
H903 H 0.30783 0.31937 0.9196 0.0
H904 H 0.29494 0.21928 0.93411 0.0
H905 H 0.33119 0.2497 0.87558 0.0
H906 H 0.24756 0.2514 0.93483 0.0
H907 H 0.26432 0.27252 0.95088 0.0
H908 H 0.26798 0.24155 0.9567 0.0
H909 H 0.29 0.29102 0.86116 0.0
H910 H 0.32094 0.28576 0.85921 0.0
H911 H 0.30954 0.30686 0.87977 0.0
C912 C 0.81266 0.79549 0.4217 0.0
C913 C 0.81271 0.8125 0.40385 0.0
C914 C 0.79366 0.78002 0.42472 0.0
C915 C 0.77455 0.78096 0.40897 0.0
C916 C 0.77404 0.79883 0.39159 0.0
C917 C 0.79294 0.81457 0.38949 0.0
C918 C 0.7947 0.76175 0.44387 0.0
C919 C 0.75438 0.80022 0.37399 0.0
C920 C 0.74003 0.72569 0.39347 0.0
C921 C 0.71825 0.73044 0.4036 0.0
C922 C 0.75882 0.7415 0.39588 0.0
C923 C 0.75601 0.76228 0.40934 0.0
C924 C 0.73468 0.76603 0.42132 0.0
C925 C 0.71595 0.75032 0.41796 0.0
C926 C 0.78095 0.73697 0.38225 0.0
C927 C 0.73103 0.78752 0.43634 0.0
H928 H 0.82803 0.79353 0.43259 0.0
H929 H 0.79311 0.82718 0.37521 0.0
H930 H 0.77788 0.76093 0.45349 0.0
H931 H 0.79773 0.74421 0.43599 0.0
H932 H 0.80893 0.76538 0.4566 0.0
H933 H 0.75609 0.81561 0.36212 0.0
H934 H 0.75412 0.78404 0.36313 0.0
H935 H 0.73735 0.80125 0.38316 0.0
H936 H 0.74169 0.71084 0.38167 0.0
H937 H 0.699 0.75439 0.42536 0.0
H938 H 0.79639 0.73866 0.39384 0.0
H939 H 0.78276 0.75029 0.36813 0.0
H940 H 0.78109 0.71926 0.37408 0.0
H941 H 0.74631 0.79054 0.4479 0.0
H942 H 0.71512 0.78599 0.44739 0.0
H943 H 0.72917 0.80319 0.42491 0.0
C944 C 0.63568 0.28084 0.3293 0.0
C945 C 0.64737 0.30205 0.32489 0.0
C946 C 0.63016 0.26526 0.31086 0.0
C947 C 0.63771 0.27038 0.28769 0.0
C948 C 0.64907 0.29208 0.28317 0.0
C949 C 0.65326 0.30782 0.30171 0.0
C950 C 0.61701 0.24294 0.31634 0.0
C951 C 0.65834 0.298 0.25905 0.0
C952 C 0.65409 0.22102 0.24579 0.0
C953 C 0.6376 0.22378 0.22782 0.0
C954 C 0.6538 0.23544 0.26581 0.0
C955 C 0.6359 0.25238 0.26854 0.0
C956 C 0.61796 0.2537 0.25144 0.0
C957 C 0.61942 0.23991 0.23092 0.0
C958 C 0.6739 0.23396 0.28289 0.0
C959 C 0.59791 0.27059 0.25414 0.0
H960 H 0.63126 0.27624 0.34723 0.0
H961 H 0.66277 0.32396 0.29831 0.0
H962 H 0.60343 0.23959 0.30286 0.0
H963 H 0.62919 0.22785 0.31612 0.0
H964 H 0.60858 0.24365 0.33388 0.0
H965 H 0.66671 0.31561 0.25843 0.0
H966 H 0.6714 0.28468 0.25367 0.0
H967 H 0.64405 0.29756 0.24597 0.0
H968 H 0.66856 0.20907 0.24316 0.0
H969 H 0.60685 0.24236 0.21692 0.0
H970 H 0.66736 0.23157 0.30104 0.0
H971 H 0.68394 0.25064 0.28249 0.0
H972 H 0.68598 0.2193 0.27872 0.0
H973 H 0.59153 0.27074 0.27254 0.0
H974 H 0.58318 0.26604 0.24232 0.0
H975 H 0.60384 0.28862 0.2498 0.0
C976 C 0.81003 0.1406 0.74067 0.0
C977 C 0.80511 0.13564 0.7171 0.0
C978 C 0.79328 0.13673 0.75834 0.0
C979 C 0.77136 0.1267 0.75247 0.0
C980 C 0.76724 0.11954 0.729 0.0
C981 C 0.78388 0.1247 0.71149 0.0
C982 C 0.79829 0.14541 0.78287 0.0
C983 C 0.74467 0.10779 0.72207 0.0
C984 C 0.73552 0.11086 0.80673 0.0
C985 C 0.72098 0.13052 0.80886 0.0
C986 C 0.75058 0.10827 0.78732 0.0
C987 C 0.75207 0.1264 0.7703 0.0
C988 C 0.73656 0.14573 0.77184 0.0
C989 C 0.72092 0.14728 0.79081 0.0
C990 C 0.76588 0.08681 0.78583 0.0
C991 C 0.73789 0.16591 0.75467 0.0
H992 H 0.82611 0.14968 0.74499 0.0
H993 H 0.77983 0.12119 0.69324 0.0
H994 H 0.7862 0.15998 0.78723 0.0
H995 H 0.79527 0.13123 0.79586 0.0
H996 H 0.81648 0.15187 0.78483 0.0
H997 H 0.74612 0.09895 0.70475 0.0
H998 H 0.73936 0.09463 0.73543 0.0
H999 H 0.73064 0.12111 0.72092 0.0
H1000 H 0.73588 0.09802 0.82079 0.0
H1001 H 0.7102 0.16285 0.79265 0.0
H1002 H 0.78383 0.09136 0.79149 0.0
H1003 H 0.76689 0.08034 0.76748 0.0
H1004 H 0.75936 0.0724 0.79725 0.0
H1005 H 0.75501 0.17486 0.75644 0.0
H1006 H 0.72388 0.17904 0.7576 0.0
H1007 H 0.73658 0.15941 0.73639 0.0
C1008 C 0.92314 0.24496 0.3224 0.0
C1009 C 0.90091 0.23476 0.32123 0.0
C1010 C 0.93069 0.26096 0.30492 0.0
C1011 C 0.91547 0.26702 0.2862 0.0
C1012 C 0.89326 0.2561 0.28482 0.0
C1013 C 0.88636 0.24018 0.30227 0.0
C1014 C 0.95453 0.27197 0.30697 0.0
C1015 C 0.87631 0.26183 0.26532 0.0
C1016 C 0.91279 0.32353 0.2512 0.0
C1017 C 0.91821 0.3152 0.22869 0.0
C1018 C 0.91435 0.30869 0.27095 0.0
C1019 C 0.92185 0.28511 0.26813 0.0
C1020 C 0.93052 0.27786 0.24602 0.0
C1021 C 0.92844 0.29292 0.22654 0.0
C1022 C 0.9051 0.31735 0.29416 0.0
C1023 C 0.93928 0.2532 0.24221 0.0
H1024 H 0.93423 0.2411 0.3373 0.0
H1025 H 0.86904 0.23247 0.30155 0.0
H1026 H 0.96361 0.27186 0.28977 0.0
H1027 H 0.95271 0.29057 0.31243 0.0
H1028 H 0.96556 0.26278 0.32009 0.0
H1029 H 0.85987 0.25156 0.26666 0.0
H1030 H 0.8719 0.28079 0.26579 0.0
H1031 H 0.88439 0.25817 0.24802 0.0
H1032 H 0.90469 0.34062 0.25305 0.0
H1033 H 0.93271 0.28635 0.2092 0.0
H1034 H 0.91611 0.31109 0.30887 0.0
H1035 H 0.88724 0.31029 0.29689 0.0
H1036 H 0.90423 0.33683 0.29476 0.0
H1037 H 0.94988 0.24721 0.25734 0.0
H1038 H 0.94993 0.25186 0.22597 0.0
H1039 H 0.92417 0.24109 0.24052 0.0
C1040 C 0.79725 0.42113 0.81518 0.0
C1041 C 0.81508 0.4044 0.8169 0.0
C1042 C 0.78356 0.42296 0.79472 0.0
C1043 C 0.78693 0.40681 0.77608 0.0
C1044 C 0.80568 0.39066 0.77733 0.0
C1045 C 0.81982 0.39004 0.79748 0.0
C1046 C 0.76452 0.44116 0.79371 0.0
C1047 C 0.80947 0.37243 0.75845 0.0
C1048 C 0.73416 0.38603 0.74115 0.0
C1049 C 0.73891 0.39497 0.71871 0.0
C1050 C 0.74934 0.39025 0.76005 0.0
C1051 C 0.7693 0.40465 0.75677 0.0
C1052 C 0.77324 0.41512 0.73451 0.0
C1053 C 0.75836 0.40963 0.71558 0.0
C1054 C 0.74485 0.37787 0.78309 0.0
C1055 C 0.7937 0.43131 0.73043 0.0
H1056 H 0.79332 0.43205 0.83025 0.0
H1057 H 0.83315 0.37663 0.79893 0.0
H1058 H 0.76383 0.44942 0.77607 0.0
H1059 H 0.7474 0.43266 0.79695 0.0
H1060 H 0.76708 0.45511 0.80709 0.0
H1061 H 0.82558 0.36203 0.76139 0.0
H1062 H 0.79438 0.36018 0.75808 0.0
H1063 H 0.81058 0.38086 0.74095 0.0
H1064 H 0.71949 0.3742 0.7435 0.0
H1065 H 0.76222 0.41635 0.69819 0.0
H1066 H 0.74381 0.39079 0.79759 0.0
H1067 H 0.75955 0.36585 0.78707 0.0
H1068 H 0.72844 0.36744 0.78285 0.0
H1069 H 0.79537 0.44405 0.74508 0.0
H1070 H 0.79202 0.44116 0.71368 0.0
H1071 H 0.81003 0.42095 0.72977 0.0
C1072 C 0.208 0.62719 0.25744 0.0
C1073 C 0.21152 0.63933 0.23628 0.0
C1074 C 0.22643 0.62351 0.27336 0.0
C1075 C 0.2488 0.63295 0.26845 0.0
C1076 C 0.25273 0.6441 0.2465 0.0
C1077 C 0.23413 0.64684 0.23057 0.0
C1078 C 0.22153 0.61094 0.29616 0.0
C1079 C 0.27605 0.65499 0.24065 0.0
C1080 C 0.28775 0.65364 0.31876 0.0
C1081 C 0.30599 0.63726 0.31805 0.0
C1082 C 0.26872 0.65207 0.30319 0.0
C1083 C 0.26745 0.6332 0.28696 0.0
C1084 C 0.28493 0.61563 0.28746 0.0
C1085 C 0.30419 0.61812 0.30263 0.0
C1086 C 0.25093 0.67161 0.30294 0.0
C1087 C 0.28399 0.5949 0.27101 0.0
H1088 H 0.19047 0.6218 0.26219 0.0
H1089 H 0.23682 0.65693 0.21464 0.0
H1090 H 0.2356 0.5982 0.30015 0.0
H1091 H 0.22102 0.62387 0.3107 0.0
H1092 H 0.20458 0.60145 0.29573 0.0
H1093 H 0.27682 0.66149 0.22228 0.0
H1094 H 0.27941 0.66999 0.25262 0.0
H1095 H 0.29028 0.6421 0.24332 0.0
H1096 H 0.28935 0.66886 0.33008 0.0
H1097 H 0.31843 0.60566 0.30168 0.0
H1098 H 0.23307 0.66432 0.30482 0.0
H1099 H 0.25165 0.68093 0.28584 0.0
H1100 H 0.25391 0.68462 0.31715 0.0
H1101 H 0.26631 0.58693 0.27107 0.0
H1102 H 0.29692 0.5812 0.27579 0.0
H1103 H 0.28768 0.60084 0.25284 0.0
C1104 C 0.21928 0.92738 0.29717 0.0
C1105 C 0.22131 0.90941 0.31391 0.0
C1106 C 0.2377 0.93258 0.28163 0.0
C1107 C 0.25821 0.91876 0.28214 0.0
C1108 C 0.26088 0.90163 0.30005 0.0
C1109 C 0.24257 0.8975 0.31597 0.0
C1110 C 0.23445 0.95166 0.26356 0.0
C1111 C 0.28213 0.88602 0.30104 0.0
C1112 C 0.29096 0.90301 0.22631 0.0
C1113 C 0.3127 0.91357 0.23035 0.0
C1114 C 0.27252 0.90567 0.24238 0.0
C1115 C 0.2756 0.91998 0.26254 0.0
C1116 C 0.29658 0.9329 0.26513 0.0
C1117 C 0.31506 0.92917 0.24927 0.0
C1118 C 0.25069 0.89117 0.23903 0.0
C1119 C 0.30028 0.94914 0.2857 0.0
H1120 H 0.20276 0.93643 0.29531 0.0
H1121 H 0.24403 0.88319 0.32846 0.0
H1122 H 0.25079 0.96188 0.26117 0.0
H1123 H 0.22996 0.94364 0.2464 0.0
H1124 H 0.22019 0.96387 0.26853 0.0
H1125 H 0.28222 0.8746 0.31685 0.0
H1126 H 0.28259 0.87463 0.28524 0.0
H1127 H 0.29829 0.89674 0.30098 0.0
H1128 H 0.28918 0.89053 0.21205 0.0
H1129 H 0.33191 0.93717 0.25264 0.0
H1130 H 0.23494 0.9023 0.24072 0.0
H1131 H 0.24972 0.87751 0.25291 0.0
H1132 H 0.25026 0.88233 0.22165 0.0
H1133 H 0.28429 0.95948 0.28932 0.0
H1134 H 0.31504 0.96143 0.2826 0.0
H1135 H 0.30421 0.93864 0.30161 0.0
C1136 C 0.10726 0.73104 0.80159 0.0
C1137 C 0.12559 0.73235 0.81788 0.0
C1138 C 0.10336 0.7492 0.78528 0.0
C1139 C 0.1187 0.76873 0.78466 0.0
C1140 C 0.13621 0.77085 0.80214 0.0
C1141 C 0.13916 0.75283 0.81876 0.0
C1142 C 0.08394 0.74658 0.76761 0.0
C1143 C 0.1533 0.79109 0.80199 0.0
C1144 C 0.13567 0.79893 0.72757 0.0
C1145 C 0.12665 0.82151 0.73107 0.0
C1146 C 0.13198 0.78102 0.74421 0.0
C1147 C 0.11832 0.78561 0.76448 0.0
C1148 C 0.1069 0.80753 0.76657 0.0
C1149 C 0.1115 0.82534 0.75005 0.0
C1150 C 0.14475 0.75804 0.7413 0.0
C1151 C 0.09146 0.81292 0.78732 0.0
H1152 H 0.0969 0.71512 0.80063 0.0
H1153 H 0.15371 0.75371 0.8309 0.0
H1154 H 0.07495 0.76358 0.76475 0.0
H1155 H 0.09132 0.74093 0.75053 0.0
H1156 H 0.07089 0.73328 0.77327 0.0
H1157 H 0.16493 0.79096 0.81757 0.0
H1158 H 0.16429 0.79011 0.78597 0.0
H1159 H 0.14389 0.80807 0.80148 0.0
H1160 H 0.14779 0.79599 0.71325 0.0
H1161 H 0.10467 0.84284 0.75298 0.0
H1162 H 0.13271 0.74301 0.74396 0.0
H1163 H 0.15865 0.75672 0.75478 0.0
H1164 H 0.15291 0.7564 0.72369 0.0
H1165 H 0.08008 0.79769 0.79155 0.0
H1166 H 0.08033 0.82853 0.78405 0.0
H1167 H 0.10245 0.81651 0.80293 0.0
C1168 C 0.42361 0.72005 0.75475 0.0
C1169 C 0.40984 0.72352 0.73469 0.0
C1170 C 0.42775 0.73846 0.77071 0.0
C1171 C 0.41701 0.76054 0.76703 0.0
C1172 C 0.40471 0.7646 0.74581 0.0
C1173 C 0.40168 0.74614 0.7297 0.0
C1174 C 0.44196 0.73366 0.79245 0.0
C1175 C 0.39253 0.78764 0.74125 0.0
C1176 C 0.39313 0.79519 0.8187 0.0
C1177 C 0.40662 0.81572 0.81771 0.0
C1178 C 0.39705 0.77659 0.80299 0.0
C1179 C 0.41556 0.77812 0.7865 0.0
C1180 C 0.43075 0.79777 0.78718 0.0
C1181 C 0.42576 0.81661 0.80237 0.0
C1182 C 0.37995 0.75636 0.8026 0.0
C1183 C 0.4513 0.7997 0.77074 0.0
H1184 H 0.42978 0.70253 0.75881 0.0
H1185 H 0.39061 0.7488 0.71449 0.0
H1186 H 0.45314 0.74897 0.79685 0.0
H1187 H 0.4301 0.73052 0.80752 0.0
H1188 H 0.45318 0.71793 0.79027 0.0
H1189 H 0.38522 0.78864 0.72322 0.0
H1190 H 0.37803 0.78981 0.75399 0.0
H1191 H 0.40471 0.80257 0.74379 0.0
H1192 H 0.37797 0.79466 0.83008 0.0
H1193 H 0.43605 0.83257 0.80135 0.0
H1194 H 0.38931 0.73939 0.80375 0.0
H1195 H 0.37023 0.75646 0.78575 0.0
H1196 H 0.36713 0.75728 0.8172 0.0
H1197 H 0.4602 0.78251 0.76887 0.0
H1198 H 0.46413 0.81295 0.77693 0.0
H1199 H 0.44514 0.80508 0.75309 0.0
C1200 C 0.21481 0.30996 0.80769 0.0
C1201 C 0.19835 0.32778 0.80364 0.0
C1202 C 0.21592 0.28972 0.79335 0.0
C1203 C 0.20091 0.28749 0.77364 0.0
C1204 C 0.18481 0.3059 0.76903 0.0
C1205 C 0.1833 0.32543 0.78438 0.0
C1206 C 0.23274 0.27039 0.79978 0.0
C1207 C 0.16908 0.30498 0.74783 0.0
C1208 C 0.21766 0.24358 0.72499 0.0
C1209 C 0.20136 0.22537 0.72821 0.0
C1210 C 0.21773 0.26378 0.73947 0.0
C1211 C 0.20158 0.26571 0.7583 0.0
C1212 C 0.18573 0.24686 0.7622 0.0
C1213 C 0.18546 0.2273 0.74687 0.0
C1214 C 0.23444 0.28352 0.7339 0.0
C1215 C 0.16893 0.24736 0.78258 0.0
H1216 H 0.22621 0.31139 0.82281 0.0
H1217 H 0.17044 0.33899 0.78119 0.0
H1218 H 0.2234 0.25333 0.8009 0.0
H1219 H 0.24626 0.26864 0.78597 0.0
H1220 H 0.24157 0.27373 0.81681 0.0
H1221 H 0.15917 0.32154 0.74538 0.0
H1222 H 0.17953 0.30158 0.73179 0.0
H1223 H 0.15646 0.29031 0.74969 0.0
H1224 H 0.22973 0.24257 0.71036 0.0
H1225 H 0.17276 0.21341 0.74952 0.0
H1226 H 0.24672 0.27888 0.71956 0.0
H1227 H 0.24471 0.28838 0.74965 0.0
H1228 H 0.22442 0.29929 0.72853 0.0
H1229 H 0.17847 0.25106 0.79912 0.0
H1230 H 0.1593 0.23053 0.78458 0.0
H1231 H 0.15608 0.26166 0.78006 0.0
C1232 C 0.73482 0.69765 0.31233 0.0
C1233 C 0.71226 0.70373 0.30484 0.0
C1234 C 0.75411 0.69809 0.29694 0.0
C1235 C 0.75096 0.70402 0.27299 0.0
C1236 C 0.7281 0.70981 0.26516 0.0
C1237 C 0.70908 0.70984 0.28117 0.0
C1238 C 0.77805 0.69269 0.30647 0.0
C1239 C 0.72382 0.71608 0.23983 0.0
C1240 C 0.80453 0.72291 0.2363 0.0
C1241 C 0.80994 0.70233 0.22391 0.0
C1242 C 0.78583 0.7237 0.25249 0.0
C1243 C 0.77152 0.70357 0.25619 0.0
C1244 C 0.77729 0.68259 0.24409 0.0
C1245 C 0.79632 0.6822 0.2283 0.0
C1246 C 0.78138 0.7466 0.2648 0.0
C1247 C 0.76318 0.66047 0.24766 0.0
H1248 H 0.73754 0.69323 0.33064 0.0
H1249 H 0.69179 0.71457 0.27518 0.0
H1250 H 0.78592 0.67789 0.29662 0.0
H1251 H 0.78957 0.70819 0.30404 0.0
H1252 H 0.77767 0.68811 0.32543 0.0
H1253 H 0.70506 0.71908 0.23612 0.0
H1254 H 0.73383 0.73216 0.23527 0.0
H1255 H 0.73017 0.70182 0.22822 0.0
H1256 H 0.81483 0.73862 0.23327 0.0
H1257 H 0.80012 0.66614 0.21889 0.0
H1258 H 0.79811 0.75503 0.26995 0.0
H1259 H 0.77032 0.74471 0.28066 0.0
H1260 H 0.77271 0.75861 0.25223 0.0
H1261 H 0.76347 0.65537 0.26646 0.0
H1262 H 0.76984 0.64555 0.23706 0.0
H1263 H 0.74471 0.66365 0.24283 0.0
C1264 C 0.31638 0.2411 0.81502 0.0
C1265 C 0.33237 0.22265 0.81196 0.0
C1266 C 0.31643 0.261 0.8001 0.0
C1267 C 0.3324 0.26241 0.78107 0.0
C1268 C 0.34775 0.24322 0.77724 0.0
C1269 C 0.34795 0.22398 0.79297 0.0
C1270 C 0.30016 0.28107 0.80555 0.0
C1271 C 0.36422 0.24308 0.75658 0.0
C1272 C 0.32098 0.3071 0.73157 0.0
C1273 C 0.33813 0.32432 0.73566 0.0
C1274 C 0.31895 0.28693 0.74598 0.0
C1275 C 0.33378 0.28419 0.76576 0.0
C1276 C 0.35052 0.30204 0.77047 0.0
C1277 C 0.35289 0.32147 0.7551 0.0
C1278 C 0.30146 0.26816 0.73952 0.0
C1279 C 0.36615 0.30054 0.79171 0.0
H1280 H 0.30456 0.24057 0.82987 0.0
H1281 H 0.36037 0.20989 0.79039 0.0
H1282 H 0.31048 0.29626 0.81199 0.0
H1283 H 0.29081 0.28688 0.78955 0.0
H1284 H 0.28708 0.27629 0.81913 0.0
H1285 H 0.37322 0.22594 0.75457 0.0
H1286 H 0.35456 0.24697 0.74016 0.0
H1287 H 0.37761 0.25699 0.75881 0.0
H1288 H 0.30981 0.30882 0.71631 0.0
H1289 H 0.3663 0.33452 0.75833 0.0
H1290 H 0.28831 0.26622 0.75366 0.0
H1291 H 0.31038 0.25098 0.73766 0.0
H1292 H 0.29225 0.27217 0.72284 0.0
H1293 H 0.35553 0.2975 0.80773 0.0
H1294 H 0.3767 0.31674 0.79419 0.0
H1295 H 0.37818 0.28544 0.78988 0.0
C1296 C 0.80547 0.81934 0.30871 0.0
C1297 C 0.82135 0.83811 0.30882 0.0
C1298 C 0.78587 0.81921 0.29375 0.0
C1299 C 0.78208 0.83789 0.27769 0.0
C1300 C 0.79855 0.85656 0.27716 0.0
C1301 C 0.81767 0.85666 0.29292 0.0
C1302 C 0.76887 0.79923 0.29562 0.0
C1303 C 0.79581 0.87665 0.26012 0.0
C1304 C 0.74113 0.82617 0.22533 0.0
C1305 C 0.72045 0.83747 0.23216 0.0
C1306 C 0.76127 0.82643 0.23969 0.0
C1307 C 0.76083 0.83798 0.26179 0.0
C1308 C 0.73987 0.84936 0.26876 0.0
C1309 C 0.72022 0.84943 0.25368 0.0
C1310 C 0.78309 0.81439 0.23112 0.0
C1311 C 0.73806 0.86118 0.29236 0.0
H1312 H 0.80778 0.80511 0.32114 0.0
H1313 H 0.82971 0.87136 0.29287 0.0
H1314 H 0.75176 0.80588 0.30182 0.0
H1315 H 0.76628 0.79151 0.27809 0.0
H1316 H 0.77504 0.78527 0.30772 0.0
H1317 H 0.8107 0.88914 0.26089 0.0
H1318 H 0.7943 0.86979 0.24196 0.0
H1319 H 0.77952 0.88636 0.26403 0.0
H1320 H 0.74162 0.81724 0.20853 0.0
H1321 H 0.70442 0.8584 0.25899 0.0
H1322 H 0.78888 0.80102 0.24402 0.0
H1323 H 0.79739 0.82744 0.22942 0.0
H1324 H 0.78051 0.80566 0.21387 0.0
H1325 H 0.7417 0.84827 0.30649 0.0
H1326 H 0.72053 0.86888 0.29543 0.0
H1327 H 0.75132 0.87531 0.29378 0.0
C1328 C 0.7321 0.17483 0.2311 0.0
C1329 C 0.72877 0.19501 0.21722 0.0
C1330 C 0.74726 0.17484 0.25061 0.0
C1331 C 0.76023 0.19531 0.25627 0.0
C1332 C 0.75755 0.21555 0.2419 0.0
C1333 C 0.74155 0.2153 0.22297 0.0
C1334 C 0.74886 0.15305 0.26562 0.0
C1335 C 0.77128 0.23768 0.24664 0.0
C1336 C 0.78375 0.20322 0.31906 0.0
C1337 C 0.80662 0.19455 0.31723 0.0
C1338 C 0.76846 0.20335 0.29956 0.0
C1339 C 0.77635 0.19541 0.2773 0.0
C1340 C 0.79954 0.18697 0.27531 0.0
C1341 C 0.81416 0.18627 0.29526 0.0
C1342 C 0.7438 0.21196 0.30281 0.0
C1343 C 0.80914 0.17919 0.25191 0.0
H1344 H 0.72214 0.1591 0.22726 0.0
H1345 H 0.7389 0.23114 0.21281 0.0
H1346 H 0.76707 0.14655 0.26598 0.0
H1347 H 0.7439 0.1573 0.28397 0.0
H1348 H 0.73737 0.1387 0.25921 0.0
H1349 H 0.77062 0.25006 0.23158 0.0
H1350 H 0.76401 0.24666 0.26227 0.0
H1351 H 0.7898 0.23351 0.25044 0.0
H1352 H 0.77774 0.20982 0.33584 0.0
H1353 H 0.83191 0.18003 0.29342 0.0
H1354 H 0.73125 0.19837 0.2968 0.0
H1355 H 0.74087 0.22783 0.29193 0.0
H1356 H 0.73989 0.21634 0.3214 0.0
H1357 H 0.79892 0.16409 0.24515 0.0
H1358 H 0.82777 0.17397 0.25301 0.0
H1359 H 0.80747 0.19364 0.23894 0.0
C1360 C 0.86104 0.30879 0.80981 0.0
C1361 C 0.84184 0.31091 0.82505 0.0
C1362 C 0.86048 0.29385 0.79008 0.0
C1363 C 0.84049 0.27986 0.78554 0.0
C1364 C 0.82122 0.28141 0.80119 0.0
C1365 C 0.82196 0.29718 0.8204 0.0
C1366 C 0.8812 0.29348 0.7737 0.0
C1367 C 0.79973 0.26647 0.79762 0.0
C1368 C 0.83119 0.25566 0.7231 0.0
C1369 C 0.84151 0.23333 0.72447 0.0
C1370 C 0.83076 0.27096 0.74269 0.0
C1371 C 0.84008 0.26355 0.76459 0.0
C1372 C 0.85002 0.24081 0.76614 0.0
C1373 C 0.85098 0.22625 0.74611 0.0
C1374 C 0.82056 0.29521 0.73987 0.0
C1375 C 0.85943 0.23167 0.78913 0.0
H1376 H 0.87639 0.31952 0.8128 0.0
H1377 H 0.8069 0.29881 0.83174 0.0
H1378 H 0.88875 0.27559 0.77302 0.0
H1379 H 0.87554 0.29804 0.75564 0.0
H1380 H 0.89508 0.30598 0.77914 0.0
H1381 H 0.78709 0.26823 0.81232 0.0
H1382 H 0.79088 0.27162 0.78111 0.0
H1383 H 0.80468 0.24772 0.79591 0.0
H1384 H 0.82367 0.2613 0.70659 0.0
H1385 H 0.85855 0.20889 0.74761 0.0
H1386 H 0.83359 0.30867 0.74507 0.0
H1387 H 0.80527 0.29728 0.75161 0.0
H1388 H 0.81495 0.29876 0.72155 0.0
H1389 H 0.87446 0.24254 0.79485 0.0
H1390 H 0.86519 0.2131 0.78789 0.0
H1391 H 0.84585 0.23301 0.80296 0.0
C1392 C 0.73184 0.36416 0.30126 0.0
C1393 C 0.73668 0.35338 0.32293 0.0
C1394 C 0.74724 0.36224 0.282 0.0
C1395 C 0.76853 0.34982 0.28442 0.0
C1396 C 0.77379 0.33938 0.30645 0.0
C1397 C 0.75769 0.34094 0.32522 0.0
C1398 C 0.74045 0.37313 0.25883 0.0
C1399 C 0.79646 0.3265 0.31021 0.0
C1400 C 0.80151 0.32815 0.22961 0.0
C1401 C 0.81806 0.34609 0.22612 0.0
C1402 C 0.78521 0.32917 0.24828 0.0
C1403 C 0.78552 0.34842 0.26416 0.0
C1404 C 0.8021 0.36658 0.26059 0.0
C1405 C 0.81788 0.36531 0.24163 0.0
C1406 C 0.76765 0.30958 0.25102 0.0
C1407 C 0.80356 0.38722 0.27716 0.0
H1408 H 0.71547 0.37335 0.29901 0.0
H1409 H 0.76158 0.33238 0.34177 0.0
H1410 H 0.75356 0.38649 0.25357 0.0
H1411 H 0.74019 0.35947 0.24494 0.0
H1412 H 0.72305 0.38163 0.25954 0.0
H1413 H 0.79843 0.32019 0.32855 0.0
H1414 H 0.79744 0.31119 0.29823 0.0
H1415 H 0.81138 0.33819 0.30593 0.0
H1416 H 0.80135 0.31323 0.2178 0.0
H1417 H 0.83061 0.37923 0.23941 0.0
H1418 H 0.74973 0.31677 0.24959 0.0
H1419 H 0.76923 0.3015 0.26865 0.0
H1420 H 0.76991 0.29565 0.23758 0.0
H1421 H 0.78677 0.39685 0.2773 0.0
H1422 H 0.81768 0.39969 0.2723 0.0
H1423 H 0.80672 0.38089 0.2953 0.0
C1424 C 0.71848 0.22292 0.80096 0.0
C1425 C 0.70253 0.22504 0.81958 0.0
C1426 C 0.71811 0.23853 0.78165 0.0
C1427 C 0.70178 0.25725 0.78105 0.0
C1428 C 0.68646 0.26015 0.80043 0.0
C1429 C 0.68669 0.24381 0.81912 0.0
C1430 C 0.73449 0.23423 0.76137 0.0
C1431 C 0.66958 0.28041 0.80133 0.0
C1432 C 0.71372 0.30825 0.73846 0.0
C1433 C 0.69727 0.30435 0.72059 0.0
C1434 C 0.71514 0.29341 0.75828 0.0
C1435 C 0.70036 0.27345 0.76003 0.0
C1436 C 0.68405 0.26916 0.7417 0.0
C1437 C 0.68232 0.28492 0.72253 0.0
C1438 C 0.73214 0.29942 0.77762 0.0
C1439 C 0.6685 0.24776 0.74224 0.0
H1440 H 0.73054 0.20828 0.80089 0.0
H1441 H 0.67433 0.24566 0.8334 0.0
H1442 H 0.72427 0.22849 0.74585 0.0
H1443 H 0.74377 0.2506 0.75643 0.0
H1444 H 0.74764 0.22053 0.76545 0.0
H1445 H 0.66033 0.28146 0.81844 0.0
H1446 H 0.67896 0.29721 0.79828 0.0
H1447 H 0.65642 0.27853 0.7872 0.0
H1448 H 0.72509 0.32345 0.73726 0.0
H1449 H 0.66958 0.28181 0.70883 0.0
H1450 H 0.74471 0.28487 0.78015 0.0
H1451 H 0.7226 0.30166 0.79442 0.0
H1452 H 0.74206 0.31579 0.77389 0.0
H1453 H 0.67925 0.23169 0.74425 0.0
H1454 H 0.6578 0.24607 0.72609 0.0
H1455 H 0.65664 0.24863 0.75759 0.0
C1456 C 0.30497 0.80202 0.22348 0.0
C1457 C 0.3108 0.81476 0.20319 0.0
C1458 C 0.28561 0.7866 0.22404 0.0
C1459 C 0.27111 0.78396 0.20394 0.0
C1460 C 0.27731 0.79635 0.18322 0.0
C1461 C 0.29694 0.81143 0.18308 0.0
C1462 C 0.28079 0.77391 0.2467 0.0
C1463 C 0.2631 0.79376 0.16107 0.0
C1464 C 0.23246 0.72914 0.19767 0.0
C1465 C 0.21017 0.73734 0.20388 0.0
C1466 C 0.25225 0.74391 0.19801 0.0
C1467 C 0.24994 0.76792 0.20412 0.0
C1468 C 0.22737 0.77648 0.21001 0.0
C1469 C 0.2078 0.76111 0.20998 0.0
C1470 C 0.27584 0.73365 0.19236 0.0
C1471 C 0.224 0.80185 0.21664 0.0
H1472 H 0.31545 0.8042 0.23918 0.0
H1473 H 0.30107 0.8211 0.16724 0.0
H1474 H 0.26806 0.75934 0.24492 0.0
H1475 H 0.29724 0.76677 0.25409 0.0
H1476 H 0.27406 0.78685 0.25954 0.0
H1477 H 0.27022 0.80436 0.14634 0.0
H1478 H 0.26262 0.77505 0.15565 0.0
H1479 H 0.24485 0.79927 0.16437 0.0
H1480 H 0.23458 0.71074 0.19326 0.0
H1481 H 0.19074 0.76764 0.21483 0.0
H1482 H 0.28744 0.73539 0.20786 0.0
H1483 H 0.28406 0.74351 0.17772 0.0
H1484 H 0.27478 0.7148 0.18745 0.0
H1485 H 0.23448 0.80593 0.2325 0.0
H1486 H 0.20542 0.80607 0.22015 0.0
H1487 H 0.23039 0.81343 0.20235 0.0
C1488 C 0.22258 0.79087 0.35277 0.0
C1489 C 0.22337 0.81219 0.34045 0.0
C1490 C 0.24154 0.77499 0.35227 0.0
C1491 C 0.26229 0.78083 0.33987 0.0
C1492 C 0.26326 0.80263 0.32776 0.0
C1493 C 0.24383 0.81789 0.32809 0.0
C1494 C 0.23927 0.7518 0.36489 0.0
C1495 C 0.28491 0.80996 0.31455 0.0
C1496 C 0.31839 0.74847 0.3579 0.0
C1497 C 0.3208 0.73159 0.34005 0.0
C1498 C 0.29995 0.76495 0.3577 0.0
C1499 C 0.28291 0.76422 0.33964 0.0
C1500 C 0.28544 0.74723 0.32159 0.0
C1501 C 0.30442 0.7315 0.32179 0.0
C1502 C 0.29847 0.78289 0.37711 0.0
C1503 C 0.2678 0.74524 0.30223 0.0
H1504 H 0.20691 0.7864 0.36245 0.0
H1505 H 0.24472 0.8345 0.31882 0.0
H1506 H 0.24206 0.73716 0.35236 0.0
H1507 H 0.25289 0.75038 0.37864 0.0
H1508 H 0.22189 0.74957 0.37324 0.0
H1509 H 0.28251 0.82679 0.30498 0.0
H1510 H 0.29964 0.81198 0.32702 0.0
H1511 H 0.28996 0.79621 0.30174 0.0
H1512 H 0.33085 0.74866 0.3722 0.0
H1513 H 0.30579 0.71834 0.30812 0.0
H1514 H 0.28235 0.77997 0.3875 0.0
H1515 H 0.29741 0.80082 0.36955 0.0
H1516 H 0.31369 0.78208 0.38913 0.0
H1517 H 0.27249 0.73152 0.28922 0.0
H1518 H 0.26663 0.76227 0.29311 0.0
H1519 H 0.25035 0.7412 0.30966 0.0
C1520 C 0.22211 0.74255 0.8179 0.0
C1521 C 0.22409 0.72465 0.83483 0.0
C1522 C 0.23823 0.76146 0.81683 0.0
C1523 C 0.25752 0.76228 0.8325 0.0
C1524 C 0.26016 0.74359 0.84884 0.0
C1525 C 0.24322 0.72549 0.85021 0.0
C1526 C 0.23402 0.78111 0.79956 0.0
C1527 C 0.28088 0.74279 0.86512 0.0
C1528 C 0.31005 0.80249 0.81822 0.0
C1529 C 0.30771 0.8207 0.83476 0.0
C1530 C 0.29398 0.78354 0.81718 0.0
C1531 C 0.27439 0.78296 0.83249 0.0
C1532 C 0.27143 0.8019 0.84847 0.0
C1533 C 0.28831 0.82007 0.84982 0.0
C1534 C 0.29869 0.76355 0.80046 0.0
C1535 C 0.2504 0.80294 0.86436 0.0
H1536 H 0.20722 0.74241 0.80618 0.0
H1537 H 0.24502 0.71182 0.86333 0.0
H1538 H 0.24969 0.78405 0.78853 0.0
H1539 H 0.2189 0.77752 0.7879 0.0
H1540 H 0.2307 0.79767 0.80926 0.0
H1541 H 0.28171 0.72608 0.87516 0.0
H1542 H 0.29728 0.74485 0.85496 0.0
H1543 H 0.27997 0.75757 0.87775 0.0
H1544 H 0.32514 0.80247 0.80674 0.0
H1545 H 0.28622 0.83398 0.86263 0.0
H1546 H 0.28278 0.75893 0.7904 0.0
H1547 H 0.30377 0.74776 0.81065 0.0
H1548 H 0.31293 0.76775 0.78789 0.0
H1549 H 0.2342 0.8007 0.85393 0.0
H1550 H 0.24936 0.8198 0.87409 0.0
H1551 H 0.25108 0.78836 0.87725 0.0
C1552 C 0.29103 0.72375 0.72091 0.0
C1553 C 0.31022 0.72447 0.70554 0.0
C1554 C 0.27463 0.74238 0.72197 0.0
C1555 C 0.27788 0.76291 0.70807 0.0
C1556 C 0.29771 0.76399 0.69315 0.0
C1557 C 0.31321 0.74475 0.69173 0.0
C1558 C 0.25361 0.73988 0.73774 0.0
C1559 C 0.30274 0.78569 0.67876 0.0
C1560 C 0.22692 0.80244 0.68909 0.0
C1561 C 0.22747 0.82094 0.70547 0.0
C1562 C 0.24254 0.78332 0.69032 0.0
C1563 C 0.26005 0.78266 0.70791 0.0
C1564 C 0.26085 0.80134 0.72451 0.0
C1565 C 0.24437 0.81991 0.72334 0.0
C1566 C 0.2401 0.76359 0.67279 0.0
C1567 C 0.27954 0.80216 0.74312 0.0
H1568 H 0.28861 0.70841 0.73188 0.0
H1569 H 0.3282 0.74591 0.68019 0.0
H1570 H 0.25366 0.75393 0.7512 0.0
H1571 H 0.23741 0.74193 0.72728 0.0
H1572 H 0.25309 0.72259 0.74679 0.0
H1573 H 0.31988 0.78473 0.66971 0.0
H1574 H 0.28896 0.78809 0.66534 0.0
H1575 H 0.30259 0.80147 0.69019 0.0
H1576 H 0.21372 0.80255 0.67548 0.0
H1577 H 0.24496 0.83384 0.73626 0.0
H1578 H 0.23877 0.74651 0.68211 0.0
H1579 H 0.2558 0.76282 0.66144 0.0
H1580 H 0.22453 0.76569 0.6614 0.0
H1581 H 0.28098 0.78502 0.75221 0.0
H1582 H 0.2762 0.81604 0.7564 0.0
H1583 H 0.29663 0.80572 0.73468 0.0
C1584 C 0.9106 0.75071 0.3113 0.0
C1585 C 0.89289 0.75334 0.3279 0.0
C1586 C 0.90507 0.74256 0.2889 0.0
C1587 C 0.88156 0.73647 0.28409 0.0
C1588 C 0.86611 0.73207 0.30287 0.0
C1589 C 0.87193 0.74087 0.32506 0.0
C1590 C 0.92292 0.74555 0.26961 0.0
C1591 C 0.84198 0.72239 0.29871 0.0
C1592 C 0.86296 0.77773 0.23648 0.0
C1593 C 0.86933 0.76483 0.2167 0.0
C1594 C 0.86436 0.76775 0.25887 0.0
C1595 C 0.87204 0.7441 0.2613 0.0
C1596 C 0.8759 0.73033 0.2412 0.0
C1597 C 0.87537 0.7412 0.21926 0.0
C1598 C 0.85946 0.7833 0.2798 0.0
C1599 C 0.88112 0.70438 0.24282 0.0
H1600 H 0.92733 0.75917 0.31424 0.0
H1601 H 0.85858 0.74161 0.33852 0.0
H1602 H 0.92271 0.73029 0.25756 0.0
H1603 H 0.91874 0.76147 0.25918 0.0
H1604 H 0.94085 0.74756 0.27673 0.0
H1605 H 0.83649 0.71121 0.31372 0.0
H1606 H 0.82934 0.73705 0.29736 0.0
H1607 H 0.84115 0.71194 0.28228 0.0
H1608 H 0.85788 0.79596 0.23455 0.0
H1609 H 0.88034 0.73126 0.20427 0.0
H1610 H 0.87577 0.78611 0.28986 0.0
H1611 H 0.84653 0.77491 0.2916 0.0
H1612 H 0.85256 0.80077 0.27461 0.0
H1613 H 0.89417 0.70053 0.25663 0.0
H1614 H 0.88743 0.69712 0.22587 0.0
H1615 H 0.86486 0.69496 0.24774 0.0
C1616 C 0.26326 0.42929 0.72185 0.0
C1617 C 0.28631 0.43323 0.71537 0.0
C1618 C 0.25286 0.4439 0.73848 0.0
C1619 C 0.26654 0.46206 0.74885 0.0
C1620 C 0.28653 0.46999 0.73683 0.0
C1621 C 0.29698 0.45479 0.72068 0.0
C1622 C 0.22915 0.43693 0.74764 0.0
C1623 C 0.2987 0.49248 0.74353 0.0
C1624 C 0.2369 0.45702 0.80414 0.0
C1625 C 0.24874 0.43683 0.81168 0.0
C1626 C 0.24631 0.47099 0.78627 0.0
C1627 C 0.2666 0.46307 0.77487 0.0
C1628 C 0.28124 0.44673 0.78675 0.0
C1629 C 0.27183 0.43342 0.80504 0.0
C1630 C 0.23289 0.49197 0.77755 0.0
C1631 C 0.30524 0.44024 0.77807 0.0
H1632 H 0.25451 0.41328 0.71643 0.0
H1633 H 0.31434 0.45868 0.71417 0.0
H1634 H 0.23113 0.42667 0.76407 0.0
H1635 H 0.21839 0.45264 0.75123 0.0
H1636 H 0.21958 0.42576 0.73486 0.0
H1637 H 0.2967 0.5052 0.72892 0.0
H1638 H 0.29126 0.50051 0.75962 0.0
H1639 H 0.31769 0.4895 0.74592 0.0
H1640 H 0.21956 0.46071 0.81057 0.0
H1641 H 0.28153 0.41867 0.81207 0.0
H1642 H 0.24053 0.49958 0.76132 0.0
H1643 H 0.23302 0.50568 0.79138 0.0
H1644 H 0.21435 0.48723 0.77443 0.0
H1645 H 0.30368 0.42807 0.76297 0.0
H1646 H 0.31552 0.43117 0.79187 0.0
H1647 H 0.31508 0.45606 0.77256 0.0
C1648 C 0.66948 0.80838 0.32411 0.0
C1649 C 0.67366 0.79266 0.3425 0.0
C1650 C 0.67965 0.80426 0.3022 0.0
C1651 C 0.69324 0.78374 0.29925 0.0
C1652 C 0.70335 0.77352 0.31944 0.0
C1653 C 0.6929 0.77775 0.34122 0.0
C1654 C 0.67137 0.81842 0.28147 0.0
C1655 C 0.72433 0.75787 0.31836 0.0
C1656 C 0.65274 0.75579 0.25655 0.0
C1657 C 0.66402 0.76211 0.23589 0.0
C1658 C 0.66368 0.75912 0.27817 0.0
C1659 C 0.6867 0.76878 0.27885 0.0
C1660 C 0.69948 0.77048 0.25771 0.0
C1661 C 0.68801 0.76681 0.2363 0.0
C1662 C 0.64836 0.75646 0.29953 0.0
C1663 C 0.72414 0.77925 0.25742 0.0
H1664 H 0.65562 0.82124 0.32554 0.0
H1665 H 0.69814 0.76771 0.35645 0.0
H1666 H 0.68343 0.81678 0.26635 0.0
H1667 H 0.65388 0.81204 0.27599 0.0
H1668 H 0.6697 0.83723 0.2863 0.0
H1669 H 0.72387 0.74431 0.33234 0.0
H1670 H 0.72643 0.74966 0.301 0.0
H1671 H 0.74 0.76864 0.32187 0.0
H1672 H 0.63427 0.75161 0.25603 0.0
H1673 H 0.69705 0.77087 0.22007 0.0
H1674 H 0.63609 0.7715 0.30041 0.0
H1675 H 0.65825 0.7559 0.31598 0.0
H1676 H 0.63771 0.74018 0.29824 0.0
H1677 H 0.72508 0.79685 0.26567 0.0
H1678 H 0.73149 0.78012 0.23941 0.0
H1679 H 0.73508 0.7672 0.26777 0.0
C1680 C 0.29661 0.15536 0.82221 0.0
C1681 C 0.27329 0.16133 0.82609 0.0
C1682 C 0.30617 0.1546 0.7997 0.0
C1683 C 0.29155 0.15902 0.78041 0.0
C1684 C 0.26806 0.1662 0.78414 0.0
C1685 C 0.25927 0.16726 0.80701 0.0
C1686 C 0.3317 0.14875 0.7967 0.0
C1687 C 0.25162 0.17132 0.76406 0.0
C1688 C 0.29478 0.16707 0.71712 0.0
C1689 C 0.2821 0.14672 0.71165 0.0
C1690 C 0.3034 0.17001 0.73992 0.0
C1691 C 0.29886 0.1522 0.75656 0.0
C1692 C 0.29238 0.12948 0.74886 0.0
C1693 C 0.28413 0.12693 0.72598 0.0
C1694 C 0.3129 0.19356 0.74729 0.0
C1695 C 0.28899 0.10937 0.76581 0.0
H1696 H 0.30735 0.15068 0.83665 0.0
H1697 H 0.24122 0.17211 0.80992 0.0
H1698 H 0.33443 0.13565 0.78259 0.0
H1699 H 0.34125 0.16491 0.7915 0.0
H1700 H 0.33959 0.14199 0.81318 0.0
H1701 H 0.23453 0.17818 0.77017 0.0
H1702 H 0.25935 0.18444 0.75195 0.0
H1703 H 0.24837 0.15496 0.75405 0.0
H1704 H 0.29422 0.18209 0.70543 0.0
H1705 H 0.27526 0.11082 0.72103 0.0
H1706 H 0.32669 0.19129 0.76073 0.0
H1707 H 0.29873 0.20423 0.75515 0.0
H1708 H 0.32019 0.20338 0.7321 0.0
H1709 H 0.30321 0.10882 0.77896 0.0
H1710 H 0.28831 0.09223 0.75654 0.0
H1711 H 0.27227 0.11176 0.77536 0.0
C1712 C 0.21284 0.88297 0.80182 0.0
C1713 C 0.20809 0.90375 0.78949 0.0
C1714 C 0.23548 0.87903 0.81005 0.0
C1715 C 0.25243 0.89657 0.80599 0.0
C1716 C 0.24526 0.91979 0.80096 0.0
C1717 C 0.22261 0.92322 0.79271 0.0
C1718 C 0.24232 0.85479 0.81806 0.0
C1719 C 0.26259 0.93965 0.79884 0.0
C1720 C 0.31725 0.8896 0.8015 0.0
C1721 C 0.32024 0.88533 0.77755 0.0
C1722 C 0.29526 0.89142 0.81174 0.0
C1723 C 0.27554 0.88943 0.79728 0.0
C1724 C 0.27824 0.88389 0.77304 0.0
C1725 C 0.30063 0.88194 0.76352 0.0
C1726 C 0.29339 0.89579 0.83785 0.0
C1727 C 0.25769 0.88157 0.75664 0.0
H1728 H 0.20083 0.86826 0.80081 0.0
H1729 H 0.21813 0.93982 0.78452 0.0
H1730 H 0.25633 0.85582 0.83143 0.0
H1731 H 0.22716 0.84513 0.82551 0.0
H1732 H 0.24908 0.84463 0.80288 0.0
H1733 H 0.25382 0.95699 0.79996 0.0
H1734 H 0.27607 0.93857 0.81274 0.0
H1735 H 0.2715 0.93853 0.78157 0.0
H1736 H 0.33203 0.89219 0.81228 0.0
H1737 H 0.30276 0.87839 0.74495 0.0
H1738 H 0.28924 0.87896 0.84675 0.0
H1739 H 0.27923 0.90831 0.84212 0.0
H1740 H 0.31 0.90257 0.84529 0.0
H1741 H 0.26286 0.87501 0.73904 0.0
H1742 H 0.24955 0.89904 0.7543 0.0
H1743 H 0.24446 0.86939 0.76397 0.0
C1744 C 0.18734 0.70594 0.2784 0.0
C1745 C 0.16768 0.70619 0.29289 0.0
C1746 C 0.19968 0.7268 0.27447 0.0
C1747 C 0.19115 0.7477 0.28465 0.0
C1748 C 0.17682 0.74584 0.30481 0.0
C1749 C 0.1646 0.72489 0.3085 0.0
C1750 C 0.22104 0.72635 0.25925 0.0
C1751 C 0.17033 0.76713 0.31908 0.0
C1752 C 0.19172 0.81108 0.26932 0.0
C1753 C 0.16795 0.81351 0.26421 0.0
C1754 C 0.20138 0.7887 0.27234 0.0
C1755 C 0.18697 0.76874 0.26975 0.0
C1756 C 0.16444 0.77152 0.25946 0.0
C1757 C 0.15534 0.79406 0.25665 0.0
C1758 C 0.22581 0.78661 0.28145 0.0
C1759 C 0.14766 0.75145 0.25564 0.0
H1760 H 0.19168 0.69032 0.26859 0.0
H1761 H 0.15041 0.72457 0.32109 0.0
H1762 H 0.22394 0.74323 0.25027 0.0
H1763 H 0.23634 0.72299 0.27055 0.0
H1764 H 0.22036 0.71178 0.24632 0.0
H1765 H 0.16674 0.76214 0.33759 0.0
H1766 H 0.18439 0.78053 0.3187 0.0
H1767 H 0.15423 0.77507 0.31175 0.0
H1768 H 0.20184 0.82638 0.27435 0.0
H1769 H 0.13707 0.79615 0.25212 0.0
H1770 H 0.22553 0.77903 0.29938 0.0
H1771 H 0.23507 0.80375 0.28167 0.0
H1772 H 0.23566 0.77453 0.27009 0.0
H1773 H 0.15626 0.73427 0.25511 0.0
H1774 H 0.13794 0.75395 0.23896 0.0
H1775 H 0.13466 0.75121 0.27009 0.0
C1776 C 0.22736 0.66281 0.76424 0.0
C1777 C 0.2083 0.65893 0.77894 0.0
C1778 C 0.25009 0.6612 0.77291 0.0
C1779 C 0.25372 0.65537 0.79693 0.0
C1780 C 0.23453 0.65277 0.81211 0.0
C1781 C 0.21211 0.65441 0.80276 0.0
C1782 C 0.27005 0.66438 0.75588 0.0
C1783 C 0.23745 0.64799 0.83803 0.0
C1784 C 0.30743 0.62309 0.78982 0.0
C1785 C 0.32181 0.64278 0.78742 0.0
C1786 C 0.28489 0.62579 0.79867 0.0
C1787 C 0.27733 0.64865 0.8046 0.0
C1788 C 0.29393 0.66656 0.80853 0.0
C1789 C 0.31654 0.66333 0.79987 0.0
C1790 C 0.26798 0.60558 0.79647 0.0
C1791 C 0.28668 0.69048 0.81712 0.0
H1792 H 0.2245 0.66658 0.74581 0.0
H1793 H 0.19766 0.6514 0.81408 0.0
H1794 H 0.28298 0.67705 0.7629 0.0
H1795 H 0.27893 0.64731 0.75319 0.0
H1796 H 0.26412 0.67084 0.73848 0.0
H1797 H 0.22125 0.64072 0.84597 0.0
H1798 H 0.252 0.63568 0.84151 0.0
H1799 H 0.24156 0.66474 0.84707 0.0
H1800 H 0.31215 0.60682 0.78115 0.0
H1801 H 0.32824 0.67829 0.79901 0.0
H1802 H 0.25869 0.6069 0.77943 0.0
H1803 H 0.25477 0.60604 0.8107 0.0
H1804 H 0.27716 0.58843 0.79702 0.0
H1805 H 0.27929 0.70072 0.8023 0.0
H1806 H 0.30176 0.7004 0.82434 0.0
H1807 H 0.27305 0.68885 0.83083 0.0
C1808 C 0.37659 0.81455 0.24196 0.0
C1809 C 0.37127 0.81734 0.26576 0.0
C1810 C 0.37597 0.79255 0.23118 0.0
C1811 C 0.37159 0.77261 0.24512 0.0
C1812 C 0.36443 0.77542 0.2689 0.0
C1813 C 0.36424 0.79785 0.27882 0.0
C1814 C 0.38052 0.79069 0.20513 0.0
C1815 C 0.3589 0.75477 0.28466 0.0
C1816 C 0.36912 0.70892 0.24323 0.0
C1817 C 0.39017 0.70564 0.25539 0.0
C1818 C 0.36399 0.73108 0.23387 0.0
C1819 C 0.38018 0.74941 0.23748 0.0
C1820 C 0.4036 0.74388 0.24316 0.0
C1821 C 0.40844 0.72151 0.25189 0.0
C1822 C 0.33989 0.73584 0.22448 0.0
C1823 C 0.42223 0.76258 0.2451 0.0
H1824 H 0.38194 0.82939 0.23182 0.0
H1825 H 0.35963 0.80001 0.29716 0.0
H1826 H 0.39223 0.77582 0.20085 0.0
H1827 H 0.3637 0.78732 0.19609 0.0
H1828 H 0.38813 0.80712 0.19784 0.0
H1829 H 0.35249 0.76032 0.30221 0.0
H1830 H 0.34534 0.74347 0.27662 0.0
H1831 H 0.37481 0.74407 0.28727 0.0
H1832 H 0.3553 0.69596 0.24456 0.0
H1833 H 0.42522 0.71819 0.26004 0.0
H1834 H 0.33934 0.75237 0.21414 0.0
H1835 H 0.32739 0.73727 0.23927 0.0
H1836 H 0.33402 0.72101 0.21327 0.0
H1837 H 0.4221 0.77418 0.22948 0.0
H1838 H 0.43992 0.75484 0.24686 0.0
H1839 H 0.41883 0.77362 0.26079 0.0
C1840 C 0.77912 0.22854 0.87657 0.0
C1841 C 0.76406 0.20967 0.8805 0.0
C1842 C 0.77123 0.25164 0.87885 0.0
C1843 C 0.74762 0.25584 0.88529 0.0
C1844 C 0.73205 0.2369 0.88789 0.0
C1845 C 0.74064 0.21408 0.8857 0.0
C1846 C 0.78865 0.27137 0.87569 0.0
C1847 C 0.70649 0.24052 0.89326 0.0
C1848 C 0.75592 0.30906 0.91926 0.0
C1849 C 0.75834 0.32426 0.90016 0.0
C1850 C 0.74706 0.28649 0.91577 0.0
C1851 C 0.7409 0.27969 0.89271 0.0
C1852 C 0.73729 0.297 0.87535 0.0
C1853 C 0.74619 0.31957 0.87932 0.0
C1854 C 0.7493 0.26879 0.93537 0.0
C1855 C 0.72865 0.2906 0.85119 0.0
H1856 H 0.79725 0.22526 0.87228 0.0
H1857 H 0.72905 0.19978 0.88877 0.0
H1858 H 0.78176 0.2847 0.86336 0.0
H1859 H 0.7918 0.2801 0.8928 0.0
H1860 H 0.80566 0.26508 0.8688 0.0
H1861 H 0.69798 0.22411 0.89952 0.0
H1862 H 0.70387 0.25444 0.9066 0.0
H1863 H 0.69748 0.24624 0.87702 0.0
H1864 H 0.76444 0.31329 0.93573 0.0
H1865 H 0.74718 0.33182 0.86477 0.0
H1866 H 0.76599 0.25914 0.93336 0.0
H1867 H 0.73488 0.25579 0.93482 0.0
H1868 H 0.74933 0.27748 0.95282 0.0
H1869 H 0.74355 0.28459 0.8403 0.0
H1870 H 0.72063 0.30598 0.84235 0.0
H1871 H 0.7157 0.27611 0.85207 0.0
C1872 C 0.76123 0.19346 0.59924 0.0
C1873 C 0.75688 0.19075 0.62329 0.0
C1874 C 0.75324 0.2136 0.58754 0.0
C1875 C 0.74046 0.23046 0.6004 0.0
C1876 C 0.7311 0.22421 0.62266 0.0
C1877 C 0.73968 0.20429 0.63396 0.0
C1878 C 0.76134 0.21812 0.56279 0.0
C1879 C 0.71558 0.24052 0.63655 0.0
C1880 C 0.75956 0.28931 0.61681 0.0
C1881 C 0.73779 0.29996 0.6155 0.0
C1882 C 0.76281 0.26717 0.60675 0.0
C1883 C 0.74366 0.25586 0.59559 0.0
C1884 C 0.72409 0.26931 0.58916 0.0
C1885 C 0.72103 0.29125 0.59976 0.0
C1886 C 0.78513 0.2544 0.61201 0.0
C1887 C 0.70475 0.2592 0.57438 0.0
H1888 H 0.7736 0.18202 0.59057 0.0
H1889 H 0.73568 0.20142 0.65236 0.0
H1890 H 0.75234 0.23331 0.55465 0.0
H1891 H 0.78043 0.22141 0.56271 0.0
H1892 H 0.75824 0.20226 0.55189 0.0
H1893 H 0.70785 0.23168 0.65212 0.0
H1894 H 0.72588 0.25579 0.64282 0.0
H1895 H 0.70113 0.24714 0.6255 0.0
H1896 H 0.77289 0.29665 0.62817 0.0
H1897 H 0.70453 0.30028 0.59768 0.0
H1898 H 0.79083 0.24425 0.59647 0.0
H1899 H 0.78211 0.24211 0.62683 0.0
H1900 H 0.79938 0.26664 0.61705 0.0
H1901 H 0.71076 0.2439 0.56395 0.0
H1902 H 0.69785 0.27285 0.5623 0.0
H1903 H 0.69014 0.25353 0.58584 0.0
C1904 C 0.80374 0.26635 0.17033 0.0
C1905 C 0.82281 0.28021 0.16416 0.0
C1906 C 0.7811 0.27514 0.16869 0.0
C1907 C 0.77757 0.29855 0.16065 0.0
C1908 C 0.79695 0.31337 0.15691 0.0
C1909 C 0.81934 0.30381 0.15822 0.0
C1910 C 0.76116 0.25845 0.17364 0.0
C1911 C 0.79445 0.33886 0.15017 0.0
C1912 C 0.7278 0.28629 0.1243 0.0
C1913 C 0.71212 0.28334 0.14287 0.0
C1914 C 0.74919 0.29734 0.12834 0.0
C1915 C 0.75435 0.30493 0.15141 0.0
C1916 C 0.73594 0.30841 0.16747 0.0
C1917 C 0.71459 0.29724 0.16306 0.0
C1918 C 0.76776 0.29607 0.10962 0.0
C1919 C 0.74017 0.3193 0.19116 0.0
H1920 H 0.80647 0.24821 0.17547 0.0
H1921 H 0.83395 0.31471 0.15369 0.0
H1922 H 0.74875 0.26636 0.18626 0.0
H1923 H 0.75173 0.25456 0.15714 0.0
H1924 H 0.76723 0.2415 0.18108 0.0
H1925 H 0.79979 0.34124 0.13159 0.0
H1926 H 0.77642 0.34551 0.15249 0.0
H1927 H 0.80645 0.34976 0.16095 0.0
H1928 H 0.72511 0.2767 0.10808 0.0
H1929 H 0.70178 0.29613 0.17703 0.0
H1930 H 0.77988 0.28141 0.11361 0.0
H1931 H 0.77802 0.31258 0.10917 0.0
H1932 H 0.76012 0.29301 0.09197 0.0
H1933 H 0.74259 0.30518 0.20435 0.0
H1934 H 0.7248 0.32979 0.19665 0.0
H1935 H 0.75593 0.33069 0.19112 0.0
C1936 C 0.75337 0.28741 0.42616 0.0
C1937 C 0.7439 0.30986 0.42777 0.0
C1938 C 0.77568 0.28311 0.43502 0.0
C1939 C 0.78846 0.30193 0.44524 0.0
C1940 C 0.77655 0.32248 0.45194 0.0
C1941 C 0.7543 0.32648 0.44271 0.0
C1942 C 0.78687 0.25985 0.42954 0.0
C1943 C 0.78844 0.34168 0.46565 0.0
C1944 C 0.84853 0.27959 0.43952 0.0
C1945 C 0.85042 0.28314 0.41526 0.0
C1946 C 0.82989 0.28963 0.4519 0.0
C1947 C 0.8136 0.30344 0.43943 0.0
C1948 C 0.81939 0.31169 0.4166 0.0
C1949 C 0.83777 0.30108 0.40463 0.0
C1950 C 0.82593 0.28254 0.47706 0.0
C1951 C 0.80375 0.32815 0.40304 0.0
H1952 H 0.74476 0.27416 0.41558 0.0
H1953 H 0.74618 0.34347 0.44528 0.0
H1954 H 0.79716 0.2536 0.44474 0.0
H1955 H 0.77374 0.24619 0.42506 0.0
H1956 H 0.79875 0.26198 0.4143 0.0
H1957 H 0.77608 0.34941 0.47851 0.0
H1958 H 0.80405 0.33513 0.47512 0.0
H1959 H 0.79389 0.35596 0.45357 0.0
H1960 H 0.85925 0.26645 0.44803 0.0
H1961 H 0.84003 0.30435 0.386 0.0
H1962 H 0.82085 0.26373 0.47786 0.0
H1963 H 0.8122 0.29322 0.48565 0.0
H1964 H 0.84243 0.28439 0.4871 0.0
H1965 H 0.78764 0.31876 0.39765 0.0
H1966 H 0.81239 0.33494 0.38693 0.0
H1967 H 0.79867 0.34335 0.41402 0.0
C1968 C 0.15238 0.97513 0.6925 0.0
C1969 C 0.16982 0.95977 0.68449 0.0
C1970 C 0.15435 0.99977 0.68977 0.0
C1971 C 0.17394 1.00961 0.67806 0.0
C1972 C 0.1911 0.99408 0.66898 0.0
C1973 C 0.18896 0.96954 0.67252 0.0
C1974 C 0.1357 1.01533 0.70006 0.0
C1975 C 0.21205 1.00343 0.65594 0.0
C1976 C 0.17024 0.07376 0.65621 0.0
C1977 C 0.18329 0.08592 0.67317 0.0
C1978 C 0.16722 0.04905 0.6574 0.0
C1979 C 0.17702 0.03605 0.67629 0.0
C1980 C 0.18987 0.04844 0.69364 0.0
C1981 C 0.19307 0.073 0.6917 0.0
C1982 C 0.1539 0.03678 0.63815 0.0
C1983 C 0.20025 0.03575 0.7144 0.0
H1984 H 0.13713 0.9679 0.70108 0.0
H1985 H 0.20266 0.95797 0.66638 0.0
H1986 H 0.14352 0.02714 0.71342 0.0
H1987 H 0.12809 0.02664 0.68619 0.0
H1988 H 0.12144 1.00509 0.70844 0.0
H1989 H 0.22271 0.98916 0.64813 0.0
H1990 H 0.20642 1.01549 0.64173 0.0
H1991 H 0.22322 1.01371 0.66808 0.0
H1992 H 0.16285 0.08353 0.64169 0.0
H1993 H 0.20313 0.08222 0.70492 0.0
H1994 H 0.13871 0.02728 0.64563 0.0
H1995 H 0.16523 0.0235 0.62962 0.0
H1996 H 0.14755 0.0492 0.62454 0.0
H1997 H 0.18638 0.02604 0.72397 0.0
H1998 H 0.20902 0.04791 0.72683 0.0
H1999 H 0.21316 0.02263 0.70829 0.0
C2000 C 0.05766 0.66839 0.20203 0.0
C2001 C 0.07334 0.68109 0.18792 0.0
C2002 C 0.03328 0.66954 0.19844 0.0
C2003 C 0.02401 0.68419 0.18056 0.0
C2004 C 0.03984 0.69691 0.16612 0.0
C2005 C 0.06421 0.69504 0.16981 0.0
C2006 C 1.0174 0.65523 0.21402 0.0
C2007 C 0.03101 0.71311 0.14717 0.0
C2008 C 0.96069 0.67526 0.15929 0.0
C2009 C 0.9483 0.69198 0.17245 0.0
C2010 C 0.98511 0.67237 0.16184 0.0
C2011 C 0.99783 0.68685 0.17764 0.0
C2012 C 0.98538 0.70379 0.19091 0.0
C2013 C 0.96094 0.70592 0.18839 0.0
C2014 C 0.99732 0.65375 0.14762 0.0
C2015 C 0.99792 0.71984 0.20781 0.0
H2016 H 0.06452 0.65752 0.21603 0.0
H2017 H 0.07614 0.70512 0.15898 0.0
H2018 H 1.00635 0.66708 0.22471 0.0
H2019 H 1.00552 0.64431 0.20317 0.0
H2020 H 0.02726 0.64354 0.22606 0.0
H2021 H 0.04543 0.7214 0.13707 0.0
H2022 H 0.01965 0.7033 0.13482 0.0
H2023 H 0.02024 0.72717 0.15515 0.0
H2024 H 0.95131 0.66452 0.14674 0.0
H2025 H 0.95168 0.71853 0.1991 0.0
H2026 H 1.00678 0.64158 0.15946 0.0
H2027 H 1.01048 0.66201 0.13595 0.0
H2028 H 0.985 0.6434 0.13668 0.0
H2029 H 1.00643 0.70933 0.22178 0.0
H2030 H 0.98598 0.73268 0.21621 0.0
H2031 H 1.01188 0.72964 0.19848 0.0
C2032 C 0.38936 0.57462 0.67575 0.0
C2033 C 0.37054 0.58528 0.68738 0.0
C2034 C 0.39021 0.54995 0.67232 0.0
C2035 C 0.37163 0.5354 0.68035 0.0
C2036 C 0.35249 0.54624 0.69183 0.0
C2037 C 0.35231 0.57082 0.69538 0.0
C2038 C 0.41122 0.53938 0.66046 0.0
C2039 C 0.33207 0.53184 0.70041 0.0
C2040 C 0.36095 0.47417 0.65367 0.0
C2041 C 0.36829 0.45892 0.67161 0.0
C2042 C 0.36241 0.49887 0.65603 0.0
C2043 C 0.37194 0.50897 0.67669 0.0
C2044 C 0.38043 0.49362 0.69442 0.0
C2045 C 0.3783 0.46895 0.69178 0.0
C2046 C 0.35282 0.51419 0.63671 0.0
C2047 C 0.39104 0.50326 0.71663 0.0
H2048 H 0.40371 0.58554 0.66983 0.0
H2049 H 0.33767 0.57883 0.70435 0.0
H2050 H 0.41966 0.52656 0.67241 0.0
H2051 H 0.40578 0.52963 0.64452 0.0
H2052 H 0.42429 0.55288 0.65534 0.0
H2053 H 0.31831 0.54283 0.7086 0.0
H2054 H 0.32428 0.52193 0.68558 0.0
H2055 H 0.3381 0.51877 0.71349 0.0
H2056 H 0.35358 0.46678 0.63782 0.0
H2057 H 0.38366 0.45751 0.70599 0.0
H2058 H 0.36627 0.52689 0.63075 0.0
H2059 H 0.33788 0.52452 0.6435 0.0
H2060 H 0.34682 0.5038 0.62135 0.0
H2061 H 0.40438 0.51678 0.7124 0.0
H2062 H 0.39928 0.48931 0.72743 0.0
H2063 H 0.37733 0.5119 0.72729 0.0
C2064 C 0.46442 0.87767 0.17824 0.0
C2065 C 0.45131 0.8619 0.19193 0.0
C2066 C 0.48893 0.87532 0.17579 0.0
C2067 C 0.50088 0.8567 0.18724 0.0
C2068 C 0.4876 0.84054 0.20076 0.0
C2069 C 0.46318 0.84331 0.2029 0.0
C2070 C 0.50211 0.89304 0.1612 0.0
C2071 C 0.49923 0.82031 0.21321 0.0
C2072 C 0.56188 0.8374 0.16628 0.0
C2073 C 0.57676 0.8477 0.18296 0.0
C2074 C 0.53738 0.84038 0.16727 0.0
C2075 C 0.52719 0.85417 0.18533 0.0
C2076 C 0.54223 0.865 0.20195 0.0
C2077 C 0.56667 0.86166 0.20056 0.0
C2078 C 0.52233 0.82853 0.14905 0.0
C2079 C 0.53246 0.87988 0.22151 0.0
H2080 H 0.45557 0.89221 0.16983 0.0
H2081 H 0.45328 0.83081 0.21327 0.0
H2082 H 0.51489 0.90249 0.17236 0.0
H2083 H 0.51211 0.88397 0.14722 0.0
H2084 H 0.49036 0.90611 0.15289 0.0
H2085 H 0.48654 0.80905 0.22276 0.0
H2086 H 0.5088 0.8093 0.20037 0.0
H2087 H 0.51222 0.82711 0.22595 0.0
H2088 H 0.56942 0.82708 0.15225 0.0
H2089 H 0.57795 0.86968 0.21356 0.0
H2090 H 0.51159 0.84179 0.13977 0.0
H2091 H 0.51015 0.81608 0.1577 0.0
H2092 H 0.53281 0.81876 0.13589 0.0
H2093 H 0.52162 0.89421 0.21413 0.0
H2094 H 0.54637 0.88776 0.23257 0.0
H2095 H 0.52096 0.86903 0.23284 0.0
C2096 C 0.17932 0.47652 0.84887 0.0
C2097 C 0.17095 0.4629 0.86763 0.0
C2098 C 0.17636 0.5011 0.84805 0.0
C2099 C 0.16448 0.51284 0.86645 0.0
C2100 C 0.15523 0.49908 0.88517 0.0
C2101 C 0.15858 0.47434 0.88555 0.0
C2102 C 0.18653 0.51457 0.82762 0.0
C2103 C 0.14225 0.51057 0.90509 0.0
C2104 C 0.17871 0.57879 0.87277 0.0
C2105 C 0.16046 0.58949 0.8603 0.0
C2106 C 0.17978 0.55408 0.87566 0.0
C2107 C 0.16214 0.53943 0.86595 0.0
C2108 C 0.14322 0.55029 0.85411 0.0
C2109 C 0.14262 0.57501 0.85148 0.0
C2110 C 0.20032 0.54359 0.88841 0.0
C2111 C 0.12394 0.53572 0.84347 0.0
H2112 H 0.18853 0.46782 0.8348 0.0
H2113 H 0.15214 0.46407 0.90021 0.0
H2114 H 0.17305 0.52587 0.81947 0.0
H2115 H 0.2007 0.52625 0.83396 0.0
H2116 H 0.19376 0.50276 0.81394 0.0
H2117 H 0.135 0.49751 0.91763 0.0
H2118 H 0.15416 0.52252 0.91473 0.0
H2119 H 0.12776 0.52141 0.89814 0.0
H2120 H 0.19262 0.58973 0.87962 0.0
H2121 H 0.12828 0.58307 0.84207 0.0
H2122 H 0.21096 0.53316 0.87595 0.0
H2123 H 0.19419 0.53145 0.90235 0.0
H2124 H 0.21163 0.55723 0.89649 0.0
H2125 H 0.13105 0.52494 0.82893 0.0
H2126 H 0.10956 0.54673 0.83646 0.0
H2127 H 0.11668 0.52345 0.85673 0.0
C2128 C 0.56375 0.69457 0.34221 0.0
C2129 C 0.57712 0.68798 0.36177 0.0
C2130 C 0.53944 0.69051 0.34134 0.0
C2131 C 0.52793 0.67951 0.3605 0.0
C2132 C 0.54145 0.6725 0.38018 0.0
C2133 C 0.56578 0.67673 0.38053 0.0
C2134 C 0.52603 0.69814 0.31988 0.0
C2135 C 0.53014 0.66077 0.40104 0.0
C2136 C 0.46184 0.68961 0.36628 0.0
C2137 C 0.45242 0.66908 0.35642 0.0
C2138 C 0.48621 0.69301 0.36816 0.0
C2139 C 0.50182 0.67551 0.35991 0.0
C2140 C 0.49234 0.6545 0.35043 0.0
C2141 C 0.46789 0.65153 0.3489 0.0
C2142 C 0.49528 0.71563 0.37852 0.0
C2143 C 0.50806 0.63528 0.34145 0.0
H2144 H 0.57239 0.70293 0.32747 0.0
H2145 H 0.57594 0.67158 0.39572 0.0
H2146 H 0.51692 0.68284 0.31202 0.0
H2147 H 0.51248 0.71108 0.32492 0.0
H2148 H 0.53748 0.70619 0.30634 0.0
H2149 H 0.54299 0.65604 0.41482 0.0
H2150 H 0.51691 0.67265 0.40881 0.0
H2151 H 0.52089 0.6446 0.39539 0.0
H2152 H 0.45008 0.70335 0.37199 0.0
H2153 H 0.46086 0.63538 0.34174 0.0
H2154 H 0.50523 0.72551 0.36501 0.0
H2155 H 0.50747 0.71182 0.39315 0.0
H2156 H 0.48103 0.727 0.38519 0.0
H2157 H 0.51887 0.64206 0.32676 0.0
H2158 H 0.4981 0.61976 0.33517 0.0
H2159 H 0.52018 0.62957 0.3555 0.0
C2160 C 0.34103 0.06943 0.88533 0.0
C2161 C 0.34995 0.08487 0.86826 0.0
C2162 C 0.34342 0.04475 0.88328 0.0
C2163 C 0.35547 0.03489 0.86385 0.0
C2164 C 0.3649 0.05046 0.84677 0.0
C2165 C 0.36184 0.07506 0.84904 0.0
C2166 C 0.3327 0.02916 0.90181 0.0
C2167 C 0.37813 0.04111 0.82589 0.0
C2168 C 0.37869 0.97137 0.86865 0.0
C2169 C 0.36239 0.95852 0.85545 0.0
C2170 C 0.37674 0.99604 0.87146 0.0
C2171 C 0.35779 1.0084 0.86116 0.0
C2172 C 0.34108 0.99534 0.84813 0.0
C2173 C 0.34371 0.97078 0.84527 0.0
C2174 C 0.39525 1.00897 0.88513 0.0
C2175 C 0.32033 1.00732 0.83715 0.0
H2176 H 0.33202 0.0767 0.90038 0.0
H2177 H 0.36849 0.08665 0.8355 0.0
H2178 H 0.31989 1.01705 0.89361 0.0
H2179 H 0.34637 1.01818 0.91009 0.0
H2180 H 0.32373 0.03938 0.91573 0.0
H2181 H 0.38546 0.05538 0.81481 0.0
H2182 H 0.39262 0.02969 0.83189 0.0
H2183 H 0.36642 0.03015 0.81493 0.0
H2184 H 0.39332 0.96215 0.87637 0.0
H2185 H 0.33097 0.96105 0.83508 0.0
H2186 H 0.38723 1.01842 0.90011 0.0
H2187 H 0.40367 0.02236 0.87376 0.0
H2188 H 0.40892 0.997 0.89201 0.0
H2189 H 0.31035 1.01694 0.85078 0.0
H2190 H 0.30843 0.9947 0.8283 0.0
H2191 H 0.32632 1.02044 0.82407 0.0
C2192 C 0.07179 0.84466 0.36467 0.0
C2193 C 0.08193 0.86287 0.35147 0.0
C2194 C 0.04739 0.84328 0.36818 0.0
C2195 C 0.0324 0.86018 0.35781 0.0
C2196 C 0.04259 0.87862 0.34446 0.0
C2197 C 0.0671 0.87988 0.34171 0.0
C2198 C 0.03762 0.82348 0.38283 0.0
C2199 C 0.02754 0.89688 0.33272 0.0
C2200 C 0.96889 0.84147 0.34681 0.0
C2201 C 0.9567 0.8528 0.36493 0.0
C2202 C 0.99325 0.84408 0.34408 0.0
C2203 C 1.00614 0.85802 0.36015 0.0
C2204 C 0.99387 0.86958 0.3785 0.0
C2205 C 0.96934 0.86704 0.38051 0.0
C2206 C 1.0052 0.83182 0.32393 0.0
C2207 C 1.00673 0.88425 0.39635 0.0
H2208 H 0.08296 0.83121 0.372 0.0
H2209 H 0.07465 0.89434 0.33196 0.0
H2210 H 0.02626 0.8306 0.39689 0.0
H2211 H 0.02665 0.81189 0.37173 0.0
H2212 H 0.05154 0.81271 0.39102 0.0
H2213 H 0.038 0.91006 0.3229 0.0
H2214 H 1.0153 0.88823 0.32035 0.0
H2215 H 1.01685 0.90615 0.34602 0.0
H2216 H 0.95925 0.83062 0.33454 0.0
H2217 H 0.96012 0.87572 0.39466 0.0
H2218 H 1.01802 0.81897 0.33076 0.0
H2219 H 1.01499 0.84477 0.31318 0.0
H2220 H 0.99267 0.8224 0.3124 0.0
H2221 H 0.01972 0.87323 0.40565 0.0
H2222 H 0.9948 0.89216 0.40951 0.0
H2223 H 1.01648 0.89854 0.38744 0.0
C2224 C 0.65361 0.19447 0.06459 0.0
C2225 C 0.66891 0.18383 0.08065 0.0
C2226 C 0.65641 0.19177 0.04005 0.0
C2227 C 0.67457 0.17746 0.031 0.0
C2228 C 0.68954 0.16597 0.04719 0.0
C2229 C 0.68666 0.16943 0.07164 0.0
C2230 C 0.64005 0.20458 0.02374 0.0
C2231 C 0.70885 0.15016 0.03868 0.0
C2232 C 0.66958 0.1551 0.96728 0.0
C2233 C 0.68521 0.16978 0.95518 0.0
C2234 C 0.66612 0.15721 0.99181 0.0
C2235 C 0.67813 0.17484 1.00473 0.0
C2236 C 0.6936 0.19 0.99241 0.0
C2237 C 0.69709 0.18715 0.96799 0.0
C2238 C 0.64983 0.1403 1.00399 0.0
C2239 C 0.70642 0.2094 1.00504 0.0
H2240 H 0.63925 0.20485 0.07117 0.0
H2241 H 0.69863 0.1611 0.08377 0.0
H2242 H 0.65018 0.21624 1.01189 0.0
H2243 H 0.63058 0.19182 1.01254 0.0
H2244 H 0.62708 0.21536 0.03339 0.0
H2245 H 0.71818 0.14144 0.05336 0.0
H2246 H 0.70165 0.13646 0.02687 0.0
H2247 H 0.72165 0.16053 0.02834 0.0
H2248 H 0.66039 0.14157 0.95759 0.0
H2249 H 0.70897 0.1988 0.9588 0.0
H2250 H 0.63553 0.15007 1.01269 0.0
H2251 H 0.65938 0.13064 1.01789 0.0
H2252 H 0.64205 0.12737 0.99166 0.0
H2253 H 0.69376 0.22108 1.01399 0.0
H2254 H 0.71729 0.22015 0.99296 0.0
H2255 H 0.71786 0.20183 1.01878 0.0
C2256 C 0.84253 0.17601 0.47073 0.0
C2257 C 0.86289 0.17766 0.45707 0.0
C2258 C 0.84335 0.1749 0.49552 0.0
C2259 C 0.86514 0.17501 0.50735 0.0
C2260 C 0.88584 0.17558 0.49358 0.0
C2261 C 0.88447 0.17705 0.46876 0.0
C2262 C 0.82075 0.17444 0.50911 0.0
C2263 C 0.90949 0.17543 0.50513 0.0
C2264 C 0.86496 0.19841 0.57072 0.0
C2265 C 0.86343 0.17783 0.58427 0.0
C2266 C 0.86607 0.19771 0.54593 0.0
C2267 C 0.86607 0.17582 0.534 0.0
C2268 C 0.86567 0.15492 0.54767 0.0
C2269 C 0.8642 0.15617 0.5725 0.0
C2270 C 0.86634 0.22053 0.53244 0.0
C2271 C 0.86594 0.13115 0.53602 0.0
H2272 H 0.82576 0.17595 0.462 0.0
H2273 H 0.90034 0.17858 0.45852 0.0
H2274 H 0.82033 0.15903 0.52103 0.0
H2275 H 0.81945 0.19039 0.52021 0.0
H2276 H 0.80525 0.17368 0.49744 0.0
H2277 H 0.92386 0.17367 0.49215 0.0
H2278 H 0.91206 0.192 0.51504 0.0
H2279 H 0.91065 0.16077 0.51791 0.0
H2280 H 0.86479 0.21525 0.57954 0.0
H2281 H 0.86272 0.14014 0.58267 0.0
H2282 H 0.85037 0.22184 0.52152 0.0
H2283 H 0.88151 0.22106 0.52037 0.0
H2284 H 0.86715 0.23608 0.54419 0.0
H2285 H 0.84942 0.12845 0.52626 0.0
H2286 H 0.86793 0.11665 0.54892 0.0
H2287 H 0.8804 0.13017 0.5231 0.0
C2288 C 0.84713 0.38755 0.97805 0.0
C2289 C 0.85548 0.37034 0.96254 0.0
C2290 C 0.85047 0.38569 1.0026 0.0
C2291 C 0.86247 0.36609 1.01217 0.0
C2292 C 0.87129 0.34887 0.99647 0.0
C2293 C 0.86778 0.35125 0.97199 0.0
C2294 C 0.84091 0.40464 1.01837 0.0
C2295 C 0.8841 0.32763 1.00558 0.0
C2296 C 0.88759 0.36885 0.07496 0.0
C2297 C 0.87064 0.35681 0.08815 0.0
C2298 C 0.88509 0.37223 0.05044 0.0
C2299 C 0.86521 0.36323 0.03852 0.0
C2300 C 0.848 0.35118 0.05185 0.0
C2301 C 0.8509 0.34818 0.07631 0.0
C2302 C 0.90391 0.38522 0.03721 0.0
C2303 C 0.82652 0.34121 0.04021 0.0
H2304 H 0.83804 0.40262 0.97095 0.0
H2305 H 0.87426 0.33783 0.9602 0.0
H2306 H 0.82777 0.39703 0.0305 0.0
H2307 H 0.85511 0.41211 0.02931 0.0
H2308 H 0.83262 0.4191 1.0083 0.0
H2309 H 0.89046 0.31614 0.9912 0.0
H2310 H 0.89923 0.33321 1.01637 0.0
H2311 H 0.8724 0.3172 1.0171 0.0
H2312 H 0.90309 0.37527 0.08377 0.0
H2313 H 0.83759 0.339 0.08627 0.0
H2314 H 0.89627 0.40032 0.02762 0.0
H2315 H 0.91187 0.37345 0.02395 0.0
H2316 H 0.91789 0.39184 0.049 0.0
H2317 H 0.81677 0.35541 0.03121 0.0
H2318 H 0.81467 0.33243 0.05293 0.0
H2319 H 0.83166 0.32827 0.02661 0.0
C2320 C 0.68414 0.38161 0.46892 0.0
C2321 C 0.66666 0.36862 0.45757 0.0
C2322 C 0.68487 0.38342 0.49368 0.0
C2323 C 0.66772 0.37193 0.50762 0.0
C2324 C 0.64941 0.35973 0.49608 0.0
C2325 C 0.64915 0.35818 0.47133 0.0
C2326 C 0.70477 0.39659 0.50497 0.0
C2327 C 0.63069 0.3472 0.50992 0.0
C2328 C 0.68621 0.35149 0.56896 0.0
C2329 C 0.67672 0.36871 0.58378 0.0
C2330 C 0.68318 0.35225 0.54442 0.0
C2331 C 0.67021 0.37071 0.53404 0.0
C2332 C 0.65996 0.38784 0.54898 0.0
C2333 C 0.66326 0.38659 0.57363 0.0
C2334 C 0.69425 0.33335 0.52956 0.0
C2335 C 0.64593 0.40778 0.53887 0.0
H2336 H 0.69795 0.38939 0.45846 0.0
H2337 H 0.63564 0.34803 0.4627 0.0
H2338 H 0.69805 0.40905 0.5183 0.0
H2339 H 0.71635 0.384 0.51416 0.0
H2340 H 0.71532 0.40649 0.49192 0.0
H2341 H 0.61638 0.34065 0.49852 0.0
H2342 H 0.63844 0.33203 0.5193 0.0
H2343 H 0.62319 0.35907 0.52337 0.0
H2344 H 0.6962 0.33732 0.5766 0.0
H2345 H 0.65592 0.40002 0.58488 0.0
H2346 H 0.70705 0.34135 0.5173 0.0
H2347 H 0.68078 0.32446 0.51876 0.0
H2348 H 0.70335 0.3199 0.5403 0.0
H2349 H 0.65723 0.41875 0.52744 0.0
H2350 H 0.63827 0.41912 0.55272 0.0
H2351 H 0.63164 0.40081 0.52774 0.0
C2352 C 0.87017 0.96733 0.35372 0.0
C2353 C 0.85897 0.95926 0.37408 0.0
C2354 C 0.87286 0.99147 0.34937 0.0
C2355 C 0.86464 1.00792 0.36605 0.0
C2356 C 0.85319 0.99987 0.38657 0.0
C2357 C 0.85052 0.97564 0.39034 0.0
C2358 C 0.88519 0.99933 0.32729 0.0
C2359 C 0.84436 1.01684 0.40488 0.0
C2360 C 0.89464 0.06743 0.36814 0.0
C2361 C 0.87834 0.08191 0.35694 0.0
C2362 C 0.89032 0.04338 0.37132 0.0
C2363 C 0.86931 0.03346 0.36277 0.0
C2364 C 0.8529 0.04794 0.35115 0.0
C2365 C 0.85761 0.07202 0.34839 0.0
C2366 C 0.90819 0.02861 0.38398 0.0
C2367 C 0.83048 0.03793 0.34147 0.0
H2368 H 0.87764 0.95482 0.34156 0.0
H2369 H 0.84207 0.96947 0.40622 0.0
H2370 H 0.87457 1.0126 0.3179 0.0
H2371 H 0.90203 1.00778 0.33192 0.0
H2372 H 0.88874 0.98448 0.31518 0.0
H2373 H 0.83488 1.00781 0.41932 0.0
H2374 H 0.85924 0.0267 0.41251 0.0
H2375 H 0.83252 0.02987 0.39672 0.0
H2376 H 0.9107 0.07502 0.37476 0.0
H2377 H 0.84526 0.08299 0.33912 0.0
H2378 H 0.91432 1.01427 0.37236 0.0
H2379 H 0.90017 1.02028 0.39964 0.0
H2380 H 0.92355 0.03906 0.38972 0.0
H2381 H 0.83443 0.02404 0.32843 0.0
H2382 H 0.81952 0.05154 0.33294 0.0
H2383 H 0.82025 0.02961 0.35578 0.0
C2384 C 0.07267 0.37101 0.8613 0.0
C2385 C 0.08131 0.35587 0.87863 0.0
C2386 C 0.04863 0.37415 0.85824 0.0
C2387 C 0.03285 0.36237 0.87332 0.0
C2388 C 0.04146 0.34719 0.89099 0.0
C2389 C 0.06564 0.34416 0.89346 0.0
C2390 C 0.04015 0.39055 0.83924 0.0
C2391 C 0.02516 0.33457 0.90758 0.0
C2392 C 0.97354 0.39083 0.88067 0.0
C2393 C 0.95954 0.37689 0.8661 0.0
C2394 C 0.99733 0.38597 0.88356 0.0
C2395 C 1.00741 0.36692 0.87128 0.0
C2396 C 0.99336 0.35282 0.85646 0.0
C2397 C 0.96954 0.35798 0.85406 0.0
C2398 C 1.0117 0.40133 0.89965 0.0
C2399 C 1.00358 0.33259 0.84281 0.0
H2400 H 0.08471 0.381 0.85053 0.0
H2401 H 0.07234 0.33275 0.90711 0.0
H2402 H 0.0272 0.3815 0.82794 0.0
H2403 H 0.03128 0.40586 0.84729 0.0
H2404 H 0.05461 0.39711 0.828 0.0
H2405 H 0.0346 0.32277 0.91984 0.0
H2406 H 1.01517 0.34757 0.91801 0.0
H2407 H 1.01232 0.32401 0.89752 0.0
H2408 H 0.96581 0.40546 0.89001 0.0
H2409 H 0.95887 0.34752 0.84235 0.0
H2410 H 0.02564 0.41025 0.88948 0.0
H2411 H 0.02035 0.39041 0.9132 0.0
H2412 H 1.00101 0.41491 0.90857 0.0
H2413 H 1.01708 0.33922 0.8305 0.0
H2414 H 0.99016 0.32289 0.83261 0.0
H2415 H 1.01229 0.32013 0.85493 0.0
C2416 C 0.6339 0.47575 0.3511 0.0
C2417 C 0.65299 0.46044 0.34929 0.0
C2418 C 0.63712 0.50008 0.35384 0.0
C2419 C 0.66 0.5095 0.35412 0.0
C2420 C 0.6793 0.49433 0.35133 0.0
C2421 C 0.6756 0.47001 0.34968 0.0
C2422 C 0.61608 0.51552 0.35762 0.0
C2423 C 0.70397 0.50367 0.35101 0.0
C2424 C 0.66652 0.57565 0.34636 0.0
C2425 C 0.67111 0.58308 0.36942 0.0
C2426 C 0.66358 0.55173 0.34098 0.0
C2427 C 0.66389 0.53488 0.35924 0.0
C2428 C 0.66785 0.54226 0.38262 0.0
C2429 C 0.67176 0.56613 0.38733 0.0
C2430 C 0.65999 0.54449 0.31574 0.0
C2431 C 0.66756 0.525 0.40277 0.0
H2432 H 0.61636 0.46861 0.35119 0.0
H2433 H 0.69064 0.45865 0.34981 0.0
H2434 H 0.61689 0.52343 0.3754 0.0
H2435 H 0.61601 0.53018 0.3448 0.0
H2436 H 0.59943 0.50565 0.35597 0.0
H2437 H 0.71672 0.49014 0.34535 0.0
H2438 H 0.70535 0.51898 0.33901 0.0
H2439 H 0.7089 0.50975 0.36882 0.0
H2440 H 0.66452 0.58838 0.33247 0.0
H2441 H 0.67498 0.57156 0.40527 0.0
H2442 H 0.64223 0.53709 0.31347 0.0
H2443 H 0.67259 0.53053 0.31092 0.0
H2444 H 0.66216 0.55945 0.3034 0.0
H2445 H 0.65081 0.51518 0.40292 0.0
H2446 H 0.6698 0.53374 0.42005 0.0
H2447 H 0.68172 0.51196 0.40056 0.0
C2448 C 0.57084 0.18881 0.85192 0.0
C2449 C 0.57841 0.16537 0.85244 0.0
C2450 C 0.54697 0.19437 0.85261 0.0
C2451 C 0.53033 0.17614 0.85509 0.0
C2452 C 0.53778 0.15248 0.85528 0.0
C2453 C 0.56163 0.14741 0.85361 0.0
C2454 C 0.53965 0.2198 0.8517 0.0
C2455 C 0.52069 0.13249 0.85855 0.0
C2456 C 0.47391 0.1878 0.88769 0.0
C2457 C 0.45728 0.18632 0.86968 0.0
C2458 C 0.49778 0.1852 0.88307 0.0
C2459 C 0.50539 0.18167 0.85971 0.0
C2460 C 0.48888 0.18137 0.84125 0.0
C2461 C 0.46499 0.18308 0.8465 0.0
C2462 C 0.5147 0.18498 0.90338 0.0
C2463 C 0.49637 0.17826 0.81604 0.0
H2464 H 0.58338 0.20299 0.85208 0.0
H2465 H 0.56721 0.12924 0.85409 0.0
H2466 H 0.52467 0.22208 0.83958 0.0
H2467 H 0.53392 0.22556 0.86937 0.0
H2468 H 0.55412 0.23145 0.84589 0.0
H2469 H 0.52926 0.11504 0.85763 0.0
H2470 H 0.512 0.13414 0.87588 0.0
H2471 H 0.50688 0.13323 0.84496 0.0
H2472 H 0.4682 0.19019 0.90567 0.0
H2473 H 0.45252 0.18079 0.83249 0.0
H2474 H 0.52861 0.19826 0.90064 0.0
H2475 H 0.52329 0.16756 0.90446 0.0
H2476 H 0.50603 0.18859 0.92044 0.0
H2477 H 0.51146 0.18982 0.81197 0.0
H2478 H 0.48202 0.18224 0.80357 0.0
H2479 H 0.50201 0.15987 0.81314 0.0
C2480 C 0.8463 0.56464 0.1484 0.0
C2481 C 0.85542 0.58231 0.16283 0.0
C2482 C 0.85049 0.54085 0.15322 0.0
C2483 C 0.86435 0.53464 0.17282 0.0
C2484 C 0.87331 0.55243 0.18767 0.0
C2485 C 0.86888 0.57608 0.18238 0.0
C2486 C 0.84069 0.52239 0.13694 0.0
C2487 C 0.8883 0.54654 0.20863 0.0
C2488 C 0.86291 0.47138 0.19428 0.0
C2489 C 0.88286 0.46211 0.18352 0.0
C2490 C 0.85665 0.495 0.19103 0.0
C2491 C 0.87079 0.50967 0.17683 0.0
C2492 C 0.89117 0.50047 0.16626 0.0
C2493 C 0.89699 0.47684 0.16982 0.0
C2494 C 0.83494 0.50428 0.20277 0.0
C2495 C 0.90673 0.51553 0.151 0.0
H2496 H 0.83609 0.56947 0.13313 0.0
H2497 H 0.87673 0.5897 0.19306 0.0
H2498 H 0.85518 0.51302 0.12808 0.0
H2499 H 0.83065 0.50915 0.14707 0.0
H2500 H 0.82913 0.53003 0.1233 0.0
H2501 H 0.89228 0.56225 0.21949 0.0
H2502 H 0.87949 0.53327 0.21983 0.0
H2503 H 0.90499 0.53877 0.20261 0.0
H2504 H 0.85234 0.4603 0.20551 0.0
H2505 H 0.91247 0.46975 0.16152 0.0
H2506 H 0.82271 0.51114 0.18935 0.0
H2507 H 0.83951 0.51912 0.21451 0.0
H2508 H 0.82581 0.49059 0.21324 0.0
H2509 H 0.89667 0.52235 0.13583 0.0
H2510 H 0.92206 0.50573 0.14425 0.0
H2511 H 0.91306 0.53093 0.16109 0.0
C2512 C 0.56759 0.3976 0.6885 0.0
C2513 C 0.58351 0.37911 0.69138 0.0
C2514 C 0.54364 0.39328 0.68555 0.0
C2515 C 0.53519 0.36991 0.68625 0.0
C2516 C 0.55094 0.35124 0.69015 0.0
C2517 C 0.57491 0.35599 0.69194 0.0
C2518 C 0.52756 0.41366 0.68056 0.0
C2519 C 0.54257 0.32611 0.69165 0.0
C2520 C 0.46973 0.36261 0.69438 0.0
C2521 C 0.46237 0.35692 0.67155 0.0
C2522 C 0.49345 0.36589 0.69962 0.0
C2523 C 0.51016 0.36489 0.68137 0.0
C2524 C 0.50287 0.35966 0.65822 0.0
C2525 C 0.47918 0.35539 0.65369 0.0
C2526 C 0.50058 0.37082 0.72465 0.0
C2527 C 0.52001 0.35922 0.63807 0.0
H2528 H 0.57395 0.41552 0.68772 0.0
H2529 H 0.58673 0.34131 0.69269 0.0
H2530 H 0.51955 0.41144 0.66297 0.0
H2531 H 0.51314 0.41407 0.69353 0.0
H2532 H 0.53679 0.43082 0.68102 0.0
H2533 H 0.55644 0.31408 0.69799 0.0
H2534 H 0.52736 0.32475 0.70364 0.0
H2535 H 0.53681 0.32007 0.67409 0.0
H2536 H 0.45708 0.36537 0.70814 0.0
H2537 H 0.47374 0.35136 0.63593 0.0
H2538 H 0.50708 0.38911 0.72618 0.0
H2539 H 0.51504 0.35901 0.72992 0.0
H2540 H 0.48588 0.36845 0.73715 0.0
H2541 H 0.52913 0.37639 0.63681 0.0
H2542 H 0.51142 0.35552 0.621 0.0
H2543 H 0.53348 0.34564 0.64119 0.0
C2544 C 0.67695 0.06743 0.19045 0.0
C2545 C 0.65803 0.07802 0.17906 0.0
C2546 C 0.68078 0.04313 0.18869 0.0
C2547 C 0.6653 0.02917 0.17524 0.0
C2548 C 0.64611 0.0398 0.16381 0.0
C2549 C 0.64264 0.06406 0.166 0.0
C2550 C 0.70125 0.03236 0.20136 0.0
C2551 C 0.62928 0.02555 0.14919 0.0
C2552 C 0.68455 0.96997 0.15155 0.0
C2553 C 0.67347 0.95443 0.16706 0.0
C2554 C 0.68255 0.99437 0.15437 0.0
C2555 C 0.66902 1.00341 0.17308 0.0
C2556 C 0.65798 0.98777 0.18894 0.0
C2557 C 0.66014 0.96345 0.18558 0.0
C2558 C 0.69444 1.01046 0.13699 0.0
C2559 C 0.64332 0.99672 0.20904 0.0
H2560 H 0.6885 0.07804 0.20113 0.0
H2561 H 0.62797 0.07221 0.1572 0.0
H2562 H 0.69497 1.019 0.21408 0.0
H2563 H 0.71274 0.02322 0.18865 0.0
H2564 H 0.71175 0.04566 0.21096 0.0
H2565 H 0.61533 0.03654 0.14132 0.0
H2566 H 0.6388 1.01653 0.13486 0.0
H2567 H 0.62099 1.01176 0.16016 0.0
H2568 H 0.69466 0.963 0.13706 0.0
H2569 H 0.65077 0.95153 0.19704 0.0
H2570 H 0.70584 0.02313 0.14634 0.0
H2571 H 0.68116 1.02081 0.12735 0.0
H2572 H 0.70515 1.00067 0.12404 0.0
H2573 H 0.65337 1.00961 0.21958 0.0
H2574 H 0.63734 0.98233 0.22079 0.0
H2575 H 0.62777 1.00595 0.20208 0.0
C2576 C 0.96598 0.18224 0.6692 0.0
C2577 C 0.95801 0.16599 0.68592 0.0
C2578 C 0.98991 0.18663 0.66614 0.0
C2579 C 1.00637 0.17395 0.6796 0.0
C2580 C 0.99849 0.15748 0.69647 0.0
C2581 C 0.97444 0.15377 0.69947 0.0
C2582 C 0.99758 0.2044 0.648 0.0
C2583 C 1.01548 0.14331 0.7109 0.0
C2584 C 0.0665 0.16632 0.65268 0.0
C2585 C 0.07983 0.18254 0.66542 0.0
C2586 C 0.04269 0.1631 0.6574 0.0
C2587 C 0.0318 0.17684 0.67496 0.0
C2588 C 0.04515 0.19342 0.68777 0.0
C2589 C 0.06908 0.19598 0.68293 0.0
C2590 C 0.0292 0.14497 0.64359 0.0
C2591 C 0.03407 0.20869 0.70631 0.0
H2592 H 0.9537 0.191 0.65783 0.0
H2593 H 0.96849 0.14105 0.71231 0.0
H2594 H 1.01006 0.21707 0.65585 0.0
H2595 H 1.00675 0.19535 0.63346 0.0
H2596 H 0.98265 0.21432 0.64055 0.0
H2597 H 1.00656 0.13183 0.72389 0.0
H2598 H 0.02619 0.13213 0.69915 0.0
H2599 H 0.02761 0.15515 0.72039 0.0
H2600 H 0.07482 0.15585 0.63918 0.0
H2601 H 0.07926 0.20886 0.69249 0.0
H2602 H 1.01497 0.15357 0.63362 0.0
H2603 H 0.02097 0.13215 0.65572 0.0
H2604 H 0.04043 0.13525 0.63103 0.0
H2605 H 0.02004 0.21946 0.69832 0.0
H2606 H 0.04688 0.22062 0.71481 0.0
H2607 H 0.02585 0.19758 0.72002 0.0
C2608 C 0.34239 0.89413 0.06799 0.0
C2609 C 0.35272 0.8786 0.08397 0.0
C2610 C 0.34378 0.89022 0.0437 0.0
C2611 C 0.35596 0.87036 0.0352 0.0
C2612 C 0.36604 0.85436 0.05129 0.0
C2613 C 0.3645 0.8588 0.07548 0.0
C2614 C 0.33296 0.90778 0.02713 0.0
C2615 C 0.37928 0.83305 0.04294 0.0
C2616 C 0.34851 0.85175 0.97139 0.0
C2617 C 0.36847 0.86156 0.96105 0.0
C2618 C 0.34406 0.85456 0.99552 0.0
C2619 C 0.35997 0.86746 1.00953 0.0
C2620 C 0.38007 0.87748 0.9991 0.0
C2621 C 0.38411 0.8743 0.97506 0.0
C2622 C 0.32258 0.84342 1.00609 0.0
C2623 C 0.39741 0.89149 1.01336 0.0
H2624 H 0.33346 0.90957 0.07452 0.0
H2625 H 0.37331 0.84723 0.08768 0.0
H2626 H 0.34686 0.91668 1.01687 0.0
H2627 H 0.32138 0.89872 1.01443 0.0
H2628 H 0.32268 0.92136 0.03654 0.0
H2629 H 0.38411 0.82118 0.05763 0.0
H2630 H 0.36871 0.823 0.03008 0.0
H2631 H 0.39548 0.8387 0.03386 0.0
H2632 H 0.33669 0.84136 0.96082 0.0
H2633 H 0.39956 0.88196 0.96714 0.0
H2634 H 0.31188 0.85696 1.01501 0.0
H2635 H 0.32775 0.83039 1.01959 0.0
H2636 H 0.31163 0.83447 0.99272 0.0
H2637 H 0.38852 0.90646 0.022 0.0
H2638 H 0.41194 0.89847 1.00248 0.0
H2639 H 0.40487 0.88033 0.02743 0.0
C2640 C 0.18515 0.86223 0.5744 0.0
C2641 C 0.16239 0.85873 0.58285 0.0
C2642 C 0.18971 0.8639 0.55021 0.0
C2643 C 0.17094 0.86331 0.53409 0.0
C2644 C 0.14793 0.85994 0.54246 0.0
C2645 C 0.144 0.85739 0.56663 0.0
C2646 C 0.21456 0.86694 0.54195 0.0
C2647 C 0.12731 0.85994 0.52596 0.0
C2648 C 0.17741 0.89476 0.47563 0.0
C2649 C 0.17892 0.87597 0.45976 0.0
C2650 C 0.17519 0.89089 0.49986 0.0
C2651 C 0.17507 0.86763 0.50862 0.0
C2652 C 0.17739 0.84858 0.49286 0.0
C2653 C 0.17867 0.85294 0.46861 0.0
C2654 C 0.17203 0.91171 0.51596 0.0
C2655 C 0.17784 0.82353 0.50155 0.0
H2656 H 0.19943 0.86461 0.58654 0.0
H2657 H 0.12631 0.85493 0.57291 0.0
H2658 H 0.21841 0.85449 0.52748 0.0
H2659 H 0.21707 0.88495 0.53496 0.0
H2660 H 0.22734 0.86406 0.55631 0.0
H2661 H 0.11052 0.85695 0.53526 0.0
H2662 H 0.12636 0.87703 0.51664 0.0
H2663 H 0.12942 0.8461 0.51245 0.0
H2664 H 0.17735 0.91262 0.46904 0.0
H2665 H 0.17853 0.83817 0.45672 0.0
H2666 H 0.18566 0.91175 0.52975 0.0
H2667 H 0.1549 0.91043 0.52496 0.0
H2668 H 0.17283 0.9287 0.50639 0.0
H2669 H 0.19038 0.82173 0.51627 0.0
H2670 H 0.18275 0.81098 0.48748 0.0
H2671 H 0.16037 0.81855 0.50831 0.0
C2672 C 0.18125 0.67807 0.97206 0.0
C2673 C 0.16338 0.69252 0.96349 0.0
C2674 C 0.18475 0.67514 0.99631 0.0
C2675 C 0.16965 0.68643 1.0124 0.0
C2676 C 0.15186 0.70137 1.00389 0.0
C2677 C 0.149 0.70427 0.97959 0.0
C2678 C 0.20401 0.65916 1.00467 0.0
C2679 C 0.1352 0.71352 1.02041 0.0
C2680 C 0.1603 0.65675 0.0714 0.0
C2681 C 0.17354 0.67091 0.08646 0.0
C2682 C 0.15876 0.66175 0.04734 0.0
C2683 C 0.17119 0.68114 0.03798 0.0
C2684 C 0.18483 0.69538 0.05308 0.0
C2685 C 0.18574 0.69017 0.07721 0.0
C2686 C 0.14371 0.64633 0.03196 0.0
C2687 C 0.19866 0.71592 0.0437 0.0
H2688 H 0.1919 0.66815 0.95995 0.0
H2689 H 0.13508 0.71539 0.97315 0.0
H2690 H 0.21449 0.66797 1.01848 0.0
H2691 H 0.19634 0.64309 1.01257 0.0
H2692 H 0.21583 0.65383 0.99017 0.0
H2693 H 0.12321 0.72565 1.01109 0.0
H2694 H 0.12459 0.7002 0.02986 0.0
H2695 H 0.14499 0.72363 0.03382 0.0
H2696 H 0.15084 0.64185 0.07853 0.0
H2697 H 0.19644 0.70082 0.08871 0.0
H2698 H 0.1545 0.63812 1.01805 0.0
H2699 H 0.13023 0.65711 0.02309 0.0
H2700 H 0.13486 0.63219 0.04205 0.0
H2701 H 0.21121 0.70974 0.03023 0.0
H2702 H 0.20846 0.72522 0.05771 0.0
H2703 H 0.18683 0.72862 0.035 0.0
C2704 C 0.35695 0.6963 0.57573 0.0
C2705 C 0.3763 0.68498 0.58561 0.0
C2706 C 0.35178 0.69395 0.55171 0.0
C2707 C 0.36629 0.67992 0.5373 0.0
C2708 C 0.38591 0.66858 0.54721 0.0
C2709 C 0.39075 0.67139 0.57118 0.0
C2710 C 0.33091 0.70657 0.54172 0.0
C2711 C 0.40174 0.65332 0.53253 0.0
C2712 C 0.34382 0.65402 0.48013 0.0
C2713 C 0.35447 0.66856 0.46338 0.0
C2714 C 0.34688 0.65798 0.50426 0.0
C2715 C 0.36105 0.67691 0.51185 0.0
C2716 C 0.37149 0.69193 0.49502 0.0
C2717 C 0.36828 0.68743 0.47099 0.0
C2718 C 0.33559 0.64143 0.52161 0.0
C2719 C 0.38676 0.71227 0.50237 0.0
H2720 H 0.34609 0.70734 0.58665 0.0
H2721 H 0.40573 0.66261 0.57874 0.0
H2722 H 0.33657 0.71871 0.52756 0.0
H2723 H 0.31869 0.69373 0.53374 0.0
H2724 H 0.32137 0.71681 0.55524 0.0
H2725 H 0.41622 0.64566 0.54294 0.0
H2726 H 0.39155 0.63879 0.52456 0.0
H2727 H 0.40932 0.66375 0.51793 0.0
H2728 H 0.3333 0.63928 0.47432 0.0
H2729 H 0.37736 0.69817 0.4582 0.0
H2730 H 0.32517 0.65145 0.53459 0.0
H2731 H 0.34927 0.63185 0.53149 0.0
H2732 H 0.32405 0.62838 0.51293 0.0
H2733 H 0.37763 0.72325 0.51555 0.0
H2734 H 0.39181 0.72355 0.48727 0.0
H2735 H 0.40287 0.70552 0.51075 0.0
loop_
_geom_bond_atom_site_label_1
_geom_bond_atom_site_label_2
_geom_bond_distance
_geom_bond_site_symmetry_2
_ccdc_geom_bond_type
Co0 O3 1.970 . S
Co0 N17 1.989 . S
Co0 O25 1.967 . S
Co0 O32 1.920 . S
Co1 O4 1.966 . S
Co1 N10 2.022 . S
Co1 N18 1.993 . S
Co1 O26 1.941 . S
C2 O3 1.258 . S
C2 O4 1.263 . S
O3 Co0 1.970 . S
O3 C2 1.258 . S
O4 Co1 1.966 . S
O4 C2 1.263 . S
C5 O6 1.235 . S
C5 O32 1.289 . S
O6 C5 1.235 . S
C7 C9 1.400 . S
C7 N10 1.351 . S
C7 C12 1.501 . S
C8 C9 1.387 . S
C8 N11 1.341 . S
C9 C7 1.400 . S
C9 C8 1.387 . S
N10 Co1 2.022 . S
N10 C7 1.351 . S
N10 N11 1.365 . S
N11 C8 1.341 . S
N11 N10 1.365 . S
N11 H31 0.862 . S
C12 C7 1.501 . S
C12 H13 0.961 . S
C12 H14 0.961 . S
C12 H15 0.960 . S
H13 C12 0.961 . S
H14 C12 0.961 . S
H15 C12 0.960 . S
C16 N17 1.342 . S
C16 C20 1.401 . S
C16 C21 1.499 . S
N17 Co0 1.989 . S
N17 C16 1.342 . S
N17 N18 1.388 . S
N18 Co1 1.993 . S
N18 N17 1.388 . S
N18 C19 1.346 . S
C19 N18 1.346 . S
C19 C20 1.396 . S
C19 C29 1.510 . S
C20 C16 1.401 . S
C20 C19 1.396 . S
C21 C16 1.499 . S
C21 H22 0.959 . S
C21 H23 0.960 . S
C21 H24 0.961 . S
H22 C21 0.959 . S
H23 C21 0.960 . S
H24 C21 0.961 . S
O25 Co0 1.967 . S
O25 C33 1.258 . S
O26 Co1 1.941 . S
O26 C33 1.266 . S
H27 C29 0.959 . S
H28 C29 0.961 . S
C29 C19 1.510 . S
C29 H27 0.959 . S
C29 H28 0.961 . S
C29 H30 0.960 . S
H30 C29 0.960 . S
H31 N11 0.862 . S
O32 Co0 1.920 . S
O32 C5 1.289 . S
C33 O25 1.258 . S
C33 O26 1.266 . S
Co34 O37 1.970 . S
Co34 N51 1.989 . S
Co34 O59 1.967 . S
Co34 O66 1.920 . S
Co35 O38 1.966 . S
Co35 N44 2.022 . S
Co35 N52 1.993 . S
Co35 O60 1.941 . S
C36 O37 1.258 . S
C36 O38 1.263 . S
O37 Co34 1.970 . S
O37 C36 1.258 . S
O38 Co35 1.966 . S
O38 C36 1.263 . S
C39 O40 1.235 . S
C39 O66 1.289 . S
O40 C39 1.235 . S
C41 C43 1.400 . S
C41 N44 1.351 . S
C41 C46 1.501 . S
C42 C43 1.387 . S
C42 N45 1.341 . S
C43 C41 1.400 . S
C43 C42 1.387 . S
N44 Co35 2.022 . S
N44 C41 1.351 . S
N44 N45 1.365 . S
N45 C42 1.341 . S
N45 N44 1.365 . S
N45 H65 0.862 . S
C46 C41 1.501 . S
C46 H47 0.961 . S
C46 H48 0.961 . S
C46 H49 0.960 . S
H47 C46 0.961 . S
H48 C46 0.961 . S
H49 C46 0.960 . S
C50 N51 1.342 . S
C50 C54 1.401 . S
C50 C55 1.499 . S
N51 Co34 1.989 . S
N51 C50 1.342 . S
N51 N52 1.388 . S
N52 Co35 1.993 . S
N52 N51 1.388 . S
N52 C53 1.346 . S
C53 N52 1.346 . S
C53 C54 1.396 . S
C53 C63 1.510 . S
C54 C50 1.401 . S
C54 C53 1.396 . S
C55 C50 1.499 . S
C55 H56 0.959 . S
C55 H57 0.960 . S
C55 H58 0.961 . S
H56 C55 0.959 . S
H57 C55 0.960 . S
H58 C55 0.961 . S
O59 Co34 1.967 . S
O59 C67 1.258 . S
O60 Co35 1.941 . S
O60 C67 1.266 . S
H61 C63 0.959 . S
H62 C63 0.961 . S
C63 C53 1.510 . S
C63 H61 0.959 . S
C63 H62 0.961 . S
C63 H64 0.960 . S
H64 C63 0.960 . S
H65 N45 0.862 . S
O66 Co34 1.920 . S
O66 C39 1.289 . S
C67 O59 1.258 . S
C67 O60 1.266 . S
Co68 O71 1.970 . S
Co68 N85 1.989 . S
Co68 O93 1.967 . S
Co68 O100 1.920 . S
Co69 O72 1.966 . S
Co69 N78 2.022 . S
Co69 N86 1.993 . S
Co69 O94 1.941 . S
C70 O71 1.258 . S
C70 O72 1.263 . S
O71 Co68 1.970 . S
O71 C70 1.258 . S
O72 Co69 1.966 . S
O72 C70 1.263 . S
C73 O74 1.235 . S
C73 O100 1.289 . S
O74 C73 1.235 . S
C75 C77 1.400 . S
C75 N78 1.351 . S
C75 C80 1.501 . S
C76 C77 1.387 . S
C76 N79 1.341 . S
C77 C75 1.400 . S
C77 C76 1.387 . S
N78 Co69 2.022 . S
N78 C75 1.351 . S
N78 N79 1.365 . S
N79 C76 1.341 . S
N79 N78 1.365 . S
N79 H99 0.862 . S
C80 C75 1.501 . S
C80 H81 0.961 . S
C80 H82 0.961 . S
C80 H83 0.960 . S
H81 C80 0.961 . S
H82 C80 0.961 . S
H83 C80 0.960 . S
C84 N85 1.342 . S
C84 C88 1.401 . S
C84 C89 1.499 . S
N85 Co68 1.989 . S
N85 C84 1.342 . S
N85 N86 1.388 . S
N86 Co69 1.993 . S
N86 N85 1.388 . S
N86 C87 1.346 . S
C87 N86 1.346 . S
C87 C88 1.396 . S
C87 C97 1.510 . S
C88 C84 1.401 . S
C88 C87 1.396 . S
C89 C84 1.499 . S
C89 H90 0.959 . S
C89 H91 0.960 . S
C89 H92 0.961 . S
H90 C89 0.959 . S
H91 C89 0.960 . S
H92 C89 0.961 . S
O93 Co68 1.967 . S
O93 C101 1.258 . S
O94 Co69 1.941 . S
O94 C101 1.266 . S
H95 C97 0.959 . S
H96 C97 0.961 . S
C97 C87 1.510 . S
C97 H95 0.959 . S
C97 H96 0.961 . S
C97 H98 0.960 . S
H98 C97 0.960 . S
H99 N79 0.862 . S
O100 Co68 1.920 . S
O100 C73 1.289 . S
C101 O93 1.258 . S
C101 O94 1.266 . S
Co102 O105 1.970 . S
Co102 N119 1.989 . S
Co102 O127 1.967 . S
Co102 O134 1.920 . S
Co103 O106 1.966 . S
Co103 N112 2.022 . S
Co103 N120 1.993 . S
Co103 O128 1.941 . S
C104 O105 1.258 . S
C104 O106 1.263 . S
O105 Co102 1.970 . S
O105 C104 1.258 . S
O106 Co103 1.966 . S
O106 C104 1.263 . S
C107 O108 1.235 . S
C107 O134 1.289 . S
O108 C107 1.235 . S
C109 C111 1.400 . S
C109 N112 1.351 . S
C109 C114 1.501 . S
C110 C111 1.387 . S
C110 N113 1.341 . S
C111 C109 1.400 . S
C111 C110 1.387 . S
N112 Co103 2.022 . S
N112 C109 1.351 . S
N112 N113 1.365 . S
N113 C110 1.341 . S
N113 N112 1.365 . S
N113 H133 0.862 . S
C114 C109 1.501 . S
C114 H115 0.961 . S
C114 H116 0.961 . S
C114 H117 0.960 . S
H115 C114 0.961 . S
H116 C114 0.961 . S
H117 C114 0.960 . S
C118 N119 1.342 . S
C118 C122 1.401 . S
C118 C123 1.499 . S
N119 Co102 1.989 . S
N119 C118 1.342 . S
N119 N120 1.388 . S
N120 Co103 1.993 . S
N120 N119 1.388 . S
N120 C121 1.346 . S
C121 N120 1.346 . S
C121 C122 1.396 . S
C121 C131 1.510 . S
C122 C118 1.401 . S
C122 C121 1.396 . S
C123 C118 1.499 . S
C123 H124 0.959 . S
C123 H125 0.960 . S
C123 H126 0.961 . S
H124 C123 0.959 . S
H125 C123 0.960 . S
H126 C123 0.961 . S
O127 Co102 1.967 . S
O127 C135 1.258 . S
O128 Co103 1.941 . S
O128 C135 1.266 . S
H129 C131 0.959 . S
H130 C131 0.961 . S
C131 C121 1.510 . S
C131 H129 0.959 . S
C131 H130 0.961 . S
C131 H132 0.960 . S
H132 C131 0.960 . S
H133 N113 0.862 . S
O134 Co102 1.920 . S
O134 C107 1.289 . S
C135 O127 1.258 . S
C135 O128 1.266 . S
Co136 O139 1.970 . S
Co136 N153 1.989 . S
Co136 O161 1.967 . S
Co136 O168 1.920 . S
Co137 O140 1.966 . S
Co137 N146 2.022 . S
Co137 N154 1.993 . S
Co137 O162 1.941 . S
C138 O139 1.258 . S
C138 O140 1.263 . S
O139 Co136 1.970 . S
O139 C138 1.258 . S
O140 Co137 1.966 . S
O140 C138 1.263 . S
C141 O142 1.235 . S
C141 O168 1.289 . S
O142 C141 1.235 . S
C143 C145 1.400 . S
C143 N146 1.351 . S
C143 C148 1.501 . S
C144 C145 1.387 . S
C144 N147 1.341 . S
C145 C143 1.400 . S
C145 C144 1.387 . S
N146 Co137 2.022 . S
N146 C143 1.351 . S
N146 N147 1.365 . S
N147 C144 1.341 . S
N147 N146 1.365 . S
N147 H167 0.862 . S
C148 C143 1.501 . S
C148 H149 0.961 . S
C148 H150 0.961 . S
C148 H151 0.960 . S
H149 C148 0.961 . S
H150 C148 0.961 . S
H151 C148 0.960 . S
C152 N153 1.342 . S
C152 C156 1.401 . S
C152 C157 1.499 . S
N153 Co136 1.989 . S
N153 C152 1.342 . S
N153 N154 1.388 . S
N154 Co137 1.993 . S
N154 N153 1.388 . S
N154 C155 1.346 . S
C155 N154 1.346 . S
C155 C156 1.396 . S
C155 C165 1.510 . S
C156 C152 1.401 . S
C156 C155 1.396 . S
C157 C152 1.499 . S
C157 H158 0.959 . S
C157 H159 0.960 . S
C157 H160 0.961 . S
H158 C157 0.959 . S
H159 C157 0.960 . S
H160 C157 0.961 . S
O161 Co136 1.967 . S
O161 C169 1.258 . S
O162 Co137 1.941 . S
O162 C169 1.266 . S
H163 C165 0.959 . S
H164 C165 0.961 . S
C165 C155 1.510 . S
C165 H163 0.959 . S
C165 H164 0.961 . S
C165 H166 0.960 . S
H166 C165 0.960 . S
H167 N147 0.862 . S
O168 Co136 1.920 . S
O168 C141 1.289 . S
C169 O161 1.258 . S
C169 O162 1.266 . S
Co170 O173 1.970 . S
Co170 N187 1.989 . S
Co170 O195 1.967 . S
Co170 O202 1.920 . S
Co171 O174 1.966 . S
Co171 N180 2.022 . S
Co171 N188 1.993 . S
Co171 O196 1.941 . S
C172 O173 1.258 . S
C172 O174 1.263 . S
O173 Co170 1.970 . S
O173 C172 1.258 . S
O174 Co171 1.966 . S
O174 C172 1.263 . S
C175 O176 1.235 . S
C175 O202 1.289 . S
O176 C175 1.235 . S
C177 C179 1.400 . S
C177 N180 1.351 . S
C177 C182 1.501 . S
C178 C179 1.387 . S
C178 N181 1.341 . S
C179 C177 1.400 . S
C179 C178 1.387 . S
N180 Co171 2.022 . S
N180 C177 1.351 . S
N180 N181 1.365 . S
N181 C178 1.341 . S
N181 N180 1.365 . S
N181 H201 0.862 . S
C182 C177 1.501 . S
C182 H183 0.961 . S
C182 H184 0.961 . S
C182 H185 0.960 . S
H183 C182 0.961 . S
H184 C182 0.961 . S
H185 C182 0.960 . S
C186 N187 1.342 . S
C186 C190 1.401 . S
C186 C191 1.499 . S
N187 Co170 1.989 . S
N187 C186 1.342 . S
N187 N188 1.388 . S
N188 Co171 1.993 . S
N188 N187 1.388 . S
N188 C189 1.346 . S
C189 N188 1.346 . S
C189 C190 1.396 . S
C189 C199 1.510 . S
C190 C186 1.401 . S
C190 C189 1.396 . S
C191 C186 1.499 . S
C191 H192 0.959 . S
C191 H193 0.960 . S
C191 H194 0.961 . S
H192 C191 0.959 . S
H193 C191 0.960 . S
H194 C191 0.961 . S
O195 Co170 1.967 . S
O195 C203 1.258 . S
O196 Co171 1.941 . S
O196 C203 1.266 . S
H197 C199 0.959 . S
H198 C199 0.961 . S
C199 C189 1.510 . S
C199 H197 0.959 . S
C199 H198 0.961 . S
C199 H200 0.960 . S
H200 C199 0.960 . S
H201 N181 0.862 . S
O202 Co170 1.920 . S
O202 C175 1.289 . S
C203 O195 1.258 . S
C203 O196 1.266 . S
Co204 O207 1.970 . S
Co204 N221 1.989 . S
Co204 O229 1.967 . S
Co204 O236 1.920 . S
Co205 O208 1.966 . S
Co205 N214 2.022 . S
Co205 N222 1.993 . S
Co205 O230 1.941 . S
C206 O207 1.258 . S
C206 O208 1.263 . S
O207 Co204 1.970 . S
O207 C206 1.258 . S
O208 Co205 1.966 . S
O208 C206 1.263 . S
C209 O210 1.235 . S
C209 O236 1.289 . S
O210 C209 1.235 . S
C211 C213 1.400 . S
C211 N214 1.351 . S
C211 C216 1.501 . S
C212 C213 1.387 . S
C212 N215 1.341 . S
C213 C211 1.400 . S
C213 C212 1.387 . S
N214 Co205 2.022 . S
N214 C211 1.351 . S
N214 N215 1.365 . S
N215 C212 1.341 . S
N215 N214 1.365 . S
N215 H235 0.862 . S
C216 C211 1.501 . S
C216 H217 0.961 . S
C216 H218 0.961 . S
C216 H219 0.960 . S
H217 C216 0.961 . S
H218 C216 0.961 . S
H219 C216 0.960 . S
C220 N221 1.342 . S
C220 C224 1.401 . S
C220 C225 1.499 . S
N221 Co204 1.989 . S
N221 C220 1.342 . S
N221 N222 1.388 . S
N222 Co205 1.993 . S
N222 N221 1.388 . S
N222 C223 1.346 . S
C223 N222 1.346 . S
C223 C224 1.396 . S
C223 C233 1.510 . S
C224 C220 1.401 . S
C224 C223 1.396 . S
C225 C220 1.499 . S
C225 H226 0.959 . S
C225 H227 0.960 . S
C225 H228 0.961 . S
H226 C225 0.959 . S
H227 C225 0.960 . S
H228 C225 0.961 . S
O229 Co204 1.967 . S
O229 C237 1.258 . S
O230 Co205 1.941 . S
O230 C237 1.266 . S
H231 C233 0.959 . S
H232 C233 0.961 . S
C233 C223 1.510 . S
C233 H231 0.959 . S
C233 H232 0.961 . S
C233 H234 0.960 . S
H234 C233 0.960 . S
H235 N215 0.862 . S
O236 Co204 1.920 . S
O236 C209 1.289 . S
C237 O229 1.258 . S
C237 O230 1.266 . S
Co238 O241 1.970 . S
Co238 N255 1.989 . S
Co238 O263 1.967 . S
Co238 O270 1.920 . S
Co239 O242 1.966 . S
Co239 N248 2.022 . S
Co239 N256 1.993 . S
Co239 O264 1.941 . S
C240 O241 1.258 . S
C240 O242 1.263 . S
O241 Co238 1.970 . S
O241 C240 1.258 . S
O242 Co239 1.966 . S
O242 C240 1.263 . S
C243 O244 1.235 . S
C243 O270 1.289 . S
O244 C243 1.235 . S
C245 C247 1.400 . S
C245 N248 1.351 . S
C245 C250 1.501 . S
C246 C247 1.387 . S
C246 N249 1.341 . S
C247 C245 1.400 . S
C247 C246 1.387 . S
N248 Co239 2.022 . S
N248 C245 1.351 . S
N248 N249 1.365 . S
N249 C246 1.341 . S
N249 N248 1.365 . S
N249 H269 0.862 . S
C250 C245 1.501 . S
C250 H251 0.961 . S
C250 H252 0.961 . S
C250 H253 0.960 . S
H251 C250 0.961 . S
H252 C250 0.961 . S
H253 C250 0.960 . S
C254 N255 1.342 . S
C254 C258 1.401 . S
C254 C259 1.499 . S
N255 Co238 1.989 . S
N255 C254 1.342 . S
N255 N256 1.388 . S
N256 Co239 1.993 . S
N256 N255 1.388 . S
N256 C257 1.346 . S
C257 N256 1.346 . S
C257 C258 1.396 . S
C257 C267 1.510 . S
C258 C254 1.401 . S
C258 C257 1.396 . S
C259 C254 1.499 . S
C259 H260 0.959 . S
C259 H261 0.960 . S
C259 H262 0.961 . S
H260 C259 0.959 . S
H261 C259 0.960 . S
H262 C259 0.961 . S
O263 Co238 1.967 . S
O263 C271 1.258 . S
O264 Co239 1.941 . S
O264 C271 1.266 . S
H265 C267 0.959 . S
H266 C267 0.961 . S
C267 C257 1.510 . S
C267 H265 0.959 . S
C267 H266 0.961 . S
C267 H268 0.960 . S
H268 C267 0.960 . S
H269 N249 0.862 . S
O270 Co238 1.920 . S
O270 C243 1.289 . S
C271 O263 1.258 . S
C271 O264 1.266 . S
Co272 O275 1.970 . S
Co272 N289 1.989 . S
Co272 O297 1.967 . S
Co272 O304 1.920 . S
Co273 O276 1.966 . S
Co273 N282 2.022 . S
Co273 N290 1.993 . S
Co273 O298 1.941 . S
C274 O275 1.258 . S
C274 O276 1.263 . S
O275 Co272 1.970 . S
O275 C274 1.258 . S
O276 Co273 1.966 . S
O276 C274 1.263 . S
C277 O278 1.235 . S
C277 O304 1.289 . S
O278 C277 1.235 . S
C279 C281 1.400 . S
C279 N282 1.351 . S
C279 C284 1.501 . S
C280 C281 1.387 . S
C280 N283 1.341 . S
C281 C279 1.400 . S
C281 C280 1.387 . S
N282 Co273 2.022 . S
N282 C279 1.351 . S
N282 N283 1.365 . S
N283 C280 1.341 . S
N283 N282 1.365 . S
N283 H303 0.862 . S
C284 C279 1.501 . S
C284 H285 0.961 . S
C284 H286 0.961 . S
C284 H287 0.960 . S
H285 C284 0.961 . S
H286 C284 0.961 . S
H287 C284 0.960 . S
C288 N289 1.342 . S
C288 C292 1.401 . S
C288 C293 1.499 . S
N289 Co272 1.989 . S
N289 C288 1.342 . S
N289 N290 1.388 . S
N290 Co273 1.993 . S
N290 N289 1.388 . S
N290 C291 1.346 . S
C291 N290 1.346 . S
C291 C292 1.396 . S
C291 C301 1.510 . S
C292 C288 1.401 . S
C292 C291 1.396 . S
C293 C288 1.499 . S
C293 H294 0.959 . S
C293 H295 0.960 . S
C293 H296 0.961 . S
H294 C293 0.959 . S
H295 C293 0.960 . S
H296 C293 0.961 . S
O297 Co272 1.967 . S
O297 C305 1.258 . S
O298 Co273 1.941 . S
O298 C305 1.266 . S
H299 C301 0.959 . S
H300 C301 0.961 . S
C301 C291 1.510 . S
C301 H299 0.959 . S
C301 H300 0.961 . S
C301 H302 0.960 . S
H302 C301 0.960 . S
H303 N283 0.862 . S
O304 Co272 1.920 . S
O304 C277 1.289 . S
C305 O297 1.258 . S
C305 O298 1.266 . S
Co306 O309 1.970 . S
Co306 N323 1.989 . S
Co306 O331 1.967 . S
Co306 O338 1.920 . S
Co307 O310 1.966 . S
Co307 N316 2.022 . S
Co307 N324 1.993 . S
Co307 O332 1.941 . S
C308 O309 1.258 . S
C308 O310 1.263 . S
O309 Co306 1.970 . S
O309 C308 1.258 . S
O310 Co307 1.966 . S
O310 C308 1.263 . S
C311 O312 1.235 . S
C311 O338 1.289 . S
O312 C311 1.235 . S
C313 C315 1.400 . S
C313 N316 1.351 . S
C313 C318 1.501 . S
C314 C315 1.387 . S
C314 N317 1.341 . S
C315 C313 1.400 . S
C315 C314 1.387 . S
N316 Co307 2.022 . S
N316 C313 1.351 . S
N316 N317 1.365 . S
N317 C314 1.341 . S
N317 N316 1.365 . S
N317 H337 0.862 . S
C318 C313 1.501 . S
C318 H319 0.961 . S
C318 H320 0.961 . S
C318 H321 0.960 . S
H319 C318 0.961 . S
H320 C318 0.961 . S
H321 C318 0.960 . S
C322 N323 1.342 . S
C322 C326 1.401 . S
C322 C327 1.499 . S
N323 Co306 1.989 . S
N323 C322 1.342 . S
N323 N324 1.388 . S
N324 Co307 1.993 . S
N324 N323 1.388 . S
N324 C325 1.346 . S
C325 N324 1.346 . S
C325 C326 1.396 . S
C325 C335 1.510 . S
C326 C322 1.401 . S
C326 C325 1.396 . S
C327 C322 1.499 . S
C327 H328 0.959 . S
C327 H329 0.960 . S
C327 H330 0.961 . S
H328 C327 0.959 . S
H329 C327 0.960 . S
H330 C327 0.961 . S
O331 Co306 1.967 . S
O331 C339 1.258 . S
O332 Co307 1.941 . S
O332 C339 1.266 . S
H333 C335 0.959 . S
H334 C335 0.961 . S
C335 C325 1.510 . S
C335 H333 0.959 . S
C335 H334 0.961 . S
C335 H336 0.960 . S
H336 C335 0.960 . S
H337 N317 0.862 . S
O338 Co306 1.920 . S
O338 C311 1.289 . S
C339 O331 1.258 . S
C339 O332 1.266 . S
Co340 O343 1.970 . S
Co340 N357 1.989 . S
Co340 O365 1.967 . S
Co340 O372 1.920 . S
Co341 O344 1.966 . S
Co341 N350 2.022 . S
Co341 N358 1.993 . S
Co341 O366 1.941 . S
C342 O343 1.258 . S
C342 O344 1.263 . S
O343 Co340 1.970 . S
O343 C342 1.258 . S
O344 Co341 1.966 . S
O344 C342 1.263 . S
C345 O346 1.235 . S
C345 O372 1.289 . S
O346 C345 1.235 . S
C347 C349 1.400 . S
C347 N350 1.351 . S
C347 C352 1.501 . S
C348 C349 1.387 . S
C348 N351 1.341 . S
C349 C347 1.400 . S
C349 C348 1.387 . S
N350 Co341 2.022 . S
N350 C347 1.351 . S
N350 N351 1.365 . S
N351 C348 1.341 . S
N351 N350 1.365 . S
N351 H371 0.862 . S
C352 C347 1.501 . S
C352 H353 0.961 . S
C352 H354 0.961 . S
C352 H355 0.960 . S
H353 C352 0.961 . S
H354 C352 0.961 . S
H355 C352 0.960 . S
C356 N357 1.342 . S
C356 C360 1.401 . S
C356 C361 1.499 . S
N357 Co340 1.989 . S
N357 C356 1.342 . S
N357 N358 1.388 . S
N358 Co341 1.993 . S
N358 N357 1.388 . S
N358 C359 1.346 . S
C359 N358 1.346 . S
C359 C360 1.396 . S
C359 C369 1.510 . S
C360 C356 1.401 . S
C360 C359 1.396 . S
C361 C356 1.499 . S
C361 H362 0.959 . S
C361 H363 0.960 . S
C361 H364 0.961 . S
H362 C361 0.959 . S
H363 C361 0.960 . S
H364 C361 0.961 . S
O365 Co340 1.967 . S
O365 C373 1.258 . S
O366 Co341 1.941 . S
O366 C373 1.266 . S
H367 C369 0.959 . S
H368 C369 0.961 . S
C369 C359 1.510 . S
C369 H367 0.959 . S
C369 H368 0.961 . S
C369 H370 0.960 . S
H370 C369 0.960 . S
H371 N351 0.862 . S
O372 Co340 1.920 . S
O372 C345 1.289 . S
C373 O365 1.258 . S
C373 O366 1.266 . S
Co374 O377 1.970 . S
Co374 N391 1.989 . S
Co374 O399 1.967 . S
Co374 O406 1.920 . S
Co375 O378 1.966 . S
Co375 N384 2.022 . S
Co375 N392 1.993 . S
Co375 O400 1.941 . S
C376 O377 1.258 . S
C376 O378 1.263 . S
O377 Co374 1.970 . S
O377 C376 1.258 . S
O378 Co375 1.966 . S
O378 C376 1.263 . S
C379 O380 1.235 . S
C379 O406 1.289 . S
O380 C379 1.235 . S
C381 C383 1.400 . S
C381 N384 1.351 . S
C381 C386 1.501 . S
C382 C383 1.387 . S
C382 N385 1.341 . S
C383 C381 1.400 . S
C383 C382 1.387 . S
N384 Co375 2.022 . S
N384 C381 1.351 . S
N384 N385 1.365 . S
N385 C382 1.341 . S
N385 N384 1.365 . S
N385 H405 0.862 . S
C386 C381 1.501 . S
C386 H387 0.961 . S
C386 H388 0.961 . S
C386 H389 0.960 . S
H387 C386 0.961 . S
H388 C386 0.961 . S
H389 C386 0.960 . S
C390 N391 1.342 . S
C390 C394 1.401 . S
C390 C395 1.499 . S
N391 Co374 1.989 . S
N391 C390 1.342 . S
N391 N392 1.388 . S
N392 Co375 1.993 . S
N392 N391 1.388 . S
N392 C393 1.346 . S
C393 N392 1.346 . S
C393 C394 1.396 . S
C393 C403 1.510 . S
C394 C390 1.401 . S
C394 C393 1.396 . S
C395 C390 1.499 . S
C395 H396 0.959 . S
C395 H397 0.960 . S
C395 H398 0.961 . S
H396 C395 0.959 . S
H397 C395 0.960 . S
H398 C395 0.961 . S
O399 Co374 1.967 . S
O399 C407 1.258 . S
O400 Co375 1.941 . S
O400 C407 1.266 . S
H401 C403 0.959 . S
H402 C403 0.961 . S
C403 C393 1.510 . S
C403 H401 0.959 . S
C403 H402 0.961 . S
C403 H404 0.960 . S
H404 C403 0.960 . S
H405 N385 0.862 . S
O406 Co374 1.920 . S
O406 C379 1.289 . S
C407 O399 1.258 . S
C407 O400 1.266 . S
Co408 O411 1.970 . S
Co408 N425 1.989 . S
Co408 O433 1.967 . S
Co408 O440 1.920 . S
Co409 O412 1.966 . S
Co409 N418 2.022 . S
Co409 N426 1.993 . S
Co409 O434 1.941 . S
C410 O411 1.258 . S
C410 O412 1.263 . S
O411 Co408 1.970 . S
O411 C410 1.258 . S
O412 Co409 1.966 . S
O412 C410 1.263 . S
C413 O414 1.235 . S
C413 O440 1.289 . S
O414 C413 1.235 . S
C415 C417 1.400 . S
C415 N418 1.351 . S
C415 C420 1.501 . S
C416 C417 1.387 . S
C416 N419 1.341 . S
C417 C415 1.400 . S
C417 C416 1.387 . S
N418 Co409 2.022 . S
N418 C415 1.351 . S
N418 N419 1.365 . S
N419 C416 1.341 . S
N419 N418 1.365 . S
N419 H439 0.862 . S
C420 C415 1.501 . S
C420 H421 0.961 . S
C420 H422 0.961 . S
C420 H423 0.960 . S
H421 C420 0.961 . S
H422 C420 0.961 . S
H423 C420 0.960 . S
C424 N425 1.342 . S
C424 C428 1.401 . S
C424 C429 1.499 . S
N425 Co408 1.989 . S
N425 C424 1.342 . S
N425 N426 1.388 . S
N426 Co409 1.993 . S
N426 N425 1.388 . S
N426 C427 1.346 . S
C427 N426 1.346 . S
C427 C428 1.396 . S
C427 C437 1.510 . S
C428 C424 1.401 . S
C428 C427 1.396 . S
C429 C424 1.499 . S
C429 H430 0.959 . S
C429 H431 0.960 . S
C429 H432 0.961 . S
H430 C429 0.959 . S
H431 C429 0.960 . S
H432 C429 0.961 . S
O433 Co408 1.967 . S
O433 C441 1.258 . S
O434 Co409 1.941 . S
O434 C441 1.266 . S
H435 C437 0.959 . S
H436 C437 0.961 . S
C437 C427 1.510 . S
C437 H435 0.959 . S
C437 H436 0.961 . S
C437 H438 0.960 . S
H438 C437 0.960 . S
H439 N419 0.862 . S
O440 Co408 1.920 . S
O440 C413 1.289 . S
C441 O433 1.258 . S
C441 O434 1.266 . S
Co442 O445 1.970 . S
Co442 N459 1.989 . S
Co442 O467 1.967 . S
Co442 O474 1.920 . S
Co443 O446 1.966 . S
Co443 N452 2.022 . S
Co443 N460 1.993 . S
Co443 O468 1.941 . S
C444 O445 1.258 . S
C444 O446 1.263 . S
O445 Co442 1.970 . S
O445 C444 1.258 . S
O446 Co443 1.966 . S
O446 C444 1.263 . S
C447 O448 1.235 . S
C447 O474 1.289 . S
O448 C447 1.235 . S
C449 C451 1.400 . S
C449 N452 1.351 . S
C449 C454 1.501 . S
C450 C451 1.387 . S
C450 N453 1.341 . S
C451 C449 1.400 . S
C451 C450 1.387 . S
N452 Co443 2.022 . S
N452 C449 1.351 . S
N452 N453 1.365 . S
N453 C450 1.341 . S
N453 N452 1.365 . S
N453 H473 0.862 . S
C454 C449 1.501 . S
C454 H455 0.961 . S
C454 H456 0.961 . S
C454 H457 0.960 . S
H455 C454 0.961 . S
H456 C454 0.961 . S
H457 C454 0.960 . S
C458 N459 1.342 . S
C458 C462 1.401 . S
C458 C463 1.499 . S
N459 Co442 1.989 . S
N459 C458 1.342 . S
N459 N460 1.388 . S
N460 Co443 1.993 . S
N460 N459 1.388 . S
N460 C461 1.346 . S
C461 N460 1.346 . S
C461 C462 1.396 . S
C461 C471 1.510 . S
C462 C458 1.401 . S
C462 C461 1.396 . S
C463 C458 1.499 . S
C463 H464 0.959 . S
C463 H465 0.960 . S
C463 H466 0.961 . S
H464 C463 0.959 . S
H465 C463 0.960 . S
H466 C463 0.961 . S
O467 Co442 1.967 . S
O467 C475 1.258 . S
O468 Co443 1.941 . S
O468 C475 1.266 . S
H469 C471 0.959 . S
H470 C471 0.961 . S
C471 C461 1.510 . S
C471 H469 0.959 . S
C471 H470 0.961 . S
C471 H472 0.960 . S
H472 C471 0.960 . S
H473 N453 0.862 . S
O474 Co442 1.920 . S
O474 C447 1.289 . S
C475 O467 1.258 . S
C475 O468 1.266 . S
Co476 O479 1.970 . S
Co476 N493 1.989 . S
Co476 O501 1.967 . S
Co476 O508 1.920 . S
Co477 O480 1.966 . S
Co477 N486 2.022 . S
Co477 N494 1.993 . S
Co477 O502 1.941 . S
C478 O479 1.258 . S
C478 O480 1.263 . S
O479 Co476 1.970 . S
O479 C478 1.258 . S
O480 Co477 1.966 . S
O480 C478 1.263 . S
C481 O482 1.235 . S
C481 O508 1.289 . S
O482 C481 1.235 . S
C483 C485 1.400 . S
C483 N486 1.351 . S
C483 C488 1.501 . S
C484 C485 1.387 . S
C484 N487 1.341 . S
C485 C483 1.400 . S
C485 C484 1.387 . S
N486 Co477 2.022 . S
N486 C483 1.351 . S
N486 N487 1.365 . S
N487 C484 1.341 . S
N487 N486 1.365 . S
N487 H507 0.862 . S
C488 C483 1.501 . S
C488 H489 0.961 . S
C488 H490 0.961 . S
C488 H491 0.960 . S
H489 C488 0.961 . S
H490 C488 0.961 . S
H491 C488 0.960 . S
C492 N493 1.342 . S
C492 C496 1.401 . S
C492 C497 1.499 . S
N493 Co476 1.989 . S
N493 C492 1.342 . S
N493 N494 1.388 . S
N494 Co477 1.993 . S
N494 N493 1.388 . S
N494 C495 1.346 . S
C495 N494 1.346 . S
C495 C496 1.396 . S
C495 C505 1.510 . S
C496 C492 1.401 . S
C496 C495 1.396 . S
C497 C492 1.499 . S
C497 H498 0.959 . S
C497 H499 0.960 . S
C497 H500 0.961 . S
H498 C497 0.959 . S
H499 C497 0.960 . S
H500 C497 0.961 . S
O501 Co476 1.967 . S
O501 C509 1.258 . S
O502 Co477 1.941 . S
O502 C509 1.266 . S
H503 C505 0.959 . S
H504 C505 0.961 . S
C505 C495 1.510 . S
C505 H503 0.959 . S
C505 H504 0.961 . S
C505 H506 0.960 . S
H506 C505 0.960 . S
H507 N487 0.862 . S
O508 Co476 1.920 . S
O508 C481 1.289 . S
C509 O501 1.258 . S
C509 O502 1.266 . S
Co510 O513 1.970 . S
Co510 N527 1.989 . S
Co510 O535 1.967 . S
Co510 O542 1.920 . S
Co511 O514 1.966 . S
Co511 N520 2.022 . S
Co511 N528 1.993 . S
Co511 O536 1.941 . S
C512 O513 1.258 . S
C512 O514 1.263 . S
O513 Co510 1.970 . S
O513 C512 1.258 . S
O514 Co511 1.966 . S
O514 C512 1.263 . S
C515 O516 1.235 . S
C515 O542 1.289 . S
O516 C515 1.235 . S
C517 C519 1.400 . S
C517 N520 1.351 . S
C517 C522 1.501 . S
C518 C519 1.387 . S
C518 N521 1.341 . S
C519 C517 1.400 . S
C519 C518 1.387 . S
N520 Co511 2.022 . S
N520 C517 1.351 . S
N520 N521 1.365 . S
N521 C518 1.341 . S
N521 N520 1.365 . S
N521 H541 0.862 . S
C522 C517 1.501 . S
C522 H523 0.961 . S
C522 H524 0.961 . S
C522 H525 0.960 . S
H523 C522 0.961 . S
H524 C522 0.961 . S
H525 C522 0.960 . S
C526 N527 1.342 . S
C526 C530 1.401 . S
C526 C531 1.499 . S
N527 Co510 1.989 . S
N527 C526 1.342 . S
N527 N528 1.388 . S
N528 Co511 1.993 . S
N528 N527 1.388 . S
N528 C529 1.346 . S
C529 N528 1.346 . S
C529 C530 1.396 . S
C529 C539 1.510 . S
C530 C526 1.401 . S
C530 C529 1.396 . S
C531 C526 1.499 . S
C531 H532 0.959 . S
C531 H533 0.960 . S
C531 H534 0.961 . S
H532 C531 0.959 . S
H533 C531 0.960 . S
H534 C531 0.961 . S
O535 Co510 1.967 . S
O535 C543 1.258 . S
O536 Co511 1.941 . S
O536 C543 1.266 . S
H537 C539 0.959 . S
H538 C539 0.961 . S
C539 C529 1.510 . S
C539 H537 0.959 . S
C539 H538 0.961 . S
C539 H540 0.960 . S
H540 C539 0.960 . S
H541 N521 0.862 . S
O542 Co510 1.920 . S
O542 C515 1.289 . S
C543 O535 1.258 . S
C543 O536 1.266 . S
Co544 O547 1.970 . S
Co544 N561 1.989 . S
Co544 O569 1.967 . S
Co544 O576 1.920 . S
Co545 O548 1.966 . S
Co545 N554 2.022 . S
Co545 N562 1.993 . S
Co545 O570 1.941 . S
C546 O547 1.258 . S
C546 O548 1.263 . S
O547 Co544 1.970 . S
O547 C546 1.258 . S
O548 Co545 1.966 . S
O548 C546 1.263 . S
C549 O550 1.235 . S
C549 O576 1.289 . S
O550 C549 1.235 . S
C551 C553 1.400 . S
C551 N554 1.351 . S
C551 C556 1.501 . S
C552 C553 1.387 . S
C552 N555 1.341 . S
C553 C551 1.400 . S
C553 C552 1.387 . S
N554 Co545 2.022 . S
N554 C551 1.351 . S
N554 N555 1.365 . S
N555 C552 1.341 . S
N555 N554 1.365 . S
N555 H575 0.862 . S
C556 C551 1.501 . S
C556 H557 0.961 . S
C556 H558 0.961 . S
C556 H559 0.960 . S
H557 C556 0.961 . S
H558 C556 0.961 . S
H559 C556 0.960 . S
C560 N561 1.342 . S
C560 C564 1.401 . S
C560 C565 1.499 . S
N561 Co544 1.989 . S
N561 C560 1.342 . S
N561 N562 1.388 . S
N562 Co545 1.993 . S
N562 N561 1.388 . S
N562 C563 1.346 . S
C563 N562 1.346 . S
C563 C564 1.396 . S
C563 C573 1.510 . S
C564 C560 1.401 . S
C564 C563 1.396 . S
C565 C560 1.499 . S
C565 H566 0.959 . S
C565 H567 0.960 . S
C565 H568 0.961 . S
H566 C565 0.959 . S
H567 C565 0.960 . S
H568 C565 0.961 . S
O569 Co544 1.967 . S
O569 C577 1.258 . S
O570 Co545 1.941 . S
O570 C577 1.266 . S
H571 C573 0.959 . S
H572 C573 0.961 . S
C573 C563 1.510 . S
C573 H571 0.959 . S
C573 H572 0.961 . S
C573 H574 0.960 . S
H574 C573 0.960 . S
H575 N555 0.862 . S
O576 Co544 1.920 . S
O576 C549 1.289 . S
C577 O569 1.258 . S
C577 O570 1.266 . S
Co578 O581 1.970 . S
Co578 N595 1.989 . S
Co578 O603 1.967 . S
Co578 O610 1.920 . S
Co579 O582 1.966 . S
Co579 N588 2.022 . S
Co579 N596 1.993 . S
Co579 O604 1.941 . S
C580 O581 1.258 . S
C580 O582 1.263 . S
O581 Co578 1.970 . S
O581 C580 1.258 . S
O582 Co579 1.966 . S
O582 C580 1.263 . S
C583 O584 1.235 . S
C583 O610 1.289 . S
O584 C583 1.235 . S
C585 C587 1.400 . S
C585 N588 1.351 . S
C585 C590 1.501 . S
C586 C587 1.387 . S
C586 N589 1.341 . S
C587 C585 1.400 . S
C587 C586 1.387 . S
N588 Co579 2.022 . S
N588 C585 1.351 . S
N588 N589 1.365 . S
N589 C586 1.341 . S
N589 N588 1.365 . S
N589 H609 0.862 . S
C590 C585 1.501 . S
C590 H591 0.961 . S
C590 H592 0.961 . S
C590 H593 0.960 . S
H591 C590 0.961 . S
H592 C590 0.961 . S
H593 C590 0.960 . S
C594 N595 1.342 . S
C594 C598 1.401 . S
C594 C599 1.499 . S
N595 Co578 1.989 . S
N595 C594 1.342 . S
N595 N596 1.388 . S
N596 Co579 1.993 . S
N596 N595 1.388 . S
N596 C597 1.346 . S
C597 N596 1.346 . S
C597 C598 1.396 . S
C597 C607 1.510 . S
C598 C594 1.401 . S
C598 C597 1.396 . S
C599 C594 1.499 . S
C599 H600 0.959 . S
C599 H601 0.960 . S
C599 H602 0.961 . S
H600 C599 0.959 . S
H601 C599 0.960 . S
H602 C599 0.961 . S
O603 Co578 1.967 . S
O603 C611 1.258 . S
O604 Co579 1.941 . S
O604 C611 1.266 . S
H605 C607 0.959 . S
H606 C607 0.961 . S
C607 C597 1.510 . S
C607 H605 0.959 . S
C607 H606 0.961 . S
C607 H608 0.960 . S
H608 C607 0.960 . S
H609 N589 0.862 . S
O610 Co578 1.920 . S
O610 C583 1.289 . S
C611 O603 1.258 . S
C611 O604 1.266 . S
Co612 O615 1.970 . S
Co612 N629 1.989 . S
Co612 O637 1.967 . S
Co612 O644 1.920 . S
Co613 O616 1.966 . S
Co613 N622 2.022 . S
Co613 N630 1.993 . S
Co613 O638 1.941 . S
C614 O615 1.258 . S
C614 O616 1.263 . S
O615 Co612 1.970 . S
O615 C614 1.258 . S
O616 Co613 1.966 . S
O616 C614 1.263 . S
C617 O618 1.235 . S
C617 O644 1.289 . S
O618 C617 1.235 . S
C619 C621 1.400 . S
C619 N622 1.351 . S
C619 C624 1.501 . S
C620 C621 1.387 . S
C620 N623 1.341 . S
C621 C619 1.400 . S
C621 C620 1.387 . S
N622 Co613 2.022 . S
N622 C619 1.351 . S
N622 N623 1.365 . S
N623 C620 1.341 . S
N623 N622 1.365 . S
N623 H643 0.862 . S
C624 C619 1.501 . S
C624 H625 0.961 . S
C624 H626 0.961 . S
C624 H627 0.960 . S
H625 C624 0.961 . S
H626 C624 0.961 . S
H627 C624 0.960 . S
C628 N629 1.342 . S
C628 C632 1.401 . S
C628 C633 1.499 . S
N629 Co612 1.989 . S
N629 C628 1.342 . S
N629 N630 1.388 . S
N630 Co613 1.993 . S
N630 N629 1.388 . S
N630 C631 1.346 . S
C631 N630 1.346 . S
C631 C632 1.396 . S
C631 C641 1.510 . S
C632 C628 1.401 . S
C632 C631 1.396 . S
C633 C628 1.499 . S
C633 H634 0.959 . S
C633 H635 0.960 . S
C633 H636 0.961 . S
H634 C633 0.959 . S
H635 C633 0.960 . S
H636 C633 0.961 . S
O637 Co612 1.967 . S
O637 C645 1.258 . S
O638 Co613 1.941 . S
O638 C645 1.266 . S
H639 C641 0.959 . S
H640 C641 0.961 . S
C641 C631 1.510 . S
C641 H639 0.959 . S
C641 H640 0.961 . S
C641 H642 0.960 . S
H642 C641 0.960 . S
H643 N623 0.862 . S
O644 Co612 1.920 . S
O644 C617 1.289 . S
C645 O637 1.258 . S
C645 O638 1.266 . S
Co646 O649 1.970 . S
Co646 N663 1.989 . S
Co646 O671 1.967 . S
Co646 O678 1.920 . S
Co647 O650 1.966 . S
Co647 N656 2.022 . S
Co647 N664 1.993 . S
Co647 O672 1.941 . S
C648 O649 1.258 . S
C648 O650 1.263 . S
O649 Co646 1.970 . S
O649 C648 1.258 . S
O650 Co647 1.966 . S
O650 C648 1.263 . S
C651 O652 1.235 . S
C651 O678 1.289 . S
O652 C651 1.235 . S
C653 C655 1.400 . S
C653 N656 1.351 . S
C653 C658 1.501 . S
C654 C655 1.387 . S
C654 N657 1.341 . S
C655 C653 1.400 . S
C655 C654 1.387 . S
N656 Co647 2.022 . S
N656 C653 1.351 . S
N656 N657 1.365 . S
N657 C654 1.341 . S
N657 N656 1.365 . S
N657 H677 0.862 . S
C658 C653 1.501 . S
C658 H659 0.961 . S
C658 H660 0.961 . S
C658 H661 0.960 . S
H659 C658 0.961 . S
H660 C658 0.961 . S
H661 C658 0.960 . S
C662 N663 1.342 . S
C662 C666 1.401 . S
C662 C667 1.499 . S
N663 Co646 1.989 . S
N663 C662 1.342 . S
N663 N664 1.388 . S
N664 Co647 1.993 . S
N664 N663 1.388 . S
N664 C665 1.346 . S
C665 N664 1.346 . S
C665 C666 1.396 . S
C665 C675 1.510 . S
C666 C662 1.401 . S
C666 C665 1.396 . S
C667 C662 1.499 . S
C667 H668 0.959 . S
C667 H669 0.960 . S
C667 H670 0.961 . S
H668 C667 0.959 . S
H669 C667 0.960 . S
H670 C667 0.961 . S
O671 Co646 1.967 . S
O671 C679 1.258 . S
O672 Co647 1.941 . S
O672 C679 1.266 . S
H673 C675 0.959 . S
H674 C675 0.961 . S
C675 C665 1.510 . S
C675 H673 0.959 . S
C675 H674 0.961 . S
C675 H676 0.960 . S
H676 C675 0.960 . S
H677 N657 0.862 . S
O678 Co646 1.920 . S
O678 C651 1.289 . S
C679 O671 1.258 . S
C679 O672 1.266 . S
Co680 O683 1.970 . S
Co680 N697 1.989 . S
Co680 O705 1.967 . S
Co680 O712 1.920 . S
Co681 O684 1.966 . S
Co681 N690 2.022 . S
Co681 N698 1.993 . S
Co681 O706 1.941 . S
C682 O683 1.258 . S
C682 O684 1.263 . S
O683 Co680 1.970 . S
O683 C682 1.258 . S
O684 Co681 1.966 . S
O684 C682 1.263 . S
C685 O686 1.235 . S
C685 O712 1.289 . S
O686 C685 1.235 . S
C687 C689 1.400 . S
C687 N690 1.351 . S
C687 C692 1.501 . S
C688 C689 1.387 . S
C688 N691 1.341 . S
C689 C687 1.400 . S
C689 C688 1.387 . S
N690 Co681 2.022 . S
N690 C687 1.351 . S
N690 N691 1.365 . S
N691 C688 1.341 . S
N691 N690 1.365 . S
N691 H711 0.862 . S
C692 C687 1.501 . S
C692 H693 0.961 . S
C692 H694 0.961 . S
C692 H695 0.960 . S
H693 C692 0.961 . S
H694 C692 0.961 . S
H695 C692 0.960 . S
C696 N697 1.342 . S
C696 C700 1.401 . S
C696 C701 1.499 . S
N697 Co680 1.989 . S
N697 C696 1.342 . S
N697 N698 1.388 . S
N698 Co681 1.993 . S
N698 N697 1.388 . S
N698 C699 1.346 . S
C699 N698 1.346 . S
C699 C700 1.396 . S
C699 C709 1.510 . S
C700 C696 1.401 . S
C700 C699 1.396 . S
C701 C696 1.499 . S
C701 H702 0.959 . S
C701 H703 0.960 . S
C701 H704 0.961 . S
H702 C701 0.959 . S
H703 C701 0.960 . S
H704 C701 0.961 . S
O705 Co680 1.967 . S
O705 C713 1.258 . S
O706 Co681 1.941 . S
O706 C713 1.266 . S
H707 C709 0.959 . S
H708 C709 0.961 . S
C709 C699 1.510 . S
C709 H707 0.959 . S
C709 H708 0.961 . S
C709 H710 0.960 . S
H710 C709 0.960 . S
H711 N691 0.862 . S
O712 Co680 1.920 . S
O712 C685 1.289 . S
C713 O705 1.258 . S
C713 O706 1.266 . S
Co714 O717 1.970 . S
Co714 N731 1.989 . S
Co714 O739 1.967 . S
Co714 O746 1.920 . S
Co715 O718 1.966 . S
Co715 N724 2.022 . S
Co715 N732 1.993 . S
Co715 O740 1.941 . S
C716 O717 1.258 . S
C716 O718 1.263 . S
O717 Co714 1.970 . S
O717 C716 1.258 . S
O718 Co715 1.966 . S
O718 C716 1.263 . S
C719 O720 1.235 . S
C719 O746 1.289 . S
O720 C719 1.235 . S
C721 C723 1.400 . S
C721 N724 1.351 . S
C721 C726 1.501 . S
C722 C723 1.387 . S
C722 N725 1.341 . S
C723 C721 1.400 . S
C723 C722 1.387 . S
N724 Co715 2.022 . S
N724 C721 1.351 . S
N724 N725 1.365 . S
N725 C722 1.341 . S
N725 N724 1.365 . S
N725 H745 0.862 . S
C726 C721 1.501 . S
C726 H727 0.961 . S
C726 H728 0.961 . S
C726 H729 0.960 . S
H727 C726 0.961 . S
H728 C726 0.961 . S
H729 C726 0.960 . S
C730 N731 1.342 . S
C730 C734 1.401 . S
C730 C735 1.499 . S
N731 Co714 1.989 . S
N731 C730 1.342 . S
N731 N732 1.388 . S
N732 Co715 1.993 . S
N732 N731 1.388 . S
N732 C733 1.346 . S
C733 N732 1.346 . S
C733 C734 1.396 . S
C733 C743 1.510 . S
C734 C730 1.401 . S
C734 C733 1.396 . S
C735 C730 1.499 . S
C735 H736 0.959 . S
C735 H737 0.960 . S
C735 H738 0.961 . S
H736 C735 0.959 . S
H737 C735 0.960 . S
H738 C735 0.961 . S
O739 Co714 1.967 . S
O739 C747 1.258 . S
O740 Co715 1.941 . S
O740 C747 1.266 . S
H741 C743 0.959 . S
H742 C743 0.961 . S
C743 C733 1.510 . S
C743 H741 0.959 . S
C743 H742 0.961 . S
C743 H744 0.960 . S
H744 C743 0.960 . S
H745 N725 0.862 . S
O746 Co714 1.920 . S
O746 C719 1.289 . S
C747 O739 1.258 . S
C747 O740 1.266 . S
Co748 O751 1.970 . S
Co748 N765 1.989 . S
Co748 O773 1.967 . S
Co748 O780 1.920 . S
Co749 O752 1.966 . S
Co749 N758 2.022 . S
Co749 N766 1.993 . S
Co749 O774 1.941 . S
C750 O751 1.258 . S
C750 O752 1.263 . S
O751 Co748 1.970 . S
O751 C750 1.258 . S
O752 Co749 1.966 . S
O752 C750 1.263 . S
C753 O754 1.235 . S
C753 O780 1.289 . S
O754 C753 1.235 . S
C755 C757 1.400 . S
C755 N758 1.351 . S
C755 C760 1.501 . S
C756 C757 1.387 . S
C756 N759 1.341 . S
C757 C755 1.400 . S
C757 C756 1.387 . S
N758 Co749 2.022 . S
N758 C755 1.351 . S
N758 N759 1.365 . S
N759 C756 1.341 . S
N759 N758 1.365 . S
N759 H779 0.862 . S
C760 C755 1.501 . S
C760 H761 0.961 . S
C760 H762 0.961 . S
C760 H763 0.960 . S
H761 C760 0.961 . S
H762 C760 0.961 . S
H763 C760 0.960 . S
C764 N765 1.342 . S
C764 C768 1.401 . S
C764 C769 1.499 . S
N765 Co748 1.989 . S
N765 C764 1.342 . S
N765 N766 1.388 . S
N766 Co749 1.993 . S
N766 N765 1.388 . S
N766 C767 1.346 . S
C767 N766 1.346 . S
C767 C768 1.396 . S
C767 C777 1.510 . S
C768 C764 1.401 . S
C768 C767 1.396 . S
C769 C764 1.499 . S
C769 H770 0.959 . S
C769 H771 0.960 . S
C769 H772 0.961 . S
H770 C769 0.959 . S
H771 C769 0.960 . S
H772 C769 0.961 . S
O773 Co748 1.967 . S
O773 C781 1.258 . S
O774 Co749 1.941 . S
O774 C781 1.266 . S
H775 C777 0.959 . S
H776 C777 0.961 . S
C777 C767 1.510 . S
C777 H775 0.959 . S
C777 H776 0.961 . S
C777 H778 0.960 . S
H778 C777 0.960 . S
H779 N759 0.862 . S
O780 Co748 1.920 . S
O780 C753 1.289 . S
C781 O773 1.258 . S
C781 O774 1.266 . S
Co782 O785 1.970 . S
Co782 N799 1.989 . S
Co782 O807 1.967 . S
Co782 O814 1.920 . S
Co783 O786 1.966 . S
Co783 N792 2.022 . S
Co783 N800 1.993 . S
Co783 O808 1.941 . S
C784 O785 1.258 . S
C784 O786 1.263 . S
O785 Co782 1.970 . S
O785 C784 1.258 . S
O786 Co783 1.966 . S
O786 C784 1.263 . S
C787 O788 1.235 . S
C787 O814 1.289 . S
O788 C787 1.235 . S
C789 C791 1.400 . S
C789 N792 1.351 . S
C789 C794 1.501 . S
C790 C791 1.387 . S
C790 N793 1.341 . S
C791 C789 1.400 . S
C791 C790 1.387 . S
N792 Co783 2.022 . S
N792 C789 1.351 . S
N792 N793 1.365 . S
N793 C790 1.341 . S
N793 N792 1.365 . S
N793 H813 0.862 . S
C794 C789 1.501 . S
C794 H795 0.961 . S
C794 H796 0.961 . S
C794 H797 0.960 . S
H795 C794 0.961 . S
H796 C794 0.961 . S
H797 C794 0.960 . S
C798 N799 1.342 . S
C798 C802 1.401 . S
C798 C803 1.499 . S
N799 Co782 1.989 . S
N799 C798 1.342 . S
N799 N800 1.388 . S
N800 Co783 1.993 . S
N800 N799 1.388 . S
N800 C801 1.346 . S
C801 N800 1.346 . S
C801 C802 1.396 . S
C801 C811 1.510 . S
C802 C798 1.401 . S
C802 C801 1.396 . S
C803 C798 1.499 . S
C803 H804 0.959 . S
C803 H805 0.960 . S
C803 H806 0.961 . S
H804 C803 0.959 . S
H805 C803 0.960 . S
H806 C803 0.961 . S
O807 Co782 1.967 . S
O807 C815 1.258 . S
O808 Co783 1.941 . S
O808 C815 1.266 . S
H809 C811 0.959 . S
H810 C811 0.961 . S
C811 C801 1.510 . S
C811 H809 0.959 . S
C811 H810 0.961 . S
C811 H812 0.960 . S
H812 C811 0.960 . S
H813 N793 0.862 . S
O814 Co782 1.920 . S
O814 C787 1.289 . S
C815 O807 1.258 . S
C815 O808 1.266 . S
C816 C817 1.391 . S
C816 C818 1.394 . S
C816 H832 0.931 . S
C817 C816 1.391 . S
C817 C821 1.376 . S
C818 C816 1.394 . S
C818 C819 1.369 . S
C818 C822 1.531 . S
C819 C818 1.369 . S
C819 C820 1.410 . S
C819 C827 1.503 . S
C820 C819 1.410 . S
C820 C821 1.392 . S
C820 C823 1.511 . S
C821 C817 1.376 . S
C821 C820 1.392 . S
C821 H833 0.929 . S
C822 C818 1.531 . S
C822 H834 0.960 . S
C822 H835 0.962 . S
C822 H836 0.960 . S
C823 C820 1.511 . S
C823 H837 0.961 . S
C823 H838 0.961 . S
C823 H839 0.961 . S
C824 C825 1.370 . S
C824 C826 1.363 . S
C824 H840 0.931 . S
C825 C824 1.370 . S
C825 C829 1.408 . S
C826 C824 1.363 . S
C826 C827 1.370 . S
C826 C830 1.524 . S
C827 C819 1.503 . S
C827 C826 1.370 . S
C827 C828 1.403 . S
C828 C827 1.403 . S
C828 C829 1.404 . S
C828 C831 1.539 . S
C829 C825 1.408 . S
C829 C828 1.404 . S
C829 H841 0.930 . S
C830 C826 1.524 . S
C830 H842 0.956 . S
C830 H843 0.961 . S
C830 H844 0.961 . S
C831 C828 1.539 . S
C831 H845 0.958 . S
C831 H846 0.961 . S
C831 H847 0.960 . S
H832 C816 0.931 . S
H833 C821 0.929 . S
H834 C822 0.960 . S
H835 C822 0.962 . S
H836 C822 0.960 . S
H837 C823 0.961 . S
H838 C823 0.961 . S
H839 C823 0.961 . S
H840 C824 0.931 . S
H841 C829 0.930 . S
H842 C830 0.956 . S
H843 C830 0.961 . S
H844 C830 0.961 . S
H845 C831 0.958 . S
H846 C831 0.961 . S
H847 C831 0.960 . S
C848 C849 1.391 . S
C848 C850 1.394 . S
C848 H864 0.931 . S
C849 C848 1.391 . S
C849 C853 1.376 . S
C850 C848 1.394 . S
C850 C851 1.369 . S
C850 C854 1.531 . S
C851 C850 1.369 . S
C851 C852 1.410 . S
C851 C859 1.503 . S
C852 C851 1.410 . S
C852 C853 1.392 . S
C852 C855 1.511 . S
C853 C849 1.376 . S
C853 C852 1.392 . S
C853 H865 0.929 . S
C854 C850 1.531 . S
C854 H866 0.960 . S
C854 H867 0.962 . S
C854 H868 0.960 . S
C855 C852 1.511 . S
C855 H869 0.961 . S
C855 H870 0.961 . S
C855 H871 0.961 . S
C856 C857 1.370 . S
C856 C858 1.363 . S
C856 H872 0.931 . S
C857 C856 1.370 . S
C857 C861 1.408 . S
C858 C856 1.363 . S
C858 C859 1.370 . S
C858 C862 1.524 . S
C859 C851 1.503 . S
C859 C858 1.370 . S
C859 C860 1.403 . S
C860 C859 1.403 . S
C860 C861 1.404 . S
C860 C863 1.539 . S
C861 C857 1.408 . S
C861 C860 1.404 . S
C861 H873 0.930 . S
C862 C858 1.524 . S
C862 H874 0.956 . S
C862 H875 0.961 . S
C862 H876 0.961 . S
C863 C860 1.539 . S
C863 H877 0.958 . S
C863 H878 0.961 . S
C863 H879 0.960 . S
H864 C848 0.931 . S
H865 C853 0.929 . S
H866 C854 0.960 . S
H867 C854 0.962 . S
H868 C854 0.960 . S
H869 C855 0.961 . S
H870 C855 0.961 . S
H871 C855 0.961 . S
H872 C856 0.931 . S
H873 C861 0.930 . S
H874 C862 0.956 . S
H875 C862 0.961 . S
H876 C862 0.961 . S
H877 C863 0.958 . S
H878 C863 0.961 . S
H879 C863 0.960 . S
C880 C881 1.391 . S
C880 C882 1.394 . S
C880 H896 0.931 . S
C881 C880 1.391 . S
C881 C885 1.376 . S
C882 C880 1.394 . S
C882 C883 1.369 . S
C882 C886 1.531 . S
C883 C882 1.369 . S
C883 C884 1.410 . S
C883 C891 1.503 . S
C884 C883 1.410 . S
C884 C885 1.392 . S
C884 C887 1.511 . S
C885 C881 1.376 . S
C885 C884 1.392 . S
C885 H897 0.929 . S
C886 C882 1.531 . S
C886 H898 0.960 . S
C886 H899 0.962 . S
C886 H900 0.960 . S
C887 C884 1.511 . S
C887 H901 0.961 . S
C887 H902 0.961 . S
C887 H903 0.961 . S
C888 C889 1.370 . S
C888 C890 1.363 . S
C888 H904 0.931 . S
C889 C888 1.370 . S
C889 C893 1.408 . S
C890 C888 1.363 . S
C890 C891 1.370 . S
C890 C894 1.524 . S
C891 C883 1.503 . S
C891 C890 1.370 . S
C891 C892 1.403 . S
C892 C891 1.403 . S
C892 C893 1.404 . S
C892 C895 1.539 . S
C893 C889 1.408 . S
C893 C892 1.404 . S
C893 H905 0.930 . S
C894 C890 1.524 . S
C894 H906 0.956 . S
C894 H907 0.961 . S
C894 H908 0.961 . S
C895 C892 1.539 . S
C895 H909 0.958 . S
C895 H910 0.961 . S
C895 H911 0.960 . S
H896 C880 0.931 . S
H897 C885 0.929 . S
H898 C886 0.960 . S
H899 C886 0.962 . S
H900 C886 0.960 . S
H901 C887 0.961 . S
H902 C887 0.961 . S
H903 C887 0.961 . S
H904 C888 0.931 . S
H905 C893 0.930 . S
H906 C894 0.956 . S
H907 C894 0.961 . S
H908 C894 0.961 . S
H909 C895 0.958 . S
H910 C895 0.961 . S
H911 C895 0.960 . S
C912 C913 1.391 . S
C912 C914 1.394 . S
C912 H928 0.931 . S
C913 C912 1.391 . S
C913 C917 1.376 . S
C914 C912 1.394 . S
C914 C915 1.369 . S
C914 C918 1.531 . S
C915 C914 1.369 . S
C915 C916 1.410 . S
C915 C923 1.503 . S
C916 C915 1.410 . S
C916 C917 1.392 . S
C916 C919 1.511 . S
C917 C913 1.376 . S
C917 C916 1.392 . S
C917 H929 0.929 . S
C918 C914 1.531 . S
C918 H930 0.960 . S
C918 H931 0.962 . S
C918 H932 0.960 . S
C919 C916 1.511 . S
C919 H933 0.961 . S
C919 H934 0.961 . S
C919 H935 0.961 . S
C920 C921 1.370 . S
C920 C922 1.363 . S
C920 H936 0.931 . S
C921 C920 1.370 . S
C921 C925 1.408 . S
C922 C920 1.363 . S
C922 C923 1.370 . S
C922 C926 1.524 . S
C923 C915 1.503 . S
C923 C922 1.370 . S
C923 C924 1.403 . S
C924 C923 1.403 . S
C924 C925 1.404 . S
C924 C927 1.539 . S
C925 C921 1.408 . S
C925 C924 1.404 . S
C925 H937 0.930 . S
C926 C922 1.524 . S
C926 H938 0.956 . S
C926 H939 0.961 . S
C926 H940 0.961 . S
C927 C924 1.539 . S
C927 H941 0.958 . S
C927 H942 0.961 . S
C927 H943 0.960 . S
H928 C912 0.931 . S
H929 C917 0.929 . S
H930 C918 0.960 . S
H931 C918 0.962 . S
H932 C918 0.960 . S
H933 C919 0.961 . S
H934 C919 0.961 . S
H935 C919 0.961 . S
H936 C920 0.931 . S
H937 C925 0.930 . S
H938 C926 0.956 . S
H939 C926 0.961 . S
H940 C926 0.961 . S
H941 C927 0.958 . S
H942 C927 0.961 . S
H943 C927 0.960 . S
C944 C945 1.391 . S
C944 C946 1.394 . S
C944 H960 0.931 . S
C945 C944 1.391 . S
C945 C949 1.376 . S
C946 C944 1.394 . S
C946 C947 1.369 . S
C946 C950 1.531 . S
C947 C946 1.369 . S
C947 C948 1.410 . S
C947 C955 1.503 . S
C948 C947 1.410 . S
C948 C949 1.392 . S
C948 C951 1.511 . S
C949 C945 1.376 . S
C949 C948 1.392 . S
C949 H961 0.929 . S
C950 C946 1.531 . S
C950 H962 0.960 . S
C950 H963 0.962 . S
C950 H964 0.960 . S
C951 C948 1.511 . S
C951 H965 0.961 . S
C951 H966 0.961 . S
C951 H967 0.961 . S
C952 C953 1.370 . S
C952 C954 1.363 . S
C952 H968 0.931 . S
C953 C952 1.370 . S
C953 C957 1.408 . S
C954 C952 1.363 . S
C954 C955 1.370 . S
C954 C958 1.524 . S
C955 C947 1.503 . S
C955 C954 1.370 . S
C955 C956 1.403 . S
C956 C955 1.403 . S
C956 C957 1.404 . S
C956 C959 1.539 . S
C957 C953 1.408 . S
C957 C956 1.404 . S
C957 H969 0.930 . S
C958 C954 1.524 . S
C958 H970 0.956 . S
C958 H971 0.961 . S
C958 H972 0.961 . S
C959 C956 1.539 . S
C959 H973 0.958 . S
C959 H974 0.961 . S
C959 H975 0.960 . S
H960 C944 0.931 . S
H961 C949 0.929 . S
H962 C950 0.960 . S
H963 C950 0.962 . S
H964 C950 0.960 . S
H965 C951 0.961 . S
H966 C951 0.961 . S
H967 C951 0.961 . S
H968 C952 0.931 . S
H969 C957 0.930 . S
H970 C958 0.956 . S
H971 C958 0.961 . S
H972 C958 0.961 . S
H973 C959 0.958 . S
H974 C959 0.961 . S
H975 C959 0.960 . S
C976 C977 1.391 . S
C976 C978 1.394 . S
C976 H992 0.931 . S
C977 C976 1.391 . S
C977 C981 1.376 . S
C978 C976 1.394 . S
C978 C979 1.369 . S
C978 C982 1.531 . S
C979 C978 1.369 . S
C979 C980 1.410 . S
C979 C987 1.503 . S
C980 C979 1.410 . S
C980 C981 1.392 . S
C980 C983 1.511 . S
C981 C977 1.376 . S
C981 C980 1.392 . S
C981 H993 0.929 . S
C982 C978 1.531 . S
C982 H994 0.960 . S
C982 H995 0.962 . S
C982 H996 0.960 . S
C983 C980 1.511 . S
C983 H997 0.961 . S
C983 H998 0.961 . S
C983 H999 0.961 . S
C984 C985 1.370 . S
C984 C986 1.363 . S
C984 H1000 0.931 . S
C985 C984 1.370 . S
C985 C989 1.408 . S
C986 C984 1.363 . S
C986 C987 1.370 . S
C986 C990 1.524 . S
C987 C979 1.503 . S
C987 C986 1.370 . S
C987 C988 1.403 . S
C988 C987 1.403 . S
C988 C989 1.404 . S
C988 C991 1.539 . S
C989 C985 1.408 . S
C989 C988 1.404 . S
C989 H1001 0.930 . S
C990 C986 1.524 . S
C990 H1002 0.956 . S
C990 H1003 0.961 . S
C990 H1004 0.961 . S
C991 C988 1.539 . S
C991 H1005 0.958 . S
C991 H1006 0.961 . S
C991 H1007 0.960 . S
H992 C976 0.931 . S
H993 C981 0.929 . S
H994 C982 0.960 . S
H995 C982 0.962 . S
H996 C982 0.960 . S
H997 C983 0.961 . S
H998 C983 0.961 . S
H999 C983 0.961 . S
H1000 C984 0.931 . S
H1001 C989 0.930 . S
H1002 C990 0.956 . S
H1003 C990 0.961 . S
H1004 C990 0.961 . S
H1005 C991 0.958 . S
H1006 C991 0.961 . S
H1007 C991 0.960 . S
C1008 C1009 1.391 . S
C1008 C1010 1.394 . S
C1008 H1024 0.931 . S
C1009 C1008 1.391 . S
C1009 C1013 1.376 . S
C1010 C1008 1.394 . S
C1010 C1011 1.369 . S
C1010 C1014 1.531 . S
C1011 C1010 1.369 . S
C1011 C1012 1.410 . S
C1011 C1019 1.503 . S
C1012 C1011 1.410 . S
C1012 C1013 1.392 . S
C1012 C1015 1.511 . S
C1013 C1009 1.376 . S
C1013 C1012 1.392 . S
C1013 H1025 0.929 . S
C1014 C1010 1.531 . S
C1014 H1026 0.960 . S
C1014 H1027 0.962 . S
C1014 H1028 0.960 . S
C1015 C1012 1.511 . S
C1015 H1029 0.961 . S
C1015 H1030 0.961 . S
C1015 H1031 0.961 . S
C1016 C1017 1.370 . S
C1016 C1018 1.363 . S
C1016 H1032 0.931 . S
C1017 C1016 1.370 . S
C1017 C1021 1.408 . S
C1018 C1016 1.363 . S
C1018 C1019 1.370 . S
C1018 C1022 1.524 . S
C1019 C1011 1.503 . S
C1019 C1018 1.370 . S
C1019 C1020 1.403 . S
C1020 C1019 1.403 . S
C1020 C1021 1.404 . S
C1020 C1023 1.539 . S
C1021 C1017 1.408 . S
C1021 C1020 1.404 . S
C1021 H1033 0.930 . S
C1022 C1018 1.524 . S
C1022 H1034 0.956 . S
C1022 H1035 0.961 . S
C1022 H1036 0.961 . S
C1023 C1020 1.539 . S
C1023 H1037 0.958 . S
C1023 H1038 0.961 . S
C1023 H1039 0.960 . S
H1024 C1008 0.931 . S
H1025 C1013 0.929 . S
H1026 C1014 0.960 . S
H1027 C1014 0.962 . S
H1028 C1014 0.960 . S
H1029 C1015 0.961 . S
H1030 C1015 0.961 . S
H1031 C1015 0.961 . S
H1032 C1016 0.931 . S
H1033 C1021 0.930 . S
H1034 C1022 0.956 . S
H1035 C1022 0.961 . S
H1036 C1022 0.961 . S
H1037 C1023 0.958 . S
H1038 C1023 0.961 . S
H1039 C1023 0.960 . S
C1040 C1041 1.391 . S
C1040 C1042 1.394 . S
C1040 H1056 0.931 . S
C1041 C1040 1.391 . S
C1041 C1045 1.376 . S
C1042 C1040 1.394 . S
C1042 C1043 1.369 . S
C1042 C1046 1.531 . S
C1043 C1042 1.369 . S
C1043 C1044 1.410 . S
C1043 C1051 1.503 . S
C1044 C1043 1.410 . S
C1044 C1045 1.392 . S
C1044 C1047 1.511 . S
C1045 C1041 1.376 . S
C1045 C1044 1.392 . S
C1045 H1057 0.929 . S
C1046 C1042 1.531 . S
C1046 H1058 0.960 . S
C1046 H1059 0.962 . S
C1046 H1060 0.960 . S
C1047 C1044 1.511 . S
C1047 H1061 0.961 . S
C1047 H1062 0.961 . S
C1047 H1063 0.961 . S
C1048 C1049 1.370 . S
C1048 C1050 1.363 . S
C1048 H1064 0.931 . S
C1049 C1048 1.370 . S
C1049 C1053 1.408 . S
C1050 C1048 1.363 . S
C1050 C1051 1.370 . S
C1050 C1054 1.524 . S
C1051 C1043 1.503 . S
C1051 C1050 1.370 . S
C1051 C1052 1.403 . S
C1052 C1051 1.403 . S
C1052 C1053 1.404 . S
C1052 C1055 1.539 . S
C1053 C1049 1.408 . S
C1053 C1052 1.404 . S
C1053 H1065 0.930 . S
C1054 C1050 1.524 . S
C1054 H1066 0.956 . S
C1054 H1067 0.961 . S
C1054 H1068 0.961 . S
C1055 C1052 1.539 . S
C1055 H1069 0.958 . S
C1055 H1070 0.961 . S
C1055 H1071 0.960 . S
H1056 C1040 0.931 . S
H1057 C1045 0.929 . S
H1058 C1046 0.960 . S
H1059 C1046 0.962 . S
H1060 C1046 0.960 . S
H1061 C1047 0.961 . S
H1062 C1047 0.961 . S
H1063 C1047 0.961 . S
H1064 C1048 0.931 . S
H1065 C1053 0.930 . S
H1066 C1054 0.956 . S
H1067 C1054 0.961 . S
H1068 C1054 0.961 . S
H1069 C1055 0.958 . S
H1070 C1055 0.961 . S
H1071 C1055 0.960 . S
C1072 C1073 1.391 . S
C1072 C1074 1.394 . S
C1072 H1088 0.931 . S
C1073 C1072 1.391 . S
C1073 C1077 1.376 . S
C1074 C1072 1.394 . S
C1074 C1075 1.369 . S
C1074 C1078 1.531 . S
C1075 C1074 1.369 . S
C1075 C1076 1.410 . S
C1075 C1083 1.503 . S
C1076 C1075 1.410 . S
C1076 C1077 1.392 . S
C1076 C1079 1.511 . S
C1077 C1073 1.376 . S
C1077 C1076 1.392 . S
C1077 H1089 0.929 . S
C1078 C1074 1.531 . S
C1078 H1090 0.960 . S
C1078 H1091 0.962 . S
C1078 H1092 0.960 . S
C1079 C1076 1.511 . S
C1079 H1093 0.961 . S
C1079 H1094 0.961 . S
C1079 H1095 0.961 . S
C1080 C1081 1.370 . S
C1080 C1082 1.363 . S
C1080 H1096 0.931 . S
C1081 C1080 1.370 . S
C1081 C1085 1.408 . S
C1082 C1080 1.363 . S
C1082 C1083 1.370 . S
C1082 C1086 1.524 . S
C1083 C1075 1.503 . S
C1083 C1082 1.370 . S
C1083 C1084 1.403 . S
C1084 C1083 1.403 . S
C1084 C1085 1.404 . S
C1084 C1087 1.539 . S
C1085 C1081 1.408 . S
C1085 C1084 1.404 . S
C1085 H1097 0.930 . S
C1086 C1082 1.524 . S
C1086 H1098 0.956 . S
C1086 H1099 0.961 . S
C1086 H1100 0.961 . S
C1087 C1084 1.539 . S
C1087 H1101 0.958 . S
C1087 H1102 0.961 . S
C1087 H1103 0.960 . S
H1088 C1072 0.931 . S
H1089 C1077 0.929 . S
H1090 C1078 0.960 . S
H1091 C1078 0.962 . S
H1092 C1078 0.960 . S
H1093 C1079 0.961 . S
H1094 C1079 0.961 . S
H1095 C1079 0.961 . S
H1096 C1080 0.931 . S
H1097 C1085 0.930 . S
H1098 C1086 0.956 . S
H1099 C1086 0.961 . S
H1100 C1086 0.961 . S
H1101 C1087 0.958 . S
H1102 C1087 0.961 . S
H1103 C1087 0.960 . S
C1104 C1105 1.391 . S
C1104 C1106 1.394 . S
C1104 H1120 0.931 . S
C1105 C1104 1.391 . S
C1105 C1109 1.376 . S
C1106 C1104 1.394 . S
C1106 C1107 1.369 . S
C1106 C1110 1.531 . S
C1107 C1106 1.369 . S
C1107 C1108 1.410 . S
C1107 C1115 1.503 . S
C1108 C1107 1.410 . S
C1108 C1109 1.392 . S
C1108 C1111 1.511 . S
C1109 C1105 1.376 . S
C1109 C1108 1.392 . S
C1109 H1121 0.929 . S
C1110 C1106 1.531 . S
C1110 H1122 0.960 . S
C1110 H1123 0.962 . S
C1110 H1124 0.960 . S
C1111 C1108 1.511 . S
C1111 H1125 0.961 . S
C1111 H1126 0.961 . S
C1111 H1127 0.961 . S
C1112 C1113 1.370 . S
C1112 C1114 1.363 . S
C1112 H1128 0.931 . S
C1113 C1112 1.370 . S
C1113 C1117 1.408 . S
C1114 C1112 1.363 . S
C1114 C1115 1.370 . S
C1114 C1118 1.524 . S
C1115 C1107 1.503 . S
C1115 C1114 1.370 . S
C1115 C1116 1.403 . S
C1116 C1115 1.403 . S
C1116 C1117 1.404 . S
C1116 C1119 1.539 . S
C1117 C1113 1.408 . S
C1117 C1116 1.404 . S
C1117 H1129 0.930 . S
C1118 C1114 1.524 . S
C1118 H1130 0.956 . S
C1118 H1131 0.961 . S
C1118 H1132 0.961 . S
C1119 C1116 1.539 . S
C1119 H1133 0.958 . S
C1119 H1134 0.961 . S
C1119 H1135 0.960 . S
H1120 C1104 0.931 . S
H1121 C1109 0.929 . S
H1122 C1110 0.960 . S
H1123 C1110 0.962 . S
H1124 C1110 0.960 . S
H1125 C1111 0.961 . S
H1126 C1111 0.961 . S
H1127 C1111 0.961 . S
H1128 C1112 0.931 . S
H1129 C1117 0.930 . S
H1130 C1118 0.956 . S
H1131 C1118 0.961 . S
H1132 C1118 0.961 . S
H1133 C1119 0.958 . S
H1134 C1119 0.961 . S
H1135 C1119 0.960 . S
C1136 C1137 1.391 . S
C1136 C1138 1.394 . S
C1136 H1152 0.931 . S
C1137 C1136 1.391 . S
C1137 C1141 1.376 . S
C1138 C1136 1.394 . S
C1138 C1139 1.369 . S
C1138 C1142 1.531 . S
C1139 C1138 1.369 . S
C1139 C1140 1.410 . S
C1139 C1147 1.503 . S
C1140 C1139 1.410 . S
C1140 C1141 1.392 . S
C1140 C1143 1.511 . S
C1141 C1137 1.376 . S
C1141 C1140 1.392 . S
C1141 H1153 0.929 . S
C1142 C1138 1.531 . S
C1142 H1154 0.960 . S
C1142 H1155 0.962 . S
C1142 H1156 0.960 . S
C1143 C1140 1.511 . S
C1143 H1157 0.961 . S
C1143 H1158 0.961 . S
C1143 H1159 0.961 . S
C1144 C1145 1.370 . S
C1144 C1146 1.363 . S
C1144 H1160 0.931 . S
C1145 C1144 1.370 . S
C1145 C1149 1.408 . S
C1146 C1144 1.363 . S
C1146 C1147 1.370 . S
C1146 C1150 1.524 . S
C1147 C1139 1.503 . S
C1147 C1146 1.370 . S
C1147 C1148 1.403 . S
C1148 C1147 1.403 . S
C1148 C1149 1.404 . S
C1148 C1151 1.539 . S
C1149 C1145 1.408 . S
C1149 C1148 1.404 . S
C1149 H1161 0.930 . S
C1150 C1146 1.524 . S
C1150 H1162 0.956 . S
C1150 H1163 0.961 . S
C1150 H1164 0.961 . S
C1151 C1148 1.539 . S
C1151 H1165 0.958 . S
C1151 H1166 0.961 . S
C1151 H1167 0.960 . S
H1152 C1136 0.931 . S
H1153 C1141 0.929 . S
H1154 C1142 0.960 . S
H1155 C1142 0.962 . S
H1156 C1142 0.960 . S
H1157 C1143 0.961 . S
H1158 C1143 0.961 . S
H1159 C1143 0.961 . S
H1160 C1144 0.931 . S
H1161 C1149 0.930 . S
H1162 C1150 0.956 . S
H1163 C1150 0.961 . S
H1164 C1150 0.961 . S
H1165 C1151 0.958 . S
H1166 C1151 0.961 . S
H1167 C1151 0.960 . S
C1168 C1169 1.391 . S
C1168 C1170 1.394 . S
C1168 H1184 0.931 . S
C1169 C1168 1.391 . S
C1169 C1173 1.376 . S
C1170 C1168 1.394 . S
C1170 C1171 1.369 . S
C1170 C1174 1.531 . S
C1171 C1170 1.369 . S
C1171 C1172 1.410 . S
C1171 C1179 1.503 . S
C1172 C1171 1.410 . S
C1172 C1173 1.392 . S
C1172 C1175 1.511 . S
C1173 C1169 1.376 . S
C1173 C1172 1.392 . S
C1173 H1185 0.929 . S
C1174 C1170 1.531 . S
C1174 H1186 0.960 . S
C1174 H1187 0.962 . S
C1174 H1188 0.960 . S
C1175 C1172 1.511 . S
C1175 H1189 0.961 . S
C1175 H1190 0.961 . S
C1175 H1191 0.961 . S
C1176 C1177 1.370 . S
C1176 C1178 1.363 . S
C1176 H1192 0.931 . S
C1177 C1176 1.370 . S
C1177 C1181 1.408 . S
C1178 C1176 1.363 . S
C1178 C1179 1.370 . S
C1178 C1182 1.524 . S
C1179 C1171 1.503 . S
C1179 C1178 1.370 . S
C1179 C1180 1.403 . S
C1180 C1179 1.403 . S
C1180 C1181 1.404 . S
C1180 C1183 1.539 . S
C1181 C1177 1.408 . S
C1181 C1180 1.404 . S
C1181 H1193 0.930 . S
C1182 C1178 1.524 . S
C1182 H1194 0.956 . S
C1182 H1195 0.961 . S
C1182 H1196 0.961 . S
C1183 C1180 1.539 . S
C1183 H1197 0.958 . S
C1183 H1198 0.961 . S
C1183 H1199 0.960 . S
H1184 C1168 0.931 . S
H1185 C1173 0.929 . S
H1186 C1174 0.960 . S
H1187 C1174 0.962 . S
H1188 C1174 0.960 . S
H1189 C1175 0.961 . S
H1190 C1175 0.961 . S
H1191 C1175 0.961 . S
H1192 C1176 0.931 . S
H1193 C1181 0.930 . S
H1194 C1182 0.956 . S
H1195 C1182 0.961 . S
H1196 C1182 0.961 . S
H1197 C1183 0.958 . S
H1198 C1183 0.961 . S
H1199 C1183 0.960 . S
C1200 C1201 1.391 . S
C1200 C1202 1.394 . S
C1200 H1216 0.931 . S
C1201 C1200 1.391 . S
C1201 C1205 1.376 . S
C1202 C1200 1.394 . S
C1202 C1203 1.369 . S
C1202 C1206 1.531 . S
C1203 C1202 1.369 . S
C1203 C1204 1.410 . S
C1203 C1211 1.503 . S
C1204 C1203 1.410 . S
C1204 C1205 1.392 . S
C1204 C1207 1.511 . S
C1205 C1201 1.376 . S
C1205 C1204 1.392 . S
C1205 H1217 0.929 . S
C1206 C1202 1.531 . S
C1206 H1218 0.960 . S
C1206 H1219 0.962 . S
C1206 H1220 0.960 . S
C1207 C1204 1.511 . S
C1207 H1221 0.961 . S
C1207 H1222 0.961 . S
C1207 H1223 0.961 . S
C1208 C1209 1.370 . S
C1208 C1210 1.363 . S
C1208 H1224 0.931 . S
C1209 C1208 1.370 . S
C1209 C1213 1.408 . S
C1210 C1208 1.363 . S
C1210 C1211 1.370 . S
C1210 C1214 1.524 . S
C1211 C1203 1.503 . S
C1211 C1210 1.370 . S
C1211 C1212 1.403 . S
C1212 C1211 1.403 . S
C1212 C1213 1.404 . S
C1212 C1215 1.539 . S
C1213 C1209 1.408 . S
C1213 C1212 1.404 . S
C1213 H1225 0.930 . S
C1214 C1210 1.524 . S
C1214 H1226 0.956 . S
C1214 H1227 0.961 . S
C1214 H1228 0.961 . S
C1215 C1212 1.539 . S
C1215 H1229 0.958 . S
C1215 H1230 0.961 . S
C1215 H1231 0.960 . S
H1216 C1200 0.931 . S
H1217 C1205 0.929 . S
H1218 C1206 0.960 . S
H1219 C1206 0.962 . S
H1220 C1206 0.960 . S
H1221 C1207 0.961 . S
H1222 C1207 0.961 . S
H1223 C1207 0.961 . S
H1224 C1208 0.931 . S
H1225 C1213 0.930 . S
H1226 C1214 0.956 . S
H1227 C1214 0.961 . S
H1228 C1214 0.961 . S
H1229 C1215 0.958 . S
H1230 C1215 0.961 . S
H1231 C1215 0.960 . S
C1232 C1233 1.391 . S
C1232 C1234 1.394 . S
C1232 H1248 0.931 . S
C1233 C1232 1.391 . S
C1233 C1237 1.376 . S
C1234 C1232 1.394 . S
C1234 C1235 1.369 . S
C1234 C1238 1.531 . S
C1235 C1234 1.369 . S
C1235 C1236 1.410 . S
C1235 C1243 1.503 . S
C1236 C1235 1.410 . S
C1236 C1237 1.392 . S
C1236 C1239 1.511 . S
C1237 C1233 1.376 . S
C1237 C1236 1.392 . S
C1237 H1249 0.929 . S
C1238 C1234 1.531 . S
C1238 H1250 0.960 . S
C1238 H1251 0.962 . S
C1238 H1252 0.960 . S
C1239 C1236 1.511 . S
C1239 H1253 0.961 . S
C1239 H1254 0.961 . S
C1239 H1255 0.961 . S
C1240 C1241 1.370 . S
C1240 C1242 1.363 . S
C1240 H1256 0.931 . S
C1241 C1240 1.370 . S
C1241 C1245 1.408 . S
C1242 C1240 1.363 . S
C1242 C1243 1.370 . S
C1242 C1246 1.524 . S
C1243 C1235 1.503 . S
C1243 C1242 1.370 . S
C1243 C1244 1.403 . S
C1244 C1243 1.403 . S
C1244 C1245 1.404 . S
C1244 C1247 1.539 . S
C1245 C1241 1.408 . S
C1245 C1244 1.404 . S
C1245 H1257 0.930 . S
C1246 C1242 1.524 . S
C1246 H1258 0.956 . S
C1246 H1259 0.961 . S
C1246 H1260 0.961 . S
C1247 C1244 1.539 . S
C1247 H1261 0.958 . S
C1247 H1262 0.961 . S
C1247 H1263 0.960 . S
H1248 C1232 0.931 . S
H1249 C1237 0.929 . S
H1250 C1238 0.960 . S
H1251 C1238 0.962 . S
H1252 C1238 0.960 . S
H1253 C1239 0.961 . S
H1254 C1239 0.961 . S
H1255 C1239 0.961 . S
H1256 C1240 0.931 . S
H1257 C1245 0.930 . S
H1258 C1246 0.956 . S
H1259 C1246 0.961 . S
H1260 C1246 0.961 . S
H1261 C1247 0.958 . S
H1262 C1247 0.961 . S
H1263 C1247 0.960 . S
C1264 C1265 1.391 . S
C1264 C1266 1.394 . S
C1264 H1280 0.931 . S
C1265 C1264 1.391 . S
C1265 C1269 1.376 . S
C1266 C1264 1.394 . S
C1266 C1267 1.369 . S
C1266 C1270 1.531 . S
C1267 C1266 1.369 . S
C1267 C1268 1.410 . S
C1267 C1275 1.503 . S
C1268 C1267 1.410 . S
C1268 C1269 1.392 . S
C1268 C1271 1.511 . S
C1269 C1265 1.376 . S
C1269 C1268 1.392 . S
C1269 H1281 0.929 . S
C1270 C1266 1.531 . S
C1270 H1282 0.960 . S
C1270 H1283 0.962 . S
C1270 H1284 0.960 . S
C1271 C1268 1.511 . S
C1271 H1285 0.961 . S
C1271 H1286 0.961 . S
C1271 H1287 0.961 . S
C1272 C1273 1.370 . S
C1272 C1274 1.363 . S
C1272 H1288 0.931 . S
C1273 C1272 1.370 . S
C1273 C1277 1.408 . S
C1274 C1272 1.363 . S
C1274 C1275 1.370 . S
C1274 C1278 1.524 . S
C1275 C1267 1.503 . S
C1275 C1274 1.370 . S
C1275 C1276 1.403 . S
C1276 C1275 1.403 . S
C1276 C1277 1.404 . S
C1276 C1279 1.539 . S
C1277 C1273 1.408 . S
C1277 C1276 1.404 . S
C1277 H1289 0.930 . S
C1278 C1274 1.524 . S
C1278 H1290 0.956 . S
C1278 H1291 0.961 . S
C1278 H1292 0.961 . S
C1279 C1276 1.539 . S
C1279 H1293 0.958 . S
C1279 H1294 0.961 . S
C1279 H1295 0.960 . S
H1280 C1264 0.931 . S
H1281 C1269 0.929 . S
H1282 C1270 0.960 . S
H1283 C1270 0.962 . S
H1284 C1270 0.960 . S
H1285 C1271 0.961 . S
H1286 C1271 0.961 . S
H1287 C1271 0.961 . S
H1288 C1272 0.931 . S
H1289 C1277 0.930 . S
H1290 C1278 0.956 . S
H1291 C1278 0.961 . S
H1292 C1278 0.961 . S
H1293 C1279 0.958 . S
H1294 C1279 0.961 . S
H1295 C1279 0.960 . S
C1296 C1297 1.391 . S
C1296 C1298 1.394 . S
C1296 H1312 0.931 . S
C1297 C1296 1.391 . S
C1297 C1301 1.376 . S
C1298 C1296 1.394 . S
C1298 C1299 1.369 . S
C1298 C1302 1.531 . S
C1299 C1298 1.369 . S
C1299 C1300 1.410 . S
C1299 C1307 1.503 . S
C1300 C1299 1.410 . S
C1300 C1301 1.392 . S
C1300 C1303 1.511 . S
C1301 C1297 1.376 . S
C1301 C1300 1.392 . S
C1301 H1313 0.929 . S
C1302 C1298 1.531 . S
C1302 H1314 0.960 . S
C1302 H1315 0.962 . S
C1302 H1316 0.960 . S
C1303 C1300 1.511 . S
C1303 H1317 0.961 . S
C1303 H1318 0.961 . S
C1303 H1319 0.961 . S
C1304 C1305 1.370 . S
C1304 C1306 1.363 . S
C1304 H1320 0.931 . S
C1305 C1304 1.370 . S
C1305 C1309 1.408 . S
C1306 C1304 1.363 . S
C1306 C1307 1.370 . S
C1306 C1310 1.524 . S
C1307 C1299 1.503 . S
C1307 C1306 1.370 . S
C1307 C1308 1.403 . S
C1308 C1307 1.403 . S
C1308 C1309 1.404 . S
C1308 C1311 1.539 . S
C1309 C1305 1.408 . S
C1309 C1308 1.404 . S
C1309 H1321 0.930 . S
C1310 C1306 1.524 . S
C1310 H1322 0.956 . S
C1310 H1323 0.961 . S
C1310 H1324 0.961 . S
C1311 C1308 1.539 . S
C1311 H1325 0.958 . S
C1311 H1326 0.961 . S
C1311 H1327 0.960 . S
H1312 C1296 0.931 . S
H1313 C1301 0.929 . S
H1314 C1302 0.960 . S
H1315 C1302 0.962 . S
H1316 C1302 0.960 . S
H1317 C1303 0.961 . S
H1318 C1303 0.961 . S
H1319 C1303 0.961 . S
H1320 C1304 0.931 . S
H1321 C1309 0.930 . S
H1322 C1310 0.956 . S
H1323 C1310 0.961 . S
H1324 C1310 0.961 . S
H1325 C1311 0.958 . S
H1326 C1311 0.961 . S
H1327 C1311 0.960 . S
C1328 C1329 1.391 . S
C1328 C1330 1.394 . S
C1328 H1344 0.931 . S
C1329 C1328 1.391 . S
C1329 C1333 1.376 . S
C1330 C1328 1.394 . S
C1330 C1331 1.369 . S
C1330 C1334 1.531 . S
C1331 C1330 1.369 . S
C1331 C1332 1.410 . S
C1331 C1339 1.503 . S
C1332 C1331 1.410 . S
C1332 C1333 1.392 . S
C1332 C1335 1.511 . S
C1333 C1329 1.376 . S
C1333 C1332 1.392 . S
C1333 H1345 0.929 . S
C1334 C1330 1.531 . S
C1334 H1346 0.960 . S
C1334 H1347 0.962 . S
C1334 H1348 0.960 . S
C1335 C1332 1.511 . S
C1335 H1349 0.961 . S
C1335 H1350 0.961 . S
C1335 H1351 0.961 . S
C1336 C1337 1.370 . S
C1336 C1338 1.363 . S
C1336 H1352 0.931 . S
C1337 C1336 1.370 . S
C1337 C1341 1.408 . S
C1338 C1336 1.363 . S
C1338 C1339 1.370 . S
C1338 C1342 1.524 . S
C1339 C1331 1.503 . S
C1339 C1338 1.370 . S
C1339 C1340 1.403 . S
C1340 C1339 1.403 . S
C1340 C1341 1.404 . S
C1340 C1343 1.539 . S
C1341 C1337 1.408 . S
C1341 C1340 1.404 . S
C1341 H1353 0.930 . S
C1342 C1338 1.524 . S
C1342 H1354 0.956 . S
C1342 H1355 0.961 . S
C1342 H1356 0.961 . S
C1343 C1340 1.539 . S
C1343 H1357 0.958 . S
C1343 H1358 0.961 . S
C1343 H1359 0.960 . S
H1344 C1328 0.931 . S
H1345 C1333 0.929 . S
H1346 C1334 0.960 . S
H1347 C1334 0.962 . S
H1348 C1334 0.960 . S
H1349 C1335 0.961 . S
H1350 C1335 0.961 . S
H1351 C1335 0.961 . S
H1352 C1336 0.931 . S
H1353 C1341 0.930 . S
H1354 C1342 0.956 . S
H1355 C1342 0.961 . S
H1356 C1342 0.961 . S
H1357 C1343 0.958 . S
H1358 C1343 0.961 . S
H1359 C1343 0.960 . S
C1360 C1361 1.391 . S
C1360 C1362 1.394 . S
C1360 H1376 0.931 . S
C1361 C1360 1.391 . S
C1361 C1365 1.376 . S
C1362 C1360 1.394 . S
C1362 C1363 1.369 . S
C1362 C1366 1.531 . S
C1363 C1362 1.369 . S
C1363 C1364 1.410 . S
C1363 C1371 1.503 . S
C1364 C1363 1.410 . S
C1364 C1365 1.392 . S
C1364 C1367 1.511 . S
C1365 C1361 1.376 . S
C1365 C1364 1.392 . S
C1365 H1377 0.929 . S
C1366 C1362 1.531 . S
C1366 H1378 0.960 . S
C1366 H1379 0.962 . S
C1366 H1380 0.960 . S
C1367 C1364 1.511 . S
C1367 H1381 0.961 . S
C1367 H1382 0.961 . S
C1367 H1383 0.961 . S
C1368 C1369 1.370 . S
C1368 C1370 1.363 . S
C1368 H1384 0.931 . S
C1369 C1368 1.370 . S
C1369 C1373 1.408 . S
C1370 C1368 1.363 . S
C1370 C1371 1.370 . S
C1370 C1374 1.524 . S
C1371 C1363 1.503 . S
C1371 C1370 1.370 . S
C1371 C1372 1.403 . S
C1372 C1371 1.403 . S
C1372 C1373 1.404 . S
C1372 C1375 1.539 . S
C1373 C1369 1.408 . S
C1373 C1372 1.404 . S
C1373 H1385 0.930 . S
C1374 C1370 1.524 . S
C1374 H1386 0.956 . S
C1374 H1387 0.961 . S
C1374 H1388 0.961 . S
C1375 C1372 1.539 . S
C1375 H1389 0.958 . S
C1375 H1390 0.961 . S
C1375 H1391 0.960 . S
H1376 C1360 0.931 . S
H1377 C1365 0.929 . S
H1378 C1366 0.960 . S
H1379 C1366 0.962 . S
H1380 C1366 0.960 . S
H1381 C1367 0.961 . S
H1382 C1367 0.961 . S
H1383 C1367 0.961 . S
H1384 C1368 0.931 . S
H1385 C1373 0.930 . S
H1386 C1374 0.956 . S
H1387 C1374 0.961 . S
H1388 C1374 0.961 . S
H1389 C1375 0.958 . S
H1390 C1375 0.961 . S
H1391 C1375 0.960 . S
C1392 C1393 1.391 . S
C1392 C1394 1.394 . S
C1392 H1408 0.931 . S
C1393 C1392 1.391 . S
C1393 C1397 1.376 . S
C1394 C1392 1.394 . S
C1394 C1395 1.369 . S
C1394 C1398 1.531 . S
C1395 C1394 1.369 . S
C1395 C1396 1.410 . S
C1395 C1403 1.503 . S
C1396 C1395 1.410 . S
C1396 C1397 1.392 . S
C1396 C1399 1.511 . S
C1397 C1393 1.376 . S
C1397 C1396 1.392 . S
C1397 H1409 0.929 . S
C1398 C1394 1.531 . S
C1398 H1410 0.960 . S
C1398 H1411 0.962 . S
C1398 H1412 0.960 . S
C1399 C1396 1.511 . S
C1399 H1413 0.961 . S
C1399 H1414 0.961 . S
C1399 H1415 0.961 . S
C1400 C1401 1.370 . S
C1400 C1402 1.363 . S
C1400 H1416 0.931 . S
C1401 C1400 1.370 . S
C1401 C1405 1.408 . S
C1402 C1400 1.363 . S
C1402 C1403 1.370 . S
C1402 C1406 1.524 . S
C1403 C1395 1.503 . S
C1403 C1402 1.370 . S
C1403 C1404 1.403 . S
C1404 C1403 1.403 . S
C1404 C1405 1.404 . S
C1404 C1407 1.539 . S
C1405 C1401 1.408 . S
C1405 C1404 1.404 . S
C1405 H1417 0.930 . S
C1406 C1402 1.524 . S
C1406 H1418 0.956 . S
C1406 H1419 0.961 . S
C1406 H1420 0.961 . S
C1407 C1404 1.539 . S
C1407 H1421 0.958 . S
C1407 H1422 0.961 . S
C1407 H1423 0.960 . S
H1408 C1392 0.931 . S
H1409 C1397 0.929 . S
H1410 C1398 0.960 . S
H1411 C1398 0.962 . S
H1412 C1398 0.960 . S
H1413 C1399 0.961 . S
H1414 C1399 0.961 . S
H1415 C1399 0.961 . S
H1416 C1400 0.931 . S
H1417 C1405 0.930 . S
H1418 C1406 0.956 . S
H1419 C1406 0.961 . S
H1420 C1406 0.961 . S
H1421 C1407 0.958 . S
H1422 C1407 0.961 . S
H1423 C1407 0.960 . S
C1424 C1425 1.391 . S
C1424 C1426 1.394 . S
C1424 H1440 0.931 . S
C1425 C1424 1.391 . S
C1425 C1429 1.376 . S
C1426 C1424 1.394 . S
C1426 C1427 1.369 . S
C1426 C1430 1.531 . S
C1427 C1426 1.369 . S
C1427 C1428 1.410 . S
C1427 C1435 1.503 . S
C1428 C1427 1.410 . S
C1428 C1429 1.392 . S
C1428 C1431 1.511 . S
C1429 C1425 1.376 . S
C1429 C1428 1.392 . S
C1429 H1441 0.929 . S
C1430 C1426 1.531 . S
C1430 H1442 0.960 . S
C1430 H1443 0.962 . S
C1430 H1444 0.960 . S
C1431 C1428 1.511 . S
C1431 H1445 0.961 . S
C1431 H1446 0.961 . S
C1431 H1447 0.961 . S
C1432 C1433 1.370 . S
C1432 C1434 1.363 . S
C1432 H1448 0.931 . S
C1433 C1432 1.370 . S
C1433 C1437 1.408 . S
C1434 C1432 1.363 . S
C1434 C1435 1.370 . S
C1434 C1438 1.524 . S
C1435 C1427 1.503 . S
C1435 C1434 1.370 . S
C1435 C1436 1.403 . S
C1436 C1435 1.403 . S
C1436 C1437 1.404 . S
C1436 C1439 1.539 . S
C1437 C1433 1.408 . S
C1437 C1436 1.404 . S
C1437 H1449 0.930 . S
C1438 C1434 1.524 . S
C1438 H1450 0.956 . S
C1438 H1451 0.961 . S
C1438 H1452 0.961 . S
C1439 C1436 1.539 . S
C1439 H1453 0.958 . S
C1439 H1454 0.961 . S
C1439 H1455 0.960 . S
H1440 C1424 0.931 . S
H1441 C1429 0.929 . S
H1442 C1430 0.960 . S
H1443 C1430 0.962 . S
H1444 C1430 0.960 . S
H1445 C1431 0.961 . S
H1446 C1431 0.961 . S
H1447 C1431 0.961 . S
H1448 C1432 0.931 . S
H1449 C1437 0.930 . S
H1450 C1438 0.956 . S
H1451 C1438 0.961 . S
H1452 C1438 0.961 . S
H1453 C1439 0.958 . S
H1454 C1439 0.961 . S
H1455 C1439 0.960 . S
C1456 C1457 1.391 . S
C1456 C1458 1.394 . S
C1456 H1472 0.931 . S
C1457 C1456 1.391 . S
C1457 C1461 1.376 . S
C1458 C1456 1.394 . S
C1458 C1459 1.369 . S
C1458 C1462 1.531 . S
C1459 C1458 1.369 . S
C1459 C1460 1.410 . S
C1459 C1467 1.503 . S
C1460 C1459 1.410 . S
C1460 C1461 1.392 . S
C1460 C1463 1.511 . S
C1461 C1457 1.376 . S
C1461 C1460 1.392 . S
C1461 H1473 0.929 . S
C1462 C1458 1.531 . S
C1462 H1474 0.960 . S
C1462 H1475 0.962 . S
C1462 H1476 0.960 . S
C1463 C1460 1.511 . S
C1463 H1477 0.961 . S
C1463 H1478 0.961 . S
C1463 H1479 0.961 . S
C1464 C1465 1.370 . S
C1464 C1466 1.363 . S
C1464 H1480 0.931 . S
C1465 C1464 1.370 . S
C1465 C1469 1.408 . S
C1466 C1464 1.363 . S
C1466 C1467 1.370 . S
C1466 C1470 1.524 . S
C1467 C1459 1.503 . S
C1467 C1466 1.370 . S
C1467 C1468 1.403 . S
C1468 C1467 1.403 . S
C1468 C1469 1.404 . S
C1468 C1471 1.539 . S
C1469 C1465 1.408 . S
C1469 C1468 1.404 . S
C1469 H1481 0.930 . S
C1470 C1466 1.524 . S
C1470 H1482 0.956 . S
C1470 H1483 0.961 . S
C1470 H1484 0.961 . S
C1471 C1468 1.539 . S
C1471 H1485 0.958 . S
C1471 H1486 0.961 . S
C1471 H1487 0.960 . S
H1472 C1456 0.931 . S
H1473 C1461 0.929 . S
H1474 C1462 0.960 . S
H1475 C1462 0.962 . S
H1476 C1462 0.960 . S
H1477 C1463 0.961 . S
H1478 C1463 0.961 . S
H1479 C1463 0.961 . S
H1480 C1464 0.931 . S
H1481 C1469 0.930 . S
H1482 C1470 0.956 . S
H1483 C1470 0.961 . S
H1484 C1470 0.961 . S
H1485 C1471 0.958 . S
H1486 C1471 0.961 . S
H1487 C1471 0.960 . S
C1488 C1489 1.391 . S
C1488 C1490 1.394 . S
C1488 H1504 0.931 . S
C1489 C1488 1.391 . S
C1489 C1493 1.376 . S
C1490 C1488 1.394 . S
C1490 C1491 1.369 . S
C1490 C1494 1.531 . S
C1491 C1490 1.369 . S
C1491 C1492 1.410 . S
C1491 C1499 1.503 . S
C1492 C1491 1.410 . S
C1492 C1493 1.392 . S
C1492 C1495 1.511 . S
C1493 C1489 1.376 . S
C1493 C1492 1.392 . S
C1493 H1505 0.929 . S
C1494 C1490 1.531 . S
C1494 H1506 0.960 . S
C1494 H1507 0.962 . S
C1494 H1508 0.960 . S
C1495 C1492 1.511 . S
C1495 H1509 0.961 . S
C1495 H1510 0.961 . S
C1495 H1511 0.961 . S
C1496 C1497 1.370 . S
C1496 C1498 1.363 . S
C1496 H1512 0.931 . S
C1497 C1496 1.370 . S
C1497 C1501 1.408 . S
C1498 C1496 1.363 . S
C1498 C1499 1.370 . S
C1498 C1502 1.524 . S
C1499 C1491 1.503 . S
C1499 C1498 1.370 . S
C1499 C1500 1.403 . S
C1500 C1499 1.403 . S
C1500 C1501 1.404 . S
C1500 C1503 1.539 . S
C1501 C1497 1.408 . S
C1501 C1500 1.404 . S
C1501 H1513 0.930 . S
C1502 C1498 1.524 . S
C1502 H1514 0.956 . S
C1502 H1515 0.961 . S
C1502 H1516 0.961 . S
C1503 C1500 1.539 . S
C1503 H1517 0.958 . S
C1503 H1518 0.961 . S
C1503 H1519 0.960 . S
H1504 C1488 0.931 . S
H1505 C1493 0.929 . S
H1506 C1494 0.960 . S
H1507 C1494 0.962 . S
H1508 C1494 0.960 . S
H1509 C1495 0.961 . S
H1510 C1495 0.961 . S
H1511 C1495 0.961 . S
H1512 C1496 0.931 . S
H1513 C1501 0.930 . S
H1514 C1502 0.956 . S
H1515 C1502 0.961 . S
H1516 C1502 0.961 . S
H1517 C1503 0.958 . S
H1518 C1503 0.961 . S
H1519 C1503 0.960 . S
C1520 C1521 1.391 . S
C1520 C1522 1.394 . S
C1520 H1536 0.931 . S
C1521 C1520 1.391 . S
C1521 C1525 1.376 . S
C1522 C1520 1.394 . S
C1522 C1523 1.369 . S
C1522 C1526 1.531 . S
C1523 C1522 1.369 . S
C1523 C1524 1.410 . S
C1523 C1531 1.503 . S
C1524 C1523 1.410 . S
C1524 C1525 1.392 . S
C1524 C1527 1.511 . S
C1525 C1521 1.376 . S
C1525 C1524 1.392 . S
C1525 H1537 0.929 . S
C1526 C1522 1.531 . S
C1526 H1538 0.960 . S
C1526 H1539 0.962 . S
C1526 H1540 0.960 . S
C1527 C1524 1.511 . S
C1527 H1541 0.961 . S
C1527 H1542 0.961 . S
C1527 H1543 0.961 . S
C1528 C1529 1.370 . S
C1528 C1530 1.363 . S
C1528 H1544 0.931 . S
C1529 C1528 1.370 . S
C1529 C1533 1.408 . S
C1530 C1528 1.363 . S
C1530 C1531 1.370 . S
C1530 C1534 1.524 . S
C1531 C1523 1.503 . S
C1531 C1530 1.370 . S
C1531 C1532 1.403 . S
C1532 C1531 1.403 . S
C1532 C1533 1.404 . S
C1532 C1535 1.539 . S
C1533 C1529 1.408 . S
C1533 C1532 1.404 . S
C1533 H1545 0.930 . S
C1534 C1530 1.524 . S
C1534 H1546 0.956 . S
C1534 H1547 0.961 . S
C1534 H1548 0.961 . S
C1535 C1532 1.539 . S
C1535 H1549 0.958 . S
C1535 H1550 0.961 . S
C1535 H1551 0.960 . S
H1536 C1520 0.931 . S
H1537 C1525 0.929 . S
H1538 C1526 0.960 . S
H1539 C1526 0.962 . S
H1540 C1526 0.960 . S
H1541 C1527 0.961 . S
H1542 C1527 0.961 . S
H1543 C1527 0.961 . S
H1544 C1528 0.931 . S
H1545 C1533 0.930 . S
H1546 C1534 0.956 . S
H1547 C1534 0.961 . S
H1548 C1534 0.961 . S
H1549 C1535 0.958 . S
H1550 C1535 0.961 . S
H1551 C1535 0.960 . S
C1552 C1553 1.391 . S
C1552 C1554 1.394 . S
C1552 H1568 0.931 . S
C1553 C1552 1.391 . S
C1553 C1557 1.376 . S
C1554 C1552 1.394 . S
C1554 C1555 1.369 . S
C1554 C1558 1.531 . S
C1555 C1554 1.369 . S
C1555 C1556 1.410 . S
C1555 C1563 1.503 . S
C1556 C1555 1.410 . S
C1556 C1557 1.392 . S
C1556 C1559 1.511 . S
C1557 C1553 1.376 . S
C1557 C1556 1.392 . S
C1557 H1569 0.929 . S
C1558 C1554 1.531 . S
C1558 H1570 0.960 . S
C1558 H1571 0.962 . S
C1558 H1572 0.960 . S
C1559 C1556 1.511 . S
C1559 H1573 0.961 . S
C1559 H1574 0.961 . S
C1559 H1575 0.961 . S
C1560 C1561 1.370 . S
C1560 C1562 1.363 . S
C1560 H1576 0.931 . S
C1561 C1560 1.370 . S
C1561 C1565 1.408 . S
C1562 C1560 1.363 . S
C1562 C1563 1.370 . S
C1562 C1566 1.524 . S
C1563 C1555 1.503 . S
C1563 C1562 1.370 . S
C1563 C1564 1.403 . S
C1564 C1563 1.403 . S
C1564 C1565 1.404 . S
C1564 C1567 1.539 . S
C1565 C1561 1.408 . S
C1565 C1564 1.404 . S
C1565 H1577 0.930 . S
C1566 C1562 1.524 . S
C1566 H1578 0.956 . S
C1566 H1579 0.961 . S
C1566 H1580 0.961 . S
C1567 C1564 1.539 . S
C1567 H1581 0.958 . S
C1567 H1582 0.961 . S
C1567 H1583 0.960 . S
H1568 C1552 0.931 . S
H1569 C1557 0.929 . S
H1570 C1558 0.960 . S
H1571 C1558 0.962 . S
H1572 C1558 0.960 . S
H1573 C1559 0.961 . S
H1574 C1559 0.961 . S
H1575 C1559 0.961 . S
H1576 C1560 0.931 . S
H1577 C1565 0.930 . S
H1578 C1566 0.956 . S
H1579 C1566 0.961 . S
H1580 C1566 0.961 . S
H1581 C1567 0.958 . S
H1582 C1567 0.961 . S
H1583 C1567 0.960 . S
C1584 C1585 1.391 . S
C1584 C1586 1.394 . S
C1584 H1600 0.931 . S
C1585 C1584 1.391 . S
C1585 C1589 1.376 . S
C1586 C1584 1.394 . S
C1586 C1587 1.369 . S
C1586 C1590 1.531 . S
C1587 C1586 1.369 . S
C1587 C1588 1.410 . S
C1587 C1595 1.503 . S
C1588 C1587 1.410 . S
C1588 C1589 1.392 . S
C1588 C1591 1.511 . S
C1589 C1585 1.376 . S
C1589 C1588 1.392 . S
C1589 H1601 0.929 . S
C1590 C1586 1.531 . S
C1590 H1602 0.960 . S
C1590 H1603 0.962 . S
C1590 H1604 0.960 . S
C1591 C1588 1.511 . S
C1591 H1605 0.961 . S
C1591 H1606 0.961 . S
C1591 H1607 0.961 . S
C1592 C1593 1.370 . S
C1592 C1594 1.363 . S
C1592 H1608 0.931 . S
C1593 C1592 1.370 . S
C1593 C1597 1.408 . S
C1594 C1592 1.363 . S
C1594 C1595 1.370 . S
C1594 C1598 1.524 . S
C1595 C1587 1.503 . S
C1595 C1594 1.370 . S
C1595 C1596 1.403 . S
C1596 C1595 1.403 . S
C1596 C1597 1.404 . S
C1596 C1599 1.539 . S
C1597 C1593 1.408 . S
C1597 C1596 1.404 . S
C1597 H1609 0.930 . S
C1598 C1594 1.524 . S
C1598 H1610 0.956 . S
C1598 H1611 0.961 . S
C1598 H1612 0.961 . S
C1599 C1596 1.539 . S
C1599 H1613 0.958 . S
C1599 H1614 0.961 . S
C1599 H1615 0.960 . S
H1600 C1584 0.931 . S
H1601 C1589 0.929 . S
H1602 C1590 0.960 . S
H1603 C1590 0.962 . S
H1604 C1590 0.960 . S
H1605 C1591 0.961 . S
H1606 C1591 0.961 . S
H1607 C1591 0.961 . S
H1608 C1592 0.931 . S
H1609 C1597 0.930 . S
H1610 C1598 0.956 . S
H1611 C1598 0.961 . S
H1612 C1598 0.961 . S
H1613 C1599 0.958 . S
H1614 C1599 0.961 . S
H1615 C1599 0.960 . S
C1616 C1617 1.391 . S
C1616 C1618 1.394 . S
C1616 H1632 0.931 . S
C1617 C1616 1.391 . S
C1617 C1621 1.376 . S
C1618 C1616 1.394 . S
C1618 C1619 1.369 . S
C1618 C1622 1.531 . S
C1619 C1618 1.369 . S
C1619 C1620 1.410 . S
C1619 C1627 1.503 . S
C1620 C1619 1.410 . S
C1620 C1621 1.392 . S
C1620 C1623 1.511 . S
C1621 C1617 1.376 . S
C1621 C1620 1.392 . S
C1621 H1633 0.929 . S
C1622 C1618 1.531 . S
C1622 H1634 0.960 . S
C1622 H1635 0.962 . S
C1622 H1636 0.960 . S
C1623 C1620 1.511 . S
C1623 H1637 0.961 . S
C1623 H1638 0.961 . S
C1623 H1639 0.961 . S
C1624 C1625 1.370 . S
C1624 C1626 1.363 . S
C1624 H1640 0.931 . S
C1625 C1624 1.370 . S
C1625 C1629 1.408 . S
C1626 C1624 1.363 . S
C1626 C1627 1.370 . S
C1626 C1630 1.524 . S
C1627 C1619 1.503 . S
C1627 C1626 1.370 . S
C1627 C1628 1.403 . S
C1628 C1627 1.403 . S
C1628 C1629 1.404 . S
C1628 C1631 1.539 . S
C1629 C1625 1.408 . S
C1629 C1628 1.404 . S
C1629 H1641 0.930 . S
C1630 C1626 1.524 . S
C1630 H1642 0.956 . S
C1630 H1643 0.961 . S
C1630 H1644 0.961 . S
C1631 C1628 1.539 . S
C1631 H1645 0.958 . S
C1631 H1646 0.961 . S
C1631 H1647 0.960 . S
H1632 C1616 0.931 . S
H1633 C1621 0.929 . S
H1634 C1622 0.960 . S
H1635 C1622 0.962 . S
H1636 C1622 0.960 . S
H1637 C1623 0.961 . S
H1638 C1623 0.961 . S
H1639 C1623 0.961 . S
H1640 C1624 0.931 . S
H1641 C1629 0.930 . S
H1642 C1630 0.956 . S
H1643 C1630 0.961 . S
H1644 C1630 0.961 . S
H1645 C1631 0.958 . S
H1646 C1631 0.961 . S
H1647 C1631 0.960 . S
C1648 C1649 1.391 . S
C1648 C1650 1.394 . S
C1648 H1664 0.931 . S
C1649 C1648 1.391 . S
C1649 C1653 1.376 . S
C1650 C1648 1.394 . S
C1650 C1651 1.369 . S
C1650 C1654 1.531 . S
C1651 C1650 1.369 . S
C1651 C1652 1.410 . S
C1651 C1659 1.503 . S
C1652 C1651 1.410 . S
C1652 C1653 1.392 . S
C1652 C1655 1.511 . S
C1653 C1649 1.376 . S
C1653 C1652 1.392 . S
C1653 H1665 0.929 . S
C1654 C1650 1.531 . S
C1654 H1666 0.960 . S
C1654 H1667 0.962 . S
C1654 H1668 0.960 . S
C1655 C1652 1.511 . S
C1655 H1669 0.961 . S
C1655 H1670 0.961 . S
C1655 H1671 0.961 . S
C1656 C1657 1.370 . S
C1656 C1658 1.363 . S
C1656 H1672 0.931 . S
C1657 C1656 1.370 . S
C1657 C1661 1.408 . S
C1658 C1656 1.363 . S
C1658 C1659 1.370 . S
C1658 C1662 1.524 . S
C1659 C1651 1.503 . S
C1659 C1658 1.370 . S
C1659 C1660 1.403 . S
C1660 C1659 1.403 . S
C1660 C1661 1.404 . S
C1660 C1663 1.539 . S
C1661 C1657 1.408 . S
C1661 C1660 1.404 . S
C1661 H1673 0.930 . S
C1662 C1658 1.524 . S
C1662 H1674 0.956 . S
C1662 H1675 0.961 . S
C1662 H1676 0.961 . S
C1663 C1660 1.539 . S
C1663 H1677 0.958 . S
C1663 H1678 0.961 . S
C1663 H1679 0.960 . S
H1664 C1648 0.931 . S
H1665 C1653 0.929 . S
H1666 C1654 0.960 . S
H1667 C1654 0.962 . S
H1668 C1654 0.960 . S
H1669 C1655 0.961 . S
H1670 C1655 0.961 . S
H1671 C1655 0.961 . S
H1672 C1656 0.931 . S
H1673 C1661 0.930 . S
H1674 C1662 0.956 . S
H1675 C1662 0.961 . S
H1676 C1662 0.961 . S
H1677 C1663 0.958 . S
H1678 C1663 0.961 . S
H1679 C1663 0.960 . S
C1680 C1681 1.391 . S
C1680 C1682 1.394 . S
C1680 H1696 0.931 . S
C1681 C1680 1.391 . S
C1681 C1685 1.376 . S
C1682 C1680 1.394 . S
C1682 C1683 1.369 . S
C1682 C1686 1.531 . S
C1683 C1682 1.369 . S
C1683 C1684 1.410 . S
C1683 C1691 1.503 . S
C1684 C1683 1.410 . S
C1684 C1685 1.392 . S
C1684 C1687 1.511 . S
C1685 C1681 1.376 . S
C1685 C1684 1.392 . S
C1685 H1697 0.929 . S
C1686 C1682 1.531 . S
C1686 H1698 0.960 . S
C1686 H1699 0.962 . S
C1686 H1700 0.960 . S
C1687 C1684 1.511 . S
C1687 H1701 0.961 . S
C1687 H1702 0.961 . S
C1687 H1703 0.961 . S
C1688 C1689 1.370 . S
C1688 C1690 1.363 . S
C1688 H1704 0.931 . S
C1689 C1688 1.370 . S
C1689 C1693 1.408 . S
C1690 C1688 1.363 . S
C1690 C1691 1.370 . S
C1690 C1694 1.524 . S
C1691 C1683 1.503 . S
C1691 C1690 1.370 . S
C1691 C1692 1.403 . S
C1692 C1691 1.403 . S
C1692 C1693 1.404 . S
C1692 C1695 1.539 . S
C1693 C1689 1.408 . S
C1693 C1692 1.404 . S
C1693 H1705 0.930 . S
C1694 C1690 1.524 . S
C1694 H1706 0.956 . S
C1694 H1707 0.961 . S
C1694 H1708 0.961 . S
C1695 C1692 1.539 . S
C1695 H1709 0.958 . S
C1695 H1710 0.961 . S
C1695 H1711 0.960 . S
H1696 C1680 0.931 . S
H1697 C1685 0.929 . S
H1698 C1686 0.960 . S
H1699 C1686 0.962 . S
H1700 C1686 0.960 . S
H1701 C1687 0.961 . S
H1702 C1687 0.961 . S
H1703 C1687 0.961 . S
H1704 C1688 0.931 . S
H1705 C1693 0.930 . S
H1706 C1694 0.956 . S
H1707 C1694 0.961 . S
H1708 C1694 0.961 . S
H1709 C1695 0.958 . S
H1710 C1695 0.961 . S
H1711 C1695 0.960 . S
C1712 C1713 1.391 . S
C1712 C1714 1.394 . S
C1712 H1728 0.931 . S
C1713 C1712 1.391 . S
C1713 C1717 1.376 . S
C1714 C1712 1.394 . S
C1714 C1715 1.369 . S
C1714 C1718 1.531 . S
C1715 C1714 1.369 . S
C1715 C1716 1.410 . S
C1715 C1723 1.503 . S
C1716 C1715 1.410 . S
C1716 C1717 1.392 . S
C1716 C1719 1.511 . S
C1717 C1713 1.376 . S
C1717 C1716 1.392 . S
C1717 H1729 0.929 . S
C1718 C1714 1.531 . S
C1718 H1730 0.960 . S
C1718 H1731 0.962 . S
C1718 H1732 0.960 . S
C1719 C1716 1.511 . S
C1719 H1733 0.961 . S
C1719 H1734 0.961 . S
C1719 H1735 0.961 . S
C1720 C1721 1.370 . S
C1720 C1722 1.363 . S
C1720 H1736 0.931 . S
C1721 C1720 1.370 . S
C1721 C1725 1.408 . S
C1722 C1720 1.363 . S
C1722 C1723 1.370 . S
C1722 C1726 1.524 . S
C1723 C1715 1.503 . S
C1723 C1722 1.370 . S
C1723 C1724 1.403 . S
C1724 C1723 1.403 . S
C1724 C1725 1.404 . S
C1724 C1727 1.539 . S
C1725 C1721 1.408 . S
C1725 C1724 1.404 . S
C1725 H1737 0.930 . S
C1726 C1722 1.524 . S
C1726 H1738 0.956 . S
C1726 H1739 0.961 . S
C1726 H1740 0.961 . S
C1727 C1724 1.539 . S
C1727 H1741 0.958 . S
C1727 H1742 0.961 . S
C1727 H1743 0.960 . S
H1728 C1712 0.931 . S
H1729 C1717 0.929 . S
H1730 C1718 0.960 . S
H1731 C1718 0.962 . S
H1732 C1718 0.960 . S
H1733 C1719 0.961 . S
H1734 C1719 0.961 . S
H1735 C1719 0.961 . S
H1736 C1720 0.931 . S
H1737 C1725 0.930 . S
H1738 C1726 0.956 . S
H1739 C1726 0.961 . S
H1740 C1726 0.961 . S
H1741 C1727 0.958 . S
H1742 C1727 0.961 . S
H1743 C1727 0.960 . S
C1744 C1745 1.391 . S
C1744 C1746 1.394 . S
C1744 H1760 0.931 . S
C1745 C1744 1.391 . S
C1745 C1749 1.376 . S
C1746 C1744 1.394 . S
C1746 C1747 1.369 . S
C1746 C1750 1.531 . S
C1747 C1746 1.369 . S
C1747 C1748 1.410 . S
C1747 C1755 1.503 . S
C1748 C1747 1.410 . S
C1748 C1749 1.392 . S
C1748 C1751 1.511 . S
C1749 C1745 1.376 . S
C1749 C1748 1.392 . S
C1749 H1761 0.929 . S
C1750 C1746 1.531 . S
C1750 H1762 0.960 . S
C1750 H1763 0.962 . S
C1750 H1764 0.960 . S
C1751 C1748 1.511 . S
C1751 H1765 0.961 . S
C1751 H1766 0.961 . S
C1751 H1767 0.961 . S
C1752 C1753 1.370 . S
C1752 C1754 1.363 . S
C1752 H1768 0.931 . S
C1753 C1752 1.370 . S
C1753 C1757 1.408 . S
C1754 C1752 1.363 . S
C1754 C1755 1.370 . S
C1754 C1758 1.524 . S
C1755 C1747 1.503 . S
C1755 C1754 1.370 . S
C1755 C1756 1.403 . S
C1756 C1755 1.403 . S
C1756 C1757 1.404 . S
C1756 C1759 1.539 . S
C1757 C1753 1.408 . S
C1757 C1756 1.404 . S
C1757 H1769 0.930 . S
C1758 C1754 1.524 . S
C1758 H1770 0.956 . S
C1758 H1771 0.961 . S
C1758 H1772 0.961 . S
C1759 C1756 1.539 . S
C1759 H1773 0.958 . S
C1759 H1774 0.961 . S
C1759 H1775 0.960 . S
H1760 C1744 0.931 . S
H1761 C1749 0.929 . S
H1762 C1750 0.960 . S
H1763 C1750 0.962 . S
H1764 C1750 0.960 . S
H1765 C1751 0.961 . S
H1766 C1751 0.961 . S
H1767 C1751 0.961 . S
H1768 C1752 0.931 . S
H1769 C1757 0.930 . S
H1770 C1758 0.956 . S
H1771 C1758 0.961 . S
H1772 C1758 0.961 . S
H1773 C1759 0.958 . S
H1774 C1759 0.961 . S
H1775 C1759 0.960 . S
C1776 C1777 1.391 . S
C1776 C1778 1.394 . S
C1776 H1792 0.931 . S
C1777 C1776 1.391 . S
C1777 C1781 1.376 . S
C1778 C1776 1.394 . S
C1778 C1779 1.369 . S
C1778 C1782 1.531 . S
C1779 C1778 1.369 . S
C1779 C1780 1.410 . S
C1779 C1787 1.503 . S
C1780 C1779 1.410 . S
C1780 C1781 1.392 . S
C1780 C1783 1.511 . S
C1781 C1777 1.376 . S
C1781 C1780 1.392 . S
C1781 H1793 0.929 . S
C1782 C1778 1.531 . S
C1782 H1794 0.960 . S
C1782 H1795 0.962 . S
C1782 H1796 0.960 . S
C1783 C1780 1.511 . S
C1783 H1797 0.961 . S
C1783 H1798 0.961 . S
C1783 H1799 0.961 . S
C1784 C1785 1.370 . S
C1784 C1786 1.363 . S
C1784 H1800 0.931 . S
C1785 C1784 1.370 . S
C1785 C1789 1.408 . S
C1786 C1784 1.363 . S
C1786 C1787 1.370 . S
C1786 C1790 1.524 . S
C1787 C1779 1.503 . S
C1787 C1786 1.370 . S
C1787 C1788 1.403 . S
C1788 C1787 1.403 . S
C1788 C1789 1.404 . S
C1788 C1791 1.539 . S
C1789 C1785 1.408 . S
C1789 C1788 1.404 . S
C1789 H1801 0.930 . S
C1790 C1786 1.524 . S
C1790 H1802 0.956 . S
C1790 H1803 0.961 . S
C1790 H1804 0.961 . S
C1791 C1788 1.539 . S
C1791 H1805 0.958 . S
C1791 H1806 0.961 . S
C1791 H1807 0.960 . S
H1792 C1776 0.931 . S
H1793 C1781 0.929 . S
H1794 C1782 0.960 . S
H1795 C1782 0.962 . S
H1796 C1782 0.960 . S
H1797 C1783 0.961 . S
H1798 C1783 0.961 . S
H1799 C1783 0.961 . S
H1800 C1784 0.931 . S
H1801 C1789 0.930 . S
H1802 C1790 0.956 . S
H1803 C1790 0.961 . S
H1804 C1790 0.961 . S
H1805 C1791 0.958 . S
H1806 C1791 0.961 . S
H1807 C1791 0.960 . S
C1808 C1809 1.391 . S
C1808 C1810 1.394 . S
C1808 H1824 0.931 . S
C1809 C1808 1.391 . S
C1809 C1813 1.376 . S
C1810 C1808 1.394 . S
C1810 C1811 1.369 . S
C1810 C1814 1.531 . S
C1811 C1810 1.369 . S
C1811 C1812 1.410 . S
C1811 C1819 1.503 . S
C1812 C1811 1.410 . S
C1812 C1813 1.392 . S
C1812 C1815 1.511 . S
C1813 C1809 1.376 . S
C1813 C1812 1.392 . S
C1813 H1825 0.929 . S
C1814 C1810 1.531 . S
C1814 H1826 0.960 . S
C1814 H1827 0.962 . S
C1814 H1828 0.960 . S
C1815 C1812 1.511 . S
C1815 H1829 0.961 . S
C1815 H1830 0.961 . S
C1815 H1831 0.961 . S
C1816 C1817 1.370 . S
C1816 C1818 1.363 . S
C1816 H1832 0.931 . S
C1817 C1816 1.370 . S
C1817 C1821 1.408 . S
C1818 C1816 1.363 . S
C1818 C1819 1.370 . S
C1818 C1822 1.524 . S
C1819 C1811 1.503 . S
C1819 C1818 1.370 . S
C1819 C1820 1.403 . S
C1820 C1819 1.403 . S
C1820 C1821 1.404 . S
C1820 C1823 1.539 . S
C1821 C1817 1.408 . S
C1821 C1820 1.404 . S
C1821 H1833 0.930 . S
C1822 C1818 1.524 . S
C1822 H1834 0.956 . S
C1822 H1835 0.961 . S
C1822 H1836 0.961 . S
C1823 C1820 1.539 . S
C1823 H1837 0.958 . S
C1823 H1838 0.961 . S
C1823 H1839 0.960 . S
H1824 C1808 0.931 . S
H1825 C1813 0.929 . S
H1826 C1814 0.960 . S
H1827 C1814 0.962 . S
H1828 C1814 0.960 . S
H1829 C1815 0.961 . S
H1830 C1815 0.961 . S
H1831 C1815 0.961 . S
H1832 C1816 0.931 . S
H1833 C1821 0.930 . S
H1834 C1822 0.956 . S
H1835 C1822 0.961 . S
H1836 C1822 0.961 . S
H1837 C1823 0.958 . S
H1838 C1823 0.961 . S
H1839 C1823 0.960 . S
C1840 C1841 1.391 . S
C1840 C1842 1.394 . S
C1840 H1856 0.931 . S
C1841 C1840 1.391 . S
C1841 C1845 1.376 . S
C1842 C1840 1.394 . S
C1842 C1843 1.369 . S
C1842 C1846 1.531 . S
C1843 C1842 1.369 . S
C1843 C1844 1.410 . S
C1843 C1851 1.503 . S
C1844 C1843 1.410 . S
C1844 C1845 1.392 . S
C1844 C1847 1.511 . S
C1845 C1841 1.376 . S
C1845 C1844 1.392 . S
C1845 H1857 0.929 . S
C1846 C1842 1.531 . S
C1846 H1858 0.960 . S
C1846 H1859 0.962 . S
C1846 H1860 0.960 . S
C1847 C1844 1.511 . S
C1847 H1861 0.961 . S
C1847 H1862 0.961 . S
C1847 H1863 0.961 . S
C1848 C1849 1.370 . S
C1848 C1850 1.363 . S
C1848 H1864 0.931 . S
C1849 C1848 1.370 . S
C1849 C1853 1.408 . S
C1850 C1848 1.363 . S
C1850 C1851 1.370 . S
C1850 C1854 1.524 . S
C1851 C1843 1.503 . S
C1851 C1850 1.370 . S
C1851 C1852 1.403 . S
C1852 C1851 1.403 . S
C1852 C1853 1.404 . S
C1852 C1855 1.539 . S
C1853 C1849 1.408 . S
C1853 C1852 1.404 . S
C1853 H1865 0.930 . S
C1854 C1850 1.524 . S
C1854 H1866 0.956 . S
C1854 H1867 0.961 . S
C1854 H1868 0.961 . S
C1855 C1852 1.539 . S
C1855 H1869 0.958 . S
C1855 H1870 0.961 . S
C1855 H1871 0.960 . S
H1856 C1840 0.931 . S
H1857 C1845 0.929 . S
H1858 C1846 0.960 . S
H1859 C1846 0.962 . S
H1860 C1846 0.960 . S
H1861 C1847 0.961 . S
H1862 C1847 0.961 . S
H1863 C1847 0.961 . S
H1864 C1848 0.931 . S
H1865 C1853 0.930 . S
H1866 C1854 0.956 . S
H1867 C1854 0.961 . S
H1868 C1854 0.961 . S
H1869 C1855 0.958 . S
H1870 C1855 0.961 . S
H1871 C1855 0.960 . S
C1872 C1873 1.391 . S
C1872 C1874 1.394 . S
C1872 H1888 0.931 . S
C1873 C1872 1.391 . S
C1873 C1877 1.376 . S
C1874 C1872 1.394 . S
C1874 C1875 1.369 . S
C1874 C1878 1.531 . S
C1875 C1874 1.369 . S
C1875 C1876 1.410 . S
C1875 C1883 1.503 . S
C1876 C1875 1.410 . S
C1876 C1877 1.392 . S
C1876 C1879 1.511 . S
C1877 C1873 1.376 . S
C1877 C1876 1.392 . S
C1877 H1889 0.929 . S
C1878 C1874 1.531 . S
C1878 H1890 0.960 . S
C1878 H1891 0.962 . S
C1878 H1892 0.960 . S
C1879 C1876 1.511 . S
C1879 H1893 0.961 . S
C1879 H1894 0.961 . S
C1879 H1895 0.961 . S
C1880 C1881 1.370 . S
C1880 C1882 1.363 . S
C1880 H1896 0.931 . S
C1881 C1880 1.370 . S
C1881 C1885 1.408 . S
C1882 C1880 1.363 . S
C1882 C1883 1.370 . S
C1882 C1886 1.524 . S
C1883 C1875 1.503 . S
C1883 C1882 1.370 . S
C1883 C1884 1.403 . S
C1884 C1883 1.403 . S
C1884 C1885 1.404 . S
C1884 C1887 1.539 . S
C1885 C1881 1.408 . S
C1885 C1884 1.404 . S
C1885 H1897 0.930 . S
C1886 C1882 1.524 . S
C1886 H1898 0.956 . S
C1886 H1899 0.961 . S
C1886 H1900 0.961 . S
C1887 C1884 1.539 . S
C1887 H1901 0.958 . S
C1887 H1902 0.961 . S
C1887 H1903 0.960 . S
H1888 C1872 0.931 . S
H1889 C1877 0.929 . S
H1890 C1878 0.960 . S
H1891 C1878 0.962 . S
H1892 C1878 0.960 . S
H1893 C1879 0.961 . S
H1894 C1879 0.961 . S
H1895 C1879 0.961 . S
H1896 C1880 0.931 . S
H1897 C1885 0.930 . S
H1898 C1886 0.956 . S
H1899 C1886 0.961 . S
H1900 C1886 0.961 . S
H1901 C1887 0.958 . S
H1902 C1887 0.961 . S
H1903 C1887 0.960 . S
C1904 C1905 1.391 . S
C1904 C1906 1.394 . S
C1904 H1920 0.931 . S
C1905 C1904 1.391 . S
C1905 C1909 1.376 . S
C1906 C1904 1.394 . S
C1906 C1907 1.369 . S
C1906 C1910 1.531 . S
C1907 C1906 1.369 . S
C1907 C1908 1.410 . S
C1907 C1915 1.503 . S
C1908 C1907 1.410 . S
C1908 C1909 1.392 . S
C1908 C1911 1.511 . S
C1909 C1905 1.376 . S
C1909 C1908 1.392 . S
C1909 H1921 0.929 . S
C1910 C1906 1.531 . S
C1910 H1922 0.960 . S
C1910 H1923 0.962 . S
C1910 H1924 0.960 . S
C1911 C1908 1.511 . S
C1911 H1925 0.961 . S
C1911 H1926 0.961 . S
C1911 H1927 0.961 . S
C1912 C1913 1.370 . S
C1912 C1914 1.363 . S
C1912 H1928 0.931 . S
C1913 C1912 1.370 . S
C1913 C1917 1.408 . S
C1914 C1912 1.363 . S
C1914 C1915 1.370 . S
C1914 C1918 1.524 . S
C1915 C1907 1.503 . S
C1915 C1914 1.370 . S
C1915 C1916 1.403 . S
C1916 C1915 1.403 . S
C1916 C1917 1.404 . S
C1916 C1919 1.539 . S
C1917 C1913 1.408 . S
C1917 C1916 1.404 . S
C1917 H1929 0.930 . S
C1918 C1914 1.524 . S
C1918 H1930 0.956 . S
C1918 H1931 0.961 . S
C1918 H1932 0.961 . S
C1919 C1916 1.539 . S
C1919 H1933 0.958 . S
C1919 H1934 0.961 . S
C1919 H1935 0.960 . S
H1920 C1904 0.931 . S
H1921 C1909 0.929 . S
H1922 C1910 0.960 . S
H1923 C1910 0.962 . S
H1924 C1910 0.960 . S
H1925 C1911 0.961 . S
H1926 C1911 0.961 . S
H1927 C1911 0.961 . S
H1928 C1912 0.931 . S
H1929 C1917 0.930 . S
H1930 C1918 0.956 . S
H1931 C1918 0.961 . S
H1932 C1918 0.961 . S
H1933 C1919 0.958 . S
H1934 C1919 0.961 . S
H1935 C1919 0.960 . S
C1936 C1937 1.391 . S
C1936 C1938 1.394 . S
C1936 H1952 0.931 . S
C1937 C1936 1.391 . S
C1937 C1941 1.376 . S
C1938 C1936 1.394 . S
C1938 C1939 1.369 . S
C1938 C1942 1.531 . S
C1939 C1938 1.369 . S
C1939 C1940 1.410 . S
C1939 C1947 1.503 . S
C1940 C1939 1.410 . S
C1940 C1941 1.392 . S
C1940 C1943 1.511 . S
C1941 C1937 1.376 . S
C1941 C1940 1.392 . S
C1941 H1953 0.929 . S
C1942 C1938 1.531 . S
C1942 H1954 0.960 . S
C1942 H1955 0.962 . S
C1942 H1956 0.960 . S
C1943 C1940 1.511 . S
C1943 H1957 0.961 . S
C1943 H1958 0.961 . S
C1943 H1959 0.961 . S
C1944 C1945 1.370 . S
C1944 C1946 1.363 . S
C1944 H1960 0.931 . S
C1945 C1944 1.370 . S
C1945 C1949 1.408 . S
C1946 C1944 1.363 . S
C1946 C1947 1.370 . S
C1946 C1950 1.524 . S
C1947 C1939 1.503 . S
C1947 C1946 1.370 . S
C1947 C1948 1.403 . S
C1948 C1947 1.403 . S
C1948 C1949 1.404 . S
C1948 C1951 1.539 . S
C1949 C1945 1.408 . S
C1949 C1948 1.404 . S
C1949 H1961 0.930 . S
C1950 C1946 1.524 . S
C1950 H1962 0.956 . S
C1950 H1963 0.961 . S
C1950 H1964 0.961 . S
C1951 C1948 1.539 . S
C1951 H1965 0.958 . S
C1951 H1966 0.961 . S
C1951 H1967 0.960 . S
H1952 C1936 0.931 . S
H1953 C1941 0.929 . S
H1954 C1942 0.960 . S
H1955 C1942 0.962 . S
H1956 C1942 0.960 . S
H1957 C1943 0.961 . S
H1958 C1943 0.961 . S
H1959 C1943 0.961 . S
H1960 C1944 0.931 . S
H1961 C1949 0.930 . S
H1962 C1950 0.956 . S
H1963 C1950 0.961 . S
H1964 C1950 0.961 . S
H1965 C1951 0.958 . S
H1966 C1951 0.961 . S
H1967 C1951 0.960 . S
C1968 C1969 1.391 . S
C1968 C1970 1.394 . S
C1968 H1984 0.931 . S
C1969 C1968 1.391 . S
C1969 C1973 1.376 . S
C1970 C1968 1.394 . S
C1970 C1971 1.369 . S
C1970 C1974 1.531 . S
C1971 C1970 1.369 . S
C1971 C1972 1.410 . S
C1971 C1979 1.503 1_565 S
C1972 C1971 1.410 . S
C1972 C1973 1.392 . S
C1972 C1975 1.511 . S
C1973 C1969 1.376 . S
C1973 C1972 1.392 . S
C1973 H1985 0.929 . S
C1974 C1970 1.531 . S
C1974 H1986 0.960 1_565 S
C1974 H1987 0.962 . S
C1974 H1988 0.960 . S
C1975 C1972 1.511 . S
C1975 H1989 0.961 . S
C1975 H1990 0.961 . S
C1975 H1991 0.961 . S
C1976 C1977 1.370 . S
C1976 C1978 1.363 . S
C1976 H1992 0.931 . S
C1977 C1976 1.370 . S
C1977 C1981 1.408 . S
C1978 C1976 1.363 . S
C1978 C1979 1.370 . S
C1978 C1982 1.524 . S
C1979 C1971 1.503 1_545 S
C1979 C1978 1.370 . S
C1979 C1980 1.403 . S
C1980 C1979 1.403 . S
C1980 C1981 1.404 . S
C1980 C1983 1.539 . S
C1981 C1977 1.408 . S
C1981 C1980 1.404 . S
C1981 H1993 0.930 . S
C1982 C1978 1.524 . S
C1982 H1994 0.956 . S
C1982 H1995 0.961 1_545 S
C1982 H1996 0.961 . S
C1983 C1980 1.539 . S
C1983 H1997 0.958 . S
C1983 H1998 0.961 . S
C1983 H1999 0.967 . S
H1984 C1968 0.931 . S
H1985 C1973 0.929 . S
H1986 C1974 0.960 1_545 S
H1987 C1974 0.962 . S
H1988 C1974 0.960 . S
H1989 C1975 0.961 . S
H1990 C1975 0.961 . S
H1991 C1975 0.961 . S
H1992 C1976 0.931 . S
H1993 C1981 0.930 . S
H1994 C1982 0.956 . S
H1995 C1982 0.961 1_565 S
H1996 C1982 0.961 . S
H1997 C1983 0.958 . S
H1998 C1983 0.961 . S
H1999 C1983 0.967 . S
C2000 C2001 1.391 . S
C2000 C2002 1.394 . S
C2000 H2016 0.931 . S
C2001 C2000 1.391 . S
C2001 C2005 1.376 . S
C2002 C2000 1.394 . S
C2002 C2003 1.369 . S
C2002 C2006 1.531 . S
C2003 C2002 1.369 . S
C2003 C2004 1.410 . S
C2003 C2011 1.503 1_455 S
C2004 C2003 1.410 . S
C2004 C2005 1.392 . S
C2004 C2007 1.511 . S
C2005 C2001 1.376 . S
C2005 C2004 1.392 . S
C2005 H2017 0.929 . S
C2006 C2002 1.531 . S
C2006 H2018 0.960 1_455 S
C2006 H2019 0.962 . S
C2006 H2020 0.960 . S
C2007 C2004 1.511 . S
C2007 H2021 0.961 . S
C2007 H2022 0.961 . S
C2007 H2023 0.961 . S
C2008 C2009 1.370 . S
C2008 C2010 1.363 . S
C2008 H2024 0.931 . S
C2009 C2008 1.370 . S
C2009 C2013 1.408 . S
C2010 C2008 1.363 . S
C2010 C2011 1.370 . S
C2010 C2014 1.524 . S
C2011 C2003 1.503 1_655 S
C2011 C2010 1.370 . S
C2011 C2012 1.403 . S
C2012 C2011 1.403 . S
C2012 C2013 1.404 . S
C2012 C2015 1.539 . S
C2013 C2009 1.408 . S
C2013 C2012 1.404 . S
C2013 H2025 0.930 . S
C2014 C2010 1.524 . S
C2014 H2026 0.956 . S
C2014 H2027 0.961 1_655 S
C2014 H2028 0.961 . S
C2015 C2012 1.539 . S
C2015 H2029 0.958 . S
C2015 H2030 0.961 . S
C2015 H2031 0.925 1_655 S
H2016 C2000 0.931 . S
H2017 C2005 0.929 . S
H2018 C2006 0.960 1_655 S
H2019 C2006 0.962 . S
H2020 C2006 0.960 . S
H2021 C2007 0.961 . S
H2022 C2007 0.961 . S
H2023 C2007 0.961 . S
H2024 C2008 0.931 . S
H2025 C2013 0.930 . S
H2026 C2014 0.956 . S
H2027 C2014 0.961 1_455 S
H2028 C2014 0.961 . S
H2029 C2015 0.958 . S
H2030 C2015 0.961 . S
H2031 C2015 0.925 1_455 S
C2032 C2033 1.391 . S
C2032 C2034 1.394 . S
C2032 H2048 0.931 . S
C2033 C2032 1.391 . S
C2033 C2037 1.376 . S
C2034 C2032 1.394 . S
C2034 C2035 1.369 . S
C2034 C2038 1.531 . S
C2035 C2034 1.369 . S
C2035 C2036 1.410 . S
C2035 C2043 1.503 . S
C2036 C2035 1.410 . S
C2036 C2037 1.392 . S
C2036 C2039 1.511 . S
C2037 C2033 1.376 . S
C2037 C2036 1.392 . S
C2037 H2049 0.929 . S
C2038 C2034 1.531 . S
C2038 H2050 0.960 . S
C2038 H2051 0.962 . S
C2038 H2052 0.960 . S
C2039 C2036 1.511 . S
C2039 H2053 0.961 . S
C2039 H2054 0.961 . S
C2039 H2055 0.961 . S
C2040 C2041 1.370 . S
C2040 C2042 1.363 . S
C2040 H2056 0.931 . S
C2041 C2040 1.370 . S
C2041 C2045 1.408 . S
C2042 C2040 1.363 . S
C2042 C2043 1.370 . S
C2042 C2046 1.524 . S
C2043 C2035 1.503 . S
C2043 C2042 1.370 . S
C2043 C2044 1.403 . S
C2044 C2043 1.403 . S
C2044 C2045 1.404 . S
C2044 C2047 1.539 . S
C2045 C2041 1.408 . S
C2045 C2044 1.404 . S
C2045 H2057 0.930 . S
C2046 C2042 1.524 . S
C2046 H2058 0.956 . S
C2046 H2059 0.961 . S
C2046 H2060 0.961 . S
C2047 C2044 1.539 . S
C2047 H2061 0.958 . S
C2047 H2062 0.961 . S
C2047 H2063 0.960 . S
H2048 C2032 0.931 . S
H2049 C2037 0.929 . S
H2050 C2038 0.960 . S
H2051 C2038 0.962 . S
H2052 C2038 0.960 . S
H2053 C2039 0.961 . S
H2054 C2039 0.961 . S
H2055 C2039 0.961 . S
H2056 C2040 0.931 . S
H2057 C2045 0.930 . S
H2058 C2046 0.956 . S
H2059 C2046 0.961 . S
H2060 C2046 0.961 . S
H2061 C2047 0.958 . S
H2062 C2047 0.961 . S
H2063 C2047 0.960 . S
C2064 C2065 1.391 . S
C2064 C2066 1.394 . S
C2064 H2080 0.931 . S
C2065 C2064 1.391 . S
C2065 C2069 1.376 . S
C2066 C2064 1.394 . S
C2066 C2067 1.369 . S
C2066 C2070 1.531 . S
C2067 C2066 1.369 . S
C2067 C2068 1.410 . S
C2067 C2075 1.503 . S
C2068 C2067 1.410 . S
C2068 C2069 1.392 . S
C2068 C2071 1.511 . S
C2069 C2065 1.376 . S
C2069 C2068 1.392 . S
C2069 H2081 0.929 . S
C2070 C2066 1.531 . S
C2070 H2082 0.960 . S
C2070 H2083 0.962 . S
C2070 H2084 0.960 . S
C2071 C2068 1.511 . S
C2071 H2085 0.961 . S
C2071 H2086 0.961 . S
C2071 H2087 0.961 . S
C2072 C2073 1.370 . S
C2072 C2074 1.363 . S
C2072 H2088 0.931 . S
C2073 C2072 1.370 . S
C2073 C2077 1.408 . S
C2074 C2072 1.363 . S
C2074 C2075 1.370 . S
C2074 C2078 1.524 . S
C2075 C2067 1.503 . S
C2075 C2074 1.370 . S
C2075 C2076 1.403 . S
C2076 C2075 1.403 . S
C2076 C2077 1.404 . S
C2076 C2079 1.539 . S
C2077 C2073 1.408 . S
C2077 C2076 1.404 . S
C2077 H2089 0.930 . S
C2078 C2074 1.524 . S
C2078 H2090 0.956 . S
C2078 H2091 0.961 . S
C2078 H2092 0.961 . S
C2079 C2076 1.539 . S
C2079 H2093 0.958 . S
C2079 H2094 0.961 . S
C2079 H2095 0.960 . S
H2080 C2064 0.931 . S
H2081 C2069 0.929 . S
H2082 C2070 0.960 . S
H2083 C2070 0.962 . S
H2084 C2070 0.960 . S
H2085 C2071 0.961 . S
H2086 C2071 0.961 . S
H2087 C2071 0.961 . S
H2088 C2072 0.931 . S
H2089 C2077 0.930 . S
H2090 C2078 0.956 . S
H2091 C2078 0.961 . S
H2092 C2078 0.961 . S
H2093 C2079 0.958 . S
H2094 C2079 0.961 . S
H2095 C2079 0.960 . S
C2096 C2097 1.391 . S
C2096 C2098 1.394 . S
C2096 H2112 0.931 . S
C2097 C2096 1.391 . S
C2097 C2101 1.376 . S
C2098 C2096 1.394 . S
C2098 C2099 1.369 . S
C2098 C2102 1.531 . S
C2099 C2098 1.369 . S
C2099 C2100 1.410 . S
C2099 C2107 1.503 . S
C2100 C2099 1.410 . S
C2100 C2101 1.392 . S
C2100 C2103 1.511 . S
C2101 C2097 1.376 . S
C2101 C2100 1.392 . S
C2101 H2113 0.929 . S
C2102 C2098 1.531 . S
C2102 H2114 0.960 . S
C2102 H2115 0.962 . S
C2102 H2116 0.960 . S
C2103 C2100 1.511 . S
C2103 H2117 0.961 . S
C2103 H2118 0.961 . S
C2103 H2119 0.961 . S
C2104 C2105 1.370 . S
C2104 C2106 1.363 . S
C2104 H2120 0.931 . S
C2105 C2104 1.370 . S
C2105 C2109 1.408 . S
C2106 C2104 1.363 . S
C2106 C2107 1.370 . S
C2106 C2110 1.524 . S
C2107 C2099 1.503 . S
C2107 C2106 1.370 . S
C2107 C2108 1.403 . S
C2108 C2107 1.403 . S
C2108 C2109 1.404 . S
C2108 C2111 1.539 . S
C2109 C2105 1.408 . S
C2109 C2108 1.404 . S
C2109 H2121 0.930 . S
C2110 C2106 1.524 . S
C2110 H2122 0.956 . S
C2110 H2123 0.961 . S
C2110 H2124 0.961 . S
C2111 C2108 1.539 . S
C2111 H2125 0.958 . S
C2111 H2126 0.961 . S
C2111 H2127 0.960 . S
H2112 C2096 0.931 . S
H2113 C2101 0.929 . S
H2114 C2102 0.960 . S
H2115 C2102 0.962 . S
H2116 C2102 0.960 . S
H2117 C2103 0.961 . S
H2118 C2103 0.961 . S
H2119 C2103 0.961 . S
H2120 C2104 0.931 . S
H2121 C2109 0.930 . S
H2122 C2110 0.956 . S
H2123 C2110 0.961 . S
H2124 C2110 0.961 . S
H2125 C2111 0.958 . S
H2126 C2111 0.961 . S
H2127 C2111 0.960 . S
C2128 C2129 1.391 . S
C2128 C2130 1.394 . S
C2128 H2144 0.931 . S
C2129 C2128 1.391 . S
C2129 C2133 1.376 . S
C2130 C2128 1.394 . S
C2130 C2131 1.369 . S
C2130 C2134 1.531 . S
C2131 C2130 1.369 . S
C2131 C2132 1.410 . S
C2131 C2139 1.503 . S
C2132 C2131 1.410 . S
C2132 C2133 1.392 . S
C2132 C2135 1.511 . S
C2133 C2129 1.376 . S
C2133 C2132 1.392 . S
C2133 H2145 0.929 . S
C2134 C2130 1.531 . S
C2134 H2146 0.960 . S
C2134 H2147 0.962 . S
C2134 H2148 0.960 . S
C2135 C2132 1.511 . S
C2135 H2149 0.961 . S
C2135 H2150 0.961 . S
C2135 H2151 0.961 . S
C2136 C2137 1.370 . S
C2136 C2138 1.363 . S
C2136 H2152 0.931 . S
C2137 C2136 1.370 . S
C2137 C2141 1.408 . S
C2138 C2136 1.363 . S
C2138 C2139 1.370 . S
C2138 C2142 1.524 . S
C2139 C2131 1.503 . S
C2139 C2138 1.370 . S
C2139 C2140 1.403 . S
C2140 C2139 1.403 . S
C2140 C2141 1.404 . S
C2140 C2143 1.539 . S
C2141 C2137 1.408 . S
C2141 C2140 1.404 . S
C2141 H2153 0.930 . S
C2142 C2138 1.524 . S
C2142 H2154 0.956 . S
C2142 H2155 0.961 . S
C2142 H2156 0.961 . S
C2143 C2140 1.539 . S
C2143 H2157 0.958 . S
C2143 H2158 0.961 . S
C2143 H2159 0.960 . S
H2144 C2128 0.931 . S
H2145 C2133 0.929 . S
H2146 C2134 0.960 . S
H2147 C2134 0.962 . S
H2148 C2134 0.960 . S
H2149 C2135 0.961 . S
H2150 C2135 0.961 . S
H2151 C2135 0.961 . S
H2152 C2136 0.931 . S
H2153 C2141 0.930 . S
H2154 C2142 0.956 . S
H2155 C2142 0.961 . S
H2156 C2142 0.961 . S
H2157 C2143 0.958 . S
H2158 C2143 0.961 . S
H2159 C2143 0.960 . S
C2160 C2161 1.391 . S
C2160 C2162 1.394 . S
C2160 H2176 0.931 . S
C2161 C2160 1.391 . S
C2161 C2165 1.376 . S
C2162 C2160 1.394 . S
C2162 C2163 1.369 . S
C2162 C2166 1.531 . S
C2163 C2162 1.369 . S
C2163 C2164 1.410 . S
C2163 C2171 1.503 1_545 S
C2164 C2163 1.410 . S
C2164 C2165 1.392 . S
C2164 C2167 1.511 . S
C2165 C2161 1.376 . S
C2165 C2164 1.392 . S
C2165 H2177 0.929 . S
C2166 C2162 1.531 . S
C2166 H2178 0.960 1_545 S
C2166 H2179 0.962 . S
C2166 H2180 0.960 . S
C2167 C2164 1.511 . S
C2167 H2181 0.961 . S
C2167 H2182 0.966 . S
C2167 H2183 0.961 . S
C2168 C2169 1.370 . S
C2168 C2170 1.363 . S
C2168 H2184 0.931 . S
C2169 C2168 1.370 . S
C2169 C2173 1.408 . S
C2170 C2168 1.363 . S
C2170 C2171 1.370 . S
C2170 C2174 1.524 . S
C2171 C2163 1.503 1_565 S
C2171 C2170 1.370 . S
C2171 C2172 1.403 . S
C2172 C2171 1.403 . S
C2172 C2173 1.404 . S
C2172 C2175 1.539 . S
C2173 C2169 1.408 . S
C2173 C2172 1.404 . S
C2173 H2185 0.930 . S
C2174 C2170 1.524 . S
C2174 H2186 0.943 1_565 S
C2174 H2187 0.961 1_565 S
C2174 H2188 0.961 . S
C2175 C2172 1.539 . S
C2175 H2189 0.958 . S
C2175 H2190 0.961 . S
C2175 H2191 0.960 . S
H2176 C2160 0.931 . S
H2177 C2165 0.929 . S
H2178 C2166 0.960 1_565 S
H2179 C2166 0.962 . S
H2180 C2166 0.960 . S
H2181 C2167 0.961 . S
H2182 C2167 0.966 . S
H2183 C2167 0.961 . S
H2184 C2168 0.931 . S
H2185 C2173 0.930 . S
H2186 C2174 0.943 1_545 S
H2187 C2174 0.961 1_545 S
H2188 C2174 0.961 . S
H2189 C2175 0.958 . S
H2190 C2175 0.961 . S
H2191 C2175 0.960 . S
C2192 C2193 1.391 . S
C2192 C2194 1.394 . S
C2192 H2208 0.931 . S
C2193 C2192 1.391 . S
C2193 C2197 1.376 . S
C2194 C2192 1.394 . S
C2194 C2195 1.369 . S
C2194 C2198 1.531 . S
C2195 C2194 1.369 . S
C2195 C2196 1.410 . S
C2195 C2203 1.503 1_455 S
C2196 C2195 1.410 . S
C2196 C2197 1.392 . S
C2196 C2199 1.511 . S
C2197 C2193 1.376 . S
C2197 C2196 1.392 . S
C2197 H2209 0.929 . S
C2198 C2194 1.531 . S
C2198 H2210 0.960 . S
C2198 H2211 0.962 . S
C2198 H2212 0.960 . S
C2199 C2196 1.511 . S
C2199 H2213 0.961 . S
C2199 H2214 0.961 1_455 S
C2199 H2215 0.961 . S
C2200 C2201 1.370 . S
C2200 C2202 1.363 . S
C2200 H2216 0.931 . S
C2201 C2200 1.370 . S
C2201 C2205 1.408 . S
C2202 C2200 1.363 . S
C2202 C2203 1.370 . S
C2202 C2206 1.524 . S
C2203 C2195 1.503 1_655 S
C2203 C2202 1.370 . S
C2203 C2204 1.403 . S
C2204 C2203 1.403 . S
C2204 C2205 1.404 . S
C2204 C2207 1.539 . S
C2205 C2201 1.408 . S
C2205 C2204 1.404 . S
C2205 H2217 0.930 . S
C2206 C2202 1.524 . S
C2206 H2218 0.974 . S
C2206 H2219 0.974 . S
C2206 H2220 0.961 . S
C2207 C2204 1.539 . S
C2207 H2221 0.958 . S
C2207 H2222 0.961 . S
C2207 H2223 0.960 . S
H2208 C2192 0.931 . S
H2209 C2197 0.929 . S
H2210 C2198 0.960 . S
H2211 C2198 0.962 . S
H2212 C2198 0.960 . S
H2213 C2199 0.961 . S
H2214 C2199 0.961 1_655 S
H2215 C2199 0.961 . S
H2216 C2200 0.931 . S
H2217 C2205 0.930 . S
H2218 C2206 0.974 . S
H2219 C2206 0.974 . S
H2220 C2206 0.961 . S
H2221 C2207 0.958 . S
H2222 C2207 0.961 . S
H2223 C2207 0.960 . S
C2224 C2225 1.391 . S
C2224 C2226 1.394 . S
C2224 H2240 0.931 . S
C2225 C2224 1.391 . S
C2225 C2229 1.376 . S
C2226 C2224 1.394 . S
C2226 C2227 1.369 . S
C2226 C2230 1.531 . S
C2227 C2226 1.369 . S
C2227 C2228 1.410 . S
C2227 C2235 1.503 1_554 S
C2228 C2227 1.410 . S
C2228 C2229 1.392 . S
C2228 C2231 1.511 . S
C2229 C2225 1.376 . S
C2229 C2228 1.392 . S
C2229 H2241 0.929 . S
C2230 C2226 1.531 . S
C2230 H2242 0.960 1_554 S
C2230 H2243 0.962 . S
C2230 H2244 0.960 . S
C2231 C2228 1.511 . S
C2231 H2245 0.961 . S
C2231 H2246 0.961 . S
C2231 H2247 0.961 . S
C2232 C2233 1.370 . S
C2232 C2234 1.363 . S
C2232 H2248 0.931 . S
C2233 C2232 1.370 . S
C2233 C2237 1.408 . S
C2234 C2232 1.363 . S
C2234 C2235 1.370 . S
C2234 C2238 1.524 . S
C2235 C2227 1.503 1_556 S
C2235 C2234 1.370 . S
C2235 C2236 1.403 . S
C2236 C2235 1.403 . S
C2236 C2237 1.404 . S
C2236 C2239 1.539 . S
C2237 C2233 1.408 . S
C2237 C2236 1.404 . S
C2237 H2249 0.930 . S
C2238 C2234 1.524 . S
C2238 H2250 0.956 . S
C2238 H2251 0.961 1_556 S
C2238 H2252 0.961 . S
C2239 C2236 1.539 . S
C2239 H2253 0.958 . S
C2239 H2254 0.961 . S
C2239 H2255 0.968 . S
H2240 C2224 0.931 . S
H2241 C2229 0.929 . S
H2242 C2230 0.960 1_556 S
H2243 C2230 0.962 . S
H2244 C2230 0.960 . S
H2245 C2231 0.961 . S
H2246 C2231 0.961 . S
H2247 C2231 0.961 . S
H2248 C2232 0.931 . S
H2249 C2237 0.930 . S
H2250 C2238 0.956 . S
H2251 C2238 0.961 1_554 S
H2252 C2238 0.961 . S
H2253 C2239 0.958 . S
H2254 C2239 0.961 . S
H2255 C2239 0.968 . S
C2256 C2257 1.391 . S
C2256 C2258 1.394 . S
C2256 H2272 0.931 . S
C2257 C2256 1.391 . S
C2257 C2261 1.376 . S
C2258 C2256 1.394 . S
C2258 C2259 1.369 . S
C2258 C2262 1.531 . S
C2259 C2258 1.369 . S
C2259 C2260 1.410 . S
C2259 C2267 1.503 . S
C2260 C2259 1.410 . S
C2260 C2261 1.392 . S
C2260 C2263 1.511 . S
C2261 C2257 1.376 . S
C2261 C2260 1.392 . S
C2261 H2273 0.929 . S
C2262 C2258 1.531 . S
C2262 H2274 0.960 . S
C2262 H2275 0.962 . S
C2262 H2276 0.960 . S
C2263 C2260 1.511 . S
C2263 H2277 0.961 . S
C2263 H2278 0.961 . S
C2263 H2279 0.961 . S
C2264 C2265 1.370 . S
C2264 C2266 1.363 . S
C2264 H2280 0.931 . S
C2265 C2264 1.370 . S
C2265 C2269 1.408 . S
C2266 C2264 1.363 . S
C2266 C2267 1.370 . S
C2266 C2270 1.524 . S
C2267 C2259 1.503 . S
C2267 C2266 1.370 . S
C2267 C2268 1.403 . S
C2268 C2267 1.403 . S
C2268 C2269 1.404 . S
C2268 C2271 1.539 . S
C2269 C2265 1.408 . S
C2269 C2268 1.404 . S
C2269 H2281 0.930 . S
C2270 C2266 1.524 . S
C2270 H2282 0.956 . S
C2270 H2283 0.961 . S
C2270 H2284 0.961 . S
C2271 C2268 1.539 . S
C2271 H2285 0.958 . S
C2271 H2286 0.961 . S
C2271 H2287 0.960 . S
H2272 C2256 0.931 . S
H2273 C2261 0.929 . S
H2274 C2262 0.960 . S
H2275 C2262 0.962 . S
H2276 C2262 0.960 . S
H2277 C2263 0.961 . S
H2278 C2263 0.961 . S
H2279 C2263 0.961 . S
H2280 C2264 0.931 . S
H2281 C2269 0.930 . S
H2282 C2270 0.956 . S
H2283 C2270 0.961 . S
H2284 C2270 0.961 . S
H2285 C2271 0.958 . S
H2286 C2271 0.961 . S
H2287 C2271 0.960 . S
C2288 C2289 1.391 . S
C2288 C2290 1.394 . S
C2288 H2304 0.931 . S
C2289 C2288 1.391 . S
C2289 C2293 1.376 . S
C2290 C2288 1.394 . S
C2290 C2291 1.369 . S
C2290 C2294 1.531 . S
C2291 C2290 1.369 . S
C2291 C2292 1.410 . S
C2291 C2299 1.503 1_556 S
C2292 C2291 1.410 . S
C2292 C2293 1.392 . S
C2292 C2295 1.511 . S
C2293 C2289 1.376 . S
C2293 C2292 1.392 . S
C2293 H2305 0.929 . S
C2294 C2290 1.531 . S
C2294 H2306 0.960 1_556 S
C2294 H2307 0.962 . S
C2294 H2308 0.960 . S
C2295 C2292 1.511 . S
C2295 H2309 0.961 . S
C2295 H2310 0.990 . S
C2295 H2311 0.961 . S
C2296 C2297 1.370 . S
C2296 C2298 1.363 . S
C2296 H2312 0.931 . S
C2297 C2296 1.370 . S
C2297 C2301 1.408 . S
C2298 C2296 1.363 . S
C2298 C2299 1.370 . S
C2298 C2302 1.524 . S
C2299 C2291 1.503 1_554 S
C2299 C2298 1.370 . S
C2299 C2300 1.403 . S
C2300 C2299 1.403 . S
C2300 C2301 1.404 . S
C2300 C2303 1.539 . S
C2301 C2297 1.408 . S
C2301 C2300 1.404 . S
C2301 H2313 0.930 . S
C2302 C2298 1.524 . S
C2302 H2314 0.957 . S
C2302 H2315 0.961 1_554 S
C2302 H2316 0.961 . S
C2303 C2300 1.539 . S
C2303 H2317 0.958 . S
C2303 H2318 0.961 . S
C2303 H2319 0.960 . S
H2304 C2288 0.931 . S
H2305 C2293 0.929 . S
H2306 C2294 0.960 1_554 S
H2307 C2294 0.962 . S
H2308 C2294 0.960 . S
H2309 C2295 0.961 . S
H2310 C2295 0.990 . S
H2311 C2295 0.961 . S
H2312 C2296 0.931 . S
H2313 C2301 0.930 . S
H2314 C2302 0.957 . S
H2315 C2302 0.961 1_556 S
H2316 C2302 0.961 . S
H2317 C2303 0.958 . S
H2318 C2303 0.961 . S
H2319 C2303 0.960 . S
C2320 C2321 1.391 . S
C2320 C2322 1.394 . S
C2320 H2336 0.931 . S
C2321 C2320 1.391 . S
C2321 C2325 1.376 . S
C2322 C2320 1.394 . S
C2322 C2323 1.369 . S
C2322 C2326 1.531 . S
C2323 C2322 1.369 . S
C2323 C2324 1.410 . S
C2323 C2331 1.503 . S
C2324 C2323 1.410 . S
C2324 C2325 1.392 . S
C2324 C2327 1.511 . S
C2325 C2321 1.376 . S
C2325 C2324 1.392 . S
C2325 H2337 0.929 . S
C2326 C2322 1.531 . S
C2326 H2338 0.960 . S
C2326 H2339 0.962 . S
C2326 H2340 0.960 . S
C2327 C2324 1.511 . S
C2327 H2341 0.961 . S
C2327 H2342 0.961 . S
C2327 H2343 0.961 . S
C2328 C2329 1.370 . S
C2328 C2330 1.363 . S
C2328 H2344 0.931 . S
C2329 C2328 1.370 . S
C2329 C2333 1.408 . S
C2330 C2328 1.363 . S
C2330 C2331 1.370 . S
C2330 C2334 1.524 . S
C2331 C2323 1.503 . S
C2331 C2330 1.370 . S
C2331 C2332 1.403 . S
C2332 C2331 1.403 . S
C2332 C2333 1.404 . S
C2332 C2335 1.539 . S
C2333 C2329 1.408 . S
C2333 C2332 1.404 . S
C2333 H2345 0.930 . S
C2334 C2330 1.524 . S
C2334 H2346 0.956 . S
C2334 H2347 0.961 . S
C2334 H2348 0.961 . S
C2335 C2332 1.539 . S
C2335 H2349 0.958 . S
C2335 H2350 0.961 . S
C2335 H2351 0.960 . S
H2336 C2320 0.931 . S
H2337 C2325 0.929 . S
H2338 C2326 0.960 . S
H2339 C2326 0.962 . S
H2340 C2326 0.960 . S
H2341 C2327 0.961 . S
H2342 C2327 0.961 . S
H2343 C2327 0.961 . S
H2344 C2328 0.931 . S
H2345 C2333 0.930 . S
H2346 C2334 0.956 . S
H2347 C2334 0.961 . S
H2348 C2334 0.961 . S
H2349 C2335 0.958 . S
H2350 C2335 0.961 . S
H2351 C2335 0.960 . S
C2352 C2353 1.391 . S
C2352 C2354 1.394 . S
C2352 H2368 0.931 . S
C2353 C2352 1.391 . S
C2353 C2357 1.376 . S
C2354 C2352 1.394 . S
C2354 C2355 1.369 . S
C2354 C2358 1.531 . S
C2355 C2354 1.369 . S
C2355 C2356 1.410 . S
C2355 C2363 1.503 1_565 S
C2356 C2355 1.410 . S
C2356 C2357 1.392 . S
C2356 C2359 1.511 1_565 S
C2357 C2353 1.376 . S
C2357 C2356 1.392 . S
C2357 H2369 0.929 . S
C2358 C2354 1.531 . S
C2358 H2370 0.960 . S
C2358 H2371 0.962 . S
C2358 H2372 0.960 . S
C2359 C2356 1.511 1_545 S
C2359 H2373 0.961 1_545 S
C2359 H2374 0.961 . S
C2359 H2375 0.961 . S
C2360 C2361 1.370 . S
C2360 C2362 1.363 . S
C2360 H2376 0.931 . S
C2361 C2360 1.370 . S
C2361 C2365 1.408 . S
C2362 C2360 1.363 . S
C2362 C2363 1.370 . S
C2362 C2366 1.524 . S
C2363 C2355 1.503 1_545 S
C2363 C2362 1.370 . S
C2363 C2364 1.403 . S
C2364 C2363 1.403 . S
C2364 C2365 1.404 . S
C2364 C2367 1.539 . S
C2365 C2361 1.408 . S
C2365 C2364 1.404 . S
C2365 H2377 0.930 . S
C2366 C2362 1.524 . S
C2366 H2378 0.956 1_545 S
C2366 H2379 0.961 . S
C2366 H2380 0.961 . S
C2367 C2364 1.539 . S
C2367 H2381 0.958 . S
C2367 H2382 0.961 . S
C2367 H2383 0.960 . S
H2368 C2352 0.931 . S
H2369 C2357 0.929 . S
H2370 C2358 0.960 . S
H2371 C2358 0.962 . S
H2372 C2358 0.960 . S
H2373 C2359 0.961 1_565 S
H2374 C2359 0.961 . S
H2375 C2359 0.961 . S
H2376 C2360 0.931 . S
H2377 C2365 0.930 . S
H2378 C2366 0.956 1_565 S
H2379 C2366 0.961 . S
H2380 C2366 0.961 . S
H2381 C2367 0.958 . S
H2382 C2367 0.961 . S
H2383 C2367 0.960 . S
C2384 C2385 1.391 . S
C2384 C2386 1.394 . S
C2384 H2400 0.931 . S
C2385 C2384 1.391 . S
C2385 C2389 1.376 . S
C2386 C2384 1.394 . S
C2386 C2387 1.369 . S
C2386 C2390 1.531 . S
C2387 C2386 1.369 . S
C2387 C2388 1.410 . S
C2387 C2395 1.503 1_455 S
C2388 C2387 1.410 . S
C2388 C2389 1.392 . S
C2388 C2391 1.511 1_455 S
C2389 C2385 1.376 . S
C2389 C2388 1.392 . S
C2389 H2401 0.929 . S
C2390 C2386 1.531 . S
C2390 H2402 0.960 . S
C2390 H2403 0.962 . S
C2390 H2404 0.960 . S
C2391 C2388 1.511 1_655 S
C2391 H2405 0.961 1_655 S
C2391 H2406 0.961 . S
C2391 H2407 0.961 . S
C2392 C2393 1.370 . S
C2392 C2394 1.363 . S
C2392 H2408 0.931 . S
C2393 C2392 1.370 . S
C2393 C2397 1.408 . S
C2394 C2392 1.363 . S
C2394 C2395 1.370 . S
C2394 C2398 1.524 . S
C2395 C2387 1.503 1_655 S
C2395 C2394 1.370 . S
C2395 C2396 1.403 . S
C2396 C2395 1.403 . S
C2396 C2397 1.404 . S
C2396 C2399 1.539 . S
C2397 C2393 1.408 . S
C2397 C2396 1.404 . S
C2397 H2409 0.930 . S
C2398 C2394 1.524 . S
C2398 H2410 0.956 1_655 S
C2398 H2411 0.961 . S
C2398 H2412 0.961 . S
C2399 C2396 1.539 . S
C2399 H2413 0.958 . S
C2399 H2414 0.961 . S
C2399 H2415 0.960 . S
H2400 C2384 0.931 . S
H2401 C2389 0.929 . S
H2402 C2390 0.960 . S
H2403 C2390 0.962 . S
H2404 C2390 0.960 . S
H2405 C2391 0.961 1_455 S
H2406 C2391 0.961 . S
H2407 C2391 0.961 . S
H2408 C2392 0.931 . S
H2409 C2397 0.930 . S
H2410 C2398 0.956 1_455 S
H2411 C2398 0.961 . S
H2412 C2398 0.961 . S
H2413 C2399 0.958 . S
H2414 C2399 0.961 . S
H2415 C2399 0.960 . S
C2416 C2417 1.391 . S
C2416 C2418 1.394 . S
C2416 H2432 0.931 . S
C2417 C2416 1.391 . S
C2417 C2421 1.376 . S
C2418 C2416 1.394 . S
C2418 C2419 1.369 . S
C2418 C2422 1.531 . S
C2419 C2418 1.369 . S
C2419 C2420 1.410 . S
C2419 C2427 1.503 . S
C2420 C2419 1.410 . S
C2420 C2421 1.392 . S
C2420 C2423 1.511 . S
C2421 C2417 1.376 . S
C2421 C2420 1.392 . S
C2421 H2433 0.929 . S
C2422 C2418 1.531 . S
C2422 H2434 0.960 . S
C2422 H2435 0.962 . S
C2422 H2436 0.960 . S
C2423 C2420 1.511 . S
C2423 H2437 0.961 . S
C2423 H2438 0.961 . S
C2423 H2439 0.961 . S
C2424 C2425 1.370 . S
C2424 C2426 1.363 . S
C2424 H2440 0.931 . S
C2425 C2424 1.370 . S
C2425 C2429 1.408 . S
C2426 C2424 1.363 . S
C2426 C2427 1.370 . S
C2426 C2430 1.524 . S
C2427 C2419 1.503 . S
C2427 C2426 1.370 . S
C2427 C2428 1.403 . S
C2428 C2427 1.403 . S
C2428 C2429 1.404 . S
C2428 C2431 1.539 . S
C2429 C2425 1.408 . S
C2429 C2428 1.404 . S
C2429 H2441 0.930 . S
C2430 C2426 1.524 . S
C2430 H2442 0.956 . S
C2430 H2443 0.961 . S
C2430 H2444 0.961 . S
C2431 C2428 1.539 . S
C2431 H2445 0.958 . S
C2431 H2446 0.961 . S
C2431 H2447 0.960 . S
H2432 C2416 0.931 . S
H2433 C2421 0.929 . S
H2434 C2422 0.960 . S
H2435 C2422 0.962 . S
H2436 C2422 0.960 . S
H2437 C2423 0.961 . S
H2438 C2423 0.961 . S
H2439 C2423 0.961 . S
H2440 C2424 0.931 . S
H2441 C2429 0.930 . S
H2442 C2430 0.956 . S
H2443 C2430 0.961 . S
H2444 C2430 0.961 . S
H2445 C2431 0.958 . S
H2446 C2431 0.961 . S
H2447 C2431 0.960 . S
C2448 C2449 1.391 . S
C2448 C2450 1.394 . S
C2448 H2464 0.931 . S
C2449 C2448 1.391 . S
C2449 C2453 1.376 . S
C2450 C2448 1.394 . S
C2450 C2451 1.369 . S
C2450 C2454 1.531 . S
C2451 C2450 1.369 . S
C2451 C2452 1.410 . S
C2451 C2459 1.503 . S
C2452 C2451 1.410 . S
C2452 C2453 1.392 . S
C2452 C2455 1.511 . S
C2453 C2449 1.376 . S
C2453 C2452 1.392 . S
C2453 H2465 0.929 . S
C2454 C2450 1.531 . S
C2454 H2466 0.960 . S
C2454 H2467 0.962 . S
C2454 H2468 0.960 . S
C2455 C2452 1.511 . S
C2455 H2469 0.961 . S
C2455 H2470 0.961 . S
C2455 H2471 0.961 . S
C2456 C2457 1.370 . S
C2456 C2458 1.363 . S
C2456 H2472 0.931 . S
C2457 C2456 1.370 . S
C2457 C2461 1.408 . S
C2458 C2456 1.363 . S
C2458 C2459 1.370 . S
C2458 C2462 1.524 . S
C2459 C2451 1.503 . S
C2459 C2458 1.370 . S
C2459 C2460 1.403 . S
C2460 C2459 1.403 . S
C2460 C2461 1.404 . S
C2460 C2463 1.539 . S
C2461 C2457 1.408 . S
C2461 C2460 1.404 . S
C2461 H2473 0.930 . S
C2462 C2458 1.524 . S
C2462 H2474 0.956 . S
C2462 H2475 0.961 . S
C2462 H2476 0.961 . S
C2463 C2460 1.539 . S
C2463 H2477 0.958 . S
C2463 H2478 0.961 . S
C2463 H2479 0.960 . S
H2464 C2448 0.931 . S
H2465 C2453 0.929 . S
H2466 C2454 0.960 . S
H2467 C2454 0.962 . S
H2468 C2454 0.960 . S
H2469 C2455 0.961 . S
H2470 C2455 0.961 . S
H2471 C2455 0.961 . S
H2472 C2456 0.931 . S
H2473 C2461 0.930 . S
H2474 C2462 0.956 . S
H2475 C2462 0.961 . S
H2476 C2462 0.961 . S
H2477 C2463 0.958 . S
H2478 C2463 0.961 . S
H2479 C2463 0.960 . S
C2480 C2481 1.391 . S
C2480 C2482 1.394 . S
C2480 H2496 0.931 . S
C2481 C2480 1.391 . S
C2481 C2485 1.376 . S
C2482 C2480 1.394 . S
C2482 C2483 1.369 . S
C2482 C2486 1.531 . S
C2483 C2482 1.369 . S
C2483 C2484 1.410 . S
C2483 C2491 1.503 . S
C2484 C2483 1.410 . S
C2484 C2485 1.392 . S
C2484 C2487 1.511 . S
C2485 C2481 1.376 . S
C2485 C2484 1.392 . S
C2485 H2497 0.929 . S
C2486 C2482 1.531 . S
C2486 H2498 0.960 . S
C2486 H2499 0.962 . S
C2486 H2500 0.960 . S
C2487 C2484 1.511 . S
C2487 H2501 0.961 . S
C2487 H2502 0.961 . S
C2487 H2503 0.961 . S
C2488 C2489 1.370 . S
C2488 C2490 1.363 . S
C2488 H2504 0.931 . S
C2489 C2488 1.370 . S
C2489 C2493 1.408 . S
C2490 C2488 1.363 . S
C2490 C2491 1.370 . S
C2490 C2494 1.524 . S
C2491 C2483 1.503 . S
C2491 C2490 1.370 . S
C2491 C2492 1.403 . S
C2492 C2491 1.403 . S
C2492 C2493 1.404 . S
C2492 C2495 1.539 . S
C2493 C2489 1.408 . S
C2493 C2492 1.404 . S
C2493 H2505 0.930 . S
C2494 C2490 1.524 . S
C2494 H2506 0.956 . S
C2494 H2507 0.961 . S
C2494 H2508 0.961 . S
C2495 C2492 1.539 . S
C2495 H2509 0.958 . S
C2495 H2510 0.961 . S
C2495 H2511 0.960 . S
H2496 C2480 0.931 . S
H2497 C2485 0.929 . S
H2498 C2486 0.960 . S
H2499 C2486 0.962 . S
H2500 C2486 0.960 . S
H2501 C2487 0.961 . S
H2502 C2487 0.961 . S
H2503 C2487 0.961 . S
H2504 C2488 0.931 . S
H2505 C2493 0.930 . S
H2506 C2494 0.956 . S
H2507 C2494 0.961 . S
H2508 C2494 0.961 . S
H2509 C2495 0.958 . S
H2510 C2495 0.961 . S
H2511 C2495 0.960 . S
C2512 C2513 1.391 . S
C2512 C2514 1.394 . S
C2512 H2528 0.931 . S
C2513 C2512 1.391 . S
C2513 C2517 1.376 . S
C2514 C2512 1.394 . S
C2514 C2515 1.369 . S
C2514 C2518 1.531 . S
C2515 C2514 1.369 . S
C2515 C2516 1.410 . S
C2515 C2523 1.503 . S
C2516 C2515 1.410 . S
C2516 C2517 1.392 . S
C2516 C2519 1.511 . S
C2517 C2513 1.376 . S
C2517 C2516 1.392 . S
C2517 H2529 0.929 . S
C2518 C2514 1.531 . S
C2518 H2530 0.960 . S
C2518 H2531 0.962 . S
C2518 H2532 0.960 . S
C2519 C2516 1.511 . S
C2519 H2533 0.961 . S
C2519 H2534 0.961 . S
C2519 H2535 0.961 . S
C2520 C2521 1.370 . S
C2520 C2522 1.363 . S
C2520 H2536 0.931 . S
C2521 C2520 1.370 . S
C2521 C2525 1.408 . S
C2522 C2520 1.363 . S
C2522 C2523 1.370 . S
C2522 C2526 1.524 . S
C2523 C2515 1.503 . S
C2523 C2522 1.370 . S
C2523 C2524 1.403 . S
C2524 C2523 1.403 . S
C2524 C2525 1.404 . S
C2524 C2527 1.539 . S
C2525 C2521 1.408 . S
C2525 C2524 1.404 . S
C2525 H2537 0.930 . S
C2526 C2522 1.524 . S
C2526 H2538 0.956 . S
C2526 H2539 0.961 . S
C2526 H2540 0.961 . S
C2527 C2524 1.539 . S
C2527 H2541 0.958 . S
C2527 H2542 0.961 . S
C2527 H2543 0.960 . S
H2528 C2512 0.931 . S
H2529 C2517 0.929 . S
H2530 C2518 0.960 . S
H2531 C2518 0.962 . S
H2532 C2518 0.960 . S
H2533 C2519 0.961 . S
H2534 C2519 0.961 . S
H2535 C2519 0.961 . S
H2536 C2520 0.931 . S
H2537 C2525 0.930 . S
H2538 C2526 0.956 . S
H2539 C2526 0.961 . S
H2540 C2526 0.961 . S
H2541 C2527 0.958 . S
H2542 C2527 0.961 . S
H2543 C2527 0.960 . S
C2544 C2545 1.391 . S
C2544 C2546 1.394 . S
C2544 H2560 0.931 . S
C2545 C2544 1.391 . S
C2545 C2549 1.376 . S
C2546 C2544 1.394 . S
C2546 C2547 1.369 . S
C2546 C2550 1.531 . S
C2547 C2546 1.369 . S
C2547 C2548 1.410 . S
C2547 C2555 1.503 1_545 S
C2548 C2547 1.410 . S
C2548 C2549 1.392 . S
C2548 C2551 1.511 . S
C2549 C2545 1.376 . S
C2549 C2548 1.392 . S
C2549 H2561 0.929 . S
C2550 C2546 1.531 . S
C2550 H2562 0.960 1_545 S
C2550 H2563 0.962 . S
C2550 H2564 0.960 . S
C2551 C2548 1.511 . S
C2551 H2565 0.961 . S
C2551 H2566 0.961 . S
C2551 H2567 0.961 . S
C2552 C2553 1.370 . S
C2552 C2554 1.363 . S
C2552 H2568 0.931 . S
C2553 C2552 1.370 . S
C2553 C2557 1.408 . S
C2554 C2552 1.363 . S
C2554 C2555 1.370 . S
C2554 C2558 1.524 1_565 S
C2555 C2547 1.503 1_565 S
C2555 C2554 1.370 . S
C2555 C2556 1.403 . S
C2556 C2555 1.403 . S
C2556 C2557 1.404 . S
C2556 C2559 1.539 . S
C2557 C2553 1.408 . S
C2557 C2556 1.404 . S
C2557 H2569 0.930 . S
C2558 C2554 1.524 1_545 S
C2558 H2570 0.956 . S
C2558 H2571 0.961 . S
C2558 H2572 0.961 1_545 S
C2559 C2556 1.539 . S
C2559 H2573 0.958 . S
C2559 H2574 0.961 . S
C2559 H2575 0.960 . S
H2560 C2544 0.931 . S
H2561 C2549 0.929 . S
H2562 C2550 0.960 1_565 S
H2563 C2550 0.962 . S
H2564 C2550 0.960 . S
H2565 C2551 0.961 . S
H2566 C2551 0.961 . S
H2567 C2551 0.961 . S
H2568 C2552 0.931 . S
H2569 C2557 0.930 . S
H2570 C2558 0.956 . S
H2571 C2558 0.961 . S
H2572 C2558 0.961 1_565 S
H2573 C2559 0.958 . S
H2574 C2559 0.961 . S
H2575 C2559 0.960 . S
C2576 C2577 1.391 . S
C2576 C2578 1.394 . S
C2576 H2592 0.931 . S
C2577 C2576 1.391 . S
C2577 C2581 1.376 . S
C2578 C2576 1.394 . S
C2578 C2579 1.369 . S
C2578 C2582 1.531 . S
C2579 C2578 1.369 . S
C2579 C2580 1.410 . S
C2579 C2587 1.503 1_655 S
C2580 C2579 1.410 . S
C2580 C2581 1.392 . S
C2580 C2583 1.511 . S
C2581 C2577 1.376 . S
C2581 C2580 1.392 . S
C2581 H2593 0.929 . S
C2582 C2578 1.531 . S
C2582 H2594 0.960 . S
C2582 H2595 0.962 . S
C2582 H2596 0.960 . S
C2583 C2580 1.511 . S
C2583 H2597 0.961 . S
C2583 H2598 0.961 1_655 S
C2583 H2599 0.961 . S
C2584 C2585 1.370 . S
C2584 C2586 1.363 . S
C2584 H2600 0.931 . S
C2585 C2584 1.370 . S
C2585 C2589 1.408 . S
C2586 C2584 1.363 . S
C2586 C2587 1.370 . S
C2586 C2590 1.524 . S
C2587 C2579 1.503 1_455 S
C2587 C2586 1.370 . S
C2587 C2588 1.403 . S
C2588 C2587 1.403 . S
C2588 C2589 1.404 . S
C2588 C2591 1.539 . S
C2589 C2585 1.408 . S
C2589 C2588 1.404 . S
C2589 H2601 0.930 . S
C2590 C2586 1.524 . S
C2590 H2602 0.956 . S
C2590 H2603 0.961 . S
C2590 H2604 0.961 . S
C2591 C2588 1.539 . S
C2591 H2605 0.958 1_455 S
C2591 H2606 0.961 . S
C2591 H2607 0.960 1_455 S
H2592 C2576 0.931 . S
H2593 C2581 0.929 . S
H2594 C2582 0.960 . S
H2595 C2582 0.962 . S
H2596 C2582 0.960 . S
H2597 C2583 0.961 . S
H2598 C2583 0.961 1_455 S
H2599 C2583 0.961 . S
H2600 C2584 0.931 . S
H2601 C2589 0.930 . S
H2602 C2590 0.956 . S
H2603 C2590 0.961 . S
H2604 C2590 0.961 . S
H2605 C2591 0.958 1_655 S
H2606 C2591 0.961 . S
H2607 C2591 0.960 1_655 S
C2608 C2609 1.391 . S
C2608 C2610 1.394 . S
C2608 H2624 0.931 . S
C2609 C2608 1.391 . S
C2609 C2613 1.376 . S
C2610 C2608 1.394 . S
C2610 C2611 1.369 . S
C2610 C2614 1.531 1_554 S
C2611 C2610 1.369 . S
C2611 C2612 1.410 . S
C2611 C2619 1.503 1_554 S
C2612 C2611 1.410 . S
C2612 C2613 1.392 . S
C2612 C2615 1.511 . S
C2613 C2609 1.376 . S
C2613 C2612 1.392 . S
C2613 H2625 0.929 . S
C2614 C2610 1.531 1_556 S
C2614 H2626 0.960 . S
C2614 H2627 0.962 . S
C2614 H2628 0.960 1_556 S
C2615 C2612 1.511 . S
C2615 H2629 0.961 . S
C2615 H2630 0.961 . S
C2615 H2631 0.961 . S
C2616 C2617 1.370 . S
C2616 C2618 1.363 . S
C2616 H2632 0.931 . S
C2617 C2616 1.370 . S
C2617 C2621 1.408 . S
C2618 C2616 1.363 . S
C2618 C2619 1.370 . S
C2618 C2622 1.524 . S
C2619 C2611 1.503 1_556 S
C2619 C2618 1.370 . S
C2619 C2620 1.403 . S
C2620 C2619 1.403 . S
C2620 C2621 1.404 . S
C2620 C2623 1.539 . S
C2621 C2617 1.408 . S
C2621 C2620 1.404 . S
C2621 H2633 0.930 . S
C2622 C2618 1.524 . S
C2622 H2634 0.956 . S
C2622 H2635 0.961 1_556 S
C2622 H2636 0.961 . S
C2623 C2620 1.539 . S
C2623 H2637 0.958 . S
C2623 H2638 0.961 . S
C2623 H2639 0.907 1_556 S
H2624 C2608 0.931 . S
H2625 C2613 0.929 . S
H2626 C2614 0.960 . S
H2627 C2614 0.962 . S
H2628 C2614 0.960 1_554 S
H2629 C2615 0.961 . S
H2630 C2615 0.961 . S
H2631 C2615 0.961 . S
H2632 C2616 0.931 . S
H2633 C2621 0.930 . S
H2634 C2622 0.956 . S
H2635 C2622 0.961 1_554 S
H2636 C2622 0.961 . S
H2637 C2623 0.958 . S
H2638 C2623 0.961 . S
H2639 C2623 0.907 1_554 S
C2640 C2641 1.391 . S
C2640 C2642 1.394 . S
C2640 H2656 0.931 . S
C2641 C2640 1.391 . S
C2641 C2645 1.376 . S
C2642 C2640 1.394 . S
C2642 C2643 1.369 . S
C2642 C2646 1.531 . S
C2643 C2642 1.369 . S
C2643 C2644 1.410 . S
C2643 C2651 1.503 . S
C2644 C2643 1.410 . S
C2644 C2645 1.392 . S
C2644 C2647 1.511 . S
C2645 C2641 1.376 . S
C2645 C2644 1.392 . S
C2645 H2657 0.929 . S
C2646 C2642 1.531 . S
C2646 H2658 0.960 . S
C2646 H2659 0.962 . S
C2646 H2660 0.960 . S
C2647 C2644 1.511 . S
C2647 H2661 0.961 . S
C2647 H2662 0.961 . S
C2647 H2663 0.961 . S
C2648 C2649 1.370 . S
C2648 C2650 1.363 . S
C2648 H2664 0.931 . S
C2649 C2648 1.370 . S
C2649 C2653 1.408 . S
C2650 C2648 1.363 . S
C2650 C2651 1.370 . S
C2650 C2654 1.524 . S
C2651 C2643 1.503 . S
C2651 C2650 1.370 . S
C2651 C2652 1.403 . S
C2652 C2651 1.403 . S
C2652 C2653 1.404 . S
C2652 C2655 1.539 . S
C2653 C2649 1.408 . S
C2653 C2652 1.404 . S
C2653 H2665 0.930 . S
C2654 C2650 1.524 . S
C2654 H2666 0.956 . S
C2654 H2667 0.961 . S
C2654 H2668 0.961 . S
C2655 C2652 1.539 . S
C2655 H2669 0.958 . S
C2655 H2670 0.961 . S
C2655 H2671 0.960 . S
H2656 C2640 0.931 . S
H2657 C2645 0.929 . S
H2658 C2646 0.960 . S
H2659 C2646 0.962 . S
H2660 C2646 0.960 . S
H2661 C2647 0.961 . S
H2662 C2647 0.961 . S
H2663 C2647 0.961 . S
H2664 C2648 0.931 . S
H2665 C2653 0.930 . S
H2666 C2654 0.956 . S
H2667 C2654 0.961 . S
H2668 C2654 0.961 . S
H2669 C2655 0.958 . S
H2670 C2655 0.961 . S
H2671 C2655 0.960 . S
C2672 C2673 1.391 . S
C2672 C2674 1.394 . S
C2672 H2688 0.931 . S
C2673 C2672 1.391 . S
C2673 C2677 1.376 . S
C2674 C2672 1.394 . S
C2674 C2675 1.369 . S
C2674 C2678 1.531 . S
C2675 C2674 1.369 . S
C2675 C2676 1.410 . S
C2675 C2683 1.503 1_556 S
C2676 C2675 1.410 . S
C2676 C2677 1.392 . S
C2676 C2679 1.511 1_556 S
C2677 C2673 1.376 . S
C2677 C2676 1.392 . S
C2677 H2689 0.929 . S
C2678 C2674 1.531 . S
C2678 H2690 0.960 . S
C2678 H2691 0.962 . S
C2678 H2692 0.960 . S
C2679 C2676 1.511 1_554 S
C2679 H2693 0.961 1_554 S
C2679 H2694 0.961 . S
C2679 H2695 0.961 . S
C2680 C2681 1.370 . S
C2680 C2682 1.363 . S
C2680 H2696 0.931 . S
C2681 C2680 1.370 . S
C2681 C2685 1.408 . S
C2682 C2680 1.363 . S
C2682 C2683 1.370 . S
C2682 C2686 1.524 . S
C2683 C2675 1.503 1_554 S
C2683 C2682 1.370 . S
C2683 C2684 1.403 . S
C2684 C2683 1.403 . S
C2684 C2685 1.404 . S
C2684 C2687 1.539 . S
C2685 C2681 1.408 . S
C2685 C2684 1.404 . S
C2685 H2697 0.930 . S
C2686 C2682 1.524 . S
C2686 H2698 0.956 1_554 S
C2686 H2699 0.961 1_554 S
C2686 H2700 0.961 . S
C2687 C2684 1.539 . S
C2687 H2701 0.958 . S
C2687 H2702 0.961 . S
C2687 H2703 0.960 . S
H2688 C2672 0.931 . S
H2689 C2677 0.929 . S
H2690 C2678 0.960 . S
H2691 C2678 0.962 . S
H2692 C2678 0.960 . S
H2693 C2679 0.961 1_556 S
H2694 C2679 0.961 . S
H2695 C2679 0.961 . S
H2696 C2680 0.931 . S
H2697 C2685 0.930 . S
H2698 C2686 0.956 1_556 S
H2699 C2686 0.961 1_556 S
H2700 C2686 0.961 . S
H2701 C2687 0.958 . S
H2702 C2687 0.961 . S
H2703 C2687 0.960 . S
C2704 C2705 1.391 . S
C2704 C2706 1.394 . S
C2704 H2720 0.931 . S
C2705 C2704 1.391 . S
C2705 C2709 1.376 . S
C2706 C2704 1.394 . S
C2706 C2707 1.369 . S
C2706 C2710 1.531 . S
C2707 C2706 1.369 . S
C2707 C2708 1.410 . S
C2707 C2715 1.503 . S
C2708 C2707 1.410 . S
C2708 C2709 1.392 . S
C2708 C2711 1.511 . S
C2709 C2705 1.376 . S
C2709 C2708 1.392 . S
C2709 H2721 0.929 . S
C2710 C2706 1.531 . S
C2710 H2722 0.960 . S
C2710 H2723 0.962 . S
C2710 H2724 0.960 . S
C2711 C2708 1.511 . S
C2711 H2725 0.961 . S
C2711 H2726 0.961 . S
C2711 H2727 0.961 . S
C2712 C2713 1.370 . S
C2712 C2714 1.363 . S
C2712 H2728 0.931 . S
C2713 C2712 1.370 . S
C2713 C2717 1.408 . S
C2714 C2712 1.363 . S
C2714 C2715 1.370 . S
C2714 C2718 1.524 . S
C2715 C2707 1.503 . S
C2715 C2714 1.370 . S
C2715 C2716 1.403 . S
C2716 C2715 1.403 . S
C2716 C2717 1.404 . S
C2716 C2719 1.539 . S
C2717 C2713 1.408 . S
C2717 C2716 1.404 . S
C2717 H2729 0.930 . S
C2718 C2714 1.524 . S
C2718 H2730 0.956 . S
C2718 H2731 0.961 . S
C2718 H2732 0.961 . S
C2719 C2716 1.539 . S
C2719 H2733 0.958 . S
C2719 H2734 0.961 . S
C2719 H2735 0.960 . S
H2720 C2704 0.931 . S
H2721 C2709 0.929 . S
H2722 C2710 0.960 . S
H2723 C2710 0.962 . S
H2724 C2710 0.960 . S
H2725 C2711 0.961 . S
H2726 C2711 0.961 . S
H2727 C2711 0.961 . S
H2728 C2712 0.931 . S
H2729 C2717 0.930 . S
H2730 C2718 0.956 . S
H2731 C2718 0.961 . S
H2732 C2718 0.961 . S
H2733 C2719 0.958 . S
H2734 C2719 0.961 . S
H2735 C2719 0.960 . S
C817 C101 1.825 . S
C825 C33 1.847 . S
C849 C67 1.868 . S
C857 C135 1.864 . S
C881 C169 1.834 . S
C889 C237 1.850 . S
C913 C271 1.879 . S
C921 C203 1.869 . S
C945 C441 1.846 . S
C953 C305 1.855 . S
C977 C339 1.864 . S
C985 C475 1.863 . S
C1009 C509 1.833 . S
C1017 C373 1.850 . S
C1041 C543 1.863 . S
C1049 C407 1.862 . S
C1073 C577 1.877 . S
C1081 C679 1.868 . S
C1105 C611 1.883 . S
C1113 C747 1.871 . S
C1137 C645 1.873 . S
C1145 C781 1.867 . S
C1169 C815 1.839 . S
C1177 C713 1.852 . S
C1201 C138 1.556 . S
C1209 C2 1.554 . S
C1233 C172 1.562 . S
C1241 C36 1.555 . S
C1265 C206 1.556 . S
C1273 C70 1.554 . S
C1297 C240 1.562 . S
C1305 C104 1.556 . S
C1329 C274 1.562 . S
C1337 C478 1.556 . S
C1361 C512 1.536 . S
C1369 C308 1.544 . S
C1393 C410 1.562 . S
C1401 C342 1.556 . S
C1425 C444 1.554 . S
C1433 C376 1.554 . S
C1457 C716 1.551 . S
C1465 C546 1.553 . S
C1489 C580 1.531 . S
C1497 C648 1.544 . S
C1521 C614 1.558 . S
C1529 C682 1.555 . S
C1553 C784 1.530 . S
C1561 C750 1.544 . S
C1585 C243 0.919 . S
C1593 C39 0.801 . S
C1617 C73 0.780 . S
C1625 C141 0.859 . S
C1649 C175 0.883 . S
C1657 C107 0.815 . S
C1681 C209 0.883 . S
C1689 C5 0.822 . S
C1713 C753 0.769 . S
C1721 C685 0.866 . S
C1745 C549 0.791 . S
C1753 C583 0.860 . S
C1777 C617 0.804 . S
C1785 C787 0.849 . S
C1809 C719 0.783 . S
C1817 C651 0.862 . S
C1841 C447 0.835 . S
C1849 C515 0.836 . S
C1873 C311 0.902 . S
C1881 C379 0.813 . S
C1905 C345 0.801 . S
C1913 C277 0.850 . S
C1937 C413 0.774 . S
C1945 C481 0.862 . S
C1969 C768 2.279 . S
C1977 C20 2.288 . S
C2001 C564 2.277 . S
C2009 C54 2.289 . S
C2033 C802 2.286 . S
C2041 C88 2.287 . S
C2065 C734 2.298 . S
C2073 C122 2.289 . S
C2097 C156 2.278 . S
C2105 C632 2.297 . S
C2129 C190 2.283 . S
C2137 C666 2.297 . S
C2161 C224 2.287 . S
C2169 C700 2.287 . S
C2193 C598 2.294 . S
C2201 C258 2.296 . S
C2225 C292 2.279 . S
C2233 C462 2.288 . S
C2257 C496 2.294 . S
C2265 C326 2.296 . S
C2289 C530 2.284 . S
C2297 C360 2.287 . S
C2321 C428 2.289 . S
C2329 C394 2.297 . S
C2353 C247 1.458 . S
C2361 C485 1.458 . S
C2385 C145 1.458 . S
C2393 C519 1.458 . S
C2417 C417 1.441 . S
C2425 C179 1.457 . S
C2449 C451 1.463 . S
C2457 C213 1.455 . S
C2481 C43 1.447 . S
C2489 C349 1.454 . S
C2513 C383 1.440 . S
C2521 C77 1.458 . S
C2545 C281 1.459 . S
C2553 C111 1.451 . S
C2577 C315 1.450 . S
C2585 C9 1.460 . S
C2609 C723 1.447 . S
C2617 C689 1.454 . S
C2641 C757 1.465 . S
C2649 C587 1.453 . S
C2673 C621 1.462 . S
C2681 C553 1.456 . S
C2705 C791 1.462 . S
C2713 C655 1.451 . S
