# Generated by pormake.
# Topology msp, (4)-cn, num edge types: 1
# Building blocks:
#     Node 0, Type 0, BuildingBlock: CEKHIL_clean_sbu_0, # of connection points: 4
#     Node 1, Type 0, BuildingBlock: CEKHIL_clean_sbu_0, # of connection points: 4
#     Node 2, Type 0, BuildingBlock: CEKHIL_clean_sbu_0, # of connection points: 4
#     Node 3, Type 0, BuildingBlock: CEKHIL_clean_sbu_0, # of connection points: 4
#     Node 4, Type 0, BuildingBlock: CEKHIL_clean_sbu_0, # of connection points: 4
#     Node 5, Type 0, BuildingBlock: CEKHIL_clean_sbu_0, # of connection points: 4
#     Node 6, Type 0, BuildingBlock: CEKHIL_clean_sbu_0, # of connection points: 4
#     Node 7, Type 0, BuildingBlock: CEKHIL_clean_sbu_0, # of connection points: 4
#     Edge 8, Type (0, 0), BuildingBlock: XUDNAN_clean_linker_2, # of connection points: 2
#     Edge 9, Type (0, 0), BuildingBlock: XUDNAN_clean_linker_2, # of connection points: 2
#     Edge 10, Type (0, 0), BuildingBlock: XUDNAN_clean_linker_2, # of connection points: 2
#     Edge 11, Type (0, 0), BuildingBlock: XUDNAN_clean_linker_2, # of connection points: 2
#     Edge 12, Type (0, 0), BuildingBlock: XUDNAN_clean_linker_2, # of connection points: 2
#     Edge 13, Type (0, 0), BuildingBlock: XUDNAN_clean_linker_2, # of connection points: 2
#     Edge 14, Type (0, 0), BuildingBlock: XUDNAN_clean_linker_2, # of connection points: 2
#     Edge 15, Type (0, 0), BuildingBlock: XUDNAN_clean_linker_2, # of connection points: 2
#     Edge 16, Type (0, 0), BuildingBlock: XUDNAN_clean_linker_2, # of connection points: 2
#     Edge 17, Type (0, 0), BuildingBlock: XUDNAN_clean_linker_2, # of connection points: 2
#     Edge 18, Type (0, 0), BuildingBlock: XUDNAN_clean_linker_2, # of connection points: 2
#     Edge 19, Type (0, 0), BuildingBlock: XUDNAN_clean_linker_2, # of connection points: 2
#     Edge 20, Type (0, 0), BuildingBlock: XUDNAN_clean_linker_2, # of connection points: 2
#     Edge 21, Type (0, 0), BuildingBlock: XUDNAN_clean_linker_2, # of connection points: 2
#     Edge 22, Type (0, 0), BuildingBlock: XUDNAN_clean_linker_2, # of connection points: 2
#     Edge 23, Type (0, 0), BuildingBlock: XUDNAN_clean_linker_2, # of connection points: 2
# Relax obj value: 0.161
# Max RMSD: 0.205
# Mean RMSD: 0.205
data_MOF--net-msp--node1-CEKHIL_clean_sbu_0--edge1-XUDNAN_clean_linker_2
_symmetry_space_group_name_H-M    P1
_symmetry_Int_Tables_number       1
_symmetry_cell_setting            triclinic
loop_
_symmetry_equiv_pos_as_xyz
'x, y, z'
_cell_length_a     23.341155
_cell_length_b     22.941466
_cell_length_c     38.89142
_cell_angle_alpha  90.099258
_cell_angle_beta   98.463974
_cell_angle_gamma 89.959683
loop_
_atom_site_label
_atom_site_type_symbol
_atom_site_fract_x
_atom_site_fract_y
_atom_site_fract_z
_atom_type_partial_charge
Co0 Co 1.00002 0.29508 0.34933 0.0
O1 O 0.93184 0.32178 0.31951 0.0
O2 O 0.9555 0.22917 0.3289 0.0
C3 C 0.99219 0.35065 0.39618 0.0
O4 O 0.06568 0.25246 0.37989 0.0
Co5 Co 0.09938 0.38497 0.36853 0.0
O6 O 0.13218 0.32101 0.39926 0.0
C7 C 0.09216 0.32245 0.30219 0.0
C8 C 0.91846 0.26735 0.31419 0.0
C9 C 0.11337 0.26878 0.39842 0.0
O10 O 0.04704 0.29555 0.30951 0.0
O11 O 0.11775 0.36268 0.32146 0.0
O12 O 0.96141 0.30381 0.38981 0.0
O13 O 0.01887 0.36783 0.37101 0.0
Co14 Co 0.46152 0.30462 0.65178 0.0
O15 O 0.5212 0.33153 0.6877 0.0
O16 O 0.49305 0.23969 0.68005 0.0
C17 C 0.49253 0.35132 0.60694 0.0
O18 O 0.40362 0.26111 0.61632 0.0
Co19 Co 0.37676 0.39521 0.61206 0.0
O20 O 0.36278 0.32939 0.5788 0.0
C21 C 0.35461 0.35112 0.68031 0.0
C22 C 0.52858 0.27736 0.69674 0.0
C23 C 0.37308 0.27642 0.58745 0.0
O24 O 0.39926 0.31749 0.68227 0.0
O25 O 0.34106 0.38774 0.65563 0.0
O26 O 0.51657 0.30295 0.61871 0.0
O27 O 0.45673 0.37386 0.62566 0.0
Co28 Co 0.0217 0.64408 0.6473 0.0
O29 O 0.09058 0.64745 0.68088 0.0
O30 O 0.04803 0.72441 0.65416 0.0
C31 C 0.04985 0.57049 0.61479 0.0
O32 O 0.95009 0.65402 0.61053 0.0
Co33 Co 0.95139 0.52758 0.64627 0.0
O34 O 0.90613 0.56598 0.60549 0.0
C35 C 0.93198 0.62035 0.69602 0.0
C36 C 0.09093 0.70314 0.67581 0.0
C37 C 0.90959 0.6193 0.59667 0.0
O38 O 0.97001 0.65301 0.68462 0.0
O39 O 0.92227 0.5676 0.68603 0.0
O40 O 0.06699 0.62336 0.61046 0.0
O41 O 0.02432 0.56304 0.64172 0.0
Co42 Co 0.50387 0.60601 0.34539 0.0
O43 O 0.4405 0.60258 0.30756 0.0
O44 O 0.47623 0.68369 0.33315 0.0
C45 C 0.47237 0.53549 0.37839 0.0
O46 O 0.56686 0.6263 0.38573 0.0
Co47 Co 0.5842 0.49803 0.36294 0.0
O48 O 0.60679 0.54189 0.40691 0.0
C49 C 0.60608 0.57871 0.307 0.0
C50 C 0.43743 0.65883 0.31035 0.0
C51 C 0.59964 0.59682 0.40895 0.0
O52 O 0.56318 0.61117 0.31248 0.0
O53 O 0.61853 0.53028 0.3227 0.0
O54 O 0.45133 0.58786 0.37862 0.0
O55 O 0.50556 0.52599 0.35519 0.0
Co56 Co 0.54463 0.88228 0.82933 0.0
O57 O 0.48647 0.90514 0.79163 0.0
O58 O 0.49227 0.81745 0.8152 0.0
C59 C 0.53616 0.96049 0.86362 0.0
O60 O 0.5993 0.84553 0.86946 0.0
Co61 Co 0.65371 0.96238 0.84287 0.0
O62 O 0.67422 0.90806 0.88219 0.0
C63 C 0.64982 0.86937 0.79047 0.0
C64 C 0.46452 0.85352 0.79278 0.0
C65 C 0.64804 0.86079 0.88736 0.0
O66 O 0.5987 0.85549 0.7964 0.0
O67 O 0.67778 0.91333 0.80462 0.0
O68 O 0.50032 0.9172 0.86259 0.0
O69 O 0.57056 0.95887 0.84038 0.0
Co70 Co 0.98106 0.83 0.15605 0.0
O71 O 0.03955 0.8516 0.19363 0.0
O72 O 0.03594 0.76609 0.16719 0.0
C73 C 0.98556 0.91223 0.12487 0.0
O74 O 0.92649 0.7954 0.11519 0.0
Co75 Co 0.86927 0.90717 0.14585 0.0
O76 O 0.85085 0.85775 0.10392 0.0
C77 C 0.88037 0.81333 0.19788 0.0
C78 C 0.06326 0.80131 0.19036 0.0
C79 C 0.87825 0.81193 0.09734 0.0
O80 O 0.92953 0.79853 0.18915 0.0
O81 O 0.85192 0.8583 0.18568 0.0
O82 O 0.02251 0.87047 0.1232 0.0
O83 O 0.95239 0.90605 0.14845 0.0
Co84 Co 0.47208 0.22643 0.12177 0.0
O85 O 0.52103 0.17994 0.15488 0.0
O86 O 0.51314 0.2757 0.15829 0.0
C87 C 0.5016 0.18468 0.07449 0.0
O88 O 0.42528 0.28754 0.09133 0.0
Co89 Co 0.37778 0.16466 0.06928 0.0
O90 O 0.38135 0.23959 0.04425 0.0
C91 C 0.3538 0.19234 0.14047 0.0
C92 C 0.53793 0.22779 0.17087 0.0
C93 C 0.39595 0.2868 0.06053 0.0
O94 O 0.40405 0.21636 0.14819 0.0
O95 O 0.33725 0.16656 0.11143 0.0
O96 O 0.53139 0.22642 0.09101 0.0
O97 O 0.45835 0.16635 0.0887 0.0
Co98 Co 0.99034 0.23013 0.87956 0.0
O99 O 0.93543 0.18398 0.84998 0.0
O100 O 0.93509 0.28026 0.85077 0.0
C101 C 0.9827 0.17968 0.92838 0.0
O102 O 0.04147 0.29061 0.90811 0.0
Co103 Co 0.10261 0.16828 0.91336 0.0
O104 O 0.1083 0.23872 0.94313 0.0
C105 C 0.09679 0.21505 0.84243 0.0
C106 C 0.91052 0.23194 0.83857 0.0
C107 C 0.08319 0.28664 0.9337 0.0
O108 O 0.04443 0.23166 0.84367 0.0
O109 O 0.12691 0.18634 0.86694 0.0
O110 O 0.94604 0.2205 0.91763 0.0
O111 O 0.01899 0.1663 0.90742 0.0
H112 H 0.0368 0.45844 0.4189 0.0
H113 H 0.97317 0.29481 0.45461 0.0
H114 H 0.98927 0.33062 0.51474 0.0
H115 H 0.14751 0.48498 0.4949 0.0
H116 H 0.13402 0.56233 0.49548 0.0
H117 H 0.1219 0.52277 0.45498 0.0
H118 H 0.01601 0.56033 0.44378 0.0
H119 H 0.02797 0.60017 0.48411 0.0
H120 H 0.96941 0.54845 0.47618 0.0
H121 H 0.00626 0.38448 0.57039 0.0
H122 H 0.02047 0.45591 0.61842 0.0
H123 H 0.07269 0.58576 0.54813 0.0
C124 C 0.02686 0.43016 0.43949 0.0
C125 C 0.00361 0.37392 0.43202 0.0
C126 C 0.9906 0.33826 0.45959 0.0
C127 C 0.99993 0.35799 0.49395 0.0
C128 C 0.02222 0.41369 0.50052 0.0
C129 C 0.03538 0.44952 0.47419 0.0
C130 C 0.05556 0.50881 0.4885 0.0
C131 C 0.11849 0.52038 0.48315 0.0
C132 C 0.0148 0.55729 0.47217 0.0
C133 C 0.05082 0.50065 0.52673 0.0
C134 C 0.03197 0.44522 0.53305 0.0
C135 C 0.02159 0.42792 0.56591 0.0
C136 C 0.02976 0.46874 0.59303 0.0
C137 C 0.04804 0.52613 0.58708 0.0
C138 C 0.05954 0.54189 0.55359 0.0
H139 H 0.4346 0.55842 0.44055 0.0
H140 H 0.51073 0.42311 0.38354 0.0
H141 H 0.52246 0.36069 0.43575 0.0
H142 H 0.52826 0.54064 0.51876 0.0
H143 H 0.47469 0.55374 0.54687 0.0
H144 H 0.46642 0.58609 0.50428 0.0
H145 H 0.36517 0.53854 0.48858 0.0
H146 H 0.37236 0.50697 0.53139 0.0
H147 H 0.35755 0.46092 0.49353 0.0
H148 H 0.53347 0.31665 0.49502 0.0
H149 H 0.53642 0.2902 0.55663 0.0
H150 H 0.45231 0.45362 0.57543 0.0
C151 C 0.45245 0.51511 0.43881 0.0
C152 C 0.47151 0.4954 0.40796 0.0
C153 C 0.49566 0.43893 0.40689 0.0
C154 C 0.5026 0.40323 0.43642 0.0
C155 C 0.485 0.42466 0.46673 0.0
C156 C 0.45982 0.47897 0.46807 0.0
C157 C 0.44707 0.49255 0.50434 0.0
C158 C 0.48114 0.54646 0.51945 0.0
C159 C 0.38164 0.50018 0.50445 0.0
C160 C 0.46943 0.43756 0.52323 0.0
C161 C 0.49125 0.39909 0.50103 0.0
C162 C 0.51609 0.34618 0.5126 0.0
C163 C 0.51792 0.33178 0.54772 0.0
C164 C 0.49469 0.36994 0.57082 0.0
C165 C 0.47035 0.42361 0.55835 0.0
H166 H 0.44462 0.09803 0.03502 0.0
H167 H 0.589 0.21797 0.03873 0.0
H168 H 0.61238 0.17678 0.98358 0.0
H169 H 0.51433 0.97621 0.00284 0.0
H170 H 0.45003 0.95052 0.97567 0.0
H171 H 0.44385 0.99133 0.01451 0.0
H172 H 0.3766 0.06579 0.97823 0.0
H173 H 0.38263 0.0252 0.93924 0.0
H174 H 0.4011 0.10152 0.9418 0.0
H175 H 0.62135 0.11913 0.92823 0.0
H176 H 0.61507 0.04994 0.87863 0.0
H177 H 0.46466 0.96961 0.91242 0.0
C178 C 0.48096 0.11593 0.02416 0.0
C179 C 0.51495 0.16123 0.04111 0.0
C180 C 0.5623 0.18326 0.02612 0.0
C181 C 0.57587 0.16019 0.99479 0.0
C182 C 0.54157 0.11524 0.97879 0.0
C183 C 0.49504 0.09348 0.99303 0.0
C184 C 0.4657 0.04423 0.97136 0.0
C185 C 0.46869 0.98721 0.99235 0.0
C186 C 0.40279 0.06017 0.95679 0.0
C187 C 0.50321 0.04123 0.94285 0.0
C188 C 0.54668 0.08255 0.94735 0.0
C189 C 0.58725 0.08681 0.92439 0.0
C190 C 0.58337 0.04748 0.89629 0.0
C191 C 0.53937 0.00456 0.89163 0.0
C192 C 0.49876 0.00202 0.91516 0.0
H193 H 0.04026 0.92396 0.06789 0.0
H194 H 0.91666 0.00893 0.12462 0.0
H195 H 0.90608 0.089 0.08159 0.0
H196 H 0.11031 0.05404 0.04258 0.0
H197 H 0.11825 0.02636 0.00013 0.0
H198 H 0.11747 0.97673 0.03591 0.0
H199 H 0.03206 0.91964 0.00074 0.0
H200 H 0.03356 0.96873 0.9648 0.0
H201 H 0.96742 0.95855 0.98279 0.0
H202 H 0.90746 0.15803 0.03198 0.0
H203 H 0.91805 0.21067 0.97813 0.0
H204 H 0.04078 0.08043 0.9534 0.0
C205 C 0.01127 0.95963 0.07144 0.0
C206 C 0.9795 0.9606 0.09969 0.0
C207 C 0.94151 0.00757 0.1032 0.0
C208 C 0.93533 0.05319 0.07896 0.0
C209 C 0.96735 0.05089 0.05141 0.0
C210 C 0.00441 0.00524 0.04743 0.0
C211 C 0.03236 0.01223 0.0149 0.0
C212 C 0.09852 0.01767 0.02394 0.0
C213 C 0.01532 0.96179 0.9893 0.0
C214 C 0.00524 0.06908 0.00113 0.0
C215 C 0.96798 0.09062 0.02266 0.0
C216 C 0.93665 0.14173 0.01501 0.0
C217 C 0.94298 0.17126 0.98433 0.0
C218 C 0.98032 0.14964 0.96164 0.0
C219 C 0.01231 0.0982 0.9704 0.0
H220 H 0.61135 0.31786 0.19579 0.0
H221 H 0.57878 0.13355 0.20877 0.0
H222 H 0.67131 0.12436 0.24785 0.0
H223 H 0.75899 0.30532 0.19174 0.0
H224 H 0.78115 0.37052 0.21602 0.0
H225 H 0.70914 0.3653 0.19218 0.0
H226 H 0.66511 0.38721 0.2482 0.0
H227 H 0.73707 0.39362 0.27209 0.0
H228 H 0.68616 0.34337 0.2864 0.0
H229 H 0.77167 0.13186 0.27998 0.0
H230 H 0.86971 0.15861 0.30866 0.0
H231 H 0.83793 0.33815 0.27619 0.0
C232 C 0.62293 0.27607 0.20774 0.0
C233 C 0.58769 0.22647 0.1993 0.0
C234 C 0.60498 0.17219 0.21486 0.0
C235 C 0.65758 0.16644 0.23708 0.0
C236 C 0.69249 0.21545 0.24377 0.0
C237 C 0.6756 0.26951 0.23013 0.0
C238 C 0.72272 0.31448 0.2404 0.0
C239 C 0.74426 0.34041 0.20816 0.0
C240 C 0.7015 0.3625 0.26313 0.0
C241 C 0.76892 0.27686 0.26119 0.0
C242 C 0.75053 0.21989 0.26278 0.0
C243 C 0.78635 0.17652 0.27933 0.0
C244 C 0.84214 0.19201 0.29532 0.0
C245 C 0.8615 0.25038 0.29474 0.0
C246 C 0.82433 0.29315 0.27722 0.0
H247 H 0.61035 0.34766 0.73404 0.0
H248 H 0.56445 0.16617 0.71364 0.0
H249 H 0.65779 0.13607 0.74724 0.0
H250 H 0.75801 0.3352 0.72556 0.0
H251 H 0.78383 0.38504 0.76027 0.0
H252 H 0.7118 0.39307 0.73678 0.0
H253 H 0.66854 0.38699 0.7943 0.0
H254 H 0.74053 0.37997 0.81806 0.0
H255 H 0.68642 0.32577 0.82288 0.0
H256 H 0.75804 0.12584 0.77839 0.0
H257 H 0.85553 0.13442 0.81157 0.0
H258 H 0.83742 0.32287 0.81359 0.0
C259 C 0.61942 0.30153 0.7372 0.0
C260 C 0.57999 0.25916 0.72127 0.0
C261 C 0.59373 0.19932 0.72578 0.0
C262 C 0.64679 0.18184 0.74464 0.0
C263 C 0.68538 0.22474 0.75903 0.0
C264 C 0.6721 0.28331 0.75608 0.0
C265 C 0.72178 0.32046 0.77375 0.0
C266 C 0.74522 0.36081 0.74751 0.0
C267 C 0.7032 0.35535 0.80406 0.0
C268 C 0.76538 0.27354 0.78675 0.0
C269 C 0.74337 0.21876 0.77771 0.0
C270 C 0.77551 0.16842 0.78596 0.0
C271 C 0.83109 0.17393 0.80474 0.0
C272 C 0.85422 0.22939 0.81538 0.0
C273 C 0.82104 0.27995 0.80583 0.0
H274 H 0.17989 0.66769 0.72494 0.0
H275 H 0.11594 0.81758 0.66289 0.0
H276 H 0.20518 0.87178 0.68598 0.0
H277 H 0.2491 0.74894 0.80041 0.0
H278 H 0.30886 0.69863 0.8088 0.0
H279 H 0.23893 0.67324 0.78855 0.0
H280 H 0.28562 0.63216 0.73713 0.0
H281 H 0.35557 0.65804 0.75697 0.0
H282 H 0.3268 0.68002 0.71336 0.0
H283 H 0.30362 0.90712 0.71334 0.0
H284 H 0.40047 0.92479 0.74613 0.0
H285 H 0.40028 0.75168 0.79109 0.0
C286 C 0.18421 0.71219 0.71645 0.0
C287 C 0.14083 0.73851 0.69208 0.0
C288 C 0.14837 0.79671 0.68165 0.0
C289 C 0.19903 0.82766 0.69451 0.0
C290 C 0.24146 0.79982 0.7179 0.0
C291 C 0.23426 0.74362 0.72908 0.0
C292 C 0.28657 0.72337 0.7541 0.0
C293 C 0.26986 0.71029 0.7901 0.0
C294 C 0.31533 0.67025 0.7395 0.0
C295 C 0.32482 0.77685 0.75508 0.0
C296 C 0.29795 0.82033 0.73391 0.0
C297 C 0.32483 0.87352 0.73012 0.0
C298 C 0.38009 0.88299 0.74883 0.0
C299 C 0.40819 0.83961 0.77126 0.0
C300 C 0.38014 0.78563 0.77413 0.0
H301 H 0.34795 0.6168 0.26284 0.0
H302 H 0.41468 0.77507 0.31559 0.0
H303 H 0.32672 0.82778 0.2897 0.0
H304 H 0.27781 0.68845 0.18267 0.0
H305 H 0.2171 0.63908 0.17751 0.0
H306 H 0.28707 0.6146 0.19829 0.0
H307 H 0.24154 0.5833 0.25221 0.0
H308 H 0.1716 0.60836 0.23184 0.0
H309 H 0.20215 0.63609 0.27396 0.0
H310 H 0.22947 0.86105 0.26274 0.0
H311 H 0.13144 0.87675 0.23163 0.0
H312 H 0.1264 0.69798 0.1942 0.0
C313 C 0.34454 0.66282 0.26844 0.0
C314 C 0.38832 0.6919 0.29124 0.0
C315 C 0.38194 0.75196 0.29813 0.0
C316 C 0.33202 0.78222 0.28363 0.0
C317 C 0.28909 0.75192 0.26206 0.0
C318 C 0.29503 0.69382 0.25402 0.0
C319 C 0.2416 0.67151 0.23062 0.0
C320 C 0.25681 0.65228 0.19516 0.0
C321 C 0.21252 0.62188 0.24822 0.0
C322 C 0.2043 0.72599 0.22728 0.0
C323 C 0.23275 0.77164 0.24577 0.0
C324 C 0.20699 0.82588 0.24785 0.0
C325 C 0.15098 0.83416 0.23016 0.0
C326 C 0.12104 0.78861 0.21034 0.0
C327 C 0.14816 0.73366 0.20901 0.0
H328 H 0.35563 0.26956 0.19523 0.0
H329 H 0.25147 0.13345 0.13895 0.0
H330 H 0.1722 0.15487 0.17241 0.0
H331 H 0.30626 0.24514 0.27919 0.0
H332 H 0.30665 0.32173 0.28963 0.0
H333 H 0.35628 0.2935 0.26236 0.0
H334 H 0.31738 0.36845 0.21481 0.0
H335 H 0.26683 0.39611 0.24166 0.0
H336 H 0.24103 0.37015 0.19838 0.0
H337 H 0.1022 0.19365 0.20997 0.0
H338 H 0.04994 0.24089 0.25317 0.0
H339 H 0.1988 0.3524 0.28498 0.0
C340 C 0.31665 0.24342 0.19041 0.0
C341 C 0.3101 0.19964 0.16441 0.0
C342 C 0.2578 0.16719 0.15866 0.0
C343 C 0.21229 0.17916 0.17746 0.0
C344 C 0.21947 0.22376 0.20202 0.0
C345 C 0.27054 0.25494 0.20889 0.0
C346 C 0.26664 0.30104 0.23647 0.0
C347 C 0.31162 0.28965 0.26883 0.0
C348 C 0.27337 0.36257 0.22195 0.0
C349 C 0.20543 0.29088 0.24395 0.0
C350 C 0.17894 0.24627 0.22367 0.0
C351 C 0.12257 0.22855 0.22609 0.0
C352 C 0.09309 0.25593 0.25063 0.0
C353 C 0.11993 0.30063 0.27256 0.0
C354 C 0.17657 0.31887 0.26851 0.0
H355 H 0.36018 0.27346 0.73537 0.0
H356 H 0.25221 0.40876 0.68088 0.0
H357 H 0.17473 0.38533 0.71486 0.0
H358 H 0.24926 0.17067 0.74053 0.0
H359 H 0.27608 0.14609 0.78392 0.0
H360 H 0.32561 0.17458 0.75674 0.0
H361 H 0.36276 0.2513 0.80371 0.0
H362 H 0.31419 0.22225 0.83133 0.0
H363 H 0.31161 0.29862 0.82042 0.0
H364 H 0.10556 0.34255 0.75022 0.0
H365 H 0.05361 0.29361 0.79249 0.0
H366 H 0.20623 0.18848 0.82715 0.0
C367 C 0.32069 0.2989 0.73101 0.0
C368 C 0.31254 0.34281 0.70515 0.0
C369 C 0.25991 0.37484 0.70035 0.0
C370 C 0.21527 0.3617 0.71944 0.0
C371 C 0.22388 0.31689 0.74367 0.0
C372 C 0.27561 0.28681 0.75021 0.0
C373 C 0.27323 0.24102 0.77815 0.0
C374 C 0.28153 0.17945 0.76397 0.0
C375 C 0.3181 0.2541 0.81031 0.0
C376 C 0.21183 0.24974 0.7858 0.0
C377 C 0.18414 0.29335 0.76526 0.0
C378 C 0.12691 0.30873 0.76677 0.0
C379 C 0.0976 0.28021 0.79077 0.0
C380 C 0.12564 0.23708 0.81339 0.0
C381 C 0.18338 0.22113 0.81032 0.0
H382 H 0.755 0.88332 0.76651 0.0
H383 H 0.61835 0.7571 0.7734 0.0
H384 H 0.67942 0.67972 0.75432 0.0
H385 H 0.80169 0.81862 0.68817 0.0
H386 H 0.87693 0.83511 0.70247 0.0
H387 H 0.82137 0.88116 0.71549 0.0
H388 H 0.86548 0.86571 0.77995 0.0
H389 H 0.92021 0.8183 0.76715 0.0
H390 H 0.87374 0.79272 0.79707 0.0
H391 H 0.75787 0.61424 0.74065 0.0
H392 H 0.84061 0.56707 0.71978 0.0
H393 H 0.92567 0.73533 0.71752 0.0
C394 C 0.73739 0.83967 0.7633 0.0
C395 C 0.68169 0.82657 0.77164 0.0
C396 C 0.66055 0.76869 0.76708 0.0
C397 C 0.6952 0.7241 0.75659 0.0
C398 C 0.75067 0.73803 0.75016 0.0
C399 C 0.77112 0.79457 0.75226 0.0
C400 C 0.83194 0.79756 0.74282 0.0
C401 C 0.83303 0.83534 0.7103 0.0
C402 C 0.8754 0.8199 0.77359 0.0
C403 C 0.8425 0.73374 0.73542 0.0
C404 C 0.79532 0.70024 0.74049 0.0
C405 C 0.79478 0.64008 0.73608 0.0
C406 C 0.84245 0.61363 0.72443 0.0
C407 C 0.88991 0.64731 0.71661 0.0
C408 C 0.89041 0.70811 0.72326 0.0
H409 H 0.77815 0.82937 0.22402 0.0
H410 H 0.91428 0.70223 0.21753 0.0
H411 H 0.85603 0.62731 0.24173 0.0
H412 H 0.73673 0.77483 0.30548 0.0
H413 H 0.66103 0.78998 0.29178 0.0
H414 H 0.71534 0.83399 0.2759 0.0
H415 H 0.6685 0.81097 0.21272 0.0
H416 H 0.61499 0.76561 0.22841 0.0
H417 H 0.66 0.73611 0.19871 0.0
H418 H 0.77994 0.56436 0.26205 0.0
H419 H 0.69828 0.5211 0.28644 0.0
H420 H 0.6121 0.68959 0.28059 0.0
C421 C 0.79637 0.78611 0.22827 0.0
C422 C 0.85094 0.77187 0.21873 0.0
C423 C 0.87284 0.71453 0.22473 0.0
C424 C 0.83982 0.67143 0.23819 0.0
C425 C 0.78522 0.68642 0.24581 0.0
C426 C 0.76415 0.74263 0.24181 0.0
C427 C 0.70417 0.7473 0.25213 0.0
C428 C 0.70435 0.78898 0.28317 0.0
C429 C 0.65928 0.76611 0.22113 0.0
C430 C 0.69462 0.68476 0.2623 0.0
C431 C 0.7417 0.6503 0.25814 0.0
C432 C 0.74305 0.59102 0.26574 0.0
C433 C 0.69615 0.5668 0.27941 0.0
C434 C 0.64859 0.60188 0.28563 0.0
C435 C 0.64739 0.66134 0.27598 0.0
H436 H 0.39082 0.26137 0.52177 0.0
H437 H 0.28835 0.20003 0.5981 0.0
H438 H 0.21637 0.15933 0.55127 0.0
H439 H 0.29055 0.32048 0.4715 0.0
H440 H 0.31149 0.30346 0.42981 0.0
H441 H 0.365 0.3043 0.46764 0.0
H442 H 0.39399 0.19815 0.45568 0.0
H443 H 0.34057 0.197 0.41711 0.0
H444 H 0.33963 0.14178 0.44994 0.0
H445 H 0.14262 0.1586 0.49855 0.0
H446 H 0.07844 0.19586 0.44696 0.0
H447 H 0.22808 0.25524 0.4035 0.0
C448 C 0.35515 0.23562 0.52842 0.0
C449 C 0.34527 0.23247 0.56316 0.0
C450 C 0.29722 0.20113 0.57154 0.0
C451 C 0.25606 0.17813 0.545 0.0
C452 C 0.26436 0.18615 0.51044 0.0
C453 C 0.31388 0.21284 0.50217 0.0
C454 C 0.30778 0.22738 0.46388 0.0
C455 C 0.31927 0.29271 0.45793 0.0
C456 C 0.34786 0.18874 0.44558 0.0
C457 C 0.24496 0.21126 0.45269 0.0
C458 C 0.22108 0.18529 0.47941 0.0
C459 C 0.16126 0.17652 0.47698 0.0
C460 C 0.12495 0.19751 0.44752 0.0
C461 C 0.14881 0.22741 0.42129 0.0
C462 C 0.20939 0.23106 0.42302 0.0
H463 H 0.80017 0.57882 0.58625 0.0
H464 H 0.91139 0.70682 0.54767 0.0
H465 H 0.83248 0.73004 0.49938 0.0
H466 H 0.74796 0.51897 0.50923 0.0
H467 H 0.67587 0.50546 0.51881 0.0
H468 H 0.73547 0.50935 0.55354 0.0
H469 H 0.68258 0.59069 0.58309 0.0
H470 H 0.62264 0.58697 0.54818 0.0
H471 H 0.65857 0.65549 0.55902 0.0
H472 H 0.74632 0.72668 0.45039 0.0
H473 H 0.66697 0.69333 0.40511 0.0
H474 H 0.61614 0.56537 0.47645 0.0
C475 C 0.80772 0.61271 0.56809 0.0
C476 C 0.86192 0.64085 0.57049 0.0
C477 C 0.86997 0.68504 0.54635 0.0
C478 C 0.82534 0.6985 0.51896 0.0
C479 C 0.77292 0.66809 0.51669 0.0
C480 C 0.76407 0.62639 0.54096 0.0
C481 C 0.70753 0.59436 0.53102 0.0
C482 C 0.71735 0.52818 0.52794 0.0
C483 C 0.66534 0.60771 0.55686 0.0
C484 C 0.68727 0.62167 0.49611 0.0
C485 C 0.72431 0.66549 0.48861 0.0
C486 C 0.71653 0.69335 0.45636 0.0
C487 C 0.67126 0.67439 0.43086 0.0
C488 C 0.63557 0.62724 0.43767 0.0
C489 C 0.64254 0.60209 0.47098 0.0
H490 H 0.90692 0.81626 0.03298 0.0
H491 H 0.78487 0.74169 0.09376 0.0
H492 H 0.71647 0.72269 0.04025 0.0
H493 H 0.81665 0.89757 0.98573 0.0
H494 H 0.84366 0.89204 0.94474 0.0
H495 H 0.89126 0.87853 0.98435 0.0
H496 H 0.91581 0.77621 0.96251 0.0
H497 H 0.86878 0.78967 0.92219 0.0
H498 H 0.85824 0.72586 0.94749 0.0
H499 H 0.65161 0.73955 0.98418 0.0
H500 H 0.59975 0.78666 0.93116 0.0
H501 H 0.76343 0.85116 0.90673 0.0
C502 C 0.86765 0.79187 0.03449 0.0
C503 C 0.8517 0.77846 0.06703 0.0
C504 C 0.79843 0.75019 0.06876 0.0
C505 C 0.75921 0.73959 0.03847 0.0
C506 C 0.77412 0.75741 0.00668 0.0
C507 C 0.82787 0.78177 0.00441 0.0
C508 C 0.82941 0.80762 0.9688 0.0
C509 C 0.84615 0.87275 0.97109 0.0
C510 C 0.87049 0.77273 0.94908 0.0
C511 C 0.76697 0.79899 0.95263 0.0
C512 C 0.736 0.76829 0.97426 0.0
C513 C 0.6758 0.76198 0.96652 0.0
C514 C 0.64657 0.78893 0.93644 0.0
C515 C 0.67762 0.82262 0.91504 0.0
C516 C 0.73862 0.82553 0.92267 0.0
H517 H 0.38334 0.32728 0.99476 0.0
H518 H 0.32995 0.35649 0.09497 0.0
H519 H 0.23942 0.4009 0.06671 0.0
H520 H 0.28679 0.46091 0.9468 0.0
H521 H 0.27458 0.41622 0.90825 0.0
H522 H 0.34417 0.41535 0.93551 0.0
H523 H 0.3372 0.30336 0.94046 0.0
H524 H 0.26832 0.30391 0.91382 0.0
H525 H 0.2755 0.27172 0.95655 0.0
H526 H 0.14522 0.39316 0.03093 0.0
H527 H 0.06566 0.34638 0.99194 0.0
H528 H 0.17413 0.3344 0.91162 0.0
C529 C 0.35438 0.34759 0.01054 0.0
C530 C 0.36336 0.33884 0.0468 0.0
C531 C 0.32439 0.36386 0.06716 0.0
C532 C 0.27239 0.38888 0.05115 0.0
C533 C 0.26106 0.39032 0.01485 0.0
C534 C 0.30243 0.37296 0.9947 0.0
C535 C 0.27623 0.36766 0.95674 0.0
C536 C 0.29664 0.41806 0.93559 0.0
C537 C 0.29003 0.30813 0.94109 0.0
C538 C 0.21246 0.37423 0.95967 0.0
C539 C 0.20457 0.38992 0.99312 0.0
C540 C 0.15045 0.38418 0.00425 0.0
C541 C 0.105 0.35792 0.98186 0.0
C542 C 0.11368 0.33884 0.94854 0.0
C543 C 0.16628 0.3515 0.93649 0.0
loop_
_geom_bond_atom_site_label_1
_geom_bond_atom_site_label_2
_geom_bond_distance
_geom_bond_site_symmetry_2
_ccdc_geom_bond_type
Co0 O1 2.216 1_455 S
Co0 O2 2.091 1_455 S
Co0 O4 2.004 . S
Co0 O10 2.021 . S
Co0 O12 2.137 1_455 S
Co0 O13 2.244 . S
O1 Co0 2.216 1_655 S
O1 C8 1.247 . S
O2 Co0 2.091 1_655 S
O2 C8 1.261 . S
C3 O12 1.247 1_455 S
C3 O13 1.272 . S
O4 Co0 2.004 . S
O4 C9 1.259 . S
Co5 O6 2.061 . S
Co5 O11 2.052 . S
Co5 O13 2.135 . S
O6 Co5 2.061 . S
O6 C9 1.235 . S
C7 O10 1.238 . S
C7 O11 1.241 . S
C8 O1 1.247 . S
C8 O2 1.261 . S
C9 O4 1.259 . S
C9 O6 1.235 . S
O10 Co0 2.021 . S
O10 C7 1.238 . S
O11 Co5 2.052 . S
O11 C7 1.241 . S
O12 Co0 2.137 1_655 S
O12 C3 1.247 1_655 S
O13 Co0 2.244 . S
O13 C3 1.272 . S
O13 Co5 2.135 . S
Co14 O15 2.216 . S
Co14 O16 2.091 . S
Co14 O18 2.004 . S
Co14 O24 2.021 . S
Co14 O26 2.137 . S
Co14 O27 2.244 . S
O15 Co14 2.216 . S
O15 C22 1.247 . S
O16 Co14 2.091 . S
O16 C22 1.261 . S
C17 O26 1.247 . S
C17 O27 1.272 . S
O18 Co14 2.004 . S
O18 C23 1.259 . S
Co19 O20 2.061 . S
Co19 O25 2.052 . S
Co19 O27 2.135 . S
O20 Co19 2.061 . S
O20 C23 1.235 . S
C21 O24 1.238 . S
C21 O25 1.241 . S
C22 O15 1.247 . S
C22 O16 1.261 . S
C23 O18 1.259 . S
C23 O20 1.235 . S
O24 Co14 2.021 . S
O24 C21 1.238 . S
O25 Co19 2.052 . S
O25 C21 1.241 . S
O26 Co14 2.137 . S
O26 C17 1.247 . S
O27 Co14 2.244 . S
O27 C17 1.272 . S
O27 Co19 2.135 . S
Co28 O29 2.216 1_655 S
Co28 O30 2.091 1_655 S
Co28 O32 2.004 . S
Co28 O38 2.021 . S
Co28 O40 2.137 1_655 S
Co28 O41 2.244 . S
O29 Co28 2.216 1_455 S
O29 C36 1.247 . S
O30 Co28 2.091 1_455 S
O30 C36 1.261 . S
C31 O40 1.247 1_655 S
C31 O41 1.272 . S
O32 Co28 2.004 . S
O32 C37 1.259 . S
Co33 O34 2.061 . S
Co33 O39 2.052 . S
Co33 O41 2.135 . S
O34 Co33 2.061 . S
O34 C37 1.235 . S
C35 O38 1.238 . S
C35 O39 1.241 . S
C36 O29 1.247 . S
C36 O30 1.261 . S
C37 O32 1.259 . S
C37 O34 1.235 . S
O38 Co28 2.021 . S
O38 C35 1.238 . S
O39 Co33 2.052 . S
O39 C35 1.241 . S
O40 Co28 2.137 1_455 S
O40 C31 1.247 1_455 S
O41 Co28 2.244 . S
O41 C31 1.272 . S
O41 Co33 2.135 . S
Co42 O43 2.216 . S
Co42 O44 2.091 . S
Co42 O46 2.004 . S
Co42 O52 2.021 . S
Co42 O54 2.137 . S
Co42 O55 2.244 . S
O43 Co42 2.216 . S
O43 C50 1.247 . S
O44 Co42 2.091 . S
O44 C50 1.261 . S
C45 O54 1.247 . S
C45 O55 1.272 . S
O46 Co42 2.004 . S
O46 C51 1.259 . S
Co47 O48 2.061 . S
Co47 O53 2.052 . S
Co47 O55 2.135 . S
O48 Co47 2.061 . S
O48 C51 1.235 . S
C49 O52 1.238 . S
C49 O53 1.241 . S
C50 O43 1.247 . S
C50 O44 1.261 . S
C51 O46 1.259 . S
C51 O48 1.235 . S
O52 Co42 2.021 . S
O52 C49 1.238 . S
O53 Co47 2.052 . S
O53 C49 1.241 . S
O54 Co42 2.137 . S
O54 C45 1.247 . S
O55 Co42 2.244 . S
O55 C45 1.272 . S
O55 Co47 2.135 . S
Co56 O57 2.216 . S
Co56 O58 2.091 . S
Co56 O60 2.004 . S
Co56 O66 2.021 . S
Co56 O68 2.137 . S
Co56 O69 2.244 . S
O57 Co56 2.216 . S
O57 C64 1.247 . S
O58 Co56 2.091 . S
O58 C64 1.261 . S
C59 O68 1.247 . S
C59 O69 1.272 . S
O60 Co56 2.004 . S
O60 C65 1.259 . S
Co61 O62 2.061 . S
Co61 O67 2.052 . S
Co61 O69 2.135 . S
O62 Co61 2.061 . S
O62 C65 1.235 . S
C63 O66 1.238 . S
C63 O67 1.241 . S
C64 O57 1.247 . S
C64 O58 1.261 . S
C65 O60 1.259 . S
C65 O62 1.235 . S
O66 Co56 2.021 . S
O66 C63 1.238 . S
O67 Co61 2.052 . S
O67 C63 1.241 . S
O68 Co56 2.137 . S
O68 C59 1.247 . S
O69 Co56 2.244 . S
O69 C59 1.272 . S
O69 Co61 2.135 . S
Co70 O71 2.216 1_655 S
Co70 O72 2.091 1_655 S
Co70 O74 2.004 . S
Co70 O80 2.021 . S
Co70 O82 2.137 1_655 S
Co70 O83 2.244 . S
O71 Co70 2.216 1_455 S
O71 C78 1.247 . S
O72 Co70 2.091 1_455 S
O72 C78 1.261 . S
C73 O82 1.247 1_655 S
C73 O83 1.272 . S
O74 Co70 2.004 . S
O74 C79 1.259 . S
Co75 O76 2.061 . S
Co75 O81 2.052 . S
Co75 O83 2.135 . S
O76 Co75 2.061 . S
O76 C79 1.235 . S
C77 O80 1.238 . S
C77 O81 1.241 . S
C78 O71 1.247 . S
C78 O72 1.261 . S
C79 O74 1.259 . S
C79 O76 1.235 . S
O80 Co70 2.021 . S
O80 C77 1.238 . S
O81 Co75 2.052 . S
O81 C77 1.241 . S
O82 Co70 2.137 1_455 S
O82 C73 1.247 1_455 S
O83 Co70 2.244 . S
O83 C73 1.272 . S
O83 Co75 2.135 . S
Co84 O85 2.216 . S
Co84 O86 2.091 . S
Co84 O88 2.004 . S
Co84 O94 2.021 . S
Co84 O96 2.137 . S
Co84 O97 2.244 . S
O85 Co84 2.216 . S
O85 C92 1.247 . S
O86 Co84 2.091 . S
O86 C92 1.261 . S
C87 O96 1.247 . S
C87 O97 1.272 . S
O88 Co84 2.004 . S
O88 C93 1.259 . S
Co89 O90 2.061 . S
Co89 O95 2.052 . S
Co89 O97 2.135 . S
O90 Co89 2.061 . S
O90 C93 1.235 . S
C91 O94 1.238 . S
C91 O95 1.241 . S
C92 O85 1.247 . S
C92 O86 1.261 . S
C93 O88 1.259 . S
C93 O90 1.235 . S
O94 Co84 2.021 . S
O94 C91 1.238 . S
O95 Co89 2.052 . S
O95 C91 1.241 . S
O96 Co84 2.137 . S
O96 C87 1.247 . S
O97 Co84 2.244 . S
O97 C87 1.272 . S
O97 Co89 2.135 . S
Co98 O99 2.216 1_455 S
Co98 O100 2.091 1_455 S
Co98 O102 2.004 . S
Co98 O108 2.021 . S
Co98 O110 2.137 1_455 S
Co98 O111 2.244 . S
O99 Co98 2.216 1_655 S
O99 C106 1.247 . S
O100 Co98 2.091 1_655 S
O100 C106 1.261 . S
C101 O110 1.247 1_455 S
C101 O111 1.272 . S
O102 Co98 2.004 . S
O102 C107 1.259 . S
Co103 O104 2.061 . S
Co103 O109 2.052 . S
Co103 O111 2.135 . S
O104 Co103 2.061 . S
O104 C107 1.235 . S
C105 O108 1.238 . S
C105 O109 1.241 . S
C106 O99 1.247 . S
C106 O100 1.261 . S
C107 O102 1.259 . S
C107 O104 1.235 . S
O108 Co98 2.021 . S
O108 C105 1.238 . S
O109 Co103 2.052 . S
O109 C105 1.241 . S
O110 Co98 2.137 1_655 S
O110 C101 1.247 1_655 S
O111 Co98 2.244 . S
O111 C101 1.272 . S
O111 Co103 2.135 . S
H112 C124 0.930 . S
H113 C126 0.930 . S
H114 C127 0.930 . S
H115 C131 0.959 1_455 S
H116 C131 0.959 . S
H117 C131 0.961 . S
H118 C132 0.960 . S
H119 C132 0.961 . S
H120 C132 0.959 . S
H121 C135 0.929 . S
H122 C136 0.931 . S
H123 C138 0.930 . S
C124 H112 0.930 . S
C124 C125 1.399 1_655 S
C124 C129 1.399 . S
C125 C124 1.399 1_455 S
C125 C126 1.376 . S
C126 H113 0.930 . S
C126 C125 1.376 . S
C126 C127 1.388 . S
C127 H114 0.930 . S
C127 C126 1.388 . S
C127 C128 1.390 . S
C128 C127 1.390 . S
C128 C129 1.394 1_455 S
C128 C134 1.465 . S
C129 C124 1.399 . S
C129 C128 1.394 1_655 S
C129 C130 1.516 . S
C130 C129 1.516 . S
C130 C131 1.502 . S
C130 C132 1.561 . S
C130 C133 1.526 . S
C131 H115 0.959 1_655 S
C131 H116 0.959 . S
C131 H117 0.961 . S
C131 C130 1.502 . S
C132 H118 0.960 . S
C132 H119 0.961 . S
C132 H120 0.959 . S
C132 C130 1.561 . S
C133 C130 1.526 . S
C133 C134 1.396 1_655 S
C133 C138 1.390 . S
C134 C128 1.465 . S
C134 C133 1.396 1_455 S
C134 C135 1.399 . S
C135 H121 0.929 . S
C135 C134 1.399 . S
C135 C136 1.385 . S
C136 H122 0.931 . S
C136 C135 1.385 . S
C136 C137 1.389 1_455 S
C137 C136 1.389 1_655 S
C137 C138 1.387 . S
C138 H123 0.930 . S
C138 C133 1.390 . S
C138 C137 1.387 . S
H139 C151 0.930 . S
H140 C153 0.930 . S
H141 C154 0.930 . S
H142 C158 0.959 . S
H143 C158 0.959 . S
H144 C158 0.961 . S
H145 C159 0.960 . S
H146 C159 0.961 . S
H147 C159 0.959 . S
H148 C162 0.929 . S
H149 C163 0.931 . S
H150 C165 0.930 . S
C151 H139 0.930 . S
C151 C152 1.399 . S
C151 C156 1.399 . S
C152 C151 1.399 . S
C152 C153 1.376 . S
C153 H140 0.930 . S
C153 C152 1.376 . S
C153 C154 1.388 . S
C154 H141 0.930 . S
C154 C153 1.388 . S
C154 C155 1.390 . S
C155 C154 1.390 . S
C155 C156 1.394 . S
C155 C161 1.465 . S
C156 C151 1.399 . S
C156 C155 1.394 . S
C156 C157 1.516 . S
C157 C156 1.516 . S
C157 C158 1.502 . S
C157 C159 1.561 . S
C157 C160 1.526 . S
C158 H142 0.959 . S
C158 H143 0.959 . S
C158 H144 0.961 . S
C158 C157 1.502 . S
C159 H145 0.960 . S
C159 H146 0.961 . S
C159 H147 0.959 . S
C159 C157 1.561 . S
C160 C157 1.526 . S
C160 C161 1.396 . S
C160 C165 1.390 . S
C161 C155 1.465 . S
C161 C160 1.396 . S
C161 C162 1.399 . S
C162 H148 0.929 . S
C162 C161 1.399 . S
C162 C163 1.385 . S
C163 H149 0.931 . S
C163 C162 1.385 . S
C163 C164 1.389 . S
C164 C163 1.389 . S
C164 C165 1.387 . S
C165 H150 0.930 . S
C165 C160 1.390 . S
C165 C164 1.387 . S
H166 C178 0.930 . S
H167 C180 0.930 . S
H168 C181 0.930 . S
H169 C185 0.959 . S
H170 C185 0.959 . S
H171 C185 0.961 . S
H172 C186 0.960 . S
H173 C186 0.961 . S
H174 C186 0.959 . S
H175 C189 0.929 . S
H176 C190 0.931 . S
H177 C192 0.930 . S
C178 H166 0.930 . S
C178 C179 1.399 . S
C178 C183 1.399 . S
C179 C178 1.399 . S
C179 C180 1.376 . S
C180 H167 0.930 . S
C180 C179 1.376 . S
C180 C181 1.388 1_554 S
C181 H168 0.930 . S
C181 C180 1.388 1_556 S
C181 C182 1.389 1_556 S
C182 C181 1.389 1_554 S
C182 C183 1.405 . S
C182 C188 1.445 1_544 S
C183 C178 1.399 . S
C183 C182 1.405 . S
C183 C184 1.516 1_545 S
C184 C183 1.516 1_565 S
C184 C185 1.502 . S
C184 C186 1.561 . S
C184 C187 1.526 1_554 S
C185 H169 0.959 . S
C185 H170 0.959 . S
C185 H171 0.961 . S
C185 C184 1.502 . S
C186 H172 0.960 . S
C186 H173 0.961 . S
C186 H174 0.959 . S
C186 C184 1.561 . S
C187 C184 1.526 1_556 S
C187 C188 1.410 . S
C187 C192 1.390 . S
C188 C182 1.445 1_566 S
C188 C187 1.410 . S
C188 C189 1.397 1_565 S
C189 H175 0.929 . S
C189 C188 1.397 1_545 S
C189 C190 1.385 1_545 S
C190 H176 0.931 . S
C190 C189 1.385 1_565 S
C190 C191 1.389 . S
C191 C190 1.389 . S
C191 C192 1.387 . S
C192 H177 0.930 . S
C192 C187 1.390 . S
C192 C191 1.387 . S
H193 C205 0.930 . S
H194 C207 0.930 . S
H195 C208 0.930 1_545 S
H196 C212 0.959 1_554 S
H197 C212 0.959 . S
H198 C212 0.961 1_554 S
H199 C213 0.960 . S
H200 C213 0.961 . S
H201 C213 0.959 1_655 S
H202 C216 0.929 . S
H203 C217 0.931 . S
H204 C219 0.930 . S
C205 H193 0.930 . S
C205 C206 1.399 1_455 S
C205 C210 1.399 . S
C206 C205 1.399 1_655 S
C206 C207 1.376 . S
C207 H194 0.930 . S
C207 C206 1.376 . S
C207 C208 1.388 . S
C208 H195 0.930 1_565 S
C208 C207 1.388 . S
C208 C209 1.390 . S
C209 C208 1.390 . S
C209 C210 1.394 1_655 S
C209 C215 1.465 1_564 S
C210 C205 1.399 . S
C210 C209 1.394 1_455 S
C210 C211 1.516 1_554 S
C211 C210 1.516 1_556 S
C211 C212 1.502 . S
C211 C213 1.561 . S
C211 C214 1.526 1_565 S
C212 H196 0.959 1_556 S
C212 H197 0.959 . S
C212 H198 0.961 1_556 S
C212 C211 1.502 . S
C213 H199 0.960 . S
C213 H200 0.961 . S
C213 H201 0.959 1_455 S
C213 C211 1.561 . S
C214 C211 1.526 1_545 S
C214 C215 1.396 1_455 S
C214 C219 1.390 . S
C215 C209 1.465 1_546 S
C215 C214 1.396 1_655 S
C215 C216 1.399 . S
C216 H202 0.929 . S
C216 C215 1.399 . S
C216 C217 1.385 . S
C217 H203 0.931 . S
C217 C216 1.385 . S
C217 C218 1.389 1_655 S
C218 C217 1.389 1_455 S
C218 C219 1.387 . S
C219 H204 0.930 . S
C219 C214 1.390 . S
C219 C218 1.387 . S
H220 C232 0.930 . S
H221 C234 0.930 . S
H222 C235 0.930 . S
H223 C239 0.959 . S
H224 C239 0.959 . S
H225 C239 0.961 . S
H226 C240 0.960 . S
H227 C240 0.961 . S
H228 C240 0.959 . S
H229 C243 0.929 . S
H230 C244 0.931 . S
H231 C246 0.930 . S
C232 H220 0.930 . S
C232 C233 1.399 . S
C232 C237 1.399 . S
C233 C232 1.399 . S
C233 C234 1.376 . S
C234 H221 0.930 . S
C234 C233 1.376 . S
C234 C235 1.388 . S
C235 H222 0.930 . S
C235 C234 1.388 . S
C235 C236 1.390 . S
C236 C235 1.390 . S
C236 C237 1.394 . S
C236 C242 1.465 . S
C237 C232 1.399 . S
C237 C236 1.394 . S
C237 C238 1.516 . S
C238 C237 1.516 . S
C238 C239 1.502 . S
C238 C240 1.561 . S
C238 C241 1.526 . S
C239 H223 0.959 . S
C239 H224 0.959 . S
C239 H225 0.961 . S
C239 C238 1.502 . S
C240 H226 0.960 . S
C240 H227 0.961 . S
C240 H228 0.959 . S
C240 C238 1.561 . S
C241 C238 1.526 . S
C241 C242 1.396 . S
C241 C246 1.390 . S
C242 C236 1.465 . S
C242 C241 1.396 . S
C242 C243 1.399 . S
C243 H229 0.929 . S
C243 C242 1.399 . S
C243 C244 1.385 . S
C244 H230 0.931 . S
C244 C243 1.385 . S
C244 C245 1.389 . S
C245 C244 1.389 . S
C245 C246 1.387 . S
C246 H231 0.930 . S
C246 C241 1.390 . S
C246 C245 1.387 . S
H247 C259 0.930 . S
H248 C261 0.930 . S
H249 C262 0.930 . S
H250 C266 0.959 . S
H251 C266 0.959 . S
H252 C266 0.961 . S
H253 C267 0.960 . S
H254 C267 0.961 . S
H255 C267 0.959 . S
H256 C270 0.929 . S
H257 C271 0.931 . S
H258 C273 0.930 . S
C259 H247 0.930 . S
C259 C260 1.399 . S
C259 C264 1.399 . S
C260 C259 1.399 . S
C260 C261 1.376 . S
C261 H248 0.930 . S
C261 C260 1.376 . S
C261 C262 1.388 . S
C262 H249 0.930 . S
C262 C261 1.388 . S
C262 C263 1.390 . S
C263 C262 1.390 . S
C263 C264 1.394 . S
C263 C269 1.465 . S
C264 C259 1.399 . S
C264 C263 1.394 . S
C264 C265 1.516 . S
C265 C264 1.516 . S
C265 C266 1.502 . S
C265 C267 1.561 . S
C265 C268 1.526 . S
C266 H250 0.959 . S
C266 H251 0.959 . S
C266 H252 0.961 . S
C266 C265 1.502 . S
C267 H253 0.960 . S
C267 H254 0.961 . S
C267 H255 0.959 . S
C267 C265 1.561 . S
C268 C265 1.526 . S
C268 C269 1.396 . S
C268 C273 1.390 . S
C269 C263 1.465 . S
C269 C268 1.396 . S
C269 C270 1.399 . S
C270 H256 0.929 . S
C270 C269 1.399 . S
C270 C271 1.385 . S
C271 H257 0.931 . S
C271 C270 1.385 . S
C271 C272 1.389 . S
C272 C271 1.389 . S
C272 C273 1.387 . S
C273 H258 0.930 . S
C273 C268 1.390 . S
C273 C272 1.387 . S
H274 C286 0.930 . S
H275 C288 0.930 . S
H276 C289 0.930 . S
H277 C293 0.959 . S
H278 C293 0.959 . S
H279 C293 0.961 . S
H280 C294 0.960 . S
H281 C294 0.961 . S
H282 C294 0.959 . S
H283 C297 0.929 . S
H284 C298 0.931 . S
H285 C300 0.930 . S
C286 H274 0.930 . S
C286 C287 1.399 . S
C286 C291 1.399 . S
C287 C286 1.399 . S
C287 C288 1.376 . S
C288 H275 0.930 . S
C288 C287 1.376 . S
C288 C289 1.388 . S
C289 H276 0.930 . S
C289 C288 1.388 . S
C289 C290 1.390 . S
C290 C289 1.390 . S
C290 C291 1.394 . S
C290 C296 1.465 . S
C291 C286 1.399 . S
C291 C290 1.394 . S
C291 C292 1.516 . S
C292 C291 1.516 . S
C292 C293 1.502 . S
C292 C294 1.561 . S
C292 C295 1.526 . S
C293 H277 0.959 . S
C293 H278 0.959 . S
C293 H279 0.961 . S
C293 C292 1.502 . S
C294 H280 0.960 . S
C294 H281 0.961 . S
C294 H282 0.959 . S
C294 C292 1.561 . S
C295 C292 1.526 . S
C295 C296 1.396 . S
C295 C300 1.390 . S
C296 C290 1.465 . S
C296 C295 1.396 . S
C296 C297 1.399 . S
C297 H283 0.929 . S
C297 C296 1.399 . S
C297 C298 1.385 . S
C298 H284 0.931 . S
C298 C297 1.385 . S
C298 C299 1.389 . S
C299 C298 1.389 . S
C299 C300 1.387 . S
C300 H285 0.930 . S
C300 C295 1.390 . S
C300 C299 1.387 . S
H301 C313 0.930 . S
H302 C315 0.930 . S
H303 C316 0.930 . S
H304 C320 0.959 . S
H305 C320 0.959 . S
H306 C320 0.961 . S
H307 C321 0.960 . S
H308 C321 0.961 . S
H309 C321 0.959 . S
H310 C324 0.929 . S
H311 C325 0.931 . S
H312 C327 0.930 . S
C313 H301 0.930 . S
C313 C314 1.399 . S
C313 C318 1.399 . S
C314 C313 1.399 . S
C314 C315 1.376 . S
C315 H302 0.930 . S
C315 C314 1.376 . S
C315 C316 1.388 . S
C316 H303 0.930 . S
C316 C315 1.388 . S
C316 C317 1.390 . S
C317 C316 1.390 . S
C317 C318 1.394 . S
C317 C323 1.465 . S
C318 C313 1.399 . S
C318 C317 1.394 . S
C318 C319 1.516 . S
C319 C318 1.516 . S
C319 C320 1.502 . S
C319 C321 1.561 . S
C319 C322 1.526 . S
C320 H304 0.959 . S
C320 H305 0.959 . S
C320 H306 0.961 . S
C320 C319 1.502 . S
C321 H307 0.960 . S
C321 H308 0.961 . S
C321 H309 0.959 . S
C321 C319 1.561 . S
C322 C319 1.526 . S
C322 C323 1.396 . S
C322 C327 1.390 . S
C323 C317 1.465 . S
C323 C322 1.396 . S
C323 C324 1.399 . S
C324 H310 0.929 . S
C324 C323 1.399 . S
C324 C325 1.385 . S
C325 H311 0.931 . S
C325 C324 1.385 . S
C325 C326 1.389 . S
C326 C325 1.389 . S
C326 C327 1.387 . S
C327 H312 0.930 . S
C327 C322 1.390 . S
C327 C326 1.387 . S
H328 C340 0.930 . S
H329 C342 0.930 . S
H330 C343 0.930 . S
H331 C347 0.959 . S
H332 C347 0.959 . S
H333 C347 0.961 . S
H334 C348 0.960 . S
H335 C348 0.961 . S
H336 C348 0.959 . S
H337 C351 0.929 . S
H338 C352 0.931 . S
H339 C354 0.930 . S
C340 H328 0.930 . S
C340 C341 1.399 . S
C340 C345 1.399 . S
C341 C340 1.399 . S
C341 C342 1.376 . S
C342 H329 0.930 . S
C342 C341 1.376 . S
C342 C343 1.388 . S
C343 H330 0.930 . S
C343 C342 1.388 . S
C343 C344 1.390 . S
C344 C343 1.390 . S
C344 C345 1.394 . S
C344 C350 1.465 . S
C345 C340 1.399 . S
C345 C344 1.394 . S
C345 C346 1.516 . S
C346 C345 1.516 . S
C346 C347 1.502 . S
C346 C348 1.561 . S
C346 C349 1.526 . S
C347 H331 0.959 . S
C347 H332 0.959 . S
C347 H333 0.961 . S
C347 C346 1.502 . S
C348 H334 0.960 . S
C348 H335 0.961 . S
C348 H336 0.959 . S
C348 C346 1.561 . S
C349 C346 1.526 . S
C349 C350 1.396 . S
C349 C354 1.390 . S
C350 C344 1.465 . S
C350 C349 1.396 . S
C350 C351 1.399 . S
C351 H337 0.929 . S
C351 C350 1.399 . S
C351 C352 1.385 . S
C352 H338 0.931 . S
C352 C351 1.385 . S
C352 C353 1.389 . S
C353 C352 1.389 . S
C353 C354 1.387 . S
C354 H339 0.930 . S
C354 C349 1.390 . S
C354 C353 1.387 . S
H355 C367 0.930 . S
H356 C369 0.930 . S
H357 C370 0.930 . S
H358 C374 0.959 . S
H359 C374 0.959 . S
H360 C374 0.961 . S
H361 C375 0.960 . S
H362 C375 0.961 . S
H363 C375 0.959 . S
H364 C378 0.929 . S
H365 C379 0.931 . S
H366 C381 0.930 . S
C367 H355 0.930 . S
C367 C368 1.399 . S
C367 C372 1.399 . S
C368 C367 1.399 . S
C368 C369 1.376 . S
C369 H356 0.930 . S
C369 C368 1.376 . S
C369 C370 1.388 . S
C370 H357 0.930 . S
C370 C369 1.388 . S
C370 C371 1.390 . S
C371 C370 1.390 . S
C371 C372 1.394 . S
C371 C377 1.465 . S
C372 C367 1.399 . S
C372 C371 1.394 . S
C372 C373 1.516 . S
C373 C372 1.516 . S
C373 C374 1.502 . S
C373 C375 1.561 . S
C373 C376 1.526 . S
C374 H358 0.959 . S
C374 H359 0.959 . S
C374 H360 0.961 . S
C374 C373 1.502 . S
C375 H361 0.960 . S
C375 H362 0.961 . S
C375 H363 0.959 . S
C375 C373 1.561 . S
C376 C373 1.526 . S
C376 C377 1.396 . S
C376 C381 1.390 . S
C377 C371 1.465 . S
C377 C376 1.396 . S
C377 C378 1.399 . S
C378 H364 0.929 . S
C378 C377 1.399 . S
C378 C379 1.385 . S
C379 H365 0.931 . S
C379 C378 1.385 . S
C379 C380 1.389 . S
C380 C379 1.389 . S
C380 C381 1.387 . S
C381 H366 0.930 . S
C381 C376 1.390 . S
C381 C380 1.387 . S
H382 C394 0.930 . S
H383 C396 0.930 . S
H384 C397 0.930 . S
H385 C401 0.959 . S
H386 C401 0.959 . S
H387 C401 0.961 . S
H388 C402 0.960 . S
H389 C402 0.961 . S
H390 C402 0.959 . S
H391 C405 0.929 . S
H392 C406 0.931 . S
H393 C408 0.930 . S
C394 H382 0.930 . S
C394 C395 1.399 . S
C394 C399 1.399 . S
C395 C394 1.399 . S
C395 C396 1.376 . S
C396 H383 0.930 . S
C396 C395 1.376 . S
C396 C397 1.388 . S
C397 H384 0.930 . S
C397 C396 1.388 . S
C397 C398 1.390 . S
C398 C397 1.390 . S
C398 C399 1.394 . S
C398 C404 1.465 . S
C399 C394 1.399 . S
C399 C398 1.394 . S
C399 C400 1.516 . S
C400 C399 1.516 . S
C400 C401 1.502 . S
C400 C402 1.561 . S
C400 C403 1.526 . S
C401 H385 0.959 . S
C401 H386 0.959 . S
C401 H387 0.961 . S
C401 C400 1.502 . S
C402 H388 0.960 . S
C402 H389 0.961 . S
C402 H390 0.959 . S
C402 C400 1.561 . S
C403 C400 1.526 . S
C403 C404 1.396 . S
C403 C408 1.390 . S
C404 C398 1.465 . S
C404 C403 1.396 . S
C404 C405 1.399 . S
C405 H391 0.929 . S
C405 C404 1.399 . S
C405 C406 1.385 . S
C406 H392 0.931 . S
C406 C405 1.385 . S
C406 C407 1.389 . S
C407 C406 1.389 . S
C407 C408 1.387 . S
C408 H393 0.930 . S
C408 C403 1.390 . S
C408 C407 1.387 . S
H409 C421 0.930 . S
H410 C423 0.930 . S
H411 C424 0.930 . S
H412 C428 0.959 . S
H413 C428 0.959 . S
H414 C428 0.961 . S
H415 C429 0.960 . S
H416 C429 0.961 . S
H417 C429 0.959 . S
H418 C432 0.929 . S
H419 C433 0.931 . S
H420 C435 0.930 . S
C421 H409 0.930 . S
C421 C422 1.399 . S
C421 C426 1.399 . S
C422 C421 1.399 . S
C422 C423 1.376 . S
C423 H410 0.930 . S
C423 C422 1.376 . S
C423 C424 1.388 . S
C424 H411 0.930 . S
C424 C423 1.388 . S
C424 C425 1.390 . S
C425 C424 1.390 . S
C425 C426 1.394 . S
C425 C431 1.465 . S
C426 C421 1.399 . S
C426 C425 1.394 . S
C426 C427 1.516 . S
C427 C426 1.516 . S
C427 C428 1.502 . S
C427 C429 1.561 . S
C427 C430 1.526 . S
C428 H412 0.959 . S
C428 H413 0.959 . S
C428 H414 0.961 . S
C428 C427 1.502 . S
C429 H415 0.960 . S
C429 H416 0.961 . S
C429 H417 0.959 . S
C429 C427 1.561 . S
C430 C427 1.526 . S
C430 C431 1.396 . S
C430 C435 1.390 . S
C431 C425 1.465 . S
C431 C430 1.396 . S
C431 C432 1.399 . S
C432 H418 0.929 . S
C432 C431 1.399 . S
C432 C433 1.385 . S
C433 H419 0.931 . S
C433 C432 1.385 . S
C433 C434 1.389 . S
C434 C433 1.389 . S
C434 C435 1.387 . S
C435 H420 0.930 . S
C435 C430 1.390 . S
C435 C434 1.387 . S
H436 C448 0.930 . S
H437 C450 0.930 . S
H438 C451 0.930 . S
H439 C455 0.959 . S
H440 C455 0.959 . S
H441 C455 0.961 . S
H442 C456 0.960 . S
H443 C456 0.961 . S
H444 C456 0.959 . S
H445 C459 0.929 . S
H446 C460 0.931 . S
H447 C462 0.930 . S
C448 H436 0.930 . S
C448 C449 1.399 . S
C448 C453 1.399 . S
C449 C448 1.399 . S
C449 C450 1.376 . S
C450 H437 0.930 . S
C450 C449 1.376 . S
C450 C451 1.388 . S
C451 H438 0.930 . S
C451 C450 1.388 . S
C451 C452 1.390 . S
C452 C451 1.390 . S
C452 C453 1.394 . S
C452 C458 1.465 . S
C453 C448 1.399 . S
C453 C452 1.394 . S
C453 C454 1.516 . S
C454 C453 1.516 . S
C454 C455 1.502 . S
C454 C456 1.561 . S
C454 C457 1.526 . S
C455 H439 0.959 . S
C455 H440 0.959 . S
C455 H441 0.961 . S
C455 C454 1.502 . S
C456 H442 0.960 . S
C456 H443 0.961 . S
C456 H444 0.959 . S
C456 C454 1.561 . S
C457 C454 1.526 . S
C457 C458 1.396 . S
C457 C462 1.390 . S
C458 C452 1.465 . S
C458 C457 1.396 . S
C458 C459 1.399 . S
C459 H445 0.929 . S
C459 C458 1.399 . S
C459 C460 1.385 . S
C460 H446 0.931 . S
C460 C459 1.385 . S
C460 C461 1.389 . S
C461 C460 1.389 . S
C461 C462 1.387 . S
C462 H447 0.930 . S
C462 C457 1.390 . S
C462 C461 1.387 . S
H463 C475 0.930 . S
H464 C477 0.930 . S
H465 C478 0.930 . S
H466 C482 0.959 . S
H467 C482 0.959 . S
H468 C482 0.961 . S
H469 C483 0.960 . S
H470 C483 0.961 . S
H471 C483 0.959 . S
H472 C486 0.929 . S
H473 C487 0.931 . S
H474 C489 0.930 . S
C475 H463 0.930 . S
C475 C476 1.399 . S
C475 C480 1.399 . S
C476 C475 1.399 . S
C476 C477 1.376 . S
C477 H464 0.930 . S
C477 C476 1.376 . S
C477 C478 1.388 . S
C478 H465 0.930 . S
C478 C477 1.388 . S
C478 C479 1.390 . S
C479 C478 1.390 . S
C479 C480 1.394 . S
C479 C485 1.465 . S
C480 C475 1.399 . S
C480 C479 1.394 . S
C480 C481 1.516 . S
C481 C480 1.516 . S
C481 C482 1.502 . S
C481 C483 1.561 . S
C481 C484 1.526 . S
C482 H466 0.959 . S
C482 H467 0.959 . S
C482 H468 0.961 . S
C482 C481 1.502 . S
C483 H469 0.960 . S
C483 H470 0.961 . S
C483 H471 0.959 . S
C483 C481 1.561 . S
C484 C481 1.526 . S
C484 C485 1.396 . S
C484 C489 1.390 . S
C485 C479 1.465 . S
C485 C484 1.396 . S
C485 C486 1.399 . S
C486 H472 0.929 . S
C486 C485 1.399 . S
C486 C487 1.385 . S
C487 H473 0.931 . S
C487 C486 1.385 . S
C487 C488 1.389 . S
C488 C487 1.389 . S
C488 C489 1.387 . S
C489 H474 0.930 . S
C489 C484 1.390 . S
C489 C488 1.387 . S
H490 C502 0.930 . S
H491 C504 0.930 . S
H492 C505 0.930 . S
H493 C509 0.959 . S
H494 C509 0.959 1_556 S
H495 C509 0.961 . S
H496 C510 0.960 . S
H497 C510 0.961 . S
H498 C510 0.959 . S
H499 C513 0.929 . S
H500 C514 0.931 . S
H501 C516 0.930 . S
C502 H490 0.930 . S
C502 C503 1.399 . S
C502 C507 1.399 . S
C503 C502 1.399 . S
C503 C504 1.376 . S
C504 H491 0.930 . S
C504 C503 1.376 . S
C504 C505 1.388 . S
C505 H492 0.930 . S
C505 C504 1.388 . S
C505 C506 1.390 . S
C506 C505 1.390 . S
C506 C507 1.394 . S
C506 C512 1.465 1_554 S
C507 C502 1.399 . S
C507 C506 1.394 . S
C507 C508 1.516 1_554 S
C508 C507 1.516 1_556 S
C508 C509 1.502 1_556 S
C508 C510 1.561 . S
C508 C511 1.526 . S
C509 H493 0.959 . S
C509 H494 0.959 1_554 S
C509 H495 0.961 . S
C509 C508 1.502 1_554 S
C510 H496 0.960 . S
C510 H497 0.961 . S
C510 H498 0.959 . S
C510 C508 1.561 . S
C511 C508 1.526 . S
C511 C512 1.396 . S
C511 C516 1.390 . S
C512 C506 1.465 1_556 S
C512 C511 1.396 . S
C512 C513 1.399 . S
C513 H499 0.929 . S
C513 C512 1.399 . S
C513 C514 1.385 . S
C514 H500 0.931 . S
C514 C513 1.385 . S
C514 C515 1.389 . S
C515 C514 1.389 . S
C515 C516 1.387 . S
C516 H501 0.930 . S
C516 C511 1.390 . S
C516 C515 1.387 . S
H517 C529 0.930 . S
H518 C531 0.930 . S
H519 C532 0.930 . S
H520 C536 0.959 . S
H521 C536 0.959 . S
H522 C536 0.961 . S
H523 C537 0.960 . S
H524 C537 0.961 . S
H525 C537 0.959 . S
H526 C540 0.911 1_554 S
H527 C541 0.931 . S
H528 C543 0.930 . S
C529 H517 0.930 . S
C529 C530 1.399 . S
C529 C534 1.399 . S
C530 C529 1.399 . S
C530 C531 1.376 . S
C531 H518 0.930 . S
C531 C530 1.376 . S
C531 C532 1.388 . S
C532 H519 0.930 . S
C532 C531 1.388 . S
C532 C533 1.390 . S
C533 C532 1.390 . S
C533 C534 1.394 . S
C533 C539 1.465 1_554 S
C534 C529 1.399 . S
C534 C533 1.394 . S
C534 C535 1.516 1_554 S
C535 C534 1.516 1_556 S
C535 C536 1.502 . S
C535 C537 1.561 . S
C535 C538 1.526 . S
C536 H520 0.959 . S
C536 H521 0.959 . S
C536 H522 0.961 . S
C536 C535 1.502 . S
C537 H523 0.960 . S
C537 H524 0.961 . S
C537 H525 0.959 . S
C537 C535 1.561 . S
C538 C535 1.526 . S
C538 C539 1.396 . S
C538 C543 1.390 . S
C539 C533 1.465 1_556 S
C539 C538 1.396 . S
C539 C540 1.403 . S
C540 H526 0.911 1_556 S
C540 C539 1.403 . S
C540 C541 1.400 . S
C541 H527 0.931 . S
C541 C540 1.400 . S
C541 C542 1.389 . S
C542 C541 1.389 . S
C542 C543 1.387 . S
C543 H528 0.930 . S
C543 C538 1.390 . S
C543 C542 1.387 . S
C125 C3 1.530 . S
C137 C31 1.570 . S
C152 C45 1.570 . S
C164 C17 1.531 . S
C179 C87 1.529 . S
C191 C59 1.568 . S
C206 C73 1.545 . S
C218 C101 1.548 . S
C233 C92 1.769 . S
C245 C8 1.809 . S
C260 C22 1.807 . S
C272 C106 1.763 . S
C287 C36 1.808 . S
C299 C64 1.771 . S
C314 C50 1.813 . S
C326 C78 1.762 . S
C341 C91 1.466 . S
C353 C7 1.532 . S
C368 C21 1.516 . S
C380 C105 1.500 . S
C395 C63 1.518 . S
C407 C35 1.478 . S
C422 C77 1.486 . S
C434 C49 1.507 . S
C449 C23 0.699 . S
C461 C9 0.670 . S
C476 C37 0.691 . S
C488 C51 0.675 . S
C503 C79 0.700 . S
C515 C65 0.695 . S
C530 C93 0.429 . S
C542 C107 0.541 . S
