# Generated by pormake.
# Topology wlt, (5)-cn, num edge types: 1
# Building blocks:
#     Node 0, Type 0, BuildingBlock: BEQFEK_clean_sbu_0, # of connection points: 5
#     Node 1, Type 0, BuildingBlock: BEQFEK_clean_sbu_0, # of connection points: 5
#     Node 2, Type 0, BuildingBlock: BEQFEK_clean_sbu_0, # of connection points: 5
#     Node 3, Type 0, BuildingBlock: BEQFEK_clean_sbu_0, # of connection points: 5
#     Node 4, Type 0, BuildingBlock: BEQFEK_clean_sbu_0, # of connection points: 5
#     Node 5, Type 0, BuildingBlock: BEQFEK_clean_sbu_0, # of connection points: 5
#     Node 6, Type 0, BuildingBlock: BEQFEK_clean_sbu_0, # of connection points: 5
#     Node 7, Type 0, BuildingBlock: BEQFEK_clean_sbu_0, # of connection points: 5
#     Node 8, Type 0, BuildingBlock: BEQFEK_clean_sbu_0, # of connection points: 5
#     Node 9, Type 0, BuildingBlock: BEQFEK_clean_sbu_0, # of connection points: 5
#     Node 10, Type 0, BuildingBlock: BEQFEK_clean_sbu_0, # of connection points: 5
#     Node 11, Type 0, BuildingBlock: BEQFEK_clean_sbu_0, # of connection points: 5
#     Node 12, Type 0, BuildingBlock: BEQFEK_clean_sbu_0, # of connection points: 5
#     Node 13, Type 0, BuildingBlock: BEQFEK_clean_sbu_0, # of connection points: 5
#     Node 14, Type 0, BuildingBlock: BEQFEK_clean_sbu_0, # of connection points: 5
#     Node 15, Type 0, BuildingBlock: BEQFEK_clean_sbu_0, # of connection points: 5
#     Node 16, Type 0, BuildingBlock: BEQFEK_clean_sbu_0, # of connection points: 5
#     Node 17, Type 0, BuildingBlock: BEQFEK_clean_sbu_0, # of connection points: 5
#     Node 18, Type 0, BuildingBlock: BEQFEK_clean_sbu_0, # of connection points: 5
#     Node 19, Type 0, BuildingBlock: BEQFEK_clean_sbu_0, # of connection points: 5
#     Node 20, Type 0, BuildingBlock: BEQFEK_clean_sbu_0, # of connection points: 5
#     Node 21, Type 0, BuildingBlock: BEQFEK_clean_sbu_0, # of connection points: 5
#     Node 22, Type 0, BuildingBlock: BEQFEK_clean_sbu_0, # of connection points: 5
#     Node 23, Type 0, BuildingBlock: BEQFEK_clean_sbu_0, # of connection points: 5
#     Node 24, Type 0, BuildingBlock: BEQFEK_clean_sbu_0, # of connection points: 5
#     Node 25, Type 0, BuildingBlock: BEQFEK_clean_sbu_0, # of connection points: 5
#     Node 26, Type 0, BuildingBlock: BEQFEK_clean_sbu_0, # of connection points: 5
#     Node 27, Type 0, BuildingBlock: BEQFEK_clean_sbu_0, # of connection points: 5
#     Node 28, Type 0, BuildingBlock: BEQFEK_clean_sbu_0, # of connection points: 5
#     Node 29, Type 0, BuildingBlock: BEQFEK_clean_sbu_0, # of connection points: 5
#     Node 30, Type 0, BuildingBlock: BEQFEK_clean_sbu_0, # of connection points: 5
#     Node 31, Type 0, BuildingBlock: BEQFEK_clean_sbu_0, # of connection points: 5
#     Node 32, Type 0, BuildingBlock: BEQFEK_clean_sbu_0, # of connection points: 5
#     Node 33, Type 0, BuildingBlock: BEQFEK_clean_sbu_0, # of connection points: 5
#     Node 34, Type 0, BuildingBlock: BEQFEK_clean_sbu_0, # of connection points: 5
#     Node 35, Type 0, BuildingBlock: BEQFEK_clean_sbu_0, # of connection points: 5
#     Edge 36, Type (0, 0), BuildingBlock: AJUNOK_clean_linker_0, # of connection points: 2
#     Edge 37, Type (0, 0), BuildingBlock: AJUNOK_clean_linker_0, # of connection points: 2
#     Edge 38, Type (0, 0), BuildingBlock: AJUNOK_clean_linker_0, # of connection points: 2
#     Edge 39, Type (0, 0), BuildingBlock: AJUNOK_clean_linker_0, # of connection points: 2
#     Edge 40, Type (0, 0), BuildingBlock: AJUNOK_clean_linker_0, # of connection points: 2
#     Edge 41, Type (0, 0), BuildingBlock: AJUNOK_clean_linker_0, # of connection points: 2
#     Edge 42, Type (0, 0), BuildingBlock: AJUNOK_clean_linker_0, # of connection points: 2
#     Edge 43, Type (0, 0), BuildingBlock: AJUNOK_clean_linker_0, # of connection points: 2
#     Edge 44, Type (0, 0), BuildingBlock: AJUNOK_clean_linker_0, # of connection points: 2
#     Edge 45, Type (0, 0), BuildingBlock: AJUNOK_clean_linker_0, # of connection points: 2
#     Edge 46, Type (0, 0), BuildingBlock: AJUNOK_clean_linker_0, # of connection points: 2
#     Edge 47, Type (0, 0), BuildingBlock: AJUNOK_clean_linker_0, # of connection points: 2
#     Edge 48, Type (0, 0), BuildingBlock: AJUNOK_clean_linker_0, # of connection points: 2
#     Edge 49, Type (0, 0), BuildingBlock: AJUNOK_clean_linker_0, # of connection points: 2
#     Edge 50, Type (0, 0), BuildingBlock: AJUNOK_clean_linker_0, # of connection points: 2
#     Edge 51, Type (0, 0), BuildingBlock: AJUNOK_clean_linker_0, # of connection points: 2
#     Edge 52, Type (0, 0), BuildingBlock: AJUNOK_clean_linker_0, # of connection points: 2
#     Edge 53, Type (0, 0), BuildingBlock: AJUNOK_clean_linker_0, # of connection points: 2
#     Edge 54, Type (0, 0), BuildingBlock: AJUNOK_clean_linker_0, # of connection points: 2
#     Edge 55, Type (0, 0), BuildingBlock: AJUNOK_clean_linker_0, # of connection points: 2
#     Edge 56, Type (0, 0), BuildingBlock: AJUNOK_clean_linker_0, # of connection points: 2
#     Edge 57, Type (0, 0), BuildingBlock: AJUNOK_clean_linker_0, # of connection points: 2
#     Edge 58, Type (0, 0), BuildingBlock: AJUNOK_clean_linker_0, # of connection points: 2
#     Edge 59, Type (0, 0), BuildingBlock: AJUNOK_clean_linker_0, # of connection points: 2
#     Edge 60, Type (0, 0), BuildingBlock: AJUNOK_clean_linker_0, # of connection points: 2
#     Edge 61, Type (0, 0), BuildingBlock: AJUNOK_clean_linker_0, # of connection points: 2
#     Edge 62, Type (0, 0), BuildingBlock: AJUNOK_clean_linker_0, # of connection points: 2
#     Edge 63, Type (0, 0), BuildingBlock: AJUNOK_clean_linker_0, # of connection points: 2
#     Edge 64, Type (0, 0), BuildingBlock: AJUNOK_clean_linker_0, # of connection points: 2
#     Edge 65, Type (0, 0), BuildingBlock: AJUNOK_clean_linker_0, # of connection points: 2
#     Edge 66, Type (0, 0), BuildingBlock: AJUNOK_clean_linker_0, # of connection points: 2
#     Edge 67, Type (0, 0), BuildingBlock: AJUNOK_clean_linker_0, # of connection points: 2
#     Edge 68, Type (0, 0), BuildingBlock: AJUNOK_clean_linker_0, # of connection points: 2
#     Edge 69, Type (0, 0), BuildingBlock: AJUNOK_clean_linker_0, # of connection points: 2
#     Edge 70, Type (0, 0), BuildingBlock: AJUNOK_clean_linker_0, # of connection points: 2
#     Edge 71, Type (0, 0), BuildingBlock: AJUNOK_clean_linker_0, # of connection points: 2
#     Edge 72, Type (0, 0), BuildingBlock: AJUNOK_clean_linker_0, # of connection points: 2
#     Edge 73, Type (0, 0), BuildingBlock: AJUNOK_clean_linker_0, # of connection points: 2
#     Edge 74, Type (0, 0), BuildingBlock: AJUNOK_clean_linker_0, # of connection points: 2
#     Edge 75, Type (0, 0), BuildingBlock: AJUNOK_clean_linker_0, # of connection points: 2
#     Edge 76, Type (0, 0), BuildingBlock: AJUNOK_clean_linker_0, # of connection points: 2
#     Edge 77, Type (0, 0), BuildingBlock: AJUNOK_clean_linker_0, # of connection points: 2
#     Edge 78, Type (0, 0), BuildingBlock: AJUNOK_clean_linker_0, # of connection points: 2
#     Edge 79, Type (0, 0), BuildingBlock: AJUNOK_clean_linker_0, # of connection points: 2
#     Edge 80, Type (0, 0), BuildingBlock: AJUNOK_clean_linker_0, # of connection points: 2
#     Edge 81, Type (0, 0), BuildingBlock: AJUNOK_clean_linker_0, # of connection points: 2
#     Edge 82, Type (0, 0), BuildingBlock: AJUNOK_clean_linker_0, # of connection points: 2
#     Edge 83, Type (0, 0), BuildingBlock: AJUNOK_clean_linker_0, # of connection points: 2
#     Edge 84, Type (0, 0), BuildingBlock: AJUNOK_clean_linker_0, # of connection points: 2
#     Edge 85, Type (0, 0), BuildingBlock: AJUNOK_clean_linker_0, # of connection points: 2
#     Edge 86, Type (0, 0), BuildingBlock: AJUNOK_clean_linker_0, # of connection points: 2
#     Edge 87, Type (0, 0), BuildingBlock: AJUNOK_clean_linker_0, # of connection points: 2
#     Edge 88, Type (0, 0), BuildingBlock: AJUNOK_clean_linker_0, # of connection points: 2
#     Edge 89, Type (0, 0), BuildingBlock: AJUNOK_clean_linker_0, # of connection points: 2
#     Edge 90, Type (0, 0), BuildingBlock: AJUNOK_clean_linker_0, # of connection points: 2
#     Edge 91, Type (0, 0), BuildingBlock: AJUNOK_clean_linker_0, # of connection points: 2
#     Edge 92, Type (0, 0), BuildingBlock: AJUNOK_clean_linker_0, # of connection points: 2
#     Edge 93, Type (0, 0), BuildingBlock: AJUNOK_clean_linker_0, # of connection points: 2
#     Edge 94, Type (0, 0), BuildingBlock: AJUNOK_clean_linker_0, # of connection points: 2
#     Edge 95, Type (0, 0), BuildingBlock: AJUNOK_clean_linker_0, # of connection points: 2
#     Edge 96, Type (0, 0), BuildingBlock: AJUNOK_clean_linker_0, # of connection points: 2
#     Edge 97, Type (0, 0), BuildingBlock: AJUNOK_clean_linker_0, # of connection points: 2
#     Edge 98, Type (0, 0), BuildingBlock: AJUNOK_clean_linker_0, # of connection points: 2
#     Edge 99, Type (0, 0), BuildingBlock: AJUNOK_clean_linker_0, # of connection points: 2
#     Edge 100, Type (0, 0), BuildingBlock: AJUNOK_clean_linker_0, # of connection points: 2
#     Edge 101, Type (0, 0), BuildingBlock: AJUNOK_clean_linker_0, # of connection points: 2
#     Edge 102, Type (0, 0), BuildingBlock: AJUNOK_clean_linker_0, # of connection points: 2
#     Edge 103, Type (0, 0), BuildingBlock: AJUNOK_clean_linker_0, # of connection points: 2
#     Edge 104, Type (0, 0), BuildingBlock: AJUNOK_clean_linker_0, # of connection points: 2
#     Edge 105, Type (0, 0), BuildingBlock: AJUNOK_clean_linker_0, # of connection points: 2
#     Edge 106, Type (0, 0), BuildingBlock: AJUNOK_clean_linker_0, # of connection points: 2
#     Edge 107, Type (0, 0), BuildingBlock: AJUNOK_clean_linker_0, # of connection points: 2
#     Edge 108, Type (0, 0), BuildingBlock: AJUNOK_clean_linker_0, # of connection points: 2
#     Edge 109, Type (0, 0), BuildingBlock: AJUNOK_clean_linker_0, # of connection points: 2
#     Edge 110, Type (0, 0), BuildingBlock: AJUNOK_clean_linker_0, # of connection points: 2
#     Edge 111, Type (0, 0), BuildingBlock: AJUNOK_clean_linker_0, # of connection points: 2
#     Edge 112, Type (0, 0), BuildingBlock: AJUNOK_clean_linker_0, # of connection points: 2
#     Edge 113, Type (0, 0), BuildingBlock: AJUNOK_clean_linker_0, # of connection points: 2
#     Edge 114, Type (0, 0), BuildingBlock: AJUNOK_clean_linker_0, # of connection points: 2
#     Edge 115, Type (0, 0), BuildingBlock: AJUNOK_clean_linker_0, # of connection points: 2
#     Edge 116, Type (0, 0), BuildingBlock: AJUNOK_clean_linker_0, # of connection points: 2
#     Edge 117, Type (0, 0), BuildingBlock: AJUNOK_clean_linker_0, # of connection points: 2
#     Edge 118, Type (0, 0), BuildingBlock: AJUNOK_clean_linker_0, # of connection points: 2
#     Edge 119, Type (0, 0), BuildingBlock: AJUNOK_clean_linker_0, # of connection points: 2
#     Edge 120, Type (0, 0), BuildingBlock: AJUNOK_clean_linker_0, # of connection points: 2
#     Edge 121, Type (0, 0), BuildingBlock: AJUNOK_clean_linker_0, # of connection points: 2
#     Edge 122, Type (0, 0), BuildingBlock: AJUNOK_clean_linker_0, # of connection points: 2
#     Edge 123, Type (0, 0), BuildingBlock: AJUNOK_clean_linker_0, # of connection points: 2
#     Edge 124, Type (0, 0), BuildingBlock: AJUNOK_clean_linker_0, # of connection points: 2
#     Edge 125, Type (0, 0), BuildingBlock: AJUNOK_clean_linker_0, # of connection points: 2
# Relax obj value: 0.147
# Max RMSD: 0.167
# Mean RMSD: 0.167
data_MOF--net-wlt--node1-BEQFEK_clean_sbu_0--edge1-AJUNOK_clean_linker_0
_symmetry_space_group_name_H-M    P1
_symmetry_Int_Tables_number       1
_symmetry_cell_setting            triclinic
loop_
_symmetry_equiv_pos_as_xyz
'x, y, z'
_cell_length_a     53.335655
_cell_length_b     53.346834
_cell_length_c     38.292778
_cell_angle_alpha  90.063802
_cell_angle_beta   89.962373
_cell_angle_gamma 119.99176
loop_
_atom_site_label
_atom_site_type_symbol
_atom_site_fract_x
_atom_site_fract_y
_atom_site_fract_z
_atom_type_partial_charge
Co0 Co 0.27613 0.22251 0.12437 0.0
Co1 Co 0.21874 0.22107 0.1026 0.0
C2 C 0.27838 0.27598 0.09719 0.0
O3 O 0.2924 0.26372 0.10793 0.0
O4 O 0.25077 0.26172 0.0943 0.0
C5 C 0.32917 0.21542 0.13731 0.0
O6 O 0.34778 0.23821 0.11945 0.0
C7 C 0.17523 0.22595 0.05897 0.0
C8 C 0.13479 0.19122 0.08234 0.0
C9 C 0.14531 0.21166 0.05602 0.0
N10 N 0.18213 0.2143 0.08583 0.0
N11 N 0.15781 0.19381 0.09987 0.0
C12 C 0.19677 0.24863 0.03507 0.0
H13 H 0.21795 0.24949 0.03676 0.0
H14 H 0.18874 0.24426 0.00775 0.0
H15 H 0.19969 0.26998 0.04281 0.0
C16 C 0.25561 0.17628 0.07128 0.0
N17 N 0.25226 0.19582 0.08996 0.0
N18 N 0.22793 0.19463 0.08077 0.0
C19 C 0.21514 0.17434 0.0556 0.0
C20 C 0.23219 0.16194 0.04908 0.0
C21 C 0.28157 0.17254 0.07322 0.0
H22 H 0.30151 0.19404 0.07194 0.0
H23 H 0.28189 0.1588 0.05164 0.0
H24 H 0.28137 0.16228 0.09848 0.0
O25 O 0.25473 0.21726 0.16796 0.0
O26 O 0.21342 0.2148 0.15379 0.0
H27 H 0.18072 0.14929 0.01872 0.0
H28 H 0.18936 0.18637 0.02496 0.0
C29 C 0.18717 0.16689 0.03817 0.0
H30 H 0.16991 0.15989 0.05815 0.0
H31 H 0.15697 0.181 0.12092 0.0
O32 O 0.30308 0.20951 0.1397 0.0
C33 C 0.23034 0.21404 0.17655 0.0
Co34 Co 0.79065 0.05417 0.12817 0.0
Co35 Co 0.79174 0.99831 0.10503 0.0
C36 C 0.73708 1.00387 0.10086 0.0
O37 O 0.74938 0.03003 0.11196 0.0
O38 O 0.75131 0.99054 0.09756 0.0
C39 C 0.79753 0.11365 0.14029 0.0
O40 O 0.77533 0.10861 0.12059 0.0
C41 C 0.7873 0.95187 0.05776 0.0
C42 C 0.81375 0.93781 0.08722 0.0
C43 C 0.79771 0.93258 0.05694 0.0
N44 N 0.79694 0.96776 0.08716 0.0
N45 N 0.81267 0.95915 0.10458 0.0
C46 C 0.76773 0.9545 0.03188 0.0
H47 H 0.75598 0.96445 0.04408 0.0
H48 H 0.78085 0.96862 0.01005 0.0
H49 H 0.75205 0.93293 0.02104 0.0
C50 C 0.83568 0.07975 0.07363 0.0
N51 N 0.81682 0.05697 0.09292 0.0
N52 N 0.81854 0.03406 0.08404 0.0
C53 C 0.83896 0.04171 0.05906 0.0
C54 C 0.8504 0.07092 0.0516 0.0
C55 C 0.83792 0.10885 0.07443 0.0
H56 H 0.84925 0.12034 0.09866 0.0
H57 H 0.8159 0.10609 0.07456 0.0
H58 H 0.84995 0.12223 0.05157 0.0
O59 O 0.7958 0.03716 0.17129 0.0
O60 O 0.79816 0.9985 0.15582 0.0
H61 H 0.85011 0.00847 0.06423 0.0
H62 H 0.86884 0.03384 0.0293 0.0
C63 C 0.84795 0.0217 0.04342 0.0
H64 H 0.83109 0.00689 0.02485 0.0
H65 H 0.82284 0.96798 0.12834 0.0
O66 O 0.80399 0.094 0.14446 0.0
C67 C 0.79876 0.01569 0.17916 0.0
Co68 Co 0.95753 0.73943 0.12891 0.0
Co69 Co 0.01384 0.79462 0.10264 0.0
C70 C 1.00734 0.7346 0.09975 0.0
O71 O 0.98154 0.72215 0.11208 0.0
O72 O 0.02174 0.76204 0.09519 0.0
C73 C 0.89784 0.68718 0.13839 0.0
O74 O 0.90161 0.67234 0.1136 0.0
C75 C 0.06238 0.83798 0.05796 0.0
C76 C 0.06859 0.87832 0.08224 0.0
C77 C 0.07853 0.86803 0.05558 0.0
N78 N 0.04358 0.83097 0.08465 0.0
N79 N 0.04762 0.85525 0.09907 0.0
C80 C 0.06534 0.81636 0.03604 0.0
H81 H 0.05953 0.7966 0.05137 0.0
H82 H 0.05036 0.81011 0.01347 0.0
H83 H 0.08777 0.82566 0.02599 0.0
C84 C 0.93098 0.75976 0.07635 0.0
N85 N 0.95416 0.76265 0.09395 0.0
N86 N 0.97767 0.78526 0.08189 0.0
C87 C 0.97022 0.79698 0.05543 0.0
C88 C 0.94035 0.78105 0.05093 0.0
C89 C 0.90024 0.73826 0.08529 0.0
H90 H 0.89695 0.73874 0.11379 0.0
H91 H 0.89564 0.71628 0.07783 0.0
H92 H 0.88474 0.74306 0.07173 0.0
O93 O 0.97485 0.76193 0.17123 0.0
O94 O 0.01421 0.80148 0.1539 0.0
H95 H 1.00193 0.84165 0.04939 0.0
H96 H 0.9811 0.82513 0.0103 0.0
C97 C 0.9915 0.82163 0.0334 0.0
H98 H 0.00855 0.81711 0.02429 0.0
H99 H 0.03573 0.85605 0.12026 0.0
O100 O 0.91832 0.71221 0.14616 0.0
C101 C 0.99699 0.78612 0.17801 0.0
Co102 Co 0.22381 0.27161 0.37487 0.0
Co103 Co 0.22521 0.2162 0.39937 0.0
C104 C 0.27814 0.27707 0.40436 0.0
O105 O 0.26489 0.28967 0.39222 0.0
O106 O 0.26515 0.24953 0.40804 0.0
C107 C 0.21554 0.32343 0.36172 0.0
O108 O 0.23794 0.34151 0.38054 0.0
C109 C 0.23035 0.17435 0.44598 0.0
C110 C 0.2003 0.13328 0.41937 0.0
C111 C 0.21796 0.14442 0.44836 0.0
N112 N 0.21986 0.18041 0.41725 0.0
N113 N 0.20212 0.15576 0.4014 0.0
C114 C 0.25288 0.19695 0.46922 0.0
H115 H 0.26937 0.21496 0.4532 0.0
H116 H 0.2426 0.206 0.48642 0.0
H117 H 0.26365 0.18788 0.48548 0.0
C118 C 0.17749 0.25066 0.42776 0.0
N119 N 0.19743 0.2477 0.40946 0.0
N120 N 0.19725 0.22407 0.4196 0.0
C121 C 0.17704 0.21122 0.44484 0.0
C122 C 0.1638 0.22761 0.45059 0.0
C123 C 0.17327 0.27631 0.42543 0.0
H124 H 0.19461 0.29644 0.42655 0.0
H125 H 0.15951 0.27666 0.44695 0.0
H126 H 0.16285 0.27571 0.40014 0.0
O127 O 0.21997 0.2498 0.3319 0.0
O128 O 0.21995 0.21009 0.34821 0.0
H129 H 0.16666 0.16696 0.44358 0.0
H130 H 0.15114 0.17587 0.48014 0.0
C131 C 0.17049 0.18384 0.46313 0.0
H132 H 0.18934 0.18779 0.47932 0.0
H133 H 0.19085 0.15426 0.3785 0.0
O134 O 0.20968 0.29741 0.35842 0.0
C135 C 0.21853 0.22594 0.32448 0.0
Co136 Co 0.74127 0.95586 0.37849 0.0
Co137 Co 0.79842 0.01204 0.40097 0.0
C138 C 0.73826 0.00662 0.40504 0.0
O139 O 0.72439 0.98034 0.39431 0.0
O140 O 0.76584 0.02002 0.40837 0.0
C141 C 0.68851 0.89612 0.36488 0.0
O142 O 0.67015 0.90092 0.38242 0.0
C143 C 0.84069 0.05851 0.44795 0.0
C144 C 0.88157 0.07007 0.42052 0.0
C145 C 0.87064 0.07619 0.45005 0.0
N146 N 0.83445 0.04231 0.41883 0.0
N147 N 0.85899 0.04951 0.40253 0.0
C148 C 0.81823 0.05793 0.47193 0.0
H149 H 0.79936 0.05508 0.45666 0.0
H150 H 0.8105 0.03916 0.48982 0.0
H151 H 0.82706 0.07814 0.48751 0.0
C152 C 0.76105 0.93053 0.43258 0.0
N153 N 0.76476 0.95333 0.41352 0.0
N154 N 0.78932 0.97633 0.42239 0.0
C155 C 0.80212 0.96874 0.44739 0.0
C156 C 0.78457 0.93946 0.45457 0.0
C157 C 0.73451 0.90119 0.43138 0.0
H158 H 0.73475 0.89003 0.40702 0.0
H159 H 0.71498 0.9035 0.43119 0.0
H160 H 0.73334 0.88772 0.45406 0.0
O161 O 0.76344 0.97238 0.33545 0.0
O162 O 0.80451 0.01143 0.35 0.0
H163 H 0.84672 1.00148 0.44296 0.0
H164 H 0.83904 0.97696 0.47913 0.0
C165 C 0.83081 0.9889 0.46362 0.0
H166 H 0.82853 1.00426 0.48102 0.0
H167 H 0.86036 0.04007 0.37927 0.0
O168 O 0.71478 0.91589 0.3626 0.0
C169 C 0.78786 0.99364 0.32714 0.0
Co170 Co 0.05937 0.78946 0.37475 0.0
Co171 Co 1.0029 0.78853 0.40024 0.0
C172 C 0.00886 0.73473 0.40257 0.0
O173 O 0.03485 0.74804 0.39084 0.0
O174 O 0.99458 0.74791 0.407 0.0
C175 C 0.11964 0.7985 0.36814 0.0
O176 O 0.11669 0.78322 0.39631 0.0
C177 C 0.95373 0.78278 0.44425 0.0
C178 C 0.94805 0.81744 0.4207 0.0
C179 C 0.93756 0.79666 0.44668 0.0
N180 N 0.97305 0.79508 0.41814 0.0
N181 N 0.96935 0.81565 0.40419 0.0
C182 C 0.95033 0.75777 0.46557 0.0
H183 H 0.95612 0.74393 0.44993 0.0
H184 H 0.9651 0.76605 0.48837 0.0
H185 H 0.92778 0.74463 0.47524 0.0
C186 C 0.08562 0.83649 0.42758 0.0
N187 N 0.0626 0.81603 0.40987 0.0
N188 N 0.03892 0.81489 0.42183 0.0
C189 C 0.0461 0.83386 0.44852 0.0
C190 C 0.07595 0.84801 0.45317 0.0
C191 C 0.11653 0.84676 0.41827 0.0
H192 H 0.11929 0.84906 0.38956 0.0
H193 H 0.12253 0.8308 0.42753 0.0
H194 H 0.13139 0.86804 0.43037 0.0
O195 O 0.0427 0.79538 0.33252 0.0
O196 O 1.00321 0.79576 0.349 0.0
H197 H 0.01458 0.84707 0.45469 0.0
H198 H 0.03474 0.85035 0.49404 0.0
C199 C 0.0246 0.83697 0.47047 0.0
H200 H 1.00728 0.81529 0.47881 0.0
H201 H 0.98164 0.82875 0.38349 0.0
O202 O 0.09844 0.80083 0.35739 0.0
C203 C 0.02096 0.79798 0.32535 0.0
Co204 Co 0.74152 0.78902 0.87432 0.0
Co205 Co 0.79815 0.7896 0.89874 0.0
C206 C 0.73799 0.73538 0.90349 0.0
O207 O 0.72444 0.74779 0.89157 0.0
O208 O 0.76553 0.74942 0.90711 0.0
C209 C 0.68973 0.79736 0.86433 0.0
O210 O 0.67463 0.77851 0.88875 0.0
C211 C 0.84007 0.78413 0.9448 0.0
C212 C 0.88137 0.81662 0.92071 0.0
C213 C 0.86991 0.79709 0.9479 0.0
N214 N 0.83412 0.79557 0.9169 0.0
N215 N 0.85894 0.81476 0.9025 0.0
C216 C 0.81779 0.76297 0.96941 0.0
H217 H 0.79726 0.76339 0.96696 0.0
H218 H 0.82584 0.76791 0.99669 0.0
H219 H 0.81355 0.74092 0.96304 0.0
C220 C 0.76187 0.83553 0.92768 0.0
N221 N 0.76522 0.81596 0.90899 0.0
N222 N 0.7892 0.8167 0.91891 0.0
C223 C 0.80175 0.83669 0.94439 0.0
C224 C 0.78484 0.84925 0.95066 0.0
C225 C 0.73599 0.83937 0.9256 0.0
H226 H 0.73521 0.84786 0.89944 0.0
H227 H 0.71614 0.81811 0.92926 0.0
H228 H 0.73645 0.85452 0.94579 0.0
O229 O 0.76378 0.79335 0.83162 0.0
O230 O 0.80439 0.79511 0.84778 0.0
H231 H 0.84648 0.84881 0.94299 0.0
H232 H 0.83651 0.86214 0.98071 0.0
C233 C 0.82927 0.84354 0.9626 0.0
H234 H 0.82592 0.82431 0.97754 0.0
H235 H 0.86056 0.82711 0.88059 0.0
O236 O 0.71479 0.80188 0.85667 0.0
C237 C 0.78805 0.79575 0.82414 0.0
Co238 Co 0.22613 0.95367 0.87944 0.0
Co239 Co 0.22564 0.01077 0.89837 0.0
C240 C 0.27937 1.00346 0.90698 0.0
O241 O 0.26642 0.97683 0.89768 0.0
O242 O 0.26604 0.01788 0.90771 0.0
C243 C 0.21619 0.89285 0.87018 0.0
O244 O 0.2347 0.89592 0.89474 0.0
C245 C 0.23081 0.05824 0.94414 0.0
C246 C 0.20186 0.07012 0.9165 0.0
C247 C 0.21892 0.07626 0.94602 0.0
N248 N 0.2206 0.04179 0.91524 0.0
N249 N 0.20352 0.04922 0.89876 0.0
C250 C 0.25262 0.05753 0.96808 0.0
H251 H 0.26914 0.05558 0.95262 0.0
H252 H 0.24165 0.03819 0.98515 0.0
H253 H 0.26353 0.07733 0.98442 0.0
C254 C 0.17929 0.92978 0.93165 0.0
N255 N 0.19895 0.95202 0.91231 0.0
N256 N 0.19776 0.97546 0.91983 0.0
C257 C 0.17696 0.96869 0.94415 0.0
C258 C 0.16462 0.93949 0.95238 0.0
C259 C 0.17645 0.90043 0.93253 0.0
H260 H 0.16643 0.88888 0.90782 0.0
H261 H 0.19825 0.90285 0.93488 0.0
H262 H 0.16303 0.88726 0.95478 0.0
O263 O 0.22475 0.97179 0.83585 0.0
O264 O 0.22016 0.00995 0.84687 0.0
H265 H 0.16597 1.00186 0.9374 0.0
H266 H 0.14834 0.97829 0.97411 0.0
C267 C 0.16875 0.98958 0.95889 0.0
H268 H 0.18633 0.00515 0.9762 0.0
H269 H 0.19257 0.03965 0.87563 0.0
O270 O 0.21236 0.9138 0.86257 0.0
C271 C 0.22195 0.99277 0.82536 0.0
Co272 Co 0.05863 0.27239 0.87817 0.0
Co273 Co 1.00167 0.21685 0.90247 0.0
C274 C 0.00842 0.27705 0.90581 0.0
O275 O 0.0345 0.28972 0.89436 0.0
O276 O 0.99397 0.24955 0.90976 0.0
C277 C 0.11891 0.32449 0.86786 0.0
O278 O 0.11551 0.34067 0.89111 0.0
C279 C 0.95245 0.17361 0.94634 0.0
C280 C 0.94616 0.13321 0.92216 0.0
C281 C 0.93611 0.14356 0.94863 0.0
N282 N 0.97146 0.18054 0.91989 0.0
N283 N 0.96737 0.15623 0.90552 0.0
C284 C 0.94962 0.19532 0.96824 0.0
H285 H 0.95538 0.21502 0.95282 0.0
H286 H 0.96473 0.20164 0.99069 0.0
H287 H 0.92724 0.1861 0.97843 0.0
C288 C 0.08407 0.25085 0.93058 0.0
N289 N 0.06118 0.24859 0.91293 0.0
N290 N 0.03744 0.22569 0.92399 0.0
C291 C 0.04445 0.21311 0.94987 0.0
C292 C 0.0743 0.22859 0.95475 0.0
C293 C 0.11491 0.27295 0.92296 0.0
H294 H 0.1191 0.27267 0.89466 0.0
H295 H 0.1187 0.29473 0.93008 0.0
H296 H 0.13039 0.26866 0.93735 0.0
O297 O 0.04195 0.25024 0.83556 0.0
O298 O 1.00212 0.21039 0.85118 0.0
H299 H 0.01266 0.16836 0.9551 0.0
H300 H 0.03277 0.18464 0.99474 0.0
C301 C 0.02276 0.18825 0.97133 0.0
H302 H 1.00554 0.19267 0.97998 0.0
H303 H 0.97941 0.15537 0.88456 0.0
O304 O 0.09821 0.29922 0.86157 0.0
C305 C 0.02011 0.2261 0.82788 0.0
Co306 Co 0.79112 0.7371 0.62472 0.0
Co307 Co 0.79025 0.79335 0.60277 0.0
C308 C 0.73647 0.73259 0.59882 0.0
O309 O 0.7497 0.71952 0.60945 0.0
O310 O 0.74973 0.76019 0.59554 0.0
C311 C 0.8009 0.68576 0.64049 0.0
O312 O 0.77735 0.66515 0.62569 0.0
C313 C 0.78538 0.83644 0.55777 0.0
C314 C 0.81404 0.87649 0.58699 0.0
C315 C 0.7969 0.86636 0.55743 0.0
N316 N 0.79549 0.82948 0.58617 0.0
N317 N 0.81249 0.85356 0.60349 0.0
C318 C 0.76446 0.81469 0.53241 0.0
H319 H 0.75153 0.79333 0.54516 0.0
H320 H 0.77666 0.81216 0.51053 0.0
H321 H 0.74981 0.82193 0.52165 0.0
C322 C 0.83555 0.7575 0.56987 0.0
N323 N 0.8164 0.76081 0.58935 0.0
N324 N 0.81737 0.78513 0.58078 0.0
C325 C 0.83766 0.79835 0.55572 0.0
C326 C 0.84978 0.78117 0.54799 0.0
C327 C 0.83874 0.73117 0.57064 0.0
H328 H 0.85151 0.73214 0.59399 0.0
H329 H 0.81707 0.7115 0.57249 0.0
H330 H 0.84986 0.7296 0.54696 0.0
O331 O 0.79658 0.75892 0.66806 0.0
O332 O 0.79716 0.79926 0.65365 0.0
H333 H 0.84879 0.84264 0.5617 0.0
H334 H 0.86646 0.83619 0.52538 0.0
C335 C 0.84602 0.82731 0.5405 0.0
H336 H 0.8285 0.82518 0.52301 0.0
H337 H 0.82338 0.85438 0.62646 0.0
O338 O 0.80583 0.71157 0.64011 0.0
C339 C 0.79905 0.78304 0.67644 0.0
Co340 Co 0.27618 0.05618 0.6256 0.0
Co341 Co 0.21925 0.99977 0.60321 0.0
C342 C 0.27969 0.00629 0.59629 0.0
O343 O 0.29303 0.03256 0.6071 0.0
O344 O 0.252 0.99197 0.59399 0.0
C345 C 0.32773 0.11668 0.63568 0.0
O346 O 0.34338 0.11355 0.61143 0.0
C347 C 0.17679 0.95128 0.55908 0.0
C348 C 0.13571 0.94473 0.58155 0.0
C349 C 0.14689 0.93512 0.55558 0.0
N350 N 0.18297 0.9697 0.58595 0.0
N351 N 0.1583 0.96541 0.59946 0.0
C352 C 0.19915 0.95087 0.53591 0.0
H353 H 0.21785 0.97311 0.53298 0.0
H354 H 0.18999 0.94167 0.50989 0.0
H355 H 0.20713 0.93735 0.54824 0.0
C356 C 0.25405 0.08189 0.57449 0.0
N357 N 0.2514 0.05898 0.59247 0.0
N358 N 0.22752 0.03558 0.58275 0.0
C359 C 0.21436 0.04291 0.55792 0.0
C360 C 0.23067 0.07252 0.5522 0.0
C361 C 0.27967 0.11179 0.57651 0.0
H362 H 0.2805 0.12094 0.60279 0.0
H363 H 0.29969 0.11073 0.57244 0.0
H364 H 0.27879 0.12637 0.55655 0.0
O365 O 0.25584 0.03776 0.66884 0.0
O366 O 0.21387 0.99963 0.65455 0.0
H367 H 0.16936 0.01135 0.55943 0.0
H368 H 0.18028 0.03301 0.52031 0.0
C369 C 0.18686 0.02205 0.53984 0.0
H370 H 0.18975 0.00516 0.52662 0.0
H371 H 0.15692 0.97719 0.62039 0.0
O372 O 0.30276 0.09577 0.64279 0.0
C373 C 0.23151 0.01653 0.67733 0.0
Co374 Co 0.95852 0.22112 0.62943 0.0
Co375 Co 0.01545 0.2225 0.60536 0.0
C376 C 0.00782 0.27569 0.60129 0.0
O377 O 0.98182 0.26229 0.61294 0.0
O378 O 0.02241 0.26273 0.59755 0.0
C379 C 0.89884 0.21375 0.6419 0.0
O380 O 0.90365 0.23616 0.62279 0.0
C381 C 0.06254 0.22794 0.55853 0.0
C382 C 0.07349 0.19764 0.5845 0.0
C383 C 0.08001 0.21549 0.55571 0.0
N384 N 0.04601 0.21729 0.58729 0.0
N385 N 0.0529 0.19942 0.60277 0.0
C386 C 0.06246 0.25064 0.53568 0.0
H387 H 0.06101 0.26705 0.552 0.0
H388 H 0.04309 0.24052 0.51856 0.0
H389 H 0.08228 0.26149 0.51936 0.0
C390 C 0.93336 0.17496 0.57637 0.0
N391 N 0.95622 0.19502 0.59457 0.0
N392 N 0.97974 0.19492 0.58446 0.0
C393 C 0.97246 0.17466 0.55928 0.0
C394 C 0.94282 0.16129 0.55359 0.0
C395 C 0.90333 0.1703 0.57907 0.0
H396 H 0.89393 0.16028 0.60467 0.0
H397 H 0.90418 0.19146 0.57753 0.0
H398 H 0.88908 0.15605 0.55797 0.0
O399 O 0.97581 0.21646 0.67232 0.0
O400 O 0.01548 0.21617 0.65646 0.0
H401 H 1.00608 0.16392 0.56091 0.0
H402 H 0.982 0.14875 0.52401 0.0
C403 C 0.99332 0.16799 0.54122 0.0
H404 H 0.00849 0.18687 0.52527 0.0
H405 H 0.04314 0.188 0.62558 0.0
O406 O 0.91866 0.20745 0.64558 0.0
C407 C 0.99789 0.2145 0.67997 0.0
Co408 Co 0.94098 0.5557 0.46114 0.0
Co409 Co 0.88515 0.55704 0.43773 0.0
C410 C 0.94615 0.61013 0.43271 0.0
O411 O 0.95886 0.59681 0.44429 0.0
O412 O 0.91857 0.59715 0.42932 0.0
C413 C 0.99248 0.5463 0.47462 0.0
O414 O 0.01107 0.56774 0.45495 0.0
C415 C 0.84213 0.56148 0.39183 0.0
C416 C 0.8021 0.53387 0.42162 0.0
C417 C 0.81225 0.55028 0.39152 0.0
N418 N 0.84907 0.55187 0.42071 0.0
N419 N 0.825 0.5355 0.43836 0.0
C420 C 0.86384 0.58173 0.36597 0.0
H421 H 0.88534 0.59467 0.37844 0.0
H422 H 0.86599 0.56903 0.34441 0.0
H423 H 0.85677 0.59637 0.35476 0.0
C424 C 0.91953 0.50947 0.40821 0.0
N425 N 0.9168 0.52951 0.42657 0.0
N426 N 0.89288 0.52907 0.41712 0.0
C427 C 0.87949 0.50842 0.39247 0.0
C428 C 0.89593 0.49528 0.3862 0.0
C429 C 0.94539 0.50552 0.40986 0.0
H430 H 0.96539 0.52698 0.40916 0.0
H431 H 0.94584 0.49226 0.3878 0.0
H432 H 0.94495 0.4947 0.43477 0.0
O433 O 0.91942 0.55159 0.50436 0.0
O434 O 0.87947 0.55145 0.48892 0.0
H435 H 0.84237 0.48066 0.36042 0.0
H436 H 0.8546 0.51887 0.35803 0.0
C437 C 0.85129 0.50102 0.3757 0.0
H438 H 0.83545 0.49863 0.39603 0.0
H439 H 0.82415 0.52511 0.46177 0.0
O440 O 0.96678 0.5415 0.47753 0.0
C441 C 0.89555 0.54994 0.51227 0.0
Co442 Co 0.45731 0.38976 0.46379 0.0
Co443 Co 0.45633 0.33365 0.43733 0.0
C444 C 0.40256 0.33952 0.43548 0.0
O445 O 0.41587 0.36538 0.44761 0.0
O446 O 0.41572 0.32527 0.43068 0.0
C447 C 0.46589 0.4496 0.47051 0.0
O448 O 0.45086 0.44641 0.44202 0.0
C449 C 0.44954 0.28479 0.39267 0.0
C450 C 0.48559 0.27974 0.41298 0.0
C451 C 0.46381 0.26916 0.38822 0.0
N452 N 0.46278 0.30412 0.41851 0.0
N453 N 0.48413 0.30078 0.43062 0.0
C454 C 0.42307 0.28068 0.37408 0.0
H455 H 0.40739 0.28036 0.39333 0.0
H456 H 0.4291 0.29923 0.35628 0.0
H457 H 0.4126 0.26021 0.3589 0.0
C458 C 0.50434 0.41654 0.41092 0.0
N459 N 0.48387 0.39341 0.42845 0.0
N460 N 0.48256 0.36979 0.41599 0.0
C461 C 0.50133 0.37711 0.38907 0.0
C462 C 0.51564 0.407 0.38489 0.0
C463 C 0.51485 0.44738 0.42081 0.0
H464 H 0.51685 0.44977 0.44958 0.0
H465 H 0.49919 0.45377 0.41149 0.0
H466 H 0.53631 0.46218 0.40908 0.0
O467 O 0.46345 0.37282 0.50563 0.0
O468 O 0.46376 0.33346 0.48843 0.0
H469 H 0.51484 0.34596 0.38127 0.0
H470 H 0.51666 0.36594 0.34235 0.0
C471 C 0.50404 0.35573 0.36637 0.0
H472 H 0.4822 0.33822 0.35876 0.0
H473 H 0.49799 0.31318 0.45074 0.0
O474 O 0.46836 0.42858 0.48164 0.0
C475 C 0.46611 0.35104 0.51235 0.0
Co476 Co 0.62464 0.07114 0.46483 0.0
Co477 Co 0.67951 0.12765 0.43845 0.0
C478 C 0.67574 0.06885 0.4355 0.0
O479 O 0.64986 0.05516 0.44765 0.0
O480 O 0.68881 0.09626 0.43094 0.0
C481 C 0.5645 0.01881 0.4757 0.0
O482 O 0.56618 1.00422 0.44901 0.0
C483 C 0.7276 0.17097 0.39395 0.0
C484 C 0.72923 0.21105 0.41245 0.0
C485 C 0.7413 0.20066 0.3886 0.0
N486 N 0.70806 0.1641 0.41971 0.0
N487 N 0.70947 0.18824 0.43087 0.0
C488 C 0.73124 0.14936 0.37297 0.0
H489 H 0.71129 0.12784 0.37402 0.0
H490 H 0.73656 0.15657 0.34542 0.0
H491 H 0.74944 0.14743 0.38399 0.0
C492 C 0.5963 0.09052 0.41314 0.0
N493 N 0.61991 0.0939 0.43022 0.0
N494 N 0.64297 0.11688 0.41796 0.0
C495 C 0.63486 0.12814 0.39165 0.0
C496 C 0.605 0.11177 0.38773 0.0
C497 C 0.5658 0.06884 0.42281 0.0
H498 H 0.56309 0.06897 0.45148 0.0
H499 H 0.5611 0.04698 0.4146 0.0
H500 H 0.55 0.07372 0.41023 0.0
O501 O 0.6421 0.09397 0.50697 0.0
O502 O 0.6803 0.13461 0.48965 0.0
H503 H 0.66421 0.17324 0.38379 0.0
H504 H 0.64493 0.15431 0.34487 0.0
C505 C 0.65552 0.15268 0.36899 0.0
H506 H 0.6738 0.14951 0.36151 0.0
H507 H 0.69629 0.18902 0.4505 0.0
O508 O 0.58595 0.04333 0.48319 0.0
C509 C 0.66367 0.11857 0.51378 0.0
Co510 Co 0.89403 0.6074 0.71243 0.0
Co511 Co 0.89196 0.54978 0.73437 0.0
C512 C 0.94723 0.60936 0.7395 0.0
O513 O 0.93521 0.62358 0.72871 0.0
O514 O 0.93273 0.58177 0.74249 0.0
C515 C 0.88726 0.66047 0.69835 0.0
O516 O 0.91032 0.67928 0.71567 0.0
C517 C 0.89721 0.50748 0.77947 0.0
C518 C 0.86394 0.46629 0.75588 0.0
C519 C 0.88395 0.47762 0.78266 0.0
N520 N 0.88553 0.51353 0.75192 0.0
N521 N 0.86585 0.4888 0.73781 0.0
C522 C 0.91891 0.52983 0.80362 0.0
H523 H 0.91666 0.54942 0.80368 0.0
H524 H 0.9163 0.52109 0.8305 0.0
H525 H 0.94099 0.53612 0.79436 0.0
C526 C 0.84817 0.58766 0.76572 0.0
N527 N 0.86749 0.58395 0.74709 0.0
N528 N 0.86567 0.55929 0.75595 0.0
C529 C 0.84499 0.54648 0.78066 0.0
C530 C 0.83313 0.564 0.7874 0.0
C531 C 0.84536 0.61418 0.76425 0.0
H532 H 0.86719 0.63373 0.76456 0.0
H533 H 0.83263 0.61521 0.78657 0.0
H534 H 0.83441 0.61405 0.73957 0.0
O535 O 0.88837 0.5855 0.66912 0.0
O536 O 0.88547 0.544 0.68326 0.0
H537 H 0.83068 0.50137 0.77623 0.0
H538 H 0.8176 0.51069 0.81476 0.0
C539 C 0.83639 0.51784 0.79699 0.0
H540 H 0.85496 0.51946 0.8119 0.0
H541 H 0.85323 0.48729 0.71624 0.0
O542 O 0.88109 0.63428 0.69664 0.0
C543 C 0.88481 0.56098 0.66053 0.0
Co544 Co 0.40736 0.28841 0.70828 0.0
Co545 Co 0.4637 0.34348 0.7346 0.0
C546 C 0.4048 0.33962 0.73681 0.0
O547 O 0.39116 0.31362 0.725 0.0
O548 O 0.43221 0.35277 0.74144 0.0
C549 C 0.35549 0.22789 0.6969 0.0
O550 O 0.3407 0.22891 0.72378 0.0
C551 C 0.50655 0.39195 0.77901 0.0
C552 C 0.54691 0.39386 0.76118 0.0
C553 C 0.53623 0.40593 0.78465 0.0
N554 N 0.49998 0.37226 0.7535 0.0
N555 N 0.52428 0.37381 0.74274 0.0
C556 C 0.4846 0.3955 0.79941 0.0
H557 H 0.4634 0.37514 0.79907 0.0
H558 H 0.49191 0.40186 0.82677 0.0
H559 H 0.48187 0.41287 0.78727 0.0
C560 C 0.42725 0.26038 0.7599 0.0
N561 N 0.43019 0.2839 0.74304 0.0
N562 N 0.45304 0.3071 0.75532 0.0
C563 C 0.46461 0.29919 0.78146 0.0
C564 C 0.44881 0.26925 0.78497 0.0
C565 C 0.4054 0.22983 0.75071 0.0
H566 H 0.4052 0.22687 0.72205 0.0
H567 H 0.38366 0.22529 0.75925 0.0
H568 H 0.41033 0.21406 0.76325 0.0
O569 O 0.43035 0.30566 0.66624 0.0
O570 O 0.47103 0.3438 0.68357 0.0
H571 H 0.50941 0.32916 0.79064 0.0
H572 H 0.48982 0.30957 0.82909 0.0
C573 C 0.4885 0.3201 0.80474 0.0
H574 H 0.48478 0.33812 0.8118 0.0
H575 H 0.5253 0.36059 0.72337 0.0
O576 O 0.37983 0.2497 0.6897 0.0
C577 C 0.45508 0.32704 0.65946 0.0
Co578 Co 0.72503 0.1212 0.7131 0.0
Co579 Co 0.66807 0.12079 0.73518 0.0
C580 C 0.67495 0.06682 0.73856 0.0
O581 O 0.70145 0.07988 0.72873 0.0
O582 O 0.66065 0.08015 0.74155 0.0
C583 C 0.78556 0.12997 0.69817 0.0
O584 O 0.78195 0.10668 0.71431 0.0
C585 C 0.62038 0.1161 0.78096 0.0
C586 C 0.608 0.14378 0.75131 0.0
C587 C 0.60161 0.12721 0.78128 0.0
N588 N 0.63706 0.12589 0.75217 0.0
N589 N 0.6294 0.14232 0.73462 0.0
C590 C 0.62187 0.09581 0.80671 0.0
H591 H 0.6308 0.08319 0.79424 0.0
H592 H 0.63643 0.10847 0.82848 0.0
H593 H 0.60009 0.0809 0.81761 0.0
C594 C 0.74954 0.1665 0.76683 0.0
N595 N 0.72681 0.14679 0.7482 0.0
N596 N 0.7035 0.1478 0.75707 0.0
C597 C 0.71087 0.16858 0.78157 0.0
C598 C 0.74034 0.18117 0.78834 0.0
C599 C 0.77917 0.16997 0.76554 0.0
H600 H 0.77738 0.14835 0.76509 0.0
H601 H 0.79245 0.18229 0.78835 0.0
H602 H 0.79024 0.18166 0.7413 0.0
O603 O 0.70852 0.12657 0.66975 0.0
O604 O 0.66922 0.12808 0.6843 0.0
H605 H 0.70202 0.19735 0.81233 0.0
H606 H 0.6753 0.15938 0.81508 0.0
C607 C 0.69037 0.17686 0.79733 0.0
H608 H 0.67742 0.17938 0.77645 0.0
H609 H 0.63904 0.15285 0.71132 0.0
O610 O 0.7651 0.13553 0.69745 0.0
C611 C 0.68716 0.12956 0.66143 0.0
Co612 Co 0.40675 0.12075 0.21169 0.0
Co613 Co 0.46374 0.12254 0.23589 0.0
C614 C 0.40409 0.06728 0.23875 0.0
O615 O 0.39012 0.07942 0.22745 0.0
O616 O 0.43159 0.08174 0.24278 0.0
C617 C 0.35451 0.12886 0.19425 0.0
O618 O 0.33403 0.10548 0.20946 0.0
C619 C 0.50497 0.11638 0.28202 0.0
C620 C 0.54667 0.14994 0.25986 0.0
C621 C 0.53475 0.12945 0.28604 0.0
N622 N 0.49953 0.12864 0.25458 0.0
N623 N 0.52457 0.14848 0.24131 0.0
C624 C 0.48213 0.09416 0.30521 0.0
H625 H 0.46245 0.09626 0.30474 0.0
H626 H 0.49026 0.09634 0.33237 0.0
H627 H 0.47624 0.0723 0.29551 0.0
C628 C 0.4252 0.16599 0.26567 0.0
N629 N 0.42936 0.14688 0.2472 0.0
N630 N 0.4538 0.14861 0.25697 0.0
C631 C 0.46606 0.16906 0.28203 0.0
C632 C 0.44838 0.18086 0.28812 0.0
C633 C 0.39861 0.16865 0.26338 0.0
H634 H 0.37914 0.14678 0.26245 0.0
H635 H 0.3968 0.18067 0.286 0.0
H636 H 0.39945 0.1803 0.23903 0.0
O637 O 0.42956 0.12666 0.16901 0.0
O638 O 0.4707 0.12962 0.18515 0.0
H639 H 0.51125 0.18341 0.27883 0.0
H640 H 0.50128 0.19627 0.317 0.0
C641 C 0.49442 0.17758 0.29914 0.0
H642 H 0.49256 0.15892 0.31406 0.0
H643 H 0.52655 0.16148 0.21996 0.0
O644 O 0.38043 0.13411 0.19509 0.0
C645 C 0.45428 0.13019 0.16155 0.0
Co646 Co 0.88815 0.288 0.2093 0.0
Co647 Co 0.88836 0.34436 0.23399 0.0
C648 C 0.94275 0.33894 0.23574 0.0
O649 O 0.92985 0.31271 0.22472 0.0
O650 O 0.92896 0.3526 0.24023 0.0
C651 C 0.87954 0.22734 0.19748 0.0
O652 O 0.89908 0.22984 0.22025 0.0
C653 C 0.89452 0.39265 0.27944 0.0
C654 C 0.86002 0.3993 0.25724 0.0
C655 C 0.88056 0.40862 0.28348 0.0
N656 N 0.88222 0.37427 0.25248 0.0
N657 N 0.86181 0.3786 0.23923 0.0
C658 C 0.91976 0.39544 0.29976 0.0
H659 H 0.9355 0.39442 0.28179 0.0
H660 H 0.91219 0.37703 0.31819 0.0
H661 H 0.93069 0.41609 0.31456 0.0
C662 C 0.84172 0.26196 0.26252 0.0
N663 N 0.86191 0.285 0.24463 0.0
N664 N 0.86216 0.30848 0.25565 0.0
C665 C 0.8426 0.30117 0.28165 0.0
C666 C 0.82888 0.27139 0.28669 0.0
C667 C 0.83365 0.23127 0.25508 0.0
H668 H 0.82842 0.22664 0.22698 0.0
H669 H 0.85226 0.22824 0.26129 0.0
H670 H 0.81452 0.21558 0.27031 0.0
O671 O 0.8821 0.3047 0.16692 0.0
O672 O 0.88098 0.34394 0.18291 0.0
H673 H 0.82907 0.33257 0.28659 0.0
H674 H 0.82481 0.31227 0.32613 0.0
C675 C 0.83878 0.32253 0.30303 0.0
H676 H 0.86017 0.33982 0.31222 0.0
H677 H 0.84873 0.36702 0.21816 0.0
O678 O 0.87546 0.24848 0.19234 0.0
C679 C 0.87917 0.32622 0.15946 0.0
Co680 Co 0.72391 0.60406 0.20955 0.0
Co681 Co 0.66709 0.54821 0.2326 0.0
C682 C 0.67393 0.60872 0.23682 0.0
O683 O 0.70004 0.62149 0.22549 0.0
O684 O 0.65945 0.58115 0.24043 0.0
C685 C 0.78435 0.65591 0.1956 0.0
O686 O 0.78086 0.67488 0.21372 0.0
C687 C 0.61885 0.50681 0.27769 0.0
C688 C 0.61101 0.46523 0.25536 0.0
C689 C 0.60222 0.47698 0.28156 0.0
N690 N 0.63674 0.51238 0.25038 0.0
N691 N 0.63168 0.48742 0.23697 0.0
C692 C 0.61942 0.52964 0.30092 0.0
H693 H 0.64185 0.54817 0.303 0.0
H694 H 0.61086 0.52086 0.32726 0.0
H695 H 0.60579 0.53772 0.28916 0.0
C696 C 0.7488 0.58405 0.26383 0.0
N697 N 0.72612 0.58059 0.24468 0.0
N698 N 0.7027 0.55672 0.2543 0.0
C699 C 0.70986 0.54418 0.2801 0.0
C700 C 0.73934 0.5611 0.28682 0.0
C701 C 0.77849 0.61004 0.26198 0.0
H702 H 0.77681 0.62993 0.26194 0.0
H703 H 0.79218 0.61101 0.28432 0.0
H704 H 0.78904 0.6093 0.23733 0.0
O705 O 0.70725 0.58203 0.16661 0.0
O706 O 0.66745 0.54185 0.18142 0.0
H707 H 0.70013 0.50931 0.31636 0.0
H708 H 0.67264 0.51952 0.31212 0.0
C709 C 0.68901 0.51649 0.29781 0.0
H710 H 0.67763 0.49937 0.27792 0.0
H711 H 0.64295 0.48556 0.21579 0.0
O712 O 0.76383 0.63 0.19353 0.0
C713 C 0.68552 0.55793 0.15842 0.0
Co714 Co 0.45912 0.07328 0.96328 0.0
Co715 Co 0.45745 0.12854 0.93952 0.0
C716 C 0.4041 0.06782 0.93648 0.0
O717 O 0.41772 0.05538 0.94791 0.0
O718 O 0.41696 0.09532 0.93232 0.0
C719 C 0.46816 0.02188 0.97808 0.0
O720 O 0.44548 1.00253 0.96063 0.0
C721 C 0.45097 0.16953 0.89324 0.0
C722 C 0.48384 0.2112 0.91626 0.0
C723 C 0.46417 0.19931 0.88921 0.0
N724 N 0.46256 0.16407 0.92137 0.0
N725 N 0.4819 0.18909 0.93521 0.0
C726 C 0.42942 0.14673 0.86941 0.0
H727 H 0.43152 0.12707 0.87047 0.0
H728 H 0.43235 0.15488 0.84219 0.0
H729 H 0.4073 0.14082 0.87813 0.0
C730 C 0.50372 0.09299 0.90861 0.0
N731 N 0.48446 0.09645 0.92772 0.0
N732 N 0.48472 0.12017 0.91785 0.0
C733 C 0.5044 0.13266 0.89197 0.0
C734 C 0.51709 0.11581 0.88541 0.0
C735 C 0.5076 0.06712 0.91075 0.0
H736 H 0.48609 0.04716 0.91129 0.0
H737 H 0.5201 0.06594 0.88827 0.0
H738 H 0.51921 0.06824 0.93525 0.0
O739 O 0.46456 0.09569 0.00589 0.0
O740 O 0.46431 0.13544 0.99058 0.0
H741 H 0.51613 0.17726 0.89395 0.0
H742 H 0.52994 0.1678 0.85623 0.0
C743 C 0.51117 0.16027 0.87413 0.0
H744 H 0.492 0.15691 0.85902 0.0
H745 H 0.49447 0.19105 0.95702 0.0
O746 O 0.47348 0.04779 0.97956 0.0
C747 C 0.46663 0.11972 0.01376 0.0
Co748 Co 0.94104 0.38922 0.96387 0.0
Co749 Co 0.88603 0.33332 0.93683 0.0
C750 C 0.94557 0.33906 0.93488 0.0
O751 O 0.958 0.36481 0.94736 0.0
O752 O 0.91818 0.3248 0.92985 0.0
C753 C 0.99227 0.44914 0.97063 0.0
O754 O 1.00407 0.44619 0.94193 0.0
C755 C 0.84313 0.28476 0.89233 0.0
C756 C 0.80251 0.28045 0.91335 0.0
C757 C 0.81319 0.26963 0.88821 0.0
N758 N 0.84975 0.30409 0.91831 0.0
N759 N 0.82533 0.30117 0.93086 0.0
C760 C 0.86504 0.28019 0.87329 0.0
H761 H 0.8808 0.28019 0.89215 0.0
H762 H 0.87722 0.29837 0.85487 0.0
H763 H 0.85463 0.25945 0.85865 0.0
C764 C 0.92083 0.41633 0.91136 0.0
N765 N 0.91817 0.3931 0.92864 0.0
N766 N 0.89599 0.36955 0.91587 0.0
C767 C 0.88462 0.37701 0.88903 0.0
C768 C 0.90012 0.40692 0.88521 0.0
C769 C 0.94102 0.44712 0.92155 0.0
H770 H 0.9414 0.44929 0.95035 0.0
H771 H 0.9631 0.45371 0.9121 0.0
H772 H 0.93424 0.46191 0.91011 0.0
O773 O 0.91806 0.37212 0.00586 0.0
O774 O 0.87855 0.33301 0.98791 0.0
H775 H 0.84002 0.34594 0.88077 0.0
H776 H 0.85849 0.36611 0.84208 0.0
C777 C 0.8607 0.35576 0.86607 0.0
H778 H 0.86508 0.33828 0.85842 0.0
H779 H 0.82429 0.31366 0.95117 0.0
O780 O 0.96889 0.42797 0.98177 0.0
C781 C 0.89366 0.35014 0.01224 0.0
Co782 Co 0.62395 0.55627 0.96111 0.0
Co783 Co 0.68 0.55619 0.93572 0.0
C784 C 0.67494 0.61058 0.93358 0.0
O785 O 0.64879 0.59786 0.94486 0.0
O786 O 0.68846 0.59667 0.92908 0.0
C787 C 0.56346 0.547 0.96791 0.0
O788 O 0.5662 0.56193 0.93948 0.0
C789 C 0.72867 0.56233 0.89105 0.0
C790 C 0.7347 0.52742 0.91319 0.0
C791 C 0.7446 0.5483 0.88735 0.0
N792 N 0.70976 0.54976 0.91746 0.0
N793 N 0.71371 0.52909 0.93066 0.0
C794 C 0.73206 0.58794 0.87109 0.0
H795 H 0.73105 0.60358 0.88923 0.0
H796 H 0.71389 0.58078 0.85233 0.0
H797 H 0.7529 0.59886 0.8567 0.0
C798 C 0.59726 0.50808 0.90922 0.0
N799 N 0.62038 0.52914 0.92625 0.0
N800 N 0.64397 0.52988 0.91462 0.0
C801 C 0.63668 0.51009 0.88891 0.0
C802 C 0.6068 0.4955 0.88482 0.0
C803 C 0.5664 0.49851 0.91785 0.0
H804 H 0.56337 0.49669 0.94654 0.0
H805 H 0.56094 0.51466 0.90776 0.0
H806 H 0.55131 0.47715 0.90613 0.0
O807 O 0.64104 0.55074 0.0036 0.0
O808 O 0.67987 0.54922 0.98673 0.0
H809 H 0.66812 0.49672 0.88281 0.0
H810 H 0.64781 0.49326 0.84354 0.0
C811 C 0.65809 0.50678 0.86698 0.0
H812 H 0.67538 0.52837 0.85833 0.0
H813 H 0.70174 0.51583 0.95141 0.0
O814 O 0.58483 0.54497 0.97873 0.0
C815 C 0.66274 0.54796 0.01062 0.0
Co816 Co 0.60655 0.88777 0.79657 0.0
Co817 Co 0.55072 0.88801 0.76948 0.0
C818 C 0.61032 0.94191 0.76539 0.0
O819 O 0.62289 0.92907 0.77901 0.0
O820 O 0.58288 0.92846 0.76042 0.0
C821 C 0.65828 0.87877 0.80524 0.0
O822 O 0.67109 0.89332 0.77679 0.0
C823 C 0.50632 0.89141 0.72515 0.0
C824 C 0.46636 0.85447 0.74628 0.0
C825 C 0.47643 0.87584 0.72107 0.0
N826 N 0.51364 0.87947 0.75127 0.0
N827 N 0.48957 0.8575 0.76385 0.0
C828 C 0.52734 0.91859 0.7069 0.0
H829 H 0.53376 0.93672 0.7255 0.0
H830 H 0.54694 0.91756 0.6996 0.0
H831 H 0.51787 0.923 0.68361 0.0
C832 C 0.58561 0.83943 0.7454 0.0
N833 N 0.58319 0.86038 0.76217 0.0
N834 N 0.56071 0.86134 0.74967 0.0
C835 C 0.54895 0.84192 0.72346 0.0
C836 C 0.56422 0.82723 0.72013 0.0
C837 C 0.60681 0.82992 0.75472 0.0
H838 H 0.6077 0.82819 0.78346 0.0
H839 H 0.62853 0.84607 0.7449 0.0
H840 H 0.60069 0.80853 0.74316 0.0
O841 O 0.58361 0.8823 0.83857 0.0
O842 O 0.54435 0.88274 0.82097 0.0
H843 H 0.50454 0.82859 0.71385 0.0
H844 H 0.52379 0.82721 0.67576 0.0
C845 C 0.52553 0.83957 0.69982 0.0
H846 H 0.53014 0.86152 0.69227 0.0
H847 H 0.48904 0.84426 0.78421 0.0
O848 O 0.63455 0.87673 0.81481 0.0
C849 C 0.55946 0.88046 0.84506 0.0
Co850 Co 0.12632 0.72144 0.79813 0.0
Co851 Co 0.12651 0.66574 0.77077 0.0
C852 C 0.07201 0.67056 0.76987 0.0
O853 O 0.08468 0.69643 0.78205 0.0
O854 O 0.08598 0.65722 0.76456 0.0
C855 C 0.13471 0.7817 0.808 0.0
O856 O 0.12039 0.78029 0.77946 0.0
C857 C 0.12109 0.6176 0.72475 0.0
C858 C 0.15471 0.61048 0.74871 0.0
C859 C 0.13446 0.60096 0.72212 0.0
N860 N 0.13312 0.63622 0.75163 0.0
N861 N 0.15312 0.63168 0.76576 0.0
C862 C 0.09682 0.61526 0.70276 0.0
H863 H 0.08443 0.62358 0.71699 0.0
H864 H 0.10583 0.62839 0.67878 0.0
H865 H 0.08216 0.59243 0.69487 0.0
C866 C 0.17384 0.74902 0.74587 0.0
N867 N 0.15323 0.72561 0.76286 0.0
N868 N 0.15262 0.70229 0.75044 0.0
C869 C 0.17201 0.71007 0.7242 0.0
C870 C 0.18623 0.74 0.72059 0.0
C871 C 0.18292 0.77966 0.75511 0.0
H872 H 0.18493 0.78244 0.78383 0.0
H873 H 0.16637 0.78478 0.74562 0.0
H874 H 0.20409 0.79514 0.74325 0.0
O875 O 0.13271 0.70417 0.8397 0.0
O876 O 0.13341 0.66508 0.82184 0.0
H877 H 0.18516 0.67867 0.71599 0.0
H878 H 0.18791 0.69954 0.67746 0.0
C879 C 0.17488 0.68898 0.70112 0.0
H880 H 0.1531 0.67185 0.6928 0.0
H881 H 0.16586 0.64325 0.78707 0.0
O882 O 0.13707 0.7601 0.81702 0.0
C883 C 0.13549 0.68238 0.84599 0.0
Co884 Co 0.29176 0.4053 0.79374 0.0
Co885 Co 0.34757 0.46224 0.77056 0.0
C886 C 0.34271 0.40242 0.76683 0.0
O887 O 0.3165 0.38861 0.77788 0.0
O888 O 0.35604 0.42997 0.76327 0.0
C889 C 0.2312 0.35303 0.80885 0.0
O890 O 0.23412 0.33345 0.79134 0.0
C891 C 0.39486 0.50425 0.72457 0.0
C892 C 0.40224 0.54547 0.74748 0.0
C893 C 0.41081 0.53409 0.7206 0.0
N894 N 0.3774 0.49827 0.75244 0.0
N895 N 0.38224 0.52304 0.76621 0.0
C896 C 0.39451 0.48186 0.70075 0.0
H897 H 0.37366 0.46124 0.70304 0.0
H898 H 0.39808 0.48956 0.6733 0.0
H899 H 0.41233 0.47791 0.70823 0.0
C900 C 0.26569 0.42474 0.74008 0.0
N901 N 0.28874 0.42843 0.75862 0.0
N902 N 0.31177 0.45264 0.74892 0.0
C903 C 0.30402 0.46504 0.72357 0.0
C904 C 0.27453 0.44782 0.71745 0.0
C905 C 0.23604 0.39876 0.74261 0.0
H906 H 0.23768 0.37885 0.7422 0.0
H907 H 0.22192 0.39788 0.72082 0.0
H908 H 0.226 0.39953 0.76767 0.0
O909 O 0.30815 0.42774 0.83661 0.0
O910 O 0.34691 0.4688 0.82156 0.0
H911 H 0.31277 0.49951 0.68711 0.0
H912 H 0.34098 0.49033 0.69143 0.0
C913 C 0.3243 0.49287 0.70574 0.0
H914 H 0.33536 0.51014 0.72555 0.0
H915 H 0.37121 0.52461 0.78785 0.0
O916 O 0.25196 0.37887 0.80997 0.0
C917 C 0.32924 0.45234 0.84465 0.0
Co918 Co 0.55865 0.93939 0.0438 0.0
Co919 Co 0.55747 0.88241 0.06683 0.0
C920 C 0.61249 0.94189 0.0698 0.0
O921 O 0.60006 0.95581 0.05942 0.0
O922 O 0.59827 0.91437 0.07324 0.0
C923 C 0.55179 0.99231 0.03448 0.0
O924 O 0.57141 0.00805 0.05789 0.0
C925 C 0.56287 0.83922 0.11123 0.0
C926 C 0.53097 0.7988 0.08494 0.0
C927 C 0.55021 0.80923 0.11261 0.0
N928 N 0.55135 0.84605 0.0841 0.0
N929 N 0.53242 0.82174 0.06851 0.0
C930 C 0.58605 0.86097 0.13459 0.0
H931 H 0.59876 0.88194 0.12101 0.0
H932 H 0.57594 0.86456 0.15795 0.0
H933 H 0.60066 0.85302 0.1434 0.0
C934 C 0.51247 0.9193 0.09743 0.0
N935 N 0.53219 0.91606 0.07898 0.0
N936 N 0.5317 0.89227 0.08914 0.0
C937 C 0.51194 0.87988 0.11489 0.0
C938 C 0.49925 0.89675 0.12113 0.0
C939 C 0.50485 0.94232 0.09062 0.0
H940 H 0.49984 0.94224 0.06254 0.0
H941 H 0.52358 0.96374 0.09739 0.0
H942 H 0.48569 0.93887 0.10583 0.0
O943 O 0.55256 0.91732 1.00069 0.0
O944 O 0.54958 0.87605 0.0159 0.0
H945 H 0.4981 0.83473 0.11578 0.0
H946 H 0.49073 0.84796 0.15583 0.0
C947 C 0.50642 0.85323 0.13421 0.0
H948 H 0.52705 0.85658 0.14526 0.0
H949 H 0.52026 0.8208 0.04671 0.0
O950 O 0.54681 0.96697 0.02779 0.0
C951 C 0.54879 0.89262 0.99266 0.0
Co952 Co 0.07267 0.62081 0.04141 0.0
Co953 Co 0.12811 0.67633 0.06791 0.0
C954 C 0.0688 0.67141 0.06954 0.0
O955 O 0.05599 0.64549 0.05758 0.0
O956 O 0.09624 0.68542 0.07421 0.0
C957 C 0.02122 0.56055 0.03158 0.0
O958 O 0.00777 0.56187 0.05967 0.0
C959 C 0.17 0.72538 0.11205 0.0
C960 C 0.21097 0.72823 0.09492 0.0
C961 C 0.19973 0.74021 0.11774 0.0
N962 N 0.16405 0.70553 0.08694 0.0
N963 N 0.18868 0.70759 0.07662 0.0
C964 C 0.14736 0.7281 0.13202 0.0
H965 H 0.12771 0.70651 0.13505 0.0
H966 H 0.15551 0.73797 0.15807 0.0
H967 H 0.14117 0.74199 0.11707 0.0
C968 C 0.0923 0.5934 0.09401 0.0
N969 N 0.09523 0.61673 0.07677 0.0
N970 N 0.11764 0.64015 0.08939 0.0
C971 C 0.12892 0.63252 0.11614 0.0
C972 C 0.11315 0.60261 0.11999 0.0
C973 C 0.07174 0.56271 0.08377 0.0
H974 H 0.07182 0.56046 0.05501 0.0
H975 H 0.04961 0.55672 0.09241 0.0
H976 H 0.07777 0.54753 0.09574 0.0
O977 O 0.09589 0.63766 0.99968 0.0
O978 O 0.13617 0.67613 0.01701 0.0
H979 H 0.17383 0.66232 0.12453 0.0
H980 H 0.1546 0.64331 0.16342 0.0
C981 C 0.1531 0.65358 0.13895 0.0
H982 H 0.14963 0.67181 0.14575 0.0
H983 H 0.19016 0.69438 0.05762 0.0
O984 O 0.04517 0.58224 0.0229 0.0
C985 C 0.12064 0.65896 0.99294 0.0
Co986 Co 0.39135 0.45525 0.04055 0.0
Co987 Co 0.33568 0.45555 0.06735 0.0
C988 C 0.34056 0.40093 0.06808 0.0
O989 O 0.3666 0.41361 0.05641 0.0
O990 O 0.3272 0.41494 0.07313 0.0
C991 C 0.45199 0.46456 0.02939 0.0
O992 O 0.45081 0.44887 0.05644 0.0
C993 C 0.28694 0.44963 0.11248 0.0
C994 C 0.28025 0.48358 0.0887 0.0
C995 C 0.27024 0.46296 0.11487 0.0
N996 N 0.30602 0.46203 0.08614 0.0
N997 N 0.30176 0.48222 0.07211 0.0
C998 C 0.28423 0.42504 0.13409 0.0
H999 H 0.2922 0.41249 0.11953 0.0
H1000 H 0.29755 0.43377 0.15802 0.0
H1001 H 0.26138 0.41059 0.14202 0.0
C1002 C 0.41865 0.50207 0.09359 0.0
N1003 N 0.3953 0.48192 0.07607 0.0
N1004 N 0.372 0.48145 0.08827 0.0
C1005 C 0.37972 0.50057 0.11484 0.0
C1006 C 0.40957 0.51417 0.11921 0.0
C1007 C 0.44932 0.51137 0.08413 0.0
H1008 H 0.45221 0.51458 0.05552 0.0
H1009 H 0.45425 0.49432 0.09205 0.0
H1010 H 0.46485 0.53198 0.09711 0.0
O1011 O 0.37389 0.46107 0.99879 0.0
O1012 O 0.33534 0.46277 0.01638 0.0
H1013 H 0.34873 0.51446 0.12117 0.0
H1014 H 0.36913 0.51777 0.16033 0.0
C1015 C 0.35866 0.50427 0.13695 0.0
H1016 H 0.3412 0.48277 0.14562 0.0
H1017 H 0.31368 0.49523 0.05117 0.0
O1018 O 0.43019 0.46699 0.02176 0.0
C1019 C 0.35225 0.46401 0.9922 0.0
Co1020 Co 0.0741 0.45456 0.54272 0.0
Co1021 Co 0.13006 0.45349 0.56583 0.0
C1022 C 0.06926 0.40016 0.57056 0.0
O1023 O 0.05636 0.41335 0.55918 0.0
O1024 O 0.09684 0.41333 0.57396 0.0
C1025 C 0.02209 0.46277 0.53153 0.0
O1026 O 1.00493 0.44112 0.55193 0.0
C1027 C 0.17191 0.44817 0.6122 0.0
C1028 C 0.21294 0.47757 0.58513 0.0
C1029 C 0.20183 0.46021 0.61435 0.0
N1030 N 0.16586 0.45859 0.5834 0.0
N1031 N 0.19048 0.47594 0.56727 0.0
C1032 C 0.14926 0.426 0.6357 0.0
H1033 H 0.13089 0.40972 0.61992 0.0
H1034 H 0.14078 0.43671 0.65309 0.0
H1035 H 0.15811 0.41491 0.65175 0.0
C1036 C 0.09484 0.49988 0.59704 0.0
N1037 N 0.09801 0.4805 0.57776 0.0
N1038 N 0.1221 0.48115 0.58683 0.0
C1039 C 0.13524 0.50135 0.61202 0.0
C1040 C 0.11831 0.51381 0.61934 0.0
C1041 C 0.06864 0.50326 0.59607 0.0
H1042 H 0.06874 0.51431 0.57149 0.0
H1043 H 0.0489 0.4816 0.59654 0.0
H1044 H 0.06794 0.51602 0.61856 0.0
O1045 O 0.09588 0.45893 0.49944 0.0
O1046 O 0.13597 0.45929 0.51482 0.0
H1047 H 0.17952 0.51214 0.60735 0.0
H1048 H 0.17254 0.52929 0.64375 0.0
C1049 C 0.16378 0.50911 0.62812 0.0
H1050 H 0.16108 0.49121 0.64529 0.0
H1051 H 0.19199 0.48706 0.54425 0.0
O1052 O 0.04794 0.4685 0.52671 0.0
C1053 C 0.1198 0.46067 0.49149 0.0
Co1054 Co 0.55701 0.62197 0.54003 0.0
Co1055 Co 0.55841 0.67803 0.56722 0.0
C1056 C 0.61166 0.67159 0.5701 0.0
O1057 O 0.5982 0.64591 0.55739 0.0
O1058 O 0.59876 0.68609 0.57502 0.0
C1059 C 0.54744 0.56154 0.53111 0.0
O1060 O 0.56146 0.56298 0.55993 0.0
C1061 C 0.56405 0.7263 0.61205 0.0
C1062 C 0.52635 0.72909 0.59311 0.0
C1063 C 0.54846 0.74045 0.61744 0.0
N1064 N 0.5514 0.70715 0.5859 0.0
N1065 N 0.52914 0.70927 0.57447 0.0
C1066 C 0.58886 0.72904 0.6332 0.0
H1067 H 0.58889 0.70825 0.63327 0.0
H1068 H 0.5878 0.73566 0.6604 0.0
H1069 H 0.60941 0.74582 0.62126 0.0
C1070 C 0.50843 0.59482 0.59098 0.0
N1071 N 0.52972 0.61807 0.57446 0.0
N1072 N 0.53136 0.64168 0.5874 0.0
C1073 C 0.51206 0.63424 0.61372 0.0
C1074 C 0.4967 0.60424 0.61664 0.0
C1075 C 0.49815 0.56405 0.58101 0.0
H1076 H 0.49691 0.56187 0.5522 0.0
H1077 H 0.51359 0.55762 0.5911 0.0
H1078 H 0.47639 0.54917 0.59192 0.0
O1079 O 0.55229 0.63985 0.49813 0.0
O1080 O 0.55241 0.67927 0.51597 0.0
H1081 H 0.49935 0.66567 0.62432 0.0
H1082 H 0.49845 0.645 0.66209 0.0
C1083 C 0.51041 0.65551 0.63779 0.0
H1084 H 0.53255 0.67269 0.64488 0.0
H1085 H 0.51529 0.69647 0.55456 0.0
O1086 O 0.54577 0.58334 0.52139 0.0
C1087 C 0.55055 0.6622 0.49165 0.0
Co1088 Co 0.39124 0.93727 0.54307 0.0
Co1089 Co 0.33379 0.8818 0.56563 0.0
C1090 C 0.34092 0.94238 0.56859 0.0
O1091 O 0.36719 0.95488 0.55782 0.0
O1092 O 0.32624 0.91485 0.57251 0.0
C1093 C 0.45182 0.98888 0.53415 0.0
O1094 O 0.44781 0.00497 0.55694 0.0
C1095 C 0.28606 0.84022 0.6112 0.0
C1096 C 0.27716 0.79886 0.58712 0.0
C1097 C 0.2695 0.8104 0.61469 0.0
N1098 N 0.30302 0.84605 0.5829 0.0
N1099 N 0.29724 0.82122 0.56839 0.0
C1100 C 0.28751 0.86267 0.63582 0.0
H1101 H 0.30898 0.88267 0.63409 0.0
H1102 H 0.28333 0.85438 0.66302 0.0
H1103 H 0.27061 0.86804 0.6285 0.0
C1104 C 0.41521 0.91608 0.59768 0.0
N1105 N 0.39281 0.91359 0.57871 0.0
N1106 N 0.36903 0.88991 0.58804 0.0
C1107 C 0.37569 0.87655 0.61335 0.0
C1108 C 0.4052 0.89266 0.62006 0.0
C1109 C 0.44535 0.94134 0.59588 0.0
H1110 H 0.44459 0.96165 0.59819 0.0
H1111 H 0.45926 0.9408 0.61706 0.0
H1112 H 0.45507 0.94123 0.5703 0.0
O1113 O 0.37505 0.91506 0.50002 0.0
O1114 O 0.33483 0.87528 0.51474 0.0
H1115 H 0.3428 0.83203 0.60974 0.0
H1116 H 0.3653 0.84055 0.64801 0.0
C1117 C 0.35447 0.84855 0.63017 0.0
H1118 H 0.33844 0.85162 0.64519 0.0
H1119 H 0.30782 0.81953 0.54635 0.0
O1120 O 0.43132 0.96362 0.52734 0.0
C1121 C 0.35322 0.89102 0.49184 0.0
Co1122 Co 0.12124 0.40265 0.291 0.0
Co1123 Co 0.12292 0.46013 0.26967 0.0
C1124 C 0.06777 0.40034 0.26459 0.0
O1125 O 0.07991 0.38617 0.27518 0.0
O1126 O 0.08221 0.42794 0.26173 0.0
C1127 C 0.12953 0.35024 0.30628 0.0
O1128 O 0.10601 0.33001 0.29102 0.0
C1129 C 0.11758 0.50219 0.22437 0.0
C1130 C 0.14922 0.54343 0.24939 0.0
C1131 C 0.13008 0.532 0.22178 0.0
N1132 N 0.12885 0.49623 0.25238 0.0
N1133 N 0.14758 0.52099 0.26733 0.0
C1134 C 0.09702 0.47994 0.19923 0.0
H1135 H 0.09859 0.45999 0.2008 0.0
H1136 H 0.10156 0.48859 0.17219 0.0
H1137 H 0.07462 0.47441 0.20598 0.0
C1138 C 0.16634 0.4224 0.23668 0.0
N1139 N 0.1474 0.42618 0.25604 0.0
N1140 N 0.1493 0.45097 0.24774 0.0
C1141 C 0.16979 0.46391 0.22286 0.0
C1142 C 0.18123 0.44615 0.21507 0.0
C1143 C 0.16883 0.39568 0.23739 0.0
H1144 H 0.181 0.39606 0.26107 0.0
H1145 H 0.14693 0.37627 0.23857 0.0
H1146 H 0.18028 0.39414 0.214 0.0
O1147 O 0.12695 0.42443 0.33456 0.0
O1148 O 0.12957 0.46585 0.32066 0.0
H1149 H 0.18303 0.50869 0.22899 0.0
H1150 H 0.19867 0.50109 0.19152 0.0
C1151 C 0.17883 0.49303 0.20766 0.0
H1152 H 0.16104 0.49161 0.19125 0.0
H1153 H 0.15971 0.52257 0.28944 0.0
O1154 O 0.13483 0.37618 0.30624 0.0
C1155 C 0.13037 0.44888 0.34328 0.0
Co1156 Co 0.60837 0.72262 0.29253 0.0
Co1157 Co 0.55203 0.66577 0.27037 0.0
C1158 C 0.61233 0.67192 0.26662 0.0
O1159 O 0.62543 0.6982 0.27741 0.0
O1160 O 0.58473 0.65767 0.26313 0.0
C1161 C 0.66046 0.78335 0.30779 0.0
O1162 O 0.68058 0.77986 0.29253 0.0
C1163 C 0.51028 0.61736 0.22572 0.0
C1164 C 0.46886 0.60973 0.24831 0.0
C1165 C 0.48043 0.60082 0.22204 0.0
N1166 N 0.51606 0.63535 0.25297 0.0
N1167 N 0.49119 0.6304 0.26656 0.0
C1168 C 0.53293 0.61769 0.2024 0.0
H1169 H 0.55159 0.64004 0.20026 0.0
H1170 H 0.52401 0.60912 0.17609 0.0
H1171 H 0.54087 0.60391 0.2141 0.0
C1172 C 0.58852 0.74696 0.23743 0.0
N1173 N 0.58499 0.72448 0.257 0.0
N1174 N 0.56083 0.70111 0.24795 0.0
C1175 C 0.54808 0.70814 0.22227 0.0
C1176 C 0.56527 0.73745 0.21485 0.0
C1177 C 0.61466 0.77658 0.23885 0.0
H1178 H 0.61364 0.78781 0.26276 0.0
H1179 H 0.63446 0.77476 0.24012 0.0
H1180 H 0.61605 0.78971 0.21571 0.0
O1181 O 0.58628 0.70667 0.33569 0.0
O1182 O 0.54577 0.66705 0.32128 0.0
H1183 H 0.5032 0.67649 0.22656 0.0
H1184 H 0.51208 0.69858 0.18792 0.0
C1185 C 0.51966 0.68743 0.20587 0.0
H1186 H 0.52186 0.67072 0.19117 0.0
H1187 H 0.48948 0.64176 0.28774 0.0
O1188 O 0.63447 0.76281 0.30786 0.0
C1189 C 0.562 0.68528 0.34406 0.0
Co1190 Co 0.29111 0.88875 0.29619 0.0
Co1191 Co 0.34582 0.88721 0.26914 0.0
C1192 C 0.34223 0.94239 0.26767 0.0
O1193 O 0.31635 0.93004 0.27978 0.0
O1194 O 0.35535 0.92814 0.26255 0.0
C1195 C 0.2312 0.8809 0.30735 0.0
O1196 O 0.23256 0.89623 0.27983 0.0
C1197 C 0.39475 0.89326 0.22544 0.0
C1198 C 0.39595 0.85415 0.24198 0.0
C1199 C 0.40888 0.8777 0.21981 0.0
N1200 N 0.37434 0.87947 0.24999 0.0
N1201 N 0.37541 0.85628 0.25993 0.0
C1202 C 0.39893 0.91937 0.20598 0.0
H1203 H 0.3781 0.91921 0.20396 0.0
H1204 H 0.40785 0.92026 0.17952 0.0
H1205 H 0.41446 0.93905 0.22054 0.0
C1206 C 0.26259 0.84166 0.24357 0.0
N1207 N 0.28621 0.86167 0.26087 0.0
N1208 N 0.30924 0.86171 0.24848 0.0
C1209 C 0.30108 0.84247 0.22199 0.0
C1210 C 0.27125 0.82917 0.21801 0.0
C1211 C 0.23209 0.83294 0.25309 0.0
H1212 H 0.22925 0.83008 0.28175 0.0
H1213 H 0.22749 0.85014 0.24482 0.0
H1214 H 0.21629 0.81232 0.24037 0.0
O1215 O 0.3085 0.88272 0.33786 0.0
O1216 O 0.34661 0.88031 0.32008 0.0
H1217 H 0.32968 0.82582 0.21404 0.0
H1218 H 0.31106 0.82647 0.17503 0.0
C1219 C 0.32162 0.8383 0.1994 0.0
H1220 H 0.34034 0.85963 0.19245 0.0
H1221 H 0.36163 0.84154 0.27853 0.0
O1222 O 0.25272 0.8781 0.31525 0.0
C1223 C 0.32996 0.87945 0.34436 0.0
C1224 C 0.20509 0.22835 0.26267 0.0
C1225 C 0.21743 0.21806 0.28725 0.0
C1226 C 0.20761 0.22517 0.22672 0.0
C1227 C 0.22311 0.21214 0.21408 0.0
H1228 H 0.19417 0.23979 0.27125 0.0
H1229 H 0.19881 0.23449 0.20878 0.0
S1230 S 0.25708 0.17908 0.26744 0.0
N1231 N 0.24356 0.19209 0.29638 0.0
N1232 N 0.24884 0.18665 0.2288 0.0
C1233 C 0.23424 0.2004 0.23834 0.0
C1234 C 0.23123 0.20318 0.27495 0.0
C1235 C 0.81168 0.03262 0.24075 0.0
C1236 C 0.8005 0.00969 0.21649 0.0
C1237 C 0.80943 0.02734 0.27677 0.0
C1238 C 0.79535 0.99891 0.28974 0.0
H1239 H 0.82139 0.05482 0.23185 0.0
H1240 H 0.81718 0.04557 0.29448 0.0
S1241 S 0.76503 0.93141 0.2374 0.0
N1242 N 0.7772 0.95758 0.20809 0.0
N1243 N 0.77237 0.94765 0.27582 0.0
C1244 C 0.78551 0.97586 0.26584 0.0
C1245 C 0.78827 0.98125 0.22918 0.0
C1246 C 0.98661 0.78654 0.27574 0.0
C1247 C 0.01518 0.80073 0.28823 0.0
C1248 C 0.98091 0.78341 0.2398 0.0
C1249 C 1.00355 0.79478 0.2151 0.0
H1250 H 0.96858 0.77611 0.29373 0.0
H1251 H 0.95858 0.7709 0.23132 0.0
S1252 S 0.08206 0.83773 0.23471 0.0
N1253 N 0.06629 0.82907 0.27339 0.0
N1254 N 0.05553 0.82357 0.20584 0.0
C1255 C 0.03213 0.81112 0.22732 0.0
C1256 C 0.03794 0.81395 0.26391 0.0
C1257 C 0.78759 0.80559 0.72642 0.0
C1258 C 0.80125 0.79068 0.71382 0.0
C1259 C 0.78467 0.80838 0.76234 0.0
C1260 C 0.79585 0.7969 0.78691 0.0
H1261 H 0.77758 0.81367 0.70849 0.0
H1262 H 0.7727 0.81875 0.77092 0.0
S1263 S 0.83684 0.75928 0.76717 0.0
N1264 N 0.82838 0.76661 0.72851 0.0
N1265 N 0.82341 0.77239 0.79609 0.0
C1266 C 0.8114 0.78381 0.77464 0.0
C1267 C 0.81393 0.78052 0.73805 0.0
C1268 C 0.20699 0.00904 0.77157 0.0
C1269 C 0.22342 0.99816 0.78742 0.0
C1270 C 0.20854 0.01394 0.73531 0.0
C1271 C 0.22688 0.00847 0.71429 0.0
H1272 H 0.19283 0.01364 0.78721 0.0
H1273 H 0.19595 0.02266 0.72383 0.0
S1274 S 0.27531 0.98144 0.74305 0.0
N1275 N 0.25906 0.98284 0.77909 0.0
N1276 N 0.26213 0.99251 0.71146 0.0
C1277 C 0.24344 0.99783 0.7298 0.0
C1278 C 0.24166 0.99254 0.76629 0.0
C1279 C 0.98096 0.20172 0.7416 0.0
C1280 C 1.00389 0.21257 0.71731 0.0
C1281 C 0.98623 0.20413 0.77764 0.0
C1282 C 0.01464 0.21794 0.79063 0.0
H1283 H 0.95877 0.19228 0.73273 0.0
H1284 H 0.96803 0.1968 0.79532 0.0
S1285 S 0.08207 0.2467 0.73835 0.0
N1286 N 0.05593 0.23486 0.709 0.0
N1287 N 0.06585 0.23984 0.77674 0.0
C1288 C 0.03766 0.22716 0.76674 0.0
C1289 C 0.03228 0.22432 0.73006 0.0
C1290 C 0.89613 0.53888 0.60987 0.0
C1291 C 0.88252 0.55366 0.62303 0.0
C1292 C 0.89904 0.53658 0.57381 0.0
C1293 C 0.88793 0.54846 0.54966 0.0
H1294 H 0.90611 0.53054 0.62748 0.0
H1295 H 0.91094 0.52625 0.5648 0.0
S1296 S 0.84706 0.58593 0.57103 0.0
N1297 N 0.85552 0.57804 0.60936 0.0
N1298 N 0.86044 0.57317 0.54157 0.0
C1299 C 0.87243 0.56144 0.56252 0.0
C1300 C 0.86991 0.56422 0.59923 0.0
C1301 C 0.4546 0.3165 0.56172 0.0
C1302 C 0.46914 0.34508 0.54929 0.0
C1303 C 0.45169 0.31079 0.59766 0.0
C1304 C 0.46367 0.33342 0.62237 0.0
H1305 H 0.44369 0.29854 0.54372 0.0
H1306 H 0.43884 0.2885 0.60615 0.0
S1307 S 0.50768 0.41182 0.60283 0.0
N1308 N 0.49843 0.3961 0.56415 0.0
N1309 N 0.49337 0.38531 0.63168 0.0
C1310 C 0.48038 0.36194 0.61017 0.0
C1311 C 0.48297 0.36778 0.5736 0.0
C1312 C 0.65334 0.11884 0.61141 0.0
C1313 C 0.68187 0.13201 0.62403 0.0
C1314 C 0.6477 0.11606 0.57547 0.0
C1315 C 0.67037 0.1269 0.55088 0.0
H1316 H 0.6352 0.10902 0.62932 0.0
H1317 H 0.62535 0.10433 0.56688 0.0
S1318 S 0.74894 0.16674 0.57067 0.0
N1319 N 0.7331 0.15846 0.60933 0.0
N1320 N 0.72244 0.15374 0.54173 0.0
C1321 C 0.699 0.14207 0.56318 0.0
C1322 C 0.70476 0.14445 0.59979 0.0
C1323 C 0.45045 0.14316 0.09992 0.0
C1324 C 0.46253 0.13244 0.12431 0.0
C1325 C 0.45377 0.14103 0.06391 0.0
C1326 C 0.4688 0.12758 0.05108 0.0
H1327 H 0.43739 0.1523 0.10869 0.0
H1328 H 0.44293 0.14829 0.04611 0.0
S1329 S 0.50724 0.09892 0.10387 0.0
N1330 N 0.49248 0.11044 0.13301 0.0
N1331 N 0.49824 0.10592 0.06535 0.0
C1332 C 0.48247 0.11838 0.07514 0.0
C1333 C 0.47949 0.12098 0.11178 0.0
C1334 C 0.8919 0.36063 0.10978 0.0
C1335 C 0.87698 0.33207 0.12222 0.0
C1336 C 0.89575 0.36633 0.07388 0.0
C1337 C 0.88437 0.34371 0.04915 0.0
H1338 H 0.90238 0.37861 0.12784 0.0
H1339 H 0.9088 0.38862 0.06549 0.0
S1340 S 0.83964 0.26536 0.06847 0.0
N1341 N 0.84798 0.28107 0.10722 0.0
N1342 N 0.85475 0.29185 0.03968 0.0
C1343 C 0.8673 0.3152 0.06124 0.0
C1344 C 0.86377 0.30937 0.09782 0.0
C1345 C 0.64615 0.53413 0.07217 0.0
C1346 C 0.66897 0.54565 0.04775 0.0
C1347 C 0.6516 0.53618 0.10816 0.0
C1348 C 0.68008 0.55035 0.12099 0.0
H1349 H 0.6239 0.52441 0.06345 0.0
H1350 H 0.63343 0.52826 0.12598 0.0
S1351 S 0.74734 0.58121 0.06808 0.0
N1352 N 0.72102 0.56915 0.03896 0.0
N1353 N 0.73131 0.57352 0.10662 0.0
C1354 C 0.70303 0.56035 0.09688 0.0
C1355 C 0.69747 0.55784 0.06023 0.0
C1356 C 0.53909 0.90014 0.9308 0.0
C1357 C 0.54593 0.88465 0.95517 0.0
C1358 C 0.54122 0.89692 0.89478 0.0
C1359 C 0.55068 0.87842 0.88191 0.0
H1360 H 0.53321 0.91583 0.93958 0.0
H1361 H 0.53731 0.91042 0.87706 0.0
S1362 S 0.5665 0.82944 0.93401 0.0
N1363 N 0.55878 0.84723 0.96339 0.0
N1364 N 0.56346 0.84178 0.89564 0.0
C1365 C 0.55555 0.86128 0.90572 0.0
C1366 C 0.55293 0.86418 0.94239 0.0
C1367 C 0.11548 0.64201 0.93118 0.0
C1368 C 0.12986 0.6644 0.95588 0.0
C1369 C 0.11943 0.64749 0.89526 0.0
C1370 C 0.13758 0.67562 0.88279 0.0
H1371 H 0.09998 0.62026 0.93957 0.0
H1372 H 0.10658 0.63002 0.87726 0.0
S1373 S 0.18437 0.7406 0.93601 0.0
N1374 N 0.16631 0.71488 0.96502 0.0
N1375 N 0.17314 0.72528 0.89734 0.0
C1376 C 0.15387 0.6977 0.90699 0.0
C1377 C 0.15022 0.69205 0.94361 0.0
C1378 C 0.36847 0.47832 0.93071 0.0
C1379 C 0.34571 0.46617 0.95519 0.0
C1380 C 0.36294 0.4757 0.89474 0.0
C1381 C 0.33446 0.46029 0.882 0.0
H1382 H 0.39078 0.4889 0.93941 0.0
H1383 H 0.38113 0.48415 0.87689 0.0
S1384 S 0.26721 0.42733 0.93508 0.0
N1385 N 0.29362 0.44072 0.96413 0.0
N1386 N 0.28318 0.43526 0.89648 0.0
C1387 C 0.31149 0.44965 0.90615 0.0
C1388 C 0.31712 0.45276 0.94278 0.0
C1389 C 0.11918 0.47121 0.3938 0.0
C1390 C 0.13255 0.45615 0.3808 0.0
C1391 C 0.11633 0.47374 0.42982 0.0
C1392 C 0.12731 0.46186 0.45411 0.0
H1393 H 0.10935 0.47965 0.37609 0.0
H1394 H 0.10461 0.4843 0.4387 0.0
S1395 S 0.1674 0.4235 0.43324 0.0
N1396 N 0.15907 0.43134 0.3948 0.0
N1397 N 0.1543 0.43666 0.46252 0.0
C1398 C 0.14252 0.44852 0.44141 0.0
C1399 C 0.14495 0.44548 0.40474 0.0
C1400 C 0.53604 0.64626 0.43018 0.0
C1401 C 0.54863 0.66898 0.45468 0.0
C1402 C 0.53858 0.65179 0.39423 0.0
C1403 C 0.55429 0.68023 0.38149 0.0
H1404 H 0.52512 0.62393 0.43881 0.0
H1405 H 0.52976 0.63357 0.3764 0.0
S1406 S 0.58827 0.74748 0.43465 0.0
N1407 N 0.57474 0.72107 0.46368 0.0
N1408 N 0.57998 0.73152 0.39605 0.0
C1409 C 0.56534 0.70322 0.40568 0.0
C1410 C 0.56235 0.69758 0.44232 0.0
C1411 C 0.31381 0.86545 0.40586 0.0
C1412 C 0.33653 0.87726 0.38133 0.0
C1413 C 0.31939 0.86805 0.4418 0.0
C1414 C 0.34792 0.88307 0.45449 0.0
H1415 H 0.29149 0.85517 0.39723 0.0
H1416 H 0.30123 0.85988 0.45966 0.0
S1417 S 0.41507 0.91491 0.40127 0.0
N1418 N 0.3886 0.9019 0.37227 0.0
N1419 N 0.39916 0.90728 0.43989 0.0
C1420 C 0.37083 0.89332 0.43029 0.0
C1421 C 0.36513 0.89025 0.39367 0.0
C1422 C 0.32459 0.32371 0.08702 0.0
C1423 C 0.29409 0.30771 0.08897 0.0
C1424 C 0.33955 0.35369 0.07993 0.0
C1425 C 0.32467 0.36903 0.07491 0.0
H1426 H 0.3371 0.31303 0.09098 0.0
H1427 H 0.36297 0.36496 0.07884 0.0
S1428 S 0.24471 0.33743 0.07638 0.0
N1429 N 0.24963 0.30987 0.08468 0.0
N1430 N 0.27744 0.36553 0.07133 0.0
C1431 C 0.29416 0.35323 0.0765 0.0
C1432 C 0.27899 0.32283 0.08351 0.0
C1433 C 0.65967 0.98776 0.08286 0.0
C1434 C 0.64427 0.95758 0.07735 0.0
C1435 C 0.68955 1.0026 0.09045 0.0
C1436 C 0.7054 0.98797 0.09246 0.0
H1437 H 0.64853 1.00003 0.08169 0.0
H1438 H 0.70028 0.02576 0.09467 0.0
S1439 S 0.67551 0.90892 0.07913 0.0
N1440 N 0.64754 0.91373 0.07371 0.0
N1441 N 0.70308 0.94128 0.08793 0.0
C1442 C 0.69024 0.95779 0.08665 0.0
C1443 C 0.65991 0.94273 0.07914 0.0
C1444 C 0.05217 0.73184 0.08794 0.0
C1445 C 0.02184 0.71742 0.09175 0.0
C1446 C 0.06688 0.71672 0.0811 0.0
C1447 C 0.05203 0.68638 0.07726 0.0
H1448 H 0.06491 0.75514 0.09063 0.0
H1449 H 0.09022 0.72913 0.07854 0.0
S1450 S 0.97242 0.63802 0.08443 0.0
N1451 N 0.97735 0.67077 0.0911 0.0
N1452 N 1.00497 0.64237 0.07779 0.0
C1453 C 0.02163 0.67158 0.08077 0.0
C1454 C 1.0066 0.68704 0.08815 0.0
C1455 C 0.3551 0.29443 0.42464 0.0
C1456 C 0.37084 0.3248 0.42782 0.0
C1457 C 0.32534 0.2795 0.41757 0.0
C1458 C 0.30971 0.29413 0.41294 0.0
H1459 H 0.36576 0.28183 0.42789 0.0
H1460 H 0.31461 0.25615 0.41533 0.0
S1461 S 0.34045 0.37373 0.41865 0.0
N1462 N 0.36838 0.3691 0.42602 0.0
N1463 N 0.31241 0.34104 0.41234 0.0
C1464 C 0.32509 0.32455 0.41606 0.0
C1465 C 0.35555 0.33983 0.42363 0.0
C1466 C 0.69214 0.00774 0.41734 0.0
C1467 C 0.72245 0.02258 0.41284 0.0
C1468 C 0.67714 0.02266 0.42474 0.0
C1469 C 0.69175 0.0531 0.42756 0.0
H1470 H 0.67987 0.98437 0.41538 0.0
H1471 H 0.65387 0.01022 0.42806 0.0
S1472 S 0.77114 0.10237 0.41776 0.0
N1473 N 0.76642 0.06972 0.41143 0.0
N1474 N 0.73857 0.09745 0.42549 0.0
C1475 C 0.72207 0.06816 0.42301 0.0
C1476 C 0.73729 0.05302 0.41565 0.0
C1477 C 0.94867 0.65751 0.42038 0.0
C1478 C 0.96322 0.64175 0.42443 0.0
C1479 C 0.96367 0.68733 0.41362 0.0
C1480 C 0.99404 0.70298 0.41013 0.0
H1481 H 0.92533 0.64684 0.42283 0.0
H1482 H 0.95114 0.69811 0.41086 0.0
S1483 S 0.04276 0.67221 0.41781 0.0
N1484 N 0.01005 0.64424 0.42421 0.0
N1485 N 0.03823 0.70026 0.41107 0.0
C1486 C 0.00898 0.68755 0.41378 0.0
C1487 C 0.99363 0.65705 0.42105 0.0
C1488 C 0.67617 0.6576 0.91919 0.0
C1489 C 0.69089 0.64248 0.92682 0.0
C1490 C 0.69136 0.68756 0.91184 0.0
C1491 C 0.72191 0.70371 0.91221 0.0
H1492 H 0.65273 0.64615 0.91833 0.0
H1493 H 0.679 0.69806 0.90574 0.0
S1494 S 0.77075 0.67459 0.93278 0.0
N1495 N 0.73786 0.6464 0.93595 0.0
N1496 N 0.76615 0.7019 0.92186 0.0
C1497 C 0.73679 0.68879 0.92045 0.0
C1498 C 0.72138 0.65846 0.9278 0.0
C1499 C 0.35635 0.06465 0.92412 0.0
C1500 C 0.37235 0.05042 0.929 0.0
C1501 C 0.32647 0.04924 0.91768 0.0
C1502 C 0.311 0.0188 0.9154 0.0
H1503 H 0.36693 0.08803 0.92549 0.0
H1504 H 0.31551 0.06152 0.91402 0.0
S1505 S 0.34242 0.97082 0.92609 0.0
N1506 N 0.37024 1.00381 0.9312 0.0
N1507 N 0.31416 0.9749 0.91876 0.0
C1508 C 0.32666 1.00418 0.9202 0.0
C1509 C 0.3572 0.01993 0.92708 0.0
C1510 C 0.94821 0.29412 0.92359 0.0
C1511 C 0.96272 0.32445 0.92729 0.0
C1512 C 0.96325 0.2793 0.91704 0.0
C1513 C 0.99361 0.29401 0.91346 0.0
H1514 H 0.92488 0.28147 0.9261 0.0
H1515 H 0.95072 0.25597 0.91445 0.0
S1516 S 0.04222 0.37356 0.92053 0.0
N1517 N 0.00948 0.36881 0.92685 0.0
N1518 N 0.03775 0.34095 0.91413 0.0
C1519 C 0.00852 0.3244 0.91692 0.0
C1520 C 0.99313 0.33957 0.92398 0.0
C1521 C 0.6891 0.73077 0.58901 0.0
C1522 C 0.70469 0.71593 0.59136 0.0
C1523 C 0.65922 0.71615 0.58265 0.0
C1524 C 0.64335 0.68592 0.57787 0.0
H1525 H 0.69999 0.75404 0.59239 0.0
H1526 H 0.64859 0.7289 0.58111 0.0
S1527 S 0.67359 0.63655 0.58133 0.0
N1528 N 0.70178 0.66897 0.5885 0.0
N1529 N 0.64564 0.64151 0.57608 0.0
C1530 C 0.65858 0.67068 0.58003 0.0
C1531 C 0.68914 0.68562 0.58692 0.0
C1532 C 0.29599 0.94542 0.57892 0.0
C1533 C 0.32636 0.95969 0.57551 0.0
C1534 C 0.28132 0.96073 0.58489 0.0
C1535 C 0.29624 0.99112 0.58817 0.0
H1536 H 0.28321 0.92208 0.57678 0.0
H1537 H 0.25797 0.94841 0.58743 0.0
S1538 S 0.37593 0.03918 0.5813 0.0
N1539 N 0.37091 0.00629 0.57562 0.0
N1540 N 0.3434 0.03502 0.58724 0.0
C1541 C 0.32665 0.00578 0.58479 0.0
C1542 C 0.34164 0.99013 0.57836 0.0
C1543 C 0.0526 0.32318 0.58914 0.0
C1544 C 0.02229 0.30733 0.59319 0.0
C1545 C 0.0673 0.35297 0.58225 0.0
C1546 C 0.05248 0.36851 0.57867 0.0
H1547 H 0.06533 0.31258 0.59161 0.0
H1548 H 0.09061 0.3638 0.5794 0.0
S1549 S 0.97295 0.33748 0.58662 0.0
N1550 N 0.97785 0.30962 0.59309 0.0
N1551 N 1.00548 0.3656 0.57975 0.0
C1552 C 0.02212 0.353 0.58248 0.0
C1553 C 1.00708 0.32253 0.58986 0.0
C1554 C 0.02485 0.66991 0.7586 0.0
C1555 C 0.04016 0.65488 0.76256 0.0
C1556 C 0.99493 0.6552 0.75116 0.0
C1557 C 0.97894 0.6248 0.74777 0.0
H1558 H 0.0361 0.69327 0.76087 0.0
H1559 H 0.98426 0.66782 0.74815 0.0
S1560 S 0.00856 0.57504 0.75669 0.0
N1561 N 0.03662 0.60756 0.76332 0.0
N1562 N 0.98108 0.58025 0.74917 0.0
C1563 C 0.99402 0.60953 0.752 0.0
C1564 C 0.02437 0.62445 0.75941 0.0
C1565 C 0.3439 0.35608 0.75625 0.0
C1566 C 0.35862 0.38656 0.75881 0.0
C1567 C 0.35876 0.34099 0.74891 0.0
C1568 C 0.38903 0.35569 0.74427 0.0
H1569 H 0.32065 0.34372 0.75979 0.0
H1570 H 0.34642 0.3176 0.74722 0.0
S1571 S 0.43796 0.4355 0.74785 0.0
N1572 N 0.4055 0.43079 0.7558 0.0
N1573 N 0.43308 0.40273 0.74208 0.0
C1574 C 0.40397 0.38616 0.74667 0.0
C1575 C 0.3889 0.40148 0.75389 0.0
C1576 C 0.6564 0.99089 0.76803 0.0
C1577 C 0.62757 0.97351 0.75638 0.0
C1578 C 0.67205 0.021 0.7617 0.0
C1579 C 0.65931 0.03495 0.74398 0.0
H1580 H 0.66684 0.9813 0.78271 0.0
H1581 H 0.69395 0.03354 0.77156 0.0
S1582 S 0.58628 0.99946 0.70395 0.0
N1583 N 0.58851 0.97287 0.72283 0.0
N1584 N 0.61737 0.02897 0.7122 0.0
C1585 C 0.63104 0.01784 0.73125 0.0
C1586 C 0.61535 0.98731 0.73711 0.0
C1587 C 0.35804 0.01956 0.24912 0.0
C1588 C 0.38849 0.03549 0.24642 0.0
C1589 C 0.34319 0.9896 0.25617 0.0
C1590 C 0.35812 0.97421 0.26041 0.0
H1591 H 0.34552 0.0303 0.24592 0.0
H1592 H 0.3198 0.9784 0.25799 0.0
S1593 S 0.43798 0.00562 0.2562 0.0
N1594 N 0.43296 0.03322 0.24864 0.0
N1595 N 0.40533 0.97756 0.2621 0.0
C1596 C 0.38857 0.98992 0.25786 0.0
C1597 C 0.40364 0.02032 0.25085 0.0
C1598 C 0.98962 0.33953 0.24878 0.0
C1599 C 0.97467 0.35463 0.24243 0.0
C1600 C 0.01961 0.3543 0.2558 0.0
C1601 C 0.03602 0.38483 0.25641 0.0
H1602 H 0.97802 0.31609 0.24881 0.0
H1603 H 0.02996 0.34163 0.26082 0.0
S1604 S 1.00745 0.43468 0.23965 0.0
N1605 N 0.979 0.40201 0.23577 0.0
N1606 N 0.03466 0.42952 0.24926 0.0
C1607 C 0.02128 0.40012 0.24957 0.0
C1608 C 0.99088 0.38513 0.24254 0.0
C1609 C 0.61424 0.62648 0.25548 0.0
C1610 C 0.62904 0.65686 0.25893 0.0
C1611 C 0.62898 0.61135 0.24881 0.0
C1612 C 0.65931 0.62581 0.24482 0.0
H1613 H 0.59091 0.61406 0.25821 0.0
H1614 H 0.61629 0.58802 0.24643 0.0
S1615 S 0.70861 0.70531 0.25122 0.0
N1616 N 0.67606 0.70092 0.25788 0.0
N1617 N 0.70372 0.67254 0.24496 0.0
C1618 C 0.67449 0.65622 0.24808 0.0
C1619 C 0.65942 0.67168 0.25524 0.0
C1620 C 0.31546 0.16954 0.16969 0.0
C1621 C 0.33683 0.19427 0.15198 0.0
C1622 C 0.32118 0.14838 0.18276 0.0
C1623 C 0.34855 0.15098 0.17887 0.0
H1624 H 0.29391 0.16628 0.17349 0.0
H1625 H 0.30399 0.12996 0.19626 0.0
S1626 S 0.4122 0.21146 0.13448 0.0
N1627 N 0.38653 0.22001 0.13125 0.0
N1628 N 0.39745 0.1804 0.15568 0.0
C1629 C 0.37021 0.17562 0.1612 0.0
C1630 C 0.36433 0.1972 0.14786 0.0
C1631 C 0.86075 0.17416 0.18975 0.0
C1632 C 0.8589 0.19883 0.18155 0.0
C1633 C 0.84058 0.14683 0.17666 0.0
C1634 C 0.81756 0.14288 0.1548 0.0
H1635 H 0.87779 0.17582 0.20666 0.0
H1636 H 0.84317 0.12863 0.18385 0.0
S1637 S 0.8028 0.20042 0.1252 0.0
N1638 N 0.83202 0.2175 0.14974 0.0
N1639 N 0.79419 0.16612 0.12552 0.0
C1640 C 0.81539 0.16733 0.14635 0.0
C1641 C 0.83603 0.19526 0.15954 0.0
C1642 C 0.86472 0.6973 0.17455 0.0
C1643 C 0.86878 0.67782 0.15353 0.0
C1644 C 0.83742 0.69026 0.18754 0.0
C1645 C 0.81292 0.66333 0.18038 0.0
H1646 H 0.88276 0.71849 0.18079 0.0
H1647 H 0.83563 0.70607 0.20349 0.0
S1648 S 0.81176 0.60406 0.12762 0.0
N1649 N 0.84591 0.63016 0.12678 0.0
N1650 N 0.79457 0.61667 0.15122 0.0
C1651 C 0.81664 0.64343 0.15969 0.0
C1652 C 0.84452 0.65071 0.14633 0.0
C1653 C 0.14866 0.31647 0.31685 0.0
C1654 C 0.15159 0.34395 0.32115 0.0
C1655 C 0.16967 0.31039 0.32959 0.0
C1656 C 0.19456 0.33146 0.34735 0.0
H1657 H 0.13008 0.29948 0.30334 0.0
H1658 H 0.16614 0.28876 0.32554 0.0
S1659 S 0.21265 0.40696 0.36576 0.0
N1660 N 0.18153 0.39264 0.3447 0.0
N1661 N 0.22083 0.38101 0.36854 0.0
C1662 C 0.19782 0.35906 0.35187 0.0
C1663 C 0.17641 0.36532 0.33886 0.0
C1664 C 0.70106 0.8632 0.33204 0.0
C1665 C 0.68019 0.86714 0.35013 0.0
C1666 C 0.69465 0.83612 0.31882 0.0
C1667 C 0.66705 0.81173 0.32295 0.0
H1668 H 0.72276 0.88119 0.32806 0.0
H1669 H 0.7115 0.83443 0.30507 0.0
S1670 S 0.60448 0.81014 0.36834 0.0
N1671 N 0.63069 0.84413 0.37147 0.0
N1672 N 0.61847 0.79326 0.34672 0.0
C1673 C 0.64587 0.8153 0.34096 0.0
C1674 C 0.65246 0.84295 0.35446 0.0
C1675 C 0.17698 0.85404 0.30764 0.0
C1676 C 0.2031 0.8612 0.3245 0.0
C1677 C 0.15032 0.83306 0.32144 0.0
C1678 C 0.14855 0.81834 0.35278 0.0
H1679 H 0.17707 0.86425 0.28316 0.0
H1680 H 0.13086 0.82845 0.30735 0.0
S1681 S 0.21065 0.82998 0.40797 0.0
N1682 N 0.22556 0.85244 0.37488 0.0
N1683 N 0.17544 0.81308 0.40071 0.0
C1684 C 0.1745 0.82541 0.37007 0.0
C1685 C 0.20171 0.84685 0.35603 0.0
C1686 C 0.69325 0.83233 0.81831 0.0
C1687 C 0.68054 0.81725 0.84951 0.0
C1688 C 0.68672 0.85285 0.80477 0.0
C1689 C 0.66732 0.85932 0.82194 0.0
H1690 H 0.70836 0.82817 0.80406 0.0
H1691 H 0.69661 0.86329 0.7803 0.0
S1692 S 0.63009 0.8277 0.90611 0.0
N1693 N 0.64883 0.81137 0.89813 0.0
N1694 N 0.63662 0.84996 0.87305 0.0
C1695 C 0.65491 0.84481 0.8536 0.0
C1696 C 0.66144 0.82376 0.86722 0.0
C1697 C 0.18317 0.8626 0.82207 0.0
C1698 C 0.19605 0.86418 0.85474 0.0
C1699 C 0.16252 0.83598 0.80767 0.0
C1700 C 0.15378 0.80986 0.82546 0.0
H1701 H 0.18924 0.88214 0.80732 0.0
H1702 H 0.15389 0.8359 0.78204 0.0
S1703 S 0.17851 0.80248 0.9136 0.0
N1704 N 0.19705 0.83753 0.90554 0.0
N1705 N 0.15819 0.78749 0.87878 0.0
C1706 C 0.16593 0.81122 0.85863 0.0
C1707 C 0.1871 0.83834 0.87315 0.0
C1708 C 0.15133 0.31258 0.83287 0.0
C1709 C 0.1477 0.33304 0.85238 0.0
C1710 C 0.17833 0.31904 0.81938 0.0
C1711 C 0.20295 0.34633 0.82451 0.0
H1712 H 0.1332 0.29109 0.82816 0.0
H1713 H 0.1798 0.30247 0.80466 0.0
S1714 S 0.20508 0.40814 0.87251 0.0
N1715 N 0.17103 0.38202 0.87538 0.0
N1716 N 0.22178 0.39442 0.85 0.0
C1717 C 0.19962 0.36719 0.84365 0.0
C1718 C 0.17205 0.36051 0.85752 0.0
C1719 C 0.8416 0.64679 0.6654 0.0
C1720 C 0.86624 0.66815 0.68329 0.0
C1721 C 0.82054 0.65253 0.65201 0.0
C1722 C 0.82315 0.67992 0.65574 0.0
H1723 H 0.83833 0.62522 0.66173 0.0
H1724 H 0.80214 0.63532 0.63846 0.0
S1725 S 0.88347 0.74357 0.70039 0.0
N1726 N 0.89193 0.71786 0.70396 0.0
N1727 N 0.85254 0.72884 0.67886 0.0
C1728 C 0.84774 0.70159 0.6735 0.0
C1729 C 0.86921 0.69568 0.68719 0.0
C1730 C 0.32629 0.17371 0.69397 0.0
C1731 C 0.34767 0.19996 0.67949 0.0
C1732 C 0.32062 0.14706 0.68006 0.0
C1733 C 0.33611 0.14542 0.65108 0.0
H1734 H 0.3141 0.17364 0.71665 0.0
H1735 H 0.30388 0.12751 0.69229 0.0
S1736 S 0.39349 0.20784 0.60227 0.0
N1737 N 0.38384 0.22263 0.63352 0.0
N1738 N 0.3732 0.17254 0.6077 0.0
C1739 C 0.3574 0.17148 0.6361 0.0
C1740 C 0.3631 0.19868 0.65014 0.0
C1741 C 0.86559 0.16884 0.67525 0.0
C1742 C 0.86973 0.19338 0.65643 0.0
C1743 C 0.83838 0.14835 0.68823 0.0
C1744 C 0.81404 0.15148 0.6831 0.0
H1745 H 0.88353 0.16518 0.67998 0.0
H1746 H 0.83654 0.13002 0.70257 0.0
S1747 S 0.81294 0.2118 0.63556 0.0
N1748 N 0.84697 0.21956 0.63335 0.0
N1749 N 0.79581 0.18122 0.65762 0.0
C1750 C 0.81779 0.17596 0.66434 0.0
C1751 C 0.84559 0.19685 0.6511 0.0
C1752 C 0.02555 0.52581 0.48094 0.0
C1753 C 0.99979 0.52522 0.49027 0.0
C1754 C 0.03214 0.50523 0.49398 0.0
C1755 C 0.01331 0.48312 0.517 0.0
H1756 H 0.0407 0.54212 0.46312 0.0
H1757 H 0.05234 0.50681 0.48585 0.0
S1758 S 0.9433 0.47235 0.5505 0.0
N1759 N 0.95542 0.50082 0.5247 0.0
N1760 N 0.96791 0.46226 0.54899 0.0
C1761 C 0.98749 0.48229 0.52668 0.0
C1762 C 0.98075 0.5033 0.51344 0.0
C1763 C 0.52012 0.50733 0.53172 0.0
C1764 C 0.52786 0.5333 0.51414 0.0
C1765 C 0.49933 0.48058 0.51789 0.0
C1766 C 0.48538 0.47859 0.48584 0.0
H1767 H 0.52975 0.5076 0.55671 0.0
H1768 H 0.49428 0.46124 0.5325 0.0
S1769 S 0.49871 0.54017 0.42866 0.0
N1770 N 0.52045 0.55533 0.46233 0.0
N1771 N 0.48142 0.50505 0.43651 0.0
C1772 C 0.493 0.50437 0.46787 0.0
C1773 C 0.51426 0.53167 0.4819 0.0
C1774 C 0.51038 0.98817 0.47816 0.0
C1775 C 0.5362 0.01043 0.49252 0.0
C1776 C 0.48334 0.98187 0.49144 0.0
C1777 C 0.4809 0.9976 0.51961 0.0
H1778 H 0.51093 0.97577 0.45605 0.0
H1779 H 0.46415 0.9645 0.4793 0.0
S1780 S 0.54192 0.05717 0.56789 0.0
N1781 N 0.55759 0.04764 0.53761 0.0
N1782 N 0.50678 0.03583 0.56218 0.0
C1783 C 0.50651 0.01973 0.5345 0.0
C1784 C 0.53411 0.02606 0.52114 0.0
C1785 C 0.50788 0.9813 0.99928 0.0
C1786 C 0.53167 1.00123 0.0196 0.0
C1787 C 0.4873 0.98794 0.98647 0.0
C1788 C 0.48964 0.01489 0.99315 0.0
H1789 H 0.50479 0.96007 0.99339 0.0
H1790 H 0.46953 0.9718 0.97102 0.0
S1791 S 0.5482 0.0752 0.04419 0.0
N1792 N 0.55653 0.0493 0.04528 0.0
N1793 N 0.51806 0.06203 0.02122 0.0
C1794 C 0.51348 0.03522 0.01319 0.0
C1795 C 0.53441 0.02836 0.02635 0.0
C1796 C 0.98927 0.47978 0.01807 0.0
C1797 C 1.00149 0.47804 0.98608 0.0
C1798 C 0.99482 0.50638 0.03195 0.0
C1799 C 0.01291 0.53245 0.01451 0.0
H1800 H 0.97507 0.46034 0.03259 0.0
H1801 H 0.98528 0.50648 0.05689 0.0
S1802 S 0.04961 0.54004 0.92932 0.0
N1803 N 0.03208 0.50489 0.93699 0.0
N1804 N 0.04259 0.55491 0.96297 0.0
C1805 C 0.02519 0.53109 0.98237 0.0
C1806 C 0.01956 0.50395 0.96826 0.0
C1807 C 0.50623 0.49096 0.02823 0.0
C1808 C 0.48002 0.48458 0.01221 0.0
C1809 C 0.53289 0.51184 0.01427 0.0
C1810 C 0.53459 0.52725 0.98356 0.0
H1811 H 0.50625 0.48013 0.05214 0.0
H1812 H 0.55239 0.51576 0.02772 0.0
S1813 S 0.47218 0.51808 0.93081 0.0
N1814 N 0.45738 0.49503 0.96339 0.0
N1815 N 0.50746 0.53418 0.93727 0.0
C1816 C 0.50853 0.52104 0.96717 0.0
C1817 C 0.48132 0.49972 0.98139 0.0
C1818 C 0.22582 0.12451 0.96275 0.0
C1819 C 0.2224 0.09764 0.97307 0.0
C1820 C 0.2284 0.14507 0.98751 0.0
C1821 C 0.22754 0.13937 0.02337 0.0
H1822 H 0.22682 0.12982 0.9353 0.0
H1823 H 0.23153 0.16571 0.97858 0.0
S1824 S 0.21546 0.07133 0.06418 0.0
N1825 N 0.21535 0.06551 0.02179 0.0
N1826 N 0.22132 0.10466 0.06824 0.0
C1827 C 0.22346 0.11246 0.03412 0.0
C1828 C 0.22057 0.09141 0.00897 0.0
C1829 C 0.89701 0.11472 0.03498 0.0
C1830 C 0.87228 0.08873 0.02509 0.0
C1831 C 0.91743 0.13264 0.01011 0.0
C1832 C 0.91369 0.12526 0.97446 0.0
H1833 H 0.90063 0.12114 0.06219 0.0
H1834 H 0.93653 0.15204 0.01903 0.0
S1835 S 0.85195 0.05994 0.93518 0.0
N1836 N 0.84471 0.05682 0.97741 0.0
N1837 N 0.88314 0.0903 0.93057 0.0
C1838 C 0.88903 0.09926 0.96433 0.0
C1839 C 0.86827 0.08106 0.98966 0.0
C1840 C 0.92418 0.81184 0.01992 0.0
C1841 C 0.9224 0.78483 0.02423 0.0
C1842 C 0.9069 0.81559 0.99524 0.0
C1843 C 0.88689 0.79231 0.97467 0.0
H1844 H 0.93891 0.83012 0.03586 0.0
H1845 H 0.90901 0.83677 0.99241 0.0
S1846 S 0.87531 0.71786 0.97416 0.0
N1847 N 0.9004 0.73496 0.00423 0.0
N1848 N 0.8671 0.74183 0.95895 0.0
C1849 C 0.88495 0.76529 0.97859 0.0
C1850 C 0.90293 0.76159 0.00314 0.0
C1851 C 0.14771 0.22369 0.51255 0.0
C1852 C 0.14165 0.22319 0.47682 0.0
C1853 C 0.12767 0.22148 0.53782 0.0
C1854 C 0.10098 0.21885 0.52819 0.0
H1855 H 0.16827 0.22628 0.52097 0.0
H1856 H 0.13323 0.22214 0.56514 0.0
S1857 S 0.07372 0.21312 0.43773 0.0
N1858 N 0.10666 0.21804 0.43284 0.0
N1859 N 0.06855 0.213 0.48028 0.0
C1860 C 0.09436 0.21742 0.49245 0.0
C1861 C 0.11485 0.21984 0.46677 0.0
C1862 C 0.78934 0.89674 0.4707 0.0
C1863 C 0.78872 0.92171 0.48096 0.0
C1864 C 0.79181 0.87875 0.49548 0.0
C1865 C 0.79325 0.8849 0.53142 0.0
H1866 H 0.78806 0.89119 0.44328 0.0
H1867 H 0.79318 0.86031 0.48625 0.0
S1868 S 0.79156 0.9475 0.57143 0.0
N1869 N 0.78933 0.95163 0.52903 0.0
N1870 N 0.79365 0.9178 0.57583 0.0
C1871 C 0.79269 0.90995 0.54187 0.0
C1872 C 0.79042 0.92832 0.51659 0.0
C1873 C 0.09163 0.89472 0.48468 0.0
C1874 C 0.09376 0.86973 0.47999 0.0
C1875 C 0.10906 0.9159 0.50917 0.0
C1876 C 0.12956 0.91301 0.52921 0.0
H1877 H 0.0766 0.89805 0.46909 0.0
H1878 H 0.10674 0.93484 0.51218 0.0
S1879 S 0.14201 0.85068 0.52876 0.0
N1880 N 0.11652 0.84238 0.49916 0.0
N1881 N 0.15002 0.88276 0.54417 0.0
C1882 C 0.13175 0.88808 0.525 0.0
C1883 C 0.11365 0.86628 0.50061 0.0
C1884 C 0.79442 0.91728 0.99426 0.0
C1885 C 0.79367 0.91088 0.03003 0.0
C1886 C 0.79174 0.89727 0.96866 0.0
C1887 C 0.78858 0.87039 0.97797 0.0
H1888 H 0.79776 0.93808 0.98587 0.0
H1889 H 0.79234 0.9029 0.94137 0.0
S1890 S 0.78463 0.84272 0.0676 0.0
N1891 N 0.78904 0.87538 0.07324 0.0
N1892 N 0.78417 0.83796 0.02494 0.0
C1893 C 0.78785 0.86369 0.01345 0.0
C1894 C 0.79044 0.88393 0.03953 0.0
C1895 C 0.09687 0.87895 0.99399 0.0
C1896 C 0.1008 0.88636 0.02962 0.0
C1897 C 0.11733 0.89666 0.96905 0.0
C1898 C 0.14232 0.92246 0.97884 0.0
H1899 H 0.07766 0.8596 0.98518 0.0
H1900 H 0.11366 0.89011 0.94188 0.0
S1901 S 0.16304 0.95143 0.06861 0.0
N1902 N 0.13165 0.9213 0.07335 0.0
N1903 N 0.1702 0.95437 0.02637 0.0
C1904 C 0.14643 0.93027 0.01422 0.0
C1905 C 0.12561 0.91229 0.03963 0.0
C1906 C 0.12934 0.24271 0.02595 0.0
C1907 C 0.12759 0.21572 0.02962 0.0
C1908 C 0.11157 0.24651 1.00211 0.0
C1909 C 0.09197 0.22361 0.98065 0.0
H1910 H 0.1441 0.26082 0.04209 0.0
H1911 H 0.11316 0.26753 1.00044 0.0
S1912 S 0.08084 0.14926 0.97883 0.0
N1913 N 0.10535 0.16593 0.00965 0.0
N1914 N 0.073 0.17346 0.96349 0.0
C1915 C 0.09045 0.19666 0.98373 0.0
C1916 C 0.10806 0.19263 0.00854 0.0
C1917 C 0.89701 0.78502 0.53219 0.0
C1918 C 0.87225 0.78607 0.5219 0.0
C1919 C 0.91793 0.78807 0.50772 0.0
C1920 C 0.9147 0.79214 0.47207 0.0
H1921 H 0.90024 0.78188 0.55941 0.0
H1922 H 0.93697 0.78781 0.51693 0.0
S1923 S 0.85317 0.79545 0.43177 0.0
N1924 N 0.84523 0.79067 0.4738 0.0
N1925 N 0.88465 0.79677 0.42773 0.0
C1926 C 0.89005 0.79334 0.46154 0.0
C1927 C 0.86876 0.79017 0.48646 0.0
C1928 C 0.22694 0.08515 0.49048 0.0
C1929 C 0.22596 0.0902 0.52628 0.0
C1930 C 0.22458 0.10305 0.46551 0.0
C1931 C 0.22137 0.12669 0.47556 0.0
H1932 H 0.23003 0.06755 0.48177 0.0
H1933 H 0.22561 0.09856 0.4381 0.0
S1934 S 0.21449 0.14689 0.56631 0.0
N1935 N 0.21987 0.11914 0.57076 0.0
N1936 N 0.21463 0.15241 0.52386 0.0
C1937 C 0.21952 0.13138 0.51136 0.0
C1938 C 0.22204 0.11322 0.53673 0.0
C1939 C 0.93006 0.14462 0.49194 0.0
C1940 C 0.9251 0.13877 0.52777 0.0
C1941 C 0.9121 0.12423 0.46707 0.0
C1942 C 0.88854 0.09737 0.47722 0.0
H1943 H 0.94761 0.16529 0.48314 0.0
H1944 H 0.91648 0.12966 0.43964 0.0
S1945 S 0.86884 0.0706 0.56811 0.0
N1946 N 0.89645 0.10384 0.5724 0.0
N1947 N 0.8632 0.06504 0.52568 0.0
C1948 C 0.88403 0.09096 0.51306 0.0
C1949 C 0.9022 0.11182 0.53834 0.0
C1950 C 0.88857 0.47684 0.32491 0.0
C1951 C 0.89072 0.47239 0.36065 0.0
C1952 C 0.88554 0.45611 0.30013 0.0
C1953 C 0.88478 0.43039 0.31028 0.0
H1954 H 0.88973 0.49667 0.31604 0.0
H1955 H 0.88411 0.4604 0.27277 0.0
S1956 S 0.88616 0.40721 0.40119 0.0
N1957 N 0.88984 0.43971 0.40531 0.0
N1958 N 0.88361 0.40049 0.35884 0.0
C1959 C 0.88603 0.42535 0.34608 0.0
C1960 C 0.88916 0.44646 0.37125 0.0
C1961 C 0.58306 0.43938 0.32816 0.0
C1962 C 0.58042 0.46018 0.30846 0.0
C1963 C 0.56203 0.42222 0.35289 0.0
C1964 C 0.5374 0.4249 0.35818 0.0
H1965 H 0.60166 0.43656 0.32463 0.0
H1966 H 0.56512 0.40687 0.36811 0.0
S1967 S 0.51913 0.47423 0.31061 0.0
N1968 N 0.55084 0.48161 0.29456 0.0
N1969 N 0.51069 0.44861 0.34005 0.0
C1970 C 0.53424 0.44519 0.33801 0.0
C1971 C 0.55592 0.46301 0.31335 0.0
C1972 C 0.57163 0.14708 0.33341 0.0
C1973 C 0.55132 0.12405 0.31279 0.0
C1974 C 0.58877 0.14288 0.35783 0.0
C1975 C 0.58655 0.11566 0.36188 0.0
H1976 H 0.57417 0.16844 0.33074 0.0
H1977 H 0.60384 0.16105 0.37367 0.0
S1978 S 0.53843 0.04911 0.3117 0.0
N1979 N 0.53068 0.0735 0.29682 0.0
N1980 N 0.5637 0.06579 0.34171 0.0
C1981 C 0.56666 0.0926 0.34089 0.0
C1982 C 0.54884 0.09676 0.31654 0.0
C1983 C 0.81363 0.55659 0.84815 0.0
C1984 C 0.80997 0.55918 0.8123 0.0
C1985 C 0.79241 0.55339 0.87226 0.0
C1986 C 0.76699 0.5529 0.86129 0.0
H1987 H 0.83316 0.5574 0.85762 0.0
H1988 H 0.79604 0.55153 0.89973 0.0
S1989 S 0.74601 0.55578 0.7697 0.0
N1990 N 0.77849 0.55927 0.76662 0.0
N1991 N 0.73832 0.55268 0.81182 0.0
C1992 C 0.76281 0.55474 0.82536 0.0
C1993 C 0.78443 0.55806 0.80088 0.0
C1994 C 0.43296 0.21314 0.85541 0.0
C1995 C 0.4602 0.21587 0.86116 0.0
C1996 C 0.42947 0.23057 0.83073 0.0
C1997 C 0.45299 0.25086 0.8106 0.0
H1998 H 0.41446 0.19806 0.87079 0.0
H1999 H 0.4083 0.22846 0.82773 0.0
S2000 S 0.52809 0.26401 0.81364 0.0
N2001 N 0.51074 0.23927 0.84397 0.0
N2002 N 0.50389 0.27103 0.79634 0.0
C2003 C 0.48011 0.25303 0.8154 0.0
C2004 C 0.48377 0.23574 0.84099 0.0
C2005 C 0.7698 0.22236 0.87303 0.0
C2006 C 0.79521 0.24736 0.86218 0.0
C2007 C 0.75169 0.20124 0.8489 0.0
C2008 C 0.75832 0.20459 0.81313 0.0
H2009 H 0.76406 0.21895 0.90046 0.0
H2010 H 0.7327 0.18194 0.85831 0.0
S2011 S 0.82006 0.26771 0.77079 0.0
N2012 N 0.82446 0.27548 0.81289 0.0
N2013 N 0.7906 0.23559 0.7676 0.0
C2014 C 0.78311 0.22985 0.8018 0.0
C2015 C 0.80153 0.25133 0.82632 0.0
C2016 C 0.45552 0.20022 0.34893 0.0
C2017 C 0.45268 0.20379 0.31311 0.0
C2018 C 0.45867 0.22138 0.37309 0.0
C2019 C 0.45879 0.24663 0.36223 0.0
H2020 H 0.45506 0.18085 0.35833 0.0
H2021 H 0.46089 0.2179 0.40051 0.0
S2022 S 0.45478 0.26725 0.27083 0.0
N2023 N 0.45181 0.235 0.2676 0.0
N2024 N 0.45804 0.27495 0.31296 0.0
C2025 C 0.45649 0.25065 0.32637 0.0
C2026 C 0.45331 0.22913 0.30182 0.0
C2027 C 0.81006 0.23468 0.33467 0.0
C2028 C 0.80624 0.25353 0.31251 0.0
C2029 C 0.78866 0.21706 0.35879 0.0
C2030 C 0.76299 0.21816 0.36192 0.0
H2031 H 0.82981 0.23363 0.33343 0.0
H2032 H 0.79247 0.20298 0.37559 0.0
S2033 S 0.74186 0.26271 0.30887 0.0
N2034 N 0.77419 0.27105 0.29398 0.0
N2035 N 0.73449 0.23891 0.34041 0.0
C2036 C 0.7589 0.23688 0.33996 0.0
C2037 C 0.78041 0.25437 0.31498 0.0
C2038 C 0.79938 0.55339 0.32915 0.0
C2039 C 0.79376 0.55352 0.36504 0.0
C2040 C 0.78135 0.55536 0.30396 0.0
C2041 C 0.7569 0.55716 0.31377 0.0
H2042 H 0.81744 0.55118 0.32031 0.0
H2043 H 0.7865 0.55543 0.27657 0.0
S2044 S 0.73283 0.5589 0.40398 0.0
N2045 N 0.762 0.55594 0.40894 0.0
N2046 N 0.72821 0.55956 0.36142 0.0
C2047 C 0.75089 0.55714 0.34939 0.0
C2048 C 0.76925 0.55527 0.37506 0.0
C2049 C 0.5851 0.12359 0.84355 0.0
C2050 C 0.57964 0.12371 0.80761 0.0
C2051 C 0.56492 0.1215 0.86859 0.0
C2052 C 0.53876 0.11981 0.8586 0.0
H2053 H 0.6053 0.12573 0.85253 0.0
H2054 H 0.56982 0.12128 0.89601 0.0
S2055 S 0.51364 0.11864 0.7682 0.0
N2056 N 0.5458 0.12159 0.76348 0.0
N2057 N 0.50805 0.11772 0.81072 0.0
C2058 C 0.53304 0.12004 0.82294 0.0
C2059 C 0.55347 0.12205 0.79742 0.0
C2060 C 0.86522 0.43951 0.82867 0.0
C2061 C 0.88874 0.46048 0.80923 0.0
C2062 C 0.86902 0.42221 0.85325 0.0
C2063 C 0.89634 0.42495 0.85864 0.0
H2064 H 0.84381 0.43669 0.82507 0.0
H2065 H 0.85051 0.40673 0.8683 0.0
S2066 S 0.96414 0.47467 0.8116 0.0
N2067 N 0.93983 0.48208 0.79557 0.0
N2068 N 0.94685 0.44886 0.84079 0.0
C2069 C 0.91986 0.44538 0.83868 0.0
C2070 C 0.91608 0.46333 0.81418 0.0
C2071 C 0.55129 0.45303 0.8146 0.0
C2072 C 0.55358 0.42804 0.81109 0.0
C2073 C 0.56878 0.47487 0.83835 0.0
C2074 C 0.58886 0.47226 0.85964 0.0
H2075 H 0.53637 0.45601 0.79834 0.0
H2076 H 0.56676 0.49407 0.83989 0.0
S2077 S 0.60133 0.40991 0.86231 0.0
N2078 N 0.57661 0.40137 0.83161 0.0
N2079 N 0.6087 0.44195 0.87719 0.0
C2080 C 0.59086 0.44709 0.85688 0.0
C2081 C 0.57341 0.42508 0.83235 0.0
C2082 C 0.58326 0.80764 0.67429 0.0
C2083 C 0.55982 0.80463 0.69443 0.0
C2084 C 0.57966 0.78645 0.64991 0.0
C2085 C 0.55243 0.76176 0.64463 0.0
H2086 H 0.60446 0.82666 0.67716 0.0
H2087 H 0.59812 0.78974 0.63454 0.0
S2088 S 0.4847 0.7428 0.69231 0.0
N2089 N 0.50897 0.77428 0.70895 0.0
N2090 N 0.50194 0.73491 0.66228 0.0
C2091 C 0.52891 0.7584 0.66476 0.0
C2092 C 0.53267 0.77974 0.68989 0.0
C2093 C 0.22474 0.79586 0.64941 0.0
C2094 C 0.2494 0.79354 0.64297 0.0
C2095 C 0.20433 0.77832 0.67451 0.0
C2096 C 0.20823 0.75832 0.69436 0.0
H2097 H 0.22084 0.81074 0.63432 0.0
H2098 H 0.18517 0.78016 0.67811 0.0
S2099 S 0.27086 0.74634 0.68953 0.0
N2100 N 0.27743 0.77087 0.6592 0.0
N2101 N 0.23976 0.73889 0.70761 0.0
C2102 C 0.23332 0.75655 0.68885 0.0
C2103 C 0.25377 0.77395 0.66283 0.0
C2104 C 0.24332 0.45363 0.63113 0.0
C2105 C 0.21962 0.45667 0.64142 0.0
C2106 C 0.26139 0.45131 0.6559 0.0
C2107 C 0.2564 0.45206 0.69174 0.0
H2108 H 0.24778 0.45279 0.60368 0.0
H2109 H 0.27913 0.44851 0.64699 0.0
S2110 S 0.19963 0.46304 0.73248 0.0
N2111 N 0.194 0.46311 0.69008 0.0
N2112 N 0.22744 0.45769 0.73658 0.0
C2113 C 0.23327 0.4557 0.70247 0.0
C2114 C 0.215 0.4583 0.6773 0.0
C2115 C 0.45037 0.86581 0.14765 0.0
C2116 C 0.47674 0.89209 0.14707 0.0
C2117 C 0.42845 0.86139 0.17129 0.0
C2118 C 0.432 0.88332 0.19459 0.0
H2119 H 0.44658 0.84867 0.12951 0.0
H2120 H 0.40843 0.8408 0.17107 0.0
S2121 S 0.4977 0.95522 0.20512 0.0
N2122 N 0.50588 0.93964 0.17326 0.0
N2123 N 0.46424 0.93161 0.21692 0.0
C2124 C 0.4583 0.90958 0.19448 0.0
C2125 C 0.4808 0.9139 0.17087 0.0
C2126 C 0.14447 0.5873 0.15132 0.0
C2127 C 0.11707 0.58446 0.14622 0.0
C2128 C 0.14848 0.57003 0.17574 0.0
C2129 C 0.12509 0.54899 0.19525 0.0
H2130 H 0.16289 0.60286 0.13623 0.0
H2131 H 0.16995 0.57296 0.17919 0.0
S2132 S 0.04956 0.5344 0.19352 0.0
N2133 N 0.06663 0.56032 0.1644 0.0
N2134 N 0.07403 0.52708 0.20921 0.0
C2135 C 0.09766 0.54597 0.19053 0.0
C2136 C 0.09368 0.56391 0.16624 0.0
C2137 C 0.42597 0.56119 0.15021 0.0
C2138 C 0.42779 0.536 0.14571 0.0
C2139 C 0.44333 0.58224 0.17485 0.0
C2140 C 0.46348 0.57904 0.1952 0.0
H2141 H 0.41112 0.5647 0.13449 0.0
H2142 H 0.44115 0.60126 0.17784 0.0
S2143 S 0.47535 0.51635 0.19502 0.0
N2144 N 0.45007 0.50828 0.16518 0.0
N2145 N 0.48355 0.5485 0.2104 0.0
C2146 C 0.46553 0.55403 0.19102 0.0
C2147 C 0.44746 0.53233 0.1665 0.0
C2148 C 0.12632 0.58212 0.66065 0.0
C2149 C 0.12967 0.57825 0.69633 0.0
C2150 C 0.12302 0.56131 0.63585 0.0
C2151 C 0.12309 0.53599 0.64584 0.0
H2152 H 0.12689 0.60161 0.65164 0.0
H2153 H 0.12054 0.56509 0.60861 0.0
S2154 S 0.13017 0.51503 0.7359 0.0
N2155 N 0.13245 0.54691 0.74036 0.0
N2156 N 0.1259 0.50771 0.69369 0.0
C2157 C 0.12638 0.5318 0.68132 0.0
C2158 C 0.12981 0.55299 0.70656 0.0
C2159 C 0.4555 0.54742 0.68609 0.0
C2160 C 0.43168 0.5511 0.69293 0.0
C2161 C 0.47653 0.56484 0.66149 0.0
C2162 C 0.47414 0.58615 0.6425 0.0
H2163 H 0.45831 0.53154 0.70052 0.0
H2164 H 0.49498 0.56185 0.65758 0.0
S2165 S 0.41431 0.60232 0.6487 0.0
N2166 N 0.40617 0.57667 0.678 0.0
N2167 N 0.445 0.6085 0.63059 0.0
C2168 C 0.44997 0.58943 0.64848 0.0
C2169 C 0.42889 0.5721 0.67398 0.0
C2170 C 0.41656 0.88524 0.68123 0.0
C2171 C 0.42252 0.8867 0.64532 0.0
C2172 C 0.43413 0.88163 0.70565 0.0
C2173 C 0.45829 0.87964 0.69487 0.0
H2174 H 0.39856 0.88745 0.6905 0.0
H2175 H 0.42909 0.8809 0.73318 0.0
S2176 S 0.48076 0.87866 0.60349 0.0
N2177 N 0.45269 0.88364 0.59995 0.0
N2178 N 0.48544 0.87641 0.64577 0.0
C2179 C 0.46376 0.87999 0.65895 0.0
C2180 C 0.44594 0.88369 0.63417 0.0
C2181 C 0.2285 0.44982 0.1998 0.0
C2182 C 0.20376 0.45079 0.18921 0.0
C2183 C 0.24979 0.45336 0.17562 0.0
C2184 C 0.24695 0.45775 0.13996 0.0
H2185 H 0.2315 0.44657 0.22707 0.0
H2186 H 0.26888 0.45333 0.18513 0.0
S2187 S 0.18536 0.46053 0.09889 0.0
N2188 N 0.17702 0.45539 0.1408 0.0
N2189 N 0.21703 0.46222 0.09525 0.0
C2190 C 0.22218 0.45862 0.12911 0.0
C2191 C 0.20055 0.45502 0.15374 0.0
C2192 C 0.56011 0.77996 0.19879 0.0
C2193 C 0.56067 0.75496 0.18847 0.0
C2194 C 0.55702 0.79765 0.17414 0.0
C2195 C 0.55464 0.79105 0.13829 0.0
H2196 H 0.56192 0.78578 0.22617 0.0
H2197 H 0.55587 0.81622 0.18338 0.0
S2198 S 0.55605 0.72847 0.09798 0.0
N2199 N 0.5594 0.72481 0.14026 0.0
N2200 N 0.55343 0.75789 0.09378 0.0
C2201 C 0.55515 0.76603 0.12774 0.0
C2202 C 0.55828 0.74805 0.15286 0.0
C2203 C 0.25425 0.78136 0.18899 0.0
C2204 C 0.25271 0.80678 0.19227 0.0
C2205 C 0.23673 0.7598 0.16499 0.0
C2206 C 0.21681 0.76276 0.14385 0.0
H2207 H 0.269 0.77807 0.20519 0.0
H2208 H 0.23865 0.74056 0.16311 0.0
S2209 S 0.20612 0.8262 0.14056 0.0
N2210 N 0.23102 0.83452 0.17097 0.0
N2211 N 0.19766 0.79366 0.12634 0.0
C2212 C 0.21521 0.78815 0.14668 0.0
C2213 C 0.23328 0.81025 0.17081 0.0
loop_
_geom_bond_atom_site_label_1
_geom_bond_atom_site_label_2
_geom_bond_distance
_geom_bond_site_symmetry_2
_ccdc_geom_bond_type
Co0 O3 1.970 . S
Co0 N17 1.989 . S
Co0 O25 1.967 . S
Co0 O32 1.920 . S
Co1 O4 1.966 . S
Co1 N10 2.022 . S
Co1 N18 1.993 . S
Co1 O26 1.941 . S
C2 O3 1.258 . S
C2 O4 1.263 . S
O3 Co0 1.970 . S
O3 C2 1.258 . S
O4 Co1 1.966 . S
O4 C2 1.263 . S
C5 O6 1.235 . S
C5 O32 1.289 . S
O6 C5 1.235 . S
C7 C9 1.400 . S
C7 N10 1.351 . S
C7 C12 1.501 . S
C8 C9 1.387 . S
C8 N11 1.341 . S
C9 C7 1.400 . S
C9 C8 1.387 . S
N10 Co1 2.022 . S
N10 C7 1.351 . S
N10 N11 1.365 . S
N11 C8 1.341 . S
N11 N10 1.365 . S
N11 H31 0.862 . S
C12 C7 1.501 . S
C12 H13 0.961 . S
C12 H14 0.961 . S
C12 H15 0.960 . S
H13 C12 0.961 . S
H14 C12 0.961 . S
H15 C12 0.960 . S
C16 N17 1.342 . S
C16 C20 1.401 . S
C16 C21 1.499 . S
N17 Co0 1.989 . S
N17 C16 1.342 . S
N17 N18 1.388 . S
N18 Co1 1.993 . S
N18 N17 1.388 . S
N18 C19 1.346 . S
C19 N18 1.346 . S
C19 C20 1.396 . S
C19 C29 1.510 . S
C20 C16 1.401 . S
C20 C19 1.396 . S
C21 C16 1.499 . S
C21 H22 0.959 . S
C21 H23 0.960 . S
C21 H24 0.961 . S
H22 C21 0.959 . S
H23 C21 0.960 . S
H24 C21 0.961 . S
O25 Co0 1.967 . S
O25 C33 1.258 . S
O26 Co1 1.941 . S
O26 C33 1.266 . S
H27 C29 0.959 . S
H28 C29 0.961 . S
C29 C19 1.510 . S
C29 H27 0.959 . S
C29 H28 0.961 . S
C29 H30 0.960 . S
H30 C29 0.960 . S
H31 N11 0.862 . S
O32 Co0 1.920 . S
O32 C5 1.289 . S
C33 O25 1.258 . S
C33 O26 1.266 . S
Co34 O37 1.970 . S
Co34 N51 1.989 . S
Co34 O59 1.967 . S
Co34 O66 1.920 . S
Co35 O38 1.957 . S
Co35 N44 2.045 . S
Co35 N52 1.977 1_565 S
Co35 O60 1.947 . S
C36 O37 1.258 . S
C36 O38 1.263 1_545 S
O37 Co34 1.970 . S
O37 C36 1.258 . S
O38 Co35 1.957 . S
O38 C36 1.263 1_565 S
C39 O40 1.235 . S
C39 O66 1.289 . S
O40 C39 1.235 . S
C41 C43 1.400 . S
C41 N44 1.351 . S
C41 C46 1.501 . S
C42 C43 1.387 . S
C42 N45 1.341 . S
C43 C41 1.400 . S
C43 C42 1.387 . S
N44 Co35 2.045 . S
N44 C41 1.351 . S
N44 N45 1.365 . S
N45 C42 1.341 . S
N45 N44 1.365 . S
N45 H65 0.862 . S
C46 C41 1.501 . S
C46 H47 0.961 . S
C46 H48 0.961 . S
C46 H49 0.960 . S
H47 C46 0.961 . S
H48 C46 0.961 . S
H49 C46 0.960 . S
C50 N51 1.342 . S
C50 C54 1.401 . S
C50 C55 1.499 . S
N51 Co34 1.989 . S
N51 C50 1.342 . S
N51 N52 1.388 . S
N52 Co35 1.977 1_545 S
N52 N51 1.388 . S
N52 C53 1.346 . S
C53 N52 1.346 . S
C53 C54 1.396 . S
C53 C63 1.510 . S
C54 C50 1.401 . S
C54 C53 1.396 . S
C55 C50 1.499 . S
C55 H56 0.959 . S
C55 H57 0.960 . S
C55 H58 0.961 . S
H56 C55 0.959 . S
H57 C55 0.960 . S
H58 C55 0.961 . S
O59 Co34 1.967 . S
O59 C67 1.258 . S
O60 Co35 1.947 . S
O60 C67 1.266 1_565 S
H61 C63 0.959 . S
H62 C63 0.961 . S
C63 C53 1.510 . S
C63 H61 0.959 . S
C63 H62 0.961 . S
C63 H64 0.960 . S
H64 C63 0.960 . S
H65 N45 0.862 . S
O66 Co34 1.920 . S
O66 C39 1.289 . S
C67 O59 1.258 . S
C67 O60 1.266 1_545 S
Co68 O71 1.970 . S
Co68 N85 1.989 . S
Co68 O93 1.967 . S
Co68 O100 1.920 . S
Co69 O72 1.983 . S
Co69 N78 2.034 . S
Co69 N86 1.970 1_455 S
Co69 O94 1.942 . S
C70 O71 1.258 . S
C70 O72 1.263 1_655 S
O71 Co68 1.970 . S
O71 C70 1.258 . S
O72 Co69 1.983 . S
O72 C70 1.263 1_455 S
C73 O74 1.235 . S
C73 O100 1.289 . S
O74 C73 1.235 . S
C75 C77 1.400 . S
C75 N78 1.351 . S
C75 C80 1.501 . S
C76 C77 1.387 . S
C76 N79 1.341 . S
C77 C75 1.400 . S
C77 C76 1.387 . S
N78 Co69 2.034 . S
N78 C75 1.351 . S
N78 N79 1.365 . S
N79 C76 1.341 . S
N79 N78 1.365 . S
N79 H99 0.862 . S
C80 C75 1.501 . S
C80 H81 0.961 . S
C80 H82 0.961 . S
C80 H83 0.960 . S
H81 C80 0.961 . S
H82 C80 0.961 . S
H83 C80 0.960 . S
C84 N85 1.342 . S
C84 C88 1.401 . S
C84 C89 1.499 . S
N85 Co68 1.989 . S
N85 C84 1.342 . S
N85 N86 1.388 . S
N86 Co69 1.970 1_655 S
N86 N85 1.388 . S
N86 C87 1.346 . S
C87 N86 1.346 . S
C87 C88 1.396 . S
C87 C97 1.510 . S
C88 C84 1.401 . S
C88 C87 1.396 . S
C89 C84 1.499 . S
C89 H90 0.959 . S
C89 H91 0.960 . S
C89 H92 0.961 . S
H90 C89 0.959 . S
H91 C89 0.960 . S
H92 C89 0.961 . S
O93 Co68 1.967 . S
O93 C101 1.258 . S
O94 Co69 1.942 . S
O94 C101 1.266 1_455 S
H95 C97 0.959 . S
H96 C97 0.961 . S
C97 C87 1.510 . S
C97 H95 0.959 . S
C97 H96 0.961 . S
C97 H98 0.960 . S
H98 C97 0.960 . S
H99 N79 0.862 . S
O100 Co68 1.920 . S
O100 C73 1.289 . S
C101 O93 1.258 . S
C101 O94 1.266 1_655 S
Co102 O105 1.970 . S
Co102 N119 1.989 . S
Co102 O127 1.967 . S
Co102 O134 1.920 . S
Co103 O106 1.966 . S
Co103 N112 2.022 . S
Co103 N120 1.993 . S
Co103 O128 1.941 . S
C104 O105 1.258 . S
C104 O106 1.263 . S
O105 Co102 1.970 . S
O105 C104 1.258 . S
O106 Co103 1.966 . S
O106 C104 1.263 . S
C107 O108 1.235 . S
C107 O134 1.289 . S
O108 C107 1.235 . S
C109 C111 1.400 . S
C109 N112 1.351 . S
C109 C114 1.501 . S
C110 C111 1.387 . S
C110 N113 1.341 . S
C111 C109 1.400 . S
C111 C110 1.387 . S
N112 Co103 2.022 . S
N112 C109 1.351 . S
N112 N113 1.365 . S
N113 C110 1.341 . S
N113 N112 1.365 . S
N113 H133 0.862 . S
C114 C109 1.501 . S
C114 H115 0.961 . S
C114 H116 0.961 . S
C114 H117 0.960 . S
H115 C114 0.961 . S
H116 C114 0.961 . S
H117 C114 0.960 . S
C118 N119 1.342 . S
C118 C122 1.401 . S
C118 C123 1.499 . S
N119 Co102 1.989 . S
N119 C118 1.342 . S
N119 N120 1.388 . S
N120 Co103 1.993 . S
N120 N119 1.388 . S
N120 C121 1.346 . S
C121 N120 1.346 . S
C121 C122 1.396 . S
C121 C131 1.510 . S
C122 C118 1.401 . S
C122 C121 1.396 . S
C123 C118 1.499 . S
C123 H124 0.959 . S
C123 H125 0.960 . S
C123 H126 0.961 . S
H124 C123 0.959 . S
H125 C123 0.960 . S
H126 C123 0.961 . S
O127 Co102 1.967 . S
O127 C135 1.258 . S
O128 Co103 1.941 . S
O128 C135 1.266 . S
H129 C131 0.959 . S
H130 C131 0.961 . S
C131 C121 1.510 . S
C131 H129 0.959 . S
C131 H130 0.961 . S
C131 H132 0.960 . S
H132 C131 0.960 . S
H133 N113 0.862 . S
O134 Co102 1.920 . S
O134 C107 1.289 . S
C135 O127 1.258 . S
C135 O128 1.266 . S
Co136 O139 1.970 . S
Co136 N153 1.989 . S
Co136 O161 1.967 . S
Co136 O168 1.920 . S
Co137 O140 1.983 . S
Co137 N146 2.034 . S
Co137 N154 1.970 1_545 S
Co137 O162 1.942 . S
C138 O139 1.258 . S
C138 O140 1.263 1_565 S
O139 Co136 1.970 . S
O139 C138 1.258 . S
O140 Co137 1.983 . S
O140 C138 1.263 1_545 S
C141 O142 1.235 . S
C141 O168 1.289 . S
O142 C141 1.235 . S
C143 C145 1.400 . S
C143 N146 1.351 . S
C143 C148 1.501 . S
C144 C145 1.387 . S
C144 N147 1.341 . S
C145 C143 1.400 . S
C145 C144 1.387 . S
N146 Co137 2.034 . S
N146 C143 1.351 . S
N146 N147 1.365 . S
N147 C144 1.341 . S
N147 N146 1.365 . S
N147 H167 0.862 . S
C148 C143 1.501 . S
C148 H149 0.961 . S
C148 H150 0.961 . S
C148 H151 0.960 . S
H149 C148 0.961 . S
H150 C148 0.961 . S
H151 C148 0.960 . S
C152 N153 1.342 . S
C152 C156 1.401 . S
C152 C157 1.499 . S
N153 Co136 1.989 . S
N153 C152 1.342 . S
N153 N154 1.388 . S
N154 Co137 1.970 1_565 S
N154 N153 1.388 . S
N154 C155 1.346 . S
C155 N154 1.346 . S
C155 C156 1.396 . S
C155 C165 1.510 . S
C156 C152 1.401 . S
C156 C155 1.396 . S
C157 C152 1.499 . S
C157 H158 0.959 . S
C157 H159 0.960 . S
C157 H160 0.961 . S
H158 C157 0.959 . S
H159 C157 0.960 . S
H160 C157 0.961 . S
O161 Co136 1.967 . S
O161 C169 1.258 . S
O162 Co137 1.942 . S
O162 C169 1.266 1_545 S
H163 C165 0.959 . S
H164 C165 0.961 . S
C165 C155 1.510 . S
C165 H163 0.959 . S
C165 H164 0.961 . S
C165 H166 0.960 . S
H166 C165 0.960 . S
H167 N147 0.862 . S
O168 Co136 1.920 . S
O168 C141 1.289 . S
C169 O161 1.258 . S
C169 O162 1.266 1_565 S
Co170 O173 1.970 . S
Co170 N187 1.989 . S
Co170 O195 1.967 . S
Co170 O202 1.920 . S
Co171 O174 1.957 . S
Co171 N180 2.045 . S
Co171 N188 1.977 1_655 S
Co171 O196 1.947 . S
C172 O173 1.258 . S
C172 O174 1.263 1_455 S
O173 Co170 1.970 . S
O173 C172 1.258 . S
O174 Co171 1.957 . S
O174 C172 1.263 1_655 S
C175 O176 1.235 . S
C175 O202 1.289 . S
O176 C175 1.235 . S
C177 C179 1.400 . S
C177 N180 1.351 . S
C177 C182 1.501 . S
C178 C179 1.387 . S
C178 N181 1.341 . S
C179 C177 1.400 . S
C179 C178 1.387 . S
N180 Co171 2.045 . S
N180 C177 1.351 . S
N180 N181 1.365 . S
N181 C178 1.341 . S
N181 N180 1.365 . S
N181 H201 0.862 . S
C182 C177 1.501 . S
C182 H183 0.961 . S
C182 H184 0.961 . S
C182 H185 0.960 . S
H183 C182 0.961 . S
H184 C182 0.961 . S
H185 C182 0.960 . S
C186 N187 1.342 . S
C186 C190 1.401 . S
C186 C191 1.499 . S
N187 Co170 1.989 . S
N187 C186 1.342 . S
N187 N188 1.388 . S
N188 Co171 1.977 1_455 S
N188 N187 1.388 . S
N188 C189 1.346 . S
C189 N188 1.346 . S
C189 C190 1.396 . S
C189 C199 1.510 . S
C190 C186 1.401 . S
C190 C189 1.396 . S
C191 C186 1.499 . S
C191 H192 0.959 . S
C191 H193 0.960 . S
C191 H194 0.961 . S
H192 C191 0.959 . S
H193 C191 0.960 . S
H194 C191 0.961 . S
O195 Co170 1.967 . S
O195 C203 1.258 . S
O196 Co171 1.947 . S
O196 C203 1.266 1_655 S
H197 C199 0.959 . S
H198 C199 0.961 . S
C199 C189 1.510 . S
C199 H197 0.959 . S
C199 H198 0.961 . S
C199 H200 0.960 . S
H200 C199 0.960 . S
H201 N181 0.862 . S
O202 Co170 1.920 . S
O202 C175 1.289 . S
C203 O195 1.258 . S
C203 O196 1.266 1_455 S
Co204 O207 1.970 . S
Co204 N221 1.989 . S
Co204 O229 1.967 . S
Co204 O236 1.920 . S
Co205 O208 1.966 . S
Co205 N214 2.022 . S
Co205 N222 1.993 . S
Co205 O230 1.941 . S
C206 O207 1.258 . S
C206 O208 1.263 . S
O207 Co204 1.970 . S
O207 C206 1.258 . S
O208 Co205 1.966 . S
O208 C206 1.263 . S
C209 O210 1.235 . S
C209 O236 1.289 . S
O210 C209 1.235 . S
C211 C213 1.400 . S
C211 N214 1.351 . S
C211 C216 1.501 . S
C212 C213 1.387 . S
C212 N215 1.341 . S
C213 C211 1.400 . S
C213 C212 1.387 . S
N214 Co205 2.022 . S
N214 C211 1.351 . S
N214 N215 1.365 . S
N215 C212 1.341 . S
N215 N214 1.365 . S
N215 H235 0.862 . S
C216 C211 1.501 . S
C216 H217 0.961 . S
C216 H218 0.961 . S
C216 H219 0.960 . S
H217 C216 0.961 . S
H218 C216 0.961 . S
H219 C216 0.960 . S
C220 N221 1.342 . S
C220 C224 1.401 . S
C220 C225 1.499 . S
N221 Co204 1.989 . S
N221 C220 1.342 . S
N221 N222 1.388 . S
N222 Co205 1.993 . S
N222 N221 1.388 . S
N222 C223 1.346 . S
C223 N222 1.346 . S
C223 C224 1.396 . S
C223 C233 1.510 . S
C224 C220 1.401 . S
C224 C223 1.396 . S
C225 C220 1.499 . S
C225 H226 0.959 . S
C225 H227 0.960 . S
C225 H228 0.961 . S
H226 C225 0.959 . S
H227 C225 0.960 . S
H228 C225 0.961 . S
O229 Co204 1.967 . S
O229 C237 1.258 . S
O230 Co205 1.941 . S
O230 C237 1.266 . S
H231 C233 0.959 . S
H232 C233 0.961 . S
C233 C223 1.510 . S
C233 H231 0.959 . S
C233 H232 0.961 . S
C233 H234 0.960 . S
H234 C233 0.960 . S
H235 N215 0.862 . S
O236 Co204 1.920 . S
O236 C209 1.289 . S
C237 O229 1.258 . S
C237 O230 1.266 . S
Co238 O241 1.970 . S
Co238 N255 1.989 . S
Co238 O263 1.967 . S
Co238 O270 1.920 . S
Co239 O242 1.957 . S
Co239 N248 2.045 . S
Co239 N256 1.977 1_545 S
Co239 O264 1.947 . S
C240 O241 1.258 . S
C240 O242 1.263 1_565 S
O241 Co238 1.970 . S
O241 C240 1.258 . S
O242 Co239 1.957 . S
O242 C240 1.263 1_545 S
C243 O244 1.235 . S
C243 O270 1.289 . S
O244 C243 1.235 . S
C245 C247 1.400 . S
C245 N248 1.351 . S
C245 C250 1.501 . S
C246 C247 1.387 . S
C246 N249 1.341 . S
C247 C245 1.400 . S
C247 C246 1.387 . S
N248 Co239 2.045 . S
N248 C245 1.351 . S
N248 N249 1.365 . S
N249 C246 1.341 . S
N249 N248 1.365 . S
N249 H269 0.862 . S
C250 C245 1.501 . S
C250 H251 0.961 . S
C250 H252 0.961 . S
C250 H253 0.960 . S
H251 C250 0.961 . S
H252 C250 0.961 . S
H253 C250 0.960 . S
C254 N255 1.342 . S
C254 C258 1.401 . S
C254 C259 1.499 . S
N255 Co238 1.989 . S
N255 C254 1.342 . S
N255 N256 1.388 . S
N256 Co239 1.977 1_565 S
N256 N255 1.388 . S
N256 C257 1.346 . S
C257 N256 1.346 . S
C257 C258 1.396 . S
C257 C267 1.510 . S
C258 C254 1.401 . S
C258 C257 1.396 . S
C259 C254 1.499 . S
C259 H260 0.959 . S
C259 H261 0.960 . S
C259 H262 0.961 . S
H260 C259 0.959 . S
H261 C259 0.960 . S
H262 C259 0.961 . S
O263 Co238 1.967 . S
O263 C271 1.258 . S
O264 Co239 1.947 . S
O264 C271 1.266 1_545 S
H265 C267 0.959 . S
H266 C267 0.961 . S
C267 C257 1.510 . S
C267 H265 0.959 . S
C267 H266 0.961 . S
C267 H268 0.960 . S
H268 C267 0.960 . S
H269 N249 0.862 . S
O270 Co238 1.920 . S
O270 C243 1.289 . S
C271 O263 1.258 . S
C271 O264 1.266 1_565 S
Co272 O275 1.970 . S
Co272 N289 1.989 . S
Co272 O297 1.967 . S
Co272 O304 1.920 . S
Co273 O276 1.983 . S
Co273 N282 2.034 . S
Co273 N290 1.970 1_655 S
Co273 O298 1.942 . S
C274 O275 1.258 . S
C274 O276 1.263 1_455 S
O275 Co272 1.970 . S
O275 C274 1.258 . S
O276 Co273 1.983 . S
O276 C274 1.263 1_655 S
C277 O278 1.235 . S
C277 O304 1.289 . S
O278 C277 1.235 . S
C279 C281 1.400 . S
C279 N282 1.351 . S
C279 C284 1.501 . S
C280 C281 1.387 . S
C280 N283 1.341 . S
C281 C279 1.400 . S
C281 C280 1.387 . S
N282 Co273 2.034 . S
N282 C279 1.351 . S
N282 N283 1.365 . S
N283 C280 1.341 . S
N283 N282 1.365 . S
N283 H303 0.862 . S
C284 C279 1.501 . S
C284 H285 0.961 . S
C284 H286 0.961 . S
C284 H287 0.960 . S
H285 C284 0.961 . S
H286 C284 0.961 . S
H287 C284 0.960 . S
C288 N289 1.342 . S
C288 C292 1.401 . S
C288 C293 1.499 . S
N289 Co272 1.989 . S
N289 C288 1.342 . S
N289 N290 1.388 . S
N290 Co273 1.970 1_455 S
N290 N289 1.388 . S
N290 C291 1.346 . S
C291 N290 1.346 . S
C291 C292 1.396 . S
C291 C301 1.510 . S
C292 C288 1.401 . S
C292 C291 1.396 . S
C293 C288 1.499 . S
C293 H294 0.959 . S
C293 H295 0.960 . S
C293 H296 0.961 . S
H294 C293 0.959 . S
H295 C293 0.960 . S
H296 C293 0.961 . S
O297 Co272 1.967 . S
O297 C305 1.258 . S
O298 Co273 1.942 . S
O298 C305 1.266 1_655 S
H299 C301 0.959 . S
H300 C301 0.961 . S
C301 C291 1.510 . S
C301 H299 0.959 . S
C301 H300 0.961 . S
C301 H302 0.960 . S
H302 C301 0.960 . S
H303 N283 0.862 . S
O304 Co272 1.920 . S
O304 C277 1.289 . S
C305 O297 1.258 . S
C305 O298 1.266 1_455 S
Co306 O309 1.970 . S
Co306 N323 1.989 . S
Co306 O331 1.967 . S
Co306 O338 1.920 . S
Co307 O310 1.966 . S
Co307 N316 2.022 . S
Co307 N324 1.993 . S
Co307 O332 1.941 . S
C308 O309 1.258 . S
C308 O310 1.263 . S
O309 Co306 1.970 . S
O309 C308 1.258 . S
O310 Co307 1.966 . S
O310 C308 1.263 . S
C311 O312 1.235 . S
C311 O338 1.289 . S
O312 C311 1.235 . S
C313 C315 1.400 . S
C313 N316 1.351 . S
C313 C318 1.501 . S
C314 C315 1.387 . S
C314 N317 1.341 . S
C315 C313 1.400 . S
C315 C314 1.387 . S
N316 Co307 2.022 . S
N316 C313 1.351 . S
N316 N317 1.365 . S
N317 C314 1.341 . S
N317 N316 1.365 . S
N317 H337 0.862 . S
C318 C313 1.501 . S
C318 H319 0.961 . S
C318 H320 0.961 . S
C318 H321 0.960 . S
H319 C318 0.961 . S
H320 C318 0.961 . S
H321 C318 0.960 . S
C322 N323 1.342 . S
C322 C326 1.401 . S
C322 C327 1.499 . S
N323 Co306 1.989 . S
N323 C322 1.342 . S
N323 N324 1.388 . S
N324 Co307 1.993 . S
N324 N323 1.388 . S
N324 C325 1.346 . S
C325 N324 1.346 . S
C325 C326 1.396 . S
C325 C335 1.510 . S
C326 C322 1.401 . S
C326 C325 1.396 . S
C327 C322 1.499 . S
C327 H328 0.959 . S
C327 H329 0.960 . S
C327 H330 0.961 . S
H328 C327 0.959 . S
H329 C327 0.960 . S
H330 C327 0.961 . S
O331 Co306 1.967 . S
O331 C339 1.258 . S
O332 Co307 1.941 . S
O332 C339 1.266 . S
H333 C335 0.959 . S
H334 C335 0.961 . S
C335 C325 1.510 . S
C335 H333 0.959 . S
C335 H334 0.961 . S
C335 H336 0.960 . S
H336 C335 0.960 . S
H337 N317 0.862 . S
O338 Co306 1.920 . S
O338 C311 1.289 . S
C339 O331 1.258 . S
C339 O332 1.266 . S
Co340 O343 1.970 . S
Co340 N357 1.989 . S
Co340 O365 1.967 . S
Co340 O372 1.920 . S
Co341 O344 1.983 . S
Co341 N350 2.034 . S
Co341 N358 1.970 1_565 S
Co341 O366 1.942 . S
C342 O343 1.258 . S
C342 O344 1.263 1_545 S
O343 Co340 1.970 . S
O343 C342 1.258 . S
O344 Co341 1.983 . S
O344 C342 1.263 1_565 S
C345 O346 1.235 . S
C345 O372 1.289 . S
O346 C345 1.235 . S
C347 C349 1.400 . S
C347 N350 1.351 . S
C347 C352 1.501 . S
C348 C349 1.387 . S
C348 N351 1.341 . S
C349 C347 1.400 . S
C349 C348 1.387 . S
N350 Co341 2.034 . S
N350 C347 1.351 . S
N350 N351 1.365 . S
N351 C348 1.341 . S
N351 N350 1.365 . S
N351 H371 0.862 . S
C352 C347 1.501 . S
C352 H353 0.961 . S
C352 H354 0.961 . S
C352 H355 0.960 . S
H353 C352 0.961 . S
H354 C352 0.961 . S
H355 C352 0.960 . S
C356 N357 1.342 . S
C356 C360 1.401 . S
C356 C361 1.499 . S
N357 Co340 1.989 . S
N357 C356 1.342 . S
N357 N358 1.388 . S
N358 Co341 1.970 1_545 S
N358 N357 1.388 . S
N358 C359 1.346 . S
C359 N358 1.346 . S
C359 C360 1.396 . S
C359 C369 1.510 . S
C360 C356 1.401 . S
C360 C359 1.396 . S
C361 C356 1.499 . S
C361 H362 0.959 . S
C361 H363 0.960 . S
C361 H364 0.961 . S
H362 C361 0.959 . S
H363 C361 0.960 . S
H364 C361 0.961 . S
O365 Co340 1.967 . S
O365 C373 1.258 . S
O366 Co341 1.942 . S
O366 C373 1.266 1_565 S
H367 C369 0.959 . S
H368 C369 0.961 . S
C369 C359 1.510 . S
C369 H367 0.959 . S
C369 H368 0.961 . S
C369 H370 0.960 . S
H370 C369 0.960 . S
H371 N351 0.862 . S
O372 Co340 1.920 . S
O372 C345 1.289 . S
C373 O365 1.258 . S
C373 O366 1.266 1_545 S
Co374 O377 1.970 . S
Co374 N391 1.989 . S
Co374 O399 1.967 . S
Co374 O406 1.920 . S
Co375 O378 1.957 . S
Co375 N384 2.045 . S
Co375 N392 1.977 1_455 S
Co375 O400 1.947 . S
C376 O377 1.258 . S
C376 O378 1.263 1_655 S
O377 Co374 1.970 . S
O377 C376 1.258 . S
O378 Co375 1.957 . S
O378 C376 1.263 1_455 S
C379 O380 1.235 . S
C379 O406 1.289 . S
O380 C379 1.235 . S
C381 C383 1.400 . S
C381 N384 1.351 . S
C381 C386 1.501 . S
C382 C383 1.387 . S
C382 N385 1.341 . S
C383 C381 1.400 . S
C383 C382 1.387 . S
N384 Co375 2.045 . S
N384 C381 1.351 . S
N384 N385 1.365 . S
N385 C382 1.341 . S
N385 N384 1.365 . S
N385 H405 0.862 . S
C386 C381 1.501 . S
C386 H387 0.961 . S
C386 H388 0.961 . S
C386 H389 0.960 . S
H387 C386 0.961 . S
H388 C386 0.961 . S
H389 C386 0.960 . S
C390 N391 1.342 . S
C390 C394 1.401 . S
C390 C395 1.499 . S
N391 Co374 1.989 . S
N391 C390 1.342 . S
N391 N392 1.388 . S
N392 Co375 1.977 1_655 S
N392 N391 1.388 . S
N392 C393 1.346 . S
C393 N392 1.346 . S
C393 C394 1.396 . S
C393 C403 1.510 . S
C394 C390 1.401 . S
C394 C393 1.396 . S
C395 C390 1.499 . S
C395 H396 0.959 . S
C395 H397 0.960 . S
C395 H398 0.961 . S
H396 C395 0.959 . S
H397 C395 0.960 . S
H398 C395 0.961 . S
O399 Co374 1.967 . S
O399 C407 1.258 . S
O400 Co375 1.947 . S
O400 C407 1.266 1_455 S
H401 C403 0.959 . S
H402 C403 0.961 . S
C403 C393 1.510 . S
C403 H401 0.959 . S
C403 H402 0.961 . S
C403 H404 0.960 . S
H404 C403 0.960 . S
H405 N385 0.862 . S
O406 Co374 1.920 . S
O406 C379 1.289 . S
C407 O399 1.258 . S
C407 O400 1.266 1_655 S
Co408 O411 1.970 . S
Co408 N425 1.989 . S
Co408 O433 1.967 . S
Co408 O440 1.920 . S
Co409 O412 1.966 . S
Co409 N418 2.022 . S
Co409 N426 1.993 . S
Co409 O434 1.941 . S
C410 O411 1.258 . S
C410 O412 1.263 . S
O411 Co408 1.970 . S
O411 C410 1.258 . S
O412 Co409 1.966 . S
O412 C410 1.263 . S
C413 O414 1.235 . S
C413 O440 1.289 . S
O414 C413 1.235 . S
C415 C417 1.400 . S
C415 N418 1.351 . S
C415 C420 1.501 . S
C416 C417 1.387 . S
C416 N419 1.341 . S
C417 C415 1.400 . S
C417 C416 1.387 . S
N418 Co409 2.022 . S
N418 C415 1.351 . S
N418 N419 1.365 . S
N419 C416 1.341 . S
N419 N418 1.365 . S
N419 H439 0.862 . S
C420 C415 1.501 . S
C420 H421 0.961 . S
C420 H422 0.961 . S
C420 H423 0.960 . S
H421 C420 0.961 . S
H422 C420 0.961 . S
H423 C420 0.960 . S
C424 N425 1.342 . S
C424 C428 1.401 . S
C424 C429 1.499 . S
N425 Co408 1.989 . S
N425 C424 1.342 . S
N425 N426 1.388 . S
N426 Co409 1.993 . S
N426 N425 1.388 . S
N426 C427 1.346 . S
C427 N426 1.346 . S
C427 C428 1.396 . S
C427 C437 1.510 . S
C428 C424 1.401 . S
C428 C427 1.396 . S
C429 C424 1.499 . S
C429 H430 0.959 . S
C429 H431 0.960 . S
C429 H432 0.961 . S
H430 C429 0.959 . S
H431 C429 0.960 . S
H432 C429 0.961 . S
O433 Co408 1.967 . S
O433 C441 1.258 . S
O434 Co409 1.941 . S
O434 C441 1.266 . S
H435 C437 0.959 . S
H436 C437 0.961 . S
C437 C427 1.510 . S
C437 H435 0.959 . S
C437 H436 0.961 . S
C437 H438 0.960 . S
H438 C437 0.960 . S
H439 N419 0.862 . S
O440 Co408 1.920 . S
O440 C413 1.289 . S
C441 O433 1.258 . S
C441 O434 1.266 . S
Co442 O445 1.970 . S
Co442 N459 1.989 . S
Co442 O467 1.967 . S
Co442 O474 1.920 . S
Co443 O446 1.966 . S
Co443 N452 2.022 . S
Co443 N460 1.993 . S
Co443 O468 1.941 . S
C444 O445 1.258 . S
C444 O446 1.263 . S
O445 Co442 1.970 . S
O445 C444 1.258 . S
O446 Co443 1.966 . S
O446 C444 1.263 . S
C447 O448 1.235 . S
C447 O474 1.289 . S
O448 C447 1.235 . S
C449 C451 1.400 . S
C449 N452 1.351 . S
C449 C454 1.501 . S
C450 C451 1.387 . S
C450 N453 1.341 . S
C451 C449 1.400 . S
C451 C450 1.387 . S
N452 Co443 2.022 . S
N452 C449 1.351 . S
N452 N453 1.365 . S
N453 C450 1.341 . S
N453 N452 1.365 . S
N453 H473 0.862 . S
C454 C449 1.501 . S
C454 H455 0.961 . S
C454 H456 0.961 . S
C454 H457 0.960 . S
H455 C454 0.961 . S
H456 C454 0.961 . S
H457 C454 0.960 . S
C458 N459 1.342 . S
C458 C462 1.401 . S
C458 C463 1.499 . S
N459 Co442 1.989 . S
N459 C458 1.342 . S
N459 N460 1.388 . S
N460 Co443 1.993 . S
N460 N459 1.388 . S
N460 C461 1.346 . S
C461 N460 1.346 . S
C461 C462 1.396 . S
C461 C471 1.510 . S
C462 C458 1.401 . S
C462 C461 1.396 . S
C463 C458 1.499 . S
C463 H464 0.959 . S
C463 H465 0.960 . S
C463 H466 0.961 . S
H464 C463 0.959 . S
H465 C463 0.960 . S
H466 C463 0.961 . S
O467 Co442 1.967 . S
O467 C475 1.258 . S
O468 Co443 1.941 . S
O468 C475 1.266 . S
H469 C471 0.959 . S
H470 C471 0.961 . S
C471 C461 1.510 . S
C471 H469 0.959 . S
C471 H470 0.961 . S
C471 H472 0.960 . S
H472 C471 0.960 . S
H473 N453 0.862 . S
O474 Co442 1.920 . S
O474 C447 1.289 . S
C475 O467 1.258 . S
C475 O468 1.266 . S
Co476 O479 1.970 . S
Co476 N493 1.989 . S
Co476 O501 1.967 . S
Co476 O508 1.920 . S
Co477 O480 1.966 . S
Co477 N486 2.022 . S
Co477 N494 1.993 . S
Co477 O502 1.941 . S
C478 O479 1.258 . S
C478 O480 1.263 . S
O479 Co476 1.970 . S
O479 C478 1.258 . S
O480 Co477 1.966 . S
O480 C478 1.263 . S
C481 O482 1.235 . S
C481 O508 1.289 . S
O482 C481 1.235 . S
C483 C485 1.400 . S
C483 N486 1.351 . S
C483 C488 1.501 . S
C484 C485 1.387 . S
C484 N487 1.341 . S
C485 C483 1.400 . S
C485 C484 1.387 . S
N486 Co477 2.022 . S
N486 C483 1.351 . S
N486 N487 1.365 . S
N487 C484 1.341 . S
N487 N486 1.365 . S
N487 H507 0.862 . S
C488 C483 1.501 . S
C488 H489 0.961 . S
C488 H490 0.961 . S
C488 H491 0.960 . S
H489 C488 0.961 . S
H490 C488 0.961 . S
H491 C488 0.960 . S
C492 N493 1.342 . S
C492 C496 1.401 . S
C492 C497 1.499 . S
N493 Co476 1.989 . S
N493 C492 1.342 . S
N493 N494 1.388 . S
N494 Co477 1.993 . S
N494 N493 1.388 . S
N494 C495 1.346 . S
C495 N494 1.346 . S
C495 C496 1.396 . S
C495 C505 1.510 . S
C496 C492 1.401 . S
C496 C495 1.396 . S
C497 C492 1.499 . S
C497 H498 0.959 . S
C497 H499 0.960 . S
C497 H500 0.961 . S
H498 C497 0.959 . S
H499 C497 0.960 . S
H500 C497 0.961 . S
O501 Co476 1.967 . S
O501 C509 1.258 . S
O502 Co477 1.941 . S
O502 C509 1.266 . S
H503 C505 0.959 . S
H504 C505 0.961 . S
C505 C495 1.510 . S
C505 H503 0.959 . S
C505 H504 0.961 . S
C505 H506 0.960 . S
H506 C505 0.960 . S
H507 N487 0.862 . S
O508 Co476 1.920 . S
O508 C481 1.289 . S
C509 O501 1.258 . S
C509 O502 1.266 . S
Co510 O513 1.970 . S
Co510 N527 1.989 . S
Co510 O535 1.967 . S
Co510 O542 1.920 . S
Co511 O514 1.966 . S
Co511 N520 2.022 . S
Co511 N528 1.993 . S
Co511 O536 1.941 . S
C512 O513 1.258 . S
C512 O514 1.263 . S
O513 Co510 1.970 . S
O513 C512 1.258 . S
O514 Co511 1.966 . S
O514 C512 1.263 . S
C515 O516 1.235 . S
C515 O542 1.289 . S
O516 C515 1.235 . S
C517 C519 1.400 . S
C517 N520 1.351 . S
C517 C522 1.501 . S
C518 C519 1.387 . S
C518 N521 1.341 . S
C519 C517 1.400 . S
C519 C518 1.387 . S
N520 Co511 2.022 . S
N520 C517 1.351 . S
N520 N521 1.365 . S
N521 C518 1.341 . S
N521 N520 1.365 . S
N521 H541 0.862 . S
C522 C517 1.501 . S
C522 H523 0.961 . S
C522 H524 0.961 . S
C522 H525 0.960 . S
H523 C522 0.961 . S
H524 C522 0.961 . S
H525 C522 0.960 . S
C526 N527 1.342 . S
C526 C530 1.401 . S
C526 C531 1.499 . S
N527 Co510 1.989 . S
N527 C526 1.342 . S
N527 N528 1.388 . S
N528 Co511 1.993 . S
N528 N527 1.388 . S
N528 C529 1.346 . S
C529 N528 1.346 . S
C529 C530 1.396 . S
C529 C539 1.510 . S
C530 C526 1.401 . S
C530 C529 1.396 . S
C531 C526 1.499 . S
C531 H532 0.959 . S
C531 H533 0.960 . S
C531 H534 0.961 . S
H532 C531 0.959 . S
H533 C531 0.960 . S
H534 C531 0.961 . S
O535 Co510 1.967 . S
O535 C543 1.258 . S
O536 Co511 1.941 . S
O536 C543 1.266 . S
H537 C539 0.959 . S
H538 C539 0.961 . S
C539 C529 1.510 . S
C539 H537 0.959 . S
C539 H538 0.961 . S
C539 H540 0.960 . S
H540 C539 0.960 . S
H541 N521 0.862 . S
O542 Co510 1.920 . S
O542 C515 1.289 . S
C543 O535 1.258 . S
C543 O536 1.266 . S
Co544 O547 1.970 . S
Co544 N561 1.989 . S
Co544 O569 1.967 . S
Co544 O576 1.920 . S
Co545 O548 1.966 . S
Co545 N554 2.022 . S
Co545 N562 1.993 . S
Co545 O570 1.941 . S
C546 O547 1.258 . S
C546 O548 1.263 . S
O547 Co544 1.970 . S
O547 C546 1.258 . S
O548 Co545 1.966 . S
O548 C546 1.263 . S
C549 O550 1.235 . S
C549 O576 1.289 . S
O550 C549 1.235 . S
C551 C553 1.400 . S
C551 N554 1.351 . S
C551 C556 1.501 . S
C552 C553 1.387 . S
C552 N555 1.341 . S
C553 C551 1.400 . S
C553 C552 1.387 . S
N554 Co545 2.022 . S
N554 C551 1.351 . S
N554 N555 1.365 . S
N555 C552 1.341 . S
N555 N554 1.365 . S
N555 H575 0.862 . S
C556 C551 1.501 . S
C556 H557 0.961 . S
C556 H558 0.961 . S
C556 H559 0.960 . S
H557 C556 0.961 . S
H558 C556 0.961 . S
H559 C556 0.960 . S
C560 N561 1.342 . S
C560 C564 1.401 . S
C560 C565 1.499 . S
N561 Co544 1.989 . S
N561 C560 1.342 . S
N561 N562 1.388 . S
N562 Co545 1.993 . S
N562 N561 1.388 . S
N562 C563 1.346 . S
C563 N562 1.346 . S
C563 C564 1.396 . S
C563 C573 1.510 . S
C564 C560 1.401 . S
C564 C563 1.396 . S
C565 C560 1.499 . S
C565 H566 0.959 . S
C565 H567 0.960 . S
C565 H568 0.961 . S
H566 C565 0.959 . S
H567 C565 0.960 . S
H568 C565 0.961 . S
O569 Co544 1.967 . S
O569 C577 1.258 . S
O570 Co545 1.941 . S
O570 C577 1.266 . S
H571 C573 0.959 . S
H572 C573 0.961 . S
C573 C563 1.510 . S
C573 H571 0.959 . S
C573 H572 0.961 . S
C573 H574 0.960 . S
H574 C573 0.960 . S
H575 N555 0.862 . S
O576 Co544 1.920 . S
O576 C549 1.289 . S
C577 O569 1.258 . S
C577 O570 1.266 . S
Co578 O581 1.970 . S
Co578 N595 1.989 . S
Co578 O603 1.967 . S
Co578 O610 1.920 . S
Co579 O582 1.966 . S
Co579 N588 2.022 . S
Co579 N596 1.993 . S
Co579 O604 1.941 . S
C580 O581 1.258 . S
C580 O582 1.263 . S
O581 Co578 1.970 . S
O581 C580 1.258 . S
O582 Co579 1.966 . S
O582 C580 1.263 . S
C583 O584 1.235 . S
C583 O610 1.289 . S
O584 C583 1.235 . S
C585 C587 1.400 . S
C585 N588 1.351 . S
C585 C590 1.501 . S
C586 C587 1.387 . S
C586 N589 1.341 . S
C587 C585 1.400 . S
C587 C586 1.387 . S
N588 Co579 2.022 . S
N588 C585 1.351 . S
N588 N589 1.365 . S
N589 C586 1.341 . S
N589 N588 1.365 . S
N589 H609 0.862 . S
C590 C585 1.501 . S
C590 H591 0.961 . S
C590 H592 0.961 . S
C590 H593 0.960 . S
H591 C590 0.961 . S
H592 C590 0.961 . S
H593 C590 0.960 . S
C594 N595 1.342 . S
C594 C598 1.401 . S
C594 C599 1.499 . S
N595 Co578 1.989 . S
N595 C594 1.342 . S
N595 N596 1.388 . S
N596 Co579 1.993 . S
N596 N595 1.388 . S
N596 C597 1.346 . S
C597 N596 1.346 . S
C597 C598 1.396 . S
C597 C607 1.510 . S
C598 C594 1.401 . S
C598 C597 1.396 . S
C599 C594 1.499 . S
C599 H600 0.959 . S
C599 H601 0.960 . S
C599 H602 0.961 . S
H600 C599 0.959 . S
H601 C599 0.960 . S
H602 C599 0.961 . S
O603 Co578 1.967 . S
O603 C611 1.258 . S
O604 Co579 1.941 . S
O604 C611 1.266 . S
H605 C607 0.959 . S
H606 C607 0.961 . S
C607 C597 1.510 . S
C607 H605 0.959 . S
C607 H606 0.961 . S
C607 H608 0.960 . S
H608 C607 0.960 . S
H609 N589 0.862 . S
O610 Co578 1.920 . S
O610 C583 1.289 . S
C611 O603 1.258 . S
C611 O604 1.266 . S
Co612 O615 1.970 . S
Co612 N629 1.989 . S
Co612 O637 1.967 . S
Co612 O644 1.920 . S
Co613 O616 1.966 . S
Co613 N622 2.022 . S
Co613 N630 1.993 . S
Co613 O638 1.941 . S
C614 O615 1.258 . S
C614 O616 1.263 . S
O615 Co612 1.970 . S
O615 C614 1.258 . S
O616 Co613 1.966 . S
O616 C614 1.263 . S
C617 O618 1.235 . S
C617 O644 1.289 . S
O618 C617 1.235 . S
C619 C621 1.400 . S
C619 N622 1.351 . S
C619 C624 1.501 . S
C620 C621 1.387 . S
C620 N623 1.341 . S
C621 C619 1.400 . S
C621 C620 1.387 . S
N622 Co613 2.022 . S
N622 C619 1.351 . S
N622 N623 1.365 . S
N623 C620 1.341 . S
N623 N622 1.365 . S
N623 H643 0.862 . S
C624 C619 1.501 . S
C624 H625 0.961 . S
C624 H626 0.961 . S
C624 H627 0.960 . S
H625 C624 0.961 . S
H626 C624 0.961 . S
H627 C624 0.960 . S
C628 N629 1.342 . S
C628 C632 1.401 . S
C628 C633 1.499 . S
N629 Co612 1.989 . S
N629 C628 1.342 . S
N629 N630 1.388 . S
N630 Co613 1.993 . S
N630 N629 1.388 . S
N630 C631 1.346 . S
C631 N630 1.346 . S
C631 C632 1.396 . S
C631 C641 1.510 . S
C632 C628 1.401 . S
C632 C631 1.396 . S
C633 C628 1.499 . S
C633 H634 0.959 . S
C633 H635 0.960 . S
C633 H636 0.961 . S
H634 C633 0.959 . S
H635 C633 0.960 . S
H636 C633 0.961 . S
O637 Co612 1.967 . S
O637 C645 1.258 . S
O638 Co613 1.941 . S
O638 C645 1.266 . S
H639 C641 0.959 . S
H640 C641 0.961 . S
C641 C631 1.510 . S
C641 H639 0.959 . S
C641 H640 0.961 . S
C641 H642 0.960 . S
H642 C641 0.960 . S
H643 N623 0.862 . S
O644 Co612 1.920 . S
O644 C617 1.289 . S
C645 O637 1.258 . S
C645 O638 1.266 . S
Co646 O649 1.970 . S
Co646 N663 1.989 . S
Co646 O671 1.967 . S
Co646 O678 1.920 . S
Co647 O650 1.966 . S
Co647 N656 2.022 . S
Co647 N664 1.993 . S
Co647 O672 1.941 . S
C648 O649 1.258 . S
C648 O650 1.263 . S
O649 Co646 1.970 . S
O649 C648 1.258 . S
O650 Co647 1.966 . S
O650 C648 1.263 . S
C651 O652 1.235 . S
C651 O678 1.289 . S
O652 C651 1.235 . S
C653 C655 1.400 . S
C653 N656 1.351 . S
C653 C658 1.501 . S
C654 C655 1.387 . S
C654 N657 1.341 . S
C655 C653 1.400 . S
C655 C654 1.387 . S
N656 Co647 2.022 . S
N656 C653 1.351 . S
N656 N657 1.365 . S
N657 C654 1.341 . S
N657 N656 1.365 . S
N657 H677 0.862 . S
C658 C653 1.501 . S
C658 H659 0.961 . S
C658 H660 0.961 . S
C658 H661 0.960 . S
H659 C658 0.961 . S
H660 C658 0.961 . S
H661 C658 0.960 . S
C662 N663 1.342 . S
C662 C666 1.401 . S
C662 C667 1.499 . S
N663 Co646 1.989 . S
N663 C662 1.342 . S
N663 N664 1.388 . S
N664 Co647 1.993 . S
N664 N663 1.388 . S
N664 C665 1.346 . S
C665 N664 1.346 . S
C665 C666 1.396 . S
C665 C675 1.510 . S
C666 C662 1.401 . S
C666 C665 1.396 . S
C667 C662 1.499 . S
C667 H668 0.959 . S
C667 H669 0.960 . S
C667 H670 0.961 . S
H668 C667 0.959 . S
H669 C667 0.960 . S
H670 C667 0.961 . S
O671 Co646 1.967 . S
O671 C679 1.258 . S
O672 Co647 1.941 . S
O672 C679 1.266 . S
H673 C675 0.959 . S
H674 C675 0.961 . S
C675 C665 1.510 . S
C675 H673 0.959 . S
C675 H674 0.961 . S
C675 H676 0.960 . S
H676 C675 0.960 . S
H677 N657 0.862 . S
O678 Co646 1.920 . S
O678 C651 1.289 . S
C679 O671 1.258 . S
C679 O672 1.266 . S
Co680 O683 1.970 . S
Co680 N697 1.989 . S
Co680 O705 1.967 . S
Co680 O712 1.920 . S
Co681 O684 1.966 . S
Co681 N690 2.022 . S
Co681 N698 1.993 . S
Co681 O706 1.941 . S
C682 O683 1.258 . S
C682 O684 1.263 . S
O683 Co680 1.970 . S
O683 C682 1.258 . S
O684 Co681 1.966 . S
O684 C682 1.263 . S
C685 O686 1.235 . S
C685 O712 1.289 . S
O686 C685 1.235 . S
C687 C689 1.400 . S
C687 N690 1.351 . S
C687 C692 1.501 . S
C688 C689 1.387 . S
C688 N691 1.341 . S
C689 C687 1.400 . S
C689 C688 1.387 . S
N690 Co681 2.022 . S
N690 C687 1.351 . S
N690 N691 1.365 . S
N691 C688 1.341 . S
N691 N690 1.365 . S
N691 H711 0.862 . S
C692 C687 1.501 . S
C692 H693 0.961 . S
C692 H694 0.961 . S
C692 H695 0.960 . S
H693 C692 0.961 . S
H694 C692 0.961 . S
H695 C692 0.960 . S
C696 N697 1.342 . S
C696 C700 1.401 . S
C696 C701 1.499 . S
N697 Co680 1.989 . S
N697 C696 1.342 . S
N697 N698 1.388 . S
N698 Co681 1.993 . S
N698 N697 1.388 . S
N698 C699 1.346 . S
C699 N698 1.346 . S
C699 C700 1.396 . S
C699 C709 1.510 . S
C700 C696 1.401 . S
C700 C699 1.396 . S
C701 C696 1.499 . S
C701 H702 0.959 . S
C701 H703 0.960 . S
C701 H704 0.961 . S
H702 C701 0.959 . S
H703 C701 0.960 . S
H704 C701 0.961 . S
O705 Co680 1.967 . S
O705 C713 1.258 . S
O706 Co681 1.941 . S
O706 C713 1.266 . S
H707 C709 0.959 . S
H708 C709 0.961 . S
C709 C699 1.510 . S
C709 H707 0.959 . S
C709 H708 0.961 . S
C709 H710 0.960 . S
H710 C709 0.960 . S
H711 N691 0.862 . S
O712 Co680 1.920 . S
O712 C685 1.289 . S
C713 O705 1.258 . S
C713 O706 1.266 . S
Co714 O717 1.970 . S
Co714 N731 1.989 . S
Co714 O739 1.942 1_556 S
Co714 O746 1.920 . S
Co715 O718 1.966 . S
Co715 N724 2.022 . S
Co715 N732 1.993 . S
Co715 O740 1.941 . S
C716 O717 1.258 . S
C716 O718 1.263 . S
O717 Co714 1.970 . S
O717 C716 1.258 . S
O718 Co715 1.966 . S
O718 C716 1.263 . S
C719 O720 1.235 . S
C719 O746 1.289 . S
O720 C719 1.235 . S
C721 C723 1.400 . S
C721 N724 1.351 . S
C721 C726 1.501 . S
C722 C723 1.387 . S
C722 N725 1.341 . S
C723 C721 1.400 . S
C723 C722 1.387 . S
N724 Co715 2.022 . S
N724 C721 1.351 . S
N724 N725 1.365 . S
N725 C722 1.341 . S
N725 N724 1.365 . S
N725 H745 0.862 . S
C726 C721 1.501 . S
C726 H727 0.961 . S
C726 H728 0.961 . S
C726 H729 0.960 . S
H727 C726 0.961 . S
H728 C726 0.961 . S
H729 C726 0.960 . S
C730 N731 1.342 . S
C730 C734 1.401 . S
C730 C735 1.499 . S
N731 Co714 1.989 . S
N731 C730 1.342 . S
N731 N732 1.388 . S
N732 Co715 1.993 . S
N732 N731 1.388 . S
N732 C733 1.346 . S
C733 N732 1.346 . S
C733 C734 1.396 . S
C733 C743 1.510 . S
C734 C730 1.401 . S
C734 C733 1.396 . S
C735 C730 1.499 . S
C735 H736 0.959 . S
C735 H737 0.960 . S
C735 H738 0.961 . S
H736 C735 0.959 . S
H737 C735 0.960 . S
H738 C735 0.961 . S
O739 Co714 1.942 1_554 S
O739 C747 1.264 . S
O740 Co715 1.941 . S
O740 C747 1.266 1_556 S
H741 C743 0.959 . S
H742 C743 0.961 . S
C743 C733 1.510 . S
C743 H741 0.959 . S
C743 H742 0.961 . S
C743 H744 0.960 . S
H744 C743 0.960 . S
H745 N725 0.862 . S
O746 Co714 1.920 . S
O746 C719 1.289 . S
C747 O739 1.264 . S
C747 O740 1.266 1_554 S
Co748 O751 1.970 . S
Co748 N765 1.989 . S
Co748 O773 1.942 1_556 S
Co748 O780 1.920 . S
Co749 O752 1.966 . S
Co749 N758 2.022 . S
Co749 N766 1.993 . S
Co749 O774 1.941 . S
C750 O751 1.258 . S
C750 O752 1.263 . S
O751 Co748 1.970 . S
O751 C750 1.258 . S
O752 Co749 1.966 . S
O752 C750 1.263 . S
C753 O754 1.235 . S
C753 O780 1.289 . S
O754 C753 1.235 . S
C755 C757 1.400 . S
C755 N758 1.351 . S
C755 C760 1.501 . S
C756 C757 1.387 . S
C756 N759 1.341 . S
C757 C755 1.400 . S
C757 C756 1.387 . S
N758 Co749 2.022 . S
N758 C755 1.351 . S
N758 N759 1.365 . S
N759 C756 1.341 . S
N759 N758 1.365 . S
N759 H779 0.862 . S
C760 C755 1.501 . S
C760 H761 0.961 . S
C760 H762 0.961 . S
C760 H763 0.960 . S
H761 C760 0.961 . S
H762 C760 0.961 . S
H763 C760 0.960 . S
C764 N765 1.342 . S
C764 C768 1.401 . S
C764 C769 1.499 . S
N765 Co748 1.989 . S
N765 C764 1.342 . S
N765 N766 1.388 . S
N766 Co749 1.993 . S
N766 N765 1.388 . S
N766 C767 1.346 . S
C767 N766 1.346 . S
C767 C768 1.396 . S
C767 C777 1.510 . S
C768 C764 1.401 . S
C768 C767 1.396 . S
C769 C764 1.499 . S
C769 H770 0.959 . S
C769 H771 0.960 . S
C769 H772 0.961 . S
H770 C769 0.959 . S
H771 C769 0.960 . S
H772 C769 0.961 . S
O773 Co748 1.942 1_554 S
O773 C781 1.264 . S
O774 Co749 1.941 . S
O774 C781 1.266 1_556 S
H775 C777 0.959 . S
H776 C777 0.961 . S
C777 C767 1.510 . S
C777 H775 0.959 . S
C777 H776 0.961 . S
C777 H778 0.960 . S
H778 C777 0.960 . S
H779 N759 0.862 . S
O780 Co748 1.920 . S
O780 C753 1.289 . S
C781 O773 1.264 . S
C781 O774 1.266 1_554 S
Co782 O785 1.970 . S
Co782 N799 1.989 . S
Co782 O807 1.942 1_556 S
Co782 O814 1.920 . S
Co783 O786 1.966 . S
Co783 N792 2.022 . S
Co783 N800 1.993 . S
Co783 O808 1.941 . S
C784 O785 1.258 . S
C784 O786 1.263 . S
O785 Co782 1.970 . S
O785 C784 1.258 . S
O786 Co783 1.966 . S
O786 C784 1.263 . S
C787 O788 1.235 . S
C787 O814 1.289 . S
O788 C787 1.235 . S
C789 C791 1.400 . S
C789 N792 1.351 . S
C789 C794 1.501 . S
C790 C791 1.387 . S
C790 N793 1.341 . S
C791 C789 1.400 . S
C791 C790 1.387 . S
N792 Co783 2.022 . S
N792 C789 1.351 . S
N792 N793 1.365 . S
N793 C790 1.341 . S
N793 N792 1.365 . S
N793 H813 0.862 . S
C794 C789 1.501 . S
C794 H795 0.961 . S
C794 H796 0.961 . S
C794 H797 0.960 . S
H795 C794 0.961 . S
H796 C794 0.961 . S
H797 C794 0.960 . S
C798 N799 1.342 . S
C798 C802 1.401 . S
C798 C803 1.499 . S
N799 Co782 1.989 . S
N799 C798 1.342 . S
N799 N800 1.388 . S
N800 Co783 1.993 . S
N800 N799 1.388 . S
N800 C801 1.346 . S
C801 N800 1.346 . S
C801 C802 1.396 . S
C801 C811 1.510 . S
C802 C798 1.401 . S
C802 C801 1.396 . S
C803 C798 1.499 . S
C803 H804 0.959 . S
C803 H805 0.960 . S
C803 H806 0.961 . S
H804 C803 0.959 . S
H805 C803 0.960 . S
H806 C803 0.961 . S
O807 Co782 1.942 1_554 S
O807 C815 1.264 . S
O808 Co783 1.941 . S
O808 C815 1.266 1_556 S
H809 C811 0.959 . S
H810 C811 0.961 . S
C811 C801 1.510 . S
C811 H809 0.959 . S
C811 H810 0.961 . S
C811 H812 0.960 . S
H812 C811 0.960 . S
H813 N793 0.862 . S
O814 Co782 1.920 . S
O814 C787 1.289 . S
C815 O807 1.264 . S
C815 O808 1.266 1_554 S
Co816 O819 1.970 . S
Co816 N833 1.989 . S
Co816 O841 1.967 . S
Co816 O848 1.920 . S
Co817 O820 1.966 . S
Co817 N826 2.022 . S
Co817 N834 1.993 . S
Co817 O842 1.941 . S
C818 O819 1.258 . S
C818 O820 1.263 . S
O819 Co816 1.970 . S
O819 C818 1.258 . S
O820 Co817 1.966 . S
O820 C818 1.263 . S
C821 O822 1.235 . S
C821 O848 1.289 . S
O822 C821 1.235 . S
C823 C825 1.400 . S
C823 N826 1.351 . S
C823 C828 1.501 . S
C824 C825 1.387 . S
C824 N827 1.341 . S
C825 C823 1.400 . S
C825 C824 1.387 . S
N826 Co817 2.022 . S
N826 C823 1.351 . S
N826 N827 1.365 . S
N827 C824 1.341 . S
N827 N826 1.365 . S
N827 H847 0.862 . S
C828 C823 1.501 . S
C828 H829 0.961 . S
C828 H830 0.961 . S
C828 H831 0.960 . S
H829 C828 0.961 . S
H830 C828 0.961 . S
H831 C828 0.960 . S
C832 N833 1.342 . S
C832 C836 1.401 . S
C832 C837 1.499 . S
N833 Co816 1.989 . S
N833 C832 1.342 . S
N833 N834 1.388 . S
N834 Co817 1.993 . S
N834 N833 1.388 . S
N834 C835 1.346 . S
C835 N834 1.346 . S
C835 C836 1.396 . S
C835 C845 1.510 . S
C836 C832 1.401 . S
C836 C835 1.396 . S
C837 C832 1.499 . S
C837 H838 0.959 . S
C837 H839 0.960 . S
C837 H840 0.961 . S
H838 C837 0.959 . S
H839 C837 0.960 . S
H840 C837 0.961 . S
O841 Co816 1.967 . S
O841 C849 1.258 . S
O842 Co817 1.941 . S
O842 C849 1.266 . S
H843 C845 0.959 . S
H844 C845 0.961 . S
C845 C835 1.510 . S
C845 H843 0.959 . S
C845 H844 0.961 . S
C845 H846 0.960 . S
H846 C845 0.960 . S
H847 N827 0.862 . S
O848 Co816 1.920 . S
O848 C821 1.289 . S
C849 O841 1.258 . S
C849 O842 1.266 . S
Co850 O853 1.970 . S
Co850 N867 1.989 . S
Co850 O875 1.967 . S
Co850 O882 1.920 . S
Co851 O854 1.966 . S
Co851 N860 2.022 . S
Co851 N868 1.993 . S
Co851 O876 1.941 . S
C852 O853 1.258 . S
C852 O854 1.263 . S
O853 Co850 1.970 . S
O853 C852 1.258 . S
O854 Co851 1.966 . S
O854 C852 1.263 . S
C855 O856 1.235 . S
C855 O882 1.289 . S
O856 C855 1.235 . S
C857 C859 1.400 . S
C857 N860 1.351 . S
C857 C862 1.501 . S
C858 C859 1.387 . S
C858 N861 1.341 . S
C859 C857 1.400 . S
C859 C858 1.387 . S
N860 Co851 2.022 . S
N860 C857 1.351 . S
N860 N861 1.365 . S
N861 C858 1.341 . S
N861 N860 1.365 . S
N861 H881 0.862 . S
C862 C857 1.501 . S
C862 H863 0.961 . S
C862 H864 0.961 . S
C862 H865 0.960 . S
H863 C862 0.961 . S
H864 C862 0.961 . S
H865 C862 0.960 . S
C866 N867 1.342 . S
C866 C870 1.401 . S
C866 C871 1.499 . S
N867 Co850 1.989 . S
N867 C866 1.342 . S
N867 N868 1.388 . S
N868 Co851 1.993 . S
N868 N867 1.388 . S
N868 C869 1.346 . S
C869 N868 1.346 . S
C869 C870 1.396 . S
C869 C879 1.510 . S
C870 C866 1.401 . S
C870 C869 1.396 . S
C871 C866 1.499 . S
C871 H872 0.959 . S
C871 H873 0.960 . S
C871 H874 0.961 . S
H872 C871 0.959 . S
H873 C871 0.960 . S
H874 C871 0.961 . S
O875 Co850 1.967 . S
O875 C883 1.258 . S
O876 Co851 1.941 . S
O876 C883 1.266 . S
H877 C879 0.959 . S
H878 C879 0.961 . S
C879 C869 1.510 . S
C879 H877 0.959 . S
C879 H878 0.961 . S
C879 H880 0.960 . S
H880 C879 0.960 . S
H881 N861 0.862 . S
O882 Co850 1.920 . S
O882 C855 1.289 . S
C883 O875 1.258 . S
C883 O876 1.266 . S
Co884 O887 1.970 . S
Co884 N901 1.989 . S
Co884 O909 1.967 . S
Co884 O916 1.920 . S
Co885 O888 1.966 . S
Co885 N894 2.022 . S
Co885 N902 1.993 . S
Co885 O910 1.941 . S
C886 O887 1.258 . S
C886 O888 1.263 . S
O887 Co884 1.970 . S
O887 C886 1.258 . S
O888 Co885 1.966 . S
O888 C886 1.263 . S
C889 O890 1.235 . S
C889 O916 1.289 . S
O890 C889 1.235 . S
C891 C893 1.400 . S
C891 N894 1.351 . S
C891 C896 1.501 . S
C892 C893 1.387 . S
C892 N895 1.341 . S
C893 C891 1.400 . S
C893 C892 1.387 . S
N894 Co885 2.022 . S
N894 C891 1.351 . S
N894 N895 1.365 . S
N895 C892 1.341 . S
N895 N894 1.365 . S
N895 H915 0.862 . S
C896 C891 1.501 . S
C896 H897 0.961 . S
C896 H898 0.961 . S
C896 H899 0.960 . S
H897 C896 0.961 . S
H898 C896 0.961 . S
H899 C896 0.960 . S
C900 N901 1.342 . S
C900 C904 1.401 . S
C900 C905 1.499 . S
N901 Co884 1.989 . S
N901 C900 1.342 . S
N901 N902 1.388 . S
N902 Co885 1.993 . S
N902 N901 1.388 . S
N902 C903 1.346 . S
C903 N902 1.346 . S
C903 C904 1.396 . S
C903 C913 1.510 . S
C904 C900 1.401 . S
C904 C903 1.396 . S
C905 C900 1.499 . S
C905 H906 0.959 . S
C905 H907 0.960 . S
C905 H908 0.961 . S
H906 C905 0.959 . S
H907 C905 0.960 . S
H908 C905 0.961 . S
O909 Co884 1.967 . S
O909 C917 1.258 . S
O910 Co885 1.941 . S
O910 C917 1.266 . S
H911 C913 0.959 . S
H912 C913 0.961 . S
C913 C903 1.510 . S
C913 H911 0.959 . S
C913 H912 0.961 . S
C913 H914 0.960 . S
H914 C913 0.960 . S
H915 N895 0.862 . S
O916 Co884 1.920 . S
O916 C889 1.289 . S
C917 O909 1.258 . S
C917 O910 1.266 . S
Co918 O921 1.970 . S
Co918 N935 1.989 . S
Co918 O943 1.942 1_554 S
Co918 O950 1.920 . S
Co919 O922 1.966 . S
Co919 N928 2.022 . S
Co919 N936 1.993 . S
Co919 O944 1.941 . S
C920 O921 1.258 . S
C920 O922 1.263 . S
O921 Co918 1.970 . S
O921 C920 1.258 . S
O922 Co919 1.966 . S
O922 C920 1.263 . S
C923 O924 1.235 . S
C923 O950 1.289 . S
O924 C923 1.235 . S
C925 C927 1.400 . S
C925 N928 1.351 . S
C925 C930 1.501 . S
C926 C927 1.387 . S
C926 N929 1.341 . S
C927 C925 1.400 . S
C927 C926 1.387 . S
N928 Co919 2.022 . S
N928 C925 1.351 . S
N928 N929 1.365 . S
N929 C926 1.341 . S
N929 N928 1.365 . S
N929 H949 0.862 . S
C930 C925 1.501 . S
C930 H931 0.961 . S
C930 H932 0.961 . S
C930 H933 0.960 . S
H931 C930 0.961 . S
H932 C930 0.961 . S
H933 C930 0.960 . S
C934 N935 1.342 . S
C934 C938 1.401 . S
C934 C939 1.499 . S
N935 Co918 1.989 . S
N935 C934 1.342 . S
N935 N936 1.388 . S
N936 Co919 1.993 . S
N936 N935 1.388 . S
N936 C937 1.346 . S
C937 N936 1.346 . S
C937 C938 1.396 . S
C937 C947 1.510 . S
C938 C934 1.401 . S
C938 C937 1.396 . S
C939 C934 1.499 . S
C939 H940 0.959 . S
C939 H941 0.960 . S
C939 H942 0.961 . S
H940 C939 0.959 . S
H941 C939 0.960 . S
H942 C939 0.961 . S
O943 Co918 1.942 1_556 S
O943 C951 1.264 . S
O944 Co919 1.941 . S
O944 C951 1.266 1_554 S
H945 C947 0.959 . S
H946 C947 0.961 . S
C947 C937 1.510 . S
C947 H945 0.959 . S
C947 H946 0.961 . S
C947 H948 0.960 . S
H948 C947 0.960 . S
H949 N929 0.862 . S
O950 Co918 1.920 . S
O950 C923 1.289 . S
C951 O943 1.264 . S
C951 O944 1.266 1_556 S
Co952 O955 1.970 . S
Co952 N969 1.989 . S
Co952 O977 1.942 1_554 S
Co952 O984 1.920 . S
Co953 O956 1.966 . S
Co953 N962 2.022 . S
Co953 N970 1.993 . S
Co953 O978 1.941 . S
C954 O955 1.258 . S
C954 O956 1.263 . S
O955 Co952 1.970 . S
O955 C954 1.258 . S
O956 Co953 1.966 . S
O956 C954 1.263 . S
C957 O958 1.235 . S
C957 O984 1.289 . S
O958 C957 1.235 . S
C959 C961 1.400 . S
C959 N962 1.351 . S
C959 C964 1.501 . S
C960 C961 1.387 . S
C960 N963 1.341 . S
C961 C959 1.400 . S
C961 C960 1.387 . S
N962 Co953 2.022 . S
N962 C959 1.351 . S
N962 N963 1.365 . S
N963 C960 1.341 . S
N963 N962 1.365 . S
N963 H983 0.862 . S
C964 C959 1.501 . S
C964 H965 0.961 . S
C964 H966 0.961 . S
C964 H967 0.960 . S
H965 C964 0.961 . S
H966 C964 0.961 . S
H967 C964 0.960 . S
C968 N969 1.342 . S
C968 C972 1.401 . S
C968 C973 1.499 . S
N969 Co952 1.989 . S
N969 C968 1.342 . S
N969 N970 1.388 . S
N970 Co953 1.993 . S
N970 N969 1.388 . S
N970 C971 1.346 . S
C971 N970 1.346 . S
C971 C972 1.396 . S
C971 C981 1.510 . S
C972 C968 1.401 . S
C972 C971 1.396 . S
C973 C968 1.499 . S
C973 H974 0.959 . S
C973 H975 0.960 . S
C973 H976 0.961 . S
H974 C973 0.959 . S
H975 C973 0.960 . S
H976 C973 0.961 . S
O977 Co952 1.942 1_556 S
O977 C985 1.264 . S
O978 Co953 1.941 . S
O978 C985 1.266 1_554 S
H979 C981 0.959 . S
H980 C981 0.961 . S
C981 C971 1.510 . S
C981 H979 0.959 . S
C981 H980 0.961 . S
C981 H982 0.960 . S
H982 C981 0.960 . S
H983 N963 0.862 . S
O984 Co952 1.920 . S
O984 C957 1.289 . S
C985 O977 1.264 . S
C985 O978 1.266 1_556 S
Co986 O989 1.970 . S
Co986 N1003 1.989 . S
Co986 O1011 1.942 1_554 S
Co986 O1018 1.920 . S
Co987 O990 1.966 . S
Co987 N996 2.022 . S
Co987 N1004 1.993 . S
Co987 O1012 1.941 . S
C988 O989 1.258 . S
C988 O990 1.263 . S
O989 Co986 1.970 . S
O989 C988 1.258 . S
O990 Co987 1.966 . S
O990 C988 1.263 . S
C991 O992 1.235 . S
C991 O1018 1.289 . S
O992 C991 1.235 . S
C993 C995 1.400 . S
C993 N996 1.351 . S
C993 C998 1.501 . S
C994 C995 1.387 . S
C994 N997 1.341 . S
C995 C993 1.400 . S
C995 C994 1.387 . S
N996 Co987 2.022 . S
N996 C993 1.351 . S
N996 N997 1.365 . S
N997 C994 1.341 . S
N997 N996 1.365 . S
N997 H1017 0.862 . S
C998 C993 1.501 . S
C998 H999 0.961 . S
C998 H1000 0.961 . S
C998 H1001 0.960 . S
H999 C998 0.961 . S
H1000 C998 0.961 . S
H1001 C998 0.960 . S
C1002 N1003 1.342 . S
C1002 C1006 1.401 . S
C1002 C1007 1.499 . S
N1003 Co986 1.989 . S
N1003 C1002 1.342 . S
N1003 N1004 1.388 . S
N1004 Co987 1.993 . S
N1004 N1003 1.388 . S
N1004 C1005 1.346 . S
C1005 N1004 1.346 . S
C1005 C1006 1.396 . S
C1005 C1015 1.510 . S
C1006 C1002 1.401 . S
C1006 C1005 1.396 . S
C1007 C1002 1.499 . S
C1007 H1008 0.959 . S
C1007 H1009 0.960 . S
C1007 H1010 0.961 . S
H1008 C1007 0.959 . S
H1009 C1007 0.960 . S
H1010 C1007 0.961 . S
O1011 Co986 1.942 1_556 S
O1011 C1019 1.264 . S
O1012 Co987 1.941 . S
O1012 C1019 1.266 1_554 S
H1013 C1015 0.959 . S
H1014 C1015 0.961 . S
C1015 C1005 1.510 . S
C1015 H1013 0.959 . S
C1015 H1014 0.961 . S
C1015 H1016 0.960 . S
H1016 C1015 0.960 . S
H1017 N997 0.862 . S
O1018 Co986 1.920 . S
O1018 C991 1.289 . S
C1019 O1011 1.264 . S
C1019 O1012 1.266 1_556 S
Co1020 O1023 1.970 . S
Co1020 N1037 1.989 . S
Co1020 O1045 1.967 . S
Co1020 O1052 1.920 . S
Co1021 O1024 1.966 . S
Co1021 N1030 2.022 . S
Co1021 N1038 1.993 . S
Co1021 O1046 1.941 . S
C1022 O1023 1.258 . S
C1022 O1024 1.263 . S
O1023 Co1020 1.970 . S
O1023 C1022 1.258 . S
O1024 Co1021 1.966 . S
O1024 C1022 1.263 . S
C1025 O1026 1.235 . S
C1025 O1052 1.289 . S
O1026 C1025 1.235 . S
C1027 C1029 1.400 . S
C1027 N1030 1.351 . S
C1027 C1032 1.501 . S
C1028 C1029 1.387 . S
C1028 N1031 1.341 . S
C1029 C1027 1.400 . S
C1029 C1028 1.387 . S
N1030 Co1021 2.022 . S
N1030 C1027 1.351 . S
N1030 N1031 1.365 . S
N1031 C1028 1.341 . S
N1031 N1030 1.365 . S
N1031 H1051 0.862 . S
C1032 C1027 1.501 . S
C1032 H1033 0.961 . S
C1032 H1034 0.961 . S
C1032 H1035 0.960 . S
H1033 C1032 0.961 . S
H1034 C1032 0.961 . S
H1035 C1032 0.960 . S
C1036 N1037 1.342 . S
C1036 C1040 1.401 . S
C1036 C1041 1.499 . S
N1037 Co1020 1.989 . S
N1037 C1036 1.342 . S
N1037 N1038 1.388 . S
N1038 Co1021 1.993 . S
N1038 N1037 1.388 . S
N1038 C1039 1.346 . S
C1039 N1038 1.346 . S
C1039 C1040 1.396 . S
C1039 C1049 1.510 . S
C1040 C1036 1.401 . S
C1040 C1039 1.396 . S
C1041 C1036 1.499 . S
C1041 H1042 0.959 . S
C1041 H1043 0.960 . S
C1041 H1044 0.961 . S
H1042 C1041 0.959 . S
H1043 C1041 0.960 . S
H1044 C1041 0.961 . S
O1045 Co1020 1.967 . S
O1045 C1053 1.258 . S
O1046 Co1021 1.941 . S
O1046 C1053 1.266 . S
H1047 C1049 0.959 . S
H1048 C1049 0.961 . S
C1049 C1039 1.510 . S
C1049 H1047 0.959 . S
C1049 H1048 0.961 . S
C1049 H1050 0.960 . S
H1050 C1049 0.960 . S
H1051 N1031 0.862 . S
O1052 Co1020 1.920 . S
O1052 C1025 1.289 . S
C1053 O1045 1.258 . S
C1053 O1046 1.266 . S
Co1054 O1057 1.970 . S
Co1054 N1071 1.989 . S
Co1054 O1079 1.967 . S
Co1054 O1086 1.920 . S
Co1055 O1058 1.966 . S
Co1055 N1064 2.022 . S
Co1055 N1072 1.993 . S
Co1055 O1080 1.941 . S
C1056 O1057 1.258 . S
C1056 O1058 1.263 . S
O1057 Co1054 1.970 . S
O1057 C1056 1.258 . S
O1058 Co1055 1.966 . S
O1058 C1056 1.263 . S
C1059 O1060 1.235 . S
C1059 O1086 1.289 . S
O1060 C1059 1.235 . S
C1061 C1063 1.400 . S
C1061 N1064 1.351 . S
C1061 C1066 1.501 . S
C1062 C1063 1.387 . S
C1062 N1065 1.341 . S
C1063 C1061 1.400 . S
C1063 C1062 1.387 . S
N1064 Co1055 2.022 . S
N1064 C1061 1.351 . S
N1064 N1065 1.365 . S
N1065 C1062 1.341 . S
N1065 N1064 1.365 . S
N1065 H1085 0.862 . S
C1066 C1061 1.501 . S
C1066 H1067 0.961 . S
C1066 H1068 0.961 . S
C1066 H1069 0.960 . S
H1067 C1066 0.961 . S
H1068 C1066 0.961 . S
H1069 C1066 0.960 . S
C1070 N1071 1.342 . S
C1070 C1074 1.401 . S
C1070 C1075 1.499 . S
N1071 Co1054 1.989 . S
N1071 C1070 1.342 . S
N1071 N1072 1.388 . S
N1072 Co1055 1.993 . S
N1072 N1071 1.388 . S
N1072 C1073 1.346 . S
C1073 N1072 1.346 . S
C1073 C1074 1.396 . S
C1073 C1083 1.510 . S
C1074 C1070 1.401 . S
C1074 C1073 1.396 . S
C1075 C1070 1.499 . S
C1075 H1076 0.959 . S
C1075 H1077 0.960 . S
C1075 H1078 0.961 . S
H1076 C1075 0.959 . S
H1077 C1075 0.960 . S
H1078 C1075 0.961 . S
O1079 Co1054 1.967 . S
O1079 C1087 1.258 . S
O1080 Co1055 1.941 . S
O1080 C1087 1.266 . S
H1081 C1083 0.959 . S
H1082 C1083 0.961 . S
C1083 C1073 1.510 . S
C1083 H1081 0.959 . S
C1083 H1082 0.961 . S
C1083 H1084 0.960 . S
H1084 C1083 0.960 . S
H1085 N1065 0.862 . S
O1086 Co1054 1.920 . S
O1086 C1059 1.289 . S
C1087 O1079 1.258 . S
C1087 O1080 1.266 . S
Co1088 O1091 1.970 . S
Co1088 N1105 1.989 . S
Co1088 O1113 1.967 . S
Co1088 O1120 1.920 . S
Co1089 O1092 1.966 . S
Co1089 N1098 2.022 . S
Co1089 N1106 1.993 . S
Co1089 O1114 1.941 . S
C1090 O1091 1.258 . S
C1090 O1092 1.263 . S
O1091 Co1088 1.970 . S
O1091 C1090 1.258 . S
O1092 Co1089 1.966 . S
O1092 C1090 1.263 . S
C1093 O1094 1.235 . S
C1093 O1120 1.289 . S
O1094 C1093 1.235 . S
C1095 C1097 1.400 . S
C1095 N1098 1.351 . S
C1095 C1100 1.501 . S
C1096 C1097 1.387 . S
C1096 N1099 1.341 . S
C1097 C1095 1.400 . S
C1097 C1096 1.387 . S
N1098 Co1089 2.022 . S
N1098 C1095 1.351 . S
N1098 N1099 1.365 . S
N1099 C1096 1.341 . S
N1099 N1098 1.365 . S
N1099 H1119 0.862 . S
C1100 C1095 1.501 . S
C1100 H1101 0.961 . S
C1100 H1102 0.961 . S
C1100 H1103 0.960 . S
H1101 C1100 0.961 . S
H1102 C1100 0.961 . S
H1103 C1100 0.960 . S
C1104 N1105 1.342 . S
C1104 C1108 1.401 . S
C1104 C1109 1.499 . S
N1105 Co1088 1.989 . S
N1105 C1104 1.342 . S
N1105 N1106 1.388 . S
N1106 Co1089 1.993 . S
N1106 N1105 1.388 . S
N1106 C1107 1.346 . S
C1107 N1106 1.346 . S
C1107 C1108 1.396 . S
C1107 C1117 1.510 . S
C1108 C1104 1.401 . S
C1108 C1107 1.396 . S
C1109 C1104 1.499 . S
C1109 H1110 0.959 . S
C1109 H1111 0.960 . S
C1109 H1112 0.961 . S
H1110 C1109 0.959 . S
H1111 C1109 0.960 . S
H1112 C1109 0.961 . S
O1113 Co1088 1.967 . S
O1113 C1121 1.258 . S
O1114 Co1089 1.941 . S
O1114 C1121 1.266 . S
H1115 C1117 0.959 . S
H1116 C1117 0.961 . S
C1117 C1107 1.510 . S
C1117 H1115 0.959 . S
C1117 H1116 0.961 . S
C1117 H1118 0.960 . S
H1118 C1117 0.960 . S
H1119 N1099 0.862 . S
O1120 Co1088 1.920 . S
O1120 C1093 1.289 . S
C1121 O1113 1.258 . S
C1121 O1114 1.266 . S
Co1122 O1125 1.970 . S
Co1122 N1139 1.989 . S
Co1122 O1147 1.967 . S
Co1122 O1154 1.920 . S
Co1123 O1126 1.966 . S
Co1123 N1132 2.022 . S
Co1123 N1140 1.993 . S
Co1123 O1148 1.941 . S
C1124 O1125 1.258 . S
C1124 O1126 1.263 . S
O1125 Co1122 1.970 . S
O1125 C1124 1.258 . S
O1126 Co1123 1.966 . S
O1126 C1124 1.263 . S
C1127 O1128 1.235 . S
C1127 O1154 1.289 . S
O1128 C1127 1.235 . S
C1129 C1131 1.400 . S
C1129 N1132 1.351 . S
C1129 C1134 1.501 . S
C1130 C1131 1.387 . S
C1130 N1133 1.341 . S
C1131 C1129 1.400 . S
C1131 C1130 1.387 . S
N1132 Co1123 2.022 . S
N1132 C1129 1.351 . S
N1132 N1133 1.365 . S
N1133 C1130 1.341 . S
N1133 N1132 1.365 . S
N1133 H1153 0.862 . S
C1134 C1129 1.501 . S
C1134 H1135 0.961 . S
C1134 H1136 0.961 . S
C1134 H1137 0.960 . S
H1135 C1134 0.961 . S
H1136 C1134 0.961 . S
H1137 C1134 0.960 . S
C1138 N1139 1.342 . S
C1138 C1142 1.401 . S
C1138 C1143 1.499 . S
N1139 Co1122 1.989 . S
N1139 C1138 1.342 . S
N1139 N1140 1.388 . S
N1140 Co1123 1.993 . S
N1140 N1139 1.388 . S
N1140 C1141 1.346 . S
C1141 N1140 1.346 . S
C1141 C1142 1.396 . S
C1141 C1151 1.510 . S
C1142 C1138 1.401 . S
C1142 C1141 1.396 . S
C1143 C1138 1.499 . S
C1143 H1144 0.959 . S
C1143 H1145 0.960 . S
C1143 H1146 0.961 . S
H1144 C1143 0.959 . S
H1145 C1143 0.960 . S
H1146 C1143 0.961 . S
O1147 Co1122 1.967 . S
O1147 C1155 1.258 . S
O1148 Co1123 1.941 . S
O1148 C1155 1.266 . S
H1149 C1151 0.959 . S
H1150 C1151 0.961 . S
C1151 C1141 1.510 . S
C1151 H1149 0.959 . S
C1151 H1150 0.961 . S
C1151 H1152 0.960 . S
H1152 C1151 0.960 . S
H1153 N1133 0.862 . S
O1154 Co1122 1.920 . S
O1154 C1127 1.289 . S
C1155 O1147 1.258 . S
C1155 O1148 1.266 . S
Co1156 O1159 1.970 . S
Co1156 N1173 1.989 . S
Co1156 O1181 1.967 . S
Co1156 O1188 1.920 . S
Co1157 O1160 1.966 . S
Co1157 N1166 2.022 . S
Co1157 N1174 1.993 . S
Co1157 O1182 1.941 . S
C1158 O1159 1.258 . S
C1158 O1160 1.263 . S
O1159 Co1156 1.970 . S
O1159 C1158 1.258 . S
O1160 Co1157 1.966 . S
O1160 C1158 1.263 . S
C1161 O1162 1.235 . S
C1161 O1188 1.289 . S
O1162 C1161 1.235 . S
C1163 C1165 1.400 . S
C1163 N1166 1.351 . S
C1163 C1168 1.501 . S
C1164 C1165 1.387 . S
C1164 N1167 1.341 . S
C1165 C1163 1.400 . S
C1165 C1164 1.387 . S
N1166 Co1157 2.022 . S
N1166 C1163 1.351 . S
N1166 N1167 1.365 . S
N1167 C1164 1.341 . S
N1167 N1166 1.365 . S
N1167 H1187 0.862 . S
C1168 C1163 1.501 . S
C1168 H1169 0.961 . S
C1168 H1170 0.961 . S
C1168 H1171 0.960 . S
H1169 C1168 0.961 . S
H1170 C1168 0.961 . S
H1171 C1168 0.960 . S
C1172 N1173 1.342 . S
C1172 C1176 1.401 . S
C1172 C1177 1.499 . S
N1173 Co1156 1.989 . S
N1173 C1172 1.342 . S
N1173 N1174 1.388 . S
N1174 Co1157 1.993 . S
N1174 N1173 1.388 . S
N1174 C1175 1.346 . S
C1175 N1174 1.346 . S
C1175 C1176 1.396 . S
C1175 C1185 1.510 . S
C1176 C1172 1.401 . S
C1176 C1175 1.396 . S
C1177 C1172 1.499 . S
C1177 H1178 0.959 . S
C1177 H1179 0.960 . S
C1177 H1180 0.961 . S
H1178 C1177 0.959 . S
H1179 C1177 0.960 . S
H1180 C1177 0.961 . S
O1181 Co1156 1.967 . S
O1181 C1189 1.258 . S
O1182 Co1157 1.941 . S
O1182 C1189 1.266 . S
H1183 C1185 0.959 . S
H1184 C1185 0.961 . S
C1185 C1175 1.510 . S
C1185 H1183 0.959 . S
C1185 H1184 0.961 . S
C1185 H1186 0.960 . S
H1186 C1185 0.960 . S
H1187 N1167 0.862 . S
O1188 Co1156 1.920 . S
O1188 C1161 1.289 . S
C1189 O1181 1.258 . S
C1189 O1182 1.266 . S
Co1190 O1193 1.970 . S
Co1190 N1207 1.989 . S
Co1190 O1215 1.967 . S
Co1190 O1222 1.920 . S
Co1191 O1194 1.966 . S
Co1191 N1200 2.022 . S
Co1191 N1208 1.993 . S
Co1191 O1216 1.941 . S
C1192 O1193 1.258 . S
C1192 O1194 1.263 . S
O1193 Co1190 1.970 . S
O1193 C1192 1.258 . S
O1194 Co1191 1.966 . S
O1194 C1192 1.263 . S
C1195 O1196 1.235 . S
C1195 O1222 1.289 . S
O1196 C1195 1.235 . S
C1197 C1199 1.400 . S
C1197 N1200 1.351 . S
C1197 C1202 1.501 . S
C1198 C1199 1.387 . S
C1198 N1201 1.341 . S
C1199 C1197 1.400 . S
C1199 C1198 1.387 . S
N1200 Co1191 2.022 . S
N1200 C1197 1.351 . S
N1200 N1201 1.365 . S
N1201 C1198 1.341 . S
N1201 N1200 1.365 . S
N1201 H1221 0.862 . S
C1202 C1197 1.501 . S
C1202 H1203 0.961 . S
C1202 H1204 0.961 . S
C1202 H1205 0.960 . S
H1203 C1202 0.961 . S
H1204 C1202 0.961 . S
H1205 C1202 0.960 . S
C1206 N1207 1.342 . S
C1206 C1210 1.401 . S
C1206 C1211 1.499 . S
N1207 Co1190 1.989 . S
N1207 C1206 1.342 . S
N1207 N1208 1.388 . S
N1208 Co1191 1.993 . S
N1208 N1207 1.388 . S
N1208 C1209 1.346 . S
C1209 N1208 1.346 . S
C1209 C1210 1.396 . S
C1209 C1219 1.510 . S
C1210 C1206 1.401 . S
C1210 C1209 1.396 . S
C1211 C1206 1.499 . S
C1211 H1212 0.959 . S
C1211 H1213 0.960 . S
C1211 H1214 0.961 . S
H1212 C1211 0.959 . S
H1213 C1211 0.960 . S
H1214 C1211 0.961 . S
O1215 Co1190 1.967 . S
O1215 C1223 1.258 . S
O1216 Co1191 1.941 . S
O1216 C1223 1.266 . S
H1217 C1219 0.959 . S
H1218 C1219 0.961 . S
C1219 C1209 1.510 . S
C1219 H1217 0.959 . S
C1219 H1218 0.961 . S
C1219 H1220 0.960 . S
H1220 C1219 0.960 . S
H1221 N1201 0.862 . S
O1222 Co1190 1.920 . S
O1222 C1195 1.289 . S
C1223 O1215 1.258 . S
C1223 O1216 1.266 . S
C1224 C1225 1.369 . S
C1224 C1226 1.419 . S
C1224 H1228 0.930 . S
C1225 C1224 1.369 . S
C1225 C1234 1.429 . S
C1226 C1224 1.419 . S
C1226 C1227 1.363 . S
C1226 H1229 0.929 . S
C1227 C1226 1.363 . S
C1227 C1233 1.428 . S
H1228 C1224 0.930 . S
H1229 C1226 0.929 . S
S1230 N1231 1.613 . S
S1230 N1232 1.610 . S
N1231 S1230 1.613 . S
N1231 C1234 1.350 . S
N1232 S1230 1.610 . S
N1232 C1233 1.351 . S
C1233 C1227 1.428 . S
C1233 N1232 1.351 . S
C1233 C1234 1.434 . S
C1234 C1225 1.429 . S
C1234 N1231 1.350 . S
C1234 C1233 1.434 . S
C1235 C1236 1.369 . S
C1235 C1237 1.419 . S
C1235 H1239 0.930 . S
C1236 C1235 1.369 . S
C1236 C1245 1.429 1_545 S
C1237 C1235 1.419 . S
C1237 C1238 1.363 1_545 S
C1237 H1240 0.929 . S
C1238 C1237 1.363 1_565 S
C1238 C1244 1.428 . S
H1239 C1235 0.930 . S
H1240 C1237 0.929 . S
S1241 N1242 1.613 . S
S1241 N1243 1.610 . S
N1242 S1241 1.613 . S
N1242 C1245 1.350 . S
N1243 S1241 1.610 . S
N1243 C1244 1.351 . S
C1244 C1238 1.428 . S
C1244 N1243 1.351 . S
C1244 C1245 1.434 . S
C1245 C1236 1.429 1_565 S
C1245 N1242 1.350 . S
C1245 C1244 1.434 . S
C1246 C1247 1.369 1_655 S
C1246 C1248 1.419 . S
C1246 H1250 0.930 . S
C1247 C1246 1.369 1_455 S
C1247 C1256 1.429 . S
C1248 C1246 1.419 . S
C1248 C1249 1.363 . S
C1248 H1251 0.929 . S
C1249 C1248 1.363 . S
C1249 C1255 1.428 1_655 S
H1250 C1246 0.930 . S
H1251 C1248 0.929 . S
S1252 N1253 1.613 . S
S1252 N1254 1.610 . S
N1253 S1252 1.613 . S
N1253 C1256 1.350 . S
N1254 S1252 1.610 . S
N1254 C1255 1.351 . S
C1255 C1249 1.428 1_455 S
C1255 N1254 1.351 . S
C1255 C1256 1.434 . S
C1256 C1247 1.429 . S
C1256 N1253 1.350 . S
C1256 C1255 1.434 . S
C1257 C1258 1.369 . S
C1257 C1259 1.419 . S
C1257 H1261 0.930 . S
C1258 C1257 1.369 . S
C1258 C1267 1.429 . S
C1259 C1257 1.419 . S
C1259 C1260 1.363 . S
C1259 H1262 0.929 . S
C1260 C1259 1.363 . S
C1260 C1266 1.428 . S
H1261 C1257 0.930 . S
H1262 C1259 0.929 . S
S1263 N1264 1.613 . S
S1263 N1265 1.610 . S
N1264 S1263 1.613 . S
N1264 C1267 1.350 . S
N1265 S1263 1.610 . S
N1265 C1266 1.351 . S
C1266 C1260 1.428 . S
C1266 N1265 1.351 . S
C1266 C1267 1.434 . S
C1267 C1258 1.429 . S
C1267 N1264 1.350 . S
C1267 C1266 1.434 . S
C1268 C1269 1.369 . S
C1268 C1270 1.419 1_565 S
C1268 H1272 0.930 . S
C1269 C1268 1.369 . S
C1269 C1278 1.429 . S
C1270 C1268 1.419 1_545 S
C1270 C1271 1.363 . S
C1270 H1273 0.929 . S
C1271 C1270 1.363 . S
C1271 C1277 1.428 . S
H1272 C1268 0.930 . S
H1273 C1270 0.929 . S
S1274 N1275 1.613 1_545 S
S1274 N1276 1.610 . S
N1275 S1274 1.613 1_565 S
N1275 C1278 1.350 . S
N1276 S1274 1.610 . S
N1276 C1277 1.351 . S
C1277 C1271 1.428 . S
C1277 N1276 1.351 . S
C1277 C1278 1.434 1_545 S
C1278 C1269 1.429 . S
C1278 N1275 1.350 . S
C1278 C1277 1.434 1_565 S
C1279 C1280 1.369 . S
C1279 C1281 1.419 . S
C1279 H1283 0.930 . S
C1280 C1279 1.369 . S
C1280 C1289 1.429 1_655 S
C1281 C1279 1.419 . S
C1281 C1282 1.363 1_655 S
C1281 H1284 0.929 . S
C1282 C1281 1.363 1_455 S
C1282 C1288 1.428 . S
H1283 C1279 0.930 . S
H1284 C1281 0.929 . S
S1285 N1286 1.613 . S
S1285 N1287 1.610 . S
N1286 S1285 1.613 . S
N1286 C1289 1.350 . S
N1287 S1285 1.610 . S
N1287 C1288 1.351 . S
C1288 C1282 1.428 . S
C1288 N1287 1.351 . S
C1288 C1289 1.434 . S
C1289 C1280 1.429 1_455 S
C1289 N1286 1.350 . S
C1289 C1288 1.434 . S
C1290 C1291 1.369 . S
C1290 C1292 1.419 . S
C1290 H1294 0.930 . S
C1291 C1290 1.369 . S
C1291 C1300 1.429 . S
C1292 C1290 1.419 . S
C1292 C1293 1.363 . S
C1292 H1295 0.929 . S
C1293 C1292 1.363 . S
C1293 C1299 1.428 . S
H1294 C1290 0.930 . S
H1295 C1292 0.929 . S
S1296 N1297 1.613 . S
S1296 N1298 1.610 . S
N1297 S1296 1.613 . S
N1297 C1300 1.350 . S
N1298 S1296 1.610 . S
N1298 C1299 1.351 . S
C1299 C1293 1.428 . S
C1299 N1298 1.351 . S
C1299 C1300 1.434 . S
C1300 C1291 1.429 . S
C1300 N1297 1.350 . S
C1300 C1299 1.434 . S
C1301 C1302 1.369 . S
C1301 C1303 1.419 . S
C1301 H1305 0.930 . S
C1302 C1301 1.369 . S
C1302 C1311 1.429 . S
C1303 C1301 1.419 . S
C1303 C1304 1.363 . S
C1303 H1306 0.929 . S
C1304 C1303 1.363 . S
C1304 C1310 1.428 . S
H1305 C1301 0.930 . S
H1306 C1303 0.929 . S
S1307 N1308 1.613 . S
S1307 N1309 1.610 . S
N1308 S1307 1.613 . S
N1308 C1311 1.350 . S
N1309 S1307 1.610 . S
N1309 C1310 1.351 . S
C1310 C1304 1.428 . S
C1310 N1309 1.351 . S
C1310 C1311 1.434 . S
C1311 C1302 1.429 . S
C1311 N1308 1.350 . S
C1311 C1310 1.434 . S
C1312 C1313 1.369 . S
C1312 C1314 1.419 . S
C1312 H1316 0.930 . S
C1313 C1312 1.369 . S
C1313 C1322 1.429 . S
C1314 C1312 1.419 . S
C1314 C1315 1.363 . S
C1314 H1317 0.929 . S
C1315 C1314 1.363 . S
C1315 C1321 1.428 . S
H1316 C1312 0.930 . S
H1317 C1314 0.929 . S
S1318 N1319 1.613 . S
S1318 N1320 1.610 . S
N1319 S1318 1.613 . S
N1319 C1322 1.350 . S
N1320 S1318 1.610 . S
N1320 C1321 1.351 . S
C1321 C1315 1.428 . S
C1321 N1320 1.351 . S
C1321 C1322 1.434 . S
C1322 C1313 1.429 . S
C1322 N1319 1.350 . S
C1322 C1321 1.434 . S
C1323 C1324 1.369 . S
C1323 C1325 1.419 . S
C1323 H1327 0.930 . S
C1324 C1323 1.369 . S
C1324 C1333 1.429 . S
C1325 C1323 1.419 . S
C1325 C1326 1.363 . S
C1325 H1328 0.929 . S
C1326 C1325 1.363 . S
C1326 C1332 1.428 . S
H1327 C1323 0.930 . S
H1328 C1325 0.929 . S
S1329 N1330 1.613 . S
S1329 N1331 1.610 . S
N1330 S1329 1.613 . S
N1330 C1333 1.350 . S
N1331 S1329 1.610 . S
N1331 C1332 1.351 . S
C1332 C1326 1.428 . S
C1332 N1331 1.351 . S
C1332 C1333 1.434 . S
C1333 C1324 1.429 . S
C1333 N1330 1.350 . S
C1333 C1332 1.434 . S
C1334 C1335 1.369 . S
C1334 C1336 1.419 . S
C1334 H1338 0.930 . S
C1335 C1334 1.369 . S
C1335 C1344 1.429 . S
C1336 C1334 1.419 . S
C1336 C1337 1.363 . S
C1336 H1339 0.929 . S
C1337 C1336 1.363 . S
C1337 C1343 1.428 . S
H1338 C1334 0.930 . S
H1339 C1336 0.929 . S
S1340 N1341 1.613 . S
S1340 N1342 1.610 . S
N1341 S1340 1.613 . S
N1341 C1344 1.350 . S
N1342 S1340 1.610 . S
N1342 C1343 1.351 . S
C1343 C1337 1.428 . S
C1343 N1342 1.351 . S
C1343 C1344 1.434 . S
C1344 C1335 1.429 . S
C1344 N1341 1.350 . S
C1344 C1343 1.434 . S
C1345 C1346 1.369 . S
C1345 C1347 1.419 . S
C1345 H1349 0.930 . S
C1346 C1345 1.369 . S
C1346 C1355 1.429 . S
C1347 C1345 1.419 . S
C1347 C1348 1.363 . S
C1347 H1350 0.929 . S
C1348 C1347 1.363 . S
C1348 C1354 1.428 . S
H1349 C1345 0.930 . S
H1350 C1347 0.929 . S
S1351 N1352 1.613 . S
S1351 N1353 1.610 . S
N1352 S1351 1.613 . S
N1352 C1355 1.350 . S
N1353 S1351 1.610 . S
N1353 C1354 1.351 . S
C1354 C1348 1.428 . S
C1354 N1353 1.351 . S
C1354 C1355 1.434 . S
C1355 C1346 1.429 . S
C1355 N1352 1.350 . S
C1355 C1354 1.434 . S
C1356 C1357 1.369 . S
C1356 C1358 1.419 . S
C1356 H1360 0.930 . S
C1357 C1356 1.369 . S
C1357 C1366 1.429 . S
C1358 C1356 1.419 . S
C1358 C1359 1.363 . S
C1358 H1361 0.929 . S
C1359 C1358 1.363 . S
C1359 C1365 1.428 . S
H1360 C1356 0.930 . S
H1361 C1358 0.929 . S
S1362 N1363 1.613 . S
S1362 N1364 1.610 . S
N1363 S1362 1.613 . S
N1363 C1366 1.350 . S
N1364 S1362 1.610 . S
N1364 C1365 1.351 . S
C1365 C1359 1.428 . S
C1365 N1364 1.351 . S
C1365 C1366 1.434 . S
C1366 C1357 1.429 . S
C1366 N1363 1.350 . S
C1366 C1365 1.434 . S
C1367 C1368 1.369 . S
C1367 C1369 1.419 . S
C1367 H1371 0.930 . S
C1368 C1367 1.369 . S
C1368 C1377 1.429 . S
C1369 C1367 1.419 . S
C1369 C1370 1.363 . S
C1369 H1372 0.929 . S
C1370 C1369 1.363 . S
C1370 C1376 1.428 . S
H1371 C1367 0.930 . S
H1372 C1369 0.929 . S
S1373 N1374 1.613 . S
S1373 N1375 1.610 . S
N1374 S1373 1.613 . S
N1374 C1377 1.350 . S
N1375 S1373 1.610 . S
N1375 C1376 1.351 . S
C1376 C1370 1.428 . S
C1376 N1375 1.351 . S
C1376 C1377 1.434 . S
C1377 C1368 1.429 . S
C1377 N1374 1.350 . S
C1377 C1376 1.434 . S
C1378 C1379 1.369 . S
C1378 C1380 1.419 . S
C1378 H1382 0.930 . S
C1379 C1378 1.369 . S
C1379 C1388 1.429 . S
C1380 C1378 1.419 . S
C1380 C1381 1.363 . S
C1380 H1383 0.929 . S
C1381 C1380 1.363 . S
C1381 C1387 1.428 . S
H1382 C1378 0.930 . S
H1383 C1380 0.929 . S
S1384 N1385 1.613 . S
S1384 N1386 1.610 . S
N1385 S1384 1.613 . S
N1385 C1388 1.350 . S
N1386 S1384 1.610 . S
N1386 C1387 1.351 . S
C1387 C1381 1.428 . S
C1387 N1386 1.351 . S
C1387 C1388 1.434 . S
C1388 C1379 1.429 . S
C1388 N1385 1.350 . S
C1388 C1387 1.434 . S
C1389 C1390 1.369 . S
C1389 C1391 1.419 . S
C1389 H1393 0.930 . S
C1390 C1389 1.369 . S
C1390 C1399 1.429 . S
C1391 C1389 1.419 . S
C1391 C1392 1.363 . S
C1391 H1394 0.929 . S
C1392 C1391 1.363 . S
C1392 C1398 1.428 . S
H1393 C1389 0.930 . S
H1394 C1391 0.929 . S
S1395 N1396 1.613 . S
S1395 N1397 1.610 . S
N1396 S1395 1.613 . S
N1396 C1399 1.350 . S
N1397 S1395 1.610 . S
N1397 C1398 1.351 . S
C1398 C1392 1.428 . S
C1398 N1397 1.351 . S
C1398 C1399 1.434 . S
C1399 C1390 1.429 . S
C1399 N1396 1.350 . S
C1399 C1398 1.434 . S
C1400 C1401 1.369 . S
C1400 C1402 1.419 . S
C1400 H1404 0.930 . S
C1401 C1400 1.369 . S
C1401 C1410 1.429 . S
C1402 C1400 1.419 . S
C1402 C1403 1.363 . S
C1402 H1405 0.929 . S
C1403 C1402 1.363 . S
C1403 C1409 1.428 . S
H1404 C1400 0.930 . S
H1405 C1402 0.929 . S
S1406 N1407 1.613 . S
S1406 N1408 1.610 . S
N1407 S1406 1.613 . S
N1407 C1410 1.350 . S
N1408 S1406 1.610 . S
N1408 C1409 1.351 . S
C1409 C1403 1.428 . S
C1409 N1408 1.351 . S
C1409 C1410 1.434 . S
C1410 C1401 1.429 . S
C1410 N1407 1.350 . S
C1410 C1409 1.434 . S
C1411 C1412 1.369 . S
C1411 C1413 1.419 . S
C1411 H1415 0.930 . S
C1412 C1411 1.369 . S
C1412 C1421 1.429 . S
C1413 C1411 1.419 . S
C1413 C1414 1.363 . S
C1413 H1416 0.929 . S
C1414 C1413 1.363 . S
C1414 C1420 1.428 . S
H1415 C1411 0.930 . S
H1416 C1413 0.929 . S
S1417 N1418 1.613 . S
S1417 N1419 1.610 . S
N1418 S1417 1.613 . S
N1418 C1421 1.350 . S
N1419 S1417 1.610 . S
N1419 C1420 1.351 . S
C1420 C1414 1.428 . S
C1420 N1419 1.351 . S
C1420 C1421 1.434 . S
C1421 C1412 1.429 . S
C1421 N1418 1.350 . S
C1421 C1420 1.434 . S
C1422 C1423 1.369 . S
C1422 C1424 1.419 . S
C1422 H1426 0.930 . S
C1423 C1422 1.369 . S
C1423 C1432 1.429 . S
C1424 C1422 1.419 . S
C1424 C1425 1.363 . S
C1424 H1427 0.929 . S
C1425 C1424 1.363 . S
C1425 C1431 1.428 . S
H1426 C1422 0.930 . S
H1427 C1424 0.929 . S
S1428 N1429 1.613 . S
S1428 N1430 1.610 . S
N1429 S1428 1.613 . S
N1429 C1432 1.350 . S
N1430 S1428 1.610 . S
N1430 C1431 1.351 . S
C1431 C1425 1.428 . S
C1431 N1430 1.351 . S
C1431 C1432 1.434 . S
C1432 C1423 1.429 . S
C1432 N1429 1.350 . S
C1432 C1431 1.434 . S
C1433 C1434 1.369 . S
C1433 C1435 1.419 . S
C1433 H1437 0.930 . S
C1434 C1433 1.369 . S
C1434 C1443 1.429 . S
C1435 C1433 1.419 . S
C1435 C1436 1.363 . S
C1435 H1438 0.929 1_565 S
C1436 C1435 1.363 . S
C1436 C1442 1.428 . S
H1437 C1433 0.930 . S
H1438 C1435 0.929 1_545 S
S1439 N1440 1.613 . S
S1439 N1441 1.610 . S
N1440 S1439 1.613 . S
N1440 C1443 1.350 . S
N1441 S1439 1.610 . S
N1441 C1442 1.351 . S
C1442 C1436 1.428 . S
C1442 N1441 1.351 . S
C1442 C1443 1.434 . S
C1443 C1434 1.429 . S
C1443 N1440 1.350 . S
C1443 C1442 1.434 . S
C1444 C1445 1.369 . S
C1444 C1446 1.419 . S
C1444 H1448 0.930 . S
C1445 C1444 1.369 . S
C1445 C1454 1.429 . S
C1446 C1444 1.419 . S
C1446 C1447 1.363 . S
C1446 H1449 0.929 . S
C1447 C1446 1.363 . S
C1447 C1453 1.428 . S
H1448 C1444 0.930 . S
H1449 C1446 0.929 . S
S1450 N1451 1.613 . S
S1450 N1452 1.615 . S
N1451 S1450 1.613 . S
N1451 C1454 1.350 1_655 S
N1452 S1450 1.615 . S
N1452 C1453 1.350 1_655 S
C1453 C1447 1.428 . S
C1453 N1452 1.350 1_455 S
C1453 C1454 1.434 . S
C1454 C1445 1.429 . S
C1454 N1451 1.350 1_455 S
C1454 C1453 1.434 . S
C1455 C1456 1.369 . S
C1455 C1457 1.419 . S
C1455 H1459 0.930 . S
C1456 C1455 1.369 . S
C1456 C1465 1.429 . S
C1457 C1455 1.419 . S
C1457 C1458 1.363 . S
C1457 H1460 0.929 . S
C1458 C1457 1.363 . S
C1458 C1464 1.428 . S
H1459 C1455 0.930 . S
H1460 C1457 0.929 . S
S1461 N1462 1.613 . S
S1461 N1463 1.610 . S
N1462 S1461 1.613 . S
N1462 C1465 1.350 . S
N1463 S1461 1.610 . S
N1463 C1464 1.351 . S
C1464 C1458 1.428 . S
C1464 N1463 1.351 . S
C1464 C1465 1.434 . S
C1465 C1456 1.429 . S
C1465 N1462 1.350 . S
C1465 C1464 1.434 . S
C1466 C1467 1.369 . S
C1466 C1468 1.419 . S
C1466 H1470 0.930 1_545 S
C1467 C1466 1.369 . S
C1467 C1476 1.429 . S
C1468 C1466 1.419 . S
C1468 C1469 1.363 . S
C1468 H1471 0.929 . S
C1469 C1468 1.363 . S
C1469 C1475 1.428 . S
H1470 C1466 0.930 1_565 S
H1471 C1468 0.929 . S
S1472 N1473 1.613 . S
S1472 N1474 1.610 . S
N1473 S1472 1.613 . S
N1473 C1476 1.350 . S
N1474 S1472 1.610 . S
N1474 C1475 1.351 . S
C1475 C1469 1.428 . S
C1475 N1474 1.351 . S
C1475 C1476 1.434 . S
C1476 C1467 1.429 . S
C1476 N1473 1.350 . S
C1476 C1475 1.434 . S
C1477 C1478 1.369 . S
C1477 C1479 1.419 . S
C1477 H1481 0.930 . S
C1478 C1477 1.369 . S
C1478 C1487 1.429 . S
C1479 C1477 1.419 . S
C1479 C1480 1.363 . S
C1479 H1482 0.929 . S
C1480 C1479 1.363 . S
C1480 C1486 1.428 . S
H1481 C1477 0.930 . S
H1482 C1479 0.929 . S
S1483 N1484 1.613 1_455 S
S1483 N1485 1.610 . S
N1484 S1483 1.613 1_655 S
N1484 C1487 1.350 . S
N1485 S1483 1.610 . S
N1485 C1486 1.351 1_455 S
C1486 C1480 1.428 . S
C1486 N1485 1.351 1_655 S
C1486 C1487 1.434 . S
C1487 C1478 1.429 . S
C1487 N1484 1.350 . S
C1487 C1486 1.434 . S
C1488 C1489 1.369 . S
C1488 C1490 1.419 . S
C1488 H1492 0.930 . S
C1489 C1488 1.369 . S
C1489 C1498 1.429 . S
C1490 C1488 1.419 . S
C1490 C1491 1.363 . S
C1490 H1493 0.929 . S
C1491 C1490 1.363 . S
C1491 C1497 1.428 . S
H1492 C1488 0.930 . S
H1493 C1490 0.929 . S
S1494 N1495 1.613 . S
S1494 N1496 1.610 . S
N1495 S1494 1.613 . S
N1495 C1498 1.350 . S
N1496 S1494 1.610 . S
N1496 C1497 1.351 . S
C1497 C1491 1.428 . S
C1497 N1496 1.351 . S
C1497 C1498 1.434 . S
C1498 C1489 1.429 . S
C1498 N1495 1.350 . S
C1498 C1497 1.434 . S
C1499 C1500 1.369 . S
C1499 C1501 1.419 . S
C1499 H1503 0.930 . S
C1500 C1499 1.369 . S
C1500 C1509 1.429 . S
C1501 C1499 1.419 . S
C1501 C1502 1.363 . S
C1501 H1504 0.929 . S
C1502 C1501 1.363 . S
C1502 C1508 1.428 . S
H1503 C1499 0.930 . S
H1504 C1501 0.929 . S
S1505 N1506 1.613 1_565 S
S1505 N1507 1.610 . S
N1506 S1505 1.613 1_545 S
N1506 C1509 1.350 . S
N1507 S1505 1.610 . S
N1507 C1508 1.351 1_565 S
C1508 C1502 1.428 . S
C1508 N1507 1.351 1_545 S
C1508 C1509 1.434 . S
C1509 C1500 1.429 . S
C1509 N1506 1.350 . S
C1509 C1508 1.434 . S
C1510 C1511 1.369 . S
C1510 C1512 1.419 . S
C1510 H1514 0.930 . S
C1511 C1510 1.369 . S
C1511 C1520 1.429 . S
C1512 C1510 1.419 . S
C1512 C1513 1.363 . S
C1512 H1515 0.929 . S
C1513 C1512 1.363 . S
C1513 C1519 1.428 . S
H1514 C1510 0.930 . S
H1515 C1512 0.929 . S
S1516 N1517 1.613 1_455 S
S1516 N1518 1.610 . S
N1517 S1516 1.613 1_655 S
N1517 C1520 1.350 . S
N1518 S1516 1.610 . S
N1518 C1519 1.351 1_455 S
C1519 C1513 1.428 . S
C1519 N1518 1.351 1_655 S
C1519 C1520 1.434 . S
C1520 C1511 1.429 . S
C1520 N1517 1.350 . S
C1520 C1519 1.434 . S
C1521 C1522 1.369 . S
C1521 C1523 1.419 . S
C1521 H1525 0.930 . S
C1522 C1521 1.369 . S
C1522 C1531 1.429 . S
C1523 C1521 1.419 . S
C1523 C1524 1.363 . S
C1523 H1526 0.929 . S
C1524 C1523 1.363 . S
C1524 C1530 1.428 . S
H1525 C1521 0.930 . S
H1526 C1523 0.929 . S
S1527 N1528 1.613 . S
S1527 N1529 1.610 . S
N1528 S1527 1.613 . S
N1528 C1531 1.350 . S
N1529 S1527 1.610 . S
N1529 C1530 1.351 . S
C1530 C1524 1.428 . S
C1530 N1529 1.351 . S
C1530 C1531 1.434 . S
C1531 C1522 1.429 . S
C1531 N1528 1.350 . S
C1531 C1530 1.434 . S
C1532 C1533 1.369 . S
C1532 C1534 1.419 . S
C1532 H1536 0.930 . S
C1533 C1532 1.369 . S
C1533 C1542 1.429 . S
C1534 C1532 1.419 . S
C1534 C1535 1.363 . S
C1534 H1537 0.929 . S
C1535 C1534 1.363 . S
C1535 C1541 1.428 . S
H1536 C1532 0.930 . S
H1537 C1534 0.929 . S
S1538 N1539 1.615 1_545 S
S1538 N1540 1.610 . S
N1539 S1538 1.615 1_565 S
N1539 C1542 1.350 . S
N1540 S1538 1.610 . S
N1540 C1541 1.351 1_545 S
C1541 C1535 1.428 . S
C1541 N1540 1.351 1_565 S
C1541 C1542 1.434 . S
C1542 C1533 1.429 . S
C1542 N1539 1.350 . S
C1542 C1541 1.434 . S
C1543 C1544 1.369 . S
C1543 C1545 1.419 . S
C1543 H1547 0.930 . S
C1544 C1543 1.369 . S
C1544 C1553 1.429 . S
C1545 C1543 1.419 . S
C1545 C1546 1.363 . S
C1545 H1548 0.929 . S
C1546 C1545 1.363 . S
C1546 C1552 1.428 . S
H1547 C1543 0.930 . S
H1548 C1545 0.929 . S
S1549 N1550 1.613 . S
S1549 N1551 1.610 1_655 S
N1550 S1549 1.613 . S
N1550 C1553 1.350 1_655 S
N1551 S1549 1.610 1_455 S
N1551 C1552 1.351 . S
C1552 C1546 1.428 . S
C1552 N1551 1.351 . S
C1552 C1553 1.434 . S
C1553 C1544 1.429 . S
C1553 N1550 1.350 1_455 S
C1553 C1552 1.434 . S
C1554 C1555 1.369 . S
C1554 C1556 1.419 1_455 S
C1554 H1558 0.930 . S
C1555 C1554 1.369 . S
C1555 C1564 1.429 . S
C1556 C1554 1.419 1_655 S
C1556 C1557 1.363 . S
C1556 H1559 0.929 . S
C1557 C1556 1.363 . S
C1557 C1563 1.428 . S
H1558 C1554 0.930 . S
H1559 C1556 0.929 . S
S1560 N1561 1.613 . S
S1560 N1562 1.610 1_455 S
N1561 S1560 1.613 . S
N1561 C1564 1.350 . S
N1562 S1560 1.610 1_655 S
N1562 C1563 1.351 . S
C1563 C1557 1.428 . S
C1563 N1562 1.351 . S
C1563 C1564 1.434 1_655 S
C1564 C1555 1.429 . S
C1564 N1561 1.350 . S
C1564 C1563 1.434 1_455 S
C1565 C1566 1.369 . S
C1565 C1567 1.419 . S
C1565 H1569 0.930 . S
C1566 C1565 1.369 . S
C1566 C1575 1.429 . S
C1567 C1565 1.419 . S
C1567 C1568 1.363 . S
C1567 H1570 0.929 . S
C1568 C1567 1.363 . S
C1568 C1574 1.428 . S
H1569 C1565 0.930 . S
H1570 C1567 0.929 . S
S1571 N1572 1.613 . S
S1571 N1573 1.610 . S
N1572 S1571 1.613 . S
N1572 C1575 1.350 . S
N1573 S1571 1.610 . S
N1573 C1574 1.351 . S
C1574 C1568 1.428 . S
C1574 N1573 1.351 . S
C1574 C1575 1.434 . S
C1575 C1566 1.429 . S
C1575 N1572 1.350 . S
C1575 C1574 1.434 . S
C1576 C1577 1.369 . S
C1576 C1578 1.419 1_565 S
C1576 H1580 0.930 . S
C1577 C1576 1.369 . S
C1577 C1586 1.429 . S
C1578 C1576 1.419 1_545 S
C1578 C1579 1.363 . S
C1578 H1581 0.929 . S
C1579 C1578 1.363 . S
C1579 C1585 1.428 . S
H1580 C1576 0.930 . S
H1581 C1578 0.929 . S
S1582 N1583 1.613 . S
S1582 N1584 1.610 1_565 S
N1583 S1582 1.613 . S
N1583 C1586 1.350 . S
N1584 S1582 1.610 1_545 S
N1584 C1585 1.351 . S
C1585 C1579 1.428 . S
C1585 N1584 1.351 . S
C1585 C1586 1.434 1_545 S
C1586 C1577 1.429 . S
C1586 N1583 1.350 . S
C1586 C1585 1.434 1_565 S
C1587 C1588 1.369 . S
C1587 C1589 1.419 1_545 S
C1587 H1591 0.930 . S
C1588 C1587 1.369 . S
C1588 C1597 1.429 . S
C1589 C1587 1.419 1_565 S
C1589 C1590 1.363 . S
C1589 H1592 0.929 . S
C1590 C1589 1.363 . S
C1590 C1596 1.428 . S
H1591 C1587 0.930 . S
H1592 C1589 0.929 . S
S1593 N1594 1.613 . S
S1593 N1595 1.610 1_545 S
N1594 S1593 1.613 . S
N1594 C1597 1.350 . S
N1595 S1593 1.610 1_565 S
N1595 C1596 1.351 . S
C1596 C1590 1.428 . S
C1596 N1595 1.351 . S
C1596 C1597 1.434 1_565 S
C1597 C1588 1.429 . S
C1597 N1594 1.350 . S
C1597 C1596 1.434 1_545 S
C1598 C1599 1.369 . S
C1598 C1600 1.419 1_655 S
C1598 H1602 0.930 . S
C1599 C1598 1.369 . S
C1599 C1608 1.429 . S
C1600 C1598 1.419 1_455 S
C1600 C1601 1.363 . S
C1600 H1603 0.929 . S
C1601 C1600 1.363 . S
C1601 C1607 1.428 . S
H1602 C1598 0.930 . S
H1603 C1600 0.929 . S
S1604 N1605 1.613 . S
S1604 N1606 1.610 1_655 S
N1605 S1604 1.613 . S
N1605 C1608 1.350 . S
N1606 S1604 1.610 1_455 S
N1606 C1607 1.351 . S
C1607 C1601 1.428 . S
C1607 N1606 1.351 . S
C1607 C1608 1.434 1_455 S
C1608 C1599 1.429 . S
C1608 N1605 1.350 . S
C1608 C1607 1.434 1_655 S
C1609 C1610 1.369 . S
C1609 C1611 1.419 . S
C1609 H1613 0.930 . S
C1610 C1609 1.369 . S
C1610 C1619 1.429 . S
C1611 C1609 1.419 . S
C1611 C1612 1.363 . S
C1611 H1614 0.929 . S
C1612 C1611 1.363 . S
C1612 C1618 1.428 . S
H1613 C1609 0.930 . S
H1614 C1611 0.929 . S
S1615 N1616 1.613 . S
S1615 N1617 1.610 . S
N1616 S1615 1.613 . S
N1616 C1619 1.350 . S
N1617 S1615 1.610 . S
N1617 C1618 1.351 . S
C1618 C1612 1.428 . S
C1618 N1617 1.351 . S
C1618 C1619 1.434 . S
C1619 C1610 1.429 . S
C1619 N1616 1.350 . S
C1619 C1618 1.434 . S
C1620 C1621 1.369 . S
C1620 C1622 1.419 . S
C1620 H1624 0.930 . S
C1621 C1620 1.369 . S
C1621 C1630 1.429 . S
C1622 C1620 1.419 . S
C1622 C1623 1.363 . S
C1622 H1625 0.929 . S
C1623 C1622 1.363 . S
C1623 C1629 1.428 . S
H1624 C1620 0.930 . S
H1625 C1622 0.929 . S
S1626 N1627 1.613 . S
S1626 N1628 1.610 . S
N1627 S1626 1.613 . S
N1627 C1630 1.350 . S
N1628 S1626 1.610 . S
N1628 C1629 1.351 . S
C1629 C1623 1.428 . S
C1629 N1628 1.351 . S
C1629 C1630 1.434 . S
C1630 C1621 1.429 . S
C1630 N1627 1.350 . S
C1630 C1629 1.434 . S
C1631 C1632 1.369 . S
C1631 C1633 1.419 . S
C1631 H1635 0.930 . S
C1632 C1631 1.369 . S
C1632 C1641 1.429 . S
C1633 C1631 1.419 . S
C1633 C1634 1.363 . S
C1633 H1636 0.929 . S
C1634 C1633 1.363 . S
C1634 C1640 1.428 . S
H1635 C1631 0.930 . S
H1636 C1633 0.929 . S
S1637 N1638 1.613 . S
S1637 N1639 1.610 . S
N1638 S1637 1.613 . S
N1638 C1641 1.350 . S
N1639 S1637 1.610 . S
N1639 C1640 1.351 . S
C1640 C1634 1.428 . S
C1640 N1639 1.351 . S
C1640 C1641 1.434 . S
C1641 C1632 1.429 . S
C1641 N1638 1.350 . S
C1641 C1640 1.434 . S
C1642 C1643 1.369 . S
C1642 C1644 1.419 . S
C1642 H1646 0.930 . S
C1643 C1642 1.369 . S
C1643 C1652 1.429 . S
C1644 C1642 1.419 . S
C1644 C1645 1.363 . S
C1644 H1647 0.929 . S
C1645 C1644 1.363 . S
C1645 C1651 1.428 . S
H1646 C1642 0.930 . S
H1647 C1644 0.929 . S
S1648 N1649 1.613 . S
S1648 N1650 1.610 . S
N1649 S1648 1.613 . S
N1649 C1652 1.350 . S
N1650 S1648 1.610 . S
N1650 C1651 1.351 . S
C1651 C1645 1.428 . S
C1651 N1650 1.351 . S
C1651 C1652 1.434 . S
C1652 C1643 1.429 . S
C1652 N1649 1.350 . S
C1652 C1651 1.434 . S
C1653 C1654 1.369 . S
C1653 C1655 1.419 . S
C1653 H1657 0.930 . S
C1654 C1653 1.369 . S
C1654 C1663 1.429 . S
C1655 C1653 1.419 . S
C1655 C1656 1.363 . S
C1655 H1658 0.929 . S
C1656 C1655 1.363 . S
C1656 C1662 1.428 . S
H1657 C1653 0.930 . S
H1658 C1655 0.929 . S
S1659 N1660 1.613 . S
S1659 N1661 1.610 . S
N1660 S1659 1.613 . S
N1660 C1663 1.350 . S
N1661 S1659 1.610 . S
N1661 C1662 1.351 . S
C1662 C1656 1.428 . S
C1662 N1661 1.351 . S
C1662 C1663 1.434 . S
C1663 C1654 1.429 . S
C1663 N1660 1.350 . S
C1663 C1662 1.434 . S
C1664 C1665 1.369 . S
C1664 C1666 1.419 . S
C1664 H1668 0.930 . S
C1665 C1664 1.369 . S
C1665 C1674 1.429 . S
C1666 C1664 1.419 . S
C1666 C1667 1.363 . S
C1666 H1669 0.929 . S
C1667 C1666 1.363 . S
C1667 C1673 1.428 . S
H1668 C1664 0.930 . S
H1669 C1666 0.929 . S
S1670 N1671 1.613 . S
S1670 N1672 1.610 . S
N1671 S1670 1.613 . S
N1671 C1674 1.350 . S
N1672 S1670 1.610 . S
N1672 C1673 1.351 . S
C1673 C1667 1.428 . S
C1673 N1672 1.351 . S
C1673 C1674 1.434 . S
C1674 C1665 1.429 . S
C1674 N1671 1.350 . S
C1674 C1673 1.434 . S
C1675 C1676 1.369 . S
C1675 C1677 1.419 . S
C1675 H1679 0.930 . S
C1676 C1675 1.369 . S
C1676 C1685 1.429 . S
C1677 C1675 1.419 . S
C1677 C1678 1.363 . S
C1677 H1680 0.929 . S
C1678 C1677 1.363 . S
C1678 C1684 1.428 . S
H1679 C1675 0.930 . S
H1680 C1677 0.929 . S
S1681 N1682 1.613 . S
S1681 N1683 1.610 . S
N1682 S1681 1.613 . S
N1682 C1685 1.350 . S
N1683 S1681 1.610 . S
N1683 C1684 1.351 . S
C1684 C1678 1.428 . S
C1684 N1683 1.351 . S
C1684 C1685 1.434 . S
C1685 C1676 1.429 . S
C1685 N1682 1.350 . S
C1685 C1684 1.434 . S
C1686 C1687 1.369 . S
C1686 C1688 1.419 . S
C1686 H1690 0.930 . S
C1687 C1686 1.369 . S
C1687 C1696 1.429 . S
C1688 C1686 1.419 . S
C1688 C1689 1.363 . S
C1688 H1691 0.929 . S
C1689 C1688 1.363 . S
C1689 C1695 1.428 . S
H1690 C1686 0.930 . S
H1691 C1688 0.929 . S
S1692 N1693 1.613 . S
S1692 N1694 1.610 . S
N1693 S1692 1.613 . S
N1693 C1696 1.350 . S
N1694 S1692 1.610 . S
N1694 C1695 1.351 . S
C1695 C1689 1.428 . S
C1695 N1694 1.351 . S
C1695 C1696 1.434 . S
C1696 C1687 1.429 . S
C1696 N1693 1.350 . S
C1696 C1695 1.434 . S
C1697 C1698 1.369 . S
C1697 C1699 1.419 . S
C1697 H1701 0.930 . S
C1698 C1697 1.369 . S
C1698 C1707 1.429 . S
C1699 C1697 1.419 . S
C1699 C1700 1.363 . S
C1699 H1702 0.929 . S
C1700 C1699 1.363 . S
C1700 C1706 1.428 . S
H1701 C1697 0.930 . S
H1702 C1699 0.929 . S
S1703 N1704 1.613 . S
S1703 N1705 1.610 . S
N1704 S1703 1.613 . S
N1704 C1707 1.350 . S
N1705 S1703 1.610 . S
N1705 C1706 1.351 . S
C1706 C1700 1.428 . S
C1706 N1705 1.351 . S
C1706 C1707 1.434 . S
C1707 C1698 1.429 . S
C1707 N1704 1.350 . S
C1707 C1706 1.434 . S
C1708 C1709 1.369 . S
C1708 C1710 1.419 . S
C1708 H1712 0.930 . S
C1709 C1708 1.369 . S
C1709 C1718 1.429 . S
C1710 C1708 1.419 . S
C1710 C1711 1.363 . S
C1710 H1713 0.929 . S
C1711 C1710 1.363 . S
C1711 C1717 1.428 . S
H1712 C1708 0.930 . S
H1713 C1710 0.929 . S
S1714 N1715 1.613 . S
S1714 N1716 1.610 . S
N1715 S1714 1.613 . S
N1715 C1718 1.350 . S
N1716 S1714 1.610 . S
N1716 C1717 1.351 . S
C1717 C1711 1.428 . S
C1717 N1716 1.351 . S
C1717 C1718 1.434 . S
C1718 C1709 1.429 . S
C1718 N1715 1.350 . S
C1718 C1717 1.434 . S
C1719 C1720 1.369 . S
C1719 C1721 1.419 . S
C1719 H1723 0.930 . S
C1720 C1719 1.369 . S
C1720 C1729 1.429 . S
C1721 C1719 1.419 . S
C1721 C1722 1.363 . S
C1721 H1724 0.929 . S
C1722 C1721 1.363 . S
C1722 C1728 1.428 . S
H1723 C1719 0.930 . S
H1724 C1721 0.929 . S
S1725 N1726 1.613 . S
S1725 N1727 1.610 . S
N1726 S1725 1.613 . S
N1726 C1729 1.350 . S
N1727 S1725 1.610 . S
N1727 C1728 1.351 . S
C1728 C1722 1.428 . S
C1728 N1727 1.351 . S
C1728 C1729 1.434 . S
C1729 C1720 1.429 . S
C1729 N1726 1.350 . S
C1729 C1728 1.434 . S
C1730 C1731 1.369 . S
C1730 C1732 1.419 . S
C1730 H1734 0.930 . S
C1731 C1730 1.369 . S
C1731 C1740 1.429 . S
C1732 C1730 1.419 . S
C1732 C1733 1.363 . S
C1732 H1735 0.929 . S
C1733 C1732 1.363 . S
C1733 C1739 1.428 . S
H1734 C1730 0.930 . S
H1735 C1732 0.929 . S
S1736 N1737 1.613 . S
S1736 N1738 1.610 . S
N1737 S1736 1.613 . S
N1737 C1740 1.350 . S
N1738 S1736 1.610 . S
N1738 C1739 1.351 . S
C1739 C1733 1.428 . S
C1739 N1738 1.351 . S
C1739 C1740 1.434 . S
C1740 C1731 1.429 . S
C1740 N1737 1.350 . S
C1740 C1739 1.434 . S
C1741 C1742 1.369 . S
C1741 C1743 1.419 . S
C1741 H1745 0.930 . S
C1742 C1741 1.369 . S
C1742 C1751 1.429 . S
C1743 C1741 1.419 . S
C1743 C1744 1.363 . S
C1743 H1746 0.929 . S
C1744 C1743 1.363 . S
C1744 C1750 1.428 . S
H1745 C1741 0.930 . S
H1746 C1743 0.929 . S
S1747 N1748 1.613 . S
S1747 N1749 1.610 . S
N1748 S1747 1.613 . S
N1748 C1751 1.350 . S
N1749 S1747 1.610 . S
N1749 C1750 1.351 . S
C1750 C1744 1.428 . S
C1750 N1749 1.351 . S
C1750 C1751 1.434 . S
C1751 C1742 1.429 . S
C1751 N1748 1.350 . S
C1751 C1750 1.434 . S
C1752 C1753 1.369 . S
C1752 C1754 1.419 . S
C1752 H1756 0.930 . S
C1753 C1752 1.369 . S
C1753 C1762 1.429 1_655 S
C1754 C1752 1.419 . S
C1754 C1755 1.363 1_655 S
C1754 H1757 0.929 . S
C1755 C1754 1.363 1_455 S
C1755 C1761 1.428 . S
H1756 C1752 0.930 . S
H1757 C1754 0.929 . S
S1758 N1759 1.613 . S
S1758 N1760 1.610 . S
N1759 S1758 1.613 . S
N1759 C1762 1.350 . S
N1760 S1758 1.610 . S
N1760 C1761 1.351 . S
C1761 C1755 1.428 . S
C1761 N1760 1.351 . S
C1761 C1762 1.434 . S
C1762 C1753 1.429 1_455 S
C1762 N1759 1.350 . S
C1762 C1761 1.434 . S
C1763 C1764 1.369 . S
C1763 C1765 1.419 . S
C1763 H1767 0.930 . S
C1764 C1763 1.369 . S
C1764 C1773 1.429 . S
C1765 C1763 1.419 . S
C1765 C1766 1.363 . S
C1765 H1768 0.929 . S
C1766 C1765 1.363 . S
C1766 C1772 1.428 . S
H1767 C1763 0.930 . S
H1768 C1765 0.929 . S
S1769 N1770 1.613 . S
S1769 N1771 1.610 . S
N1770 S1769 1.613 . S
N1770 C1773 1.350 . S
N1771 S1769 1.610 . S
N1771 C1772 1.351 . S
C1772 C1766 1.428 . S
C1772 N1771 1.351 . S
C1772 C1773 1.434 . S
C1773 C1764 1.429 . S
C1773 N1770 1.350 . S
C1773 C1772 1.434 . S
C1774 C1775 1.369 1_565 S
C1774 C1776 1.419 . S
C1774 H1778 0.930 . S
C1775 C1774 1.369 1_545 S
C1775 C1784 1.429 . S
C1776 C1774 1.419 . S
C1776 C1777 1.363 . S
C1776 H1779 0.929 . S
C1777 C1776 1.363 . S
C1777 C1783 1.428 1_565 S
H1778 C1774 0.930 . S
H1779 C1776 0.929 . S
S1780 N1781 1.613 . S
S1780 N1782 1.610 . S
N1781 S1780 1.613 . S
N1781 C1784 1.350 . S
N1782 S1780 1.610 . S
N1782 C1783 1.351 . S
C1783 C1777 1.428 1_545 S
C1783 N1782 1.351 . S
C1783 C1784 1.434 . S
C1784 C1775 1.429 . S
C1784 N1781 1.350 . S
C1784 C1783 1.434 . S
C1785 C1786 1.369 . S
C1785 C1787 1.419 1_554 S
C1785 H1789 0.930 . S
C1786 C1785 1.369 . S
C1786 C1795 1.429 1_565 S
C1787 C1785 1.419 1_556 S
C1787 C1788 1.363 1_565 S
C1787 H1790 0.929 . S
C1788 C1787 1.363 1_545 S
C1788 C1794 1.428 . S
H1789 C1785 0.930 . S
H1790 C1787 0.929 . S
S1791 N1792 1.613 1_556 S
S1791 N1793 1.610 . S
N1792 S1791 1.613 1_554 S
N1792 C1795 1.350 . S
N1793 S1791 1.610 . S
N1793 C1794 1.351 . S
C1794 C1788 1.428 . S
C1794 N1793 1.351 . S
C1794 C1795 1.434 1_556 S
C1795 C1786 1.429 1_545 S
C1795 N1792 1.350 . S
C1795 C1794 1.434 1_554 S
C1796 C1797 1.369 1_554 S
C1796 C1798 1.416 . S
C1796 H1800 0.930 . S
C1797 C1796 1.369 1_556 S
C1797 C1806 1.429 1_655 S
C1798 C1796 1.416 . S
C1798 C1799 1.365 1_655 S
C1798 H1801 0.927 . S
C1799 C1798 1.365 1_455 S
C1799 C1805 1.428 1_554 S
H1800 C1796 0.930 . S
H1801 C1798 0.927 . S
S1802 N1803 1.613 . S
S1802 N1804 1.610 . S
N1803 S1802 1.613 . S
N1803 C1806 1.350 . S
N1804 S1802 1.610 . S
N1804 C1805 1.351 . S
C1805 C1799 1.428 1_556 S
C1805 N1804 1.351 . S
C1805 C1806 1.434 . S
C1806 C1797 1.429 1_455 S
C1806 N1803 1.350 . S
C1806 C1805 1.434 . S
C1807 C1808 1.369 . S
C1807 C1809 1.419 . S
C1807 H1811 0.930 . S
C1808 C1807 1.369 . S
C1808 C1817 1.429 1_554 S
C1809 C1807 1.419 . S
C1809 C1810 1.363 1_554 S
C1809 H1812 0.929 . S
C1810 C1809 1.363 1_556 S
C1810 C1816 1.428 . S
H1811 C1807 0.930 . S
H1812 C1809 0.929 . S
S1813 N1814 1.613 . S
S1813 N1815 1.610 . S
N1814 S1813 1.613 . S
N1814 C1817 1.350 . S
N1815 S1813 1.610 . S
N1815 C1816 1.351 . S
C1816 C1810 1.428 . S
C1816 N1815 1.351 . S
C1816 C1817 1.434 . S
C1817 C1808 1.429 1_556 S
C1817 N1814 1.350 . S
C1817 C1816 1.434 . S
C1818 C1819 1.369 . S
C1818 C1820 1.419 1_556 S
C1818 H1822 0.930 . S
C1819 C1818 1.369 . S
C1819 C1828 1.429 1_556 S
C1820 C1818 1.419 1_554 S
C1820 C1821 1.363 . S
C1820 H1823 0.929 . S
C1821 C1820 1.363 . S
C1821 C1827 1.428 . S
H1822 C1818 0.930 . S
H1823 C1820 0.929 . S
S1824 N1825 1.613 . S
S1824 N1826 1.610 . S
N1825 S1824 1.613 . S
N1825 C1828 1.350 . S
N1826 S1824 1.610 . S
N1826 C1827 1.351 . S
C1827 C1821 1.428 . S
C1827 N1826 1.351 . S
C1827 C1828 1.434 . S
C1828 C1819 1.429 1_554 S
C1828 N1825 1.350 . S
C1828 C1827 1.434 . S
C1829 C1830 1.369 . S
C1829 C1831 1.419 . S
C1829 H1833 0.930 . S
C1830 C1829 1.369 . S
C1830 C1839 1.429 . S
C1831 C1829 1.419 . S
C1831 C1832 1.363 1_554 S
C1831 H1834 0.929 . S
C1832 C1831 1.363 1_556 S
C1832 C1838 1.428 . S
H1833 C1829 0.930 . S
H1834 C1831 0.929 . S
S1835 N1836 1.613 . S
S1835 N1837 1.610 . S
N1836 S1835 1.613 . S
N1836 C1839 1.350 1_556 S
N1837 S1835 1.610 . S
N1837 C1838 1.351 . S
C1838 C1832 1.428 . S
C1838 N1837 1.351 . S
C1838 C1839 1.434 1_556 S
C1839 C1830 1.429 . S
C1839 N1836 1.350 1_554 S
C1839 C1838 1.434 1_554 S
C1840 C1841 1.369 . S
C1840 C1842 1.419 . S
C1840 H1844 0.930 . S
C1841 C1840 1.369 . S
C1841 C1850 1.429 . S
C1842 C1840 1.419 . S
C1842 C1843 1.363 1_554 S
C1842 H1845 0.929 . S
C1843 C1842 1.363 1_556 S
C1843 C1849 1.428 . S
H1844 C1840 0.930 . S
H1845 C1842 0.929 . S
S1846 N1847 1.613 1_556 S
S1846 N1848 1.610 . S
N1847 S1846 1.613 1_554 S
N1847 C1850 1.350 . S
N1848 S1846 1.610 . S
N1848 C1849 1.351 . S
C1849 C1843 1.428 . S
C1849 N1848 1.351 . S
C1849 C1850 1.434 1_556 S
C1850 C1841 1.429 . S
C1850 N1847 1.350 . S
C1850 C1849 1.434 1_554 S
C1851 C1852 1.369 . S
C1851 C1853 1.419 . S
C1851 H1855 0.930 . S
C1852 C1851 1.369 . S
C1852 C1861 1.429 . S
C1853 C1851 1.419 . S
C1853 C1854 1.363 . S
C1853 H1856 0.929 . S
C1854 C1853 1.363 . S
C1854 C1860 1.428 . S
H1855 C1851 0.930 . S
H1856 C1853 0.929 . S
S1857 N1858 1.613 . S
S1857 N1859 1.610 . S
N1858 S1857 1.613 . S
N1858 C1861 1.350 . S
N1859 S1857 1.610 . S
N1859 C1860 1.351 . S
C1860 C1854 1.428 . S
C1860 N1859 1.351 . S
C1860 C1861 1.434 . S
C1861 C1852 1.429 . S
C1861 N1858 1.350 . S
C1861 C1860 1.434 . S
C1862 C1863 1.369 . S
C1862 C1864 1.419 . S
C1862 H1866 0.930 . S
C1863 C1862 1.369 . S
C1863 C1872 1.429 . S
C1864 C1862 1.419 . S
C1864 C1865 1.363 . S
C1864 H1867 0.929 . S
C1865 C1864 1.363 . S
C1865 C1871 1.428 . S
H1866 C1862 0.930 . S
H1867 C1864 0.929 . S
S1868 N1869 1.613 . S
S1868 N1870 1.610 . S
N1869 S1868 1.613 . S
N1869 C1872 1.350 . S
N1870 S1868 1.610 . S
N1870 C1871 1.351 . S
C1871 C1865 1.428 . S
C1871 N1870 1.351 . S
C1871 C1872 1.434 . S
C1872 C1863 1.429 . S
C1872 N1869 1.350 . S
C1872 C1871 1.434 . S
C1873 C1874 1.369 . S
C1873 C1875 1.419 . S
C1873 H1877 0.930 . S
C1874 C1873 1.369 . S
C1874 C1883 1.429 . S
C1875 C1873 1.419 . S
C1875 C1876 1.363 . S
C1875 H1878 0.929 . S
C1876 C1875 1.363 . S
C1876 C1882 1.428 . S
H1877 C1873 0.930 . S
H1878 C1875 0.929 . S
S1879 N1880 1.613 . S
S1879 N1881 1.610 . S
N1880 S1879 1.613 . S
N1880 C1883 1.350 . S
N1881 S1879 1.610 . S
N1881 C1882 1.351 . S
C1882 C1876 1.428 . S
C1882 N1881 1.351 . S
C1882 C1883 1.434 . S
C1883 C1874 1.429 . S
C1883 N1880 1.350 . S
C1883 C1882 1.434 . S
C1884 C1885 1.369 1_556 S
C1884 C1886 1.419 . S
C1884 H1888 0.930 . S
C1885 C1884 1.369 1_554 S
C1885 C1894 1.429 . S
C1886 C1884 1.419 . S
C1886 C1887 1.363 . S
C1886 H1889 0.929 . S
C1887 C1886 1.363 . S
C1887 C1893 1.428 . S
H1888 C1884 0.930 . S
H1889 C1886 0.929 . S
S1890 N1891 1.613 . S
S1890 N1892 1.610 . S
N1891 S1890 1.613 . S
N1891 C1894 1.350 . S
N1892 S1890 1.610 . S
N1892 C1893 1.351 1_554 S
C1893 C1887 1.428 . S
C1893 N1892 1.351 1_556 S
C1893 C1894 1.434 1_556 S
C1894 C1885 1.429 . S
C1894 N1891 1.350 . S
C1894 C1893 1.434 1_554 S
C1895 C1896 1.369 1_556 S
C1895 C1897 1.419 . S
C1895 H1899 0.930 . S
C1896 C1895 1.369 1_554 S
C1896 C1905 1.429 . S
C1897 C1895 1.419 . S
C1897 C1898 1.363 . S
C1897 H1900 0.929 . S
C1898 C1897 1.363 . S
C1898 C1904 1.428 . S
H1899 C1895 0.930 . S
H1900 C1897 0.929 . S
S1901 N1902 1.613 . S
S1901 N1903 1.610 . S
N1902 S1901 1.613 . S
N1902 C1905 1.350 . S
N1903 S1901 1.610 . S
N1903 C1904 1.351 1_554 S
C1904 C1898 1.428 . S
C1904 N1903 1.351 1_556 S
C1904 C1905 1.434 1_556 S
C1905 C1896 1.429 . S
C1905 N1902 1.350 . S
C1905 C1904 1.434 1_554 S
C1906 C1907 1.369 1_556 S
C1906 C1908 1.419 . S
C1906 H1910 0.930 . S
C1907 C1906 1.369 1_554 S
C1907 C1916 1.423 1_554 S
C1908 C1906 1.419 . S
C1908 C1909 1.363 . S
C1908 H1911 0.929 . S
C1909 C1908 1.363 . S
C1909 C1915 1.428 . S
H1910 C1906 0.930 . S
H1911 C1908 0.929 . S
S1912 N1913 1.613 1_556 S
S1912 N1914 1.610 . S
N1913 S1912 1.613 1_554 S
N1913 C1916 1.341 1_554 S
N1914 S1912 1.610 . S
N1914 C1915 1.351 . S
C1915 C1909 1.428 . S
C1915 N1914 1.351 . S
C1915 C1916 1.451 . S
C1916 C1907 1.423 1_556 S
C1916 N1913 1.341 1_556 S
C1916 C1915 1.451 . S
C1917 C1918 1.369 . S
C1917 C1919 1.419 . S
C1917 H1921 0.930 . S
C1918 C1917 1.369 . S
C1918 C1927 1.429 . S
C1919 C1917 1.419 . S
C1919 C1920 1.363 . S
C1919 H1922 0.929 . S
C1920 C1919 1.363 . S
C1920 C1926 1.428 . S
H1921 C1917 0.930 . S
H1922 C1919 0.929 . S
S1923 N1924 1.613 . S
S1923 N1925 1.610 . S
N1924 S1923 1.613 . S
N1924 C1927 1.350 . S
N1925 S1923 1.610 . S
N1925 C1926 1.351 . S
C1926 C1920 1.428 . S
C1926 N1925 1.351 . S
C1926 C1927 1.434 . S
C1927 C1918 1.429 . S
C1927 N1924 1.350 . S
C1927 C1926 1.434 . S
C1928 C1929 1.369 . S
C1928 C1930 1.419 . S
C1928 H1932 0.930 . S
C1929 C1928 1.369 . S
C1929 C1938 1.429 . S
C1930 C1928 1.419 . S
C1930 C1931 1.363 . S
C1930 H1933 0.929 . S
C1931 C1930 1.363 . S
C1931 C1937 1.428 . S
H1932 C1928 0.930 . S
H1933 C1930 0.929 . S
S1934 N1935 1.613 . S
S1934 N1936 1.610 . S
N1935 S1934 1.613 . S
N1935 C1938 1.350 . S
N1936 S1934 1.610 . S
N1936 C1937 1.351 . S
C1937 C1931 1.428 . S
C1937 N1936 1.351 . S
C1937 C1938 1.434 . S
C1938 C1929 1.429 . S
C1938 N1935 1.350 . S
C1938 C1937 1.434 . S
C1939 C1940 1.369 . S
C1939 C1941 1.419 . S
C1939 H1943 0.930 . S
C1940 C1939 1.369 . S
C1940 C1949 1.429 . S
C1941 C1939 1.419 . S
C1941 C1942 1.363 . S
C1941 H1944 0.929 . S
C1942 C1941 1.363 . S
C1942 C1948 1.428 . S
H1943 C1939 0.930 . S
H1944 C1941 0.929 . S
S1945 N1946 1.613 . S
S1945 N1947 1.610 . S
N1946 S1945 1.613 . S
N1946 C1949 1.350 . S
N1947 S1945 1.610 . S
N1947 C1948 1.351 . S
C1948 C1942 1.428 . S
C1948 N1947 1.351 . S
C1948 C1949 1.434 . S
C1949 C1940 1.429 . S
C1949 N1946 1.350 . S
C1949 C1948 1.434 . S
C1950 C1951 1.369 . S
C1950 C1952 1.419 . S
C1950 H1954 0.930 . S
C1951 C1950 1.369 . S
C1951 C1960 1.429 . S
C1952 C1950 1.419 . S
C1952 C1953 1.363 . S
C1952 H1955 0.929 . S
C1953 C1952 1.363 . S
C1953 C1959 1.428 . S
H1954 C1950 0.930 . S
H1955 C1952 0.929 . S
S1956 N1957 1.613 . S
S1956 N1958 1.610 . S
N1957 S1956 1.613 . S
N1957 C1960 1.350 . S
N1958 S1956 1.610 . S
N1958 C1959 1.351 . S
C1959 C1953 1.428 . S
C1959 N1958 1.351 . S
C1959 C1960 1.434 . S
C1960 C1951 1.429 . S
C1960 N1957 1.350 . S
C1960 C1959 1.434 . S
C1961 C1962 1.369 . S
C1961 C1963 1.419 . S
C1961 H1965 0.930 . S
C1962 C1961 1.369 . S
C1962 C1971 1.429 . S
C1963 C1961 1.419 . S
C1963 C1964 1.363 . S
C1963 H1966 0.929 . S
C1964 C1963 1.363 . S
C1964 C1970 1.428 . S
H1965 C1961 0.930 . S
H1966 C1963 0.929 . S
S1967 N1968 1.613 . S
S1967 N1969 1.610 . S
N1968 S1967 1.613 . S
N1968 C1971 1.350 . S
N1969 S1967 1.610 . S
N1969 C1970 1.351 . S
C1970 C1964 1.428 . S
C1970 N1969 1.351 . S
C1970 C1971 1.434 . S
C1971 C1962 1.429 . S
C1971 N1968 1.350 . S
C1971 C1970 1.434 . S
C1972 C1973 1.369 . S
C1972 C1974 1.419 . S
C1972 H1976 0.930 . S
C1973 C1972 1.369 . S
C1973 C1982 1.429 . S
C1974 C1972 1.419 . S
C1974 C1975 1.363 . S
C1974 H1977 0.929 . S
C1975 C1974 1.363 . S
C1975 C1981 1.428 . S
H1976 C1972 0.930 . S
H1977 C1974 0.929 . S
S1978 N1979 1.613 . S
S1978 N1980 1.610 . S
N1979 S1978 1.613 . S
N1979 C1982 1.350 . S
N1980 S1978 1.610 . S
N1980 C1981 1.351 . S
C1981 C1975 1.428 . S
C1981 N1980 1.351 . S
C1981 C1982 1.434 . S
C1982 C1973 1.429 . S
C1982 N1979 1.350 . S
C1982 C1981 1.434 . S
C1983 C1984 1.369 . S
C1983 C1985 1.419 . S
C1983 H1987 0.930 . S
C1984 C1983 1.369 . S
C1984 C1993 1.429 . S
C1985 C1983 1.419 . S
C1985 C1986 1.363 . S
C1985 H1988 0.929 . S
C1986 C1985 1.363 . S
C1986 C1992 1.428 . S
H1987 C1983 0.930 . S
H1988 C1985 0.929 . S
S1989 N1990 1.613 . S
S1989 N1991 1.610 . S
N1990 S1989 1.613 . S
N1990 C1993 1.350 . S
N1991 S1989 1.610 . S
N1991 C1992 1.351 . S
C1992 C1986 1.428 . S
C1992 N1991 1.351 . S
C1992 C1993 1.434 . S
C1993 C1984 1.429 . S
C1993 N1990 1.350 . S
C1993 C1992 1.434 . S
C1994 C1995 1.369 . S
C1994 C1996 1.419 . S
C1994 H1998 0.930 . S
C1995 C1994 1.369 . S
C1995 C2004 1.429 . S
C1996 C1994 1.419 . S
C1996 C1997 1.363 . S
C1996 H1999 0.929 . S
C1997 C1996 1.363 . S
C1997 C2003 1.428 . S
H1998 C1994 0.930 . S
H1999 C1996 0.929 . S
S2000 N2001 1.613 . S
S2000 N2002 1.610 . S
N2001 S2000 1.613 . S
N2001 C2004 1.350 . S
N2002 S2000 1.610 . S
N2002 C2003 1.351 . S
C2003 C1997 1.428 . S
C2003 N2002 1.351 . S
C2003 C2004 1.434 . S
C2004 C1995 1.429 . S
C2004 N2001 1.350 . S
C2004 C2003 1.434 . S
C2005 C2006 1.369 . S
C2005 C2007 1.419 . S
C2005 H2009 0.930 . S
C2006 C2005 1.369 . S
C2006 C2015 1.429 . S
C2007 C2005 1.419 . S
C2007 C2008 1.363 . S
C2007 H2010 0.929 . S
C2008 C2007 1.363 . S
C2008 C2014 1.428 . S
H2009 C2005 0.930 . S
H2010 C2007 0.929 . S
S2011 N2012 1.613 . S
S2011 N2013 1.610 . S
N2012 S2011 1.613 . S
N2012 C2015 1.350 . S
N2013 S2011 1.610 . S
N2013 C2014 1.351 . S
C2014 C2008 1.428 . S
C2014 N2013 1.351 . S
C2014 C2015 1.434 . S
C2015 C2006 1.429 . S
C2015 N2012 1.350 . S
C2015 C2014 1.434 . S
C2016 C2017 1.369 . S
C2016 C2018 1.419 . S
C2016 H2020 0.930 . S
C2017 C2016 1.369 . S
C2017 C2026 1.429 . S
C2018 C2016 1.419 . S
C2018 C2019 1.363 . S
C2018 H2021 0.929 . S
C2019 C2018 1.363 . S
C2019 C2025 1.428 . S
H2020 C2016 0.930 . S
H2021 C2018 0.929 . S
S2022 N2023 1.613 . S
S2022 N2024 1.610 . S
N2023 S2022 1.613 . S
N2023 C2026 1.350 . S
N2024 S2022 1.610 . S
N2024 C2025 1.351 . S
C2025 C2019 1.428 . S
C2025 N2024 1.351 . S
C2025 C2026 1.434 . S
C2026 C2017 1.429 . S
C2026 N2023 1.350 . S
C2026 C2025 1.434 . S
C2027 C2028 1.369 . S
C2027 C2029 1.419 . S
C2027 H2031 0.930 . S
C2028 C2027 1.369 . S
C2028 C2037 1.429 . S
C2029 C2027 1.419 . S
C2029 C2030 1.363 . S
C2029 H2032 0.929 . S
C2030 C2029 1.363 . S
C2030 C2036 1.428 . S
H2031 C2027 0.930 . S
H2032 C2029 0.929 . S
S2033 N2034 1.613 . S
S2033 N2035 1.610 . S
N2034 S2033 1.613 . S
N2034 C2037 1.350 . S
N2035 S2033 1.610 . S
N2035 C2036 1.351 . S
C2036 C2030 1.428 . S
C2036 N2035 1.351 . S
C2036 C2037 1.434 . S
C2037 C2028 1.429 . S
C2037 N2034 1.350 . S
C2037 C2036 1.434 . S
C2038 C2039 1.369 . S
C2038 C2040 1.419 . S
C2038 H2042 0.930 . S
C2039 C2038 1.369 . S
C2039 C2048 1.429 . S
C2040 C2038 1.419 . S
C2040 C2041 1.363 . S
C2040 H2043 0.929 . S
C2041 C2040 1.363 . S
C2041 C2047 1.428 . S
H2042 C2038 0.930 . S
H2043 C2040 0.929 . S
S2044 N2045 1.613 . S
S2044 N2046 1.610 . S
N2045 S2044 1.613 . S
N2045 C2048 1.350 . S
N2046 S2044 1.610 . S
N2046 C2047 1.351 . S
C2047 C2041 1.428 . S
C2047 N2046 1.351 . S
C2047 C2048 1.434 . S
C2048 C2039 1.429 . S
C2048 N2045 1.350 . S
C2048 C2047 1.434 . S
C2049 C2050 1.369 . S
C2049 C2051 1.419 . S
C2049 H2053 0.930 . S
C2050 C2049 1.369 . S
C2050 C2059 1.429 . S
C2051 C2049 1.419 . S
C2051 C2052 1.363 . S
C2051 H2054 0.929 . S
C2052 C2051 1.363 . S
C2052 C2058 1.428 . S
H2053 C2049 0.930 . S
H2054 C2051 0.929 . S
S2055 N2056 1.613 . S
S2055 N2057 1.610 . S
N2056 S2055 1.613 . S
N2056 C2059 1.350 . S
N2057 S2055 1.610 . S
N2057 C2058 1.351 . S
C2058 C2052 1.428 . S
C2058 N2057 1.351 . S
C2058 C2059 1.434 . S
C2059 C2050 1.429 . S
C2059 N2056 1.350 . S
C2059 C2058 1.434 . S
C2060 C2061 1.369 . S
C2060 C2062 1.419 . S
C2060 H2064 0.930 . S
C2061 C2060 1.369 . S
C2061 C2070 1.429 . S
C2062 C2060 1.419 . S
C2062 C2063 1.363 . S
C2062 H2065 0.929 . S
C2063 C2062 1.363 . S
C2063 C2069 1.428 . S
H2064 C2060 0.930 . S
H2065 C2062 0.929 . S
S2066 N2067 1.613 . S
S2066 N2068 1.610 . S
N2067 S2066 1.613 . S
N2067 C2070 1.350 . S
N2068 S2066 1.610 . S
N2068 C2069 1.351 . S
C2069 C2063 1.428 . S
C2069 N2068 1.351 . S
C2069 C2070 1.434 . S
C2070 C2061 1.429 . S
C2070 N2067 1.350 . S
C2070 C2069 1.434 . S
C2071 C2072 1.369 . S
C2071 C2073 1.419 . S
C2071 H2075 0.930 . S
C2072 C2071 1.369 . S
C2072 C2081 1.429 . S
C2073 C2071 1.419 . S
C2073 C2074 1.363 . S
C2073 H2076 0.929 . S
C2074 C2073 1.363 . S
C2074 C2080 1.428 . S
H2075 C2071 0.930 . S
H2076 C2073 0.929 . S
S2077 N2078 1.613 . S
S2077 N2079 1.610 . S
N2078 S2077 1.613 . S
N2078 C2081 1.350 . S
N2079 S2077 1.610 . S
N2079 C2080 1.351 . S
C2080 C2074 1.428 . S
C2080 N2079 1.351 . S
C2080 C2081 1.434 . S
C2081 C2072 1.429 . S
C2081 N2078 1.350 . S
C2081 C2080 1.434 . S
C2082 C2083 1.369 . S
C2082 C2084 1.419 . S
C2082 H2086 0.930 . S
C2083 C2082 1.369 . S
C2083 C2092 1.429 . S
C2084 C2082 1.419 . S
C2084 C2085 1.363 . S
C2084 H2087 0.929 . S
C2085 C2084 1.363 . S
C2085 C2091 1.428 . S
H2086 C2082 0.930 . S
H2087 C2084 0.929 . S
S2088 N2089 1.613 . S
S2088 N2090 1.610 . S
N2089 S2088 1.613 . S
N2089 C2092 1.350 . S
N2090 S2088 1.610 . S
N2090 C2091 1.351 . S
C2091 C2085 1.428 . S
C2091 N2090 1.351 . S
C2091 C2092 1.434 . S
C2092 C2083 1.429 . S
C2092 N2089 1.350 . S
C2092 C2091 1.434 . S
C2093 C2094 1.369 . S
C2093 C2095 1.419 . S
C2093 H2097 0.930 . S
C2094 C2093 1.369 . S
C2094 C2103 1.429 . S
C2095 C2093 1.419 . S
C2095 C2096 1.363 . S
C2095 H2098 0.929 . S
C2096 C2095 1.363 . S
C2096 C2102 1.428 . S
H2097 C2093 0.930 . S
H2098 C2095 0.929 . S
S2099 N2100 1.613 . S
S2099 N2101 1.610 . S
N2100 S2099 1.613 . S
N2100 C2103 1.350 . S
N2101 S2099 1.610 . S
N2101 C2102 1.351 . S
C2102 C2096 1.428 . S
C2102 N2101 1.351 . S
C2102 C2103 1.434 . S
C2103 C2094 1.429 . S
C2103 N2100 1.350 . S
C2103 C2102 1.434 . S
C2104 C2105 1.369 . S
C2104 C2106 1.419 . S
C2104 H2108 0.930 . S
C2105 C2104 1.369 . S
C2105 C2114 1.429 . S
C2106 C2104 1.419 . S
C2106 C2107 1.363 . S
C2106 H2109 0.929 . S
C2107 C2106 1.363 . S
C2107 C2113 1.428 . S
H2108 C2104 0.930 . S
H2109 C2106 0.929 . S
S2110 N2111 1.613 . S
S2110 N2112 1.610 . S
N2111 S2110 1.613 . S
N2111 C2114 1.350 . S
N2112 S2110 1.610 . S
N2112 C2113 1.351 . S
C2113 C2107 1.428 . S
C2113 N2112 1.351 . S
C2113 C2114 1.434 . S
C2114 C2105 1.429 . S
C2114 N2111 1.350 . S
C2114 C2113 1.434 . S
C2115 C2116 1.369 . S
C2115 C2117 1.419 . S
C2115 H2119 0.930 . S
C2116 C2115 1.369 . S
C2116 C2125 1.429 . S
C2117 C2115 1.419 . S
C2117 C2118 1.363 . S
C2117 H2120 0.929 . S
C2118 C2117 1.363 . S
C2118 C2124 1.428 . S
H2119 C2115 0.930 . S
H2120 C2117 0.929 . S
S2121 N2122 1.613 . S
S2121 N2123 1.610 . S
N2122 S2121 1.613 . S
N2122 C2125 1.350 . S
N2123 S2121 1.610 . S
N2123 C2124 1.351 . S
C2124 C2118 1.428 . S
C2124 N2123 1.351 . S
C2124 C2125 1.434 . S
C2125 C2116 1.429 . S
C2125 N2122 1.350 . S
C2125 C2124 1.434 . S
C2126 C2127 1.369 . S
C2126 C2128 1.419 . S
C2126 H2130 0.930 . S
C2127 C2126 1.369 . S
C2127 C2136 1.429 . S
C2128 C2126 1.419 . S
C2128 C2129 1.363 . S
C2128 H2131 0.929 . S
C2129 C2128 1.363 . S
C2129 C2135 1.428 . S
H2130 C2126 0.930 . S
H2131 C2128 0.929 . S
S2132 N2133 1.613 . S
S2132 N2134 1.610 . S
N2133 S2132 1.613 . S
N2133 C2136 1.350 . S
N2134 S2132 1.610 . S
N2134 C2135 1.351 . S
C2135 C2129 1.428 . S
C2135 N2134 1.351 . S
C2135 C2136 1.434 . S
C2136 C2127 1.429 . S
C2136 N2133 1.350 . S
C2136 C2135 1.434 . S
C2137 C2138 1.369 . S
C2137 C2139 1.419 . S
C2137 H2141 0.930 . S
C2138 C2137 1.369 . S
C2138 C2147 1.429 . S
C2139 C2137 1.419 . S
C2139 C2140 1.363 . S
C2139 H2142 0.929 . S
C2140 C2139 1.363 . S
C2140 C2146 1.428 . S
H2141 C2137 0.930 . S
H2142 C2139 0.929 . S
S2143 N2144 1.613 . S
S2143 N2145 1.610 . S
N2144 S2143 1.613 . S
N2144 C2147 1.350 . S
N2145 S2143 1.610 . S
N2145 C2146 1.351 . S
C2146 C2140 1.428 . S
C2146 N2145 1.351 . S
C2146 C2147 1.434 . S
C2147 C2138 1.429 . S
C2147 N2144 1.350 . S
C2147 C2146 1.434 . S
C2148 C2149 1.369 . S
C2148 C2150 1.419 . S
C2148 H2152 0.930 . S
C2149 C2148 1.369 . S
C2149 C2158 1.429 . S
C2150 C2148 1.419 . S
C2150 C2151 1.363 . S
C2150 H2153 0.929 . S
C2151 C2150 1.363 . S
C2151 C2157 1.428 . S
H2152 C2148 0.930 . S
H2153 C2150 0.929 . S
S2154 N2155 1.613 . S
S2154 N2156 1.610 . S
N2155 S2154 1.613 . S
N2155 C2158 1.350 . S
N2156 S2154 1.610 . S
N2156 C2157 1.351 . S
C2157 C2151 1.428 . S
C2157 N2156 1.351 . S
C2157 C2158 1.434 . S
C2158 C2149 1.429 . S
C2158 N2155 1.350 . S
C2158 C2157 1.434 . S
C2159 C2160 1.369 . S
C2159 C2161 1.419 . S
C2159 H2163 0.930 . S
C2160 C2159 1.369 . S
C2160 C2169 1.429 . S
C2161 C2159 1.419 . S
C2161 C2162 1.363 . S
C2161 H2164 0.929 . S
C2162 C2161 1.363 . S
C2162 C2168 1.428 . S
H2163 C2159 0.930 . S
H2164 C2161 0.929 . S
S2165 N2166 1.613 . S
S2165 N2167 1.610 . S
N2166 S2165 1.613 . S
N2166 C2169 1.350 . S
N2167 S2165 1.610 . S
N2167 C2168 1.351 . S
C2168 C2162 1.428 . S
C2168 N2167 1.351 . S
C2168 C2169 1.434 . S
C2169 C2160 1.429 . S
C2169 N2166 1.350 . S
C2169 C2168 1.434 . S
C2170 C2171 1.369 . S
C2170 C2172 1.419 . S
C2170 H2174 0.930 . S
C2171 C2170 1.369 . S
C2171 C2180 1.429 . S
C2172 C2170 1.419 . S
C2172 C2173 1.363 . S
C2172 H2175 0.929 . S
C2173 C2172 1.363 . S
C2173 C2179 1.428 . S
H2174 C2170 0.930 . S
H2175 C2172 0.929 . S
S2176 N2177 1.613 . S
S2176 N2178 1.610 . S
N2177 S2176 1.613 . S
N2177 C2180 1.350 . S
N2178 S2176 1.610 . S
N2178 C2179 1.351 . S
C2179 C2173 1.428 . S
C2179 N2178 1.351 . S
C2179 C2180 1.434 . S
C2180 C2171 1.429 . S
C2180 N2177 1.350 . S
C2180 C2179 1.434 . S
C2181 C2182 1.369 . S
C2181 C2183 1.419 . S
C2181 H2185 0.930 . S
C2182 C2181 1.369 . S
C2182 C2191 1.429 . S
C2183 C2181 1.419 . S
C2183 C2184 1.363 . S
C2183 H2186 0.929 . S
C2184 C2183 1.363 . S
C2184 C2190 1.428 . S
H2185 C2181 0.930 . S
H2186 C2183 0.929 . S
S2187 N2188 1.613 . S
S2187 N2189 1.610 . S
N2188 S2187 1.613 . S
N2188 C2191 1.350 . S
N2189 S2187 1.610 . S
N2189 C2190 1.351 . S
C2190 C2184 1.428 . S
C2190 N2189 1.351 . S
C2190 C2191 1.434 . S
C2191 C2182 1.429 . S
C2191 N2188 1.350 . S
C2191 C2190 1.434 . S
C2192 C2193 1.369 . S
C2192 C2194 1.419 . S
C2192 H2196 0.930 . S
C2193 C2192 1.369 . S
C2193 C2202 1.429 . S
C2194 C2192 1.419 . S
C2194 C2195 1.363 . S
C2194 H2197 0.929 . S
C2195 C2194 1.363 . S
C2195 C2201 1.428 . S
H2196 C2192 0.930 . S
H2197 C2194 0.929 . S
S2198 N2199 1.613 . S
S2198 N2200 1.610 . S
N2199 S2198 1.613 . S
N2199 C2202 1.350 . S
N2200 S2198 1.610 . S
N2200 C2201 1.351 . S
C2201 C2195 1.428 . S
C2201 N2200 1.351 . S
C2201 C2202 1.434 . S
C2202 C2193 1.429 . S
C2202 N2199 1.350 . S
C2202 C2201 1.434 . S
C2203 C2204 1.369 . S
C2203 C2205 1.419 . S
C2203 H2207 0.930 . S
C2204 C2203 1.369 . S
C2204 C2213 1.429 . S
C2205 C2203 1.419 . S
C2205 C2206 1.363 . S
C2205 H2208 0.929 . S
C2206 C2205 1.363 . S
C2206 C2212 1.428 . S
H2207 C2203 0.930 . S
H2208 C2205 0.929 . S
S2209 N2210 1.613 . S
S2209 N2211 1.610 . S
N2210 S2209 1.613 . S
N2210 C2213 1.350 . S
N2211 S2209 1.610 . S
N2211 C2212 1.351 . S
C2212 C2206 1.428 . S
C2212 N2211 1.351 . S
C2212 C2213 1.434 . S
C2213 C2204 1.429 . S
C2213 N2210 1.350 . S
C2213 C2212 1.434 . S
C1225 C135 1.540 . S
C1227 C33 1.540 . S
C1236 C67 1.542 . S
C1238 C169 1.542 . S
C1247 C203 1.542 . S
C1249 C101 1.542 . S
C1258 C339 1.540 . S
C1260 C237 1.541 . S
C1269 C271 1.540 . S
C1271 C373 1.540 . S
C1280 C407 1.542 . S
C1282 C305 1.541 . S
C1291 C543 1.540 . S
C1293 C441 1.541 . S
C1302 C475 1.541 . S
C1304 C577 1.542 . S
C1313 C611 1.542 . S
C1315 C509 1.542 . S
C1324 C645 1.540 . S
C1326 C747 1.540 . S
C1335 C679 1.542 . S
C1337 C781 1.542 . S
C1346 C815 1.542 . S
C1348 C713 1.541 . S
C1357 C951 1.540 . S
C1359 C849 1.540 . S
C1368 C985 1.541 . S
C1370 C883 1.541 . S
C1379 C1019 1.540 . S
C1381 C917 1.540 . S
C1390 C1155 1.540 . S
C1392 C1053 1.541 . S
C1401 C1087 1.541 . S
C1403 C1189 1.541 . S
C1412 C1223 1.540 . S
C1414 C1121 1.540 . S
C1423 C2 2.279 . S
C1425 C988 2.281 . S
C1434 C920 2.280 . S
C1436 C36 2.280 1_565 S
C1445 C70 2.280 1_455 S
C1447 C954 2.280 . S
C1456 C444 2.280 . S
C1458 C104 2.281 . S
C1467 C138 2.281 1_545 S
C1469 C478 2.280 . S
C1478 C410 2.281 . S
C1480 C172 2.280 1_655 S
C1489 C784 2.281 . S
C1491 C206 2.280 . S
C1500 C716 2.281 . S
C1502 C240 2.280 1_545 S
C1511 C750 2.280 . S
C1513 C274 2.280 1_655 S
C1522 C308 2.280 . S
C1524 C1056 2.280 . S
C1533 C1090 2.280 . S
C1535 C342 2.281 1_565 S
C1544 C376 2.280 1_455 S
C1546 C1022 2.280 . S
C1555 C852 2.279 . S
C1557 C512 2.281 . S
C1566 C886 2.280 . S
C1568 C546 2.280 . S
C1577 C818 2.279 . S
C1579 C580 2.281 . S
C1588 C614 2.279 . S
C1590 C1192 2.280 . S
C1599 C648 2.280 . S
C1601 C1124 2.280 . S
C1610 C1158 2.280 . S
C1612 C682 2.281 . S
C1621 C5 1.578 . S
C1623 C617 1.574 . S
C1632 C651 1.574 . S
C1634 C39 1.577 . S
C1643 C73 1.576 . S
C1645 C685 1.575 . S
C1654 C1127 1.573 . S
C1656 C107 1.578 . S
C1665 C141 1.573 . S
C1667 C1161 1.578 . S
C1676 C1195 1.580 . S
C1678 C175 1.573 . S
C1687 C209 1.572 . S
C1689 C821 1.579 . S
C1698 C243 1.572 . S
C1700 C855 1.579 . S
C1709 C277 1.581 . S
C1711 C889 1.573 . S
C1720 C515 1.576 . S
C1722 C311 1.576 . S
C1731 C549 1.581 . S
C1733 C345 1.572 . S
C1742 C379 1.575 . S
C1744 C583 1.577 . S
C1753 C413 1.581 . S
C1755 C1025 1.573 . S
C1764 C1059 1.576 . S
C1766 C447 1.576 . S
C1775 C481 1.575 . S
C1777 C1093 1.577 . S
C1786 C923 1.579 . S
C1788 C719 1.573 . S
C1797 C753 1.576 . S
C1799 C957 1.576 . S
C1808 C991 1.581 . S
C1810 C787 1.573 . S
C1819 C247 1.190 . S
C1821 C20 1.193 . S
C1830 C54 1.191 . S
C1832 C281 1.183 . S
C1841 C88 1.189 . S
C1843 C213 1.185 . S
C1852 C122 1.193 . S
C1854 C383 1.190 . S
C1863 C156 1.191 . S
C1865 C315 1.183 . S
C1874 C190 1.188 . S
C1876 C349 1.189 . S
C1885 C43 1.181 . S
C1887 C224 1.191 . S
C1896 C77 1.181 . S
C1898 C258 1.191 . S
C1907 C9 1.183 . S
C1909 C292 1.196 . S
C1918 C326 1.188 . S
C1920 C179 1.185 . S
C1929 C360 1.197 . S
C1931 C111 1.187 . S
C1940 C394 1.197 . S
C1942 C145 1.186 . S
C1951 C428 1.190 . S
C1953 C655 1.190 . S
C1962 C689 1.190 . S
C1964 C462 1.189 . S
C1973 C621 1.190 . S
C1975 C496 1.189 . S
C1984 C530 1.193 . S
C1986 C791 1.189 . S
C1995 C723 1.181 . S
C1997 C564 1.195 . S
C2006 C757 1.190 . S
C2008 C598 1.193 . S
C2017 C632 1.196 . S
C2019 C451 1.188 . S
C2028 C666 1.193 . S
C2030 C485 1.182 . S
C2039 C417 1.180 . S
C2041 C700 1.194 . S
C2050 C587 1.182 . S
C2052 C734 1.190 . S
C2061 C519 1.185 . S
C2063 C768 1.189 . S
C2072 C553 1.186 . S
C2074 C802 1.196 . S
C2083 C836 1.197 . S
C2085 C1063 1.183 . S
C2094 C1097 1.180 . S
C2096 C870 1.195 . S
C2105 C1029 1.190 . S
C2107 C904 1.193 . S
C2116 C938 1.187 . S
C2118 C1199 1.188 . S
C2127 C972 1.188 . S
C2129 C1131 1.189 . S
C2138 C1006 1.187 . S
C2140 C1165 1.187 . S
C2149 C859 1.183 . S
C2151 C1040 1.190 . S
C2160 C893 1.185 . S
C2162 C1074 1.196 . S
C2171 C1108 1.196 . S
C2173 C825 1.188 . S
C2182 C1142 1.188 . S
C2184 C995 1.186 . S
C2193 C1176 1.189 . S
C2195 C927 1.184 . S
C2204 C1210 1.192 . S
C2206 C961 1.190 . S
