# Generated by pormake.
# Topology uot, (4)-cn, num edge types: 1
# Building blocks:
#     Node 0, Type 0, BuildingBlock: UXUYUI_clean_sbu_0, # of connection points: 4
#     Node 1, Type 0, BuildingBlock: UXUYUI_clean_sbu_0, # of connection points: 4
#     Node 2, Type 0, BuildingBlock: UXUYUI_clean_sbu_0, # of connection points: 4
#     Node 3, Type 0, BuildingBlock: UXUYUI_clean_sbu_0, # of connection points: 4
#     Node 4, Type 0, BuildingBlock: UXUYUI_clean_sbu_0, # of connection points: 4
#     Node 5, Type 0, BuildingBlock: UXUYUI_clean_sbu_0, # of connection points: 4
#     Node 6, Type 0, BuildingBlock: UXUYUI_clean_sbu_0, # of connection points: 4
#     Node 7, Type 0, BuildingBlock: UXUYUI_clean_sbu_0, # of connection points: 4
#     Node 8, Type 0, BuildingBlock: UXUYUI_clean_sbu_0, # of connection points: 4
#     Node 9, Type 0, BuildingBlock: UXUYUI_clean_sbu_0, # of connection points: 4
#     Node 10, Type 0, BuildingBlock: UXUYUI_clean_sbu_0, # of connection points: 4
#     Node 11, Type 0, BuildingBlock: UXUYUI_clean_sbu_0, # of connection points: 4
#     Node 12, Type 0, BuildingBlock: UXUYUI_clean_sbu_0, # of connection points: 4
#     Node 13, Type 0, BuildingBlock: UXUYUI_clean_sbu_0, # of connection points: 4
#     Node 14, Type 0, BuildingBlock: UXUYUI_clean_sbu_0, # of connection points: 4
#     Node 15, Type 0, BuildingBlock: UXUYUI_clean_sbu_0, # of connection points: 4
#     Edge 16, Type (0, 0), None
#     Edge 17, Type (0, 0), None
#     Edge 18, Type (0, 0), None
#     Edge 19, Type (0, 0), None
#     Edge 20, Type (0, 0), None
#     Edge 21, Type (0, 0), None
#     Edge 22, Type (0, 0), None
#     Edge 23, Type (0, 0), None
#     Edge 24, Type (0, 0), None
#     Edge 25, Type (0, 0), None
#     Edge 26, Type (0, 0), None
#     Edge 27, Type (0, 0), None
#     Edge 28, Type (0, 0), None
#     Edge 29, Type (0, 0), None
#     Edge 30, Type (0, 0), None
#     Edge 31, Type (0, 0), None
#     Edge 32, Type (0, 0), None
#     Edge 33, Type (0, 0), None
#     Edge 34, Type (0, 0), None
#     Edge 35, Type (0, 0), None
#     Edge 36, Type (0, 0), None
#     Edge 37, Type (0, 0), None
#     Edge 38, Type (0, 0), None
#     Edge 39, Type (0, 0), None
#     Edge 40, Type (0, 0), None
#     Edge 41, Type (0, 0), None
#     Edge 42, Type (0, 0), None
#     Edge 43, Type (0, 0), None
#     Edge 44, Type (0, 0), None
#     Edge 45, Type (0, 0), None
#     Edge 46, Type (0, 0), None
#     Edge 47, Type (0, 0), None
# Relax obj value: 0.272
# Max RMSD: 0.247
# Mean RMSD: 0.247
data_MOF--net-uot--node1-UXUYUI_clean_sbu_0--edge1-none
_symmetry_space_group_name_H-M    P1
_symmetry_Int_Tables_number       1
_symmetry_cell_setting            triclinic
loop_
_symmetry_equiv_pos_as_xyz
'x, y, z'
_cell_length_a     40.039084
_cell_length_b     39.892318
_cell_length_c     37.349332
_cell_angle_alpha  89.999998
_cell_angle_beta   90.0
_cell_angle_gamma 89.999998
loop_
_atom_site_label
_atom_site_type_symbol
_atom_site_fract_x
_atom_site_fract_y
_atom_site_fract_z
_atom_type_partial_charge
Li0 Li 0.21069 0.47527 0.29802 0.0
Li1 Li 0.21182 0.45557 0.36334 0.0
Li2 Li 0.2451 0.42806 0.31698 0.0
Li3 Li 0.18653 0.42209 0.31597 0.0
C4 C 0.28125 0.48109 0.32541 0.0
N5 N 0.34807 0.48842 0.30879 0.0
C6 C 0.30557 0.47611 0.35172 0.0
C7 C 0.29087 0.48986 0.29069 0.0
C8 C 0.33924 0.47991 0.34277 0.0
C9 C 0.32479 0.49346 0.28282 0.0
C10 C 0.13937 0.46718 0.32948 0.0
C11 C 0.08547 0.4494 0.35124 0.0
N12 N 0.07073 0.46388 0.32231 0.0
C13 C 0.12364 0.48213 0.30012 0.0
C14 C 0.12011 0.45092 0.35542 0.0
C15 C 0.08893 0.48012 0.29694 0.0
C16 C 0.1962 0.5096 0.23366 0.0
N17 N 0.20354 0.51339 0.26895 0.0
C18 C 0.18801 0.57113 0.26702 0.0
C19 C 0.20051 0.54349 0.28561 0.0
C20 C 0.17838 0.56763 0.23099 0.0
C21 C 0.18367 0.53661 0.214 0.0
H22 H 0.19822 0.48516 0.22137 0.0
H23 H 0.20586 0.54546 0.31392 0.0
C24 C 0.23722 0.46453 0.43295 0.0
N25 N 0.2105 0.47063 0.4115 0.0
C26 C 0.23762 0.47638 0.46813 0.0
C27 C 0.18248 0.49954 0.45881 0.0
C28 C 0.18338 0.48771 0.42362 0.0
C29 C 0.21 0.49416 0.4814 0.0
H30 H 0.25825 0.45054 0.42265 0.0
H31 H 0.16255 0.49234 0.40588 0.0
C32 C 0.22088 0.40428 0.25254 0.0
N33 N 0.23184 0.34928 0.20913 0.0
C34 C 0.21919 0.37193 0.26673 0.0
C35 C 0.22815 0.40868 0.21625 0.0
C36 C 0.22479 0.34444 0.24437 0.0
C37 C 0.23361 0.38055 0.19474 0.0
C38 C 0.20654 0.38185 0.3756 0.0
C39 C 0.2182 0.34926 0.36974 0.0
C40 C 0.18448 0.38804 0.40384 0.0
C41 C 0.20702 0.32329 0.39178 0.0
C42 C 0.17391 0.3614 0.42531 0.0
N43 N 0.18526 0.32984 0.41885 0.0
C44 C 0.29675 0.38865 0.34148 0.0
C45 C 0.30268 0.40109 0.27978 0.0
C46 C 0.32415 0.36723 0.34032 0.0
N47 N 0.28612 0.40442 0.31139 0.0
C48 C 0.33049 0.3799 0.27741 0.0
C49 C 0.34122 0.36212 0.30787 0.0
H50 H 0.28317 0.3919 0.36627 0.0
H51 H 0.29385 0.41417 0.25627 0.0
C52 C 0.13533 0.40423 0.27115 0.0
N53 N 0.14932 0.39436 0.30257 0.0
C54 C 0.10677 0.38848 0.25821 0.0
C55 C 0.10826 0.35113 0.30913 0.0
C56 C 0.13659 0.36812 0.32153 0.0
C57 C 0.09279 0.36175 0.27741 0.0
H58 H 0.1461 0.42494 0.25645 0.0
H59 H 0.14793 0.36052 0.34637 0.0
O60 O 0.24823 0.47634 0.3332 0.0
O61 O 0.17343 0.46808 0.33254 0.0
O62 O 0.21603 0.43165 0.27402 0.0
O63 O 0.21761 0.40763 0.35454 0.0
H64 H 0.29856 0.46908 0.37864 0.0
H65 H 0.27235 0.49346 0.26993 0.0
H66 H 0.35835 0.47599 0.3628 0.0
H67 H 0.33262 0.5001 0.25602 0.0
H68 H 0.07031 0.43663 0.37097 0.0
H69 H 0.13805 0.49482 0.27975 0.0
H70 H 0.13177 0.43927 0.37833 0.0
H71 H 0.07648 0.49137 0.27421 0.0
H72 H 0.18386 0.59431 0.28143 0.0
H73 H 0.17684 0.53285 0.18623 0.0
H74 H 0.25913 0.47141 0.48491 0.0
H75 H 0.16083 0.51333 0.46805 0.0
H76 H 0.21362 0.36808 0.29468 0.0
H77 H 0.22981 0.43357 0.20487 0.0
H78 H 0.22356 0.31926 0.25505 0.0
H79 H 0.23934 0.38359 0.16662 0.0
H80 H 0.23578 0.34403 0.34845 0.0
H81 H 0.17559 0.41309 0.40919 0.0
H82 H 0.21573 0.29795 0.38743 0.0
H83 H 0.1567 0.36583 0.44713 0.0
H84 H 0.33086 0.35372 0.3644 0.0
H85 H 0.34307 0.37707 0.25193 0.0
H86 H 0.09571 0.39708 0.23338 0.0
H87 H 0.09805 0.33055 0.32457 0.0
Li88 Li 0.4165 0.823 0.67926 0.0
Li89 Li 0.47122 0.80437 0.70011 0.0
Li90 Li 0.45501 0.7974 0.63708 0.0
Li91 Li 0.42999 0.76306 0.68431 0.0
C92 C 0.47608 0.86039 0.64089 0.0
N93 N 0.50824 0.90056 0.59141 0.0
C94 C 0.51019 0.86714 0.64445 0.0
C95 C 0.45834 0.87416 0.61221 0.0
C96 C 0.52599 0.88752 0.61916 0.0
C97 C 0.47505 0.89435 0.58745 0.0
C98 C 0.43429 0.80358 0.75752 0.0
C99 C 0.45703 0.78738 0.81472 0.0
N100 N 0.45198 0.81907 0.82705 0.0
C101 C 0.42915 0.83594 0.77077 0.0
C102 C 0.44818 0.77903 0.77966 0.0
C103 C 0.43832 0.84328 0.806 0.0
C104 C 0.35544 0.84772 0.70658 0.0
N105 N 0.38339 0.85623 0.68801 0.0
C106 C 0.3697 0.91435 0.69238 0.0
C107 C 0.39055 0.88872 0.68032 0.0
C108 C 0.34132 0.90652 0.7129 0.0
C109 C 0.33382 0.87258 0.71916 0.0
H110 H 0.35083 0.82173 0.71318 0.0
H111 H 0.41346 0.89494 0.66662 0.0
C112 C 0.53267 0.79778 0.73974 0.0
N113 N 0.50691 0.81813 0.73019 0.0
C114 C 0.56059 0.81118 0.75723 0.0
C115 C 0.53429 0.86574 0.75534 0.0
C116 C 0.50686 0.8513 0.73844 0.0
C117 C 0.56189 0.84575 0.76414 0.0
H118 H 0.53218 0.77155 0.73249 0.0
H119 H 0.48612 0.86687 0.73022 0.0
C120 C 0.37519 0.79313 0.63506 0.0
N121 N 0.30951 0.80766 0.61854 0.0
C122 C 0.34926 0.77606 0.65224 0.0
C123 C 0.36774 0.81743 0.60933 0.0
C124 C 0.31621 0.78379 0.64354 0.0
C125 C 0.33437 0.82447 0.60141 0.0
C126 C 0.48716 0.73227 0.66794 0.0
C127 C 0.49217 0.71647 0.63497 0.0
C128 C 0.49118 0.71411 0.69964 0.0
C129 C 0.50073 0.68252 0.63428 0.0
C130 C 0.49972 0.6802 0.69782 0.0
N131 N 0.50426 0.66524 0.66545 0.0
C132 C 0.50348 0.80356 0.58247 0.0
C133 C 0.44948 0.78855 0.56221 0.0
C134 C 0.51556 0.80381 0.54743 0.0
N135 N 0.47083 0.79673 0.58908 0.0
C136 C 0.46067 0.78765 0.52681 0.0
C137 C 0.49411 0.79573 0.51884 0.0
H138 H 0.52016 0.809 0.60446 0.0
H139 H 0.42382 0.78237 0.56832 0.0
C140 C 0.39188 0.71435 0.72226 0.0
N141 N 0.40995 0.72049 0.69215 0.0
C142 C 0.37066 0.6865 0.72385 0.0
C143 C 0.38905 0.67077 0.66455 0.0
C144 C 0.40933 0.69914 0.66384 0.0
C145 C 0.36817 0.6649 0.69417 0.0
H146 H 0.39214 0.73228 0.74397 0.0
H147 H 0.42304 0.70521 0.63979 0.0
O148 O 0.46021 0.84015 0.66511 0.0
O149 O 0.42624 0.7961 0.72287 0.0
O150 O 0.40772 0.78628 0.64355 0.0
O151 O 0.47855 0.7654 0.66915 0.0
H152 H 0.5245 0.85637 0.66613 0.0
H153 H 0.43199 0.86911 0.60895 0.0
H154 H 0.55239 0.89281 0.6215 0.0
H155 H 0.46164 0.90503 0.56504 0.0
H156 H 0.46795 0.76868 0.83213 0.0
H157 H 0.41857 0.85528 0.75393 0.0
H158 H 0.45221 0.75386 0.7698 0.0
H159 H 0.43468 0.86827 0.81657 0.0
H160 H 0.37698 0.94011 0.68758 0.0
H161 H 0.31218 0.86537 0.73475 0.0
H162 H 0.5816 0.79512 0.76351 0.0
H163 H 0.53442 0.89248 0.76047 0.0
H164 H 0.35451 0.75727 0.6723 0.0
H165 H 0.3875 0.83076 0.59567 0.0
H166 H 0.29589 0.77087 0.65673 0.0
H167 H 0.32823 0.8433 0.58163 0.0
H168 H 0.48923 0.7302 0.61019 0.0
H169 H 0.48748 0.72602 0.72534 0.0
H170 H 0.50452 0.6699 0.60897 0.0
H171 H 0.50272 0.66577 0.72213 0.0
H172 H 0.54138 0.81062 0.54297 0.0
H173 H 0.44329 0.7803 0.50607 0.0
H174 H 0.35476 0.68335 0.74705 0.0
H175 H 0.38847 0.65459 0.64129 0.0
Li176 Li 0.75553 0.57326 0.31698 0.0
Li177 Li 0.8141 0.57923 0.31598 0.0
Li178 Li 0.78993 0.52605 0.29802 0.0
Li179 Li 0.78881 0.54575 0.36334 0.0
C180 C 0.77975 0.59704 0.25254 0.0
N181 N 0.76879 0.65204 0.20912 0.0
C182 C 0.78143 0.62939 0.26673 0.0
C183 C 0.77247 0.59264 0.21625 0.0
C184 C 0.77583 0.65688 0.24437 0.0
C185 C 0.76701 0.62076 0.19474 0.0
C186 C 0.79408 0.61947 0.3756 0.0
C187 C 0.82672 0.63992 0.42531 0.0
N188 N 0.81536 0.67148 0.41885 0.0
C189 C 0.78242 0.65206 0.36974 0.0
C190 C 0.81614 0.61328 0.40384 0.0
C191 C 0.7936 0.67803 0.39178 0.0
C192 C 0.70388 0.61267 0.34149 0.0
N193 N 0.7145 0.5969 0.31139 0.0
C194 C 0.67013 0.62142 0.27741 0.0
C195 C 0.69794 0.60024 0.27978 0.0
C196 C 0.6594 0.6392 0.30787 0.0
C197 C 0.67648 0.63409 0.34033 0.0
H198 H 0.71745 0.60942 0.36627 0.0
H199 H 0.70677 0.58715 0.25627 0.0
C200 C 0.8653 0.59709 0.27115 0.0
N201 N 0.8513 0.60696 0.30257 0.0
C202 C 0.89385 0.61284 0.25821 0.0
C203 C 0.89237 0.65019 0.30913 0.0
C204 C 0.86403 0.6332 0.32153 0.0
C205 C 0.90784 0.63957 0.27741 0.0
H206 H 0.85453 0.57638 0.25645 0.0
H207 H 0.85269 0.6408 0.34637 0.0
C208 C 0.71937 0.52023 0.32541 0.0
N209 N 0.65255 0.5129 0.3088 0.0
C210 C 0.69506 0.52521 0.35172 0.0
C211 C 0.70975 0.51146 0.29069 0.0
C212 C 0.66139 0.52141 0.34277 0.0
C213 C 0.67583 0.50787 0.28282 0.0
C214 C 0.86126 0.53414 0.32948 0.0
C215 C 0.87698 0.51919 0.30012 0.0
C216 C 0.88052 0.5504 0.35543 0.0
C217 C 0.91169 0.5212 0.29694 0.0
C218 C 0.91515 0.55192 0.35124 0.0
N219 N 0.9299 0.53744 0.32232 0.0
C220 C 0.80442 0.49172 0.23366 0.0
C221 C 0.80011 0.45783 0.28561 0.0
C222 C 0.81696 0.46471 0.214 0.0
N223 N 0.79708 0.48793 0.26895 0.0
C224 C 0.81261 0.43019 0.26702 0.0
C225 C 0.82224 0.43369 0.23099 0.0
H226 H 0.8024 0.51616 0.22137 0.0
H227 H 0.79475 0.45586 0.31392 0.0
C228 C 0.7634 0.53679 0.43295 0.0
N229 N 0.79013 0.53069 0.4115 0.0
C230 C 0.763 0.52494 0.46814 0.0
C231 C 0.81814 0.50178 0.45881 0.0
C232 C 0.81724 0.51361 0.42362 0.0
C233 C 0.79062 0.50716 0.4814 0.0
H234 H 0.74237 0.55078 0.42265 0.0
H235 H 0.83807 0.50898 0.40588 0.0
O236 O 0.78459 0.56967 0.27402 0.0
O237 O 0.78301 0.59369 0.35454 0.0
O238 O 0.75239 0.52498 0.3332 0.0
O239 O 0.82719 0.53324 0.33254 0.0
H240 H 0.78701 0.63324 0.29468 0.0
H241 H 0.77081 0.56775 0.20487 0.0
H242 H 0.77706 0.68206 0.25504 0.0
H243 H 0.76129 0.61773 0.16662 0.0
H244 H 0.84392 0.63549 0.44713 0.0
H245 H 0.76484 0.65729 0.34845 0.0
H246 H 0.82503 0.58824 0.40919 0.0
H247 H 0.7849 0.70338 0.38743 0.0
H248 H 0.65755 0.62425 0.25193 0.0
H249 H 0.66977 0.6476 0.36441 0.0
H250 H 0.90491 0.60424 0.23338 0.0
H251 H 0.90257 0.67077 0.32457 0.0
H252 H 0.70207 0.53225 0.37864 0.0
H253 H 0.72828 0.50786 0.26993 0.0
H254 H 0.64227 0.52533 0.36281 0.0
H255 H 0.668 0.50122 0.25602 0.0
H256 H 0.86257 0.5065 0.27976 0.0
H257 H 0.86885 0.56205 0.37834 0.0
H258 H 0.92415 0.50994 0.27422 0.0
H259 H 0.93031 0.56469 0.37097 0.0
H260 H 0.82379 0.46847 0.18624 0.0
H261 H 0.81675 0.40701 0.28144 0.0
H262 H 0.74149 0.52991 0.48491 0.0
H263 H 0.83979 0.48799 0.46805 0.0
Li264 Li 0.58412 0.17832 0.67926 0.0
Li265 Li 0.5294 0.19695 0.70011 0.0
Li266 Li 0.54561 0.20392 0.63708 0.0
Li267 Li 0.57063 0.23826 0.68431 0.0
C268 C 0.52454 0.14093 0.64088 0.0
N269 N 0.49239 0.10076 0.5914 0.0
C270 C 0.49043 0.13418 0.64444 0.0
C271 C 0.54229 0.12716 0.6122 0.0
C272 C 0.47464 0.1138 0.61915 0.0
C273 C 0.52558 0.10697 0.58744 0.0
C274 C 0.56633 0.19773 0.75752 0.0
C275 C 0.54359 0.21393 0.81472 0.0
N276 N 0.54864 0.18225 0.82704 0.0
C277 C 0.57148 0.16538 0.77077 0.0
C278 C 0.55245 0.22228 0.77966 0.0
C279 C 0.5623 0.15803 0.806 0.0
C280 C 0.64519 0.1536 0.70658 0.0
N281 N 0.61724 0.14509 0.68801 0.0
C282 C 0.63093 0.08697 0.69238 0.0
C283 C 0.61008 0.1126 0.68031 0.0
C284 C 0.65931 0.0948 0.7129 0.0
C285 C 0.6668 0.12874 0.71916 0.0
H286 H 0.64979 0.17959 0.71319 0.0
H287 H 0.58717 0.10638 0.66661 0.0
C288 C 0.46795 0.20354 0.73974 0.0
N289 N 0.49371 0.18319 0.73019 0.0
C290 C 0.44003 0.19014 0.75722 0.0
C291 C 0.46633 0.13558 0.75533 0.0
C292 C 0.49376 0.15002 0.73843 0.0
C293 C 0.43873 0.15556 0.76414 0.0
H294 H 0.46844 0.22977 0.73248 0.0
H295 H 0.5145 0.13444 0.73021 0.0
C296 C 0.62543 0.20819 0.63506 0.0
N297 N 0.69112 0.19367 0.61855 0.0
C298 C 0.65137 0.22526 0.65225 0.0
C299 C 0.63289 0.18389 0.60933 0.0
C300 C 0.68442 0.21753 0.64355 0.0
C301 C 0.66626 0.17685 0.60141 0.0
C302 C 0.51346 0.26905 0.66794 0.0
C303 C 0.50846 0.28485 0.63497 0.0
C304 C 0.50945 0.28721 0.69964 0.0
C305 C 0.49989 0.3188 0.63429 0.0
C306 C 0.5009 0.32112 0.69782 0.0
N307 N 0.49636 0.33608 0.66545 0.0
C308 C 0.49714 0.19776 0.58247 0.0
C309 C 0.55114 0.21277 0.56221 0.0
C310 C 0.48507 0.19751 0.54743 0.0
N311 N 0.5298 0.20459 0.58907 0.0
C312 C 0.53995 0.21367 0.52681 0.0
C313 C 0.50651 0.20559 0.51884 0.0
H314 H 0.48046 0.19232 0.60446 0.0
H315 H 0.57681 0.21895 0.56832 0.0
C316 C 0.60874 0.28697 0.72226 0.0
N317 N 0.59067 0.28083 0.69216 0.0
C318 C 0.62996 0.31481 0.72385 0.0
C319 C 0.61158 0.33055 0.66456 0.0
C320 C 0.59129 0.30218 0.66385 0.0
C321 C 0.63245 0.33642 0.69417 0.0
H322 H 0.60848 0.26904 0.74397 0.0
H323 H 0.57759 0.29611 0.63979 0.0
O324 O 0.54042 0.16116 0.66511 0.0
O325 O 0.57438 0.20522 0.72287 0.0
O326 O 0.59291 0.21503 0.64355 0.0
O327 O 0.52208 0.23592 0.66915 0.0
H328 H 0.47613 0.14494 0.66612 0.0
H329 H 0.56864 0.13221 0.60895 0.0
H330 H 0.44824 0.1085 0.62149 0.0
H331 H 0.539 0.09629 0.56504 0.0
H332 H 0.53267 0.23263 0.83213 0.0
H333 H 0.58205 0.14604 0.75392 0.0
H334 H 0.54842 0.24746 0.7698 0.0
H335 H 0.56594 0.13305 0.81656 0.0
H336 H 0.62366 0.06121 0.68757 0.0
H337 H 0.68844 0.13595 0.73475 0.0
H338 H 0.41902 0.2062 0.7635 0.0
H339 H 0.4662 0.10884 0.76046 0.0
H340 H 0.64611 0.24405 0.67231 0.0
H341 H 0.61313 0.17056 0.59566 0.0
H342 H 0.70474 0.23045 0.65674 0.0
H343 H 0.6724 0.15802 0.58163 0.0
H344 H 0.51139 0.27112 0.61019 0.0
H345 H 0.51315 0.2753 0.72534 0.0
H346 H 0.4961 0.33142 0.60897 0.0
H347 H 0.49791 0.33554 0.72213 0.0
H348 H 0.45924 0.1907 0.54297 0.0
H349 H 0.55734 0.22102 0.50607 0.0
H350 H 0.64586 0.31797 0.74705 0.0
H351 H 0.61215 0.34673 0.64129 0.0
Li352 Li 0.18653 0.57923 0.68399 0.0
Li353 Li 0.2451 0.57327 0.68299 0.0
Li354 Li 0.21182 0.54575 0.63662 0.0
Li355 Li 0.21069 0.52605 0.70195 0.0
C356 C 0.20655 0.61947 0.62437 0.0
N357 N 0.18527 0.67149 0.58112 0.0
C358 C 0.21821 0.65206 0.63023 0.0
C359 C 0.18449 0.61328 0.59612 0.0
C360 C 0.20703 0.67803 0.60819 0.0
C361 C 0.17391 0.63993 0.57466 0.0
C362 C 0.22088 0.59704 0.74742 0.0
C363 C 0.23362 0.62076 0.80523 0.0
N364 N 0.23185 0.65203 0.79084 0.0
C365 C 0.21919 0.62939 0.73324 0.0
C366 C 0.22816 0.59264 0.78371 0.0
C367 C 0.2248 0.65688 0.7556 0.0
C368 C 0.13533 0.59709 0.72881 0.0
N369 N 0.14932 0.60697 0.69739 0.0
C370 C 0.10826 0.65019 0.69083 0.0
C371 C 0.13659 0.6332 0.67844 0.0
C372 C 0.09279 0.63957 0.72255 0.0
C373 C 0.10677 0.61285 0.74175 0.0
H374 H 0.1461 0.57638 0.74351 0.0
H375 H 0.14793 0.64081 0.65359 0.0
C376 C 0.29675 0.61267 0.65848 0.0
N377 N 0.28612 0.5969 0.68858 0.0
C378 C 0.32415 0.63409 0.65964 0.0
C379 C 0.3305 0.62141 0.72256 0.0
C380 C 0.30268 0.60023 0.72018 0.0
C381 C 0.34122 0.6392 0.6921 0.0
H382 H 0.28317 0.60942 0.63369 0.0
H383 H 0.29385 0.58714 0.7437 0.0
C384 C 0.13937 0.53415 0.67048 0.0
N385 N 0.07073 0.53745 0.67764 0.0
C386 C 0.12364 0.51919 0.69984 0.0
C387 C 0.12011 0.55041 0.64454 0.0
C388 C 0.08893 0.5212 0.70302 0.0
C389 C 0.08547 0.55193 0.64872 0.0
C390 C 0.28125 0.52023 0.67455 0.0
C391 C 0.30557 0.52521 0.64825 0.0
C392 C 0.29087 0.51146 0.70928 0.0
C393 C 0.33924 0.52141 0.6572 0.0
C394 C 0.32479 0.50786 0.71715 0.0
N395 N 0.34807 0.5129 0.69117 0.0
C396 C 0.23722 0.5368 0.56701 0.0
C397 C 0.18338 0.51361 0.57634 0.0
C398 C 0.23762 0.52495 0.53183 0.0
N399 N 0.2105 0.5307 0.58846 0.0
C400 C 0.18248 0.50178 0.54115 0.0
C401 C 0.21 0.50716 0.51856 0.0
H402 H 0.25826 0.55079 0.57731 0.0
H403 H 0.16255 0.50899 0.59408 0.0
C404 C 0.1962 0.49172 0.7663 0.0
N405 N 0.20354 0.48793 0.73102 0.0
C406 C 0.18366 0.46471 0.78596 0.0
C407 C 0.18801 0.43019 0.73295 0.0
C408 C 0.20051 0.45783 0.71436 0.0
C409 C 0.17838 0.43369 0.76897 0.0
H410 H 0.19821 0.51617 0.7786 0.0
H411 H 0.20587 0.45586 0.68604 0.0
O412 O 0.21761 0.59369 0.64543 0.0
O413 O 0.21603 0.56967 0.72594 0.0
O414 O 0.17343 0.53325 0.66742 0.0
O415 O 0.24823 0.52498 0.66676 0.0
H416 H 0.23579 0.65729 0.65152 0.0
H417 H 0.17559 0.58824 0.59077 0.0
H418 H 0.21573 0.70338 0.61254 0.0
H419 H 0.15671 0.6355 0.55283 0.0
H420 H 0.23935 0.61772 0.83335 0.0
H421 H 0.21361 0.63324 0.70529 0.0
H422 H 0.22982 0.56775 0.79509 0.0
H423 H 0.22357 0.68206 0.74493 0.0
H424 H 0.09806 0.67077 0.6754 0.0
H425 H 0.09571 0.60424 0.76658 0.0
H426 H 0.33086 0.6476 0.63556 0.0
H427 H 0.34307 0.62425 0.74804 0.0
H428 H 0.13805 0.5065 0.72021 0.0
H429 H 0.13178 0.56206 0.62163 0.0
H430 H 0.07647 0.50995 0.72574 0.0
H431 H 0.07031 0.5647 0.62899 0.0
H432 H 0.29856 0.53225 0.62132 0.0
H433 H 0.27235 0.50786 0.73003 0.0
H434 H 0.35835 0.52533 0.63716 0.0
H435 H 0.33262 0.50122 0.74394 0.0
H436 H 0.25913 0.52991 0.51505 0.0
H437 H 0.16083 0.488 0.53191 0.0
H438 H 0.17683 0.46847 0.81373 0.0
H439 H 0.18387 0.40701 0.71853 0.0
Li440 Li 0.54561 0.7974 0.36288 0.0
Li441 Li 0.57063 0.76306 0.31566 0.0
Li442 Li 0.58412 0.823 0.3207 0.0
Li443 Li 0.5294 0.80437 0.29985 0.0
C444 C 0.62543 0.79313 0.3649 0.0
N445 N 0.69112 0.80766 0.38142 0.0
C446 C 0.65137 0.77607 0.34772 0.0
C447 C 0.63289 0.81743 0.39064 0.0
C448 C 0.68442 0.7838 0.35642 0.0
C449 C 0.66626 0.82447 0.39856 0.0
C450 C 0.51346 0.73227 0.33203 0.0
C451 C 0.50091 0.6802 0.30215 0.0
N452 N 0.49636 0.66524 0.33451 0.0
C453 C 0.50846 0.71647 0.36499 0.0
C454 C 0.50945 0.71411 0.30033 0.0
C455 C 0.49989 0.68252 0.36568 0.0
C456 C 0.49714 0.80356 0.41749 0.0
N457 N 0.5298 0.79673 0.41089 0.0
C458 C 0.53995 0.78766 0.47316 0.0
C459 C 0.55114 0.78855 0.43776 0.0
C460 C 0.50651 0.79573 0.48112 0.0
C461 C 0.48506 0.80381 0.45253 0.0
H462 H 0.48046 0.809 0.3955 0.0
H463 H 0.57681 0.78237 0.43165 0.0
C464 C 0.60874 0.71435 0.27771 0.0
N465 N 0.59067 0.72049 0.30781 0.0
C466 C 0.62996 0.68651 0.27611 0.0
C467 C 0.61158 0.67078 0.33541 0.0
C468 C 0.5913 0.69914 0.33612 0.0
C469 C 0.63246 0.6649 0.3058 0.0
H470 H 0.60849 0.73229 0.25599 0.0
H471 H 0.57759 0.70521 0.36018 0.0
C472 C 0.52454 0.86039 0.35908 0.0
N473 N 0.49238 0.90055 0.40856 0.0
C474 C 0.49043 0.86714 0.35552 0.0
C475 C 0.54229 0.87416 0.38776 0.0
C476 C 0.47464 0.88752 0.38081 0.0
C477 C 0.52558 0.89435 0.41252 0.0
C478 C 0.56633 0.80359 0.24244 0.0
C479 C 0.57147 0.83594 0.22919 0.0
C480 C 0.55245 0.77904 0.22031 0.0
C481 C 0.5623 0.84329 0.19397 0.0
C482 C 0.54359 0.78738 0.18524 0.0
N483 N 0.54864 0.81907 0.17292 0.0
C484 C 0.64518 0.84772 0.29338 0.0
C485 C 0.61007 0.88872 0.31965 0.0
C486 C 0.6668 0.87259 0.2808 0.0
N487 N 0.61724 0.85623 0.31195 0.0
C488 C 0.63092 0.91436 0.30758 0.0
C489 C 0.65931 0.90652 0.28706 0.0
H490 H 0.64979 0.82174 0.28677 0.0
H491 H 0.58716 0.89494 0.33335 0.0
C492 C 0.46795 0.79778 0.26022 0.0
N493 N 0.49371 0.81813 0.26978 0.0
C494 C 0.44003 0.81117 0.24274 0.0
C495 C 0.46632 0.86574 0.24463 0.0
C496 C 0.49376 0.8513 0.26153 0.0
C497 C 0.43873 0.84575 0.23583 0.0
H498 H 0.46844 0.77155 0.26748 0.0
H499 H 0.5145 0.86687 0.26975 0.0
O500 O 0.59291 0.78629 0.35642 0.0
O501 O 0.52208 0.7654 0.33082 0.0
O502 O 0.54042 0.84016 0.33486 0.0
O503 O 0.57438 0.7961 0.27709 0.0
H504 H 0.64611 0.75727 0.32766 0.0
H505 H 0.61313 0.83076 0.4043 0.0
H506 H 0.70474 0.77088 0.34323 0.0
H507 H 0.6724 0.84331 0.41833 0.0
H508 H 0.49791 0.66578 0.27783 0.0
H509 H 0.51139 0.7302 0.38978 0.0
H510 H 0.51315 0.72602 0.27462 0.0
H511 H 0.4961 0.6699 0.39099 0.0
H512 H 0.55734 0.7803 0.49389 0.0
H513 H 0.45924 0.81062 0.457 0.0
H514 H 0.64586 0.68335 0.25291 0.0
H515 H 0.61215 0.65459 0.35867 0.0
H516 H 0.47612 0.85637 0.33384 0.0
H517 H 0.56864 0.86911 0.39101 0.0
H518 H 0.44823 0.89281 0.37847 0.0
H519 H 0.53899 0.90503 0.43493 0.0
H520 H 0.58204 0.85528 0.24604 0.0
H521 H 0.54842 0.75386 0.23016 0.0
H522 H 0.56594 0.86827 0.1834 0.0
H523 H 0.53267 0.76868 0.16784 0.0
H524 H 0.68844 0.86538 0.26521 0.0
H525 H 0.62365 0.94011 0.31239 0.0
H526 H 0.41902 0.79511 0.23646 0.0
H527 H 0.4662 0.89248 0.2395 0.0
Li528 Li 0.78993 0.47527 0.70195 0.0
Li529 Li 0.78881 0.45557 0.63662 0.0
Li530 Li 0.75553 0.42805 0.68299 0.0
Li531 Li 0.81409 0.42209 0.68399 0.0
C532 C 0.71937 0.48109 0.67455 0.0
N533 N 0.65255 0.48842 0.69117 0.0
C534 C 0.69505 0.47611 0.64825 0.0
C535 C 0.70975 0.48986 0.70928 0.0
C536 C 0.66139 0.47991 0.6572 0.0
C537 C 0.67583 0.49346 0.71715 0.0
C538 C 0.86126 0.46717 0.67048 0.0
C539 C 0.91515 0.44939 0.64872 0.0
N540 N 0.9299 0.46387 0.67765 0.0
C541 C 0.87698 0.48213 0.69985 0.0
C542 C 0.88051 0.45091 0.64454 0.0
C543 C 0.9117 0.48012 0.70302 0.0
C544 C 0.80442 0.5096 0.7663 0.0
N545 N 0.79708 0.51339 0.73102 0.0
C546 C 0.81261 0.57113 0.73295 0.0
C547 C 0.80011 0.54349 0.71436 0.0
C548 C 0.82224 0.56763 0.76898 0.0
C549 C 0.81696 0.53661 0.78596 0.0
H550 H 0.80241 0.48515 0.7786 0.0
H551 H 0.79476 0.54546 0.68604 0.0
C552 C 0.7634 0.46452 0.56701 0.0
N553 N 0.79012 0.47062 0.58847 0.0
C554 C 0.763 0.47637 0.53183 0.0
C555 C 0.81814 0.49954 0.54115 0.0
C556 C 0.81724 0.48771 0.57634 0.0
C557 C 0.79062 0.49416 0.51856 0.0
H558 H 0.74237 0.45053 0.57731 0.0
H559 H 0.83807 0.49233 0.59408 0.0
C560 C 0.77974 0.40428 0.74743 0.0
N561 N 0.76877 0.34929 0.79085 0.0
C562 C 0.78143 0.37193 0.73324 0.0
C563 C 0.77246 0.40868 0.78372 0.0
C564 C 0.77583 0.34444 0.7556 0.0
C565 C 0.767 0.38056 0.80523 0.0
C566 C 0.79408 0.38185 0.62437 0.0
C567 C 0.78241 0.34926 0.63024 0.0
C568 C 0.81613 0.38804 0.59612 0.0
C569 C 0.7936 0.32329 0.60819 0.0
C570 C 0.82671 0.36139 0.57466 0.0
N571 N 0.81535 0.32984 0.58112 0.0
C572 C 0.70388 0.38865 0.65848 0.0
C573 C 0.69794 0.40109 0.72018 0.0
C574 C 0.67647 0.36723 0.65964 0.0
N575 N 0.7145 0.40442 0.68858 0.0
C576 C 0.67012 0.37991 0.72256 0.0
C577 C 0.6594 0.36212 0.6921 0.0
H578 H 0.71745 0.3919 0.6337 0.0
H579 H 0.70677 0.41418 0.7437 0.0
C580 C 0.86529 0.40423 0.72882 0.0
N581 N 0.8513 0.39435 0.69739 0.0
C582 C 0.89385 0.38848 0.74175 0.0
C583 C 0.89236 0.35113 0.69084 0.0
C584 C 0.86403 0.36812 0.67844 0.0
C585 C 0.90783 0.36175 0.72256 0.0
H586 H 0.85452 0.42494 0.74352 0.0
H587 H 0.85269 0.36051 0.65359 0.0
O588 O 0.75239 0.47634 0.66676 0.0
O589 O 0.82719 0.46807 0.66742 0.0
O590 O 0.78459 0.43165 0.72594 0.0
O591 O 0.78301 0.40763 0.64543 0.0
H592 H 0.70207 0.46907 0.62132 0.0
H593 H 0.72828 0.49346 0.73003 0.0
H594 H 0.64227 0.47599 0.63716 0.0
H595 H 0.668 0.5001 0.74394 0.0
H596 H 0.93031 0.43662 0.62899 0.0
H597 H 0.86257 0.49482 0.72021 0.0
H598 H 0.86885 0.43926 0.62163 0.0
H599 H 0.92415 0.49137 0.72575 0.0
H600 H 0.81676 0.59431 0.71853 0.0
H601 H 0.82379 0.53285 0.81373 0.0
H602 H 0.74149 0.47141 0.51506 0.0
H603 H 0.83979 0.51333 0.53191 0.0
H604 H 0.78701 0.36808 0.70529 0.0
H605 H 0.7708 0.43357 0.79509 0.0
H606 H 0.77705 0.31927 0.74493 0.0
H607 H 0.76127 0.3836 0.83335 0.0
H608 H 0.76484 0.34403 0.65152 0.0
H609 H 0.82503 0.41308 0.59077 0.0
H610 H 0.78489 0.29794 0.61255 0.0
H611 H 0.84391 0.36582 0.55283 0.0
H612 H 0.66976 0.35371 0.63556 0.0
H613 H 0.65755 0.37707 0.74804 0.0
H614 H 0.90491 0.39708 0.76658 0.0
H615 H 0.90257 0.33055 0.6754 0.0
Li616 Li 0.42999 0.23826 0.31566 0.0
Li617 Li 0.45501 0.20392 0.36288 0.0
Li618 Li 0.47122 0.19695 0.29985 0.0
Li619 Li 0.4165 0.17832 0.3207 0.0
C620 C 0.48716 0.26905 0.33203 0.0
N621 N 0.50426 0.33609 0.33451 0.0
C622 C 0.49217 0.28486 0.36499 0.0
C623 C 0.49117 0.28721 0.30033 0.0
C624 C 0.50073 0.3188 0.36568 0.0
C625 C 0.49972 0.32112 0.30215 0.0
C626 C 0.37519 0.20819 0.3649 0.0
C627 C 0.33437 0.17685 0.39856 0.0
N628 N 0.30951 0.19366 0.38142 0.0
C629 C 0.34926 0.22525 0.34772 0.0
C630 C 0.36774 0.18389 0.39064 0.0
C631 C 0.31621 0.21752 0.35643 0.0
C632 C 0.39188 0.28697 0.27771 0.0
N633 N 0.40995 0.28083 0.30781 0.0
C634 C 0.38904 0.33055 0.33541 0.0
C635 C 0.40933 0.30218 0.33612 0.0
C636 C 0.36817 0.33642 0.3058 0.0
C637 C 0.37066 0.31481 0.27611 0.0
H638 H 0.39214 0.26904 0.25599 0.0
H639 H 0.42304 0.29611 0.36018 0.0
C640 C 0.50349 0.19776 0.41749 0.0
N641 N 0.47083 0.2046 0.41089 0.0
C642 C 0.51556 0.19752 0.45253 0.0
C643 C 0.46067 0.21367 0.47316 0.0
C644 C 0.44948 0.21277 0.43775 0.0
C645 C 0.49411 0.20559 0.48112 0.0
H646 H 0.52016 0.19233 0.3955 0.0
H647 H 0.42382 0.21895 0.43164 0.0
C648 C 0.43429 0.19774 0.24244 0.0
N649 N 0.45198 0.18225 0.17292 0.0
C650 C 0.42915 0.16538 0.22919 0.0
C651 C 0.44818 0.22229 0.22031 0.0
C652 C 0.43832 0.15804 0.19396 0.0
C653 C 0.45703 0.21394 0.18524 0.0
C654 C 0.47609 0.14093 0.35908 0.0
C655 C 0.5102 0.13418 0.35552 0.0
C656 C 0.45834 0.12716 0.38776 0.0
C657 C 0.52599 0.11381 0.3808 0.0
C658 C 0.47505 0.10697 0.41252 0.0
N659 N 0.50825 0.10077 0.40856 0.0
C660 C 0.53267 0.20354 0.26022 0.0
C661 C 0.50686 0.15002 0.26153 0.0
C662 C 0.56059 0.19015 0.24274 0.0
N663 N 0.50691 0.18319 0.26977 0.0
C664 C 0.5343 0.13558 0.24462 0.0
C665 C 0.56189 0.15557 0.23582 0.0
H666 H 0.53218 0.22977 0.26748 0.0
H667 H 0.48612 0.13445 0.26975 0.0
C668 C 0.35544 0.1536 0.29339 0.0
N669 N 0.38339 0.14509 0.31195 0.0
C670 C 0.33383 0.12873 0.28081 0.0
C671 C 0.36971 0.08696 0.30758 0.0
C672 C 0.39056 0.1126 0.31965 0.0
C673 C 0.34132 0.0948 0.28706 0.0
H674 H 0.35083 0.17958 0.28678 0.0
H675 H 0.41347 0.10638 0.33334 0.0
O676 O 0.47854 0.23592 0.33082 0.0
O677 O 0.40772 0.21504 0.35642 0.0
O678 O 0.42624 0.20522 0.27709 0.0
O679 O 0.46021 0.16117 0.33485 0.0
H680 H 0.48923 0.27112 0.38978 0.0
H681 H 0.48748 0.2753 0.27462 0.0
H682 H 0.50452 0.33142 0.39099 0.0
H683 H 0.50271 0.33555 0.27783 0.0
H684 H 0.32823 0.15801 0.41833 0.0
H685 H 0.35451 0.24405 0.32766 0.0
H686 H 0.3875 0.17056 0.4043 0.0
H687 H 0.29589 0.23044 0.34324 0.0
H688 H 0.38847 0.34673 0.35867 0.0
H689 H 0.35476 0.31797 0.25291 0.0
H690 H 0.54138 0.1907 0.457 0.0
H691 H 0.44329 0.22102 0.49389 0.0
H692 H 0.41858 0.14604 0.24604 0.0
H693 H 0.4522 0.24746 0.23016 0.0
H694 H 0.43468 0.13305 0.1834 0.0
H695 H 0.46795 0.23264 0.16784 0.0
H696 H 0.5245 0.14495 0.33384 0.0
H697 H 0.43199 0.13221 0.39101 0.0
H698 H 0.5524 0.10851 0.37846 0.0
H699 H 0.46164 0.09629 0.43492 0.0
H700 H 0.5816 0.20621 0.23646 0.0
H701 H 0.53442 0.10885 0.23949 0.0
H702 H 0.31218 0.13594 0.26522 0.0
H703 H 0.37698 0.06121 0.31238 0.0
Li704 Li 0.71069 0.97527 0.79802 0.0
Li705 Li 0.71182 0.95557 0.86334 0.0
Li706 Li 0.7451 0.92806 0.81698 0.0
Li707 Li 0.68653 0.92209 0.81598 0.0
C708 C 0.78125 0.98109 0.82541 0.0
N709 N 0.84807 0.98842 0.80879 0.0
C710 C 0.80557 0.97611 0.85172 0.0
C711 C 0.79087 0.98986 0.79068 0.0
C712 C 0.83924 0.97991 0.84277 0.0
C713 C 0.82479 0.99346 0.78282 0.0
C714 C 0.63937 0.96718 0.82948 0.0
C715 C 0.58547 0.9494 0.85124 0.0
N716 N 0.57073 0.96388 0.82231 0.0
C717 C 0.62364 0.98213 0.80012 0.0
C718 C 0.62011 0.95092 0.85542 0.0
C719 C 0.58893 0.98012 0.79694 0.0
C720 C 0.6962 0.0096 0.73366 0.0
N721 N 0.70354 0.01339 0.76894 0.0
C722 C 0.68801 0.07113 0.76702 0.0
C723 C 0.70051 0.04349 0.78561 0.0
C724 C 0.67838 0.06763 0.73099 0.0
C725 C 0.68367 0.03661 0.714 0.0
H726 H 0.69823 0.98516 0.72136 0.0
H727 H 0.70586 0.04546 0.81392 0.0
C728 C 0.73722 0.96453 0.93295 0.0
N729 N 0.7105 0.97063 0.9115 0.0
C730 C 0.73762 0.97638 0.96813 0.0
C731 C 0.68249 0.99955 0.95881 0.0
C732 C 0.68338 0.98772 0.92362 0.0
C733 C 0.71 0.99416 0.9814 0.0
H734 H 0.75826 0.95054 0.92265 0.0
H735 H 0.66255 0.99234 0.90588 0.0
C736 C 0.72088 0.90428 0.75254 0.0
N737 N 0.73184 0.84928 0.70913 0.0
C738 C 0.71919 0.87193 0.76674 0.0
C739 C 0.72815 0.90868 0.71625 0.0
C740 C 0.72479 0.84444 0.74438 0.0
C741 C 0.73361 0.88055 0.69474 0.0
C742 C 0.70655 0.88185 0.8756 0.0
C743 C 0.71821 0.84926 0.86974 0.0
C744 C 0.68449 0.88805 0.90384 0.0
C745 C 0.70703 0.8233 0.89179 0.0
C746 C 0.67391 0.86141 0.92531 0.0
N747 N 0.68527 0.82985 0.91886 0.0
C748 C 0.79675 0.88865 0.84148 0.0
C749 C 0.80268 0.90109 0.77978 0.0
C750 C 0.82415 0.86723 0.84032 0.0
N751 N 0.78612 0.90442 0.81138 0.0
C752 C 0.8305 0.8799 0.77741 0.0
C753 C 0.84122 0.86212 0.80787 0.0
H754 H 0.78317 0.8919 0.86627 0.0
H755 H 0.79385 0.91417 0.75627 0.0
C756 C 0.63533 0.90423 0.77115 0.0
N757 N 0.64932 0.89436 0.80258 0.0
C758 C 0.60677 0.88848 0.75822 0.0
C759 C 0.60826 0.85113 0.80913 0.0
C760 C 0.63659 0.86812 0.82153 0.0
C761 C 0.59279 0.86175 0.77741 0.0
H762 H 0.6461 0.92494 0.75645 0.0
H763 H 0.64793 0.86051 0.84638 0.0
O764 O 0.74823 0.97634 0.8332 0.0
O765 O 0.67343 0.96808 0.83254 0.0
O766 O 0.71603 0.93165 0.77402 0.0
O767 O 0.71761 0.90763 0.85454 0.0
H768 H 0.79856 0.96908 0.87864 0.0
H769 H 0.77235 0.99346 0.76993 0.0
H770 H 0.85835 0.97599 0.8628 0.0
H771 H 0.83262 1.0001 0.75602 0.0
H772 H 0.57031 0.93663 0.87097 0.0
H773 H 0.63805 0.99482 0.77975 0.0
H774 H 0.63177 0.93927 0.87833 0.0
H775 H 0.57648 0.99137 0.77421 0.0
H776 H 0.68386 0.09431 0.78143 0.0
H777 H 0.67684 0.03285 0.68623 0.0
H778 H 0.75913 0.97141 0.98491 0.0
H779 H 0.66083 0.01333 0.96805 0.0
H780 H 0.71362 0.86808 0.79468 0.0
H781 H 0.72981 0.93356 0.70487 0.0
H782 H 0.72357 0.81926 0.75505 0.0
H783 H 0.73933 0.88359 0.66662 0.0
H784 H 0.73579 0.84403 0.84846 0.0
H785 H 0.67559 0.91309 0.90919 0.0
H786 H 0.71573 0.79795 0.88744 0.0
H787 H 0.65671 0.86583 0.94714 0.0
H788 H 0.83086 0.85372 0.8644 0.0
H789 H 0.84307 0.87707 0.75193 0.0
H790 H 0.59571 0.89708 0.73339 0.0
H791 H 0.59806 0.83055 0.82457 0.0
Li792 Li 0.9165 0.323 0.17926 0.0
Li793 Li 0.97122 0.30437 0.20011 0.0
Li794 Li 0.95501 0.29741 0.13708 0.0
Li795 Li 0.92999 0.26306 0.18431 0.0
C796 C 0.97608 0.36039 0.14089 0.0
N797 N 0.00824 0.40056 0.09141 0.0
C798 C 0.01019 0.36714 0.14445 0.0
C799 C 0.95833 0.37417 0.11221 0.0
C800 C 0.02598 0.38752 0.11916 0.0
C801 C 0.97504 0.39435 0.08744 0.0
C802 C 0.93429 0.30358 0.25752 0.0
C803 C 0.95703 0.28738 0.31472 0.0
N804 N 0.95198 0.31907 0.32705 0.0
C805 C 0.92915 0.33594 0.27077 0.0
C806 C 0.94818 0.27903 0.27966 0.0
C807 C 0.93832 0.34328 0.306 0.0
C808 C 0.85543 0.34771 0.20658 0.0
N809 N 0.88338 0.35623 0.18801 0.0
C810 C 0.86969 0.41435 0.19238 0.0
C811 C 0.89055 0.38872 0.18032 0.0
C812 C 0.84131 0.40652 0.21291 0.0
C813 C 0.83382 0.37258 0.21916 0.0
H814 H 0.85083 0.32173 0.21319 0.0
H815 H 0.91345 0.39494 0.16662 0.0
C816 C 0.03267 0.29778 0.23974 0.0
N817 N 0.00691 0.31813 0.23019 0.0
C818 C 0.06059 0.31118 0.25722 0.0
C819 C 0.03429 0.36574 0.25534 0.0
C820 C 0.00686 0.3513 0.23844 0.0
C821 C 0.06189 0.34576 0.26414 0.0
H822 H 0.03218 0.27155 0.23248 0.0
H823 H 0.98612 0.36688 0.23021 0.0
C824 C 0.87519 0.29313 0.13506 0.0
N825 N 0.8095 0.30765 0.11855 0.0
C826 C 0.84926 0.27606 0.15224 0.0
C827 C 0.86773 0.31743 0.10933 0.0
C828 C 0.81621 0.28379 0.14354 0.0
C829 C 0.83436 0.32447 0.10141 0.0
C830 C 0.98716 0.23227 0.16794 0.0
C831 C 0.99217 0.21647 0.13497 0.0
C832 C 0.99118 0.21411 0.19964 0.0
C833 C 0.00073 0.18252 0.13428 0.0
C834 C 0.99972 0.1802 0.19781 0.0
N835 N 0.00426 0.16524 0.16545 0.0
C836 C 0.00348 0.30357 0.08247 0.0
C837 C 0.94948 0.28855 0.06221 0.0
C838 C 0.01556 0.30381 0.04744 0.0
N839 N 0.97082 0.29673 0.08908 0.0
C840 C 0.96067 0.28766 0.02681 0.0
C841 C 0.99411 0.29573 0.01884 0.0
H842 H 0.02016 0.309 0.10446 0.0
H843 H 0.92381 0.28237 0.06832 0.0
C844 C 0.89188 0.21435 0.22226 0.0
N845 N 0.90995 0.22049 0.19216 0.0
C846 C 0.87066 0.1865 0.22385 0.0
C847 C 0.88905 0.17077 0.16456 0.0
C848 C 0.90933 0.19914 0.16385 0.0
C849 C 0.86817 0.16489 0.19417 0.0
H850 H 0.89214 0.23228 0.24397 0.0
H851 H 0.92304 0.20521 0.13979 0.0
O852 O 0.9602 0.34016 0.16511 0.0
O853 O 0.92624 0.2961 0.22287 0.0
O854 O 0.90772 0.28628 0.14355 0.0
O855 O 0.97854 0.2654 0.16915 0.0
H856 H 0.02449 0.35638 0.16613 0.0
H857 H 0.93198 0.36911 0.10895 0.0
H858 H 0.05239 0.39281 0.1215 0.0
H859 H 0.96163 0.40503 0.06504 0.0
H860 H 0.96795 0.26868 0.33213 0.0
H861 H 0.91857 0.35528 0.25393 0.0
H862 H 0.9522 0.25386 0.2698 0.0
H863 H 0.93468 0.36827 0.31657 0.0
H864 H 0.87697 0.44011 0.18758 0.0
H865 H 0.81218 0.36537 0.23475 0.0
H866 H 0.0816 0.29512 0.2635 0.0
H867 H 0.03442 0.39248 0.26047 0.0
H868 H 0.85451 0.25727 0.1723 0.0
H869 H 0.88749 0.33076 0.09567 0.0
H870 H 0.79588 0.27087 0.15673 0.0
H871 H 0.82822 0.3433 0.08164 0.0
H872 H 0.98923 0.2302 0.11019 0.0
H873 H 0.98748 0.22602 0.22534 0.0
H874 H 0.00452 0.16991 0.10897 0.0
H875 H 0.00272 0.16578 0.22213 0.0
H876 H 0.04138 0.31063 0.04297 0.0
H877 H 0.94328 0.2803 0.00607 0.0
H878 H 0.85476 0.18335 0.24705 0.0
H879 H 0.88847 0.15459 0.14129 0.0
Li880 Li 0.25553 0.07326 0.81698 0.0
Li881 Li 0.31409 0.07923 0.81597 0.0
Li882 Li 0.28993 0.02605 0.79802 0.0
Li883 Li 0.28881 0.04575 0.86334 0.0
C884 C 0.27974 0.09703 0.75254 0.0
N885 N 0.26876 0.15202 0.70911 0.0
C886 C 0.28143 0.12939 0.76672 0.0
C887 C 0.27245 0.09263 0.71625 0.0
C888 C 0.27582 0.15687 0.74435 0.0
C889 C 0.26698 0.12075 0.69473 0.0
C890 C 0.29407 0.11947 0.87559 0.0
C891 C 0.3267 0.13994 0.9253 0.0
N892 N 0.31535 0.17149 0.91883 0.0
C893 C 0.28241 0.15207 0.86972 0.0
C894 C 0.31613 0.11329 0.90384 0.0
C895 C 0.29359 0.17804 0.89176 0.0
C896 C 0.20388 0.11267 0.84149 0.0
N897 N 0.2145 0.0969 0.81139 0.0
C898 C 0.17012 0.12141 0.77741 0.0
C899 C 0.19794 0.10023 0.77978 0.0
C900 C 0.1594 0.1392 0.80787 0.0
C901 C 0.17647 0.13409 0.84033 0.0
H902 H 0.21745 0.10942 0.86627 0.0
H903 H 0.20677 0.08714 0.75627 0.0
C904 C 0.36529 0.09709 0.77115 0.0
N905 N 0.3513 0.10697 0.80257 0.0
C906 C 0.39385 0.11284 0.75821 0.0
C907 C 0.39237 0.15019 0.80913 0.0
C908 C 0.36403 0.1332 0.82153 0.0
C909 C 0.40784 0.13957 0.77741 0.0
H910 H 0.35452 0.07638 0.75645 0.0
H911 H 0.35269 0.14081 0.84637 0.0
C912 C 0.21937 0.02023 0.82541 0.0
N913 N 0.15255 0.01289 0.8088 0.0
C914 C 0.19506 0.02521 0.85172 0.0
C915 C 0.20975 0.01145 0.79069 0.0
C916 C 0.16139 0.02141 0.84277 0.0
C917 C 0.17583 0.00786 0.78282 0.0
C918 C 0.36126 0.03415 0.82949 0.0
C919 C 0.37699 0.01919 0.80012 0.0
C920 C 0.38051 0.05041 0.85543 0.0
C921 C 0.4117 0.02121 0.79695 0.0
C922 C 0.41515 0.05194 0.85125 0.0
N923 N 0.4299 0.03746 0.82233 0.0
C924 C 0.30443 0.99172 0.73366 0.0
C925 C 0.30011 0.95783 0.78561 0.0
C926 C 0.31697 0.96471 0.714 0.0
N927 N 0.29708 0.98793 0.76895 0.0
C928 C 0.31261 0.93019 0.76701 0.0
C929 C 0.32225 0.93369 0.73099 0.0
H930 H 0.30241 0.01617 0.72137 0.0
H931 H 0.29475 0.95586 0.81392 0.0
C932 C 0.2634 0.0368 0.93295 0.0
N933 N 0.29013 0.0307 0.9115 0.0
C934 C 0.263 0.02494 0.96814 0.0
C935 C 0.31814 0.00178 0.95881 0.0
C936 C 0.31724 0.01361 0.92362 0.0
C937 C 0.29062 0.00716 0.9814 0.0
H938 H 0.24237 0.05079 0.92265 0.0
H939 H 0.33808 0.00899 0.90588 0.0
O940 O 0.28459 0.06967 0.77402 0.0
O941 O 0.28301 0.09369 0.85454 0.0
O942 O 0.25239 0.02497 0.8332 0.0
O943 O 0.32719 0.03325 0.83254 0.0
H944 H 0.28702 0.13324 0.79466 0.0
H945 H 0.27078 0.06773 0.70488 0.0
H946 H 0.27705 0.18205 0.75502 0.0
H947 H 0.26124 0.1177 0.66661 0.0
H948 H 0.3439 0.13552 0.94713 0.0
H949 H 0.26484 0.15729 0.84843 0.0
H950 H 0.32502 0.08825 0.9092 0.0
H951 H 0.28489 0.20338 0.8874 0.0
H952 H 0.15755 0.12425 0.75193 0.0
H953 H 0.16976 0.1476 0.86441 0.0
H954 H 0.40491 0.10424 0.73338 0.0
H955 H 0.40257 0.17077 0.82457 0.0
H956 H 0.20207 0.03225 0.87864 0.0
H957 H 0.22828 0.00785 0.76993 0.0
H958 H 0.14227 0.02533 0.86281 0.0
H959 H 0.168 0.00122 0.75602 0.0
H960 H 0.36258 0.0065 0.77976 0.0
H961 H 0.36884 0.06206 0.87834 0.0
H962 H 0.42416 0.00996 0.77423 0.0
H963 H 0.4303 0.06471 0.87098 0.0
H964 H 0.3238 0.96847 0.68624 0.0
H965 H 0.31675 0.90701 0.78143 0.0
H966 H 0.24149 0.02991 0.98491 0.0
H967 H 0.33979 0.98799 0.96805 0.0
Li968 Li 0.0294 0.69695 0.20011 0.0
Li969 Li 0.08412 0.67832 0.17926 0.0
Li970 Li 0.07063 0.73826 0.18431 0.0
Li971 Li 0.04561 0.70391 0.13708 0.0
C972 C 0.06633 0.69774 0.25752 0.0
N973 N 0.04864 0.68225 0.32704 0.0
C974 C 0.07148 0.66538 0.27077 0.0
C975 C 0.05244 0.72229 0.27966 0.0
C976 C 0.0623 0.65804 0.306 0.0
C977 C 0.04359 0.71394 0.31472 0.0
C978 C 0.02454 0.64093 0.14088 0.0
C979 C 0.02558 0.60697 0.08744 0.0
N980 N 0.99239 0.60076 0.0914 0.0
C981 C 0.99043 0.63417 0.14444 0.0
C982 C 0.04229 0.62716 0.1122 0.0
C983 C 0.97464 0.6138 0.11916 0.0
C984 C 0.96795 0.70354 0.23974 0.0
N985 N 0.99371 0.68319 0.23019 0.0
C986 C 0.96633 0.63558 0.25534 0.0
C987 C 0.99376 0.65002 0.23843 0.0
C988 C 0.93873 0.65556 0.26414 0.0
C989 C 0.94003 0.69014 0.25722 0.0
H990 H 0.96844 0.72977 0.23248 0.0
H991 H 0.0145 0.63444 0.23021 0.0
C992 C 0.14519 0.6536 0.20658 0.0
N993 N 0.11724 0.64509 0.18801 0.0
C994 C 0.1668 0.62874 0.21916 0.0
C995 C 0.13093 0.58697 0.19238 0.0
C996 C 0.11007 0.6126 0.18031 0.0
C997 C 0.15931 0.5948 0.2129 0.0
H998 H 0.14979 0.67959 0.21319 0.0
H999 H 0.08717 0.60638 0.16661 0.0
C1000 C 0.01346 0.76905 0.16793 0.0
N1001 N 0.99636 0.83608 0.16545 0.0
C1002 C 0.00846 0.78485 0.13497 0.0
C1003 C 0.00945 0.78721 0.19963 0.0
C1004 C 0.99989 0.8188 0.13428 0.0
C1005 C 0.0009 0.82112 0.19781 0.0
C1006 C 0.12543 0.70819 0.13506 0.0
C1007 C 0.15137 0.72526 0.15225 0.0
C1008 C 0.13289 0.68389 0.10933 0.0
C1009 C 0.18442 0.71753 0.14355 0.0
C1010 C 0.16626 0.67685 0.10141 0.0
N1011 N 0.19112 0.69367 0.11855 0.0
C1012 C 0.10874 0.78698 0.22226 0.0
C1013 C 0.09129 0.80218 0.16384 0.0
C1014 C 0.12995 0.81482 0.22385 0.0
N1015 N 0.09067 0.78083 0.19215 0.0
C1016 C 0.11157 0.83055 0.16455 0.0
C1017 C 0.13245 0.83643 0.19417 0.0
H1018 H 0.10848 0.76904 0.24397 0.0
H1019 H 0.07759 0.79611 0.13978 0.0
C1020 C 0.99714 0.69775 0.08247 0.0
N1021 N 0.0298 0.70459 0.08907 0.0
C1022 C 0.98506 0.69751 0.04743 0.0
C1023 C 0.03995 0.71366 0.0268 0.0
C1024 C 0.05114 0.71277 0.06221 0.0
C1025 C 0.00651 0.70559 0.01884 0.0
H1026 H 0.98046 0.69232 0.10446 0.0
H1027 H 0.07681 0.71895 0.06832 0.0
O1028 O 0.07438 0.70522 0.22287 0.0
O1029 O 0.04042 0.66116 0.16511 0.0
O1030 O 0.02208 0.73592 0.16915 0.0
O1031 O 0.09291 0.71503 0.14354 0.0
H1032 H 0.08205 0.64604 0.25393 0.0
H1033 H 0.04842 0.74746 0.2698 0.0
H1034 H 0.06594 0.63305 0.31656 0.0
H1035 H 0.03267 0.73264 0.33212 0.0
H1036 H 0.039 0.59629 0.06504 0.0
H1037 H 0.97613 0.64494 0.16613 0.0
H1038 H 0.06864 0.63221 0.10895 0.0
H1039 H 0.94824 0.6085 0.1215 0.0
H1040 H 0.9662 0.60884 0.26047 0.0
H1041 H 0.91902 0.7062 0.2635 0.0
H1042 H 0.18844 0.63595 0.23475 0.0
H1043 H 0.12366 0.56121 0.18757 0.0
H1044 H 0.01139 0.77112 0.11018 0.0
H1045 H 0.01314 0.7753 0.22534 0.0
H1046 H 0.9961 0.83141 0.10897 0.0
H1047 H 0.9979 0.83554 0.22212 0.0
H1048 H 0.14611 0.74405 0.17231 0.0
H1049 H 0.11313 0.67056 0.09566 0.0
H1050 H 0.20474 0.73045 0.15674 0.0
H1051 H 0.1724 0.65802 0.08163 0.0
H1052 H 0.14585 0.81797 0.24705 0.0
H1053 H 0.11215 0.84673 0.14129 0.0
H1054 H 0.95924 0.69069 0.04297 0.0
H1055 H 0.05734 0.72102 0.00607 0.0
Li1056 Li 0.68653 0.07923 0.18399 0.0
Li1057 Li 0.7451 0.07327 0.18299 0.0
Li1058 Li 0.71182 0.04575 0.13662 0.0
Li1059 Li 0.71069 0.02605 0.20195 0.0
C1060 C 0.70655 0.11947 0.12437 0.0
N1061 N 0.68527 0.17149 0.08112 0.0
C1062 C 0.71821 0.15207 0.13023 0.0
C1063 C 0.68449 0.11329 0.09612 0.0
C1064 C 0.70703 0.17803 0.10819 0.0
C1065 C 0.67392 0.13993 0.07466 0.0
C1066 C 0.72088 0.09704 0.24742 0.0
C1067 C 0.73363 0.12076 0.30523 0.0
N1068 N 0.73185 0.15203 0.29084 0.0
C1069 C 0.71919 0.12939 0.23324 0.0
C1070 C 0.72816 0.09264 0.28371 0.0
C1071 C 0.7248 0.15688 0.2556 0.0
C1072 C 0.63533 0.09709 0.22881 0.0
N1073 N 0.64932 0.10697 0.19739 0.0
C1074 C 0.60826 0.1502 0.19083 0.0
C1075 C 0.6366 0.1332 0.17844 0.0
C1076 C 0.59279 0.13957 0.22255 0.0
C1077 C 0.60677 0.11285 0.24175 0.0
H1078 H 0.6461 0.07638 0.24351 0.0
H1079 H 0.64793 0.14081 0.15359 0.0
C1080 C 0.79675 0.11267 0.15848 0.0
N1081 N 0.78612 0.0969 0.18858 0.0
C1082 C 0.82415 0.13409 0.15964 0.0
C1083 C 0.8305 0.12141 0.22256 0.0
C1084 C 0.80268 0.10023 0.22018 0.0
C1085 C 0.84122 0.1392 0.1921 0.0
H1086 H 0.78317 0.10942 0.13369 0.0
H1087 H 0.79385 0.08714 0.2437 0.0
C1088 C 0.63937 0.03415 0.17048 0.0
N1089 N 0.57073 0.03746 0.17764 0.0
C1090 C 0.62364 0.01919 0.19984 0.0
C1091 C 0.62011 0.05041 0.14453 0.0
C1092 C 0.58893 0.02121 0.20302 0.0
C1093 C 0.58547 0.05194 0.14871 0.0
C1094 C 0.78125 0.02023 0.17455 0.0
C1095 C 0.80557 0.02521 0.14825 0.0
C1096 C 0.79087 0.01145 0.20928 0.0
C1097 C 0.83924 0.02141 0.1572 0.0
C1098 C 0.82479 0.00786 0.21715 0.0
N1099 N 0.84807 0.01289 0.19117 0.0
C1100 C 0.73722 0.0368 0.06701 0.0
C1101 C 0.68338 0.01361 0.07634 0.0
C1102 C 0.73762 0.02495 0.03183 0.0
N1103 N 0.7105 0.0307 0.08846 0.0
C1104 C 0.68249 0.00178 0.04115 0.0
C1105 C 0.71 0.00716 0.01856 0.0
H1106 H 0.75826 0.05079 0.07731 0.0
H1107 H 0.66255 0.00899 0.09408 0.0
C1108 C 0.6962 0.99172 0.2663 0.0
N1109 N 0.70354 0.98793 0.23102 0.0
C1110 C 0.68366 0.96471 0.28596 0.0
C1111 C 0.68801 0.93019 0.23295 0.0
C1112 C 0.70051 0.95783 0.21436 0.0
C1113 C 0.67838 0.93369 0.26897 0.0
H1114 H 0.69822 0.01617 0.2786 0.0
H1115 H 0.70587 0.95586 0.18604 0.0
O1116 O 0.71761 0.09369 0.14543 0.0
O1117 O 0.71603 0.06967 0.22594 0.0
O1118 O 0.67343 0.03325 0.16742 0.0
O1119 O 0.74823 0.02498 0.16676 0.0
H1120 H 0.73579 0.15729 0.15152 0.0
H1121 H 0.6756 0.08825 0.09077 0.0
H1122 H 0.71574 0.20338 0.11254 0.0
H1123 H 0.65672 0.13551 0.05283 0.0
H1124 H 0.73935 0.11772 0.33335 0.0
H1125 H 0.71362 0.13324 0.20529 0.0
H1126 H 0.72982 0.06775 0.29509 0.0
H1127 H 0.72357 0.18206 0.24493 0.0
H1128 H 0.59806 0.17078 0.1754 0.0
H1129 H 0.59571 0.10424 0.26658 0.0
H1130 H 0.83086 0.1476 0.13556 0.0
H1131 H 0.84308 0.12425 0.24804 0.0
H1132 H 0.63805 0.0065 0.2202 0.0
H1133 H 0.63178 0.06206 0.12163 0.0
H1134 H 0.57647 0.00996 0.22574 0.0
H1135 H 0.57032 0.0647 0.12899 0.0
H1136 H 0.79856 0.03225 0.12132 0.0
H1137 H 0.77235 0.00786 0.23003 0.0
H1138 H 0.85835 0.02533 0.13716 0.0
H1139 H 0.83262 0.00122 0.24394 0.0
H1140 H 0.75913 0.02991 0.01505 0.0
H1141 H 0.66083 0.988 0.03191 0.0
H1142 H 0.67683 0.96847 0.31373 0.0
H1143 H 0.68386 0.90701 0.21853 0.0
Li1144 Li 0.04561 0.29741 0.86288 0.0
Li1145 Li 0.07063 0.26306 0.81566 0.0
Li1146 Li 0.08412 0.323 0.8207 0.0
Li1147 Li 0.0294 0.30437 0.79985 0.0
C1148 C 0.12543 0.29313 0.8649 0.0
N1149 N 0.19112 0.30766 0.88142 0.0
C1150 C 0.15137 0.27607 0.84772 0.0
C1151 C 0.13289 0.31743 0.89064 0.0
C1152 C 0.18442 0.28379 0.85642 0.0
C1153 C 0.16626 0.32447 0.89856 0.0
C1154 C 0.01346 0.23227 0.83203 0.0
C1155 C 0.00091 0.1802 0.80215 0.0
N1156 N 0.99636 0.16524 0.83452 0.0
C1157 C 0.00846 0.21647 0.865 0.0
C1158 C 0.00945 0.21411 0.80033 0.0
C1159 C 0.99989 0.18252 0.86568 0.0
C1160 C 0.99714 0.30357 0.91749 0.0
N1161 N 0.0298 0.29673 0.91089 0.0
C1162 C 0.03995 0.28766 0.97316 0.0
C1163 C 0.05114 0.28855 0.93776 0.0
C1164 C 0.00651 0.29573 0.98112 0.0
C1165 C 0.98506 0.30381 0.95253 0.0
H1166 H 0.98046 0.309 0.8955 0.0
H1167 H 0.07681 0.28237 0.93165 0.0
C1168 C 0.10874 0.21435 0.77771 0.0
N1169 N 0.09067 0.22049 0.80781 0.0
C1170 C 0.12996 0.18651 0.77611 0.0
C1171 C 0.11158 0.17077 0.83542 0.0
C1172 C 0.0913 0.19914 0.83612 0.0
C1173 C 0.13245 0.1649 0.8058 0.0
H1174 H 0.10848 0.23228 0.75599 0.0
H1175 H 0.07759 0.20521 0.86018 0.0
C1176 C 0.02454 0.36039 0.85908 0.0
N1177 N 0.99239 0.40056 0.90856 0.0
C1178 C 0.99043 0.36714 0.85552 0.0
C1179 C 0.04229 0.37417 0.88776 0.0
C1180 C 0.97464 0.38752 0.88081 0.0
C1181 C 0.02558 0.39435 0.91252 0.0
C1182 C 0.06633 0.30358 0.74244 0.0
C1183 C 0.07147 0.33594 0.72919 0.0
C1184 C 0.05244 0.27903 0.72031 0.0
C1185 C 0.0623 0.34328 0.69397 0.0
C1186 C 0.04359 0.28738 0.68524 0.0
N1187 N 0.04864 0.31907 0.67292 0.0
C1188 C 0.14519 0.34772 0.79338 0.0
C1189 C 0.11007 0.38872 0.81965 0.0
C1190 C 0.1668 0.37258 0.7808 0.0
N1191 N 0.11724 0.35623 0.81195 0.0
C1192 C 0.13092 0.41436 0.80758 0.0
C1193 C 0.1593 0.40652 0.78706 0.0
H1194 H 0.14979 0.32173 0.78678 0.0
H1195 H 0.08716 0.39494 0.83335 0.0
C1196 C 0.96795 0.29778 0.76023 0.0
N1197 N 0.99371 0.31813 0.76978 0.0
C1198 C 0.94003 0.31118 0.74274 0.0
C1199 C 0.96633 0.36574 0.74463 0.0
C1200 C 0.99376 0.3513 0.76153 0.0
C1201 C 0.93873 0.34575 0.73583 0.0
H1202 H 0.96844 0.27155 0.76748 0.0
H1203 H 0.0145 0.36687 0.76975 0.0
O1204 O 0.09291 0.28629 0.85642 0.0
O1205 O 0.02208 0.2654 0.83082 0.0
O1206 O 0.04042 0.34016 0.83485 0.0
O1207 O 0.07438 0.2961 0.7771 0.0
H1208 H 0.14611 0.25727 0.82766 0.0
H1209 H 0.11313 0.33076 0.9043 0.0
H1210 H 0.20474 0.27088 0.84323 0.0
H1211 H 0.1724 0.3433 0.91833 0.0
H1212 H 0.99791 0.16578 0.77784 0.0
H1213 H 0.01139 0.2302 0.88978 0.0
H1214 H 0.01315 0.22602 0.77462 0.0
H1215 H 0.9961 0.16991 0.891 0.0
H1216 H 0.05734 0.2803 0.99389 0.0
H1217 H 0.95924 0.31063 0.957 0.0
H1218 H 0.14586 0.18335 0.75291 0.0
H1219 H 0.11215 0.15459 0.85868 0.0
H1220 H 0.97613 0.35638 0.83384 0.0
H1221 H 0.06864 0.36911 0.89101 0.0
H1222 H 0.94823 0.39282 0.87847 0.0
H1223 H 0.03899 0.40503 0.93492 0.0
H1224 H 0.08205 0.35528 0.74604 0.0
H1225 H 0.04842 0.25386 0.73016 0.0
H1226 H 0.06594 0.36827 0.6834 0.0
H1227 H 0.03267 0.26868 0.66784 0.0
H1228 H 0.18844 0.36537 0.76521 0.0
H1229 H 0.12365 0.44011 0.81238 0.0
H1230 H 0.91902 0.29512 0.73646 0.0
H1231 H 0.9662 0.39248 0.7395 0.0
Li1232 Li 0.2888 0.95557 0.13662 0.0
Li1233 Li 0.28993 0.97527 0.20195 0.0
Li1234 Li 0.31409 0.92209 0.18399 0.0
Li1235 Li 0.25552 0.92806 0.18299 0.0
C1236 C 0.36126 0.96716 0.17048 0.0
N1237 N 0.4299 0.96385 0.17763 0.0
C1238 C 0.37699 0.98212 0.19984 0.0
C1239 C 0.38051 0.9509 0.14453 0.0
C1240 C 0.4117 0.9801 0.20301 0.0
C1241 C 0.41515 0.94937 0.14871 0.0
C1242 C 0.21937 0.98109 0.17455 0.0
C1243 C 0.17583 0.99346 0.21714 0.0
N1244 N 0.15255 0.98843 0.19117 0.0
C1245 C 0.19506 0.97611 0.14825 0.0
C1246 C 0.20975 0.98987 0.20928 0.0
C1247 C 0.16139 0.97991 0.1572 0.0
C1248 C 0.2634 0.96452 0.06701 0.0
N1249 N 0.29013 0.97062 0.08846 0.0
C1250 C 0.31814 0.99954 0.04115 0.0
C1251 C 0.31724 0.98771 0.07634 0.0
C1252 C 0.29062 0.99416 0.01856 0.0
C1253 C 0.263 0.97637 0.03183 0.0
H1254 H 0.24237 0.95053 0.07731 0.0
H1255 H 0.33808 0.99233 0.09408 0.0
C1256 C 0.30443 0.00959 0.2663 0.0
N1257 N 0.29709 0.01339 0.23102 0.0
C1258 C 0.31697 0.0366 0.28596 0.0
C1259 C 0.31261 0.07113 0.23295 0.0
C1260 C 0.30011 0.04349 0.21436 0.0
C1261 C 0.32225 0.06763 0.26897 0.0
H1262 H 0.30242 0.98515 0.27859 0.0
H1263 H 0.29475 0.04546 0.18605 0.0
C1264 C 0.29407 0.88184 0.12438 0.0
N1265 N 0.31534 0.82982 0.08114 0.0
C1266 C 0.28241 0.84925 0.13025 0.0
C1267 C 0.31612 0.88802 0.09612 0.0
C1268 C 0.29359 0.82328 0.10822 0.0
C1269 C 0.3267 0.86137 0.07467 0.0
C1270 C 0.27973 0.90429 0.24743 0.0
C1271 C 0.28143 0.87193 0.23325 0.0
C1272 C 0.27244 0.9087 0.28372 0.0
C1273 C 0.27581 0.84445 0.25562 0.0
C1274 C 0.26696 0.88058 0.30524 0.0
N1275 N 0.26875 0.84931 0.29086 0.0
C1276 C 0.36529 0.90422 0.22882 0.0
C1277 C 0.36403 0.86812 0.17844 0.0
C1278 C 0.39384 0.88847 0.24175 0.0
N1279 N 0.3513 0.89435 0.19739 0.0
C1280 C 0.39236 0.85112 0.19083 0.0
C1281 C 0.40783 0.86175 0.22256 0.0
H1282 H 0.35452 0.92493 0.24352 0.0
H1283 H 0.35269 0.86051 0.15359 0.0
C1284 C 0.20387 0.88865 0.15848 0.0
N1285 N 0.21449 0.90442 0.18858 0.0
C1286 C 0.17647 0.86723 0.15964 0.0
C1287 C 0.17012 0.87991 0.22256 0.0
C1288 C 0.19793 0.90109 0.22018 0.0
C1289 C 0.1594 0.86212 0.1921 0.0
H1290 H 0.21745 0.8919 0.1337 0.0
H1291 H 0.20676 0.91418 0.2437 0.0
O1292 O 0.32719 0.96807 0.16742 0.0
O1293 O 0.25239 0.97634 0.16676 0.0
O1294 O 0.28301 0.90763 0.14543 0.0
O1295 O 0.28459 0.93165 0.22594 0.0
H1296 H 0.36258 0.99481 0.2202 0.0
H1297 H 0.36883 0.93925 0.12162 0.0
H1298 H 0.42416 0.99135 0.22573 0.0
H1299 H 0.4303 0.9366 0.12898 0.0
H1300 H 0.168 1.00011 0.24394 0.0
H1301 H 0.20207 0.96907 0.12132 0.0
H1302 H 0.22828 0.99347 0.23003 0.0
H1303 H 0.14227 0.97599 0.13716 0.0
H1304 H 0.3398 0.01332 0.03191 0.0
H1305 H 0.24149 0.97141 0.01505 0.0
H1306 H 0.32381 0.03284 0.31373 0.0
H1307 H 0.31675 0.09431 0.21853 0.0
H1308 H 0.26483 0.84403 0.15154 0.0
H1309 H 0.32502 0.91306 0.09076 0.0
H1310 H 0.28488 0.79793 0.11258 0.0
H1311 H 0.34389 0.86579 0.05283 0.0
H1312 H 0.28702 0.86807 0.20531 0.0
H1313 H 0.27077 0.93359 0.29509 0.0
H1314 H 0.27705 0.81927 0.24496 0.0
H1315 H 0.26123 0.88363 0.33335 0.0
H1316 H 0.4049 0.89707 0.26659 0.0
H1317 H 0.40257 0.83055 0.1754 0.0
H1318 H 0.16976 0.85371 0.13556 0.0
H1319 H 0.15754 0.87708 0.24803 0.0
Li1320 Li 0.92999 0.73826 0.81565 0.0
Li1321 Li 0.95501 0.70392 0.86288 0.0
Li1322 Li 0.97122 0.69695 0.79985 0.0
Li1323 Li 0.9165 0.67832 0.8207 0.0
C1324 C 0.98716 0.76905 0.83203 0.0
N1325 N 0.00426 0.83608 0.83451 0.0
C1326 C 0.99217 0.78485 0.86499 0.0
C1327 C 0.99117 0.78721 0.80033 0.0
C1328 C 0.00073 0.8188 0.86568 0.0
C1329 C 0.99972 0.82112 0.80215 0.0
C1330 C 0.87519 0.70819 0.8649 0.0
C1331 C 0.83436 0.67685 0.89855 0.0
N1332 N 0.80951 0.69366 0.88142 0.0
C1333 C 0.84926 0.72526 0.84772 0.0
C1334 C 0.86773 0.68389 0.89064 0.0
C1335 C 0.81621 0.71753 0.85642 0.0
C1336 C 0.89188 0.78697 0.77771 0.0
N1337 N 0.90995 0.78083 0.80781 0.0
C1338 C 0.88904 0.83055 0.83541 0.0
C1339 C 0.90933 0.80218 0.83612 0.0
C1340 C 0.86817 0.83642 0.80579 0.0
C1341 C 0.87066 0.81481 0.77611 0.0
H1342 H 0.89214 0.76904 0.75599 0.0
H1343 H 0.92304 0.79611 0.86017 0.0
C1344 C 0.00348 0.69776 0.91749 0.0
N1345 N 0.97082 0.70459 0.91089 0.0
C1346 C 0.01556 0.69751 0.95253 0.0
C1347 C 0.96067 0.71366 0.97316 0.0
C1348 C 0.94948 0.71277 0.93775 0.0
C1349 C 0.99411 0.70559 0.98112 0.0
H1350 H 0.02016 0.69232 0.8955 0.0
H1351 H 0.92381 0.71895 0.93164 0.0
C1352 C 0.93429 0.69774 0.74244 0.0
N1353 N 0.95198 0.68225 0.67292 0.0
C1354 C 0.92915 0.66538 0.72919 0.0
C1355 C 0.94818 0.72229 0.72031 0.0
C1356 C 0.93832 0.65804 0.69396 0.0
C1357 C 0.95703 0.71394 0.68524 0.0
C1358 C 0.97608 0.64093 0.85908 0.0
C1359 C 0.01019 0.63418 0.85552 0.0
C1360 C 0.95834 0.62716 0.88776 0.0
C1361 C 0.02598 0.61381 0.8808 0.0
C1362 C 0.97505 0.60697 0.91252 0.0
N1363 N 0.00824 0.60077 0.90856 0.0
C1364 C 0.03267 0.70354 0.76022 0.0
C1365 C 0.00686 0.65002 0.76153 0.0
C1366 C 0.06059 0.69014 0.74274 0.0
N1367 N 0.00691 0.68319 0.76977 0.0
C1368 C 0.03429 0.63558 0.74463 0.0
C1369 C 0.06189 0.65557 0.73583 0.0
H1370 H 0.03218 0.72977 0.76748 0.0
H1371 H 0.98612 0.63445 0.76975 0.0
C1372 C 0.85544 0.6536 0.79338 0.0
N1373 N 0.88338 0.64509 0.81195 0.0
C1374 C 0.83382 0.62874 0.7808 0.0
C1375 C 0.8697 0.58697 0.80758 0.0
C1376 C 0.89055 0.6126 0.81965 0.0
C1377 C 0.84132 0.5948 0.78706 0.0
H1378 H 0.85083 0.67959 0.78678 0.0
H1379 H 0.91346 0.60638 0.83335 0.0
O1380 O 0.97854 0.73592 0.83082 0.0
O1381 O 0.90772 0.71504 0.85642 0.0
O1382 O 0.92624 0.70522 0.77709 0.0
O1383 O 0.96021 0.66117 0.83485 0.0
H1384 H 0.98923 0.77112 0.88978 0.0
H1385 H 0.98748 0.7753 0.77462 0.0
H1386 H 0.00452 0.83142 0.89099 0.0
H1387 H 0.00272 0.83554 0.77783 0.0
H1388 H 0.82823 0.65802 0.91833 0.0
H1389 H 0.85451 0.74405 0.82766 0.0
H1390 H 0.8875 0.67056 0.9043 0.0
H1391 H 0.79588 0.73044 0.84323 0.0
H1392 H 0.88847 0.84673 0.85867 0.0
H1393 H 0.85476 0.81797 0.75291 0.0
H1394 H 0.04138 0.6907 0.95699 0.0
H1395 H 0.94328 0.72102 0.99389 0.0
H1396 H 0.91857 0.64604 0.74604 0.0
H1397 H 0.9522 0.74746 0.73016 0.0
H1398 H 0.93468 0.63305 0.6834 0.0
H1399 H 0.96795 0.73264 0.66784 0.0
H1400 H 0.0245 0.64495 0.83384 0.0
H1401 H 0.93198 0.63221 0.89101 0.0
H1402 H 0.05239 0.60851 0.87846 0.0
H1403 H 0.96163 0.59629 0.93492 0.0
H1404 H 0.0816 0.7062 0.73646 0.0
H1405 H 0.03442 0.60884 0.7395 0.0
H1406 H 0.81218 0.63595 0.76521 0.0
H1407 H 0.87697 0.56121 0.81239 0.0
loop_
_geom_bond_atom_site_label_1
_geom_bond_atom_site_label_2
_geom_bond_distance
_geom_bond_site_symmetry_2
_ccdc_geom_bond_type
Li0 N17 1.990 . S
Li0 O60 1.956 . S
Li0 O61 1.970 . S
Li0 O62 1.961 . S
Li1 N25 1.990 . S
Li1 O60 1.970 . S
Li1 O61 1.956 . S
Li1 O63 1.961 . S
Li2 N47 1.990 . S
Li2 O60 1.961 . S
Li2 O62 1.956 . S
Li2 O63 1.970 . S
Li3 N53 1.990 . S
Li3 O61 1.961 . S
Li3 O62 1.970 . S
Li3 O63 1.956 . S
C4 C6 1.348 . S
C4 C7 1.356 . S
C4 O60 1.325 . S
N5 C8 1.314 . S
N5 C9 1.279 . S
C6 C4 1.348 . S
C6 C8 1.353 . S
C6 H64 0.929 . S
C7 C4 1.356 . S
C7 C9 1.358 . S
C7 H65 0.930 . S
C8 N5 1.314 . S
C8 C6 1.353 . S
C8 H66 0.930 . S
C9 N5 1.279 . S
C9 C7 1.358 . S
C9 H67 0.930 . S
C10 C13 1.348 . S
C10 C14 1.356 . S
C10 O61 1.325 . S
C11 N12 1.279 . S
C11 C14 1.358 . S
C11 H68 0.930 . S
N12 C11 1.279 . S
N12 C15 1.314 . S
C13 C10 1.348 . S
C13 C15 1.353 . S
C13 H69 0.929 . S
C14 C10 1.356 . S
C14 C11 1.358 . S
C14 H70 0.930 . S
C15 N12 1.314 . S
C15 C13 1.353 . S
C15 H71 0.930 . S
C16 N17 1.314 . S
C16 C21 1.353 . S
C16 H22 0.930 . S
N17 Li0 1.990 . S
N17 C16 1.314 . S
N17 C19 1.279 . S
C18 C19 1.358 . S
C18 C20 1.356 . S
C18 H72 0.930 . S
C19 N17 1.279 . S
C19 C18 1.358 . S
C19 H23 0.930 . S
C20 C18 1.356 . S
C20 C21 1.348 . S
C21 C16 1.353 . S
C21 C20 1.348 . S
C21 H73 0.929 . S
H22 C16 0.930 . S
H23 C19 0.930 . S
C24 N25 1.314 . S
C24 C26 1.353 . S
C24 H30 0.930 . S
N25 Li1 1.990 . S
N25 C24 1.314 . S
N25 C28 1.279 . S
C26 C24 1.353 . S
C26 C29 1.348 . S
C26 H74 0.929 . S
C27 C28 1.358 . S
C27 C29 1.356 . S
C27 H75 0.930 . S
C28 N25 1.279 . S
C28 C27 1.358 . S
C28 H31 0.930 . S
C29 C26 1.348 . S
C29 C27 1.356 . S
H30 C24 0.930 . S
H31 C28 0.930 . S
C32 C34 1.348 . S
C32 C35 1.356 . S
C32 O62 1.325 . S
N33 C36 1.314 . S
N33 C37 1.279 . S
C34 C32 1.348 . S
C34 C36 1.353 . S
C34 H76 0.929 . S
C35 C32 1.356 . S
C35 C37 1.358 . S
C35 H77 0.930 . S
C36 N33 1.314 . S
C36 C34 1.353 . S
C36 H78 0.930 . S
C37 N33 1.279 . S
C37 C35 1.358 . S
C37 H79 0.930 . S
C38 C39 1.348 . S
C38 C40 1.356 . S
C38 O63 1.325 . S
C39 C38 1.348 . S
C39 C41 1.353 . S
C39 H80 0.929 . S
C40 C38 1.356 . S
C40 C42 1.358 . S
C40 H81 0.930 . S
C41 C39 1.353 . S
C41 N43 1.314 . S
C41 H82 0.930 . S
C42 C40 1.358 . S
C42 N43 1.279 . S
C42 H83 0.930 . S
N43 C41 1.314 . S
N43 C42 1.279 . S
C44 C46 1.353 . S
C44 N47 1.314 . S
C44 H50 0.930 . S
C45 N47 1.279 . S
C45 C48 1.358 . S
C45 H51 0.930 . S
C46 C44 1.353 . S
C46 C49 1.348 . S
C46 H84 0.929 . S
N47 Li2 1.990 . S
N47 C44 1.314 . S
N47 C45 1.279 . S
C48 C45 1.358 . S
C48 C49 1.356 . S
C48 H85 0.930 . S
C49 C46 1.348 . S
C49 C48 1.356 . S
H50 C44 0.930 . S
H51 C45 0.930 . S
C52 N53 1.314 . S
C52 C54 1.353 . S
C52 H58 0.930 . S
N53 Li3 1.990 . S
N53 C52 1.314 . S
N53 C56 1.279 . S
C54 C52 1.353 . S
C54 C57 1.348 . S
C54 H86 0.929 . S
C55 C56 1.358 . S
C55 C57 1.356 . S
C55 H87 0.930 . S
C56 N53 1.279 . S
C56 C55 1.358 . S
C56 H59 0.930 . S
C57 C54 1.348 . S
C57 C55 1.356 . S
H58 C52 0.930 . S
H59 C56 0.930 . S
O60 Li0 1.956 . S
O60 Li1 1.970 . S
O60 Li2 1.961 . S
O60 C4 1.325 . S
O61 Li0 1.970 . S
O61 Li1 1.956 . S
O61 Li3 1.961 . S
O61 C10 1.325 . S
O62 Li0 1.961 . S
O62 Li2 1.956 . S
O62 Li3 1.970 . S
O62 C32 1.325 . S
O63 Li1 1.961 . S
O63 Li2 1.970 . S
O63 Li3 1.956 . S
O63 C38 1.325 . S
H64 C6 0.929 . S
H65 C7 0.930 . S
H66 C8 0.930 . S
H67 C9 0.930 . S
H68 C11 0.930 . S
H69 C13 0.929 . S
H70 C14 0.930 . S
H71 C15 0.930 . S
H72 C18 0.930 . S
H73 C21 0.929 . S
H74 C26 0.929 . S
H75 C27 0.930 . S
H76 C34 0.929 . S
H77 C35 0.930 . S
H78 C36 0.930 . S
H79 C37 0.930 . S
H80 C39 0.929 . S
H81 C40 0.930 . S
H82 C41 0.930 . S
H83 C42 0.930 . S
H84 C46 0.929 . S
H85 C48 0.930 . S
H86 C54 0.929 . S
H87 C55 0.930 . S
Li88 N105 1.990 . S
Li88 O148 1.956 . S
Li88 O149 1.970 . S
Li88 O150 1.961 . S
Li89 N113 1.990 . S
Li89 O148 1.970 . S
Li89 O149 1.956 . S
Li89 O151 1.961 . S
Li90 N135 1.990 . S
Li90 O148 1.961 . S
Li90 O150 1.956 . S
Li90 O151 1.970 . S
Li91 N141 1.990 . S
Li91 O149 1.961 . S
Li91 O150 1.970 . S
Li91 O151 1.956 . S
C92 C94 1.348 . S
C92 C95 1.356 . S
C92 O148 1.325 . S
N93 C96 1.314 . S
N93 C97 1.279 . S
C94 C92 1.348 . S
C94 C96 1.353 . S
C94 H152 0.929 . S
C95 C92 1.356 . S
C95 C97 1.358 . S
C95 H153 0.930 . S
C96 N93 1.314 . S
C96 C94 1.353 . S
C96 H154 0.930 . S
C97 N93 1.279 . S
C97 C95 1.358 . S
C97 H155 0.930 . S
C98 C101 1.348 . S
C98 C102 1.356 . S
C98 O149 1.325 . S
C99 N100 1.279 . S
C99 C102 1.358 . S
C99 H156 0.930 . S
N100 C99 1.279 . S
N100 C103 1.314 . S
C101 C98 1.348 . S
C101 C103 1.353 . S
C101 H157 0.929 . S
C102 C98 1.356 . S
C102 C99 1.358 . S
C102 H158 0.930 . S
C103 N100 1.314 . S
C103 C101 1.353 . S
C103 H159 0.930 . S
C104 N105 1.314 . S
C104 C109 1.353 . S
C104 H110 0.930 . S
N105 Li88 1.990 . S
N105 C104 1.314 . S
N105 C107 1.279 . S
C106 C107 1.358 . S
C106 C108 1.356 . S
C106 H160 0.930 . S
C107 N105 1.279 . S
C107 C106 1.358 . S
C107 H111 0.930 . S
C108 C106 1.356 . S
C108 C109 1.348 . S
C109 C104 1.353 . S
C109 C108 1.348 . S
C109 H161 0.929 . S
H110 C104 0.930 . S
H111 C107 0.930 . S
C112 N113 1.314 . S
C112 C114 1.353 . S
C112 H118 0.930 . S
N113 Li89 1.990 . S
N113 C112 1.314 . S
N113 C116 1.279 . S
C114 C112 1.353 . S
C114 C117 1.348 . S
C114 H162 0.929 . S
C115 C116 1.358 . S
C115 C117 1.356 . S
C115 H163 0.930 . S
C116 N113 1.279 . S
C116 C115 1.358 . S
C116 H119 0.930 . S
C117 C114 1.348 . S
C117 C115 1.356 . S
H118 C112 0.930 . S
H119 C116 0.930 . S
C120 C122 1.348 . S
C120 C123 1.356 . S
C120 O150 1.325 . S
N121 C124 1.314 . S
N121 C125 1.279 . S
C122 C120 1.348 . S
C122 C124 1.353 . S
C122 H164 0.929 . S
C123 C120 1.356 . S
C123 C125 1.358 . S
C123 H165 0.930 . S
C124 N121 1.314 . S
C124 C122 1.353 . S
C124 H166 0.930 . S
C125 N121 1.279 . S
C125 C123 1.358 . S
C125 H167 0.930 . S
C126 C127 1.348 . S
C126 C128 1.356 . S
C126 O151 1.325 . S
C127 C126 1.348 . S
C127 C129 1.353 . S
C127 H168 0.929 . S
C128 C126 1.356 . S
C128 C130 1.358 . S
C128 H169 0.930 . S
C129 C127 1.353 . S
C129 N131 1.314 . S
C129 H170 0.930 . S
C130 C128 1.358 . S
C130 N131 1.279 . S
C130 H171 0.930 . S
N131 C129 1.314 . S
N131 C130 1.279 . S
C132 C134 1.353 . S
C132 N135 1.314 . S
C132 H138 0.930 . S
C133 N135 1.279 . S
C133 C136 1.358 . S
C133 H139 0.930 . S
C134 C132 1.353 . S
C134 C137 1.348 . S
C134 H172 0.929 . S
N135 Li90 1.990 . S
N135 C132 1.314 . S
N135 C133 1.279 . S
C136 C133 1.358 . S
C136 C137 1.356 . S
C136 H173 0.930 . S
C137 C134 1.348 . S
C137 C136 1.356 . S
H138 C132 0.930 . S
H139 C133 0.930 . S
C140 N141 1.314 . S
C140 C142 1.353 . S
C140 H146 0.930 . S
N141 Li91 1.990 . S
N141 C140 1.314 . S
N141 C144 1.279 . S
C142 C140 1.353 . S
C142 C145 1.348 . S
C142 H174 0.929 . S
C143 C144 1.358 . S
C143 C145 1.356 . S
C143 H175 0.930 . S
C144 N141 1.279 . S
C144 C143 1.358 . S
C144 H147 0.930 . S
C145 C142 1.348 . S
C145 C143 1.356 . S
H146 C140 0.930 . S
H147 C144 0.930 . S
O148 Li88 1.956 . S
O148 Li89 1.970 . S
O148 Li90 1.961 . S
O148 C92 1.325 . S
O149 Li88 1.970 . S
O149 Li89 1.956 . S
O149 Li91 1.961 . S
O149 C98 1.325 . S
O150 Li88 1.961 . S
O150 Li90 1.956 . S
O150 Li91 1.970 . S
O150 C120 1.325 . S
O151 Li89 1.961 . S
O151 Li90 1.970 . S
O151 Li91 1.956 . S
O151 C126 1.325 . S
H152 C94 0.929 . S
H153 C95 0.930 . S
H154 C96 0.930 . S
H155 C97 0.930 . S
H156 C99 0.930 . S
H157 C101 0.929 . S
H158 C102 0.930 . S
H159 C103 0.930 . S
H160 C106 0.930 . S
H161 C109 0.929 . S
H162 C114 0.929 . S
H163 C115 0.930 . S
H164 C122 0.929 . S
H165 C123 0.930 . S
H166 C124 0.930 . S
H167 C125 0.930 . S
H168 C127 0.929 . S
H169 C128 0.930 . S
H170 C129 0.930 . S
H171 C130 0.930 . S
H172 C134 0.929 . S
H173 C136 0.930 . S
H174 C142 0.929 . S
H175 C143 0.930 . S
Li176 N193 1.990 . S
Li176 O236 1.956 . S
Li176 O237 1.970 . S
Li176 O238 1.961 . S
Li177 N201 1.990 . S
Li177 O236 1.970 . S
Li177 O237 1.956 . S
Li177 O239 1.961 . S
Li178 N223 1.990 . S
Li178 O236 1.961 . S
Li178 O238 1.956 . S
Li178 O239 1.970 . S
Li179 N229 1.990 . S
Li179 O237 1.961 . S
Li179 O238 1.970 . S
Li179 O239 1.956 . S
C180 C182 1.348 . S
C180 C183 1.356 . S
C180 O236 1.325 . S
N181 C184 1.314 . S
N181 C185 1.279 . S
C182 C180 1.348 . S
C182 C184 1.353 . S
C182 H240 0.929 . S
C183 C180 1.356 . S
C183 C185 1.358 . S
C183 H241 0.930 . S
C184 N181 1.314 . S
C184 C182 1.353 . S
C184 H242 0.930 . S
C185 N181 1.279 . S
C185 C183 1.358 . S
C185 H243 0.930 . S
C186 C189 1.348 . S
C186 C190 1.356 . S
C186 O237 1.325 . S
C187 N188 1.279 . S
C187 C190 1.358 . S
C187 H244 0.930 . S
N188 C187 1.279 . S
N188 C191 1.314 . S
C189 C186 1.348 . S
C189 C191 1.353 . S
C189 H245 0.929 . S
C190 C186 1.356 . S
C190 C187 1.358 . S
C190 H246 0.930 . S
C191 N188 1.314 . S
C191 C189 1.353 . S
C191 H247 0.930 . S
C192 N193 1.314 . S
C192 C197 1.353 . S
C192 H198 0.930 . S
N193 Li176 1.990 . S
N193 C192 1.314 . S
N193 C195 1.279 . S
C194 C195 1.358 . S
C194 C196 1.356 . S
C194 H248 0.930 . S
C195 N193 1.279 . S
C195 C194 1.358 . S
C195 H199 0.930 . S
C196 C194 1.356 . S
C196 C197 1.348 . S
C197 C192 1.353 . S
C197 C196 1.348 . S
C197 H249 0.929 . S
H198 C192 0.930 . S
H199 C195 0.930 . S
C200 N201 1.314 . S
C200 C202 1.353 . S
C200 H206 0.930 . S
N201 Li177 1.990 . S
N201 C200 1.314 . S
N201 C204 1.279 . S
C202 C200 1.353 . S
C202 C205 1.348 . S
C202 H250 0.929 . S
C203 C204 1.358 . S
C203 C205 1.356 . S
C203 H251 0.930 . S
C204 N201 1.279 . S
C204 C203 1.358 . S
C204 H207 0.930 . S
C205 C202 1.348 . S
C205 C203 1.356 . S
H206 C200 0.930 . S
H207 C204 0.930 . S
C208 C210 1.348 . S
C208 C211 1.356 . S
C208 O238 1.325 . S
N209 C212 1.314 . S
N209 C213 1.279 . S
C210 C208 1.348 . S
C210 C212 1.353 . S
C210 H252 0.929 . S
C211 C208 1.356 . S
C211 C213 1.358 . S
C211 H253 0.930 . S
C212 N209 1.314 . S
C212 C210 1.353 . S
C212 H254 0.930 . S
C213 N209 1.279 . S
C213 C211 1.358 . S
C213 H255 0.930 . S
C214 C215 1.348 . S
C214 C216 1.356 . S
C214 O239 1.325 . S
C215 C214 1.348 . S
C215 C217 1.353 . S
C215 H256 0.929 . S
C216 C214 1.356 . S
C216 C218 1.358 . S
C216 H257 0.930 . S
C217 C215 1.353 . S
C217 N219 1.314 . S
C217 H258 0.930 . S
C218 C216 1.358 . S
C218 N219 1.279 . S
C218 H259 0.930 . S
N219 C217 1.314 . S
N219 C218 1.279 . S
C220 C222 1.353 . S
C220 N223 1.314 . S
C220 H226 0.930 . S
C221 N223 1.279 . S
C221 C224 1.358 . S
C221 H227 0.930 . S
C222 C220 1.353 . S
C222 C225 1.348 . S
C222 H260 0.929 . S
N223 Li178 1.990 . S
N223 C220 1.314 . S
N223 C221 1.279 . S
C224 C221 1.358 . S
C224 C225 1.356 . S
C224 H261 0.930 . S
C225 C222 1.348 . S
C225 C224 1.356 . S
H226 C220 0.930 . S
H227 C221 0.930 . S
C228 N229 1.314 . S
C228 C230 1.353 . S
C228 H234 0.930 . S
N229 Li179 1.990 . S
N229 C228 1.314 . S
N229 C232 1.279 . S
C230 C228 1.353 . S
C230 C233 1.348 . S
C230 H262 0.929 . S
C231 C232 1.358 . S
C231 C233 1.356 . S
C231 H263 0.930 . S
C232 N229 1.279 . S
C232 C231 1.358 . S
C232 H235 0.930 . S
C233 C230 1.348 . S
C233 C231 1.356 . S
H234 C228 0.930 . S
H235 C232 0.930 . S
O236 Li176 1.956 . S
O236 Li177 1.970 . S
O236 Li178 1.961 . S
O236 C180 1.325 . S
O237 Li176 1.970 . S
O237 Li177 1.956 . S
O237 Li179 1.961 . S
O237 C186 1.325 . S
O238 Li176 1.961 . S
O238 Li178 1.956 . S
O238 Li179 1.970 . S
O238 C208 1.325 . S
O239 Li177 1.961 . S
O239 Li178 1.970 . S
O239 Li179 1.956 . S
O239 C214 1.325 . S
H240 C182 0.929 . S
H241 C183 0.930 . S
H242 C184 0.930 . S
H243 C185 0.930 . S
H244 C187 0.930 . S
H245 C189 0.929 . S
H246 C190 0.930 . S
H247 C191 0.930 . S
H248 C194 0.930 . S
H249 C197 0.929 . S
H250 C202 0.929 . S
H251 C203 0.930 . S
H252 C210 0.929 . S
H253 C211 0.930 . S
H254 C212 0.930 . S
H255 C213 0.930 . S
H256 C215 0.929 . S
H257 C216 0.930 . S
H258 C217 0.930 . S
H259 C218 0.930 . S
H260 C222 0.929 . S
H261 C224 0.930 . S
H262 C230 0.929 . S
H263 C231 0.930 . S
Li264 N281 1.990 . S
Li264 O324 1.956 . S
Li264 O325 1.970 . S
Li264 O326 1.961 . S
Li265 N289 1.990 . S
Li265 O324 1.970 . S
Li265 O325 1.956 . S
Li265 O327 1.961 . S
Li266 N311 1.990 . S
Li266 O324 1.961 . S
Li266 O326 1.956 . S
Li266 O327 1.970 . S
Li267 N317 1.990 . S
Li267 O325 1.961 . S
Li267 O326 1.970 . S
Li267 O327 1.956 . S
C268 C270 1.348 . S
C268 C271 1.356 . S
C268 O324 1.325 . S
N269 C272 1.314 . S
N269 C273 1.279 . S
C270 C268 1.348 . S
C270 C272 1.353 . S
C270 H328 0.929 . S
C271 C268 1.356 . S
C271 C273 1.358 . S
C271 H329 0.930 . S
C272 N269 1.314 . S
C272 C270 1.353 . S
C272 H330 0.930 . S
C273 N269 1.279 . S
C273 C271 1.358 . S
C273 H331 0.930 . S
C274 C277 1.348 . S
C274 C278 1.356 . S
C274 O325 1.325 . S
C275 N276 1.279 . S
C275 C278 1.358 . S
C275 H332 0.930 . S
N276 C275 1.279 . S
N276 C279 1.314 . S
C277 C274 1.348 . S
C277 C279 1.353 . S
C277 H333 0.929 . S
C278 C274 1.356 . S
C278 C275 1.358 . S
C278 H334 0.930 . S
C279 N276 1.314 . S
C279 C277 1.353 . S
C279 H335 0.930 . S
C280 N281 1.314 . S
C280 C285 1.353 . S
C280 H286 0.930 . S
N281 Li264 1.990 . S
N281 C280 1.314 . S
N281 C283 1.279 . S
C282 C283 1.358 . S
C282 C284 1.356 . S
C282 H336 0.930 . S
C283 N281 1.279 . S
C283 C282 1.358 . S
C283 H287 0.930 . S
C284 C282 1.356 . S
C284 C285 1.348 . S
C285 C280 1.353 . S
C285 C284 1.348 . S
C285 H337 0.929 . S
H286 C280 0.930 . S
H287 C283 0.930 . S
C288 N289 1.314 . S
C288 C290 1.353 . S
C288 H294 0.930 . S
N289 Li265 1.990 . S
N289 C288 1.314 . S
N289 C292 1.279 . S
C290 C288 1.353 . S
C290 C293 1.348 . S
C290 H338 0.929 . S
C291 C292 1.358 . S
C291 C293 1.356 . S
C291 H339 0.930 . S
C292 N289 1.279 . S
C292 C291 1.358 . S
C292 H295 0.930 . S
C293 C290 1.348 . S
C293 C291 1.356 . S
H294 C288 0.930 . S
H295 C292 0.930 . S
C296 C298 1.348 . S
C296 C299 1.356 . S
C296 O326 1.325 . S
N297 C300 1.314 . S
N297 C301 1.279 . S
C298 C296 1.348 . S
C298 C300 1.353 . S
C298 H340 0.929 . S
C299 C296 1.356 . S
C299 C301 1.358 . S
C299 H341 0.930 . S
C300 N297 1.314 . S
C300 C298 1.353 . S
C300 H342 0.930 . S
C301 N297 1.279 . S
C301 C299 1.358 . S
C301 H343 0.930 . S
C302 C303 1.348 . S
C302 C304 1.356 . S
C302 O327 1.325 . S
C303 C302 1.348 . S
C303 C305 1.353 . S
C303 H344 0.929 . S
C304 C302 1.356 . S
C304 C306 1.358 . S
C304 H345 0.930 . S
C305 C303 1.353 . S
C305 N307 1.314 . S
C305 H346 0.930 . S
C306 C304 1.358 . S
C306 N307 1.279 . S
C306 H347 0.930 . S
N307 C305 1.314 . S
N307 C306 1.279 . S
C308 C310 1.353 . S
C308 N311 1.314 . S
C308 H314 0.930 . S
C309 N311 1.279 . S
C309 C312 1.358 . S
C309 H315 0.930 . S
C310 C308 1.353 . S
C310 C313 1.348 . S
C310 H348 0.929 . S
N311 Li266 1.990 . S
N311 C308 1.314 . S
N311 C309 1.279 . S
C312 C309 1.358 . S
C312 C313 1.356 . S
C312 H349 0.930 . S
C313 C310 1.348 . S
C313 C312 1.356 . S
H314 C308 0.930 . S
H315 C309 0.930 . S
C316 N317 1.314 . S
C316 C318 1.353 . S
C316 H322 0.930 . S
N317 Li267 1.990 . S
N317 C316 1.314 . S
N317 C320 1.279 . S
C318 C316 1.353 . S
C318 C321 1.348 . S
C318 H350 0.929 . S
C319 C320 1.358 . S
C319 C321 1.356 . S
C319 H351 0.930 . S
C320 N317 1.279 . S
C320 C319 1.358 . S
C320 H323 0.930 . S
C321 C318 1.348 . S
C321 C319 1.356 . S
H322 C316 0.930 . S
H323 C320 0.930 . S
O324 Li264 1.956 . S
O324 Li265 1.970 . S
O324 Li266 1.961 . S
O324 C268 1.325 . S
O325 Li264 1.970 . S
O325 Li265 1.956 . S
O325 Li267 1.961 . S
O325 C274 1.325 . S
O326 Li264 1.961 . S
O326 Li266 1.956 . S
O326 Li267 1.970 . S
O326 C296 1.325 . S
O327 Li265 1.961 . S
O327 Li266 1.970 . S
O327 Li267 1.956 . S
O327 C302 1.325 . S
H328 C270 0.929 . S
H329 C271 0.930 . S
H330 C272 0.930 . S
H331 C273 0.930 . S
H332 C275 0.930 . S
H333 C277 0.929 . S
H334 C278 0.930 . S
H335 C279 0.930 . S
H336 C282 0.930 . S
H337 C285 0.929 . S
H338 C290 0.929 . S
H339 C291 0.930 . S
H340 C298 0.929 . S
H341 C299 0.930 . S
H342 C300 0.930 . S
H343 C301 0.930 . S
H344 C303 0.929 . S
H345 C304 0.930 . S
H346 C305 0.930 . S
H347 C306 0.930 . S
H348 C310 0.929 . S
H349 C312 0.930 . S
H350 C318 0.929 . S
H351 C319 0.930 . S
Li352 N369 1.990 . S
Li352 O412 1.956 . S
Li352 O413 1.970 . S
Li352 O414 1.961 . S
Li353 N377 1.990 . S
Li353 O412 1.970 . S
Li353 O413 1.956 . S
Li353 O415 1.961 . S
Li354 N399 1.990 . S
Li354 O412 1.961 . S
Li354 O414 1.956 . S
Li354 O415 1.970 . S
Li355 N405 1.990 . S
Li355 O413 1.961 . S
Li355 O414 1.970 . S
Li355 O415 1.956 . S
C356 C358 1.348 . S
C356 C359 1.356 . S
C356 O412 1.325 . S
N357 C360 1.314 . S
N357 C361 1.279 . S
C358 C356 1.348 . S
C358 C360 1.353 . S
C358 H416 0.929 . S
C359 C356 1.356 . S
C359 C361 1.358 . S
C359 H417 0.930 . S
C360 N357 1.314 . S
C360 C358 1.353 . S
C360 H418 0.930 . S
C361 N357 1.279 . S
C361 C359 1.358 . S
C361 H419 0.930 . S
C362 C365 1.348 . S
C362 C366 1.356 . S
C362 O413 1.325 . S
C363 N364 1.279 . S
C363 C366 1.358 . S
C363 H420 0.930 . S
N364 C363 1.279 . S
N364 C367 1.314 . S
C365 C362 1.348 . S
C365 C367 1.353 . S
C365 H421 0.929 . S
C366 C362 1.356 . S
C366 C363 1.358 . S
C366 H422 0.930 . S
C367 N364 1.314 . S
C367 C365 1.353 . S
C367 H423 0.930 . S
C368 N369 1.314 . S
C368 C373 1.353 . S
C368 H374 0.930 . S
N369 Li352 1.990 . S
N369 C368 1.314 . S
N369 C371 1.279 . S
C370 C371 1.358 . S
C370 C372 1.356 . S
C370 H424 0.930 . S
C371 N369 1.279 . S
C371 C370 1.358 . S
C371 H375 0.930 . S
C372 C370 1.356 . S
C372 C373 1.348 . S
C373 C368 1.353 . S
C373 C372 1.348 . S
C373 H425 0.929 . S
H374 C368 0.930 . S
H375 C371 0.930 . S
C376 N377 1.314 . S
C376 C378 1.353 . S
C376 H382 0.930 . S
N377 Li353 1.990 . S
N377 C376 1.314 . S
N377 C380 1.279 . S
C378 C376 1.353 . S
C378 C381 1.348 . S
C378 H426 0.929 . S
C379 C380 1.358 . S
C379 C381 1.356 . S
C379 H427 0.930 . S
C380 N377 1.279 . S
C380 C379 1.358 . S
C380 H383 0.930 . S
C381 C378 1.348 . S
C381 C379 1.356 . S
H382 C376 0.930 . S
H383 C380 0.930 . S
C384 C386 1.348 . S
C384 C387 1.356 . S
C384 O414 1.325 . S
N385 C388 1.314 . S
N385 C389 1.279 . S
C386 C384 1.348 . S
C386 C388 1.353 . S
C386 H428 0.929 . S
C387 C384 1.356 . S
C387 C389 1.358 . S
C387 H429 0.930 . S
C388 N385 1.314 . S
C388 C386 1.353 . S
C388 H430 0.930 . S
C389 N385 1.279 . S
C389 C387 1.358 . S
C389 H431 0.930 . S
C390 C391 1.348 . S
C390 C392 1.356 . S
C390 O415 1.325 . S
C391 C390 1.348 . S
C391 C393 1.353 . S
C391 H432 0.929 . S
C392 C390 1.356 . S
C392 C394 1.358 . S
C392 H433 0.930 . S
C393 C391 1.353 . S
C393 N395 1.314 . S
C393 H434 0.930 . S
C394 C392 1.358 . S
C394 N395 1.279 . S
C394 H435 0.930 . S
N395 C393 1.314 . S
N395 C394 1.279 . S
C396 C398 1.353 . S
C396 N399 1.314 . S
C396 H402 0.930 . S
C397 N399 1.279 . S
C397 C400 1.358 . S
C397 H403 0.930 . S
C398 C396 1.353 . S
C398 C401 1.348 . S
C398 H436 0.929 . S
N399 Li354 1.990 . S
N399 C396 1.314 . S
N399 C397 1.279 . S
C400 C397 1.358 . S
C400 C401 1.356 . S
C400 H437 0.930 . S
C401 C398 1.348 . S
C401 C400 1.356 . S
H402 C396 0.930 . S
H403 C397 0.930 . S
C404 N405 1.314 . S
C404 C406 1.353 . S
C404 H410 0.930 . S
N405 Li355 1.990 . S
N405 C404 1.314 . S
N405 C408 1.279 . S
C406 C404 1.353 . S
C406 C409 1.348 . S
C406 H438 0.929 . S
C407 C408 1.358 . S
C407 C409 1.356 . S
C407 H439 0.930 . S
C408 N405 1.279 . S
C408 C407 1.358 . S
C408 H411 0.930 . S
C409 C406 1.348 . S
C409 C407 1.356 . S
H410 C404 0.930 . S
H411 C408 0.930 . S
O412 Li352 1.956 . S
O412 Li353 1.970 . S
O412 Li354 1.961 . S
O412 C356 1.325 . S
O413 Li352 1.970 . S
O413 Li353 1.956 . S
O413 Li355 1.961 . S
O413 C362 1.325 . S
O414 Li352 1.961 . S
O414 Li354 1.956 . S
O414 Li355 1.970 . S
O414 C384 1.325 . S
O415 Li353 1.961 . S
O415 Li354 1.970 . S
O415 Li355 1.956 . S
O415 C390 1.325 . S
H416 C358 0.929 . S
H417 C359 0.930 . S
H418 C360 0.930 . S
H419 C361 0.930 . S
H420 C363 0.930 . S
H421 C365 0.929 . S
H422 C366 0.930 . S
H423 C367 0.930 . S
H424 C370 0.930 . S
H425 C373 0.929 . S
H426 C378 0.929 . S
H427 C379 0.930 . S
H428 C386 0.929 . S
H429 C387 0.930 . S
H430 C388 0.930 . S
H431 C389 0.930 . S
H432 C391 0.929 . S
H433 C392 0.930 . S
H434 C393 0.930 . S
H435 C394 0.930 . S
H436 C398 0.929 . S
H437 C400 0.930 . S
H438 C406 0.929 . S
H439 C407 0.930 . S
Li440 N457 1.990 . S
Li440 O500 1.956 . S
Li440 O501 1.970 . S
Li440 O502 1.961 . S
Li441 N465 1.990 . S
Li441 O500 1.970 . S
Li441 O501 1.956 . S
Li441 O503 1.961 . S
Li442 N487 1.990 . S
Li442 O500 1.961 . S
Li442 O502 1.956 . S
Li442 O503 1.970 . S
Li443 N493 1.990 . S
Li443 O501 1.961 . S
Li443 O502 1.970 . S
Li443 O503 1.956 . S
C444 C446 1.348 . S
C444 C447 1.356 . S
C444 O500 1.325 . S
N445 C448 1.314 . S
N445 C449 1.279 . S
C446 C444 1.348 . S
C446 C448 1.353 . S
C446 H504 0.929 . S
C447 C444 1.356 . S
C447 C449 1.358 . S
C447 H505 0.930 . S
C448 N445 1.314 . S
C448 C446 1.353 . S
C448 H506 0.930 . S
C449 N445 1.279 . S
C449 C447 1.358 . S
C449 H507 0.930 . S
C450 C453 1.348 . S
C450 C454 1.356 . S
C450 O501 1.325 . S
C451 N452 1.279 . S
C451 C454 1.358 . S
C451 H508 0.930 . S
N452 C451 1.279 . S
N452 C455 1.314 . S
C453 C450 1.348 . S
C453 C455 1.353 . S
C453 H509 0.929 . S
C454 C450 1.356 . S
C454 C451 1.358 . S
C454 H510 0.930 . S
C455 N452 1.314 . S
C455 C453 1.353 . S
C455 H511 0.930 . S
C456 N457 1.314 . S
C456 C461 1.353 . S
C456 H462 0.930 . S
N457 Li440 1.990 . S
N457 C456 1.314 . S
N457 C459 1.279 . S
C458 C459 1.358 . S
C458 C460 1.356 . S
C458 H512 0.930 . S
C459 N457 1.279 . S
C459 C458 1.358 . S
C459 H463 0.930 . S
C460 C458 1.356 . S
C460 C461 1.348 . S
C461 C456 1.353 . S
C461 C460 1.348 . S
C461 H513 0.929 . S
H462 C456 0.930 . S
H463 C459 0.930 . S
C464 N465 1.314 . S
C464 C466 1.353 . S
C464 H470 0.930 . S
N465 Li441 1.990 . S
N465 C464 1.314 . S
N465 C468 1.279 . S
C466 C464 1.353 . S
C466 C469 1.348 . S
C466 H514 0.929 . S
C467 C468 1.358 . S
C467 C469 1.356 . S
C467 H515 0.930 . S
C468 N465 1.279 . S
C468 C467 1.358 . S
C468 H471 0.930 . S
C469 C466 1.348 . S
C469 C467 1.356 . S
H470 C464 0.930 . S
H471 C468 0.930 . S
C472 C474 1.348 . S
C472 C475 1.356 . S
C472 O502 1.325 . S
N473 C476 1.314 . S
N473 C477 1.279 . S
C474 C472 1.348 . S
C474 C476 1.353 . S
C474 H516 0.929 . S
C475 C472 1.356 . S
C475 C477 1.358 . S
C475 H517 0.930 . S
C476 N473 1.314 . S
C476 C474 1.353 . S
C476 H518 0.930 . S
C477 N473 1.279 . S
C477 C475 1.358 . S
C477 H519 0.930 . S
C478 C479 1.348 . S
C478 C480 1.356 . S
C478 O503 1.325 . S
C479 C478 1.348 . S
C479 C481 1.353 . S
C479 H520 0.929 . S
C480 C478 1.356 . S
C480 C482 1.358 . S
C480 H521 0.930 . S
C481 C479 1.353 . S
C481 N483 1.314 . S
C481 H522 0.930 . S
C482 C480 1.358 . S
C482 N483 1.279 . S
C482 H523 0.930 . S
N483 C481 1.314 . S
N483 C482 1.279 . S
C484 C486 1.353 . S
C484 N487 1.314 . S
C484 H490 0.930 . S
C485 N487 1.279 . S
C485 C488 1.358 . S
C485 H491 0.930 . S
C486 C484 1.353 . S
C486 C489 1.348 . S
C486 H524 0.929 . S
N487 Li442 1.990 . S
N487 C484 1.314 . S
N487 C485 1.279 . S
C488 C485 1.358 . S
C488 C489 1.356 . S
C488 H525 0.930 . S
C489 C486 1.348 . S
C489 C488 1.356 . S
H490 C484 0.930 . S
H491 C485 0.930 . S
C492 N493 1.314 . S
C492 C494 1.353 . S
C492 H498 0.930 . S
N493 Li443 1.990 . S
N493 C492 1.314 . S
N493 C496 1.279 . S
C494 C492 1.353 . S
C494 C497 1.348 . S
C494 H526 0.929 . S
C495 C496 1.358 . S
C495 C497 1.356 . S
C495 H527 0.930 . S
C496 N493 1.279 . S
C496 C495 1.358 . S
C496 H499 0.930 . S
C497 C494 1.348 . S
C497 C495 1.356 . S
H498 C492 0.930 . S
H499 C496 0.930 . S
O500 Li440 1.956 . S
O500 Li441 1.970 . S
O500 Li442 1.961 . S
O500 C444 1.325 . S
O501 Li440 1.970 . S
O501 Li441 1.956 . S
O501 Li443 1.961 . S
O501 C450 1.325 . S
O502 Li440 1.961 . S
O502 Li442 1.956 . S
O502 Li443 1.970 . S
O502 C472 1.325 . S
O503 Li441 1.961 . S
O503 Li442 1.970 . S
O503 Li443 1.956 . S
O503 C478 1.325 . S
H504 C446 0.929 . S
H505 C447 0.930 . S
H506 C448 0.930 . S
H507 C449 0.930 . S
H508 C451 0.930 . S
H509 C453 0.929 . S
H510 C454 0.930 . S
H511 C455 0.930 . S
H512 C458 0.930 . S
H513 C461 0.929 . S
H514 C466 0.929 . S
H515 C467 0.930 . S
H516 C474 0.929 . S
H517 C475 0.930 . S
H518 C476 0.930 . S
H519 C477 0.930 . S
H520 C479 0.929 . S
H521 C480 0.930 . S
H522 C481 0.930 . S
H523 C482 0.930 . S
H524 C486 0.929 . S
H525 C488 0.930 . S
H526 C494 0.929 . S
H527 C495 0.930 . S
Li528 N545 1.990 . S
Li528 O588 1.956 . S
Li528 O589 1.970 . S
Li528 O590 1.961 . S
Li529 N553 1.990 . S
Li529 O588 1.970 . S
Li529 O589 1.956 . S
Li529 O591 1.961 . S
Li530 N575 1.990 . S
Li530 O588 1.961 . S
Li530 O590 1.956 . S
Li530 O591 1.970 . S
Li531 N581 1.990 . S
Li531 O589 1.961 . S
Li531 O590 1.970 . S
Li531 O591 1.956 . S
C532 C534 1.348 . S
C532 C535 1.356 . S
C532 O588 1.325 . S
N533 C536 1.314 . S
N533 C537 1.279 . S
C534 C532 1.348 . S
C534 C536 1.353 . S
C534 H592 0.929 . S
C535 C532 1.356 . S
C535 C537 1.358 . S
C535 H593 0.930 . S
C536 N533 1.314 . S
C536 C534 1.353 . S
C536 H594 0.930 . S
C537 N533 1.279 . S
C537 C535 1.358 . S
C537 H595 0.930 . S
C538 C541 1.348 . S
C538 C542 1.356 . S
C538 O589 1.325 . S
C539 N540 1.279 . S
C539 C542 1.358 . S
C539 H596 0.930 . S
N540 C539 1.279 . S
N540 C543 1.314 . S
C541 C538 1.348 . S
C541 C543 1.353 . S
C541 H597 0.929 . S
C542 C538 1.356 . S
C542 C539 1.358 . S
C542 H598 0.930 . S
C543 N540 1.314 . S
C543 C541 1.353 . S
C543 H599 0.930 . S
C544 N545 1.314 . S
C544 C549 1.353 . S
C544 H550 0.930 . S
N545 Li528 1.990 . S
N545 C544 1.314 . S
N545 C547 1.279 . S
C546 C547 1.358 . S
C546 C548 1.356 . S
C546 H600 0.930 . S
C547 N545 1.279 . S
C547 C546 1.358 . S
C547 H551 0.930 . S
C548 C546 1.356 . S
C548 C549 1.348 . S
C549 C544 1.353 . S
C549 C548 1.348 . S
C549 H601 0.929 . S
H550 C544 0.930 . S
H551 C547 0.930 . S
C552 N553 1.314 . S
C552 C554 1.353 . S
C552 H558 0.930 . S
N553 Li529 1.990 . S
N553 C552 1.314 . S
N553 C556 1.279 . S
C554 C552 1.353 . S
C554 C557 1.348 . S
C554 H602 0.929 . S
C555 C556 1.358 . S
C555 C557 1.356 . S
C555 H603 0.930 . S
C556 N553 1.279 . S
C556 C555 1.358 . S
C556 H559 0.930 . S
C557 C554 1.348 . S
C557 C555 1.356 . S
H558 C552 0.930 . S
H559 C556 0.930 . S
C560 C562 1.348 . S
C560 C563 1.356 . S
C560 O590 1.325 . S
N561 C564 1.314 . S
N561 C565 1.279 . S
C562 C560 1.348 . S
C562 C564 1.353 . S
C562 H604 0.929 . S
C563 C560 1.356 . S
C563 C565 1.358 . S
C563 H605 0.930 . S
C564 N561 1.314 . S
C564 C562 1.353 . S
C564 H606 0.930 . S
C565 N561 1.279 . S
C565 C563 1.358 . S
C565 H607 0.930 . S
C566 C567 1.348 . S
C566 C568 1.356 . S
C566 O591 1.325 . S
C567 C566 1.348 . S
C567 C569 1.353 . S
C567 H608 0.929 . S
C568 C566 1.356 . S
C568 C570 1.358 . S
C568 H609 0.930 . S
C569 C567 1.353 . S
C569 N571 1.314 . S
C569 H610 0.930 . S
C570 C568 1.358 . S
C570 N571 1.279 . S
C570 H611 0.930 . S
N571 C569 1.314 . S
N571 C570 1.279 . S
C572 C574 1.353 . S
C572 N575 1.314 . S
C572 H578 0.930 . S
C573 N575 1.279 . S
C573 C576 1.358 . S
C573 H579 0.930 . S
C574 C572 1.353 . S
C574 C577 1.348 . S
C574 H612 0.929 . S
N575 Li530 1.990 . S
N575 C572 1.314 . S
N575 C573 1.279 . S
C576 C573 1.358 . S
C576 C577 1.356 . S
C576 H613 0.930 . S
C577 C574 1.348 . S
C577 C576 1.356 . S
H578 C572 0.930 . S
H579 C573 0.930 . S
C580 N581 1.314 . S
C580 C582 1.353 . S
C580 H586 0.930 . S
N581 Li531 1.990 . S
N581 C580 1.314 . S
N581 C584 1.279 . S
C582 C580 1.353 . S
C582 C585 1.348 . S
C582 H614 0.929 . S
C583 C584 1.358 . S
C583 C585 1.356 . S
C583 H615 0.930 . S
C584 N581 1.279 . S
C584 C583 1.358 . S
C584 H587 0.930 . S
C585 C582 1.348 . S
C585 C583 1.356 . S
H586 C580 0.930 . S
H587 C584 0.930 . S
O588 Li528 1.956 . S
O588 Li529 1.970 . S
O588 Li530 1.961 . S
O588 C532 1.325 . S
O589 Li528 1.970 . S
O589 Li529 1.956 . S
O589 Li531 1.961 . S
O589 C538 1.325 . S
O590 Li528 1.961 . S
O590 Li530 1.956 . S
O590 Li531 1.970 . S
O590 C560 1.325 . S
O591 Li529 1.961 . S
O591 Li530 1.970 . S
O591 Li531 1.956 . S
O591 C566 1.325 . S
H592 C534 0.929 . S
H593 C535 0.930 . S
H594 C536 0.930 . S
H595 C537 0.930 . S
H596 C539 0.930 . S
H597 C541 0.929 . S
H598 C542 0.930 . S
H599 C543 0.930 . S
H600 C546 0.930 . S
H601 C549 0.929 . S
H602 C554 0.929 . S
H603 C555 0.930 . S
H604 C562 0.929 . S
H605 C563 0.930 . S
H606 C564 0.930 . S
H607 C565 0.930 . S
H608 C567 0.929 . S
H609 C568 0.930 . S
H610 C569 0.930 . S
H611 C570 0.930 . S
H612 C574 0.929 . S
H613 C576 0.930 . S
H614 C582 0.929 . S
H615 C583 0.930 . S
Li616 N633 1.990 . S
Li616 O676 1.956 . S
Li616 O677 1.970 . S
Li616 O678 1.961 . S
Li617 N641 1.990 . S
Li617 O676 1.970 . S
Li617 O677 1.956 . S
Li617 O679 1.961 . S
Li618 N663 1.990 . S
Li618 O676 1.961 . S
Li618 O678 1.956 . S
Li618 O679 1.970 . S
Li619 N669 1.990 . S
Li619 O677 1.961 . S
Li619 O678 1.970 . S
Li619 O679 1.956 . S
C620 C622 1.348 . S
C620 C623 1.356 . S
C620 O676 1.325 . S
N621 C624 1.314 . S
N621 C625 1.279 . S
C622 C620 1.348 . S
C622 C624 1.353 . S
C622 H680 0.929 . S
C623 C620 1.356 . S
C623 C625 1.358 . S
C623 H681 0.930 . S
C624 N621 1.314 . S
C624 C622 1.353 . S
C624 H682 0.930 . S
C625 N621 1.279 . S
C625 C623 1.358 . S
C625 H683 0.930 . S
C626 C629 1.348 . S
C626 C630 1.356 . S
C626 O677 1.325 . S
C627 N628 1.279 . S
C627 C630 1.358 . S
C627 H684 0.930 . S
N628 C627 1.279 . S
N628 C631 1.314 . S
C629 C626 1.348 . S
C629 C631 1.353 . S
C629 H685 0.929 . S
C630 C626 1.356 . S
C630 C627 1.358 . S
C630 H686 0.930 . S
C631 N628 1.314 . S
C631 C629 1.353 . S
C631 H687 0.930 . S
C632 N633 1.314 . S
C632 C637 1.353 . S
C632 H638 0.930 . S
N633 Li616 1.990 . S
N633 C632 1.314 . S
N633 C635 1.279 . S
C634 C635 1.358 . S
C634 C636 1.356 . S
C634 H688 0.930 . S
C635 N633 1.279 . S
C635 C634 1.358 . S
C635 H639 0.930 . S
C636 C634 1.356 . S
C636 C637 1.348 . S
C637 C632 1.353 . S
C637 C636 1.348 . S
C637 H689 0.929 . S
H638 C632 0.930 . S
H639 C635 0.930 . S
C640 N641 1.314 . S
C640 C642 1.353 . S
C640 H646 0.930 . S
N641 Li617 1.990 . S
N641 C640 1.314 . S
N641 C644 1.279 . S
C642 C640 1.353 . S
C642 C645 1.348 . S
C642 H690 0.929 . S
C643 C644 1.358 . S
C643 C645 1.356 . S
C643 H691 0.930 . S
C644 N641 1.279 . S
C644 C643 1.358 . S
C644 H647 0.930 . S
C645 C642 1.348 . S
C645 C643 1.356 . S
H646 C640 0.930 . S
H647 C644 0.930 . S
C648 C650 1.348 . S
C648 C651 1.356 . S
C648 O678 1.325 . S
N649 C652 1.314 . S
N649 C653 1.279 . S
C650 C648 1.348 . S
C650 C652 1.353 . S
C650 H692 0.929 . S
C651 C648 1.356 . S
C651 C653 1.358 . S
C651 H693 0.930 . S
C652 N649 1.314 . S
C652 C650 1.353 . S
C652 H694 0.930 . S
C653 N649 1.279 . S
C653 C651 1.358 . S
C653 H695 0.930 . S
C654 C655 1.348 . S
C654 C656 1.356 . S
C654 O679 1.325 . S
C655 C654 1.348 . S
C655 C657 1.353 . S
C655 H696 0.929 . S
C656 C654 1.356 . S
C656 C658 1.358 . S
C656 H697 0.930 . S
C657 C655 1.353 . S
C657 N659 1.314 . S
C657 H698 0.930 . S
C658 C656 1.358 . S
C658 N659 1.279 . S
C658 H699 0.930 . S
N659 C657 1.314 . S
N659 C658 1.279 . S
C660 C662 1.353 . S
C660 N663 1.314 . S
C660 H666 0.930 . S
C661 N663 1.279 . S
C661 C664 1.358 . S
C661 H667 0.930 . S
C662 C660 1.353 . S
C662 C665 1.348 . S
C662 H700 0.929 . S
N663 Li618 1.990 . S
N663 C660 1.314 . S
N663 C661 1.279 . S
C664 C661 1.358 . S
C664 C665 1.356 . S
C664 H701 0.930 . S
C665 C662 1.348 . S
C665 C664 1.356 . S
H666 C660 0.930 . S
H667 C661 0.930 . S
C668 N669 1.314 . S
C668 C670 1.353 . S
C668 H674 0.930 . S
N669 Li619 1.990 . S
N669 C668 1.314 . S
N669 C672 1.279 . S
C670 C668 1.353 . S
C670 C673 1.348 . S
C670 H702 0.929 . S
C671 C672 1.358 . S
C671 C673 1.356 . S
C671 H703 0.930 . S
C672 N669 1.279 . S
C672 C671 1.358 . S
C672 H675 0.930 . S
C673 C670 1.348 . S
C673 C671 1.356 . S
H674 C668 0.930 . S
H675 C672 0.930 . S
O676 Li616 1.956 . S
O676 Li617 1.970 . S
O676 Li618 1.961 . S
O676 C620 1.325 . S
O677 Li616 1.970 . S
O677 Li617 1.956 . S
O677 Li619 1.961 . S
O677 C626 1.325 . S
O678 Li616 1.961 . S
O678 Li618 1.956 . S
O678 Li619 1.970 . S
O678 C648 1.325 . S
O679 Li617 1.961 . S
O679 Li618 1.970 . S
O679 Li619 1.956 . S
O679 C654 1.325 . S
H680 C622 0.929 . S
H681 C623 0.930 . S
H682 C624 0.930 . S
H683 C625 0.930 . S
H684 C627 0.930 . S
H685 C629 0.929 . S
H686 C630 0.930 . S
H687 C631 0.930 . S
H688 C634 0.930 . S
H689 C637 0.929 . S
H690 C642 0.929 . S
H691 C643 0.930 . S
H692 C650 0.929 . S
H693 C651 0.930 . S
H694 C652 0.930 . S
H695 C653 0.930 . S
H696 C655 0.929 . S
H697 C656 0.930 . S
H698 C657 0.930 . S
H699 C658 0.930 . S
H700 C662 0.929 . S
H701 C664 0.930 . S
H702 C670 0.929 . S
H703 C671 0.930 . S
Li704 N721 1.990 1_565 S
Li704 O764 1.956 . S
Li704 O765 1.970 . S
Li704 O766 1.961 . S
Li705 N729 1.990 . S
Li705 O764 1.970 . S
Li705 O765 1.956 . S
Li705 O767 1.961 . S
Li706 N751 1.990 . S
Li706 O764 1.961 . S
Li706 O766 1.956 . S
Li706 O767 1.970 . S
Li707 N757 1.990 . S
Li707 O765 1.961 . S
Li707 O766 1.970 . S
Li707 O767 1.956 . S
C708 C710 1.348 1_565 S
C708 C711 1.356 . S
C708 O764 1.325 . S
N709 C712 1.314 . S
N709 C713 1.279 . S
C710 C708 1.348 1_545 S
C710 C712 1.353 . S
C710 H768 0.929 . S
C711 C708 1.356 . S
C711 C713 1.358 1_565 S
C711 H769 0.930 . S
C712 N709 1.314 . S
C712 C710 1.353 . S
C712 H770 0.930 . S
C713 N709 1.279 . S
C713 C711 1.358 1_545 S
C713 H771 0.930 . S
C714 C717 1.348 1_565 S
C714 C718 1.356 . S
C714 O765 1.325 . S
C715 N716 1.279 1_565 S
C715 C718 1.358 . S
C715 H772 0.930 . S
N716 C715 1.279 1_545 S
N716 C719 1.314 . S
C717 C714 1.348 1_545 S
C717 C719 1.353 . S
C717 H773 0.929 . S
C718 C714 1.356 . S
C718 C715 1.358 . S
C718 H774 0.930 . S
C719 N716 1.314 . S
C719 C717 1.353 . S
C719 H775 0.930 . S
C720 N721 1.314 . S
C720 C725 1.353 . S
C720 H726 0.930 . S
N721 Li704 1.990 1_545 S
N721 C720 1.314 . S
N721 C723 1.279 . S
C722 C723 1.358 . S
C722 C724 1.356 . S
C722 H776 0.930 . S
C723 N721 1.279 . S
C723 C722 1.358 . S
C723 H727 0.930 . S
C724 C722 1.356 . S
C724 C725 1.348 . S
C725 C720 1.353 . S
C725 C724 1.348 . S
C725 H777 0.929 . S
H726 C720 0.930 . S
H727 C723 0.930 . S
C728 N729 1.314 . S
C728 C730 1.353 . S
C728 H734 0.930 . S
N729 Li705 1.990 . S
N729 C728 1.314 . S
N729 C732 1.279 . S
C730 C728 1.353 . S
C730 C733 1.348 . S
C730 H778 0.929 . S
C731 C732 1.358 . S
C731 C733 1.356 . S
C731 H779 0.930 1_565 S
C732 N729 1.279 . S
C732 C731 1.358 . S
C732 H735 0.930 . S
C733 C730 1.348 . S
C733 C731 1.356 . S
H734 C728 0.930 . S
H735 C732 0.930 . S
C736 C738 1.348 . S
C736 C739 1.356 . S
C736 O766 1.325 . S
N737 C740 1.314 . S
N737 C741 1.279 . S
C738 C736 1.348 . S
C738 C740 1.353 . S
C738 H780 0.929 . S
C739 C736 1.356 . S
C739 C741 1.358 . S
C739 H781 0.930 . S
C740 N737 1.314 . S
C740 C738 1.353 . S
C740 H782 0.930 . S
C741 N737 1.279 . S
C741 C739 1.358 . S
C741 H783 0.930 . S
C742 C743 1.348 . S
C742 C744 1.356 . S
C742 O767 1.325 . S
C743 C742 1.348 . S
C743 C745 1.353 . S
C743 H784 0.929 . S
C744 C742 1.356 . S
C744 C746 1.358 . S
C744 H785 0.930 . S
C745 C743 1.353 . S
C745 N747 1.314 . S
C745 H786 0.930 . S
C746 C744 1.358 . S
C746 N747 1.279 . S
C746 H787 0.930 . S
N747 C745 1.314 . S
N747 C746 1.279 . S
C748 C750 1.353 . S
C748 N751 1.314 . S
C748 H754 0.930 . S
C749 N751 1.279 . S
C749 C752 1.358 . S
C749 H755 0.930 . S
C750 C748 1.353 . S
C750 C753 1.348 . S
C750 H788 0.929 . S
N751 Li706 1.990 . S
N751 C748 1.314 . S
N751 C749 1.279 . S
C752 C749 1.358 . S
C752 C753 1.356 . S
C752 H789 0.930 . S
C753 C750 1.348 . S
C753 C752 1.356 . S
H754 C748 0.930 . S
H755 C749 0.930 . S
C756 N757 1.314 . S
C756 C758 1.353 . S
C756 H762 0.930 . S
N757 Li707 1.990 . S
N757 C756 1.314 . S
N757 C760 1.279 . S
C758 C756 1.353 . S
C758 C761 1.348 . S
C758 H790 0.929 . S
C759 C760 1.358 . S
C759 C761 1.356 . S
C759 H791 0.930 . S
C760 N757 1.279 . S
C760 C759 1.358 . S
C760 H763 0.930 . S
C761 C758 1.348 . S
C761 C759 1.356 . S
H762 C756 0.930 . S
H763 C760 0.930 . S
O764 Li704 1.956 . S
O764 Li705 1.970 . S
O764 Li706 1.961 . S
O764 C708 1.325 . S
O765 Li704 1.970 . S
O765 Li705 1.956 . S
O765 Li707 1.961 . S
O765 C714 1.325 . S
O766 Li704 1.961 . S
O766 Li706 1.956 . S
O766 Li707 1.970 . S
O766 C736 1.325 . S
O767 Li705 1.961 . S
O767 Li706 1.970 . S
O767 Li707 1.956 . S
O767 C742 1.325 . S
H768 C710 0.929 . S
H769 C711 0.930 . S
H770 C712 0.930 . S
H771 C713 0.930 . S
H772 C715 0.930 . S
H773 C717 0.929 . S
H774 C718 0.930 . S
H775 C719 0.930 . S
H776 C722 0.930 . S
H777 C725 0.929 . S
H778 C730 0.929 . S
H779 C731 0.930 1_545 S
H780 C738 0.929 . S
H781 C739 0.930 . S
H782 C740 0.930 . S
H783 C741 0.930 . S
H784 C743 0.929 . S
H785 C744 0.930 . S
H786 C745 0.930 . S
H787 C746 0.930 . S
H788 C750 0.929 . S
H789 C752 0.930 . S
H790 C758 0.929 . S
H791 C759 0.930 . S
Li792 N809 1.990 . S
Li792 O852 1.956 . S
Li792 O853 1.970 . S
Li792 O854 1.961 . S
Li793 N817 1.990 1_655 S
Li793 O852 1.970 . S
Li793 O853 1.956 . S
Li793 O855 1.961 . S
Li794 N839 1.990 . S
Li794 O852 1.961 . S
Li794 O854 1.956 . S
Li794 O855 1.970 . S
Li795 N845 1.990 . S
Li795 O853 1.961 . S
Li795 O854 1.970 . S
Li795 O855 1.956 . S
C796 C798 1.348 1_655 S
C796 C799 1.356 . S
C796 O852 1.325 . S
N797 C800 1.314 . S
N797 C801 1.279 1_455 S
C798 C796 1.348 1_455 S
C798 C800 1.353 . S
C798 H856 0.929 . S
C799 C796 1.356 . S
C799 C801 1.358 . S
C799 H857 0.930 . S
C800 N797 1.314 . S
C800 C798 1.353 . S
C800 H858 0.930 . S
C801 N797 1.279 1_655 S
C801 C799 1.358 . S
C801 H859 0.930 . S
C802 C805 1.348 . S
C802 C806 1.356 . S
C802 O853 1.325 . S
C803 N804 1.279 . S
C803 C806 1.358 . S
C803 H860 0.930 . S
N804 C803 1.279 . S
N804 C807 1.314 . S
C805 C802 1.348 . S
C805 C807 1.353 . S
C805 H861 0.929 . S
C806 C802 1.356 . S
C806 C803 1.358 . S
C806 H862 0.930 . S
C807 N804 1.314 . S
C807 C805 1.353 . S
C807 H863 0.930 . S
C808 N809 1.314 . S
C808 C813 1.353 . S
C808 H814 0.930 . S
N809 Li792 1.990 . S
N809 C808 1.314 . S
N809 C811 1.279 . S
C810 C811 1.358 . S
C810 C812 1.356 . S
C810 H864 0.930 . S
C811 N809 1.279 . S
C811 C810 1.358 . S
C811 H815 0.930 . S
C812 C810 1.356 . S
C812 C813 1.348 . S
C813 C808 1.353 . S
C813 C812 1.348 . S
C813 H865 0.929 . S
H814 C808 0.930 . S
H815 C811 0.930 . S
C816 N817 1.314 . S
C816 C818 1.353 . S
C816 H822 0.930 . S
N817 Li793 1.990 1_455 S
N817 C816 1.314 . S
N817 C820 1.279 . S
C818 C816 1.353 . S
C818 C821 1.348 . S
C818 H866 0.929 . S
C819 C820 1.358 . S
C819 C821 1.356 . S
C819 H867 0.930 . S
C820 N817 1.279 . S
C820 C819 1.358 . S
C820 H823 0.930 . S
C821 C818 1.348 . S
C821 C819 1.356 . S
H822 C816 0.930 . S
H823 C820 0.930 . S
C824 C826 1.348 . S
C824 C827 1.356 . S
C824 O854 1.325 . S
N825 C828 1.314 . S
N825 C829 1.279 . S
C826 C824 1.348 . S
C826 C828 1.353 . S
C826 H868 0.929 . S
C827 C824 1.356 . S
C827 C829 1.358 . S
C827 H869 0.930 . S
C828 N825 1.314 . S
C828 C826 1.353 . S
C828 H870 0.930 . S
C829 N825 1.279 . S
C829 C827 1.358 . S
C829 H871 0.930 . S
C830 C831 1.348 . S
C830 C832 1.356 1_655 S
C830 O855 1.325 . S
C831 C830 1.348 . S
C831 C833 1.353 1_655 S
C831 H872 0.929 . S
C832 C830 1.356 1_455 S
C832 C834 1.358 . S
C832 H873 0.930 . S
C833 C831 1.353 1_455 S
C833 N835 1.314 . S
C833 H874 0.930 . S
C834 C832 1.358 . S
C834 N835 1.279 . S
C834 H875 0.930 . S
N835 C833 1.314 . S
N835 C834 1.279 . S
C836 C838 1.348 1_655 S
C836 N839 1.314 . S
C836 H842 0.930 1_655 S
C837 N839 1.279 . S
C837 C840 1.358 . S
C837 H843 0.930 . S
C838 C836 1.348 1_455 S
C838 C841 1.337 1_455 S
C838 H876 0.945 . S
N839 Li794 1.990 . S
N839 C836 1.314 . S
N839 C837 1.279 . S
C840 C837 1.358 . S
C840 C841 1.356 . S
C840 H877 0.930 . S
C841 C838 1.337 1_655 S
C841 C840 1.356 . S
H842 C836 0.930 1_455 S
H843 C837 0.930 . S
C844 N845 1.314 . S
C844 C846 1.353 . S
C844 H850 0.930 . S
N845 Li795 1.990 . S
N845 C844 1.314 . S
N845 C848 1.279 . S
C846 C844 1.353 . S
C846 C849 1.348 . S
C846 H878 0.929 . S
C847 C848 1.358 . S
C847 C849 1.356 . S
C847 H879 0.930 . S
C848 N845 1.279 . S
C848 C847 1.358 . S
C848 H851 0.930 . S
C849 C846 1.348 . S
C849 C847 1.356 . S
H850 C844 0.930 . S
H851 C848 0.930 . S
O852 Li792 1.956 . S
O852 Li793 1.970 . S
O852 Li794 1.961 . S
O852 C796 1.325 . S
O853 Li792 1.970 . S
O853 Li793 1.956 . S
O853 Li795 1.961 . S
O853 C802 1.325 . S
O854 Li792 1.961 . S
O854 Li794 1.956 . S
O854 Li795 1.970 . S
O854 C824 1.325 . S
O855 Li793 1.961 . S
O855 Li794 1.970 . S
O855 Li795 1.956 . S
O855 C830 1.325 . S
H856 C798 0.929 . S
H857 C799 0.930 . S
H858 C800 0.930 . S
H859 C801 0.930 . S
H860 C803 0.930 . S
H861 C805 0.929 . S
H862 C806 0.930 . S
H863 C807 0.930 . S
H864 C810 0.930 . S
H865 C813 0.929 . S
H866 C818 0.929 . S
H867 C819 0.930 . S
H868 C826 0.929 . S
H869 C827 0.930 . S
H870 C828 0.930 . S
H871 C829 0.930 . S
H872 C831 0.929 . S
H873 C832 0.930 . S
H874 C833 0.930 . S
H875 C834 0.930 . S
H876 C838 0.945 . S
H877 C840 0.930 . S
H878 C846 0.929 . S
H879 C847 0.930 . S
Li880 N897 1.990 . S
Li880 O940 1.956 . S
Li880 O941 1.970 . S
Li880 O942 1.961 . S
Li881 N905 1.990 . S
Li881 O940 1.970 . S
Li881 O941 1.956 . S
Li881 O943 1.961 . S
Li882 N927 1.990 1_545 S
Li882 O940 1.961 . S
Li882 O942 1.956 . S
Li882 O943 1.970 . S
Li883 N933 1.990 . S
Li883 O941 1.961 . S
Li883 O942 1.970 . S
Li883 O943 1.956 . S
C884 C886 1.348 . S
C884 C887 1.356 . S
C884 O940 1.325 . S
N885 C888 1.314 . S
N885 C889 1.279 . S
C886 C884 1.348 . S
C886 C888 1.353 . S
C886 H944 0.929 . S
C887 C884 1.356 . S
C887 C889 1.358 . S
C887 H945 0.930 . S
C888 N885 1.314 . S
C888 C886 1.353 . S
C888 H946 0.930 . S
C889 N885 1.279 . S
C889 C887 1.358 . S
C889 H947 0.930 . S
C890 C893 1.348 . S
C890 C894 1.356 . S
C890 O941 1.325 . S
C891 N892 1.279 . S
C891 C894 1.358 . S
C891 H948 0.930 . S
N892 C891 1.279 . S
N892 C895 1.314 . S
C893 C890 1.348 . S
C893 C895 1.353 . S
C893 H949 0.929 . S
C894 C890 1.356 . S
C894 C891 1.358 . S
C894 H950 0.930 . S
C895 N892 1.314 . S
C895 C893 1.353 . S
C895 H951 0.930 . S
C896 N897 1.314 . S
C896 C901 1.353 . S
C896 H902 0.930 . S
N897 Li880 1.990 . S
N897 C896 1.314 . S
N897 C899 1.279 . S
C898 C899 1.358 . S
C898 C900 1.356 . S
C898 H952 0.930 . S
C899 N897 1.279 . S
C899 C898 1.358 . S
C899 H903 0.930 . S
C900 C898 1.356 . S
C900 C901 1.348 . S
C901 C896 1.353 . S
C901 C900 1.348 . S
C901 H953 0.929 . S
H902 C896 0.930 . S
H903 C899 0.930 . S
C904 N905 1.314 . S
C904 C906 1.353 . S
C904 H910 0.930 . S
N905 Li881 1.990 . S
N905 C904 1.314 . S
N905 C908 1.279 . S
C906 C904 1.353 . S
C906 C909 1.348 . S
C906 H954 0.929 . S
C907 C908 1.358 . S
C907 C909 1.356 . S
C907 H955 0.930 . S
C908 N905 1.279 . S
C908 C907 1.358 . S
C908 H911 0.930 . S
C909 C906 1.348 . S
C909 C907 1.356 . S
H910 C904 0.930 . S
H911 C908 0.930 . S
C912 C914 1.348 1_545 S
C912 C915 1.356 . S
C912 O942 1.325 . S
N913 C916 1.314 . S
N913 C917 1.279 . S
C914 C912 1.348 1_565 S
C914 C916 1.353 . S
C914 H956 0.929 . S
C915 C912 1.356 . S
C915 C917 1.358 1_545 S
C915 H957 0.930 . S
C916 N913 1.314 . S
C916 C914 1.353 . S
C916 H958 0.930 . S
C917 N913 1.279 . S
C917 C915 1.358 1_565 S
C917 H959 0.930 . S
C918 C919 1.348 1_545 S
C918 C920 1.356 . S
C918 O943 1.325 . S
C919 C918 1.348 1_565 S
C919 C921 1.353 . S
C919 H960 0.929 . S
C920 C918 1.356 . S
C920 C922 1.358 . S
C920 H961 0.930 . S
C921 C919 1.353 . S
C921 N923 1.314 . S
C921 H962 0.930 . S
C922 C920 1.358 . S
C922 N923 1.279 1_545 S
C922 H963 0.930 . S
N923 C921 1.314 . S
N923 C922 1.279 1_565 S
C924 C926 1.353 . S
C924 N927 1.314 . S
C924 H930 0.930 . S
C925 N927 1.279 . S
C925 C928 1.358 . S
C925 H931 0.930 . S
C926 C924 1.353 . S
C926 C929 1.348 . S
C926 H964 0.929 . S
N927 Li882 1.990 1_565 S
N927 C924 1.314 . S
N927 C925 1.279 . S
C928 C925 1.358 . S
C928 C929 1.356 . S
C928 H965 0.930 . S
C929 C926 1.348 . S
C929 C928 1.356 . S
H930 C924 0.930 . S
H931 C925 0.930 . S
C932 N933 1.314 . S
C932 C934 1.353 . S
C932 H938 0.930 . S
N933 Li883 1.990 . S
N933 C932 1.314 . S
N933 C936 1.279 . S
C934 C932 1.353 . S
C934 C937 1.348 . S
C934 H966 0.929 . S
C935 C936 1.358 . S
C935 C937 1.356 . S
C935 H967 0.930 1_545 S
C936 N933 1.279 . S
C936 C935 1.358 . S
C936 H939 0.930 . S
C937 C934 1.348 . S
C937 C935 1.356 . S
H938 C932 0.930 . S
H939 C936 0.930 . S
O940 Li880 1.956 . S
O940 Li881 1.970 . S
O940 Li882 1.961 . S
O940 C884 1.325 . S
O941 Li880 1.970 . S
O941 Li881 1.956 . S
O941 Li883 1.961 . S
O941 C890 1.325 . S
O942 Li880 1.961 . S
O942 Li882 1.956 . S
O942 Li883 1.970 . S
O942 C912 1.325 . S
O943 Li881 1.961 . S
O943 Li882 1.970 . S
O943 Li883 1.956 . S
O943 C918 1.325 . S
H944 C886 0.929 . S
H945 C887 0.930 . S
H946 C888 0.930 . S
H947 C889 0.930 . S
H948 C891 0.930 . S
H949 C893 0.929 . S
H950 C894 0.930 . S
H951 C895 0.930 . S
H952 C898 0.930 . S
H953 C901 0.929 . S
H954 C906 0.929 . S
H955 C907 0.930 . S
H956 C914 0.929 . S
H957 C915 0.930 . S
H958 C916 0.930 . S
H959 C917 0.930 . S
H960 C919 0.929 . S
H961 C920 0.930 . S
H962 C921 0.930 . S
H963 C922 0.930 . S
H964 C926 0.929 . S
H965 C928 0.930 . S
H966 C934 0.929 . S
H967 C935 0.930 1_565 S
Li968 N985 1.990 1_455 S
Li968 O1028 1.956 . S
Li968 O1029 1.970 . S
Li968 O1030 1.961 . S
Li969 N993 1.990 . S
Li969 O1028 1.970 . S
Li969 O1029 1.956 . S
Li969 O1031 1.961 . S
Li970 N1015 1.990 . S
Li970 O1028 1.961 . S
Li970 O1030 1.956 . S
Li970 O1031 1.970 . S
Li971 N1021 1.990 . S
Li971 O1029 1.961 . S
Li971 O1030 1.970 . S
Li971 O1031 1.956 . S
C972 C974 1.348 . S
C972 C975 1.356 . S
C972 O1028 1.325 . S
N973 C976 1.314 . S
N973 C977 1.279 . S
C974 C972 1.348 . S
C974 C976 1.353 . S
C974 H1032 0.929 . S
C975 C972 1.356 . S
C975 C977 1.358 . S
C975 H1033 0.930 . S
C976 N973 1.314 . S
C976 C974 1.353 . S
C976 H1034 0.930 . S
C977 N973 1.279 . S
C977 C975 1.358 . S
C977 H1035 0.930 . S
C978 C981 1.348 1_455 S
C978 C982 1.356 . S
C978 O1029 1.325 . S
C979 N980 1.279 1_455 S
C979 C982 1.358 . S
C979 H1036 0.930 . S
N980 C979 1.279 1_655 S
N980 C983 1.314 . S
C981 C978 1.348 1_655 S
C981 C983 1.353 . S
C981 H1037 0.929 . S
C982 C978 1.356 . S
C982 C979 1.358 . S
C982 H1038 0.930 . S
C983 N980 1.314 . S
C983 C981 1.353 . S
C983 H1039 0.930 . S
C984 N985 1.314 . S
C984 C989 1.353 . S
C984 H990 0.930 . S
N985 Li968 1.990 1_655 S
N985 C984 1.314 . S
N985 C987 1.279 . S
C986 C987 1.358 . S
C986 C988 1.356 . S
C986 H1040 0.930 . S
C987 N985 1.279 . S
C987 C986 1.358 . S
C987 H991 0.930 . S
C988 C986 1.356 . S
C988 C989 1.348 . S
C989 C984 1.353 . S
C989 C988 1.348 . S
C989 H1041 0.929 . S
H990 C984 0.930 . S
H991 C987 0.930 . S
C992 N993 1.314 . S
C992 C994 1.353 . S
C992 H998 0.930 . S
N993 Li969 1.990 . S
N993 C992 1.314 . S
N993 C996 1.279 . S
C994 C992 1.353 . S
C994 C997 1.348 . S
C994 H1042 0.929 . S
C995 C996 1.358 . S
C995 C997 1.356 . S
C995 H1043 0.930 . S
C996 N993 1.279 . S
C996 C995 1.358 . S
C996 H999 0.930 . S
C997 C994 1.348 . S
C997 C995 1.356 . S
H998 C992 0.930 . S
H999 C996 0.930 . S
C1000 C1002 1.348 . S
C1000 C1003 1.356 1_455 S
C1000 O1030 1.325 . S
N1001 C1004 1.314 . S
N1001 C1005 1.279 . S
C1002 C1000 1.348 . S
C1002 C1004 1.353 1_455 S
C1002 H1044 0.929 . S
C1003 C1000 1.356 1_655 S
C1003 C1005 1.358 . S
C1003 H1045 0.930 . S
C1004 N1001 1.314 . S
C1004 C1002 1.353 1_655 S
C1004 H1046 0.930 . S
C1005 N1001 1.279 . S
C1005 C1003 1.358 . S
C1005 H1047 0.930 . S
C1006 C1007 1.348 . S
C1006 C1008 1.356 . S
C1006 O1031 1.325 . S
C1007 C1006 1.348 . S
C1007 C1009 1.353 . S
C1007 H1048 0.929 . S
C1008 C1006 1.356 . S
C1008 C1010 1.358 . S
C1008 H1049 0.930 . S
C1009 C1007 1.353 . S
C1009 N1011 1.314 . S
C1009 H1050 0.930 . S
C1010 C1008 1.358 . S
C1010 N1011 1.279 . S
C1010 H1051 0.930 . S
N1011 C1009 1.314 . S
N1011 C1010 1.279 . S
C1012 C1014 1.353 . S
C1012 N1015 1.314 . S
C1012 H1018 0.930 . S
C1013 N1015 1.279 . S
C1013 C1016 1.358 . S
C1013 H1019 0.930 . S
C1014 C1012 1.353 . S
C1014 C1017 1.348 . S
C1014 H1052 0.929 . S
N1015 Li970 1.990 . S
N1015 C1012 1.314 . S
N1015 C1013 1.279 . S
C1016 C1013 1.358 . S
C1016 C1017 1.356 . S
C1016 H1053 0.930 . S
C1017 C1014 1.348 . S
C1017 C1016 1.356 . S
H1018 C1012 0.930 . S
H1019 C1013 0.930 . S
C1020 N1021 1.314 . S
C1020 C1022 1.348 1_455 S
C1020 H1026 0.930 1_455 S
N1021 Li971 1.990 . S
N1021 C1020 1.314 . S
N1021 C1024 1.279 . S
C1022 C1020 1.348 1_655 S
C1022 C1025 1.337 1_655 S
C1022 H1054 0.945 . S
C1023 C1024 1.358 . S
C1023 C1025 1.356 . S
C1023 H1055 0.930 . S
C1024 N1021 1.279 . S
C1024 C1023 1.358 . S
C1024 H1027 0.930 . S
C1025 C1022 1.337 1_455 S
C1025 C1023 1.356 . S
H1026 C1020 0.930 1_655 S
H1027 C1024 0.930 . S
O1028 Li968 1.956 . S
O1028 Li969 1.970 . S
O1028 Li970 1.961 . S
O1028 C972 1.325 . S
O1029 Li968 1.970 . S
O1029 Li969 1.956 . S
O1029 Li971 1.961 . S
O1029 C978 1.325 . S
O1030 Li968 1.961 . S
O1030 Li970 1.956 . S
O1030 Li971 1.970 . S
O1030 C1000 1.325 . S
O1031 Li969 1.961 . S
O1031 Li970 1.970 . S
O1031 Li971 1.956 . S
O1031 C1006 1.325 . S
H1032 C974 0.929 . S
H1033 C975 0.930 . S
H1034 C976 0.930 . S
H1035 C977 0.930 . S
H1036 C979 0.930 . S
H1037 C981 0.929 . S
H1038 C982 0.930 . S
H1039 C983 0.930 . S
H1040 C986 0.930 . S
H1041 C989 0.929 . S
H1042 C994 0.929 . S
H1043 C995 0.930 . S
H1044 C1002 0.929 . S
H1045 C1003 0.930 . S
H1046 C1004 0.930 . S
H1047 C1005 0.930 . S
H1048 C1007 0.929 . S
H1049 C1008 0.930 . S
H1050 C1009 0.930 . S
H1051 C1010 0.930 . S
H1052 C1014 0.929 . S
H1053 C1016 0.930 . S
H1054 C1022 0.945 . S
H1055 C1023 0.930 . S
Li1056 N1073 1.990 . S
Li1056 O1116 1.956 . S
Li1056 O1117 1.970 . S
Li1056 O1118 1.961 . S
Li1057 N1081 1.990 . S
Li1057 O1116 1.970 . S
Li1057 O1117 1.956 . S
Li1057 O1119 1.961 . S
Li1058 N1103 1.990 . S
Li1058 O1116 1.961 . S
Li1058 O1118 1.956 . S
Li1058 O1119 1.970 . S
Li1059 N1109 1.990 1_545 S
Li1059 O1117 1.961 . S
Li1059 O1118 1.970 . S
Li1059 O1119 1.956 . S
C1060 C1062 1.348 . S
C1060 C1063 1.356 . S
C1060 O1116 1.325 . S
N1061 C1064 1.314 . S
N1061 C1065 1.279 . S
C1062 C1060 1.348 . S
C1062 C1064 1.353 . S
C1062 H1120 0.929 . S
C1063 C1060 1.356 . S
C1063 C1065 1.358 . S
C1063 H1121 0.930 . S
C1064 N1061 1.314 . S
C1064 C1062 1.353 . S
C1064 H1122 0.930 . S
C1065 N1061 1.279 . S
C1065 C1063 1.358 . S
C1065 H1123 0.930 . S
C1066 C1069 1.348 . S
C1066 C1070 1.356 . S
C1066 O1117 1.325 . S
C1067 N1068 1.279 . S
C1067 C1070 1.358 . S
C1067 H1124 0.930 . S
N1068 C1067 1.279 . S
N1068 C1071 1.314 . S
C1069 C1066 1.348 . S
C1069 C1071 1.353 . S
C1069 H1125 0.929 . S
C1070 C1066 1.356 . S
C1070 C1067 1.358 . S
C1070 H1126 0.930 . S
C1071 N1068 1.314 . S
C1071 C1069 1.353 . S
C1071 H1127 0.930 . S
C1072 N1073 1.314 . S
C1072 C1077 1.353 . S
C1072 H1078 0.930 . S
N1073 Li1056 1.990 . S
N1073 C1072 1.314 . S
N1073 C1075 1.279 . S
C1074 C1075 1.358 . S
C1074 C1076 1.356 . S
C1074 H1128 0.930 . S
C1075 N1073 1.279 . S
C1075 C1074 1.358 . S
C1075 H1079 0.930 . S
C1076 C1074 1.356 . S
C1076 C1077 1.348 . S
C1077 C1072 1.353 . S
C1077 C1076 1.348 . S
C1077 H1129 0.929 . S
H1078 C1072 0.930 . S
H1079 C1075 0.930 . S
C1080 N1081 1.314 . S
C1080 C1082 1.353 . S
C1080 H1086 0.930 . S
N1081 Li1057 1.990 . S
N1081 C1080 1.314 . S
N1081 C1084 1.279 . S
C1082 C1080 1.353 . S
C1082 C1085 1.348 . S
C1082 H1130 0.929 . S
C1083 C1084 1.358 . S
C1083 C1085 1.356 . S
C1083 H1131 0.930 . S
C1084 N1081 1.279 . S
C1084 C1083 1.358 . S
C1084 H1087 0.930 . S
C1085 C1082 1.348 . S
C1085 C1083 1.356 . S
H1086 C1080 0.930 . S
H1087 C1084 0.930 . S
C1088 C1090 1.348 1_545 S
C1088 C1091 1.356 . S
C1088 O1118 1.325 . S
N1089 C1092 1.314 . S
N1089 C1093 1.279 1_565 S
C1090 C1088 1.348 1_565 S
C1090 C1092 1.353 . S
C1090 H1132 0.929 . S
C1091 C1088 1.356 . S
C1091 C1093 1.358 . S
C1091 H1133 0.930 . S
C1092 N1089 1.314 . S
C1092 C1090 1.353 . S
C1092 H1134 0.930 . S
C1093 N1089 1.279 1_545 S
C1093 C1091 1.358 . S
C1093 H1135 0.930 . S
C1094 C1095 1.348 1_545 S
C1094 C1096 1.356 . S
C1094 O1119 1.325 . S
C1095 C1094 1.348 1_565 S
C1095 C1097 1.353 . S
C1095 H1136 0.929 . S
C1096 C1094 1.356 . S
C1096 C1098 1.358 1_545 S
C1096 H1137 0.930 . S
C1097 C1095 1.353 . S
C1097 N1099 1.314 . S
C1097 H1138 0.930 . S
C1098 C1096 1.358 1_565 S
C1098 N1099 1.279 . S
C1098 H1139 0.930 . S
N1099 C1097 1.314 . S
N1099 C1098 1.279 . S
C1100 C1102 1.353 . S
C1100 N1103 1.314 . S
C1100 H1106 0.930 . S
C1101 N1103 1.279 . S
C1101 C1104 1.358 . S
C1101 H1107 0.930 . S
C1102 C1100 1.353 . S
C1102 C1105 1.348 . S
C1102 H1140 0.929 . S
N1103 Li1058 1.990 . S
N1103 C1100 1.314 . S
N1103 C1101 1.279 . S
C1104 C1101 1.358 . S
C1104 C1105 1.356 . S
C1104 H1141 0.930 1_545 S
C1105 C1102 1.348 . S
C1105 C1104 1.356 . S
H1106 C1100 0.930 . S
H1107 C1101 0.930 . S
C1108 N1109 1.314 . S
C1108 C1110 1.353 . S
C1108 H1114 0.930 . S
N1109 Li1059 1.990 1_565 S
N1109 C1108 1.314 . S
N1109 C1112 1.279 . S
C1110 C1108 1.353 . S
C1110 C1113 1.348 . S
C1110 H1142 0.929 . S
C1111 C1112 1.358 . S
C1111 C1113 1.356 . S
C1111 H1143 0.930 . S
C1112 N1109 1.279 . S
C1112 C1111 1.358 . S
C1112 H1115 0.930 . S
C1113 C1110 1.348 . S
C1113 C1111 1.356 . S
H1114 C1108 0.930 . S
H1115 C1112 0.930 . S
O1116 Li1056 1.956 . S
O1116 Li1057 1.970 . S
O1116 Li1058 1.961 . S
O1116 C1060 1.325 . S
O1117 Li1056 1.970 . S
O1117 Li1057 1.956 . S
O1117 Li1059 1.961 . S
O1117 C1066 1.325 . S
O1118 Li1056 1.961 . S
O1118 Li1058 1.956 . S
O1118 Li1059 1.970 . S
O1118 C1088 1.325 . S
O1119 Li1057 1.961 . S
O1119 Li1058 1.970 . S
O1119 Li1059 1.956 . S
O1119 C1094 1.325 . S
H1120 C1062 0.929 . S
H1121 C1063 0.930 . S
H1122 C1064 0.930 . S
H1123 C1065 0.930 . S
H1124 C1067 0.930 . S
H1125 C1069 0.929 . S
H1126 C1070 0.930 . S
H1127 C1071 0.930 . S
H1128 C1074 0.930 . S
H1129 C1077 0.929 . S
H1130 C1082 0.929 . S
H1131 C1083 0.930 . S
H1132 C1090 0.929 . S
H1133 C1091 0.930 . S
H1134 C1092 0.930 . S
H1135 C1093 0.930 . S
H1136 C1095 0.929 . S
H1137 C1096 0.930 . S
H1138 C1097 0.930 . S
H1139 C1098 0.930 . S
H1140 C1102 0.929 . S
H1141 C1104 0.930 1_565 S
H1142 C1110 0.929 . S
H1143 C1111 0.930 . S
Li1144 N1161 1.990 . S
Li1144 O1204 1.956 . S
Li1144 O1205 1.970 . S
Li1144 O1206 1.961 . S
Li1145 N1169 1.990 . S
Li1145 O1204 1.970 . S
Li1145 O1205 1.956 . S
Li1145 O1207 1.961 . S
Li1146 N1191 1.990 . S
Li1146 O1204 1.961 . S
Li1146 O1206 1.956 . S
Li1146 O1207 1.970 . S
Li1147 N1197 1.990 1_455 S
Li1147 O1205 1.961 . S
Li1147 O1206 1.970 . S
Li1147 O1207 1.956 . S
C1148 C1150 1.348 . S
C1148 C1151 1.356 . S
C1148 O1204 1.325 . S
N1149 C1152 1.314 . S
N1149 C1153 1.279 . S
C1150 C1148 1.348 . S
C1150 C1152 1.353 . S
C1150 H1208 0.929 . S
C1151 C1148 1.356 . S
C1151 C1153 1.358 . S
C1151 H1209 0.930 . S
C1152 N1149 1.314 . S
C1152 C1150 1.353 . S
C1152 H1210 0.930 . S
C1153 N1149 1.279 . S
C1153 C1151 1.358 . S
C1153 H1211 0.930 . S
C1154 C1157 1.348 . S
C1154 C1158 1.356 1_455 S
C1154 O1205 1.325 . S
C1155 N1156 1.279 . S
C1155 C1158 1.358 . S
C1155 H1212 0.930 . S
N1156 C1155 1.279 . S
N1156 C1159 1.314 . S
C1157 C1154 1.348 . S
C1157 C1159 1.353 1_455 S
C1157 H1213 0.929 . S
C1158 C1154 1.356 1_655 S
C1158 C1155 1.358 . S
C1158 H1214 0.930 . S
C1159 N1156 1.314 . S
C1159 C1157 1.353 1_655 S
C1159 H1215 0.930 . S
C1160 N1161 1.314 . S
C1160 C1165 1.348 1_455 S
C1160 H1166 0.930 1_455 S
N1161 Li1144 1.990 . S
N1161 C1160 1.314 . S
N1161 C1163 1.279 . S
C1162 C1163 1.358 . S
C1162 C1164 1.356 . S
C1162 H1216 0.930 . S
C1163 N1161 1.279 . S
C1163 C1162 1.358 . S
C1163 H1167 0.930 . S
C1164 C1162 1.356 . S
C1164 C1165 1.337 1_455 S
C1165 C1160 1.348 1_655 S
C1165 C1164 1.337 1_655 S
C1165 H1217 0.945 . S
H1166 C1160 0.930 1_655 S
H1167 C1163 0.930 . S
C1168 N1169 1.314 . S
C1168 C1170 1.353 . S
C1168 H1174 0.930 . S
N1169 Li1145 1.990 . S
N1169 C1168 1.314 . S
N1169 C1172 1.279 . S
C1170 C1168 1.353 . S
C1170 C1173 1.348 . S
C1170 H1218 0.929 . S
C1171 C1172 1.358 . S
C1171 C1173 1.356 . S
C1171 H1219 0.930 . S
C1172 N1169 1.279 . S
C1172 C1171 1.358 . S
C1172 H1175 0.930 . S
C1173 C1170 1.348 . S
C1173 C1171 1.356 . S
H1174 C1168 0.930 . S
H1175 C1172 0.930 . S
C1176 C1178 1.348 1_455 S
C1176 C1179 1.356 . S
C1176 O1206 1.325 . S
N1177 C1180 1.314 . S
N1177 C1181 1.279 1_655 S
C1178 C1176 1.348 1_655 S
C1178 C1180 1.353 . S
C1178 H1220 0.929 . S
C1179 C1176 1.356 . S
C1179 C1181 1.358 . S
C1179 H1221 0.930 . S
C1180 N1177 1.314 . S
C1180 C1178 1.353 . S
C1180 H1222 0.930 . S
C1181 N1177 1.279 1_455 S
C1181 C1179 1.358 . S
C1181 H1223 0.930 . S
C1182 C1183 1.348 . S
C1182 C1184 1.356 . S
C1182 O1207 1.325 . S
C1183 C1182 1.348 . S
C1183 C1185 1.353 . S
C1183 H1224 0.929 . S
C1184 C1182 1.356 . S
C1184 C1186 1.358 . S
C1184 H1225 0.930 . S
C1185 C1183 1.353 . S
C1185 N1187 1.314 . S
C1185 H1226 0.930 . S
C1186 C1184 1.358 . S
C1186 N1187 1.279 . S
C1186 H1227 0.930 . S
N1187 C1185 1.314 . S
N1187 C1186 1.279 . S
C1188 C1190 1.353 . S
C1188 N1191 1.314 . S
C1188 H1194 0.930 . S
C1189 N1191 1.279 . S
C1189 C1192 1.358 . S
C1189 H1195 0.930 . S
C1190 C1188 1.353 . S
C1190 C1193 1.348 . S
C1190 H1228 0.929 . S
N1191 Li1146 1.990 . S
N1191 C1188 1.314 . S
N1191 C1189 1.279 . S
C1192 C1189 1.358 . S
C1192 C1193 1.356 . S
C1192 H1229 0.930 . S
C1193 C1190 1.348 . S
C1193 C1192 1.356 . S
H1194 C1188 0.930 . S
H1195 C1189 0.930 . S
C1196 N1197 1.314 . S
C1196 C1198 1.353 . S
C1196 H1202 0.930 . S
N1197 Li1147 1.990 1_655 S
N1197 C1196 1.314 . S
N1197 C1200 1.279 . S
C1198 C1196 1.353 . S
C1198 C1201 1.348 . S
C1198 H1230 0.929 . S
C1199 C1200 1.358 . S
C1199 C1201 1.356 . S
C1199 H1231 0.930 . S
C1200 N1197 1.279 . S
C1200 C1199 1.358 . S
C1200 H1203 0.930 . S
C1201 C1198 1.348 . S
C1201 C1199 1.356 . S
H1202 C1196 0.930 . S
H1203 C1200 0.930 . S
O1204 Li1144 1.956 . S
O1204 Li1145 1.970 . S
O1204 Li1146 1.961 . S
O1204 C1148 1.325 . S
O1205 Li1144 1.970 . S
O1205 Li1145 1.956 . S
O1205 Li1147 1.961 . S
O1205 C1154 1.325 . S
O1206 Li1144 1.961 . S
O1206 Li1146 1.956 . S
O1206 Li1147 1.970 . S
O1206 C1176 1.325 . S
O1207 Li1145 1.961 . S
O1207 Li1146 1.970 . S
O1207 Li1147 1.956 . S
O1207 C1182 1.325 . S
H1208 C1150 0.929 . S
H1209 C1151 0.930 . S
H1210 C1152 0.930 . S
H1211 C1153 0.930 . S
H1212 C1155 0.930 . S
H1213 C1157 0.929 . S
H1214 C1158 0.930 . S
H1215 C1159 0.930 . S
H1216 C1162 0.930 . S
H1217 C1165 0.945 . S
H1218 C1170 0.929 . S
H1219 C1171 0.930 . S
H1220 C1178 0.929 . S
H1221 C1179 0.930 . S
H1222 C1180 0.930 . S
H1223 C1181 0.930 . S
H1224 C1183 0.929 . S
H1225 C1184 0.930 . S
H1226 C1185 0.930 . S
H1227 C1186 0.930 . S
H1228 C1190 0.929 . S
H1229 C1192 0.930 . S
H1230 C1198 0.929 . S
H1231 C1199 0.930 . S
Li1232 N1249 1.990 . S
Li1232 O1292 1.956 . S
Li1232 O1293 1.970 . S
Li1232 O1294 1.961 . S
Li1233 N1257 1.990 1_565 S
Li1233 O1292 1.970 . S
Li1233 O1293 1.956 . S
Li1233 O1295 1.961 . S
Li1234 N1279 1.990 . S
Li1234 O1292 1.961 . S
Li1234 O1294 1.956 . S
Li1234 O1295 1.970 . S
Li1235 N1285 1.990 . S
Li1235 O1293 1.961 . S
Li1235 O1294 1.970 . S
Li1235 O1295 1.956 . S
C1236 C1238 1.348 1_565 S
C1236 C1239 1.356 . S
C1236 O1292 1.325 . S
N1237 C1240 1.314 . S
N1237 C1241 1.279 1_545 S
C1238 C1236 1.348 1_545 S
C1238 C1240 1.353 . S
C1238 H1296 0.929 . S
C1239 C1236 1.356 . S
C1239 C1241 1.358 . S
C1239 H1297 0.930 . S
C1240 N1237 1.314 . S
C1240 C1238 1.353 . S
C1240 H1298 0.930 . S
C1241 N1237 1.279 1_565 S
C1241 C1239 1.358 . S
C1241 H1299 0.930 . S
C1242 C1245 1.348 1_565 S
C1242 C1246 1.356 . S
C1242 O1293 1.325 . S
C1243 N1244 1.279 . S
C1243 C1246 1.358 1_545 S
C1243 H1300 0.930 . S
N1244 C1243 1.279 . S
N1244 C1247 1.314 . S
C1245 C1242 1.348 1_545 S
C1245 C1247 1.353 . S
C1245 H1301 0.929 . S
C1246 C1242 1.356 . S
C1246 C1243 1.358 1_565 S
C1246 H1302 0.930 . S
C1247 N1244 1.314 . S
C1247 C1245 1.353 . S
C1247 H1303 0.930 . S
C1248 N1249 1.314 . S
C1248 C1253 1.353 . S
C1248 H1254 0.930 . S
N1249 Li1232 1.990 . S
N1249 C1248 1.314 . S
N1249 C1251 1.279 . S
C1250 C1251 1.358 . S
C1250 C1252 1.356 . S
C1250 H1304 0.930 1_565 S
C1251 N1249 1.279 . S
C1251 C1250 1.358 . S
C1251 H1255 0.930 . S
C1252 C1250 1.356 . S
C1252 C1253 1.348 . S
C1253 C1248 1.353 . S
C1253 C1252 1.348 . S
C1253 H1305 0.929 . S
H1254 C1248 0.930 . S
H1255 C1251 0.930 . S
C1256 N1257 1.314 . S
C1256 C1258 1.353 . S
C1256 H1262 0.930 . S
N1257 Li1233 1.990 1_545 S
N1257 C1256 1.314 . S
N1257 C1260 1.279 . S
C1258 C1256 1.353 . S
C1258 C1261 1.348 . S
C1258 H1306 0.929 . S
C1259 C1260 1.358 . S
C1259 C1261 1.356 . S
C1259 H1307 0.930 . S
C1260 N1257 1.279 . S
C1260 C1259 1.358 . S
C1260 H1263 0.930 . S
C1261 C1258 1.348 . S
C1261 C1259 1.356 . S
H1262 C1256 0.930 . S
H1263 C1260 0.930 . S
C1264 C1266 1.348 . S
C1264 C1267 1.356 . S
C1264 O1294 1.325 . S
N1265 C1268 1.314 . S
N1265 C1269 1.279 . S
C1266 C1264 1.348 . S
C1266 C1268 1.353 . S
C1266 H1308 0.929 . S
C1267 C1264 1.356 . S
C1267 C1269 1.358 . S
C1267 H1309 0.930 . S
C1268 N1265 1.314 . S
C1268 C1266 1.353 . S
C1268 H1310 0.930 . S
C1269 N1265 1.279 . S
C1269 C1267 1.358 . S
C1269 H1311 0.930 . S
C1270 C1271 1.348 . S
C1270 C1272 1.356 . S
C1270 O1295 1.325 . S
C1271 C1270 1.348 . S
C1271 C1273 1.353 . S
C1271 H1312 0.929 . S
C1272 C1270 1.356 . S
C1272 C1274 1.358 . S
C1272 H1313 0.930 . S
C1273 C1271 1.353 . S
C1273 N1275 1.314 . S
C1273 H1314 0.930 . S
C1274 C1272 1.358 . S
C1274 N1275 1.279 . S
C1274 H1315 0.930 . S
N1275 C1273 1.314 . S
N1275 C1274 1.279 . S
C1276 C1278 1.353 . S
C1276 N1279 1.314 . S
C1276 H1282 0.930 . S
C1277 N1279 1.279 . S
C1277 C1280 1.358 . S
C1277 H1283 0.930 . S
C1278 C1276 1.353 . S
C1278 C1281 1.348 . S
C1278 H1316 0.929 . S
N1279 Li1234 1.990 . S
N1279 C1276 1.314 . S
N1279 C1277 1.279 . S
C1280 C1277 1.358 . S
C1280 C1281 1.356 . S
C1280 H1317 0.930 . S
C1281 C1278 1.348 . S
C1281 C1280 1.356 . S
H1282 C1276 0.930 . S
H1283 C1277 0.930 . S
C1284 N1285 1.314 . S
C1284 C1286 1.353 . S
C1284 H1290 0.930 . S
N1285 Li1235 1.990 . S
N1285 C1284 1.314 . S
N1285 C1288 1.279 . S
C1286 C1284 1.353 . S
C1286 C1289 1.348 . S
C1286 H1318 0.929 . S
C1287 C1288 1.358 . S
C1287 C1289 1.356 . S
C1287 H1319 0.930 . S
C1288 N1285 1.279 . S
C1288 C1287 1.358 . S
C1288 H1291 0.930 . S
C1289 C1286 1.348 . S
C1289 C1287 1.356 . S
H1290 C1284 0.930 . S
H1291 C1288 0.930 . S
O1292 Li1232 1.956 . S
O1292 Li1233 1.970 . S
O1292 Li1234 1.961 . S
O1292 C1236 1.325 . S
O1293 Li1232 1.970 . S
O1293 Li1233 1.956 . S
O1293 Li1235 1.961 . S
O1293 C1242 1.325 . S
O1294 Li1232 1.961 . S
O1294 Li1234 1.956 . S
O1294 Li1235 1.970 . S
O1294 C1264 1.325 . S
O1295 Li1233 1.961 . S
O1295 Li1234 1.970 . S
O1295 Li1235 1.956 . S
O1295 C1270 1.325 . S
H1296 C1238 0.929 . S
H1297 C1239 0.930 . S
H1298 C1240 0.930 . S
H1299 C1241 0.930 . S
H1300 C1243 0.930 . S
H1301 C1245 0.929 . S
H1302 C1246 0.930 . S
H1303 C1247 0.930 . S
H1304 C1250 0.930 1_545 S
H1305 C1253 0.929 . S
H1306 C1258 0.929 . S
H1307 C1259 0.930 . S
H1308 C1266 0.929 . S
H1309 C1267 0.930 . S
H1310 C1268 0.930 . S
H1311 C1269 0.930 . S
H1312 C1271 0.929 . S
H1313 C1272 0.930 . S
H1314 C1273 0.930 . S
H1315 C1274 0.930 . S
H1316 C1278 0.929 . S
H1317 C1280 0.930 . S
H1318 C1286 0.929 . S
H1319 C1287 0.930 . S
Li1320 N1337 1.990 . S
Li1320 O1380 1.956 . S
Li1320 O1381 1.970 . S
Li1320 O1382 1.961 . S
Li1321 N1345 1.990 . S
Li1321 O1380 1.970 . S
Li1321 O1381 1.956 . S
Li1321 O1383 1.961 . S
Li1322 N1367 1.990 1_655 S
Li1322 O1380 1.961 . S
Li1322 O1382 1.956 . S
Li1322 O1383 1.970 . S
Li1323 N1373 1.990 . S
Li1323 O1381 1.961 . S
Li1323 O1382 1.970 . S
Li1323 O1383 1.956 . S
C1324 C1326 1.348 . S
C1324 C1327 1.356 1_655 S
C1324 O1380 1.325 . S
N1325 C1328 1.314 . S
N1325 C1329 1.279 . S
C1326 C1324 1.348 . S
C1326 C1328 1.353 1_655 S
C1326 H1384 0.929 . S
C1327 C1324 1.356 1_455 S
C1327 C1329 1.358 . S
C1327 H1385 0.930 . S
C1328 N1325 1.314 . S
C1328 C1326 1.353 1_455 S
C1328 H1386 0.930 . S
C1329 N1325 1.279 . S
C1329 C1327 1.358 . S
C1329 H1387 0.930 . S
C1330 C1333 1.348 . S
C1330 C1334 1.356 . S
C1330 O1381 1.325 . S
C1331 N1332 1.279 . S
C1331 C1334 1.358 . S
C1331 H1388 0.930 . S
N1332 C1331 1.279 . S
N1332 C1335 1.314 . S
C1333 C1330 1.348 . S
C1333 C1335 1.353 . S
C1333 H1389 0.929 . S
C1334 C1330 1.356 . S
C1334 C1331 1.358 . S
C1334 H1390 0.930 . S
C1335 N1332 1.314 . S
C1335 C1333 1.353 . S
C1335 H1391 0.930 . S
C1336 N1337 1.314 . S
C1336 C1341 1.353 . S
C1336 H1342 0.930 . S
N1337 Li1320 1.990 . S
N1337 C1336 1.314 . S
N1337 C1339 1.279 . S
C1338 C1339 1.358 . S
C1338 C1340 1.356 . S
C1338 H1392 0.930 . S
C1339 N1337 1.279 . S
C1339 C1338 1.358 . S
C1339 H1343 0.930 . S
C1340 C1338 1.356 . S
C1340 C1341 1.348 . S
C1341 C1336 1.353 . S
C1341 C1340 1.348 . S
C1341 H1393 0.929 . S
H1342 C1336 0.930 . S
H1343 C1339 0.930 . S
C1344 N1345 1.314 . S
C1344 C1346 1.348 1_655 S
C1344 H1350 0.930 1_655 S
N1345 Li1321 1.990 . S
N1345 C1344 1.314 . S
N1345 C1348 1.279 . S
C1346 C1344 1.348 1_455 S
C1346 C1349 1.337 1_455 S
C1346 H1394 0.945 . S
C1347 C1348 1.358 . S
C1347 C1349 1.356 . S
C1347 H1395 0.930 . S
C1348 N1345 1.279 . S
C1348 C1347 1.358 . S
C1348 H1351 0.930 . S
C1349 C1346 1.337 1_655 S
C1349 C1347 1.356 . S
H1350 C1344 0.930 1_455 S
H1351 C1348 0.930 . S
C1352 C1354 1.348 . S
C1352 C1355 1.356 . S
C1352 O1382 1.325 . S
N1353 C1356 1.314 . S
N1353 C1357 1.279 . S
C1354 C1352 1.348 . S
C1354 C1356 1.353 . S
C1354 H1396 0.929 . S
C1355 C1352 1.356 . S
C1355 C1357 1.358 . S
C1355 H1397 0.930 . S
C1356 N1353 1.314 . S
C1356 C1354 1.353 . S
C1356 H1398 0.930 . S
C1357 N1353 1.279 . S
C1357 C1355 1.358 . S
C1357 H1399 0.930 . S
C1358 C1359 1.348 1_655 S
C1358 C1360 1.356 . S
C1358 O1383 1.325 . S
C1359 C1358 1.348 1_455 S
C1359 C1361 1.353 . S
C1359 H1400 0.929 . S
C1360 C1358 1.356 . S
C1360 C1362 1.358 . S
C1360 H1401 0.930 . S
C1361 C1359 1.353 . S
C1361 N1363 1.314 . S
C1361 H1402 0.930 . S
C1362 C1360 1.358 . S
C1362 N1363 1.279 1_655 S
C1362 H1403 0.930 . S
N1363 C1361 1.314 . S
N1363 C1362 1.279 1_455 S
C1364 C1366 1.353 . S
C1364 N1367 1.314 . S
C1364 H1370 0.930 . S
C1365 N1367 1.279 . S
C1365 C1368 1.358 . S
C1365 H1371 0.930 . S
C1366 C1364 1.353 . S
C1366 C1369 1.348 . S
C1366 H1404 0.929 . S
N1367 Li1322 1.990 1_455 S
N1367 C1364 1.314 . S
N1367 C1365 1.279 . S
C1368 C1365 1.358 . S
C1368 C1369 1.356 . S
C1368 H1405 0.930 . S
C1369 C1366 1.348 . S
C1369 C1368 1.356 . S
H1370 C1364 0.930 . S
H1371 C1365 0.930 . S
C1372 N1373 1.314 . S
C1372 C1374 1.353 . S
C1372 H1378 0.930 . S
N1373 Li1323 1.990 . S
N1373 C1372 1.314 . S
N1373 C1376 1.279 . S
C1374 C1372 1.353 . S
C1374 C1377 1.348 . S
C1374 H1406 0.929 . S
C1375 C1376 1.358 . S
C1375 C1377 1.356 . S
C1375 H1407 0.930 . S
C1376 N1373 1.279 . S
C1376 C1375 1.358 . S
C1376 H1379 0.930 . S
C1377 C1374 1.348 . S
C1377 C1375 1.356 . S
H1378 C1372 0.930 . S
H1379 C1376 0.930 . S
O1380 Li1320 1.956 . S
O1380 Li1321 1.970 . S
O1380 Li1322 1.961 . S
O1380 C1324 1.325 . S
O1381 Li1320 1.970 . S
O1381 Li1321 1.956 . S
O1381 Li1323 1.961 . S
O1381 C1330 1.325 . S
O1382 Li1320 1.961 . S
O1382 Li1322 1.956 . S
O1382 Li1323 1.970 . S
O1382 C1352 1.325 . S
O1383 Li1321 1.961 . S
O1383 Li1322 1.970 . S
O1383 Li1323 1.956 . S
O1383 C1358 1.325 . S
H1384 C1326 0.929 . S
H1385 C1327 0.930 . S
H1386 C1328 0.930 . S
H1387 C1329 0.930 . S
H1388 C1331 0.930 . S
H1389 C1333 0.929 . S
H1390 C1334 0.930 . S
H1391 C1335 0.930 . S
H1392 C1338 0.930 . S
H1393 C1341 0.929 . S
H1394 C1346 0.945 . S
H1395 C1347 0.930 . S
H1396 C1354 0.929 . S
H1397 C1355 0.930 . S
H1398 C1356 0.930 . S
H1399 C1357 0.930 . S
H1400 C1359 0.929 . S
H1401 C1360 0.930 . S
H1402 C1361 0.930 . S
H1403 C1362 0.930 . S
H1404 C1366 0.929 . S
H1405 C1368 0.930 . S
H1406 C1374 0.929 . S
H1407 C1375 0.930 . S
C49 C636 1.059 . S
C145 C381 1.059 . S
C469 C196 1.059 . S
C321 C577 1.059 . S
C753 C1340 1.059 . S
C1085 C849 1.059 . S
C1173 C900 1.059 . S
C1289 C1017 1.059 . S
C20 C997 2.205 . S
C117 C761 2.197 . S
C812 C225 2.205 . S
C293 C909 2.197 . S
C409 C1193 2.205 . S
C1281 C497 2.197 . S
C548 C1377 2.205 . S
C1076 C665 2.197 . S
C724 C284 2.205 . S
C57 C821 2.197 . S
C929 C108 2.205 . S
C205 C988 2.197 . S
C1113 C489 2.205 . S
C585 C1201 2.197 . S
C673 C1261 2.205 . S
C372 C1369 2.197 . S
C401 C29 2.056 . S
C460 C137 2.060 . S
C233 C557 2.056 . S
C645 C313 2.060 . S
C1105 C733 2.056 1_544 S
C1164 C841 2.060 1_456 S
C937 C1252 2.056 1_546 S
C1349 C1025 2.060 1_656 S
