# Generated by pormake.
# Topology eta-c, (3)-cn, num edge types: 1
# Building blocks:
#     Node 0, Type 0, BuildingBlock: WUSLED_clean_sbu_0, # of connection points: 3
#     Node 1, Type 0, BuildingBlock: WUSLED_clean_sbu_0, # of connection points: 3
#     Node 2, Type 0, BuildingBlock: WUSLED_clean_sbu_0, # of connection points: 3
#     Node 3, Type 0, BuildingBlock: WUSLED_clean_sbu_0, # of connection points: 3
#     Node 4, Type 0, BuildingBlock: WUSLED_clean_sbu_0, # of connection points: 3
#     Node 5, Type 0, BuildingBlock: WUSLED_clean_sbu_0, # of connection points: 3
#     Edge 6, Type (0, 0), BuildingBlock: TEMPAE_clean_linker_10, # of connection points: 2
#     Edge 7, Type (0, 0), BuildingBlock: TEMPAE_clean_linker_10, # of connection points: 2
#     Edge 8, Type (0, 0), BuildingBlock: TEMPAE_clean_linker_10, # of connection points: 2
#     Edge 9, Type (0, 0), BuildingBlock: TEMPAE_clean_linker_10, # of connection points: 2
#     Edge 10, Type (0, 0), BuildingBlock: TEMPAE_clean_linker_10, # of connection points: 2
#     Edge 11, Type (0, 0), BuildingBlock: TEMPAE_clean_linker_10, # of connection points: 2
#     Edge 12, Type (0, 0), BuildingBlock: TEMPAE_clean_linker_10, # of connection points: 2
#     Edge 13, Type (0, 0), BuildingBlock: TEMPAE_clean_linker_10, # of connection points: 2
#     Edge 14, Type (0, 0), BuildingBlock: TEMPAE_clean_linker_10, # of connection points: 2
# Relax obj value: 0.000
# Max RMSD: 0.004
# Mean RMSD: 0.003
data_MOF--net-eta-c--node1-WUSLED_clean_sbu_0--edge1-TEMPAE_clean_linker_10
_symmetry_space_group_name_H-M    P1
_symmetry_Int_Tables_number       1
_symmetry_cell_setting            triclinic
loop_
_symmetry_equiv_pos_as_xyz
'x, y, z'
_cell_length_a     67.202596
_cell_length_b     67.890857
_cell_length_c     27.724015
_cell_angle_alpha  90.97438
_cell_angle_beta   89.558132
_cell_angle_gamma 118.97732
loop_
_atom_site_label
_atom_site_type_symbol
_atom_site_fract_x
_atom_site_fract_y
_atom_site_fract_z
_atom_type_partial_charge
C0 C 0.39792 0.80864 0.1627 0.0
C1 C 0.39485 0.78665 0.1634 0.0
C2 C 0.37042 0.77817 0.23438 0.0
C3 C 0.38129 0.77158 0.19903 0.0
C4 C 0.37348 0.80019 0.23318 0.0
C5 C 0.3871 0.81523 0.19777 0.0
U6 U 0.42644 0.82399 0.03784 0.0
O7 O 0.43089 0.8512 0.98939 0.0
O8 O 0.46082 0.8504 1.01796 0.0
C9 C 0.4532 0.86158 0.99276 0.0
C10 C 0.41242 0.82505 0.12622 0.0
C11 C 0.46451 0.88617 1.00145 0.0
C12 C 0.47008 0.9192 0.04808 0.0
C13 C 0.45905 0.89572 0.04124 0.0
C14 C 0.49214 0.92374 0.97561 0.0
C15 C 0.48684 0.93353 1.01537 0.0
C16 C 0.4811 0.90035 0.96879 0.0
C17 C 0.41619 0.77536 0.94834 0.0
C18 C 0.42183 0.77723 0.8613 0.0
C19 C 0.41484 0.74358 0.90364 0.0
C20 C 0.41354 0.75357 0.94725 0.0
C21 C 0.41876 0.75515 0.85993 0.0
C22 C 0.42056 0.78724 0.90509 0.0
C23 C 0.41341 0.78477 0.99476 0.0
O24 O 0.43183 0.82557 0.1163 0.0
O25 O 0.40188 0.8263 0.08763 0.0
O26 O 0.40159 0.79553 0.99378 0.0
O27 O 0.43155 0.79476 0.02237 0.0
H28 H 0.40294 0.78114 0.13648 0.0
H29 H 0.3791 0.75469 0.19855 0.0
H30 H 0.36562 0.80594 0.26011 0.0
H31 H 0.38928 0.83213 0.19794 0.0
H32 H 0.46572 0.92612 0.07932 0.0
H33 H 0.44631 0.88504 0.06696 0.0
H34 H 0.50465 0.93418 0.94929 0.0
H35 H 0.48549 0.89332 0.93775 0.0
H36 H 0.42468 0.78659 0.82838 0.0
H37 H 0.4128 0.72675 0.90424 0.0
H38 H 0.41022 0.74413 0.98023 0.0
H39 H 0.42267 0.8041 0.90509 0.0
C40 C 0.6123 0.38939 0.49499 0.0
C41 C 0.63188 0.387 0.49822 0.0
C42 C 0.61574 0.36209 0.567 0.0
C43 C 0.63362 0.37354 0.53404 0.0
C44 C 0.59616 0.36451 0.56332 0.0
C45 C 0.5945 0.37802 0.52776 0.0
U46 U 0.6243 0.41695 0.36996 0.0
O47 O 0.60074 0.42069 0.3208 0.0
O48 O 0.63049 0.45067 0.34978 0.0
C49 C 0.61161 0.44278 0.32451 0.0
C50 C 0.60997 0.40365 0.45819 0.0
C51 C 0.59736 0.4536 0.33317 0.0
C52 C 0.58026 0.47013 0.38655 0.0
C53 C 0.59327 0.4592 0.37984 0.0
C54 C 0.57499 0.46965 0.30018 0.0
C55 C 0.57098 0.47556 0.34675 0.0
C56 C 0.58803 0.45883 0.29354 0.0
C57 C 0.66252 0.40566 0.28078 0.0
C58 C 0.67408 0.4216 0.20081 0.0
C59 C 0.68429 0.39402 0.22847 0.0
C60 C 0.67329 0.39267 0.27229 0.0
C61 C 0.68478 0.40842 0.19201 0.0
C62 C 0.663 0.42019 0.24481 0.0
C63 C 0.65089 0.40351 0.3273 0.0
O64 O 0.62832 0.42272 0.4485 0.0
O65 O 0.59831 0.39303 0.41945 0.0
O66 O 0.62858 0.39183 0.32638 0.0
O67 O 0.65858 0.42184 0.35432 0.0
H68 H 0.6458 0.39552 0.47311 0.0
H69 H 0.64883 0.37187 0.53552 0.0
H70 H 0.5822 0.35619 0.58841 0.0
H71 H 0.57927 0.37966 0.52598 0.0
H72 H 0.57731 0.47419 0.42294 0.0
H73 H 0.60021 0.45523 0.41102 0.0
H74 H 0.56842 0.4738 0.26867 0.0
H75 H 0.59103 0.45472 0.25722 0.0
H76 H 0.67395 0.43271 0.17341 0.0
H77 H 0.69262 0.38391 0.22334 0.0
H78 H 0.67318 0.38142 0.29968 0.0
H79 H 0.65472 0.43031 0.25067 0.0
C80 C 0.23892 0.64764 0.56906 0.0
C81 C 0.26223 0.66059 0.57935 0.0
C82 C 0.26965 0.67471 0.49697 0.0
C83 C 0.27745 0.67404 0.54366 0.0
C84 C 0.24625 0.66157 0.48702 0.0
C85 C 0.23109 0.6482 0.52269 0.0
U86 U 0.22393 0.62038 0.69403 0.0
O87 O 0.19636 0.61587 0.74378 0.0
O88 O 0.19759 0.58633 0.7141 0.0
C89 C 0.18616 0.59379 0.74029 0.0
C90 C 0.22248 0.63352 0.606 0.0
C91 C 0.1613 0.58224 0.73286 0.0
C92 C 0.12775 0.57207 0.68351 0.0
C93 C 0.15151 0.58349 0.68924 0.0
C94 C 0.12345 0.55819 0.76489 0.0
C95 C 0.1134 0.55916 0.72126 0.0
C96 C 0.14709 0.56957 0.77054 0.0
C97 C 0.2733 0.63123 0.78116 0.0
C98 C 0.27218 0.6267 0.86832 0.0
C99 C 0.30498 0.63114 0.82289 0.0
C100 C 0.29479 0.6326 0.78028 0.0
C101 C 0.29393 0.62836 0.86763 0.0
C102 C 0.26196 0.62811 0.82548 0.0
C103 C 0.26364 0.6338 0.73549 0.0
O104 O 0.22227 0.61452 0.6154 0.0
O105 O 0.22126 0.64417 0.64501 0.0
O106 O 0.25258 0.64533 0.73762 0.0
O107 O 0.25372 0.61579 0.70752 0.0
H108 H 0.26862 0.66031 0.61495 0.0
H109 H 0.29535 0.68375 0.55248 0.0
H110 H 0.23956 0.6619 0.45182 0.0
H111 H 0.21316 0.63836 0.51408 0.0
H112 H 0.12064 0.57308 0.64932 0.0
H113 H 0.16221 0.59318 0.65966 0.0
H114 H 0.11302 0.54881 0.79506 0.0
H115 H 0.15431 0.56848 0.80456 0.0
H116 H 0.26323 0.62473 0.90205 0.0
H117 H 0.3215 0.63205 0.82065 0.0
H118 H 0.30382 0.63494 0.74647 0.0
H119 H 0.24533 0.62699 0.82705 0.0
C120 C 0.61319 0.23028 0.90295 0.0
C121 C 0.6222 0.25324 0.91463 0.0
C122 C 0.61779 0.26133 0.83099 0.0
C123 C 0.62444 0.26862 0.879 0.0
C124 C 0.60893 0.2383 0.81964 0.0
C125 C 0.60667 0.22298 0.85524 0.0
U126 U 0.62327 0.21418 0.02931 0.0
O127 O 0.59969 0.18716 0.07678 0.0
O128 O 0.6305 0.18706 0.05033 0.0
C129 C 0.61127 0.17615 0.07406 0.0
C130 C 0.61028 0.21365 0.93977 0.0
C131 C 0.59807 0.15156 0.0648 0.0
C132 C 0.5655 0.11834 0.03071 0.0
C133 C 0.57822 0.14183 0.03651 0.0
C134 C 0.59253 0.11406 0.08053 0.0
C135 C 0.57238 0.1041 0.05303 0.0
C136 C 0.60515 0.13747 0.08638 0.0
C137 C 0.66002 0.26249 0.11965 0.0
C138 C 0.6763 0.2593 0.19538 0.0
C139 C 0.6795 0.29506 0.17313 0.0
C140 C 0.66753 0.28525 0.13051 0.0
C141 C 0.6843 0.28231 0.20593 0.0
C142 C 0.66428 0.24947 0.15256 0.0
C143 C 0.64859 0.25318 0.073 0.0
O144 O 0.6287 0.21263 0.95116 0.0
O145 O 0.59793 0.21276 0.97752 0.0
O146 O 0.62624 0.24287 0.07326 0.0
O147 O 0.65695 0.24277 0.04621 0.0
H148 H 0.62743 0.25923 0.95127 0.0
H149 H 0.63154 0.28624 0.88895 0.0
H150 H 0.60333 0.232 0.78334 0.0
H151 H 0.59964 0.20533 0.84553 0.0
H152 H 0.55002 0.11133 1.00958 0.0
H153 H 0.57238 0.15234 1.01942 0.0
H154 H 0.59865 0.10375 0.09748 0.0
H155 H 0.62044 0.14459 0.10823 0.0
H156 H 0.67982 0.24902 0.2196 0.0
H157 H 0.68501 0.31269 0.18036 0.0
H158 H 0.66435 0.29557 0.10566 0.0
H159 H 0.65862 0.23185 0.1448 0.0
C160 C 0.40236 0.60932 0.23374 0.0
C161 C 0.38364 0.61258 0.24405 0.0
C162 C 0.37717 0.61435 0.15792 0.0
C163 C 0.37115 0.61505 0.2065 0.0
C164 C 0.39624 0.61153 0.14806 0.0
C165 C 0.40862 0.609 0.18551 0.0
U166 U 0.42753 0.61813 0.36222 0.0
O167 O 0.4296 0.5935 0.40992 0.0
O168 O 0.46083 0.62273 0.38497 0.0
C169 C 0.45194 0.60368 0.40851 0.0
C170 C 0.41528 0.60558 0.27213 0.0
C171 C 0.46235 0.58914 0.39966 0.0
C172 C 0.47774 0.57107 0.34591 0.0
C173 C 0.46699 0.58422 0.35285 0.0
C174 C 0.47899 0.56735 0.43236 0.0
C175 C 0.48396 0.56252 0.38563 0.0
C176 C 0.46833 0.5805 0.43922 0.0
C177 C 0.41792 0.65695 0.45281 0.0
C178 C 0.41991 0.65801 0.54061 0.0
C179 C 0.41943 0.68865 0.49819 0.0
C180 C 0.41839 0.67783 0.45415 0.0
C181 C 0.41993 0.67879 0.54212 0.0
C182 C 0.41893 0.6472 0.49638 0.0
C183 C 0.41545 0.64549 0.40564 0.0
O184 O 0.43483 0.623 0.2843 0.0
O185 O 0.40352 0.59388 0.30939 0.0
O186 O 0.40268 0.62346 0.4046 0.0
O187 O 0.43402 0.65258 0.37958 0.0
H188 H 0.3785 0.61294 0.28104 0.0
H189 H 0.35651 0.61702 0.21553 0.0
H190 H 0.40171 0.61137 0.11128 0.0
H191 H 0.42306 0.60662 0.17672 0.0
H192 H 0.48106 0.5675 0.30942 0.0
H193 H 0.46244 0.59066 0.32176 0.0
H194 H 0.48379 0.56136 0.46381 0.0
H195 H 0.46499 0.58417 0.47565 0.0
H196 H 0.4201 0.64982 0.57364 0.0
H197 H 0.41985 0.7048 0.49777 0.0
H198 H 0.41771 0.68569 0.42097 0.0
H199 H 0.41861 0.63109 0.49627 0.0
C200 C 0.81425 0.3899 0.56927 0.0
C201 C 0.7907 0.3801 0.57686 0.0
C202 C 0.7834 0.3634 0.4957 0.0
C203 C 0.7754 0.36699 0.54037 0.0
C204 C 0.80706 0.3733 0.48857 0.0
C205 C 0.82228 0.38638 0.52495 0.0
U206 U 0.82979 0.41689 0.69631 0.0
O207 O 0.85736 0.42071 0.74479 0.0
O208 O 0.85659 0.45064 0.71849 0.0
C209 C 0.86794 0.4428 0.74272 0.0
C210 C 0.83077 0.40387 0.60677 0.0
C211 C 0.89282 0.45391 0.73484 0.0
C212 C 0.9264 0.4731 0.68394 0.0
C213 C 0.90264 0.46162 0.68934 0.0
C214 C 0.93073 0.46891 0.76913 0.0
C215 C 0.94078 0.47712 0.72394 0.0
C216 C 0.90707 0.4575 0.77446 0.0
C217 C 0.78101 0.40568 0.78607 0.0
C218 C 0.78526 0.42284 0.86586 0.0
C219 C 0.74822 0.39386 0.83879 0.0
C220 C 0.75773 0.39211 0.79497 0.0
C221 C 0.7618 0.40931 0.87483 0.0
C222 C 0.79478 0.42105 0.82183 0.0
C223 C 0.79028 0.40344 0.73914 0.0
O224 O 0.8311 0.42289 0.61825 0.0
O225 O 0.83201 0.39307 0.64452 0.0
O226 O 0.80117 0.39176 0.73887 0.0
O227 O 0.80035 0.42172 0.71312 0.0
H228 H 0.78417 0.38259 0.61094 0.0
H229 H 0.75732 0.35947 0.54732 0.0
H230 H 0.81388 0.37125 0.45448 0.0
H231 H 0.8404 0.39387 0.51835 0.0
H232 H 0.9335 0.47927 0.64867 0.0
H233 H 0.89198 0.45901 0.65816 0.0
H234 H 0.94116 0.47123 0.80055 0.0
H235 H 0.89987 0.45163 0.80985 0.0
H236 H 0.7962 0.43504 0.89257 0.0
H237 H 0.73022 0.38287 0.84462 0.0
H238 H 0.74684 0.38007 0.76791 0.0
H239 H 0.81282 0.43169 0.81561 0.0
C240 C 0.48691 0.96985 0.03686 0.0
C241 C 0.49885 0.95856 0.02236 0.0
C242 C 0.498 0.99347 0.0422 0.0
C243 C 0.52166 1.00621 0.03301 0.0
C244 C 0.53383 0.9949 1.01875 0.0
C245 C 0.52232 0.9713 1.01363 0.0
C246 C 0.48437 1.00484 0.05732 0.0
C247 C 0.55908 1.00774 1.00894 0.0
C248 C 0.54852 0.06872 1.00396 0.0
C249 C 0.55865 0.079 0.04812 0.0
C250 C 0.53613 0.04511 0.99874 0.0
C251 C 0.5338 0.03133 0.03857 0.0
C252 C 0.5437 0.04158 0.08338 0.0
C253 C 0.55591 0.06521 0.08764 0.0
C254 C 0.52584 0.0349 0.95032 0.0
C255 C 0.54162 0.02758 0.12681 0.0
H256 H 0.46875 0.96024 0.04316 0.0
H257 H 0.5318 0.96278 1.00316 0.0
H258 H 0.4915 1.01479 0.09101 0.0
H259 H 0.48551 1.01676 0.02917 0.0
H260 H 0.46615 0.99258 0.06342 0.0
H261 H 0.56606 0.99649 0.99801 0.0
H262 H 0.56264 0.02006 0.97988 0.0
H263 H 0.56823 1.01743 0.04167 0.0
H264 H 0.55068 0.07912 0.97304 0.0
H265 H 0.56325 0.07289 0.12219 0.0
H266 H 0.50734 0.02326 0.95423 0.0
H267 H 0.53364 0.02484 0.93606 0.0
H268 H 0.52834 0.04787 0.92349 0.0
H269 H 0.52343 1.01617 0.13502 0.0
H270 H 0.54989 0.0381 0.15935 0.0
H271 H 0.54955 1.01685 0.11894 0.0
C272 C 0.49031 0.53008 0.40727 0.0
C273 C 0.49593 0.54897 0.37873 0.0
C274 C 0.50198 0.51765 0.4025 0.0
C275 C 0.51979 0.52421 0.36835 0.0
C276 C 0.52539 0.5431 0.33905 0.0
C277 C 0.51341 0.55521 0.34454 0.0
C278 C 0.49533 0.49755 0.43423 0.0
C279 C 0.54427 0.55072 0.30227 0.0
C280 C 0.56449 0.50565 0.38646 0.0
C281 C 0.55748 0.4876 0.35341 0.0
C282 C 0.55237 0.51763 0.39179 0.0
C283 C 0.53267 0.51143 0.36353 0.0
C284 C 0.52535 0.49308 0.33051 0.0
C285 C 0.53782 0.48143 0.32583 0.0
C286 C 0.56082 0.53711 0.42732 0.0
C287 C 0.50437 0.48578 0.29992 0.0
H288 H 0.47663 0.52489 0.4333 0.0
H289 H 0.5181 0.56991 0.32273 0.0
H290 H 0.49043 0.48224 0.41162 0.0
H291 H 0.51007 0.50016 0.45655 0.0
H292 H 0.48093 0.49446 0.45858 0.0
H293 H 0.54632 0.5655 0.28177 0.0
H294 H 0.56059 0.55521 0.32054 0.0
H295 H 0.54082 0.53678 0.27638 0.0
H296 H 0.57979 0.51075 0.40751 0.0
H297 H 0.53205 0.46733 0.30068 0.0
H298 H 0.54732 0.53422 0.45402 0.0
H299 H 0.56486 0.55283 0.40815 0.0
H300 H 0.57624 0.53965 0.44701 0.0
H301 H 0.48938 0.48136 0.32336 0.0
H302 H 0.50079 0.47104 0.27631 0.0
H303 H 0.50647 0.49987 0.27691 0.0
C304 C 0.07516 0.5252 0.735 0.0
C305 C 0.08807 0.5468 0.71579 0.0
C306 C 0.05126 0.51387 0.73315 0.0
C307 C 0.0398 0.52428 0.71136 0.0
C308 C 0.0527 0.54578 0.69056 0.0
C309 C 0.07663 0.55678 0.69303 0.0
C310 C 0.03826 0.49095 0.75561 0.0
C311 C 0.04119 0.55746 0.66687 0.0
C312 C 0.97717 0.48655 0.67918 0.0
C313 C 0.96614 0.48996 0.71911 0.0
C314 C 1.00108 0.49794 0.67556 0.0
C315 C 1.01436 0.51311 0.71278 0.0
C316 C 1.00332 0.51697 0.75263 0.0
C317 C 0.97944 0.50544 0.75523 0.0
C318 C 1.01214 0.49337 0.63241 0.0
C319 C 1.01676 0.53303 0.79306 0.0
H320 H 0.08378 0.51712 0.75182 0.0
H321 H 0.08637 0.5735 0.67839 0.0
H322 H 1.02784 0.4917 0.78609 0.0
H323 H 1.0264 0.47856 0.72886 0.0
H324 H 0.04967 0.48473 0.76928 0.0
H325 H 0.05355 0.57341 0.64952 0.0
H326 H 0.02892 0.54623 0.63919 0.0
H327 H 0.03138 0.56133 0.69422 0.0
H328 H 0.96713 0.47453 0.65124 0.0
H329 H 0.97116 0.5086 0.78575 0.0
H330 H 1.02227 0.48539 0.64427 0.0
H331 H 1.02406 0.50941 0.61486 0.0
H332 H 0.99948 0.48212 0.60527 0.0
H333 H 1.02756 0.52705 0.81079 0.0
H334 H 1.00563 0.5347 0.82081 0.0
H335 H 1.02828 0.54994 0.77847 0.0
C336 C 0.33517 0.76102 0.28578 0.0
C337 C 0.35595 0.76226 0.27247 0.0
C338 C 0.32155 0.74651 0.32227 0.0
C339 C 0.32884 0.73288 0.34634 0.0
C340 C 0.34973 0.73394 0.33295 0.0
C341 C 0.36299 0.74855 0.29615 0.0
C342 C 0.29933 0.7458 0.33507 0.0
C343 C 0.35817 0.71978 0.35782 0.0
C344 C 0.30285 0.71119 0.46999 0.0
C345 C 0.28565 0.68925 0.45886 0.0
C346 C 0.31729 0.7254 0.43396 0.0
C347 C 0.31453 0.71754 0.38548 0.0
C348 C 0.29751 0.69527 0.37416 0.0
C349 C 0.28333 0.68143 0.41089 0.0
C350 C 0.3352 0.74901 0.44761 0.0
C351 C 0.29404 0.68616 0.32306 0.0
H352 H 0.32942 0.77128 0.26726 0.0
H353 H 0.37912 0.74957 0.28654 0.0
H354 H 0.28505 0.72844 0.32987 0.0
H355 H 0.29941 0.75041 0.37368 0.0
H356 H 0.29606 0.7574 0.3129 0.0
H357 H 0.37465 0.72236 0.34291 0.0
H358 H 0.36035 0.72395 0.39696 0.0
H359 H 0.34545 0.70168 0.35411 0.0
H360 H 0.30467 0.7175 0.50676 0.0
H361 H 0.27036 0.6644 0.40199 0.0
H362 H 0.33163 0.76138 0.42932 0.0
H363 H 0.35219 0.75205 0.43529 0.0
H364 H 0.33589 0.75223 0.48715 0.0
H365 H 0.28927 0.69629 0.2996 0.0
H366 H 0.28057 0.66826 0.32043 0.0
H367 H 0.31013 0.68758 0.30868 0.0
C368 C 0.59855 0.32669 0.61564 0.0
C369 C 0.61736 0.34764 0.60517 0.0
C370 C 0.59949 0.31313 0.65234 0.0
C371 C 0.61971 0.32064 0.67953 0.0
C372 C 0.63884 0.34168 0.66891 0.0
C373 C 0.63746 0.35489 0.63182 0.0
C374 C 0.57876 0.29074 0.6621 0.0
C375 C 0.6607 0.35035 0.69712 0.0
C376 C 0.61347 0.29416 0.80284 0.0
C377 C 0.61963 0.27748 0.79294 0.0
C378 C 0.61391 0.30864 0.7666 0.0
C379 C 0.62068 0.30644 0.71916 0.0
C380 C 0.62744 0.29001 0.7092 0.0
C381 C 0.62683 0.27576 0.74611 0.0
C382 C 0.60658 0.32592 0.77881 0.0
C383 C 0.63491 0.28717 0.65926 0.0
H384 H 0.58307 0.32079 0.5948 0.0
H385 H 0.652 0.37113 0.62436 0.0
H386 H 0.58307 0.27696 0.65787 0.0
H387 H 0.57303 0.29041 0.69987 0.0
H388 H 0.5644 0.28725 0.63753 0.0
H389 H 0.67416 0.36685 0.6839 0.0
H390 H 0.65751 0.35225 0.7358 0.0
H391 H 0.6671 0.33807 0.69477 0.0
H392 H 0.60765 0.29551 0.8387 0.0
H393 H 0.632 0.2632 0.73822 0.0
H394 H 0.59104 0.32215 0.75808 0.0
H395 H 0.62 0.34293 0.76828 0.0
H396 H 0.60292 0.32629 0.81786 0.0
H397 H 0.62067 0.28218 0.63344 0.0
H398 H 0.6405 0.27422 0.65781 0.0
H399 H 0.64911 0.30338 0.64689 0.0
C400 C 0.35946 0.60307 0.07539 0.0
C401 C 0.36361 0.6163 0.1175 0.0
C402 C 0.34745 0.60515 0.03628 0.0
C403 C 0.33916 0.62074 0.03919 0.0
C404 C 0.34285 0.63384 0.08189 0.0
C405 C 0.35505 0.6315 0.12043 0.0
C406 C 0.34389 0.59083 0.99152 0.0
C407 C 0.33421 0.65058 0.08659 0.0
C408 C 0.32872 0.64109 0.91964 0.0
C409 C 0.3052 0.62723 0.91306 0.0
C410 C 0.33986 0.63947 0.96087 0.0
C411 C 0.32722 0.62371 0.99688 0.0
C412 C 0.30338 0.61011 0.99123 0.0
C413 C 0.29268 0.61199 0.94942 0.0
C414 C 0.36528 0.65434 0.96537 0.0
C415 C 0.28924 0.59319 0.02885 0.0
H416 H 0.36554 0.59093 0.07298 0.0
H417 H 0.3583 0.64196 0.15251 0.0
H418 H 0.32547 0.58068 0.98347 0.0
H419 H 0.35202 0.60179 0.9601 0.0
H420 H 0.35109 0.57924 0.99522 0.0
H421 H 0.33754 0.65871 0.12292 0.0
H422 H 0.34252 0.66388 0.05923 0.0
H423 H 0.31564 0.6421 0.07954 0.0
H424 H 0.33852 0.65327 0.89237 0.0
H425 H 0.27457 0.60106 0.94466 0.0
H426 H 0.37371 0.64377 0.96613 0.0
H427 H 0.36945 0.6641 0.99978 0.0
H428 H 0.37252 0.66631 0.93511 0.0
H429 H 0.29441 0.57999 0.0311 0.0
H430 H 0.27075 0.58493 0.02067 0.0
H431 H 0.29221 0.60151 0.06487 0.0
C432 C 0.77165 0.33495 0.42759 0.0
C433 C 0.76732 0.34971 0.45628 0.0
C434 C 0.75749 0.32297 0.38849 0.0
C435 C 0.73842 0.32572 0.37765 0.0
C436 C 0.73357 0.3401 0.40723 0.0
C437 C 0.74805 0.3519 0.44611 0.0
C438 C 0.76325 0.30775 0.3581 0.0
C439 C 0.71342 0.34351 0.39699 0.0
C440 C 0.7171 0.31484 0.24787 0.0
C441 C 0.69808 0.29325 0.2502 0.0
C442 C 0.73023 0.32556 0.28901 0.0
C443 C 0.72431 0.31449 0.33389 0.0
C444 C 0.70517 0.29268 0.3366 0.0
C445 C 0.69232 0.28232 0.29477 0.0
C446 C 0.75055 0.34874 0.28435 0.0
C447 C 0.69823 0.28032 0.38374 0.0
H448 H 0.78623 0.33279 0.43561 0.0
H449 H 0.74464 0.36339 0.46768 0.0
H450 H 0.74842 0.29055 0.35609 0.0
H451 H 0.76721 0.31412 0.32072 0.0
H452 H 0.77804 0.30665 0.37254 0.0
H453 H 0.71113 0.35411 0.42508 0.0
H454 H 0.71572 0.35172 0.36158 0.0
H455 H 0.69763 0.32702 0.3947 0.0
H456 H 0.72195 0.3233 0.21354 0.0
H457 H 0.67754 0.26576 0.29711 0.0
H458 H 0.76625 0.34836 0.29494 0.0
H459 H 0.74873 0.36077 0.30914 0.0
H460 H 0.75274 0.35519 0.24703 0.0
H461 H 0.71238 0.27809 0.39802 0.0
H462 H 0.68291 0.2635 0.3799 0.0
H463 H 0.69465 0.29039 0.4109 0.0
C464 C 0.40667 0.70063 0.59519 0.0
C465 C 0.42003 0.69001 0.58911 0.0
C466 C 0.40661 0.71138 0.63893 0.0
C467 C 0.42015 0.7115 0.67794 0.0
C468 C 0.43362 0.70077 0.67221 0.0
C469 C 0.43342 0.69019 0.62794 0.0
C470 C 0.39195 0.72256 0.64345 0.0
C471 C 0.44829 0.70049 0.71287 0.0
C472 C 0.43512 0.75612 0.77722 0.0
C473 C 0.41925 0.74402 0.81324 0.0
C474 C 0.43568 0.74575 0.7332 0.0
C475 C 0.42002 0.72268 0.72483 0.0
C476 C 0.40398 0.71036 0.76102 0.0
C477 C 0.40376 0.72116 0.8046 0.0
C478 C 0.45303 0.75951 0.69557 0.0
C479 C 0.38692 0.68577 0.75362 0.0
H480 H 0.39595 0.70029 0.56582 0.0
H481 H 0.44401 0.6823 0.62356 0.0
H482 H 0.37937 0.7147 0.67285 0.0
H483 H 0.40262 0.74063 0.65318 0.0
H484 H 0.38265 0.72127 0.60957 0.0
H485 H 0.45776 0.69142 0.70273 0.0
H486 H 0.4607 0.71798 0.72385 0.0
H487 H 0.43757 0.69227 0.7448 0.0
H488 H 0.44734 0.77368 0.78365 0.0
H489 H 0.39117 0.71171 0.83174 0.0
H490 H 0.4443 0.75953 0.66179 0.0
H491 H 0.46395 0.75184 0.68681 0.0
H492 H 0.46408 0.77722 0.70764 0.0
H493 H 0.37599 0.68368 0.72204 0.0
H494 H 0.37585 0.67846 0.78563 0.0
H495 H 0.39589 0.67601 0.74575 0.0
C496 C 0.76254 0.41334 0.96554 0.0
C497 C 0.75138 0.41103 0.92149 0.0
C498 C 0.75234 0.41387 1.00975 0.0
C499 C 0.7304 0.41201 1.01011 0.0
C500 C 0.71924 0.41012 0.96577 0.0
C501 C 0.72985 0.40971 0.92215 0.0
C502 C 0.76485 0.41592 0.05617 0.0
C503 C 0.69589 0.40817 0.96442 0.0
C504 C 0.69387 0.38967 0.1228 0.0
C505 C 0.69629 0.40946 0.14504 0.0
C506 C 0.7049 0.39029 0.0791 0.0
C507 C 0.71876 0.41122 0.05682 0.0
C508 C 0.72124 0.43127 0.07893 0.0
C509 C 0.70996 0.43015 0.12266 0.0
C510 C 0.70163 0.36849 0.05668 0.0
C511 C 0.73593 0.45393 0.05651 0.0
H512 H 0.77905 0.41415 0.96558 0.0
H513 H 0.72123 0.40835 0.88837 0.0
H514 H 0.76625 0.43036 0.07813 0.0
H515 H 0.75514 0.40053 0.07777 0.0
H516 H 0.78221 0.4183 0.04975 0.0
H517 H 0.68977 0.40745 0.92699 0.0
H518 H 0.68354 0.39274 0.98334 0.0
H519 H 0.6961 0.42273 0.98366 0.0
H520 H 0.68309 0.37357 0.13934 0.0
H521 H 0.71217 0.44555 0.13979 0.0
H522 H 0.71833 0.36911 0.05202 0.0
H523 H 0.69394 0.36611 1.02031 0.0
H524 H 0.69052 0.35365 0.07882 0.0
H525 H 0.75364 0.45698 0.05282 0.0
H526 H 0.73611 0.46793 0.07816 0.0
H527 H 0.72969 0.45417 1.01972 0.0
loop_
_geom_bond_atom_site_label_1
_geom_bond_atom_site_label_2
_geom_bond_distance
_geom_bond_site_symmetry_2
_ccdc_geom_bond_type
C0 C1 1.264 . S
C0 C5 1.479 . S
C0 C10 1.465 . S
C1 C0 1.264 . S
C1 C3 1.339 . S
C1 H28 0.931 . S
C2 C3 1.395 . S
C2 C4 1.320 . S
C3 C1 1.339 . S
C3 C2 1.395 . S
C3 H29 0.929 . S
C4 C2 1.320 . S
C4 C5 1.405 . S
C4 H30 0.930 . S
C5 C0 1.479 . S
C5 C4 1.405 . S
C5 H31 0.931 . S
U6 O7 2.454 . S
U6 O8 2.458 1_554 S
U6 C9 2.984 . S
U6 C10 2.847 . S
U6 C23 2.882 1_554 S
U6 O24 2.441 . S
U6 O25 2.420 . S
U6 O26 2.455 1_554 S
U6 O27 2.449 1_554 S
O7 U6 2.454 . S
O7 C9 1.353 . S
O8 U6 2.458 1_556 S
O8 C9 1.286 1_556 S
C9 U6 2.984 . S
C9 O7 1.353 . S
C9 O8 1.286 1_554 S
C9 C11 1.363 . S
C10 C0 1.465 . S
C10 U6 2.847 . S
C10 O24 1.249 . S
C10 O25 1.202 . S
C11 C9 1.363 . S
C11 C13 1.408 . S
C11 C16 1.342 1_554 S
C12 C13 1.310 . S
C12 C15 1.461 . S
C12 H32 0.932 . S
C13 C11 1.408 . S
C13 C12 1.310 . S
C13 H33 0.930 . S
C14 C15 1.474 1_556 S
C14 C16 1.285 . S
C14 H34 0.929 . S
C15 C12 1.461 . S
C15 C14 1.474 1_554 S
C16 C11 1.342 1_556 S
C16 C14 1.285 . S
C16 H35 0.930 . S
C17 C20 1.424 . S
C17 C22 1.245 . S
C17 C23 1.428 . S
C18 C21 1.260 . S
C18 C22 1.477 . S
C18 H36 0.932 . S
C19 C20 1.384 . S
C19 C21 1.479 . S
C19 H37 0.929 . S
C20 C17 1.424 . S
C20 C19 1.384 . S
C20 H38 0.928 . S
C21 C18 1.260 . S
C21 C19 1.479 . S
C22 C17 1.245 . S
C22 C18 1.477 . S
C22 H39 0.932 . S
C23 U6 2.882 1_556 S
C23 C17 1.428 . S
C23 O26 1.301 . S
C23 O27 1.282 . S
O24 U6 2.441 . S
O24 C10 1.249 . S
O25 U6 2.420 . S
O25 C10 1.202 . S
O26 U6 2.455 1_556 S
O26 C23 1.301 . S
O27 U6 2.449 1_556 S
O27 C23 1.282 . S
H28 C1 0.931 . S
H29 C3 0.929 . S
H30 C4 0.930 . S
H31 C5 0.931 . S
H32 C12 0.932 . S
H33 C13 0.930 . S
H34 C14 0.929 . S
H35 C16 0.930 . S
H36 C18 0.932 . S
H37 C19 0.929 . S
H38 C20 0.928 . S
H39 C22 0.932 . S
C40 C41 1.264 . S
C40 C45 1.479 . S
C40 C50 1.465 . S
C41 C40 1.264 . S
C41 C43 1.339 . S
C41 H68 0.931 . S
C42 C43 1.395 . S
C42 C44 1.320 . S
C43 C41 1.339 . S
C43 C42 1.395 . S
C43 H69 0.929 . S
C44 C42 1.320 . S
C44 C45 1.405 . S
C44 H70 0.930 . S
C45 C40 1.479 . S
C45 C44 1.405 . S
C45 H71 0.931 . S
U46 O47 2.454 . S
U46 O48 2.458 . S
U46 C49 2.984 . S
U46 C50 2.847 . S
U46 C63 2.882 . S
U46 O64 2.441 . S
U46 O65 2.420 . S
U46 O66 2.455 . S
U46 O67 2.449 . S
O47 U46 2.454 . S
O47 C49 1.353 . S
O48 U46 2.458 . S
O48 C49 1.286 . S
C49 U46 2.984 . S
C49 O47 1.353 . S
C49 O48 1.286 . S
C49 C51 1.363 . S
C50 C40 1.465 . S
C50 U46 2.847 . S
C50 O64 1.249 . S
C50 O65 1.202 . S
C51 C49 1.363 . S
C51 C53 1.408 . S
C51 C56 1.342 . S
C52 C53 1.310 . S
C52 C55 1.461 . S
C52 H72 0.932 . S
C53 C51 1.408 . S
C53 C52 1.310 . S
C53 H73 0.930 . S
C54 C55 1.474 . S
C54 C56 1.285 . S
C54 H74 0.929 . S
C55 C52 1.461 . S
C55 C54 1.474 . S
C56 C51 1.342 . S
C56 C54 1.285 . S
C56 H75 0.930 . S
C57 C60 1.424 . S
C57 C62 1.245 . S
C57 C63 1.428 . S
C58 C61 1.260 . S
C58 C62 1.477 . S
C58 H76 0.932 . S
C59 C60 1.384 . S
C59 C61 1.479 . S
C59 H77 0.929 . S
C60 C57 1.424 . S
C60 C59 1.384 . S
C60 H78 0.928 . S
C61 C58 1.260 . S
C61 C59 1.479 . S
C62 C57 1.245 . S
C62 C58 1.477 . S
C62 H79 0.932 . S
C63 U46 2.882 . S
C63 C57 1.428 . S
C63 O66 1.301 . S
C63 O67 1.282 . S
O64 U46 2.441 . S
O64 C50 1.249 . S
O65 U46 2.420 . S
O65 C50 1.202 . S
O66 U46 2.455 . S
O66 C63 1.301 . S
O67 U46 2.449 . S
O67 C63 1.282 . S
H68 C41 0.931 . S
H69 C43 0.929 . S
H70 C44 0.930 . S
H71 C45 0.931 . S
H72 C52 0.932 . S
H73 C53 0.930 . S
H74 C54 0.929 . S
H75 C56 0.930 . S
H76 C58 0.932 . S
H77 C59 0.929 . S
H78 C60 0.928 . S
H79 C62 0.932 . S
C80 C81 1.264 . S
C80 C85 1.479 . S
C80 C90 1.465 . S
C81 C80 1.264 . S
C81 C83 1.339 . S
C81 H108 0.931 . S
C82 C83 1.395 . S
C82 C84 1.320 . S
C83 C81 1.339 . S
C83 C82 1.395 . S
C83 H109 0.929 . S
C84 C82 1.320 . S
C84 C85 1.405 . S
C84 H110 0.930 . S
C85 C80 1.479 . S
C85 C84 1.405 . S
C85 H111 0.931 . S
U86 O87 2.454 . S
U86 O88 2.458 . S
U86 C89 2.984 . S
U86 C90 2.847 . S
U86 C103 2.882 . S
U86 O104 2.441 . S
U86 O105 2.420 . S
U86 O106 2.455 . S
U86 O107 2.449 . S
O87 U86 2.454 . S
O87 C89 1.353 . S
O88 U86 2.458 . S
O88 C89 1.286 . S
C89 U86 2.984 . S
C89 O87 1.353 . S
C89 O88 1.286 . S
C89 C91 1.363 . S
C90 C80 1.465 . S
C90 U86 2.847 . S
C90 O104 1.249 . S
C90 O105 1.202 . S
C91 C89 1.363 . S
C91 C93 1.408 . S
C91 C96 1.342 . S
C92 C93 1.310 . S
C92 C95 1.461 . S
C92 H112 0.932 . S
C93 C91 1.408 . S
C93 C92 1.310 . S
C93 H113 0.930 . S
C94 C95 1.474 . S
C94 C96 1.285 . S
C94 H114 0.929 . S
C95 C92 1.461 . S
C95 C94 1.474 . S
C96 C91 1.342 . S
C96 C94 1.285 . S
C96 H115 0.930 . S
C97 C100 1.424 . S
C97 C102 1.245 . S
C97 C103 1.428 . S
C98 C101 1.260 . S
C98 C102 1.477 . S
C98 H116 0.932 . S
C99 C100 1.384 . S
C99 C101 1.479 . S
C99 H117 0.929 . S
C100 C97 1.424 . S
C100 C99 1.384 . S
C100 H118 0.928 . S
C101 C98 1.260 . S
C101 C99 1.479 . S
C102 C97 1.245 . S
C102 C98 1.477 . S
C102 H119 0.932 . S
C103 U86 2.882 . S
C103 C97 1.428 . S
C103 O106 1.301 . S
C103 O107 1.282 . S
O104 U86 2.441 . S
O104 C90 1.249 . S
O105 U86 2.420 . S
O105 C90 1.202 . S
O106 U86 2.455 . S
O106 C103 1.301 . S
O107 U86 2.449 . S
O107 C103 1.282 . S
H108 C81 0.931 . S
H109 C83 0.929 . S
H110 C84 0.930 . S
H111 C85 0.931 . S
H112 C92 0.932 . S
H113 C93 0.930 . S
H114 C94 0.929 . S
H115 C96 0.930 . S
H116 C98 0.932 . S
H117 C99 0.929 . S
H118 C100 0.928 . S
H119 C102 0.932 . S
C120 C121 1.264 . S
C120 C125 1.479 . S
C120 C130 1.465 . S
C121 C120 1.264 . S
C121 C123 1.339 . S
C121 H148 0.931 . S
C122 C123 1.395 . S
C122 C124 1.320 . S
C123 C121 1.339 . S
C123 C122 1.395 . S
C123 H149 0.929 . S
C124 C122 1.320 . S
C124 C125 1.405 . S
C124 H150 0.930 . S
C125 C120 1.479 . S
C125 C124 1.405 . S
C125 H151 0.931 . S
U126 O127 2.454 1_554 S
U126 O128 2.458 . S
U126 C129 2.984 . S
U126 C130 2.847 1_554 S
U126 C143 2.882 . S
U126 O144 2.441 1_554 S
U126 O145 2.420 1_554 S
U126 O146 2.455 . S
U126 O147 2.449 . S
O127 U126 2.454 1_556 S
O127 C129 1.353 1_556 S
O128 U126 2.458 . S
O128 C129 1.286 . S
C129 U126 2.984 . S
C129 O127 1.353 1_554 S
C129 O128 1.286 . S
C129 C131 1.363 . S
C130 C120 1.465 . S
C130 U126 2.847 1_556 S
C130 O144 1.249 . S
C130 O145 1.202 . S
C131 C129 1.363 . S
C131 C133 1.408 1_554 S
C131 C136 1.342 . S
C132 C133 1.310 . S
C132 C135 1.461 1_556 S
C132 H152 0.932 . S
C133 C131 1.408 1_556 S
C133 C132 1.310 . S
C133 H153 0.930 . S
C134 C135 1.474 . S
C134 C136 1.285 . S
C134 H154 0.929 . S
C135 C132 1.461 1_554 S
C135 C134 1.474 . S
C136 C131 1.342 . S
C136 C134 1.285 . S
C136 H155 0.930 . S
C137 C140 1.424 . S
C137 C142 1.245 . S
C137 C143 1.428 . S
C138 C141 1.260 . S
C138 C142 1.477 . S
C138 H156 0.932 . S
C139 C140 1.384 . S
C139 C141 1.479 . S
C139 H157 0.929 . S
C140 C137 1.424 . S
C140 C139 1.384 . S
C140 H158 0.928 . S
C141 C138 1.260 . S
C141 C139 1.479 . S
C142 C137 1.245 . S
C142 C138 1.477 . S
C142 H159 0.932 . S
C143 U126 2.882 . S
C143 C137 1.428 . S
C143 O146 1.301 . S
C143 O147 1.282 . S
O144 U126 2.441 1_556 S
O144 C130 1.249 . S
O145 U126 2.420 1_556 S
O145 C130 1.202 . S
O146 U126 2.455 . S
O146 C143 1.301 . S
O147 U126 2.449 . S
O147 C143 1.282 . S
H148 C121 0.931 . S
H149 C123 0.929 . S
H150 C124 0.930 . S
H151 C125 0.931 . S
H152 C132 0.932 . S
H153 C133 0.930 . S
H154 C134 0.929 . S
H155 C136 0.930 . S
H156 C138 0.932 . S
H157 C139 0.929 . S
H158 C140 0.928 . S
H159 C142 0.932 . S
C160 C161 1.264 . S
C160 C165 1.479 . S
C160 C170 1.465 . S
C161 C160 1.264 . S
C161 C163 1.339 . S
C161 H188 0.931 . S
C162 C163 1.395 . S
C162 C164 1.320 . S
C163 C161 1.339 . S
C163 C162 1.395 . S
C163 H189 0.929 . S
C164 C162 1.320 . S
C164 C165 1.405 . S
C164 H190 0.930 . S
C165 C160 1.479 . S
C165 C164 1.405 . S
C165 H191 0.931 . S
U166 O167 2.454 . S
U166 O168 2.458 . S
U166 C169 2.984 . S
U166 C170 2.847 . S
U166 C183 2.882 . S
U166 O184 2.441 . S
U166 O185 2.420 . S
U166 O186 2.455 . S
U166 O187 2.449 . S
O167 U166 2.454 . S
O167 C169 1.353 . S
O168 U166 2.458 . S
O168 C169 1.286 . S
C169 U166 2.984 . S
C169 O167 1.353 . S
C169 O168 1.286 . S
C169 C171 1.363 . S
C170 C160 1.465 . S
C170 U166 2.847 . S
C170 O184 1.249 . S
C170 O185 1.202 . S
C171 C169 1.363 . S
C171 C173 1.408 . S
C171 C176 1.342 . S
C172 C173 1.310 . S
C172 C175 1.461 . S
C172 H192 0.932 . S
C173 C171 1.408 . S
C173 C172 1.310 . S
C173 H193 0.930 . S
C174 C175 1.474 . S
C174 C176 1.285 . S
C174 H194 0.929 . S
C175 C172 1.461 . S
C175 C174 1.474 . S
C176 C171 1.342 . S
C176 C174 1.285 . S
C176 H195 0.930 . S
C177 C180 1.424 . S
C177 C182 1.245 . S
C177 C183 1.428 . S
C178 C181 1.260 . S
C178 C182 1.477 . S
C178 H196 0.932 . S
C179 C180 1.384 . S
C179 C181 1.479 . S
C179 H197 0.929 . S
C180 C177 1.424 . S
C180 C179 1.384 . S
C180 H198 0.928 . S
C181 C178 1.260 . S
C181 C179 1.479 . S
C182 C177 1.245 . S
C182 C178 1.477 . S
C182 H199 0.932 . S
C183 U166 2.882 . S
C183 C177 1.428 . S
C183 O186 1.301 . S
C183 O187 1.282 . S
O184 U166 2.441 . S
O184 C170 1.249 . S
O185 U166 2.420 . S
O185 C170 1.202 . S
O186 U166 2.455 . S
O186 C183 1.301 . S
O187 U166 2.449 . S
O187 C183 1.282 . S
H188 C161 0.931 . S
H189 C163 0.929 . S
H190 C164 0.930 . S
H191 C165 0.931 . S
H192 C172 0.932 . S
H193 C173 0.930 . S
H194 C174 0.929 . S
H195 C176 0.930 . S
H196 C178 0.932 . S
H197 C179 0.929 . S
H198 C180 0.928 . S
H199 C182 0.932 . S
C200 C201 1.264 . S
C200 C205 1.479 . S
C200 C210 1.465 . S
C201 C200 1.264 . S
C201 C203 1.339 . S
C201 H228 0.931 . S
C202 C203 1.395 . S
C202 C204 1.320 . S
C203 C201 1.339 . S
C203 C202 1.395 . S
C203 H229 0.929 . S
C204 C202 1.320 . S
C204 C205 1.405 . S
C204 H230 0.930 . S
C205 C200 1.479 . S
C205 C204 1.405 . S
C205 H231 0.931 . S
U206 O207 2.454 . S
U206 O208 2.458 . S
U206 C209 2.984 . S
U206 C210 2.847 . S
U206 C223 2.882 . S
U206 O224 2.441 . S
U206 O225 2.420 . S
U206 O226 2.455 . S
U206 O227 2.449 . S
O207 U206 2.454 . S
O207 C209 1.353 . S
O208 U206 2.458 . S
O208 C209 1.286 . S
C209 U206 2.984 . S
C209 O207 1.353 . S
C209 O208 1.286 . S
C209 C211 1.363 . S
C210 C200 1.465 . S
C210 U206 2.847 . S
C210 O224 1.249 . S
C210 O225 1.202 . S
C211 C209 1.363 . S
C211 C213 1.408 . S
C211 C216 1.342 . S
C212 C213 1.310 . S
C212 C215 1.461 . S
C212 H232 0.932 . S
C213 C211 1.408 . S
C213 C212 1.310 . S
C213 H233 0.930 . S
C214 C215 1.474 . S
C214 C216 1.285 . S
C214 H234 0.929 . S
C215 C212 1.461 . S
C215 C214 1.474 . S
C216 C211 1.342 . S
C216 C214 1.285 . S
C216 H235 0.930 . S
C217 C220 1.424 . S
C217 C222 1.245 . S
C217 C223 1.428 . S
C218 C221 1.260 . S
C218 C222 1.477 . S
C218 H236 0.932 . S
C219 C220 1.384 . S
C219 C221 1.479 . S
C219 H237 0.929 . S
C220 C217 1.424 . S
C220 C219 1.384 . S
C220 H238 0.928 . S
C221 C218 1.260 . S
C221 C219 1.479 . S
C222 C217 1.245 . S
C222 C218 1.477 . S
C222 H239 0.932 . S
C223 U206 2.882 . S
C223 C217 1.428 . S
C223 O226 1.301 . S
C223 O227 1.282 . S
O224 U206 2.441 . S
O224 C210 1.249 . S
O225 U206 2.420 . S
O225 C210 1.202 . S
O226 U206 2.455 . S
O226 C223 1.301 . S
O227 U206 2.449 . S
O227 C223 1.282 . S
H228 C201 0.931 . S
H229 C203 0.929 . S
H230 C204 0.930 . S
H231 C205 0.931 . S
H232 C212 0.932 . S
H233 C213 0.930 . S
H234 C214 0.929 . S
H235 C216 0.930 . S
H236 C218 0.932 . S
H237 C219 0.929 . S
H238 C220 0.928 . S
H239 C222 0.932 . S
C240 C241 1.391 . S
C240 C242 1.394 . S
C240 H256 0.931 . S
C241 C240 1.391 . S
C241 C245 1.376 . S
C242 C240 1.394 . S
C242 C243 1.369 . S
C242 C246 1.531 . S
C243 C242 1.369 . S
C243 C244 1.410 . S
C243 C251 1.503 1_565 S
C244 C243 1.410 . S
C244 C245 1.392 . S
C244 C247 1.511 1_554 S
C245 C241 1.376 . S
C245 C244 1.392 . S
C245 H257 0.929 1_554 S
C246 C242 1.531 . S
C246 H258 0.960 1_565 S
C246 H259 0.962 . S
C246 H260 0.960 . S
C247 C244 1.511 1_556 S
C247 H261 0.961 . S
C247 H262 0.961 1_565 S
C247 H263 0.961 1_556 S
C248 C249 1.370 1_556 S
C248 C250 1.363 . S
C248 H264 0.931 . S
C249 C248 1.370 1_554 S
C249 C253 1.408 . S
C250 C248 1.363 . S
C250 C251 1.370 1_556 S
C250 C254 1.524 . S
C251 C243 1.503 1_545 S
C251 C250 1.370 1_554 S
C251 C252 1.403 . S
C252 C251 1.403 . S
C252 C253 1.404 . S
C252 C255 1.539 . S
C253 C249 1.408 . S
C253 C252 1.404 . S
C253 H265 0.930 . S
C254 C250 1.524 . S
C254 H266 0.957 . S
C254 H267 0.961 1_545 S
C254 H268 0.961 . S
C255 C252 1.539 . S
C255 H269 0.958 . S
C255 H270 0.961 . S
C255 H271 0.976 . S
H256 C240 0.931 . S
H257 C245 0.929 1_556 S
H258 C246 0.960 1_545 S
H259 C246 0.962 . S
H260 C246 0.960 . S
H261 C247 0.961 . S
H262 C247 0.961 1_545 S
H263 C247 0.961 1_554 S
H264 C248 0.931 . S
H265 C253 0.930 . S
H266 C254 0.957 . S
H267 C254 0.961 1_565 S
H268 C254 0.961 . S
H269 C255 0.958 . S
H270 C255 0.961 . S
H271 C255 0.976 . S
C272 C273 1.391 . S
C272 C274 1.394 . S
C272 H288 0.931 . S
C273 C272 1.391 . S
C273 C277 1.376 . S
C274 C272 1.394 . S
C274 C275 1.369 . S
C274 C278 1.531 . S
C275 C274 1.369 . S
C275 C276 1.410 . S
C275 C283 1.503 . S
C276 C275 1.410 . S
C276 C277 1.392 . S
C276 C279 1.511 . S
C277 C273 1.376 . S
C277 C276 1.392 . S
C277 H289 0.929 . S
C278 C274 1.531 . S
C278 H290 0.960 . S
C278 H291 0.962 . S
C278 H292 0.960 . S
C279 C276 1.511 . S
C279 H293 0.961 . S
C279 H294 0.961 . S
C279 H295 0.961 . S
C280 C281 1.370 . S
C280 C282 1.363 . S
C280 H296 0.931 . S
C281 C280 1.370 . S
C281 C285 1.408 . S
C282 C280 1.363 . S
C282 C283 1.370 . S
C282 C286 1.524 . S
C283 C275 1.503 . S
C283 C282 1.370 . S
C283 C284 1.403 . S
C284 C283 1.403 . S
C284 C285 1.404 . S
C284 C287 1.539 . S
C285 C281 1.408 . S
C285 C284 1.404 . S
C285 H297 0.930 . S
C286 C282 1.524 . S
C286 H298 0.956 . S
C286 H299 0.961 . S
C286 H300 0.961 . S
C287 C284 1.539 . S
C287 H301 0.958 . S
C287 H302 0.961 . S
C287 H303 0.960 . S
H288 C272 0.931 . S
H289 C277 0.929 . S
H290 C278 0.960 . S
H291 C278 0.962 . S
H292 C278 0.960 . S
H293 C279 0.961 . S
H294 C279 0.961 . S
H295 C279 0.961 . S
H296 C280 0.931 . S
H297 C285 0.930 . S
H298 C286 0.956 . S
H299 C286 0.961 . S
H300 C286 0.961 . S
H301 C287 0.958 . S
H302 C287 0.961 . S
H303 C287 0.960 . S
C304 C305 1.391 . S
C304 C306 1.394 . S
C304 H320 0.931 . S
C305 C304 1.391 . S
C305 C309 1.376 . S
C306 C304 1.394 . S
C306 C307 1.369 . S
C306 C310 1.531 . S
C307 C306 1.369 . S
C307 C308 1.410 . S
C307 C315 1.503 1_455 S
C308 C307 1.410 . S
C308 C309 1.392 . S
C308 C311 1.511 . S
C309 C305 1.376 . S
C309 C308 1.392 . S
C309 H321 0.929 . S
C310 C306 1.531 . S
C310 H322 0.975 . S
C310 H323 0.962 . S
C310 H324 0.960 . S
C311 C308 1.511 . S
C311 H325 0.961 . S
C311 H326 0.961 1_455 S
C311 H327 0.961 . S
C312 C313 1.370 . S
C312 C314 1.363 . S
C312 H328 0.931 . S
C313 C312 1.370 . S
C313 C317 1.408 . S
C314 C312 1.363 . S
C314 C315 1.370 . S
C314 C318 1.524 . S
C315 C307 1.503 1_655 S
C315 C314 1.370 . S
C315 C316 1.403 . S
C316 C315 1.403 . S
C316 C317 1.404 . S
C316 C319 1.539 . S
C317 C313 1.408 . S
C317 C316 1.404 . S
C317 H329 0.930 . S
C318 C314 1.524 . S
C318 H330 0.956 1_655 S
C318 H331 0.961 1_655 S
C318 H332 0.961 . S
C319 C316 1.539 . S
C319 H333 0.958 . S
C319 H334 0.961 . S
C319 H335 0.960 . S
H320 C304 0.931 . S
H321 C309 0.929 . S
H322 C310 0.975 . S
H323 C310 0.962 . S
H324 C310 0.960 . S
H325 C311 0.961 . S
H326 C311 0.961 1_655 S
H327 C311 0.961 . S
H328 C312 0.931 . S
H329 C317 0.930 . S
H330 C318 0.956 1_455 S
H331 C318 0.961 1_455 S
H332 C318 0.961 . S
H333 C319 0.958 . S
H334 C319 0.961 . S
H335 C319 0.960 . S
C336 C337 1.391 . S
C336 C338 1.394 . S
C336 H352 0.931 . S
C337 C336 1.391 . S
C337 C341 1.376 . S
C338 C336 1.394 . S
C338 C339 1.369 . S
C338 C342 1.531 . S
C339 C338 1.369 . S
C339 C340 1.410 . S
C339 C347 1.503 . S
C340 C339 1.410 . S
C340 C341 1.392 . S
C340 C343 1.511 . S
C341 C337 1.376 . S
C341 C340 1.392 . S
C341 H353 0.929 . S
C342 C338 1.531 . S
C342 H354 0.960 . S
C342 H355 0.962 . S
C342 H356 0.960 . S
C343 C340 1.511 . S
C343 H357 0.961 . S
C343 H358 0.961 . S
C343 H359 0.961 . S
C344 C345 1.370 . S
C344 C346 1.363 . S
C344 H360 0.931 . S
C345 C344 1.370 . S
C345 C349 1.408 . S
C346 C344 1.363 . S
C346 C347 1.370 . S
C346 C350 1.524 . S
C347 C339 1.503 . S
C347 C346 1.370 . S
C347 C348 1.403 . S
C348 C347 1.403 . S
C348 C349 1.404 . S
C348 C351 1.539 . S
C349 C345 1.408 . S
C349 C348 1.404 . S
C349 H361 0.930 . S
C350 C346 1.524 . S
C350 H362 0.956 . S
C350 H363 0.961 . S
C350 H364 0.961 . S
C351 C348 1.539 . S
C351 H365 0.958 . S
C351 H366 0.961 . S
C351 H367 0.960 . S
H352 C336 0.931 . S
H353 C341 0.929 . S
H354 C342 0.960 . S
H355 C342 0.962 . S
H356 C342 0.960 . S
H357 C343 0.961 . S
H358 C343 0.961 . S
H359 C343 0.961 . S
H360 C344 0.931 . S
H361 C349 0.930 . S
H362 C350 0.956 . S
H363 C350 0.961 . S
H364 C350 0.961 . S
H365 C351 0.958 . S
H366 C351 0.961 . S
H367 C351 0.960 . S
C368 C369 1.391 . S
C368 C370 1.394 . S
C368 H384 0.931 . S
C369 C368 1.391 . S
C369 C373 1.376 . S
C370 C368 1.394 . S
C370 C371 1.369 . S
C370 C374 1.531 . S
C371 C370 1.369 . S
C371 C372 1.410 . S
C371 C379 1.503 . S
C372 C371 1.410 . S
C372 C373 1.392 . S
C372 C375 1.511 . S
C373 C369 1.376 . S
C373 C372 1.392 . S
C373 H385 0.929 . S
C374 C370 1.531 . S
C374 H386 0.960 . S
C374 H387 0.962 . S
C374 H388 0.960 . S
C375 C372 1.511 . S
C375 H389 0.961 . S
C375 H390 0.961 . S
C375 H391 0.961 . S
C376 C377 1.370 . S
C376 C378 1.363 . S
C376 H392 0.931 . S
C377 C376 1.370 . S
C377 C381 1.408 . S
C378 C376 1.363 . S
C378 C379 1.370 . S
C378 C382 1.524 . S
C379 C371 1.503 . S
C379 C378 1.370 . S
C379 C380 1.403 . S
C380 C379 1.403 . S
C380 C381 1.404 . S
C380 C383 1.539 . S
C381 C377 1.408 . S
C381 C380 1.404 . S
C381 H393 0.930 . S
C382 C378 1.524 . S
C382 H394 0.956 . S
C382 H395 0.961 . S
C382 H396 0.961 . S
C383 C380 1.539 . S
C383 H397 0.958 . S
C383 H398 0.961 . S
C383 H399 0.960 . S
H384 C368 0.931 . S
H385 C373 0.929 . S
H386 C374 0.960 . S
H387 C374 0.962 . S
H388 C374 0.960 . S
H389 C375 0.961 . S
H390 C375 0.961 . S
H391 C375 0.961 . S
H392 C376 0.931 . S
H393 C381 0.930 . S
H394 C382 0.956 . S
H395 C382 0.961 . S
H396 C382 0.961 . S
H397 C383 0.958 . S
H398 C383 0.961 . S
H399 C383 0.960 . S
C400 C401 1.391 . S
C400 C402 1.394 . S
C400 H416 0.931 . S
C401 C400 1.391 . S
C401 C405 1.376 . S
C402 C400 1.394 . S
C402 C403 1.369 . S
C402 C406 1.531 1_554 S
C403 C402 1.369 . S
C403 C404 1.410 . S
C403 C411 1.503 1_554 S
C404 C403 1.410 . S
C404 C405 1.392 . S
C404 C407 1.511 . S
C405 C401 1.376 . S
C405 C404 1.392 . S
C405 H417 0.929 . S
C406 C402 1.531 1_556 S
C406 H418 0.960 . S
C406 H419 0.962 . S
C406 H420 0.960 1_556 S
C407 C404 1.511 . S
C407 H421 0.961 . S
C407 H422 0.961 . S
C407 H423 0.961 . S
C408 C409 1.370 . S
C408 C410 1.363 . S
C408 H424 0.931 . S
C409 C408 1.370 . S
C409 C413 1.408 . S
C410 C408 1.363 . S
C410 C411 1.370 . S
C410 C414 1.524 . S
C411 C403 1.503 1_556 S
C411 C410 1.370 . S
C411 C412 1.403 . S
C412 C411 1.403 . S
C412 C413 1.404 . S
C412 C415 1.539 1_556 S
C413 C409 1.408 . S
C413 C412 1.404 . S
C413 H425 0.930 . S
C414 C410 1.524 . S
C414 H426 0.956 . S
C414 H427 0.961 . S
C414 H428 0.961 . S
C415 C412 1.539 1_554 S
C415 H429 0.958 . S
C415 H430 0.961 . S
C415 H431 0.960 . S
H416 C400 0.931 . S
H417 C405 0.929 . S
H418 C406 0.960 . S
H419 C406 0.962 . S
H420 C406 0.960 1_554 S
H421 C407 0.961 . S
H422 C407 0.961 . S
H423 C407 0.961 . S
H424 C408 0.931 . S
H425 C413 0.930 . S
H426 C414 0.956 . S
H427 C414 0.961 . S
H428 C414 0.961 . S
H429 C415 0.958 . S
H430 C415 0.961 . S
H431 C415 0.960 . S
C432 C433 1.391 . S
C432 C434 1.394 . S
C432 H448 0.931 . S
C433 C432 1.391 . S
C433 C437 1.376 . S
C434 C432 1.394 . S
C434 C435 1.369 . S
C434 C438 1.531 . S
C435 C434 1.369 . S
C435 C436 1.410 . S
C435 C443 1.503 . S
C436 C435 1.410 . S
C436 C437 1.392 . S
C436 C439 1.511 . S
C437 C433 1.376 . S
C437 C436 1.392 . S
C437 H449 0.929 . S
C438 C434 1.531 . S
C438 H450 0.960 . S
C438 H451 0.962 . S
C438 H452 0.960 . S
C439 C436 1.511 . S
C439 H453 0.961 . S
C439 H454 0.961 . S
C439 H455 0.961 . S
C440 C441 1.370 . S
C440 C442 1.363 . S
C440 H456 0.931 . S
C441 C440 1.370 . S
C441 C445 1.408 . S
C442 C440 1.363 . S
C442 C443 1.370 . S
C442 C446 1.524 . S
C443 C435 1.503 . S
C443 C442 1.370 . S
C443 C444 1.403 . S
C444 C443 1.403 . S
C444 C445 1.404 . S
C444 C447 1.539 . S
C445 C441 1.408 . S
C445 C444 1.404 . S
C445 H457 0.930 . S
C446 C442 1.524 . S
C446 H458 0.956 . S
C446 H459 0.961 . S
C446 H460 0.961 . S
C447 C444 1.539 . S
C447 H461 0.958 . S
C447 H462 0.961 . S
C447 H463 0.960 . S
H448 C432 0.931 . S
H449 C437 0.929 . S
H450 C438 0.960 . S
H451 C438 0.962 . S
H452 C438 0.960 . S
H453 C439 0.961 . S
H454 C439 0.961 . S
H455 C439 0.961 . S
H456 C440 0.931 . S
H457 C445 0.930 . S
H458 C446 0.956 . S
H459 C446 0.961 . S
H460 C446 0.961 . S
H461 C447 0.958 . S
H462 C447 0.961 . S
H463 C447 0.960 . S
C464 C465 1.391 . S
C464 C466 1.394 . S
C464 H480 0.931 . S
C465 C464 1.391 . S
C465 C469 1.376 . S
C466 C464 1.394 . S
C466 C467 1.369 . S
C466 C470 1.531 . S
C467 C466 1.369 . S
C467 C468 1.410 . S
C467 C475 1.503 . S
C468 C467 1.410 . S
C468 C469 1.392 . S
C468 C471 1.511 . S
C469 C465 1.376 . S
C469 C468 1.392 . S
C469 H481 0.929 . S
C470 C466 1.531 . S
C470 H482 0.960 . S
C470 H483 0.962 . S
C470 H484 0.960 . S
C471 C468 1.511 . S
C471 H485 0.961 . S
C471 H486 0.961 . S
C471 H487 0.961 . S
C472 C473 1.370 . S
C472 C474 1.363 . S
C472 H488 0.931 . S
C473 C472 1.370 . S
C473 C477 1.408 . S
C474 C472 1.363 . S
C474 C475 1.370 . S
C474 C478 1.524 . S
C475 C467 1.503 . S
C475 C474 1.370 . S
C475 C476 1.403 . S
C476 C475 1.403 . S
C476 C477 1.404 . S
C476 C479 1.539 . S
C477 C473 1.408 . S
C477 C476 1.404 . S
C477 H489 0.930 . S
C478 C474 1.524 . S
C478 H490 0.956 . S
C478 H491 0.961 . S
C478 H492 0.961 . S
C479 C476 1.539 . S
C479 H493 0.958 . S
C479 H494 0.961 . S
C479 H495 0.960 . S
H480 C464 0.931 . S
H481 C469 0.929 . S
H482 C470 0.960 . S
H483 C470 0.962 . S
H484 C470 0.960 . S
H485 C471 0.961 . S
H486 C471 0.961 . S
H487 C471 0.961 . S
H488 C472 0.931 . S
H489 C477 0.930 . S
H490 C478 0.956 . S
H491 C478 0.961 . S
H492 C478 0.961 . S
H493 C479 0.958 . S
H494 C479 0.961 . S
H495 C479 0.960 . S
C496 C497 1.391 . S
C496 C498 1.394 . S
C496 H512 0.931 . S
C497 C496 1.391 . S
C497 C501 1.376 . S
C498 C496 1.394 . S
C498 C499 1.369 . S
C498 C502 1.531 1_556 S
C499 C498 1.369 . S
C499 C500 1.410 . S
C499 C507 1.503 1_556 S
C500 C499 1.410 . S
C500 C501 1.392 . S
C500 C503 1.511 . S
C501 C497 1.376 . S
C501 C500 1.392 . S
C501 H513 0.929 . S
C502 C498 1.531 1_554 S
C502 H514 0.960 . S
C502 H515 0.962 . S
C502 H516 0.960 . S
C503 C500 1.511 . S
C503 H517 0.961 . S
C503 H518 0.961 . S
C503 H519 0.961 . S
C504 C505 1.370 . S
C504 C506 1.363 . S
C504 H520 0.931 . S
C505 C504 1.370 . S
C505 C509 1.408 . S
C506 C504 1.363 . S
C506 C507 1.370 . S
C506 C510 1.524 . S
C507 C499 1.503 1_554 S
C507 C506 1.370 . S
C507 C508 1.403 . S
C508 C507 1.403 . S
C508 C509 1.404 . S
C508 C511 1.539 . S
C509 C505 1.408 . S
C509 C508 1.404 . S
C509 H521 0.930 . S
C510 C506 1.524 . S
C510 H522 0.956 . S
C510 H523 0.961 . S
C510 H524 0.961 . S
C511 C508 1.539 . S
C511 H525 0.958 . S
C511 H526 0.961 . S
C511 H527 0.960 1_554 S
H512 C496 0.931 . S
H513 C501 0.929 . S
H514 C502 0.960 . S
H515 C502 0.962 . S
H516 C502 0.960 . S
H517 C503 0.961 . S
H518 C503 0.961 . S
H519 C503 0.961 . S
H520 C504 0.931 . S
H521 C509 0.930 . S
H522 C510 0.956 . S
H523 C510 0.961 . S
H524 C510 0.961 . S
H525 C511 0.958 . S
H526 C511 0.961 . S
H527 C511 0.960 1_556 S
C241 C15 1.496 . S
C249 C135 1.499 . S
C273 C175 1.494 . S
C281 C55 1.499 . S
C305 C95 1.501 . S
C313 C215 1.504 . S
C337 C2 1.487 . S
C345 C82 1.492 . S
C369 C42 1.486 . S
C377 C122 1.491 . S
C401 C162 1.471 . S
C409 C101 1.492 . S
C433 C202 1.486 . S
C441 C141 1.488 . S
C465 C181 1.468 . S
C473 C21 1.487 . S
C497 C221 1.502 . S
C505 C61 1.494 . S
