# Generated by pormake.
# Topology umv, (4)-cn, num edge types: 1
# Building blocks:
#     Node 0, Type 0, BuildingBlock: AZAVOO_clean_sbu_0, # of connection points: 4
#     Node 1, Type 0, BuildingBlock: AZAVOO_clean_sbu_0, # of connection points: 4
#     Node 2, Type 0, BuildingBlock: AZAVOO_clean_sbu_0, # of connection points: 4
#     Node 3, Type 0, BuildingBlock: AZAVOO_clean_sbu_0, # of connection points: 4
#     Node 4, Type 0, BuildingBlock: AZAVOO_clean_sbu_0, # of connection points: 4
#     Node 5, Type 0, BuildingBlock: AZAVOO_clean_sbu_0, # of connection points: 4
#     Node 6, Type 0, BuildingBlock: AZAVOO_clean_sbu_0, # of connection points: 4
#     Node 7, Type 0, BuildingBlock: AZAVOO_clean_sbu_0, # of connection points: 4
#     Node 8, Type 0, BuildingBlock: AZAVOO_clean_sbu_0, # of connection points: 4
#     Node 9, Type 0, BuildingBlock: AZAVOO_clean_sbu_0, # of connection points: 4
#     Node 10, Type 0, BuildingBlock: AZAVOO_clean_sbu_0, # of connection points: 4
#     Node 11, Type 0, BuildingBlock: AZAVOO_clean_sbu_0, # of connection points: 4
#     Node 12, Type 0, BuildingBlock: AZAVOO_clean_sbu_0, # of connection points: 4
#     Node 13, Type 0, BuildingBlock: AZAVOO_clean_sbu_0, # of connection points: 4
#     Node 14, Type 0, BuildingBlock: AZAVOO_clean_sbu_0, # of connection points: 4
#     Node 15, Type 0, BuildingBlock: AZAVOO_clean_sbu_0, # of connection points: 4
#     Node 16, Type 0, BuildingBlock: AZAVOO_clean_sbu_0, # of connection points: 4
#     Node 17, Type 0, BuildingBlock: AZAVOO_clean_sbu_0, # of connection points: 4
#     Node 18, Type 0, BuildingBlock: AZAVOO_clean_sbu_0, # of connection points: 4
#     Node 19, Type 0, BuildingBlock: AZAVOO_clean_sbu_0, # of connection points: 4
#     Node 20, Type 0, BuildingBlock: AZAVOO_clean_sbu_0, # of connection points: 4
#     Node 21, Type 0, BuildingBlock: AZAVOO_clean_sbu_0, # of connection points: 4
#     Node 22, Type 0, BuildingBlock: AZAVOO_clean_sbu_0, # of connection points: 4
#     Node 23, Type 0, BuildingBlock: AZAVOO_clean_sbu_0, # of connection points: 4
#     Node 24, Type 0, BuildingBlock: AZAVOO_clean_sbu_0, # of connection points: 4
#     Node 25, Type 0, BuildingBlock: AZAVOO_clean_sbu_0, # of connection points: 4
#     Node 26, Type 0, BuildingBlock: AZAVOO_clean_sbu_0, # of connection points: 4
#     Node 27, Type 0, BuildingBlock: AZAVOO_clean_sbu_0, # of connection points: 4
#     Node 28, Type 0, BuildingBlock: AZAVOO_clean_sbu_0, # of connection points: 4
#     Node 29, Type 0, BuildingBlock: AZAVOO_clean_sbu_0, # of connection points: 4
#     Node 30, Type 0, BuildingBlock: AZAVOO_clean_sbu_0, # of connection points: 4
#     Node 31, Type 0, BuildingBlock: AZAVOO_clean_sbu_0, # of connection points: 4
#     Edge 32, Type (0, 0), None
#     Edge 33, Type (0, 0), None
#     Edge 34, Type (0, 0), None
#     Edge 35, Type (0, 0), None
#     Edge 36, Type (0, 0), None
#     Edge 37, Type (0, 0), None
#     Edge 38, Type (0, 0), None
#     Edge 39, Type (0, 0), None
#     Edge 40, Type (0, 0), None
#     Edge 41, Type (0, 0), None
#     Edge 42, Type (0, 0), None
#     Edge 43, Type (0, 0), None
#     Edge 44, Type (0, 0), None
#     Edge 45, Type (0, 0), None
#     Edge 46, Type (0, 0), None
#     Edge 47, Type (0, 0), None
#     Edge 48, Type (0, 0), None
#     Edge 49, Type (0, 0), None
#     Edge 50, Type (0, 0), None
#     Edge 51, Type (0, 0), None
#     Edge 52, Type (0, 0), None
#     Edge 53, Type (0, 0), None
#     Edge 54, Type (0, 0), None
#     Edge 55, Type (0, 0), None
#     Edge 56, Type (0, 0), None
#     Edge 57, Type (0, 0), None
#     Edge 58, Type (0, 0), None
#     Edge 59, Type (0, 0), None
#     Edge 60, Type (0, 0), None
#     Edge 61, Type (0, 0), None
#     Edge 62, Type (0, 0), None
#     Edge 63, Type (0, 0), None
#     Edge 64, Type (0, 0), None
#     Edge 65, Type (0, 0), None
#     Edge 66, Type (0, 0), None
#     Edge 67, Type (0, 0), None
#     Edge 68, Type (0, 0), None
#     Edge 69, Type (0, 0), None
#     Edge 70, Type (0, 0), None
#     Edge 71, Type (0, 0), None
#     Edge 72, Type (0, 0), None
#     Edge 73, Type (0, 0), None
#     Edge 74, Type (0, 0), None
#     Edge 75, Type (0, 0), None
#     Edge 76, Type (0, 0), None
#     Edge 77, Type (0, 0), None
#     Edge 78, Type (0, 0), None
#     Edge 79, Type (0, 0), None
#     Edge 80, Type (0, 0), None
#     Edge 81, Type (0, 0), None
#     Edge 82, Type (0, 0), None
#     Edge 83, Type (0, 0), None
#     Edge 84, Type (0, 0), None
#     Edge 85, Type (0, 0), None
#     Edge 86, Type (0, 0), None
#     Edge 87, Type (0, 0), None
#     Edge 88, Type (0, 0), None
#     Edge 89, Type (0, 0), None
#     Edge 90, Type (0, 0), None
#     Edge 91, Type (0, 0), None
#     Edge 92, Type (0, 0), None
#     Edge 93, Type (0, 0), None
#     Edge 94, Type (0, 0), None
#     Edge 95, Type (0, 0), None
# Relax obj value: 0.129
# Max RMSD: 0.108
# Mean RMSD: 0.108
data_MOF--net-umv--node1-AZAVOO_clean_sbu_0--edge1-none
_symmetry_space_group_name_H-M    P1
_symmetry_Int_Tables_number       1
_symmetry_cell_setting            triclinic
loop_
_symmetry_equiv_pos_as_xyz
'x, y, z'
_cell_length_a     40.044583
_cell_length_b     10.77638
_cell_length_c     38.065201
_cell_angle_alpha  90.000423
_cell_angle_beta   91.642851
_cell_angle_gamma 90.001951
loop_
_atom_site_label
_atom_site_type_symbol
_atom_site_fract_x
_atom_site_fract_y
_atom_site_fract_z
_atom_type_partial_charge
Mg0 Mg 0.05078 0.0044 0.2944 0.0
O1 O 0.04847 0.1793 0.32992 0.0
O2 O 0.08244 0.14733 0.37677 0.0
Mg3 Mg 0.1095 0.96287 0.36995 0.0
C4 C 0.06188 0.21467 0.35914 0.0
C5 C 0.99108 0.14303 0.24754 0.0
O6 O 0.96118 0.144 0.23249 0.0
O7 O 0.02324 0.87991 0.33225 0.0
O8 O 0.06232 0.84342 0.37395 0.0
O9 O 0.09227 0.09161 0.26448 0.0
O10 O 0.10023 0.98113 0.3128 0.0
C11 C 0.03354 0.82321 0.35987 0.0
C12 C 0.1124 0.05056 0.28894 0.0
O13 O 1.00047 0.04822 0.26522 0.0
Mg14 Mg 0.20775 0.14841 0.30185 0.0
O15 O 0.21224 0.9733 0.33787 0.0
O16 O 0.17895 0.00512 0.38332 0.0
Mg17 Mg 0.14889 0.18251 0.37307 0.0
C18 C 0.20002 0.93913 0.36715 0.0
C19 C 0.27203 0.04344 0.25885 0.0
O20 O 0.30203 0.0606 0.24686 0.0
O21 O 0.23381 0.27194 0.34114 0.0
O22 O 0.1944 0.31071 0.37978 0.0
O23 O 0.1682 0.05509 0.26808 0.0
O24 O 0.15814 0.15936 0.31651 0.0
C25 C 0.22322 0.33029 0.36748 0.0
C26 C 0.14713 0.09112 0.29104 0.0
O27 O 0.25912 0.12782 0.27728 0.0
Mg28 Mg 0.06796 0.1484 0.95722 0.0
O29 O 0.06346 0.97328 0.92121 0.0
O30 O 0.09675 0.0051 0.87575 0.0
Mg31 Mg 0.12682 0.1825 0.886 0.0
C32 C 0.07569 0.93911 0.89193 0.0
C33 C 1.00368 0.04343 1.00023 0.0
O34 O 0.97367 0.06059 0.01222 0.0
O35 O 0.04189 0.27191 0.91793 0.0
O36 O 0.0813 0.31068 0.87929 0.0
O37 O 0.1075 0.05509 0.991 0.0
O38 O 0.11757 0.15935 0.94257 0.0
C39 C 0.05249 0.33025 0.89159 0.0
C40 C 0.12857 0.09113 0.96803 0.0
O41 O 0.01658 0.12781 0.98179 0.0
Mg42 Mg 0.22492 0.00439 0.96468 0.0
O43 O 0.22723 0.17929 0.92915 0.0
O44 O 0.19327 0.14731 0.88231 0.0
Mg45 Mg 0.16621 0.96285 0.88912 0.0
C46 C 0.21382 0.21465 0.89993 0.0
C47 C 0.28462 0.14303 0.01154 0.0
O48 O 0.31453 0.144 0.02659 0.0
O49 O 0.25246 0.8799 0.92683 0.0
O50 O 0.21339 0.8434 0.88513 0.0
O51 O 0.18344 0.09161 0.99459 0.0
O52 O 0.17547 0.98111 0.94627 0.0
C53 C 0.24217 0.8232 0.89921 0.0
C54 C 0.16331 0.05057 0.97014 0.0
O55 O 0.27523 0.04821 0.99386 0.0
Mg56 Mg 0.97493 0.9693 0.71468 0.0
O57 O 0.97723 0.79441 0.67916 0.0
O58 O 0.94327 0.82638 0.63231 0.0
Mg59 Mg 0.91621 0.01083 0.63913 0.0
C60 C 0.96382 0.75904 0.64994 0.0
C61 C 0.03462 0.83067 0.76154 0.0
O62 O 0.06453 0.8297 0.77659 0.0
O63 O 1.00246 0.0938 0.67683 0.0
O64 O 0.96339 0.13028 0.63513 0.0
O65 O 0.93344 0.88209 0.7446 0.0
O66 O 0.92547 -0.00742 0.69628 0.0
C67 C 0.99217 0.15049 0.64922 0.0
C68 C 0.91331 0.92314 0.72014 0.0
O69 O 0.02524 0.92548 0.74386 0.0
Mg70 Mg 0.81796 0.82529 0.70723 0.0
O71 O 0.81346 0.0004 0.67121 0.0
O72 O 0.84675 0.96857 0.62576 0.0
Mg73 Mg 0.87682 0.79118 0.63601 0.0
C74 C 0.82569 0.03457 0.64193 0.0
C75 C 0.75368 0.93026 0.75023 0.0
O76 O 0.72367 0.91311 0.76222 0.0
O77 O 0.79189 0.70176 0.66794 0.0
O78 O 0.83131 0.66299 0.6293 0.0
O79 O 0.8575 0.91861 0.741 0.0
O80 O 0.86757 0.81434 0.69258 0.0
C81 C 0.80249 0.64341 0.6416 0.0
C82 C 0.87857 0.88258 0.71804 0.0
O83 O 0.76658 0.84588 0.7318 0.0
Mg84 Mg 0.95775 0.8253 0.05185 0.0
O85 O 0.96224 0.00042 0.08787 0.0
O86 O 0.92895 0.9686 0.13333 0.0
Mg87 Mg 0.89889 0.7912 0.12308 0.0
C88 C 0.95002 0.03459 0.11715 0.0
C89 C 0.02203 0.93026 0.00885 0.0
O90 O 0.05203 0.91311 0.99686 0.0
O91 O 0.98381 0.70179 0.09115 0.0
O92 O 0.9444 0.66302 0.12979 0.0
O93 O 0.9182 0.91861 0.01808 0.0
O94 O 0.90814 0.81434 0.06651 0.0
C95 C 0.97322 0.64344 0.11749 0.0
C96 C 0.89713 0.88257 0.04104 0.0
O97 O 1.00912 0.84589 0.02729 0.0
Mg98 Mg 0.80078 0.9693 0.0444 0.0
O99 O 0.79847 0.79441 0.07993 0.0
O100 O 0.83244 0.82639 0.12677 0.0
Mg101 Mg 0.8595 0.01085 0.11996 0.0
C102 C 0.81188 0.75905 0.10914 0.0
C103 C 0.74108 0.83067 0.99754 0.0
O104 O 0.71118 0.8297 0.98249 0.0
O105 O 0.77325 0.0938 0.08225 0.0
O106 O 0.81232 0.13029 0.12395 0.0
O107 O 0.84227 0.88209 0.01448 0.0
O108 O 0.85024 -0.00742 0.0628 0.0
C109 C 0.78354 0.15049 0.10986 0.0
C110 C 0.8624 0.92312 0.03894 0.0
O111 O 0.75047 0.92549 0.01522 0.0
Mg112 Mg 0.06423 0.5766 0.82183 0.0
O113 O 0.06207 0.7635 0.85536 0.0
O114 O 0.09521 0.74031 0.90372 0.0
Mg115 Mg 0.10582 0.53601 0.90844 0.0
C116 C 0.07614 0.80601 0.88374 0.0
C117 C 1.01266 0.72332 0.76509 0.0
O118 O 0.9842 0.71897 0.74734 0.0
O119 O 0.02598 0.46357 0.85204 0.0
O120 O 0.05013 0.54083 0.8977 0.0
O121 O 0.11381 0.63315 0.80051 0.0
O122 O 0.11013 0.5271 0.84969 0.0
C123 C 0.03634 0.44795 0.88332 0.0
C124 C 0.12864 0.58052 0.8272 0.0
O125 O 0.0206 0.63208 0.78471 0.0
Mg126 Mg 0.22961 0.56499 0.82928 0.0
O127 O 0.22928 0.38813 0.86532 0.0
O128 O 0.1936 0.41509 0.909 0.0
Mg129 Mg 0.18667 0.62297 0.91077 0.0
C130 C 0.21351 0.34747 0.89174 0.0
C131 C 0.2751 0.45938 0.76688 0.0
O132 O 0.30044 0.39631 0.75506 0.0
O133 O 0.26762 0.68581 0.86086 0.0
O134 O 0.24275 0.61209 0.90509 0.0
O135 O 0.18044 0.50358 0.80582 0.0
O136 O 0.18328 0.63083 0.8513 0.0
C137 C 0.25749 0.70327 0.89165 0.0
C138 C 0.16523 0.56878 0.82897 0.0
O139 O 0.27187 0.46982 0.79988 0.0
Mg140 Mg 0.0461 0.565 0.4298 0.0
O141 O 0.04643 0.38815 0.39376 0.0
O142 O 0.0821 0.41511 0.35008 0.0
Mg143 Mg 0.08903 0.62299 0.34831 0.0
C144 C 0.06219 0.34748 0.36733 0.0
C145 C 1.00061 0.45938 0.4922 0.0
O146 O 0.97526 0.39631 0.50402 0.0
O147 O 1.00808 0.68583 0.39822 0.0
O148 O 0.03296 0.6121 0.35399 0.0
O149 O 0.09526 0.50357 0.45326 0.0
O150 O 0.09243 0.63083 0.40778 0.0
C151 C 0.01822 0.70328 0.36743 0.0
C152 C 0.11047 0.56875 0.4301 0.0
O153 O 1.00383 0.46983 0.4592 0.0
Mg154 Mg 0.21148 0.57662 0.43724 0.0
O155 O 0.21364 0.76353 0.40372 0.0
O156 O 0.18049 0.74033 0.35535 0.0
Mg157 Mg 0.16988 0.53604 0.35063 0.0
C158 C 0.19956 0.80604 0.37533 0.0
C159 C 0.26304 0.72334 0.49399 0.0
O160 O 0.2915 0.71898 0.51174 0.0
O161 O 0.24973 0.46362 0.40702 0.0
O162 O 0.22558 0.54087 0.36137 0.0
O163 O 0.1619 0.63314 0.45857 0.0
O164 O 0.16558 0.52711 0.40939 0.0
C165 C 0.23937 0.44799 0.37575 0.0
C166 C 0.14706 0.58049 0.43188 0.0
O167 O 0.25511 0.6321 0.47436 0.0
Mg168 Mg 0.96148 0.3971 0.18725 0.0
O169 O 0.96364 0.21019 0.15372 0.0
O170 O 0.93049 0.23338 0.10535 0.0
Mg171 Mg 0.91988 0.43768 0.10064 0.0
C172 C 0.94957 0.16768 0.12534 0.0
C173 C 0.01304 0.25037 0.24399 0.0
O174 O 0.0415 0.25473 0.26174 0.0
O175 O 0.99973 0.51012 0.15704 0.0
O176 O 0.97558 0.43286 0.11138 0.0
O177 O 0.9119 0.34055 0.20857 0.0
O178 O 0.91558 0.4466 0.15939 0.0
C179 C 0.98937 0.52575 0.12576 0.0
C180 C 0.89706 0.39318 0.18188 0.0
O181 O 1.00511 0.34162 0.22436 0.0
Mg182 Mg 0.7961 0.4087 0.1798 0.0
O183 O 0.79643 0.58556 0.14376 0.0
O184 O 0.8321 0.55861 0.10008 0.0
Mg185 Mg 0.83903 0.35073 0.09831 0.0
C186 C 0.8122 0.62623 0.11734 0.0
C187 C 0.75061 0.51432 0.24219 0.0
O188 O 0.72526 0.5774 0.25402 0.0
O189 O 0.75808 0.28788 0.14822 0.0
O190 O 0.78296 0.3616 0.10399 0.0
O191 O 0.84527 0.47012 0.20326 0.0
O192 O 0.84243 0.34287 0.15778 0.0
C193 C 0.76822 0.27043 0.11743 0.0
C194 C 0.86047 0.40492 0.18011 0.0
O195 O 0.75383 0.50388 0.2092 0.0
Mg196 Mg 0.97961 0.4087 0.57928 0.0
O197 O 0.97928 0.58556 0.61532 0.0
O198 O 0.9436 0.55859 0.659 0.0
Mg199 Mg 0.93667 0.35072 0.66077 0.0
C200 C 0.96351 0.62622 0.64175 0.0
C201 C 0.0251 0.51432 0.51689 0.0
O202 O 0.05044 0.57739 0.50506 0.0
O203 O 0.01762 0.28788 0.61086 0.0
O204 O 0.99275 0.3616 0.65509 0.0
O205 O 0.93044 0.47013 0.55582 0.0
O206 O 0.93328 0.34287 0.6013 0.0
C207 C 1.00749 0.27042 0.64165 0.0
C208 C 0.91523 0.40495 0.57898 0.0
O209 O 0.02187 0.50387 0.54988 0.0
Mg210 Mg 0.81423 0.39708 0.57184 0.0
O211 O 0.81207 0.21017 0.60536 0.0
O212 O 0.84521 0.23336 0.65373 0.0
Mg213 Mg 0.85583 0.43766 0.65845 0.0
C214 C 0.82614 0.16766 0.63375 0.0
C215 C 0.76266 0.25037 0.51509 0.0
O216 O 0.7342 0.25473 0.49734 0.0
O217 O 0.77597 0.51007 0.60206 0.0
O218 O 0.80013 0.43283 0.64771 0.0
O219 O 0.86381 0.34057 0.55051 0.0
O220 O 0.86013 0.44659 0.59969 0.0
C221 C 0.78634 0.52571 0.63333 0.0
C222 C 0.87864 0.39322 0.5772 0.0
O223 O 0.7706 0.34161 0.53472 0.0
Mg224 Mg 0.55078 0.00441 0.7944 0.0
O225 O 0.54847 0.1793 0.82992 0.0
O226 O 0.58244 0.14733 0.87677 0.0
Mg227 Mg 0.6095 0.96288 0.86995 0.0
C228 C 0.56188 0.21467 0.85914 0.0
C229 C 0.49108 0.14304 0.74754 0.0
O230 O 0.46118 0.144 0.73249 0.0
O231 O 0.52325 0.87991 0.83225 0.0
O232 O 0.56232 0.84342 0.87395 0.0
O233 O 0.59227 0.09162 0.76448 0.0
O234 O 0.60023 0.98113 0.8128 0.0
C235 C 0.53354 0.82322 0.85986 0.0
C236 C 0.6124 0.05057 0.78894 0.0
O237 O 0.50047 0.04822 0.76522 0.0
Mg238 Mg 0.70775 0.14841 0.80185 0.0
O239 O 0.71224 0.97331 0.83787 0.0
O240 O 0.67895 0.00513 0.88332 0.0
Mg241 Mg 0.64889 0.18252 0.87307 0.0
C242 C 0.70002 0.93914 0.86715 0.0
C243 C 0.77203 0.04345 0.75885 0.0
O244 O 0.80203 0.0606 0.74686 0.0
O245 O 0.73381 0.27194 0.84114 0.0
O246 O 0.6944 0.31072 0.87978 0.0
O247 O 0.6682 0.05509 0.76808 0.0
O248 O 0.65814 0.15937 0.8165 0.0
C249 C 0.72321 0.3303 0.86748 0.0
C250 C 0.64714 0.09112 0.79104 0.0
O251 O 0.75912 0.12783 0.77728 0.0
Mg252 Mg 0.56796 0.14841 0.45723 0.0
O253 O 0.56346 0.97329 0.42121 0.0
O254 O 0.59675 0.00511 0.37575 0.0
Mg255 Mg 0.62682 0.18251 0.386 0.0
C256 C 0.57569 0.93912 0.39193 0.0
C257 C 0.50368 0.04344 0.50023 0.0
O258 O 0.47367 0.0606 0.51222 0.0
O259 O 0.54189 0.27192 0.41793 0.0
O260 O 0.5813 0.31069 0.37929 0.0
O261 O 0.6075 0.0551 0.491 0.0
O262 O 0.61757 0.15936 0.44257 0.0
C263 C 0.55249 0.33027 0.39159 0.0
C264 C 0.62857 0.09114 0.46804 0.0
O265 O 0.51658 0.12782 0.48179 0.0
Mg266 Mg 0.72492 0.00441 0.46468 0.0
O267 O 0.72723 0.1793 0.42915 0.0
O268 O 0.69327 0.14732 0.38231 0.0
Mg269 Mg 0.66621 0.96286 0.38912 0.0
C270 C 0.71382 0.21466 0.39993 0.0
C271 C 0.78462 0.14303 0.51154 0.0
O272 O 0.81453 0.144 0.52659 0.0
O273 O 0.75246 0.87991 0.42683 0.0
O274 O 0.71339 0.84341 0.38513 0.0
O275 O 0.68344 0.09162 0.4946 0.0
O276 O 0.67547 0.98113 0.44627 0.0
C277 C 0.74217 0.82321 0.39921 0.0
C278 C 0.66331 0.05058 0.47014 0.0
O279 O 0.77523 0.04822 0.49386 0.0
Mg280 Mg 0.47493 0.9693 0.21468 0.0
O281 O 0.47723 0.7944 0.17915 0.0
O282 O 0.44327 0.82637 0.13231 0.0
Mg283 Mg 0.41621 0.01083 0.13913 0.0
C284 C 0.46382 0.75904 0.14994 0.0
C285 C 0.53462 0.83067 0.26154 0.0
O286 O 0.56453 0.82971 0.27659 0.0
O287 O 0.50246 0.0938 0.17682 0.0
O288 O 0.46339 0.13028 0.13513 0.0
O289 O 0.43344 0.88209 0.2446 0.0
O290 O 0.42547 -0.00742 0.19628 0.0
C291 C 0.49217 0.15049 0.14921 0.0
C292 C 0.41331 0.92314 0.22014 0.0
O293 O 0.52524 0.92549 0.24386 0.0
Mg294 Mg 0.31796 0.82529 0.20723 0.0
O295 O 0.31346 0.0004 0.17121 0.0
O296 O 0.34675 0.96858 0.12575 0.0
Mg297 Mg 0.37682 0.79119 0.13601 0.0
C298 C 0.32569 0.03457 0.14193 0.0
C299 C 0.25368 0.93026 0.25023 0.0
O300 O 0.22367 0.91311 0.26222 0.0
O301 O 0.29189 0.70176 0.16793 0.0
O302 O 0.33131 0.66299 0.1293 0.0
O303 O 0.3575 0.91861 0.241 0.0
O304 O 0.36757 0.81434 0.19257 0.0
C305 C 0.30249 0.64341 0.1416 0.0
C306 C 0.37857 0.88258 0.21804 0.0
O307 O 0.26658 0.84588 0.23179 0.0
Mg308 Mg 0.45775 0.8253 0.55185 0.0
O309 O 0.46224 0.00042 0.58787 0.0
O310 O 0.42895 0.9686 0.63333 0.0
Mg311 Mg 0.39889 0.7912 0.62308 0.0
C312 C 0.45002 0.03459 0.61715 0.0
C313 C 0.52203 0.93027 0.50885 0.0
O314 O 0.55203 0.91312 0.49686 0.0
O315 O 0.48381 0.70179 0.59115 0.0
O316 O 0.4444 0.66302 0.62979 0.0
O317 O 0.4182 0.91861 0.51808 0.0
O318 O 0.40814 0.81435 0.56651 0.0
C319 C 0.47322 0.64344 0.61749 0.0
C320 C 0.39713 0.88257 0.54104 0.0
O321 O 0.50912 0.84589 0.52729 0.0
Mg322 Mg 0.30078 0.96931 0.5444 0.0
O323 O 0.29847 0.79441 0.57993 0.0
O324 O 0.33244 0.82639 0.62677 0.0
Mg325 Mg 0.3595 0.01085 0.61995 0.0
C326 C 0.31188 0.75905 0.60914 0.0
C327 C 0.24108 0.83067 0.49754 0.0
O328 O 0.21118 0.8297 0.48249 0.0
O329 O 0.27325 0.0938 0.58225 0.0
O330 O 0.31232 0.1303 0.62395 0.0
O331 O 0.34227 0.88209 0.51448 0.0
O332 O 0.35024 -0.00741 0.5628 0.0
C333 C 0.28354 0.1505 0.60986 0.0
C334 C 0.3624 0.92313 0.53894 0.0
O335 O 0.25047 0.92549 0.51522 0.0
Mg336 Mg 0.56423 0.57661 0.32183 0.0
O337 O 0.56207 0.76352 0.35536 0.0
O338 O 0.59521 0.74033 0.40372 0.0
Mg339 Mg 0.60582 0.53603 0.40844 0.0
C340 C 0.57614 0.80603 0.38374 0.0
C341 C 0.51266 0.72333 0.26509 0.0
O342 O 0.4842 0.71898 0.24734 0.0
O343 O 0.52597 0.46359 0.35204 0.0
O344 O 0.55013 0.54085 0.3977 0.0
O345 O 0.61381 0.63316 0.30051 0.0
O346 O 0.61013 0.52711 0.34969 0.0
C347 C 0.53634 0.44796 0.38332 0.0
C348 C 0.62864 0.58053 0.3272 0.0
O349 O 0.5206 0.63209 0.28472 0.0
Mg350 Mg 0.72961 0.565 0.32928 0.0
O351 O 0.72927 0.38815 0.36532 0.0
O352 O 0.6936 0.4151 0.409 0.0
Mg353 Mg 0.68667 0.62298 0.41077 0.0
C354 C 0.71351 0.34748 0.39174 0.0
C355 C 0.77509 0.45938 0.26688 0.0
O356 O 0.80044 0.39631 0.25506 0.0
O357 O 0.76762 0.68583 0.36086 0.0
O358 O 0.74275 0.61211 0.40509 0.0
O359 O 0.68044 0.50359 0.30582 0.0
O360 O 0.68328 0.63084 0.3513 0.0
C361 C 0.75749 0.70328 0.39165 0.0
C362 C 0.66523 0.56879 0.32897 0.0
O363 O 0.77187 0.46983 0.29988 0.0
Mg364 Mg 0.5461 0.565 0.9298 0.0
O365 O 0.54643 0.38815 0.89376 0.0
O366 O 0.5821 0.41511 0.85008 0.0
Mg367 Mg 0.58903 0.62299 0.84831 0.0
C368 C 0.56219 0.34748 0.86733 0.0
C369 C 0.50061 0.45939 0.99219 0.0
O370 O 0.47526 0.39631 1.00402 0.0
O371 O 0.50808 0.68583 0.89822 0.0
O372 O 0.53296 0.61211 0.85399 0.0
O373 O 0.59526 0.50357 0.95326 0.0
O374 O 0.59243 0.63084 0.90778 0.0
C375 C 0.51822 0.70328 0.86743 0.0
C376 C 0.61047 0.56876 0.9301 0.0
O377 O 0.50383 0.46983 0.9592 0.0
Mg378 Mg 0.71148 0.57662 0.93724 0.0
O379 O 0.71364 0.76354 0.90372 0.0
O380 O 0.68049 0.74034 0.85535 0.0
Mg381 Mg 0.66988 0.53604 0.85063 0.0
C382 C 0.69956 0.80605 0.87533 0.0
C383 C 0.76304 0.72334 0.99399 0.0
O384 O 0.7915 0.71898 0.01174 0.0
O385 O 0.74973 0.46363 0.90702 0.0
O386 O 0.72557 0.54087 0.86137 0.0
O387 O 0.6619 0.63314 0.95857 0.0
O388 O 0.66558 0.52712 0.90939 0.0
C389 C 0.73937 0.448 0.87575 0.0
C390 C 0.64706 0.58049 0.93188 0.0
O391 O 0.75511 0.6321 0.97436 0.0
Mg392 Mg 0.46148 0.3971 0.68724 0.0
O393 O 0.46364 0.2102 0.65372 0.0
O394 O 0.43049 0.23339 0.60535 0.0
Mg395 Mg 0.41988 0.43768 0.60064 0.0
C396 C 0.44957 0.16768 0.62533 0.0
C397 C 0.51304 0.25038 0.74399 0.0
O398 O 0.5415 0.25473 0.76174 0.0
O399 O 0.49973 0.51013 0.65703 0.0
O400 O 0.47558 0.43287 0.61138 0.0
O401 O 0.4119 0.34055 0.70857 0.0
O402 O 0.41558 0.4466 0.65939 0.0
C403 C 0.48937 0.52575 0.62576 0.0
C404 C 0.39706 0.39318 0.68187 0.0
O405 O 0.50511 0.34162 0.72436 0.0
Mg406 Mg 0.2961 0.40871 0.6798 0.0
O407 O 0.29643 0.58557 0.64376 0.0
O408 O 0.3321 0.55861 0.60008 0.0
Mg409 Mg 0.33903 0.35073 0.59831 0.0
C410 C 0.3122 0.62623 0.61733 0.0
C411 C 0.25061 0.51432 0.74219 0.0
O412 O 0.22526 0.57739 0.75402 0.0
O413 O 0.25808 0.28789 0.64822 0.0
O414 O 0.28296 0.36161 0.60399 0.0
O415 O 0.34527 0.47012 0.70326 0.0
O416 O 0.34243 0.34287 0.65778 0.0
C417 C 0.26822 0.27043 0.61743 0.0
C418 C 0.36047 0.40492 0.6801 0.0
O419 O 0.25383 0.50388 0.7092 0.0
Mg420 Mg 0.47961 0.4087 0.07927 0.0
O421 O 0.47928 0.58556 0.11532 0.0
O422 O 0.4436 0.55859 0.159 0.0
Mg423 Mg 0.43667 0.35071 0.16077 0.0
C424 C 0.46351 0.62622 0.14174 0.0
C425 C 0.52509 0.51432 0.01688 0.0
O426 O 0.55044 0.5774 0.00506 0.0
O427 O 0.51762 0.28788 0.11086 0.0
O428 O 0.49275 0.3616 0.15509 0.0
O429 O 0.43044 0.47013 0.05582 0.0
O430 O 0.43327 0.34287 0.1013 0.0
C431 C 0.50749 0.27042 0.14165 0.0
C432 C 0.41523 0.40495 0.07898 0.0
O433 O 0.52187 0.50388 0.04988 0.0
Mg434 Mg 0.31423 0.39708 0.07184 0.0
O435 O 0.31207 0.21017 0.10536 0.0
O436 O 0.34521 0.23337 0.15373 0.0
Mg437 Mg 0.35583 0.43767 0.15845 0.0
C438 C 0.32614 0.16766 0.13374 0.0
C439 C 0.26266 0.25037 0.01509 0.0
O440 O 0.2342 0.25472 0.99734 0.0
O441 O 0.27597 0.51008 0.10205 0.0
O442 O 0.30013 0.43284 0.1477 0.0
O443 O 0.36381 0.34057 0.05051 0.0
O444 O 0.36013 0.44659 0.09969 0.0
C445 C 0.28634 0.52571 0.13333 0.0
C446 C 0.37864 0.39322 0.0772 0.0
O447 O 0.2706 0.3416 0.03472 0.0
loop_
_geom_bond_atom_site_label_1
_geom_bond_atom_site_label_2
_geom_bond_distance
_geom_bond_site_symmetry_2
_ccdc_geom_bond_type
Mg0 O1 2.028 . S
Mg0 O7 1.986 1_545 S
Mg0 O9 2.114 . S
Mg0 O10 2.251 . S
Mg0 O13 2.010 . S
O1 Mg0 2.028 . S
O1 C4 1.250 . S
O2 Mg3 2.028 . S
O2 C4 1.248 . S
Mg3 O2 2.028 . S
Mg3 O8 2.032 1_545 S
Mg3 O10 2.079 . S
C4 O1 1.250 . S
C4 O2 1.248 . S
C5 O6 1.264 . S
C5 O13 1.249 . S
O6 C5 1.264 . S
O7 Mg0 1.986 1_565 S
O7 C11 1.246 . S
O8 Mg3 2.032 1_565 S
O8 C11 1.259 . S
O9 Mg0 2.114 . S
O9 C12 1.252 . S
O10 Mg0 2.251 . S
O10 Mg3 2.079 . S
O10 C12 1.273 . S
C11 O7 1.246 . S
C11 O8 1.259 . S
C12 O9 1.252 . S
C12 O10 1.273 . S
O13 Mg0 2.010 . S
O13 C5 1.249 . S
Mg14 O15 2.028 1_545 S
Mg14 O21 1.986 . S
Mg14 O23 2.114 . S
Mg14 O24 2.251 . S
Mg14 O27 2.010 . S
O15 Mg14 2.028 1_565 S
O15 C18 1.250 . S
O16 Mg17 2.028 1_565 S
O16 C18 1.248 . S
Mg17 O16 2.028 1_545 S
Mg17 O22 2.032 . S
Mg17 O24 2.079 . S
C18 O15 1.250 . S
C18 O16 1.248 . S
C19 O20 1.264 . S
C19 O27 1.249 . S
O20 C19 1.264 . S
O21 Mg14 1.986 . S
O21 C25 1.246 . S
O22 Mg17 2.032 . S
O22 C25 1.259 . S
O23 Mg14 2.114 . S
O23 C26 1.252 . S
O24 Mg14 2.251 . S
O24 Mg17 2.079 . S
O24 C26 1.273 . S
C25 O21 1.246 . S
C25 O22 1.259 . S
C26 O23 1.252 . S
C26 O24 1.273 . S
O27 Mg14 2.010 . S
O27 C19 1.249 . S
Mg28 O29 2.028 1_545 S
Mg28 O35 1.986 . S
Mg28 O37 2.114 . S
Mg28 O38 2.251 . S
Mg28 O41 2.010 . S
O29 Mg28 2.028 1_565 S
O29 C32 1.250 . S
O30 Mg31 2.028 1_565 S
O30 C32 1.248 . S
Mg31 O30 2.028 1_545 S
Mg31 O36 2.032 . S
Mg31 O38 2.079 . S
C32 O29 1.250 . S
C32 O30 1.248 . S
C33 O34 1.264 . S
C33 O41 1.249 1_554 S
O34 C33 1.264 . S
O35 Mg28 1.986 . S
O35 C39 1.246 . S
O36 Mg31 2.032 . S
O36 C39 1.259 . S
O37 Mg28 2.114 . S
O37 C40 1.252 . S
O38 Mg28 2.251 . S
O38 Mg31 2.079 . S
O38 C40 1.273 . S
C39 O35 1.246 . S
C39 O36 1.259 . S
C40 O37 1.252 . S
C40 O38 1.273 . S
O41 Mg28 2.010 . S
O41 C33 1.249 1_556 S
Mg42 O43 2.028 . S
Mg42 O49 1.986 1_545 S
Mg42 O51 2.114 . S
Mg42 O52 2.251 . S
Mg42 O55 2.010 . S
O43 Mg42 2.028 . S
O43 C46 1.250 . S
O44 Mg45 2.028 . S
O44 C46 1.248 . S
Mg45 O44 2.028 . S
Mg45 O50 2.032 1_545 S
Mg45 O52 2.079 . S
C46 O43 1.250 . S
C46 O44 1.248 . S
C47 O48 1.264 . S
C47 O55 1.249 1_554 S
O48 C47 1.264 . S
O49 Mg42 1.986 1_565 S
O49 C53 1.246 . S
O50 Mg45 2.032 1_565 S
O50 C53 1.259 . S
O51 Mg42 2.114 . S
O51 C54 1.252 . S
O52 Mg42 2.251 . S
O52 Mg45 2.079 . S
O52 C54 1.273 . S
C53 O49 1.246 . S
C53 O50 1.259 . S
C54 O51 1.252 . S
C54 O52 1.273 . S
O55 Mg42 2.010 . S
O55 C47 1.249 1_556 S
Mg56 O57 2.028 . S
Mg56 O63 1.986 1_565 S
Mg56 O65 2.114 . S
Mg56 O66 2.251 . S
Mg56 O69 2.010 . S
O57 Mg56 2.028 . S
O57 C60 1.250 . S
O58 Mg59 2.028 . S
O58 C60 1.248 . S
Mg59 O58 2.028 . S
Mg59 O64 2.032 1_565 S
Mg59 O66 2.079 . S
C60 O57 1.250 . S
C60 O58 1.248 . S
C61 O62 1.264 . S
C61 O69 1.249 . S
O62 C61 1.264 . S
O63 Mg56 1.986 1_545 S
O63 C67 1.246 . S
O64 Mg59 2.032 1_545 S
O64 C67 1.259 . S
O65 Mg56 2.114 . S
O65 C68 1.252 . S
O66 Mg56 2.251 . S
O66 Mg59 2.079 . S
O66 C68 1.273 . S
C67 O63 1.246 . S
C67 O64 1.259 . S
C68 O65 1.252 . S
C68 O66 1.273 . S
O69 Mg56 2.010 . S
O69 C61 1.249 . S
Mg70 O71 2.028 1_565 S
Mg70 O77 1.986 . S
Mg70 O79 2.114 . S
Mg70 O80 2.251 . S
Mg70 O83 2.010 . S
O71 Mg70 2.028 1_545 S
O71 C74 1.250 . S
O72 Mg73 2.028 1_545 S
O72 C74 1.248 . S
Mg73 O72 2.028 1_565 S
Mg73 O78 2.032 . S
Mg73 O80 2.079 . S
C74 O71 1.250 . S
C74 O72 1.248 . S
C75 O76 1.264 . S
C75 O83 1.249 . S
O76 C75 1.264 . S
O77 Mg70 1.986 . S
O77 C81 1.246 . S
O78 Mg73 2.032 . S
O78 C81 1.259 . S
O79 Mg70 2.114 . S
O79 C82 1.252 . S
O80 Mg70 2.251 . S
O80 Mg73 2.079 . S
O80 C82 1.273 . S
C81 O77 1.246 . S
C81 O78 1.259 . S
C82 O79 1.252 . S
C82 O80 1.273 . S
O83 Mg70 2.010 . S
O83 C75 1.249 . S
Mg84 O85 2.028 1_565 S
Mg84 O91 1.986 . S
Mg84 O93 2.114 . S
Mg84 O94 2.251 . S
Mg84 O97 2.010 . S
O85 Mg84 2.028 1_545 S
O85 C88 1.250 . S
O86 Mg87 2.028 1_545 S
O86 C88 1.248 . S
Mg87 O86 2.028 1_565 S
Mg87 O92 2.032 . S
Mg87 O94 2.079 . S
C88 O85 1.250 . S
C88 O86 1.248 . S
C89 O90 1.264 . S
C89 O97 1.249 1_556 S
O90 C89 1.264 . S
O91 Mg84 1.986 . S
O91 C95 1.246 . S
O92 Mg87 2.032 . S
O92 C95 1.259 . S
O93 Mg84 2.114 . S
O93 C96 1.252 . S
O94 Mg84 2.251 . S
O94 Mg87 2.079 . S
O94 C96 1.273 . S
C95 O91 1.246 . S
C95 O92 1.259 . S
C96 O93 1.252 . S
C96 O94 1.273 . S
O97 Mg84 2.010 . S
O97 C89 1.249 1_554 S
Mg98 O99 2.028 . S
Mg98 O105 1.986 1_565 S
Mg98 O107 2.114 . S
Mg98 O108 2.251 . S
Mg98 O111 2.010 . S
O99 Mg98 2.028 . S
O99 C102 1.250 . S
O100 Mg101 2.028 . S
O100 C102 1.248 . S
Mg101 O100 2.028 . S
Mg101 O106 2.032 1_565 S
Mg101 O108 2.079 . S
C102 O99 1.250 . S
C102 O100 1.248 . S
C103 O104 1.264 . S
C103 O111 1.249 1_556 S
O104 C103 1.264 . S
O105 Mg98 1.986 1_545 S
O105 C109 1.246 . S
O106 Mg101 2.032 1_545 S
O106 C109 1.259 . S
O107 Mg98 2.114 . S
O107 C110 1.252 . S
O108 Mg98 2.251 . S
O108 Mg101 2.079 . S
O108 C110 1.273 . S
C109 O105 1.246 . S
C109 O106 1.259 . S
C110 O107 1.252 . S
C110 O108 1.273 . S
O111 Mg98 2.010 . S
O111 C103 1.249 1_554 S
Mg112 O113 2.028 . S
Mg112 O119 1.986 . S
Mg112 O121 2.114 . S
Mg112 O122 2.251 . S
Mg112 O125 2.010 . S
O113 Mg112 2.028 . S
O113 C116 1.250 . S
O114 Mg115 2.028 . S
O114 C116 1.248 . S
Mg115 O114 2.028 . S
Mg115 O120 2.032 . S
Mg115 O122 2.079 . S
C116 O113 1.250 . S
C116 O114 1.248 . S
C117 O118 1.264 . S
C117 O125 1.249 . S
O118 C117 1.264 . S
O119 Mg112 1.986 . S
O119 C123 1.246 . S
O120 Mg115 2.032 . S
O120 C123 1.259 . S
O121 Mg112 2.114 . S
O121 C124 1.252 . S
O122 Mg112 2.251 . S
O122 Mg115 2.079 . S
O122 C124 1.273 . S
C123 O119 1.246 . S
C123 O120 1.259 . S
C124 O121 1.252 . S
C124 O122 1.273 . S
O125 Mg112 2.010 . S
O125 C117 1.249 . S
Mg126 O127 2.028 . S
Mg126 O133 1.986 . S
Mg126 O135 2.114 . S
Mg126 O136 2.251 . S
Mg126 O139 2.010 . S
O127 Mg126 2.028 . S
O127 C130 1.250 . S
O128 Mg129 2.028 . S
O128 C130 1.248 . S
Mg129 O128 2.028 . S
Mg129 O134 2.032 . S
Mg129 O136 2.079 . S
C130 O127 1.250 . S
C130 O128 1.248 . S
C131 O132 1.264 . S
C131 O139 1.249 . S
O132 C131 1.264 . S
O133 Mg126 1.986 . S
O133 C137 1.246 . S
O134 Mg129 2.032 . S
O134 C137 1.259 . S
O135 Mg126 2.114 . S
O135 C138 1.252 . S
O136 Mg126 2.251 . S
O136 Mg129 2.079 . S
O136 C138 1.273 . S
C137 O133 1.246 . S
C137 O134 1.259 . S
C138 O135 1.252 . S
C138 O136 1.273 . S
O139 Mg126 2.010 . S
O139 C131 1.249 . S
Mg140 O141 2.028 . S
Mg140 O147 1.986 . S
Mg140 O149 2.114 . S
Mg140 O150 2.251 . S
Mg140 O153 2.010 . S
O141 Mg140 2.028 . S
O141 C144 1.250 . S
O142 Mg143 2.028 . S
O142 C144 1.248 . S
Mg143 O142 2.028 . S
Mg143 O148 2.032 . S
Mg143 O150 2.079 . S
C144 O141 1.250 . S
C144 O142 1.248 . S
C145 O146 1.264 . S
C145 O153 1.249 . S
O146 C145 1.264 . S
O147 Mg140 1.986 . S
O147 C151 1.246 . S
O148 Mg143 2.032 . S
O148 C151 1.259 . S
O149 Mg140 2.114 . S
O149 C152 1.252 . S
O150 Mg140 2.251 . S
O150 Mg143 2.079 . S
O150 C152 1.273 . S
C151 O147 1.246 . S
C151 O148 1.259 . S
C152 O149 1.252 . S
C152 O150 1.273 . S
O153 Mg140 2.010 . S
O153 C145 1.249 . S
Mg154 O155 2.028 . S
Mg154 O161 1.986 . S
Mg154 O163 2.114 . S
Mg154 O164 2.251 . S
Mg154 O167 2.010 . S
O155 Mg154 2.028 . S
O155 C158 1.250 . S
O156 Mg157 2.028 . S
O156 C158 1.248 . S
Mg157 O156 2.028 . S
Mg157 O162 2.032 . S
Mg157 O164 2.079 . S
C158 O155 1.250 . S
C158 O156 1.248 . S
C159 O160 1.264 . S
C159 O167 1.249 . S
O160 C159 1.264 . S
O161 Mg154 1.986 . S
O161 C165 1.246 . S
O162 Mg157 2.032 . S
O162 C165 1.259 . S
O163 Mg154 2.114 . S
O163 C166 1.252 . S
O164 Mg154 2.251 . S
O164 Mg157 2.079 . S
O164 C166 1.273 . S
C165 O161 1.246 . S
C165 O162 1.259 . S
C166 O163 1.252 . S
C166 O164 1.273 . S
O167 Mg154 2.010 . S
O167 C159 1.249 . S
Mg168 O169 2.028 . S
Mg168 O175 1.986 . S
Mg168 O177 2.114 . S
Mg168 O178 2.251 . S
Mg168 O181 2.010 . S
O169 Mg168 2.028 . S
O169 C172 1.250 . S
O170 Mg171 2.028 . S
O170 C172 1.248 . S
Mg171 O170 2.028 . S
Mg171 O176 2.032 . S
Mg171 O178 2.079 . S
C172 O169 1.250 . S
C172 O170 1.248 . S
C173 O174 1.264 . S
C173 O181 1.249 . S
O174 C173 1.264 . S
O175 Mg168 1.986 . S
O175 C179 1.246 . S
O176 Mg171 2.032 . S
O176 C179 1.259 . S
O177 Mg168 2.114 . S
O177 C180 1.252 . S
O178 Mg168 2.251 . S
O178 Mg171 2.079 . S
O178 C180 1.273 . S
C179 O175 1.246 . S
C179 O176 1.259 . S
C180 O177 1.252 . S
C180 O178 1.273 . S
O181 Mg168 2.010 . S
O181 C173 1.249 . S
Mg182 O183 2.028 . S
Mg182 O189 1.986 . S
Mg182 O191 2.114 . S
Mg182 O192 2.251 . S
Mg182 O195 2.010 . S
O183 Mg182 2.028 . S
O183 C186 1.250 . S
O184 Mg185 2.028 . S
O184 C186 1.248 . S
Mg185 O184 2.028 . S
Mg185 O190 2.032 . S
Mg185 O192 2.079 . S
C186 O183 1.250 . S
C186 O184 1.248 . S
C187 O188 1.264 . S
C187 O195 1.249 . S
O188 C187 1.264 . S
O189 Mg182 1.986 . S
O189 C193 1.246 . S
O190 Mg185 2.032 . S
O190 C193 1.259 . S
O191 Mg182 2.114 . S
O191 C194 1.252 . S
O192 Mg182 2.251 . S
O192 Mg185 2.079 . S
O192 C194 1.273 . S
C193 O189 1.246 . S
C193 O190 1.259 . S
C194 O191 1.252 . S
C194 O192 1.273 . S
O195 Mg182 2.010 . S
O195 C187 1.249 . S
Mg196 O197 2.028 . S
Mg196 O203 1.986 . S
Mg196 O205 2.114 . S
Mg196 O206 2.251 . S
Mg196 O209 2.010 . S
O197 Mg196 2.028 . S
O197 C200 1.250 . S
O198 Mg199 2.028 . S
O198 C200 1.248 . S
Mg199 O198 2.028 . S
Mg199 O204 2.032 . S
Mg199 O206 2.079 . S
C200 O197 1.250 . S
C200 O198 1.248 . S
C201 O202 1.264 . S
C201 O209 1.249 . S
O202 C201 1.264 . S
O203 Mg196 1.986 . S
O203 C207 1.246 . S
O204 Mg199 2.032 . S
O204 C207 1.259 . S
O205 Mg196 2.114 . S
O205 C208 1.252 . S
O206 Mg196 2.251 . S
O206 Mg199 2.079 . S
O206 C208 1.273 . S
C207 O203 1.246 . S
C207 O204 1.259 . S
C208 O205 1.252 . S
C208 O206 1.273 . S
O209 Mg196 2.010 . S
O209 C201 1.249 . S
Mg210 O211 2.028 . S
Mg210 O217 1.986 . S
Mg210 O219 2.114 . S
Mg210 O220 2.251 . S
Mg210 O223 2.010 . S
O211 Mg210 2.028 . S
O211 C214 1.250 . S
O212 Mg213 2.028 . S
O212 C214 1.248 . S
Mg213 O212 2.028 . S
Mg213 O218 2.032 . S
Mg213 O220 2.079 . S
C214 O211 1.250 . S
C214 O212 1.248 . S
C215 O216 1.264 . S
C215 O223 1.249 . S
O216 C215 1.264 . S
O217 Mg210 1.986 . S
O217 C221 1.246 . S
O218 Mg213 2.032 . S
O218 C221 1.259 . S
O219 Mg210 2.114 . S
O219 C222 1.252 . S
O220 Mg210 2.251 . S
O220 Mg213 2.079 . S
O220 C222 1.273 . S
C221 O217 1.246 . S
C221 O218 1.259 . S
C222 O219 1.252 . S
C222 O220 1.273 . S
O223 Mg210 2.010 . S
O223 C215 1.249 . S
Mg224 O225 2.028 . S
Mg224 O231 1.986 1_545 S
Mg224 O233 2.114 . S
Mg224 O234 2.251 . S
Mg224 O237 2.010 . S
O225 Mg224 2.028 . S
O225 C228 1.250 . S
O226 Mg227 2.028 . S
O226 C228 1.248 . S
Mg227 O226 2.028 . S
Mg227 O232 2.032 1_545 S
Mg227 O234 2.079 . S
C228 O225 1.250 . S
C228 O226 1.248 . S
C229 O230 1.264 . S
C229 O237 1.249 . S
O230 C229 1.264 . S
O231 Mg224 1.986 1_565 S
O231 C235 1.246 . S
O232 Mg227 2.032 1_565 S
O232 C235 1.259 . S
O233 Mg224 2.114 . S
O233 C236 1.252 . S
O234 Mg224 2.251 . S
O234 Mg227 2.079 . S
O234 C236 1.273 . S
C235 O231 1.246 . S
C235 O232 1.259 . S
C236 O233 1.252 . S
C236 O234 1.273 . S
O237 Mg224 2.010 . S
O237 C229 1.249 . S
Mg238 O239 2.028 1_545 S
Mg238 O245 1.986 . S
Mg238 O247 2.114 . S
Mg238 O248 2.251 . S
Mg238 O251 2.010 . S
O239 Mg238 2.028 1_565 S
O239 C242 1.250 . S
O240 Mg241 2.028 1_565 S
O240 C242 1.248 . S
Mg241 O240 2.028 1_545 S
Mg241 O246 2.032 . S
Mg241 O248 2.079 . S
C242 O239 1.250 . S
C242 O240 1.248 . S
C243 O244 1.264 . S
C243 O251 1.249 . S
O244 C243 1.264 . S
O245 Mg238 1.986 . S
O245 C249 1.246 . S
O246 Mg241 2.032 . S
O246 C249 1.259 . S
O247 Mg238 2.114 . S
O247 C250 1.252 . S
O248 Mg238 2.251 . S
O248 Mg241 2.079 . S
O248 C250 1.273 . S
C249 O245 1.246 . S
C249 O246 1.259 . S
C250 O247 1.252 . S
C250 O248 1.273 . S
O251 Mg238 2.010 . S
O251 C243 1.249 . S
Mg252 O253 2.028 1_545 S
Mg252 O259 1.986 . S
Mg252 O261 2.114 . S
Mg252 O262 2.251 . S
Mg252 O265 2.010 . S
O253 Mg252 2.028 1_565 S
O253 C256 1.250 . S
O254 Mg255 2.028 1_565 S
O254 C256 1.248 . S
Mg255 O254 2.028 1_545 S
Mg255 O260 2.032 . S
Mg255 O262 2.079 . S
C256 O253 1.250 . S
C256 O254 1.248 . S
C257 O258 1.264 . S
C257 O265 1.249 . S
O258 C257 1.264 . S
O259 Mg252 1.986 . S
O259 C263 1.246 . S
O260 Mg255 2.032 . S
O260 C263 1.259 . S
O261 Mg252 2.114 . S
O261 C264 1.252 . S
O262 Mg252 2.251 . S
O262 Mg255 2.079 . S
O262 C264 1.273 . S
C263 O259 1.246 . S
C263 O260 1.259 . S
C264 O261 1.252 . S
C264 O262 1.273 . S
O265 Mg252 2.010 . S
O265 C257 1.249 . S
Mg266 O267 2.028 . S
Mg266 O273 1.986 1_545 S
Mg266 O275 2.114 . S
Mg266 O276 2.251 . S
Mg266 O279 2.010 . S
O267 Mg266 2.028 . S
O267 C270 1.250 . S
O268 Mg269 2.028 . S
O268 C270 1.248 . S
Mg269 O268 2.028 . S
Mg269 O274 2.032 1_545 S
Mg269 O276 2.079 . S
C270 O267 1.250 . S
C270 O268 1.248 . S
C271 O272 1.264 . S
C271 O279 1.249 . S
O272 C271 1.264 . S
O273 Mg266 1.986 1_565 S
O273 C277 1.246 . S
O274 Mg269 2.032 1_565 S
O274 C277 1.259 . S
O275 Mg266 2.114 . S
O275 C278 1.252 . S
O276 Mg266 2.251 . S
O276 Mg269 2.079 . S
O276 C278 1.273 . S
C277 O273 1.246 . S
C277 O274 1.259 . S
C278 O275 1.252 . S
C278 O276 1.273 . S
O279 Mg266 2.010 . S
O279 C271 1.249 . S
Mg280 O281 2.028 . S
Mg280 O287 1.986 1_565 S
Mg280 O289 2.114 . S
Mg280 O290 2.251 . S
Mg280 O293 2.010 . S
O281 Mg280 2.028 . S
O281 C284 1.250 . S
O282 Mg283 2.028 . S
O282 C284 1.248 . S
Mg283 O282 2.028 . S
Mg283 O288 2.032 1_565 S
Mg283 O290 2.079 . S
C284 O281 1.250 . S
C284 O282 1.248 . S
C285 O286 1.264 . S
C285 O293 1.249 . S
O286 C285 1.264 . S
O287 Mg280 1.986 1_545 S
O287 C291 1.246 . S
O288 Mg283 2.032 1_545 S
O288 C291 1.259 . S
O289 Mg280 2.114 . S
O289 C292 1.252 . S
O290 Mg280 2.251 . S
O290 Mg283 2.079 . S
O290 C292 1.273 . S
C291 O287 1.246 . S
C291 O288 1.259 . S
C292 O289 1.252 . S
C292 O290 1.273 . S
O293 Mg280 2.010 . S
O293 C285 1.249 . S
Mg294 O295 2.028 1_565 S
Mg294 O301 1.986 . S
Mg294 O303 2.114 . S
Mg294 O304 2.251 . S
Mg294 O307 2.010 . S
O295 Mg294 2.028 1_545 S
O295 C298 1.250 . S
O296 Mg297 2.028 1_545 S
O296 C298 1.248 . S
Mg297 O296 2.028 1_565 S
Mg297 O302 2.032 . S
Mg297 O304 2.079 . S
C298 O295 1.250 . S
C298 O296 1.248 . S
C299 O300 1.264 . S
C299 O307 1.249 . S
O300 C299 1.264 . S
O301 Mg294 1.986 . S
O301 C305 1.246 . S
O302 Mg297 2.032 . S
O302 C305 1.259 . S
O303 Mg294 2.114 . S
O303 C306 1.252 . S
O304 Mg294 2.251 . S
O304 Mg297 2.079 . S
O304 C306 1.273 . S
C305 O301 1.246 . S
C305 O302 1.259 . S
C306 O303 1.252 . S
C306 O304 1.273 . S
O307 Mg294 2.010 . S
O307 C299 1.249 . S
Mg308 O309 2.028 1_565 S
Mg308 O315 1.986 . S
Mg308 O317 2.114 . S
Mg308 O318 2.251 . S
Mg308 O321 2.010 . S
O309 Mg308 2.028 1_545 S
O309 C312 1.250 . S
O310 Mg311 2.028 1_545 S
O310 C312 1.248 . S
Mg311 O310 2.028 1_565 S
Mg311 O316 2.032 . S
Mg311 O318 2.079 . S
C312 O309 1.250 . S
C312 O310 1.248 . S
C313 O314 1.264 . S
C313 O321 1.249 . S
O314 C313 1.264 . S
O315 Mg308 1.986 . S
O315 C319 1.246 . S
O316 Mg311 2.032 . S
O316 C319 1.259 . S
O317 Mg308 2.114 . S
O317 C320 1.252 . S
O318 Mg308 2.251 . S
O318 Mg311 2.079 . S
O318 C320 1.273 . S
C319 O315 1.246 . S
C319 O316 1.259 . S
C320 O317 1.252 . S
C320 O318 1.273 . S
O321 Mg308 2.010 . S
O321 C313 1.249 . S
Mg322 O323 2.028 . S
Mg322 O329 1.986 1_565 S
Mg322 O331 2.114 . S
Mg322 O332 2.251 . S
Mg322 O335 2.010 . S
O323 Mg322 2.028 . S
O323 C326 1.250 . S
O324 Mg325 2.028 . S
O324 C326 1.248 . S
Mg325 O324 2.028 . S
Mg325 O330 2.032 1_565 S
Mg325 O332 2.079 . S
C326 O323 1.250 . S
C326 O324 1.248 . S
C327 O328 1.264 . S
C327 O335 1.249 . S
O328 C327 1.264 . S
O329 Mg322 1.986 1_545 S
O329 C333 1.246 . S
O330 Mg325 2.032 1_545 S
O330 C333 1.259 . S
O331 Mg322 2.114 . S
O331 C334 1.252 . S
O332 Mg322 2.251 . S
O332 Mg325 2.079 . S
O332 C334 1.273 . S
C333 O329 1.246 . S
C333 O330 1.259 . S
C334 O331 1.252 . S
C334 O332 1.273 . S
O335 Mg322 2.010 . S
O335 C327 1.249 . S
Mg336 O337 2.028 . S
Mg336 O343 1.986 . S
Mg336 O345 2.114 . S
Mg336 O346 2.251 . S
Mg336 O349 2.010 . S
O337 Mg336 2.028 . S
O337 C340 1.250 . S
O338 Mg339 2.028 . S
O338 C340 1.248 . S
Mg339 O338 2.028 . S
Mg339 O344 2.032 . S
Mg339 O346 2.079 . S
C340 O337 1.250 . S
C340 O338 1.248 . S
C341 O342 1.264 . S
C341 O349 1.249 . S
O342 C341 1.264 . S
O343 Mg336 1.986 . S
O343 C347 1.246 . S
O344 Mg339 2.032 . S
O344 C347 1.259 . S
O345 Mg336 2.114 . S
O345 C348 1.252 . S
O346 Mg336 2.251 . S
O346 Mg339 2.079 . S
O346 C348 1.273 . S
C347 O343 1.246 . S
C347 O344 1.259 . S
C348 O345 1.252 . S
C348 O346 1.273 . S
O349 Mg336 2.010 . S
O349 C341 1.249 . S
Mg350 O351 2.028 . S
Mg350 O357 1.986 . S
Mg350 O359 2.114 . S
Mg350 O360 2.251 . S
Mg350 O363 2.010 . S
O351 Mg350 2.028 . S
O351 C354 1.250 . S
O352 Mg353 2.028 . S
O352 C354 1.248 . S
Mg353 O352 2.028 . S
Mg353 O358 2.032 . S
Mg353 O360 2.079 . S
C354 O351 1.250 . S
C354 O352 1.248 . S
C355 O356 1.264 . S
C355 O363 1.249 . S
O356 C355 1.264 . S
O357 Mg350 1.986 . S
O357 C361 1.246 . S
O358 Mg353 2.032 . S
O358 C361 1.259 . S
O359 Mg350 2.114 . S
O359 C362 1.252 . S
O360 Mg350 2.251 . S
O360 Mg353 2.079 . S
O360 C362 1.273 . S
C361 O357 1.246 . S
C361 O358 1.259 . S
C362 O359 1.252 . S
C362 O360 1.273 . S
O363 Mg350 2.010 . S
O363 C355 1.249 . S
Mg364 O365 2.028 . S
Mg364 O371 1.986 . S
Mg364 O373 2.114 . S
Mg364 O374 2.251 . S
Mg364 O377 2.010 . S
O365 Mg364 2.028 . S
O365 C368 1.250 . S
O366 Mg367 2.028 . S
O366 C368 1.248 . S
Mg367 O366 2.028 . S
Mg367 O372 2.032 . S
Mg367 O374 2.079 . S
C368 O365 1.250 . S
C368 O366 1.248 . S
C369 O370 1.264 . S
C369 O377 1.249 1_554 S
O370 C369 1.264 . S
O371 Mg364 1.986 . S
O371 C375 1.246 . S
O372 Mg367 2.032 . S
O372 C375 1.259 . S
O373 Mg364 2.114 . S
O373 C376 1.252 . S
O374 Mg364 2.251 . S
O374 Mg367 2.079 . S
O374 C376 1.273 . S
C375 O371 1.246 . S
C375 O372 1.259 . S
C376 O373 1.252 . S
C376 O374 1.273 . S
O377 Mg364 2.010 . S
O377 C369 1.249 1_556 S
Mg378 O379 2.028 . S
Mg378 O385 1.986 . S
Mg378 O387 2.114 . S
Mg378 O388 2.251 . S
Mg378 O391 2.010 . S
O379 Mg378 2.028 . S
O379 C382 1.250 . S
O380 Mg381 2.028 . S
O380 C382 1.248 . S
Mg381 O380 2.028 . S
Mg381 O386 2.032 . S
Mg381 O388 2.079 . S
C382 O379 1.250 . S
C382 O380 1.248 . S
C383 O384 1.264 . S
C383 O391 1.249 1_554 S
O384 C383 1.264 . S
O385 Mg378 1.986 . S
O385 C389 1.246 . S
O386 Mg381 2.032 . S
O386 C389 1.259 . S
O387 Mg378 2.114 . S
O387 C390 1.252 . S
O388 Mg378 2.251 . S
O388 Mg381 2.079 . S
O388 C390 1.273 . S
C389 O385 1.246 . S
C389 O386 1.259 . S
C390 O387 1.252 . S
C390 O388 1.273 . S
O391 Mg378 2.010 . S
O391 C383 1.249 1_556 S
Mg392 O393 2.028 . S
Mg392 O399 1.986 . S
Mg392 O401 2.114 . S
Mg392 O402 2.251 . S
Mg392 O405 2.010 . S
O393 Mg392 2.028 . S
O393 C396 1.250 . S
O394 Mg395 2.028 . S
O394 C396 1.248 . S
Mg395 O394 2.028 . S
Mg395 O400 2.032 . S
Mg395 O402 2.079 . S
C396 O393 1.250 . S
C396 O394 1.248 . S
C397 O398 1.264 . S
C397 O405 1.249 . S
O398 C397 1.264 . S
O399 Mg392 1.986 . S
O399 C403 1.246 . S
O400 Mg395 2.032 . S
O400 C403 1.259 . S
O401 Mg392 2.114 . S
O401 C404 1.252 . S
O402 Mg392 2.251 . S
O402 Mg395 2.079 . S
O402 C404 1.273 . S
C403 O399 1.246 . S
C403 O400 1.259 . S
C404 O401 1.252 . S
C404 O402 1.273 . S
O405 Mg392 2.010 . S
O405 C397 1.249 . S
Mg406 O407 2.028 . S
Mg406 O413 1.986 . S
Mg406 O415 2.114 . S
Mg406 O416 2.251 . S
Mg406 O419 2.010 . S
O407 Mg406 2.028 . S
O407 C410 1.250 . S
O408 Mg409 2.028 . S
O408 C410 1.248 . S
Mg409 O408 2.028 . S
Mg409 O414 2.032 . S
Mg409 O416 2.079 . S
C410 O407 1.250 . S
C410 O408 1.248 . S
C411 O412 1.264 . S
C411 O419 1.249 . S
O412 C411 1.264 . S
O413 Mg406 1.986 . S
O413 C417 1.246 . S
O414 Mg409 2.032 . S
O414 C417 1.259 . S
O415 Mg406 2.114 . S
O415 C418 1.252 . S
O416 Mg406 2.251 . S
O416 Mg409 2.079 . S
O416 C418 1.273 . S
C417 O413 1.246 . S
C417 O414 1.259 . S
C418 O415 1.252 . S
C418 O416 1.273 . S
O419 Mg406 2.010 . S
O419 C411 1.249 . S
Mg420 O421 2.028 . S
Mg420 O427 1.986 . S
Mg420 O429 2.114 . S
Mg420 O430 2.251 . S
Mg420 O433 2.010 . S
O421 Mg420 2.028 . S
O421 C424 1.250 . S
O422 Mg423 2.028 . S
O422 C424 1.248 . S
Mg423 O422 2.028 . S
Mg423 O428 2.032 . S
Mg423 O430 2.079 . S
C424 O421 1.250 . S
C424 O422 1.248 . S
C425 O426 1.264 . S
C425 O433 1.249 1_556 S
O426 C425 1.264 . S
O427 Mg420 1.986 . S
O427 C431 1.246 . S
O428 Mg423 2.032 . S
O428 C431 1.259 . S
O429 Mg420 2.114 . S
O429 C432 1.252 . S
O430 Mg420 2.251 . S
O430 Mg423 2.079 . S
O430 C432 1.273 . S
C431 O427 1.246 . S
C431 O428 1.259 . S
C432 O429 1.252 . S
C432 O430 1.273 . S
O433 Mg420 2.010 . S
O433 C425 1.249 1_554 S
Mg434 O435 2.028 . S
Mg434 O441 1.986 . S
Mg434 O443 2.114 . S
Mg434 O444 2.251 . S
Mg434 O447 2.010 . S
O435 Mg434 2.028 . S
O435 C438 1.250 . S
O436 Mg437 2.028 . S
O436 C438 1.248 . S
Mg437 O436 2.028 . S
Mg437 O442 2.032 . S
Mg437 O444 2.079 . S
C438 O435 1.250 . S
C438 O436 1.248 . S
C439 O440 1.264 . S
C439 O447 1.249 1_556 S
O440 C439 1.264 . S
O441 Mg434 1.986 . S
O441 C445 1.246 . S
O442 Mg437 2.032 . S
O442 C445 1.259 . S
O443 Mg434 2.114 . S
O443 C446 1.252 . S
O444 Mg434 2.251 . S
O444 Mg437 2.079 . S
O444 C446 1.273 . S
C445 O441 1.246 . S
C445 O442 1.259 . S
C446 O443 1.252 . S
C446 O444 1.273 . S
O447 Mg434 2.010 . S
O447 C439 1.249 1_554 S
C12 C26 1.549 . S
C54 C40 1.549 . S
C68 C82 1.549 . S
C96 C110 1.549 . S
C124 C138 1.549 . S
C152 C166 1.549 . S
C180 C194 1.549 . S
C208 C222 1.549 . S
C250 C236 1.549 . S
C278 C264 1.549 . S
C306 C292 1.549 . S
C334 C320 1.549 . S
C362 C348 1.549 . S
C390 C376 1.549 . S
C418 C404 1.549 . S
C446 C432 1.549 . S
C5 C173 1.838 1_455 S
C19 C299 1.838 1_545 S
C33 C89 1.838 1_444 S
C47 C439 1.838 1_554 S
C61 C117 1.838 1_655 S
C243 C75 1.838 1_545 S
C383 C103 1.838 1_554 S
C131 C411 1.838 . S
C145 C201 1.838 1_455 S
C159 C327 1.838 . S
C187 C355 1.838 . S
C215 C271 1.838 . S
C397 C229 1.838 . S
C313 C257 1.838 1_565 S
C285 C341 1.838 . S
C425 C369 1.838 1_556 S
C144 C4 1.452 . S
C158 C18 1.452 . S
C32 C116 1.452 . S
C130 C46 1.452 . S
C60 C200 1.452 . S
C74 C214 1.452 . S
C172 C88 1.452 . S
C186 C102 1.452 . S
C228 C368 1.452 . S
C382 C242 1.452 . S
C340 C256 1.452 . S
C270 C354 1.452 . S
C424 C284 1.452 . S
C298 C438 1.452 . S
C396 C312 1.452 . S
C410 C326 1.452 . S
C151 C11 1.123 . S
C165 C25 1.123 . S
C123 C39 1.123 . S
C53 C137 1.123 . S
C207 C67 1.123 . S
C221 C81 1.123 . S
C179 C95 1.123 . S
C193 C109 1.123 . S
C375 C235 1.123 . S
C389 C249 1.123 . S
C347 C263 1.123 . S
C277 C361 1.123 . S
C431 C291 1.123 . S
C305 C445 1.123 . S
C403 C319 1.123 . S
C333 C417 1.123 . S
