# Generated by pormake.
# Topology lcv-e, (6)-cn, num edge types: 1
# Building blocks:
#     Node 0, Type 0, BuildingBlock: OJICUG_clean_sbu_0, # of connection points: 6
#     Node 1, Type 0, BuildingBlock: OJICUG_clean_sbu_0, # of connection points: 6
#     Node 2, Type 0, BuildingBlock: OJICUG_clean_sbu_0, # of connection points: 6
#     Node 3, Type 0, BuildingBlock: OJICUG_clean_sbu_0, # of connection points: 6
#     Node 4, Type 0, BuildingBlock: OJICUG_clean_sbu_0, # of connection points: 6
#     Node 5, Type 0, BuildingBlock: OJICUG_clean_sbu_0, # of connection points: 6
#     Node 6, Type 0, BuildingBlock: OJICUG_clean_sbu_0, # of connection points: 6
#     Node 7, Type 0, BuildingBlock: OJICUG_clean_sbu_0, # of connection points: 6
#     Node 8, Type 0, BuildingBlock: OJICUG_clean_sbu_0, # of connection points: 6
#     Node 9, Type 0, BuildingBlock: OJICUG_clean_sbu_0, # of connection points: 6
#     Node 10, Type 0, BuildingBlock: OJICUG_clean_sbu_0, # of connection points: 6
#     Node 11, Type 0, BuildingBlock: OJICUG_clean_sbu_0, # of connection points: 6
#     Node 12, Type 0, BuildingBlock: OJICUG_clean_sbu_0, # of connection points: 6
#     Node 13, Type 0, BuildingBlock: OJICUG_clean_sbu_0, # of connection points: 6
#     Node 14, Type 0, BuildingBlock: OJICUG_clean_sbu_0, # of connection points: 6
#     Node 15, Type 0, BuildingBlock: OJICUG_clean_sbu_0, # of connection points: 6
#     Node 16, Type 0, BuildingBlock: OJICUG_clean_sbu_0, # of connection points: 6
#     Node 17, Type 0, BuildingBlock: OJICUG_clean_sbu_0, # of connection points: 6
#     Node 18, Type 0, BuildingBlock: OJICUG_clean_sbu_0, # of connection points: 6
#     Node 19, Type 0, BuildingBlock: OJICUG_clean_sbu_0, # of connection points: 6
#     Node 20, Type 0, BuildingBlock: OJICUG_clean_sbu_0, # of connection points: 6
#     Node 21, Type 0, BuildingBlock: OJICUG_clean_sbu_0, # of connection points: 6
#     Node 22, Type 0, BuildingBlock: OJICUG_clean_sbu_0, # of connection points: 6
#     Node 23, Type 0, BuildingBlock: OJICUG_clean_sbu_0, # of connection points: 6
#     Edge 24, Type (0, 0), None
#     Edge 25, Type (0, 0), None
#     Edge 26, Type (0, 0), None
#     Edge 27, Type (0, 0), None
#     Edge 28, Type (0, 0), None
#     Edge 29, Type (0, 0), None
#     Edge 30, Type (0, 0), None
#     Edge 31, Type (0, 0), None
#     Edge 32, Type (0, 0), None
#     Edge 33, Type (0, 0), None
#     Edge 34, Type (0, 0), None
#     Edge 35, Type (0, 0), None
#     Edge 36, Type (0, 0), None
#     Edge 37, Type (0, 0), None
#     Edge 38, Type (0, 0), None
#     Edge 39, Type (0, 0), None
#     Edge 40, Type (0, 0), None
#     Edge 41, Type (0, 0), None
#     Edge 42, Type (0, 0), None
#     Edge 43, Type (0, 0), None
#     Edge 44, Type (0, 0), None
#     Edge 45, Type (0, 0), None
#     Edge 46, Type (0, 0), None
#     Edge 47, Type (0, 0), None
#     Edge 48, Type (0, 0), None
#     Edge 49, Type (0, 0), None
#     Edge 50, Type (0, 0), None
#     Edge 51, Type (0, 0), None
#     Edge 52, Type (0, 0), None
#     Edge 53, Type (0, 0), None
#     Edge 54, Type (0, 0), None
#     Edge 55, Type (0, 0), None
#     Edge 56, Type (0, 0), None
#     Edge 57, Type (0, 0), None
#     Edge 58, Type (0, 0), None
#     Edge 59, Type (0, 0), None
#     Edge 60, Type (0, 0), None
#     Edge 61, Type (0, 0), None
#     Edge 62, Type (0, 0), None
#     Edge 63, Type (0, 0), None
#     Edge 64, Type (0, 0), None
#     Edge 65, Type (0, 0), None
#     Edge 66, Type (0, 0), None
#     Edge 67, Type (0, 0), None
#     Edge 68, Type (0, 0), None
#     Edge 69, Type (0, 0), None
#     Edge 70, Type (0, 0), None
#     Edge 71, Type (0, 0), None
#     Edge 72, Type (0, 0), None
#     Edge 73, Type (0, 0), None
#     Edge 74, Type (0, 0), None
#     Edge 75, Type (0, 0), None
#     Edge 76, Type (0, 0), None
#     Edge 77, Type (0, 0), None
#     Edge 78, Type (0, 0), None
#     Edge 79, Type (0, 0), None
#     Edge 80, Type (0, 0), None
#     Edge 81, Type (0, 0), None
#     Edge 82, Type (0, 0), None
#     Edge 83, Type (0, 0), None
#     Edge 84, Type (0, 0), None
#     Edge 85, Type (0, 0), None
#     Edge 86, Type (0, 0), None
#     Edge 87, Type (0, 0), None
#     Edge 88, Type (0, 0), None
#     Edge 89, Type (0, 0), None
#     Edge 90, Type (0, 0), None
#     Edge 91, Type (0, 0), None
#     Edge 92, Type (0, 0), None
#     Edge 93, Type (0, 0), None
#     Edge 94, Type (0, 0), None
#     Edge 95, Type (0, 0), None
# Relax obj value: 0.527
# Max RMSD: 0.261
# Mean RMSD: 0.261
data_MOF--net-lcv-e--node1-OJICUG_clean_sbu_0--edge1-none
_symmetry_space_group_name_H-M    P1
_symmetry_Int_Tables_number       1
_symmetry_cell_setting            triclinic
loop_
_symmetry_equiv_pos_as_xyz
'x, y, z'
_cell_length_a     24.643865
_cell_length_b     24.642712
_cell_length_c     24.64118
_cell_angle_alpha  88.828973
_cell_angle_beta   91.170848
_cell_angle_gamma 88.820072
loop_
_atom_site_label
_atom_site_type_symbol
_atom_site_fract_x
_atom_site_fract_y
_atom_site_fract_z
_atom_type_partial_charge
Sc0 Sc 0.05729 0.16905 0.19071 0.0
Sc1 Sc 0.93348 0.11383 0.15099 0.0
Sc2 Sc 0.94768 0.18403 0.26193 0.0
O3 O 0.98428 0.14496 0.20723 0.0
C4 C 0.08029 0.16665 0.31122 0.0
C5 C 0.04248 0.05249 0.14481 0.0
C6 C 0.90307 0.06957 0.26915 0.0
C7 C 1.00267 0.18134 0.07877 0.0
C8 C 1.01714 0.27177 0.23576 0.0
C9 C 0.90644 0.23954 0.14075 0.0
O10 O 0.09286 0.14189 0.26769 0.0
O11 O 0.99131 0.04528 0.15132 0.0
O12 O 0.92976 0.10499 0.2955 0.0
O13 O 1.01644 0.20665 0.12088 0.0
O14 O 0.96837 0.25812 0.22893 0.0
O15 O 0.88662 0.19203 0.13337 0.0
O16 O 0.0561 0.24007 0.23025 0.0
O17 O 0.97333 0.14056 0.08217 0.0
O18 O 0.93141 0.24667 0.18779 0.0
O19 O 0.06674 0.09557 0.15463 0.0
O20 O 1.03018 0.18628 0.31551 0.0
O21 O 0.88874 0.07741 0.21904 0.0
Sc22 Sc 0.09077 0.90674 0.64056 0.0
Sc23 Sc 0.13675 0.89324 0.50882 0.0
Sc24 Sc 0.1623 0.80126 0.60569 0.0
O25 O 0.11952 0.86077 0.57973 0.0
C26 C 0.21856 0.91385 0.65556 0.0
C27 C 0.14989 0.99161 0.57663 0.0
C28 C 0.23972 0.83662 0.5303 0.0
C29 C 1.02184 0.91345 0.54178 0.0
C30 C 0.05538 0.78558 0.65925 0.0
C31 C 0.13834 0.77331 0.4699 0.0
O32 O 0.17278 0.92088 0.67939 0.0
O33 O 0.17628 0.9507 0.56053 0.0
O34 O 0.22946 0.84056 0.58022 0.0
O35 O 1.01706 0.90052 0.59188 0.0
O36 O 0.0874 0.76369 0.62541 0.0
O37 O 0.11208 0.81954 0.46217 0.0
O38 O 0.06747 0.83052 0.68193 0.0
O39 O 0.06361 0.93506 0.52406 0.0
O40 O 0.15986 0.76241 0.51844 0.0
O41 O 0.10747 0.98402 0.60355 0.0
O42 O 0.22392 0.87098 0.62473 0.0
O43 O 0.2093 0.85635 0.49391 0.0
Sc44 Sc 0.63144 0.95521 0.65318 0.0
Sc45 Sc 0.49335 0.93471 0.69847 0.0
Sc46 Sc 0.58603 0.86702 0.76409 0.0
O47 O 0.57112 0.91615 0.7016 0.0
C48 C 0.64511 0.82884 0.64123 0.0
C49 C 0.55036 0.94067 0.58 0.0
C50 C 0.50593 0.8177 0.69568 0.0
C51 C 0.54443 0.03527 0.69638 0.0
C52 C 0.66485 0.97116 0.77476 0.0
C53 C 0.46591 0.90045 0.82067 0.0
O54 O 0.66581 0.87532 0.63117 0.0
O55 O 0.54003 0.94492 0.62928 0.0
O56 O 0.52213 0.82124 0.74368 0.0
O57 O 0.58594 0.0329 0.66564 0.0
O58 O 0.63926 0.93142 0.79601 0.0
O59 O 0.44937 0.91803 0.77403 0.0
O60 O 0.67913 0.97014 0.72556 0.0
O61 O 0.53977 0.99928 0.73302 0.0
O62 O 0.51847 0.89012 0.82751 0.0
O63 O 0.59837 0.94865 0.57007 0.0
O64 O 0.62446 0.82034 0.68964 0.0
O65 O 0.47716 0.85513 0.67225 0.0
Sc66 Sc 0.42001 0.25877 0.11418 0.0
Sc67 Sc 0.42627 0.17088 1.01641 0.0
Sc68 Sc 0.49055 0.14603 0.14261 0.0
O69 O 0.45453 0.19677 0.08607 0.0
C70 C 0.53771 0.26362 0.1603 0.0
C71 C 0.43446 0.28874 0.97528 0.0
C72 C 0.54443 0.1448 0.03769 0.0
C73 C 0.3237 0.22902 0.05154 0.0
C74 C 0.36675 0.14261 0.16564 0.0
C75 C 0.41835 0.06742 0.08307 0.0
O76 O 0.50154 0.28767 0.12963 0.0
O77 O 0.45465 0.24085 0.96743 0.0
O78 O 0.55645 0.15025 0.08779 0.0
O79 O 0.34212 0.2299 0.09967 0.0
O80 O 0.41393 0.13236 0.18757 0.0
O81 O 0.39092 0.10871 0.06613 0.0
O82 O 0.36016 0.18891 0.13852 0.0
O83 O 0.35218 0.21451 1.01242 0.0
O84 O 0.46392 0.07343 0.10638 0.0
O85 O 0.41717 0.29973 1.0246 0.0
O86 O 0.52891 0.21663 0.18199 0.0
O87 O 0.4997 0.12646 1.02151 0.0
Sc88 Sc 0.05122 0.91595 0.39843 0.0
Sc89 Sc 0.91984 0.96882 0.41202 0.0
Sc90 Sc 0.9548 0.90244 0.30548 0.0
O91 O 0.98073 0.93918 0.36695 0.0
C92 C 0.09289 0.9204 0.27921 0.0
C93 C 1.01791 0.03585 0.42499 0.0
C94 C 0.90476 1.01297 0.29086 0.0
C95 C 0.98281 0.90562 0.5003 0.0
C96 C 1.02224 0.81557 0.33775 0.0
C97 C 0.90594 0.84296 0.42027 0.0
O98 O 0.10013 0.94186 0.32648 0.0
O99 O 0.96863 0.03884 0.4082 0.0
O100 O 0.93886 0.98047 0.26959 0.0
O101 O 1.0023 0.87895 0.46136 0.0
O102 O 0.97319 0.82985 0.34095 0.0
O103 O 0.88082 0.88869 0.4267 0.0
O104 O 0.05932 0.84209 0.3597 0.0
O105 O 0.9552 0.94831 0.4895 0.0
O106 O 0.93462 0.83839 0.37612 0.0
O107 O 0.04384 0.99199 0.43689 0.0
O108 O 0.04394 0.90201 0.26752 0.0
O109 O 0.88079 1.00023 0.33532 0.0
Sc110 Sc 0.37979 0.80224 0.44799 0.0
Sc111 Sc 0.44991 0.91321 0.43375 0.0
Sc112 Sc 0.39471 0.87351 0.5576 0.0
O113 O 0.41882 0.85696 0.48459 0.0
C114 C 0.29207 0.82827 0.51747 0.0
C115 C 0.32421 0.92336 0.40675 0.0
C116 C 0.38236 0.9854 0.50293 0.0
C117 C 0.49424 0.79507 0.40335 0.0
C118 C 0.39715 0.75302 0.58065 0.0
C119 C 0.51127 0.91942 0.54273 0.0
O120 O 0.30568 0.83519 0.4687 0.0
O121 O 0.3717 0.93075 0.38691 0.0
O122 O 0.35708 0.94329 0.51669 0.0
O123 O 0.45885 0.76871 0.43007 0.0
O124 O 0.42188 0.79655 0.59322 0.0
O125 O 0.51846 0.91293 0.49156 0.0
O126 O 0.37756 0.74869 0.53053 0.0
O127 O 0.48635 0.84517 0.389 0.0
O128 O 0.46819 0.90959 0.56701 0.0
O129 O 0.3171 0.87633 0.43175 0.0
O130 O 0.32371 0.83399 0.55645 0.0
O131 O 0.42315 0.98203 0.47359 0.0
Sc132 Sc 0.51608 0.13757 0.89336 0.0
Sc133 Sc 0.64229 0.07328 0.91819 0.0
Sc134 Sc 0.61382 0.14378 0.80544 0.0
O135 O 0.58573 0.10929 0.86746 0.0
C136 C 0.47492 0.1293 0.77551 0.0
C137 C 0.53741 1.01939 0.91938 0.0
C138 C 0.65997 1.0261 0.8006 0.0
C139 C 0.58282 0.14553 0.99678 0.0
C140 C 0.55118 0.2401 0.83515 0.0
C141 C 0.66529 0.19709 0.92156 0.0
O142 O 0.46709 0.10914 0.82341 0.0
O143 O 0.58751 1.00737 0.91397 0.0
O144 O 0.62927 0.06225 0.77655 0.0
O145 O 0.56578 0.17297 0.95554 0.0
O146 O 0.59931 0.22168 0.83428 0.0
O147 O 0.68723 0.14992 0.93183 0.0
O148 O 0.51207 0.21165 0.84972 0.0
O149 O 0.60607 0.09992 0.9908 0.0
O150 O 0.63815 0.20365 0.87527 0.0
O151 O 0.52123 0.06411 0.93776 0.0
O152 O 0.52423 0.1466 0.7645 0.0
O153 O 0.68167 0.03492 0.84758 0.0
Sc154 Sc 0.16037 0.18092 0.07629 0.0
Sc155 Sc 0.10604 0.15306 0.94765 0.0
Sc156 Sc 0.1795 0.26053 0.97147 0.0
O157 O 0.14092 0.20324 1.00177 0.0
C158 C 0.15567 0.30043 0.10424 0.0
C159 C 0.04501 0.17195 0.0436 0.0
C160 C 0.06717 0.27373 0.91819 0.0
C161 C 0.17097 0.07237 1.01736 0.0
C162 C 0.26798 0.22808 0.04353 0.0
C163 C 0.23137 0.13791 0.93227 0.0
O164 O 0.1314 0.25571 0.11382 0.0
O165 O 0.03572 0.16833 0.99305 0.0
O166 O 0.10102 0.29677 0.94997 0.0
O167 O 0.19509 0.11204 0.03886 0.0
O168 O 0.25204 0.22412 0.99482 0.0
O169 O 0.18463 0.13125 0.90919 0.0
O170 O 0.23824 0.21622 0.08296 0.0
O171 O 0.12534 0.07857 0.99308 0.0
O172 O 0.23891 0.18415 0.95735 0.0
O173 O 0.08447 0.14618 0.06601 0.0
O174 O 0.17864 0.30687 0.05646 0.0
O175 O 0.07787 0.22613 0.89959 0.0
Sc176 Sc 0.19814 0.07051 0.12941 0.0
Sc177 Sc 0.15295 0.93235 0.10903 0.0
Sc178 Sc 0.26383 0.97792 0.19718 0.0
O179 O 0.20133 0.99274 0.14803 0.0
C180 C 0.32031 0.09805 0.16364 0.0
C181 C 0.19616 1.01925 1.02889 0.0
C182 C 0.27456 0.89897 0.09312 0.0
C183 C 0.07976 1.01339 0.12357 0.0
C184 C 0.19539 0.05805 0.24637 0.0
C185 C 0.14103 0.91879 0.23542 0.0
O186 O 0.27366 0.11456 0.14606 0.0
O187 O 0.16535 0.97779 1.03131 0.0
O188 O 0.29578 0.92458 0.13286 0.0
O189 O 0.12902 1.02375 0.11925 0.0
O190 O 0.24341 0.04198 0.24277 0.0
O191 O 0.131 0.89802 0.18896 0.0
O192 O 0.17188 0.08679 0.20896 0.0
O193 O 0.06983 0.96537 0.1156 0.0
O194 O 0.1894 0.9395 0.24391 0.0
O195 O 0.23277 1.02402 0.06489 0.0
O196 O 0.3272 0.0455 0.17399 0.0
O197 O 0.22537 0.88469 0.0941 0.0
Sc198 Sc 0.14345 0.13685 0.47714 0.0
Sc199 Sc 0.15635 1.01481 0.40866 0.0
Sc200 Sc 0.24667 0.11 0.39584 0.0
O201 O 0.18765 0.08178 0.43493 0.0
C202 C 0.12676 0.17075 0.35587 0.0
C203 C 0.053 0.07983 0.41927 0.0
C204 C 0.18304 0.06251 0.30016 0.0
C205 C 0.14404 1.03102 0.53494 0.0
C206 C 0.26603 0.15044 0.511 0.0
C207 C 0.27875 0.97173 0.40608 0.0
O208 O 0.11719 0.1856 0.40431 0.0
O209 O 0.08986 0.06978 0.38596 0.0
O210 O 0.20249 0.10465 0.32099 0.0
O211 O 0.15823 0.07994 0.54125 0.0
O212 O 0.28547 0.11901 0.47507 0.0
O213 O 0.23102 0.96222 0.42452 0.0
O214 O 0.22014 0.17545 0.50221 0.0
O215 O 0.1314 1.00969 0.48996 0.0
O216 O 0.28875 1.02199 0.38987 0.0
O217 O 0.06632 0.10079 0.46371 0.0
O218 O 0.17421 0.14887 0.34611 0.0
O219 O 0.17951 1.01911 0.32729 0.0
Sc220 Sc 0.38278 0.98777 0.66066 0.0
Sc221 Sc 0.41053 0.11647 0.60638 0.0
Sc222 Sc 0.30312 0.09252 0.67989 0.0
O223 O 0.36041 0.06228 0.64126 0.0
C224 C 0.26328 0.95975 0.65601 0.0
C225 C 0.39171 1.02055 0.54529 0.0
C226 C 0.28982 0.14585 0.56758 0.0
C227 C 0.49129 0.04678 0.67125 0.0
C228 C 0.33573 1.02044 0.76834 0.0
C229 C 0.42573 0.1318 0.73172 0.0
O230 O 0.30799 0.95021 0.6317 0.0
O231 O 0.39529 0.07111 0.53603 0.0
O232 O 0.26683 0.11403 0.60144 0.0
O233 O 0.45166 1.0252 0.69537 0.0
O234 O 0.3396 0.06916 0.75239 0.0
O235 O 0.43234 0.15491 0.68498 0.0
O236 O 0.34753 0.98103 0.73856 0.0
O237 O 0.48505 0.07108 0.62562 0.0
O238 O 0.37951 0.10669 0.73927 0.0
O239 O 0.41749 0.99814 0.58474 0.0
O240 O 0.25682 1.00751 0.67902 0.0
O241 O 0.33741 0.16447 0.57826 0.0
Sc242 Sc 0.30522 0.94984 0.92043 0.0
Sc243 Sc 0.41799 0.92153 0.99097 0.0
Sc244 Sc 0.39305 0.04767 0.92657 0.0
O245 O 0.36722 0.97801 0.95489 0.0
C246 C 0.33482 1.01246 0.82408 0.0
C247 C 0.42138 0.89845 0.86715 0.0
C248 C 0.49652 0.98099 0.91865 0.0
C249 C 0.30042 0.90383 0.03818 0.0
C250 C 0.27518 0.08874 0.93481 0.0
C251 C 0.419 1.02648 0.04473 0.0
O252 O 0.33404 0.96432 0.8425 0.0
O253 O 0.43166 0.87654 0.91433 0.0
O254 O 0.45527 0.99801 0.89119 0.0
O255 O 0.27635 0.93445 1.00198 0.0
O256 O 0.32307 0.09662 0.95498 0.0
O257 O 0.41377 0.97637 0.05686 0.0
O258 O 0.26422 0.03941 0.91755 0.0
O259 O 0.34742 0.88216 1.02939 0.0
O260 O 0.43743 0.04259 1.00001 0.0
O261 O 0.37507 0.92554 0.86056 0.0
O262 O 0.3494 0.05159 0.8525 0.0
O263 O 0.49056 0.95777 0.96428 0.0
Sc264 Sc 0.60865 0.41103 0.13172 0.0
Sc265 Sc 0.62908 0.36574 0.99359 0.0
Sc266 Sc 0.69676 0.30008 0.08625 0.0
O267 O 0.64767 0.36261 0.07136 0.0
C268 C 0.73502 0.4229 0.14533 0.0
C269 C 0.62323 0.48416 0.05062 0.0
C270 C 0.74609 0.36841 1.00609 0.0
C271 C 0.52855 0.36787 0.04475 0.0
C272 C 0.59265 0.28945 0.16516 0.0
C273 C 0.66328 0.24355 0.96611 0.0
O274 O 0.68857 0.43297 0.16608 0.0
O275 O 0.61891 0.4349 0.04031 0.0
O276 O 0.7425 0.32043 1.02229 0.0
O277 O 0.53095 0.39863 0.08624 0.0
O278 O 0.63234 0.26821 0.13949 0.0
O279 O 0.6457 0.2902 0.94957 0.0
O280 O 0.59361 0.33867 0.1794 0.0
O281 O 0.56454 0.33122 0.04008 0.0
O282 O 0.67362 0.23669 1.01866 0.0
O283 O 0.6153 0.49413 0.09864 0.0
O284 O 0.74349 0.3745 0.12465 0.0
O285 O 0.70866 0.39191 0.97736 0.0
Sc286 Sc 0.14026 0.47296 0.15717 0.0
Sc287 Sc 1.00852 0.427 0.1706 0.0
Sc288 Sc 0.10534 0.40148 0.26267 0.0
O289 O 0.07941 0.44424 0.20312 0.0
C290 C 0.15523 0.34517 0.15012 0.0
C291 C 0.07637 0.41382 0.07227 0.0
C292 C 1.02996 0.32411 0.22736 0.0
C293 C 0.04149 0.5419 0.15047 0.0
C294 C 0.15892 0.50838 0.27834 0.0
C295 C 0.96954 0.42547 0.29054 0.0
O296 O 0.17907 0.39093 0.14307 0.0
O297 O 0.06029 0.38744 0.11319 0.0
O298 O 0.07988 0.33431 0.22337 0.0
O299 O 0.09158 0.54669 0.16337 0.0
O300 O 0.12506 0.47639 0.30022 0.0
O301 O 0.96182 0.45169 0.24428 0.0
O302 O 0.1816 0.49626 0.2334 0.0
O303 O 1.02379 0.50014 0.12881 0.0
O304 O 1.01808 0.40397 0.30148 0.0
O305 O 0.10328 0.45625 0.07987 0.0
O306 O 0.1244 0.33982 0.19298 0.0
O307 O 0.99359 0.35445 0.20748 0.0
Sc308 Sc 0.88862 0.76095 0.6032 0.0
Sc309 Sc 0.90681 0.67641 0.50286 0.0
Sc310 Sc 0.95959 0.6504 0.63296 0.0
O311 O 0.92721 0.70125 0.57516 0.0
C312 C 0.99804 0.76847 0.65727 0.0
C313 C 0.90887 0.79752 0.46777 0.0
C314 C 1.02387 0.656 0.5335 0.0
C315 C 0.802 0.73198 0.53179 0.0
C316 C 0.83338 0.64176 0.64441 0.0
C317 C 0.89978 0.56901 0.56461 0.0
O318 O 0.96636 0.79329 0.62288 0.0
O319 O 0.93323 0.75136 0.45963 0.0
O320 O 1.03066 0.66116 0.58467 0.0
O321 O 0.81646 0.72931 0.58115 0.0
O322 O 0.87926 0.63241 0.66944 0.0
O323 O 0.87127 0.60958 0.5473 0.0
O324 O 0.82718 0.68886 0.61881 0.0
O325 O 0.83224 0.71681 0.49441 0.0
O326 O 0.94244 0.57701 0.59239 0.0
O327 O 0.88815 0.80565 0.5161 0.0
O328 O 0.98501 0.7224 0.67831 0.0
O329 O 0.98196 0.63571 0.51298 0.0
Sc330 Sc 1.0026 0.657 0.38754 0.0
Sc331 Sc 0.13267 0.60412 0.41352 0.0
Sc332 Sc 0.10295 0.67517 0.30299 0.0
O333 O 0.0749 0.63658 0.3627 0.0
C334 C 0.96754 0.65497 0.2664 0.0
C335 C 0.03319 0.53988 0.40789 0.0
C336 C 0.15698 0.56572 0.29544 0.0
C337 C 0.06441 0.66395 0.49495 0.0
C338 C 1.03158 0.76181 0.33196 0.0
C339 C 0.14414 0.73032 0.42224 0.0
O340 O 0.9594 0.6306 0.31255 0.0
O341 O 0.08436 0.53309 0.4027 0.0
O342 O 0.1226 0.59742 0.27063 0.0
O343 O 0.04695 0.69251 0.45446 0.0
O344 O 0.08094 0.74736 0.33462 0.0
O345 O 0.16917 0.68443 0.43157 0.0
O346 O 0.9942 0.73158 0.34716 0.0
O347 O 0.09211 0.62125 0.48692 0.0
O348 O 0.11856 0.73657 0.37514 0.0
O349 O 1.01268 0.58181 0.42819 0.0
O350 O 1.01586 0.67568 0.25827 0.0
O351 O 0.17802 0.57874 0.34151 0.0
Sc352 Sc 0.57596 0.40348 0.88305 0.0
Sc353 Sc 0.44735 0.45787 0.91087 0.0
Sc354 Sc 0.47115 0.38432 0.80344 0.0
O355 O 0.50146 0.42293 0.86071 0.0
C356 C 0.60391 0.4081 0.76351 0.0
C357 C 0.54334 0.5189 0.892 0.0
C358 C 0.41789 0.49667 0.79018 0.0
C359 C 0.51701 0.39297 0.99161 0.0
C360 C 0.54318 0.29584 0.83596 0.0
C361 C 0.43194 0.33254 0.92609 0.0
O362 O 0.61348 0.43239 0.80823 0.0
O363 O 0.49277 0.52816 0.89554 0.0
O364 O 0.44967 0.46279 0.76715 0.0
O365 O 0.53854 0.36881 0.95197 0.0
O366 O 0.49447 0.31179 0.83987 0.0
O367 O 0.40888 0.3793 0.93274 0.0
O368 O 0.58261 0.32558 0.84779 0.0
O369 O 0.49276 0.43862 0.98537 0.0
O370 O 0.457 0.32497 0.87985 0.0
O371 O 0.56569 0.47941 0.91778 0.0
O372 O 0.55613 0.38514 0.75708 0.0
O373 O 0.3993 0.48599 0.83778 0.0
Sc374 Sc 0.42686 0.58706 0.64378 0.0
Sc375 Sc 0.54895 0.65538 0.65656 0.0
Sc376 Sc 0.45386 0.66833 0.74699 0.0
O377 O 0.482 0.62919 0.68794 0.0
C378 C 0.39306 0.70837 0.62712 0.0
C379 C 0.48393 0.6448 0.55324 0.0
C380 C 0.5014 0.76393 0.68331 0.0
C381 C 0.53265 0.52916 0.6444 0.0
C382 C 0.41332 0.55325 0.76639 0.0
C383 C 0.59215 0.65796 0.77894 0.0
O384 O 0.37817 0.65994 0.61755 0.0
O385 O 0.49386 0.67808 0.59017 0.0
O386 O 0.45925 0.74316 0.70279 0.0
O387 O 0.48372 0.52288 0.65854 0.0
O388 O 0.4448 0.58913 0.78581 0.0
O389 O 0.60161 0.63949 0.7312 0.0
O390 O 0.38829 0.56204 0.72052 0.0
O391 O 0.55393 0.57409 0.63155 0.0
O392 O 0.54191 0.67421 0.78898 0.0
O393 O 0.46288 0.60042 0.56658 0.0
O394 O 0.41498 0.7181 0.67456 0.0
O395 O 0.54476 0.73675 0.67973 0.0
Sc396 Sc 0.89548 0.31697 0.95406 0.0
Sc397 Sc 0.9768 0.42013 0.92708 0.0
Sc398 Sc 0.9084 0.40738 0.04918 0.0
O399 O 0.93462 0.376 0.98222 0.0
C400 C 0.79987 0.38073 1.00156 0.0
C401 C 0.85553 0.43686 0.89325 0.0
C402 C 0.9191 0.5107 0.98415 0.0
C403 C 1.01059 0.29752 0.91357 0.0
C404 C 0.90577 0.28498 0.09235 0.0
C405 C 0.03467 0.41966 0.03287 0.0
O406 O 0.82065 0.36119 0.95944 0.0
O407 O 0.90396 0.44639 0.87837 0.0
O408 O 0.8858 0.47381 0.99409 0.0
O409 O 0.97468 0.27812 0.94503 0.0
O410 O 0.92421 0.33272 0.10184 0.0
O411 O 0.04095 0.40539 0.98397 0.0
O412 O 0.88955 0.27495 0.0421 0.0
O413 O 1.00182 0.34339 0.88853 0.0
O414 O 0.98971 0.43227 0.05424 0.0
O415 O 0.84577 0.38943 0.91517 0.0
O416 O 0.82703 0.38432 0.04494 0.0
O417 O 0.96346 0.49733 0.96309 0.0
Sc418 Sc 0.66138 0.75876 0.45499 0.0
Sc419 Sc 0.64783 0.66582 0.55144 0.0
Sc420 Sc 0.59496 0.65224 0.42008 0.0
O421 O 0.62461 0.69731 0.48096 0.0
C422 C 0.55084 0.77339 0.40499 0.0
C423 C 0.64347 0.78506 0.5931 0.0
C424 C 0.52793 0.63912 0.51815 0.0
C425 C 0.74822 0.72647 0.52243 0.0
C426 C 0.7208 0.64392 0.40615 0.0
C427 C 0.65805 0.5639 0.48312 0.0
O428 O 0.58334 0.79466 0.43908 0.0
O429 O 0.62201 0.7378 0.60036 0.0
O430 O 0.52496 0.65606 0.46891 0.0
O431 O 0.73399 0.72332 0.47336 0.0
O432 O 0.67507 0.63752 0.38104 0.0
O433 O 0.68473 0.60287 0.50248 0.0
O434 O 0.72539 0.68808 0.43482 0.0
O435 O 0.7217 0.70448 0.55949 0.0
O436 O 0.61543 0.57476 0.45543 0.0
O437 O 0.66184 0.79673 0.54413 0.0
O438 O 0.56358 0.72894 0.38102 0.0
O439 O 0.57178 0.62744 0.54418 0.0
Sc440 Sc 0.76236 0.45835 0.66249 0.0
Sc441 Sc 0.67042 0.55529 0.63704 0.0
Sc442 Sc 0.65685 0.42358 0.59097 0.0
O443 O 0.70285 0.48436 0.61975 0.0
C444 C 0.77801 0.40484 0.55553 0.0
C445 C 0.79038 0.59413 0.63858 0.0
C446 C 0.65025 0.5224 0.52212 0.0
C447 C 0.72709 0.53371 0.73994 0.0
C448 C 0.64977 0.40853 0.71876 0.0
C449 C 0.57206 0.48746 0.65026 0.0
O450 O 0.79991 0.43865 0.58756 0.0
O451 O 0.74414 0.60189 0.61234 0.0
O452 O 0.66306 0.47229 0.51726 0.0
O453 O 0.72307 0.48381 0.72967 0.0
O454 O 0.64272 0.38472 0.67298 0.0
O455 O 0.61292 0.50366 0.67664 0.0
O456 O 0.69266 0.43933 0.72413 0.0
O457 O 0.70735 0.57014 0.70957 0.0
O458 O 0.57961 0.46064 0.60775 0.0
O459 O 0.80126 0.54557 0.66008 0.0
O460 O 0.73305 0.38219 0.5676 0.0
O461 O 0.62861 0.54009 0.5639 0.0
Sc462 Sc 0.65076 0.63031 0.95011 0.0
Sc463 Sc 0.69043 0.50643 0.89494 0.0
Sc464 Sc 0.76169 0.61602 0.87994 0.0
O465 O 0.70697 0.57945 0.91901 0.0
C466 C 0.64054 0.65726 0.82439 0.0
C467 C 0.57853 0.5612 0.88252 0.0
C468 C 0.73562 0.54652 0.79226 0.0
C469 C 0.64453 0.52138 1.0115 0.0
C470 C 0.76891 0.6607 0.99438 0.0
C471 C 0.81091 0.48338 0.89737 0.0
O472 O 0.63318 0.67713 0.87188 0.0
O473 O 0.62059 0.5472 0.85724 0.0
O474 O 0.72871 0.59529 0.80589 0.0
O475 O 0.65107 0.57254 1.01868 0.0
O476 O 0.79525 0.63396 0.95898 0.0
O477 O 0.76739 0.47085 0.92215 0.0
O478 O 0.71881 0.67506 0.98651 0.0
O479 O 0.65431 0.49707 0.96842 0.0
O480 O 0.81524 0.53347 0.87773 0.0
O481 O 0.58195 0.59046 0.92338 0.0
O482 O 0.68758 0.63225 0.81727 0.0
O483 O 0.72999 0.50754 0.82393 0.0
Sc484 Sc 0.80521 0.6091 0.16154 0.0
Sc485 Sc 0.89808 0.51258 0.14806 0.0
Sc486 Sc 0.91175 0.64392 0.09511 0.0
O487 O 0.86665 0.58308 0.1248 0.0
C488 C 0.7906 0.65906 0.05098 0.0
C489 C 0.77883 0.47101 0.14368 0.0
C490 C 0.92481 0.5458 1.02814 0.0
C491 C 0.83745 0.5417 0.24844 0.0
C492 C 0.92004 0.6579 0.22096 0.0
C493 C 1.00001 0.58092 0.15831 0.0
O494 O 0.76932 0.625 0.0835 0.0
O495 O 0.82609 0.46371 0.12221 0.0
O496 O 0.90791 0.59505 1.02514 0.0
O497 O 0.84066 0.59075 0.23415 0.0
O498 O 0.92647 0.68299 0.17522 0.0
O499 O 0.96108 0.56145 0.185 0.0
O500 O 0.87587 0.62927 0.22556 0.0
O501 O 0.85937 0.5046 0.22192 0.0
O502 O 0.9892 0.60852 0.11562 0.0
O503 O 0.76718 0.51999 0.16204 0.0
O504 O 0.83507 0.68301 0.06369 0.0
O505 O 0.9365 0.51979 0.072 0.0
Sc506 Sc 0.80269 0.46094 0.38877 0.0
Sc507 Sc 0.91322 0.43107 0.45975 0.0
Sc508 Sc 0.88729 0.56122 0.40699 0.0
O509 O 0.86242 0.48891 0.42737 0.0
C510 C 0.83166 0.53237 0.30219 0.0
C511 C 0.92187 0.41969 0.33353 0.0
C512 C 0.99464 0.49934 0.39992 0.0
C513 C 0.79514 0.40683 0.49818 0.0
C514 C 0.76619 0.59638 0.40908 0.0
C515 C 0.90764 0.53048 0.52405 0.0
O516 O 0.83432 0.483 0.31662 0.0
O517 O 0.93118 0.39461 0.3794 0.0
O518 O 0.95415 0.51683 0.37139 0.0
O519 O 0.77034 0.44125 0.46651 0.0
O520 O 0.81236 0.60447 0.43346 0.0
O521 O 0.90251 0.47931 0.53085 0.0
O522 O 0.75804 0.54807 0.38835 0.0
O523 O 0.8412 0.38577 0.48515 0.0
O524 O 0.92796 0.551 0.48215 0.0
O525 O 0.8748 0.44533 0.32732 0.0
O526 O 0.84689 0.56973 0.33243 0.0
O527 O 0.98664 0.4716 0.4426 0.0
loop_
_geom_bond_atom_site_label_1
_geom_bond_atom_site_label_2
_geom_bond_distance
_geom_bond_site_symmetry_2
_ccdc_geom_bond_type
Sc0 O3 2.025 . S
Sc0 O10 2.105 . S
Sc0 O13 2.105 . S
Sc0 O16 2.105 . S
Sc0 O19 2.105 . S
Sc1 O3 2.024 1_655 S
Sc1 O11 2.097 1_655 S
Sc1 O15 2.112 . S
Sc1 O17 2.102 1_655 S
Sc1 O21 2.108 . S
Sc2 O3 2.025 1_655 S
Sc2 O12 2.105 . S
Sc2 O14 2.105 . S
Sc2 O18 2.105 . S
Sc2 O20 2.105 1_655 S
O3 Sc0 2.025 . S
O3 Sc1 2.024 1_455 S
O3 Sc2 2.025 1_455 S
C4 O10 1.268 . S
C4 O20 1.268 . S
C5 O11 1.268 . S
C5 O19 1.268 . S
C6 O12 1.268 . S
C6 O21 1.268 . S
C7 O13 1.268 . S
C7 O17 1.268 . S
C8 O14 1.268 . S
C8 O16 1.268 1_655 S
C9 O15 1.268 . S
C9 O18 1.268 . S
O10 Sc0 2.105 . S
O10 C4 1.268 . S
O11 Sc1 2.097 1_455 S
O11 C5 1.268 . S
O12 Sc2 2.105 . S
O12 C6 1.268 . S
O13 Sc0 2.105 . S
O13 C7 1.268 . S
O14 Sc2 2.105 . S
O14 C8 1.268 . S
O15 Sc1 2.112 . S
O15 C9 1.268 . S
O16 Sc0 2.105 . S
O16 C8 1.268 1_455 S
O17 Sc1 2.102 1_455 S
O17 C7 1.268 . S
O18 Sc2 2.105 . S
O18 C9 1.268 . S
O19 Sc0 2.105 . S
O19 C5 1.268 . S
O20 Sc2 2.105 1_455 S
O20 C4 1.268 . S
O21 Sc1 2.108 . S
O21 C6 1.268 . S
Sc22 O25 2.025 . S
Sc22 O32 2.105 . S
Sc22 O35 2.105 . S
Sc22 O38 2.105 . S
Sc22 O41 2.105 . S
Sc23 O25 2.025 . S
Sc23 O33 2.105 . S
Sc23 O37 2.105 . S
Sc23 O39 2.105 . S
Sc23 O43 2.105 . S
Sc24 O25 2.025 . S
Sc24 O34 2.105 . S
Sc24 O36 2.105 . S
Sc24 O40 2.105 . S
Sc24 O42 2.105 . S
O25 Sc22 2.025 . S
O25 Sc23 2.025 . S
O25 Sc24 2.025 . S
C26 O32 1.268 . S
C26 O42 1.268 . S
C27 O33 1.268 . S
C27 O41 1.268 . S
C28 O34 1.268 . S
C28 O43 1.268 . S
C29 O35 1.268 . S
C29 O39 1.268 . S
C30 O36 1.268 . S
C30 O38 1.268 . S
C31 O37 1.268 . S
C31 O40 1.268 . S
O32 Sc22 2.105 . S
O32 C26 1.268 . S
O33 Sc23 2.105 . S
O33 C27 1.268 . S
O34 Sc24 2.105 . S
O34 C28 1.268 . S
O35 Sc22 2.105 . S
O35 C29 1.268 . S
O36 Sc24 2.105 . S
O36 C30 1.268 . S
O37 Sc23 2.105 . S
O37 C31 1.268 . S
O38 Sc22 2.105 . S
O38 C30 1.268 . S
O39 Sc23 2.105 . S
O39 C29 1.268 . S
O40 Sc24 2.105 . S
O40 C31 1.268 . S
O41 Sc22 2.105 . S
O41 C27 1.268 . S
O42 Sc24 2.105 . S
O42 C26 1.268 . S
O43 Sc23 2.105 . S
O43 C28 1.268 . S
Sc44 O47 2.025 . S
Sc44 O54 2.105 . S
Sc44 O57 2.105 . S
Sc44 O60 2.105 . S
Sc44 O63 2.105 . S
Sc45 O47 2.025 . S
Sc45 O55 2.105 . S
Sc45 O59 2.105 . S
Sc45 O61 2.105 . S
Sc45 O65 2.105 . S
Sc46 O47 2.025 . S
Sc46 O56 2.105 . S
Sc46 O58 2.105 . S
Sc46 O62 2.105 . S
Sc46 O64 2.105 . S
O47 Sc44 2.025 . S
O47 Sc45 2.025 . S
O47 Sc46 2.025 . S
C48 O54 1.268 . S
C48 O64 1.268 . S
C49 O55 1.268 . S
C49 O63 1.268 . S
C50 O56 1.268 . S
C50 O65 1.268 . S
C51 O57 1.268 . S
C51 O61 1.268 . S
C52 O58 1.268 . S
C52 O60 1.268 . S
C53 O59 1.268 . S
C53 O62 1.268 . S
O54 Sc44 2.105 . S
O54 C48 1.268 . S
O55 Sc45 2.105 . S
O55 C49 1.268 . S
O56 Sc46 2.105 . S
O56 C50 1.268 . S
O57 Sc44 2.105 . S
O57 C51 1.268 . S
O58 Sc46 2.105 . S
O58 C52 1.268 . S
O59 Sc45 2.105 . S
O59 C53 1.268 . S
O60 Sc44 2.105 . S
O60 C52 1.268 . S
O61 Sc45 2.105 . S
O61 C51 1.268 . S
O62 Sc46 2.105 . S
O62 C53 1.268 . S
O63 Sc44 2.105 . S
O63 C49 1.268 . S
O64 Sc46 2.105 . S
O64 C48 1.268 . S
O65 Sc45 2.105 . S
O65 C50 1.268 . S
Sc66 O69 2.025 1_554 S
Sc66 O76 2.105 . S
Sc66 O79 2.105 . S
Sc66 O82 2.105 . S
Sc66 O85 2.105 1_554 S
Sc67 O69 2.025 . S
Sc67 O77 2.105 . S
Sc67 O81 2.105 . S
Sc67 O83 2.105 . S
Sc67 O87 2.105 . S
Sc68 O69 2.024 1_554 S
Sc68 O78 2.097 1_554 S
Sc68 O80 2.113 . S
Sc68 O84 2.102 1_554 S
Sc68 O86 2.108 . S
O69 Sc66 2.025 1_556 S
O69 Sc67 2.025 . S
O69 Sc68 2.024 1_556 S
C70 O76 1.268 . S
C70 O86 1.268 . S
C71 O77 1.268 . S
C71 O85 1.268 . S
C72 O78 1.268 . S
C72 O87 1.268 . S
C73 O79 1.268 . S
C73 O83 1.268 1_554 S
C74 O80 1.268 . S
C74 O82 1.268 . S
C75 O81 1.268 . S
C75 O84 1.268 . S
O76 Sc66 2.105 . S
O76 C70 1.268 . S
O77 Sc67 2.105 . S
O77 C71 1.268 . S
O78 Sc68 2.097 1_556 S
O78 C72 1.268 . S
O79 Sc66 2.105 . S
O79 C73 1.268 . S
O80 Sc68 2.113 . S
O80 C74 1.268 . S
O81 Sc67 2.105 . S
O81 C75 1.268 . S
O82 Sc66 2.105 . S
O82 C74 1.268 . S
O83 Sc67 2.105 . S
O83 C73 1.268 1_556 S
O84 Sc68 2.102 1_556 S
O84 C75 1.268 . S
O85 Sc66 2.105 1_556 S
O85 C71 1.268 . S
O86 Sc68 2.108 . S
O86 C70 1.268 . S
O87 Sc67 2.105 . S
O87 C72 1.268 . S
Sc88 O91 2.025 . S
Sc88 O98 2.105 . S
Sc88 O101 2.105 . S
Sc88 O104 2.105 . S
Sc88 O107 2.105 . S
Sc89 O91 2.024 1_655 S
Sc89 O99 2.097 1_655 S
Sc89 O103 2.112 . S
Sc89 O105 2.102 1_655 S
Sc89 O109 2.108 . S
Sc90 O91 2.025 1_655 S
Sc90 O100 2.105 . S
Sc90 O102 2.105 . S
Sc90 O106 2.105 . S
Sc90 O108 2.105 1_655 S
O91 Sc88 2.025 . S
O91 Sc89 2.024 1_455 S
O91 Sc90 2.025 1_455 S
C92 O98 1.268 . S
C92 O108 1.268 . S
C93 O99 1.268 . S
C93 O107 1.268 . S
C94 O100 1.268 . S
C94 O109 1.268 . S
C95 O101 1.268 . S
C95 O105 1.268 . S
C96 O102 1.268 . S
C96 O104 1.268 1_655 S
C97 O103 1.268 . S
C97 O106 1.268 . S
O98 Sc88 2.105 . S
O98 C92 1.268 . S
O99 Sc89 2.097 1_455 S
O99 C93 1.268 . S
O100 Sc90 2.105 . S
O100 C94 1.268 . S
O101 Sc88 2.105 . S
O101 C95 1.268 . S
O102 Sc90 2.105 . S
O102 C96 1.268 . S
O103 Sc89 2.112 . S
O103 C97 1.268 . S
O104 Sc88 2.105 . S
O104 C96 1.268 1_455 S
O105 Sc89 2.102 1_455 S
O105 C95 1.268 . S
O106 Sc90 2.105 . S
O106 C97 1.268 . S
O107 Sc88 2.105 . S
O107 C93 1.268 . S
O108 Sc90 2.105 1_455 S
O108 C92 1.268 . S
O109 Sc89 2.108 . S
O109 C94 1.268 . S
Sc110 O113 2.025 . S
Sc110 O120 2.105 . S
Sc110 O123 2.105 . S
Sc110 O126 2.105 . S
Sc110 O129 2.105 . S
Sc111 O113 2.025 . S
Sc111 O121 2.105 . S
Sc111 O125 2.105 . S
Sc111 O127 2.105 . S
Sc111 O131 2.105 . S
Sc112 O113 2.025 . S
Sc112 O122 2.105 . S
Sc112 O124 2.105 . S
Sc112 O128 2.105 . S
Sc112 O130 2.105 . S
O113 Sc110 2.025 . S
O113 Sc111 2.025 . S
O113 Sc112 2.025 . S
C114 O120 1.268 . S
C114 O130 1.268 . S
C115 O121 1.268 . S
C115 O129 1.268 . S
C116 O122 1.268 . S
C116 O131 1.268 . S
C117 O123 1.268 . S
C117 O127 1.268 . S
C118 O124 1.268 . S
C118 O126 1.268 . S
C119 O125 1.268 . S
C119 O128 1.268 . S
O120 Sc110 2.105 . S
O120 C114 1.268 . S
O121 Sc111 2.105 . S
O121 C115 1.268 . S
O122 Sc112 2.105 . S
O122 C116 1.268 . S
O123 Sc110 2.105 . S
O123 C117 1.268 . S
O124 Sc112 2.105 . S
O124 C118 1.268 . S
O125 Sc111 2.105 . S
O125 C119 1.268 . S
O126 Sc110 2.105 . S
O126 C118 1.268 . S
O127 Sc111 2.105 . S
O127 C117 1.268 . S
O128 Sc112 2.105 . S
O128 C119 1.268 . S
O129 Sc110 2.105 . S
O129 C115 1.268 . S
O130 Sc112 2.105 . S
O130 C114 1.268 . S
O131 Sc111 2.105 . S
O131 C116 1.268 . S
Sc132 O135 2.025 . S
Sc132 O142 2.105 . S
Sc132 O145 2.105 . S
Sc132 O148 2.105 . S
Sc132 O151 2.105 . S
Sc133 O135 2.025 . S
Sc133 O143 2.105 . S
Sc133 O147 2.105 . S
Sc133 O149 2.105 . S
Sc133 O153 2.105 . S
Sc134 O135 2.025 . S
Sc134 O144 2.105 . S
Sc134 O146 2.105 . S
Sc134 O150 2.105 . S
Sc134 O152 2.105 . S
O135 Sc132 2.025 . S
O135 Sc133 2.025 . S
O135 Sc134 2.025 . S
C136 O142 1.268 . S
C136 O152 1.268 . S
C137 O143 1.268 . S
C137 O151 1.268 . S
C138 O144 1.268 . S
C138 O153 1.268 . S
C139 O145 1.268 . S
C139 O149 1.268 . S
C140 O146 1.268 . S
C140 O148 1.268 . S
C141 O147 1.268 . S
C141 O150 1.268 . S
O142 Sc132 2.105 . S
O142 C136 1.268 . S
O143 Sc133 2.105 . S
O143 C137 1.268 . S
O144 Sc134 2.105 . S
O144 C138 1.268 . S
O145 Sc132 2.105 . S
O145 C139 1.268 . S
O146 Sc134 2.105 . S
O146 C140 1.268 . S
O147 Sc133 2.105 . S
O147 C141 1.268 . S
O148 Sc132 2.105 . S
O148 C140 1.268 . S
O149 Sc133 2.105 . S
O149 C139 1.268 . S
O150 Sc134 2.105 . S
O150 C141 1.268 . S
O151 Sc132 2.105 . S
O151 C137 1.268 . S
O152 Sc134 2.105 . S
O152 C136 1.268 . S
O153 Sc133 2.105 . S
O153 C138 1.268 . S
Sc154 O157 2.025 . S
Sc154 O164 2.105 . S
Sc154 O167 2.105 . S
Sc154 O170 2.105 . S
Sc154 O173 2.105 . S
Sc155 O157 2.024 1_556 S
Sc155 O165 2.097 1_556 S
Sc155 O169 2.112 . S
Sc155 O171 2.102 1_556 S
Sc155 O175 2.108 . S
Sc156 O157 2.025 1_556 S
Sc156 O166 2.105 . S
Sc156 O168 2.105 . S
Sc156 O172 2.105 . S
Sc156 O174 2.105 1_556 S
O157 Sc154 2.025 . S
O157 Sc155 2.024 1_554 S
O157 Sc156 2.025 1_554 S
C158 O164 1.268 . S
C158 O174 1.268 . S
C159 O165 1.268 . S
C159 O173 1.268 . S
C160 O166 1.268 . S
C160 O175 1.268 . S
C161 O167 1.268 . S
C161 O171 1.268 . S
C162 O168 1.268 . S
C162 O170 1.268 1_556 S
C163 O169 1.268 . S
C163 O172 1.268 . S
O164 Sc154 2.105 . S
O164 C158 1.268 . S
O165 Sc155 2.097 1_554 S
O165 C159 1.268 . S
O166 Sc156 2.105 . S
O166 C160 1.268 . S
O167 Sc154 2.105 . S
O167 C161 1.268 . S
O168 Sc156 2.105 . S
O168 C162 1.268 . S
O169 Sc155 2.112 . S
O169 C163 1.268 . S
O170 Sc154 2.105 . S
O170 C162 1.268 1_554 S
O171 Sc155 2.102 1_554 S
O171 C161 1.268 . S
O172 Sc156 2.105 . S
O172 C163 1.268 . S
O173 Sc154 2.105 . S
O173 C159 1.268 . S
O174 Sc156 2.105 1_554 S
O174 C158 1.268 . S
O175 Sc155 2.108 . S
O175 C160 1.268 . S
Sc176 O179 2.025 . S
Sc176 O186 2.105 . S
Sc176 O189 2.105 . S
Sc176 O192 2.105 . S
Sc176 O195 2.105 . S
Sc177 O179 2.024 1_565 S
Sc177 O187 2.097 1_565 S
Sc177 O191 2.112 . S
Sc177 O193 2.102 1_565 S
Sc177 O197 2.108 . S
Sc178 O179 2.025 1_565 S
Sc178 O188 2.105 . S
Sc178 O190 2.105 . S
Sc178 O194 2.105 . S
Sc178 O196 2.105 1_565 S
O179 Sc176 2.025 . S
O179 Sc177 2.024 1_545 S
O179 Sc178 2.025 1_545 S
C180 O186 1.268 . S
C180 O196 1.268 . S
C181 O187 1.268 . S
C181 O195 1.268 . S
C182 O188 1.268 . S
C182 O197 1.268 . S
C183 O189 1.268 . S
C183 O193 1.268 . S
C184 O190 1.268 . S
C184 O192 1.268 1_565 S
C185 O191 1.268 . S
C185 O194 1.268 . S
O186 Sc176 2.105 . S
O186 C180 1.268 . S
O187 Sc177 2.097 1_545 S
O187 C181 1.268 . S
O188 Sc178 2.105 . S
O188 C182 1.268 . S
O189 Sc176 2.105 . S
O189 C183 1.268 . S
O190 Sc178 2.105 . S
O190 C184 1.268 . S
O191 Sc177 2.112 . S
O191 C185 1.268 . S
O192 Sc176 2.105 . S
O192 C184 1.268 1_545 S
O193 Sc177 2.102 1_545 S
O193 C183 1.268 . S
O194 Sc178 2.105 . S
O194 C185 1.268 . S
O195 Sc176 2.105 . S
O195 C181 1.268 . S
O196 Sc178 2.105 1_545 S
O196 C180 1.268 . S
O197 Sc177 2.108 . S
O197 C182 1.268 . S
Sc198 O201 2.024 1_545 S
Sc198 O208 2.113 . S
Sc198 O211 2.097 1_545 S
Sc198 O214 2.108 . S
Sc198 O217 2.102 1_545 S
Sc199 O201 2.025 . S
Sc199 O209 2.105 . S
Sc199 O213 2.105 . S
Sc199 O215 2.105 . S
Sc199 O219 2.105 . S
Sc200 O201 2.025 1_545 S
Sc200 O210 2.105 . S
Sc200 O212 2.105 . S
Sc200 O216 2.105 1_545 S
Sc200 O218 2.105 . S
O201 Sc198 2.024 1_565 S
O201 Sc199 2.025 . S
O201 Sc200 2.025 1_565 S
C202 O208 1.268 . S
C202 O218 1.268 . S
C203 O209 1.268 . S
C203 O217 1.268 . S
C204 O210 1.268 . S
C204 O219 1.268 1_545 S
C205 O211 1.268 . S
C205 O215 1.268 . S
C206 O212 1.268 . S
C206 O214 1.268 . S
C207 O213 1.268 . S
C207 O216 1.268 . S
O208 Sc198 2.113 . S
O208 C202 1.268 . S
O209 Sc199 2.105 . S
O209 C203 1.268 . S
O210 Sc200 2.105 . S
O210 C204 1.268 . S
O211 Sc198 2.097 1_565 S
O211 C205 1.268 . S
O212 Sc200 2.105 . S
O212 C206 1.268 . S
O213 Sc199 2.105 . S
O213 C207 1.268 . S
O214 Sc198 2.108 . S
O214 C206 1.268 . S
O215 Sc199 2.105 . S
O215 C205 1.268 . S
O216 Sc200 2.105 1_565 S
O216 C207 1.268 . S
O217 Sc198 2.102 1_565 S
O217 C203 1.268 . S
O218 Sc200 2.105 . S
O218 C202 1.268 . S
O219 Sc199 2.105 . S
O219 C204 1.268 1_565 S
Sc220 O223 2.025 . S
Sc220 O230 2.105 . S
Sc220 O233 2.105 . S
Sc220 O236 2.105 . S
Sc220 O239 2.105 . S
Sc221 O223 2.024 1_545 S
Sc221 O231 2.097 1_545 S
Sc221 O235 2.112 . S
Sc221 O237 2.102 1_545 S
Sc221 O241 2.108 . S
Sc222 O223 2.025 1_545 S
Sc222 O232 2.105 . S
Sc222 O234 2.105 . S
Sc222 O238 2.105 . S
Sc222 O240 2.105 1_545 S
O223 Sc220 2.025 . S
O223 Sc221 2.024 1_565 S
O223 Sc222 2.025 1_565 S
C224 O230 1.268 . S
C224 O240 1.268 . S
C225 O231 1.268 . S
C225 O239 1.268 . S
C226 O232 1.268 . S
C226 O241 1.268 . S
C227 O233 1.268 . S
C227 O237 1.268 . S
C228 O234 1.268 . S
C228 O236 1.268 1_545 S
C229 O235 1.268 . S
C229 O238 1.268 . S
O230 Sc220 2.105 . S
O230 C224 1.268 . S
O231 Sc221 2.097 1_565 S
O231 C225 1.268 . S
O232 Sc222 2.105 . S
O232 C226 1.268 . S
O233 Sc220 2.105 . S
O233 C227 1.268 . S
O234 Sc222 2.105 . S
O234 C228 1.268 . S
O235 Sc221 2.112 . S
O235 C229 1.268 . S
O236 Sc220 2.105 . S
O236 C228 1.268 1_565 S
O237 Sc221 2.102 1_565 S
O237 C227 1.268 . S
O238 Sc222 2.105 . S
O238 C229 1.268 . S
O239 Sc220 2.105 . S
O239 C225 1.268 . S
O240 Sc222 2.105 1_565 S
O240 C224 1.268 . S
O241 Sc221 2.108 . S
O241 C226 1.268 . S
Sc242 O245 2.025 1_565 S
Sc242 O252 2.105 . S
Sc242 O255 2.105 . S
Sc242 O258 2.105 1_565 S
Sc242 O261 2.105 . S
Sc243 O245 2.024 1_565 S
Sc243 O253 2.112 . S
Sc243 O257 2.097 1_565 S
Sc243 O259 2.108 . S
Sc243 O263 2.102 1_565 S
Sc244 O245 2.025 . S
Sc244 O254 2.105 . S
Sc244 O256 2.105 . S
Sc244 O260 2.105 . S
Sc244 O262 2.105 . S
O245 Sc242 2.025 1_545 S
O245 Sc243 2.024 1_545 S
O245 Sc244 2.025 . S
C246 O252 1.268 . S
C246 O262 1.268 1_565 S
C247 O253 1.268 . S
C247 O261 1.268 . S
C248 O254 1.268 . S
C248 O263 1.268 . S
C249 O255 1.268 . S
C249 O259 1.268 . S
C250 O256 1.268 . S
C250 O258 1.268 . S
C251 O257 1.268 . S
C251 O260 1.268 . S
O252 Sc242 2.105 . S
O252 C246 1.268 . S
O253 Sc243 2.112 . S
O253 C247 1.268 . S
O254 Sc244 2.105 . S
O254 C248 1.268 . S
O255 Sc242 2.105 . S
O255 C249 1.268 . S
O256 Sc244 2.105 . S
O256 C250 1.268 . S
O257 Sc243 2.097 1_545 S
O257 C251 1.268 . S
O258 Sc242 2.105 1_545 S
O258 C250 1.268 . S
O259 Sc243 2.108 . S
O259 C249 1.268 . S
O260 Sc244 2.105 . S
O260 C251 1.268 . S
O261 Sc242 2.105 . S
O261 C247 1.268 . S
O262 Sc244 2.105 . S
O262 C246 1.268 1_545 S
O263 Sc243 2.102 1_545 S
O263 C248 1.268 . S
Sc264 O267 2.024 1_554 S
Sc264 O274 2.112 . S
Sc264 O277 2.097 1_554 S
Sc264 O280 2.108 . S
Sc264 O283 2.102 1_554 S
Sc265 O267 2.025 . S
Sc265 O275 2.105 . S
Sc265 O279 2.105 . S
Sc265 O281 2.105 . S
Sc265 O285 2.105 . S
Sc266 O267 2.025 1_554 S
Sc266 O276 2.105 . S
Sc266 O278 2.105 . S
Sc266 O282 2.105 1_554 S
Sc266 O284 2.105 . S
O267 Sc264 2.024 1_556 S
O267 Sc265 2.025 . S
O267 Sc266 2.025 1_556 S
C268 O274 1.268 . S
C268 O284 1.268 . S
C269 O275 1.268 . S
C269 O283 1.268 . S
C270 O276 1.268 . S
C270 O285 1.268 1_554 S
C271 O277 1.268 . S
C271 O281 1.268 . S
C272 O278 1.268 . S
C272 O280 1.268 . S
C273 O279 1.268 . S
C273 O282 1.268 . S
O274 Sc264 2.112 . S
O274 C268 1.268 . S
O275 Sc265 2.105 . S
O275 C269 1.268 . S
O276 Sc266 2.105 . S
O276 C270 1.268 . S
O277 Sc264 2.097 1_556 S
O277 C271 1.268 . S
O278 Sc266 2.105 . S
O278 C272 1.268 . S
O279 Sc265 2.105 . S
O279 C273 1.268 . S
O280 Sc264 2.108 . S
O280 C272 1.268 . S
O281 Sc265 2.105 . S
O281 C271 1.268 . S
O282 Sc266 2.105 1_556 S
O282 C273 1.268 . S
O283 Sc264 2.102 1_556 S
O283 C269 1.268 . S
O284 Sc266 2.105 . S
O284 C268 1.268 . S
O285 Sc265 2.105 . S
O285 C270 1.268 1_556 S
Sc286 O289 2.024 1_455 S
Sc286 O296 2.113 . S
Sc286 O299 2.097 1_455 S
Sc286 O302 2.108 . S
Sc286 O305 2.102 1_455 S
Sc287 O289 2.025 . S
Sc287 O297 2.105 . S
Sc287 O301 2.105 . S
Sc287 O303 2.105 . S
Sc287 O307 2.105 . S
Sc288 O289 2.025 1_455 S
Sc288 O298 2.105 . S
Sc288 O300 2.105 . S
Sc288 O304 2.105 1_455 S
Sc288 O306 2.105 . S
O289 Sc286 2.024 1_655 S
O289 Sc287 2.025 . S
O289 Sc288 2.025 1_655 S
C290 O296 1.268 . S
C290 O306 1.268 . S
C291 O297 1.268 . S
C291 O305 1.268 . S
C292 O298 1.268 . S
C292 O307 1.268 1_455 S
C293 O299 1.268 . S
C293 O303 1.268 . S
C294 O300 1.268 . S
C294 O302 1.268 . S
C295 O301 1.268 . S
C295 O304 1.268 . S
O296 Sc286 2.113 . S
O296 C290 1.268 . S
O297 Sc287 2.105 . S
O297 C291 1.268 . S
O298 Sc288 2.105 . S
O298 C292 1.268 . S
O299 Sc286 2.097 1_655 S
O299 C293 1.268 . S
O300 Sc288 2.105 . S
O300 C294 1.268 . S
O301 Sc287 2.105 . S
O301 C295 1.268 . S
O302 Sc286 2.108 . S
O302 C294 1.268 . S
O303 Sc287 2.105 . S
O303 C293 1.268 . S
O304 Sc288 2.105 1_655 S
O304 C295 1.268 . S
O305 Sc286 2.102 1_655 S
O305 C291 1.268 . S
O306 Sc288 2.105 . S
O306 C290 1.268 . S
O307 Sc287 2.105 . S
O307 C292 1.268 1_655 S
Sc308 O311 2.025 . S
Sc308 O318 2.105 . S
Sc308 O321 2.105 . S
Sc308 O324 2.105 . S
Sc308 O327 2.105 . S
Sc309 O311 2.025 . S
Sc309 O319 2.105 . S
Sc309 O323 2.105 . S
Sc309 O325 2.105 . S
Sc309 O329 2.105 . S
Sc310 O311 2.025 . S
Sc310 O320 2.105 . S
Sc310 O322 2.105 . S
Sc310 O326 2.105 . S
Sc310 O328 2.105 . S
O311 Sc308 2.025 . S
O311 Sc309 2.025 . S
O311 Sc310 2.025 . S
C312 O318 1.268 . S
C312 O328 1.268 . S
C313 O319 1.268 . S
C313 O327 1.268 . S
C314 O320 1.268 . S
C314 O329 1.268 . S
C315 O321 1.268 . S
C315 O325 1.268 . S
C316 O322 1.268 . S
C316 O324 1.268 . S
C317 O323 1.268 . S
C317 O326 1.268 . S
O318 Sc308 2.105 . S
O318 C312 1.268 . S
O319 Sc309 2.105 . S
O319 C313 1.268 . S
O320 Sc310 2.105 . S
O320 C314 1.268 . S
O321 Sc308 2.105 . S
O321 C315 1.268 . S
O322 Sc310 2.105 . S
O322 C316 1.268 . S
O323 Sc309 2.105 . S
O323 C317 1.268 . S
O324 Sc308 2.105 . S
O324 C316 1.268 . S
O325 Sc309 2.105 . S
O325 C315 1.268 . S
O326 Sc310 2.105 . S
O326 C317 1.268 . S
O327 Sc308 2.105 . S
O327 C313 1.268 . S
O328 Sc310 2.105 . S
O328 C312 1.268 . S
O329 Sc309 2.105 . S
O329 C314 1.268 . S
Sc330 O333 2.025 . S
Sc330 O340 2.105 . S
Sc330 O343 2.105 . S
Sc330 O346 2.105 . S
Sc330 O349 2.105 . S
Sc331 O333 2.024 1_455 S
Sc331 O341 2.097 1_455 S
Sc331 O345 2.112 . S
Sc331 O347 2.102 1_455 S
Sc331 O351 2.108 . S
Sc332 O333 2.025 1_455 S
Sc332 O342 2.105 . S
Sc332 O344 2.105 . S
Sc332 O348 2.105 . S
Sc332 O350 2.105 1_455 S
O333 Sc330 2.025 . S
O333 Sc331 2.024 1_655 S
O333 Sc332 2.025 1_655 S
C334 O340 1.268 . S
C334 O350 1.268 . S
C335 O341 1.268 . S
C335 O349 1.268 . S
C336 O342 1.268 . S
C336 O351 1.268 . S
C337 O343 1.268 . S
C337 O347 1.268 . S
C338 O344 1.268 . S
C338 O346 1.268 1_455 S
C339 O345 1.268 . S
C339 O348 1.268 . S
O340 Sc330 2.105 . S
O340 C334 1.268 . S
O341 Sc331 2.097 1_655 S
O341 C335 1.268 . S
O342 Sc332 2.105 . S
O342 C336 1.268 . S
O343 Sc330 2.105 . S
O343 C337 1.268 . S
O344 Sc332 2.105 . S
O344 C338 1.268 . S
O345 Sc331 2.112 . S
O345 C339 1.268 . S
O346 Sc330 2.105 . S
O346 C338 1.268 1_655 S
O347 Sc331 2.102 1_655 S
O347 C337 1.268 . S
O348 Sc332 2.105 . S
O348 C339 1.268 . S
O349 Sc330 2.105 . S
O349 C335 1.268 . S
O350 Sc332 2.105 1_655 S
O350 C334 1.268 . S
O351 Sc331 2.108 . S
O351 C336 1.268 . S
Sc352 O355 2.025 . S
Sc352 O362 2.105 . S
Sc352 O365 2.105 . S
Sc352 O368 2.105 . S
Sc352 O371 2.105 . S
Sc353 O355 2.025 . S
Sc353 O363 2.105 . S
Sc353 O367 2.105 . S
Sc353 O369 2.105 . S
Sc353 O373 2.105 . S
Sc354 O355 2.025 . S
Sc354 O364 2.105 . S
Sc354 O366 2.105 . S
Sc354 O370 2.105 . S
Sc354 O372 2.105 . S
O355 Sc352 2.025 . S
O355 Sc353 2.025 . S
O355 Sc354 2.025 . S
C356 O362 1.268 . S
C356 O372 1.268 . S
C357 O363 1.268 . S
C357 O371 1.268 . S
C358 O364 1.268 . S
C358 O373 1.268 . S
C359 O365 1.268 . S
C359 O369 1.268 . S
C360 O366 1.268 . S
C360 O368 1.268 . S
C361 O367 1.268 . S
C361 O370 1.268 . S
O362 Sc352 2.105 . S
O362 C356 1.268 . S
O363 Sc353 2.105 . S
O363 C357 1.268 . S
O364 Sc354 2.105 . S
O364 C358 1.268 . S
O365 Sc352 2.105 . S
O365 C359 1.268 . S
O366 Sc354 2.105 . S
O366 C360 1.268 . S
O367 Sc353 2.105 . S
O367 C361 1.268 . S
O368 Sc352 2.105 . S
O368 C360 1.268 . S
O369 Sc353 2.105 . S
O369 C359 1.268 . S
O370 Sc354 2.105 . S
O370 C361 1.268 . S
O371 Sc352 2.105 . S
O371 C357 1.268 . S
O372 Sc354 2.105 . S
O372 C356 1.268 . S
O373 Sc353 2.105 . S
O373 C358 1.268 . S
Sc374 O377 2.025 . S
Sc374 O384 2.105 . S
Sc374 O387 2.105 . S
Sc374 O390 2.105 . S
Sc374 O393 2.105 . S
Sc375 O377 2.025 . S
Sc375 O385 2.105 . S
Sc375 O389 2.105 . S
Sc375 O391 2.105 . S
Sc375 O395 2.105 . S
Sc376 O377 2.025 . S
Sc376 O386 2.105 . S
Sc376 O388 2.105 . S
Sc376 O392 2.105 . S
Sc376 O394 2.105 . S
O377 Sc374 2.025 . S
O377 Sc375 2.025 . S
O377 Sc376 2.025 . S
C378 O384 1.268 . S
C378 O394 1.268 . S
C379 O385 1.268 . S
C379 O393 1.268 . S
C380 O386 1.268 . S
C380 O395 1.268 . S
C381 O387 1.268 . S
C381 O391 1.268 . S
C382 O388 1.268 . S
C382 O390 1.268 . S
C383 O389 1.268 . S
C383 O392 1.268 . S
O384 Sc374 2.105 . S
O384 C378 1.268 . S
O385 Sc375 2.105 . S
O385 C379 1.268 . S
O386 Sc376 2.105 . S
O386 C380 1.268 . S
O387 Sc374 2.105 . S
O387 C381 1.268 . S
O388 Sc376 2.105 . S
O388 C382 1.268 . S
O389 Sc375 2.105 . S
O389 C383 1.268 . S
O390 Sc374 2.105 . S
O390 C382 1.268 . S
O391 Sc375 2.105 . S
O391 C381 1.268 . S
O392 Sc376 2.105 . S
O392 C383 1.268 . S
O393 Sc374 2.105 . S
O393 C379 1.268 . S
O394 Sc376 2.105 . S
O394 C378 1.268 . S
O395 Sc375 2.105 . S
O395 C380 1.268 . S
Sc396 O399 2.025 1_556 S
Sc396 O406 2.105 . S
Sc396 O409 2.105 . S
Sc396 O412 2.105 1_556 S
Sc396 O415 2.105 . S
Sc397 O399 2.024 1_556 S
Sc397 O407 2.112 . S
Sc397 O411 2.097 1_556 S
Sc397 O413 2.108 . S
Sc397 O417 2.102 1_556 S
Sc398 O399 2.025 . S
Sc398 O408 2.105 . S
Sc398 O410 2.105 . S
Sc398 O414 2.105 . S
Sc398 O416 2.105 . S
O399 Sc396 2.025 1_554 S
O399 Sc397 2.024 1_554 S
O399 Sc398 2.025 . S
C400 O406 1.268 . S
C400 O416 1.268 1_556 S
C401 O407 1.268 . S
C401 O415 1.268 . S
C402 O408 1.268 . S
C402 O417 1.268 . S
C403 O409 1.268 . S
C403 O413 1.268 . S
C404 O410 1.268 . S
C404 O412 1.268 . S
C405 O411 1.268 . S
C405 O414 1.268 . S
O406 Sc396 2.105 . S
O406 C400 1.268 . S
O407 Sc397 2.112 . S
O407 C401 1.268 . S
O408 Sc398 2.105 . S
O408 C402 1.268 . S
O409 Sc396 2.105 . S
O409 C403 1.268 . S
O410 Sc398 2.105 . S
O410 C404 1.268 . S
O411 Sc397 2.097 1_554 S
O411 C405 1.268 . S
O412 Sc396 2.105 1_554 S
O412 C404 1.268 . S
O413 Sc397 2.108 . S
O413 C403 1.268 . S
O414 Sc398 2.105 . S
O414 C405 1.268 . S
O415 Sc396 2.105 . S
O415 C401 1.268 . S
O416 Sc398 2.105 . S
O416 C400 1.268 1_554 S
O417 Sc397 2.102 1_554 S
O417 C402 1.268 . S
Sc418 O421 2.025 . S
Sc418 O428 2.105 . S
Sc418 O431 2.105 . S
Sc418 O434 2.105 . S
Sc418 O437 2.105 . S
Sc419 O421 2.025 . S
Sc419 O429 2.105 . S
Sc419 O433 2.105 . S
Sc419 O435 2.105 . S
Sc419 O439 2.105 . S
Sc420 O421 2.025 . S
Sc420 O430 2.105 . S
Sc420 O432 2.105 . S
Sc420 O436 2.105 . S
Sc420 O438 2.105 . S
O421 Sc418 2.025 . S
O421 Sc419 2.025 . S
O421 Sc420 2.025 . S
C422 O428 1.268 . S
C422 O438 1.268 . S
C423 O429 1.268 . S
C423 O437 1.268 . S
C424 O430 1.268 . S
C424 O439 1.268 . S
C425 O431 1.268 . S
C425 O435 1.268 . S
C426 O432 1.268 . S
C426 O434 1.268 . S
C427 O433 1.268 . S
C427 O436 1.268 . S
O428 Sc418 2.105 . S
O428 C422 1.268 . S
O429 Sc419 2.105 . S
O429 C423 1.268 . S
O430 Sc420 2.105 . S
O430 C424 1.268 . S
O431 Sc418 2.105 . S
O431 C425 1.268 . S
O432 Sc420 2.105 . S
O432 C426 1.268 . S
O433 Sc419 2.105 . S
O433 C427 1.268 . S
O434 Sc418 2.105 . S
O434 C426 1.268 . S
O435 Sc419 2.105 . S
O435 C425 1.268 . S
O436 Sc420 2.105 . S
O436 C427 1.268 . S
O437 Sc418 2.105 . S
O437 C423 1.268 . S
O438 Sc420 2.105 . S
O438 C422 1.268 . S
O439 Sc419 2.105 . S
O439 C424 1.268 . S
Sc440 O443 2.025 . S
Sc440 O450 2.105 . S
Sc440 O453 2.105 . S
Sc440 O456 2.105 . S
Sc440 O459 2.105 . S
Sc441 O443 2.025 . S
Sc441 O451 2.105 . S
Sc441 O455 2.105 . S
Sc441 O457 2.105 . S
Sc441 O461 2.105 . S
Sc442 O443 2.025 . S
Sc442 O452 2.105 . S
Sc442 O454 2.105 . S
Sc442 O458 2.105 . S
Sc442 O460 2.105 . S
O443 Sc440 2.025 . S
O443 Sc441 2.025 . S
O443 Sc442 2.025 . S
C444 O450 1.268 . S
C444 O460 1.268 . S
C445 O451 1.268 . S
C445 O459 1.268 . S
C446 O452 1.268 . S
C446 O461 1.268 . S
C447 O453 1.268 . S
C447 O457 1.268 . S
C448 O454 1.268 . S
C448 O456 1.268 . S
C449 O455 1.268 . S
C449 O458 1.268 . S
O450 Sc440 2.105 . S
O450 C444 1.268 . S
O451 Sc441 2.105 . S
O451 C445 1.268 . S
O452 Sc442 2.105 . S
O452 C446 1.268 . S
O453 Sc440 2.105 . S
O453 C447 1.268 . S
O454 Sc442 2.105 . S
O454 C448 1.268 . S
O455 Sc441 2.105 . S
O455 C449 1.268 . S
O456 Sc440 2.105 . S
O456 C448 1.268 . S
O457 Sc441 2.105 . S
O457 C447 1.268 . S
O458 Sc442 2.105 . S
O458 C449 1.268 . S
O459 Sc440 2.105 . S
O459 C445 1.268 . S
O460 Sc442 2.105 . S
O460 C444 1.268 . S
O461 Sc441 2.105 . S
O461 C446 1.268 . S
Sc462 O465 2.025 . S
Sc462 O472 2.105 . S
Sc462 O475 2.105 . S
Sc462 O478 2.105 . S
Sc462 O481 2.105 . S
Sc463 O465 2.025 . S
Sc463 O473 2.105 . S
Sc463 O477 2.105 . S
Sc463 O479 2.105 . S
Sc463 O483 2.105 . S
Sc464 O465 2.025 . S
Sc464 O474 2.105 . S
Sc464 O476 2.105 . S
Sc464 O480 2.105 . S
Sc464 O482 2.105 . S
O465 Sc462 2.025 . S
O465 Sc463 2.025 . S
O465 Sc464 2.025 . S
C466 O472 1.268 . S
C466 O482 1.268 . S
C467 O473 1.268 . S
C467 O481 1.268 . S
C468 O474 1.268 . S
C468 O483 1.268 . S
C469 O475 1.268 . S
C469 O479 1.268 . S
C470 O476 1.268 . S
C470 O478 1.268 . S
C471 O477 1.268 . S
C471 O480 1.268 . S
O472 Sc462 2.105 . S
O472 C466 1.268 . S
O473 Sc463 2.105 . S
O473 C467 1.268 . S
O474 Sc464 2.105 . S
O474 C468 1.268 . S
O475 Sc462 2.105 . S
O475 C469 1.268 . S
O476 Sc464 2.105 . S
O476 C470 1.268 . S
O477 Sc463 2.105 . S
O477 C471 1.268 . S
O478 Sc462 2.105 . S
O478 C470 1.268 . S
O479 Sc463 2.105 . S
O479 C469 1.268 . S
O480 Sc464 2.105 . S
O480 C471 1.268 . S
O481 Sc462 2.105 . S
O481 C467 1.268 . S
O482 Sc464 2.105 . S
O482 C466 1.268 . S
O483 Sc463 2.105 . S
O483 C468 1.268 . S
Sc484 O487 2.025 . S
Sc484 O494 2.105 . S
Sc484 O497 2.105 . S
Sc484 O500 2.105 . S
Sc484 O503 2.105 . S
Sc485 O487 2.025 . S
Sc485 O495 2.105 . S
Sc485 O499 2.105 . S
Sc485 O501 2.105 . S
Sc485 O505 2.105 . S
Sc486 O487 2.025 . S
Sc486 O496 2.105 . S
Sc486 O498 2.105 . S
Sc486 O502 2.105 . S
Sc486 O504 2.105 . S
O487 Sc484 2.025 . S
O487 Sc485 2.025 . S
O487 Sc486 2.025 . S
C488 O494 1.268 . S
C488 O504 1.268 . S
C489 O495 1.268 . S
C489 O503 1.268 . S
C490 O496 1.268 . S
C490 O505 1.268 . S
C491 O497 1.268 . S
C491 O501 1.268 . S
C492 O498 1.268 . S
C492 O500 1.268 . S
C493 O499 1.268 . S
C493 O502 1.268 . S
O494 Sc484 2.105 . S
O494 C488 1.268 . S
O495 Sc485 2.105 . S
O495 C489 1.268 . S
O496 Sc486 2.105 . S
O496 C490 1.268 . S
O497 Sc484 2.105 . S
O497 C491 1.268 . S
O498 Sc486 2.105 . S
O498 C492 1.268 . S
O499 Sc485 2.105 . S
O499 C493 1.268 . S
O500 Sc484 2.105 . S
O500 C492 1.268 . S
O501 Sc485 2.105 . S
O501 C491 1.268 . S
O502 Sc486 2.105 . S
O502 C493 1.268 . S
O503 Sc484 2.105 . S
O503 C489 1.268 . S
O504 Sc486 2.105 . S
O504 C488 1.268 . S
O505 Sc485 2.105 . S
O505 C490 1.268 . S
Sc506 O509 2.025 . S
Sc506 O516 2.105 . S
Sc506 O519 2.105 . S
Sc506 O522 2.105 . S
Sc506 O525 2.105 . S
Sc507 O509 2.025 . S
Sc507 O517 2.105 . S
Sc507 O521 2.105 . S
Sc507 O523 2.105 . S
Sc507 O527 2.105 . S
Sc508 O509 2.025 . S
Sc508 O518 2.105 . S
Sc508 O520 2.105 . S
Sc508 O524 2.105 . S
Sc508 O526 2.105 . S
O509 Sc506 2.025 . S
O509 Sc507 2.025 . S
O509 Sc508 2.025 . S
C510 O516 1.268 . S
C510 O526 1.268 . S
C511 O517 1.268 . S
C511 O525 1.268 . S
C512 O518 1.268 . S
C512 O527 1.268 . S
C513 O519 1.268 . S
C513 O523 1.268 . S
C514 O520 1.268 . S
C514 O522 1.268 . S
C515 O521 1.268 . S
C515 O524 1.268 . S
O516 Sc506 2.105 . S
O516 C510 1.268 . S
O517 Sc507 2.105 . S
O517 C511 1.268 . S
O518 Sc508 2.105 . S
O518 C512 1.268 . S
O519 Sc506 2.105 . S
O519 C513 1.268 . S
O520 Sc508 2.105 . S
O520 C514 1.268 . S
O521 Sc507 2.105 . S
O521 C515 1.268 . S
O522 Sc506 2.105 . S
O522 C514 1.268 . S
O523 Sc507 2.105 . S
O523 C513 1.268 . S
O524 Sc508 2.105 . S
O524 C515 1.268 . S
O525 Sc506 2.105 . S
O525 C511 1.268 . S
O526 Sc508 2.105 . S
O526 C510 1.268 . S
O527 Sc507 2.105 . S
O527 C512 1.268 . S
C7 C159 0.696 . S
C29 C95 0.697 . S
C49 C119 0.696 . S
C72 C139 0.696 . S
C5 C183 0.696 . S
C205 C27 0.696 . S
C227 C51 0.697 . S
C75 C251 0.696 . S
C93 C203 0.696 . S
C225 C116 0.696 . S
C137 C248 0.697 . S
C161 C181 0.696 . S
C269 C469 0.697 . S
C293 C493 0.696 . S
C317 C515 0.696 . S
C512 C335 0.696 . S
C467 C357 0.696 . S
C379 C424 0.697 . S
C271 C359 0.696 . S
C405 C291 0.696 . S
C337 C314 0.697 . S
C449 C381 0.697 . S
C402 C490 0.697 . S
C427 C446 0.697 . S
C94 C6 0.698 1_565 S
C114 C28 0.698 . S
C52 C138 0.698 1_565 S
C73 C162 0.698 1_554 S
C249 C182 0.698 1_556 S
C184 C204 0.698 1_565 S
C206 C226 0.698 . S
C246 C228 0.698 1_565 S
C403 C160 0.698 1_655 S
C70 C272 0.698 . S
C8 C292 0.698 1_655 S
C30 C312 0.698 1_455 S
C422 C117 0.698 . S
C96 C338 0.698 1_655 S
C140 C360 0.698 . S
C358 C382 0.698 . S
C400 C270 0.698 1_556 S
C294 C336 0.698 . S
C425 C315 0.698 . S
C444 C513 0.698 . S
C447 C468 0.698 . S
C488 C470 0.698 1_554 S
C510 C491 0.698 . S
C380 C50 0.698 . S
C4 C202 3.536 . S
C26 C224 3.535 . S
C53 C247 3.536 . S
C180 C74 3.536 . S
C92 C185 3.536 . S
C207 C115 3.536 . S
C229 C136 3.535 . S
C163 C250 3.536 . S
C158 C290 3.536 . S
C141 C273 3.535 . S
C97 C313 3.536 . S
C404 C9 3.536 . S
C378 C118 3.536 . S
C31 C339 3.535 . S
C71 C361 3.536 . S
C466 C383 3.536 . S
C489 C268 3.535 . S
C511 C295 3.536 . S
C445 C316 3.536 . S
C448 C356 3.536 . S
C401 C471 3.536 . S
C492 C334 3.535 . S
C426 C514 3.536 . S
C48 C423 3.536 . S
