# Generated by pormake.
# Topology uog, (4)-cn, num edge types: 1
# Building blocks:
#     Node 0, Type 0, BuildingBlock: QUQFOY_clean_sbu_3, # of connection points: 4
#     Node 1, Type 0, BuildingBlock: QUQFOY_clean_sbu_3, # of connection points: 4
#     Node 2, Type 0, BuildingBlock: QUQFOY_clean_sbu_3, # of connection points: 4
#     Node 3, Type 0, BuildingBlock: QUQFOY_clean_sbu_3, # of connection points: 4
#     Node 4, Type 0, BuildingBlock: QUQFOY_clean_sbu_3, # of connection points: 4
#     Node 5, Type 0, BuildingBlock: QUQFOY_clean_sbu_3, # of connection points: 4
#     Edge 6, Type (0, 0), BuildingBlock: MIFKUJ_clean_linker_0, # of connection points: 2
#     Edge 7, Type (0, 0), BuildingBlock: MIFKUJ_clean_linker_0, # of connection points: 2
#     Edge 8, Type (0, 0), BuildingBlock: MIFKUJ_clean_linker_0, # of connection points: 2
#     Edge 9, Type (0, 0), BuildingBlock: MIFKUJ_clean_linker_0, # of connection points: 2
#     Edge 10, Type (0, 0), BuildingBlock: MIFKUJ_clean_linker_0, # of connection points: 2
#     Edge 11, Type (0, 0), BuildingBlock: MIFKUJ_clean_linker_0, # of connection points: 2
#     Edge 12, Type (0, 0), BuildingBlock: MIFKUJ_clean_linker_0, # of connection points: 2
#     Edge 13, Type (0, 0), BuildingBlock: MIFKUJ_clean_linker_0, # of connection points: 2
#     Edge 14, Type (0, 0), BuildingBlock: MIFKUJ_clean_linker_0, # of connection points: 2
#     Edge 15, Type (0, 0), BuildingBlock: MIFKUJ_clean_linker_0, # of connection points: 2
#     Edge 16, Type (0, 0), BuildingBlock: MIFKUJ_clean_linker_0, # of connection points: 2
#     Edge 17, Type (0, 0), BuildingBlock: MIFKUJ_clean_linker_0, # of connection points: 2
# Relax obj value: 0.082
# Max RMSD: 0.178
# Mean RMSD: 0.178
data_MOF--net-uog--node1-QUQFOY_clean_sbu_3--edge1-MIFKUJ_clean_linker_0
_symmetry_space_group_name_H-M    P1
_symmetry_Int_Tables_number       1
_symmetry_cell_setting            triclinic
loop_
_symmetry_equiv_pos_as_xyz
'x, y, z'
_cell_length_a     37.873285
_cell_length_b     37.789799
_cell_length_c     56.969505
_cell_angle_alpha  89.47013
_cell_angle_beta   89.617407
_cell_angle_gamma 119.85003
loop_
_atom_site_label
_atom_site_type_symbol
_atom_site_fract_x
_atom_site_fract_y
_atom_site_fract_z
_atom_type_partial_charge
C0 C 0.68233 0.35051 0.18004 0.0
O1 O 0.70566 0.38062 0.16691 0.0
Cd2 Cd 0.67955 0.3914 0.1306 0.0
O3 O 0.64685 0.32469 0.1733 0.0
Cd4 Cd 0.60025 0.30522 0.1403 0.0
C5 C 0.5916 0.38774 0.15191 0.0
O6 O 0.64754 0.33177 0.10671 0.0
O7 O 0.58484 0.31594 0.10098 0.0
O8 O 0.60066 0.24197 0.14326 0.0
C9 C 0.62016 0.32814 0.0925 0.0
O10 O 0.62756 0.4071 0.14328 0.0
C11 C 0.56249 0.21853 0.14503 0.0
O12 O 0.57325 0.34895 0.15445 0.0
O13 O 0.54053 0.23539 0.1448 0.0
C14 C 0.33073 0.69288 0.51408 0.0
O15 O 0.3229 0.71624 0.50179 0.0
Cd16 Cd 0.28512 0.68989 0.46599 0.0
O17 O 0.32191 0.65792 0.50659 0.0
Cd18 Cd 0.2953 0.61253 0.47312 0.0
C19 C 0.20364 0.60039 0.48792 0.0
O20 O 0.3126 0.65989 0.43961 0.0
O21 O 0.26644 0.59662 0.4347 0.0
O22 O 0.35991 0.61478 0.47324 0.0
C23 C 0.2883 0.63207 0.4259 0.0
O24 O 0.21858 0.63662 0.47976 0.0
C25 C 0.3463 0.57678 0.47579 0.0
O26 O 0.22523 0.58307 0.48899 0.0
O27 O 0.30772 0.55406 0.47699 0.0
C28 C 0.64122 0.3222 0.84578 0.0
O29 O 0.61125 0.31607 0.83317 0.0
Cd30 Cd 0.59833 0.27578 0.79826 0.0
O31 O 0.66586 0.31074 0.83888 0.0
Cd32 Cd 0.68426 0.28109 0.80645 0.0
C33 C 0.60125 0.19228 0.82223 0.0
O34 O 0.65688 0.29986 0.77279 0.0
O35 O 0.67211 0.25211 0.76797 0.0
O36 O 0.74705 0.3449 0.80674 0.0
C37 C 0.65952 0.27473 0.75917 0.0
O38 O 0.58203 0.20905 0.81371 0.0
C39 C 0.77076 0.33064 0.80966 0.0
O40 O 0.64012 0.21171 0.82305 0.0
O41 O 0.75433 0.2919 0.81101 0.0
C42 C 0.29479 0.65256 0.17838 0.0
O43 O 0.27197 0.6218 0.1661 0.0
Cd44 Cd 0.29975 0.61012 0.1305 0.0
O45 O 0.32993 0.67883 0.17077 0.0
Cd46 Cd 0.37702 0.69953 0.13739 0.0
C47 C 0.38915 0.61987 0.15289 0.0
O48 O 0.33132 0.66821 0.10427 0.0
O49 O 0.3956 0.6893 0.09888 0.0
O50 O 0.37423 0.76186 0.13728 0.0
C51 C 0.36006 0.673 0.09048 0.0
O52 O 0.35321 0.59825 0.14511 0.0
C53 C 0.41197 0.78598 0.14014 0.0
O54 O 0.40624 0.65877 0.15322 0.0
O55 O 0.43458 0.76995 0.14166 0.0
C56 C 0.64487 0.30683 0.51288 0.0
O57 O 0.65082 0.28438 0.49883 0.0
Cd58 Cd 0.68942 0.31348 0.46315 0.0
O59 O 0.65483 0.34317 0.50693 0.0
Cd60 Cd 0.68066 0.39241 0.47409 0.0
C61 C 0.77121 0.40049 0.48645 0.0
O62 O 0.66219 0.34746 0.44037 0.0
O63 O 0.70745 0.41104 0.43464 0.0
O64 O 0.61632 0.39047 0.47735 0.0
C65 C 0.68586 0.37575 0.4262 0.0
O66 O 0.75539 0.36504 0.4776 0.0
C67 C 0.63038 0.42853 0.47948 0.0
O68 O 0.75074 0.41888 0.48848 0.0
O69 O 0.66901 0.45098 0.47937 0.0
C70 C 0.3386 0.63296 0.84673 0.0
O71 O 0.36934 0.64348 0.83343 0.0
Cd72 Cd 0.37729 0.68285 0.79814 0.0
O73 O 0.31069 0.64046 0.84077 0.0
Cd74 Cd 0.2878 0.66833 0.80919 0.0
C75 C 0.36661 0.76056 0.82309 0.0
O76 O 0.3174 0.6547 0.77442 0.0
O77 O 0.29612 0.69812 0.77067 0.0
O78 O 0.22632 0.60274 0.81095 0.0
C79 C 0.31153 0.67859 0.76119 0.0
O80 O 0.38811 0.7472 0.81351 0.0
C81 C 0.20166 0.61586 0.81399 0.0
O82 O 0.32801 0.73791 0.82523 0.0
O83 O 0.21698 0.65442 0.81498 0.0
H84 H 0.60424 0.17766 0.14954 0.0
H85 H 0.57749 0.10426 0.14996 0.0
H86 H 0.4553 0.084 0.1443 0.0
H87 H 0.482 0.15809 0.14419 0.0
H88 H 0.45973 0.03089 0.17567 0.0
H89 H 0.5033 0.07582 0.0965 0.0
H90 H 0.55111 0.11888 0.06518 0.0
H91 H 0.6349 0.07899 0.08529 0.0
H92 H 0.58784 0.03612 0.11698 0.0
H93 H 0.36872 0.8258 0.13905 0.0
H94 H 0.39425 0.89891 0.14137 0.0
H95 H 0.51693 0.92058 0.14717 0.0
H96 H 0.4915 0.84697 0.14463 0.0
H97 H 0.51174 0.9729 0.11584 0.0
H98 H 0.46744 0.9274 0.19495 0.0
H99 H 0.41924 0.88434 0.22612 0.0
H100 H 0.33612 0.92497 0.20578 0.0
H101 H 0.38359 0.96785 0.17425 0.0
C102 C 0.57161 0.15771 0.14846 0.0
C103 C 0.54523 0.17375 0.14662 0.0
C104 C 0.5564 0.11569 0.14864 0.0
C105 C 0.51448 0.08865 0.14673 0.0
C106 C 0.48781 0.10438 0.14566 0.0
C107 C 0.50307 0.14666 0.14556 0.0
C108 C 0.49898 0.04408 0.14545 0.0
C109 C 0.47062 0.0181 0.16239 0.0
C110 C 0.51394 0.02755 0.12843 0.0
C111 C 0.54218 0.05303 0.10926 0.0
C112 C 0.53205 0.07645 0.09436 0.0
C113 C 0.55899 0.10079 0.07652 0.0
C114 C 0.59606 0.10175 0.07329 0.0
C115 C 0.6062 0.07825 0.08784 0.0
C116 C 0.57938 0.0539 0.10573 0.0
C117 C 0.40117 0.84601 0.14086 0.0
C118 C 0.42811 0.83053 0.1417 0.0
C119 C 0.41567 0.88785 0.1423 0.0
C120 C 0.45742 0.91519 0.14474 0.0
C121 C 0.48455 0.89996 0.14537 0.0
C122 C 0.47 0.85794 0.14397 0.0
C123 C 0.4726 0.95968 0.14612 0.0
C124 C 0.50086 0.98567 0.12915 0.0
C125 C 0.45745 0.97615 0.16306 0.0
C126 C 0.42892 0.95056 0.1821 0.0
C127 C 0.43874 0.92692 0.197 0.0
C128 C 0.41158 0.90258 0.21476 0.0
C129 C 0.37459 0.90184 0.21789 0.0
C130 C 0.36475 0.92554 0.20332 0.0
C131 C 0.3918 0.94989 0.18552 0.0
H132 H 0.3536 0.88298 0.23165 0.0
H133 H 0.61689 0.12063 0.05947 0.0
H134 H 0.429 0.6205 0.47609 0.0
H135 H 0.47674 0.59518 0.47811 0.0
H136 H 0.37663 0.47138 0.48069 0.0
H137 H 0.3282 0.49671 0.47905 0.0
H138 H 0.43511 0.48279 0.51193 0.0
H139 H 0.43135 0.51127 0.43017 0.0
H140 H 0.43493 0.55277 0.39562 0.0
H141 H 0.55827 0.6412 0.41201 0.0
H142 H 0.55525 0.60049 0.44686 0.0
H143 H 0.54771 0.38561 0.48263 0.0
H144 H 0.50063 0.41185 0.48386 0.0
H145 H 0.60174 0.53512 0.48188 0.0
H146 H 0.64945 0.50891 0.48038 0.0
H147 H 0.54321 0.52454 0.45087 0.0
H148 H 0.54716 0.49481 0.53234 0.0
H149 H 0.54328 0.45269 0.56663 0.0
H150 H 0.4193 0.36581 0.55052 0.0
H151 H 0.42261 0.40713 0.51592 0.0
C152 C 0.41696 0.58784 0.47707 0.0
C153 C 0.37472 0.56058 0.47725 0.0
C154 C 0.4444 0.57341 0.47814 0.0
C155 C 0.43033 0.53137 0.47917 0.0
C156 C 0.38815 0.50397 0.4798 0.0
C157 C 0.36053 0.51845 0.4788 0.0
C158 C 0.4599 0.51637 0.47959 0.0
C159 C 0.45838 0.49141 0.49841 0.0
C160 C 0.49097 0.52853 0.46226 0.0
C161 C 0.49294 0.553 0.44125 0.0
C162 C 0.45914 0.53972 0.42651 0.0
C163 C 0.46108 0.56308 0.40685 0.0
C164 C 0.49677 0.59965 0.40166 0.0
C165 C 0.53063 0.61289 0.41607 0.0
C166 C 0.52883 0.58966 0.43577 0.0
C167 C 0.5601 0.41835 0.48261 0.0
C168 C 0.60241 0.44521 0.48142 0.0
C169 C 0.53305 0.43329 0.48343 0.0
C170 C 0.54762 0.47544 0.48323 0.0
C171 C 0.58985 0.50245 0.48214 0.0
C172 C 0.61707 0.48747 0.48135 0.0
C173 C 0.51847 0.49097 0.48322 0.0
C174 C 0.52003 0.51599 0.46444 0.0
C175 C 0.48741 0.47877 0.50055 0.0
C176 C 0.48526 0.45391 0.52141 0.0
C177 C 0.51917 0.46656 0.536 0.0
C178 C 0.51705 0.44286 0.55551 0.0
C179 C 0.4811 0.40655 0.56072 0.0
C180 C 0.44715 0.39392 0.54645 0.0
C181 C 0.44911 0.4175 0.5269 0.0
H182 H 0.47953 0.38823 0.57584 0.0
H183 H 0.49822 0.61769 0.38643 0.0
H184 H 0.83183 0.31146 0.81377 0.0
H185 H 0.90535 0.35931 0.81592 0.0
H186 H 0.8832 0.46068 0.81195 0.0
H187 H 0.81042 0.4135 0.80942 0.0
H188 H 0.94339 0.47364 0.78332 0.0
H189 H 0.90791 0.43133 0.86394 0.0
H190 H 0.87923 0.38205 0.89696 0.0
H191 H 0.9628 0.3393 0.88196 0.0
H192 H -0.00837 0.38798 0.84863 0.0
H193 H 0.13933 0.63329 0.81556 0.0
H194 H 0.06596 0.58441 0.81644 0.0
H195 H 0.09058 0.48457 0.81705 0.0
H196 H 0.16354 0.53293 0.81635 0.0
H197 H 0.02958 0.47041 0.84754 0.0
H198 H 0.06461 0.51286 0.76678 0.0
H199 H 0.09332 0.56258 0.73397 0.0
H200 H 0.0101 0.6055 0.74964 0.0
H201 H 0.98126 0.55638 0.78277 0.0
C202 C 0.84271 0.34394 0.8134 0.0
C203 C 0.81526 0.35862 0.81139 0.0
C204 C 0.88469 0.37126 0.81473 0.0
C205 C 0.89982 0.41366 0.81425 0.0
C206 C 0.87236 0.42818 0.81228 0.0
C207 C 0.83064 0.40105 0.81089 0.0
C208 C 0.94423 0.44325 0.81534 0.0
C209 C 0.96208 0.47319 0.79754 0.0
C210 C 0.9689 0.44227 0.83361 0.0
C211 C 0.95162 0.41299 0.85363 0.0
C212 C 0.91994 0.41118 0.86756 0.0
C213 C 0.9037 0.38341 0.88635 0.0
C214 C 0.9191 0.35748 0.89151 0.0
C215 C 0.95085 0.35936 0.87791 0.0
C216 C 0.96717 0.38705 0.85908 0.0
C217 C 0.12907 0.60094 0.81603 0.0
C218 C 0.15726 0.58702 0.81574 0.0
C219 C 0.08717 0.57304 0.81645 0.0
C220 C 0.07279 0.5308 0.81657 0.0
C221 C 0.10093 0.51696 0.81695 0.0
C222 C 0.14267 0.54472 0.81645 0.0
C223 C 0.02852 0.50086 0.81562 0.0
C224 C 0.01077 0.47083 0.83338 0.0
C225 C 0.00387 0.50178 0.79735 0.0
C226 C 0.02108 0.53124 0.7774 0.0
C227 C 0.05266 0.53312 0.76334 0.0
C228 C 0.06892 0.56116 0.74467 0.0
C229 C 0.05363 0.58726 0.73976 0.0
C230 C 0.02196 0.58531 0.75349 0.0
C231 C 0.00563 0.55736 0.7722 0.0
H232 H 0.06624 0.60894 0.72529 0.0
H233 H 0.9065 0.33601 0.90607 0.0
H234 H 0.15413 0.51813 0.49647 0.0
H235 H 0.08017 0.48176 0.503 0.0
H236 H 0.08077 0.59619 0.5013 0.0
H237 H 0.15424 0.6326 0.49509 0.0
H238 H 0.02685 0.5445 0.53401 0.0
H239 H 0.06008 0.54081 0.45248 0.0
H240 H 0.09318 0.52623 0.41949 0.0
H241 H 0.0303 0.39911 0.43882 0.0
H242 H -0.00277 0.41307 0.47215 0.0
H243 H 0.82412 0.48177 0.49482 0.0
H244 H 0.89757 0.51398 0.50163 0.0
H245 H 0.88903 0.39582 0.5009 0.0
H246 H 0.81631 0.36371 0.49381 0.0
H247 H 0.94699 0.44682 0.47181 0.0
H248 H 0.90821 0.45054 0.55162 0.0
H249 H 0.87488 0.46648 0.58387 0.0
H250 H 0.94716 0.59433 0.56733 0.0
H251 H 0.98054 0.57911 0.53475 0.0
C252 C 0.13859 0.53555 0.49791 0.0
C253 C 0.16003 0.5782 0.49494 0.0
C254 C 0.09633 0.51475 0.50157 0.0
C255 C 0.07491 0.53627 0.50231 0.0
C256 C 0.09662 0.57896 0.50075 0.0
C257 C 0.13866 0.59969 0.49703 0.0
C258 C 0.02973 0.51453 0.50267 0.0
C259 C 0.0093 0.52323 0.52039 0.0
C260 C 0.00687 0.48652 0.48502 0.0
C261 C 0.02658 0.47805 0.46495 0.0
C262 C 0.05357 0.50981 0.4498 0.0
C263 C 0.07228 0.50165 0.43103 0.0
C264 C 0.06395 0.46179 0.42711 0.0
C265 C 0.03679 0.42998 0.44191 0.0
C266 C 0.01804 0.43799 0.46074 0.0
C267 C 0.83784 0.46267 0.49649 0.0
C268 C 0.81444 0.42025 0.49351 0.0
C269 C 0.87979 0.48108 0.50044 0.0
C270 C 0.89884 0.45728 0.50175 0.0
C271 C 0.8751 0.41482 0.4998 0.0
C272 C 0.83345 0.39652 0.49574 0.0
C273 C 0.94381 0.4765 0.50324 0.0
C274 C 0.9643 0.46758 0.48569 0.0
C275 C 0.96658 0.50439 0.52099 0.0
C276 C 0.94661 0.51364 0.54059 0.0
C277 C 0.91676 0.48203 0.55473 0.0
C278 C 0.89791 0.49094 0.5731 0.0
C279 C 0.90882 0.53138 0.57761 0.0
C280 C 0.9387 0.56301 0.5638 0.0
C281 C 0.95763 0.55426 0.54539 0.0
H282 H 0.89419 0.53822 0.59184 0.0
H283 H 0.07845 0.45553 0.41256 0.0
H284 H 0.33297 0.80829 0.83451 0.0
H285 H 0.36971 0.88184 0.84211 0.0
H286 H 0.48409 0.88346 0.836 0.0
H287 H 0.44796 0.81052 0.82879 0.0
H288 H 0.48749 0.93384 0.87012 0.0
H289 H 0.44455 0.90723 0.78922 0.0
H290 H 0.3943 0.87698 0.75763 0.0
H291 H 0.33235 0.93862 0.78278 0.0
H292 H 0.38198 0.96882 0.81472 0.0
H293 H 0.62746 0.13692 0.82932 0.0
H294 H 0.5848 0.0634 0.83694 0.0
H295 H 0.47824 0.07681 0.84058 0.0
H296 H 0.52027 0.14966 0.83262 0.0
H297 H 0.46634 0.01891 0.81132 0.0
H298 H 0.51556 0.05275 0.88962 0.0
H299 H 0.56712 0.08344 0.92048 0.0
H300 H 0.61857 0.00941 0.90004 0.0
H301 H 0.56765 0.97866 0.86883 0.0
C302 C 0.36589 0.82422 0.83521 0.0
C303 C 0.38751 0.80363 0.83071 0.0
C304 C 0.38686 0.86625 0.83947 0.0
C305 C 0.42969 0.88825 0.83929 0.0
C306 C 0.45109 0.86721 0.83619 0.0
C307 C 0.43029 0.82545 0.8319 0.0
C308 C 0.45265 0.9335 0.8403 0.0
C309 C 0.48298 0.95253 0.85725 0.0
C310 C 0.44639 0.95788 0.82372 0.0
C311 C 0.41664 0.93985 0.80451 0.0
C312 C 0.42002 0.91407 0.78811 0.0
C313 C 0.39169 0.89698 0.77013 0.0
C314 C 0.36007 0.90576 0.76825 0.0
C315 C 0.3568 0.93176 0.7843 0.0
C316 C 0.38501 0.94888 0.80233 0.0
C317 C 0.59505 0.12427 0.83217 0.0
C318 C 0.57724 0.14907 0.83012 0.0
C319 C 0.57069 0.08226 0.83659 0.0
C320 C 0.52823 0.06453 0.83933 0.0
C321 C 0.51082 0.08968 0.83839 0.0
C322 C 0.53498 0.1314 0.83383 0.0
C323 C 0.50144 0.01952 0.84112 0.0
C324 C 0.4705 0.00046 0.82452 0.0
C325 C 0.50732 -0.00475 0.85798 0.0
C326 C 0.53798 0.01365 0.87674 0.0
C327 C 0.53807 0.04325 0.89158 0.0
C328 C 0.56714 0.06061 0.90916 0.0
C329 C 0.59616 0.04845 0.91219 0.0
C330 C 0.5961 0.01883 0.89767 0.0
C331 C 0.5671 0.00138 0.88004 0.0
H332 H 0.61864 0.06193 0.92581 0.0
H333 H 0.33818 0.89252 0.75431 0.0
H334 H 0.4718 0.65144 0.15546 0.0
H335 H 0.50763 0.61297 0.1611 0.0
H336 H 0.39274 0.50229 0.1718 0.0
H337 H 0.35685 0.5403 0.1662 0.0
H338 H 0.45251 0.50558 0.20097 0.0
H339 H 0.43251 0.52154 0.11946 0.0
H340 H 0.43616 0.55938 0.08319 0.0
H341 H 0.56666 0.62572 0.0867 0.0
H342 H 0.56372 0.5887 0.12326 0.0
H343 H 0.5114 0.35897 0.16479 0.0
H344 H 0.47769 0.39947 0.17066 0.0
H345 H 0.59202 0.51008 0.15839 0.0
H346 H 0.62568 0.47034 0.15246 0.0
H347 H 0.53228 0.50686 0.1312 0.0
H348 H 0.55028 0.48532 0.21274 0.0
H349 H 0.5434 0.44416 0.24811 0.0
H350 H 0.41316 0.38405 0.24336 0.0
H351 H 0.41927 0.42448 0.20775 0.0
C352 C 0.45427 0.6191 0.15952 0.0
C353 C 0.41151 0.59881 0.16009 0.0
C354 C 0.47473 0.59714 0.16265 0.0
C355 C 0.45274 0.5547 0.16657 0.0
C356 C 0.41026 0.53497 0.16876 0.0
C357 C 0.38982 0.55675 0.16541 0.0
C358 C 0.47345 0.5302 0.16615 0.0
C359 C 0.46981 0.50564 0.1857 0.0
C360 C 0.49595 0.53032 0.14621 0.0
C361 C 0.49787 0.55272 0.12425 0.0
C362 C 0.46197 0.54449 0.11262 0.0
C363 C 0.46391 0.56572 0.09199 0.0
C364 C 0.50161 0.59501 0.08267 0.0
C365 C 0.53746 0.60308 0.09397 0.0
C366 C 0.53568 0.58198 0.11465 0.0
C367 C 0.5294 0.39193 0.16366 0.0
C368 C 0.57116 0.41132 0.15795 0.0
C369 C 0.51014 0.41503 0.16707 0.0
C370 C 0.53239 0.45781 0.16492 0.0
C371 C 0.57423 0.47714 0.16 0.0
C372 C 0.59341 0.45424 0.15663 0.0
C373 C 0.51204 0.48264 0.16619 0.0
C374 C 0.51541 0.50705 0.14663 0.0
C375 C 0.48897 0.48192 0.18602 0.0
C376 C 0.48525 0.45764 0.20744 0.0
C377 C 0.52018 0.46308 0.21911 0.0
C378 C 0.51642 0.43993 0.23923 0.0
C379 C 0.47787 0.41143 0.24794 0.0
C380 C 0.443 0.4061 0.23658 0.0
C381 C 0.4466 0.42914 0.21644 0.0
H382 H 0.47502 0.39355 0.26353 0.0
H383 H 0.50305 0.61136 0.06666 0.0
H384 H 0.58475 0.32889 0.87286 0.0
H385 H 0.59012 0.34501 0.91466 0.0
H386 H 0.7145 0.37033 0.91398 0.0
H387 H 0.70921 0.35376 0.87245 0.0
H388 H 0.67043 0.3144 0.94629 0.0
H389 H 0.69199 0.44593 0.92417 0.0
H390 H 0.67793 0.49538 0.90381 0.0
H391 H 0.56273 0.4455 0.93989 0.0
H392 H 0.57581 0.39534 0.96023 0.0
H393 H 0.69181 0.35304 0.06843 0.0
H394 H 0.70386 0.36598 0.02607 0.0
H395 H 0.57957 0.33809 0.01737 0.0
H396 H 0.56745 0.32563 0.05949 0.0
H397 H 0.63146 0.40291 -0.00995 0.0
H398 H 0.6052 0.26644 0.00734 0.0
H399 H 0.61676 0.21494 0.02728 0.0
H400 H 0.73882 0.27279 -0.00056 0.0
H401 H 0.72811 0.32498 -0.02042 0.0
C402 C 0.61353 0.33891 0.88149 0.0
C403 C 0.64635 0.3395 0.86948 0.0
C404 C 0.61662 0.34823 0.90536 0.0
C405 C 0.65271 0.35875 0.91743 0.0
C406 C 0.68633 0.36205 0.90503 0.0
C407 C 0.6832 0.35254 0.88129 0.0
C408 C 0.6538 0.36117 0.94337 0.0
C409 C 0.66283 0.33449 0.95584 0.0
C410 C 0.64278 0.38652 0.9558 0.0
C411 C 0.63477 0.41664 0.94359 0.0
C412 C 0.6635 0.44526 0.92762 0.0
C413 C 0.65573 0.47347 0.91611 0.0
C414 C 0.61942 0.47352 0.92052 0.0
C415 C 0.59083 0.44541 0.93648 0.0
C416 C 0.59844 0.41711 0.94803 0.0
C417 C 0.66719 0.34997 0.05749 0.0
C418 C 0.62859 0.33792 0.06723 0.0
C419 C 0.6741 0.35739 0.03334 0.0
C420 C 0.64248 0.35267 0.01861 0.0
C421 C 0.60439 0.34201 0.02844 0.0
C422 C 0.59747 0.33461 0.0525 0.0
C423 C 0.64794 0.35608 -0.00721 0.0
C424 C 0.63986 0.38353 -0.0196 0.0
C425 C 0.65957 0.33125 -0.01967 0.0
C426 C 0.66603 0.29988 -0.00778 0.0
C427 C 0.63461 0.26836 0.00564 0.0
C428 C 0.64098 0.23902 0.01689 0.0
C429 C 0.67855 0.24067 0.01469 0.0
C430 C 0.70977 0.27161 0.00117 0.0
C431 C 0.70356 0.30106 -0.01009 0.0
H432 H 0.68342 0.21792 0.02341 0.0
H433 H 0.61348 0.49539 0.91159 0.0
H434 H 0.33172 0.71915 0.20619 0.0
H435 H 0.32322 0.7213 0.24846 0.0
H436 H 0.22412 0.59707 0.24834 0.0
H437 H 0.23243 0.59446 0.20576 0.0
H438 H 0.21537 0.65075 0.28192 0.0
H439 H 0.30939 0.60648 0.25819 0.0
H440 H 0.36748 0.61174 0.23546 0.0
H441 H 0.4471 0.72689 0.26712 0.0
H442 H 0.38925 0.72264 0.28975 0.0
H443 H 0.23045 0.58145 0.39555 0.0
H444 H 0.22599 0.59233 0.35369 0.0
H445 H 0.33344 0.71115 0.35744 0.0
H446 H 0.33817 0.70047 0.39961 0.0
H447 H 0.33755 0.66455 0.32202 0.0
H448 H 0.24325 0.70452 0.34919 0.0
H449 H 0.1844 0.69796 0.37168 0.0
H450 H 0.10455 0.58945 0.33415 0.0
H451 H 0.16302 0.595 0.31165 0.0
C452 C 0.30747 0.69249 0.21499 0.0
C453 C 0.28324 0.65632 0.20269 0.0
C454 C 0.30262 0.69388 0.23916 0.0
C455 C 0.27353 0.65916 0.25148 0.0
C456 C 0.2468 0.62415 0.23905 0.0
C457 C 0.25165 0.62269 0.21476 0.0
C458 C 0.27501 0.65787 0.27737 0.0
C459 C 0.24184 0.6534 0.29077 0.0
C460 C 0.30996 0.66208 0.28877 0.0
C461 C 0.34492 0.66447 0.27545 0.0
C462 C 0.33922 0.63309 0.26015 0.0
C463 C 0.3721 0.63586 0.24731 0.0
C464 C 0.41094 0.66969 0.24979 0.0
C465 C 0.41698 0.70075 0.26518 0.0
C466 C 0.38416 0.69817 0.27803 0.0
C467 C 0.25302 0.61007 0.38755 0.0
C468 C 0.28482 0.64007 0.40084 0.0
C469 C 0.25022 0.61633 0.36364 0.0
C470 C 0.27915 0.65268 0.35253 0.0
C471 C 0.3107 0.68296 0.36577 0.0
C472 C 0.31336 0.67684 0.38981 0.0
C473 C 0.2779 0.65752 0.32679 0.0
C474 C 0.31116 0.66239 0.31331 0.0
C475 C 0.24291 0.6534 0.31542 0.0
C476 C 0.20761 0.64999 0.32887 0.0
C477 C 0.21319 0.67905 0.34586 0.0
C478 C 0.17989 0.67556 0.35859 0.0
C479 C 0.14077 0.64326 0.35438 0.0
C480 C 0.13487 0.61444 0.3374 0.0
C481 C 0.16809 0.61777 0.32463 0.0
H482 H 0.11503 0.64061 0.36426 0.0
H483 H 0.43636 0.67178 0.23983 0.0
H484 H 0.64052 0.32443 0.73339 0.0
H485 H 0.62537 0.31993 0.69143 0.0
H486 H 0.63652 0.21196 0.68699 0.0
H487 H 0.65258 0.21681 0.72861 0.0
H488 H 0.67961 0.26426 0.65365 0.0
H489 H 0.54313 0.20757 0.6832 0.0
H490 H 0.48776 0.2052 0.7074 0.0
H491 H 0.50483 0.31476 0.67362 0.0
H492 H 0.5607 0.31812 0.64942 0.0
H493 H 0.63076 0.23566 0.53447 0.0
H494 H 0.61904 0.21917 0.57644 0.0
H495 H 0.61545 0.32994 0.58822 0.0
H496 H 0.62634 0.34628 0.5464 0.0
H497 H 0.56291 0.26875 0.61768 0.0
H498 H 0.70398 0.33048 0.59269 0.0
H499 H 0.76072 0.3353 0.56869 0.0
H500 H 0.7357 0.21792 0.59468 0.0
H501 H 0.67844 0.2122 0.6186 0.0
C502 C 0.63941 0.29958 0.72348 0.0
C503 C 0.64802 0.27116 0.73423 0.0
C504 C 0.63047 0.29686 0.69956 0.0
C505 C 0.62946 0.26537 0.68612 0.0
C506 C 0.63715 0.23649 0.697 0.0
C507 C 0.64637 0.23937 0.7208 0.0
C508 C 0.62348 0.26417 0.6604 0.0
C509 C 0.65359 0.26435 0.64584 0.0
C510 C 0.59007 0.2653 0.65017 0.0
C511 C 0.55634 0.26326 0.66462 0.0
C512 C 0.53529 0.23133 0.68105 0.0
C513 C 0.50377 0.22977 0.69474 0.0
C514 C 0.49284 0.25985 0.69208 0.0
C515 C 0.51334 0.29149 0.67567 0.0
C516 C 0.54491 0.29321 0.66194 0.0
C517 C 0.6265 0.25601 0.5459 0.0
C518 C 0.63027 0.29267 0.53716 0.0
C519 C 0.61988 0.24658 0.56988 0.0
C520 C 0.6172 0.27378 0.58545 0.0
C521 C 0.6176 0.30864 0.57651 0.0
C522 C 0.6241 0.31804 0.55258 0.0
C523 C 0.61899 0.26878 0.61114 0.0
C524 C 0.5884 0.26781 0.62562 0.0
C525 C 0.65206 0.26715 0.6214 0.0
C526 C 0.68669 0.27071 0.60721 0.0
C527 C 0.71043 0.30559 0.59315 0.0
C528 C 0.74269 0.3085 0.57959 0.0
C529 C 0.75173 0.27688 0.58011 0.0
C530 C 0.72861 0.24235 0.59426 0.0
C531 C 0.69626 0.23925 0.60783 0.0
H532 H 0.77672 0.27918 0.56959 0.0
H533 H 0.46843 0.2586 0.70271 0.0
H534 H 0.27109 0.58371 0.87293 0.0
H535 H 0.26823 0.57213 0.91533 0.0
H536 H 0.39949 0.63676 0.91727 0.0
H537 H 0.4025 0.6471 0.87467 0.0
H538 H 0.36732 0.5785 0.95165 0.0
H539 H 0.34754 0.68815 0.92251 0.0
H540 H 0.31378 0.71685 0.89833 0.0
H541 H 0.19987 0.63796 0.93331 0.0
H542 H 0.2329 0.60837 0.95747 0.0
H543 H 0.4172 0.68581 0.05729 0.0
H544 H 0.40657 0.663 0.01685 0.0
H545 H 0.27652 0.60474 0.02758 0.0
H546 H 0.28702 0.62843 0.06826 0.0
H547 H 0.29933 0.64828 -0.01204 0.0
H548 H 0.32572 0.54841 0.02277 0.0
H549 H 0.36332 0.52416 0.04705 0.0
H550 H 0.46839 0.58834 0.00206 0.0
H551 H 0.43169 0.61354 0.97771 0.0
C552 C 0.29932 0.59427 0.8823 0.0
C553 C 0.33704 0.61689 0.87063 0.0
C554 C 0.29764 0.5877 0.90652 0.0
C555 C 0.33364 0.60464 0.91951 0.0
C556 C 0.37133 0.62366 0.90758 0.0
C557 C 0.37303 0.62958 0.88324 0.0
C558 C 0.33216 0.60807 0.94535 0.0
C559 C 0.3525 0.59373 0.95965 0.0
C560 C 0.31228 0.62747 0.95579 0.0
C561 C 0.29257 0.64576 0.9416 0.0
C562 C 0.31525 0.6768 0.92495 0.0
C563 C 0.29626 0.69322 0.91125 0.0
C564 C 0.25468 0.67916 0.91424 0.0
C565 C 0.23205 0.64876 0.93099 0.0
C566 C 0.25089 0.63216 0.94469 0.0
C567 C 0.38627 0.66801 0.05114 0.0
C568 C 0.35291 0.65891 0.06597 0.0
C569 C 0.38025 0.65466 0.02803 0.0
C570 C 0.34074 0.63141 0.01932 0.0
C571 C 0.30727 0.62235 0.03404 0.0
C572 C 0.31329 0.63597 0.05721 0.0
C573 C 0.33485 0.61906 -0.00561 0.0
C574 C 0.31331 0.63206 -0.01984 0.0
C575 C 0.35403 0.59884 -0.0159 0.0
C576 C 0.37596 0.58304 -0.00155 0.0
C577 C 0.35691 0.55753 0.01811 0.0
C578 C 0.37807 0.54361 0.03189 0.0
C579 C 0.41822 0.55474 0.02611 0.0
C580 C 0.43727 0.57973 0.0065 0.0
C581 C 0.41628 0.59379 -0.00732 0.0
H582 H 0.43456 0.54395 0.0368 0.0
H583 H 0.24001 0.69188 0.9036 0.0
H584 H 0.73361 0.43115 0.39269 0.0
H585 H 0.73927 0.41915 0.3512 0.0
H586 H 0.65408 0.2909 0.36178 0.0
H587 H 0.64771 0.30278 0.4034 0.0
H588 H 0.76316 0.37273 0.32735 0.0
H589 H 0.59406 0.25687 0.31347 0.0
H590 H 0.52672 0.23725 0.33076 0.0
H591 H 0.5724 0.35943 0.35514 0.0
H592 H 0.63981 0.37986 0.33775 0.0
H593 H 0.65021 0.28215 0.20758 0.0
H594 H 0.65936 0.27828 0.24968 0.0
H595 H 0.74853 0.40664 0.24951 0.0
H596 H 0.74019 0.41048 0.2072 0.0
H597 H 0.63825 0.31658 0.27952 0.0
H598 H 0.80932 0.42985 0.29722 0.0
H599 H 0.87646 0.45046 0.2794 0.0
H600 H 0.82721 0.33428 0.24597 0.0
H601 H 0.75993 0.31272 0.26383 0.0
C602 C 0.71611 0.40034 0.38623 0.0
C603 C 0.68986 0.36795 0.40125 0.0
C604 C 0.71963 0.39351 0.36254 0.0
C605 C 0.69693 0.35422 0.3534 0.0
C606 C 0.67154 0.32155 0.36847 0.0
C607 C 0.66789 0.32838 0.39221 0.0
C608 C 0.6982 0.34819 0.32783 0.0
C609 C 0.73594 0.3606 0.3168 0.0
C610 C 0.66253 0.33148 0.31424 0.0
C611 C 0.62205 0.3197 0.32458 0.0
C612 C 0.58966 0.27953 0.32249 0.0
C613 C 0.55151 0.26828 0.3323 0.0
C614 C 0.54533 0.29704 0.34412 0.0
C615 C 0.57727 0.33715 0.34607 0.0
C616 C 0.61546 0.34856 0.33627 0.0
C617 C 0.67253 0.30935 0.21641 0.0
C618 C 0.69415 0.34676 0.20418 0.0
C619 C 0.67771 0.30706 0.24046 0.0
C620 C 0.70445 0.34215 0.25278 0.0
C621 C 0.72809 0.37901 0.24034 0.0
C622 C 0.72322 0.38123 0.21615 0.0
C623 C 0.70334 0.34143 0.2788 0.0
C624 C 0.66552 0.32795 0.28998 0.0
C625 C 0.73898 0.35724 0.29242 0.0
C626 C 0.77946 0.36982 0.28173 0.0
C627 C 0.81284 0.40862 0.28615 0.0
C628 C 0.85093 0.42049 0.27602 0.0
C629 C 0.85607 0.39374 0.26151 0.0
C630 C 0.82315 0.35503 0.25714 0.0
C631 C 0.78501 0.343 0.26723 0.0
H632 H 0.88558 0.403 0.25368 0.0
H633 H 0.51578 0.28826 0.35172 0.0
H634 H 0.3018 0.7278 0.7299 0.0
H635 H 0.31855 0.73682 0.6881 0.0
H636 H 0.36507 0.65355 0.69368 0.0
H637 H 0.34773 0.6438 0.73567 0.0
H638 H 0.38792 0.76439 0.66273 0.0
H639 H 0.34 0.59723 0.64376 0.0
H640 H 0.29429 0.52812 0.65987 0.0
H641 H 0.21571 0.56866 0.68881 0.0
H642 H 0.26067 0.63782 0.67262 0.0
H643 H 0.36937 0.66147 0.53954 0.0
H644 H 0.38208 0.66798 0.58161 0.0
H645 H 0.33799 0.75337 0.58558 0.0
H646 H 0.32604 0.74765 0.54327 0.0
H647 H 0.32232 0.64259 0.61224 0.0
H648 H 0.37362 0.81096 0.63473 0.0
H649 H 0.41748 0.87997 0.61807 0.0
H650 H 0.48784 0.83757 0.58071 0.0
H651 H 0.4448 0.76846 0.5974 0.0
C652 C 0.31569 0.71143 0.72229 0.0
C653 C 0.32307 0.68473 0.73604 0.0
C654 C 0.32551 0.71688 0.69841 0.0
C655 C 0.34279 0.69569 0.68775 0.0
C656 C 0.35132 0.66987 0.70154 0.0
C657 C 0.34138 0.6643 0.72549 0.0
C658 C 0.3496 0.69905 0.66199 0.0
C659 C 0.37351 0.73784 0.65162 0.0
C660 C 0.33145 0.6643 0.64759 0.0
C661 C 0.30398 0.62277 0.65724 0.0
C662 C 0.31292 0.59133 0.65353 0.0
C663 C 0.28715 0.55217 0.66267 0.0
C664 C 0.25221 0.54405 0.67544 0.0
C665 C 0.24288 0.57503 0.67901 0.0
C666 C 0.26852 0.61423 0.66988 0.0
C667 C 0.36335 0.68245 0.54926 0.0
C668 C 0.34627 0.70372 0.53818 0.0
C669 C 0.37061 0.6861 0.57331 0.0
C670 C 0.36081 0.71096 0.58679 0.0
C671 C 0.34628 0.73437 0.57551 0.0
C672 C 0.33936 0.73103 0.55132 0.0
C673 C 0.36054 0.70805 0.61278 0.0
C674 C 0.33753 0.66922 0.62325 0.0
C675 C 0.37938 0.74282 0.62716 0.0
C676 C 0.40571 0.78441 0.61718 0.0
C677 C 0.39856 0.81639 0.62304 0.0
C678 C 0.42326 0.85553 0.61357 0.0
C679 C 0.45535 0.86312 0.59829 0.0
C680 C 0.46288 0.83161 0.59248 0.0
C681 C 0.43828 0.79242 0.60191 0.0
H682 H 0.47443 0.89344 0.59097 0.0
H683 H 0.23231 0.51372 0.68251 0.0
loop_
_geom_bond_atom_site_label_1
_geom_bond_atom_site_label_2
_geom_bond_distance
_geom_bond_site_symmetry_2
_ccdc_geom_bond_type
C0 O1 1.306 . S
C0 O3 1.160 . S
O1 C0 1.306 . S
O1 Cd2 2.228 . S
Cd2 O1 2.228 . S
Cd2 O6 2.273 . S
Cd2 O10 2.277 . S
O3 C0 1.160 . S
O3 Cd4 2.203 . S
Cd4 O3 2.203 . S
Cd4 O6 2.411 . S
Cd4 O7 2.333 . S
Cd4 O8 2.352 . S
Cd4 O12 2.277 . S
Cd4 O13 2.356 . S
C5 O10 1.209 . S
C5 O12 1.226 . S
O6 Cd2 2.273 . S
O6 Cd4 2.411 . S
O6 C9 1.320 . S
O7 Cd4 2.333 . S
O7 C9 1.214 . S
O8 Cd4 2.352 . S
O8 C11 1.258 . S
C9 O6 1.320 . S
C9 O7 1.214 . S
O10 Cd2 2.277 . S
O10 C5 1.209 . S
C11 O8 1.258 . S
C11 O13 1.282 . S
O12 Cd4 2.277 . S
O12 C5 1.226 . S
O13 Cd4 2.356 . S
O13 C11 1.282 . S
C14 O15 1.306 . S
C14 O17 1.160 . S
O15 C14 1.306 . S
O15 Cd16 2.228 . S
Cd16 O15 2.228 . S
Cd16 O20 2.273 . S
Cd16 O24 2.277 . S
O17 C14 1.160 . S
O17 Cd18 2.203 . S
Cd18 O17 2.203 . S
Cd18 O20 2.411 . S
Cd18 O21 2.333 . S
Cd18 O22 2.352 . S
Cd18 O26 2.277 . S
Cd18 O27 2.356 . S
C19 O24 1.209 . S
C19 O26 1.226 . S
O20 Cd16 2.273 . S
O20 Cd18 2.411 . S
O20 C23 1.320 . S
O21 Cd18 2.333 . S
O21 C23 1.214 . S
O22 Cd18 2.352 . S
O22 C25 1.258 . S
C23 O20 1.320 . S
C23 O21 1.214 . S
O24 Cd16 2.277 . S
O24 C19 1.209 . S
C25 O22 1.258 . S
C25 O27 1.282 . S
O26 Cd18 2.277 . S
O26 C19 1.226 . S
O27 Cd18 2.356 . S
O27 C25 1.282 . S
C28 O29 1.306 . S
C28 O31 1.160 . S
O29 C28 1.306 . S
O29 Cd30 2.228 . S
Cd30 O29 2.228 . S
Cd30 O34 2.273 . S
Cd30 O38 2.277 . S
O31 C28 1.160 . S
O31 Cd32 2.203 . S
Cd32 O31 2.203 . S
Cd32 O34 2.411 . S
Cd32 O35 2.333 . S
Cd32 O36 2.352 . S
Cd32 O40 2.277 . S
Cd32 O41 2.356 . S
C33 O38 1.209 . S
C33 O40 1.226 . S
O34 Cd30 2.273 . S
O34 Cd32 2.411 . S
O34 C37 1.320 . S
O35 Cd32 2.333 . S
O35 C37 1.214 . S
O36 Cd32 2.352 . S
O36 C39 1.258 . S
C37 O34 1.320 . S
C37 O35 1.214 . S
O38 Cd30 2.277 . S
O38 C33 1.209 . S
C39 O36 1.258 . S
C39 O41 1.282 . S
O40 Cd32 2.277 . S
O40 C33 1.226 . S
O41 Cd32 2.356 . S
O41 C39 1.282 . S
C42 O43 1.306 . S
C42 O45 1.160 . S
O43 C42 1.306 . S
O43 Cd44 2.228 . S
Cd44 O43 2.228 . S
Cd44 O48 2.273 . S
Cd44 O52 2.277 . S
O45 C42 1.160 . S
O45 Cd46 2.203 . S
Cd46 O45 2.203 . S
Cd46 O48 2.411 . S
Cd46 O49 2.333 . S
Cd46 O50 2.352 . S
Cd46 O54 2.277 . S
Cd46 O55 2.356 . S
C47 O52 1.209 . S
C47 O54 1.226 . S
O48 Cd44 2.273 . S
O48 Cd46 2.411 . S
O48 C51 1.320 . S
O49 Cd46 2.333 . S
O49 C51 1.214 . S
O50 Cd46 2.352 . S
O50 C53 1.258 . S
C51 O48 1.320 . S
C51 O49 1.214 . S
O52 Cd44 2.277 . S
O52 C47 1.209 . S
C53 O50 1.258 . S
C53 O55 1.282 . S
O54 Cd46 2.277 . S
O54 C47 1.226 . S
O55 Cd46 2.356 . S
O55 C53 1.282 . S
C56 O57 1.306 . S
C56 O59 1.160 . S
O57 C56 1.306 . S
O57 Cd58 2.228 . S
Cd58 O57 2.228 . S
Cd58 O62 2.273 . S
Cd58 O66 2.277 . S
O59 C56 1.160 . S
O59 Cd60 2.203 . S
Cd60 O59 2.203 . S
Cd60 O62 2.411 . S
Cd60 O63 2.333 . S
Cd60 O64 2.352 . S
Cd60 O68 2.277 . S
Cd60 O69 2.356 . S
C61 O66 1.209 . S
C61 O68 1.226 . S
O62 Cd58 2.273 . S
O62 Cd60 2.411 . S
O62 C65 1.320 . S
O63 Cd60 2.333 . S
O63 C65 1.214 . S
O64 Cd60 2.352 . S
O64 C67 1.258 . S
C65 O62 1.320 . S
C65 O63 1.214 . S
O66 Cd58 2.277 . S
O66 C61 1.209 . S
C67 O64 1.258 . S
C67 O69 1.282 . S
O68 Cd60 2.277 . S
O68 C61 1.226 . S
O69 Cd60 2.356 . S
O69 C67 1.282 . S
C70 O71 1.306 . S
C70 O73 1.160 . S
O71 C70 1.306 . S
O71 Cd72 2.228 . S
Cd72 O71 2.228 . S
Cd72 O76 2.273 . S
Cd72 O80 2.277 . S
O73 C70 1.160 . S
O73 Cd74 2.203 . S
Cd74 O73 2.203 . S
Cd74 O76 2.411 . S
Cd74 O77 2.333 . S
Cd74 O78 2.352 . S
Cd74 O82 2.277 . S
Cd74 O83 2.356 . S
C75 O80 1.209 . S
C75 O82 1.226 . S
O76 Cd72 2.273 . S
O76 Cd74 2.411 . S
O76 C79 1.320 . S
O77 Cd74 2.333 . S
O77 C79 1.214 . S
O78 Cd74 2.352 . S
O78 C81 1.258 . S
C79 O76 1.320 . S
C79 O77 1.214 . S
O80 Cd72 2.277 . S
O80 C75 1.209 . S
C81 O78 1.258 . S
C81 O83 1.282 . S
O82 Cd74 2.277 . S
O82 C75 1.226 . S
O83 Cd74 2.356 . S
O83 C81 1.282 . S
H84 C102 0.951 . S
H85 C104 0.951 . S
H86 C106 0.950 . S
H87 C107 0.950 . S
H88 C109 0.950 . S
H89 C112 0.950 . S
H90 C113 0.950 . S
H91 C115 0.950 . S
H92 C116 0.950 . S
H93 C117 0.951 . S
H94 C119 0.951 . S
H95 C121 0.950 . S
H96 C122 0.950 . S
H97 C124 0.950 . S
H98 C127 0.950 . S
H99 C128 0.950 . S
H100 C130 0.950 . S
H101 C131 0.950 . S
C102 H84 0.951 . S
C102 C103 1.366 . S
C102 C104 1.388 . S
C103 C102 1.366 . S
C103 C107 1.385 . S
C104 H85 0.951 . S
C104 C102 1.388 . S
C104 C105 1.366 . S
C105 C104 1.366 . S
C105 C106 1.414 . S
C105 C108 1.499 . S
C106 H86 0.950 . S
C106 C105 1.414 . S
C106 C107 1.374 . S
C107 H87 0.950 . S
C107 C103 1.385 . S
C107 C106 1.374 . S
C108 C105 1.499 . S
C108 C109 1.373 . S
C108 C110 1.389 . S
C109 H88 0.950 . S
C109 C108 1.373 . S
C109 C125 1.377 1_545 S
C110 C108 1.389 . S
C110 C111 1.524 . S
C110 C124 1.377 1_545 S
C111 C110 1.524 . S
C111 C112 1.397 . S
C111 C116 1.363 . S
C112 H89 0.950 . S
C112 C111 1.397 . S
C112 C113 1.334 . S
C113 H90 0.950 . S
C113 C112 1.334 . S
C113 C114 1.287 . S
C114 C113 1.287 . S
C114 C115 1.524 . S
C114 H133 0.913 . S
C115 H91 0.950 . S
C115 C114 1.524 . S
C115 C116 1.415 . S
C116 H92 0.950 . S
C116 C111 1.363 . S
C116 C115 1.415 . S
C117 H93 0.951 . S
C117 C118 1.366 . S
C117 C119 1.388 . S
C118 C117 1.366 . S
C118 C122 1.385 . S
C119 H94 0.951 . S
C119 C117 1.388 . S
C119 C120 1.366 . S
C120 C119 1.366 . S
C120 C121 1.414 . S
C120 C123 1.499 . S
C121 H95 0.950 . S
C121 C120 1.414 . S
C121 C122 1.374 . S
C122 H96 0.950 . S
C122 C118 1.385 . S
C122 C121 1.374 . S
C123 C120 1.499 . S
C123 C124 1.373 . S
C123 C125 1.389 . S
C124 H97 0.950 . S
C124 C110 1.377 1_565 S
C124 C123 1.373 . S
C125 C109 1.377 1_565 S
C125 C123 1.389 . S
C125 C126 1.524 . S
C126 C125 1.524 . S
C126 C127 1.397 . S
C126 C131 1.363 . S
C127 H98 0.950 . S
C127 C126 1.397 . S
C127 C128 1.334 . S
C128 H99 0.950 . S
C128 C127 1.334 . S
C128 C129 1.287 . S
C129 C128 1.287 . S
C129 C130 1.524 . S
C129 H132 0.999 . S
C130 H100 0.950 . S
C130 C129 1.524 . S
C130 C131 1.415 . S
C131 H101 0.950 . S
C131 C126 1.363 . S
C131 C130 1.415 . S
H132 C129 0.999 . S
H133 C114 0.913 . S
H134 C152 0.951 . S
H135 C154 0.951 . S
H136 C156 0.950 . S
H137 C157 0.950 . S
H138 C159 0.950 . S
H139 C162 0.950 . S
H140 C163 0.950 . S
H141 C165 0.950 . S
H142 C166 0.950 . S
H143 C167 0.951 . S
H144 C169 0.951 . S
H145 C171 0.950 . S
H146 C172 0.950 . S
H147 C174 0.950 . S
H148 C177 0.950 . S
H149 C178 0.950 . S
H150 C180 0.950 . S
H151 C181 0.950 . S
C152 H134 0.951 . S
C152 C153 1.366 . S
C152 C154 1.388 . S
C153 C152 1.366 . S
C153 C157 1.385 . S
C154 H135 0.951 . S
C154 C152 1.388 . S
C154 C155 1.366 . S
C155 C154 1.366 . S
C155 C156 1.414 . S
C155 C158 1.499 . S
C156 H136 0.950 . S
C156 C155 1.414 . S
C156 C157 1.374 . S
C157 H137 0.950 . S
C157 C153 1.385 . S
C157 C156 1.374 . S
C158 C155 1.499 . S
C158 C159 1.373 . S
C158 C160 1.389 . S
C159 H138 0.950 . S
C159 C158 1.373 . S
C159 C175 1.377 . S
C160 C158 1.389 . S
C160 C161 1.524 . S
C160 C174 1.377 . S
C161 C160 1.524 . S
C161 C162 1.397 . S
C161 C166 1.363 . S
C162 H139 0.950 . S
C162 C161 1.397 . S
C162 C163 1.334 . S
C163 H140 0.950 . S
C163 C162 1.334 . S
C163 C164 1.287 . S
C164 C163 1.287 . S
C164 C165 1.524 . S
C164 H183 0.913 . S
C165 H141 0.950 . S
C165 C164 1.524 . S
C165 C166 1.415 . S
C166 H142 0.950 . S
C166 C161 1.363 . S
C166 C165 1.415 . S
C167 H143 0.951 . S
C167 C168 1.366 . S
C167 C169 1.388 . S
C168 C167 1.366 . S
C168 C172 1.385 . S
C169 H144 0.951 . S
C169 C167 1.388 . S
C169 C170 1.366 . S
C170 C169 1.366 . S
C170 C171 1.414 . S
C170 C173 1.499 . S
C171 H145 0.950 . S
C171 C170 1.414 . S
C171 C172 1.374 . S
C172 H146 0.950 . S
C172 C168 1.385 . S
C172 C171 1.374 . S
C173 C170 1.499 . S
C173 C174 1.373 . S
C173 C175 1.389 . S
C174 H147 0.950 . S
C174 C160 1.377 . S
C174 C173 1.373 . S
C175 C159 1.377 . S
C175 C173 1.389 . S
C175 C176 1.524 . S
C176 C175 1.524 . S
C176 C177 1.397 . S
C176 C181 1.363 . S
C177 H148 0.950 . S
C177 C176 1.397 . S
C177 C178 1.334 . S
C178 H149 0.950 . S
C178 C177 1.334 . S
C178 C179 1.287 . S
C179 C178 1.287 . S
C179 C180 1.524 . S
C179 H182 0.999 . S
C180 H150 0.950 . S
C180 C179 1.524 . S
C180 C181 1.415 . S
C181 H151 0.950 . S
C181 C176 1.363 . S
C181 C180 1.415 . S
H182 C179 0.999 . S
H183 C164 0.913 . S
H184 C202 0.951 . S
H185 C204 0.951 . S
H186 C206 0.950 . S
H187 C207 0.950 . S
H188 C209 0.950 . S
H189 C212 0.950 . S
H190 C213 0.950 . S
H191 C215 0.950 . S
H192 C216 0.950 1_455 S
H193 C217 0.951 . S
H194 C219 0.951 . S
H195 C221 0.950 . S
H196 C222 0.950 . S
H197 C224 0.950 . S
H198 C227 0.950 . S
H199 C228 0.950 . S
H200 C230 0.950 . S
H201 C231 0.950 1_655 S
C202 H184 0.951 . S
C202 C203 1.366 . S
C202 C204 1.388 . S
C203 C202 1.366 . S
C203 C207 1.385 . S
C204 H185 0.951 . S
C204 C202 1.388 . S
C204 C205 1.366 . S
C205 C204 1.366 . S
C205 C206 1.414 . S
C205 C208 1.499 . S
C206 H186 0.950 . S
C206 C205 1.414 . S
C206 C207 1.374 . S
C207 H187 0.950 . S
C207 C203 1.385 . S
C207 C206 1.374 . S
C208 C205 1.499 . S
C208 C209 1.373 . S
C208 C210 1.389 . S
C209 H188 0.950 . S
C209 C208 1.373 . S
C209 C225 1.377 1_655 S
C210 C208 1.389 . S
C210 C211 1.524 . S
C210 C224 1.377 1_655 S
C211 C210 1.524 . S
C211 C212 1.397 . S
C211 C216 1.363 . S
C212 H189 0.950 . S
C212 C211 1.397 . S
C212 C213 1.334 . S
C213 H190 0.950 . S
C213 C212 1.334 . S
C213 C214 1.287 . S
C214 C213 1.287 . S
C214 C215 1.524 . S
C214 H233 0.913 . S
C215 H191 0.950 . S
C215 C214 1.524 . S
C215 C216 1.415 . S
C216 H192 0.950 1_655 S
C216 C211 1.363 . S
C216 C215 1.415 . S
C217 H193 0.951 . S
C217 C218 1.366 . S
C217 C219 1.388 . S
C218 C217 1.366 . S
C218 C222 1.385 . S
C219 H194 0.951 . S
C219 C217 1.388 . S
C219 C220 1.366 . S
C220 C219 1.366 . S
C220 C221 1.414 . S
C220 C223 1.499 . S
C221 H195 0.950 . S
C221 C220 1.414 . S
C221 C222 1.374 . S
C222 H196 0.950 . S
C222 C218 1.385 . S
C222 C221 1.374 . S
C223 C220 1.499 . S
C223 C224 1.373 . S
C223 C225 1.389 . S
C224 H197 0.950 . S
C224 C210 1.377 1_455 S
C224 C223 1.373 . S
C225 C209 1.377 1_455 S
C225 C223 1.389 . S
C225 C226 1.524 . S
C226 C225 1.524 . S
C226 C227 1.397 . S
C226 C231 1.363 . S
C227 H198 0.950 . S
C227 C226 1.397 . S
C227 C228 1.334 . S
C228 H199 0.950 . S
C228 C227 1.334 . S
C228 C229 1.287 . S
C229 C228 1.287 . S
C229 C230 1.524 . S
C229 H232 0.999 . S
C230 H200 0.950 . S
C230 C229 1.524 . S
C230 C231 1.415 . S
C231 H201 0.950 1_455 S
C231 C226 1.363 . S
C231 C230 1.415 . S
H232 C229 0.999 . S
H233 C214 0.913 . S
H234 C252 0.951 . S
H235 C254 0.951 . S
H236 C256 0.950 . S
H237 C257 0.950 . S
H238 C259 0.950 . S
H239 C262 0.950 . S
H240 C263 0.950 . S
H241 C265 0.950 . S
H242 C266 0.950 1_655 S
H243 C267 0.951 . S
H244 C269 0.951 . S
H245 C271 0.950 . S
H246 C272 0.950 . S
H247 C274 0.950 . S
H248 C277 0.950 . S
H249 C278 0.950 . S
H250 C280 0.950 . S
H251 C281 0.950 1_455 S
C252 H234 0.951 . S
C252 C253 1.366 . S
C252 C254 1.388 . S
C253 C252 1.366 . S
C253 C257 1.385 . S
C254 H235 0.951 . S
C254 C252 1.388 . S
C254 C255 1.366 . S
C255 C254 1.366 . S
C255 C256 1.414 . S
C255 C258 1.499 . S
C256 H236 0.950 . S
C256 C255 1.414 . S
C256 C257 1.374 . S
C257 H237 0.950 . S
C257 C253 1.385 . S
C257 C256 1.374 . S
C258 C255 1.499 . S
C258 C259 1.373 . S
C258 C260 1.389 . S
C259 H238 0.950 . S
C259 C258 1.373 . S
C259 C275 1.377 1_455 S
C260 C258 1.389 . S
C260 C261 1.524 . S
C260 C274 1.377 1_455 S
C261 C260 1.524 . S
C261 C262 1.397 . S
C261 C266 1.363 . S
C262 H239 0.950 . S
C262 C261 1.397 . S
C262 C263 1.334 . S
C263 H240 0.950 . S
C263 C262 1.334 . S
C263 C264 1.287 . S
C264 C263 1.287 . S
C264 C265 1.524 . S
C264 H283 0.913 . S
C265 H241 0.950 . S
C265 C264 1.524 . S
C265 C266 1.415 . S
C266 H242 0.950 1_455 S
C266 C261 1.363 . S
C266 C265 1.415 . S
C267 H243 0.951 . S
C267 C268 1.366 . S
C267 C269 1.388 . S
C268 C267 1.366 . S
C268 C272 1.385 . S
C269 H244 0.951 . S
C269 C267 1.388 . S
C269 C270 1.366 . S
C270 C269 1.366 . S
C270 C271 1.414 . S
C270 C273 1.499 . S
C271 H245 0.950 . S
C271 C270 1.414 . S
C271 C272 1.374 . S
C272 H246 0.950 . S
C272 C268 1.385 . S
C272 C271 1.374 . S
C273 C270 1.499 . S
C273 C274 1.373 . S
C273 C275 1.389 . S
C274 H247 0.950 . S
C274 C260 1.377 1_655 S
C274 C273 1.373 . S
C275 C259 1.377 1_655 S
C275 C273 1.389 . S
C275 C276 1.524 . S
C276 C275 1.524 . S
C276 C277 1.397 . S
C276 C281 1.363 . S
C277 H248 0.950 . S
C277 C276 1.397 . S
C277 C278 1.334 . S
C278 H249 0.950 . S
C278 C277 1.334 . S
C278 C279 1.287 . S
C279 C278 1.287 . S
C279 C280 1.524 . S
C279 H282 0.999 . S
C280 H250 0.950 . S
C280 C279 1.524 . S
C280 C281 1.415 . S
C281 H251 0.950 1_655 S
C281 C276 1.363 . S
C281 C280 1.415 . S
H282 C279 0.999 . S
H283 C264 0.913 . S
H284 C302 0.951 . S
H285 C304 0.951 . S
H286 C306 0.950 . S
H287 C307 0.950 . S
H288 C309 0.950 . S
H289 C312 0.950 . S
H290 C313 0.950 . S
H291 C315 0.950 . S
H292 C316 0.950 1_545 S
H293 C317 0.951 . S
H294 C319 0.951 . S
H295 C321 0.950 . S
H296 C322 0.950 . S
H297 C324 0.950 . S
H298 C327 0.950 . S
H299 C328 0.950 . S
H300 C330 0.950 . S
H301 C331 0.950 1_565 S
C302 H284 0.951 . S
C302 C303 1.366 . S
C302 C304 1.388 . S
C303 C302 1.366 . S
C303 C307 1.385 . S
C304 H285 0.951 . S
C304 C302 1.388 . S
C304 C305 1.366 . S
C305 C304 1.366 . S
C305 C306 1.414 . S
C305 C308 1.499 . S
C306 H286 0.950 . S
C306 C305 1.414 . S
C306 C307 1.374 . S
C307 H287 0.950 . S
C307 C303 1.385 . S
C307 C306 1.374 . S
C308 C305 1.499 . S
C308 C309 1.373 . S
C308 C310 1.389 . S
C309 H288 0.950 . S
C309 C308 1.373 . S
C309 C325 1.377 1_565 S
C310 C308 1.389 . S
C310 C311 1.524 . S
C310 C324 1.377 1_565 S
C311 C310 1.524 . S
C311 C312 1.397 . S
C311 C316 1.363 . S
C312 H289 0.950 . S
C312 C311 1.397 . S
C312 C313 1.334 . S
C313 H290 0.950 . S
C313 C312 1.334 . S
C313 C314 1.287 . S
C314 C313 1.287 . S
C314 C315 1.524 . S
C314 H333 0.913 . S
C315 H291 0.950 . S
C315 C314 1.524 . S
C315 C316 1.415 . S
C316 H292 0.950 1_565 S
C316 C311 1.363 . S
C316 C315 1.415 . S
C317 H293 0.951 . S
C317 C318 1.366 . S
C317 C319 1.388 . S
C318 C317 1.366 . S
C318 C322 1.385 . S
C319 H294 0.951 . S
C319 C317 1.388 . S
C319 C320 1.366 . S
C320 C319 1.366 . S
C320 C321 1.414 . S
C320 C323 1.499 . S
C321 H295 0.950 . S
C321 C320 1.414 . S
C321 C322 1.374 . S
C322 H296 0.950 . S
C322 C318 1.385 . S
C322 C321 1.374 . S
C323 C320 1.499 . S
C323 C324 1.373 . S
C323 C325 1.389 . S
C324 H297 0.950 . S
C324 C310 1.377 1_545 S
C324 C323 1.373 . S
C325 C309 1.377 1_545 S
C325 C323 1.389 . S
C325 C326 1.524 . S
C326 C325 1.524 . S
C326 C327 1.397 . S
C326 C331 1.363 . S
C327 H298 0.950 . S
C327 C326 1.397 . S
C327 C328 1.334 . S
C328 H299 0.950 . S
C328 C327 1.334 . S
C328 C329 1.287 . S
C329 C328 1.287 . S
C329 C330 1.524 . S
C329 H332 0.999 . S
C330 H300 0.950 . S
C330 C329 1.524 . S
C330 C331 1.415 . S
C331 H301 0.950 1_545 S
C331 C326 1.363 . S
C331 C330 1.415 . S
H332 C329 0.999 . S
H333 C314 0.913 . S
H334 C352 0.951 . S
H335 C354 0.951 . S
H336 C356 0.950 . S
H337 C357 0.950 . S
H338 C359 0.950 . S
H339 C362 0.950 . S
H340 C363 0.950 . S
H341 C365 0.950 . S
H342 C366 0.950 . S
H343 C367 0.951 . S
H344 C369 0.951 . S
H345 C371 0.950 . S
H346 C372 0.950 . S
H347 C374 0.950 . S
H348 C377 0.950 . S
H349 C378 0.950 . S
H350 C380 0.950 . S
H351 C381 0.950 . S
C352 H334 0.951 . S
C352 C353 1.366 . S
C352 C354 1.388 . S
C353 C352 1.366 . S
C353 C357 1.385 . S
C354 H335 0.951 . S
C354 C352 1.388 . S
C354 C355 1.366 . S
C355 C354 1.366 . S
C355 C356 1.414 . S
C355 C358 1.499 . S
C356 H336 0.950 . S
C356 C355 1.414 . S
C356 C357 1.374 . S
C357 H337 0.950 . S
C357 C353 1.385 . S
C357 C356 1.374 . S
C358 C355 1.499 . S
C358 C359 1.373 . S
C358 C360 1.389 . S
C359 H338 0.950 . S
C359 C358 1.373 . S
C359 C375 1.377 . S
C360 C358 1.389 . S
C360 C361 1.524 . S
C360 C374 1.377 . S
C361 C360 1.524 . S
C361 C362 1.397 . S
C361 C366 1.363 . S
C362 H339 0.950 . S
C362 C361 1.397 . S
C362 C363 1.334 . S
C363 H340 0.950 . S
C363 C362 1.334 . S
C363 C364 1.287 . S
C364 C363 1.287 . S
C364 C365 1.524 . S
C364 H383 0.913 . S
C365 H341 0.950 . S
C365 C364 1.524 . S
C365 C366 1.415 . S
C366 H342 0.950 . S
C366 C361 1.363 . S
C366 C365 1.415 . S
C367 H343 0.951 . S
C367 C368 1.366 . S
C367 C369 1.388 . S
C368 C367 1.366 . S
C368 C372 1.385 . S
C369 H344 0.951 . S
C369 C367 1.388 . S
C369 C370 1.366 . S
C370 C369 1.366 . S
C370 C371 1.414 . S
C370 C373 1.499 . S
C371 H345 0.950 . S
C371 C370 1.414 . S
C371 C372 1.374 . S
C372 H346 0.950 . S
C372 C368 1.385 . S
C372 C371 1.374 . S
C373 C370 1.499 . S
C373 C374 1.373 . S
C373 C375 1.389 . S
C374 H347 0.950 . S
C374 C360 1.377 . S
C374 C373 1.373 . S
C375 C359 1.377 . S
C375 C373 1.389 . S
C375 C376 1.524 . S
C376 C375 1.524 . S
C376 C377 1.397 . S
C376 C381 1.363 . S
C377 H348 0.950 . S
C377 C376 1.397 . S
C377 C378 1.334 . S
C378 H349 0.950 . S
C378 C377 1.334 . S
C378 C379 1.287 . S
C379 C378 1.287 . S
C379 C380 1.524 . S
C379 H382 0.999 . S
C380 H350 0.950 . S
C380 C379 1.524 . S
C380 C381 1.415 . S
C381 H351 0.950 . S
C381 C376 1.363 . S
C381 C380 1.415 . S
H382 C379 0.999 . S
H383 C364 0.913 . S
H384 C402 0.951 . S
H385 C404 0.951 . S
H386 C406 0.950 . S
H387 C407 0.950 . S
H388 C409 0.950 . S
H389 C412 0.950 . S
H390 C413 0.950 . S
H391 C415 0.950 . S
H392 C416 0.950 . S
H393 C417 0.951 . S
H394 C419 0.951 . S
H395 C421 0.950 . S
H396 C422 0.950 . S
H397 C424 0.950 . S
H398 C427 0.950 . S
H399 C428 0.950 . S
H400 C430 0.950 . S
H401 C431 0.950 . S
C402 H384 0.951 . S
C402 C403 1.366 . S
C402 C404 1.388 . S
C403 C402 1.366 . S
C403 C407 1.385 . S
C404 H385 0.951 . S
C404 C402 1.388 . S
C404 C405 1.366 . S
C405 C404 1.366 . S
C405 C406 1.414 . S
C405 C408 1.499 . S
C406 H386 0.950 . S
C406 C405 1.414 . S
C406 C407 1.374 . S
C407 H387 0.950 . S
C407 C403 1.385 . S
C407 C406 1.374 . S
C408 C405 1.499 . S
C408 C409 1.373 . S
C408 C410 1.389 . S
C409 H388 0.950 . S
C409 C408 1.373 . S
C409 C425 1.377 1_556 S
C410 C408 1.389 . S
C410 C411 1.524 . S
C410 C424 1.377 1_556 S
C411 C410 1.524 . S
C411 C412 1.397 . S
C411 C416 1.363 . S
C412 H389 0.950 . S
C412 C411 1.397 . S
C412 C413 1.334 . S
C413 H390 0.950 . S
C413 C412 1.334 . S
C413 C414 1.287 . S
C414 C413 1.287 . S
C414 C415 1.524 . S
C414 H433 0.913 . S
C415 H391 0.950 . S
C415 C414 1.524 . S
C415 C416 1.415 . S
C416 H392 0.950 . S
C416 C411 1.363 . S
C416 C415 1.415 . S
C417 H393 0.951 . S
C417 C418 1.366 . S
C417 C419 1.388 . S
C418 C417 1.366 . S
C418 C422 1.385 . S
C419 H394 0.951 . S
C419 C417 1.388 . S
C419 C420 1.366 . S
C420 C419 1.366 . S
C420 C421 1.414 . S
C420 C423 1.499 . S
C421 H395 0.950 . S
C421 C420 1.414 . S
C421 C422 1.374 . S
C422 H396 0.950 . S
C422 C418 1.385 . S
C422 C421 1.374 . S
C423 C420 1.499 . S
C423 C424 1.373 . S
C423 C425 1.389 . S
C424 H397 0.950 . S
C424 C410 1.377 1_554 S
C424 C423 1.373 . S
C425 C409 1.377 1_554 S
C425 C423 1.389 . S
C425 C426 1.524 . S
C426 C425 1.524 . S
C426 C427 1.397 . S
C426 C431 1.363 . S
C427 H398 0.950 . S
C427 C426 1.397 . S
C427 C428 1.334 . S
C428 H399 0.950 . S
C428 C427 1.334 . S
C428 C429 1.287 . S
C429 C428 1.287 . S
C429 C430 1.524 . S
C429 H432 0.999 . S
C430 H400 0.950 . S
C430 C429 1.524 . S
C430 C431 1.415 . S
C431 H401 0.950 . S
C431 C426 1.363 . S
C431 C430 1.415 . S
H432 C429 0.999 . S
H433 C414 0.913 . S
H434 C452 0.951 . S
H435 C454 0.951 . S
H436 C456 0.950 . S
H437 C457 0.950 . S
H438 C459 0.950 . S
H439 C462 0.950 . S
H440 C463 0.950 . S
H441 C465 0.950 . S
H442 C466 0.950 . S
H443 C467 0.951 . S
H444 C469 0.951 . S
H445 C471 0.950 . S
H446 C472 0.950 . S
H447 C474 0.950 . S
H448 C477 0.950 . S
H449 C478 0.950 . S
H450 C480 0.950 . S
H451 C481 0.950 . S
C452 H434 0.951 . S
C452 C453 1.366 . S
C452 C454 1.388 . S
C453 C452 1.366 . S
C453 C457 1.385 . S
C454 H435 0.951 . S
C454 C452 1.388 . S
C454 C455 1.366 . S
C455 C454 1.366 . S
C455 C456 1.414 . S
C455 C458 1.499 . S
C456 H436 0.950 . S
C456 C455 1.414 . S
C456 C457 1.374 . S
C457 H437 0.950 . S
C457 C453 1.385 . S
C457 C456 1.374 . S
C458 C455 1.499 . S
C458 C459 1.373 . S
C458 C460 1.389 . S
C459 H438 0.950 . S
C459 C458 1.373 . S
C459 C475 1.377 . S
C460 C458 1.389 . S
C460 C461 1.524 . S
C460 C474 1.377 . S
C461 C460 1.524 . S
C461 C462 1.397 . S
C461 C466 1.363 . S
C462 H439 0.950 . S
C462 C461 1.397 . S
C462 C463 1.334 . S
C463 H440 0.950 . S
C463 C462 1.334 . S
C463 C464 1.287 . S
C464 C463 1.287 . S
C464 C465 1.524 . S
C464 H483 0.913 . S
C465 H441 0.950 . S
C465 C464 1.524 . S
C465 C466 1.415 . S
C466 H442 0.950 . S
C466 C461 1.363 . S
C466 C465 1.415 . S
C467 H443 0.951 . S
C467 C468 1.366 . S
C467 C469 1.388 . S
C468 C467 1.366 . S
C468 C472 1.385 . S
C469 H444 0.951 . S
C469 C467 1.388 . S
C469 C470 1.366 . S
C470 C469 1.366 . S
C470 C471 1.414 . S
C470 C473 1.499 . S
C471 H445 0.950 . S
C471 C470 1.414 . S
C471 C472 1.374 . S
C472 H446 0.950 . S
C472 C468 1.385 . S
C472 C471 1.374 . S
C473 C470 1.499 . S
C473 C474 1.373 . S
C473 C475 1.389 . S
C474 H447 0.950 . S
C474 C460 1.377 . S
C474 C473 1.373 . S
C475 C459 1.377 . S
C475 C473 1.389 . S
C475 C476 1.524 . S
C476 C475 1.524 . S
C476 C477 1.397 . S
C476 C481 1.363 . S
C477 H448 0.950 . S
C477 C476 1.397 . S
C477 C478 1.334 . S
C478 H449 0.950 . S
C478 C477 1.334 . S
C478 C479 1.287 . S
C479 C478 1.287 . S
C479 C480 1.524 . S
C479 H482 0.999 . S
C480 H450 0.950 . S
C480 C479 1.524 . S
C480 C481 1.415 . S
C481 H451 0.950 . S
C481 C476 1.363 . S
C481 C480 1.415 . S
H482 C479 0.999 . S
H483 C464 0.913 . S
H484 C502 0.951 . S
H485 C504 0.951 . S
H486 C506 0.950 . S
H487 C507 0.950 . S
H488 C509 0.950 . S
H489 C512 0.950 . S
H490 C513 0.950 . S
H491 C515 0.950 . S
H492 C516 0.950 . S
H493 C517 0.951 . S
H494 C519 0.951 . S
H495 C521 0.950 . S
H496 C522 0.950 . S
H497 C524 0.950 . S
H498 C527 0.950 . S
H499 C528 0.950 . S
H500 C530 0.950 . S
H501 C531 0.950 . S
C502 H484 0.951 . S
C502 C503 1.366 . S
C502 C504 1.388 . S
C503 C502 1.366 . S
C503 C507 1.385 . S
C504 H485 0.951 . S
C504 C502 1.388 . S
C504 C505 1.366 . S
C505 C504 1.366 . S
C505 C506 1.414 . S
C505 C508 1.499 . S
C506 H486 0.950 . S
C506 C505 1.414 . S
C506 C507 1.374 . S
C507 H487 0.950 . S
C507 C503 1.385 . S
C507 C506 1.374 . S
C508 C505 1.499 . S
C508 C509 1.373 . S
C508 C510 1.389 . S
C509 H488 0.950 . S
C509 C508 1.373 . S
C509 C525 1.377 . S
C510 C508 1.389 . S
C510 C511 1.524 . S
C510 C524 1.377 . S
C511 C510 1.524 . S
C511 C512 1.397 . S
C511 C516 1.363 . S
C512 H489 0.950 . S
C512 C511 1.397 . S
C512 C513 1.334 . S
C513 H490 0.950 . S
C513 C512 1.334 . S
C513 C514 1.287 . S
C514 C513 1.287 . S
C514 C515 1.524 . S
C514 H533 0.913 . S
C515 H491 0.950 . S
C515 C514 1.524 . S
C515 C516 1.415 . S
C516 H492 0.950 . S
C516 C511 1.363 . S
C516 C515 1.415 . S
C517 H493 0.951 . S
C517 C518 1.366 . S
C517 C519 1.388 . S
C518 C517 1.366 . S
C518 C522 1.385 . S
C519 H494 0.951 . S
C519 C517 1.388 . S
C519 C520 1.366 . S
C520 C519 1.366 . S
C520 C521 1.414 . S
C520 C523 1.499 . S
C521 H495 0.950 . S
C521 C520 1.414 . S
C521 C522 1.374 . S
C522 H496 0.950 . S
C522 C518 1.385 . S
C522 C521 1.374 . S
C523 C520 1.499 . S
C523 C524 1.373 . S
C523 C525 1.389 . S
C524 H497 0.950 . S
C524 C510 1.377 . S
C524 C523 1.373 . S
C525 C509 1.377 . S
C525 C523 1.389 . S
C525 C526 1.524 . S
C526 C525 1.524 . S
C526 C527 1.397 . S
C526 C531 1.363 . S
C527 H498 0.950 . S
C527 C526 1.397 . S
C527 C528 1.334 . S
C528 H499 0.950 . S
C528 C527 1.334 . S
C528 C529 1.287 . S
C529 C528 1.287 . S
C529 C530 1.524 . S
C529 H532 0.999 . S
C530 H500 0.950 . S
C530 C529 1.524 . S
C530 C531 1.415 . S
C531 H501 0.950 . S
C531 C526 1.363 . S
C531 C530 1.415 . S
H532 C529 0.999 . S
H533 C514 0.913 . S
H534 C552 0.951 . S
H535 C554 0.951 . S
H536 C556 0.950 . S
H537 C557 0.950 . S
H538 C559 0.950 . S
H539 C562 0.950 . S
H540 C563 0.950 . S
H541 C565 0.950 . S
H542 C566 0.950 . S
H543 C567 0.951 . S
H544 C569 0.951 . S
H545 C571 0.950 . S
H546 C572 0.950 . S
H547 C574 0.950 . S
H548 C577 0.950 . S
H549 C578 0.950 . S
H550 C580 0.950 . S
H551 C581 0.950 . S
C552 H534 0.951 . S
C552 C553 1.366 . S
C552 C554 1.388 . S
C553 C552 1.366 . S
C553 C557 1.385 . S
C554 H535 0.951 . S
C554 C552 1.388 . S
C554 C555 1.366 . S
C555 C554 1.366 . S
C555 C556 1.414 . S
C555 C558 1.499 . S
C556 H536 0.950 . S
C556 C555 1.414 . S
C556 C557 1.374 . S
C557 H537 0.950 . S
C557 C553 1.385 . S
C557 C556 1.374 . S
C558 C555 1.499 . S
C558 C559 1.373 . S
C558 C560 1.389 . S
C559 H538 0.950 . S
C559 C558 1.373 . S
C559 C575 1.377 1_556 S
C560 C558 1.389 . S
C560 C561 1.524 . S
C560 C574 1.377 1_556 S
C561 C560 1.524 . S
C561 C562 1.397 . S
C561 C566 1.363 . S
C562 H539 0.950 . S
C562 C561 1.397 . S
C562 C563 1.334 . S
C563 H540 0.950 . S
C563 C562 1.334 . S
C563 C564 1.287 . S
C564 C563 1.287 . S
C564 C565 1.524 . S
C564 H583 0.913 . S
C565 H541 0.950 . S
C565 C564 1.524 . S
C565 C566 1.415 . S
C566 H542 0.950 . S
C566 C561 1.363 . S
C566 C565 1.415 . S
C567 H543 0.951 . S
C567 C568 1.366 . S
C567 C569 1.388 . S
C568 C567 1.366 . S
C568 C572 1.385 . S
C569 H544 0.951 . S
C569 C567 1.388 . S
C569 C570 1.366 . S
C570 C569 1.366 . S
C570 C571 1.414 . S
C570 C573 1.499 . S
C571 H545 0.950 . S
C571 C570 1.414 . S
C571 C572 1.374 . S
C572 H546 0.950 . S
C572 C568 1.385 . S
C572 C571 1.374 . S
C573 C570 1.499 . S
C573 C574 1.373 . S
C573 C575 1.389 . S
C574 H547 0.950 . S
C574 C560 1.377 1_554 S
C574 C573 1.373 . S
C575 C559 1.377 1_554 S
C575 C573 1.389 . S
C575 C576 1.524 . S
C576 C575 1.524 . S
C576 C577 1.397 . S
C576 C581 1.363 . S
C577 H548 0.950 . S
C577 C576 1.397 . S
C577 C578 1.334 . S
C578 H549 0.950 . S
C578 C577 1.334 . S
C578 C579 1.287 . S
C579 C578 1.287 . S
C579 C580 1.524 . S
C579 H582 0.999 . S
C580 H550 0.950 . S
C580 C579 1.524 . S
C580 C581 1.415 . S
C581 H551 0.950 . S
C581 C576 1.363 . S
C581 C580 1.415 . S
H582 C579 0.999 . S
H583 C564 0.913 . S
H584 C602 0.951 . S
H585 C604 0.951 . S
H586 C606 0.950 . S
H587 C607 0.950 . S
H588 C609 0.950 . S
H589 C612 0.950 . S
H590 C613 0.950 . S
H591 C615 0.950 . S
H592 C616 0.950 . S
H593 C617 0.951 . S
H594 C619 0.951 . S
H595 C621 0.950 . S
H596 C622 0.950 . S
H597 C624 0.950 . S
H598 C627 0.950 . S
H599 C628 0.950 . S
H600 C630 0.950 . S
H601 C631 0.950 . S
C602 H584 0.951 . S
C602 C603 1.366 . S
C602 C604 1.388 . S
C603 C602 1.366 . S
C603 C607 1.385 . S
C604 H585 0.951 . S
C604 C602 1.388 . S
C604 C605 1.366 . S
C605 C604 1.366 . S
C605 C606 1.414 . S
C605 C608 1.499 . S
C606 H586 0.950 . S
C606 C605 1.414 . S
C606 C607 1.374 . S
C607 H587 0.950 . S
C607 C603 1.385 . S
C607 C606 1.374 . S
C608 C605 1.499 . S
C608 C609 1.373 . S
C608 C610 1.389 . S
C609 H588 0.950 . S
C609 C608 1.373 . S
C609 C625 1.377 . S
C610 C608 1.389 . S
C610 C611 1.524 . S
C610 C624 1.377 . S
C611 C610 1.524 . S
C611 C612 1.397 . S
C611 C616 1.363 . S
C612 H589 0.950 . S
C612 C611 1.397 . S
C612 C613 1.334 . S
C613 H590 0.950 . S
C613 C612 1.334 . S
C613 C614 1.287 . S
C614 C613 1.287 . S
C614 C615 1.524 . S
C614 H633 0.913 . S
C615 H591 0.950 . S
C615 C614 1.524 . S
C615 C616 1.415 . S
C616 H592 0.950 . S
C616 C611 1.363 . S
C616 C615 1.415 . S
C617 H593 0.951 . S
C617 C618 1.366 . S
C617 C619 1.388 . S
C618 C617 1.366 . S
C618 C622 1.385 . S
C619 H594 0.951 . S
C619 C617 1.388 . S
C619 C620 1.366 . S
C620 C619 1.366 . S
C620 C621 1.414 . S
C620 C623 1.499 . S
C621 H595 0.950 . S
C621 C620 1.414 . S
C621 C622 1.374 . S
C622 H596 0.950 . S
C622 C618 1.385 . S
C622 C621 1.374 . S
C623 C620 1.499 . S
C623 C624 1.373 . S
C623 C625 1.389 . S
C624 H597 0.950 . S
C624 C610 1.377 . S
C624 C623 1.373 . S
C625 C609 1.377 . S
C625 C623 1.389 . S
C625 C626 1.524 . S
C626 C625 1.524 . S
C626 C627 1.397 . S
C626 C631 1.363 . S
C627 H598 0.950 . S
C627 C626 1.397 . S
C627 C628 1.334 . S
C628 H599 0.950 . S
C628 C627 1.334 . S
C628 C629 1.287 . S
C629 C628 1.287 . S
C629 C630 1.524 . S
C629 H632 0.999 . S
C630 H600 0.950 . S
C630 C629 1.524 . S
C630 C631 1.415 . S
C631 H601 0.950 . S
C631 C626 1.363 . S
C631 C630 1.415 . S
H632 C629 0.999 . S
H633 C614 0.913 . S
H634 C652 0.951 . S
H635 C654 0.951 . S
H636 C656 0.950 . S
H637 C657 0.950 . S
H638 C659 0.950 . S
H639 C662 0.950 . S
H640 C663 0.950 . S
H641 C665 0.950 . S
H642 C666 0.950 . S
H643 C667 0.951 . S
H644 C669 0.951 . S
H645 C671 0.950 . S
H646 C672 0.950 . S
H647 C674 0.950 . S
H648 C677 0.950 . S
H649 C678 0.950 . S
H650 C680 0.950 . S
H651 C681 0.950 . S
C652 H634 0.951 . S
C652 C653 1.366 . S
C652 C654 1.388 . S
C653 C652 1.366 . S
C653 C657 1.385 . S
C654 H635 0.951 . S
C654 C652 1.388 . S
C654 C655 1.366 . S
C655 C654 1.366 . S
C655 C656 1.414 . S
C655 C658 1.499 . S
C656 H636 0.950 . S
C656 C655 1.414 . S
C656 C657 1.374 . S
C657 H637 0.950 . S
C657 C653 1.385 . S
C657 C656 1.374 . S
C658 C655 1.499 . S
C658 C659 1.373 . S
C658 C660 1.389 . S
C659 H638 0.950 . S
C659 C658 1.373 . S
C659 C675 1.377 . S
C660 C658 1.389 . S
C660 C661 1.524 . S
C660 C674 1.377 . S
C661 C660 1.524 . S
C661 C662 1.397 . S
C661 C666 1.363 . S
C662 H639 0.950 . S
C662 C661 1.397 . S
C662 C663 1.334 . S
C663 H640 0.950 . S
C663 C662 1.334 . S
C663 C664 1.287 . S
C664 C663 1.287 . S
C664 C665 1.524 . S
C664 H683 0.913 . S
C665 H641 0.950 . S
C665 C664 1.524 . S
C665 C666 1.415 . S
C666 H642 0.950 . S
C666 C661 1.363 . S
C666 C665 1.415 . S
C667 H643 0.951 . S
C667 C668 1.366 . S
C667 C669 1.388 . S
C668 C667 1.366 . S
C668 C672 1.385 . S
C669 H644 0.951 . S
C669 C667 1.388 . S
C669 C670 1.366 . S
C670 C669 1.366 . S
C670 C671 1.414 . S
C670 C673 1.499 . S
C671 H645 0.950 . S
C671 C670 1.414 . S
C671 C672 1.374 . S
C672 H646 0.950 . S
C672 C668 1.385 . S
C672 C671 1.374 . S
C673 C670 1.499 . S
C673 C674 1.373 . S
C673 C675 1.389 . S
C674 H647 0.950 . S
C674 C660 1.377 . S
C674 C673 1.373 . S
C675 C659 1.377 . S
C675 C673 1.389 . S
C675 C676 1.524 . S
C676 C675 1.524 . S
C676 C677 1.397 . S
C676 C681 1.363 . S
C677 H648 0.950 . S
C677 C676 1.397 . S
C677 C678 1.334 . S
C678 H649 0.950 . S
C678 C677 1.334 . S
C678 C679 1.287 . S
C679 C678 1.287 . S
C679 C680 1.524 . S
C679 H682 0.999 . S
C680 H650 0.950 . S
C680 C679 1.524 . S
C680 C681 1.415 . S
C681 H651 0.950 . S
C681 C676 1.363 . S
C681 C680 1.415 . S
H682 C679 0.999 . S
H683 C664 0.913 . S
C103 C11 1.319 . S
C118 C53 1.319 . S
C153 C25 1.319 . S
C168 C67 1.319 . S
C203 C39 1.319 . S
C218 C81 1.320 . S
C253 C19 1.545 . S
C268 C61 1.546 . S
C303 C75 1.546 . S
C318 C33 1.546 . S
C353 C47 1.546 . S
C368 C5 1.546 . S
C403 C28 1.124 . S
C418 C9 1.099 . S
C453 C42 1.124 . S
C468 C23 1.097 . S
C503 C37 1.098 . S
C518 C56 1.124 . S
C553 C70 1.124 . S
C568 C51 1.099 . S
C603 C65 1.098 . S
C618 C0 1.124 . S
C653 C79 1.098 . S
C668 C14 1.124 . S
