# Generated by pormake.
# Topology uni, (4)-cn, num edge types: 1
# Building blocks:
#     Node 0, Type 0, BuildingBlock: NAHDIM_clean_sbu_0, # of connection points: 4
#     Node 1, Type 0, BuildingBlock: NAHDIM_clean_sbu_0, # of connection points: 4
#     Node 2, Type 0, BuildingBlock: NAHDIM_clean_sbu_0, # of connection points: 4
#     Node 3, Type 0, BuildingBlock: NAHDIM_clean_sbu_0, # of connection points: 4
#     Node 4, Type 0, BuildingBlock: NAHDIM_clean_sbu_0, # of connection points: 4
#     Node 5, Type 0, BuildingBlock: NAHDIM_clean_sbu_0, # of connection points: 4
#     Edge 6, Type (0, 0), BuildingBlock: EZIPEK_clean_linker_0, # of connection points: 2
#     Edge 7, Type (0, 0), BuildingBlock: EZIPEK_clean_linker_0, # of connection points: 2
#     Edge 8, Type (0, 0), BuildingBlock: EZIPEK_clean_linker_0, # of connection points: 2
#     Edge 9, Type (0, 0), BuildingBlock: EZIPEK_clean_linker_0, # of connection points: 2
#     Edge 10, Type (0, 0), BuildingBlock: EZIPEK_clean_linker_0, # of connection points: 2
#     Edge 11, Type (0, 0), BuildingBlock: EZIPEK_clean_linker_0, # of connection points: 2
#     Edge 12, Type (0, 0), BuildingBlock: EZIPEK_clean_linker_0, # of connection points: 2
#     Edge 13, Type (0, 0), BuildingBlock: EZIPEK_clean_linker_0, # of connection points: 2
#     Edge 14, Type (0, 0), BuildingBlock: EZIPEK_clean_linker_0, # of connection points: 2
#     Edge 15, Type (0, 0), BuildingBlock: EZIPEK_clean_linker_0, # of connection points: 2
#     Edge 16, Type (0, 0), BuildingBlock: EZIPEK_clean_linker_0, # of connection points: 2
#     Edge 17, Type (0, 0), BuildingBlock: EZIPEK_clean_linker_0, # of connection points: 2
# Relax obj value: 0.044
# Max RMSD: 0.077
# Mean RMSD: 0.077
data_MOF--net-uni--node1-NAHDIM_clean_sbu_0--edge1-EZIPEK_clean_linker_0
_symmetry_space_group_name_H-M    P1
_symmetry_Int_Tables_number       1
_symmetry_cell_setting            triclinic
loop_
_symmetry_equiv_pos_as_xyz
'x, y, z'
_cell_length_a     28.741959
_cell_length_b     28.591048
_cell_length_c     17.109196
_cell_angle_alpha  89.998742
_cell_angle_beta   90.136114
_cell_angle_gamma 119.86175
loop_
_atom_site_label
_atom_site_type_symbol
_atom_site_fract_x
_atom_site_fract_y
_atom_site_fract_z
_atom_type_partial_charge
C0 C 0.66187 0.93473 0.126 0.0
O1 O 0.68881 0.97857 0.16831 0.0
O2 O 0.70971 0.06444 0.02818 0.0
Zn3 Zn 0.63427 0.00415 0.04668 0.0
O4 O 0.60207 0.0185 0.14211 0.0
C5 C 0.58731 0.03855 0.92995 0.0
O6 O 0.60996 0.08219 0.97344 0.0
O7 O 0.63512 0.93543 0.06718 0.0
C8 C 0.5518 0.00031 0.14584 0.0
O9 O 0.52136 0.97421 0.08575 0.0
C10 C 0.72532 0.11206 0.0521 0.0
O11 O 0.69283 0.12196 0.09365 0.0
O12 O 0.59084 0.99763 0.95015 0.0
C13 C 0.76287 0.67548 0.22334 0.0
O14 O 0.77175 0.72146 0.19335 0.0
O15 O 0.66299 0.71023 0.16599 0.0
Zn16 Zn 0.64938 0.6348 0.18522 0.0
O17 O 0.59376 0.5981 0.26963 0.0
C18 C 0.59377 0.60144 0.03952 0.0
O19 O 0.58258 0.63938 0.05773 0.0
O20 O 0.71576 0.63499 0.22332 0.0
C21 C 0.54314 0.5739 0.26079 0.0
O22 O 0.5222 0.57305 0.19218 0.0
C23 C 0.65643 0.73774 0.21853 0.0
O24 O 0.64245 0.71817 0.28937 0.0
O25 O 0.62337 0.59221 0.08487 0.0
C26 C 0.09961 0.77038 0.44953 0.0
O27 O 0.0607 0.7777 0.4234 0.0
O28 O 0.97455 0.67451 0.36223 0.0
Zn29 Zn 0.03151 0.65825 0.40045 0.0
O30 O 0.00404 0.60035 0.48278 0.0
C31 C 0.01952 0.58649 0.28004 0.0
O32 O 0.97235 0.55999 0.31345 0.0
O33 O 0.09538 0.72406 0.44502 0.0
C34 C 0.03558 0.58277 0.49996 0.0
O35 O 0.08215 0.6031 0.46453 0.0
C36 C 0.92479 0.64232 0.3724 0.0
O37 O 0.90892 0.59791 0.41285 0.0
O38 O 0.05443 0.63187 0.30738 0.0
C39 C 0.36726 0.11427 0.61695 0.0
O40 O 0.33275 0.06985 0.65294 0.0
O41 O 0.32646 0.98277 0.52345 0.0
Zn42 Zn 0.40069 0.04419 0.54543 0.0
O43 O 0.4331 0.02793 0.63898 0.0
C44 C 0.45617 0.01552 0.43573 0.0
O45 O 0.44337 0.97718 0.48767 0.0
O46 O 0.39917 0.11281 0.5669 0.0
C47 C 0.48369 0.05323 0.64856 0.0
O48 O 0.51455 0.08873 0.59628 0.0
C49 C 0.29505 0.94874 0.57311 0.0
O50 O 0.30959 0.95278 0.64674 0.0
O51 O 0.44366 0.05168 0.44839 0.0
C52 C 0.28678 0.39 0.77561 0.0
O53 O 0.30412 0.36163 0.81345 0.0
O54 O 0.36276 0.34104 0.66346 0.0
Zn55 Zn 0.37904 0.41776 0.68186 0.0
O56 O 0.4324 0.45437 0.76974 0.0
C57 C 0.43764 0.45593 0.53783 0.0
O58 O 0.45359 0.42158 0.55625 0.0
O59 O 0.31159 0.41644 0.71523 0.0
C60 C 0.48298 0.4831 0.76227 0.0
O61 O 0.50515 0.48851 0.69342 0.0
C62 C 0.39704 0.32629 0.67692 0.0
O63 O 0.44441 0.36112 0.70496 0.0
O64 O 0.40523 0.46118 0.58235 0.0
C65 C 0.93081 0.29286 0.96528 0.0
O66 O 0.97531 0.30269 0.00099 0.0
O67 O 0.06099 0.37817 0.87539 0.0
Zn68 Zn 0.00197 0.39444 0.8993 0.0
O69 O 0.01699 0.43796 -0.00208 0.0
C70 C 0.99345 0.42423 0.73976 0.0
O71 O 0.98743 0.37693 0.72132 0.0
O72 O 0.93205 0.32616 0.91499 0.0
C73 C 0.03673 0.48878 0.99574 0.0
O74 O 0.05118 0.51431 0.92862 0.0
C75 C 0.10967 0.41527 0.88101 0.0
O76 O 0.12117 0.46327 0.906 0.0
O77 O -0.00241 0.43818 0.81097 0.0
C78 C 0.48347 0.95848 0.25253 0.0
C79 C 0.52717 0.0051 0.21933 0.0
C80 C 0.52741 0.05855 0.33172 0.0
C81 C 0.48004 0.01315 0.36002 0.0
N82 N 0.40492 0.92437 0.33413 0.0
N83 N 0.58305 0.1021 0.21892 0.0
C84 C 0.45569 0.96435 0.31661 0.0
C85 C 0.54707 0.05599 0.25653 0.0
N86 N 0.46978 0.90822 0.22555 0.0
N87 N 0.55488 0.10331 0.37754 0.0
H88 H 0.59674 0.10212 0.16255 0.0
H89 H 0.59487 0.14056 0.24028 0.0
H90 H 0.54254 0.10642 0.4336 0.0
H91 H 0.59255 0.13522 0.36284 0.0
H92 H 0.44158 0.87294 0.25325 0.0
H93 H 0.49054 0.90154 0.18113 0.0
H94 H 0.38361 0.89008 0.29956 0.0
H95 H 0.38177 0.92845 0.37745 0.0
C96 C 0.47808 0.48692 0.32617 0.0
C97 C 0.50836 0.54411 0.32759 0.0
C98 C 0.48785 0.54437 0.46641 0.0
C99 C 0.45688 0.4872 0.46454 0.0
N100 N 0.40962 0.40569 0.38863 0.0
N101 N 0.52992 0.62744 0.39178 0.0
C102 C 0.44793 0.45898 0.39301 0.0
C103 C 0.50939 0.57292 0.39557 0.0
N104 N 0.4803 0.45905 0.26278 0.0
N105 N 0.49905 0.5713 0.53604 0.0
H106 H 0.54448 0.64906 0.33994 0.0
H107 H 0.52738 0.65017 0.43741 0.0
H108 H 0.48358 0.55209 0.58915 0.0
H109 H 0.52674 0.61222 0.54193 0.0
H110 H 0.46422 0.41737 0.26234 0.0
H111 H 0.50191 0.47785 0.21259 0.0
H112 H 0.39771 0.38415 0.33636 0.0
H113 H 0.38561 0.38458 0.4361 0.0
C114 C 0.96404 0.45322 0.61947 0.0
C115 C 0.00318 0.4644 0.67815 0.0
C116 C 0.05821 0.55579 0.62686 0.0
C117 C 0.02233 0.54266 0.56298 0.0
N118 N 0.94497 0.47613 0.49155 0.0
N119 N 0.09306 0.52214 0.72724 0.0
C120 C 0.97609 0.49065 0.55741 0.0
C121 C 0.05181 0.51458 0.67911 0.0
N122 N 0.91478 0.40778 0.62434 0.0
N123 N 0.0974 0.60807 0.63931 0.0
H124 H 0.09109 0.49229 0.76432 0.0
H125 H 0.13125 0.55596 0.72432 0.0
H126 H 0.10247 0.63985 0.60362 0.0
H127 H 0.1211 0.62068 0.68955 0.0
H128 H 0.88271 0.40039 0.58797 0.0
H129 H 0.90444 0.37959 0.66914 0.0
H130 H 0.91437 0.43688 0.48052 0.0
H131 H 0.95255 0.50222 0.44472 0.0
C132 C 0.57467 0.02905 0.78406 0.0
C133 C 0.55798 0.03765 0.85816 0.0
C134 C 0.49403 0.05846 0.79444 0.0
C135 C 0.50769 0.04579 0.72087 0.0
N136 N 0.55327 0.00905 0.6466 0.0
N137 N 0.49411 0.0492 0.93503 0.0
C138 C 0.54574 0.02808 0.71594 0.0
C139 C 0.5153 0.04893 0.86368 0.0
N140 N 0.61977 0.02465 0.77809 0.0
N141 N 0.46308 0.08236 0.79811 0.0
H142 H 0.5082 0.04186 0.98717 0.0
H143 H 0.4593 0.05151 0.94188 0.0
H144 H 0.44795 0.0914 0.74856 0.0
H145 H 0.45676 0.09796 0.84944 0.0
H146 H 0.63723 0.02452 0.72488 0.0
H147 H 0.64265 0.02587 0.82623 0.0
H148 H 0.57622 0.99028 0.6413 0.0
H149 H 0.5326 0.00751 0.59558 0.0
C150 C 0.53821 0.51283 0.96937 0.0
C151 C 0.57131 0.56985 0.96672 0.0
C152 C 0.54715 0.56998 0.8294 0.0
C153 C 0.51621 0.51279 0.83082 0.0
N154 N 0.49226 0.42916 0.89644 0.0
N155 N 0.61855 0.65062 0.88944 0.0
C156 C 0.51482 0.48401 0.89912 0.0
C157 C 0.5793 0.59776 0.89513 0.0
N158 N 0.52668 0.48635 0.03929 0.0
N159 N 0.54351 0.59814 0.76738 0.0
H160 H 0.64381 0.6719 0.93599 0.0
H161 H 0.62978 0.67153 0.83669 0.0
H162 H 0.51918 0.57968 0.71895 0.0
H163 H 0.56056 0.63994 0.7673 0.0
H164 H 0.49752 0.44596 0.04584 0.0
H165 H 0.54321 0.50556 0.09208 0.0
H166 H 0.49507 0.40652 0.942 0.0
H167 H 0.47516 0.40672 0.84585 0.0
C168 C 0.06851 0.52164 0.13182 0.0
C169 C 0.03596 0.51761 0.06685 0.0
C170 C 0.00123 0.56803 0.13794 0.0
C171 C 0.02886 0.5665 0.20567 0.0
N172 N 0.08516 0.53831 0.27098 0.0
N173 N 0.96513 0.52942 0.01116 0.0
C174 C 0.06187 0.54265 0.20367 0.0
C175 C 0.00088 0.53911 0.07042 0.0
N176 N 0.10656 0.50655 0.12413 0.0
N177 N 0.9762 0.59809 0.13778 0.0
H178 H 0.96282 0.50771 0.96093 0.0
H179 H 0.93447 0.53871 0.01467 0.0
H180 H 0.97599 0.62016 0.18621 0.0
H181 H 0.96004 0.6053 0.08774 0.0
H182 H 0.13525 0.51351 0.16671 0.0
H183 H 0.11233 0.4909 0.07229 0.0
H184 H 0.10462 0.51594 0.2754 0.0
H185 H 0.08197 0.55425 0.32421 0.0
C186 C 0.70797 0.83554 0.18252 0.0
C187 C 0.65803 0.78856 0.19705 0.0
C188 C 0.61103 0.83879 0.17174 0.0
C189 C 0.66046 0.88425 0.14955 0.0
N190 N 0.75493 0.92383 0.1221 0.0
N191 N 0.56127 0.74235 0.19427 0.0
C192 C 0.70875 0.88214 0.15188 0.0
C193 C 0.60928 0.78928 0.18859 0.0
N194 N 0.75462 0.83611 0.20035 0.0
N195 N 0.56623 0.84352 0.18007 0.0
H196 H 0.55823 0.70528 0.20722 0.0
H197 H 0.52463 0.73931 0.17988 0.0
H198 H 0.56599 0.87931 0.16949 0.0
H199 H 0.53057 0.81352 0.20431 0.0
H200 H 0.79221 0.87078 0.19871 0.0
H201 H 0.75533 0.80281 0.2238 0.0
H202 H 0.79003 0.9222 0.1145 0.0
H203 H 0.75697 0.95842 0.09844 0.0
C204 C 0.87678 0.69503 0.35876 0.0
C205 C 0.88488 0.65251 0.33267 0.0
C206 C 0.81967 0.63192 0.22689 0.0
C207 C 0.80727 0.6703 0.25822 0.0
N208 N 0.81855 0.73384 0.35962 0.0
N209 N 0.86123 0.57706 0.24624 0.0
C210 C 0.83471 0.7011 0.32527 0.0
C211 C 0.8554 0.61986 0.26806 0.0
N212 N 0.90914 0.72949 0.41578 0.0
N213 N 0.79898 0.60866 0.15594 0.0
H214 H 0.88902 0.56846 0.27181 0.0
H215 H 0.8362 0.54792 0.20611 0.0
H216 H 0.77344 0.6173 0.1234 0.0
H217 H 0.81089 0.58479 0.12573 0.0
H218 H 0.90955 0.765 0.43071 0.0
H219 H 0.93834 0.72458 0.44488 0.0
H220 H 0.83272 0.75253 0.41353 0.0
H221 H 0.78765 0.73911 0.33746 0.0
C222 C 0.19977 0.82797 0.45129 0.0
C223 C 0.14928 0.81617 0.4821 0.0
C224 C 0.19425 0.89319 0.57171 0.0
C225 C 0.24464 0.90163 0.54555 0.0
N226 N 0.29502 0.86852 0.47516 0.0
N227 N 0.09885 0.83068 0.58256 0.0
C228 C 0.24731 0.8665 0.48961 0.0
C229 C 0.14652 0.84691 0.54538 0.0
N230 N 0.20256 0.8043 0.38336 0.0
N231 N 0.19183 0.9302 0.61953 0.0
H232 H 0.06323 0.79631 0.56641 0.0
H233 H 0.09559 0.84832 0.634 0.0
H234 H 0.22593 0.96444 0.64029 0.0
H235 H 0.15611 0.92926 0.6334 0.0
H236 H 0.2385 0.81574 0.35437 0.0
H237 H 0.16876 0.77736 0.35145 0.0
H238 H 0.2982 0.84016 0.44078 0.0
H239 H 0.33052 0.89506 0.50409 0.0
C240 C 0.3731 0.24858 0.5854 0.0
C241 C 0.38368 0.26985 0.66251 0.0
C242 C 0.38119 0.18796 0.71104 0.0
C243 C 0.36916 0.16604 0.63424 0.0
N244 N 0.34068 0.16947 0.50277 0.0
N245 N 0.38532 0.25548 0.80101 0.0
C246 C 0.36128 0.19462 0.57267 0.0
C247 C 0.38401 0.23821 0.72605 0.0
N248 N 0.37659 0.28059 0.52379 0.0
N249 N 0.39229 0.16206 0.76903 0.0
H250 H 0.38676 0.29181 0.81425 0.0
H251 H 0.37985 0.2317 0.85002 0.0
H252 H 0.38925 0.12454 0.76154 0.0
H253 H 0.40813 0.1794 0.82317 0.0
H254 H 0.37598 0.26963 0.46559 0.0
H255 H 0.38405 0.3199 0.53059 0.0
H256 H 0.32873 0.18615 0.45837 0.0
H257 H 0.33053 0.12959 0.49187 0.0
C258 C 0.1939 0.41268 0.90917 0.0
C259 C 0.15328 0.40559 0.8554 0.0
C260 C 0.19582 0.37942 0.75372 0.0
C261 C 0.23983 0.39305 0.80453 0.0
N262 N 0.28527 0.43176 0.92668 0.0
N263 N 0.12059 0.39185 0.72241 0.0
C264 C 0.24006 0.41188 0.88145 0.0
C265 C 0.1554 0.39134 0.77654 0.0
N266 N 0.18777 0.41883 0.98705 0.0
N267 N 0.19174 0.3536 0.68464 0.0
H268 H 0.09124 0.40173 0.73614 0.0
H269 H 0.12417 0.38761 0.66261 0.0
H270 H 0.21998 0.34309 0.6666 0.0
H271 H 0.15778 0.33782 0.64907 0.0
H272 H 0.21334 0.41843 0.02995 0.0
H273 H 0.15424 0.41917 0.00961 0.0
H274 H 0.2895 0.45132 0.97978 0.0
H275 H 0.32059 0.43346 0.90807 0.0
C276 C 0.86228 0.238 0.06688 0.0
C277 C 0.879 0.24547 0.98759 0.0
C278 C 0.79303 0.16756 0.94968 0.0
C279 C 0.77879 0.15686 0.02982 0.0
N280 N 0.80473 0.17531 0.1655 0.0
N281 N 0.8649 0.2111 0.85563 0.0
C282 C 0.81486 0.19016 0.08873 0.0
C283 C 0.8457 0.20841 0.9295 0.0
N284 N 0.89002 0.27772 0.12076 0.0
N285 N 0.75561 0.14069 0.89269 0.0
H286 H 0.90366 0.23984 0.83889 0.0
H287 H 0.84431 0.18168 0.81326 0.0
H288 H 0.71603 0.11161 0.90465 0.0
H289 H 0.76233 0.151 0.83375 0.0
H290 H 0.87628 0.2766 0.1774 0.0
H291 H 0.92386 0.31439 0.10694 0.0
H292 H 0.83243 0.19523 0.21008 0.0
H293 H 0.77094 0.13992 0.18381 0.0
loop_
_geom_bond_atom_site_label_1
_geom_bond_atom_site_label_2
_geom_bond_distance
_geom_bond_site_symmetry_2
_ccdc_geom_bond_type
C0 O1 1.160 . S
C0 O7 1.185 . S
O1 C0 1.160 . S
O2 Zn3 1.899 . S
O2 C10 1.284 . S
Zn3 O2 1.899 . S
Zn3 O4 2.032 . S
Zn3 O7 2.086 1_545 S
Zn3 O12 1.977 1_544 S
O4 Zn3 2.032 . S
O4 C8 1.278 . S
C5 O6 1.203 . S
C5 O12 1.267 1_545 S
O6 C5 1.203 . S
O7 C0 1.185 . S
O7 Zn3 2.086 1_565 S
C8 O4 1.278 . S
C8 O9 1.211 . S
O9 C8 1.211 . S
C10 O2 1.284 . S
C10 O11 1.273 . S
O11 C10 1.273 . S
O12 Zn3 1.977 1_566 S
O12 C5 1.267 1_565 S
C13 O14 1.160 . S
C13 O20 1.185 . S
O14 C13 1.160 . S
O15 Zn16 1.899 . S
O15 C23 1.284 . S
Zn16 O15 1.899 . S
Zn16 O17 2.032 . S
Zn16 O20 2.086 . S
Zn16 O25 1.977 . S
O17 Zn16 2.032 . S
O17 C21 1.278 . S
C18 O19 1.203 . S
C18 O25 1.267 . S
O19 C18 1.203 . S
O20 C13 1.185 . S
O20 Zn16 2.086 . S
C21 O17 1.278 . S
C21 O22 1.211 . S
O22 C21 1.211 . S
C23 O15 1.284 . S
C23 O24 1.273 . S
O24 C23 1.273 . S
O25 Zn16 1.977 . S
O25 C18 1.267 . S
C26 O27 1.160 . S
C26 O33 1.185 . S
O27 C26 1.160 . S
O28 Zn29 1.899 1_655 S
O28 C36 1.284 . S
Zn29 O28 1.899 1_455 S
Zn29 O30 2.032 . S
Zn29 O33 2.086 . S
Zn29 O38 1.977 . S
O30 Zn29 2.032 . S
O30 C34 1.278 . S
C31 O32 1.203 1_455 S
C31 O38 1.267 . S
O32 C31 1.203 1_655 S
O33 C26 1.185 . S
O33 Zn29 2.086 . S
C34 O30 1.278 . S
C34 O35 1.211 1_455 S
O35 C34 1.211 1_655 S
C36 O28 1.284 . S
C36 O37 1.273 . S
O37 C36 1.273 . S
O38 Zn29 1.977 . S
O38 C31 1.267 . S
C39 O40 1.160 . S
C39 O46 1.185 . S
O40 C39 1.160 . S
O41 Zn42 1.899 1_565 S
O41 C49 1.284 . S
Zn42 O41 1.899 1_545 S
Zn42 O43 2.032 . S
Zn42 O46 2.086 . S
Zn42 O51 1.977 . S
O43 Zn42 2.032 . S
O43 C47 1.278 . S
C44 O45 1.203 1_545 S
C44 O51 1.267 . S
O45 C44 1.203 1_565 S
O46 C39 1.185 . S
O46 Zn42 2.086 . S
C47 O43 1.278 . S
C47 O48 1.221 . S
O48 C47 1.221 . S
C49 O41 1.284 . S
C49 O50 1.273 . S
O50 C49 1.273 . S
O51 Zn42 1.977 . S
O51 C44 1.267 . S
C52 O53 1.160 . S
C52 O59 1.185 . S
O53 C52 1.160 . S
O54 Zn55 1.899 . S
O54 C62 1.284 . S
Zn55 O54 1.899 . S
Zn55 O56 2.032 . S
Zn55 O59 2.086 . S
Zn55 O64 1.977 . S
O56 Zn55 2.032 . S
O56 C60 1.278 . S
C57 O58 1.203 . S
C57 O64 1.267 . S
O58 C57 1.203 . S
O59 C52 1.185 . S
O59 Zn55 2.086 . S
C60 O56 1.278 . S
C60 O61 1.211 . S
O61 C60 1.211 . S
C62 O54 1.284 . S
C62 O63 1.273 . S
O63 C62 1.273 . S
O64 Zn55 1.977 . S
O64 C57 1.267 . S
C65 O66 1.160 . S
C65 O72 1.185 . S
O66 C65 1.160 . S
O67 Zn68 1.899 . S
O67 C75 1.284 . S
Zn68 O67 1.899 . S
Zn68 O69 2.032 . S
Zn68 O72 2.086 1_455 S
Zn68 O77 1.977 1_455 S
O69 Zn68 2.032 . S
O69 C73 1.278 . S
C70 O71 1.203 . S
C70 O77 1.267 1_455 S
O71 C70 1.203 . S
O72 C65 1.185 . S
O72 Zn68 2.086 1_655 S
C73 O69 1.278 . S
C73 O74 1.211 . S
O74 C73 1.211 . S
C75 O67 1.284 . S
C75 O76 1.273 . S
O76 C75 1.273 . S
O77 Zn68 1.977 1_655 S
O77 C70 1.267 1_655 S
C78 C79 1.363 1_565 S
C78 C84 1.379 . S
C78 N86 1.356 . S
C79 C78 1.363 1_545 S
C79 C85 1.363 . S
C80 C81 1.363 . S
C80 C85 1.379 . S
C80 N87 1.356 . S
C81 C80 1.363 . S
C81 C84 1.363 1_545 S
N82 C84 1.356 . S
N82 H94 0.984 . S
N82 H95 0.985 . S
N83 C85 1.356 . S
N83 H88 0.984 . S
N83 H89 0.985 . S
C84 C78 1.379 . S
C84 C81 1.363 1_565 S
C84 N82 1.356 . S
C85 C79 1.363 . S
C85 C80 1.379 . S
C85 N83 1.356 . S
N86 C78 1.356 . S
N86 H92 0.984 . S
N86 H93 0.984 . S
N87 C80 1.356 . S
N87 H90 0.984 . S
N87 H91 0.985 . S
H88 N83 0.984 . S
H89 N83 0.985 . S
H90 N87 0.984 . S
H91 N87 0.985 . S
H92 N86 0.984 . S
H93 N86 0.984 . S
H94 N82 0.984 . S
H95 N82 0.985 . S
C96 C97 1.363 . S
C96 C102 1.379 . S
C96 N104 1.356 . S
C97 C96 1.363 . S
C97 C103 1.363 . S
C98 C99 1.363 . S
C98 C103 1.379 . S
C98 N105 1.356 . S
C99 C98 1.363 . S
C99 C102 1.363 . S
N100 C102 1.356 . S
N100 H112 0.984 . S
N100 H113 0.985 . S
N101 C103 1.356 . S
N101 H106 0.984 . S
N101 H107 0.985 . S
C102 C96 1.379 . S
C102 C99 1.363 . S
C102 N100 1.356 . S
C103 C97 1.363 . S
C103 C98 1.379 . S
C103 N101 1.356 . S
N104 C96 1.356 . S
N104 H110 0.984 . S
N104 H111 0.984 . S
N105 C98 1.356 . S
N105 H108 0.984 . S
N105 H109 0.985 . S
H106 N101 0.984 . S
H107 N101 0.985 . S
H108 N105 0.984 . S
H109 N105 0.985 . S
H110 N104 0.984 . S
H111 N104 0.984 . S
H112 N100 0.984 . S
H113 N100 0.985 . S
C114 C115 1.363 1_655 S
C114 C120 1.379 . S
C114 N122 1.356 . S
C115 C114 1.363 1_455 S
C115 C121 1.363 . S
C116 C117 1.363 . S
C116 C121 1.379 . S
C116 N123 1.356 . S
C117 C116 1.363 . S
C117 C120 1.363 1_455 S
N118 C120 1.356 . S
N118 H130 0.984 . S
N118 H131 0.985 . S
N119 C121 1.356 . S
N119 H124 0.984 . S
N119 H125 0.985 . S
C120 C114 1.379 . S
C120 C117 1.363 1_655 S
C120 N118 1.356 . S
C121 C115 1.363 . S
C121 C116 1.379 . S
C121 N119 1.356 . S
N122 C114 1.356 . S
N122 H128 0.984 . S
N122 H129 0.984 . S
N123 C116 1.356 . S
N123 H126 0.984 . S
N123 H127 0.985 . S
H124 N119 0.984 . S
H125 N119 0.985 . S
H126 N123 0.984 . S
H127 N123 0.985 . S
H128 N122 0.984 . S
H129 N122 0.984 . S
H130 N118 0.984 . S
H131 N118 0.985 . S
C132 C133 1.363 1_565 S
C132 C138 1.379 . S
C132 N140 1.356 . S
C133 C132 1.363 1_545 S
C133 C139 1.363 . S
C134 C135 1.363 . S
C134 C139 1.379 . S
C134 N141 1.356 . S
C135 C134 1.363 . S
C135 C138 1.363 1_545 S
N136 C138 1.356 . S
N136 H148 0.984 . S
N136 H149 0.985 . S
N137 C139 1.356 . S
N137 H142 0.984 . S
N137 H143 0.985 . S
C138 C132 1.379 . S
C138 C135 1.363 1_565 S
C138 N136 1.356 . S
C139 C133 1.363 . S
C139 C134 1.379 . S
C139 N137 1.356 . S
N140 C132 1.356 . S
N140 H146 0.984 . S
N140 H147 0.984 . S
N141 C134 1.356 . S
N141 H144 0.984 . S
N141 H145 0.985 . S
H142 N137 0.984 . S
H143 N137 0.985 . S
H144 N141 0.984 . S
H145 N141 0.985 . S
H146 N140 0.984 . S
H147 N140 0.984 . S
H148 N136 0.984 . S
H149 N136 0.985 . S
C150 C151 1.363 . S
C150 C156 1.379 1_554 S
C150 N158 1.356 . S
C151 C150 1.363 . S
C151 C157 1.363 1_554 S
C152 C153 1.363 . S
C152 C157 1.379 . S
C152 N159 1.356 . S
C153 C152 1.363 . S
C153 C156 1.363 . S
N154 C156 1.356 . S
N154 H166 0.984 . S
N154 H167 0.985 . S
N155 C157 1.356 . S
N155 H160 0.984 1_556 S
N155 H161 0.985 . S
C156 C150 1.379 1_556 S
C156 C153 1.363 . S
C156 N154 1.356 . S
C157 C151 1.363 1_556 S
C157 C152 1.379 . S
C157 N155 1.356 . S
N158 C150 1.356 . S
N158 H164 0.984 . S
N158 H165 0.984 . S
N159 C152 1.356 . S
N159 H162 0.984 . S
N159 H163 0.985 . S
H160 N155 0.984 1_554 S
H161 N155 0.985 . S
H162 N159 0.984 . S
H163 N159 0.985 . S
H164 N158 0.984 . S
H165 N158 0.984 . S
H166 N154 0.984 . S
H167 N154 0.985 . S
C168 C169 1.363 . S
C168 C174 1.379 . S
C168 N176 1.356 . S
C169 C168 1.363 . S
C169 C175 1.361 . S
C170 C171 1.363 . S
C170 C175 1.379 . S
C170 N177 1.356 1_455 S
C171 C170 1.363 . S
C171 C174 1.363 . S
N172 C174 1.356 . S
N172 H184 0.984 . S
N172 H185 0.985 . S
N173 C175 1.357 1_656 S
N173 H178 0.984 . S
N173 H179 0.985 . S
C174 C168 1.379 . S
C174 C171 1.363 . S
C174 N172 1.356 . S
C175 C169 1.361 . S
C175 C170 1.379 . S
C175 N173 1.357 1_454 S
N176 C168 1.356 . S
N176 H182 0.984 . S
N176 H183 0.984 . S
N177 C170 1.356 1_655 S
N177 H180 0.984 . S
N177 H181 0.985 . S
H178 N173 0.984 . S
H179 N173 0.985 . S
H180 N177 0.984 . S
H181 N177 0.985 . S
H182 N176 0.984 . S
H183 N176 0.984 . S
H184 N172 0.984 . S
H185 N172 0.985 . S
C186 C187 1.363 . S
C186 C192 1.379 . S
C186 N194 1.356 . S
C187 C186 1.363 . S
C187 C193 1.363 . S
C188 C189 1.363 . S
C188 C193 1.379 . S
C188 N195 1.356 . S
C189 C188 1.363 . S
C189 C192 1.363 . S
N190 C192 1.356 . S
N190 H202 0.984 . S
N190 H203 0.985 . S
N191 C193 1.356 . S
N191 H196 0.984 . S
N191 H197 0.985 . S
C192 C186 1.379 . S
C192 C189 1.363 . S
C192 N190 1.356 . S
C193 C187 1.363 . S
C193 C188 1.379 . S
C193 N191 1.356 . S
N194 C186 1.356 . S
N194 H200 0.984 . S
N194 H201 0.984 . S
N195 C188 1.356 . S
N195 H198 0.984 . S
N195 H199 0.985 . S
H196 N191 0.984 . S
H197 N191 0.985 . S
H198 N195 0.984 . S
H199 N195 0.985 . S
H200 N194 0.984 . S
H201 N194 0.984 . S
H202 N190 0.984 . S
H203 N190 0.985 . S
C204 C205 1.363 . S
C204 C210 1.379 . S
C204 N212 1.356 . S
C205 C204 1.363 . S
C205 C211 1.363 . S
C206 C207 1.363 . S
C206 C211 1.379 . S
C206 N213 1.356 . S
C207 C206 1.363 . S
C207 C210 1.363 . S
N208 C210 1.356 . S
N208 H220 0.984 . S
N208 H221 0.985 . S
N209 C211 1.356 . S
N209 H214 0.984 . S
N209 H215 0.985 . S
C210 C204 1.379 . S
C210 C207 1.363 . S
C210 N208 1.356 . S
C211 C205 1.363 . S
C211 C206 1.379 . S
C211 N209 1.356 . S
N212 C204 1.356 . S
N212 H218 0.984 . S
N212 H219 0.984 . S
N213 C206 1.356 . S
N213 H216 0.984 . S
N213 H217 0.985 . S
H214 N209 0.984 . S
H215 N209 0.985 . S
H216 N213 0.984 . S
H217 N213 0.985 . S
H218 N212 0.984 . S
H219 N212 0.984 . S
H220 N208 0.984 . S
H221 N208 0.985 . S
C222 C223 1.363 . S
C222 C228 1.379 . S
C222 N230 1.356 . S
C223 C222 1.363 . S
C223 C229 1.363 . S
C224 C225 1.363 . S
C224 C229 1.379 . S
C224 N231 1.356 . S
C225 C224 1.363 . S
C225 C228 1.363 . S
N226 C228 1.356 . S
N226 H238 0.984 . S
N226 H239 0.985 . S
N227 C229 1.356 . S
N227 H232 0.984 . S
N227 H233 0.985 . S
C228 C222 1.379 . S
C228 C225 1.363 . S
C228 N226 1.356 . S
C229 C223 1.363 . S
C229 C224 1.379 . S
C229 N227 1.356 . S
N230 C222 1.356 . S
N230 H236 0.984 . S
N230 H237 0.984 . S
N231 C224 1.356 . S
N231 H234 0.984 . S
N231 H235 0.985 . S
H232 N227 0.984 . S
H233 N227 0.985 . S
H234 N231 0.984 . S
H235 N231 0.985 . S
H236 N230 0.984 . S
H237 N230 0.984 . S
H238 N226 0.984 . S
H239 N226 0.985 . S
C240 C241 1.363 . S
C240 C246 1.379 . S
C240 N248 1.356 . S
C241 C240 1.363 . S
C241 C247 1.363 . S
C242 C243 1.363 . S
C242 C247 1.379 . S
C242 N249 1.356 . S
C243 C242 1.363 . S
C243 C246 1.363 . S
N244 C246 1.356 . S
N244 H256 0.984 . S
N244 H257 0.985 . S
N245 C247 1.356 . S
N245 H250 0.984 . S
N245 H251 0.985 . S
C246 C240 1.379 . S
C246 C243 1.363 . S
C246 N244 1.356 . S
C247 C241 1.363 . S
C247 C242 1.379 . S
C247 N245 1.356 . S
N248 C240 1.356 . S
N248 H254 0.984 . S
N248 H255 0.984 . S
N249 C242 1.356 . S
N249 H252 0.984 . S
N249 H253 0.985 . S
H250 N245 0.984 . S
H251 N245 0.985 . S
H252 N249 0.984 . S
H253 N249 0.985 . S
H254 N248 0.984 . S
H255 N248 0.984 . S
H256 N244 0.984 . S
H257 N244 0.985 . S
C258 C259 1.363 . S
C258 C264 1.379 . S
C258 N266 1.356 . S
C259 C258 1.363 . S
C259 C265 1.363 . S
C260 C261 1.363 . S
C260 C265 1.379 . S
C260 N267 1.356 . S
C261 C260 1.363 . S
C261 C264 1.363 . S
N262 C264 1.356 . S
N262 H274 0.984 . S
N262 H275 0.985 . S
N263 C265 1.356 . S
N263 H268 0.984 . S
N263 H269 0.985 . S
C264 C258 1.379 . S
C264 C261 1.363 . S
C264 N262 1.356 . S
C265 C259 1.363 . S
C265 C260 1.379 . S
C265 N263 1.356 . S
N266 C258 1.356 . S
N266 H272 0.984 . S
N266 H273 0.984 . S
N267 C260 1.356 . S
N267 H270 0.984 . S
N267 H271 0.985 . S
H268 N263 0.984 . S
H269 N263 0.985 . S
H270 N267 0.984 . S
H271 N267 0.985 . S
H272 N266 0.984 . S
H273 N266 0.984 . S
H274 N262 0.984 . S
H275 N262 0.985 . S
C276 C277 1.363 1_554 S
C276 C282 1.379 . S
C276 N284 1.356 . S
C277 C276 1.363 1_556 S
C277 C283 1.363 . S
C278 C279 1.363 1_556 S
C278 C283 1.379 . S
C278 N285 1.356 . S
C279 C278 1.363 1_554 S
C279 C282 1.363 . S
N280 C282 1.356 . S
N280 H292 0.984 . S
N280 H293 0.985 . S
N281 C283 1.356 . S
N281 H286 0.984 . S
N281 H287 0.985 . S
C282 C276 1.379 . S
C282 C279 1.363 . S
C282 N280 1.356 . S
C283 C277 1.363 . S
C283 C278 1.379 . S
C283 N281 1.356 . S
N284 C276 1.356 . S
N284 H290 0.984 . S
N284 H291 0.984 . S
N285 C278 1.356 . S
N285 H288 0.984 . S
N285 H289 0.985 . S
H286 N281 0.984 . S
H287 N281 0.985 . S
H288 N285 0.984 . S
H289 N285 0.985 . S
H290 N284 0.984 . S
H291 N284 0.984 . S
H292 N280 0.984 . S
H293 N280 0.985 . S
C79 C8 1.404 . S
C81 C44 1.417 . S
C97 C21 1.404 . S
C99 C57 1.417 . S
C115 C70 1.417 . S
C117 C34 1.404 . S
C133 C5 1.417 . S
C135 C47 1.404 . S
C151 C18 1.417 . S
C153 C60 1.404 . S
C169 C73 1.404 1_554 S
C171 C31 1.417 . S
C187 C23 1.451 . S
C189 C0 1.443 . S
C205 C36 1.451 . S
C207 C13 1.443 . S
C223 C26 1.443 . S
C225 C49 1.451 . S
C241 C62 1.451 . S
C243 C39 1.443 . S
C259 C75 1.451 . S
C261 C52 1.443 . S
C277 C65 1.443 . S
C279 C10 1.451 . S
