# Generated by pormake.
# Topology snp, (6)-cn, num edge types: 1
# Building blocks:
#     Node 0, Type 0, BuildingBlock: JUFBIX_clean_sbu_0, # of connection points: 6
#     Node 1, Type 0, BuildingBlock: JUFBIX_clean_sbu_0, # of connection points: 6
#     Node 2, Type 0, BuildingBlock: JUFBIX_clean_sbu_0, # of connection points: 6
#     Node 3, Type 0, BuildingBlock: JUFBIX_clean_sbu_0, # of connection points: 6
#     Edge 4, Type (0, 0), BuildingBlock: XUDNAN_clean_linker_2, # of connection points: 2
#     Edge 5, Type (0, 0), BuildingBlock: XUDNAN_clean_linker_2, # of connection points: 2
#     Edge 6, Type (0, 0), BuildingBlock: XUDNAN_clean_linker_2, # of connection points: 2
#     Edge 7, Type (0, 0), BuildingBlock: XUDNAN_clean_linker_2, # of connection points: 2
#     Edge 8, Type (0, 0), BuildingBlock: XUDNAN_clean_linker_2, # of connection points: 2
#     Edge 9, Type (0, 0), BuildingBlock: XUDNAN_clean_linker_2, # of connection points: 2
#     Edge 10, Type (0, 0), BuildingBlock: XUDNAN_clean_linker_2, # of connection points: 2
#     Edge 11, Type (0, 0), BuildingBlock: XUDNAN_clean_linker_2, # of connection points: 2
#     Edge 12, Type (0, 0), BuildingBlock: XUDNAN_clean_linker_2, # of connection points: 2
#     Edge 13, Type (0, 0), BuildingBlock: XUDNAN_clean_linker_2, # of connection points: 2
#     Edge 14, Type (0, 0), BuildingBlock: XUDNAN_clean_linker_2, # of connection points: 2
#     Edge 15, Type (0, 0), BuildingBlock: XUDNAN_clean_linker_2, # of connection points: 2
# Relax obj value: 0.717
# Max RMSD: 0.268
# Mean RMSD: 0.265
data_MOF--net-snp--node1-JUFBIX_clean_sbu_0--edge1-XUDNAN_clean_linker_2
_symmetry_space_group_name_H-M    P1
_symmetry_Int_Tables_number       1
_symmetry_cell_setting            triclinic
loop_
_symmetry_equiv_pos_as_xyz
'x, y, z'
_cell_length_a     26.80668
_cell_length_b     26.863148
_cell_length_c     27.094468
_cell_angle_alpha  87.727576
_cell_angle_beta   97.794629
_cell_angle_gamma 98.990789
loop_
_atom_site_label
_atom_site_type_symbol
_atom_site_fract_x
_atom_site_fract_y
_atom_site_fract_z
_atom_type_partial_charge
Co0 Co 0.25528 0.04204 0.10441 0.0
C1 C 0.3459 0.0382 0.07064 0.0
Co2 Co 0.24941 -0.01532 0.04584 0.0
C3 C 0.23463 0.09138 0.19207 0.0
C4 C 0.28747 0.13772 0.15076 0.0
N5 N 0.25888 0.09171 0.1514 0.0
N6 N 0.24727 0.13529 0.21684 0.0
C7 C 0.28058 0.16441 0.19087 0.0
H8 H 0.20837 0.05948 0.20333 0.0
H9 H 0.3114 0.15132 0.12247 0.0
C10 C 0.16001 -0.0136 0.08158 0.0
N11 N 0.24577 0.93568 0.99683 0.0
C12 C 0.21481 0.92823 0.95274 0.0
C13 C 0.27804 0.90185 0.99728 0.0
N14 N 0.22716 0.89158 0.92563 0.0
C15 C 0.26693 0.87506 0.95383 0.0
C16 C 0.26743 0.94949 0.14567 0.0
O17 O 0.18578 0.02155 0.10856 0.0
O18 O 0.17991 0.96777 0.04809 0.0
O19 O 0.25975 0.93513 0.10033 0.0
O20 O 0.2702 -0.00417 0.1547 0.0
O21 O 0.32049 0.0024 0.04429 0.0
H22 H 0.30869 0.89784 0.02683 0.0
H23 H 0.18517 0.95062 0.9399 0.0
O24 O 0.3245 0.06059 0.10016 0.0
O25 O 0.24016 0.08861 0.05411 0.0
O26 O 0.2382 0.03505 0.99458 0.0
C27 C 0.2356 0.0794 1.0081 0.0
H28 H 0.29767 0.20285 0.19941 0.0
H29 H 0.28706 0.84595 0.94348 0.0
Co30 Co 0.04041 0.25904 0.68733 0.0
C31 C 0.05178 0.3606 0.65957 0.0
Co32 Co 0.0983 0.28419 0.63681 0.0
C33 C -1e-05 0.2226 0.77961 0.0
C34 C 0.94396 0.24854 0.72482 0.0
N35 N -0.00648 0.24277 0.73292 0.0
N36 N 0.95623 0.21512 0.80043 0.0
C37 C 0.92098 0.23132 0.76593 0.0
H38 H 0.03578 0.21265 0.79761 0.0
H39 H 0.92558 0.26426 0.69106 0.0
C40 C 0.08609 0.18261 0.66393 0.0
N41 N 0.14233 0.29739 0.58858 0.0
C42 C 0.13733 0.26676 0.54936 0.0
C43 C 0.18034 0.33465 0.58014 0.0
N44 N 0.16972 0.28299 0.51628 0.0
C45 C 0.19747 0.32574 0.53565 0.0
C46 C 0.1398 0.28859 0.73363 0.0
O47 O 0.05452 0.19296 0.69135 0.0
O48 O 0.10703 0.21651 0.63652 0.0
O49 O 0.15226 0.29427 0.68984 0.0
O50 O 0.09325 0.27647 0.7399 0.0
O51 O 0.08853 0.35183 0.63762 0.0
H52 H 0.19395 0.36655 0.60407 0.0
H53 H 0.10972 0.23279 0.5451 0.0
O54 O 0.02695 0.32528 0.68295 0.0
O55 O -0.01239 0.24106 0.63237 0.0
O56 O 0.04408 0.27362 0.58437 0.0
C57 C -0.001 0.25361 0.58907 0.0
H58 H 0.88141 0.23117 0.77036 0.0
H59 H 0.22699 0.34954 0.51841 0.0
Co60 Co 0.7781 0.00228 0.17122 0.0
C61 C 0.83588 0.92775 0.15555 0.0
Co62 Co 0.75032 0.95497 0.10523 0.0
C63 C 0.80702 0.07808 0.25263 0.0
C64 C 0.81389 0.00148 0.27305 0.0
N65 N 0.80091 0.03128 0.23352 0.0
N66 N 0.8226 0.07773 0.30248 0.0
C67 C 0.82717 0.02954 0.31486 0.0
H68 H 0.79957 0.11135 0.23075 0.0
H69 H 0.81357 0.96122 0.2718 0.0
C70 C 0.69291 0.02956 0.11931 0.0
N71 N 0.72942 0.92232 0.04585 0.0
C72 C 0.76151 0.91385 1.01411 0.0
C73 C 0.68298 0.90063 0.02501 0.0
N74 N 0.73753 0.8872 0.97447 0.0
C75 C 0.68785 0.87899 0.98084 0.0
C76 C 0.71221 0.91041 0.18516 0.0
O77 O 0.72399 0.04062 0.15856 0.0
O78 O 0.69712 -0.00735 0.09304 0.0
O79 O 0.71081 0.90394 0.13892 0.0
O80 O 0.73592 0.95124 0.20411 0.0
O81 O 0.80366 0.9176 0.11749 0.0
H82 H 0.64816 0.89993 0.04123 0.0
H83 H 0.80204 0.92721 1.02019 0.0
O84 O 0.83188 0.96384 0.18266 0.0
O85 O 0.82095 0.05283 0.13664 0.0
O86 O 0.79099 0.00554 0.07173 0.0
C87 C 0.81899 0.04467 0.09023 0.0
H88 H 0.84032 0.01553 0.35157 0.0
H89 H 0.65746 0.85786 0.95613 0.0
Co90 Co 0.92507 0.76755 0.55854 0.0
C91 C 0.97124 0.86243 0.53357 0.0
Co92 Co 0.98308 0.7695 0.507 0.0
C93 C 0.88493 0.79117 0.6469 0.0
C94 C 0.82943 0.74497 0.5973 0.0
N95 N 0.8781 0.76859 0.60244 0.0
N96 N 0.84256 0.7827 0.66958 0.0
C97 C 0.80741 0.7538 0.63842 0.0
H98 H 0.92032 0.81324 0.66254 0.0
H99 H 0.81132 0.72197 0.56606 0.0
C100 C 0.94086 0.674 0.53957 0.0
N101 N 0.02801 0.76616 0.45935 0.0
C102 C 0.06612 0.79959 0.44305 0.0
C103 C 0.02135 0.72755 0.42744 0.0
N104 N 0.08277 0.78305 0.40229 0.0
C105 C 0.0547 0.73758 0.39297 0.0
C106 C 0.02575 0.77502 0.60699 0.0
O107 O 0.91506 0.69807 0.56311 0.0
O108 O 0.97217 0.69792 0.51262 0.0
O109 O 0.03769 0.77275 0.56296 0.0
O110 O 0.9789 0.77093 0.61251 0.0
O111 O -0.00561 0.84063 0.50475 0.0
H112 H -0.00766 0.69472 0.42749 0.0
H113 H 0.0796 0.83627 0.45916 0.0
O114 O 0.93551 0.83726 0.55452 0.0
O115 O 0.87283 0.76529 0.50585 0.0
O116 O 0.92741 0.76767 0.45246 0.0
C117 C 0.88163 0.76608 0.46119 0.0
H118 H 0.7691 0.73884 0.64554 0.0
H119 H 0.0574 0.71339 0.36274 0.0
H120 H 0.92159 0.95919 0.21722 0.0
H121 H 0.85486 0.84673 0.10741 0.0
H122 H 0.94023 0.83337 0.09346 0.0
H123 H -0.00809 0.02192 0.14904 0.0
H124 H 0.04823 0.04221 0.1921 0.0
H125 H -0.01185 0.02555 0.21475 0.0
H126 H 0.02466 0.962 0.27539 0.0
H127 H 0.08613 0.97417 0.25352 0.0
H128 H 0.0514 0.91094 0.25395 0.0
H129 H 0.02202 0.85734 0.06539 0.0
H130 H 0.09896 0.90529 0.03671 0.0
H131 H 0.11385 0.00734 0.15998 0.0
C132 C 0.92521 0.92966 0.19248 0.0
C133 C 0.88236 0.9049 0.16245 0.0
C134 C 0.8877 0.86657 0.13026 0.0
C135 C 0.93613 0.8586 0.12231 0.0
C136 C 0.97815 0.88927 0.14691 0.0
C137 C 0.97333 0.92315 0.18272 0.0
C138 C 0.02157 0.96051 0.19437 0.0
C139 C 0.01179 0.0157 0.18703 0.0
C140 C 0.04758 0.95132 0.24737 0.0
C141 C 0.05162 0.94624 0.15536 0.0
C142 C 0.02676 0.90415 0.12955 0.0
C143 C 0.04293 0.88906 0.08652 0.0
C144 C 0.086 0.91717 0.06991 0.0
C145 C 0.11192 0.96024 0.09598 0.0
C146 C 0.09471 0.9745 0.13939 0.0
H147 H 0.02369 0.95029 0.49696 0.0
H148 H 0.98301 0.87195 0.6324 0.0
H149 H 0.03305 0.93941 0.68243 0.0
H150 H 0.15457 0.01814 0.5536 0.0
H151 H 0.14492 0.07544 0.5192 0.0
H152 H 0.11778 0.01512 0.49265 0.0
H153 H 0.02768 0.04183 0.48054 0.0
H154 H 0.05519 0.1022 0.50564 0.0
H155 H 0.00402 0.06453 0.53328 0.0
H156 H 0.0705 0.01714 0.71794 0.0
H157 H 0.08137 0.10787 0.73416 0.0
H158 H 0.10182 0.14114 0.57969 0.0
C159 C 0.02634 0.94743 0.53718 0.0
C160 C -0.00084 0.90628 0.5607 0.0
C161 C 0.00276 0.90355 0.61336 0.0
C162 C 0.03237 0.94111 0.64246 0.0
C163 C 0.05832 0.98161 0.61867 0.0
C164 C 0.05514 -0.01425 0.5672 0.0
C165 C 0.07796 0.038 0.55133 0.0
C166 C 0.12672 0.03656 0.52782 0.0
C167 C 0.03888 0.0631 0.51566 0.0
C168 C 0.09005 0.0631 0.60161 0.0
C169 C 0.08053 0.02911 0.64009 0.0
C170 C 0.07975 0.04417 0.68863 0.0
C171 C 0.08565 0.09558 0.69756 0.0
C172 C 0.09281 0.13066 0.65821 0.0
C173 C 0.09792 0.11453 0.61053 0.0
H174 H 0.63158 0.06531 0.1772 0.0
H175 H 0.65949 0.05377 0.0247 0.0
H176 H 0.57541 0.07665 0.99437 0.0
H177 H 0.5196 0.00325 0.16578 0.0
H178 H 0.48835 0.03868 0.2041 0.0
H179 H 0.55615 0.04175 0.21514 0.0
H180 H 0.56874 0.13885 0.2043 0.0
H181 H 0.50049 0.13647 0.1945 0.0
H182 H 0.53869 0.1672 0.14897 0.0
H183 H 0.4838 0.06874 0.98148 0.0
H184 H 0.39186 0.04513 0.98678 0.0
H185 H 0.42021 0.06615 0.14637 0.0
C186 C 0.62085 0.07079 0.1376 0.0
C187 C 0.65127 0.05798 0.10314 0.0
C188 C 0.63615 0.06354 0.05146 0.0
C189 C 0.58865 0.07682 0.03391 0.0
C190 C 0.55716 0.0849 0.06863 0.0
C191 C 0.57304 0.0837 0.11954 0.0
C192 C 0.52888 0.08458 0.14873 0.0
C193 C 0.52293 0.03936 0.18552 0.0
C194 C 0.53454 0.13478 0.1757 0.0
C195 C 0.48536 0.08058 0.10657 0.0
C196 C 0.50261 0.08207 0.06061 0.0
C197 C 0.46965 0.06983 1.01691 0.0
C198 C 0.41777 0.05569 1.02026 0.0
C199 C 0.39972 0.05446 0.06688 0.0
C200 C 0.43354 0.06823 0.11024 0.0
H201 H 0.08247 0.43843 0.5969 0.0
H202 H 0.97358 0.38889 0.70065 0.0
H203 H 0.92722 0.45908 0.67259 0.0
H204 H 0.08578 0.57234 0.61328 0.0
H205 H 0.09193 0.5874 0.54875 0.0
H206 H 0.11655 0.53337 0.57803 0.0
H207 H 0.06227 0.47729 0.50847 0.0
H208 H 0.03614 0.53098 0.48001 0.0
H209 H -0.00577 0.47605 0.49796 0.0
H210 H 0.89066 0.53104 0.63163 0.0
H211 H 0.87568 0.6124 0.59222 0.0
H212 H 0.0085 0.61581 0.51555 0.0
C213 C 0.04947 0.44291 0.6144 0.0
C214 C 0.03141 0.40813 0.65065 0.0
C215 C -0.012 0.41511 0.67264 0.0
C216 C 0.96107 0.45447 0.65664 0.0
C217 C 0.97832 0.48649 0.61897 0.0
C218 C 0.02214 0.48206 0.599 0.0
C219 C 0.03337 0.52287 0.56034 0.0
C220 C 0.08495 0.55597 0.57606 0.0
C221 C 0.03137 0.50043 0.50864 0.0
C222 C -0.01075 0.55122 0.56228 0.0
C223 C 0.95746 0.52891 0.59564 0.0
C224 C 0.91521 0.54907 0.60543 0.0
C225 C 0.90691 0.59509 0.58268 0.0
C226 C 0.94119 0.62037 0.55118 0.0
C227 C 0.98145 0.59705 0.53912 0.0
H228 H 0.25057 0.28995 0.463 0.0
H229 H 0.09258 0.22154 0.46294 0.0
H230 H 0.09678 0.17435 0.38848 0.0
H231 H 0.24256 0.30451 0.32786 0.0
H232 H 0.30603 0.29094 0.32602 0.0
H233 H 0.29112 0.31937 0.38025 0.0
H234 H 0.32306 0.24691 0.43562 0.0
H235 H 0.33768 0.21806 0.38151 0.0
H236 H 0.29589 0.18254 0.42145 0.0
H237 H 0.11802 0.13193 0.31534 0.0
H238 H 0.1535 0.10316 0.24383 0.0
H239 H 0.29623 0.20084 0.28806 0.0
C240 C 0.21675 0.26548 0.44706 0.0
C241 C 0.17165 0.2589 0.46989 0.0
C242 C 0.12821 0.22634 0.44752 0.0
C243 C 0.12998 0.19946 0.40478 0.0
C244 C 0.17522 0.20585 0.384 0.0
C245 C 0.21765 0.23852 0.40386 0.0
C246 C 0.26117 0.2389 0.37337 0.0
C247 C 0.27608 0.29156 0.35051 0.0
C248 C 0.30716 0.2205 0.40488 0.0
C249 C 0.23649 0.20128 0.3336 0.0
C250 C 0.18702 0.1824 0.34068 0.0
C251 C 0.1567 0.14658 0.30923 0.0
C252 C 0.17727 0.13016 0.26892 0.0
C253 C 0.22754 0.14983 0.26018 0.0
C254 C 0.25747 0.18558 0.29335 0.0
H255 H 0.87406 0.15042 0.82186 0.0
H256 H 0.01844 0.2313 0.88826 0.0
H257 H -0.00073 0.19915 0.97209 0.0
H258 H 0.79996 0.16914 0.91625 0.0
H259 H 0.76334 0.10683 0.91223 0.0
H260 H 0.78929 0.13588 0.85834 0.0
H261 H 0.83561 0.05931 0.85027 0.0
H262 H 0.80933 0.02978 0.90382 0.0
H263 H 0.87725 0.03976 0.90293 0.0
H264 H 0.95987 0.15978 0.05036 0.0
H265 H 0.90956 0.11063 0.11176 0.0
H266 H 0.79386 0.0549 0.9907 0.0
C267 C 0.90164 0.16132 0.85408 0.0
C268 C 0.9475 0.19365 0.84877 0.0
C269 C 0.98314 0.20641 0.89164 0.0
C270 C 0.97237 0.18855 0.93933 0.0
C271 C 0.92614 0.15734 0.94333 0.0
C272 C 0.89187 0.14323 0.90148 0.0
C273 C 0.84559 0.10826 0.91486 0.0
C274 C 0.79667 0.13144 0.89952 0.0
C275 C 0.84174 0.05621 0.8916 0.0
C276 C 0.85841 0.10551 0.97087 0.0
C277 C 0.9048 0.13408 0.98706 0.0
C278 C 0.92363 0.13713 0.03784 0.0
C279 C 0.89472 0.10947 0.07254 0.0
C280 C 0.84786 0.07892 0.05608 0.0
C281 C 0.82965 0.07769 1.00461 0.0
H282 H 0.88047 0.76033 0.35942 0.0
H283 H 0.78616 0.78188 0.47264 0.0
H284 H 0.71855 0.80138 0.40784 0.0
H285 H 0.85498 0.85813 0.28328 0.0
H286 H 0.85284 0.82568 0.22584 0.0
H287 H 0.88857 0.80513 0.28139 0.0
H288 H 0.83585 0.71555 0.26656 0.0
H289 H 0.7989 0.73861 0.21225 0.0
H290 H 0.76736 0.70751 0.26225 0.0
H291 H 0.67343 0.84136 0.33572 0.0
H292 H 0.6533 0.89348 0.2606 0.0
H293 H 0.76729 0.83576 0.19014 0.0
C294 C 0.84491 0.76756 0.37032 0.0
C295 C 0.83888 0.76979 0.42107 0.0
C296 C 0.79191 0.77983 0.43401 0.0
C297 C 0.75292 0.79071 0.39739 0.0
C298 C 0.76058 0.79 0.34772 0.0
C299 C 0.80492 0.77755 0.33398 0.0
C300 C 0.80553 0.78458 0.27835 0.0
C301 C 0.8533 0.82061 0.26667 0.0
C302 C 0.80167 0.7335 0.25339 0.0
C303 C 0.75718 0.80753 0.26394 0.0
C304 C 0.73121 0.80944 0.30441 0.0
C305 C 0.69164 0.83796 0.30299 0.0
C306 C 0.68005 0.86721 0.26012 0.0
C307 C 0.7071 0.8666 0.21903 0.0
C308 C 0.74406 0.83433 0.22007 0.0
H309 H 0.01019 0.8029 0.69977 0.0
H310 H 0.13031 0.77962 0.61466 0.0
H311 H 0.1945 0.80743 0.68687 0.0
H312 H 0.07747 0.91648 0.76115 0.0
H313 H 0.05017 0.90027 0.81785 0.0
H314 H 0.01557 0.87811 0.75916 0.0
H315 H 0.00958 0.78661 0.79591 0.0
H316 H 0.04593 0.80958 0.85354 0.0
H317 H 0.06733 0.76227 0.81968 0.0
H318 H 0.2457 0.83773 0.76917 0.0
H319 H 0.2799 0.86905 0.85342 0.0
H320 H 0.12686 0.87681 0.8841 0.0
C321 C 0.04995 0.8031 0.69623 0.0
C322 C 0.06499 0.78835 0.65127 0.0
C323 C 0.11762 0.79016 0.64851 0.0
C324 C 0.15437 0.80612 0.6894 0.0
C325 C 0.13813 0.82082 0.73281 0.0
C326 C 0.0871 0.81967 0.73635 0.0
C327 C 0.0796 0.8384 0.78679 0.0
C328 C 0.05415 0.88613 0.78081 0.0
C329 C 0.0488 0.79672 0.81568 0.0
C330 C 0.13446 0.85021 0.81133 0.0
C331 C 0.16755 0.83951 0.77956 0.0
C332 C 0.22003 0.8463 0.79411 0.0
C333 C 0.23914 0.86404 0.84218 0.0
C334 C 0.20622 0.87555 0.8755 0.0
C335 C 0.15307 0.86893 0.85941 0.0
H336 H 0.69411 0.86576 0.87937 0.0
H337 H 0.83517 0.86961 0.98015 0.0
H338 H 0.87771 0.84521 0.91207 0.0
H339 H 0.70833 0.7561 0.81238 0.0
H340 H 0.68122 0.77948 0.75309 0.0
H341 H 0.66173 0.79813 0.80978 0.0
H342 H 0.68657 0.89209 0.78518 0.0
H343 H 0.7064 0.87375 0.72854 0.0
H344 H 0.75027 0.91436 0.77136 0.0
H345 H 0.90582 0.82219 0.83325 0.0
H346 H 0.91595 0.79673 0.7491 0.0
H347 H 0.75646 0.80492 0.69994 0.0
C348 C 0.73376 0.86101 0.88723 0.0
C349 C 0.76135 0.87033 0.935 0.0
C350 C 0.81341 0.86396 0.94364 0.0
C351 C 0.83794 0.84976 0.90527 0.0
C352 C 0.80986 0.84162 0.85852 0.0
C353 C 0.75886 0.84656 0.84936 0.0
C354 C 0.73747 0.83505 0.79573 0.0
C355 C 0.69466 0.78947 0.79258 0.0
C356 C 0.71911 0.88159 0.76862 0.0
C357 C 0.78441 0.82268 0.77641 0.0
C358 C 0.82584 0.82711 0.81316 0.0
C359 C 0.87364 0.81842 0.80412 0.0
C360 C 0.87911 0.80431 0.7562 0.0
C361 C 0.83694 0.79876 0.71816 0.0
C362 C 0.78912 0.80826 0.72853 0.0
H363 H 0.19892 0.86277 0.15064 0.0
H364 H 0.3185 0.96121 0.23881 0.0
H365 H 0.2875 0.92442 0.31584 0.0
H366 H 0.10783 0.87563 0.21339 0.0
H367 H 0.07261 0.81272 0.21509 0.0
H368 H 0.11006 0.83205 0.16542 0.0
H369 H 0.16514 0.76238 0.18318 0.0
H370 H 0.12571 0.73714 0.22992 0.0
H371 H 0.19387 0.75108 0.24589 0.0
H372 H 0.23336 0.88979 0.38213 0.0
H373 H 0.16744 0.84992 0.43332 0.0
H374 H 0.08297 0.77413 0.30243 0.0
C375 C 0.22058 0.87408 0.18618 0.0
C376 C 0.26185 0.91412 0.18868 0.0
C377 C 0.28747 0.9299 0.23603 0.0
C378 C 0.26984 0.90948 0.28007 0.0
C379 C 0.22687 0.87258 0.2764 0.0
C380 C 0.20353 0.85372 0.23074 0.0
C381 C 0.15512 0.81761 0.23688 0.0
C382 C 0.10856 0.8355 0.2059 0.0
C383 C 0.16028 0.76386 0.22316 0.0
C384 C 0.15353 0.82134 0.29245 0.0
C385 C 0.19553 0.85276 0.31473 0.0
C386 C 0.20087 0.86418 0.36526 0.0
C387 C 0.163 0.84184 0.39401 0.0
C388 C 0.12029 0.80838 0.37228 0.0
C389 C 0.11566 0.79855 0.32062 0.0
H390 H 0.19622 0.21445 0.74315 0.0
H391 H 0.15949 0.33884 0.82071 0.0
H392 H 0.19425 0.30278 0.90094 0.0
H393 H 0.14819 0.12717 0.81783 0.0
H394 H 0.19288 0.08338 0.81866 0.0
H395 H 0.18407 0.12567 0.76633 0.0
H396 H 0.2798 0.16187 0.77686 0.0
H397 H 0.29006 0.11812 0.8281 0.0
H398 H 0.31101 0.18468 0.83664 0.0
H399 H 0.21308 0.24558 0.97124 0.0
H400 H 0.22029 0.17355 0.02878 0.0
H401 H 0.23866 0.08111 0.9064 0.0
C402 C 0.19916 0.23577 0.77683 0.0
C403 C 0.1775 0.28042 0.7761 0.0
C404 C 0.17798 0.30573 0.82081 0.0
C405 C 0.19724 0.28521 0.86642 0.0
C406 C 0.21506 0.2391 0.86638 0.0
C407 C 0.21685 0.21485 0.8227 0.0
C408 C 0.22844 0.1616 0.83315 0.0
C409 C 0.18583 0.12218 0.80749 0.0
C410 C 0.28044 0.15627 0.81779 0.0
C411 C 0.22995 0.15874 0.8892 0.0
C412 C 0.22337 0.20428 0.90754 0.0
C413 C 0.21951 0.21014 0.95752 0.0
C414 C 0.22321 0.1687 0.98983 0.0
C415 C 0.23011 0.12156 0.97209 0.0
C416 C 0.23358 0.11664 0.92104 0.0
H417 H 0.81362 0.07292 0.40073 0.0
H418 H 0.86301 0.17468 0.28271 0.0
H419 H 0.9016 0.23881 0.34561 0.0
H420 H 0.79357 0.16925 0.48979 0.0
H421 H 0.81932 0.13381 0.54245 0.0
H422 H 0.78562 0.10143 0.4879 0.0
H423 H 0.86367 0.05718 0.48162 0.0
H424 H 0.89799 0.0897 0.53549 0.0
H425 H 0.92488 0.0949 0.4777 0.0
H426 H 0.94843 0.28402 0.42127 0.0
H427 H -0.00182 0.30776 0.50248 0.0
H428 H 0.92003 0.17531 0.57184 0.0
C429 C 0.83144 0.10919 0.38793 0.0
C430 C 0.83545 0.11884 0.33678 0.0
C431 C 0.85891 0.16678 0.32155 0.0
C432 C 0.88104 0.20327 0.35711 0.0
C433 C 0.87879 0.1913 0.40754 0.0
C434 C 0.85404 0.1455 0.42285 0.0
C435 C 0.86257 0.13885 0.47904 0.0
C436 C 0.81226 0.13566 0.50109 0.0
C437 C 0.88884 0.09244 0.49433 0.0
C438 C 0.89764 0.18735 0.49314 0.0
C439 C 0.90594 0.21741 0.45139 0.0
C440 C 0.94119 0.26144 0.45425 0.0
C441 C 0.96938 0.2745 0.50054 0.0
C442 C 0.9623 0.24367 0.54348 0.0
C443 C 0.925 0.20029 0.53992 0.0
loop_
_geom_bond_atom_site_label_1
_geom_bond_atom_site_label_2
_geom_bond_distance
_geom_bond_site_symmetry_2
_ccdc_geom_bond_type
Co0 N5 2.057 . S
Co0 O17 2.021 . S
Co0 O20 2.062 . S
Co0 O24 2.117 . S
Co0 O25 2.020 . S
C1 O21 1.259 . S
C1 O24 1.258 . S
Co2 N11 2.057 1_544 S
Co2 O18 2.117 . S
Co2 O19 2.020 1_545 S
Co2 O21 2.021 . S
Co2 O26 2.062 1_554 S
C3 N5 1.316 . S
C3 N6 1.347 . S
C3 H8 0.931 . S
C4 N5 1.375 . S
C4 C7 1.350 . S
C4 H9 0.930 . S
N5 Co0 2.057 . S
N5 C3 1.316 . S
N5 C4 1.375 . S
N6 C3 1.347 . S
N6 C7 1.373 . S
C7 C4 1.350 . S
C7 N6 1.373 . S
C7 H28 0.931 . S
H8 C3 0.931 . S
H9 C4 0.930 . S
C10 O17 1.259 . S
C10 O18 1.258 . S
N11 Co2 2.057 1_566 S
N11 C12 1.316 . S
N11 C13 1.375 . S
C12 N11 1.316 . S
C12 N14 1.347 . S
C12 H23 0.931 . S
C13 N11 1.375 . S
C13 C15 1.350 . S
C13 H22 0.930 . S
N14 C12 1.347 . S
N14 C15 1.373 . S
C15 C13 1.350 . S
C15 N14 1.373 . S
C15 H29 0.931 . S
C16 O19 1.256 . S
C16 O20 1.255 1_565 S
O17 Co0 2.021 . S
O17 C10 1.259 . S
O18 Co2 2.117 . S
O18 C10 1.258 . S
O19 Co2 2.020 1_565 S
O19 C16 1.256 . S
O20 Co0 2.062 . S
O20 C16 1.255 1_545 S
O21 C1 1.259 . S
O21 Co2 2.021 . S
H22 C13 0.930 . S
H23 C12 0.931 . S
O24 Co0 2.117 . S
O24 C1 1.258 . S
O25 Co0 2.020 . S
O25 C27 1.256 1_554 S
O26 Co2 2.062 1_556 S
O26 C27 1.255 . S
C27 O25 1.256 1_556 S
C27 O26 1.255 . S
H28 C7 0.931 . S
H29 C15 0.931 . S
Co30 N35 2.057 1_455 S
Co30 O47 2.021 . S
Co30 O50 2.062 . S
Co30 O54 2.117 . S
Co30 O55 2.020 1_455 S
C31 O51 1.259 . S
C31 O54 1.258 . S
Co32 N41 2.057 . S
Co32 O48 2.117 . S
Co32 O49 2.020 . S
Co32 O51 2.021 . S
Co32 O56 2.062 . S
C33 N35 1.316 . S
C33 N36 1.347 . S
C33 H38 0.931 . S
C34 N35 1.375 . S
C34 C37 1.350 . S
C34 H39 0.930 . S
N35 Co30 2.057 1_655 S
N35 C33 1.316 . S
N35 C34 1.375 . S
N36 C33 1.347 . S
N36 C37 1.373 . S
C37 C34 1.350 . S
C37 N36 1.373 . S
C37 H58 0.931 . S
H38 C33 0.931 . S
H39 C34 0.930 . S
C40 O47 1.259 . S
C40 O48 1.258 . S
N41 Co32 2.057 . S
N41 C42 1.316 . S
N41 C43 1.375 . S
C42 N41 1.316 . S
C42 N44 1.347 . S
C42 H53 0.931 . S
C43 N41 1.375 . S
C43 C45 1.350 . S
C43 H52 0.930 . S
N44 C42 1.347 . S
N44 C45 1.373 . S
C45 C43 1.350 . S
C45 N44 1.373 . S
C45 H59 0.931 . S
C46 O49 1.256 . S
C46 O50 1.255 . S
O47 Co30 2.021 . S
O47 C40 1.259 . S
O48 Co32 2.117 . S
O48 C40 1.258 . S
O49 Co32 2.020 . S
O49 C46 1.256 . S
O50 Co30 2.062 . S
O50 C46 1.255 . S
O51 C31 1.259 . S
O51 Co32 2.021 . S
H52 C43 0.930 . S
H53 C42 0.931 . S
O54 Co30 2.117 . S
O54 C31 1.258 . S
O55 Co30 2.020 1_655 S
O55 C57 1.256 . S
O56 Co32 2.062 . S
O56 C57 1.255 1_455 S
C57 O55 1.256 . S
C57 O56 1.255 1_655 S
H58 C37 0.931 . S
H59 C45 0.931 . S
Co60 N65 2.057 . S
Co60 O77 2.021 . S
Co60 O80 2.062 1_545 S
Co60 O84 2.117 . S
Co60 O85 2.020 . S
C61 O81 1.259 . S
C61 O84 1.258 1_565 S
Co62 N71 2.057 . S
Co62 O78 2.117 . S
Co62 O79 2.020 . S
Co62 O81 2.021 . S
Co62 O86 2.062 1_565 S
C63 N65 1.316 . S
C63 N66 1.347 . S
C63 H68 0.931 . S
C64 N65 1.375 . S
C64 C67 1.350 . S
C64 H69 0.930 . S
N65 Co60 2.057 . S
N65 C63 1.316 . S
N65 C64 1.375 . S
N66 C63 1.347 . S
N66 C67 1.373 . S
C67 C64 1.350 . S
C67 N66 1.373 . S
C67 H88 0.931 . S
H68 C63 0.931 . S
H69 C64 0.930 . S
C70 O77 1.259 . S
C70 O78 1.258 1_545 S
N71 Co62 2.057 . S
N71 C72 1.316 1_554 S
N71 C73 1.375 . S
C72 N71 1.316 1_556 S
C72 N74 1.347 . S
C72 H83 0.931 . S
C73 N71 1.375 . S
C73 C75 1.348 1_554 S
C73 H82 0.931 . S
N74 C72 1.347 . S
N74 C75 1.373 . S
C75 C73 1.348 1_556 S
C75 N74 1.373 . S
C75 H89 0.931 . S
C76 O79 1.256 . S
C76 O80 1.255 . S
O77 Co60 2.021 . S
O77 C70 1.259 . S
O78 Co62 2.117 . S
O78 C70 1.258 1_565 S
O79 Co62 2.020 . S
O79 C76 1.256 . S
O80 Co60 2.062 1_565 S
O80 C76 1.255 . S
O81 C61 1.259 . S
O81 Co62 2.021 . S
H82 C73 0.931 . S
H83 C72 0.931 . S
O84 Co60 2.117 . S
O84 C61 1.258 1_545 S
O85 Co60 2.020 . S
O85 C87 1.256 . S
O86 Co62 2.062 1_545 S
O86 C87 1.255 . S
C87 O85 1.256 . S
C87 O86 1.255 . S
H88 C67 0.931 . S
H89 C75 0.931 . S
Co90 N95 2.057 . S
Co90 O107 2.021 . S
Co90 O110 2.062 1_655 S
Co90 O114 2.117 . S
Co90 O115 2.020 . S
C91 O111 1.259 . S
C91 O114 1.258 1_455 S
Co92 N101 2.057 . S
Co92 O108 2.117 . S
Co92 O109 2.020 . S
Co92 O111 2.021 . S
Co92 O116 2.062 1_455 S
C93 N95 1.316 . S
C93 N96 1.347 . S
C93 H98 0.931 . S
C94 N95 1.375 . S
C94 C97 1.350 . S
C94 H99 0.930 . S
N95 Co90 2.057 . S
N95 C93 1.316 . S
N95 C94 1.375 . S
N96 C93 1.347 . S
N96 C97 1.373 . S
C97 C94 1.350 . S
C97 N96 1.373 . S
C97 H118 0.931 . S
H98 C93 0.931 . S
H99 C94 0.930 . S
C100 O107 1.259 . S
C100 O108 1.258 1_655 S
N101 Co92 2.057 . S
N101 C102 1.316 . S
N101 C103 1.375 . S
C102 N101 1.316 . S
C102 N104 1.347 . S
C102 H113 0.931 . S
C103 N101 1.375 . S
C103 C105 1.350 . S
C103 H112 0.930 . S
N104 C102 1.347 . S
N104 C105 1.373 . S
C105 C103 1.350 . S
C105 N104 1.373 . S
C105 H119 0.931 . S
C106 O109 1.256 . S
C106 O110 1.255 . S
O107 Co90 2.021 . S
O107 C100 1.259 . S
O108 Co92 2.117 . S
O108 C100 1.258 1_455 S
O109 Co92 2.020 . S
O109 C106 1.256 . S
O110 Co90 2.062 1_455 S
O110 C106 1.255 . S
O111 C91 1.259 . S
O111 Co92 2.021 . S
H112 C103 0.930 . S
H113 C102 0.931 . S
O114 Co90 2.117 . S
O114 C91 1.258 1_655 S
O115 Co90 2.020 . S
O115 C117 1.256 . S
O116 Co92 2.062 1_655 S
O116 C117 1.255 . S
C117 O115 1.256 . S
C117 O116 1.255 . S
H118 C97 0.931 . S
H119 C105 0.931 . S
H120 C132 0.930 . S
H121 C134 0.930 . S
H122 C135 0.930 . S
H123 C139 0.959 . S
H124 C139 0.959 . S
H125 C139 0.961 1_655 S
H126 C140 0.960 . S
H127 C140 0.961 . S
H128 C140 0.959 . S
H129 C143 0.929 . S
H130 C144 0.931 . S
H131 C146 0.930 . S
C132 H120 0.930 . S
C132 C133 1.399 1_545 S
C132 C137 1.399 . S
C133 C132 1.399 1_565 S
C133 C134 1.376 . S
C134 H121 0.930 . S
C134 C133 1.376 . S
C134 C135 1.388 . S
C135 H122 0.930 . S
C135 C134 1.388 . S
C135 C136 1.391 . S
C136 C135 1.391 . S
C136 C137 1.395 1_565 S
C136 C142 1.462 1_665 S
C137 C132 1.399 . S
C137 C136 1.395 1_545 S
C137 C138 1.516 1_655 S
C138 C137 1.516 1_455 S
C138 C139 1.502 . S
C138 C140 1.561 . S
C138 C141 1.526 . S
C139 H123 0.959 . S
C139 H124 0.959 . S
C139 H125 0.961 1_455 S
C139 C138 1.502 . S
C140 H126 0.960 . S
C140 H127 0.961 . S
C140 H128 0.959 . S
C140 C138 1.561 . S
C141 C138 1.526 . S
C141 C142 1.396 . S
C141 C146 1.390 . S
C142 C136 1.462 1_445 S
C142 C141 1.396 . S
C142 C143 1.399 1_545 S
C143 H129 0.929 . S
C143 C142 1.399 1_565 S
C143 C144 1.385 . S
C144 H130 0.931 . S
C144 C143 1.385 . S
C144 C145 1.389 1_565 S
C145 C144 1.389 1_545 S
C145 C146 1.387 . S
C146 H131 0.930 . S
C146 C141 1.390 . S
C146 C145 1.387 . S
H147 C159 0.930 . S
H148 C161 0.930 . S
H149 C162 0.930 . S
H150 C166 0.959 . S
H151 C166 0.959 . S
H152 C166 0.961 . S
H153 C167 0.960 . S
H154 C167 0.961 . S
H155 C167 0.959 1_655 S
H156 C170 0.929 1_655 S
H157 C171 0.931 . S
H158 C173 0.930 . S
C159 H147 0.930 . S
C159 C160 1.399 1_455 S
C159 C164 1.399 . S
C160 C159 1.399 1_655 S
C160 C161 1.376 . S
C161 H148 0.930 . S
C161 C160 1.376 . S
C161 C162 1.388 . S
C162 H149 0.930 . S
C162 C161 1.388 . S
C162 C163 1.390 1_655 S
C163 C162 1.390 1_455 S
C163 C164 1.394 . S
C163 C169 1.465 1_565 S
C164 C159 1.399 . S
C164 C163 1.394 . S
C164 C165 1.516 1_565 S
C165 C164 1.516 1_545 S
C165 C166 1.502 . S
C165 C167 1.561 . S
C165 C168 1.526 . S
C166 H150 0.959 . S
C166 H151 0.959 . S
C166 H152 0.961 . S
C166 C165 1.502 . S
C167 H153 0.960 . S
C167 H154 0.961 . S
C167 H155 0.959 1_455 S
C167 C165 1.561 . S
C168 C165 1.526 . S
C168 C169 1.396 . S
C168 C173 1.390 . S
C169 C163 1.465 1_545 S
C169 C168 1.396 . S
C169 C170 1.399 . S
C170 H156 0.929 1_455 S
C170 C169 1.399 . S
C170 C171 1.385 . S
C171 H157 0.931 . S
C171 C170 1.385 . S
C171 C172 1.389 . S
C172 C171 1.389 . S
C172 C173 1.387 . S
C173 H158 0.930 . S
C173 C168 1.390 . S
C173 C172 1.387 . S
H174 C186 0.930 . S
H175 C188 0.930 . S
H176 C189 0.930 1_556 S
H177 C193 0.959 . S
H178 C193 0.959 1_545 S
H179 C193 0.961 . S
H180 C194 0.960 . S
H181 C194 0.961 . S
H182 C194 0.959 . S
H183 C197 0.929 1_556 S
H184 C198 0.931 1_556 S
H185 C200 0.930 . S
C186 H174 0.930 . S
C186 C187 1.402 . S
C186 C191 1.399 . S
C187 C186 1.402 . S
C187 C188 1.378 . S
C188 H175 0.930 . S
C188 C187 1.378 . S
C188 C189 1.388 . S
C189 H176 0.930 1_554 S
C189 C188 1.388 . S
C189 C190 1.390 . S
C190 C189 1.390 . S
C190 C191 1.394 . S
C190 C196 1.465 . S
C191 C186 1.399 . S
C191 C190 1.394 . S
C191 C192 1.516 . S
C192 C191 1.516 . S
C192 C193 1.502 1_545 S
C192 C194 1.561 . S
C192 C195 1.526 . S
C193 H177 0.959 . S
C193 H178 0.959 1_565 S
C193 H179 0.961 . S
C193 C192 1.502 1_565 S
C194 H180 0.960 . S
C194 H181 0.961 . S
C194 H182 0.959 . S
C194 C192 1.561 . S
C195 C192 1.526 . S
C195 C196 1.396 . S
C195 C200 1.390 . S
C196 C190 1.465 . S
C196 C195 1.396 . S
C196 C197 1.399 . S
C197 H183 0.929 1_554 S
C197 C196 1.399 . S
C197 C198 1.385 . S
C198 H184 0.931 1_554 S
C198 C197 1.385 . S
C198 C199 1.389 . S
C199 C198 1.389 . S
C199 C200 1.387 . S
C200 H185 0.930 . S
C200 C195 1.390 . S
C200 C199 1.387 . S
H201 C213 0.930 . S
H202 C215 0.930 . S
H203 C216 0.930 1_655 S
H204 C220 0.959 . S
H205 C220 0.959 . S
H206 C220 0.961 . S
H207 C221 0.960 . S
H208 C221 0.961 . S
H209 C221 0.959 1_655 S
H210 C224 0.929 . S
H211 C225 0.931 . S
H212 C227 0.930 . S
C213 H201 0.930 . S
C213 C214 1.399 . S
C213 C218 1.399 . S
C214 C213 1.399 . S
C214 C215 1.376 . S
C215 H202 0.930 . S
C215 C214 1.376 . S
C215 C216 1.388 . S
C216 H203 0.930 1_455 S
C216 C215 1.388 . S
C216 C217 1.390 . S
C217 C216 1.390 . S
C217 C218 1.394 . S
C217 C223 1.465 . S
C218 C213 1.399 . S
C218 C217 1.394 . S
C218 C219 1.516 . S
C219 C218 1.516 . S
C219 C220 1.502 . S
C219 C221 1.561 . S
C219 C222 1.526 . S
C220 H204 0.959 . S
C220 H205 0.959 . S
C220 H206 0.961 . S
C220 C219 1.502 . S
C221 H207 0.960 . S
C221 H208 0.961 . S
C221 H209 0.959 1_455 S
C221 C219 1.561 . S
C222 C219 1.526 . S
C222 C223 1.396 . S
C222 C227 1.390 . S
C223 C217 1.465 . S
C223 C222 1.396 . S
C223 C224 1.399 1_455 S
C224 H210 0.929 . S
C224 C223 1.399 1_655 S
C224 C225 1.385 . S
C225 H211 0.931 . S
C225 C224 1.385 . S
C225 C226 1.389 . S
C226 C225 1.389 . S
C226 C227 1.387 1_655 S
C227 H212 0.930 . S
C227 C222 1.390 . S
C227 C226 1.387 1_455 S
H228 C240 0.930 . S
H229 C242 0.930 . S
H230 C243 0.930 . S
H231 C247 0.959 . S
H232 C247 0.959 . S
H233 C247 0.961 . S
H234 C248 0.960 . S
H235 C248 0.961 . S
H236 C248 0.959 . S
H237 C251 0.929 . S
H238 C252 0.931 . S
H239 C254 0.930 . S
C240 H228 0.930 . S
C240 C241 1.399 . S
C240 C245 1.399 . S
C241 C240 1.399 . S
C241 C242 1.376 . S
C242 H229 0.930 . S
C242 C241 1.376 . S
C242 C243 1.388 . S
C243 H230 0.930 . S
C243 C242 1.388 . S
C243 C244 1.390 . S
C244 C243 1.390 . S
C244 C245 1.394 . S
C244 C250 1.465 . S
C245 C240 1.399 . S
C245 C244 1.394 . S
C245 C246 1.516 . S
C246 C245 1.516 . S
C246 C247 1.502 . S
C246 C248 1.561 . S
C246 C249 1.526 . S
C247 H231 0.959 . S
C247 H232 0.959 . S
C247 H233 0.961 . S
C247 C246 1.502 . S
C248 H234 0.960 . S
C248 H235 0.961 . S
C248 H236 0.959 . S
C248 C246 1.561 . S
C249 C246 1.526 . S
C249 C250 1.396 . S
C249 C254 1.390 . S
C250 C244 1.465 . S
C250 C249 1.396 . S
C250 C251 1.399 . S
C251 H237 0.929 . S
C251 C250 1.399 . S
C251 C252 1.385 . S
C252 H238 0.931 . S
C252 C251 1.385 . S
C252 C253 1.389 . S
C253 C252 1.389 . S
C253 C254 1.387 . S
C254 H239 0.930 . S
C254 C249 1.390 . S
C254 C253 1.387 . S
H255 C267 0.930 . S
H256 C269 0.930 . S
H257 C270 0.930 . S
H258 C274 0.959 . S
H259 C274 0.959 . S
H260 C274 0.961 . S
H261 C275 0.960 . S
H262 C275 0.961 . S
H263 C275 0.959 . S
H264 C278 0.929 . S
H265 C279 0.931 . S
H266 C281 0.930 . S
C267 H255 0.930 . S
C267 C268 1.399 . S
C267 C272 1.399 . S
C268 C267 1.399 . S
C268 C269 1.376 . S
C269 H256 0.930 . S
C269 C268 1.376 . S
C269 C270 1.388 . S
C270 H257 0.930 . S
C270 C269 1.388 . S
C270 C271 1.390 . S
C271 C270 1.390 . S
C271 C272 1.394 . S
C271 C277 1.465 . S
C272 C267 1.399 . S
C272 C271 1.394 . S
C272 C273 1.516 . S
C273 C272 1.516 . S
C273 C274 1.502 . S
C273 C275 1.561 . S
C273 C276 1.526 . S
C274 H258 0.959 . S
C274 H259 0.959 . S
C274 H260 0.961 . S
C274 C273 1.502 . S
C275 H261 0.960 . S
C275 H262 0.961 . S
C275 H263 0.959 . S
C275 C273 1.561 . S
C276 C273 1.526 . S
C276 C277 1.396 . S
C276 C281 1.390 . S
C277 C271 1.465 . S
C277 C276 1.396 . S
C277 C278 1.399 . S
C278 H264 0.929 . S
C278 C277 1.399 . S
C278 C279 1.385 1_556 S
C279 H265 0.931 . S
C279 C278 1.385 1_554 S
C279 C280 1.389 1_554 S
C280 C279 1.389 1_556 S
C280 C281 1.387 . S
C281 H266 0.930 . S
C281 C276 1.390 . S
C281 C280 1.387 . S
H282 C294 0.930 . S
H283 C296 0.930 . S
H284 C297 0.930 . S
H285 C301 0.959 . S
H286 C301 0.959 . S
H287 C301 0.961 . S
H288 C302 0.960 . S
H289 C302 0.961 . S
H290 C302 0.959 . S
H291 C305 0.929 . S
H292 C306 0.931 . S
H293 C308 0.930 . S
C294 H282 0.930 . S
C294 C295 1.399 . S
C294 C299 1.399 . S
C295 C294 1.399 . S
C295 C296 1.376 . S
C296 H283 0.930 . S
C296 C295 1.376 . S
C296 C297 1.388 . S
C297 H284 0.930 . S
C297 C296 1.388 . S
C297 C298 1.390 . S
C298 C297 1.390 . S
C298 C299 1.394 . S
C298 C304 1.465 . S
C299 C294 1.399 . S
C299 C298 1.394 . S
C299 C300 1.516 . S
C300 C299 1.516 . S
C300 C301 1.502 . S
C300 C302 1.561 . S
C300 C303 1.526 . S
C301 H285 0.959 . S
C301 H286 0.959 . S
C301 H287 0.961 . S
C301 C300 1.502 . S
C302 H288 0.960 . S
C302 H289 0.961 . S
C302 H290 0.959 . S
C302 C300 1.561 . S
C303 C300 1.526 . S
C303 C304 1.396 . S
C303 C308 1.390 . S
C304 C298 1.465 . S
C304 C303 1.396 . S
C304 C305 1.399 . S
C305 H291 0.929 . S
C305 C304 1.399 . S
C305 C306 1.385 . S
C306 H292 0.931 . S
C306 C305 1.385 . S
C306 C307 1.389 . S
C307 C306 1.389 . S
C307 C308 1.387 . S
C308 H293 0.930 . S
C308 C303 1.390 . S
C308 C307 1.387 . S
H309 C321 0.930 . S
H310 C323 0.930 . S
H311 C324 0.930 . S
H312 C328 0.959 . S
H313 C328 0.959 . S
H314 C328 0.961 . S
H315 C329 0.960 . S
H316 C329 0.961 . S
H317 C329 0.959 . S
H318 C332 0.929 . S
H319 C333 0.931 . S
H320 C335 0.930 . S
C321 H309 0.930 . S
C321 C322 1.399 . S
C321 C326 1.399 . S
C322 C321 1.399 . S
C322 C323 1.376 . S
C323 H310 0.930 . S
C323 C322 1.376 . S
C323 C324 1.388 . S
C324 H311 0.930 . S
C324 C323 1.388 . S
C324 C325 1.390 . S
C325 C324 1.390 . S
C325 C326 1.394 . S
C325 C331 1.465 . S
C326 C321 1.399 . S
C326 C325 1.394 . S
C326 C327 1.516 . S
C327 C326 1.516 . S
C327 C328 1.502 . S
C327 C329 1.561 . S
C327 C330 1.526 . S
C328 H312 0.959 . S
C328 H313 0.959 . S
C328 H314 0.961 . S
C328 C327 1.502 . S
C329 H315 0.960 . S
C329 H316 0.961 . S
C329 H317 0.959 . S
C329 C327 1.561 . S
C330 C327 1.526 . S
C330 C331 1.396 . S
C330 C335 1.390 . S
C331 C325 1.465 . S
C331 C330 1.396 . S
C331 C332 1.399 . S
C332 H318 0.929 . S
C332 C331 1.399 . S
C332 C333 1.385 . S
C333 H319 0.931 . S
C333 C332 1.385 . S
C333 C334 1.389 . S
C334 C333 1.389 . S
C334 C335 1.387 . S
C335 H320 0.930 . S
C335 C330 1.390 . S
C335 C334 1.387 . S
H336 C348 0.930 . S
H337 C350 0.930 . S
H338 C351 0.930 . S
H339 C355 0.959 . S
H340 C355 0.959 . S
H341 C355 0.961 . S
H342 C356 0.960 . S
H343 C356 0.961 . S
H344 C356 0.959 . S
H345 C359 0.929 . S
H346 C360 0.931 . S
H347 C362 0.930 . S
C348 H336 0.930 . S
C348 C349 1.399 . S
C348 C353 1.399 . S
C349 C348 1.399 . S
C349 C350 1.376 . S
C350 H337 0.930 . S
C350 C349 1.376 . S
C350 C351 1.388 . S
C351 H338 0.930 . S
C351 C350 1.388 . S
C351 C352 1.390 . S
C352 C351 1.390 . S
C352 C353 1.394 . S
C352 C358 1.465 . S
C353 C348 1.399 . S
C353 C352 1.394 . S
C353 C354 1.516 . S
C354 C353 1.516 . S
C354 C355 1.502 . S
C354 C356 1.561 . S
C354 C357 1.526 . S
C355 H339 0.959 . S
C355 H340 0.959 . S
C355 H341 0.961 . S
C355 C354 1.502 . S
C356 H342 0.960 . S
C356 H343 0.961 . S
C356 H344 0.959 . S
C356 C354 1.561 . S
C357 C354 1.526 . S
C357 C358 1.396 . S
C357 C362 1.390 . S
C358 C352 1.465 . S
C358 C357 1.396 . S
C358 C359 1.399 . S
C359 H345 0.929 . S
C359 C358 1.399 . S
C359 C360 1.385 . S
C360 H346 0.931 . S
C360 C359 1.385 . S
C360 C361 1.389 . S
C361 C360 1.389 . S
C361 C362 1.387 . S
C362 H347 0.930 . S
C362 C357 1.390 . S
C362 C361 1.387 . S
H363 C375 0.930 . S
H364 C377 0.930 1_545 S
H365 C378 0.930 . S
H366 C382 0.959 . S
H367 C382 0.959 . S
H368 C382 0.961 . S
H369 C383 0.960 . S
H370 C383 0.961 . S
H371 C383 0.959 . S
H372 C386 0.929 . S
H373 C387 0.931 . S
H374 C389 0.930 . S
C375 H363 0.930 . S
C375 C376 1.399 . S
C375 C380 1.399 . S
C376 C375 1.399 . S
C376 C377 1.376 . S
C377 H364 0.930 1_565 S
C377 C376 1.376 . S
C377 C378 1.388 . S
C378 H365 0.930 . S
C378 C377 1.388 . S
C378 C379 1.390 . S
C379 C378 1.390 . S
C379 C380 1.394 . S
C379 C385 1.465 . S
C380 C375 1.399 . S
C380 C379 1.394 . S
C380 C381 1.516 . S
C381 C380 1.516 . S
C381 C382 1.502 . S
C381 C383 1.561 . S
C381 C384 1.526 . S
C382 H366 0.959 . S
C382 H367 0.959 . S
C382 H368 0.961 . S
C382 C381 1.502 . S
C383 H369 0.960 . S
C383 H370 0.961 . S
C383 H371 0.959 . S
C383 C381 1.561 . S
C384 C381 1.526 . S
C384 C385 1.396 . S
C384 C389 1.390 . S
C385 C379 1.465 . S
C385 C384 1.396 . S
C385 C386 1.399 . S
C386 H372 0.929 . S
C386 C385 1.399 . S
C386 C387 1.385 . S
C387 H373 0.931 . S
C387 C386 1.385 . S
C387 C388 1.389 . S
C388 C387 1.389 . S
C388 C389 1.387 . S
C389 H374 0.930 . S
C389 C384 1.390 . S
C389 C388 1.387 . S
H390 C402 0.930 . S
H391 C404 0.930 . S
H392 C405 0.930 . S
H393 C409 0.959 . S
H394 C409 0.959 . S
H395 C409 0.961 . S
H396 C410 0.960 . S
H397 C410 0.961 . S
H398 C410 0.959 . S
H399 C413 0.929 . S
H400 C414 0.931 . S
H401 C416 0.930 . S
C402 H390 0.930 . S
C402 C403 1.399 . S
C402 C407 1.399 . S
C403 C402 1.399 . S
C403 C404 1.376 . S
C404 H391 0.930 . S
C404 C403 1.376 . S
C404 C405 1.388 . S
C405 H392 0.930 . S
C405 C404 1.388 . S
C405 C406 1.390 . S
C406 C405 1.390 . S
C406 C407 1.394 . S
C406 C412 1.465 . S
C407 C402 1.399 . S
C407 C406 1.394 . S
C407 C408 1.516 . S
C408 C407 1.516 . S
C408 C409 1.502 . S
C408 C410 1.561 . S
C408 C411 1.526 . S
C409 H393 0.959 . S
C409 H394 0.959 . S
C409 H395 0.961 . S
C409 C408 1.502 . S
C410 H396 0.960 . S
C410 H397 0.961 . S
C410 H398 0.959 . S
C410 C408 1.561 . S
C411 C408 1.526 . S
C411 C412 1.396 . S
C411 C416 1.390 . S
C412 C406 1.465 . S
C412 C411 1.396 . S
C412 C413 1.399 . S
C413 H399 0.929 . S
C413 C412 1.399 . S
C413 C414 1.385 . S
C414 H400 0.931 . S
C414 C413 1.385 . S
C414 C415 1.389 . S
C415 C414 1.389 . S
C415 C416 1.387 . S
C416 H401 0.930 . S
C416 C411 1.390 . S
C416 C415 1.387 . S
H417 C429 0.930 . S
H418 C431 0.930 . S
H419 C432 0.930 . S
H420 C436 0.959 . S
H421 C436 0.959 . S
H422 C436 0.961 . S
H423 C437 0.960 . S
H424 C437 0.961 . S
H425 C437 0.959 . S
H426 C440 0.929 . S
H427 C441 0.931 1_455 S
H428 C443 0.930 . S
C429 H417 0.930 . S
C429 C430 1.399 . S
C429 C434 1.399 . S
C430 C429 1.399 . S
C430 C431 1.376 . S
C431 H418 0.930 . S
C431 C430 1.376 . S
C431 C432 1.388 . S
C432 H419 0.930 . S
C432 C431 1.388 . S
C432 C433 1.390 . S
C433 C432 1.390 . S
C433 C434 1.394 . S
C433 C439 1.465 . S
C434 C429 1.399 . S
C434 C433 1.394 . S
C434 C435 1.516 . S
C435 C434 1.516 . S
C435 C436 1.502 . S
C435 C437 1.561 . S
C435 C438 1.526 . S
C436 H420 0.959 . S
C436 H421 0.959 . S
C436 H422 0.961 . S
C436 C435 1.502 . S
C437 H423 0.960 . S
C437 H424 0.961 . S
C437 H425 0.959 . S
C437 C435 1.561 . S
C438 C435 1.526 . S
C438 C439 1.396 . S
C438 C443 1.390 . S
C439 C433 1.465 . S
C439 C438 1.396 . S
C439 C440 1.399 . S
C440 H426 0.929 . S
C440 C439 1.399 . S
C440 C441 1.385 . S
C441 H427 0.931 1_655 S
C441 C440 1.385 . S
C441 C442 1.389 . S
C442 C441 1.389 . S
C442 C443 1.387 . S
C443 H428 0.930 . S
C443 C438 1.390 . S
C443 C442 1.387 . S
C133 C61 0.517 . S
C145 C10 0.517 . S
C160 C91 0.599 1_655 S
C172 C40 0.627 . S
C187 C70 0.657 . S
C199 C1 0.699 . S
C214 C31 0.760 . S
C226 C100 0.731 . S
C241 N44 1.130 . S
C253 N6 1.188 . S
C268 N36 1.479 . S
C280 C87 1.447 1_556 S
C295 C117 1.568 . S
C307 C76 1.573 . S
C322 C106 1.338 . S
C334 N14 1.285 . S
C349 N74 1.187 . S
C361 N96 1.158 . S
C376 C16 1.462 . S
C388 N104 1.482 . S
C403 C46 1.565 . S
C415 C27 1.555 . S
C430 N66 1.157 . S
C442 C57 1.300 . S
