# Generated by pormake.
# Topology ukt, (4)-cn, num edge types: 1
# Building blocks:
#     Node 0, Type 0, BuildingBlock: UXUYUI_clean_sbu_0, # of connection points: 4
#     Node 1, Type 0, BuildingBlock: UXUYUI_clean_sbu_0, # of connection points: 4
#     Node 2, Type 0, BuildingBlock: UXUYUI_clean_sbu_0, # of connection points: 4
#     Node 3, Type 0, BuildingBlock: UXUYUI_clean_sbu_0, # of connection points: 4
#     Node 4, Type 0, BuildingBlock: UXUYUI_clean_sbu_0, # of connection points: 4
#     Node 5, Type 0, BuildingBlock: UXUYUI_clean_sbu_0, # of connection points: 4
#     Node 6, Type 0, BuildingBlock: UXUYUI_clean_sbu_0, # of connection points: 4
#     Node 7, Type 0, BuildingBlock: UXUYUI_clean_sbu_0, # of connection points: 4
#     Node 8, Type 0, BuildingBlock: UXUYUI_clean_sbu_0, # of connection points: 4
#     Node 9, Type 0, BuildingBlock: UXUYUI_clean_sbu_0, # of connection points: 4
#     Node 10, Type 0, BuildingBlock: UXUYUI_clean_sbu_0, # of connection points: 4
#     Node 11, Type 0, BuildingBlock: UXUYUI_clean_sbu_0, # of connection points: 4
#     Node 12, Type 0, BuildingBlock: UXUYUI_clean_sbu_0, # of connection points: 4
#     Node 13, Type 0, BuildingBlock: UXUYUI_clean_sbu_0, # of connection points: 4
#     Node 14, Type 0, BuildingBlock: UXUYUI_clean_sbu_0, # of connection points: 4
#     Node 15, Type 0, BuildingBlock: UXUYUI_clean_sbu_0, # of connection points: 4
#     Edge 16, Type (0, 0), BuildingBlock: UVAHIK_clean_linker_0, # of connection points: 2
#     Edge 17, Type (0, 0), BuildingBlock: UVAHIK_clean_linker_0, # of connection points: 2
#     Edge 18, Type (0, 0), BuildingBlock: UVAHIK_clean_linker_0, # of connection points: 2
#     Edge 19, Type (0, 0), BuildingBlock: UVAHIK_clean_linker_0, # of connection points: 2
#     Edge 20, Type (0, 0), BuildingBlock: UVAHIK_clean_linker_0, # of connection points: 2
#     Edge 21, Type (0, 0), BuildingBlock: UVAHIK_clean_linker_0, # of connection points: 2
#     Edge 22, Type (0, 0), BuildingBlock: UVAHIK_clean_linker_0, # of connection points: 2
#     Edge 23, Type (0, 0), BuildingBlock: UVAHIK_clean_linker_0, # of connection points: 2
#     Edge 24, Type (0, 0), BuildingBlock: UVAHIK_clean_linker_0, # of connection points: 2
#     Edge 25, Type (0, 0), BuildingBlock: UVAHIK_clean_linker_0, # of connection points: 2
#     Edge 26, Type (0, 0), BuildingBlock: UVAHIK_clean_linker_0, # of connection points: 2
#     Edge 27, Type (0, 0), BuildingBlock: UVAHIK_clean_linker_0, # of connection points: 2
#     Edge 28, Type (0, 0), BuildingBlock: UVAHIK_clean_linker_0, # of connection points: 2
#     Edge 29, Type (0, 0), BuildingBlock: UVAHIK_clean_linker_0, # of connection points: 2
#     Edge 30, Type (0, 0), BuildingBlock: UVAHIK_clean_linker_0, # of connection points: 2
#     Edge 31, Type (0, 0), BuildingBlock: UVAHIK_clean_linker_0, # of connection points: 2
#     Edge 32, Type (0, 0), BuildingBlock: UVAHIK_clean_linker_0, # of connection points: 2
#     Edge 33, Type (0, 0), BuildingBlock: UVAHIK_clean_linker_0, # of connection points: 2
#     Edge 34, Type (0, 0), BuildingBlock: UVAHIK_clean_linker_0, # of connection points: 2
#     Edge 35, Type (0, 0), BuildingBlock: UVAHIK_clean_linker_0, # of connection points: 2
#     Edge 36, Type (0, 0), BuildingBlock: UVAHIK_clean_linker_0, # of connection points: 2
#     Edge 37, Type (0, 0), BuildingBlock: UVAHIK_clean_linker_0, # of connection points: 2
#     Edge 38, Type (0, 0), BuildingBlock: UVAHIK_clean_linker_0, # of connection points: 2
#     Edge 39, Type (0, 0), BuildingBlock: UVAHIK_clean_linker_0, # of connection points: 2
#     Edge 40, Type (0, 0), BuildingBlock: UVAHIK_clean_linker_0, # of connection points: 2
#     Edge 41, Type (0, 0), BuildingBlock: UVAHIK_clean_linker_0, # of connection points: 2
#     Edge 42, Type (0, 0), BuildingBlock: UVAHIK_clean_linker_0, # of connection points: 2
#     Edge 43, Type (0, 0), BuildingBlock: UVAHIK_clean_linker_0, # of connection points: 2
#     Edge 44, Type (0, 0), BuildingBlock: UVAHIK_clean_linker_0, # of connection points: 2
#     Edge 45, Type (0, 0), BuildingBlock: UVAHIK_clean_linker_0, # of connection points: 2
#     Edge 46, Type (0, 0), BuildingBlock: UVAHIK_clean_linker_0, # of connection points: 2
#     Edge 47, Type (0, 0), BuildingBlock: UVAHIK_clean_linker_0, # of connection points: 2
# Relax obj value: 0.433
# Max RMSD: 0.238
# Mean RMSD: 0.238
data_MOF--net-ukt--node1-UXUYUI_clean_sbu_0--edge1-UVAHIK_clean_linker_0
_symmetry_space_group_name_H-M    P1
_symmetry_Int_Tables_number       1
_symmetry_cell_setting            triclinic
loop_
_symmetry_equiv_pos_as_xyz
'x, y, z'
_cell_length_a     72.261229
_cell_length_b     72.257308
_cell_length_c     65.198748
_cell_angle_alpha  89.988706
_cell_angle_beta   90.03902
_cell_angle_gamma 90.016547
loop_
_atom_site_label
_atom_site_type_symbol
_atom_site_fract_x
_atom_site_fract_y
_atom_site_fract_z
_atom_type_partial_charge
Li0 Li 0.57272 0.14447 0.11304 0.0
Li1 Li 0.57052 0.11941 0.08938 0.0
Li2 Li 0.59999 0.12811 0.10361 0.0
Li3 Li 0.58507 0.14801 0.07895 0.0
C4 C 0.56427 0.1101 0.12967 0.0
N5 N 0.53592 0.09435 0.15212 0.0
C6 C 0.54591 0.11531 0.12605 0.0
C7 C 0.56819 0.09689 0.1447 0.0
C8 C 0.53179 0.10718 0.13756 0.0
C9 C 0.55367 0.08909 0.1559 0.0
C10 C 0.54781 0.14555 0.0698 0.0
C11 C 0.54095 0.13753 0.03469 0.0
N12 N 0.52557 0.14834 0.03544 0.0
C13 C 0.53193 0.15658 0.07022 0.0
C14 C 0.55237 0.13595 0.0519 0.0
C15 C 0.52086 0.15781 0.05269 0.0
C16 C 0.55269 0.17418 0.128 0.0
N17 N 0.56097 0.15821 0.13401 0.0
C18 C 0.55468 0.16491 0.16919 0.0
C19 C 0.56193 0.15326 0.1541 0.0
C20 C 0.54651 0.1818 0.16347 0.0
C21 C 0.54529 0.18623 0.14253 0.0
H22 H 0.55231 0.17778 0.1119 0.0
H23 H 0.56884 0.14059 0.15847 0.0
C24 C 0.56834 0.08418 0.07418 0.0
N25 N 0.55738 0.09869 0.07931 0.0
C26 C 0.5612 0.0695 0.06286 0.0
C27 C 0.53122 0.08438 0.06355 0.0
C28 C 0.53898 0.0988 0.07494 0.0
C29 C 0.54254 0.06976 0.05683 0.0
H30 H 0.58289 0.08449 0.07805 0.0
H31 H 0.53054 0.11049 0.07937 0.0
C32 C 0.60554 0.16217 0.12222 0.0
N33 N 0.62246 0.17621 0.15691 0.0
C34 C 0.61264 0.18016 0.12219 0.0
C35 C 0.60707 0.1513 0.13989 0.0
C36 C 0.62115 0.18701 0.13988 0.0
C37 C 0.61566 0.15866 0.15727 0.0
C38 C 0.61006 0.12177 0.0634 0.0
C39 C 0.62258 0.13654 0.06363 0.0
C40 C 0.61416 0.10594 0.05196 0.0
C41 C 0.63901 0.13518 0.05245 0.0
C42 C 0.63075 0.10511 0.041 0.0
N43 N 0.64273 0.11962 0.04148 0.0
C44 C 0.62425 0.09942 0.11322 0.0
C45 C 0.63892 0.12845 0.1085 0.0
C46 C 0.64126 0.09032 0.11225 0.0
N47 N 0.62338 0.11803 0.11056 0.0
C48 C 0.65618 0.11991 0.1071 0.0
C49 C 0.65743 0.10049 0.10801 0.0
H50 H 0.6116 0.0915 0.11457 0.0
H51 H 0.63779 0.1432 0.10605 0.0
C52 C 0.59005 0.18306 0.06157 0.0
N53 N 0.58867 0.1648 0.05689 0.0
C54 C 0.59332 0.19602 0.04614 0.0
C55 C 0.5933 0.17116 0.0213 0.0
C56 C 0.59015 0.15866 0.03724 0.0
C57 C 0.59508 0.19008 0.02571 0.0
H58 H 0.58873 0.1875 0.07735 0.0
H59 H 0.58915 0.14404 0.03394 0.0
O60 O 0.57845 0.1178 0.11868 0.0
O61 O 0.55874 0.14432 0.0869 0.0
O62 O 0.59702 0.15542 0.10503 0.0
O63 O 0.59405 0.12257 0.0746 0.0
H64 H 0.54255 0.12554 0.11456 0.0
H65 H 0.58233 0.09272 0.14769 0.0
H66 H 0.51753 0.11109 0.13493 0.0
H67 H 0.55651 0.07885 0.16759 0.0
H68 H 0.54431 0.13013 0.02076 0.0
H69 H 0.5282 0.1641 0.08397 0.0
H70 H 0.56452 0.12724 0.0513 0.0
H71 H 0.50853 0.1663 0.0528 0.0
H72 H 0.55614 0.16109 0.18517 0.0
H73 H 0.53895 0.19902 0.13746 0.0
H74 H 0.57047 0.0586 0.05792 0.0
H75 H 0.5167 0.08494 0.05949 0.0
H76 H 0.61156 0.18875 0.10864 0.0
H77 H 0.60167 0.13736 0.14025 0.0
H78 H 0.62669 0.20091 0.14007 0.0
H79 H 0.61691 0.15041 0.17105 0.0
H80 H 0.61977 0.14885 0.07252 0.0
H81 H 0.60465 0.09438 0.05156 0.0
H82 H 0.64883 0.14648 0.05258 0.0
H83 H 0.6341 0.09291 0.03213 0.0
H84 H 0.64157 0.07539 0.11349 0.0
H85 H 0.66812 0.12838 0.10357 0.0
H86 H 0.5944 0.21053 0.05012 0.0
H87 H 0.59476 0.16602 0.00578 0.0
Li88 Li 0.34748 0.56219 0.10622 0.0
Li89 Li 0.37574 0.55533 0.08406 0.0
Li90 Li 0.36771 0.58644 0.09481 0.0
Li91 Li 0.34875 0.57119 0.07013 0.0
C92 C 0.38672 0.57303 0.1261 0.0
N93 N 0.41157 0.58987 0.1524 0.0
C94 C 0.40559 0.56895 0.12481 0.0
C95 C 0.38047 0.58542 0.14101 0.0
C96 C 0.41794 0.57766 0.13819 0.0
C97 C 0.39325 0.59387 0.15409 0.0
C98 C 0.34087 0.53623 0.06645 0.0
C99 C 0.34048 0.52264 0.03266 0.0
N100 N 0.32217 0.51879 0.03491 0.0
C101 C 0.32207 0.53209 0.06846 0.0
C102 C 0.35018 0.53144 0.04843 0.0
C103 C 0.31285 0.52329 0.05233 0.0
C104 C 0.31336 0.55396 0.12391 0.0
N105 N 0.33189 0.55398 0.12745 0.0
C106 C 0.32718 0.54649 0.16271 0.0
C107 C 0.33901 0.5501 0.14626 0.0
C108 C 0.30795 0.54678 0.1596 0.0
C109 C 0.30106 0.5502 0.13983 0.0
H110 H 0.30815 0.55766 0.10891 0.0
H111 H 0.35382 0.5505 0.14863 0.0
C112 C 0.41145 0.54814 0.07215 0.0
N113 N 0.39531 0.53952 0.07682 0.0
C114 C 0.42574 0.53836 0.06284 0.0
C115 C 0.40667 0.51083 0.06381 0.0
C116 C 0.39279 0.52114 0.0734 0.0
C117 C 0.42321 0.5196 0.05799 0.0
H118 H 0.41286 0.56286 0.07477 0.0
H119 H 0.37966 0.51475 0.07705 0.0
C120 C 0.33019 0.59943 0.10259 0.0
N121 N 0.30952 0.62717 0.1207 0.0
C122 C 0.32113 0.61259 0.09046 0.0
C123 C 0.32858 0.60033 0.12394 0.0
C124 C 0.31081 0.62653 0.0999 0.0
C125 C 0.31811 0.61446 0.13279 0.0
C126 C 0.37816 0.59207 0.05408 0.0
C127 C 0.36588 0.60698 0.05327 0.0
C128 C 0.39395 0.59214 0.04171 0.0
C129 C 0.36961 0.62177 0.04011 0.0
C130 C 0.39719 0.60718 0.02874 0.0
N131 N 0.38507 0.62157 0.02822 0.0
C132 C 0.3982 0.60966 0.0963 0.0
C133 C 0.37049 0.62547 0.10456 0.0
C134 C 0.40793 0.6263 0.0955 0.0
N135 N 0.37973 0.60956 0.10025 0.0
C136 C 0.37963 0.64247 0.10368 0.0
C137 C 0.39848 0.64309 0.09839 0.0
H138 H 0.40517 0.59685 0.09259 0.0
H139 H 0.35585 0.62525 0.10749 0.0
C140 C 0.31618 0.57874 0.04827 0.0
N141 N 0.3343 0.57418 0.04603 0.0
C142 C 0.3052 0.58199 0.03106 0.0
C143 C 0.33152 0.57493 0.00952 0.0
C144 C 0.34209 0.57212 0.02719 0.0
C145 C 0.31292 0.58019 0.0114 0.0
H146 H 0.31033 0.58001 0.06347 0.0
H147 H 0.35653 0.56839 0.02589 0.0
O148 O 0.37446 0.56481 0.11292 0.0
O149 O 0.35003 0.54528 0.08184 0.0
O150 O 0.34026 0.58562 0.09352 0.0
O151 O 0.37503 0.57763 0.06721 0.0
H152 H 0.41066 0.55916 0.11363 0.0
H153 H 0.36594 0.58863 0.14238 0.0
H154 H 0.43259 0.57471 0.13727 0.0
H155 H 0.3886 0.60361 0.16558 0.0
H156 H 0.34749 0.51898 0.01857 0.0
H157 H 0.31465 0.53568 0.08228 0.0
H158 H 0.36465 0.53483 0.04645 0.0
H159 H 0.29829 0.52005 0.05366 0.0
H160 H 0.33297 0.54392 0.17777 0.0
H161 H 0.28631 0.5509 0.13693 0.0
H162 H 0.43816 0.5457 0.05831 0.0
H163 H 0.40427 0.49638 0.0603 0.0
H164 H 0.3221 0.61212 0.07391 0.0
H165 H 0.33528 0.59024 0.13361 0.0
H166 H 0.3038 0.63682 0.09069 0.0
H167 H 0.31678 0.61531 0.14929 0.0
H168 H 0.35368 0.60721 0.0628 0.0
H169 H 0.40361 0.58071 0.04217 0.0
H170 H 0.36025 0.63343 0.0394 0.0
H171 H 0.40937 0.60743 0.0191 0.0
H172 H 0.42251 0.62604 0.09172 0.0
H173 H 0.37166 0.65502 0.10577 0.0
H174 H 0.29082 0.5858 0.03305 0.0
H175 H 0.33791 0.57345 0.99459 0.0
Li176 Li 0.92472 0.38461 0.09089 0.0
Li177 Li 0.91929 0.35609 0.11328 0.0
Li178 Li 0.91517 0.35524 0.07605 0.0
Li179 Li 0.89427 0.37243 0.09693 0.0
C180 C 0.9513 0.35395 0.07822 0.0
N181 N 0.9762 0.33969 0.05026 0.0
C182 C 0.95946 0.3367 0.08167 0.0
C183 C 0.95587 0.364 0.06061 0.0
C184 C 0.972 0.32971 0.06733 0.0
C185 C 0.96848 0.35654 0.04665 0.0
C186 C 0.9 0.39333 0.12898 0.0
C187 C 0.87636 0.39678 0.15479 0.0
N188 N 0.87506 0.41509 0.15017 0.0
C189 C 0.89857 0.41222 0.12464 0.0
C190 C 0.88894 0.38556 0.14431 0.0
C191 C 0.88583 0.42297 0.13547 0.0
C192 C 0.92928 0.41975 0.07556 0.0
N193 N 0.93858 0.40606 0.0854 0.0
C194 C 0.96727 0.4219 0.08083 0.0
C195 C 0.95715 0.40696 0.08855 0.0
C196 C 0.95812 0.43588 0.06972 0.0
C197 C 0.9388 0.43486 0.06758 0.0
H198 H 0.91452 0.41848 0.07313 0.0
H199 H 0.96417 0.39569 0.09623 0.0
C200 C 0.92996 0.32317 0.13038 0.0
N201 N 0.92715 0.34119 0.13532 0.0
C202 C 0.93437 0.31035 0.14555 0.0
C203 C 0.93311 0.33495 0.17068 0.0
C204 C 0.92875 0.34737 0.15492 0.0
C205 C 0.93572 0.31611 0.16607 0.0
H206 H 0.92834 0.3187 0.11465 0.0
H207 H 0.92619 0.36179 0.15837 0.0
C208 C 0.89318 0.37972 0.05434 0.0
N209 N 0.86856 0.37898 0.0219 0.0
C210 C 0.87934 0.36623 0.05352 0.0
C211 C 0.89451 0.39283 0.03865 0.0
C212 C 0.86702 0.36609 0.03701 0.0
C213 C 0.88194 0.39222 0.02237 0.0
C214 C 0.88568 0.33368 0.10439 0.0
C215 C 0.87586 0.32258 0.0906 0.0
C216 C 0.88221 0.33213 0.12541 0.0
C217 C 0.86248 0.31036 0.09805 0.0
C218 C 0.86874 0.31972 0.13226 0.0
N219 N 0.85922 0.30919 0.11855 0.0
C220 C 0.91941 0.32073 0.05806 0.0
C221 C 0.91992 0.34521 0.03383 0.0
C222 C 0.9222 0.30774 0.04259 0.0
N223 N 0.91828 0.33902 0.05344 0.0
C224 C 0.92252 0.33265 0.01779 0.0
C225 C 0.92372 0.31366 0.02214 0.0
H226 H 0.91821 0.31627 0.07385 0.0
H227 H 0.91939 0.35987 0.03064 0.0
C228 C 0.86689 0.39835 0.09069 0.0
N229 N 0.86929 0.38119 0.09881 0.0
C230 C 0.84925 0.40589 0.08883 0.0
C231 C 0.83673 0.37833 0.10456 0.0
C232 C 0.8547 0.37128 0.1061 0.0
C233 C 0.83381 0.39572 0.09544 0.0
H234 H 0.87871 0.40594 0.08497 0.0
H235 H 0.85683 0.35775 0.11263 0.0
O236 O 0.93854 0.36079 0.09171 0.0
O237 O 0.91206 0.3825 0.11817 0.0
O238 O 0.90542 0.38019 0.07036 0.0
O239 O 0.89905 0.34548 0.09733 0.0
H240 H 0.95607 0.32874 0.0952 0.0
H241 H 0.94948 0.37727 0.05757 0.0
H242 H 0.97836 0.31634 0.06974 0.0
H243 H 0.97205 0.36411 0.03289 0.0
H244 H 0.86762 0.39092 0.16659 0.0
H245 H 0.90708 0.41847 0.11289 0.0
H246 H 0.89 0.37103 0.14801 0.0
H247 H 0.88447 0.43758 0.13215 0.0
H248 H 0.98212 0.42222 0.08299 0.0
H249 H 0.93118 0.44508 0.05885 0.0
H250 H 0.93653 0.29604 0.14125 0.0
H251 H 0.93383 0.33993 0.18632 0.0
H252 H 0.87805 0.35606 0.06554 0.0
H253 H 0.90519 0.40333 0.03901 0.0
H254 H 0.85622 0.35574 0.03622 0.0
H255 H 0.88282 0.40227 0.01011 0.0
H256 H 0.87859 0.32334 0.0743 0.0
H257 H 0.88977 0.34043 0.13634 0.0
H258 H 0.85473 0.30174 0.08754 0.0
H259 H 0.86587 0.31844 0.14848 0.0
H260 H 0.92284 0.2932 0.04653 0.0
H261 H 0.92379 0.33773 0.00223 0.0
H262 H 0.84771 0.4192 0.08138 0.0
H263 H 0.82523 0.37009 0.11005 0.0
Li264 Li 0.10552 0.94037 0.09514 0.0
Li265 Li 0.13177 0.93726 0.1215 0.0
Li266 Li 0.13685 0.92994 0.08513 0.0
Li267 Li 0.11721 0.91078 0.10587 0.0
C268 C 0.13846 0.96588 0.0839 0.0
N269 N 0.15719 0.98784 0.05612 0.0
C270 C 0.15436 0.97544 0.08995 0.0
C271 C 0.13202 0.96756 0.06376 0.0
C272 C 0.16365 0.98646 0.07566 0.0
C273 C 0.1417 0.9787 0.04994 0.0
C274 C 0.09385 0.91942 0.13586 0.0
C275 C 0.08999 0.89663 0.16254 0.0
N276 N 0.07132 0.89779 0.16029 0.0
C277 C 0.07462 0.92055 0.13397 0.0
C278 C 0.10161 0.90752 0.1504 0.0
C279 C 0.06346 0.90945 0.14641 0.0
C280 C 0.06953 0.94334 0.08066 0.0
N281 N 0.08471 0.9535 0.08554 0.0
C282 C 0.07179 0.98033 0.06971 0.0
C283 C 0.08588 0.97179 0.08091 0.0
C284 C 0.0564 0.96988 0.06338 0.0
C285 C 0.05508 0.95131 0.06957 0.0
H286 H 0.06907 0.92879 0.0845 0.0
H287 H 0.09816 0.97952 0.085 0.0
C288 C 0.16238 0.94989 0.14254 0.0
N289 N 0.14407 0.94631 0.14493 0.0
C290 C 0.17335 0.954 0.15951 0.0
C291 C 0.14631 0.95087 0.18111 0.0
C292 C 0.1358 0.94696 0.16363 0.0
C293 C 0.16541 0.95415 0.17916 0.0
H294 H 0.16863 0.94867 0.12753 0.0
H295 H 0.12124 0.94373 0.16505 0.0
C296 C 0.11052 0.90397 0.06593 0.0
N297 N 0.10572 0.87129 0.04454 0.0
C298 C 0.12525 0.8916 0.06371 0.0
C299 C 0.09339 0.8998 0.05708 0.0
C300 C 0.12254 0.87513 0.05289 0.0
C301 C 0.09123 0.88319 0.04637 0.0
C302 C 0.15667 0.90422 0.11742 0.0
C303 C 0.16907 0.89492 0.10458 0.0
C304 C 0.15772 0.90161 0.13864 0.0
C305 C 0.18224 0.88309 0.1132 0.0
C306 C 0.1711 0.88969 0.14665 0.0
N307 N 0.18298 0.88074 0.13388 0.0
C308 C 0.17303 0.93292 0.07065 0.0
C309 C 0.15089 0.92742 0.04447 0.0
C310 C 0.18745 0.93131 0.05658 0.0
N311 N 0.15525 0.93045 0.06448 0.0
C312 C 0.16489 0.92572 0.02985 0.0
C313 C 0.18348 0.92716 0.03599 0.0
H314 H 0.176 0.9355 0.08666 0.0
H315 H 0.13658 0.92573 0.04 0.0
C316 C 0.09091 0.88219 0.10513 0.0
N317 N 0.10912 0.88559 0.10881 0.0
C318 C 0.08469 0.86412 0.10208 0.0
C319 C 0.11591 0.85325 0.10752 0.0
C320 C 0.12148 0.87151 0.1107 0.0
C321 C 0.0974 0.8494 0.10241 0.0
H322 H 0.08142 0.89361 0.10312 0.0
H323 H 0.13591 0.87439 0.11321 0.0
O324 O 0.12943 0.95462 0.09747 0.0
O325 O 0.10499 0.93008 0.12368 0.0
O326 O 0.11272 0.91977 0.07727 0.0
O327 O 0.14374 0.91592 0.10921 0.0
H328 H 0.15949 0.97437 0.10548 0.0
H329 H 0.11985 0.96006 0.05877 0.0
H330 H 0.17601 0.99391 0.08011 0.0
H331 H 0.13695 0.98002 0.03427 0.0
H332 H 0.09583 0.88724 0.17373 0.0
H333 H 0.06837 0.92989 0.12301 0.0
H334 H 0.11644 0.90657 0.15215 0.0
H335 H 0.04856 0.9101 0.14503 0.0
H336 H 0.07321 0.99474 0.06544 0.0
H337 H 0.04357 0.94271 0.06486 0.0
H338 H 0.18808 0.95605 0.15738 0.0
H339 H 0.1397 0.95088 0.19601 0.0
H340 H 0.13854 0.89452 0.0706 0.0
H341 H 0.08184 0.9092 0.05857 0.0
H342 H 0.13377 0.86536 0.05124 0.0
H343 H 0.07802 0.87973 0.03957 0.0
H344 H 0.16848 0.89671 0.08813 0.0
H345 H 0.14838 0.90874 0.14885 0.0
H346 H 0.19188 0.87578 0.10343 0.0
H347 H 0.17207 0.88756 0.16304 0.0
H348 H 0.20158 0.93282 0.06187 0.0
H349 H 0.16126 0.92244 0.01415 0.0
H350 H 0.07024 0.86183 0.09848 0.0
H351 H 0.12631 0.84248 0.10765 0.0
Li352 Li 0.58839 0.36352 0.39116 0.0
Li353 Li 0.5709 0.34599 0.41516 0.0
Li354 Li 0.56132 0.3473 0.37923 0.0
Li355 Li 0.55898 0.37546 0.4029 0.0
C356 C 0.59637 0.32538 0.38135 0.0
N357 N 0.62169 0.30274 0.36184 0.0
C358 C 0.60917 0.31518 0.3928 0.0
C359 C 0.59636 0.3239 0.35996 0.0
C360 C 0.62189 0.30387 0.38266 0.0
C361 C 0.60928 0.31241 0.35039 0.0
C362 C 0.59515 0.37095 0.43325 0.0
C363 C 0.61015 0.38431 0.46279 0.0
N364 N 0.62377 0.37138 0.46138 0.0
C365 C 0.60925 0.35776 0.43214 0.0
C366 C 0.59557 0.38433 0.44871 0.0
C367 C 0.62362 0.35822 0.44646 0.0
C368 C 0.61679 0.38916 0.39412 0.0
N369 N 0.61303 0.37229 0.38584 0.0
C370 C 0.6452 0.36698 0.37984 0.0
C371 C 0.62673 0.36161 0.37782 0.0
C372 C 0.64952 0.38353 0.39003 0.0
C373 C 0.63503 0.39512 0.39634 0.0
H374 H 0.60567 0.39737 0.40047 0.0
H375 H 0.62359 0.34844 0.37098 0.0
C376 C 0.57572 0.31211 0.43541 0.0
N377 N 0.57236 0.33038 0.43852 0.0
C378 C 0.57866 0.30037 0.45207 0.0
C379 C 0.57357 0.32629 0.47487 0.0
C380 C 0.57097 0.33758 0.45773 0.0
C381 C 0.57785 0.30752 0.47207 0.0
H382 H 0.57648 0.30674 0.41995 0.0
H383 H 0.56818 0.35218 0.45973 0.0
C384 C 0.57824 0.38447 0.36073 0.0
N385 N 0.6 0.40565 0.33497 0.0
C386 C 0.58081 0.4033 0.36468 0.0
C387 C 0.58651 0.37647 0.34351 0.0
C388 C 0.59192 0.41376 0.35152 0.0
C389 C 0.59752 0.38739 0.33072 0.0
C390 C 0.53545 0.34241 0.41896 0.0
C391 C 0.53022 0.32396 0.41616 0.0
C392 C 0.53092 0.35149 0.4372 0.0
C393 C 0.52059 0.31485 0.43176 0.0
C394 C 0.52127 0.3419 0.45242 0.0
N395 N 0.51636 0.32393 0.44942 0.0
C396 C 0.54997 0.31483 0.36033 0.0
C397 C 0.54407 0.34169 0.34047 0.0
C398 C 0.54355 0.3035 0.34457 0.0
N399 N 0.55028 0.33349 0.35792 0.0
C400 C 0.53749 0.33086 0.32426 0.0
C401 C 0.5374 0.31146 0.32612 0.0
H402 H 0.55533 0.30873 0.37427 0.0
H403 H 0.54461 0.3566 0.33899 0.0
C404 C 0.55691 0.41107 0.41775 0.0
N405 N 0.54616 0.39678 0.41134 0.0
C406 C 0.54897 0.42624 0.42751 0.0
C407 C 0.51892 0.4119 0.42346 0.0
C408 C 0.52746 0.39703 0.41356 0.0
C409 C 0.52979 0.42656 0.43094 0.0
H410 H 0.57178 0.41025 0.41611 0.0
H411 H 0.51932 0.38531 0.40853 0.0
O412 O 0.58368 0.33638 0.39108 0.0
O413 O 0.58101 0.3709 0.41927 0.0
O414 O 0.56776 0.37391 0.3737 0.0
O415 O 0.54534 0.35141 0.40412 0.0
H416 H 0.60933 0.31595 0.40937 0.0
H417 H 0.58656 0.33154 0.35079 0.0
H418 H 0.63191 0.29597 0.39134 0.0
H419 H 0.60944 0.31119 0.33385 0.0
H420 H 0.61066 0.39459 0.47484 0.0
H421 H 0.60917 0.34738 0.42025 0.0
H422 H 0.58473 0.39461 0.44983 0.0
H423 H 0.63466 0.34814 0.44571 0.0
H424 H 0.65602 0.35778 0.37452 0.0
H425 H 0.63777 0.40792 0.40442 0.0
H426 H 0.58169 0.2859 0.44935 0.0
H427 H 0.57289 0.33227 0.49008 0.0
H428 H 0.57441 0.40975 0.37784 0.0
H429 H 0.58446 0.36199 0.34006 0.0
H430 H 0.59414 0.42832 0.35448 0.0
H431 H 0.60408 0.38134 0.3174 0.0
H432 H 0.53366 0.31672 0.40217 0.0
H433 H 0.53511 0.36568 0.43975 0.0
H434 H 0.51651 0.30055 0.42984 0.0
H435 H 0.51777 0.34872 0.46668 0.0
H436 H 0.54411 0.28863 0.34654 0.0
H437 H 0.53277 0.33757 0.31036 0.0
H438 H 0.55788 0.4371 0.43333 0.0
H439 H 0.50408 0.4117 0.42577 0.0
Li440 Li 0.11408 0.59717 0.39446 0.0
Li441 Li 0.13572 0.5774 0.41108 0.0
Li442 Li 0.13415 0.57742 0.3741 0.0
Li443 Li 0.10823 0.56404 0.39593 0.0
C444 C 0.1487 0.61353 0.40057 0.0
N445 N 0.16351 0.64511 0.41792 0.0
C446 C 0.14412 0.61846 0.42065 0.0
C447 C 0.16087 0.6246 0.38933 0.0
C448 C 0.15173 0.63448 0.42915 0.0
C449 C 0.16819 0.64054 0.39836 0.0
C450 C 0.10445 0.58001 0.4385 0.0
C451 C 0.09457 0.56128 0.46714 0.0
N452 N 0.09316 0.57678 0.47887 0.0
C453 C 0.10271 0.59577 0.45081 0.0
C454 C 0.10019 0.56264 0.4467 0.0
C455 C 0.09707 0.59383 0.47119 0.0
C456 C 0.08557 0.61946 0.40789 0.0
N457 N 0.10158 0.62017 0.39704 0.0
C458 C 0.1019 0.65316 0.39874 0.0
C459 C 0.10932 0.63656 0.39145 0.0
C460 C 0.08644 0.65269 0.41179 0.0
C461 C 0.07771 0.63566 0.41548 0.0
H462 H 0.07964 0.6062 0.41189 0.0
H463 H 0.12192 0.63673 0.38254 0.0
C464 C 0.17125 0.58029 0.42604 0.0
N465 N 0.15388 0.57603 0.43246 0.0
C466 C 0.18577 0.5813 0.44001 0.0
C467 C 0.16457 0.57261 0.46699 0.0
C468 C 0.15035 0.57189 0.45244 0.0
C469 C 0.18246 0.57774 0.46084 0.0
H470 H 0.17375 0.5832 0.41001 0.0
H471 H 0.13656 0.56825 0.45724 0.0
C472 C 0.09776 0.59373 0.35973 0.0
N473 N 0.07984 0.6213 0.33812 0.0
C474 C 0.07849 0.59513 0.36048 0.0
C475 C 0.10793 0.6063 0.34796 0.0
C476 C 0.06968 0.60918 0.34944 0.0
C477 C 0.0986 0.62015 0.33715 0.0
C478 C 0.14693 0.54424 0.40227 0.0
C479 C 0.16498 0.54296 0.39472 0.0
C480 C 0.14207 0.53455 0.42002 0.0
C481 C 0.17795 0.5322 0.40524 0.0
C482 C 0.15543 0.52394 0.43011 0.0
N483 N 0.17296 0.52302 0.42258 0.0
C484 C 0.16685 0.57919 0.3526 0.0
C485 C 0.14175 0.56848 0.33237 0.0
C486 C 0.1791 0.5765 0.33642 0.0
N487 N 0.14867 0.57492 0.35038 0.0
C488 C 0.15351 0.56577 0.31563 0.0
C489 C 0.17254 0.5696 0.31761 0.0
H490 H 0.1719 0.58417 0.36722 0.0
H491 H 0.12717 0.56525 0.33112 0.0
C492 C 0.07224 0.55352 0.40247 0.0
N493 N 0.08934 0.54644 0.39895 0.0
C494 C 0.05797 0.54202 0.40901 0.0
C495 C 0.07907 0.51604 0.40758 0.0
C496 C 0.09292 0.52805 0.40076 0.0
C497 C 0.06148 0.52315 0.41228 0.0
H498 H 0.07005 0.56829 0.40147 0.0
H499 H 0.10676 0.5229 0.39807 0.0
O500 O 0.14134 0.59796 0.39183 0.0
O501 O 0.10963 0.58169 0.41837 0.0
O502 O 0.10673 0.58048 0.37091 0.0
O503 O 0.13418 0.55515 0.39252 0.0
H504 H 0.13489 0.60995 0.42958 0.0
H505 H 0.16454 0.62096 0.37375 0.0
H506 H 0.14829 0.63846 0.44468 0.0
H507 H 0.1776 0.64927 0.38983 0.0
H508 H 0.09132 0.54791 0.47367 0.0
H509 H 0.10557 0.60939 0.44473 0.0
H510 H 0.10126 0.55029 0.43748 0.0
H511 H 0.09572 0.60591 0.48088 0.0
H512 H 0.10905 0.66602 0.39556 0.0
H513 H 0.0656 0.63477 0.42523 0.0
H514 H 0.19947 0.58493 0.43457 0.0
H515 H 0.16149 0.56972 0.48293 0.0
H516 H 0.07042 0.58555 0.36955 0.0
H517 H 0.12288 0.60553 0.34741 0.0
H518 H 0.05477 0.61047 0.34992 0.0
H519 H 0.1063 0.63003 0.32806 0.0
H520 H 0.16899 0.55027 0.38097 0.0
H521 H 0.1282 0.53537 0.4261 0.0
H522 H 0.192 0.53118 0.39963 0.0
H523 H 0.15189 0.5165 0.44396 0.0
H524 H 0.19365 0.57931 0.33888 0.0
H525 H 0.14778 0.56069 0.30135 0.0
H526 H 0.04471 0.54809 0.41287 0.0
H527 H 0.08225 0.50155 0.40997 0.0
Li528 Li 0.93171 0.1408 0.41737 0.0
Li529 Li 0.91156 0.12235 0.39667 0.0
Li530 Li 0.94272 0.11164 0.40143 0.0
Li531 Li 0.93498 0.14037 0.37971 0.0
C532 C 0.91073 0.11037 0.43658 0.0
N533 N 0.88285 0.10004 0.46323 0.0
C534 C 0.89694 0.123 0.44203 0.0
C535 C 0.91044 0.09253 0.44486 0.0
C536 C 0.88293 0.11751 0.45546 0.0
C537 C 0.89621 0.08756 0.45827 0.0
C538 C 0.90052 0.1616 0.39292 0.0
C539 C 0.8805 0.17798 0.36951 0.0
N540 N 0.87211 0.18637 0.3857 0.0
C541 C 0.89186 0.17056 0.40931 0.0
C542 C 0.89494 0.16548 0.37284 0.0
C543 C 0.87746 0.18296 0.40535 0.0
C544 C 0.93684 0.17486 0.43697 0.0
N545 N 0.9342 0.15651 0.44049 0.0
C546 C 0.93531 0.16127 0.47671 0.0
C547 C 0.93363 0.14951 0.45983 0.0
C548 C 0.938 0.18028 0.47353 0.0
C549 C 0.93894 0.18706 0.45338 0.0
H550 H 0.93728 0.17997 0.42138 0.0
H551 H 0.93186 0.13481 0.46217 0.0
C552 C 0.88623 0.09375 0.39994 0.0
N553 N 0.88703 0.11221 0.396 0.0
C554 C 0.86949 0.08544 0.40514 0.0
C555 C 0.85431 0.11492 0.40032 0.0
C556 C 0.87143 0.12272 0.39536 0.0
C557 C 0.85339 0.09623 0.40615 0.0
H558 H 0.89886 0.08576 0.40062 0.0
H559 H 0.87229 0.13735 0.39235 0.0
C560 C 0.96746 0.1456 0.41295 0.0
N561 N 0.99162 0.16434 0.43839 0.0
C562 C 0.97454 0.16279 0.40705 0.0
C563 C 0.97275 0.13787 0.43172 0.0
C564 C 0.98673 0.17206 0.42014 0.0
C565 C 0.98495 0.14759 0.44438 0.0
C566 C 0.91726 0.10392 0.36234 0.0
C567 C 0.91795 0.0846 0.36175 0.0
C568 C 0.90442 0.11333 0.35017 0.0
C569 C 0.90549 0.07499 0.34928 0.0
C570 C 0.89219 0.10323 0.33792 0.0
N571 N 0.89296 0.08442 0.33775 0.0
C572 C 0.94899 0.07465 0.40974 0.0
C573 C 0.97636 0.09277 0.40922 0.0
C574 C 0.95858 0.05972 0.4181 0.0
N575 N 0.95786 0.09089 0.40612 0.0
C576 C 0.98649 0.07822 0.41775 0.0
C577 C 0.97741 0.06167 0.42296 0.0
H578 H 0.9342 0.07372 0.40743 0.0
H579 H 0.98302 0.10591 0.40626 0.0
C580 C 0.9419 0.174 0.36107 0.0
N581 N 0.94107 0.15555 0.35727 0.0
C582 C 0.94524 0.18642 0.34514 0.0
C583 C 0.94695 0.16054 0.32168 0.0
C584 C 0.9436 0.14859 0.33812 0.0
C585 C 0.94768 0.17975 0.32509 0.0
H586 H 0.93956 0.17907 0.37646 0.0
H587 H 0.94273 0.13382 0.3356 0.0
O588 O 0.92413 0.11529 0.42277 0.0
O589 O 0.91472 0.14951 0.39652 0.0
O590 O 0.95506 0.13656 0.40065 0.0
O591 O 0.92915 0.11357 0.37468 0.0
H592 H 0.89692 0.13681 0.43569 0.0
H593 H 0.92102 0.08258 0.4409 0.0
H594 H 0.87209 0.1271 0.45965 0.0
H595 H 0.89575 0.07377 0.46471 0.0
H596 H 0.876 0.18106 0.35406 0.0
H597 H 0.89623 0.16805 0.42493 0.0
H598 H 0.90172 0.15902 0.35993 0.0
H599 H 0.87058 0.18993 0.41789 0.0
H600 H 0.93462 0.15559 0.49207 0.0
H601 H 0.94081 0.20168 0.45037 0.0
H602 H 0.86931 0.07096 0.40943 0.0
H603 H 0.8422 0.12372 0.40108 0.0
H604 H 0.97059 0.16895 0.39258 0.0
H605 H 0.9672 0.12467 0.43662 0.0
H606 H 0.99226 0.18541 0.41582 0.0
H607 H 0.98905 0.14185 0.45902 0.0
H608 H 0.92797 0.0771 0.37083 0.0
H609 H 0.90385 0.12826 0.35028 0.0
H610 H 0.9058 0.06003 0.34877 0.0
H611 H 0.88209 0.11034 0.32854 0.0
H612 H 0.951 0.04731 0.42213 0.0
H613 H 0.00103 0.08019 0.42117 0.0
H614 H 0.94533 0.20111 0.34842 0.0
H615 H 0.94888 0.15483 0.30647 0.0
Li616 Li 0.35182 0.91419 0.4207 0.0
Li617 Li 0.37182 0.89931 0.39698 0.0
Li618 Li 0.37641 0.93178 0.40407 0.0
Li619 Li 0.3485 0.91991 0.38381 0.0
C620 C 0.38344 0.89873 0.43826 0.0
N621 N 0.39345 0.87323 0.46783 0.0
C622 C 0.37352 0.88224 0.44036 0.0
C623 C 0.39842 0.90229 0.45123 0.0
C624 C 0.37881 0.86951 0.45537 0.0
C625 C 0.40326 0.88922 0.4661 0.0
C626 C 0.336 0.88138 0.39205 0.0
C627 C 0.32456 0.86266 0.36414 0.0
N628 N 0.3184 0.8499 0.37787 0.0
C629 C 0.32937 0.86816 0.40589 0.0
C630 C 0.33343 0.87868 0.371 0.0
C631 C 0.32059 0.85231 0.39841 0.0
C632 C 0.31996 0.90646 0.44326 0.0
N633 N 0.33787 0.91186 0.44521 0.0
C634 C 0.33462 0.91439 0.48157 0.0
C635 C 0.34536 0.91585 0.46383 0.0
C636 C 0.31607 0.90874 0.48004 0.0
C637 C 0.30876 0.90477 0.46055 0.0
H638 H 0.31434 0.90367 0.42819 0.0
H639 H 0.35961 0.92032 0.46488 0.0
C640 C 0.40407 0.87875 0.39969 0.0
N641 N 0.3862 0.87719 0.39339 0.0
C642 C 0.41487 0.86301 0.40267 0.0
C643 C 0.38921 0.84432 0.39102 0.0
C644 C 0.37889 0.86048 0.38824 0.0
C645 C 0.40718 0.84545 0.39918 0.0
H646 H 0.40956 0.8922 0.40373 0.0
H647 H 0.36477 0.85942 0.38315 0.0
C648 C 0.34019 0.94828 0.42101 0.0
N649 N 0.32059 0.9664 0.45132 0.0
C650 C 0.321 0.95019 0.4194 0.0
C651 C 0.34943 0.95565 0.438 0.0
C652 C 0.31133 0.95938 0.4349 0.0
C653 C 0.33926 0.96476 0.45317 0.0
C654 C 0.38772 0.91108 0.36358 0.0
C655 C 0.40671 0.91419 0.36573 0.0
C656 C 0.38135 0.89898 0.34843 0.0
C657 C 0.41905 0.90482 0.35293 0.0
C658 C 0.39413 0.88987 0.33593 0.0
N659 N 0.41256 0.89294 0.33844 0.0
C660 C 0.41093 0.94547 0.41438 0.0
C661 C 0.38869 0.96895 0.4081 0.0
C662 C 0.42377 0.95857 0.42092 0.0
N663 N 0.39374 0.95083 0.40845 0.0
C664 C 0.40106 0.98255 0.41479 0.0
C665 C 0.41874 0.97733 0.42165 0.0
H666 H 0.41438 0.93091 0.41482 0.0
H667 H 0.3748 0.97274 0.40352 0.0
C668 C 0.31289 0.92266 0.36823 0.0
N669 N 0.33094 0.92534 0.36328 0.0
C670 C 0.29902 0.92654 0.35401 0.0
C671 C 0.32262 0.93563 0.32972 0.0
C672 C 0.33607 0.93164 0.34449 0.0
C673 C 0.30378 0.93312 0.33443 0.0
H674 H 0.3093 0.91752 0.3833 0.0
H675 H 0.35058 0.93352 0.341 0.0
O676 O 0.37879 0.91125 0.42337 0.0
O677 O 0.34447 0.89706 0.39915 0.0
O678 O 0.34984 0.93882 0.40634 0.0
O679 O 0.37544 0.91982 0.37627 0.0
H680 H 0.36199 0.87923 0.43038 0.0
H681 H 0.40625 0.915 0.44979 0.0
H682 H 0.3713 0.85665 0.4571 0.0
H683 H 0.41484 0.89178 0.47623 0.0
H684 H 0.32256 0.86038 0.34789 0.0
H685 H 0.33094 0.87012 0.42225 0.0
H686 H 0.33822 0.88881 0.36006 0.0
H687 H 0.31548 0.84194 0.40895 0.0
H688 H 0.3408 0.91752 0.4963 0.0
H689 H 0.29443 0.90073 0.45863 0.0
H690 H 0.42877 0.86452 0.40867 0.0
H691 H 0.38269 0.83107 0.38821 0.0
H692 H 0.31364 0.94454 0.40639 0.0
H693 H 0.36424 0.95404 0.43966 0.0
H694 H 0.29647 0.9609 0.43389 0.0
H695 H 0.34621 0.97041 0.46646 0.0
H696 H 0.41187 0.92361 0.37726 0.0
H697 H 0.36671 0.89661 0.34635 0.0
H698 H 0.4338 0.90699 0.35454 0.0
H699 H 0.38939 0.88037 0.32422 0.0
H700 H 0.43714 0.95394 0.42642 0.0
H701 H 0.3967 0.99689 0.41513 0.0
H702 H 0.2847 0.92463 0.35844 0.0
H703 H 0.32694 0.94042 0.31473 0.0
Li704 Li 0.44023 0.87373 0.91605 0.0
Li705 Li 0.40778 0.86488 0.91255 0.0
Li706 Li 0.43017 0.84522 0.93017 0.0
Li707 Li 0.43203 0.84973 0.89288 0.0
C708 C 0.41795 0.86922 0.95849 0.0
N709 N 0.41021 0.8666 -7e-05 0.0
C710 C 0.40024 0.87332 0.9658 0.0
C711 C 0.43183 0.86418 0.97238 0.0
C712 C 0.39657 0.87183 0.98677 0.0
C713 C 0.42762 0.8628 0.99323 0.0
C714 C 0.41909 0.89403 0.88764 0.0
C715 C 0.41088 0.91892 0.86472 0.0
N716 N 0.40929 0.93053 0.88104 0.0
C717 C 0.41735 0.90622 0.90421 0.0
C718 C 0.41585 0.90044 0.86774 0.0
C719 C 0.41241 0.92462 0.90054 0.0
C720 C 0.46336 0.90486 0.90563 0.0
N721 N 0.45669 0.8939 0.92091 0.0
C722 C 0.47245 0.91176 0.9462 0.0
C723 C 0.46108 0.89705 0.94084 0.0
C724 C 0.47924 0.92358 0.93089 0.0
C725 C 0.47462 0.92005 0.91034 0.0
H726 H 0.45969 0.902 0.88986 0.0
H727 H 0.45559 0.88821 0.95264 0.0
C728 C 0.37225 0.85791 0.92478 0.0
N729 N 0.38205 0.8708 0.91418 0.0
C730 C 0.35379 0.86102 0.92974 0.0
C731 C 0.35543 0.89038 0.91209 0.0
C732 C 0.37388 0.88656 0.9072 0.0
C733 C 0.34531 0.87774 0.92404 0.0
H734 H 0.37905 0.84551 0.93018 0.0
H735 H 0.38169 0.8965 0.89845 0.0
C736 C 0.47021 0.85495 0.91133 0.0
N737 N 0.50591 0.86821 0.90769 0.0
C738 C 0.4773 0.85952 0.89204 0.0
C739 C 0.48129 0.85704 0.92876 0.0
C740 C 0.49539 0.86621 0.89053 0.0
C741 C 0.4993 0.86381 0.9266 0.0
C742 C 0.39947 0.83018 0.89601 0.0
C743 C 0.39384 0.81189 0.89908 0.0
C744 C 0.39252 0.84019 0.87936 0.0
C745 C 0.38127 0.8039 0.8854 0.0
C746 C 0.37999 0.83171 0.86602 0.0
N747 N 0.37467 0.81389 0.86929 0.0
C748 C 0.41624 0.82285 0.96153 0.0
C749 C 0.44854 0.81955 0.95619 0.0
C750 C 0.41681 0.81038 0.97782 0.0
N751 N 0.432 0.82733 0.95131 0.0
C752 C 0.44972 0.80684 0.97227 0.0
C753 C 0.43373 0.80223 0.98339 0.0
H754 H 0.40326 0.82919 0.95714 0.0
H755 H 0.4608 0.82327 0.94765 0.0
C756 C 0.43364 0.84339 0.84958 0.0
N757 N 0.43682 0.83647 0.86864 0.0
C758 C 0.43553 0.83196 0.83241 0.0
C759 C 0.44421 0.8068 0.85496 0.0
C760 C 0.44222 0.81869 0.87161 0.0
C761 C 0.44055 0.81331 0.83508 0.0
H762 H 0.42911 0.85756 0.8478 0.0
H763 H 0.44449 0.81364 0.88703 0.0
O764 O 0.42172 0.87059 0.93794 0.0
O765 O 0.42438 0.87603 0.89062 0.0
O766 O 0.45236 0.84893 0.91317 0.0
O767 O 0.41195 0.83808 0.90914 0.0
H768 H 0.38946 0.87785 0.95547 0.0
H769 H 0.44563 0.86088 0.96708 0.0
H770 H 0.3829 0.8749 0.99259 0.0
H771 H 0.43817 0.85864 0.00406 0.0
H772 H 0.40832 0.92405 0.84938 0.0
H773 H 0.41968 0.90162 0.91975 0.0
H774 H 0.4172 0.89121 0.85475 0.0
H775 H 0.41102 0.93419 0.9132 0.0
H776 H 0.47543 0.91422 0.96226 0.0
H777 H 0.47961 0.92892 0.89815 0.0
H778 H 0.34643 0.85065 0.93851 0.0
H779 H 0.34947 0.90345 0.90736 0.0
H780 H 0.46884 0.85811 0.87842 0.0
H781 H 0.47593 0.85378 0.94383 0.0
H782 H 0.50103 0.86988 0.87571 0.0
H783 H 0.50798 0.86563 0.93997 0.0
H784 H 0.39915 0.80396 0.91188 0.0
H785 H 0.39679 0.85434 0.87669 0.0
H786 H 0.37678 0.78975 0.88757 0.0
H787 H 0.37451 0.83928 0.85305 0.0
H788 H 0.40412 0.80694 0.98579 0.0
H789 H 0.46302 0.80084 0.97612 0.0
H790 H 0.43244 0.83743 0.81732 0.0
H791 H 0.44832 0.7926 0.85764 0.0
Li792 Li 0.62879 0.41401 0.8952 0.0
Li793 Li 0.61651 0.44422 0.8947 0.0
Li794 Li 0.64578 0.43705 0.87542 0.0
Li795 Li 0.64439 0.43859 0.91399 0.0
C796 C 0.61347 0.41372 0.85817 0.0
N797 N 0.59996 0.38565 0.83354 0.0
C798 C 0.59703 0.40463 0.86335 0.0
C799 C 0.62303 0.40851 0.84046 0.0
C800 C 0.59045 0.39047 0.85071 0.0
C801 C 0.61597 0.3943 0.8282 0.0
C802 C 0.60439 0.43132 0.9302 0.0
C803 C 0.58758 0.44954 0.95497 0.0
N804 N 0.57251 0.43853 0.9522 0.0
C805 C 0.58878 0.42011 0.92771 0.0
C806 C 0.60385 0.44607 0.94406 0.0
C807 C 0.57279 0.424 0.93896 0.0
C808 C 0.62065 0.38291 0.918 0.0
N809 N 0.62425 0.38797 0.89833 0.0
C810 C 0.62507 0.3562 0.88793 0.0
C811 C 0.62657 0.37505 0.88333 0.0
C812 C 0.62169 0.35073 0.90822 0.0
C813 C 0.61926 0.36433 0.92329 0.0
H814 H 0.61957 0.39331 0.92983 0.0
H815 H 0.63032 0.37926 0.86801 0.0
C816 C 0.59541 0.47585 0.90353 0.0
N817 N 0.59442 0.45846 0.89569 0.0
C818 C 0.57959 0.48429 0.91139 0.0
C819 C 0.56177 0.45762 0.90088 0.0
C820 C 0.57791 0.44979 0.89303 0.0
C821 C 0.56272 0.47459 0.91134 0.0
H822 H 0.60867 0.48253 0.90523 0.0
H823 H 0.57751 0.43598 0.88681 0.0
C824 C 0.66369 0.40301 0.89723 0.0
N825 N 0.67859 0.36791 0.89994 0.0
C826 C 0.6664 0.3948 0.9164 0.0
C827 C 0.66868 0.39346 0.87944 0.0
C828 C 0.6739 0.377 0.91745 0.0
C829 C 0.67619 0.37571 0.88114 0.0
C830 C 0.65017 0.47336 0.90071 0.0
C831 C 0.66519 0.48002 0.8894 0.0
C832 C 0.64575 0.4816 0.91948 0.0
C833 C 0.67571 0.49464 0.89721 0.0
C834 C 0.65662 0.49618 0.92677 0.0
N835 N 0.67126 0.50233 0.91559 0.0
C836 C 0.65719 0.44796 0.83481 0.0
C837 C 0.68032 0.43876 0.85854 0.0
C838 C 0.67062 0.45091 0.81969 0.0
N839 N 0.6623 0.44176 0.85367 0.0
C840 C 0.69411 0.44157 0.84403 0.0
C841 C 0.68935 0.4475 0.82421 0.0
H842 H 0.64274 0.45044 0.83149 0.0
H843 H 0.68399 0.43425 0.87382 0.0
C844 C 0.65375 0.43604 0.95585 0.0
N845 N 0.65935 0.44285 0.93744 0.0
C846 C 0.66569 0.43642 0.97271 0.0
C847 C 0.68861 0.45147 0.95149 0.0
C848 C 0.6764 0.45044 0.93498 0.0
C849 C 0.68355 0.44394 0.97059 0.0
H850 H 0.64035 0.4295 0.9572 0.0
H851 H 0.68075 0.45517 0.92002 0.0
O852 O 0.61999 0.42786 0.87012 0.0
O853 O 0.62008 0.42793 0.91906 0.0
O854 O 0.65577 0.42013 0.89585 0.0
O855 O 0.63976 0.45898 0.89333 0.0
H856 H 0.58963 0.40818 0.87718 0.0
H857 H 0.63582 0.41526 0.83626 0.0
H858 H 0.57781 0.38326 0.85461 0.0
H859 H 0.62325 0.39011 0.81447 0.0
H860 H 0.58692 0.461 0.96561 0.0
H861 H 0.58891 0.40868 0.91699 0.0
H862 H 0.61582 0.45481 0.94629 0.0
H863 H 0.56056 0.41553 0.93705 0.0
H864 H 0.62731 0.34603 0.87599 0.0
H865 H 0.61662 0.36062 0.93912 0.0
H866 H 0.58084 0.49764 0.9188 0.0
H867 H 0.54913 0.44957 0.90051 0.0
H868 H 0.6625 0.40199 0.9303 0.0
H869 H 0.6665 0.39957 0.86447 0.0
H870 H 0.67593 0.3704 0.93217 0.0
H871 H 0.68 0.36809 0.8675 0.0
H872 H 0.66868 0.47403 0.87472 0.0
H873 H 0.63421 0.47665 0.92846 0.0
H874 H 0.68741 0.49988 0.88864 0.0
H875 H 0.65343 0.50257 0.94135 0.0
H876 H 0.66636 0.45544 0.80457 0.0
H877 H 0.7084 0.43922 0.84834 0.0
H878 H 0.66124 0.43008 0.98691 0.0
H879 H 0.70208 0.45767 0.94911 0.0
Li880 Li 0.07076 0.6472 0.88414 0.0
Li881 Li 0.08051 0.65063 0.91983 0.0
Li882 Li 0.09933 0.63364 0.89452 0.0
Li883 Li 0.07041 0.62056 0.90746 0.0
C884 C 0.09331 0.67623 0.88446 0.0
N885 N 0.09193 0.70881 0.86234 0.0
C886 C 0.08712 0.69251 0.89377 0.0
C887 C 0.099 0.67656 0.86397 0.0
C888 C 0.0865 0.70884 0.88231 0.0
C889 C 0.09812 0.69316 0.85302 0.0
C890 C 0.03834 0.63878 0.91404 0.0
C891 C 0.01589 0.62725 0.93825 0.0
N892 N 0.0028 0.62742 0.92326 0.0
C893 C 0.02465 0.63889 0.89889 0.0
C894 C 0.03393 0.633 0.93391 0.0
C895 C 0.00676 0.63309 0.90385 0.0
C896 C 0.05931 0.65542 0.84317 0.0
N897 N 0.05825 0.66039 0.86322 0.0
C898 C 0.04274 0.68846 0.85457 0.0
C899 C 0.04964 0.67619 0.86916 0.0
C900 C 0.04438 0.68425 0.83359 0.0
C901 C 0.05229 0.66716 0.828 0.0
H902 H 0.06617 0.64269 0.83892 0.0
H903 H 0.04903 0.67972 0.88527 0.0
C904 C 0.09718 0.67358 0.94993 0.0
N905 N 0.08083 0.66694 0.94267 0.0
C906 C 0.09743 0.68576 0.96656 0.0
C907 C 0.064 0.68447 0.96747 0.0
C908 C 0.06442 0.67218 0.95099 0.0
C909 C 0.08066 0.69142 0.97544 0.0
H910 H 0.11001 0.66956 0.94266 0.0
H911 H 0.05161 0.66703 0.94465 0.0
C912 C 0.08899 0.60988 0.86653 0.0
N913 N 0.11049 0.58631 0.84323 0.0
C914 C 0.08964 0.59101 0.87117 0.0
C915 C 0.09913 0.61675 0.84994 0.0
C916 C 0.10063 0.57932 0.85922 0.0
C917 C 0.10997 0.60461 0.83839 0.0
C918 C 0.10071 0.6275 0.94187 0.0
C919 C 0.11959 0.63128 0.94399 0.0
C920 C 0.08973 0.62535 0.95934 0.0
C921 C 0.12715 0.63297 0.96364 0.0
C922 C 0.0978 0.62718 0.97871 0.0
N923 N 0.11619 0.63092 0.98044 0.0
C924 C 0.13624 0.64075 0.88207 0.0
C925 C 0.12994 0.61013 0.89318 0.0
C926 C 0.15519 0.63701 0.88153 0.0
N927 N 0.12416 0.62747 0.88827 0.0
C928 C 0.14873 0.60577 0.89276 0.0
C929 C 0.16167 0.61949 0.88755 0.0
H930 H 0.13128 0.65452 0.87867 0.0
H931 H 0.12006 0.60004 0.89864 0.0
C932 C 0.04167 0.59309 0.91001 0.0
N933 N 0.05889 0.59826 0.9162 0.0
C934 C 0.03294 0.57796 0.9192 0.0
C935 C 0.06054 0.57276 0.93938 0.0
C936 C 0.06858 0.58811 0.93006 0.0
C937 C 0.04231 0.56784 0.93439 0.0
H938 H 0.03448 0.60105 0.89847 0.0
H939 H 0.08242 0.59222 0.93434 0.0
O940 O 0.09358 0.66001 0.89526 0.0
O941 O 0.05594 0.64438 0.90947 0.0
O942 O 0.07854 0.62159 0.87823 0.0
O943 O 0.09298 0.62602 0.92278 0.0
H944 H 0.08264 0.69249 0.9096 0.0
H945 H 0.10378 0.66407 0.85652 0.0
H946 H 0.08163 0.72152 0.88928 0.0
H947 H 0.10229 0.69357 0.8371 0.0
H948 H 0.01232 0.62263 0.95352 0.0
H949 H 0.02783 0.64328 0.88342 0.0
H950 H 0.04438 0.63278 0.94581 0.0
H951 H 0.99604 0.63305 0.89227 0.0
H952 H 0.0371 0.70151 0.85974 0.0
H953 H 0.05352 0.66309 0.81208 0.0
H954 H 0.11055 0.69107 0.97204 0.0
H955 H 0.05079 0.6885 0.97392 0.0
H956 H 0.08186 0.58547 0.88394 0.0
H957 H 0.09879 0.63133 0.84618 0.0
H958 H 0.10134 0.5647 0.86269 0.0
H959 H 0.11799 0.60975 0.82559 0.0
H960 H 0.12829 0.6331 0.93066 0.0
H961 H 0.0751 0.62243 0.95795 0.0
H962 H 0.14172 0.63597 0.96552 0.0
H963 H 0.08945 0.62564 0.99236 0.0
H964 H 0.16474 0.64795 0.87739 0.0
H965 H 0.15313 0.59221 0.89789 0.0
H966 H 0.01893 0.5744 0.91476 0.0
H967 H 0.06821 0.56534 0.95105 0.0
Li968 Li 0.86221 0.09814 0.89959 0.0
Li969 Li 0.87131 0.06604 0.90026 0.0
Li970 Li 0.84312 0.07531 0.88212 0.0
Li971 Li 0.84472 0.07461 0.91916 0.0
C972 C 0.86933 0.09322 0.85847 0.0
N973 N 0.86938 0.11479 0.82347 0.0
C974 C 0.88316 0.09093 0.84372 0.0
C975 C 0.85553 0.10652 0.85544 0.0
C976 C 0.88294 0.10196 0.82612 0.0
C977 C 0.8558 0.11727 0.83764 0.0
C978 C 0.88471 0.07945 0.93619 0.0
C979 C 0.90091 0.05817 0.95842 0.0
N980 N 0.91495 0.07057 0.96032 0.0
C981 C 0.8992 0.09209 0.93864 0.0
C982 C 0.88547 0.06246 0.94643 0.0
C983 C 0.91439 0.08732 0.95081 0.0
C984 C 0.86192 0.13816 0.90107 0.0
N985 N 0.87224 0.12261 0.89847 0.0
C986 C 0.90006 0.1405 0.89769 0.0
C987 C 0.89087 0.12359 0.89583 0.0
C988 C 0.88992 0.15659 0.90221 0.0
C989 C 0.87052 0.15534 0.90317 0.0
H990 H 0.84708 0.13731 0.90223 0.0
H991 H 0.89869 0.11105 0.89318 0.0
C992 C 0.89025 0.03235 0.90546 0.0
N993 N 0.8924 0.0506 0.90111 0.0
C994 C 0.90525 0.02207 0.91263 0.0
C995 C 0.92461 0.04917 0.9089 0.0
C996 C 0.90927 0.05888 0.90159 0.0
C997 C 0.92246 0.03078 0.91552 0.0
H998 H 0.87666 0.02615 0.90484 0.0
H999 H 0.91045 0.07349 0.8982 0.0
C1000 C 0.82648 0.10821 0.91284 0.0
N1001 N 0.80971 0.13534 0.93624 0.0
C1002 C 0.83379 0.11303 0.93199 0.0
C1003 C 0.81064 0.11721 0.90562 0.0
C1004 C 0.8251 0.12676 0.94358 0.0
C1005 C 0.80238 0.13089 0.91766 0.0
C1006 C 0.83518 0.04058 0.90805 0.0
C1007 C 0.81784 0.03762 0.89911 0.0
C1008 C 0.84019 0.03047 0.92548 0.0
C1009 C 0.80565 0.02496 0.90803 0.0
C1010 C 0.8276 0.01795 0.93397 0.0
N1011 N 0.81072 0.0155 0.92516 0.0
C1012 C 0.83278 0.06385 0.84178 0.0
C1013 C 0.80906 0.07642 0.86266 0.0
C1014 C 0.8201 0.06054 0.82599 0.0
N1015 N 0.827 0.07156 0.85967 0.0
C1016 C 0.79593 0.07325 0.84743 0.0
C1017 C 0.80134 0.06514 0.82878 0.0
H1018 H 0.84717 0.06013 0.83986 0.0
H1019 H 0.80485 0.0822 0.87721 0.0
C1020 C 0.83733 0.07078 0.96212 0.0
N1021 N 0.82996 0.07051 0.94293 0.0
C1022 C 0.82595 0.06843 0.97924 0.0
C1023 C 0.79968 0.06558 0.95646 0.0
C1024 C 0.81152 0.06813 0.93985 0.0
C1025 C 0.80686 0.06577 0.97649 0.0
H1026 H 0.85195 0.07317 0.9642 0.0
H1027 H 0.80599 0.06848 0.92443 0.0
O1028 O 0.86947 0.0825 0.87577 0.0
O1029 O 0.86991 0.08369 0.92387 0.0
O1030 O 0.83453 0.0946 0.90126 0.0
O1031 O 0.84722 0.05318 0.8997 0.0
H1032 H 0.89395 0.08072 0.84587 0.0
H1033 H 0.84473 0.10856 0.86666 0.0
H1034 H 0.89355 0.10033 0.81457 0.0
H1035 H 0.84521 0.1276 0.8351 0.0
H1036 H 0.90175 0.04495 0.96616 0.0
H1037 H 0.89873 0.10547 0.93132 0.0
H1038 H 0.87436 0.05259 0.94492 0.0
H1039 H 0.92573 0.09694 0.95271 0.0
H1040 H 0.91499 0.14085 0.89631 0.0
H1041 H 0.86208 0.16732 0.90662 0.0
H1042 H 0.90309 0.0078 0.9171 0.0
H1043 H 0.93753 0.05652 0.91099 0.0
H1044 H 0.84607 0.10636 0.93786 0.0
H1045 H 0.80482 0.11373 0.89082 0.0
H1046 H 0.83062 0.13062 0.9584 0.0
H1047 H 0.79013 0.13798 0.91224 0.0
H1048 H 0.81377 0.04499 0.88545 0.0
H1049 H 0.85359 0.03227 0.93247 0.0
H1050 H 0.79214 0.02265 0.90132 0.0
H1051 H 0.83127 0.01018 0.94756 0.0
H1052 H 0.82493 0.05448 0.81178 0.0
H1053 H 0.78161 0.07667 0.85048 0.0
H1054 H 0.832 0.06872 0.99443 0.0
H1055 H 0.78499 0.06399 0.95369 0.0
Li1056 Li 0.42759 0.64595 0.61073 0.0
Li1057 Li 0.42915 0.647 0.57362 0.0
Li1058 Li 0.40632 0.62853 0.5905 0.0
Li1059 Li 0.43771 0.61887 0.59115 0.0
C1060 C 0.3958 0.66485 0.58014 0.0
N1061 N 0.36976 0.68332 0.55678 0.0
C1062 C 0.38867 0.65669 0.56237 0.0
C1063 C 0.38968 0.68241 0.58602 0.0
C1064 C 0.37552 0.66625 0.55078 0.0
C1065 C 0.37651 0.69152 0.57401 0.0
C1066 C 0.46549 0.64305 0.60504 0.0
C1067 C 0.49629 0.65363 0.61317 0.0
N1068 N 0.49661 0.64213 0.62968 0.0
C1069 C 0.46612 0.63132 0.62209 0.0
C1070 C 0.48068 0.65429 0.60053 0.0
C1071 C 0.48198 0.63106 0.63436 0.0
C1072 C 0.43401 0.65351 0.65308 0.0
N1073 N 0.43122 0.6608 0.63412 0.0
C1074 C 0.43361 0.69152 0.6472 0.0
C1075 C 0.43103 0.67935 0.63088 0.0
C1076 C 0.43652 0.6845 0.66705 0.0
C1077 C 0.43673 0.66519 0.66988 0.0
H1078 H 0.43417 0.63865 0.65511 0.0
H1079 H 0.42881 0.68466 0.61556 0.0
C1080 C 0.42567 0.66077 0.5328 0.0
N1081 N 0.43428 0.66298 0.55118 0.0
C1082 C 0.42855 0.67351 0.51703 0.0
C1083 C 0.44982 0.69001 0.53906 0.0
C1084 C 0.44632 0.67709 0.55449 0.0
C1085 C 0.4406 0.68856 0.52011 0.0
H1086 H 0.41622 0.64936 0.53052 0.0
H1087 H 0.45297 0.67847 0.56928 0.0
C1088 C 0.40626 0.61331 0.62648 0.0
N1089 N 0.37636 0.60053 0.64872 0.0
C1090 C 0.40286 0.59433 0.62794 0.0
C1091 C 0.39452 0.62581 0.63638 0.0
C1092 C 0.38765 0.58814 0.63925 0.0
C1093 C 0.37946 0.61907 0.64754 0.0
C1094 C 0.43062 0.61522 0.54986 0.0
C1095 C 0.42191 0.60268 0.53672 0.0
C1096 C 0.44879 0.62081 0.54582 0.0
C1097 C 0.43152 0.59591 0.51971 0.0
C1098 C 0.45793 0.61372 0.52867 0.0
N1099 N 0.44918 0.60152 0.51608 0.0
C1100 C 0.36652 0.62857 0.59255 0.0
C1101 C 0.38102 0.60123 0.58053 0.0
C1102 C 0.34911 0.6215 0.58749 0.0
N1103 N 0.38201 0.61864 0.58826 0.0
C1104 C 0.36392 0.5935 0.57558 0.0
C1105 C 0.34769 0.60396 0.57824 0.0
H1106 H 0.36772 0.64231 0.59899 0.0
H1107 H 0.39361 0.59358 0.57757 0.0
C1108 C 0.47109 0.59851 0.5841 0.0
N1109 N 0.45265 0.59754 0.58812 0.0
C1110 C 0.48035 0.58313 0.57621 0.0
C1111 C 0.45165 0.56596 0.57755 0.0
C1112 C 0.44298 0.5816 0.58551 0.0
C1113 C 0.47043 0.5668 0.5721 0.0
H1114 H 0.47834 0.61151 0.58552 0.0
H1115 H 0.4282 0.58152 0.58802 0.0
O1116 O 0.40879 0.65588 0.59176 0.0
O1117 O 0.45007 0.64376 0.59286 0.0
O1118 O 0.42075 0.6197 0.61501 0.0
O1119 O 0.42152 0.62145 0.56691 0.0
H1120 H 0.39318 0.64311 0.55758 0.0
H1121 H 0.39507 0.68892 0.59974 0.0
H1122 H 0.36989 0.66008 0.537 0.0
H1123 H 0.37165 0.70512 0.57839 0.0
H1124 H 0.50815 0.66226 0.60985 0.0
H1125 H 0.45458 0.62244 0.62583 0.0
H1126 H 0.48042 0.66345 0.58739 0.0
H1127 H 0.48265 0.62206 0.64759 0.0
H1128 H 0.43304 0.70627 0.64434 0.0
H1129 H 0.43914 0.65919 0.68486 0.0
H1130 H 0.4209 0.6719 0.50286 0.0
H1131 H 0.4595 0.70112 0.54207 0.0
H1132 H 0.41181 0.58447 0.62038 0.0
H1133 H 0.39685 0.64057 0.6352 0.0
H1134 H 0.3848 0.57348 0.64047 0.0
H1135 H 0.37019 0.62858 0.65519 0.0
H1136 H 0.40788 0.59814 0.5397 0.0
H1137 H 0.45585 0.63038 0.55588 0.0
H1138 H 0.42494 0.58617 0.50943 0.0
H1139 H 0.47201 0.61787 0.52541 0.0
H1140 H 0.33705 0.63015 0.58975 0.0
H1141 H 0.36352 0.57974 0.56904 0.0
H1142 H 0.49487 0.58434 0.57234 0.0
H1143 H 0.44335 0.55383 0.57426 0.0
Li1144 Li 0.87033 0.39429 0.59039 0.0
Li1145 Li 0.87767 0.42659 0.58308 0.0
Li1146 Li 0.85465 0.41844 0.60843 0.0
Li1147 Li 0.84844 0.4142 0.57199 0.0
C1148 C 0.88587 0.41803 0.62819 0.0
N1149 N 0.89292 0.42968 0.66777 0.0
C1150 C 0.89237 0.43595 0.6318 0.0
C1151 C 0.88306 0.40598 0.64467 0.0
C1152 C 0.89584 0.44158 0.65194 0.0
C1153 C 0.88667 0.41216 0.66459 0.0
C1154 C 0.8873 0.40785 0.54963 0.0
C1155 C 0.90264 0.42442 0.52234 0.0
N1156 N 0.91692 0.41219 0.52321 0.0
C1157 C 0.90214 0.39544 0.55023 0.0
C1158 C 0.88753 0.42244 0.53551 0.0
C1159 C 0.91696 0.39786 0.53674 0.0
C1160 C 0.87404 0.35809 0.5765 0.0
N1161 N 0.88034 0.37006 0.59096 0.0
C1162 C 0.90213 0.34772 0.60311 0.0
C1163 C 0.89407 0.36529 0.60422 0.0
C1164 C 0.89572 0.33505 0.58841 0.0
C1165 C 0.88138 0.34033 0.57514 0.0
H1166 H 0.86356 0.36251 0.56572 0.0
H1167 H 0.89905 0.37526 0.61529 0.0
C1168 C 0.89427 0.45909 0.56723 0.0
N1169 N 0.89751 0.44226 0.57576 0.0
C1170 C 0.90841 0.46825 0.5568 0.0
C1171 C 0.92923 0.44332 0.56582 0.0
C1172 C 0.91472 0.43472 0.57619 0.0
C1173 C 0.92592 0.45989 0.55515 0.0
H1174 H 0.88048 0.46482 0.56738 0.0
H1175 H 0.91679 0.42127 0.5831 0.0
C1176 C 0.83794 0.37894 0.59724 0.0
N1177 N 0.82845 0.34205 0.60126 0.0
C1178 C 0.82775 0.37009 0.58186 0.0
C1179 C 0.84327 0.369 0.61467 0.0
C1180 C 0.82308 0.35144 0.58419 0.0
C1181 C 0.83837 0.35037 0.61641 0.0
C1182 C 0.83876 0.44791 0.57933 0.0
C1183 C 0.8222 0.44907 0.59033 0.0
C1184 C 0.84009 0.45632 0.56007 0.0
C1185 C 0.80725 0.45868 0.58188 0.0
C1186 C 0.82482 0.46576 0.55213 0.0
N1187 N 0.80885 0.46674 0.56311 0.0
C1188 C 0.84574 0.4436 0.64003 0.0
C1189 C 0.83353 0.41338 0.64426 0.0
C1190 C 0.83676 0.44961 0.65778 0.0
N1191 N 0.84386 0.42579 0.63363 0.0
C1192 C 0.82446 0.41872 0.66214 0.0
C1193 C 0.82586 0.4371 0.66898 0.0
H1194 H 0.8539 0.45321 0.63109 0.0
H1195 H 0.83193 0.39945 0.63861 0.0
C1196 C 0.8348 0.41636 0.53127 0.0
N1197 N 0.82984 0.41462 0.55129 0.0
C1198 C 0.82134 0.41631 0.51593 0.0
C1199 C 0.79793 0.41233 0.54204 0.0
C1200 C 0.81182 0.41283 0.55693 0.0
C1201 C 0.8027 0.41403 0.52127 0.0
H1202 H 0.84919 0.41752 0.52717 0.0
H1203 H 0.8083 0.41147 0.57298 0.0
O1204 O 0.88195 0.41241 0.60865 0.0
O1205 O 0.87279 0.40589 0.56298 0.0
O1206 O 0.84283 0.39715 0.59514 0.0
O1207 O 0.8534 0.43815 0.5871 0.0
H1208 H 0.89452 0.44547 0.61921 0.0
H1209 H 0.878 0.39208 0.64213 0.0
H1210 H 0.90079 0.45545 0.65498 0.0
H1211 H 0.88445 0.40303 0.67751 0.0
H1212 H 0.90309 0.43579 0.51154 0.0
H1213 H 0.90233 0.38414 0.56108 0.0
H1214 H 0.87644 0.43248 0.53514 0.0
H1215 H 0.92855 0.3884 0.5371 0.0
H1216 H 0.91331 0.34412 0.61344 0.0
H1217 H 0.8764 0.33107 0.5633 0.0
H1218 H 0.90541 0.48123 0.5492 0.0
H1219 H 0.94243 0.43629 0.56487 0.0
H1220 H 0.82367 0.37743 0.56814 0.0
H1221 H 0.85144 0.3755 0.62656 0.0
H1222 H 0.81526 0.34441 0.57237 0.0
H1223 H 0.84253 0.34249 0.62975 0.0
H1224 H 0.82079 0.44243 0.6051 0.0
H1225 H 0.85265 0.45524 0.55113 0.0
H1226 H 0.79434 0.45964 0.5902 0.0
H1227 H 0.82562 0.47221 0.53718 0.0
H1228 H 0.83818 0.46389 0.6626 0.0
H1229 H 0.8159 0.40874 0.67012 0.0
H1230 H 0.82551 0.41744 0.50001 0.0
H1231 H 0.78364 0.41058 0.54668 0.0
Li1232 Li 0.09665 0.87652 0.61275 0.0
Li1233 Li 0.06534 0.88535 0.60782 0.0
Li1234 Li 0.07373 0.86199 0.6348 0.0
Li1235 Li 0.07513 0.85496 0.59714 0.0
C1236 C 0.09221 0.89858 0.64548 0.0
N1237 N 0.1161 0.9185 0.67017 0.0
C1238 C 0.10026 0.91492 0.63825 0.0
C1239 C 0.09626 0.89241 0.66531 0.0
C1240 C 0.11232 0.92478 0.65095 0.0
C1241 C 0.10839 0.90267 0.67754 0.0
C1242 C 0.07975 0.89177 0.57179 0.0
C1243 C 0.06146 0.90246 0.54315 0.0
N1244 N 0.07119 0.91857 0.54302 0.0
C1245 C 0.08958 0.90845 0.57135 0.0
C1246 C 0.06562 0.88872 0.55752 0.0
C1247 C 0.08506 0.9218 0.55667 0.0
C1248 C 0.12809 0.88465 0.59036 0.0
N1249 N 0.12215 0.88398 0.61012 0.0
C1250 C 0.15242 0.89209 0.62214 0.0
C1251 C 0.13399 0.88724 0.62598 0.0
C1252 C 0.15861 0.89354 0.60179 0.0
C1253 C 0.14622 0.88959 0.58583 0.0
H1254 H 0.11877 0.8811 0.57802 0.0
H1255 H 0.1293 0.88578 0.64161 0.0
C1256 C 0.03247 0.90145 0.59237 0.0
N1257 N 0.04935 0.90524 0.60054 0.0
C1258 C 0.02302 0.91499 0.58127 0.0
C1259 C 0.04763 0.93653 0.58904 0.0
C1260 C 0.05651 0.92261 0.6001 0.0
C1261 C 0.03111 0.93251 0.57857 0.0
H1262 H 0.0269 0.88763 0.59329 0.0
H1263 H 0.06994 0.92525 0.60669 0.0
C1264 C 0.11135 0.84371 0.618 0.0
N1265 N 0.14806 0.83324 0.61542 0.0
C1266 C 0.11862 0.83745 0.5994 0.0
C1267 C 0.12276 0.84464 0.6353 0.0
C1268 C 0.13721 0.83223 0.5984 0.0
C1269 C 0.14127 0.83928 0.63369 0.0
C1270 C 0.0404 0.8483 0.60836 0.0
C1271 C 0.03568 0.83394 0.62177 0.0
C1272 C 0.03239 0.84892 0.58884 0.0
C1273 C 0.02304 0.82048 0.61542 0.0
C1274 C 0.01983 0.83518 0.58305 0.0
N1275 N 0.01545 0.82136 0.59635 0.0
C1276 C 0.05103 0.85619 0.66941 0.0
C1277 C 0.07829 0.83793 0.66821 0.0
C1278 C 0.04476 0.84644 0.68657 0.0
N1279 N 0.06735 0.8515 0.66042 0.0
C1280 C 0.07279 0.82817 0.68559 0.0
C1281 C 0.05565 0.83211 0.69465 0.0
H1282 H 0.04249 0.86685 0.66263 0.0
H1283 H 0.0909 0.83414 0.66043 0.0
C1284 C 0.07759 0.83903 0.55767 0.0
N1285 N 0.07283 0.83565 0.57747 0.0
C1286 C 0.07671 0.82491 0.54309 0.0
C1287 C 0.066 0.80411 0.56958 0.0
C1288 C 0.0674 0.81855 0.58369 0.0
C1289 C 0.07084 0.80712 0.54895 0.0
H1290 H 0.08254 0.85256 0.55327 0.0
H1291 H 0.06426 0.81608 0.59966 0.0
O1292 O 0.08011 0.88887 0.63344 0.0
O1293 O 0.08372 0.87865 0.58633 0.0
O1294 O 0.09331 0.84938 0.61911 0.0
O1295 O 0.05285 0.86159 0.61426 0.0
H1296 H 0.09756 0.91977 0.62286 0.0
H1297 H 0.09013 0.87985 0.67121 0.0
H1298 H 0.11876 0.93737 0.64549 0.0
H1299 H 0.11167 0.89804 0.6929 0.0
H1300 H 0.05046 0.90034 0.53215 0.0
H1301 H 0.10033 0.91124 0.58248 0.0
H1302 H 0.05779 0.87598 0.55766 0.0
H1303 H 0.09248 0.9348 0.55626 0.0
H1304 H 0.16167 0.89476 0.63487 0.0
H1305 H 0.15061 0.88995 0.56995 0.0
H1306 H 0.01005 0.91145 0.57393 0.0
H1307 H 0.05448 0.94977 0.58734 0.0
H1308 H 0.11009 0.83683 0.58579 0.0
H1309 H 0.11752 0.84989 0.64971 0.0
H1310 H 0.14303 0.82743 0.58408 0.0
H1311 H 0.15029 0.84006 0.64691 0.0
H1312 H 0.04184 0.83302 0.63682 0.0
H1313 H 0.03604 0.85971 0.57811 0.0
H1314 H 0.01932 0.80927 0.62563 0.0
H1315 H 0.01363 0.83545 0.56795 0.0
H1316 H 0.0314 0.84972 0.69316 0.0
H1317 H 0.08138 0.81698 0.69123 0.0
H1318 H 0.08109 0.82783 0.52755 0.0
H1319 H 0.06124 0.79073 0.57486 0.0
Li1320 Li 0.64407 0.06493 0.57347 0.0
Li1321 Li 0.63793 0.06164 0.60958 0.0
Li1322 Li 0.61309 0.06239 0.58358 0.0
Li1323 Li 0.62901 0.09093 0.59177 0.0
C1324 C 0.64135 0.028 0.58044 0.0
N1325 N 0.65947 0.99698 0.56576 0.0
C1326 C 0.65192 0.01701 0.59366 0.0
C1327 C 0.63958 0.02283 0.55987 0.0
C1328 C 0.66108 0.00149 0.58593 0.0
C1329 C 0.64896 0.00722 0.5527 0.0
C1330 C 0.66984 0.08788 0.58847 0.0
C1331 C 0.70306 0.09118 0.58793 0.0
N1332 N 0.70169 0.10206 0.57098 0.0
C1333 C 0.66876 0.09924 0.57113 0.0
C1334 C 0.68713 0.08392 0.59702 0.0
C1335 C 0.68501 0.10622 0.56249 0.0
C1336 C 0.66131 0.06861 0.53483 0.0
N1337 N 0.6624 0.05979 0.55319 0.0
C1338 C 0.69207 0.04749 0.54455 0.0
C1339 C 0.67733 0.04929 0.55822 0.0
C1340 C 0.69172 0.05708 0.52576 0.0
C1341 C 0.67589 0.06751 0.52087 0.0
H1342 H 0.64958 0.07738 0.53148 0.0
H1343 H 0.67808 0.04282 0.57315 0.0
C1344 C 0.6385 0.05152 0.65252 0.0
N1345 N 0.64794 0.0523 0.63449 0.0
C1346 C 0.64783 0.04723 0.67071 0.0
C1347 C 0.67594 0.04324 0.65111 0.0
C1348 C 0.66617 0.04787 0.63344 0.0
C1349 C 0.66688 0.04337 0.67013 0.0
H1350 H 0.62393 0.05484 0.65295 0.0
H1351 H 0.67318 0.04826 0.61881 0.0
C1352 C 0.61114 0.08153 0.54849 0.0
N1353 N 0.58479 0.08203 0.51766 0.0
C1354 C 0.59864 0.09623 0.54698 0.0
C1355 C 0.61052 0.06735 0.53392 0.0
C1356 C 0.58536 0.09618 0.53139 0.0
C1357 C 0.59702 0.06776 0.51858 0.0
C1358 C 0.61166 0.0844 0.62891 0.0
C1359 C 0.59461 0.08431 0.639 0.0
C1360 C 0.62668 0.09373 0.63766 0.0
C1361 C 0.59289 0.09343 0.6578 0.0
C1362 C 0.62441 0.10268 0.65647 0.0
N1363 N 0.60771 0.10234 0.66607 0.0
C1364 C 0.58822 0.03709 0.56581 0.0
C1365 C 0.5752 0.0659 0.57554 0.0
C1366 C 0.57226 0.0325 0.55494 0.0
N1367 N 0.58959 0.0538 0.5752 0.0
C1368 C 0.55899 0.06193 0.56476 0.0
C1369 C 0.55766 0.04532 0.55366 0.0
H1370 H 0.59991 0.02777 0.56577 0.0
H1371 H 0.57685 0.0792 0.58294 0.0
C1372 C 0.64049 0.12855 0.59752 0.0
N1373 N 0.62587 0.11691 0.59514 0.0
C1374 C 0.63782 0.14767 0.59704 0.0
C1375 C 0.60492 0.14243 0.59364 0.0
C1376 C 0.60825 0.12342 0.59429 0.0
C1377 C 0.6199 0.15482 0.59424 0.0
H1378 H 0.65429 0.12307 0.59924 0.0
H1379 H 0.59682 0.1138 0.5932 0.0
O1380 O 0.63229 0.04329 0.58782 0.0
O1381 O 0.65406 0.08037 0.59664 0.0
O1382 O 0.62389 0.08102 0.56409 0.0
O1383 O 0.61342 0.07564 0.61041 0.0
H1384 H 0.65286 0.02024 0.60978 0.0
H1385 H 0.63116 0.03081 0.54949 0.0
H1386 H 0.66938 0.99296 0.596 0.0
H1387 H 0.64786 0.00323 0.53676 0.0
H1388 H 0.71653 0.08816 0.59437 0.0
H1389 H 0.65551 0.10245 0.56425 0.0
H1390 H 0.68831 0.0754 0.61057 0.0
H1391 H 0.68436 0.11489 0.54898 0.0
H1392 H 0.70379 0.03906 0.54894 0.0
H1393 H 0.67507 0.07554 0.50688 0.0
H1394 H 0.64036 0.04732 0.68511 0.0
H1395 H 0.69064 0.04048 0.65 0.0
H1396 H 0.59909 0.10755 0.55772 0.0
H1397 H 0.62031 0.05613 0.53446 0.0
H1398 H 0.57551 0.1074 0.5302 0.0
H1399 H 0.59628 0.05673 0.50739 0.0
H1400 H 0.58282 0.07725 0.63236 0.0
H1401 H 0.63998 0.09402 0.63008 0.0
H1402 H 0.57978 0.09344 0.6658 0.0
H1403 H 0.63592 0.10989 0.66344 0.0
H1404 H 0.57164 0.01939 0.54693 0.0
H1405 H 0.54814 0.07225 0.56406 0.0
H1406 H 0.64971 0.15674 0.59816 0.0
H1407 H 0.59087 0.14727 0.59151 0.0
C1408 C 0.6126 0.21731 0.01221 0.0
C1409 C 0.59915 0.20355 0.00919 0.0
C1410 C 0.61631 0.23024 0.99688 0.0
C1411 C 0.59487 0.25348 0.95333 0.0
H1412 H 0.64496 0.27074 0.9438 0.0
C1413 C 0.61023 0.31816 0.90395 0.0
C1414 C 0.62153 0.331 0.91418 0.0
C1415 C 0.60876 0.29998 0.91123 0.0
C1416 C 0.6309 0.26602 0.94623 0.0
H1417 H 0.57912 0.19243 0.98769 0.0
H1418 H 0.5856 0.21519 0.9608 0.0
H1419 H 0.63976 0.24343 0.96505 0.0
H1420 H 0.641 0.3348 0.93911 0.0
H1421 H 0.63844 0.30326 0.95183 0.0
H1422 H 0.58597 0.27655 0.93522 0.0
C1423 C 0.59325 0.21591 0.97507 0.0
C1424 C 0.62793 0.25042 0.9584 0.0
C1425 C 0.58963 0.20285 0.99039 0.0
C1426 C 0.63203 0.32518 0.9311 0.0
C1427 C 0.63071 0.30707 0.93823 0.0
C1428 C 0.59785 0.26913 0.94115 0.0
C1429 C 0.6066 0.22977 0.9782 0.0
C1430 C 0.60985 0.24437 0.96265 0.0
C1431 C 0.61879 0.29436 0.92865 0.0
C1432 C 0.61586 0.27591 0.93808 0.0
H1433 H 0.6203 0.21805 0.02645 0.0
H1434 H 0.62649 0.24091 -0.00012 0.0
H1435 H 0.58078 0.2492 0.95642 0.0
H1436 H 0.602 0.32237 0.89086 0.0
H1437 H 0.59955 0.29044 0.90349 0.0
C1438 C 0.18991 0.59919 0.8865 0.0
C1439 C 0.18166 0.61625 0.89131 0.0
C1440 C 0.20779 0.59508 0.89339 0.0
C1441 C 0.24918 0.61569 0.91946 0.0
H1442 H 0.25223 0.56741 0.94523 0.0
C1443 C 0.29148 0.60071 0.99188 0.0
C1444 C 0.30161 0.58417 0.99304 0.0
C1445 C 0.28015 0.60428 0.97501 0.0
C1446 C 0.25176 0.5808 0.93778 0.0
H1447 H 0.18596 0.64266 0.90638 0.0
H1448 H 0.21679 0.63549 0.91858 0.0
H1449 H 0.22635 0.57443 0.92263 0.0
H1450 H 0.30815 0.55852 0.97746 0.0
H1451 H 0.28784 0.5646 0.94801 0.0
H1452 H 0.27402 0.62236 0.93584 0.0
C1453 C 0.20978 0.62536 0.90912 0.0
C1454 C 0.23696 0.58484 0.92474 0.0
C1455 C 0.19202 0.6295 0.90213 0.0
C1456 C 0.30048 0.57139 0.97685 0.0
C1457 C 0.28888 0.57483 0.96009 0.0
C1458 C 0.26385 0.61171 0.9327 0.0
C1459 C 0.21769 0.6079 0.90538 0.0
C1460 C 0.23515 0.60255 0.91595 0.0
C1461 C 0.27853 0.59127 0.9591 0.0
C1462 C 0.26496 0.59442 0.94245 0.0
H1463 H 0.18232 0.5888 0.87798 0.0
H1464 H 0.21359 0.58163 0.88989 0.0
H1465 H 0.24846 0.62931 0.91258 0.0
H1466 H 0.29224 0.61083 0.00411 0.0
H1467 H 0.27215 0.61696 0.97476 0.0
C1468 C 0.91531 0.17341 0.92062 0.0
C1469 C 0.89945 0.17404 0.90812 0.0
C1470 C 0.92251 0.18957 0.92922 0.0
C1471 C 0.91959 0.24103 0.92915 0.0
H1472 H 0.92783 0.23486 0.98752 0.0
C1473 C 0.91477 0.30066 0.98792 0.0
C1474 C 0.92598 0.29989 0.00551 0.0
C1475 C 0.9153 0.2864 0.97345 0.0
C1476 C 0.926 0.23686 0.97118 0.0
H1477 H 0.87973 0.19241 0.89345 0.0
H1478 H 0.89194 0.22055 0.909 0.0
H1479 H 0.92238 0.2079 0.96632 0.0
H1480 H 0.94751 0.2844 0.02102 0.0
H1481 H 0.94866 0.25963 0.99564 0.0
H1482 H 0.92266 0.27017 0.93432 0.0
C1483 C 0.89889 0.20756 0.91204 0.0
C1484 C 0.92287 0.22134 0.95898 0.0
C1485 C 0.89174 0.19138 0.90332 0.0
C1486 C 0.93847 0.28515 0.00778 0.0
C1487 C 0.9391 0.27098 0.99326 0.0
C1488 C 0.92276 0.25662 0.94141 0.0
C1489 C 0.91395 0.20673 0.92567 0.0
C1490 C 0.91934 0.22323 0.93789 0.0
C1491 C 0.92713 0.27114 0.97625 0.0
C1492 C 0.92571 0.25471 0.96264 0.0
H1493 H 0.92159 0.16033 0.9248 0.0
H1494 H 0.93434 0.18851 0.93936 0.0
H1495 H 0.91709 0.24292 0.91291 0.0
H1496 H 0.90494 0.31182 0.98586 0.0
H1497 H 0.90575 0.28688 0.96065 0.0
C1498 C 0.32172 0.8774 0.95207 0.0
C1499 C 0.32659 0.88241 0.93195 0.0
C1500 C 0.30439 0.88185 0.95994 0.0
C1501 C 0.26652 0.91468 0.95588 0.0
H1502 H 0.24092 0.87795 0.98872 0.0
C1503 C 0.19836 0.92921 0.00114 0.0
C1504 C 0.19864 0.92277 0.0215 0.0
C1505 C 0.21244 0.92423 0.98746 0.0
C1506 C 0.24791 0.88836 0.9796 0.0
H1507 H 0.31698 0.89625 0.90437 0.0
H1508 H 0.28659 0.90439 0.91845 0.0
H1509 H 0.26826 0.86906 0.96923 0.0
H1510 H 0.21373 0.90591 0.04338 0.0
H1511 H 0.23827 0.89748 0.01973 0.0
H1512 H 0.2464 0.93412 0.96688 0.0
C1513 C 0.29632 0.89688 0.92796 0.0
C1514 C 0.26352 0.88327 0.96844 0.0
C1515 C 0.3137 0.89225 0.91996 0.0
C1516 C 0.21325 0.91132 0.02789 0.0
C1517 C 0.22717 0.90627 0.01425 0.0
C1518 C 0.25083 0.9198 0.96712 0.0
C1519 C 0.29149 0.89159 0.948 0.0
C1520 C 0.27333 0.89649 0.95699 0.0
C1521 C 0.22686 0.91254 0.99386 0.0
C1522 C 0.24176 0.9068 0.97961 0.0
H1523 H 0.33144 0.87034 0.962 0.0
H1524 H 0.30123 0.878 0.97561 0.0
H1525 H 0.27387 0.92515 0.94723 0.0
H1526 H 0.18729 0.93812 0.99583 0.0
H1527 H 0.21187 0.92925 0.97181 0.0
C1528 C 0.59832 0.28459 0.48943 0.0
C1529 C 0.58231 0.29557 0.48981 0.0
C1530 C 0.60254 0.27298 0.50586 0.0
C1531 C 0.58084 0.24605 0.54589 0.0
H1532 H 0.63127 0.24016 0.56521 0.0
C1533 C 0.60128 0.18421 0.59666 0.0
C1534 C 0.61704 0.17474 0.58961 0.0
C1535 C 0.59732 0.20208 0.58963 0.0
C1536 C 0.61711 0.24164 0.56001 0.0
H1537 H 0.55825 0.30327 0.50767 0.0
H1538 H 0.56547 0.28254 0.53643 0.0
H1539 H 0.62352 0.26593 0.54258 0.0
H1540 H 0.64131 0.17692 0.57016 0.0
H1541 H 0.63446 0.2078 0.55796 0.0
H1542 H 0.57459 0.22119 0.56226 0.0
C1543 C 0.57478 0.28308 0.52343 0.0
C1544 C 0.61268 0.25641 0.54711 0.0
C1545 C 0.57069 0.29493 0.50707 0.0
C1546 C 0.62922 0.18389 0.57621 0.0
C1547 C 0.62527 0.20167 0.56919 0.0
C1548 C 0.58529 0.23117 0.55867 0.0
C1549 C 0.59073 0.27196 0.52293 0.0
C1550 C 0.59465 0.25839 0.53939 0.0
C1551 C 0.60904 0.21081 0.57539 0.0
C1552 C 0.60363 0.22844 0.56529 0.0
H1553 H 0.6076 0.28498 0.47639 0.0
H1554 H 0.61479 0.26439 0.50493 0.0
H1555 H 0.56684 0.2472 0.54005 0.0
H1556 H 0.59175 0.17764 0.60721 0.0
H1557 H 0.58484 0.20886 0.59492 0.0
C1558 C 0.31282 0.60173 0.57885 0.0
C1559 C 0.32982 0.59749 0.56943 0.0
C1560 C 0.29608 0.59764 0.569 0.0
C1561 C 0.2784 0.59141 0.51671 0.0
H1562 H 0.23315 0.57547 0.54335 0.0
C1563 C 0.20928 0.59545 0.47481 0.0
C1564 C 0.19762 0.57993 0.47593 0.0
C1565 C 0.22443 0.5971 0.48789 0.0
C1566 C 0.24573 0.57981 0.5357 0.0
H1567 H 0.34238 0.58492 0.54253 0.0
H1568 H 0.3134 0.57723 0.52595 0.0
H1569 H 0.26184 0.57778 0.56329 0.0
H1570 H 0.19222 0.55432 0.49215 0.0
H1571 H 0.219 0.55711 0.51504 0.0
H1572 H 0.26259 0.59324 0.48915 0.0
C1573 C 0.31298 0.58405 0.54074 0.0
C1574 C 0.26209 0.58128 0.54714 0.0
C1575 C 0.32964 0.58823 0.55045 0.0
C1576 C 0.20099 0.56643 0.49099 0.0
C1577 C 0.21628 0.56805 0.50409 0.0
C1578 C 0.26215 0.58996 0.50535 0.0
C1579 C 0.29603 0.58921 0.54958 0.0
C1580 C 0.27861 0.5871 0.53772 0.0
C1581 C 0.22837 0.58323 0.50236 0.0
C1582 C 0.24559 0.58429 0.51471 0.0
H1583 H 0.31243 0.6086 0.59359 0.0
H1584 H 0.28325 0.60182 0.57621 0.0
H1585 H 0.29079 0.59622 0.50902 0.0
H1586 H 0.20676 0.60628 0.46366 0.0
H1587 H 0.23321 0.60919 0.48652 0.0
C1588 C 0.8939 0.30082 0.58386 0.0
C1589 C 0.90471 0.31688 0.58557 0.0
C1590 C 0.90188 0.28421 0.57746 0.0
C1591 C 0.93731 0.26944 0.54271 0.0
H1592 H 0.92492 0.22012 0.56169 0.0
C1593 C 0.95308 0.20645 0.49228 0.0
C1594 C 0.93893 0.19321 0.49105 0.0
C1595 C 0.95293 0.21979 0.50779 0.0
C1596 C 0.92845 0.23379 0.55612 0.0
H1597 H 0.93242 0.3281 0.58306 0.0
H1598 H 0.94638 0.29901 0.5715 0.0
H1599 H 0.91715 0.24693 0.58283 0.0
H1600 H 0.91381 0.1831 0.50523 0.0
H1601 H 0.913 0.20675 0.53176 0.0
H1602 H 0.94735 0.25672 0.51542 0.0
C1603 C 0.93178 0.29927 0.57526 0.0
C1604 C 0.92411 0.2491 0.56832 0.0
C1605 C 0.92384 0.31584 0.58196 0.0
C1606 C 0.92496 0.1931 0.50598 0.0
C1607 C 0.9246 0.20662 0.52127 0.0
C1608 C 0.94138 0.2542 0.53039 0.0
C1609 C 0.92075 0.28346 0.57238 0.0
C1610 C 0.92812 0.26708 0.56149 0.0
C1611 C 0.93838 0.22039 0.52214 0.0
C1612 C 0.93657 0.23619 0.53667 0.0
H1613 H 0.87913 0.30132 0.58662 0.0
H1614 H 0.89303 0.27228 0.5752 0.0
H1615 H 0.94031 0.28317 0.53692 0.0
H1616 H 0.96414 0.20663 0.48106 0.0
H1617 H 0.964 0.22988 0.50823 0.0
C1618 C 0.18157 0.91122 0.58099 0.0
C1619 C 0.17797 0.89857 0.59684 0.0
C1620 C 0.19959 0.91413 0.57412 0.0
C1621 C 0.23973 0.92219 0.56522 0.0
H1622 H 0.26606 0.87652 0.55425 0.0
C1623 C 0.30458 0.92101 0.51377 0.0
C1624 C 0.30419 0.90725 0.49853 0.0
C1625 C 0.29228 0.9203 0.53031 0.0
C1626 C 0.25893 0.88942 0.55728 0.0
H1627 H 0.19047 0.87981 0.61875 0.0
H1628 H 0.22219 0.88501 0.60681 0.0
H1629 H 0.23841 0.87594 0.57557 0.0
H1630 H 0.29131 0.88148 0.48924 0.0
H1631 H 0.26961 0.88045 0.5177 0.0
H1632 H 0.25953 0.93547 0.54582 0.0
C1633 C 0.21099 0.89253 0.59958 0.0
C1634 C 0.2432 0.88913 0.56973 0.0
C1635 C 0.19288 0.88967 0.60652 0.0
C1636 C 0.29176 0.89243 0.50058 0.0
C1637 C 0.2795 0.89171 0.51708 0.0
C1638 C 0.25542 0.92248 0.55273 0.0
C1639 C 0.21448 0.90445 0.58294 0.0
C1640 C 0.23305 0.90541 0.57325 0.0
C1641 C 0.27938 0.90579 0.53196 0.0
C1642 C 0.26482 0.90598 0.54804 0.0
H1643 H 0.17033 0.91843 0.57341 0.0
H1644 H 0.2017 0.92324 0.56114 0.0
H1645 H 0.23237 0.93502 0.56791 0.0
H1646 H 0.31395 0.93266 0.51256 0.0
H1647 H 0.29264 0.93128 0.54161 0.0
C1648 C 0.42494 0.79181 0.01873 0.0
C1649 C 0.43446 0.78856 0.0003 0.0
C1650 C 0.42443 0.77829 0.03404 0.0
C1651 C 0.4454 0.73339 0.05022 0.0
H1652 H 0.39672 0.7245 0.07318 0.0
C1653 C 0.41946 0.66232 0.07644 0.0
C1654 C 0.4075 0.66105 0.0934 0.0
C1655 C 0.42588 0.67948 0.06971 0.0
C1656 C 0.41051 0.72701 0.06729 0.0
H1657 H 0.45128 0.76884 0.98362 0.0
H1658 H 0.4501 0.74509 0.01006 0.0
H1659 H 0.40202 0.75193 0.05242 0.0
H1660 H 0.39394 0.67683 0.11738 0.0
H1661 H 0.40486 0.70693 0.10524 0.0
H1662 H 0.45351 0.70783 0.06427 0.0
C1663 C 0.44335 0.75821 0.01297 0.0
C1664 C 0.41357 0.74276 0.05537 0.0
C1665 C 0.44398 0.77179 0.99775 0.0
C1666 C 0.40286 0.67733 0.10406 0.0
C1667 C 0.40916 0.69455 0.09718 0.0
C1668 C 0.44229 0.71756 0.06203 0.0
C1669 C 0.43331 0.76117 0.03117 0.0
C1670 C 0.43092 0.74589 0.04621 0.0
C1671 C 0.42038 0.6958 0.07964 0.0
C1672 C 0.42467 0.71397 0.07023 0.0
H1673 H 0.41773 0.80476 0.02123 0.0
H1674 H 0.41685 0.78115 0.048 0.0
H1675 H 0.45903 0.73558 0.04376 0.0
H1676 H 0.42307 0.65019 0.06755 0.0
H1677 H 0.43427 0.68001 0.05595 0.0
C1678 C 0.69176 0.44372 0.00828 0.0
C1679 C 0.69728 0.44261 0.98759 0.0
C1680 C 0.70464 0.44123 0.02409 0.0
C1681 C 0.73369 0.42081 0.05091 0.0
H1682 H 0.78167 0.44471 0.04773 0.0
C1683 C 0.80131 0.39043 0.08324 0.0
C1684 C 0.81485 0.40257 0.09092 0.0
C1685 C 0.78463 0.39728 0.0755 0.0
C1686 C 0.76825 0.43816 0.04911 0.0
H1687 H 0.72084 0.43784 0.96754 0.0
H1688 H 0.74319 0.43427 0.995 0.0
H1689 H 0.75714 0.4539 0.02416 0.0
H1690 H 0.82075 0.43127 0.09823 0.0
H1691 H 0.79172 0.44323 0.08439 0.0
H1692 H 0.74512 0.40446 0.07529 0.0
C1693 C 0.72892 0.43716 -0.00106 0.0
C1694 C 0.75427 0.44332 0.0355 0.0
C1695 C 0.71606 0.43933 0.98319 0.0
C1696 C 0.81078 0.42159 0.092 0.0
C1697 C 0.79415 0.42844 0.08415 0.0
C1698 C 0.74777 0.41548 0.06441 0.0
C1699 C 0.72333 0.43792 0.01952 0.0
C1700 C 0.73703 0.43439 0.03594 0.0
C1701 C 0.78118 0.41641 0.0752 0.0
C1702 C 0.76532 0.42382 0.06332 0.0
H1703 H 0.67749 0.44647 0.0123 0.0
H1704 H 0.70003 0.44194 0.03988 0.0
H1705 H 0.72052 0.41366 0.05148 0.0
H1706 H 0.80404 0.37574 0.08196 0.0
H1707 H 0.77498 0.38768 0.06852 0.0
C1708 C 0.06819 0.72013 0.99177 0.0
C1709 C 0.08048 0.7051 0.99237 0.0
C1710 C 0.06844 0.73349 0.00722 0.0
C1711 C 0.09904 0.75291 0.04716 0.0
H1712 H 0.05425 0.77883 0.06292 0.0
C1713 C 0.10029 0.81464 0.10322 0.0
C1714 C 0.09203 0.83066 0.09504 0.0
C1715 C 0.09722 0.79735 0.09419 0.0
C1716 C 0.06685 0.77164 0.05872 0.0
H1717 H 0.10228 0.69191 0.00989 0.0
H1718 H 0.10252 0.71508 0.03717 0.0
H1719 H 0.0522 0.75181 0.04058 0.0
H1720 H 0.07356 0.84082 0.07123 0.0
H1721 H 0.06784 0.8107 0.05603 0.0
H1722 H 0.11365 0.77292 0.06518 0.0
C1723 C 0.09294 0.71678 0.02453 0.0
C1724 C 0.06571 0.75624 0.04584 0.0
C1725 C 0.0928 0.70349 0.00894 0.0
C1726 C 0.07987 0.82881 0.07828 0.0
C1727 C 0.07664 0.81152 0.06946 0.0
C1728 C 0.10014 0.76819 0.06022 0.0
C1729 C 0.08088 0.73206 0.02375 0.0
C1730 C 0.08184 0.74698 0.03945 0.0
C1731 C 0.08563 0.7957 0.07699 0.0
C1732 C 0.0841 0.77798 0.06571 0.0
H1733 H 0.05873 0.72186 0.97903 0.0
H1734 H 0.05923 0.74524 0.00583 0.0
H1735 H 0.11177 0.7463 0.04239 0.0
H1736 H 0.10949 0.8155 0.1163 0.0
H1737 H 0.10419 0.78532 0.1004 0.0
C1738 C 0.6922 0.09887 0.10503 0.0
C1739 C 0.6747 0.09098 0.10134 0.0
C1740 C 0.70794 0.09201 0.09513 0.0
C1741 C 0.71906 0.06802 0.04713 0.0
H1742 H 0.76942 0.06955 0.0676 0.0
C1743 C 0.77969 0.05123 0.99406 0.0
C1744 C 0.79423 0.06413 0.99431 0.0
C1745 C 0.76652 0.05107 0.00971 0.0
C1746 C 0.75542 0.06907 0.06169 0.0
H1747 H 0.66043 0.06873 0.0854 0.0
H1748 H 0.68784 0.05636 0.0691 0.0
H1749 H 0.74362 0.07503 0.09114 0.0
H1750 H 0.80684 0.08646 0.01158 0.0
H1751 H 0.78373 0.08631 0.03884 0.0
H1752 H 0.73069 0.06259 0.01768 0.0
C1753 C 0.68933 0.06819 0.07916 0.0
C1754 C 0.74065 0.07221 0.07515 0.0
C1755 C 0.6736 0.07514 0.08884 0.0
C1756 C 0.79586 0.07626 0.01106 0.0
C1757 C 0.78264 0.07615 0.0267 0.0
C1758 C 0.73374 0.06485 0.03376 0.0
C1759 C 0.70653 0.07702 0.08146 0.0
C1760 C 0.7223 0.07194 0.06795 0.0
C1761 C 0.76756 0.06387 0.02591 0.0
C1762 C 0.7521 0.06556 0.04079 0.0
H1763 H 0.69363 0.11086 0.11486 0.0
H1764 H 0.72097 0.09916 0.09727 0.0
H1765 H 0.70516 0.06815 0.0409 0.0
H1766 H 0.77829 0.04148 0.98153 0.0
H1767 H 0.75527 0.04119 0.00887 0.0
C1768 C 0.44192 0.6988 0.48313 0.0
C1769 C 0.44266 0.70318 0.50417 0.0
C1770 C 0.4423 0.71279 0.46831 0.0
C1771 C 0.45434 0.7618 0.4599 0.0
H1772 H 0.41295 0.76212 0.42204 0.0
C1773 C 0.42523 0.82859 0.42598 0.0
C1774 C 0.41676 0.82854 0.40657 0.0
C1775 C 0.43218 0.81229 0.43442 0.0
C1776 C 0.42487 0.7621 0.4321 0.0
H1777 H 0.44468 0.72587 0.52592 0.0
H1778 H 0.44587 0.75006 0.50012 0.0
H1779 H 0.4185 0.73498 0.44335 0.0
H1780 H 0.40977 0.81147 0.38036 0.0
H1781 H 0.42214 0.78287 0.39506 0.0
H1782 H 0.46053 0.78903 0.44903 0.0
C1783 C 0.44509 0.73578 0.49512 0.0
C1784 C 0.42801 0.74654 0.44436 0.0
C1785 C 0.44446 0.72186 0.50992 0.0
C1786 C 0.41608 0.8119 0.39543 0.0
C1787 C 0.42313 0.79554 0.40387 0.0
C1788 C 0.45133 0.77728 0.44751 0.0
C1789 C 0.44373 0.73143 0.47419 0.0
C1790 C 0.4424 0.7465 0.45885 0.0
C1791 C 0.43091 0.79548 0.42366 0.0
C1792 C 0.43615 0.77788 0.43399 0.0
H1793 H 0.44087 0.68456 0.47808 0.0
H1794 H 0.44135 0.70907 0.45225 0.0
H1795 H 0.46571 0.762 0.47075 0.0
H1796 H 0.42563 0.84107 0.43519 0.0
H1797 H 0.4377 0.81275 0.44985 0.0
C1798 C 0.78688 0.42598 0.48975 0.0
C1799 C 0.78845 0.41244 0.50513 0.0
C1800 C 0.77368 0.42408 0.47419 0.0
C1801 C 0.7478 0.38973 0.4456 0.0
H1802 H 0.70967 0.42692 0.43851 0.0
C1803 C 0.67873 0.37329 0.40683 0.0
C1804 C 0.66868 0.38733 0.39696 0.0
C1805 C 0.69549 0.37725 0.41649 0.0
C1806 C 0.72044 0.41658 0.43985 0.0
H1807 H 0.77782 0.38628 0.51627 0.0
H1808 H 0.75501 0.38275 0.48877 0.0
H1809 H 0.73499 0.43246 0.46251 0.0
H1810 H 0.66871 0.4163 0.38846 0.0
H1811 H 0.69841 0.42318 0.40479 0.0
H1812 H 0.73353 0.37383 0.42295 0.0
C1813 C 0.76385 0.39487 0.48889 0.0
C1814 C 0.73487 0.41974 0.45371 0.0
C1815 C 0.77674 0.39696 0.50466 0.0
C1816 C 0.67617 0.40525 0.39606 0.0
C1817 C 0.6931 0.40918 0.40554 0.0
C1818 C 0.73359 0.38669 0.43148 0.0
C1819 C 0.76222 0.40841 0.47354 0.0
C1820 C 0.74834 0.40611 0.4571 0.0
C1821 C 0.70274 0.39532 0.41635 0.0
C1822 C 0.71939 0.39981 0.42888 0.0
H1823 H 0.79578 0.43804 0.48987 0.0
H1824 H 0.77262 0.43468 0.46249 0.0
H1825 H 0.75822 0.37913 0.44779 0.0
H1826 H 0.67313 0.35943 0.40816 0.0
H1827 H 0.70222 0.36627 0.42498 0.0
C1828 C 0.07906 0.6674 0.44531 0.0
C1829 C 0.08131 0.66919 0.424 0.0
C1830 C 0.07657 0.68297 0.45757 0.0
C1831 C 0.06169 0.73069 0.45968 0.0
H1832 H 0.09749 0.73475 0.50381 0.0
C1833 C 0.0659 0.79479 0.51319 0.0
C1834 C 0.07057 0.79166 0.53387 0.0
C1835 C 0.06655 0.78036 0.4989 0.0
C1836 C 0.08718 0.73374 0.4918 0.0
H1837 H 0.08203 0.68863 0.39869 0.0
H1838 H 0.07729 0.7161 0.42033 0.0
H1839 H 0.099 0.70865 0.48037 0.0
H1840 H 0.07941 0.77069 0.55564 0.0
H1841 H 0.07955 0.74553 0.53115 0.0
H1842 H 0.04944 0.75547 0.47151 0.0
C1843 C 0.07755 0.70253 0.42739 0.0
C1844 C 0.08816 0.71884 0.4783 0.0
C1845 C 0.08032 0.68689 0.41508 0.0
C1846 C 0.07548 0.77365 0.53995 0.0
C1847 C 0.07589 0.75923 0.52577 0.0
C1848 C 0.06052 0.74553 0.47343 0.0
C1849 C 0.07611 0.70068 0.44878 0.0
C1850 C 0.07534 0.71709 0.46225 0.0
C1851 C 0.07172 0.76243 0.50499 0.0
C1852 C 0.07315 0.74711 0.48981 0.0
H1853 H 0.08005 0.65399 0.45268 0.0
H1854 H 0.07539 0.68122 0.47402 0.0
H1855 H 0.05164 0.72955 0.44742 0.0
H1856 H 0.06176 0.8084 0.50798 0.0
H1857 H 0.06336 0.78339 0.48303 0.0
C1858 C 0.70638 0.0591 0.49071 0.0
C1859 C 0.70827 0.05747 0.51212 0.0
C1860 C 0.72193 0.06141 0.47821 0.0
C1861 C 0.77098 0.07651 0.4817 0.0
H1862 H 0.77376 0.05805 0.42592 0.0
C1863 C 0.83789 0.07962 0.43488 0.0
C1864 C 0.83648 0.08877 0.41592 0.0
C1865 C 0.82203 0.07429 0.4455 0.0
C1866 C 0.77307 0.06331 0.44146 0.0
H1867 H 0.72831 0.05641 0.53697 0.0
H1868 H 0.75524 0.05917 0.51521 0.0
H1869 H 0.74667 0.05084 0.44697 0.0
H1870 H 0.81744 0.09895 0.39286 0.0
H1871 H 0.78948 0.08923 0.41142 0.0
H1872 H 0.79758 0.08855 0.47631 0.0
C1873 C 0.74171 0.05935 0.50806 0.0
C1874 C 0.75756 0.05927 0.45351 0.0
C1875 C 0.72618 0.05738 0.52057 0.0
C1876 C 0.81887 0.09191 0.40744 0.0
C1877 C 0.80295 0.0863 0.41797 0.0
C1878 C 0.78655 0.08025 0.4698 0.0
C1879 C 0.7398 0.06188 0.48677 0.0
C1880 C 0.75633 0.06581 0.47382 0.0
C1881 C 0.80442 0.07781 0.43729 0.0
C1882 C 0.78775 0.0737 0.44961 0.0
H1883 H 0.69286 0.05889 0.48356 0.0
H1884 H 0.71985 0.06341 0.46191 0.0
H1885 H 0.77037 0.08227 0.49701 0.0
H1886 H 0.85127 0.07725 0.44193 0.0
H1887 H 0.8235 0.0677 0.46034 0.0
C1888 C 0.48476 0.95775 0.93022 0.0
C1889 C 0.49004 0.94006 0.93695 0.0
C1890 C 0.49243 0.97353 0.93927 0.0
C1891 C 0.52959 0.98981 0.97449 0.0
H1892 H 0.49212 0.02433 0.99319 0.0
C1893 C 0.54115 0.03711 0.04391 0.0
C1894 C 0.53552 0.05566 0.04225 0.0
C1895 C 0.53624 0.02426 0.02889 0.0
C1896 C 0.50279 0.01498 0.98785 0.0
H1897 H 0.5085 0.92489 0.95702 0.0
H1898 H 0.52178 0.95231 0.97291 0.0
H1899 H 0.48379 0.0001 0.96887 0.0
H1900 H 0.52004 0.07519 0.02365 0.0
H1901 H 0.5112 0.05262 0.99759 0.0
H1902 H 0.54844 0.00435 0.99403 0.0
C1903 C 0.51179 0.95412 0.96068 0.0
C1904 C 0.49806 0.00116 0.97383 0.0
C1905 C 0.5041 0.9384 0.9517 0.0
C1906 C 0.52436 0.06094 0.02556 0.0
C1907 C 0.51939 0.04805 0.01056 0.0
C1908 C 0.5343 0.00359 0.98855 0.0
C1909 C 0.50557 0.97185 0.9551 0.0
C1910 C 0.51131 0.98816 0.96736 0.0
C1911 C 0.52553 0.02965 0.01192 0.0
C1912 C 0.52086 0.01605 0.99573 0.0
H1913 H 0.4739 0.95938 0.91891 0.0
H1914 H 0.48755 0.98703 0.93446 0.0
H1915 H 0.54017 0.98018 0.96955 0.0
H1916 H 0.54953 0.03255 0.05673 0.0
H1917 H 0.54082 0.01007 0.03058 0.0
C1918 C 0.45596 0.51234 0.04852 0.0
C1919 C 0.43693 0.51011 0.04487 0.0
C1920 C 0.46888 0.50608 0.03423 0.0
C1921 C 0.4731 0.49837 0.97923 0.0
H1922 H 0.52007 0.47606 0.99386 0.0
C1923 C 0.52873 0.47736 0.91936 0.0
C1924 C 0.54729 0.48044 0.9249 0.0
C1925 C 0.51452 0.48026 0.93355 0.0
C1926 C 0.50708 0.48246 0.98955 0.0
H1927 H 0.41651 0.49892 0.02387 0.0
H1928 H 0.43916 0.48785 -0.00107 0.0
H1929 H 0.49662 0.48076 0.0202 0.0
H1930 H 0.56534 0.48943 0.94964 0.0
H1931 H 0.54064 0.49516 0.9739 0.0
H1932 H 0.48372 0.5005 0.94868 0.0
C1933 C 0.44403 0.49453 0.01279 0.0
C1934 C 0.49364 0.48505 0.00462 0.0
C1935 C 0.4311 0.50067 0.02716 0.0
C1936 C 0.55122 0.48719 0.94466 0.0
C1937 C 0.53706 0.49014 0.95876 0.0
C1938 C 0.48659 0.49585 0.96415 0.0
C1939 C 0.46302 0.49759 0.01595 0.0
C1940 C 0.47661 0.49324 -0.00033 0.0
C1941 C 0.5186 0.48628 0.95356 0.0
C1942 C 0.50384 0.48813 0.96922 0.0
H1943 H 0.4608 0.51951 0.06209 0.0
H1944 H 0.48343 0.50872 0.03702 0.0
H1945 H 0.46018 0.50495 0.97503 0.0
H1946 H 0.52522 0.47228 0.90422 0.0
H1947 H 0.50042 0.47715 0.92908 0.0
C1948 C 0.01535 0.55649 0.95477 0.0
C1949 C 0.03284 0.55315 0.94619 0.0
C1950 C 0.00737 0.54364 0.9681 0.0
C1951 C 0.02034 0.50498 0.00246 0.0
H1952 H 0.96738 0.4965 0.00389 0.0
C1953 C 0.98512 0.44611 0.04836 0.0
C1954 C 0.96863 0.4505 0.05873 0.0
C1955 C 0.99367 0.45913 0.03567 0.0
C1956 C 0.98218 0.4989 0.0038 0.0
H1957 H 0.05533 0.53344 0.94394 0.0
H1958 H 0.0412 0.51071 0.96677 0.0
H1959 H 0.98032 0.51732 0.97823 0.0
H1960 H 0.94888 0.47242 0.06491 0.0
H1961 H 0.96369 0.49504 0.04248 0.0
H1962 H 0.02213 0.4862 0.02782 0.0
C1963 C 0.03385 0.52348 0.96371 0.0
C1964 C 0.9896 0.51082 0.9891 0.0
C1965 C 0.04189 0.53641 0.95053 0.0
C1966 C 0.96136 0.46848 0.05683 0.0
C1967 C 0.96982 0.48143 0.04401 0.0
C1968 C 0.01291 0.49292 0.01703 0.0
C1969 C 0.01667 0.52711 0.973 0.0
C1970 C 0.00878 0.51405 0.98828 0.0
C1971 C 0.98583 0.47674 0.03298 0.0
C1972 C 0.99376 0.48982 0.01788 0.0
H1973 H 0.0082 0.56942 0.95191 0.0
H1974 H 0.99424 0.54702 0.97516 0.0
H1975 H 0.03513 0.50742 0.00254 0.0
H1976 H 0.99096 0.43233 0.04921 0.0
H1977 H 0.00594 0.45512 0.02723 0.0
C1978 C 0.04871 0.98781 0.03166 0.0
C1979 C 0.04271 0.97764 0.04879 0.0
C1980 C 0.03614 0.99339 0.01661 0.0
C1981 C 0.99029 0.98129 0.9957 0.0
H1982 H 0.99368 0.02925 0.96925 0.0
C1983 C 0.93222 0.01181 0.94573 0.0
C1984 C 0.93711 0.02179 0.92801 0.0
C1985 C 0.94579 0.00531 0.95911 0.0
C1986 C 0.99274 0.0157 0.97628 0.0
H1987 H 0.01872 0.96604 0.06403 0.0
H1988 H 0.99668 0.976 0.03788 0.0
H1989 H 0.01563 0.02114 0.99624 0.0
H1990 H 0.9602 0.03213 0.91011 0.0
H1991 H 0.98399 0.02082 0.93369 0.0
H1992 H 0.96722 0.97598 0.97595 0.0
C1993 C 0.01118 0.9793 0.03586 0.0
C1994 C 0.00527 0.01107 0.99178 0.0
C1995 C 0.02377 0.97368 0.05088 0.0
C1996 C 0.95597 0.02464 0.92371 0.0
C1997 C 0.96957 0.0182 0.93721 0.0
C1998 C 0.97773 0.98595 0.98027 0.0
C1999 C 0.01728 0.98894 0.01838 0.0
C2000 C 0.00409 0.99387 0.00178 0.0
C2001 C 0.96458 0.00872 0.9552 0.0
C2002 C 0.97874 0.00325 0.9705 0.0
H2003 H 0.06326 0.99081 0.02943 0.0
H2004 H 0.04132 0.00061 0.00324 0.0
H2005 H 0.98925 0.96777 0.00278 0.0
H2006 H 0.91785 0.00976 0.94984 0.0
H2007 H 0.9415 0.9983 0.973 0.0
C2008 C 0.47433 0.53305 0.56377 0.0
C2009 C 0.47883 0.55165 0.55987 0.0
C2010 C 0.48028 0.51909 0.55049 0.0
C2011 C 0.51384 0.50843 0.50958 0.0
H2012 H 0.47665 0.47332 0.49147 0.0
C2013 C 0.52723 0.45977 0.44159 0.0
C2014 C 0.52165 0.44127 0.44392 0.0
C2015 C 0.5214 0.47324 0.45551 0.0
C2016 C 0.48725 0.48288 0.49653 0.0
H2017 H 0.49342 0.57009 0.53911 0.0
H2018 H 0.50404 0.54573 0.51628 0.0
H2019 H 0.46882 0.49623 0.51753 0.0
H2020 H 0.50528 0.42242 0.46235 0.0
H2021 H 0.49517 0.44589 0.48672 0.0
H2022 H 0.53231 0.4951 0.4887 0.0
C2023 C 0.49604 0.54193 0.52967 0.0
C2024 C 0.48277 0.49597 0.51149 0.0
C2025 C 0.49001 0.55588 0.54285 0.0
C2026 C 0.50958 0.43662 0.46 0.0
C2027 C 0.50383 0.45007 0.47399 0.0
C2028 C 0.51834 0.4953 0.4947 0.0
C2029 C 0.49093 0.52344 0.53313 0.0
C2030 C 0.496 0.50894 0.51808 0.0
C2031 C 0.50997 0.46846 0.47213 0.0
C2032 C 0.50507 0.48245 0.4879 0.0
H2033 H 0.46592 0.52931 0.57687 0.0
H2034 H 0.47638 0.5049 0.55369 0.0
H2035 H 0.52436 0.51813 0.51454 0.0
H2036 H 0.53636 0.46377 0.42918 0.0
H2037 H 0.52604 0.48736 0.45338 0.0
C2038 C 0.05274 0.50184 0.44075 0.0
C2039 C 0.04758 0.51179 0.42315 0.0
C2040 C 0.03927 0.49421 0.45354 0.0
C2041 C 0.99075 0.50232 0.46765 0.0
H2042 H 0.99702 0.45757 0.49975 0.0
C2043 C 0.9342 0.47343 0.52107 0.0
C2044 C 0.93985 0.46708 0.54048 0.0
C2045 C 0.94723 0.47848 0.50634 0.0
C2046 C 0.99519 0.47018 0.49099 0.0
H2047 H 0.0245 0.52034 0.40419 0.0
H2048 H 0.00091 0.50658 0.42624 0.0
H2049 H 0.01962 0.46529 0.47324 0.0
H2050 H 0.96367 0.4615 0.55978 0.0
H2051 H 0.98651 0.47023 0.53388 0.0
H2052 H 0.96632 0.50717 0.48536 0.0
C2053 C 0.01533 0.50512 0.4305 0.0
C2054 C 0.00809 0.47458 0.47579 0.0
C2055 C 0.0288 0.51288 0.4178 0.0
C2056 C 0.95888 0.46619 0.54492 0.0
C2057 C 0.97194 0.47112 0.5301 0.0
C2058 C 0.97782 0.49786 0.48272 0.0
C2059 C 0.02038 0.4963 0.4489 0.0
C2060 C 0.00607 0.49077 0.46403 0.0
C2061 C 0.96622 0.47715 0.51062 0.0
C2062 C 0.97997 0.48182 0.49462 0.0
H2063 H 0.06712 0.50101 0.44538 0.0
H2064 H 0.04365 0.48766 0.46767 0.0
H2065 H 0.98899 0.51511 0.45921 0.0
H2066 H 0.91969 0.47386 0.51693 0.0
H2067 H 0.94244 0.48287 0.49136 0.0
C2068 C 0.01738 0.93891 0.54402 0.0
C2069 C 0.02379 0.94561 0.563 0.0
C2070 C 0.01259 0.95113 0.52832 0.0
C2071 C 0.02292 0.99745 0.50937 0.0
H2072 H 0.97817 0.99148 0.47721 0.0
C2073 C 0.99636 0.05317 0.45353 0.0
C2074 C 0.9866 0.0476 0.43595 0.0
C2075 C 0.00236 0.04012 0.46783 0.0
C2076 C 0.99091 0.99314 0.48577 0.0
H2077 H 0.02949 0.97047 0.58058 0.0
H2078 H 0.02134 0.99182 0.55295 0.0
H2079 H 0.9846 0.97015 0.50529 0.0
H2080 H 0.97648 0.02396 0.41886 0.0
H2081 H 0.98739 0.00103 0.44361 0.0
H2082 H 0.0294 0.02029 0.48978 0.0
C2083 C 0.02019 0.97706 0.55028 0.0
C2084 C 0.9945 0.981 0.50194 0.0
C2085 C 0.02482 0.96485 0.56608 0.0
C2086 C 0.98383 0.02863 0.43239 0.0
C2087 C 0.98997 0.01554 0.44663 0.0
C2088 C 0.01943 0.0095 0.49308 0.0
C2089 C 0.01428 0.9703 0.53117 0.0
C2090 C 0.01046 0.98314 0.51401 0.0
C2091 C -0.00116 0.02118 0.4648 0.0
C2092 C 0.0033 0.00759 0.48118 0.0
H2093 H 0.01682 0.9242 0.54091 0.0
H2094 H 0.00825 0.94554 0.51367 0.0
H2095 H 0.0355 -0.0008 0.51822 0.0
H2096 H -0.00157 0.06771 0.45687 0.0
H2097 H 0.00893 0.04501 0.48175 0.0
C2098 C 0.54524 0.0346 0.51989 0.0
C2099 C 0.54195 0.04204 0.53946 0.0
C2100 C 0.53069 0.03175 0.50621 0.0
C2101 C 0.48041 0.02467 0.5046 0.0
H2102 H 0.48778 0.03119 0.4461 0.0
C2103 C 0.42463 0.00289 0.44669 0.0
C2104 C 0.43131 0.99089 0.43144 0.0
C2105 C 0.43691 0.01336 0.4585 0.0
C2106 C 0.48551 0.02936 0.4624 0.0
H2107 H 0.52079 0.05255 0.55994 0.0
H2108 H 0.49528 0.04777 0.53586 0.0
H2109 H 0.51162 0.04148 0.47007 0.0
H2110 H 0.45588 0.98144 0.41555 0.0
H2111 H 0.47734 -0.00031 0.43616 0.0
H2112 H 0.4545 0.01216 0.4969 0.0
C2113 C 0.50915 0.04396 0.53122 0.0
C2114 C 0.49917 0.03518 0.47612 0.0
C2115 C 0.52376 0.0468 0.54496 0.0
C2116 C 0.45038 0.99047 0.42733 0.0
C2117 C 0.46264 0.00103 0.43902 0.0
C2118 C 0.46671 0.01893 0.49088 0.0
C2119 C 0.51246 0.03636 0.5117 0.0
C2120 C 0.49699 0.03243 0.49735 0.0
C2121 C 0.45608 0.01214 0.45515 0.0
C2122 C 0.46933 0.02079 0.46962 0.0
H2123 H 0.55914 0.03114 0.51501 0.0
H2124 H 0.53371 0.02562 0.49144 0.0
H2125 H 0.47836 0.02217 0.52082 0.0
H2126 H 0.41001 0.00339 0.45029 0.0
H2127 H 0.43147 0.02195 0.4707 0.0
C2128 C 0.5382 0.30373 0.28863 0.0
C2129 C 0.53218 0.29943 0.30857 0.0
C2130 C 0.53527 0.29134 0.27251 0.0
C2131 C 0.52998 0.24175 0.26368 0.0
H2132 H 0.51934 0.25683 0.20784 0.0
C2133 C 0.5311 0.18935 0.197 0.0
C2134 C 0.54042 0.19526 0.17927 0.0
C2135 C 0.52646 0.202 0.2124 0.0
C2136 C 0.52239 0.25241 0.22335 0.0
H2137 H 0.51731 0.27928 0.32693 0.0
H2138 H 0.51235 0.25757 0.29878 0.0
H2139 H 0.51743 0.27949 0.23553 0.0
H2140 H 0.55215 0.2191 0.16376 0.0
H2141 H 0.54424 0.24106 0.19057 0.0
H2142 H 0.53563 0.21487 0.25152 0.0
C2143 C 0.51956 0.27042 0.29571 0.0
C2144 C 0.52126 0.26538 0.23919 0.0
C2145 C 0.52243 0.28285 0.31182 0.0
C2146 C 0.54468 0.21414 0.17707 0.0
C2147 C 0.54011 0.22675 0.19245 0.0
C2148 C 0.53119 0.2288 0.24785 0.0
C2149 C 0.52631 0.27436 0.27599 0.0
C2150 C 0.52539 0.26026 0.25948 0.0
C2151 C 0.53113 0.22081 0.21041 0.0
C2152 C 0.52777 0.23406 0.22743 0.0
H2153 H 0.54596 0.31626 0.28563 0.0
H2154 H 0.54084 0.29467 0.25754 0.0
H2155 H 0.5335 0.23742 0.27911 0.0
H2156 H 0.52744 0.17492 0.19901 0.0
H2157 H 0.51933 0.19701 0.22592 0.0
C2158 C 0.20104 0.57752 0.29742 0.0
C2159 C 0.18566 0.56591 0.30054 0.0
C2160 C 0.21419 0.57332 0.2825 0.0
C2161 C 0.22146 0.54967 0.23424 0.0
H2162 H 0.27311 0.54926 0.25048 0.0
C2163 C 0.27917 0.53408 0.17578 0.0
C2164 C 0.29506 0.54521 0.17711 0.0
C2165 C 0.26612 0.53409 0.19159 0.0
C2166 C 0.25878 0.54949 0.24562 0.0
H2167 H 0.17194 0.54092 0.28994 0.0
H2168 H 0.19466 0.53402 0.26328 0.0
H2169 H 0.24923 0.55495 0.27611 0.0
H2170 H 0.30987 0.56495 0.19598 0.0
H2171 H 0.287 0.56539 0.22327 0.0
H2172 H 0.2309 0.54507 0.20361 0.0
C2173 C 0.1965 0.54627 0.27264 0.0
C2174 C 0.24513 0.55268 0.26033 0.0
C2175 C 0.18345 0.55032 0.28782 0.0
C2176 C 0.29789 0.55601 0.19471 0.0
C2177 C 0.28476 0.55621 0.21039 0.0
C2178 C 0.23512 0.54676 0.21944 0.0
C2179 C 0.21212 0.55758 0.27011 0.0
C2180 C 0.22639 0.55303 0.25471 0.0
C2181 C 0.26859 0.54544 0.20892 0.0
C2182 C 0.25398 0.54688 0.2249 0.0
H2183 H 0.20298 0.58988 0.30656 0.0
H2184 H 0.22596 0.58243 0.28056 0.0
H2185 H 0.20707 0.54999 0.22955 0.0
H2186 H 0.27676 0.52552 0.1624 0.0
H2187 H 0.25402 0.52536 0.19011 0.0
C2188 C 0.9511 0.30622 0.19895 0.0
C2189 C 0.93914 0.3023 0.1825 0.0
C2190 C 0.95437 0.29296 0.21417 0.0
C2191 C 0.95113 0.24266 0.22398 0.0
H2192 H 0.94977 0.25694 0.28127 0.0
C2193 C 0.94052 0.19016 0.28928 0.0
C2194 C 0.95006 0.1929 0.30781 0.0
C2195 C 0.94155 0.20328 0.2736 0.0
C2196 C 0.9505 0.25276 0.26534 0.0
H2197 H 0.92075 0.28162 0.16953 0.0
H2198 H 0.92648 0.25859 0.19593 0.0
H2199 H 0.9471 0.28061 0.25475 0.0
H2200 H 0.96883 0.21119 0.32407 0.0
H2201 H 0.97061 0.23413 0.29666 0.0
H2202 H 0.95422 0.2148 0.23453 0.0
C2203 C 0.93367 0.27172 0.19686 0.0
C2204 C 0.94896 0.26633 0.25016 0.0
C2205 C 0.93038 0.28494 0.18173 0.0
C2206 C 0.96108 0.20882 0.31009 0.0
C2207 C 0.9621 0.22196 0.29441 0.0
C2208 C 0.95268 0.22911 0.23914 0.0
C2209 C 0.94574 0.27553 0.21321 0.0
C2210 C 0.94894 0.26138 0.22932 0.0
C2211 C 0.95215 0.21945 0.2761 0.0
C2212 C 0.95209 0.23397 0.25999 0.0
H2213 H 0.95817 0.31941 0.19988 0.0
H2214 H 0.96384 0.29624 0.22653 0.0
H2215 H 0.95151 0.23846 0.20804 0.0
H2216 H 0.9317 0.17819 0.28715 0.0
H2217 H 0.9335 0.20106 0.2598 0.0
C2218 C 0.29059 0.95279 0.30613 0.0
C2219 C 0.28913 0.9373 0.3191 0.0
C2220 C 0.27663 0.95682 0.29197 0.0
C2221 C 0.22736 0.94815 0.28097 0.0
H2222 H 0.2407 0.9597 0.22483 0.0
C2223 C 0.17554 0.94369 0.21399 0.0
C2224 C 0.17742 0.95605 0.19748 0.0
C2225 C 0.18835 0.94378 0.23004 0.0
C2226 C 0.2367 0.95685 0.24052 0.0
H2227 H 0.27199 0.91366 0.32695 0.0
H2228 H 0.2476 0.92082 0.30243 0.0
H2229 H 0.26493 0.9552 0.25034 0.0
H2230 H 0.19354 0.97887 0.1854 0.0
H2231 H 0.21576 0.97925 0.21362 0.0
H2232 H 0.19913 0.94967 0.27117 0.0
C2233 C 0.25942 0.93 0.30345 0.0
C2234 C 0.25061 0.95422 0.25512 0.0
C2235 C 0.27341 0.92591 0.3175 0.0
C2236 C 0.19189 0.96904 0.19782 0.0
C2237 C 0.20465 0.9692 0.21393 0.0
C2238 C 0.21343 0.95089 0.2664 0.0
C2239 C 0.26086 0.9455 0.29055 0.0
C2240 C 0.24609 0.94956 0.27541 0.0
C2241 C 0.20328 0.95628 0.22999 0.0
C2242 C 0.21795 0.955 0.24593 0.0
H2243 H 0.30238 0.96201 0.30715 0.0
H2244 H 0.27804 0.96895 0.28233 0.0
H2245 H 0.22346 0.94486 0.29659 0.0
H2246 H 0.1647 0.93334 0.21401 0.0
H2247 H 0.187 0.93346 0.24199 0.0
C2248 C 0.44965 0.80555 0.7989 0.0
C2249 C 0.44122 0.80039 0.81745 0.0
C2250 C 0.45044 0.79309 0.78251 0.0
C2251 C 0.44667 0.74303 0.77073 0.0
H2252 H 0.43756 0.76006 0.71525 0.0
C2253 C 0.43066 0.69351 0.70366 0.0
C2254 C 0.43898 0.69732 0.68464 0.0
C2255 C 0.43227 0.706 0.71991 0.0
C2256 C 0.44035 0.75514 0.73063 0.0
H2257 H 0.42644 0.77845 0.83315 0.0
H2258 H 0.42761 0.75685 0.80459 0.0
H2259 H 0.4377 0.78229 0.7434 0.0
H2260 H 0.45608 0.71695 0.66804 0.0
H2261 H 0.45868 0.73884 0.69636 0.0
H2262 H 0.44897 0.71583 0.75798 0.0
C2263 C 0.43408 0.77029 0.80282 0.0
C2264 C 0.44046 0.76787 0.74676 0.0
C2265 C 0.43337 0.78268 0.81919 0.0
C2266 C 0.44921 0.71376 0.68236 0.0
C2267 C 0.45073 0.72629 0.69858 0.0
C2268 C 0.44647 0.7303 0.75463 0.0
C2269 C 0.44272 0.77528 0.78433 0.0
C2270 C 0.44346 0.76194 0.76702 0.0
C2271 C 0.44217 0.7226 0.71747 0.0
C2272 C 0.44317 0.7362 0.73444 0.0
H2273 H 0.45592 0.81907 0.7972 0.0
H2274 H 0.45735 0.7973 0.76853 0.0
H2275 H 0.44938 0.73804 0.78611 0.0
H2276 H 0.42246 0.68112 0.70585 0.0
H2277 H 0.42533 0.7029 0.73423 0.0
C2278 C 0.80444 0.45947 0.68621 0.0
C2279 C 0.81507 0.4432 0.68704 0.0
C2280 C 0.7924 0.46394 0.70224 0.0
C2281 C 0.78056 0.45243 0.75609 0.0
H2282 H 0.73024 0.46335 0.73921 0.0
C2283 C 0.71844 0.43681 0.80725 0.0
C2284 C 0.70398 0.44976 0.80847 0.0
C2285 C 0.73273 0.43912 0.79316 0.0
C2286 C 0.74428 0.46065 0.7442 0.0
H2287 H 0.82231 0.41947 0.7057 0.0
H2288 H 0.80123 0.42713 0.73355 0.0
H2289 H 0.75486 0.46252 0.71363 0.0
H2290 H 0.69306 0.4752 0.79562 0.0
H2291 H 0.71805 0.4791 0.77062 0.0
H2292 H 0.76987 0.44994 0.78654 0.0
C2293 C 0.8022 0.4365 0.72062 0.0
C2294 C 0.75839 0.46021 0.72957 0.0
C2295 C 0.81414 0.432 0.70459 0.0
C2296 C 0.70394 0.46491 0.79493 0.0
C2297 C 0.71826 0.46719 0.7807 0.0
C2298 C 0.76647 0.45286 0.77069 0.0
C2299 C 0.79089 0.45229 0.71941 0.0
C2300 C 0.77658 0.45558 0.73529 0.0
C2301 C 0.73288 0.45439 0.77984 0.0
C2302 C 0.7481 0.45645 0.7648 0.0
H2303 H 0.80481 0.46831 0.6728 0.0
H2304 H 0.78397 0.47628 0.70098 0.0
H2305 H 0.79451 0.44917 0.761 0.0
H2306 H 0.71867 0.42475 0.81713 0.0
H2307 H 0.74355 0.42876 0.79249 0.0
C2308 C 0.05958 0.81648 0.72853 0.0
C2309 C 0.04864 0.82005 0.71119 0.0
C2310 C 0.05423 0.80298 0.74266 0.0
C2311 C 0.03171 0.75889 0.74374 0.0
H2312 H 0.03409 0.76386 0.80293 0.0
C2313 C 0.05017 0.70026 0.79997 0.0
C2314 C 0.03939 0.69832 0.81782 0.0
C2315 C 0.04701 0.71484 0.78637 0.0
C2316 C 0.03312 0.76233 0.78643 0.0
H2317 H 0.02337 0.81284 0.69518 0.0
H2318 H 0.01421 0.78882 0.71975 0.0
H2319 H 0.03631 0.79148 0.78125 0.0
H2320 H 0.01601 0.70973 0.83454 0.0
H2321 H 0.01115 0.73571 0.81117 0.0
H2322 H 0.02964 0.72965 0.74889 0.0
C2323 C 0.02675 0.79666 0.72251 0.0
C2324 C 0.03448 0.77808 0.77408 0.0
C2325 C 0.03192 0.81042 0.70858 0.0
C2326 C 0.02489 0.71098 0.82124 0.0
C2327 C 0.02198 0.72579 0.80783 0.0
C2328 C 0.03071 0.74312 0.75608 0.0
C2329 C 0.03804 0.79261 0.73945 0.0
C2330 C 0.0341 0.77644 0.75263 0.0
C2331 C 0.03321 0.72798 0.79047 0.0
C2332 C 0.03172 0.74469 0.77751 0.0
H2333 H 0.07255 0.82373 0.73078 0.0
H2334 H 0.06325 0.79998 0.75552 0.0
H2335 H 0.03156 0.75727 0.72722 0.0
H2336 H 0.06168 0.69108 0.79692 0.0
H2337 H 0.05599 0.71638 0.77318 0.0
C2338 C 0.69155 0.02756 0.69071 0.0
C2339 C 0.67778 0.04121 0.68922 0.0
C2340 C 0.70374 0.02736 0.70734 0.0
C2341 C 0.71232 0.04789 0.75897 0.0
H2342 H 0.76382 0.04031 0.74447 0.0
C2343 C 0.77257 0.07343 0.80924 0.0
C2344 C 0.78732 0.06111 0.8127 0.0
C2345 C 0.7588 0.06922 0.79497 0.0
C2346 C 0.74948 0.04223 0.7488 0.0
H2347 H 0.66553 0.06495 0.70428 0.0
H2348 H 0.68692 0.06485 0.73312 0.0
H2349 H 0.73984 0.03541 0.71877 0.0
H2350 H 0.79915 0.03473 0.80368 0.0
H2351 H 0.77527 0.02764 0.77835 0.0
H2352 H 0.72215 0.05537 0.78883 0.0
C2353 C 0.68815 0.05404 0.72171 0.0
C2354 C 0.7357 0.03934 0.73412 0.0
C2355 C 0.67586 0.05412 0.70516 0.0
C2356 C 0.78815 0.04466 0.8012 0.0
C2357 C 0.77443 0.04053 0.78678 0.0
C2358 C 0.72612 0.05093 0.77359 0.0
C2359 C 0.70253 0.04094 0.72274 0.0
C2360 C 0.71696 0.04236 0.73894 0.0
C2361 C 0.75953 0.0527 0.78368 0.0
C2362 C 0.74485 0.04836 0.76857 0.0
H2363 H 0.69318 0.01731 0.67872 0.0
H2364 H 0.71438 0.01683 0.70788 0.0
H2365 H 0.69802 0.05003 0.76331 0.0
H2366 H 0.77168 0.0864 0.8175 0.0
H2367 H 0.74766 0.07903 0.7926 0.0
loop_
_geom_bond_atom_site_label_1
_geom_bond_atom_site_label_2
_geom_bond_distance
_geom_bond_site_symmetry_2
_ccdc_geom_bond_type
Li0 N17 1.990 . S
Li0 O60 1.956 . S
Li0 O61 1.970 . S
Li0 O62 1.961 . S
Li1 N25 1.990 . S
Li1 O60 1.970 . S
Li1 O61 1.956 . S
Li1 O63 1.961 . S
Li2 N47 1.990 . S
Li2 O60 1.961 . S
Li2 O62 1.956 . S
Li2 O63 1.970 . S
Li3 N53 1.990 . S
Li3 O61 1.961 . S
Li3 O62 1.970 . S
Li3 O63 1.956 . S
C4 C6 1.348 . S
C4 C7 1.356 . S
C4 O60 1.325 . S
N5 C8 1.314 . S
N5 C9 1.279 . S
C6 C4 1.348 . S
C6 C8 1.353 . S
C6 H64 0.929 . S
C7 C4 1.356 . S
C7 C9 1.358 . S
C7 H65 0.930 . S
C8 N5 1.314 . S
C8 C6 1.353 . S
C8 H66 0.930 . S
C9 N5 1.279 . S
C9 C7 1.358 . S
C9 H67 0.930 . S
C10 C13 1.348 . S
C10 C14 1.356 . S
C10 O61 1.325 . S
C11 N12 1.279 . S
C11 C14 1.358 . S
C11 H68 0.930 . S
N12 C11 1.279 . S
N12 C15 1.314 . S
C13 C10 1.348 . S
C13 C15 1.353 . S
C13 H69 0.929 . S
C14 C10 1.356 . S
C14 C11 1.358 . S
C14 H70 0.930 . S
C15 N12 1.314 . S
C15 C13 1.353 . S
C15 H71 0.930 . S
C16 N17 1.314 . S
C16 C21 1.353 . S
C16 H22 0.930 . S
N17 Li0 1.990 . S
N17 C16 1.314 . S
N17 C19 1.279 . S
C18 C19 1.358 . S
C18 C20 1.356 . S
C18 H72 0.930 . S
C19 N17 1.279 . S
C19 C18 1.358 . S
C19 H23 0.930 . S
C20 C18 1.356 . S
C20 C21 1.348 . S
C21 C16 1.353 . S
C21 C20 1.348 . S
C21 H73 0.929 . S
H22 C16 0.930 . S
H23 C19 0.930 . S
C24 N25 1.314 . S
C24 C26 1.353 . S
C24 H30 0.930 . S
N25 Li1 1.990 . S
N25 C24 1.314 . S
N25 C28 1.279 . S
C26 C24 1.353 . S
C26 C29 1.348 . S
C26 H74 0.929 . S
C27 C28 1.358 . S
C27 C29 1.356 . S
C27 H75 0.930 . S
C28 N25 1.279 . S
C28 C27 1.358 . S
C28 H31 0.930 . S
C29 C26 1.348 . S
C29 C27 1.356 . S
H30 C24 0.930 . S
H31 C28 0.930 . S
C32 C34 1.348 . S
C32 C35 1.356 . S
C32 O62 1.325 . S
N33 C36 1.314 . S
N33 C37 1.279 . S
C34 C32 1.348 . S
C34 C36 1.353 . S
C34 H76 0.929 . S
C35 C32 1.356 . S
C35 C37 1.358 . S
C35 H77 0.930 . S
C36 N33 1.314 . S
C36 C34 1.353 . S
C36 H78 0.930 . S
C37 N33 1.279 . S
C37 C35 1.358 . S
C37 H79 0.930 . S
C38 C39 1.348 . S
C38 C40 1.356 . S
C38 O63 1.325 . S
C39 C38 1.348 . S
C39 C41 1.353 . S
C39 H80 0.929 . S
C40 C38 1.356 . S
C40 C42 1.358 . S
C40 H81 0.930 . S
C41 C39 1.353 . S
C41 N43 1.314 1_554 S
C41 H82 0.930 1_554 S
C42 C40 1.358 . S
C42 N43 1.279 1_554 S
C42 H83 0.930 1_554 S
N43 C41 1.314 1_556 S
N43 C42 1.279 1_556 S
C44 C46 1.353 . S
C44 N47 1.314 . S
C44 H50 0.930 . S
C45 N47 1.279 . S
C45 C48 1.358 . S
C45 H51 0.930 . S
C46 C44 1.353 . S
C46 C49 1.348 . S
C46 H84 0.929 . S
N47 Li2 1.990 . S
N47 C44 1.314 . S
N47 C45 1.279 . S
C48 C45 1.358 . S
C48 C49 1.356 . S
C48 H85 0.930 . S
C49 C46 1.348 . S
C49 C48 1.356 . S
H50 C44 0.930 . S
H51 C45 0.930 . S
C52 N53 1.314 . S
C52 C54 1.353 . S
C52 H58 0.930 . S
N53 Li3 1.990 . S
N53 C52 1.314 . S
N53 C56 1.279 . S
C54 C52 1.353 . S
C54 C57 1.348 . S
C54 H86 0.929 . S
C55 C56 1.358 . S
C55 C57 1.356 . S
C55 H87 0.930 . S
C56 N53 1.279 . S
C56 C55 1.358 . S
C56 H59 0.930 . S
C57 C54 1.348 . S
C57 C55 1.356 . S
H58 C52 0.930 . S
H59 C56 0.930 . S
O60 Li0 1.956 . S
O60 Li1 1.970 . S
O60 Li2 1.961 . S
O60 C4 1.325 . S
O61 Li0 1.970 . S
O61 Li1 1.956 . S
O61 Li3 1.961 . S
O61 C10 1.325 . S
O62 Li0 1.961 . S
O62 Li2 1.956 . S
O62 Li3 1.970 . S
O62 C32 1.325 . S
O63 Li1 1.961 . S
O63 Li2 1.970 . S
O63 Li3 1.956 . S
O63 C38 1.325 . S
H64 C6 0.929 . S
H65 C7 0.930 . S
H66 C8 0.930 . S
H67 C9 0.930 . S
H68 C11 0.930 . S
H69 C13 0.929 . S
H70 C14 0.930 . S
H71 C15 0.930 . S
H72 C18 0.930 . S
H73 C21 0.929 . S
H74 C26 0.929 . S
H75 C27 0.930 . S
H76 C34 0.929 . S
H77 C35 0.930 . S
H78 C36 0.930 . S
H79 C37 0.930 . S
H80 C39 0.929 . S
H81 C40 0.930 . S
H82 C41 0.930 1_556 S
H83 C42 0.930 1_556 S
H84 C46 0.929 . S
H85 C48 0.930 . S
H86 C54 0.929 . S
H87 C55 0.930 . S
Li88 N105 1.990 . S
Li88 O148 1.956 . S
Li88 O149 1.970 . S
Li88 O150 1.961 . S
Li89 N113 1.990 . S
Li89 O148 1.970 . S
Li89 O149 1.956 . S
Li89 O151 1.961 . S
Li90 N135 1.990 . S
Li90 O148 1.961 . S
Li90 O150 1.956 . S
Li90 O151 1.970 . S
Li91 N141 1.990 . S
Li91 O149 1.961 . S
Li91 O150 1.970 . S
Li91 O151 1.956 . S
C92 C94 1.348 . S
C92 C95 1.356 . S
C92 O148 1.325 . S
N93 C96 1.314 . S
N93 C97 1.279 . S
C94 C92 1.348 . S
C94 C96 1.353 . S
C94 H152 0.929 . S
C95 C92 1.356 . S
C95 C97 1.358 . S
C95 H153 0.930 . S
C96 N93 1.314 . S
C96 C94 1.353 . S
C96 H154 0.930 . S
C97 N93 1.279 . S
C97 C95 1.358 . S
C97 H155 0.930 . S
C98 C101 1.348 . S
C98 C102 1.356 . S
C98 O149 1.325 . S
C99 N100 1.279 . S
C99 C102 1.358 . S
C99 H156 0.930 . S
N100 C99 1.279 . S
N100 C103 1.314 . S
C101 C98 1.348 . S
C101 C103 1.353 . S
C101 H157 0.929 . S
C102 C98 1.356 . S
C102 C99 1.358 . S
C102 H158 0.930 . S
C103 N100 1.314 . S
C103 C101 1.353 . S
C103 H159 0.930 . S
C104 N105 1.314 . S
C104 C109 1.353 . S
C104 H110 0.930 . S
N105 Li88 1.990 . S
N105 C104 1.314 . S
N105 C107 1.279 . S
C106 C107 1.358 . S
C106 C108 1.356 . S
C106 H160 0.930 . S
C107 N105 1.279 . S
C107 C106 1.358 . S
C107 H111 0.930 . S
C108 C106 1.356 . S
C108 C109 1.348 . S
C109 C104 1.353 . S
C109 C108 1.348 . S
C109 H161 0.929 . S
H110 C104 0.930 . S
H111 C107 0.930 . S
C112 N113 1.314 . S
C112 C114 1.353 . S
C112 H118 0.930 . S
N113 Li89 1.990 . S
N113 C112 1.314 . S
N113 C116 1.279 . S
C114 C112 1.353 . S
C114 C117 1.348 . S
C114 H162 0.929 . S
C115 C116 1.358 . S
C115 C117 1.356 . S
C115 H163 0.930 . S
C116 N113 1.279 . S
C116 C115 1.358 . S
C116 H119 0.930 . S
C117 C114 1.348 . S
C117 C115 1.356 . S
H118 C112 0.930 . S
H119 C116 0.930 . S
C120 C122 1.348 . S
C120 C123 1.356 . S
C120 O150 1.325 . S
N121 C124 1.314 . S
N121 C125 1.279 . S
C122 C120 1.348 . S
C122 C124 1.353 . S
C122 H164 0.929 . S
C123 C120 1.356 . S
C123 C125 1.358 . S
C123 H165 0.930 . S
C124 N121 1.314 . S
C124 C122 1.353 . S
C124 H166 0.930 . S
C125 N121 1.279 . S
C125 C123 1.358 . S
C125 H167 0.930 . S
C126 C127 1.348 . S
C126 C128 1.356 . S
C126 O151 1.325 . S
C127 C126 1.348 . S
C127 C129 1.353 . S
C127 H168 0.929 . S
C128 C126 1.356 . S
C128 C130 1.358 . S
C128 H169 0.930 . S
C129 C127 1.353 . S
C129 N131 1.314 1_554 S
C129 H170 0.930 1_554 S
C130 C128 1.358 . S
C130 N131 1.279 1_554 S
C130 H171 0.930 1_554 S
N131 C129 1.314 1_556 S
N131 C130 1.279 1_556 S
C132 C134 1.353 . S
C132 N135 1.314 . S
C132 H138 0.930 . S
C133 N135 1.279 . S
C133 C136 1.358 . S
C133 H139 0.930 . S
C134 C132 1.353 . S
C134 C137 1.348 . S
C134 H172 0.929 . S
N135 Li90 1.990 . S
N135 C132 1.314 . S
N135 C133 1.279 . S
C136 C133 1.358 . S
C136 C137 1.356 . S
C136 H173 0.930 . S
C137 C134 1.348 . S
C137 C136 1.356 . S
H138 C132 0.930 . S
H139 C133 0.930 . S
C140 N141 1.314 . S
C140 C142 1.353 . S
C140 H146 0.930 . S
N141 Li91 1.990 . S
N141 C140 1.314 . S
N141 C144 1.279 . S
C142 C140 1.353 . S
C142 C145 1.348 . S
C142 H174 0.929 . S
C143 C144 1.358 . S
C143 C145 1.356 . S
C143 H175 0.930 . S
C144 N141 1.279 . S
C144 C143 1.358 . S
C144 H147 0.930 . S
C145 C142 1.348 . S
C145 C143 1.356 . S
H146 C140 0.930 . S
H147 C144 0.930 . S
O148 Li88 1.956 . S
O148 Li89 1.970 . S
O148 Li90 1.961 . S
O148 C92 1.325 . S
O149 Li88 1.970 . S
O149 Li89 1.956 . S
O149 Li91 1.961 . S
O149 C98 1.325 . S
O150 Li88 1.961 . S
O150 Li90 1.956 . S
O150 Li91 1.970 . S
O150 C120 1.325 . S
O151 Li89 1.961 . S
O151 Li90 1.970 . S
O151 Li91 1.956 . S
O151 C126 1.325 . S
H152 C94 0.929 . S
H153 C95 0.930 . S
H154 C96 0.930 . S
H155 C97 0.930 . S
H156 C99 0.930 . S
H157 C101 0.929 . S
H158 C102 0.930 . S
H159 C103 0.930 . S
H160 C106 0.930 . S
H161 C109 0.929 . S
H162 C114 0.929 . S
H163 C115 0.930 . S
H164 C122 0.929 . S
H165 C123 0.930 . S
H166 C124 0.930 . S
H167 C125 0.930 . S
H168 C127 0.929 . S
H169 C128 0.930 . S
H170 C129 0.930 1_556 S
H171 C130 0.930 1_556 S
H172 C134 0.929 . S
H173 C136 0.930 . S
H174 C142 0.929 . S
H175 C143 0.930 . S
Li176 N193 1.990 . S
Li176 O236 1.956 . S
Li176 O237 1.970 . S
Li176 O238 1.961 . S
Li177 N201 1.990 . S
Li177 O236 1.970 . S
Li177 O237 1.956 . S
Li177 O239 1.961 . S
Li178 N223 1.990 . S
Li178 O236 1.961 . S
Li178 O238 1.956 . S
Li178 O239 1.970 . S
Li179 N229 1.990 . S
Li179 O237 1.961 . S
Li179 O238 1.970 . S
Li179 O239 1.956 . S
C180 C182 1.348 . S
C180 C183 1.356 . S
C180 O236 1.325 . S
N181 C184 1.314 . S
N181 C185 1.279 . S
C182 C180 1.348 . S
C182 C184 1.353 . S
C182 H240 0.929 . S
C183 C180 1.356 . S
C183 C185 1.358 . S
C183 H241 0.930 . S
C184 N181 1.314 . S
C184 C182 1.353 . S
C184 H242 0.930 . S
C185 N181 1.279 . S
C185 C183 1.358 . S
C185 H243 0.930 . S
C186 C189 1.348 . S
C186 C190 1.356 . S
C186 O237 1.325 . S
C187 N188 1.279 . S
C187 C190 1.358 . S
C187 H244 0.930 . S
N188 C187 1.279 . S
N188 C191 1.314 . S
C189 C186 1.348 . S
C189 C191 1.353 . S
C189 H245 0.929 . S
C190 C186 1.356 . S
C190 C187 1.358 . S
C190 H246 0.930 . S
C191 N188 1.314 . S
C191 C189 1.353 . S
C191 H247 0.930 . S
C192 N193 1.314 . S
C192 C197 1.353 . S
C192 H198 0.930 . S
N193 Li176 1.990 . S
N193 C192 1.314 . S
N193 C195 1.279 . S
C194 C195 1.358 . S
C194 C196 1.356 . S
C194 H248 0.930 . S
C195 N193 1.279 . S
C195 C194 1.358 . S
C195 H199 0.930 . S
C196 C194 1.356 . S
C196 C197 1.348 . S
C197 C192 1.353 . S
C197 C196 1.348 . S
C197 H249 0.929 . S
H198 C192 0.930 . S
H199 C195 0.930 . S
C200 N201 1.314 . S
C200 C202 1.353 . S
C200 H206 0.930 . S
N201 Li177 1.990 . S
N201 C200 1.314 . S
N201 C204 1.279 . S
C202 C200 1.353 . S
C202 C205 1.348 . S
C202 H250 0.929 . S
C203 C204 1.358 . S
C203 C205 1.356 . S
C203 H251 0.930 . S
C204 N201 1.279 . S
C204 C203 1.358 . S
C204 H207 0.930 . S
C205 C202 1.348 . S
C205 C203 1.356 . S
H206 C200 0.930 . S
H207 C204 0.930 . S
C208 C210 1.348 . S
C208 C211 1.356 . S
C208 O238 1.325 . S
N209 C212 1.314 1_556 S
N209 C213 1.279 1_556 S
C210 C208 1.348 . S
C210 C212 1.353 . S
C210 H252 0.929 . S
C211 C208 1.356 . S
C211 C213 1.358 . S
C211 H253 0.930 . S
C212 N209 1.314 1_554 S
C212 C210 1.353 . S
C212 H254 0.930 1_554 S
C213 N209 1.279 1_554 S
C213 C211 1.358 . S
C213 H255 0.930 1_554 S
C214 C215 1.348 . S
C214 C216 1.356 . S
C214 O239 1.325 . S
C215 C214 1.348 . S
C215 C217 1.353 . S
C215 H256 0.929 . S
C216 C214 1.356 . S
C216 C218 1.358 . S
C216 H257 0.930 . S
C217 C215 1.353 . S
C217 N219 1.314 . S
C217 H258 0.930 . S
C218 C216 1.358 . S
C218 N219 1.279 . S
C218 H259 0.930 . S
N219 C217 1.314 . S
N219 C218 1.279 . S
C220 C222 1.353 . S
C220 N223 1.314 . S
C220 H226 0.930 . S
C221 N223 1.279 . S
C221 C224 1.358 . S
C221 H227 0.930 . S
C222 C220 1.353 . S
C222 C225 1.348 . S
C222 H260 0.929 . S
N223 Li178 1.990 . S
N223 C220 1.314 . S
N223 C221 1.279 . S
C224 C221 1.358 . S
C224 C225 1.356 . S
C224 H261 0.930 . S
C225 C222 1.348 . S
C225 C224 1.356 . S
H226 C220 0.930 . S
H227 C221 0.930 . S
C228 N229 1.314 . S
C228 C230 1.353 . S
C228 H234 0.930 . S
N229 Li179 1.990 . S
N229 C228 1.314 . S
N229 C232 1.279 . S
C230 C228 1.353 . S
C230 C233 1.348 . S
C230 H262 0.929 . S
C231 C232 1.358 . S
C231 C233 1.356 . S
C231 H263 0.930 . S
C232 N229 1.279 . S
C232 C231 1.358 . S
C232 H235 0.930 . S
C233 C230 1.348 . S
C233 C231 1.356 . S
H234 C228 0.930 . S
H235 C232 0.930 . S
O236 Li176 1.956 . S
O236 Li177 1.970 . S
O236 Li178 1.961 . S
O236 C180 1.325 . S
O237 Li176 1.970 . S
O237 Li177 1.956 . S
O237 Li179 1.961 . S
O237 C186 1.325 . S
O238 Li176 1.961 . S
O238 Li178 1.956 . S
O238 Li179 1.970 . S
O238 C208 1.325 . S
O239 Li177 1.961 . S
O239 Li178 1.970 . S
O239 Li179 1.956 . S
O239 C214 1.325 . S
H240 C182 0.929 . S
H241 C183 0.930 . S
H242 C184 0.930 . S
H243 C185 0.930 . S
H244 C187 0.930 . S
H245 C189 0.929 . S
H246 C190 0.930 . S
H247 C191 0.930 . S
H248 C194 0.930 . S
H249 C197 0.929 . S
H250 C202 0.929 . S
H251 C203 0.930 . S
H252 C210 0.929 . S
H253 C211 0.930 . S
H254 C212 0.930 1_556 S
H255 C213 0.930 1_556 S
H256 C215 0.929 . S
H257 C216 0.930 . S
H258 C217 0.930 . S
H259 C218 0.930 . S
H260 C222 0.929 . S
H261 C224 0.930 . S
H262 C230 0.929 . S
H263 C231 0.930 . S
Li264 N281 1.990 . S
Li264 O324 1.956 . S
Li264 O325 1.970 . S
Li264 O326 1.961 . S
Li265 N289 1.990 . S
Li265 O324 1.970 . S
Li265 O325 1.956 . S
Li265 O327 1.961 . S
Li266 N311 1.990 . S
Li266 O324 1.961 . S
Li266 O326 1.956 . S
Li266 O327 1.970 . S
Li267 N317 1.990 . S
Li267 O325 1.961 . S
Li267 O326 1.970 . S
Li267 O327 1.956 . S
C268 C270 1.348 . S
C268 C271 1.356 . S
C268 O324 1.325 . S
N269 C272 1.314 . S
N269 C273 1.279 . S
C270 C268 1.348 . S
C270 C272 1.353 . S
C270 H328 0.929 . S
C271 C268 1.356 . S
C271 C273 1.358 . S
C271 H329 0.930 . S
C272 N269 1.314 . S
C272 C270 1.353 . S
C272 H330 0.930 . S
C273 N269 1.279 . S
C273 C271 1.358 . S
C273 H331 0.930 . S
C274 C277 1.348 . S
C274 C278 1.356 . S
C274 O325 1.325 . S
C275 N276 1.279 . S
C275 C278 1.358 . S
C275 H332 0.930 . S
N276 C275 1.279 . S
N276 C279 1.314 . S
C277 C274 1.348 . S
C277 C279 1.353 . S
C277 H333 0.929 . S
C278 C274 1.356 . S
C278 C275 1.358 . S
C278 H334 0.930 . S
C279 N276 1.314 . S
C279 C277 1.353 . S
C279 H335 0.930 . S
C280 N281 1.314 . S
C280 C285 1.353 . S
C280 H286 0.930 . S
N281 Li264 1.990 . S
N281 C280 1.314 . S
N281 C283 1.279 . S
C282 C283 1.358 . S
C282 C284 1.356 . S
C282 H336 0.930 . S
C283 N281 1.279 . S
C283 C282 1.358 . S
C283 H287 0.930 . S
C284 C282 1.356 . S
C284 C285 1.348 . S
C285 C280 1.353 . S
C285 C284 1.348 . S
C285 H337 0.929 . S
H286 C280 0.930 . S
H287 C283 0.930 . S
C288 N289 1.314 . S
C288 C290 1.353 . S
C288 H294 0.930 . S
N289 Li265 1.990 . S
N289 C288 1.314 . S
N289 C292 1.279 . S
C290 C288 1.353 . S
C290 C293 1.348 . S
C290 H338 0.929 . S
C291 C292 1.358 . S
C291 C293 1.356 . S
C291 H339 0.930 . S
C292 N289 1.279 . S
C292 C291 1.358 . S
C292 H295 0.930 . S
C293 C290 1.348 . S
C293 C291 1.356 . S
H294 C288 0.930 . S
H295 C292 0.930 . S
C296 C298 1.348 . S
C296 C299 1.356 . S
C296 O326 1.325 . S
N297 C300 1.314 1_556 S
N297 C301 1.279 1_556 S
C298 C296 1.348 . S
C298 C300 1.353 . S
C298 H340 0.929 . S
C299 C296 1.356 . S
C299 C301 1.358 . S
C299 H341 0.930 . S
C300 N297 1.314 1_554 S
C300 C298 1.353 . S
C300 H342 0.930 1_554 S
C301 N297 1.279 1_554 S
C301 C299 1.358 . S
C301 H343 0.930 1_554 S
C302 C303 1.348 . S
C302 C304 1.356 . S
C302 O327 1.325 . S
C303 C302 1.348 . S
C303 C305 1.353 . S
C303 H344 0.929 . S
C304 C302 1.356 . S
C304 C306 1.358 . S
C304 H345 0.930 . S
C305 C303 1.353 . S
C305 N307 1.314 . S
C305 H346 0.930 . S
C306 C304 1.358 . S
C306 N307 1.279 . S
C306 H347 0.930 . S
N307 C305 1.314 . S
N307 C306 1.279 . S
C308 C310 1.353 . S
C308 N311 1.314 . S
C308 H314 0.930 . S
C309 N311 1.279 . S
C309 C312 1.358 . S
C309 H315 0.930 . S
C310 C308 1.353 . S
C310 C313 1.348 . S
C310 H348 0.929 . S
N311 Li266 1.990 . S
N311 C308 1.314 . S
N311 C309 1.279 . S
C312 C309 1.358 . S
C312 C313 1.356 . S
C312 H349 0.930 . S
C313 C310 1.348 . S
C313 C312 1.356 . S
H314 C308 0.930 . S
H315 C309 0.930 . S
C316 N317 1.314 . S
C316 C318 1.353 . S
C316 H322 0.930 . S
N317 Li267 1.990 . S
N317 C316 1.314 . S
N317 C320 1.279 . S
C318 C316 1.353 . S
C318 C321 1.348 . S
C318 H350 0.929 . S
C319 C320 1.358 . S
C319 C321 1.356 . S
C319 H351 0.930 . S
C320 N317 1.279 . S
C320 C319 1.358 . S
C320 H323 0.930 . S
C321 C318 1.348 . S
C321 C319 1.356 . S
H322 C316 0.930 . S
H323 C320 0.930 . S
O324 Li264 1.956 . S
O324 Li265 1.970 . S
O324 Li266 1.961 . S
O324 C268 1.325 . S
O325 Li264 1.970 . S
O325 Li265 1.956 . S
O325 Li267 1.961 . S
O325 C274 1.325 . S
O326 Li264 1.961 . S
O326 Li266 1.956 . S
O326 Li267 1.970 . S
O326 C296 1.325 . S
O327 Li265 1.961 . S
O327 Li266 1.970 . S
O327 Li267 1.956 . S
O327 C302 1.325 . S
H328 C270 0.929 . S
H329 C271 0.930 . S
H330 C272 0.930 . S
H331 C273 0.930 . S
H332 C275 0.930 . S
H333 C277 0.929 . S
H334 C278 0.930 . S
H335 C279 0.930 . S
H336 C282 0.930 . S
H337 C285 0.929 . S
H338 C290 0.929 . S
H339 C291 0.930 . S
H340 C298 0.929 . S
H341 C299 0.930 . S
H342 C300 0.930 1_556 S
H343 C301 0.930 1_556 S
H344 C303 0.929 . S
H345 C304 0.930 . S
H346 C305 0.930 . S
H347 C306 0.930 . S
H348 C310 0.929 . S
H349 C312 0.930 . S
H350 C318 0.929 . S
H351 C319 0.930 . S
Li352 N369 1.990 . S
Li352 O412 1.956 . S
Li352 O413 1.970 . S
Li352 O414 1.961 . S
Li353 N377 1.990 . S
Li353 O412 1.970 . S
Li353 O413 1.956 . S
Li353 O415 1.961 . S
Li354 N399 1.990 . S
Li354 O412 1.961 . S
Li354 O414 1.956 . S
Li354 O415 1.970 . S
Li355 N405 1.990 . S
Li355 O413 1.961 . S
Li355 O414 1.970 . S
Li355 O415 1.956 . S
C356 C358 1.348 . S
C356 C359 1.356 . S
C356 O412 1.325 . S
N357 C360 1.314 . S
N357 C361 1.279 . S
C358 C356 1.348 . S
C358 C360 1.353 . S
C358 H416 0.929 . S
C359 C356 1.356 . S
C359 C361 1.358 . S
C359 H417 0.930 . S
C360 N357 1.314 . S
C360 C358 1.353 . S
C360 H418 0.930 . S
C361 N357 1.279 . S
C361 C359 1.358 . S
C361 H419 0.930 . S
C362 C365 1.348 . S
C362 C366 1.356 . S
C362 O413 1.325 . S
C363 N364 1.279 . S
C363 C366 1.358 . S
C363 H420 0.930 . S
N364 C363 1.279 . S
N364 C367 1.314 . S
C365 C362 1.348 . S
C365 C367 1.353 . S
C365 H421 0.929 . S
C366 C362 1.356 . S
C366 C363 1.358 . S
C366 H422 0.930 . S
C367 N364 1.314 . S
C367 C365 1.353 . S
C367 H423 0.930 . S
C368 N369 1.314 . S
C368 C373 1.353 . S
C368 H374 0.930 . S
N369 Li352 1.990 . S
N369 C368 1.314 . S
N369 C371 1.279 . S
C370 C371 1.358 . S
C370 C372 1.356 . S
C370 H424 0.930 . S
C371 N369 1.279 . S
C371 C370 1.358 . S
C371 H375 0.930 . S
C372 C370 1.356 . S
C372 C373 1.348 . S
C373 C368 1.353 . S
C373 C372 1.348 . S
C373 H425 0.929 . S
H374 C368 0.930 . S
H375 C371 0.930 . S
C376 N377 1.314 . S
C376 C378 1.353 . S
C376 H382 0.930 . S
N377 Li353 1.990 . S
N377 C376 1.314 . S
N377 C380 1.279 . S
C378 C376 1.353 . S
C378 C381 1.348 . S
C378 H426 0.929 . S
C379 C380 1.358 . S
C379 C381 1.356 . S
C379 H427 0.930 . S
C380 N377 1.279 . S
C380 C379 1.358 . S
C380 H383 0.930 . S
C381 C378 1.348 . S
C381 C379 1.356 . S
H382 C376 0.930 . S
H383 C380 0.930 . S
C384 C386 1.348 . S
C384 C387 1.356 . S
C384 O414 1.325 . S
N385 C388 1.314 . S
N385 C389 1.279 . S
C386 C384 1.348 . S
C386 C388 1.353 . S
C386 H428 0.929 . S
C387 C384 1.356 . S
C387 C389 1.358 . S
C387 H429 0.930 . S
C388 N385 1.314 . S
C388 C386 1.353 . S
C388 H430 0.930 . S
C389 N385 1.279 . S
C389 C387 1.358 . S
C389 H431 0.930 . S
C390 C391 1.348 . S
C390 C392 1.356 . S
C390 O415 1.325 . S
C391 C390 1.348 . S
C391 C393 1.353 . S
C391 H432 0.929 . S
C392 C390 1.356 . S
C392 C394 1.358 . S
C392 H433 0.930 . S
C393 C391 1.353 . S
C393 N395 1.314 . S
C393 H434 0.930 . S
C394 C392 1.358 . S
C394 N395 1.279 . S
C394 H435 0.930 . S
N395 C393 1.314 . S
N395 C394 1.279 . S
C396 C398 1.353 . S
C396 N399 1.314 . S
C396 H402 0.930 . S
C397 N399 1.279 . S
C397 C400 1.358 . S
C397 H403 0.930 . S
C398 C396 1.353 . S
C398 C401 1.348 . S
C398 H436 0.929 . S
N399 Li354 1.990 . S
N399 C396 1.314 . S
N399 C397 1.279 . S
C400 C397 1.358 . S
C400 C401 1.356 . S
C400 H437 0.930 . S
C401 C398 1.348 . S
C401 C400 1.356 . S
H402 C396 0.930 . S
H403 C397 0.930 . S
C404 N405 1.314 . S
C404 C406 1.353 . S
C404 H410 0.930 . S
N405 Li355 1.990 . S
N405 C404 1.314 . S
N405 C408 1.279 . S
C406 C404 1.353 . S
C406 C409 1.348 . S
C406 H438 0.929 . S
C407 C408 1.358 . S
C407 C409 1.356 . S
C407 H439 0.930 . S
C408 N405 1.279 . S
C408 C407 1.358 . S
C408 H411 0.930 . S
C409 C406 1.348 . S
C409 C407 1.356 . S
H410 C404 0.930 . S
H411 C408 0.930 . S
O412 Li352 1.956 . S
O412 Li353 1.970 . S
O412 Li354 1.961 . S
O412 C356 1.325 . S
O413 Li352 1.970 . S
O413 Li353 1.956 . S
O413 Li355 1.961 . S
O413 C362 1.325 . S
O414 Li352 1.961 . S
O414 Li354 1.956 . S
O414 Li355 1.970 . S
O414 C384 1.325 . S
O415 Li353 1.961 . S
O415 Li354 1.970 . S
O415 Li355 1.956 . S
O415 C390 1.325 . S
H416 C358 0.929 . S
H417 C359 0.930 . S
H418 C360 0.930 . S
H419 C361 0.930 . S
H420 C363 0.930 . S
H421 C365 0.929 . S
H422 C366 0.930 . S
H423 C367 0.930 . S
H424 C370 0.930 . S
H425 C373 0.929 . S
H426 C378 0.929 . S
H427 C379 0.930 . S
H428 C386 0.929 . S
H429 C387 0.930 . S
H430 C388 0.930 . S
H431 C389 0.930 . S
H432 C391 0.929 . S
H433 C392 0.930 . S
H434 C393 0.930 . S
H435 C394 0.930 . S
H436 C398 0.929 . S
H437 C400 0.930 . S
H438 C406 0.929 . S
H439 C407 0.930 . S
Li440 N457 1.990 . S
Li440 O500 1.956 . S
Li440 O501 1.970 . S
Li440 O502 1.961 . S
Li441 N465 1.990 . S
Li441 O500 1.970 . S
Li441 O501 1.956 . S
Li441 O503 1.961 . S
Li442 N487 1.990 . S
Li442 O500 1.961 . S
Li442 O502 1.956 . S
Li442 O503 1.970 . S
Li443 N493 1.990 . S
Li443 O501 1.961 . S
Li443 O502 1.970 . S
Li443 O503 1.956 . S
C444 C446 1.348 . S
C444 C447 1.356 . S
C444 O500 1.325 . S
N445 C448 1.314 . S
N445 C449 1.279 . S
C446 C444 1.348 . S
C446 C448 1.353 . S
C446 H504 0.929 . S
C447 C444 1.356 . S
C447 C449 1.358 . S
C447 H505 0.930 . S
C448 N445 1.314 . S
C448 C446 1.353 . S
C448 H506 0.930 . S
C449 N445 1.279 . S
C449 C447 1.358 . S
C449 H507 0.930 . S
C450 C453 1.348 . S
C450 C454 1.356 . S
C450 O501 1.325 . S
C451 N452 1.279 . S
C451 C454 1.358 . S
C451 H508 0.930 . S
N452 C451 1.279 . S
N452 C455 1.314 . S
C453 C450 1.348 . S
C453 C455 1.353 . S
C453 H509 0.929 . S
C454 C450 1.356 . S
C454 C451 1.358 . S
C454 H510 0.930 . S
C455 N452 1.314 . S
C455 C453 1.353 . S
C455 H511 0.930 . S
C456 N457 1.314 . S
C456 C461 1.353 . S
C456 H462 0.930 . S
N457 Li440 1.990 . S
N457 C456 1.314 . S
N457 C459 1.279 . S
C458 C459 1.358 . S
C458 C460 1.356 . S
C458 H512 0.930 . S
C459 N457 1.279 . S
C459 C458 1.358 . S
C459 H463 0.930 . S
C460 C458 1.356 . S
C460 C461 1.348 . S
C461 C456 1.353 . S
C461 C460 1.348 . S
C461 H513 0.929 . S
H462 C456 0.930 . S
H463 C459 0.930 . S
C464 N465 1.314 . S
C464 C466 1.353 . S
C464 H470 0.930 . S
N465 Li441 1.990 . S
N465 C464 1.314 . S
N465 C468 1.279 . S
C466 C464 1.353 . S
C466 C469 1.348 . S
C466 H514 0.929 . S
C467 C468 1.358 . S
C467 C469 1.356 . S
C467 H515 0.930 . S
C468 N465 1.279 . S
C468 C467 1.358 . S
C468 H471 0.930 . S
C469 C466 1.348 . S
C469 C467 1.356 . S
H470 C464 0.930 . S
H471 C468 0.930 . S
C472 C474 1.348 . S
C472 C475 1.356 . S
C472 O502 1.325 . S
N473 C476 1.314 . S
N473 C477 1.279 . S
C474 C472 1.348 . S
C474 C476 1.353 . S
C474 H516 0.929 . S
C475 C472 1.356 . S
C475 C477 1.358 . S
C475 H517 0.930 . S
C476 N473 1.314 . S
C476 C474 1.353 . S
C476 H518 0.930 . S
C477 N473 1.279 . S
C477 C475 1.358 . S
C477 H519 0.930 . S
C478 C479 1.348 . S
C478 C480 1.356 . S
C478 O503 1.325 . S
C479 C478 1.348 . S
C479 C481 1.353 . S
C479 H520 0.929 . S
C480 C478 1.356 . S
C480 C482 1.358 . S
C480 H521 0.930 . S
C481 C479 1.353 . S
C481 N483 1.314 . S
C481 H522 0.930 . S
C482 C480 1.358 . S
C482 N483 1.279 . S
C482 H523 0.930 . S
N483 C481 1.314 . S
N483 C482 1.279 . S
C484 C486 1.353 . S
C484 N487 1.314 . S
C484 H490 0.930 . S
C485 N487 1.279 . S
C485 C488 1.358 . S
C485 H491 0.930 . S
C486 C484 1.353 . S
C486 C489 1.348 . S
C486 H524 0.929 . S
N487 Li442 1.990 . S
N487 C484 1.314 . S
N487 C485 1.279 . S
C488 C485 1.358 . S
C488 C489 1.356 . S
C488 H525 0.930 . S
C489 C486 1.348 . S
C489 C488 1.356 . S
H490 C484 0.930 . S
H491 C485 0.930 . S
C492 N493 1.314 . S
C492 C494 1.353 . S
C492 H498 0.930 . S
N493 Li443 1.990 . S
N493 C492 1.314 . S
N493 C496 1.279 . S
C494 C492 1.353 . S
C494 C497 1.348 . S
C494 H526 0.929 . S
C495 C496 1.358 . S
C495 C497 1.356 . S
C495 H527 0.930 . S
C496 N493 1.279 . S
C496 C495 1.358 . S
C496 H499 0.930 . S
C497 C494 1.348 . S
C497 C495 1.356 . S
H498 C492 0.930 . S
H499 C496 0.930 . S
O500 Li440 1.956 . S
O500 Li441 1.970 . S
O500 Li442 1.961 . S
O500 C444 1.325 . S
O501 Li440 1.970 . S
O501 Li441 1.956 . S
O501 Li443 1.961 . S
O501 C450 1.325 . S
O502 Li440 1.961 . S
O502 Li442 1.956 . S
O502 Li443 1.970 . S
O502 C472 1.325 . S
O503 Li441 1.961 . S
O503 Li442 1.970 . S
O503 Li443 1.956 . S
O503 C478 1.325 . S
H504 C446 0.929 . S
H505 C447 0.930 . S
H506 C448 0.930 . S
H507 C449 0.930 . S
H508 C451 0.930 . S
H509 C453 0.929 . S
H510 C454 0.930 . S
H511 C455 0.930 . S
H512 C458 0.930 . S
H513 C461 0.929 . S
H514 C466 0.929 . S
H515 C467 0.930 . S
H516 C474 0.929 . S
H517 C475 0.930 . S
H518 C476 0.930 . S
H519 C477 0.930 . S
H520 C479 0.929 . S
H521 C480 0.930 . S
H522 C481 0.930 . S
H523 C482 0.930 . S
H524 C486 0.929 . S
H525 C488 0.930 . S
H526 C494 0.929 . S
H527 C495 0.930 . S
Li528 N545 1.990 . S
Li528 O588 1.956 . S
Li528 O589 1.970 . S
Li528 O590 1.961 . S
Li529 N553 1.990 . S
Li529 O588 1.970 . S
Li529 O589 1.956 . S
Li529 O591 1.961 . S
Li530 N575 1.990 . S
Li530 O588 1.961 . S
Li530 O590 1.956 . S
Li530 O591 1.970 . S
Li531 N581 1.990 . S
Li531 O589 1.961 . S
Li531 O590 1.970 . S
Li531 O591 1.956 . S
C532 C534 1.348 . S
C532 C535 1.356 . S
C532 O588 1.325 . S
N533 C536 1.314 . S
N533 C537 1.279 . S
C534 C532 1.348 . S
C534 C536 1.353 . S
C534 H592 0.929 . S
C535 C532 1.356 . S
C535 C537 1.358 . S
C535 H593 0.930 . S
C536 N533 1.314 . S
C536 C534 1.353 . S
C536 H594 0.930 . S
C537 N533 1.279 . S
C537 C535 1.358 . S
C537 H595 0.930 . S
C538 C541 1.348 . S
C538 C542 1.356 . S
C538 O589 1.325 . S
C539 N540 1.279 . S
C539 C542 1.358 . S
C539 H596 0.930 . S
N540 C539 1.279 . S
N540 C543 1.314 . S
C541 C538 1.348 . S
C541 C543 1.353 . S
C541 H597 0.929 . S
C542 C538 1.356 . S
C542 C539 1.358 . S
C542 H598 0.930 . S
C543 N540 1.314 . S
C543 C541 1.353 . S
C543 H599 0.930 . S
C544 N545 1.314 . S
C544 C549 1.353 . S
C544 H550 0.930 . S
N545 Li528 1.990 . S
N545 C544 1.314 . S
N545 C547 1.279 . S
C546 C547 1.358 . S
C546 C548 1.356 . S
C546 H600 0.930 . S
C547 N545 1.279 . S
C547 C546 1.358 . S
C547 H551 0.930 . S
C548 C546 1.356 . S
C548 C549 1.348 . S
C549 C544 1.353 . S
C549 C548 1.348 . S
C549 H601 0.929 . S
H550 C544 0.930 . S
H551 C547 0.930 . S
C552 N553 1.314 . S
C552 C554 1.353 . S
C552 H558 0.930 . S
N553 Li529 1.990 . S
N553 C552 1.314 . S
N553 C556 1.279 . S
C554 C552 1.353 . S
C554 C557 1.348 . S
C554 H602 0.929 . S
C555 C556 1.358 . S
C555 C557 1.356 . S
C555 H603 0.930 . S
C556 N553 1.279 . S
C556 C555 1.358 . S
C556 H559 0.930 . S
C557 C554 1.348 . S
C557 C555 1.356 . S
H558 C552 0.930 . S
H559 C556 0.930 . S
C560 C562 1.348 . S
C560 C563 1.356 . S
C560 O590 1.325 . S
N561 C564 1.314 . S
N561 C565 1.279 . S
C562 C560 1.348 . S
C562 C564 1.353 . S
C562 H604 0.929 . S
C563 C560 1.356 . S
C563 C565 1.358 . S
C563 H605 0.930 . S
C564 N561 1.314 . S
C564 C562 1.353 . S
C564 H606 0.930 . S
C565 N561 1.279 . S
C565 C563 1.358 . S
C565 H607 0.930 . S
C566 C567 1.348 . S
C566 C568 1.356 . S
C566 O591 1.325 . S
C567 C566 1.348 . S
C567 C569 1.353 . S
C567 H608 0.929 . S
C568 C566 1.356 . S
C568 C570 1.358 . S
C568 H609 0.930 . S
C569 C567 1.353 . S
C569 N571 1.314 . S
C569 H610 0.930 . S
C570 C568 1.358 . S
C570 N571 1.279 . S
C570 H611 0.930 . S
N571 C569 1.314 . S
N571 C570 1.279 . S
C572 C574 1.353 . S
C572 N575 1.314 . S
C572 H578 0.930 . S
C573 N575 1.279 . S
C573 C576 1.358 . S
C573 H579 0.930 . S
C574 C572 1.353 . S
C574 C577 1.348 . S
C574 H612 0.929 . S
N575 Li530 1.990 . S
N575 C572 1.314 . S
N575 C573 1.279 . S
C576 C573 1.358 . S
C576 C577 1.356 . S
C576 H613 0.930 . S
C577 C574 1.348 . S
C577 C576 1.356 . S
H578 C572 0.930 . S
H579 C573 0.930 . S
C580 N581 1.314 . S
C580 C582 1.353 . S
C580 H586 0.930 . S
N581 Li531 1.990 . S
N581 C580 1.314 . S
N581 C584 1.279 . S
C582 C580 1.353 . S
C582 C585 1.348 . S
C582 H614 0.929 . S
C583 C584 1.358 . S
C583 C585 1.356 . S
C583 H615 0.930 . S
C584 N581 1.279 . S
C584 C583 1.358 . S
C584 H587 0.930 . S
C585 C582 1.348 . S
C585 C583 1.356 . S
H586 C580 0.930 . S
H587 C584 0.930 . S
O588 Li528 1.956 . S
O588 Li529 1.970 . S
O588 Li530 1.961 . S
O588 C532 1.325 . S
O589 Li528 1.970 . S
O589 Li529 1.956 . S
O589 Li531 1.961 . S
O589 C538 1.325 . S
O590 Li528 1.961 . S
O590 Li530 1.956 . S
O590 Li531 1.970 . S
O590 C560 1.325 . S
O591 Li529 1.961 . S
O591 Li530 1.970 . S
O591 Li531 1.956 . S
O591 C566 1.325 . S
H592 C534 0.929 . S
H593 C535 0.930 . S
H594 C536 0.930 . S
H595 C537 0.930 . S
H596 C539 0.930 . S
H597 C541 0.929 . S
H598 C542 0.930 . S
H599 C543 0.930 . S
H600 C546 0.930 . S
H601 C549 0.929 . S
H602 C554 0.929 . S
H603 C555 0.930 . S
H604 C562 0.929 . S
H605 C563 0.930 . S
H606 C564 0.930 . S
H607 C565 0.930 . S
H608 C567 0.929 . S
H609 C568 0.930 . S
H610 C569 0.930 . S
H611 C570 0.930 . S
H612 C574 0.929 . S
H613 C576 0.930 . S
H614 C582 0.929 . S
H615 C583 0.930 . S
Li616 N633 1.990 . S
Li616 O676 1.956 . S
Li616 O677 1.970 . S
Li616 O678 1.961 . S
Li617 N641 1.990 . S
Li617 O676 1.970 . S
Li617 O677 1.956 . S
Li617 O679 1.961 . S
Li618 N663 1.990 . S
Li618 O676 1.961 . S
Li618 O678 1.956 . S
Li618 O679 1.970 . S
Li619 N669 1.990 . S
Li619 O677 1.961 . S
Li619 O678 1.970 . S
Li619 O679 1.956 . S
C620 C622 1.348 . S
C620 C623 1.356 . S
C620 O676 1.325 . S
N621 C624 1.314 . S
N621 C625 1.279 . S
C622 C620 1.348 . S
C622 C624 1.353 . S
C622 H680 0.929 . S
C623 C620 1.356 . S
C623 C625 1.358 . S
C623 H681 0.930 . S
C624 N621 1.314 . S
C624 C622 1.353 . S
C624 H682 0.930 . S
C625 N621 1.279 . S
C625 C623 1.358 . S
C625 H683 0.930 . S
C626 C629 1.348 . S
C626 C630 1.356 . S
C626 O677 1.325 . S
C627 N628 1.279 . S
C627 C630 1.358 . S
C627 H684 0.930 . S
N628 C627 1.279 . S
N628 C631 1.314 . S
C629 C626 1.348 . S
C629 C631 1.353 . S
C629 H685 0.929 . S
C630 C626 1.356 . S
C630 C627 1.358 . S
C630 H686 0.930 . S
C631 N628 1.314 . S
C631 C629 1.353 . S
C631 H687 0.930 . S
C632 N633 1.314 . S
C632 C637 1.353 . S
C632 H638 0.930 . S
N633 Li616 1.990 . S
N633 C632 1.314 . S
N633 C635 1.279 . S
C634 C635 1.358 . S
C634 C636 1.356 . S
C634 H688 0.930 . S
C635 N633 1.279 . S
C635 C634 1.358 . S
C635 H639 0.930 . S
C636 C634 1.356 . S
C636 C637 1.348 . S
C637 C632 1.353 . S
C637 C636 1.348 . S
C637 H689 0.929 . S
H638 C632 0.930 . S
H639 C635 0.930 . S
C640 N641 1.314 . S
C640 C642 1.353 . S
C640 H646 0.930 . S
N641 Li617 1.990 . S
N641 C640 1.314 . S
N641 C644 1.279 . S
C642 C640 1.353 . S
C642 C645 1.348 . S
C642 H690 0.929 . S
C643 C644 1.358 . S
C643 C645 1.356 . S
C643 H691 0.930 . S
C644 N641 1.279 . S
C644 C643 1.358 . S
C644 H647 0.930 . S
C645 C642 1.348 . S
C645 C643 1.356 . S
H646 C640 0.930 . S
H647 C644 0.930 . S
C648 C650 1.348 . S
C648 C651 1.356 . S
C648 O678 1.325 . S
N649 C652 1.314 . S
N649 C653 1.279 . S
C650 C648 1.348 . S
C650 C652 1.353 . S
C650 H692 0.929 . S
C651 C648 1.356 . S
C651 C653 1.358 . S
C651 H693 0.930 . S
C652 N649 1.314 . S
C652 C650 1.353 . S
C652 H694 0.930 . S
C653 N649 1.279 . S
C653 C651 1.358 . S
C653 H695 0.930 . S
C654 C655 1.348 . S
C654 C656 1.356 . S
C654 O679 1.325 . S
C655 C654 1.348 . S
C655 C657 1.353 . S
C655 H696 0.929 . S
C656 C654 1.356 . S
C656 C658 1.358 . S
C656 H697 0.930 . S
C657 C655 1.353 . S
C657 N659 1.314 . S
C657 H698 0.930 . S
C658 C656 1.358 . S
C658 N659 1.279 . S
C658 H699 0.930 . S
N659 C657 1.314 . S
N659 C658 1.279 . S
C660 C662 1.353 . S
C660 N663 1.314 . S
C660 H666 0.930 . S
C661 N663 1.279 . S
C661 C664 1.358 . S
C661 H667 0.930 . S
C662 C660 1.353 . S
C662 C665 1.348 . S
C662 H700 0.929 . S
N663 Li618 1.990 . S
N663 C660 1.314 . S
N663 C661 1.279 . S
C664 C661 1.358 . S
C664 C665 1.356 . S
C664 H701 0.930 . S
C665 C662 1.348 . S
C665 C664 1.356 . S
H666 C660 0.930 . S
H667 C661 0.930 . S
C668 N669 1.314 . S
C668 C670 1.353 . S
C668 H674 0.930 . S
N669 Li619 1.990 . S
N669 C668 1.314 . S
N669 C672 1.279 . S
C670 C668 1.353 . S
C670 C673 1.348 . S
C670 H702 0.929 . S
C671 C672 1.358 . S
C671 C673 1.356 . S
C671 H703 0.930 . S
C672 N669 1.279 . S
C672 C671 1.358 . S
C672 H675 0.930 . S
C673 C670 1.348 . S
C673 C671 1.356 . S
H674 C668 0.930 . S
H675 C672 0.930 . S
O676 Li616 1.956 . S
O676 Li617 1.970 . S
O676 Li618 1.961 . S
O676 C620 1.325 . S
O677 Li616 1.970 . S
O677 Li617 1.956 . S
O677 Li619 1.961 . S
O677 C626 1.325 . S
O678 Li616 1.961 . S
O678 Li618 1.956 . S
O678 Li619 1.970 . S
O678 C648 1.325 . S
O679 Li617 1.961 . S
O679 Li618 1.970 . S
O679 Li619 1.956 . S
O679 C654 1.325 . S
H680 C622 0.929 . S
H681 C623 0.930 . S
H682 C624 0.930 . S
H683 C625 0.930 . S
H684 C627 0.930 . S
H685 C629 0.929 . S
H686 C630 0.930 . S
H687 C631 0.930 . S
H688 C634 0.930 . S
H689 C637 0.929 . S
H690 C642 0.929 . S
H691 C643 0.930 . S
H692 C650 0.929 . S
H693 C651 0.930 . S
H694 C652 0.930 . S
H695 C653 0.930 . S
H696 C655 0.929 . S
H697 C656 0.930 . S
H698 C657 0.930 . S
H699 C658 0.930 . S
H700 C662 0.929 . S
H701 C664 0.930 . S
H702 C670 0.929 . S
H703 C671 0.930 . S
Li704 N721 1.990 . S
Li704 O764 1.956 . S
Li704 O765 1.970 . S
Li704 O766 1.961 . S
Li705 N729 1.990 . S
Li705 O764 1.970 . S
Li705 O765 1.956 . S
Li705 O767 1.961 . S
Li706 N751 1.990 . S
Li706 O764 1.961 . S
Li706 O766 1.956 . S
Li706 O767 1.970 . S
Li707 N757 1.990 . S
Li707 O765 1.961 . S
Li707 O766 1.970 . S
Li707 O767 1.956 . S
C708 C710 1.348 . S
C708 C711 1.356 . S
C708 O764 1.325 . S
N709 C712 1.314 1_554 S
N709 C713 1.281 1_554 S
C710 C708 1.348 . S
C710 C712 1.353 . S
C710 H768 0.929 . S
C711 C708 1.356 . S
C711 C713 1.354 . S
C711 H769 0.930 . S
C712 N709 1.314 1_556 S
C712 C710 1.353 . S
C712 H770 0.930 . S
C713 N709 1.281 1_556 S
C713 C711 1.354 . S
C713 H771 0.933 1_556 S
C714 C717 1.348 . S
C714 C718 1.356 . S
C714 O765 1.325 . S
C715 N716 1.279 . S
C715 C718 1.358 . S
C715 H772 0.930 . S
N716 C715 1.279 . S
N716 C719 1.314 . S
C717 C714 1.348 . S
C717 C719 1.353 . S
C717 H773 0.929 . S
C718 C714 1.356 . S
C718 C715 1.358 . S
C718 H774 0.930 . S
C719 N716 1.314 . S
C719 C717 1.353 . S
C719 H775 0.930 . S
C720 N721 1.314 . S
C720 C725 1.353 . S
C720 H726 0.930 . S
N721 Li704 1.990 . S
N721 C720 1.314 . S
N721 C723 1.279 . S
C722 C723 1.358 . S
C722 C724 1.356 . S
C722 H776 0.930 . S
C723 N721 1.279 . S
C723 C722 1.358 . S
C723 H727 0.930 . S
C724 C722 1.356 . S
C724 C725 1.348 . S
C725 C720 1.353 . S
C725 C724 1.348 . S
C725 H777 0.929 . S
H726 C720 0.930 . S
H727 C723 0.930 . S
C728 N729 1.314 . S
C728 C730 1.353 . S
C728 H734 0.930 . S
N729 Li705 1.990 . S
N729 C728 1.314 . S
N729 C732 1.279 . S
C730 C728 1.353 . S
C730 C733 1.348 . S
C730 H778 0.929 . S
C731 C732 1.358 . S
C731 C733 1.356 . S
C731 H779 0.930 . S
C732 N729 1.279 . S
C732 C731 1.358 . S
C732 H735 0.930 . S
C733 C730 1.348 . S
C733 C731 1.356 . S
H734 C728 0.930 . S
H735 C732 0.930 . S
C736 C738 1.348 . S
C736 C739 1.356 . S
C736 O766 1.325 . S
N737 C740 1.314 . S
N737 C741 1.279 . S
C738 C736 1.348 . S
C738 C740 1.353 . S
C738 H780 0.929 . S
C739 C736 1.356 . S
C739 C741 1.358 . S
C739 H781 0.930 . S
C740 N737 1.314 . S
C740 C738 1.353 . S
C740 H782 0.930 . S
C741 N737 1.279 . S
C741 C739 1.358 . S
C741 H783 0.930 . S
C742 C743 1.348 . S
C742 C744 1.356 . S
C742 O767 1.325 . S
C743 C742 1.348 . S
C743 C745 1.353 . S
C743 H784 0.929 . S
C744 C742 1.356 . S
C744 C746 1.358 . S
C744 H785 0.930 . S
C745 C743 1.353 . S
C745 N747 1.314 . S
C745 H786 0.930 . S
C746 C744 1.358 . S
C746 N747 1.279 . S
C746 H787 0.930 . S
N747 C745 1.314 . S
N747 C746 1.279 . S
C748 C750 1.353 . S
C748 N751 1.314 . S
C748 H754 0.930 . S
C749 N751 1.279 . S
C749 C752 1.358 . S
C749 H755 0.930 . S
C750 C748 1.353 . S
C750 C753 1.348 . S
C750 H788 0.929 . S
N751 Li706 1.990 . S
N751 C748 1.314 . S
N751 C749 1.279 . S
C752 C749 1.358 . S
C752 C753 1.356 . S
C752 H789 0.930 . S
C753 C750 1.348 . S
C753 C752 1.356 . S
H754 C748 0.930 . S
H755 C749 0.930 . S
C756 N757 1.314 . S
C756 C758 1.353 . S
C756 H762 0.930 . S
N757 Li707 1.990 . S
N757 C756 1.314 . S
N757 C760 1.279 . S
C758 C756 1.353 . S
C758 C761 1.348 . S
C758 H790 0.929 . S
C759 C760 1.358 . S
C759 C761 1.356 . S
C759 H791 0.930 . S
C760 N757 1.279 . S
C760 C759 1.358 . S
C760 H763 0.930 . S
C761 C758 1.348 . S
C761 C759 1.356 . S
H762 C756 0.930 . S
H763 C760 0.930 . S
O764 Li704 1.956 . S
O764 Li705 1.970 . S
O764 Li706 1.961 . S
O764 C708 1.325 . S
O765 Li704 1.970 . S
O765 Li705 1.956 . S
O765 Li707 1.961 . S
O765 C714 1.325 . S
O766 Li704 1.961 . S
O766 Li706 1.956 . S
O766 Li707 1.970 . S
O766 C736 1.325 . S
O767 Li705 1.961 . S
O767 Li706 1.970 . S
O767 Li707 1.956 . S
O767 C742 1.325 . S
H768 C710 0.929 . S
H769 C711 0.930 . S
H770 C712 0.930 . S
H771 C713 0.933 1_554 S
H772 C715 0.930 . S
H773 C717 0.929 . S
H774 C718 0.930 . S
H775 C719 0.930 . S
H776 C722 0.930 . S
H777 C725 0.929 . S
H778 C730 0.929 . S
H779 C731 0.930 . S
H780 C738 0.929 . S
H781 C739 0.930 . S
H782 C740 0.930 . S
H783 C741 0.930 . S
H784 C743 0.929 . S
H785 C744 0.930 . S
H786 C745 0.930 . S
H787 C746 0.930 . S
H788 C750 0.929 . S
H789 C752 0.930 . S
H790 C758 0.929 . S
H791 C759 0.930 . S
Li792 N809 1.990 . S
Li792 O852 1.956 . S
Li792 O853 1.970 . S
Li792 O854 1.961 . S
Li793 N817 1.990 . S
Li793 O852 1.970 . S
Li793 O853 1.956 . S
Li793 O855 1.961 . S
Li794 N839 1.990 . S
Li794 O852 1.961 . S
Li794 O854 1.956 . S
Li794 O855 1.970 . S
Li795 N845 1.990 . S
Li795 O853 1.961 . S
Li795 O854 1.970 . S
Li795 O855 1.956 . S
C796 C798 1.348 . S
C796 C799 1.356 . S
C796 O852 1.325 . S
N797 C800 1.314 . S
N797 C801 1.279 . S
C798 C796 1.348 . S
C798 C800 1.353 . S
C798 H856 0.929 . S
C799 C796 1.356 . S
C799 C801 1.358 . S
C799 H857 0.930 . S
C800 N797 1.314 . S
C800 C798 1.353 . S
C800 H858 0.930 . S
C801 N797 1.279 . S
C801 C799 1.358 . S
C801 H859 0.930 . S
C802 C805 1.348 . S
C802 C806 1.356 . S
C802 O853 1.325 . S
C803 N804 1.281 1_556 S
C803 C806 1.354 . S
C803 H860 0.933 1_556 S
N804 C803 1.281 1_554 S
N804 C807 1.314 1_554 S
C805 C802 1.348 . S
C805 C807 1.353 . S
C805 H861 0.929 . S
C806 C802 1.356 . S
C806 C803 1.354 . S
C806 H862 0.930 . S
C807 N804 1.314 1_556 S
C807 C805 1.353 . S
C807 H863 0.930 . S
C808 N809 1.314 . S
C808 C813 1.353 . S
C808 H814 0.930 . S
N809 Li792 1.990 . S
N809 C808 1.314 . S
N809 C811 1.279 . S
C810 C811 1.358 . S
C810 C812 1.356 . S
C810 H864 0.930 . S
C811 N809 1.279 . S
C811 C810 1.358 . S
C811 H815 0.930 . S
C812 C810 1.356 . S
C812 C813 1.348 . S
C813 C808 1.353 . S
C813 C812 1.348 . S
C813 H865 0.929 . S
H814 C808 0.930 . S
H815 C811 0.930 . S
C816 N817 1.314 . S
C816 C818 1.353 . S
C816 H822 0.930 . S
N817 Li793 1.990 . S
N817 C816 1.314 . S
N817 C820 1.279 . S
C818 C816 1.353 . S
C818 C821 1.348 . S
C818 H866 0.929 . S
C819 C820 1.358 . S
C819 C821 1.356 . S
C819 H867 0.930 . S
C820 N817 1.279 . S
C820 C819 1.358 . S
C820 H823 0.930 . S
C821 C818 1.348 . S
C821 C819 1.356 . S
H822 C816 0.930 . S
H823 C820 0.930 . S
C824 C826 1.348 . S
C824 C827 1.356 . S
C824 O854 1.325 . S
N825 C828 1.314 . S
N825 C829 1.279 . S
C826 C824 1.348 . S
C826 C828 1.353 . S
C826 H868 0.929 . S
C827 C824 1.356 . S
C827 C829 1.358 . S
C827 H869 0.930 . S
C828 N825 1.314 . S
C828 C826 1.353 . S
C828 H870 0.930 . S
C829 N825 1.279 . S
C829 C827 1.358 . S
C829 H871 0.930 . S
C830 C831 1.348 . S
C830 C832 1.356 . S
C830 O855 1.325 . S
C831 C830 1.348 . S
C831 C833 1.353 . S
C831 H872 0.929 . S
C832 C830 1.356 . S
C832 C834 1.358 . S
C832 H873 0.930 . S
C833 C831 1.353 . S
C833 N835 1.314 . S
C833 H874 0.930 . S
C834 C832 1.358 . S
C834 N835 1.279 . S
C834 H875 0.930 . S
N835 C833 1.314 . S
N835 C834 1.279 . S
C836 C838 1.353 . S
C836 N839 1.314 . S
C836 H842 0.930 . S
C837 N839 1.279 . S
C837 C840 1.358 . S
C837 H843 0.930 . S
C838 C836 1.353 . S
C838 C841 1.348 . S
C838 H876 0.929 . S
N839 Li794 1.990 . S
N839 C836 1.314 . S
N839 C837 1.279 . S
C840 C837 1.358 . S
C840 C841 1.356 . S
C840 H877 0.930 . S
C841 C838 1.348 . S
C841 C840 1.356 . S
H842 C836 0.930 . S
H843 C837 0.930 . S
C844 N845 1.314 . S
C844 C846 1.353 . S
C844 H850 0.930 . S
N845 Li795 1.990 . S
N845 C844 1.314 . S
N845 C848 1.279 . S
C846 C844 1.353 . S
C846 C849 1.348 . S
C846 H878 0.929 . S
C847 C848 1.358 . S
C847 C849 1.356 . S
C847 H879 0.930 . S
C848 N845 1.279 . S
C848 C847 1.358 . S
C848 H851 0.930 . S
C849 C846 1.348 . S
C849 C847 1.356 . S
H850 C844 0.930 . S
H851 C848 0.930 . S
O852 Li792 1.956 . S
O852 Li793 1.970 . S
O852 Li794 1.961 . S
O852 C796 1.325 . S
O853 Li792 1.970 . S
O853 Li793 1.956 . S
O853 Li795 1.961 . S
O853 C802 1.325 . S
O854 Li792 1.961 . S
O854 Li794 1.956 . S
O854 Li795 1.970 . S
O854 C824 1.325 . S
O855 Li793 1.961 . S
O855 Li794 1.970 . S
O855 Li795 1.956 . S
O855 C830 1.325 . S
H856 C798 0.929 . S
H857 C799 0.930 . S
H858 C800 0.930 . S
H859 C801 0.930 . S
H860 C803 0.933 1_554 S
H861 C805 0.929 . S
H862 C806 0.930 . S
H863 C807 0.930 . S
H864 C810 0.930 . S
H865 C813 0.929 . S
H866 C818 0.929 . S
H867 C819 0.930 . S
H868 C826 0.929 . S
H869 C827 0.930 . S
H870 C828 0.930 . S
H871 C829 0.930 . S
H872 C831 0.929 . S
H873 C832 0.930 . S
H874 C833 0.930 . S
H875 C834 0.930 . S
H876 C838 0.929 . S
H877 C840 0.930 . S
H878 C846 0.929 . S
H879 C847 0.930 . S
Li880 N897 1.990 . S
Li880 O940 1.956 . S
Li880 O941 1.970 . S
Li880 O942 1.961 . S
Li881 N905 1.990 . S
Li881 O940 1.970 . S
Li881 O941 1.956 . S
Li881 O943 1.961 . S
Li882 N927 1.990 . S
Li882 O940 1.961 . S
Li882 O942 1.956 . S
Li882 O943 1.970 . S
Li883 N933 1.990 . S
Li883 O941 1.961 . S
Li883 O942 1.970 . S
Li883 O943 1.956 . S
C884 C886 1.348 . S
C884 C887 1.356 . S
C884 O940 1.325 . S
N885 C888 1.314 . S
N885 C889 1.279 . S
C886 C884 1.348 . S
C886 C888 1.353 . S
C886 H944 0.929 . S
C887 C884 1.356 . S
C887 C889 1.358 . S
C887 H945 0.930 . S
C888 N885 1.314 . S
C888 C886 1.353 . S
C888 H946 0.930 . S
C889 N885 1.279 . S
C889 C887 1.358 . S
C889 H947 0.930 . S
C890 C893 1.348 . S
C890 C894 1.356 . S
C890 O941 1.325 . S
C891 N892 1.279 . S
C891 C894 1.358 . S
C891 H948 0.930 . S
N892 C891 1.279 . S
N892 C895 1.314 . S
C893 C890 1.348 . S
C893 C895 1.353 . S
C893 H949 0.929 . S
C894 C890 1.356 . S
C894 C891 1.358 . S
C894 H950 0.930 . S
C895 N892 1.314 . S
C895 C893 1.353 . S
C895 H951 0.930 . S
C896 N897 1.314 . S
C896 C901 1.353 . S
C896 H902 0.930 . S
N897 Li880 1.990 . S
N897 C896 1.314 . S
N897 C899 1.279 . S
C898 C899 1.358 . S
C898 C900 1.356 . S
C898 H952 0.930 . S
C899 N897 1.279 . S
C899 C898 1.358 . S
C899 H903 0.930 . S
C900 C898 1.356 . S
C900 C901 1.348 . S
C901 C896 1.353 . S
C901 C900 1.348 . S
C901 H953 0.929 . S
H902 C896 0.930 . S
H903 C899 0.930 . S
C904 N905 1.314 . S
C904 C906 1.353 . S
C904 H910 0.930 . S
N905 Li881 1.990 . S
N905 C904 1.314 . S
N905 C908 1.279 . S
C906 C904 1.353 . S
C906 C909 1.348 . S
C906 H954 0.929 . S
C907 C908 1.358 . S
C907 C909 1.356 . S
C907 H955 0.930 . S
C908 N905 1.279 . S
C908 C907 1.358 . S
C908 H911 0.930 . S
C909 C906 1.348 . S
C909 C907 1.356 . S
H910 C904 0.930 . S
H911 C908 0.930 . S
C912 C914 1.348 . S
C912 C915 1.356 . S
C912 O942 1.325 . S
N913 C916 1.314 . S
N913 C917 1.279 . S
C914 C912 1.348 . S
C914 C916 1.353 . S
C914 H956 0.929 . S
C915 C912 1.356 . S
C915 C917 1.358 . S
C915 H957 0.930 . S
C916 N913 1.314 . S
C916 C914 1.353 . S
C916 H958 0.930 . S
C917 N913 1.279 . S
C917 C915 1.358 . S
C917 H959 0.930 . S
C918 C919 1.348 . S
C918 C920 1.356 . S
C918 O943 1.325 . S
C919 C918 1.348 . S
C919 C921 1.353 . S
C919 H960 0.929 . S
C920 C918 1.356 . S
C920 C922 1.354 . S
C920 H961 0.930 . S
C921 C919 1.353 . S
C921 N923 1.314 1_556 S
C921 H962 0.930 . S
C922 C920 1.354 . S
C922 N923 1.281 1_556 S
C922 H963 0.933 1_556 S
N923 C921 1.314 1_554 S
N923 C922 1.281 1_554 S
C924 C926 1.353 . S
C924 N927 1.314 . S
C924 H930 0.930 . S
C925 N927 1.279 . S
C925 C928 1.358 . S
C925 H931 0.930 . S
C926 C924 1.353 . S
C926 C929 1.348 . S
C926 H964 0.929 . S
N927 Li882 1.990 . S
N927 C924 1.314 . S
N927 C925 1.279 . S
C928 C925 1.358 . S
C928 C929 1.356 . S
C928 H965 0.930 . S
C929 C926 1.348 . S
C929 C928 1.356 . S
H930 C924 0.930 . S
H931 C925 0.930 . S
C932 N933 1.314 . S
C932 C934 1.353 . S
C932 H938 0.930 . S
N933 Li883 1.990 . S
N933 C932 1.314 . S
N933 C936 1.279 . S
C934 C932 1.353 . S
C934 C937 1.348 . S
C934 H966 0.929 . S
C935 C936 1.358 . S
C935 C937 1.356 . S
C935 H967 0.930 . S
C936 N933 1.279 . S
C936 C935 1.358 . S
C936 H939 0.930 . S
C937 C934 1.348 . S
C937 C935 1.356 . S
H938 C932 0.930 . S
H939 C936 0.930 . S
O940 Li880 1.956 . S
O940 Li881 1.970 . S
O940 Li882 1.961 . S
O940 C884 1.325 . S
O941 Li880 1.970 . S
O941 Li881 1.956 . S
O941 Li883 1.961 . S
O941 C890 1.325 . S
O942 Li880 1.961 . S
O942 Li882 1.956 . S
O942 Li883 1.970 . S
O942 C912 1.325 . S
O943 Li881 1.961 . S
O943 Li882 1.970 . S
O943 Li883 1.956 . S
O943 C918 1.325 . S
H944 C886 0.929 . S
H945 C887 0.930 . S
H946 C888 0.930 . S
H947 C889 0.930 . S
H948 C891 0.930 . S
H949 C893 0.929 . S
H950 C894 0.930 . S
H951 C895 0.930 . S
H952 C898 0.930 . S
H953 C901 0.929 . S
H954 C906 0.929 . S
H955 C907 0.930 . S
H956 C914 0.929 . S
H957 C915 0.930 . S
H958 C916 0.930 . S
H959 C917 0.930 . S
H960 C919 0.929 . S
H961 C920 0.930 . S
H962 C921 0.930 . S
H963 C922 0.933 1_554 S
H964 C926 0.929 . S
H965 C928 0.930 . S
H966 C934 0.929 . S
H967 C935 0.930 . S
Li968 N985 1.990 . S
Li968 O1028 1.956 . S
Li968 O1029 1.970 . S
Li968 O1030 1.961 . S
Li969 N993 1.990 . S
Li969 O1028 1.970 . S
Li969 O1029 1.956 . S
Li969 O1031 1.961 . S
Li970 N1015 1.990 . S
Li970 O1028 1.961 . S
Li970 O1030 1.956 . S
Li970 O1031 1.970 . S
Li971 N1021 1.990 . S
Li971 O1029 1.961 . S
Li971 O1030 1.970 . S
Li971 O1031 1.956 . S
C972 C974 1.348 . S
C972 C975 1.356 . S
C972 O1028 1.325 . S
N973 C976 1.314 . S
N973 C977 1.279 . S
C974 C972 1.348 . S
C974 C976 1.353 . S
C974 H1032 0.929 . S
C975 C972 1.356 . S
C975 C977 1.358 . S
C975 H1033 0.930 . S
C976 N973 1.314 . S
C976 C974 1.353 . S
C976 H1034 0.930 . S
C977 N973 1.279 . S
C977 C975 1.358 . S
C977 H1035 0.930 . S
C978 C981 1.348 . S
C978 C982 1.356 . S
C978 O1029 1.325 . S
C979 N980 1.281 1_556 S
C979 C982 1.354 . S
C979 H1036 0.933 1_556 S
N980 C979 1.281 1_554 S
N980 C983 1.314 1_554 S
C981 C978 1.348 . S
C981 C983 1.353 . S
C981 H1037 0.929 . S
C982 C978 1.356 . S
C982 C979 1.354 . S
C982 H1038 0.930 . S
C983 N980 1.314 1_556 S
C983 C981 1.353 . S
C983 H1039 0.930 . S
C984 N985 1.314 . S
C984 C989 1.353 . S
C984 H990 0.930 . S
N985 Li968 1.990 . S
N985 C984 1.314 . S
N985 C987 1.279 . S
C986 C987 1.358 . S
C986 C988 1.356 . S
C986 H1040 0.930 . S
C987 N985 1.279 . S
C987 C986 1.358 . S
C987 H991 0.930 . S
C988 C986 1.356 . S
C988 C989 1.348 . S
C989 C984 1.353 . S
C989 C988 1.348 . S
C989 H1041 0.929 . S
H990 C984 0.930 . S
H991 C987 0.930 . S
C992 N993 1.314 . S
C992 C994 1.353 . S
C992 H998 0.930 . S
N993 Li969 1.990 . S
N993 C992 1.314 . S
N993 C996 1.279 . S
C994 C992 1.353 . S
C994 C997 1.348 . S
C994 H1042 0.929 . S
C995 C996 1.358 . S
C995 C997 1.356 . S
C995 H1043 0.930 . S
C996 N993 1.279 . S
C996 C995 1.358 . S
C996 H999 0.930 . S
C997 C994 1.348 . S
C997 C995 1.356 . S
H998 C992 0.930 . S
H999 C996 0.930 . S
C1000 C1002 1.348 . S
C1000 C1003 1.356 . S
C1000 O1030 1.325 . S
N1001 C1004 1.314 . S
N1001 C1005 1.279 . S
C1002 C1000 1.348 . S
C1002 C1004 1.353 . S
C1002 H1044 0.929 . S
C1003 C1000 1.356 . S
C1003 C1005 1.358 . S
C1003 H1045 0.930 . S
C1004 N1001 1.314 . S
C1004 C1002 1.353 . S
C1004 H1046 0.930 . S
C1005 N1001 1.279 . S
C1005 C1003 1.358 . S
C1005 H1047 0.930 . S
C1006 C1007 1.348 . S
C1006 C1008 1.356 . S
C1006 O1031 1.325 . S
C1007 C1006 1.348 . S
C1007 C1009 1.353 . S
C1007 H1048 0.929 . S
C1008 C1006 1.356 . S
C1008 C1010 1.358 . S
C1008 H1049 0.930 . S
C1009 C1007 1.353 . S
C1009 N1011 1.314 . S
C1009 H1050 0.930 . S
C1010 C1008 1.358 . S
C1010 N1011 1.279 . S
C1010 H1051 0.930 . S
N1011 C1009 1.314 . S
N1011 C1010 1.279 . S
C1012 C1014 1.353 . S
C1012 N1015 1.314 . S
C1012 H1018 0.930 . S
C1013 N1015 1.279 . S
C1013 C1016 1.358 . S
C1013 H1019 0.930 . S
C1014 C1012 1.353 . S
C1014 C1017 1.348 . S
C1014 H1052 0.929 . S
N1015 Li970 1.990 . S
N1015 C1012 1.314 . S
N1015 C1013 1.279 . S
C1016 C1013 1.358 . S
C1016 C1017 1.356 . S
C1016 H1053 0.930 . S
C1017 C1014 1.348 . S
C1017 C1016 1.356 . S
H1018 C1012 0.930 . S
H1019 C1013 0.930 . S
C1020 N1021 1.314 . S
C1020 C1022 1.353 . S
C1020 H1026 0.930 . S
N1021 Li971 1.990 . S
N1021 C1020 1.314 . S
N1021 C1024 1.279 . S
C1022 C1020 1.353 . S
C1022 C1025 1.348 . S
C1022 H1054 0.929 . S
C1023 C1024 1.358 . S
C1023 C1025 1.356 . S
C1023 H1055 0.930 . S
C1024 N1021 1.279 . S
C1024 C1023 1.358 . S
C1024 H1027 0.930 . S
C1025 C1022 1.348 . S
C1025 C1023 1.356 . S
H1026 C1020 0.930 . S
H1027 C1024 0.930 . S
O1028 Li968 1.956 . S
O1028 Li969 1.970 . S
O1028 Li970 1.961 . S
O1028 C972 1.325 . S
O1029 Li968 1.970 . S
O1029 Li969 1.956 . S
O1029 Li971 1.961 . S
O1029 C978 1.325 . S
O1030 Li968 1.961 . S
O1030 Li970 1.956 . S
O1030 Li971 1.970 . S
O1030 C1000 1.325 . S
O1031 Li969 1.961 . S
O1031 Li970 1.970 . S
O1031 Li971 1.956 . S
O1031 C1006 1.325 . S
H1032 C974 0.929 . S
H1033 C975 0.930 . S
H1034 C976 0.930 . S
H1035 C977 0.930 . S
H1036 C979 0.933 1_554 S
H1037 C981 0.929 . S
H1038 C982 0.930 . S
H1039 C983 0.930 . S
H1040 C986 0.930 . S
H1041 C989 0.929 . S
H1042 C994 0.929 . S
H1043 C995 0.930 . S
H1044 C1002 0.929 . S
H1045 C1003 0.930 . S
H1046 C1004 0.930 . S
H1047 C1005 0.930 . S
H1048 C1007 0.929 . S
H1049 C1008 0.930 . S
H1050 C1009 0.930 . S
H1051 C1010 0.930 . S
H1052 C1014 0.929 . S
H1053 C1016 0.930 . S
H1054 C1022 0.929 . S
H1055 C1023 0.930 . S
Li1056 N1073 1.990 . S
Li1056 O1116 1.956 . S
Li1056 O1117 1.970 . S
Li1056 O1118 1.961 . S
Li1057 N1081 1.990 . S
Li1057 O1116 1.970 . S
Li1057 O1117 1.956 . S
Li1057 O1119 1.961 . S
Li1058 N1103 1.990 . S
Li1058 O1116 1.961 . S
Li1058 O1118 1.956 . S
Li1058 O1119 1.970 . S
Li1059 N1109 1.990 . S
Li1059 O1117 1.961 . S
Li1059 O1118 1.970 . S
Li1059 O1119 1.956 . S
C1060 C1062 1.348 . S
C1060 C1063 1.356 . S
C1060 O1116 1.325 . S
N1061 C1064 1.314 . S
N1061 C1065 1.279 . S
C1062 C1060 1.348 . S
C1062 C1064 1.353 . S
C1062 H1120 0.929 . S
C1063 C1060 1.356 . S
C1063 C1065 1.358 . S
C1063 H1121 0.930 . S
C1064 N1061 1.314 . S
C1064 C1062 1.353 . S
C1064 H1122 0.930 . S
C1065 N1061 1.279 . S
C1065 C1063 1.358 . S
C1065 H1123 0.930 . S
C1066 C1069 1.348 . S
C1066 C1070 1.356 . S
C1066 O1117 1.325 . S
C1067 N1068 1.279 . S
C1067 C1070 1.358 . S
C1067 H1124 0.930 . S
N1068 C1067 1.279 . S
N1068 C1071 1.314 . S
C1069 C1066 1.348 . S
C1069 C1071 1.353 . S
C1069 H1125 0.929 . S
C1070 C1066 1.356 . S
C1070 C1067 1.358 . S
C1070 H1126 0.930 . S
C1071 N1068 1.314 . S
C1071 C1069 1.353 . S
C1071 H1127 0.930 . S
C1072 N1073 1.314 . S
C1072 C1077 1.353 . S
C1072 H1078 0.930 . S
N1073 Li1056 1.990 . S
N1073 C1072 1.314 . S
N1073 C1075 1.279 . S
C1074 C1075 1.358 . S
C1074 C1076 1.356 . S
C1074 H1128 0.930 . S
C1075 N1073 1.279 . S
C1075 C1074 1.358 . S
C1075 H1079 0.930 . S
C1076 C1074 1.356 . S
C1076 C1077 1.348 . S
C1077 C1072 1.353 . S
C1077 C1076 1.348 . S
C1077 H1129 0.929 . S
H1078 C1072 0.930 . S
H1079 C1075 0.930 . S
C1080 N1081 1.314 . S
C1080 C1082 1.353 . S
C1080 H1086 0.930 . S
N1081 Li1057 1.990 . S
N1081 C1080 1.314 . S
N1081 C1084 1.279 . S
C1082 C1080 1.353 . S
C1082 C1085 1.348 . S
C1082 H1130 0.929 . S
C1083 C1084 1.358 . S
C1083 C1085 1.356 . S
C1083 H1131 0.930 . S
C1084 N1081 1.279 . S
C1084 C1083 1.358 . S
C1084 H1087 0.930 . S
C1085 C1082 1.348 . S
C1085 C1083 1.356 . S
H1086 C1080 0.930 . S
H1087 C1084 0.930 . S
C1088 C1090 1.348 . S
C1088 C1091 1.356 . S
C1088 O1118 1.325 . S
N1089 C1092 1.314 . S
N1089 C1093 1.279 . S
C1090 C1088 1.348 . S
C1090 C1092 1.353 . S
C1090 H1132 0.929 . S
C1091 C1088 1.356 . S
C1091 C1093 1.358 . S
C1091 H1133 0.930 . S
C1092 N1089 1.314 . S
C1092 C1090 1.353 . S
C1092 H1134 0.930 . S
C1093 N1089 1.279 . S
C1093 C1091 1.358 . S
C1093 H1135 0.930 . S
C1094 C1095 1.348 . S
C1094 C1096 1.356 . S
C1094 O1119 1.325 . S
C1095 C1094 1.348 . S
C1095 C1097 1.353 . S
C1095 H1136 0.929 . S
C1096 C1094 1.356 . S
C1096 C1098 1.358 . S
C1096 H1137 0.930 . S
C1097 C1095 1.353 . S
C1097 N1099 1.314 . S
C1097 H1138 0.930 . S
C1098 C1096 1.358 . S
C1098 N1099 1.279 . S
C1098 H1139 0.930 . S
N1099 C1097 1.314 . S
N1099 C1098 1.279 . S
C1100 C1102 1.353 . S
C1100 N1103 1.314 . S
C1100 H1106 0.930 . S
C1101 N1103 1.279 . S
C1101 C1104 1.358 . S
C1101 H1107 0.930 . S
C1102 C1100 1.353 . S
C1102 C1105 1.348 . S
C1102 H1140 0.929 . S
N1103 Li1058 1.990 . S
N1103 C1100 1.314 . S
N1103 C1101 1.279 . S
C1104 C1101 1.358 . S
C1104 C1105 1.356 . S
C1104 H1141 0.930 . S
C1105 C1102 1.348 . S
C1105 C1104 1.356 . S
H1106 C1100 0.930 . S
H1107 C1101 0.930 . S
C1108 N1109 1.314 . S
C1108 C1110 1.353 . S
C1108 H1114 0.930 . S
N1109 Li1059 1.990 . S
N1109 C1108 1.314 . S
N1109 C1112 1.279 . S
C1110 C1108 1.353 . S
C1110 C1113 1.348 . S
C1110 H1142 0.929 . S
C1111 C1112 1.358 . S
C1111 C1113 1.356 . S
C1111 H1143 0.930 . S
C1112 N1109 1.279 . S
C1112 C1111 1.358 . S
C1112 H1115 0.930 . S
C1113 C1110 1.348 . S
C1113 C1111 1.356 . S
H1114 C1108 0.930 . S
H1115 C1112 0.930 . S
O1116 Li1056 1.956 . S
O1116 Li1057 1.970 . S
O1116 Li1058 1.961 . S
O1116 C1060 1.325 . S
O1117 Li1056 1.970 . S
O1117 Li1057 1.956 . S
O1117 Li1059 1.961 . S
O1117 C1066 1.325 . S
O1118 Li1056 1.961 . S
O1118 Li1058 1.956 . S
O1118 Li1059 1.970 . S
O1118 C1088 1.325 . S
O1119 Li1057 1.961 . S
O1119 Li1058 1.970 . S
O1119 Li1059 1.956 . S
O1119 C1094 1.325 . S
H1120 C1062 0.929 . S
H1121 C1063 0.930 . S
H1122 C1064 0.930 . S
H1123 C1065 0.930 . S
H1124 C1067 0.930 . S
H1125 C1069 0.929 . S
H1126 C1070 0.930 . S
H1127 C1071 0.930 . S
H1128 C1074 0.930 . S
H1129 C1077 0.929 . S
H1130 C1082 0.929 . S
H1131 C1083 0.930 . S
H1132 C1090 0.929 . S
H1133 C1091 0.930 . S
H1134 C1092 0.930 . S
H1135 C1093 0.930 . S
H1136 C1095 0.929 . S
H1137 C1096 0.930 . S
H1138 C1097 0.930 . S
H1139 C1098 0.930 . S
H1140 C1102 0.929 . S
H1141 C1104 0.930 . S
H1142 C1110 0.929 . S
H1143 C1111 0.930 . S
Li1144 N1161 1.990 . S
Li1144 O1204 1.956 . S
Li1144 O1205 1.970 . S
Li1144 O1206 1.961 . S
Li1145 N1169 1.990 . S
Li1145 O1204 1.970 . S
Li1145 O1205 1.956 . S
Li1145 O1207 1.961 . S
Li1146 N1191 1.990 . S
Li1146 O1204 1.961 . S
Li1146 O1206 1.956 . S
Li1146 O1207 1.970 . S
Li1147 N1197 1.990 . S
Li1147 O1205 1.961 . S
Li1147 O1206 1.970 . S
Li1147 O1207 1.956 . S
C1148 C1150 1.348 . S
C1148 C1151 1.356 . S
C1148 O1204 1.325 . S
N1149 C1152 1.314 . S
N1149 C1153 1.279 . S
C1150 C1148 1.348 . S
C1150 C1152 1.353 . S
C1150 H1208 0.929 . S
C1151 C1148 1.356 . S
C1151 C1153 1.358 . S
C1151 H1209 0.930 . S
C1152 N1149 1.314 . S
C1152 C1150 1.353 . S
C1152 H1210 0.930 . S
C1153 N1149 1.279 . S
C1153 C1151 1.358 . S
C1153 H1211 0.930 . S
C1154 C1157 1.348 . S
C1154 C1158 1.356 . S
C1154 O1205 1.325 . S
C1155 N1156 1.279 . S
C1155 C1158 1.358 . S
C1155 H1212 0.930 . S
N1156 C1155 1.279 . S
N1156 C1159 1.314 . S
C1157 C1154 1.348 . S
C1157 C1159 1.353 . S
C1157 H1213 0.929 . S
C1158 C1154 1.356 . S
C1158 C1155 1.358 . S
C1158 H1214 0.930 . S
C1159 N1156 1.314 . S
C1159 C1157 1.353 . S
C1159 H1215 0.930 . S
C1160 N1161 1.314 . S
C1160 C1165 1.353 . S
C1160 H1166 0.930 . S
N1161 Li1144 1.990 . S
N1161 C1160 1.314 . S
N1161 C1163 1.279 . S
C1162 C1163 1.358 . S
C1162 C1164 1.356 . S
C1162 H1216 0.930 . S
C1163 N1161 1.279 . S
C1163 C1162 1.358 . S
C1163 H1167 0.930 . S
C1164 C1162 1.356 . S
C1164 C1165 1.348 . S
C1165 C1160 1.353 . S
C1165 C1164 1.348 . S
C1165 H1217 0.929 . S
H1166 C1160 0.930 . S
H1167 C1163 0.930 . S
C1168 N1169 1.314 . S
C1168 C1170 1.353 . S
C1168 H1174 0.930 . S
N1169 Li1145 1.990 . S
N1169 C1168 1.314 . S
N1169 C1172 1.279 . S
C1170 C1168 1.353 . S
C1170 C1173 1.348 . S
C1170 H1218 0.929 . S
C1171 C1172 1.358 . S
C1171 C1173 1.356 . S
C1171 H1219 0.930 . S
C1172 N1169 1.279 . S
C1172 C1171 1.358 . S
C1172 H1175 0.930 . S
C1173 C1170 1.348 . S
C1173 C1171 1.356 . S
H1174 C1168 0.930 . S
H1175 C1172 0.930 . S
C1176 C1178 1.348 . S
C1176 C1179 1.356 . S
C1176 O1206 1.325 . S
N1177 C1180 1.314 . S
N1177 C1181 1.279 . S
C1178 C1176 1.348 . S
C1178 C1180 1.353 . S
C1178 H1220 0.929 . S
C1179 C1176 1.356 . S
C1179 C1181 1.358 . S
C1179 H1221 0.930 . S
C1180 N1177 1.314 . S
C1180 C1178 1.353 . S
C1180 H1222 0.930 . S
C1181 N1177 1.279 . S
C1181 C1179 1.358 . S
C1181 H1223 0.930 . S
C1182 C1183 1.348 . S
C1182 C1184 1.356 . S
C1182 O1207 1.325 . S
C1183 C1182 1.348 . S
C1183 C1185 1.353 . S
C1183 H1224 0.929 . S
C1184 C1182 1.356 . S
C1184 C1186 1.358 . S
C1184 H1225 0.930 . S
C1185 C1183 1.353 . S
C1185 N1187 1.314 . S
C1185 H1226 0.930 . S
C1186 C1184 1.358 . S
C1186 N1187 1.279 . S
C1186 H1227 0.930 . S
N1187 C1185 1.314 . S
N1187 C1186 1.279 . S
C1188 C1190 1.353 . S
C1188 N1191 1.314 . S
C1188 H1194 0.930 . S
C1189 N1191 1.279 . S
C1189 C1192 1.358 . S
C1189 H1195 0.930 . S
C1190 C1188 1.353 . S
C1190 C1193 1.348 . S
C1190 H1228 0.929 . S
N1191 Li1146 1.990 . S
N1191 C1188 1.314 . S
N1191 C1189 1.279 . S
C1192 C1189 1.358 . S
C1192 C1193 1.356 . S
C1192 H1229 0.930 . S
C1193 C1190 1.348 . S
C1193 C1192 1.356 . S
H1194 C1188 0.930 . S
H1195 C1189 0.930 . S
C1196 N1197 1.314 . S
C1196 C1198 1.353 . S
C1196 H1202 0.930 . S
N1197 Li1147 1.990 . S
N1197 C1196 1.314 . S
N1197 C1200 1.279 . S
C1198 C1196 1.353 . S
C1198 C1201 1.348 . S
C1198 H1230 0.929 . S
C1199 C1200 1.358 . S
C1199 C1201 1.356 . S
C1199 H1231 0.930 . S
C1200 N1197 1.279 . S
C1200 C1199 1.358 . S
C1200 H1203 0.930 . S
C1201 C1198 1.348 . S
C1201 C1199 1.356 . S
H1202 C1196 0.930 . S
H1203 C1200 0.930 . S
O1204 Li1144 1.956 . S
O1204 Li1145 1.970 . S
O1204 Li1146 1.961 . S
O1204 C1148 1.325 . S
O1205 Li1144 1.970 . S
O1205 Li1145 1.956 . S
O1205 Li1147 1.961 . S
O1205 C1154 1.325 . S
O1206 Li1144 1.961 . S
O1206 Li1146 1.956 . S
O1206 Li1147 1.970 . S
O1206 C1176 1.325 . S
O1207 Li1145 1.961 . S
O1207 Li1146 1.970 . S
O1207 Li1147 1.956 . S
O1207 C1182 1.325 . S
H1208 C1150 0.929 . S
H1209 C1151 0.930 . S
H1210 C1152 0.930 . S
H1211 C1153 0.930 . S
H1212 C1155 0.930 . S
H1213 C1157 0.929 . S
H1214 C1158 0.930 . S
H1215 C1159 0.930 . S
H1216 C1162 0.930 . S
H1217 C1165 0.929 . S
H1218 C1170 0.929 . S
H1219 C1171 0.930 . S
H1220 C1178 0.929 . S
H1221 C1179 0.930 . S
H1222 C1180 0.930 . S
H1223 C1181 0.930 . S
H1224 C1183 0.929 . S
H1225 C1184 0.930 . S
H1226 C1185 0.930 . S
H1227 C1186 0.930 . S
H1228 C1190 0.929 . S
H1229 C1192 0.930 . S
H1230 C1198 0.929 . S
H1231 C1199 0.930 . S
Li1232 N1249 1.990 . S
Li1232 O1292 1.956 . S
Li1232 O1293 1.970 . S
Li1232 O1294 1.961 . S
Li1233 N1257 1.990 . S
Li1233 O1292 1.970 . S
Li1233 O1293 1.956 . S
Li1233 O1295 1.961 . S
Li1234 N1279 1.990 . S
Li1234 O1292 1.961 . S
Li1234 O1294 1.956 . S
Li1234 O1295 1.970 . S
Li1235 N1285 1.990 . S
Li1235 O1293 1.961 . S
Li1235 O1294 1.970 . S
Li1235 O1295 1.956 . S
C1236 C1238 1.348 . S
C1236 C1239 1.356 . S
C1236 O1292 1.325 . S
N1237 C1240 1.314 . S
N1237 C1241 1.279 . S
C1238 C1236 1.348 . S
C1238 C1240 1.353 . S
C1238 H1296 0.929 . S
C1239 C1236 1.356 . S
C1239 C1241 1.358 . S
C1239 H1297 0.930 . S
C1240 N1237 1.314 . S
C1240 C1238 1.353 . S
C1240 H1298 0.930 . S
C1241 N1237 1.279 . S
C1241 C1239 1.358 . S
C1241 H1299 0.930 . S
C1242 C1245 1.348 . S
C1242 C1246 1.356 . S
C1242 O1293 1.325 . S
C1243 N1244 1.279 . S
C1243 C1246 1.358 . S
C1243 H1300 0.930 . S
N1244 C1243 1.279 . S
N1244 C1247 1.314 . S
C1245 C1242 1.348 . S
C1245 C1247 1.353 . S
C1245 H1301 0.929 . S
C1246 C1242 1.356 . S
C1246 C1243 1.358 . S
C1246 H1302 0.930 . S
C1247 N1244 1.314 . S
C1247 C1245 1.353 . S
C1247 H1303 0.930 . S
C1248 N1249 1.314 . S
C1248 C1253 1.353 . S
C1248 H1254 0.930 . S
N1249 Li1232 1.990 . S
N1249 C1248 1.314 . S
N1249 C1251 1.279 . S
C1250 C1251 1.358 . S
C1250 C1252 1.356 . S
C1250 H1304 0.930 . S
C1251 N1249 1.279 . S
C1251 C1250 1.358 . S
C1251 H1255 0.930 . S
C1252 C1250 1.356 . S
C1252 C1253 1.348 . S
C1253 C1248 1.353 . S
C1253 C1252 1.348 . S
C1253 H1305 0.929 . S
H1254 C1248 0.930 . S
H1255 C1251 0.930 . S
C1256 N1257 1.314 . S
C1256 C1258 1.353 . S
C1256 H1262 0.930 . S
N1257 Li1233 1.990 . S
N1257 C1256 1.314 . S
N1257 C1260 1.279 . S
C1258 C1256 1.353 . S
C1258 C1261 1.348 . S
C1258 H1306 0.929 . S
C1259 C1260 1.358 . S
C1259 C1261 1.356 . S
C1259 H1307 0.930 . S
C1260 N1257 1.279 . S
C1260 C1259 1.358 . S
C1260 H1263 0.930 . S
C1261 C1258 1.348 . S
C1261 C1259 1.356 . S
H1262 C1256 0.930 . S
H1263 C1260 0.930 . S
C1264 C1266 1.348 . S
C1264 C1267 1.356 . S
C1264 O1294 1.325 . S
N1265 C1268 1.314 . S
N1265 C1269 1.279 . S
C1266 C1264 1.348 . S
C1266 C1268 1.353 . S
C1266 H1308 0.929 . S
C1267 C1264 1.356 . S
C1267 C1269 1.358 . S
C1267 H1309 0.930 . S
C1268 N1265 1.314 . S
C1268 C1266 1.353 . S
C1268 H1310 0.930 . S
C1269 N1265 1.279 . S
C1269 C1267 1.358 . S
C1269 H1311 0.930 . S
C1270 C1271 1.348 . S
C1270 C1272 1.356 . S
C1270 O1295 1.325 . S
C1271 C1270 1.348 . S
C1271 C1273 1.353 . S
C1271 H1312 0.929 . S
C1272 C1270 1.356 . S
C1272 C1274 1.358 . S
C1272 H1313 0.930 . S
C1273 C1271 1.353 . S
C1273 N1275 1.314 . S
C1273 H1314 0.930 . S
C1274 C1272 1.358 . S
C1274 N1275 1.279 . S
C1274 H1315 0.930 . S
N1275 C1273 1.314 . S
N1275 C1274 1.279 . S
C1276 C1278 1.353 . S
C1276 N1279 1.314 . S
C1276 H1282 0.930 . S
C1277 N1279 1.279 . S
C1277 C1280 1.358 . S
C1277 H1283 0.930 . S
C1278 C1276 1.353 . S
C1278 C1281 1.348 . S
C1278 H1316 0.929 . S
N1279 Li1234 1.990 . S
N1279 C1276 1.314 . S
N1279 C1277 1.279 . S
C1280 C1277 1.358 . S
C1280 C1281 1.356 . S
C1280 H1317 0.930 . S
C1281 C1278 1.348 . S
C1281 C1280 1.356 . S
H1282 C1276 0.930 . S
H1283 C1277 0.930 . S
C1284 N1285 1.314 . S
C1284 C1286 1.353 . S
C1284 H1290 0.930 . S
N1285 Li1235 1.990 . S
N1285 C1284 1.314 . S
N1285 C1288 1.279 . S
C1286 C1284 1.353 . S
C1286 C1289 1.348 . S
C1286 H1318 0.929 . S
C1287 C1288 1.358 . S
C1287 C1289 1.356 . S
C1287 H1319 0.930 . S
C1288 N1285 1.279 . S
C1288 C1287 1.358 . S
C1288 H1291 0.930 . S
C1289 C1286 1.348 . S
C1289 C1287 1.356 . S
H1290 C1284 0.930 . S
H1291 C1288 0.930 . S
O1292 Li1232 1.956 . S
O1292 Li1233 1.970 . S
O1292 Li1234 1.961 . S
O1292 C1236 1.325 . S
O1293 Li1232 1.970 . S
O1293 Li1233 1.956 . S
O1293 Li1235 1.961 . S
O1293 C1242 1.325 . S
O1294 Li1232 1.961 . S
O1294 Li1234 1.956 . S
O1294 Li1235 1.970 . S
O1294 C1264 1.325 . S
O1295 Li1233 1.961 . S
O1295 Li1234 1.970 . S
O1295 Li1235 1.956 . S
O1295 C1270 1.325 . S
H1296 C1238 0.929 . S
H1297 C1239 0.930 . S
H1298 C1240 0.930 . S
H1299 C1241 0.930 . S
H1300 C1243 0.930 . S
H1301 C1245 0.929 . S
H1302 C1246 0.930 . S
H1303 C1247 0.930 . S
H1304 C1250 0.930 . S
H1305 C1253 0.929 . S
H1306 C1258 0.929 . S
H1307 C1259 0.930 . S
H1308 C1266 0.929 . S
H1309 C1267 0.930 . S
H1310 C1268 0.930 . S
H1311 C1269 0.930 . S
H1312 C1271 0.929 . S
H1313 C1272 0.930 . S
H1314 C1273 0.930 . S
H1315 C1274 0.930 . S
H1316 C1278 0.929 . S
H1317 C1280 0.930 . S
H1318 C1286 0.929 . S
H1319 C1287 0.930 . S
Li1320 N1337 1.990 . S
Li1320 O1380 1.956 . S
Li1320 O1381 1.970 . S
Li1320 O1382 1.961 . S
Li1321 N1345 1.990 . S
Li1321 O1380 1.970 . S
Li1321 O1381 1.956 . S
Li1321 O1383 1.961 . S
Li1322 N1367 1.990 . S
Li1322 O1380 1.961 . S
Li1322 O1382 1.956 . S
Li1322 O1383 1.970 . S
Li1323 N1373 1.990 . S
Li1323 O1381 1.961 . S
Li1323 O1382 1.970 . S
Li1323 O1383 1.956 . S
C1324 C1326 1.348 . S
C1324 C1327 1.356 . S
C1324 O1380 1.325 . S
N1325 C1328 1.314 . S
N1325 C1329 1.279 . S
C1326 C1324 1.348 . S
C1326 C1328 1.353 . S
C1326 H1384 0.929 . S
C1327 C1324 1.356 . S
C1327 C1329 1.358 . S
C1327 H1385 0.930 . S
C1328 N1325 1.314 . S
C1328 C1326 1.353 . S
C1328 H1386 0.930 . S
C1329 N1325 1.279 . S
C1329 C1327 1.358 . S
C1329 H1387 0.930 . S
C1330 C1333 1.348 . S
C1330 C1334 1.356 . S
C1330 O1381 1.325 . S
C1331 N1332 1.279 . S
C1331 C1334 1.358 . S
C1331 H1388 0.930 . S
N1332 C1331 1.279 . S
N1332 C1335 1.314 . S
C1333 C1330 1.348 . S
C1333 C1335 1.353 . S
C1333 H1389 0.929 . S
C1334 C1330 1.356 . S
C1334 C1331 1.358 . S
C1334 H1390 0.930 . S
C1335 N1332 1.314 . S
C1335 C1333 1.353 . S
C1335 H1391 0.930 . S
C1336 N1337 1.314 . S
C1336 C1341 1.353 . S
C1336 H1342 0.930 . S
N1337 Li1320 1.990 . S
N1337 C1336 1.314 . S
N1337 C1339 1.279 . S
C1338 C1339 1.358 . S
C1338 C1340 1.356 . S
C1338 H1392 0.930 . S
C1339 N1337 1.279 . S
C1339 C1338 1.358 . S
C1339 H1343 0.930 . S
C1340 C1338 1.356 . S
C1340 C1341 1.348 . S
C1341 C1336 1.353 . S
C1341 C1340 1.348 . S
C1341 H1393 0.929 . S
H1342 C1336 0.930 . S
H1343 C1339 0.930 . S
C1344 N1345 1.314 . S
C1344 C1346 1.353 . S
C1344 H1350 0.930 . S
N1345 Li1321 1.990 . S
N1345 C1344 1.314 . S
N1345 C1348 1.279 . S
C1346 C1344 1.353 . S
C1346 C1349 1.348 . S
C1346 H1394 0.929 . S
C1347 C1348 1.358 . S
C1347 C1349 1.356 . S
C1347 H1395 0.930 . S
C1348 N1345 1.279 . S
C1348 C1347 1.358 . S
C1348 H1351 0.930 . S
C1349 C1346 1.348 . S
C1349 C1347 1.356 . S
H1350 C1344 0.930 . S
H1351 C1348 0.930 . S
C1352 C1354 1.348 . S
C1352 C1355 1.356 . S
C1352 O1382 1.325 . S
N1353 C1356 1.314 . S
N1353 C1357 1.279 . S
C1354 C1352 1.348 . S
C1354 C1356 1.353 . S
C1354 H1396 0.929 . S
C1355 C1352 1.356 . S
C1355 C1357 1.358 . S
C1355 H1397 0.930 . S
C1356 N1353 1.314 . S
C1356 C1354 1.353 . S
C1356 H1398 0.930 . S
C1357 N1353 1.279 . S
C1357 C1355 1.358 . S
C1357 H1399 0.930 . S
C1358 C1359 1.348 . S
C1358 C1360 1.356 . S
C1358 O1383 1.325 . S
C1359 C1358 1.348 . S
C1359 C1361 1.353 . S
C1359 H1400 0.929 . S
C1360 C1358 1.356 . S
C1360 C1362 1.358 . S
C1360 H1401 0.930 . S
C1361 C1359 1.353 . S
C1361 N1363 1.314 . S
C1361 H1402 0.930 . S
C1362 C1360 1.358 . S
C1362 N1363 1.279 . S
C1362 H1403 0.930 . S
N1363 C1361 1.314 . S
N1363 C1362 1.279 . S
C1364 C1366 1.353 . S
C1364 N1367 1.314 . S
C1364 H1370 0.930 . S
C1365 N1367 1.279 . S
C1365 C1368 1.358 . S
C1365 H1371 0.930 . S
C1366 C1364 1.353 . S
C1366 C1369 1.348 . S
C1366 H1404 0.929 . S
N1367 Li1322 1.990 . S
N1367 C1364 1.314 . S
N1367 C1365 1.279 . S
C1368 C1365 1.358 . S
C1368 C1369 1.356 . S
C1368 H1405 0.930 . S
C1369 C1366 1.348 . S
C1369 C1368 1.356 . S
H1370 C1364 0.930 . S
H1371 C1365 0.930 . S
C1372 N1373 1.314 . S
C1372 C1374 1.353 . S
C1372 H1378 0.930 . S
N1373 Li1323 1.990 . S
N1373 C1372 1.314 . S
N1373 C1376 1.279 . S
C1374 C1372 1.353 . S
C1374 C1377 1.348 . S
C1374 H1406 0.929 . S
C1375 C1376 1.358 . S
C1375 C1377 1.356 . S
C1375 H1407 0.930 . S
C1376 N1373 1.279 . S
C1376 C1375 1.358 . S
C1376 H1379 0.930 . S
C1377 C1374 1.348 . S
C1377 C1375 1.356 . S
H1378 C1372 0.930 . S
H1379 C1376 0.930 . S
O1380 Li1320 1.956 . S
O1380 Li1321 1.970 . S
O1380 Li1322 1.961 . S
O1380 C1324 1.325 . S
O1381 Li1320 1.970 . S
O1381 Li1321 1.956 . S
O1381 Li1323 1.961 . S
O1381 C1330 1.325 . S
O1382 Li1320 1.961 . S
O1382 Li1322 1.956 . S
O1382 Li1323 1.970 . S
O1382 C1352 1.325 . S
O1383 Li1321 1.961 . S
O1383 Li1322 1.970 . S
O1383 Li1323 1.956 . S
O1383 C1358 1.325 . S
H1384 C1326 0.929 . S
H1385 C1327 0.930 . S
H1386 C1328 0.930 . S
H1387 C1329 0.930 . S
H1388 C1331 0.930 . S
H1389 C1333 0.929 . S
H1390 C1334 0.930 . S
H1391 C1335 0.930 . S
H1392 C1338 0.930 . S
H1393 C1341 0.929 . S
H1394 C1346 0.929 . S
H1395 C1347 0.930 . S
H1396 C1354 0.929 . S
H1397 C1355 0.930 . S
H1398 C1356 0.930 . S
H1399 C1357 0.930 . S
H1400 C1359 0.929 . S
H1401 C1360 0.930 . S
H1402 C1361 0.930 . S
H1403 C1362 0.930 . S
H1404 C1366 0.929 . S
H1405 C1368 0.930 . S
H1406 C1374 0.929 . S
H1407 C1375 0.930 . S
C1408 C1409 1.349 . S
C1408 C1410 1.327 . S
C1408 H1433 0.950 . S
C1409 C1408 1.349 . S
C1409 C1425 1.349 . S
C1410 C1408 1.327 . S
C1410 C1429 1.429 . S
C1410 H1434 0.950 . S
C1411 C1428 1.574 . S
C1411 C1430 1.368 . S
C1411 H1435 0.949 . S
H1412 C1416 0.949 . S
C1413 C1414 1.349 . S
C1413 C1415 1.327 . S
C1413 H1436 0.950 . S
C1414 C1413 1.349 . S
C1414 C1426 1.349 . S
C1415 C1413 1.327 . S
C1415 C1431 1.429 . S
C1415 H1437 0.950 . S
C1416 H1412 0.949 . S
C1416 C1424 1.574 . S
C1416 C1432 1.368 . S
H1417 C1425 0.950 . S
H1418 C1423 0.950 1_556 S
H1419 C1424 0.973 . S
H1420 C1426 0.950 . S
H1421 C1427 0.950 . S
H1422 C1428 0.949 . S
C1423 H1418 0.950 1_554 S
C1423 C1425 1.327 . S
C1423 C1429 1.429 . S
C1424 C1416 1.574 . S
C1424 H1419 0.973 . S
C1424 C1430 1.368 . S
C1425 C1409 1.349 . S
C1425 H1417 0.950 . S
C1425 C1423 1.327 . S
C1426 C1414 1.349 . S
C1426 H1420 0.950 . S
C1426 C1427 1.327 . S
C1427 H1421 0.950 . S
C1427 C1426 1.327 . S
C1427 C1431 1.429 . S
C1428 C1411 1.574 . S
C1428 H1422 0.949 . S
C1428 C1432 1.368 . S
C1429 C1410 1.429 . S
C1429 C1423 1.429 . S
C1429 C1430 1.523 1_554 S
C1430 C1411 1.368 . S
C1430 C1424 1.368 . S
C1430 C1429 1.523 1_556 S
C1431 C1415 1.429 . S
C1431 C1427 1.429 . S
C1431 C1432 1.523 . S
C1432 C1416 1.368 . S
C1432 C1428 1.368 . S
C1432 C1431 1.523 . S
H1433 C1408 0.950 . S
H1434 C1410 0.950 . S
H1435 C1411 0.949 . S
H1436 C1413 0.950 . S
H1437 C1415 0.950 . S
C1438 C1439 1.349 . S
C1438 C1440 1.327 . S
C1438 H1463 0.950 . S
C1439 C1438 1.349 . S
C1439 C1455 1.349 . S
C1440 C1438 1.327 . S
C1440 C1459 1.429 . S
C1440 H1464 0.950 . S
C1441 C1458 1.586 . S
C1441 C1460 1.368 . S
C1441 H1465 0.949 . S
H1442 C1446 0.949 . S
C1443 C1444 1.349 . S
C1443 C1445 1.327 . S
C1443 H1466 0.950 . S
C1444 C1443 1.349 . S
C1444 C1456 1.349 . S
C1445 C1443 1.327 . S
C1445 C1461 1.429 . S
C1445 H1467 0.950 . S
C1446 H1442 0.949 . S
C1446 C1454 1.574 . S
C1446 C1462 1.368 . S
H1447 C1455 0.950 . S
H1448 C1453 0.950 . S
H1449 C1454 0.949 . S
H1450 C1456 0.950 . S
H1451 C1457 0.950 . S
H1452 C1458 0.929 1_554 S
C1453 H1448 0.950 . S
C1453 C1455 1.327 . S
C1453 C1459 1.429 . S
C1454 C1446 1.574 . S
C1454 H1449 0.949 . S
C1454 C1460 1.368 . S
C1455 C1439 1.349 . S
C1455 H1447 0.950 . S
C1455 C1453 1.327 . S
C1456 C1444 1.349 . S
C1456 H1450 0.950 . S
C1456 C1457 1.327 1_554 S
C1457 H1451 0.950 . S
C1457 C1456 1.327 1_556 S
C1457 C1461 1.429 1_556 S
C1458 C1441 1.586 . S
C1458 H1452 0.929 1_556 S
C1458 C1462 1.378 . S
C1459 C1440 1.429 . S
C1459 C1453 1.429 . S
C1459 C1460 1.523 . S
C1460 C1441 1.368 . S
C1460 C1454 1.368 . S
C1460 C1459 1.523 . S
C1461 C1445 1.429 . S
C1461 C1457 1.429 1_554 S
C1461 C1462 1.523 1_554 S
C1462 C1446 1.368 . S
C1462 C1458 1.378 . S
C1462 C1461 1.523 1_556 S
H1463 C1438 0.950 . S
H1464 C1440 0.950 . S
H1465 C1441 0.949 . S
H1466 C1443 0.950 . S
H1467 C1445 0.950 . S
C1468 C1469 1.349 . S
C1468 C1470 1.327 . S
C1468 H1493 0.950 . S
C1469 C1468 1.349 . S
C1469 C1485 1.349 . S
C1470 C1468 1.327 . S
C1470 C1489 1.429 . S
C1470 H1494 0.950 . S
C1471 C1488 1.574 . S
C1471 C1490 1.368 . S
C1471 H1495 0.949 . S
H1472 C1476 0.949 1_554 S
C1473 C1474 1.349 . S
C1473 C1475 1.324 . S
C1473 H1496 0.950 . S
C1474 C1473 1.349 . S
C1474 C1486 1.349 . S
C1475 C1473 1.324 . S
C1475 C1491 1.428 . S
C1475 H1497 0.953 1_554 S
C1476 H1472 0.949 1_556 S
C1476 C1484 1.574 . S
C1476 C1492 1.368 . S
H1477 C1485 0.950 . S
H1478 C1483 0.950 . S
H1479 C1484 0.949 . S
H1480 C1486 0.950 . S
H1481 C1487 0.950 . S
H1482 C1488 0.949 . S
C1483 H1478 0.950 . S
C1483 C1485 1.327 . S
C1483 C1489 1.429 . S
C1484 C1476 1.574 . S
C1484 H1479 0.949 . S
C1484 C1490 1.368 . S
C1485 C1469 1.349 . S
C1485 H1477 0.950 . S
C1485 C1483 1.327 . S
C1486 C1474 1.349 . S
C1486 H1480 0.950 . S
C1486 C1487 1.327 . S
C1487 H1481 0.950 . S
C1487 C1486 1.327 . S
C1487 C1491 1.429 . S
C1488 C1471 1.574 . S
C1488 H1482 0.949 . S
C1488 C1492 1.368 . S
C1489 C1470 1.429 . S
C1489 C1483 1.429 . S
C1489 C1490 1.523 . S
C1490 C1471 1.368 . S
C1490 C1484 1.368 . S
C1490 C1489 1.523 . S
C1491 C1475 1.428 . S
C1491 C1487 1.429 . S
C1491 C1492 1.523 1_554 S
C1492 C1476 1.368 . S
C1492 C1488 1.368 . S
C1492 C1491 1.523 1_556 S
H1493 C1468 0.950 . S
H1494 C1470 0.950 . S
H1495 C1471 0.949 . S
H1496 C1473 0.950 . S
H1497 C1475 0.953 1_556 S
C1498 C1499 1.349 . S
C1498 C1500 1.327 . S
C1498 H1523 0.950 . S
C1499 C1498 1.349 . S
C1499 C1515 1.349 . S
C1500 C1498 1.327 . S
C1500 C1519 1.429 . S
C1500 H1524 0.950 . S
C1501 C1518 1.574 . S
C1501 C1520 1.368 . S
C1501 H1525 0.949 . S
H1502 C1506 0.948 . S
C1503 C1504 1.349 . S
C1503 C1505 1.327 1_554 S
C1503 H1526 0.950 . S
C1504 C1503 1.349 . S
C1504 C1516 1.349 . S
C1505 C1503 1.327 1_556 S
C1505 C1521 1.429 1_556 S
C1505 H1527 0.950 . S
C1506 H1502 0.948 . S
C1506 C1514 1.574 1_554 S
C1506 C1522 1.369 1_554 S
H1507 C1515 0.950 . S
H1508 C1513 0.950 . S
H1509 C1514 0.949 . S
H1510 C1516 0.950 . S
H1511 C1517 0.950 . S
H1512 C1518 0.949 . S
C1513 H1508 0.950 . S
C1513 C1515 1.327 . S
C1513 C1519 1.429 . S
C1514 C1506 1.574 1_556 S
C1514 H1509 0.949 . S
C1514 C1520 1.368 . S
C1515 C1499 1.349 . S
C1515 H1507 0.950 . S
C1515 C1513 1.327 . S
C1516 C1504 1.349 . S
C1516 H1510 0.950 . S
C1516 C1517 1.327 . S
C1517 H1511 0.950 . S
C1517 C1516 1.327 . S
C1517 C1521 1.429 . S
C1518 C1501 1.574 . S
C1518 H1512 0.949 . S
C1518 C1522 1.368 . S
C1519 C1500 1.429 . S
C1519 C1513 1.429 . S
C1519 C1520 1.523 . S
C1520 C1501 1.368 . S
C1520 C1514 1.368 . S
C1520 C1519 1.523 . S
C1521 C1505 1.429 1_554 S
C1521 C1517 1.429 . S
C1521 C1522 1.523 1_554 S
C1522 C1506 1.369 1_556 S
C1522 C1518 1.368 . S
C1522 C1521 1.523 1_556 S
H1523 C1498 0.950 . S
H1524 C1500 0.950 . S
H1525 C1501 0.949 . S
H1526 C1503 0.950 . S
H1527 C1505 0.950 . S
C1528 C1529 1.349 . S
C1528 C1530 1.327 . S
C1528 H1553 0.950 . S
C1529 C1528 1.349 . S
C1529 C1545 1.349 . S
C1530 C1528 1.327 . S
C1530 C1549 1.429 . S
C1530 H1554 0.950 . S
C1531 C1548 1.574 . S
C1531 C1550 1.368 . S
C1531 H1555 0.949 . S
H1532 C1536 0.949 . S
C1533 C1534 1.349 . S
C1533 C1535 1.327 . S
C1533 H1556 0.950 . S
C1534 C1533 1.349 . S
C1534 C1546 1.349 . S
C1535 C1533 1.327 . S
C1535 C1551 1.429 . S
C1535 H1557 0.950 . S
C1536 H1532 0.949 . S
C1536 C1544 1.574 . S
C1536 C1552 1.368 . S
H1537 C1545 0.950 . S
H1538 C1543 0.950 . S
H1539 C1544 0.949 . S
H1540 C1546 0.950 . S
H1541 C1547 0.950 . S
H1542 C1548 0.949 . S
C1543 H1538 0.950 . S
C1543 C1545 1.327 . S
C1543 C1549 1.429 . S
C1544 C1536 1.574 . S
C1544 H1539 0.949 . S
C1544 C1550 1.368 . S
C1545 C1529 1.349 . S
C1545 H1537 0.950 . S
C1545 C1543 1.327 . S
C1546 C1534 1.349 . S
C1546 H1540 0.950 . S
C1546 C1547 1.327 . S
C1547 H1541 0.950 . S
C1547 C1546 1.327 . S
C1547 C1551 1.429 . S
C1548 C1531 1.574 . S
C1548 H1542 0.949 . S
C1548 C1552 1.368 . S
C1549 C1530 1.429 . S
C1549 C1543 1.429 . S
C1549 C1550 1.523 . S
C1550 C1531 1.368 . S
C1550 C1544 1.368 . S
C1550 C1549 1.523 . S
C1551 C1535 1.429 . S
C1551 C1547 1.429 . S
C1551 C1552 1.523 . S
C1552 C1536 1.368 . S
C1552 C1548 1.368 . S
C1552 C1551 1.523 . S
H1553 C1528 0.950 . S
H1554 C1530 0.950 . S
H1555 C1531 0.949 . S
H1556 C1533 0.950 . S
H1557 C1535 0.950 . S
C1558 C1559 1.349 . S
C1558 C1560 1.327 . S
C1558 H1583 0.950 . S
C1559 C1558 1.349 . S
C1559 C1575 1.349 . S
C1560 C1558 1.327 . S
C1560 C1579 1.429 . S
C1560 H1584 0.950 . S
C1561 C1578 1.574 . S
C1561 C1580 1.368 . S
C1561 H1585 0.949 . S
H1562 C1566 0.949 . S
C1563 C1564 1.349 . S
C1563 C1565 1.327 . S
C1563 H1586 0.950 . S
C1564 C1563 1.349 . S
C1564 C1576 1.349 . S
C1565 C1563 1.327 . S
C1565 C1581 1.429 . S
C1565 H1587 0.950 . S
C1566 H1562 0.949 . S
C1566 C1574 1.574 . S
C1566 C1582 1.368 . S
H1567 C1575 0.950 . S
H1568 C1573 0.950 . S
H1569 C1574 0.949 . S
H1570 C1576 0.950 . S
H1571 C1577 0.950 . S
H1572 C1578 0.949 . S
C1573 H1568 0.950 . S
C1573 C1575 1.327 . S
C1573 C1579 1.429 . S
C1574 C1566 1.574 . S
C1574 H1569 0.949 . S
C1574 C1580 1.368 . S
C1575 C1559 1.349 . S
C1575 H1567 0.950 . S
C1575 C1573 1.327 . S
C1576 C1564 1.349 . S
C1576 H1570 0.950 . S
C1576 C1577 1.327 . S
C1577 H1571 0.950 . S
C1577 C1576 1.327 . S
C1577 C1581 1.429 . S
C1578 C1561 1.574 . S
C1578 H1572 0.949 . S
C1578 C1582 1.368 . S
C1579 C1560 1.429 . S
C1579 C1573 1.429 . S
C1579 C1580 1.523 . S
C1580 C1561 1.368 . S
C1580 C1574 1.368 . S
C1580 C1579 1.523 . S
C1581 C1565 1.429 . S
C1581 C1577 1.429 . S
C1581 C1582 1.523 . S
C1582 C1566 1.368 . S
C1582 C1578 1.368 . S
C1582 C1581 1.523 . S
H1583 C1558 0.950 . S
H1584 C1560 0.950 . S
H1585 C1561 0.949 . S
H1586 C1563 0.950 . S
H1587 C1565 0.950 . S
C1588 C1589 1.349 . S
C1588 C1590 1.327 . S
C1588 H1613 0.950 . S
C1589 C1588 1.349 . S
C1589 C1605 1.349 . S
C1590 C1588 1.327 . S
C1590 C1609 1.429 . S
C1590 H1614 0.950 . S
C1591 C1608 1.574 . S
C1591 C1610 1.368 . S
C1591 H1615 0.949 . S
H1592 C1596 0.949 . S
C1593 C1594 1.349 . S
C1593 C1595 1.327 . S
C1593 H1616 0.950 . S
C1594 C1593 1.349 . S
C1594 C1606 1.349 . S
C1595 C1593 1.327 . S
C1595 C1611 1.429 . S
C1595 H1617 0.950 . S
C1596 H1592 0.949 . S
C1596 C1604 1.574 . S
C1596 C1612 1.368 . S
H1597 C1605 0.950 . S
H1598 C1603 0.950 . S
H1599 C1604 0.949 . S
H1600 C1606 0.950 . S
H1601 C1607 0.950 . S
H1602 C1608 0.949 . S
C1603 H1598 0.950 . S
C1603 C1605 1.327 . S
C1603 C1609 1.429 . S
C1604 C1596 1.574 . S
C1604 H1599 0.949 . S
C1604 C1610 1.368 . S
C1605 C1589 1.349 . S
C1605 H1597 0.950 . S
C1605 C1603 1.327 . S
C1606 C1594 1.349 . S
C1606 H1600 0.950 . S
C1606 C1607 1.327 . S
C1607 H1601 0.950 . S
C1607 C1606 1.327 . S
C1607 C1611 1.429 . S
C1608 C1591 1.574 . S
C1608 H1602 0.949 . S
C1608 C1612 1.368 . S
C1609 C1590 1.429 . S
C1609 C1603 1.429 . S
C1609 C1610 1.523 . S
C1610 C1591 1.368 . S
C1610 C1604 1.368 . S
C1610 C1609 1.523 . S
C1611 C1595 1.429 . S
C1611 C1607 1.429 . S
C1611 C1612 1.523 . S
C1612 C1596 1.368 . S
C1612 C1608 1.368 . S
C1612 C1611 1.523 . S
H1613 C1588 0.950 . S
H1614 C1590 0.950 . S
H1615 C1591 0.949 . S
H1616 C1593 0.950 . S
H1617 C1595 0.950 . S
C1618 C1619 1.349 . S
C1618 C1620 1.327 . S
C1618 H1643 0.950 . S
C1619 C1618 1.349 . S
C1619 C1635 1.349 . S
C1620 C1618 1.327 . S
C1620 C1639 1.429 . S
C1620 H1644 0.950 . S
C1621 C1638 1.574 . S
C1621 C1640 1.368 . S
C1621 H1645 0.949 . S
H1622 C1626 0.949 . S
C1623 C1624 1.349 . S
C1623 C1625 1.327 . S
C1623 H1646 0.950 . S
C1624 C1623 1.349 . S
C1624 C1636 1.349 . S
C1625 C1623 1.327 . S
C1625 C1641 1.429 . S
C1625 H1647 0.950 . S
C1626 H1622 0.949 . S
C1626 C1634 1.574 . S
C1626 C1642 1.368 . S
H1627 C1635 0.950 . S
H1628 C1633 0.950 . S
H1629 C1634 0.949 . S
H1630 C1636 0.950 . S
H1631 C1637 0.950 . S
H1632 C1638 0.949 . S
C1633 H1628 0.950 . S
C1633 C1635 1.327 . S
C1633 C1639 1.429 . S
C1634 C1626 1.574 . S
C1634 H1629 0.949 . S
C1634 C1640 1.368 . S
C1635 C1619 1.349 . S
C1635 H1627 0.950 . S
C1635 C1633 1.327 . S
C1636 C1624 1.349 . S
C1636 H1630 0.950 . S
C1636 C1637 1.327 . S
C1637 H1631 0.950 . S
C1637 C1636 1.327 . S
C1637 C1641 1.429 . S
C1638 C1621 1.574 . S
C1638 H1632 0.949 . S
C1638 C1642 1.368 . S
C1639 C1620 1.429 . S
C1639 C1633 1.429 . S
C1639 C1640 1.523 . S
C1640 C1621 1.368 . S
C1640 C1634 1.368 . S
C1640 C1639 1.523 . S
C1641 C1625 1.429 . S
C1641 C1637 1.429 . S
C1641 C1642 1.523 . S
C1642 C1626 1.368 . S
C1642 C1638 1.368 . S
C1642 C1641 1.523 . S
H1643 C1618 0.950 . S
H1644 C1620 0.950 . S
H1645 C1621 0.949 . S
H1646 C1623 0.950 . S
H1647 C1625 0.950 . S
C1648 C1649 1.349 . S
C1648 C1650 1.327 . S
C1648 H1673 0.950 . S
C1649 C1648 1.349 . S
C1649 C1665 1.349 . S
C1650 C1648 1.327 . S
C1650 C1669 1.429 . S
C1650 H1674 0.950 1_556 S
C1651 C1668 1.574 . S
C1651 C1670 1.368 . S
C1651 H1675 0.949 1_554 S
H1652 C1656 0.949 . S
C1653 C1654 1.349 . S
C1653 C1655 1.327 . S
C1653 H1676 0.950 . S
C1654 C1653 1.349 . S
C1654 C1666 1.349 . S
C1655 C1653 1.327 . S
C1655 C1671 1.429 . S
C1655 H1677 0.950 . S
C1656 H1652 0.949 . S
C1656 C1664 1.574 . S
C1656 C1672 1.368 . S
H1657 C1665 0.950 . S
H1658 C1663 0.950 . S
H1659 C1664 0.949 . S
H1660 C1666 0.950 . S
H1661 C1667 0.950 . S
H1662 C1668 0.949 . S
C1663 H1658 0.950 . S
C1663 C1665 1.327 . S
C1663 C1669 1.429 . S
C1664 C1656 1.574 . S
C1664 H1659 0.949 . S
C1664 C1670 1.368 . S
C1665 C1649 1.349 . S
C1665 H1657 0.950 . S
C1665 C1663 1.327 . S
C1666 C1654 1.349 . S
C1666 H1660 0.950 . S
C1666 C1667 1.327 . S
C1667 H1661 0.950 . S
C1667 C1666 1.327 . S
C1667 C1671 1.429 . S
C1668 C1651 1.574 . S
C1668 H1662 0.949 . S
C1668 C1672 1.368 . S
C1669 C1650 1.429 . S
C1669 C1663 1.429 . S
C1669 C1670 1.523 1_556 S
C1670 C1651 1.368 . S
C1670 C1664 1.368 . S
C1670 C1669 1.523 1_554 S
C1671 C1655 1.429 . S
C1671 C1667 1.429 . S
C1671 C1672 1.523 . S
C1672 C1656 1.368 . S
C1672 C1668 1.368 . S
C1672 C1671 1.523 . S
H1673 C1648 0.950 . S
H1674 C1650 0.950 1_554 S
H1675 C1651 0.949 1_556 S
H1676 C1653 0.950 . S
H1677 C1655 0.950 . S
C1678 C1679 1.349 . S
C1678 C1680 1.327 1_556 S
C1678 H1703 0.950 . S
C1679 C1678 1.349 . S
C1679 C1695 1.349 . S
C1680 C1678 1.327 1_554 S
C1680 C1699 1.429 1_554 S
C1680 H1704 0.950 . S
C1681 C1698 1.563 1_556 S
C1681 C1700 1.359 1_556 S
C1681 H1705 0.967 . S
H1682 C1686 0.949 . S
C1683 C1684 1.349 . S
C1683 C1685 1.327 . S
C1683 H1706 0.950 . S
C1684 C1683 1.349 . S
C1684 C1696 1.349 . S
C1685 C1683 1.327 . S
C1685 C1701 1.429 . S
C1685 H1707 0.950 . S
C1686 H1682 0.949 . S
C1686 C1694 1.574 . S
C1686 C1702 1.368 . S
H1687 C1695 0.950 . S
H1688 C1693 0.950 . S
H1689 C1694 0.949 . S
H1690 C1696 0.950 . S
H1691 C1697 0.950 . S
H1692 C1698 0.949 . S
C1693 H1688 0.950 . S
C1693 C1695 1.327 . S
C1693 C1699 1.429 . S
C1694 C1686 1.574 . S
C1694 H1689 0.949 . S
C1694 C1700 1.368 . S
C1695 C1679 1.349 . S
C1695 H1687 0.950 . S
C1695 C1693 1.327 . S
C1696 C1684 1.349 . S
C1696 H1690 0.950 . S
C1696 C1697 1.327 . S
C1697 H1691 0.950 . S
C1697 C1696 1.327 . S
C1697 C1701 1.429 . S
C1698 C1681 1.563 1_554 S
C1698 H1692 0.949 . S
C1698 C1702 1.368 . S
C1699 C1680 1.429 1_556 S
C1699 C1693 1.429 . S
C1699 C1700 1.523 1_556 S
C1700 C1681 1.359 1_554 S
C1700 C1694 1.368 . S
C1700 C1699 1.523 1_554 S
C1701 C1685 1.429 . S
C1701 C1697 1.429 . S
C1701 C1702 1.523 . S
C1702 C1686 1.368 . S
C1702 C1698 1.368 . S
C1702 C1701 1.523 . S
H1703 C1678 0.950 . S
H1704 C1680 0.950 . S
H1705 C1681 0.967 . S
H1706 C1683 0.950 . S
H1707 C1685 0.950 . S
C1708 C1709 1.349 . S
C1708 C1710 1.327 . S
C1708 H1733 0.950 . S
C1709 C1708 1.349 . S
C1709 C1725 1.349 . S
C1710 C1708 1.327 . S
C1710 C1729 1.429 . S
C1710 H1734 0.950 . S
C1711 C1728 1.574 . S
C1711 C1730 1.368 . S
C1711 H1735 0.949 . S
H1712 C1716 0.949 . S
C1713 C1714 1.349 . S
C1713 C1715 1.327 . S
C1713 H1736 0.950 . S
C1714 C1713 1.349 . S
C1714 C1726 1.349 . S
C1715 C1713 1.327 . S
C1715 C1731 1.429 . S
C1715 H1737 0.950 . S
C1716 H1712 0.949 . S
C1716 C1724 1.574 . S
C1716 C1732 1.368 . S
H1717 C1725 0.950 . S
H1718 C1723 0.950 1_554 S
H1719 C1724 0.949 1_556 S
H1720 C1726 0.950 . S
H1721 C1727 0.950 . S
H1722 C1728 0.949 . S
C1723 H1718 0.950 1_556 S
C1723 C1725 1.327 . S
C1723 C1729 1.429 . S
C1724 C1716 1.574 . S
C1724 H1719 0.949 1_554 S
C1724 C1730 1.368 . S
C1725 C1709 1.349 . S
C1725 H1717 0.950 . S
C1725 C1723 1.327 . S
C1726 C1714 1.349 . S
C1726 H1720 0.950 . S
C1726 C1727 1.327 . S
C1727 H1721 0.950 . S
C1727 C1726 1.327 . S
C1727 C1731 1.429 . S
C1728 C1711 1.574 . S
C1728 H1722 0.949 . S
C1728 C1732 1.368 . S
C1729 C1710 1.429 . S
C1729 C1723 1.429 . S
C1729 C1730 1.523 1_556 S
C1730 C1711 1.368 . S
C1730 C1724 1.368 . S
C1730 C1729 1.523 1_554 S
C1731 C1715 1.429 . S
C1731 C1727 1.429 . S
C1731 C1732 1.523 . S
C1732 C1716 1.368 . S
C1732 C1728 1.368 . S
C1732 C1731 1.523 . S
H1733 C1708 0.950 . S
H1734 C1710 0.950 . S
H1735 C1711 0.949 . S
H1736 C1713 0.950 . S
H1737 C1715 0.950 . S
C1738 C1739 1.349 . S
C1738 C1740 1.327 . S
C1738 H1763 0.950 . S
C1739 C1738 1.349 . S
C1739 C1755 1.349 . S
C1740 C1738 1.327 . S
C1740 C1759 1.429 . S
C1740 H1764 0.950 . S
C1741 C1758 1.574 . S
C1741 C1760 1.368 . S
C1741 H1765 0.949 . S
H1742 C1746 0.949 . S
C1743 C1744 1.349 . S
C1743 C1745 1.327 . S
C1743 H1766 0.950 . S
C1744 C1743 1.349 . S
C1744 C1756 1.349 . S
C1745 C1743 1.327 . S
C1745 C1761 1.429 . S
C1745 H1767 0.950 . S
C1746 H1742 0.949 . S
C1746 C1754 1.574 . S
C1746 C1762 1.368 . S
H1747 C1755 0.950 . S
H1748 C1753 0.950 . S
H1749 C1754 0.949 . S
H1750 C1756 0.950 . S
H1751 C1757 0.950 . S
H1752 C1758 0.949 . S
C1753 H1748 0.950 . S
C1753 C1755 1.327 . S
C1753 C1759 1.429 . S
C1754 C1746 1.574 . S
C1754 H1749 0.949 . S
C1754 C1760 1.368 . S
C1755 C1739 1.349 . S
C1755 H1747 0.950 . S
C1755 C1753 1.327 . S
C1756 C1744 1.349 . S
C1756 H1750 0.950 . S
C1756 C1757 1.327 . S
C1757 H1751 0.950 . S
C1757 C1756 1.327 . S
C1757 C1761 1.429 . S
C1758 C1741 1.574 . S
C1758 H1752 0.949 . S
C1758 C1762 1.368 . S
C1759 C1740 1.429 . S
C1759 C1753 1.429 . S
C1759 C1760 1.523 . S
C1760 C1741 1.368 . S
C1760 C1754 1.368 . S
C1760 C1759 1.523 . S
C1761 C1745 1.429 . S
C1761 C1757 1.429 . S
C1761 C1762 1.523 1_556 S
C1762 C1746 1.368 . S
C1762 C1758 1.368 . S
C1762 C1761 1.523 1_554 S
H1763 C1738 0.950 . S
H1764 C1740 0.950 . S
H1765 C1741 0.949 . S
H1766 C1743 0.950 . S
H1767 C1745 0.950 . S
C1768 C1769 1.349 . S
C1768 C1770 1.327 . S
C1768 H1793 0.950 . S
C1769 C1768 1.349 . S
C1769 C1785 1.349 . S
C1770 C1768 1.327 . S
C1770 C1789 1.429 . S
C1770 H1794 0.950 . S
C1771 C1788 1.574 . S
C1771 C1790 1.368 . S
C1771 H1795 0.949 . S
H1772 C1776 0.949 . S
C1773 C1774 1.349 . S
C1773 C1775 1.327 . S
C1773 H1796 0.950 . S
C1774 C1773 1.349 . S
C1774 C1786 1.349 . S
C1775 C1773 1.327 . S
C1775 C1791 1.429 . S
C1775 H1797 0.950 . S
C1776 H1772 0.949 . S
C1776 C1784 1.574 . S
C1776 C1792 1.368 . S
H1777 C1785 0.950 . S
H1778 C1783 0.950 . S
H1779 C1784 0.949 . S
H1780 C1786 0.950 . S
H1781 C1787 0.950 . S
H1782 C1788 0.949 . S
C1783 H1778 0.950 . S
C1783 C1785 1.327 . S
C1783 C1789 1.429 . S
C1784 C1776 1.574 . S
C1784 H1779 0.949 . S
C1784 C1790 1.368 . S
C1785 C1769 1.349 . S
C1785 H1777 0.950 . S
C1785 C1783 1.327 . S
C1786 C1774 1.349 . S
C1786 H1780 0.950 . S
C1786 C1787 1.327 . S
C1787 H1781 0.950 . S
C1787 C1786 1.327 . S
C1787 C1791 1.429 . S
C1788 C1771 1.574 . S
C1788 H1782 0.949 . S
C1788 C1792 1.368 . S
C1789 C1770 1.429 . S
C1789 C1783 1.429 . S
C1789 C1790 1.523 . S
C1790 C1771 1.368 . S
C1790 C1784 1.368 . S
C1790 C1789 1.523 . S
C1791 C1775 1.429 . S
C1791 C1787 1.429 . S
C1791 C1792 1.523 . S
C1792 C1776 1.368 . S
C1792 C1788 1.368 . S
C1792 C1791 1.523 . S
H1793 C1768 0.950 . S
H1794 C1770 0.950 . S
H1795 C1771 0.949 . S
H1796 C1773 0.950 . S
H1797 C1775 0.950 . S
C1798 C1799 1.349 . S
C1798 C1800 1.327 . S
C1798 H1823 0.950 . S
C1799 C1798 1.349 . S
C1799 C1815 1.349 . S
C1800 C1798 1.327 . S
C1800 C1819 1.429 . S
C1800 H1824 0.950 . S
C1801 C1818 1.574 . S
C1801 C1820 1.368 . S
C1801 H1825 0.949 . S
H1802 C1806 0.949 . S
C1803 C1804 1.349 . S
C1803 C1805 1.327 . S
C1803 H1826 0.950 . S
C1804 C1803 1.349 . S
C1804 C1816 1.349 . S
C1805 C1803 1.327 . S
C1805 C1821 1.429 . S
C1805 H1827 0.950 . S
C1806 H1802 0.949 . S
C1806 C1814 1.574 . S
C1806 C1822 1.368 . S
H1807 C1815 0.950 . S
H1808 C1813 0.950 . S
H1809 C1814 0.949 . S
H1810 C1816 0.950 . S
H1811 C1817 0.950 . S
H1812 C1818 0.949 . S
C1813 H1808 0.950 . S
C1813 C1815 1.327 . S
C1813 C1819 1.429 . S
C1814 C1806 1.574 . S
C1814 H1809 0.949 . S
C1814 C1820 1.368 . S
C1815 C1799 1.349 . S
C1815 H1807 0.950 . S
C1815 C1813 1.327 . S
C1816 C1804 1.349 . S
C1816 H1810 0.950 . S
C1816 C1817 1.327 . S
C1817 H1811 0.950 . S
C1817 C1816 1.327 . S
C1817 C1821 1.429 . S
C1818 C1801 1.574 . S
C1818 H1812 0.949 . S
C1818 C1822 1.368 . S
C1819 C1800 1.429 . S
C1819 C1813 1.429 . S
C1819 C1820 1.523 . S
C1820 C1801 1.368 . S
C1820 C1814 1.368 . S
C1820 C1819 1.523 . S
C1821 C1805 1.429 . S
C1821 C1817 1.429 . S
C1821 C1822 1.523 . S
C1822 C1806 1.368 . S
C1822 C1818 1.368 . S
C1822 C1821 1.523 . S
H1823 C1798 0.950 . S
H1824 C1800 0.950 . S
H1825 C1801 0.949 . S
H1826 C1803 0.950 . S
H1827 C1805 0.950 . S
C1828 C1829 1.349 . S
C1828 C1830 1.327 . S
C1828 H1853 0.950 . S
C1829 C1828 1.349 . S
C1829 C1845 1.349 . S
C1830 C1828 1.327 . S
C1830 C1849 1.429 . S
C1830 H1854 0.950 . S
C1831 C1848 1.574 . S
C1831 C1850 1.368 . S
C1831 H1855 0.949 . S
H1832 C1836 0.949 . S
C1833 C1834 1.349 . S
C1833 C1835 1.327 . S
C1833 H1856 0.950 . S
C1834 C1833 1.349 . S
C1834 C1846 1.349 . S
C1835 C1833 1.327 . S
C1835 C1851 1.429 . S
C1835 H1857 0.950 . S
C1836 H1832 0.949 . S
C1836 C1844 1.574 . S
C1836 C1852 1.368 . S
H1837 C1845 0.950 . S
H1838 C1843 0.950 . S
H1839 C1844 0.949 . S
H1840 C1846 0.950 . S
H1841 C1847 0.950 . S
H1842 C1848 0.949 . S
C1843 H1838 0.950 . S
C1843 C1845 1.327 . S
C1843 C1849 1.429 . S
C1844 C1836 1.574 . S
C1844 H1839 0.949 . S
C1844 C1850 1.368 . S
C1845 C1829 1.349 . S
C1845 H1837 0.950 . S
C1845 C1843 1.327 . S
C1846 C1834 1.349 . S
C1846 H1840 0.950 . S
C1846 C1847 1.327 . S
C1847 H1841 0.950 . S
C1847 C1846 1.327 . S
C1847 C1851 1.429 . S
C1848 C1831 1.574 . S
C1848 H1842 0.949 . S
C1848 C1852 1.368 . S
C1849 C1830 1.429 . S
C1849 C1843 1.429 . S
C1849 C1850 1.523 . S
C1850 C1831 1.368 . S
C1850 C1844 1.368 . S
C1850 C1849 1.523 . S
C1851 C1835 1.429 . S
C1851 C1847 1.429 . S
C1851 C1852 1.523 . S
C1852 C1836 1.368 . S
C1852 C1848 1.368 . S
C1852 C1851 1.523 . S
H1853 C1828 0.950 . S
H1854 C1830 0.950 . S
H1855 C1831 0.949 . S
H1856 C1833 0.950 . S
H1857 C1835 0.950 . S
C1858 C1859 1.349 . S
C1858 C1860 1.327 . S
C1858 H1883 0.950 . S
C1859 C1858 1.349 . S
C1859 C1875 1.349 . S
C1860 C1858 1.327 . S
C1860 C1879 1.429 . S
C1860 H1884 0.950 . S
C1861 C1878 1.574 . S
C1861 C1880 1.368 . S
C1861 H1885 0.949 . S
H1862 C1866 0.949 . S
C1863 C1864 1.349 . S
C1863 C1865 1.327 . S
C1863 H1886 0.950 . S
C1864 C1863 1.349 . S
C1864 C1876 1.349 . S
C1865 C1863 1.327 . S
C1865 C1881 1.429 . S
C1865 H1887 0.950 . S
C1866 H1862 0.949 . S
C1866 C1874 1.574 . S
C1866 C1882 1.368 . S
H1867 C1875 0.950 . S
H1868 C1873 0.950 . S
H1869 C1874 0.949 . S
H1870 C1876 0.950 . S
H1871 C1877 0.950 . S
H1872 C1878 0.949 . S
C1873 H1868 0.950 . S
C1873 C1875 1.327 . S
C1873 C1879 1.429 . S
C1874 C1866 1.574 . S
C1874 H1869 0.949 . S
C1874 C1880 1.368 . S
C1875 C1859 1.349 . S
C1875 H1867 0.950 . S
C1875 C1873 1.327 . S
C1876 C1864 1.349 . S
C1876 H1870 0.950 . S
C1876 C1877 1.327 . S
C1877 H1871 0.950 . S
C1877 C1876 1.327 . S
C1877 C1881 1.429 . S
C1878 C1861 1.574 . S
C1878 H1872 0.949 . S
C1878 C1882 1.368 . S
C1879 C1860 1.429 . S
C1879 C1873 1.429 . S
C1879 C1880 1.523 . S
C1880 C1861 1.368 . S
C1880 C1874 1.368 . S
C1880 C1879 1.523 . S
C1881 C1865 1.429 . S
C1881 C1877 1.429 . S
C1881 C1882 1.523 . S
C1882 C1866 1.368 . S
C1882 C1878 1.368 . S
C1882 C1881 1.523 . S
H1883 C1858 0.950 . S
H1884 C1860 0.950 . S
H1885 C1861 0.949 . S
H1886 C1863 0.950 . S
H1887 C1865 0.950 . S
C1888 C1889 1.349 . S
C1888 C1890 1.327 . S
C1888 H1913 0.950 . S
C1889 C1888 1.349 . S
C1889 C1905 1.349 . S
C1890 C1888 1.327 . S
C1890 C1909 1.429 . S
C1890 H1914 0.950 . S
C1891 C1908 1.574 1_566 S
C1891 C1910 1.368 . S
C1891 H1915 0.949 . S
H1892 C1896 0.949 . S
C1893 C1894 1.349 . S
C1893 C1895 1.327 . S
C1893 H1916 0.950 . S
C1894 C1893 1.349 . S
C1894 C1906 1.349 . S
C1895 C1893 1.327 . S
C1895 C1911 1.429 . S
C1895 H1917 0.950 . S
C1896 H1892 0.949 . S
C1896 C1904 1.574 1_544 S
C1896 C1912 1.368 . S
H1897 C1905 0.950 . S
H1898 C1903 0.950 . S
H1899 C1904 0.949 . S
H1900 C1906 0.950 . S
H1901 C1907 0.950 . S
H1902 C1908 0.949 . S
C1903 H1898 0.950 . S
C1903 C1905 1.327 . S
C1903 C1909 1.429 . S
C1904 C1896 1.574 1_566 S
C1904 H1899 0.949 . S
C1904 C1910 1.368 . S
C1905 C1889 1.349 . S
C1905 H1897 0.950 . S
C1905 C1903 1.327 . S
C1906 C1894 1.349 . S
C1906 H1900 0.950 . S
C1906 C1907 1.327 . S
C1907 H1901 0.950 . S
C1907 C1906 1.327 . S
C1907 C1911 1.429 . S
C1908 C1891 1.574 1_544 S
C1908 H1902 0.949 . S
C1908 C1912 1.368 . S
C1909 C1890 1.429 . S
C1909 C1903 1.429 . S
C1909 C1910 1.523 . S
C1910 C1891 1.368 . S
C1910 C1904 1.368 . S
C1910 C1909 1.523 . S
C1911 C1895 1.429 . S
C1911 C1907 1.429 . S
C1911 C1912 1.523 . S
C1912 C1896 1.368 . S
C1912 C1908 1.368 . S
C1912 C1911 1.523 . S
H1913 C1888 0.950 . S
H1914 C1890 0.950 . S
H1915 C1891 0.949 . S
H1916 C1893 0.950 . S
H1917 C1895 0.950 . S
C1918 C1919 1.349 . S
C1918 C1920 1.327 . S
C1918 H1943 0.950 . S
C1919 C1918 1.349 . S
C1919 C1935 1.349 . S
C1920 C1918 1.327 . S
C1920 C1939 1.429 . S
C1920 H1944 0.950 . S
C1921 C1938 1.574 . S
C1921 C1940 1.368 1_556 S
C1921 H1945 0.949 . S
H1922 C1926 0.949 . S
C1923 C1924 1.349 . S
C1923 C1925 1.327 . S
C1923 H1946 0.950 . S
C1924 C1923 1.349 . S
C1924 C1936 1.349 . S
C1925 C1923 1.327 . S
C1925 C1941 1.429 . S
C1925 H1947 0.950 . S
C1926 H1922 0.949 . S
C1926 C1934 1.574 . S
C1926 C1942 1.368 1_554 S
H1927 C1935 0.950 . S
H1928 C1933 0.950 . S
H1929 C1934 0.949 . S
H1930 C1936 0.950 . S
H1931 C1937 0.950 . S
H1932 C1938 0.949 . S
C1933 H1928 0.950 . S
C1933 C1935 1.327 . S
C1933 C1939 1.429 . S
C1934 C1926 1.574 . S
C1934 H1929 0.949 . S
C1934 C1940 1.368 . S
C1935 C1919 1.349 . S
C1935 H1927 0.950 . S
C1935 C1933 1.327 . S
C1936 C1924 1.349 . S
C1936 H1930 0.950 . S
C1936 C1937 1.327 . S
C1937 H1931 0.950 . S
C1937 C1936 1.327 . S
C1937 C1941 1.429 . S
C1938 C1921 1.574 . S
C1938 H1932 0.949 . S
C1938 C1942 1.368 . S
C1939 C1920 1.429 . S
C1939 C1933 1.429 . S
C1939 C1940 1.523 . S
C1940 C1921 1.368 1_554 S
C1940 C1934 1.368 . S
C1940 C1939 1.523 . S
C1941 C1925 1.429 . S
C1941 C1937 1.429 . S
C1941 C1942 1.523 . S
C1942 C1926 1.368 1_556 S
C1942 C1938 1.368 . S
C1942 C1941 1.523 . S
H1943 C1918 0.950 . S
H1944 C1920 0.950 . S
H1945 C1921 0.949 . S
H1946 C1923 0.950 . S
H1947 C1925 0.950 . S
C1948 C1949 1.349 1_655 S
C1948 C1950 1.327 . S
C1948 H1973 0.950 . S
C1949 C1948 1.349 1_455 S
C1949 C1965 1.349 . S
C1950 C1948 1.327 . S
C1950 C1969 1.429 1_655 S
C1950 H1974 0.950 . S
C1951 C1968 1.574 . S
C1951 C1970 1.368 . S
C1951 H1975 0.949 . S
H1952 C1956 0.949 . S
C1953 C1954 1.349 1_455 S
C1953 C1955 1.327 . S
C1953 H1976 0.950 . S
C1954 C1953 1.349 1_655 S
C1954 C1966 1.349 . S
C1955 C1953 1.327 . S
C1955 C1971 1.429 1_455 S
C1955 H1977 0.950 . S
C1956 H1952 0.949 . S
C1956 C1964 1.574 . S
C1956 C1972 1.368 . S
H1957 C1965 0.950 . S
H1958 C1963 0.950 . S
H1959 C1964 0.949 . S
H1960 C1966 0.950 . S
H1961 C1967 0.950 . S
H1962 C1968 0.949 . S
C1963 H1958 0.950 . S
C1963 C1965 1.327 . S
C1963 C1969 1.429 . S
C1964 C1956 1.574 . S
C1964 H1959 0.949 . S
C1964 C1970 1.368 1_654 S
C1965 C1949 1.349 . S
C1965 H1957 0.950 . S
C1965 C1963 1.327 . S
C1966 C1954 1.349 . S
C1966 H1960 0.950 . S
C1966 C1967 1.327 . S
C1967 H1961 0.950 . S
C1967 C1966 1.327 . S
C1967 C1971 1.429 . S
C1968 C1951 1.574 . S
C1968 H1962 0.949 . S
C1968 C1972 1.368 1_456 S
C1969 C1950 1.429 1_455 S
C1969 C1963 1.429 . S
C1969 C1970 1.523 . S
C1970 C1951 1.368 . S
C1970 C1964 1.368 1_456 S
C1970 C1969 1.523 . S
C1971 C1955 1.429 1_655 S
C1971 C1967 1.429 . S
C1971 C1972 1.523 . S
C1972 C1956 1.368 . S
C1972 C1968 1.368 1_654 S
C1972 C1971 1.523 . S
H1973 C1948 0.950 . S
H1974 C1950 0.950 . S
H1975 C1951 0.949 . S
H1976 C1953 0.950 . S
H1977 C1955 0.950 . S
C1978 C1979 1.333 1_545 S
C1978 C1980 1.331 . S
C1978 H2003 0.962 . S
C1979 C1978 1.333 1_565 S
C1979 C1995 1.349 . S
C1980 C1978 1.331 . S
C1980 C1999 1.429 1_545 S
C1980 H2004 0.950 . S
C1981 C1998 1.550 1_455 S
C1981 C2000 1.391 . S
C1981 H2005 0.951 . S
H1982 C1986 0.951 . S
C1983 C1984 1.349 1_565 S
C1983 C1985 1.327 . S
C1983 H2006 0.950 . S
C1984 C1983 1.349 1_545 S
C1984 C1996 1.349 . S
C1985 C1983 1.327 . S
C1985 C2001 1.429 1_565 S
C1985 H2007 0.950 . S
C1986 H1982 0.951 . S
C1986 C1994 1.550 1_655 S
C1986 C2002 1.390 . S
H1987 C1995 0.950 . S
H1988 C1993 0.950 . S
H1989 C1994 0.949 . S
H1990 C1996 0.950 . S
H1991 C1997 0.950 . S
H1992 C1998 0.949 . S
C1993 H1988 0.950 . S
C1993 C1995 1.327 . S
C1993 C1999 1.429 . S
C1994 C1986 1.550 1_455 S
C1994 H1989 0.949 . S
C1994 C2000 1.368 1_546 S
C1995 C1979 1.349 . S
C1995 H1987 0.950 . S
C1995 C1993 1.327 . S
C1996 C1984 1.349 . S
C1996 H1990 0.950 . S
C1996 C1997 1.327 . S
C1997 H1991 0.950 . S
C1997 C1996 1.327 . S
C1997 C2001 1.429 . S
C1998 C1981 1.550 1_655 S
C1998 H1992 0.949 . S
C1998 C2002 1.368 1_564 S
C1999 C1980 1.429 1_565 S
C1999 C1993 1.429 . S
C1999 C2000 1.523 . S
C2000 C1981 1.391 . S
C2000 C1994 1.368 1_564 S
C2000 C1999 1.523 . S
C2001 C1985 1.429 1_545 S
C2001 C1997 1.429 . S
C2001 C2002 1.523 . S
C2002 C1986 1.390 . S
C2002 C1998 1.368 1_546 S
C2002 C2001 1.523 . S
H2003 C1978 0.962 . S
H2004 C1980 0.950 . S
H2005 C1981 0.951 . S
H2006 C1983 0.950 . S
H2007 C1985 0.950 . S
C2008 C2009 1.349 . S
C2008 C2010 1.327 . S
C2008 H2033 0.950 . S
C2009 C2008 1.349 . S
C2009 C2025 1.349 . S
C2010 C2008 1.327 . S
C2010 C2029 1.429 . S
C2010 H2034 0.950 . S
C2011 C2028 1.574 . S
C2011 C2030 1.368 . S
C2011 H2035 0.949 . S
H2012 C2016 0.949 . S
C2013 C2014 1.349 . S
C2013 C2015 1.327 . S
C2013 H2036 0.950 . S
C2014 C2013 1.349 . S
C2014 C2026 1.349 . S
C2015 C2013 1.327 . S
C2015 C2031 1.429 . S
C2015 H2037 0.950 . S
C2016 H2012 0.949 . S
C2016 C2024 1.574 . S
C2016 C2032 1.368 . S
H2017 C2025 0.950 . S
H2018 C2023 0.950 . S
H2019 C2024 0.949 . S
H2020 C2026 0.950 . S
H2021 C2027 0.950 . S
H2022 C2028 0.949 . S
C2023 H2018 0.950 . S
C2023 C2025 1.327 . S
C2023 C2029 1.429 . S
C2024 C2016 1.574 . S
C2024 H2019 0.949 . S
C2024 C2030 1.368 . S
C2025 C2009 1.349 . S
C2025 H2017 0.950 . S
C2025 C2023 1.327 . S
C2026 C2014 1.349 . S
C2026 H2020 0.950 . S
C2026 C2027 1.327 . S
C2027 H2021 0.950 . S
C2027 C2026 1.327 . S
C2027 C2031 1.429 . S
C2028 C2011 1.574 . S
C2028 H2022 0.949 . S
C2028 C2032 1.368 . S
C2029 C2010 1.429 . S
C2029 C2023 1.429 . S
C2029 C2030 1.523 . S
C2030 C2011 1.368 . S
C2030 C2024 1.368 . S
C2030 C2029 1.523 . S
C2031 C2015 1.429 . S
C2031 C2027 1.429 . S
C2031 C2032 1.523 . S
C2032 C2016 1.368 . S
C2032 C2028 1.368 . S
C2032 C2031 1.523 . S
H2033 C2008 0.950 . S
H2034 C2010 0.950 . S
H2035 C2011 0.949 . S
H2036 C2013 0.950 . S
H2037 C2015 0.950 . S
C2038 C2039 1.349 . S
C2038 C2040 1.327 . S
C2038 H2063 0.950 . S
C2039 C2038 1.349 . S
C2039 C2055 1.349 . S
C2040 C2038 1.327 . S
C2040 C2059 1.429 . S
C2040 H2064 0.950 . S
C2041 C2058 1.573 1_455 S
C2041 C2060 1.369 . S
C2041 H2065 0.949 . S
H2042 C2046 0.949 . S
C2043 C2044 1.349 . S
C2043 C2045 1.327 . S
C2043 H2066 0.950 . S
C2044 C2043 1.349 . S
C2044 C2056 1.349 . S
C2045 C2043 1.327 . S
C2045 C2061 1.429 . S
C2045 H2067 0.950 . S
C2046 H2042 0.949 . S
C2046 C2054 1.573 1_655 S
C2046 C2062 1.368 . S
H2047 C2055 0.950 . S
H2048 C2053 0.950 . S
H2049 C2054 0.949 . S
H2050 C2056 0.950 . S
H2051 C2057 0.950 . S
H2052 C2058 0.949 . S
C2053 H2048 0.950 . S
C2053 C2055 1.327 . S
C2053 C2059 1.429 . S
C2054 C2046 1.573 1_455 S
C2054 H2049 0.949 . S
C2054 C2060 1.368 . S
C2055 C2039 1.349 . S
C2055 H2047 0.950 . S
C2055 C2053 1.327 . S
C2056 C2044 1.349 . S
C2056 H2050 0.950 . S
C2056 C2057 1.327 . S
C2057 H2051 0.950 . S
C2057 C2056 1.327 . S
C2057 C2061 1.429 . S
C2058 C2041 1.573 1_655 S
C2058 H2052 0.949 . S
C2058 C2062 1.368 . S
C2059 C2040 1.429 . S
C2059 C2053 1.429 . S
C2059 C2060 1.523 . S
C2060 C2041 1.369 . S
C2060 C2054 1.368 . S
C2060 C2059 1.523 . S
C2061 C2045 1.429 . S
C2061 C2057 1.429 . S
C2061 C2062 1.523 . S
C2062 C2046 1.368 . S
C2062 C2058 1.368 . S
C2062 C2061 1.523 . S
H2063 C2038 0.950 . S
H2064 C2040 0.950 . S
H2065 C2041 0.949 . S
H2066 C2043 0.950 . S
H2067 C2045 0.950 . S
C2068 C2069 1.349 1_655 S
C2068 C2070 1.327 . S
C2068 H2093 0.950 . S
C2069 C2068 1.349 1_455 S
C2069 C2085 1.349 . S
C2070 C2068 1.327 . S
C2070 C2089 1.429 1_655 S
C2070 H2094 0.950 . S
C2071 C2088 1.574 1_565 S
C2071 C2090 1.368 . S
C2071 H2095 0.949 . S
H2072 C2076 0.949 . S
C2073 C2074 1.349 1_455 S
C2073 C2075 1.327 . S
C2073 H2096 0.950 . S
C2074 C2073 1.349 1_655 S
C2074 C2086 1.349 . S
C2075 C2073 1.327 . S
C2075 C2091 1.429 1_455 S
C2075 H2097 0.950 . S
C2076 H2072 0.949 . S
C2076 C2084 1.574 1_545 S
C2076 C2092 1.368 . S
H2077 C2085 0.950 . S
H2078 C2083 0.950 . S
H2079 C2084 0.949 . S
H2080 C2086 0.950 . S
H2081 C2087 0.950 . S
H2082 C2088 0.949 . S
C2083 H2078 0.950 . S
C2083 C2085 1.327 . S
C2083 C2089 1.429 . S
C2084 C2076 1.574 1_565 S
C2084 H2079 0.949 . S
C2084 C2090 1.368 1_655 S
C2085 C2069 1.349 . S
C2085 H2077 0.950 . S
C2085 C2083 1.327 . S
C2086 C2074 1.349 . S
C2086 H2080 0.950 . S
C2086 C2087 1.327 . S
C2087 H2081 0.950 . S
C2087 C2086 1.327 . S
C2087 C2091 1.429 . S
C2088 C2071 1.574 1_545 S
C2088 H2082 0.949 . S
C2088 C2092 1.368 1_455 S
C2089 C2070 1.429 1_455 S
C2089 C2083 1.429 . S
C2089 C2090 1.523 . S
C2090 C2071 1.368 . S
C2090 C2084 1.368 1_455 S
C2090 C2089 1.523 . S
C2091 C2075 1.429 1_655 S
C2091 C2087 1.429 . S
C2091 C2092 1.523 . S
C2092 C2076 1.368 . S
C2092 C2088 1.368 1_655 S
C2092 C2091 1.523 . S
H2093 C2068 0.950 . S
H2094 C2070 0.950 . S
H2095 C2071 0.949 . S
H2096 C2073 0.950 . S
H2097 C2075 0.950 . S
C2098 C2099 1.349 . S
C2098 C2100 1.327 . S
C2098 H2123 0.950 . S
C2099 C2098 1.349 . S
C2099 C2115 1.349 . S
C2100 C2098 1.327 . S
C2100 C2119 1.429 . S
C2100 H2124 0.950 . S
C2101 C2118 1.573 1_545 S
C2101 C2120 1.368 . S
C2101 H2125 0.949 . S
H2102 C2106 0.949 . S
C2103 C2104 1.349 . S
C2103 C2105 1.327 . S
C2103 H2126 0.950 . S
C2104 C2103 1.349 . S
C2104 C2116 1.349 . S
C2105 C2103 1.327 . S
C2105 C2121 1.429 . S
C2105 H2127 0.950 . S
C2106 H2102 0.949 . S
C2106 C2114 1.581 . S
C2106 C2122 1.368 . S
H2107 C2115 0.950 . S
H2108 C2113 0.950 . S
H2109 C2114 0.949 . S
H2110 C2116 0.950 . S
H2111 C2117 0.950 . S
H2112 C2118 0.949 . S
C2113 H2108 0.950 . S
C2113 C2115 1.327 . S
C2113 C2119 1.429 . S
C2114 C2106 1.581 . S
C2114 H2109 0.949 . S
C2114 C2120 1.362 1_565 S
C2115 C2099 1.349 . S
C2115 H2107 0.950 . S
C2115 C2113 1.327 . S
C2116 C2104 1.349 . S
C2116 H2110 0.950 . S
C2116 C2117 1.327 . S
C2117 H2111 0.950 . S
C2117 C2116 1.327 . S
C2117 C2121 1.429 . S
C2118 C2101 1.573 1_565 S
C2118 H2112 0.949 . S
C2118 C2122 1.369 . S
C2119 C2100 1.429 . S
C2119 C2113 1.429 . S
C2119 C2120 1.523 . S
C2120 C2101 1.368 . S
C2120 C2114 1.362 1_545 S
C2120 C2119 1.523 . S
C2121 C2105 1.429 . S
C2121 C2117 1.429 . S
C2121 C2122 1.523 . S
C2122 C2106 1.368 . S
C2122 C2118 1.369 . S
C2122 C2121 1.523 . S
H2123 C2098 0.950 . S
H2124 C2100 0.950 . S
H2125 C2101 0.949 . S
H2126 C2103 0.950 . S
H2127 C2105 0.950 . S
C2128 C2129 1.349 . S
C2128 C2130 1.327 . S
C2128 H2153 0.950 . S
C2129 C2128 1.349 . S
C2129 C2145 1.349 . S
C2130 C2128 1.327 . S
C2130 C2149 1.429 . S
C2130 H2154 0.950 . S
C2131 C2148 1.574 . S
C2131 C2150 1.368 . S
C2131 H2155 0.949 . S
H2132 C2136 0.949 . S
C2133 C2134 1.349 . S
C2133 C2135 1.327 . S
C2133 H2156 0.950 . S
C2134 C2133 1.349 . S
C2134 C2146 1.349 . S
C2135 C2133 1.327 . S
C2135 C2151 1.429 . S
C2135 H2157 0.950 . S
C2136 H2132 0.949 . S
C2136 C2144 1.574 . S
C2136 C2152 1.368 . S
H2137 C2145 0.950 . S
H2138 C2143 0.950 . S
H2139 C2144 0.949 . S
H2140 C2146 0.950 . S
H2141 C2147 0.950 . S
H2142 C2148 0.949 . S
C2143 H2138 0.950 . S
C2143 C2145 1.327 . S
C2143 C2149 1.429 . S
C2144 C2136 1.574 . S
C2144 H2139 0.949 . S
C2144 C2150 1.368 . S
C2145 C2129 1.349 . S
C2145 H2137 0.950 . S
C2145 C2143 1.327 . S
C2146 C2134 1.349 . S
C2146 H2140 0.950 . S
C2146 C2147 1.327 . S
C2147 H2141 0.950 . S
C2147 C2146 1.327 . S
C2147 C2151 1.429 . S
C2148 C2131 1.574 . S
C2148 H2142 0.949 . S
C2148 C2152 1.368 . S
C2149 C2130 1.429 . S
C2149 C2143 1.429 . S
C2149 C2150 1.523 . S
C2150 C2131 1.368 . S
C2150 C2144 1.368 . S
C2150 C2149 1.523 . S
C2151 C2135 1.429 . S
C2151 C2147 1.429 . S
C2151 C2152 1.523 . S
C2152 C2136 1.368 . S
C2152 C2148 1.368 . S
C2152 C2151 1.523 . S
H2153 C2128 0.950 . S
H2154 C2130 0.950 . S
H2155 C2131 0.949 . S
H2156 C2133 0.950 . S
H2157 C2135 0.950 . S
C2158 C2159 1.349 . S
C2158 C2160 1.327 . S
C2158 H2183 0.950 . S
C2159 C2158 1.349 . S
C2159 C2175 1.349 . S
C2160 C2158 1.327 . S
C2160 C2179 1.429 . S
C2160 H2184 0.950 . S
C2161 C2178 1.574 . S
C2161 C2180 1.368 . S
C2161 H2185 0.949 . S
H2162 C2166 0.949 . S
C2163 C2164 1.349 . S
C2163 C2165 1.327 . S
C2163 H2186 0.950 . S
C2164 C2163 1.349 . S
C2164 C2176 1.349 . S
C2165 C2163 1.327 . S
C2165 C2181 1.429 . S
C2165 H2187 0.950 . S
C2166 H2162 0.949 . S
C2166 C2174 1.574 . S
C2166 C2182 1.368 . S
H2167 C2175 0.950 . S
H2168 C2173 0.950 . S
H2169 C2174 0.949 . S
H2170 C2176 0.950 . S
H2171 C2177 0.950 . S
H2172 C2178 0.949 . S
C2173 H2168 0.950 . S
C2173 C2175 1.327 . S
C2173 C2179 1.429 . S
C2174 C2166 1.574 . S
C2174 H2169 0.949 . S
C2174 C2180 1.368 . S
C2175 C2159 1.349 . S
C2175 H2167 0.950 . S
C2175 C2173 1.327 . S
C2176 C2164 1.349 . S
C2176 H2170 0.950 . S
C2176 C2177 1.327 . S
C2177 H2171 0.950 . S
C2177 C2176 1.327 . S
C2177 C2181 1.429 . S
C2178 C2161 1.574 . S
C2178 H2172 0.949 . S
C2178 C2182 1.368 . S
C2179 C2160 1.429 . S
C2179 C2173 1.429 . S
C2179 C2180 1.523 . S
C2180 C2161 1.368 . S
C2180 C2174 1.368 . S
C2180 C2179 1.523 . S
C2181 C2165 1.429 . S
C2181 C2177 1.429 . S
C2181 C2182 1.523 . S
C2182 C2166 1.368 . S
C2182 C2178 1.368 . S
C2182 C2181 1.523 . S
H2183 C2158 0.950 . S
H2184 C2160 0.950 . S
H2185 C2161 0.949 . S
H2186 C2163 0.950 . S
H2187 C2165 0.950 . S
C2188 C2189 1.349 . S
C2188 C2190 1.327 . S
C2188 H2213 0.950 . S
C2189 C2188 1.349 . S
C2189 C2205 1.349 . S
C2190 C2188 1.327 . S
C2190 C2209 1.429 . S
C2190 H2214 0.950 . S
C2191 C2208 1.574 . S
C2191 C2210 1.368 . S
C2191 H2215 0.949 . S
H2192 C2196 0.949 . S
C2193 C2194 1.349 . S
C2193 C2195 1.327 . S
C2193 H2216 0.950 . S
C2194 C2193 1.349 . S
C2194 C2206 1.349 . S
C2195 C2193 1.327 . S
C2195 C2211 1.429 . S
C2195 H2217 0.950 . S
C2196 H2192 0.949 . S
C2196 C2204 1.574 . S
C2196 C2212 1.368 . S
H2197 C2205 0.950 . S
H2198 C2203 0.950 . S
H2199 C2204 0.949 . S
H2200 C2206 0.950 . S
H2201 C2207 0.950 . S
H2202 C2208 0.949 . S
C2203 H2198 0.950 . S
C2203 C2205 1.327 . S
C2203 C2209 1.429 . S
C2204 C2196 1.574 . S
C2204 H2199 0.949 . S
C2204 C2210 1.368 . S
C2205 C2189 1.349 . S
C2205 H2197 0.950 . S
C2205 C2203 1.327 . S
C2206 C2194 1.349 . S
C2206 H2200 0.950 . S
C2206 C2207 1.327 . S
C2207 H2201 0.950 . S
C2207 C2206 1.327 . S
C2207 C2211 1.429 . S
C2208 C2191 1.574 . S
C2208 H2202 0.949 . S
C2208 C2212 1.368 . S
C2209 C2190 1.429 . S
C2209 C2203 1.429 . S
C2209 C2210 1.523 . S
C2210 C2191 1.368 . S
C2210 C2204 1.368 . S
C2210 C2209 1.523 . S
C2211 C2195 1.429 . S
C2211 C2207 1.429 . S
C2211 C2212 1.523 . S
C2212 C2196 1.368 . S
C2212 C2208 1.368 . S
C2212 C2211 1.523 . S
H2213 C2188 0.950 . S
H2214 C2190 0.950 . S
H2215 C2191 0.949 . S
H2216 C2193 0.950 . S
H2217 C2195 0.950 . S
C2218 C2219 1.349 . S
C2218 C2220 1.327 . S
C2218 H2243 0.950 . S
C2219 C2218 1.349 . S
C2219 C2235 1.349 . S
C2220 C2218 1.327 . S
C2220 C2239 1.429 . S
C2220 H2244 0.950 . S
C2221 C2238 1.574 . S
C2221 C2240 1.368 . S
C2221 H2245 0.949 . S
H2222 C2226 0.949 . S
C2223 C2224 1.349 . S
C2223 C2225 1.327 . S
C2223 H2246 0.950 . S
C2224 C2223 1.349 . S
C2224 C2236 1.349 . S
C2225 C2223 1.327 . S
C2225 C2241 1.429 . S
C2225 H2247 0.950 . S
C2226 H2222 0.949 . S
C2226 C2234 1.574 . S
C2226 C2242 1.368 . S
H2227 C2235 0.950 . S
H2228 C2233 0.950 . S
H2229 C2234 0.949 . S
H2230 C2236 0.950 . S
H2231 C2237 0.950 . S
H2232 C2238 0.949 . S
C2233 H2228 0.950 . S
C2233 C2235 1.327 . S
C2233 C2239 1.429 . S
C2234 C2226 1.574 . S
C2234 H2229 0.949 . S
C2234 C2240 1.368 . S
C2235 C2219 1.349 . S
C2235 H2227 0.950 . S
C2235 C2233 1.327 . S
C2236 C2224 1.349 . S
C2236 H2230 0.950 . S
C2236 C2237 1.327 . S
C2237 H2231 0.950 . S
C2237 C2236 1.327 . S
C2237 C2241 1.429 . S
C2238 C2221 1.574 . S
C2238 H2232 0.949 . S
C2238 C2242 1.368 . S
C2239 C2220 1.429 . S
C2239 C2233 1.429 . S
C2239 C2240 1.523 . S
C2240 C2221 1.368 . S
C2240 C2234 1.368 . S
C2240 C2239 1.523 . S
C2241 C2225 1.429 . S
C2241 C2237 1.429 . S
C2241 C2242 1.523 . S
C2242 C2226 1.368 . S
C2242 C2238 1.368 . S
C2242 C2241 1.523 . S
H2243 C2218 0.950 . S
H2244 C2220 0.950 . S
H2245 C2221 0.949 . S
H2246 C2223 0.950 . S
H2247 C2225 0.950 . S
C2248 C2249 1.349 . S
C2248 C2250 1.327 . S
C2248 H2273 0.950 . S
C2249 C2248 1.349 . S
C2249 C2265 1.349 . S
C2250 C2248 1.327 . S
C2250 C2269 1.429 . S
C2250 H2274 0.950 . S
C2251 C2268 1.574 . S
C2251 C2270 1.368 . S
C2251 H2275 0.949 . S
H2252 C2256 0.949 . S
C2253 C2254 1.349 . S
C2253 C2255 1.327 . S
C2253 H2276 0.950 . S
C2254 C2253 1.349 . S
C2254 C2266 1.349 . S
C2255 C2253 1.327 . S
C2255 C2271 1.429 . S
C2255 H2277 0.950 . S
C2256 H2252 0.949 . S
C2256 C2264 1.574 . S
C2256 C2272 1.368 . S
H2257 C2265 0.950 . S
H2258 C2263 0.950 . S
H2259 C2264 0.949 . S
H2260 C2266 0.950 . S
H2261 C2267 0.950 . S
H2262 C2268 0.949 . S
C2263 H2258 0.950 . S
C2263 C2265 1.327 . S
C2263 C2269 1.429 . S
C2264 C2256 1.574 . S
C2264 H2259 0.949 . S
C2264 C2270 1.368 . S
C2265 C2249 1.349 . S
C2265 H2257 0.950 . S
C2265 C2263 1.327 . S
C2266 C2254 1.349 . S
C2266 H2260 0.950 . S
C2266 C2267 1.327 . S
C2267 H2261 0.950 . S
C2267 C2266 1.327 . S
C2267 C2271 1.429 . S
C2268 C2251 1.574 . S
C2268 H2262 0.949 . S
C2268 C2272 1.368 . S
C2269 C2250 1.429 . S
C2269 C2263 1.429 . S
C2269 C2270 1.523 . S
C2270 C2251 1.368 . S
C2270 C2264 1.368 . S
C2270 C2269 1.523 . S
C2271 C2255 1.429 . S
C2271 C2267 1.429 . S
C2271 C2272 1.523 . S
C2272 C2256 1.368 . S
C2272 C2268 1.368 . S
C2272 C2271 1.523 . S
H2273 C2248 0.950 . S
H2274 C2250 0.950 . S
H2275 C2251 0.949 . S
H2276 C2253 0.950 . S
H2277 C2255 0.950 . S
C2278 C2279 1.349 . S
C2278 C2280 1.327 . S
C2278 H2303 0.950 . S
C2279 C2278 1.349 . S
C2279 C2295 1.349 . S
C2280 C2278 1.327 . S
C2280 C2299 1.429 . S
C2280 H2304 0.950 . S
C2281 C2298 1.574 . S
C2281 C2300 1.368 . S
C2281 H2305 0.949 . S
H2282 C2286 0.949 . S
C2283 C2284 1.349 . S
C2283 C2285 1.327 . S
C2283 H2306 0.950 . S
C2284 C2283 1.349 . S
C2284 C2296 1.349 . S
C2285 C2283 1.327 . S
C2285 C2301 1.429 . S
C2285 H2307 0.950 . S
C2286 H2282 0.949 . S
C2286 C2294 1.574 . S
C2286 C2302 1.368 . S
H2287 C2295 0.950 . S
H2288 C2293 0.950 . S
H2289 C2294 0.949 . S
H2290 C2296 0.950 . S
H2291 C2297 0.950 . S
H2292 C2298 0.949 . S
C2293 H2288 0.950 . S
C2293 C2295 1.327 . S
C2293 C2299 1.429 . S
C2294 C2286 1.574 . S
C2294 H2289 0.949 . S
C2294 C2300 1.368 . S
C2295 C2279 1.349 . S
C2295 H2287 0.950 . S
C2295 C2293 1.327 . S
C2296 C2284 1.349 . S
C2296 H2290 0.950 . S
C2296 C2297 1.327 . S
C2297 H2291 0.950 . S
C2297 C2296 1.327 . S
C2297 C2301 1.429 . S
C2298 C2281 1.574 . S
C2298 H2292 0.949 . S
C2298 C2302 1.368 . S
C2299 C2280 1.429 . S
C2299 C2293 1.429 . S
C2299 C2300 1.523 . S
C2300 C2281 1.368 . S
C2300 C2294 1.368 . S
C2300 C2299 1.523 . S
C2301 C2285 1.429 . S
C2301 C2297 1.429 . S
C2301 C2302 1.523 . S
C2302 C2286 1.368 . S
C2302 C2298 1.368 . S
C2302 C2301 1.523 . S
H2303 C2278 0.950 . S
H2304 C2280 0.950 . S
H2305 C2281 0.949 . S
H2306 C2283 0.950 . S
H2307 C2285 0.950 . S
C2308 C2309 1.349 . S
C2308 C2310 1.327 . S
C2308 H2333 0.950 . S
C2309 C2308 1.349 . S
C2309 C2325 1.349 . S
C2310 C2308 1.327 . S
C2310 C2329 1.429 . S
C2310 H2334 0.950 . S
C2311 C2328 1.574 . S
C2311 C2330 1.368 . S
C2311 H2335 0.949 . S
H2312 C2316 0.949 . S
C2313 C2314 1.349 . S
C2313 C2315 1.327 . S
C2313 H2336 0.950 . S
C2314 C2313 1.349 . S
C2314 C2326 1.349 . S
C2315 C2313 1.327 . S
C2315 C2331 1.429 . S
C2315 H2337 0.950 . S
C2316 H2312 0.949 . S
C2316 C2324 1.574 . S
C2316 C2332 1.368 . S
H2317 C2325 0.950 . S
H2318 C2323 0.950 . S
H2319 C2324 0.949 . S
H2320 C2326 0.950 . S
H2321 C2327 0.950 . S
H2322 C2328 0.949 . S
C2323 H2318 0.950 . S
C2323 C2325 1.327 . S
C2323 C2329 1.429 . S
C2324 C2316 1.574 . S
C2324 H2319 0.949 . S
C2324 C2330 1.368 . S
C2325 C2309 1.349 . S
C2325 H2317 0.950 . S
C2325 C2323 1.327 . S
C2326 C2314 1.349 . S
C2326 H2320 0.950 . S
C2326 C2327 1.327 . S
C2327 H2321 0.950 . S
C2327 C2326 1.327 . S
C2327 C2331 1.429 . S
C2328 C2311 1.574 . S
C2328 H2322 0.949 . S
C2328 C2332 1.368 . S
C2329 C2310 1.429 . S
C2329 C2323 1.429 . S
C2329 C2330 1.523 . S
C2330 C2311 1.368 . S
C2330 C2324 1.368 . S
C2330 C2329 1.523 . S
C2331 C2315 1.429 . S
C2331 C2327 1.429 . S
C2331 C2332 1.523 . S
C2332 C2316 1.368 . S
C2332 C2328 1.368 . S
C2332 C2331 1.523 . S
H2333 C2308 0.950 . S
H2334 C2310 0.950 . S
H2335 C2311 0.949 . S
H2336 C2313 0.950 . S
H2337 C2315 0.950 . S
C2338 C2339 1.349 . S
C2338 C2340 1.327 . S
C2338 H2363 0.950 . S
C2339 C2338 1.349 . S
C2339 C2355 1.349 . S
C2340 C2338 1.327 . S
C2340 C2359 1.429 . S
C2340 H2364 0.950 . S
C2341 C2358 1.574 . S
C2341 C2360 1.368 . S
C2341 H2365 0.949 . S
H2342 C2346 0.949 . S
C2343 C2344 1.349 . S
C2343 C2345 1.327 . S
C2343 H2366 0.950 . S
C2344 C2343 1.349 . S
C2344 C2356 1.349 . S
C2345 C2343 1.327 . S
C2345 C2361 1.429 . S
C2345 H2367 0.950 . S
C2346 H2342 0.949 . S
C2346 C2354 1.574 . S
C2346 C2362 1.368 . S
H2347 C2355 0.950 . S
H2348 C2353 0.950 . S
H2349 C2354 0.949 . S
H2350 C2356 0.950 . S
H2351 C2357 0.950 . S
H2352 C2358 0.949 . S
C2353 H2348 0.950 . S
C2353 C2355 1.327 . S
C2353 C2359 1.429 . S
C2354 C2346 1.574 . S
C2354 H2349 0.949 . S
C2354 C2360 1.368 . S
C2355 C2339 1.349 . S
C2355 H2347 0.950 . S
C2355 C2353 1.327 . S
C2356 C2344 1.349 . S
C2356 H2350 0.950 . S
C2356 C2357 1.327 . S
C2357 H2351 0.950 . S
C2357 C2356 1.327 . S
C2357 C2361 1.429 . S
C2358 C2341 1.574 . S
C2358 H2352 0.949 . S
C2358 C2362 1.368 . S
C2359 C2340 1.429 . S
C2359 C2353 1.429 . S
C2359 C2360 1.523 . S
C2360 C2341 1.368 . S
C2360 C2354 1.368 . S
C2360 C2359 1.523 . S
C2361 C2345 1.429 . S
C2361 C2357 1.429 . S
C2361 C2362 1.523 . S
C2362 C2346 1.368 . S
C2362 C2358 1.368 . S
C2362 C2361 1.523 . S
H2363 C2338 0.950 . S
H2364 C2340 0.950 . S
H2365 C2341 0.949 . S
H2366 C2343 0.950 . S
H2367 C2345 0.950 . S
C1409 C57 0.395 . S
C1414 C812 0.346 . S
C1439 C929 0.346 . S
C1444 C145 0.395 . S
C1469 C988 0.346 . S
C1474 C225 0.395 . S
C1499 C733 0.346 . S
C1504 C313 0.395 . S
C1529 C381 0.395 . S
C1534 C1377 0.346 . S
C1559 C1105 0.346 . S
C1564 C469 0.395 . S
C1589 C1164 0.346 . S
C1594 C548 0.395 . S
C1619 C1252 0.346 . S
C1624 C636 0.395 . S
C1649 C753 0.396 . S
C1654 C137 0.362 . S
C1679 C849 0.396 . S
C1684 C233 0.362 . S
C1709 C909 0.396 . S
C1714 C321 0.362 . S
C1739 C49 0.362 . S
C1744 C1025 0.396 . S
C1769 C1085 0.396 . S
C1774 C645 0.362 . S
C1799 C1201 0.396 . S
C1804 C372 0.362 . S
C1829 C460 0.362 . S
C1834 C1289 0.396 . S
C1859 C1340 0.396 . S
C1864 C557 0.362 . S
C1889 C724 1.556 . S
C1894 C29 1.563 . S
C1919 C117 1.563 . S
C1924 C821 1.556 . S
C1949 C937 1.556 . S
C1954 C196 1.563 . S
C1979 C284 1.563 . S
C1984 C997 1.556 . S
C2009 C1113 1.556 . S
C2014 C409 1.563 . S
C2039 C497 1.563 . S
C2044 C1173 1.556 . S
C2069 C1261 1.556 . S
C2074 C577 1.563 . S
C2099 C1369 1.556 . S
C2104 C665 1.563 . S
C2129 C401 2.278 . S
C2134 C20 2.278 . S
C2159 C489 2.278 . S
C2164 C108 2.278 . S
C2189 C205 2.278 . S
C2194 C585 2.278 . S
C2219 C673 2.278 . S
C2224 C293 2.278 . S
C2249 C761 2.277 . S
C2254 C1076 2.277 . S
C2279 C1193 2.277 . S
C2284 C841 2.277 . S
C2309 C1281 2.277 . S
C2314 C900 2.277 . S
C2339 C1349 2.277 . S
C2344 C1017 2.277 . S
