# Generated by pormake.
# Topology zfh, (5)-cn, num edge types: 1
# Building blocks:
#     Node 0, Type 0, BuildingBlock: XOMCOT_clean_sbu_1, # of connection points: 5
#     Node 1, Type 0, BuildingBlock: XOMCOT_clean_sbu_1, # of connection points: 5
#     Node 2, Type 0, BuildingBlock: XOMCOT_clean_sbu_1, # of connection points: 5
#     Node 3, Type 0, BuildingBlock: XOMCOT_clean_sbu_1, # of connection points: 5
#     Node 4, Type 0, BuildingBlock: XOMCOT_clean_sbu_1, # of connection points: 5
#     Node 5, Type 0, BuildingBlock: XOMCOT_clean_sbu_1, # of connection points: 5
#     Node 6, Type 0, BuildingBlock: XOMCOT_clean_sbu_1, # of connection points: 5
#     Node 7, Type 0, BuildingBlock: XOMCOT_clean_sbu_1, # of connection points: 5
#     Node 8, Type 0, BuildingBlock: XOMCOT_clean_sbu_1, # of connection points: 5
#     Node 9, Type 0, BuildingBlock: XOMCOT_clean_sbu_1, # of connection points: 5
#     Node 10, Type 0, BuildingBlock: XOMCOT_clean_sbu_1, # of connection points: 5
#     Node 11, Type 0, BuildingBlock: XOMCOT_clean_sbu_1, # of connection points: 5
#     Node 12, Type 0, BuildingBlock: XOMCOT_clean_sbu_1, # of connection points: 5
#     Node 13, Type 0, BuildingBlock: XOMCOT_clean_sbu_1, # of connection points: 5
#     Node 14, Type 0, BuildingBlock: XOMCOT_clean_sbu_1, # of connection points: 5
#     Node 15, Type 0, BuildingBlock: XOMCOT_clean_sbu_1, # of connection points: 5
#     Edge 16, Type (0, 0), BuildingBlock: TEMPAE_clean_linker_10, # of connection points: 2
#     Edge 17, Type (0, 0), BuildingBlock: TEMPAE_clean_linker_10, # of connection points: 2
#     Edge 18, Type (0, 0), BuildingBlock: TEMPAE_clean_linker_10, # of connection points: 2
#     Edge 19, Type (0, 0), BuildingBlock: TEMPAE_clean_linker_10, # of connection points: 2
#     Edge 20, Type (0, 0), BuildingBlock: TEMPAE_clean_linker_10, # of connection points: 2
#     Edge 21, Type (0, 0), BuildingBlock: TEMPAE_clean_linker_10, # of connection points: 2
#     Edge 22, Type (0, 0), BuildingBlock: TEMPAE_clean_linker_10, # of connection points: 2
#     Edge 23, Type (0, 0), BuildingBlock: TEMPAE_clean_linker_10, # of connection points: 2
#     Edge 24, Type (0, 0), BuildingBlock: TEMPAE_clean_linker_10, # of connection points: 2
#     Edge 25, Type (0, 0), BuildingBlock: TEMPAE_clean_linker_10, # of connection points: 2
#     Edge 26, Type (0, 0), BuildingBlock: TEMPAE_clean_linker_10, # of connection points: 2
#     Edge 27, Type (0, 0), BuildingBlock: TEMPAE_clean_linker_10, # of connection points: 2
#     Edge 28, Type (0, 0), BuildingBlock: TEMPAE_clean_linker_10, # of connection points: 2
#     Edge 29, Type (0, 0), BuildingBlock: TEMPAE_clean_linker_10, # of connection points: 2
#     Edge 30, Type (0, 0), BuildingBlock: TEMPAE_clean_linker_10, # of connection points: 2
#     Edge 31, Type (0, 0), BuildingBlock: TEMPAE_clean_linker_10, # of connection points: 2
#     Edge 32, Type (0, 0), BuildingBlock: TEMPAE_clean_linker_10, # of connection points: 2
#     Edge 33, Type (0, 0), BuildingBlock: TEMPAE_clean_linker_10, # of connection points: 2
#     Edge 34, Type (0, 0), BuildingBlock: TEMPAE_clean_linker_10, # of connection points: 2
#     Edge 35, Type (0, 0), BuildingBlock: TEMPAE_clean_linker_10, # of connection points: 2
#     Edge 36, Type (0, 0), BuildingBlock: TEMPAE_clean_linker_10, # of connection points: 2
#     Edge 37, Type (0, 0), BuildingBlock: TEMPAE_clean_linker_10, # of connection points: 2
#     Edge 38, Type (0, 0), BuildingBlock: TEMPAE_clean_linker_10, # of connection points: 2
#     Edge 39, Type (0, 0), BuildingBlock: TEMPAE_clean_linker_10, # of connection points: 2
#     Edge 40, Type (0, 0), BuildingBlock: TEMPAE_clean_linker_10, # of connection points: 2
#     Edge 41, Type (0, 0), BuildingBlock: TEMPAE_clean_linker_10, # of connection points: 2
#     Edge 42, Type (0, 0), BuildingBlock: TEMPAE_clean_linker_10, # of connection points: 2
#     Edge 43, Type (0, 0), BuildingBlock: TEMPAE_clean_linker_10, # of connection points: 2
#     Edge 44, Type (0, 0), BuildingBlock: TEMPAE_clean_linker_10, # of connection points: 2
#     Edge 45, Type (0, 0), BuildingBlock: TEMPAE_clean_linker_10, # of connection points: 2
#     Edge 46, Type (0, 0), BuildingBlock: TEMPAE_clean_linker_10, # of connection points: 2
#     Edge 47, Type (0, 0), BuildingBlock: TEMPAE_clean_linker_10, # of connection points: 2
#     Edge 48, Type (0, 0), BuildingBlock: TEMPAE_clean_linker_10, # of connection points: 2
#     Edge 49, Type (0, 0), BuildingBlock: TEMPAE_clean_linker_10, # of connection points: 2
#     Edge 50, Type (0, 0), BuildingBlock: TEMPAE_clean_linker_10, # of connection points: 2
#     Edge 51, Type (0, 0), BuildingBlock: TEMPAE_clean_linker_10, # of connection points: 2
#     Edge 52, Type (0, 0), BuildingBlock: TEMPAE_clean_linker_10, # of connection points: 2
#     Edge 53, Type (0, 0), BuildingBlock: TEMPAE_clean_linker_10, # of connection points: 2
#     Edge 54, Type (0, 0), BuildingBlock: TEMPAE_clean_linker_10, # of connection points: 2
#     Edge 55, Type (0, 0), BuildingBlock: TEMPAE_clean_linker_10, # of connection points: 2
# Relax obj value: 0.227
# Max RMSD: 0.218
# Mean RMSD: 0.218
data_MOF--net-zfh--node1-XOMCOT_clean_sbu_1--edge1-TEMPAE_clean_linker_10
_symmetry_space_group_name_H-M    P1
_symmetry_Int_Tables_number       1
_symmetry_cell_setting            triclinic
loop_
_symmetry_equiv_pos_as_xyz
'x, y, z'
_cell_length_a     40.249851
_cell_length_b     40.269036
_cell_length_c     52.78003
_cell_angle_alpha  89.980923
_cell_angle_beta   89.966448
_cell_angle_gamma 90.025083
loop_
_atom_site_label
_atom_site_type_symbol
_atom_site_fract_x
_atom_site_fract_y
_atom_site_fract_z
_atom_type_partial_charge
C0 C 0.53047 0.23765 0.38026 0.0
C1 C 0.51462 0.26786 0.37855 0.0
N2 N 0.49118 0.26936 0.3968 0.0
N3 N 0.51693 0.22005 0.39936 0.0
C4 C 0.49294 0.23988 0.40894 0.0
H5 H 0.55159 0.22972 0.36913 0.0
Co6 Co 0.53337 0.18113 0.41364 0.0
C7 C 0.47251 0.15202 0.43544 0.0
O8 O 0.48669 0.15075 0.45783 0.0
N9 N 0.55041 0.14217 0.42816 0.0
C10 C 0.56322 0.08908 0.43467 0.0
C11 C 0.54117 0.11055 0.42327 0.0
C12 C 0.5779 0.13926 0.44267 0.0
N13 N 0.58625 0.10727 0.44687 0.0
O14 O 0.53132 0.20218 0.44612 0.0
H15 H 0.52064 0.10356 0.41118 0.0
H16 H 0.59275 0.16009 0.44887 0.0
O17 O 0.48846 0.16408 0.41668 0.0
C18 C 0.55699 0.22034 0.44892 0.0
O19 O 0.58036 0.21895 0.43153 0.0
N20 N 0.53789 0.16229 0.38148 0.0
C21 C 0.55239 0.13818 0.33318 0.0
C22 C 0.51939 0.14443 0.34048 0.0
C23 C 0.51263 0.1567 0.36476 0.0
C24 C 0.57001 0.15653 0.3747 0.0
C25 C 0.57779 0.14415 0.3508 0.0
H26 H 0.48732 0.16259 0.3698 0.0
H27 H 0.58978 0.16185 0.38797 0.0
H28 H 0.47872 0.23371 0.42571 0.0
H29 H 0.52067 0.28757 0.36539 0.0
H30 H 0.56282 0.06223 0.4336 0.0
H31 H 0.49906 0.14079 0.32733 0.0
H32 H 0.60357 0.13936 0.34619 0.0
C33 C 0.27837 0.53425 0.38186 0.0
C34 C 0.24823 0.51837 0.3795 0.0
N35 N 0.24621 0.49468 0.3975 0.0
N36 N 0.29541 0.52054 0.40117 0.0
C37 C 0.27528 0.49641 0.41025 0.0
H38 H 0.28669 0.55541 0.37093 0.0
Co39 Co 0.33444 0.53666 0.41564 0.0
C40 C 0.3624 0.4761 0.43863 0.0
O41 O 0.36457 0.49104 0.4607 0.0
N42 N 0.37355 0.5533 0.43029 0.0
C43 C 0.42682 0.56522 0.43719 0.0
C44 C 0.4051 0.54371 0.42545 0.0
C45 C 0.37675 0.58044 0.44514 0.0
N46 N 0.40884 0.5882 0.4496 0.0
O47 O 0.31279 0.53614 0.44794 0.0
H48 H 0.4119 0.52323 0.41325 0.0
H49 H 0.3561 0.59545 0.45146 0.0
O50 O 0.35034 0.49163 0.4197 0.0
C51 C 0.29545 0.56245 0.45011 0.0
O52 O 0.29731 0.58481 0.43199 0.0
N53 N 0.35408 0.53974 0.38361 0.0
C54 C 0.3811 0.55236 0.33588 0.0
C55 C 0.37475 0.51964 0.34381 0.0
C56 C 0.36095 0.51383 0.36777 0.0
C57 C 0.35986 0.5716 0.37617 0.0
C58 C 0.37357 0.57847 0.3525 0.0
H59 H 0.35522 0.48867 0.3733 0.0
H60 H 0.35366 0.59185 0.38878 0.0
H61 H 0.28096 0.48189 0.42696 0.0
H62 H 0.22894 0.52443 0.36599 0.0
H63 H 0.45367 0.5645 0.43623 0.0
H64 H 0.37963 0.4988 0.33139 0.0
H65 H 0.3783 0.60406 0.34732 0.0
C66 C 0.97141 0.28023 0.38587 0.0
C67 C 0.98629 0.24978 0.38261 0.0
N68 N 0.0149 0.24957 0.39582 0.0
N69 N 0.99054 0.29901 0.40115 0.0
C70 C 0.01704 0.27976 0.40678 0.0
H71 H 0.94713 0.28743 0.37903 0.0
Co72 Co 0.97649 0.33769 0.41679 0.0
C73 C 0.03888 0.36463 0.43737 0.0
O74 O 0.02534 0.36571 0.46001 0.0
N75 N 0.96141 0.37659 0.43268 0.0
C76 C 0.95005 0.42989 0.43981 0.0
C77 C 0.9714 0.40806 0.42803 0.0
C78 C 0.93419 0.37996 0.44747 0.0
N79 N 0.92672 0.41208 0.45203 0.0
O80 O 0.98014 0.31512 0.44863 0.0
H81 H 0.99172 0.41476 0.41562 0.0
H82 H 0.91866 0.35947 0.45334 0.0
O83 O 0.02213 0.35337 0.41874 0.0
C84 C 0.95446 0.29778 0.45361 0.0
O85 O 0.92857 0.29997 0.43857 0.0
N86 N 0.97081 0.35788 0.38515 0.0
C87 C 0.95539 0.38455 0.33779 0.0
C88 C 0.9884 0.37698 0.34421 0.0
C89 C 0.99562 0.36347 0.36802 0.0
C90 C 0.93863 0.3647 0.37917 0.0
C91 C 0.93038 0.37826 0.35569 0.0
H92 H 0.02097 0.35687 0.37238 0.0
H93 H 0.91916 0.35914 0.39266 0.0
H94 H 0.03593 0.28658 0.42042 0.0
H95 H 0.97613 0.22884 0.37235 0.0
H96 H 0.95089 0.45672 0.43874 0.0
H97 H 0.00847 0.38132 0.33094 0.0
H98 H 0.90449 0.3829 0.35137 0.0
C99 C 0.2368 0.97725 0.38081 0.0
C100 C 0.26702 0.99304 0.37879 0.0
N101 N 0.26761 0.01859 0.39531 0.0
N102 N 0.21818 0.99299 0.3983 0.0
C103 C 0.23753 0.01811 0.40671 0.0
H104 H 0.22952 0.95472 0.37114 0.0
Co105 Co 0.17905 0.97741 0.4129 0.0
C106 C 0.13287 0.03335 0.40599 0.0
O107 O 0.11139 0.01198 0.39671 0.0
N108 N 0.14034 0.96064 0.42925 0.0
C109 C 0.09884 0.95488 0.45692 0.0
C110 C 0.11964 0.97703 0.44506 0.0
C111 C 0.13254 0.92827 0.4331 0.0
N112 N 0.1069 0.92395 0.44941 0.0
O113 O 0.19935 0.98249 0.44538 0.0
H114 H 0.12111 1.00316 0.44952 0.0
H115 H 0.14726 0.90815 0.42575 0.0
O116 O 0.16121 0.0233 0.41401 0.0
C117 C 0.21379 0.95553 0.45154 0.0
O118 O 0.2096 0.92943 0.43694 0.0
N119 N 0.16111 0.97011 0.37989 0.0
C120 C 0.13935 0.95494 0.33073 0.0
C121 C 0.15034 0.98705 0.33685 0.0
C122 C 0.16163 0.99396 0.36138 0.0
C123 C 0.1526 0.93839 0.37366 0.0
C124 C 0.14073 0.9305 0.34962 0.0
H125 H 0.17133 0.01844 0.36537 0.0
H126 H 0.15626 0.9185 0.38685 0.0
H127 H 0.23061 0.03411 0.42232 0.0
H128 H 0.28738 0.98548 0.3667 0.0
H129 H 0.08101 0.96117 0.47149 0.0
H130 H 0.15113 0.00648 0.32268 0.0
H131 H 0.13308 0.90518 0.34592 0.0
C132 C 0.02834 0.76859 0.12031 0.0
C133 C 0.01322 0.73795 0.12202 0.0
N134 N 0.99149 0.73499 0.10276 0.0
N135 N 0.01613 0.78518 0.1001 0.0
C136 C 0.99381 0.76382 0.08984 0.0
H137 H 0.04776 0.7773 0.1327 0.0
Co138 Co 0.02967 0.82551 0.08456 0.0
C139 C 0.9586 0.835 0.09754 0.0
O140 O 0.96389 0.81803 0.11843 0.0
N141 N 0.04405 0.86417 0.0685 0.0
C142 C 0.04861 0.91081 0.04626 0.0
C143 C 0.02674 0.88903 0.05759 0.0
C144 C 0.07622 0.87154 0.06385 0.0
N145 N 0.07977 0.89972 0.0502 0.0
O146 O 0.02726 0.80349 0.05252 0.0
H147 H 0.99999 0.89092 0.05721 0.0
H148 H 0.09662 0.85568 0.06945 0.0
O149 O 0.98273 0.83997 0.0821 0.0
C150 C 0.05441 0.78759 0.04984 0.0
O151 O 0.07763 0.79188 0.06704 0.0
N152 N 0.03576 0.84685 0.11593 0.0
C153 C 0.05625 0.8781 0.16041 0.0
C154 C 0.02614 0.88684 0.14893 0.0
C155 C 0.01682 0.87166 0.12617 0.0
C156 C 0.06584 0.83935 0.1263 0.0
C157 C 0.07647 0.85443 0.14865 0.0
H158 H 0.99509 0.88089 0.1166 0.0
H159 H 0.08186 0.82161 0.11694 0.0
H160 H 0.98027 0.76897 0.07256 0.0
H161 H 0.0182 0.71916 0.13618 0.0
H162 H 0.04203 0.93279 0.03556 0.0
H163 H 0.01053 0.90601 0.15703 0.0
H164 H 0.10023 0.84752 0.15672 0.0
C165 C 0.72987 0.02757 0.12281 0.0
C166 C 0.75804 0.00915 0.12741 0.0
N167 N 0.76064 0.98553 0.10938 0.0
N168 N 0.71447 0.01541 0.10215 0.0
C169 C 0.73366 0.98978 0.09449 0.0
H170 H 0.72199 0.0493 0.13323 0.0
Co171 Co 0.67941 0.034 0.08412 0.0
C172 C 0.62832 0.98188 0.08106 0.0
O173 O 0.60627 0.00531 0.08534 0.0
N174 N 0.64471 0.05313 0.06455 0.0
C175 C 0.61273 0.06124 0.03069 0.0
C176 C 0.63432 0.0399 0.0424 0.0
C177 C 0.62944 0.08312 0.06544 0.0
N178 N 0.60967 0.08862 0.04513 0.0
O179 O 0.70503 0.02875 0.05378 0.0
H180 H 0.64318 0.0167 0.0346 0.0
H181 H 0.63389 0.10148 0.07984 0.0
O182 O 0.65926 0.98945 0.08005 0.0
C183 C 0.71684 0.05573 0.04496 0.0
O184 O 0.70816 0.084 0.05546 0.0
N185 N 0.65646 0.04139 0.11491 0.0
C186 C 0.62827 0.05839 0.16152 0.0
C187 C 0.63173 0.025 0.15448 0.0
C188 C 0.64656 0.01698 0.13131 0.0
C189 C 0.65578 0.07371 0.12249 0.0
C190 C 0.64097 0.08289 0.14534 0.0
H191 H 0.65092 0.99114 0.12707 0.0
H192 H 0.66803 0.09243 0.1112 0.0
H193 H 0.72896 0.97591 0.07731 0.0
H194 H 0.77565 0.01352 0.14253 0.0
H195 H 0.60207 0.05776 0.01206 0.0
H196 H 0.62339 0.00523 0.16687 0.0
H197 H 0.6406 0.10884 0.15072 0.0
C198 C 0.48455 0.72753 0.1232 0.0
C199 C 0.50211 0.75652 0.12679 0.0
N200 N 0.52471 0.75939 0.10802 0.0
N201 N 0.4962 0.71209 0.10238 0.0
C202 C 0.52067 0.73197 0.09362 0.0
H203 H 0.46368 0.71903 0.13438 0.0
Co204 Co 0.47885 0.67486 0.08623 0.0
C205 C 0.53897 0.64794 0.06159 0.0
O206 O 0.52416 0.6476 0.03942 0.0
N207 N 0.46147 0.63741 0.06998 0.0
C208 C 0.44942 0.5848 0.061 0.0
C209 C 0.47123 0.60559 0.07327 0.0
C210 C 0.43391 0.63537 0.05548 0.0
N211 N 0.42606 0.60363 0.04981 0.0
O212 O 0.47893 0.6993 0.05486 0.0
H213 H 0.49204 0.5979 0.08483 0.0
H214 H 0.4188 0.65654 0.05034 0.0
O215 O 0.52346 0.65862 0.08099 0.0
C216 C 0.45413 0.71902 0.05533 0.0
O217 O 0.43318 0.71649 0.07437 0.0
N218 N 0.47595 0.65268 0.11729 0.0
C219 C 0.46336 0.62214 0.16375 0.0
C220 C 0.49608 0.62927 0.15619 0.0
C221 C 0.50189 0.64466 0.13279 0.0
C222 C 0.44407 0.6465 0.12455 0.0
C223 C 0.43723 0.63101 0.14755 0.0
H224 H 0.52707 0.65068 0.12742 0.0
H225 H 0.42378 0.65393 0.11237 0.0
H226 H 0.5344 0.72693 0.07642 0.0
H227 H 0.49727 0.77493 0.14126 0.0
H228 H 0.45019 0.55793 0.06078 0.0
H229 H 0.51694 0.62306 0.16825 0.0
H230 H 0.41158 0.62679 0.15289 0.0
C231 C 0.7728 0.47259 0.11752 0.0
C232 C 0.74306 0.48928 0.11949 0.0
N233 N 0.74232 0.5133 0.10167 0.0
N234 N 0.79082 0.48616 0.09866 0.0
C235 C 0.77178 0.51105 0.08953 0.0
H236 H 0.78006 0.45087 0.12822 0.0
Co237 Co 0.82897 0.4689 0.08395 0.0
C238 C 0.85839 0.52981 0.06174 0.0
O239 O 0.85889 0.51611 0.03915 0.0
N240 N 0.86713 0.45089 0.06904 0.0
C241 C 0.9194 0.43927 0.05852 0.0
C242 C 0.89884 0.46174 0.07042 0.0
C243 C 0.86914 0.42156 0.05674 0.0
N244 N 0.90062 0.4139 0.05009 0.0
O245 O 0.80724 0.47143 0.05159 0.0
H246 H 0.90674 0.484 0.08017 0.0
H247 H 0.84796 0.40579 0.05304 0.0
O248 O 0.84676 0.51358 0.08051 0.0
C249 C 0.7881 0.44681 0.04744 0.0
O250 O 0.78722 0.42242 0.06395 0.0
N251 N 0.84861 0.46434 0.1159 0.0
C252 C 0.87455 0.45058 0.1638 0.0
C253 C 0.86934 0.48351 0.15595 0.0
C254 C 0.85606 0.48989 0.13193 0.0
C255 C 0.85334 0.43227 0.12323 0.0
C256 C 0.86646 0.42482 0.147 0.0
H257 H 0.85108 0.51527 0.12657 0.0
H258 H 0.84658 0.41229 0.11054 0.0
H259 H 0.77836 0.52548 0.07297 0.0
H260 H 0.72309 0.48338 0.13247 0.0
H261 H 0.94617 0.44087 0.05698 0.0
H262 H 0.87462 0.50411 0.1685 0.0
H263 H 0.87025 0.39906 0.15216 0.0
C264 C 0.46821 0.7791 0.61561 0.0
C265 C 0.48365 0.74903 0.61946 0.0
N266 N 0.5125 0.74907 0.60651 0.0
N267 N 0.48727 0.7979 0.60028 0.0
C268 C 0.51425 0.77906 0.5952 0.0
H269 H 0.44348 0.78575 0.62182 0.0
Co270 Co 0.47263 0.83479 0.58265 0.0
C271 C 0.52691 0.88332 0.58545 0.0
O272 O 0.50402 0.90556 0.59076 0.0
N273 N 0.45694 0.87135 0.56313 0.0
C274 C 0.45369 0.90633 0.5304 0.0
C275 C 0.47388 0.88497 0.54355 0.0
C276 C 0.42591 0.88408 0.56064 0.0
N277 N 0.42341 0.90568 0.54113 0.0
O278 O 0.48012 0.8106 0.55197 0.0
H279 H 0.49889 0.87828 0.53811 0.0
H280 H 0.40453 0.8753 0.57094 0.0
O281 O 0.51837 0.85301 0.58175 0.0
C282 C 0.45412 0.79851 0.54181 0.0
O283 O 0.4249 0.8072 0.5507 0.0
N284 N 0.46352 0.85622 0.61401 0.0
C285 C 0.44605 0.87952 0.66239 0.0
C286 C 0.47918 0.87189 0.6564 0.0
C287 C 0.48729 0.85987 0.63234 0.0
C288 C 0.43102 0.86142 0.62006 0.0
C289 C 0.42185 0.87412 0.64367 0.0
H290 H 0.51257 0.85209 0.6289 0.0
H291 H 0.41174 0.85382 0.60722 0.0
H292 H 0.53298 0.78576 0.58139 0.0
H293 H 0.47351 0.72798 0.62963 0.0
H294 H 0.46036 0.91992 0.51344 0.0
H295 H 0.49865 0.8738 0.67047 0.0
H296 H 0.39581 0.87884 0.64729 0.0
C297 C 0.7328 0.47165 0.61188 0.0
C298 C 0.76317 0.48643 0.61587 0.0
N299 N 0.76352 0.51573 0.60354 0.0
N300 N 0.71417 0.49158 0.59711 0.0
C301 C 0.73344 0.51839 0.59248 0.0
H302 H 0.72572 0.44687 0.61766 0.0
Co303 Co 0.67667 0.47822 0.57968 0.0
C304 C 0.62997 0.53406 0.58469 0.0
O305 O 0.60697 0.51223 0.59063 0.0
N306 N 0.63938 0.46376 0.56054 0.0
C307 C 0.60185 0.46122 0.52948 0.0
C308 C 0.6237 0.48137 0.54229 0.0
C309 C 0.62748 0.43253 0.55751 0.0
N310 N 0.60429 0.43039 0.53909 0.0
O311 O 0.70053 0.48586 0.54885 0.0
H312 H 0.62915 0.50688 0.53743 0.0
H313 H 0.6379 0.41095 0.56658 0.0
O314 O 0.65959 0.52443 0.57958 0.0
C315 C 0.71266 0.45976 0.53884 0.0
O316 O 0.70376 0.43067 0.54782 0.0
N317 N 0.65552 0.46874 0.61114 0.0
C318 C 0.62866 0.45068 0.65813 0.0
C319 C 0.63777 0.48367 0.6532 0.0
C320 C 0.65197 0.49199 0.62987 0.0
C321 C 0.64953 0.43618 0.61654 0.0
C322 C 0.63528 0.4267 0.63956 0.0
H323 H 0.66062 0.51712 0.6271 0.0
H324 H 0.65746 0.41711 0.60364 0.0
H325 H 0.72689 0.53779 0.57918 0.0
H326 H 0.7841 0.47565 0.62578 0.0
H327 H 0.58656 0.46844 0.51355 0.0
H328 H 0.63421 0.50289 0.66729 0.0
H329 H 0.63073 0.40061 0.64316 0.0
C330 C 0.03267 0.73628 0.62021 0.0
C331 C 0.01603 0.76598 0.62278 0.0
N332 N 0.99123 0.7669 0.60559 0.0
N333 N 0.01825 0.71842 0.60165 0.0
C334 C 0.993 0.73756 0.59327 0.0
H335 H 0.05503 0.72906 0.63015 0.0
Co336 Co 0.03508 0.68093 0.58537 0.0
C337 C 0.97963 0.63358 0.58951 0.0
O338 O 1.00119 0.61158 0.59774 0.0
N339 N 0.05267 0.64401 0.56743 0.0
C340 C 0.0585 0.60458 0.53806 0.0
C341 C 0.03636 0.6246 0.55059 0.0
C342 C 0.08508 0.63645 0.56346 0.0
N343 N 0.08926 0.61209 0.54612 0.0
O344 O 0.03106 0.70401 0.55379 0.0
H345 H 0.01027 0.62634 0.54607 0.0
H346 H 0.10549 0.65065 0.57114 0.0
O347 O 0.9894 0.66263 0.5829 0.0
C348 C 0.0569 0.72225 0.5523 0.0
O349 O 0.08013 0.71837 0.56957 0.0
N350 N 0.04192 0.66048 0.6175 0.0
C351 C 0.05716 0.63683 0.66604 0.0
C352 C 0.02466 0.64642 0.65989 0.0
C353 C 0.01772 0.6589 0.63573 0.0
C354 C 0.07388 0.65282 0.62371 0.0
C355 C 0.08192 0.6403 0.64756 0.0
H356 H 0.99299 0.66804 0.63188 0.0
H357 H 0.09376 0.65788 0.61072 0.0
H358 H 0.97806 0.73126 0.57692 0.0
H359 H 0.02264 0.7859 0.63559 0.0
H360 H 0.05244 0.58704 0.52323 0.0
H361 H 0.005 0.64542 0.67389 0.0
H362 H 0.10752 0.63392 0.65156 0.0
C363 C 0.78074 0.03113 0.61451 0.0
C364 C 0.75224 0.01343 0.6196 0.0
N365 N 0.75 0.98821 0.60286 0.0
N366 N 0.79657 0.01699 0.5948 0.0
C367 C 0.77731 0.99095 0.5881 0.0
H368 H 0.7888 0.05354 0.62398 0.0
Co369 Co 0.83404 0.03295 0.57823 0.0
C370 C 0.86182 0.97081 0.55699 0.0
O371 O 0.86313 0.98362 0.53411 0.0
N372 N 0.87175 0.04944 0.56151 0.0
C373 C 0.92453 0.0623 0.5535 0.0
C374 C 0.9036 0.03993 0.56513 0.0
C375 C 0.87396 0.0774 0.54742 0.0
N376 N 0.90576 0.08575 0.54236 0.0
O377 O 0.81035 0.02953 0.54688 0.0
H378 H 0.91123 0.01927 0.57687 0.0
H379 H 0.85293 0.09277 0.54251 0.0
O380 O 0.85053 0.98806 0.57529 0.0
C381 C 0.79214 0.0548 0.54274 0.0
O382 O 0.79339 0.07992 0.55857 0.0
N383 N 0.85577 0.03818 0.60931 0.0
C384 C 0.88657 0.05196 0.65539 0.0
C385 C 0.87791 0.01927 0.64895 0.0
C386 C 0.86237 0.01288 0.62579 0.0
C387 C 0.86338 0.07013 0.61546 0.0
C388 C 0.87909 0.07756 0.6383 0.0
H389 H 0.85509 0.98774 0.6214 0.0
H390 H 0.85703 0.09001 0.60255 0.0
H391 H 0.78276 0.97497 0.57215 0.0
H392 H 0.73373 0.01975 0.63368 0.0
H393 H 0.95141 0.0621 0.55399 0.0
H394 H 0.88303 0.99884 0.66171 0.0
H395 H 0.88457 0.10322 0.64279 0.0
C396 C 0.98227 0.22973 0.87203 0.0
C397 C 1.00083 0.25819 0.86914 0.0
N398 N 0.02355 0.25946 0.88791 0.0
N399 N 0.99336 0.21298 0.89243 0.0
C400 C 0.01851 0.23159 0.90166 0.0
H401 H 0.9611 0.2225 0.8607 0.0
Co402 Co 0.97426 0.17573 0.90738 0.0
C403 C 0.03188 0.14522 0.9327 0.0
O404 O 0.01569 0.14416 0.95431 0.0
N405 N 0.95497 0.13822 0.92241 0.0
C406 C 0.94067 0.0858 0.93012 0.0
C407 C 0.96307 0.10617 0.918 0.0
C408 C 0.92781 0.13672 0.93741 0.0
N409 N 0.91863 0.10512 0.94233 0.0
O410 O 0.97399 0.19887 0.93916 0.0
H411 H 0.98331 0.09811 0.90599 0.0
H412 H 0.91405 0.15827 0.94367 0.0
O413 O 0.01804 0.15773 0.9132 0.0
C414 C 0.94942 0.21886 0.93867 0.0
O415 O 0.92905 0.21723 0.91923 0.0
N416 N 0.97183 0.15506 0.87582 0.0
C417 C 0.95983 0.12965 0.82761 0.0
C418 C 0.99251 0.1337 0.83644 0.0
C419 C 0.99803 0.14673 0.86067 0.0
C420 C 0.94003 0.15112 0.86761 0.0
C421 C 0.93345 0.1382 0.8437 0.0
H422 H 0.02323 0.15099 0.86688 0.0
H423 H 0.91961 0.15851 0.8797 0.0
H424 H 0.03199 0.2253 0.91872 0.0
H425 H 0.99657 0.27736 0.85514 0.0
H426 H 0.94029 0.05892 0.92971 0.0
H427 H 0.01357 0.12787 0.82446 0.0
H428 H 0.90786 0.13514 0.83781 0.0
C429 C 0.26948 0.97184 0.88023 0.0
C430 C 0.23904 0.98725 0.87826 0.0
N431 N 0.23583 0.00863 0.89771 0.0
N432 N 0.28569 0.9836 0.90078 0.0
C433 C 0.26428 0.00582 0.91102 0.0
H434 H 0.27829 0.95257 0.86776 0.0
Co435 Co 0.32546 0.96978 0.91665 0.0
C436 C 0.33548 0.0415 0.90486 0.0
O437 O 0.31837 0.03706 0.88393 0.0
N438 N 0.36361 0.95503 0.93307 0.0
C439 C 0.40767 0.94968 0.95794 0.0
C440 C 0.38608 0.97189 0.9469 0.0
C441 C 0.37209 0.9228 0.93585 0.0
N442 N 0.39883 0.91857 0.95111 0.0
O443 O 0.30253 0.9718 0.94854 0.0
H444 H 0.38597 0.99842 0.94987 0.0
H445 H 0.35798 0.90288 0.92735 0.0
O446 O 0.34027 0.01679 0.9198 0.0
C447 C 0.28682 0.94464 0.95188 0.0
O448 O 0.29174 0.92055 0.9355 0.0
N449 N 0.34742 0.96427 0.88533 0.0
C450 C 0.37595 0.94732 0.83893 0.0
C451 C 0.38528 0.97659 0.85136 0.0
C452 C 0.37153 0.98408 0.87504 0.0
C453 C 0.33993 0.93463 0.87424 0.0
C454 C 0.35366 0.92576 0.85092 0.0
H455 H 0.38093 0.00542 0.88503 0.0
H456 H 0.32271 0.91793 0.88349 0.0
H457 H 0.26915 0.01904 0.92848 0.0
H458 H 0.22058 0.98274 0.86376 0.0
H459 H 0.42717 0.95617 0.97112 0.0
H460 H 0.40353 0.99314 0.84308 0.0
H461 H 0.34643 0.90256 0.84212 0.0
C462 C 0.52478 0.27147 0.87451 0.0
C463 C 0.50734 0.24228 0.87195 0.0
N464 N 0.4856 0.23973 0.89134 0.0
N465 N 0.51392 0.28768 0.89524 0.0
C466 C 0.49001 0.26781 0.90505 0.0
H467 H 0.5448 0.27983 0.8624 0.0
Co468 Co 0.53225 0.32609 0.90958 0.0
C469 C 0.47271 0.35713 0.93218 0.0
O470 O 0.48752 0.35936 0.9543 0.0
N471 N 0.55099 0.3644 0.92405 0.0
C472 C 0.56552 0.41698 0.93098 0.0
C473 C 0.54307 0.39635 0.9191 0.0
C474 C 0.57813 0.36627 0.93909 0.0
N475 N 0.58747 0.39794 0.94357 0.0
O476 O 0.53092 0.30489 0.94201 0.0
H477 H 0.52299 0.40414 0.90685 0.0
H478 H 0.59185 0.34488 0.94567 0.0
O479 O 0.48801 0.34413 0.91351 0.0
C480 C 0.55606 0.2857 0.94296 0.0
O481 O 0.5771 0.28642 0.92388 0.0
N482 N 0.53635 0.34525 0.87746 0.0
C483 C 0.55098 0.36937 0.82918 0.0
C484 C 0.51785 0.36596 0.83722 0.0
C485 C 0.51101 0.35357 0.86149 0.0
C486 C 0.56857 0.34849 0.86999 0.0
C487 C 0.57645 0.36068 0.84604 0.0
H488 H 0.48547 0.34994 0.8671 0.0
H489 H 0.58831 0.34121 0.88274 0.0
H490 H 0.47729 0.2732 0.92263 0.0
H491 H 0.51086 0.22421 0.85704 0.0
H492 H 0.56597 0.44384 0.93014 0.0
H493 H 0.49745 0.37193 0.82466 0.0
H494 H 0.60234 0.36324 0.84079 0.0
C495 C 0.23304 0.5265 0.87791 0.0
C496 C 0.26235 0.50952 0.87421 0.0
N497 N 0.26464 0.48546 0.89191 0.0
N498 N 0.21673 0.51305 0.89771 0.0
C499 C 0.23641 0.4879 0.90563 0.0
H500 H 0.2253 0.54858 0.86787 0.0
Co501 Co 0.18135 0.53119 0.91571 0.0
C502 C 0.13045 0.47891 0.91867 0.0
O503 O 0.10832 0.50232 0.91464 0.0
N504 N 0.1464 0.54997 0.93529 0.0
C505 C 0.11449 0.55791 0.96924 0.0
C506 C 0.13652 0.5369 0.95764 0.0
C507 C 0.13022 0.57947 0.93409 0.0
N508 N 0.11049 0.5849 0.95448 0.0
O509 O 0.20683 0.52569 0.94603 0.0
H510 H 0.14596 0.51402 0.96561 0.0
H511 H 0.13389 0.59747 0.9193 0.0
O512 O 0.1614 0.48651 0.91948 0.0
C513 C 0.21875 0.55253 0.95497 0.0
O514 O 0.20969 0.58098 0.94494 0.0
N515 N 0.15865 0.53885 0.88491 0.0
C516 C 0.13138 0.55653 0.83811 0.0
C517 C 0.13408 0.52306 0.84518 0.0
C518 C 0.14852 0.51469 0.86841 0.0
C519 C 0.15852 0.57123 0.87742 0.0
C520 C 0.14429 0.58073 0.85446 0.0
H521 H 0.1524 0.48876 0.87262 0.0
H522 H 0.17071 0.58973 0.88896 0.0
H523 H 0.23148 0.47361 0.9226 0.0
H524 H 0.28119 0.51553 0.86031 0.0
H525 H 0.1041 0.5544 0.98796 0.0
H526 H 0.12548 0.50345 0.83276 0.0
H527 H 0.14449 0.60672 0.84915 0.0
C528 C 0.29117 0.07104 0.412 0.0
C529 C 0.29579 0.03918 0.40181 0.0
C530 C 0.31844 0.09113 0.4186 0.0
C531 C 0.35115 0.07909 0.41496 0.0
C532 C 0.35597 0.04685 0.40491 0.0
C533 C 0.32831 0.02734 0.3985 0.0
C534 C 0.31226 0.12534 0.42929 0.0
C535 C 0.39041 0.03293 0.40087 0.0
C536 C 0.42406 0.1384 0.40746 0.0
C537 C 0.43975 0.1359 0.43113 0.0
C538 C 0.3947 0.12084 0.40222 0.0
C539 C 0.3805 0.10027 0.42111 0.0
C540 C 0.39551 0.09854 0.44535 0.0
C541 C 0.42492 0.11639 0.45008 0.0
C542 C 0.37948 0.12346 0.37615 0.0
C543 C 0.38111 0.07693 0.46602 0.0
H544 H 0.2662 0.08048 0.41449 0.0
H545 H 0.33223 1.00253 0.3912 0.0
H546 H 0.32443 0.12779 0.44805 0.0
H547 H 0.32339 0.14437 0.41667 0.0
H548 H 0.28535 0.13077 0.43148 0.0
H549 H 0.38993 0.00733 0.39304 0.0
H550 H 0.40451 0.04908 0.38764 0.0
H551 H 0.40418 0.03256 0.41907 0.0
H552 H 0.43504 0.15366 0.39277 0.0
H553 H 0.43677 0.11429 0.46844 0.0
H554 H 0.35291 0.13051 0.37762 0.0
H555 H 0.38056 0.09894 0.36659 0.0
H556 H 0.39244 0.14198 0.36405 0.0
H557 H 0.35441 0.08269 0.46884 0.0
H558 H 0.39427 0.08016 0.48435 0.0
H559 H 0.38277 0.05044 0.46038 0.0
C560 C 0.399 0.42918 0.45296 0.0
C561 C 0.37778 0.44298 0.43467 0.0
C562 C 0.41639 0.39953 0.44817 0.0
C563 C 0.41237 0.38325 0.42458 0.0
C564 C 0.39 0.39637 0.40647 0.0
C565 C 0.37298 0.426 0.41174 0.0
C566 C 0.43998 0.38628 0.46799 0.0
C567 C 0.3849 0.37975 0.38112 0.0
C568 C 0.48288 0.33011 0.39907 0.0
C569 C 0.4714 0.29781 0.4039 0.0
C570 C 0.46411 0.35804 0.40601 0.0
C571 C 0.43301 0.35369 0.41812 0.0
C572 C 0.4214 0.32119 0.42334 0.0
C573 C 0.44073 0.29366 0.41618 0.0
C574 C 0.47754 0.39226 0.40026 0.0
C575 C 0.3884 0.31552 0.43624 0.0
H576 H 0.40288 0.44208 0.47073 0.0
H577 H 0.35633 0.43619 0.39762 0.0
H578 H 0.43451 0.35978 0.47199 0.0
H579 H 0.46586 0.38756 0.46079 0.0
H580 H 0.43854 0.40045 0.48601 0.0
H581 H 0.36516 0.39198 0.36975 0.0
H582 H 0.40841 0.38041 0.37014 0.0
H583 H 0.37816 0.35327 0.38382 0.0
H584 H 0.50683 0.33365 0.39013 0.0
H585 H 0.4316 0.26882 0.41987 0.0
H586 H 0.47964 0.40686 0.41801 0.0
H587 H 0.46012 0.40571 0.38761 0.0
H588 H 0.50233 0.39141 0.39102 0.0
H589 H 0.38778 0.32873 0.45467 0.0
H590 H 0.38335 0.28875 0.43962 0.0
H591 H 0.36808 0.32586 0.42444 0.0
C592 C 0.08769 0.37673 0.40922 0.0
C593 C 0.07184 0.38021 0.43277 0.0
C594 C 0.11743 0.39363 0.40382 0.0
C595 C 0.13167 0.41472 0.42234 0.0
C596 C 0.11634 0.41759 0.44641 0.0
C597 C 0.08672 0.40022 0.45136 0.0
C598 C 0.13308 0.38966 0.37799 0.0
C599 C 0.13062 0.43994 0.46665 0.0
C600 C 0.22162 0.44294 0.4146 0.0
C601 C 0.21766 0.47444 0.40363 0.0
C602 C 0.19393 0.42315 0.42075 0.0
C603 C 0.16147 0.43525 0.41602 0.0
C604 C 0.15734 0.46713 0.40514 0.0
C605 C 0.18542 0.48624 0.39902 0.0
C606 C 0.19941 0.38924 0.43219 0.0
C607 C 0.1232 0.48118 0.40005 0.0
H608 H 0.07659 0.36112 0.3948 0.0
H609 H 0.07469 0.40314 0.4696 0.0
H610 H 0.13237 0.41372 0.36775 0.0
H611 H 0.15957 0.38249 0.37992 0.0
H612 H 0.12019 0.37068 0.36631 0.0
H613 H 0.11683 0.43801 0.48483 0.0
H614 H 0.15706 0.43367 0.47012 0.0
H615 H 0.12981 0.46614 0.46015 0.0
H616 H 0.24643 0.43359 0.41805 0.0
H617 H 0.18207 0.51077 0.39103 0.0
H618 H 0.18808 0.36994 0.41993 0.0
H619 H 0.18698 0.38769 0.45092 0.0
H620 H 0.22619 0.38344 0.43468 0.0
H621 H 0.10937 0.46458 0.38701 0.0
H622 H 0.12422 0.5064 0.39155 0.0
H623 H 0.10884 0.48251 0.41797 0.0
C624 C 0.12451 0.08793 0.42779 0.0
C625 C 0.12395 0.06881 0.40565 0.0
C626 C 0.11 0.11978 0.42824 0.0
C627 C 0.09543 0.13281 0.40587 0.0
C628 C 0.09697 0.11425 0.38311 0.0
C629 C 0.11075 0.0823 0.3834 0.0
C630 C 0.10836 0.13851 0.45296 0.0
C631 C 0.08242 0.12735 0.3587 0.0
C632 C 0.02111 0.19061 0.40671 0.0
C633 C 0.03561 0.22117 0.40059 0.0
C634 C 0.04062 0.16209 0.41002 0.0
C635 C 0.07548 0.16401 0.4065 0.0
C636 C 0.09037 0.19514 0.40111 0.0
C637 C 0.07021 0.22351 0.39853 0.0
C638 C 0.02375 0.12967 0.41648 0.0
C639 C 0.1273 0.19818 0.3968 0.0
H640 H 0.13442 0.07721 0.44505 0.0
H641 H 0.11044 0.06741 0.36628 0.0
H642 H 0.11639 0.16463 0.45029 0.0
H643 H 0.08228 0.13907 0.45978 0.0
H644 H 0.12405 0.12689 0.46783 0.0
H645 H 0.08907 0.11163 0.34217 0.0
H646 H 0.05494 0.12819 0.36026 0.0
H647 H 0.09118 0.15305 0.35509 0.0
H648 H 0.99437 0.18909 0.40884 0.0
H649 H 0.08128 0.24727 0.39384 0.0
H650 H 0.03566 0.11829 0.43333 0.0
H651 H 0.02657 0.11197 0.40052 0.0
H652 H 0.99683 0.13289 0.42042 0.0
H653 H 0.14121 0.18609 0.41242 0.0
H654 H 0.13541 0.22448 0.3953 0.0
H655 H 0.13411 0.18516 0.37902 0.0
C656 C 0.81968 0.96999 0.11516 0.0
C657 C 0.78809 0.96296 0.10523 0.0
C658 C 0.84653 0.9483 0.11146 0.0
C659 C 0.84194 0.91884 0.09725 0.0
C660 C 0.8104 0.91185 0.08666 0.0
C661 C 0.78384 0.93387 0.09088 0.0
C662 C 0.87973 0.95665 0.12318 0.0
C663 C 0.80453 0.88078 0.0713 0.0
C664 C 0.92183 0.87671 0.07556 0.0
C665 C 0.92678 0.85343 0.09499 0.0
C666 C 0.89353 0.89727 0.07535 0.0
C667 C 0.86971 0.89449 0.09504 0.0
C668 C 0.87378 0.86988 0.11392 0.0
C669 C 0.9021 0.84963 0.11359 0.0
C670 C 0.88982 0.92292 0.05468 0.0
C671 C 0.84905 0.86603 0.13527 0.0
H672 H 0.82361 0.99263 0.12578 0.0
H673 H 0.7596 0.92794 0.08326 0.0
H674 H 0.88673 0.93716 0.13705 0.0
H675 H 0.8993 0.95719 0.10838 0.0
H676 H 0.8795 0.98102 0.13304 0.0
H677 H 0.7793 0.88016 0.06279 0.0
H678 H 0.82321 0.87888 0.0559 0.0
H679 H 0.80755 0.85859 0.08355 0.0
H680 H 0.9405 0.87963 0.06095 0.0
H681 H 0.9054 0.83153 0.12858 0.0
H682 H 0.89286 0.94813 0.06283 0.0
H683 H 0.86458 0.92166 0.04629 0.0
H684 H 0.90848 0.91962 0.03936 0.0
H685 H 0.84937 0.88864 0.14729 0.0
H686 H 0.85456 0.84419 0.14743 0.0
H687 H 0.82353 0.86336 0.12763 0.0
C688 C 0.55561 0.80892 0.12235 0.0
C689 C 0.54537 0.78789 0.10268 0.0
C690 C 0.57278 0.83854 0.1173 0.0
C691 C 0.58007 0.84736 0.09191 0.0
C692 C 0.57126 0.82549 0.07202 0.0
C693 C 0.55392 0.79608 0.07763 0.0
C694 C 0.5816 0.86121 0.13907 0.0
C695 C 0.57851 0.83392 0.0447 0.0
C696 C 0.58278 0.94005 0.07993 0.0
C697 C 0.61697 0.94684 0.08079 0.0
C698 C 0.57066 0.90764 0.08263 0.0
C699 C 0.59324 0.88114 0.08617 0.0
C700 C 0.62788 0.8875 0.08583 0.0
C701 C 0.63939 0.92037 0.08317 0.0
C702 C 0.53352 0.90202 0.08274 0.0
C703 C 0.65271 0.85977 0.08913 0.0
H704 H 0.5496 0.80251 0.14175 0.0
H705 H 0.54584 0.78029 0.06223 0.0
H706 H 0.60821 0.86827 0.13812 0.0
H707 H 0.56685 0.88442 0.13771 0.0
H708 H 0.57665 0.84957 0.15778 0.0
H709 H 0.57509 0.81217 0.03202 0.0
H710 H 0.56149 0.85391 0.03834 0.0
H711 H 0.60429 0.84328 0.04257 0.0
H712 H 0.56524 0.96027 0.0778 0.0
H713 H 0.66584 0.92539 0.08379 0.0
H714 H 0.52565 0.89243 0.10152 0.0
H715 H 0.52666 0.88307 0.06842 0.0
H716 H 0.51938 0.9251 0.07869 0.0
H717 H 0.65076 0.84954 0.10859 0.0
H718 H 0.67865 0.86828 0.08599 0.0
H719 H 0.64719 0.83922 0.07578 0.0
C720 C 0.58515 0.611 0.04636 0.0
C721 C 0.57185 0.63188 0.06508 0.0
C722 C 0.61439 0.59277 0.0508 0.0
C723 C 0.63071 0.59556 0.07449 0.0
C724 C 0.61814 0.61765 0.09301 0.0
C725 C 0.58895 0.63554 0.08807 0.0
C726 C 0.62701 0.56948 0.03055 0.0
C727 C 0.63482 0.62147 0.11847 0.0
C728 C 0.6818 0.52306 0.09907 0.0
C729 C 0.71443 0.53393 0.09471 0.0
C730 C 0.65441 0.54264 0.0922 0.0
C731 C 0.65967 0.57393 0.08063 0.0
C732 C 0.6925 0.5849 0.07583 0.0
C733 C 0.71948 0.56477 0.08292 0.0
C734 C 0.61979 0.52992 0.09751 0.0
C735 C 0.69913 0.61805 0.06346 0.0
H736 H 0.57212 0.60798 0.02855 0.0
H737 H 0.57915 0.65194 0.10252 0.0
H738 H 0.65403 0.57314 0.02746 0.0
H739 H 0.6234 0.54341 0.03681 0.0
H740 H 0.61387 0.57297 0.01224 0.0
H741 H 0.62309 0.64114 0.13021 0.0
H742 H 0.6335 0.59764 0.129 0.0
H743 H 0.66149 0.62758 0.11594 0.0
H744 H 0.67758 0.49898 0.1076 0.0
H745 H 0.74458 0.57341 0.07958 0.0
H746 H 0.6053 0.52879 0.07966 0.0
H747 H 0.60667 0.54724 0.11044 0.0
H748 H 0.61992 0.50483 0.10627 0.0
H749 H 0.686 0.61953 0.04502 0.0
H750 H 0.72605 0.62245 0.06021 0.0
H751 H 0.6893 0.63831 0.07557 0.0
C752 C 0.98233 0.67423 0.10231 0.0
C753 C 0.97148 0.70639 0.09632 0.0
C754 C 0.96329 0.64618 0.09593 0.0
C755 C 0.93248 0.65029 0.08336 0.0
C756 C 0.92137 0.68269 0.07723 0.0
C757 C 0.94103 0.7103 0.08371 0.0
C758 C 0.97622 0.61208 0.10261 0.0
C759 C 0.8886 0.68819 0.06399 0.0
C760 C 0.89745 0.57525 0.04833 0.0
C761 C 0.87527 0.56212 0.06627 0.0
C762 C 0.91584 0.60421 0.05345 0.0
C763 C 0.91175 0.62066 0.07698 0.0
C764 C 0.88863 0.6081 0.09482 0.0
C765 C 0.87078 0.57899 0.08929 0.0
C766 C 0.94038 0.61667 0.03399 0.0
C767 C 0.88328 0.62499 0.12003 0.0
H768 H 0.00603 0.67092 0.11167 0.0
H769 H 0.9323 0.73506 0.07925 0.0
H770 H 0.95834 0.59924 0.11528 0.0
H771 H 0.97863 0.59682 0.08521 0.0
H772 H 1.00076 0.61308 0.1122 0.0
H773 H 0.88362 0.71491 0.06036 0.0
H774 H 0.88832 0.67477 0.04564 0.0
H775 H 0.86806 0.67797 0.07565 0.0
H776 H 0.90121 0.56235 0.03054 0.0
H777 H 0.85348 0.56925 0.10317 0.0
H778 H 0.96589 0.61577 0.04192 0.0
H779 H 0.93508 0.64297 0.02922 0.0
H780 H 0.93984 0.60179 0.01628 0.0
H781 H 0.90661 0.62435 0.1312 0.0
H782 H 0.86328 0.61301 0.13131 0.0
H783 H 0.87676 0.65148 0.11709 0.0
C784 C 0.58823 0.87128 0.58785 0.0
C785 C 0.56213 0.89398 0.58475 0.0
C786 C 0.62138 0.88235 0.5896 0.0
C787 C 0.6284 0.91681 0.58802 0.0
C788 C 0.6022 0.93955 0.58378 0.0
C789 C 0.56948 0.92788 0.58231 0.0
C790 C 0.64867 0.85737 0.59407 0.0
C791 C 0.60854 0.97645 0.58164 0.0
C792 C 0.70164 0.95814 0.62025 0.0
C793 C 0.72208 0.96607 0.59959 0.0
C794 C 0.67211 0.94012 0.61696 0.0
C795 C 0.6626 0.92984 0.59235 0.0
C796 C 0.68404 0.93607 0.5716 0.0
C797 C 0.7136 0.95397 0.57549 0.0
C798 C 0.65011 0.93381 0.63965 0.0
C799 C 0.67482 0.92561 0.54506 0.0
H800 H 0.58268 0.84506 0.58976 0.0
H801 H 0.54949 0.94556 0.57957 0.0
H802 H 0.66923 0.86122 0.58037 0.0
H803 H 0.6591 0.86089 0.61333 0.0
H804 H 0.63963 0.83139 0.59238 0.0
H805 H 0.58565 0.9906 0.57699 0.0
H806 H 0.61859 0.98599 0.59981 0.0
H807 H 0.6274 0.98146 0.56678 0.0
H808 H 0.70839 0.96672 0.639 0.0
H809 H 0.72915 0.95988 0.55938 0.0
H810 H 0.64231 0.90739 0.64025 0.0
H811 H 0.62726 0.94909 0.63808 0.0
H812 H 0.66268 0.94004 0.65777 0.0
H813 H 0.6671 0.89916 0.54479 0.0
H814 H 0.69565 0.92909 0.53149 0.0
H815 H 0.65335 0.94053 0.53841 0.0
C816 C 0.6205 0.59023 0.56601 0.0
C817 C 0.62176 0.56947 0.58724 0.0
C818 C 0.60603 0.62201 0.56767 0.0
C819 C 0.59317 0.63317 0.59121 0.0
C820 C 0.5965 0.61289 0.61299 0.0
C821 C 0.61032 0.5811 0.61064 0.0
C822 C 0.60249 0.64264 0.54395 0.0
C823 C 0.58365 0.62392 0.63852 0.0
C824 C 0.56774 0.72312 0.60258 0.0
C825 C 0.53308 0.72071 0.6013 0.0
C826 C 0.5879 0.69502 0.59869 0.0
C827 C 0.57292 0.66412 0.59277 0.0
C828 C 0.53792 0.6621 0.59028 0.0
C829 C 0.51845 0.69033 0.59485 0.0
C830 C 0.62502 0.6981 0.60186 0.0
C831 C 0.52093 0.62993 0.58332 0.0
H832 H 0.62895 0.58087 0.54785 0.0
H833 H 0.61121 0.5648 0.627 0.0
H834 H 0.57595 0.64351 0.5383 0.0
H835 H 0.61057 0.66856 0.54745 0.0
H836 H 0.61713 0.63233 0.52793 0.0
H837 H 0.59169 0.60706 0.65402 0.0
H838 H 0.59237 0.64943 0.64288 0.0
H839 H 0.55609 0.62448 0.6382 0.0
H840 H 0.57891 0.74676 0.60746 0.0
H841 H 0.49165 0.68879 0.59325 0.0
H842 H 0.63804 0.68774 0.58511 0.0
H843 H 0.63305 0.68346 0.61858 0.0
H844 H 0.63299 0.72429 0.60453 0.0
H845 H 0.53178 0.61977 0.56562 0.0
H846 H 0.49375 0.63308 0.58055 0.0
H847 H 0.52497 0.61127 0.59848 0.0
C848 C 0.82262 0.52176 0.59283 0.0
C849 C 0.79208 0.53633 0.59895 0.0
C850 C 0.85108 0.54124 0.58906 0.0
C851 C 0.84911 0.57616 0.59205 0.0
C852 C 0.81805 0.59109 0.59755 0.0
C853 C 0.78975 0.57095 0.60063 0.0
C854 C 0.88345 0.52432 0.58254 0.0
C855 C 0.815 0.62812 0.60125 0.0
C856 C 0.93122 0.6125 0.61327 0.0
C857 C 0.94417 0.62486 0.59054 0.0
C858 C 0.89931 0.59866 0.6143 0.0
C859 C 0.88024 0.59624 0.59184 0.0
C860 C 0.89271 0.61 0.56897 0.0
C861 C 0.92457 0.62454 0.56865 0.0
C862 C 0.88684 0.58491 0.63918 0.0
C863 C 0.87337 0.60744 0.54457 0.0
H864 H 0.82414 0.49502 0.59091 0.0
H865 H 0.766 0.58208 0.60527 0.0
H866 H 0.8945 0.53577 0.56537 0.0
H867 H 0.90143 0.52766 0.59827 0.0
H868 H 0.88024 0.49729 0.5791 0.0
H869 H 0.78872 0.63615 0.60318 0.0
H870 H 0.82868 0.63554 0.6186 0.0
H871 H 0.82643 0.64157 0.58511 0.0
H872 H 0.94655 0.61281 0.63017 0.0
H873 H 0.9349 0.63377 0.55103 0.0
H874 H 0.88607 0.55739 0.6382 0.0
H875 H 0.86119 0.59367 0.64297 0.0
H876 H 0.90294 0.59219 0.65534 0.0
H877 H 0.87264 0.58113 0.53834 0.0
H878 H 0.88464 0.62257 0.52919 0.0
H879 H 0.84731 0.61556 0.54744 0.0
C880 C 0.87203 0.92287 0.58611 0.0
C881 C 0.8772 0.9381 0.56251 0.0
C882 C 0.88899 0.89375 0.59287 0.0
C883 C 0.9117 0.87934 0.57559 0.0
C884 C 0.91614 0.89386 0.55136 0.0
C885 C 0.89877 0.92303 0.54507 0.0
C886 C 0.88343 0.87904 0.61885 0.0
C887 C 0.94013 0.87921 0.53242 0.0
C888 C 0.98203 0.82756 0.60299 0.0
C889 C 0.97076 0.79502 0.59883 0.0
C890 C 0.96309 0.85512 0.59547 0.0
C891 C 0.93205 0.85016 0.58344 0.0
C892 C 0.92041 0.81743 0.57925 0.0
C893 C 0.93987 0.79029 0.58701 0.0
C894 C 0.97645 0.88962 0.60024 0.0
C895 C 0.88742 0.8111 0.56655 0.0
H896 H 0.85506 0.93404 0.59958 0.0
H897 H 0.90294 0.9346 0.5268 0.0
H898 H 0.87661 0.85243 0.61725 0.0
H899 H 0.90677 0.88039 0.62998 0.0
H900 H 0.86357 0.89215 0.62952 0.0
H901 H 0.9397 0.89255 0.514 0.0
H902 H 0.96573 0.88025 0.54014 0.0
H903 H 0.93418 0.85268 0.52904 0.0
H904 H 0.00607 0.83157 0.61164 0.0
H905 H 0.93082 0.76529 0.58393 0.0
H906 H 0.95867 0.90391 0.61204 0.0
H907 H 0.97922 0.90309 0.58202 0.0
H908 H 1.00092 0.88926 0.60997 0.0
H909 H 0.86714 0.82277 0.57765 0.0
H910 H 0.882 0.78418 0.56454 0.0
H911 H 0.88719 0.82264 0.54746 0.0
C912 C 0.17532 0.01896 0.89702 0.0
C913 C 0.20745 0.02899 0.90388 0.0
C914 C 0.14748 0.03849 0.90296 0.0
C915 C 0.15184 0.0689 0.91602 0.0
C916 C 0.18417 0.07908 0.92318 0.0
C917 C 0.21156 0.059 0.91704 0.0
C918 C 0.1134 0.02664 0.89513 0.0
C919 C 0.18987 0.11138 0.93702 0.0
C920 C 0.08311 0.13257 0.90767 0.0
C921 C 0.06428 0.12807 0.9298 0.0
C922 C 0.1121 0.11409 0.90328 0.0
C923 C 0.12259 0.09045 0.92145 0.0
C924 C 0.10434 0.08652 0.94421 0.0
C925 C 0.07544 0.10546 0.94816 0.0
C926 C 0.13095 0.11921 0.87884 0.0
C927 C 0.11475 0.06154 0.96402 0.0
H928 H 0.17186 0.99558 0.88725 0.0
H929 H 0.23632 0.0671 0.92217 0.0
H930 H 0.09705 0.02464 0.912 0.0
H931 H 0.10188 0.04495 0.88211 0.0
H932 H 0.11417 1.00213 0.8855 0.0
H933 H 0.21644 0.11528 0.94188 0.0
H934 H 0.18138 0.13246 0.92514 0.0
H935 H 0.17504 0.1119 0.95474 0.0
H936 H 0.0749 0.15023 0.8935 0.0
H937 H 0.06103 0.10175 0.96528 0.0
H938 H 0.13028 0.09607 0.86744 0.0
H939 H 0.15741 0.12478 0.88288 0.0
H940 H 0.12048 0.13974 0.86727 0.0
H941 H 0.11309 0.03608 0.95609 0.0
H942 H 0.09902 0.0628 0.98129 0.0
H943 H 0.14102 0.06569 0.96953 0.0
C944 C 0.37842 0.0771 0.92683 0.0
C945 C 0.35421 0.07316 0.90793 0.0
C946 C 0.39913 0.10535 0.92732 0.0
C947 C 0.39562 0.13015 0.90842 0.0
C948 C 0.3701 0.12705 0.89014 0.0
C949 C 0.3497 0.0988 0.8902 0.0
C950 C 0.42569 0.10796 0.94739 0.0
C951 C 0.36543 0.15276 0.86959 0.0
C952 C 0.43585 0.21582 0.91256 0.0
C953 C 0.46387 0.21193 0.89693 0.0
C954 C 0.41411 0.18912 0.91739 0.0
C955 C 0.42025 0.15779 0.90612 0.0
C956 C 0.44886 0.15348 0.89087 0.0
C957 C 0.47032 0.18041 0.88661 0.0
C958 C 0.38407 0.1947 0.93397 0.0
C959 C 0.45637 0.12056 0.87838 0.0
H960 H 0.38198 0.05766 0.94074 0.0
H961 H 0.33088 0.09632 0.87565 0.0
H962 H 0.4505 0.10472 0.93855 0.0
H963 H 0.42529 0.13293 0.95626 0.0
H964 H 0.42268 0.08888 0.96242 0.0
H965 H 0.343 0.14792 0.8579 0.0
H966 H 0.36329 0.17791 0.87798 0.0
H967 H 0.38748 0.15289 0.85695 0.0
H968 H 0.43038 0.23993 0.9206 0.0
H969 H 0.4922 0.17664 0.87506 0.0
H970 H 0.38245 0.17511 0.94871 0.0
H971 H 0.36117 0.19305 0.92235 0.0
H972 H 0.3846 0.21935 0.9434 0.0
H973 H 0.45729 0.10055 0.8928 0.0
H974 H 0.48032 0.12086 0.86792 0.0
H975 H 0.43623 0.1142 0.86488 0.0
C976 C 0.42257 0.36738 0.90519 0.0
C977 C 0.43975 0.3728 0.92796 0.0
C978 C 0.39285 0.3842 0.8998 0.0
C979 C 0.37983 0.40706 0.9176 0.0
C980 C 0.39642 0.41184 0.94099 0.0
C981 C 0.42615 0.39462 0.94591 0.0
C982 C 0.37591 0.37824 0.87468 0.0
C983 C 0.38343 0.43606 0.96046 0.0
C984 C 0.32549 0.4767 0.89205 0.0
C985 C 0.29338 0.46536 0.89783 0.0
C986 C 0.35373 0.45807 0.89851 0.0
C987 C 0.34992 0.42724 0.91109 0.0
C988 C 0.31762 0.41561 0.91702 0.0
C989 C 0.28977 0.4348 0.91034 0.0
C990 C 0.38771 0.47149 0.89194 0.0
C991 C 0.3125 0.38288 0.93041 0.0
H992 H 0.43261 0.35028 0.89132 0.0
H993 H 0.43921 0.39903 0.96354 0.0
H994 H 0.34953 0.3713 0.87773 0.0
H995 H 0.37613 0.40144 0.86333 0.0
H996 H 0.38817 0.35834 0.86351 0.0
H997 H 0.39722 0.43449 0.97864 0.0
H998 H 0.38573 0.46174 0.95304 0.0
H999 H 0.35669 0.4315 0.96421 0.0
H1000 H 0.32867 0.50055 0.8829 0.0
H1001 H 0.26509 0.42576 0.91475 0.0
H1002 H 0.40103 0.45365 0.87956 0.0
H1003 H 0.4027 0.47446 0.90943 0.0
H1004 H 0.38644 0.49585 0.8821 0.0
H1005 H 0.32327 0.36243 0.91898 0.0
H1006 H 0.28581 0.37744 0.93385 0.0
H1007 H 0.32566 0.38306 0.94888 0.0
C1008 C 0.14135 0.41749 0.91512 0.0
C1009 C 0.11913 0.44387 0.91881 0.0
C1010 C 0.12963 0.38477 0.91202 0.0
C1011 C 0.09497 0.37848 0.91257 0.0
C1012 C 0.07267 0.40482 0.91761 0.0
C1013 C 0.08502 0.43707 0.9207 0.0
C1014 C 0.15418 0.35719 0.90718 0.0
C1015 C 0.03554 0.39926 0.91854 0.0
C1016 C 0.05519 0.3091 0.8747 0.0
C1017 C 0.04524 0.28702 0.89381 0.0
C1018 C 0.07297 0.33812 0.88043 0.0
C1019 C 0.08138 0.34517 0.90592 0.0
C1020 C 0.07313 0.32208 0.92515 0.0
C1021 C 0.05501 0.29338 0.9189 0.0
C1022 C 0.08112 0.36214 0.85934 0.0
C1023 C 0.08177 0.32851 0.95254 0.0
H1024 H 0.16775 0.42253 0.91371 0.0
H1025 H 0.06767 0.45723 0.9239 0.0
H1026 H 0.14889 0.3357 0.91972 0.0
H1027 H 0.15169 0.34844 0.88734 0.0
H1028 H 0.18024 0.36534 0.91026 0.0
H1029 H 0.02173 0.4221 0.92386 0.0
H1030 H 0.02662 0.39087 0.8997 0.0
H1031 H 0.0294 0.37946 0.93238 0.0
H1032 H 0.04839 0.30409 0.85523 0.0
H1033 H 0.04729 0.27675 0.93391 0.0
H1034 H 0.10783 0.36889 0.85985 0.0
H1035 H 0.06667 0.38536 0.86196 0.0
H1036 H 0.07525 0.35182 0.84034 0.0
H1037 H 0.10759 0.33791 0.95429 0.0
H1038 H 0.07914 0.3058 0.96434 0.0
H1039 H 0.06496 0.34783 0.96029 0.0
C1040 C 0.54124 0.10198 0.29526 0.0
C1041 C 0.56068 0.12628 0.30724 0.0
C1042 C 0.54976 0.08985 0.27114 0.0
C1043 C 0.57847 0.1022 0.25879 0.0
C1044 C 0.59789 0.12705 0.27063 0.0
C1045 C 0.58866 0.13889 0.29459 0.0
C1046 C 0.52833 0.06352 0.25901 0.0
C1047 C 0.62867 0.14091 0.25809 0.0
C1048 C 0.62283 0.05133 0.20852 0.0
C1049 C 0.61341 0.0678 0.18625 0.0
C1050 C 0.61085 0.06165 0.23223 0.0
C1051 C 0.58873 0.08894 0.23366 0.0
C1052 C 0.57825 0.10493 0.21115 0.0
C1053 C 0.59085 0.09427 0.18773 0.0
C1054 C 0.62286 0.04417 0.25582 0.0
C1055 C 0.55444 0.13387 0.21187 0.0
H1056 H 0.51974 0.09192 0.30496 0.0
H1057 H 0.60343 0.15818 0.30342 0.0
H1058 H 0.52003 0.07186 0.24 0.0
H1059 H 0.543 0.04048 0.25628 0.0
H1060 H 0.50607 0.05752 0.27061 0.0
H1061 H 0.64101 0.16021 0.26982 0.0
H1062 H 0.64671 0.12062 0.25448 0.0
H1063 H 0.62219 0.15195 0.23948 0.0
H1064 H 0.64053 0.03109 0.2075 0.0
H1065 H 0.58322 0.1068 0.1705 0.0
H1066 H 0.60143 0.03605 0.26751 0.0
H1067 H 0.63773 0.06161 0.26749 0.0
H1068 H 0.63843 0.02215 0.25138 0.0
H1069 H 0.53187 0.12719 0.22282 0.0
H1070 H 0.54681 0.14195 0.1926 0.0
H1071 H 0.56627 0.15521 0.22163 0.0
C1072 C 0.4208 0.54057 0.30014 0.0
C1073 C 0.39476 0.55959 0.31026 0.0
C1074 C 0.43442 0.54806 0.27627 0.0
C1075 C 0.42166 0.57516 0.2622 0.0
C1076 C 0.39516 0.59418 0.27222 0.0
C1077 C 0.38202 0.58613 0.29604 0.0
C1078 C 0.46263 0.52721 0.26618 0.0
C1079 C 0.38067 0.62315 0.25777 0.0
C1080 C 0.47133 0.61889 0.21082 0.0
C1081 C 0.45592 0.60699 0.1888 0.0
C1082 C 0.46147 0.60761 0.23488 0.0
C1083 C 0.43566 0.58381 0.23692 0.0
C1084 C 0.42122 0.5705 0.21469 0.0
C1085 C 0.43149 0.58227 0.19092 0.0
C1086 C 0.47747 0.62243 0.25814 0.0
C1087 C 0.39382 0.54492 0.21602 0.0
H1088 H 0.43095 0.52021 0.31111 0.0
H1089 H 0.36151 0.60056 0.30351 0.0
H1090 H 0.45578 0.51648 0.24754 0.0
H1091 H 0.48488 0.54299 0.26313 0.0
H1092 H 0.46934 0.50664 0.27924 0.0
H1093 H 0.3602 0.63552 0.26828 0.0
H1094 H 0.40032 0.64179 0.25385 0.0
H1095 H 0.37095 0.61457 0.23923 0.0
H1096 H 0.49005 0.63816 0.20933 0.0
H1097 H 0.41987 0.57261 0.17392 0.0
H1098 H 0.48559 0.60253 0.27128 0.0
H1099 H 0.45905 0.63791 0.2684 0.0
H1100 H 0.49925 0.63819 0.25335 0.0
H1101 H 0.40121 0.52404 0.22851 0.0
H1102 H 0.38738 0.53484 0.19706 0.0
H1103 H 0.37122 0.55631 0.22435 0.0
C1104 C 0.87364 0.41692 0.20374 0.0
C1105 C 0.88754 0.44291 0.18954 0.0
C1106 C 0.88586 0.40883 0.22784 0.0
C1107 C 0.91266 0.42719 0.23811 0.0
C1108 C 0.92668 0.45364 0.22399 0.0
C1109 C 0.91392 0.46123 0.19988 0.0
C1110 C 0.87006 0.38059 0.24234 0.0
C1111 C 0.95533 0.47373 0.23428 0.0
C1112 C 0.92239 0.42239 0.30962 0.0
C1113 C 0.94661 0.39757 0.31225 0.0
C1114 C 0.91184 0.43302 0.28559 0.0
C1115 C 0.92587 0.41852 0.26363 0.0
C1116 C 0.95112 0.39426 0.26613 0.0
C1117 C 0.96118 0.38407 0.29041 0.0
C1118 C 0.88497 0.45906 0.28374 0.0
C1119 C 0.96668 0.37818 0.24317 0.0
H1120 H 0.85288 0.40302 0.19607 0.0
H1121 H 0.92498 0.48114 0.18893 0.0
H1122 H 0.88896 0.36135 0.24665 0.0
H1123 H 0.86025 0.38976 0.2607 0.0
H1124 H 0.8494 0.36878 0.23169 0.0
H1125 H 0.96313 0.49379 0.2211 0.0
H1126 H 0.94833 0.48507 0.25268 0.0
H1127 H 0.97691 0.45726 0.23787 0.0
H1128 H 0.91139 0.43332 0.32641 0.0
H1129 H 0.97965 0.36464 0.29225 0.0
H1130 H 0.86247 0.44813 0.27491 0.0
H1131 H 0.89325 0.47979 0.2714 0.0
H1132 H 0.87803 0.46929 0.30255 0.0
H1133 H 0.94767 0.36346 0.2329 0.0
H1134 H 0.9876 0.36148 0.24828 0.0
H1135 H 0.97598 0.39744 0.22991 0.0
C1136 C 0.13454 0.91514 0.29425 0.0
C1137 C 0.12758 0.94645 0.30471 0.0
C1138 C 0.1222 0.90592 0.27044 0.0
C1139 C 0.10313 0.92886 0.25628 0.0
C1140 C 0.09682 0.96087 0.26627 0.0
C1141 C 0.10885 0.96919 0.29046 0.0
C1142 C 0.12928 0.87142 0.26057 0.0
C1143 C 0.07713 0.98621 0.25149 0.0
C1144 C 0.09806 0.90923 0.18605 0.0
C1145 C 0.06694 0.89378 0.1844 0.0
C1146 C 0.10949 0.92225 0.20911 0.0
C1147 C 0.08964 0.91894 0.23114 0.0
C1148 C 0.05786 0.90395 0.22941 0.0
C1149 C 0.04673 0.89187 0.20594 0.0
C1150 C 0.14316 0.93874 0.21005 0.0
C1151 C 0.03626 0.89933 0.25254 0.0
H1152 H 0.14975 0.89765 0.30467 0.0
H1153 H 0.10305 0.99332 0.29836 0.0
H1154 H 0.10559 0.85834 0.25654 0.0
H1155 H 0.14329 0.87292 0.24251 0.0
H1156 H 0.14386 0.85628 0.2742 0.0
H1157 H 0.07589 0.01057 0.26132 0.0
H1158 H 0.08841 0.98993 0.23251 0.0
H1159 H 0.05144 0.97705 0.24847 0.0
H1160 H 0.11352 0.91092 0.16926 0.0
H1161 H 0.02274 0.87972 0.20462 0.0
H1162 H 0.16048 0.92341 0.22145 0.0
H1163 H 0.14129 0.96333 0.21942 0.0
H1164 H 0.15402 0.94219 0.19087 0.0
H1165 H 0.04884 0.88247 0.26612 0.0
H1166 H 0.01157 0.88867 0.24778 0.0
H1167 H 0.03249 0.92341 0.26231 0.0
C1168 C 0.40575 0.9092 0.80929 0.0
C1169 C 0.38914 0.93924 0.81349 0.0
C1170 C 0.4168 0.90045 0.78494 0.0
C1171 C 0.4102 0.92188 0.76424 0.0
C1172 C 0.39364 0.95242 0.7685 0.0
C1173 C 0.38367 0.96092 0.79317 0.0
C1174 C 0.4351 0.86808 0.78132 0.0
C1175 C 0.38541 0.97555 0.74688 0.0
C1176 C 0.45825 0.91112 0.70262 0.0
C1177 C 0.43663 0.89104 0.68837 0.0
C1178 C 0.45014 0.92112 0.72738 0.0
C1179 C 0.41928 0.91161 0.73801 0.0
C1180 C 0.39708 0.89191 0.72365 0.0
C1181 C 0.4062 0.88148 0.69924 0.0
C1182 C 0.47476 0.94161 0.74227 0.0
C1183 C 0.36368 0.88165 0.73413 0.0
H1184 H 0.41009 0.89256 0.8251 0.0
H1185 H 0.37053 0.98402 0.79647 0.0
H1186 H 0.42012 0.85111 0.76935 0.0
H1187 H 0.45894 0.87251 0.77129 0.0
H1188 H 0.4404 0.85547 0.7996 0.0
H1189 H 0.3732 0.99873 0.75346 0.0
H1190 H 0.4083 0.98224 0.73634 0.0
H1191 H 0.36859 0.96283 0.73335 0.0
H1192 H 0.48158 0.91918 0.69443 0.0
H1193 H 0.38952 0.86534 0.68889 0.0
H1194 H 0.48111 0.9287 0.7602 0.0
H1195 H 0.46356 0.96584 0.74744 0.0
H1196 H 0.49803 0.94629 0.73152 0.0
H1197 H 0.36716 0.86567 0.75105 0.0
H1198 H 0.34853 0.86783 0.72006 0.0
H1199 H 0.34955 0.90389 0.74029 0.0
C1200 C 0.54267 0.40849 0.79257 0.0
C1201 C 0.5593 0.38128 0.80326 0.0
C1202 C 0.55173 0.42086 0.76862 0.0
C1203 C 0.57799 0.40559 0.75506 0.0
C1204 C 0.59434 0.37767 0.76553 0.0
C1205 C 0.58476 0.36584 0.78943 0.0
C1206 C 0.53369 0.45064 0.75804 0.0
C1207 C 0.62233 0.36053 0.75164 0.0
C1208 C 0.58818 0.41762 0.68405 0.0
C1209 C 0.61419 0.4408 0.68296 0.0
C1210 C 0.57544 0.40667 0.70738 0.0
C1211 C 0.5891 0.41912 0.73019 0.0
C1212 C 0.61481 0.44311 0.72922 0.0
C1213 C 0.62703 0.45366 0.70563 0.0
C1214 C 0.54791 0.38119 0.70762 0.0
C1215 C 0.63015 0.45686 0.75312 0.0
H1216 H 0.52313 0.42067 0.80322 0.0
H1217 H 0.5973 0.3444 0.79735 0.0
H1218 H 0.5513 0.47165 0.75582 0.0
H1219 H 0.52368 0.44487 0.73896 0.0
H1220 H 0.51288 0.45874 0.77041 0.0
H1221 H 0.63202 0.33871 0.76217 0.0
H1222 H 0.61372 0.35214 0.73273 0.0
H1223 H 0.64306 0.37824 0.74851 0.0
H1224 H 0.57784 0.40791 0.6666 0.0
H1225 H 0.6474 0.47125 0.70497 0.0
H1226 H 0.52679 0.39016 0.71927 0.0
H1227 H 0.55697 0.35786 0.71641 0.0
H1228 H 0.53869 0.37545 0.68828 0.0
H1229 H 0.61057 0.46703 0.76572 0.0
H1230 H 0.64856 0.47676 0.74915 0.0
H1231 H 0.64279 0.43663 0.76364 0.0
C1232 C 0.09493 0.63568 0.70374 0.0
C1233 C 0.06571 0.62478 0.69187 0.0
C1234 C 0.10403 0.62391 0.72776 0.0
C1235 C 0.08333 0.60075 0.74034 0.0
C1236 C 0.05353 0.58999 0.72868 0.0
C1237 C 0.04506 0.60215 0.70456 0.0
C1238 C 0.13593 0.63614 0.7396 0.0
C1239 C 0.03083 0.56535 0.74155 0.0
C1240 C 0.12536 0.54882 0.79116 0.0
C1241 C 0.11703 0.5663 0.81325 0.0
C1242 C 0.11373 0.55919 0.76736 0.0
C1243 C 0.09325 0.58769 0.76561 0.0
C1244 C 0.08397 0.60485 0.78792 0.0
C1245 C 0.09601 0.59398 0.81146 0.0
C1246 C 0.1243 0.54031 0.74399 0.0
C1247 C 0.06203 0.63523 0.78686 0.0
H1248 H 0.11068 0.65368 0.6943 0.0
H1249 H 0.02258 0.59345 0.69542 0.0
H1250 H 0.1306 0.6481 0.75809 0.0
H1251 H 0.15274 0.61486 0.74332 0.0
H1252 H 0.14916 0.65428 0.72735 0.0
H1253 H 0.00814 0.56016 0.73024 0.0
H1254 H 0.04424 0.54165 0.74473 0.0
H1255 H 0.02324 0.57487 0.7604 0.0
H1256 H 0.1419 0.52765 0.79236 0.0
H1257 H 0.08913 0.60732 0.82851 0.0
H1258 H 0.14007 0.55644 0.7319 0.0
H1259 H 0.10224 0.53321 0.73263 0.0
H1260 H 0.13852 0.51748 0.7487 0.0
H1261 H 0.07493 0.65537 0.77641 0.0
H1262 H 0.05543 0.64453 0.80603 0.0
H1263 H 0.0388 0.62958 0.77641 0.0
C1264 C 0.92781 0.13261 0.78711 0.0
C1265 C 0.95288 0.11755 0.80155 0.0
C1266 C 0.91944 0.12063 0.76304 0.0
C1267 C 0.93671 0.09301 0.753 0.0
C1268 C 0.96265 0.07817 0.76715 0.0
C1269 C 0.97044 0.09063 0.79131 0.0
C1270 C 0.89172 0.13727 0.74851 0.0
C1271 C 0.98169 0.04877 0.75697 0.0
C1272 C 0.88919 0.04569 0.70255 0.0
C1273 C 0.90189 0.05978 0.68026 0.0
C1274 C 0.90132 0.05526 0.72638 0.0
C1275 C 0.92682 0.07941 0.72792 0.0
C1276 C 0.94073 0.09265 0.70544 0.0
C1277 C 0.92803 0.08274 0.68188 0.0
C1278 C 0.88572 0.04071 0.74992 0.0
C1279 C 0.96814 0.11824 0.7063 0.0
H1280 H 0.91462 0.15388 0.79468 0.0
H1281 H 0.98971 0.07878 0.80244 0.0
H1282 H 0.90097 0.146 0.72986 0.0
H1283 H 0.87151 0.11916 0.74481 0.0
H1284 H 0.88109 0.15881 0.75887 0.0
H1285 H 1.00224 0.04114 0.76976 0.0
H1286 H 0.96463 0.02738 0.75445 0.0
H1287 H 0.99222 0.05472 0.73808 0.0
H1288 H 0.86879 0.02817 0.70143 0.0
H1289 H 0.93825 0.09332 0.66466 0.0
H1290 H 0.87202 0.06039 0.76028 0.0
H1291 H 0.90519 0.03108 0.76284 0.0
H1292 H 0.86814 0.02024 0.74548 0.0
H1293 H 0.95844 0.14166 0.71454 0.0
H1294 H 0.97836 0.12372 0.6872 0.0
H1295 H 0.98865 0.10961 0.71869 0.0
C1296 C 0.63369 0.06861 0.44996 0.0
C1297 C 0.6155 0.09542 0.45971 0.0
C1298 C 0.66335 0.05812 0.46154 0.0
C1299 C 0.67464 0.07442 0.4837 0.0
C1300 C 0.65579 0.10091 0.49399 0.0
C1301 C 0.62668 0.11132 0.48169 0.0
C1302 C 0.6831 0.03034 0.44966 0.0
C1303 C 0.66651 0.11851 0.5179 0.0
C1304 C 0.73682 0.03509 0.52884 0.0
C1305 C 0.76521 0.05411 0.52399 0.0
C1306 C 0.70738 0.04034 0.51511 0.0
C1307 C 0.70671 0.0648 0.49579 0.0
C1308 C 0.73615 0.08249 0.48979 0.0
C1309 C 0.76491 0.07736 0.50432 0.0
C1310 C 0.67645 0.02143 0.5225 0.0
C1311 C 0.73674 0.10827 0.46902 0.0
H1312 H 0.62525 0.05657 0.43277 0.0
H1313 H 0.61243 0.13184 0.48933 0.0
H1314 H 0.70779 0.03979 0.44368 0.0
H1315 H 0.6875 0.01031 0.46369 0.0
H1316 H 0.6704 0.01954 0.43289 0.0
H1317 H 0.64804 0.13724 0.52425 0.0
H1318 H 0.6703 0.10024 0.53337 0.0
H1319 H 0.69059 0.13124 0.51468 0.0
H1320 H 0.73695 0.01781 0.54458 0.0
H1321 H 0.78682 0.09243 0.50096 0.0
H1322 H 0.66567 0.00884 0.50573 0.0
H1323 H 0.65744 0.03897 0.52977 0.0
H1324 H 0.68142 1.00254 0.53735 0.0
H1325 H 0.72515 0.09832 0.45152 0.0
H1326 H 0.76241 0.11655 0.46452 0.0
H1327 H 0.72208 0.13025 0.47497 0.0
C1328 C 0.44711 0.63592 0.45266 0.0
C1329 C 0.42097 0.61707 0.46276 0.0
C1330 C 0.45723 0.66571 0.46422 0.0
C1331 C 0.4413 0.67642 0.48671 0.0
C1332 C 0.41591 0.65657 0.49758 0.0
C1333 C 0.40575 0.6274 0.48526 0.0
C1334 C 0.48396 0.68639 0.45183 0.0
C1335 C 0.39888 0.66658 0.5219 0.0
C1336 C 0.47744 0.74348 0.52945 0.0
C1337 C 0.456 0.77007 0.5243 0.0
C1338 C 0.474 0.71305 0.51664 0.0
C1339 C 0.44901 0.70955 0.49789 0.0
C1340 C 0.42903 0.73724 0.4914 0.0
C1341 C 0.4324 0.76698 0.505 0.0
C1342 C 0.49536 0.68407 0.52461 0.0
C1343 C 0.40276 0.73494 0.47105 0.0
H1344 H 0.45868 0.62803 0.43513 0.0
H1345 H 0.38578 0.61258 0.49316 0.0
H1346 H 0.47322 0.71032 0.44537 0.0
H1347 H 0.50383 0.69232 0.46567 0.0
H1348 H 0.49529 0.67366 0.43527 0.0
H1349 H 0.38184 0.64698 0.52904 0.0
H1350 H 0.41763 0.67204 0.53674 0.0
H1351 H 0.38429 0.68959 0.51878 0.0
H1352 H 0.49528 0.74565 0.54475 0.0
H1353 H 0.41576 0.78754 0.50112 0.0
H1354 H 0.50386 0.66958 0.50797 0.0
H1355 H 0.48046 0.66718 0.53675 0.0
H1356 H 0.51746 0.69225 0.53558 0.0
H1357 H 0.41322 0.72357 0.45364 0.0
H1358 H 0.39228 0.75964 0.46616 0.0
H1359 H 0.38219 0.71876 0.47766 0.0
C1360 C 0.88584 0.40948 0.48668 0.0
C1361 C 0.89731 0.42443 0.46438 0.0
C1362 C 0.85615 0.4199 0.49818 0.0
C1363 C 0.83691 0.44523 0.48666 0.0
C1364 C 0.84872 0.46084 0.46435 0.0
C1365 C 0.879 0.45049 0.45363 0.0
C1366 C 0.84497 0.40323 0.52235 0.0
C1367 C 0.82874 0.48749 0.45125 0.0
C1368 C 0.74543 0.43744 0.50282 0.0
C1369 C 0.74173 0.46136 0.52184 0.0
C1370 C 0.77573 0.43357 0.49 0.0
C1371 C 0.80337 0.45336 0.497 0.0
C1372 C 0.7993 0.47868 0.51541 0.0
C1373 C 0.76833 0.48262 0.52744 0.0
C1374 C 0.77864 0.40697 0.46996 0.0
C1375 C 0.82814 0.4999 0.5239 0.0
H1376 H 0.90021 0.38955 0.49506 0.0
H1377 H 0.88772 0.46182 0.43624 0.0
H1378 H 0.83908 0.42218 0.53694 0.0
H1379 H 0.82194 0.38882 0.51879 0.0
H1380 H 0.8641 0.38611 0.53005 0.0
H1381 H 0.8422 0.49844 0.43487 0.0
H1382 H 0.80496 0.47682 0.44438 0.0
H1383 H 0.82245 0.50762 0.46476 0.0
H1384 H 0.72488 0.42091 0.49861 0.0
H1385 H 0.76571 0.50071 0.54252 0.0
H1386 H 0.79432 0.38637 0.47714 0.0
H1387 H 0.79087 0.41704 0.45274 0.0
H1388 H 0.75404 0.39665 0.46455 0.0
H1389 H 0.84428 0.4851 0.53666 0.0
H1390 H 0.8197 0.52231 0.53436 0.0
H1391 H 0.84353 0.50789 0.50756 0.0
C1392 C 0.11149 0.86299 0.45632 0.0
C1393 C 0.0941 0.89297 0.4596 0.0
C1394 C 0.10118 0.83363 0.46835 0.0
C1395 C 0.073 0.83412 0.48438 0.0
C1396 C 0.05407 0.86358 0.48656 0.0
C1397 C 0.06466 0.89249 0.474 0.0
C1398 C 0.12186 0.80261 0.46524 0.0
C1399 C 0.02389 0.86524 0.50352 0.0
C1400 C 0.04166 0.75198 0.51183 0.0
C1401 C 0.05933 0.75075 0.53468 0.0
C1402 C 0.04543 0.77914 0.49517 0.0
C1403 C 0.06682 0.80574 0.50189 0.0
C1404 C 0.08377 0.80492 0.52535 0.0
C1405 C 0.08002 0.77742 0.54127 0.0
C1406 C 0.02724 0.77905 0.4702 0.0
C1407 C 0.1063 0.83296 0.53358 0.0
H1408 H 0.13404 0.86237 0.44524 0.0
H1409 H 0.05021 0.91495 0.47613 0.0
H1410 H 0.13615 0.79803 0.48288 0.0
H1411 H 0.10572 0.78068 0.462 0.0
H1412 H 0.1397 0.8047 0.44925 0.0
H1413 H 0.00916 0.88818 0.50029 0.0
H1414 H 0.00758 0.8434 0.50052 0.0
H1415 H 0.03193 0.86484 0.52363 0.0
H1416 H 0.02556 0.73146 0.50674 0.0
H1417 H 0.09331 0.77699 0.55912 0.0
H1418 H 0.04545 0.77818 0.45443 0.0
H1419 H 0.01272 0.80228 0.46797 0.0
H1420 H 0.01014 0.75752 0.4684 0.0
H1421 H 0.12746 0.83525 0.52021 0.0
H1422 H 0.11639 0.82917 0.55295 0.0
H1423 H 0.09258 0.85685 0.53323 0.0
C1424 C 0.24817 0.9683 0.98499 0.0
C1425 C 0.2597 0.94117 0.9708 0.0
C1426 C 0.21982 0.96534 0.00056 0.0
C1427 C 0.20245 0.9347 0.00165 0.0
C1428 C 0.21466 0.90709 0.98793 0.0
C1429 C 0.24315 0.9106 0.97292 0.0
C1430 C 0.20789 0.99522 0.0152 0.0
C1431 C 0.19688 0.87401 0.98829 0.0
C1432 C 0.14053 0.9085 0.0522 0.0
C1433 C 0.1102 0.91265 0.03951 0.0
C1434 C 0.17072 0.91791 0.04085 0.0
C1435 C 0.17067 0.93129 0.01602 0.0
C1436 C 0.13998 0.93709 0.00364 0.0
C1437 C 0.11015 0.92786 0.01558 0.0
C1438 C 0.20279 0.91207 0.05497 0.0
C1439 C 0.13872 0.95104 0.97709 0.0
H1440 H 0.2607 0.99204 0.9834 0.0
H1441 H 0.25186 0.8894 0.96216 0.0
H1442 H 0.18467 0.00478 0.00655 0.0
H1443 H 0.20209 0.98829 0.03507 0.0
H1444 H 0.22655 0.01555 0.01527 0.0
H1445 H 0.20988 0.85487 0.97684 0.0
H1446 H 0.19462 0.86479 0.00802 0.0
H1447 H 0.17132 0.87702 0.98074 0.0
H1448 H 0.14067 0.89735 0.07088 0.0
H1449 H 0.08688 0.93098 0.00558 0.0
H1450 H 0.21903 0.93429 0.05374 0.0
H1451 H 0.2164 0.89107 0.04617 0.0
H1452 H 0.19845 0.90609 0.07525 0.0
H1453 H 0.154 0.97389 0.97569 0.0
H1454 H 0.11296 0.957 0.97105 0.0
H1455 H 0.14926 0.93268 0.96363 0.0
C1456 C 0.56846 0.11889 0.0193 0.0
C1457 C 0.59369 0.11925 0.03766 0.0
C1458 C 0.55741 0.14834 0.00789 0.0
C1459 C 0.5715 0.17902 0.01534 0.0
C1460 C 0.59414 0.17993 0.03583 0.0
C1461 C 0.60521 0.15002 0.04662 0.0
C1462 C 0.5331 0.14618 0.98616 0.0
C1463 C 0.60902 0.21224 0.04484 0.0
C1464 C 0.58748 0.23856 0.96137 0.0
C1465 C 0.56062 0.26061 0.96316 0.0
C1466 C 0.59139 0.21243 0.97853 0.0
C1467 C 0.56816 0.20838 0.99841 0.0
C1468 C 0.54165 0.2313 0.00107 0.0
C1469 C 0.53798 0.25707 0.98321 0.0
C1470 C 0.61995 0.18851 0.9748 0.0
C1471 C 0.51678 0.22813 0.02232 0.0
H1472 H 0.55851 0.09539 0.01286 0.0
H1473 H 0.62446 0.15091 0.0609 0.0
H1474 H 0.51374 0.16562 0.98782 0.0
H1475 H 0.54651 0.15044 0.96806 0.0
H1476 H 0.52079 0.12151 0.98519 0.0
H1477 H 0.62035 0.20972 0.06394 0.0
H1478 H 0.62869 0.22023 0.03141 0.0
H1479 H 0.58994 0.2321 0.04545 0.0
H1480 H 0.60523 0.24109 0.94604 0.0
H1481 H 0.51719 0.27406 0.98473 0.0
H1482 H 0.61023 0.16304 0.97171 0.0
H1483 H 0.63572 0.18785 0.99202 0.0
H1484 H 0.63587 0.1953 0.95839 0.0
H1485 H 0.5 0.20687 0.01849 0.0
H1486 H 0.50138 0.25087 0.02437 0.0
H1487 H 0.52953 0.22312 0.04056 0.0
C1488 C 0.2744 0.53203 0.96819 0.0
C1489 C 0.24677 0.55226 0.97284 0.0
C1490 C 0.30432 0.53704 0.98139 0.0
C1491 C 0.30609 0.5622 0.00014 0.0
C1492 C 0.27736 0.58096 0.00609 0.0
C1493 C 0.24823 0.5762 0.992 0.0
C1494 C 0.33453 0.51703 0.974 0.0
C1495 C 0.27784 0.60728 0.02646 0.0
C1496 C 0.3784 0.56552 0.04643 0.0
C1497 C 0.39694 0.59211 0.03673 0.0
C1498 C 0.34898 0.55506 0.03454 0.0
C1499 C 0.33843 0.57106 0.01205 0.0
C1500 C 0.35779 0.59721 0.00173 0.0
C1501 C 0.38655 0.60775 0.01444 0.0
C1502 C 0.32858 0.52781 0.04655 0.0
C1503 C 0.34787 0.61439 0.97746 0.0
H1504 H 0.27338 0.51393 0.953 0.0
H1505 H 0.2268 0.59189 0.99545 0.0
H1506 H 0.35319 0.53363 0.96508 0.0
H1507 H 0.3463 0.50591 0.99099 0.0
H1508 H 0.32839 0.49685 0.96041 0.0
H1509 H 0.25254 0.61662 0.03091 0.0
H1510 H 0.28913 0.59735 0.04408 0.0
H1511 H 0.29329 0.62856 0.02016 0.0
H1512 H 0.38636 0.55369 0.06384 0.0
H1513 H 0.40116 0.6281 0.0069 0.0
H1514 H 0.32372 0.50775 0.03264 0.0
H1515 H 0.30411 0.53788 0.05245 0.0
H1516 H 0.34098 0.51689 0.0634 0.0
H1517 H 0.3434 0.59579 0.96233 0.0
H1518 H 0.36711 0.63217 0.97081 0.0
H1519 H 0.32432 0.62817 0.98037 0.0
C1520 C 0.89581 0.35391 0.04134 0.0
C1521 C 0.91183 0.38436 0.03724 0.0
C1522 C 0.90508 0.32535 0.02783 0.0
C1523 C 0.93068 0.32738 0.00947 0.0
C1524 C 0.94784 0.35777 0.00595 0.0
C1525 C 0.93833 0.38585 0.02002 0.0
C1526 C 0.88644 0.29336 0.03241 0.0
C1527 C 0.97493 0.36116 0.98629 0.0
C1528 C 0.96457 0.24797 0.97943 0.0
C1529 C 0.94499 0.2458 0.95753 0.0
C1530 C 0.96028 0.27435 0.9967 0.0
C1531 C 0.93621 0.2992 0.99166 0.0
C1532 C 0.91665 0.29715 0.96948 0.0
C1533 C 0.92112 0.27046 0.95286 0.0
C1534 C 0.98133 0.2756 0.02031 0.0
C1535 C 0.89097 0.32326 0.96316 0.0
H1536 H 0.87579 0.3525 0.05502 0.0
H1537 H 0.95069 0.40937 0.01675 0.0
H1538 H 0.87068 0.28764 0.01573 0.0
H1539 H 0.90407 0.27242 0.03482 0.0
H1540 H 0.87022 0.29476 0.04942 0.0
H1541 H 0.98827 0.38524 0.98781 0.0
H1542 H 0.99321 0.34071 0.98813 0.0
H1543 H 0.9639 0.35937 0.96707 0.0
H1544 H 0.98312 0.22907 0.98311 0.0
H1545 H 0.90599 0.26925 0.93591 0.0
H1546 H 0.96515 0.2757 0.03734 0.0
H1547 H 0.996 0.29892 0.02065 0.0
H1548 H 0.99867 0.25421 0.02162 0.0
H1549 H 0.87177 0.32417 0.97823 0.0
H1550 H 0.87845 0.31846 0.94477 0.0
H1551 H 0.90283 0.34812 0.96231 0.0
C1552 C 0.25864 0.98224 0.47751 0.0
C1553 C 0.23963 0.95419 0.47139 0.0
C1554 C 0.28793 0.97914 0.49192 0.0
C1555 C 0.2982 0.94727 0.50027 0.0
C1556 C 0.27769 0.91937 0.49562 0.0
C1557 C 0.24869 0.92321 0.48128 0.0
C1558 C 0.30893 0.00957 0.49662 0.0
C1559 C 0.28761 0.88492 0.50409 0.0
C1560 C 0.38903 0.92355 0.5049 0.0
C1561 C 0.39326 0.91997 0.53113 0.0
C1562 C 0.35871 0.93428 0.49469 0.0
C1563 C 0.33195 0.94192 0.51112 0.0
C1564 C 0.33663 0.94021 0.53768 0.0
C1565 C 0.36717 0.92896 0.54737 0.0
C1566 C 0.35477 0.93552 0.46624 0.0
C1567 C 0.30899 0.94897 0.5558 0.0
H1568 H 0.25187 0.00622 0.46973 0.0
H1569 H 0.2339 0.9015 0.47671 0.0
H1570 H 0.3193 0.00935 0.51609 0.0
H1571 H 0.33012 0.00981 0.48317 0.0
H1572 H 0.29451 0.03282 0.49386 0.0
H1573 H 0.26767 0.86635 0.50071 0.0
H1574 H 0.31015 0.87696 0.4936 0.0
H1575 H 0.29383 0.88485 0.52455 0.0
H1576 H 0.40892 0.9164 0.49221 0.0
H1577 H 0.37054 0.92674 0.56767 0.0
H1578 H 0.34482 0.95999 0.4603 0.0
H1579 H 0.33666 0.91633 0.46015 0.0
H1580 H 0.3786 0.93113 0.45616 0.0
H1581 H 0.29746 0.97295 0.55034 0.0
H1582 H 0.3179 0.95075 0.57567 0.0
H1583 H 0.28932 0.9297 0.5549 0.0
C1584 C 0.53045 0.26277 0.47723 0.0
C1585 C 0.55902 0.24656 0.46841 0.0
C1586 C 0.53301 0.29221 0.49151 0.0
C1587 C 0.56486 0.30544 0.49703 0.0
C1588 C 0.59367 0.28788 0.48944 0.0
C1589 C 0.59036 0.25873 0.47523 0.0
C1590 C 0.5017 0.31011 0.49927 0.0
C1591 C 0.62813 0.30096 0.49493 0.0
C1592 C 0.58225 0.39749 0.50329 0.0
C1593 C 0.58975 0.40029 0.52916 0.0
C1594 C 0.57184 0.36716 0.49286 0.0
C1595 C 0.56875 0.33891 0.50868 0.0
C1596 C 0.5741 0.34211 0.53507 0.0
C1597 C 0.58469 0.37272 0.54498 0.0
C1598 C 0.56629 0.36488 0.46461 0.0
C1599 C 0.5703 0.31278 0.55265 0.0
H1600 H 0.50617 0.25362 0.47173 0.0
H1601 H 0.61248 0.24613 0.46851 0.0
H1602 H 0.50383 0.31981 0.51888 0.0
H1603 H 0.49767 0.33165 0.48652 0.0
H1604 H 0.47954 0.29373 0.49807 0.0
H1605 H 0.64788 0.28329 0.48906 0.0
H1606 H 0.632 0.32472 0.48468 0.0
H1607 H 0.63098 0.30612 0.51545 0.0
H1608 H 0.58618 0.41853 0.49088 0.0
H1609 H 0.58972 0.37493 0.56507 0.0
H1610 H 0.54213 0.35277 0.4605 0.0
H1611 H 0.58603 0.34933 0.45597 0.0
H1612 H 0.56663 0.38964 0.45533 0.0
H1613 H 0.5467 0.29949 0.54874 0.0
H1614 H 0.57069 0.32033 0.57289 0.0
H1615 H 0.5909 0.295 0.54937 0.0
C1616 C 0.25825 0.59889 0.47516 0.0
C1617 C 0.27053 0.56693 0.4704 0.0
C1618 C 0.23046 0.60384 0.49064 0.0
C1619 C 0.21447 0.57611 0.50174 0.0
C1620 C 0.22804 0.54391 0.49838 0.0
C1621 C 0.25603 0.53967 0.48269 0.0
C1622 C 0.21692 0.63861 0.49369 0.0
C1623 C 0.21185 0.51375 0.51003 0.0
C1624 C 0.14915 0.59961 0.55059 0.0
C1625 C 0.12025 0.60019 0.53574 0.0
C1626 C 0.17983 0.58989 0.54022 0.0
C1627 C 0.18169 0.58092 0.51432 0.0
C1628 C 0.15237 0.58025 0.49951 0.0
C1629 C 0.12208 0.58985 0.51039 0.0
C1630 C 0.21044 0.59033 0.55672 0.0
C1631 C 0.15323 0.57102 0.47176 0.0
H1632 H 0.26961 0.62009 0.46589 0.0
H1633 H 0.26536 0.51489 0.47895 0.0
H1634 H 0.19248 0.64049 0.48407 0.0
H1635 H 0.2129 0.64439 0.514 0.0
H1636 H 0.23375 0.6577 0.48552 0.0
H1637 H 0.22856 0.4918 0.50965 0.0
H1638 H 0.20444 0.51875 0.52991 0.0
H1639 H 0.18899 0.50753 0.49929 0.0
H1640 H 0.14778 0.60701 0.5703 0.0
H1641 H 0.10003 0.5905 0.49867 0.0
H1642 H 0.22714 0.61074 0.5506 0.0
H1643 H 0.22443 0.56675 0.55464 0.0
H1644 H 0.20426 0.59401 0.57704 0.0
H1645 H 0.16771 0.58986 0.46109 0.0
H1646 H 0.12798 0.56944 0.46337 0.0
H1647 H 0.16582 0.54677 0.46914 0.0
C1648 C 0.92973 0.26729 0.48975 0.0
C1649 C 0.95536 0.27037 0.472 0.0
C1650 C 0.92515 0.23765 0.50332 0.0
C1651 C 0.94588 0.21001 0.49818 0.0
C1652 C 0.97278 0.21355 0.48102 0.0
C1653 C 0.97742 0.24392 0.46832 0.0
C1654 C 0.8969 0.23536 0.52207 0.0
C1655 C 0.99499 0.18461 0.47441 0.0
C1656 C 0.94163 0.13535 0.54241 0.0
C1657 C 0.91715 0.11595 0.53068 0.0
C1658 C 0.95153 0.16594 0.53199 0.0
C1659 C 0.93726 0.17683 0.50892 0.0
C1660 C 0.91333 0.15665 0.49659 0.0
C1661 C 0.90314 0.12673 0.50788 0.0
C1662 C 0.97645 0.18704 0.54603 0.0
C1663 C 0.89822 0.16682 0.47159 0.0
H1664 H 0.91246 0.28769 0.49228 0.0
H1665 H 0.99674 0.24608 0.4541 0.0
H1666 H 0.87694 0.2194 0.5142 0.0
H1667 H 0.90547 0.22376 0.53998 0.0
H1668 H 0.88614 0.2601 0.52645 0.0
H1669 H 0.018 0.19278 0.46457 0.0
H1670 H 1.00202 0.17038 0.49157 0.0
H1671 H 0.98131 0.16747 0.46168 0.0
H1672 H 0.95215 0.12707 0.56022 0.0
H1673 H 0.88438 0.11151 0.49883 0.0
H1674 H 0.96481 0.21098 0.55147 0.0
H1675 H 0.99787 0.19292 0.53357 0.0
H1676 H 0.98584 0.17464 0.56342 0.0
H1677 H 0.88327 0.18971 0.47412 0.0
H1678 H 0.88193 0.14719 0.46356 0.0
H1679 H 0.91812 0.17253 0.45768 0.0
C1680 C 0.74408 0.08056 0.00733 0.0
C1681 C 0.74361 0.05585 0.02596 0.0
C1682 C 0.77212 0.08534 0.99198 0.0
C1683 C 0.80083 0.06572 0.99608 0.0
C1684 C 0.79999 0.03982 0.01429 0.0
C1685 C 0.7711 0.03488 0.02881 0.0
C1686 C 0.77156 0.11249 0.97224 0.0
C1687 C 0.83027 0.01888 0.01969 0.0
C1688 C 0.86969 0.06881 0.94671 0.0
C1689 C 0.88985 0.09431 0.95621 0.0
C1690 C 0.84075 0.05893 0.95956 0.0
C1691 C 0.83235 0.07434 0.98281 0.0
C1692 C 0.85327 0.09945 0.99283 0.0
C1693 C 0.88149 0.10948 0.97919 0.0
C1694 C 0.81863 0.03281 0.94788 0.0
C1695 C 0.84565 0.11598 0.01784 0.0
H1696 H 0.72275 0.09679 0.00524 0.0
H1697 H 0.77086 0.01614 0.04357 0.0
H1698 H 0.788 0.13315 0.97826 0.0
H1699 H 0.78114 0.10306 0.95389 0.0
H1700 H 0.74617 0.12257 0.96927 0.0
H1701 H 0.82471 0.99799 0.03278 0.0
H1702 H 0.84066 0.00865 0.00186 0.0
H1703 H 0.84981 0.03463 0.02839 0.0
H1704 H 0.87607 0.05736 0.92878 0.0
H1705 H 0.89734 0.12897 0.98656 0.0
H1706 H 0.79398 0.04375 0.94354 0.0
H1707 H 0.81446 0.01219 0.96145 0.0
H1708 H 0.82926 0.02245 0.93014 0.0
H1709 H 0.82223 0.13034 0.01631 0.0
H1710 H 0.86576 0.13312 0.02392 0.0
H1711 H 0.84196 0.09694 0.03279 0.0
C1712 C 0.44208 0.88719 0.97478 0.0
C1713 C 0.41217 0.88761 0.96096 0.0
C1714 C 0.45291 0.85841 0.98743 0.0
C1715 C 0.43375 0.829 0.98595 0.0
C1716 C 0.40504 0.82842 0.97048 0.0
C1717 C 0.39451 0.85765 0.95835 0.0
C1718 C 0.48364 0.86022 0.0038 0.0
C1719 C 0.38407 0.79747 0.96812 0.0
C1720 C 0.46655 0.74753 0.01371 0.0
C1721 C 0.45017 0.74684 0.03716 0.0
C1722 C 0.4617 0.77416 0.9967 0.0
C1723 C 0.44048 0.80081 0.00359 0.0
C1724 C 0.42461 0.80044 0.02751 0.0
C1725 C 0.42945 0.77347 0.04381 0.0
C1726 C 0.47876 0.77356 0.97126 0.0
C1727 C 0.40223 0.82851 0.03591 0.0
H1728 H 0.4567 0.90961 0.97647 0.0
H1729 H 0.37155 0.85705 0.94777 0.0
H1730 H 0.47624 0.8601 0.02406 0.0
H1731 H 0.49976 0.83827 0.00065 0.0
H1732 H 0.49836 0.88306 0.00012 0.0
H1733 H 0.36573 0.7994 0.95246 0.0
H1734 H 0.39995 0.77539 0.9648 0.0
H1735 H 0.37032 0.7933 0.98607 0.0
H1736 H 0.48265 0.72707 0.00849 0.0
H1737 H 0.41703 0.77348 0.06204 0.0
H1738 H 0.49374 0.79643 0.96864 0.0
H1739 H 0.45988 0.77311 0.95595 0.0
H1740 H 0.49526 0.75163 0.96905 0.0
H1741 H 0.41588 0.85244 0.03509 0.0
H1742 H 0.39274 0.82498 0.05549 0.0
H1743 H 0.38067 0.83054 0.02292 0.0
C1744 C 0.73428 0.46768 0.03106 0.0
C1745 C 0.76241 0.44773 0.02766 0.0
C1746 C 0.70561 0.46283 0.01628 0.0
C1747 C 0.70546 0.43781 0.99737 0.0
C1748 C 0.73475 0.41915 0.99284 0.0
C1749 C 0.76267 0.42391 0.0084 0.0
C1750 C 0.67484 0.48282 0.02222 0.0
C1751 C 0.73602 0.39286 0.97248 0.0
C1752 C 0.62534 0.39304 0.98004 0.0
C1753 C 0.61628 0.4089 0.95747 0.0
C1754 C 0.65368 0.40299 0.9936 0.0
C1755 C 0.67402 0.42886 0.98399 0.0
C1756 C 0.66493 0.445 0.96117 0.0
C1757 C 0.63593 0.43509 0.94835 0.0
C1758 C 0.66197 0.38562 0.01816 0.0
C1759 C 0.68631 0.47207 0.94995 0.0
H1760 H 0.73386 0.48552 0.04643 0.0
H1761 H 0.78431 0.40814 0.00613 0.0
H1762 H 0.66404 0.49337 0.00466 0.0
H1763 H 0.65579 0.46631 0.03076 0.0
H1764 H 0.67999 0.50342 0.03568 0.0
H1765 H 0.7617 0.3837 0.96919 0.0
H1766 H 0.72026 0.37148 0.97808 0.0
H1767 H 0.72605 0.40273 0.95439 0.0
H1768 H 0.60996 0.37303 0.9872 0.0
H1769 H 0.62911 0.44712 0.93075 0.0
H1770 H 0.66513 0.40412 0.03355 0.0
H1771 H 0.68583 0.37211 0.01619 0.0
H1772 H 0.64245 0.3676 0.02389 0.0
H1773 H 0.68992 0.49234 0.96391 0.0
H1774 H 0.67537 0.48273 0.93243 0.0
H1775 H 0.71125 0.46196 0.94538 0.0
C1776 C 0.08685 0.74065 0.03212 0.0
C1777 C 0.0586 0.76096 0.03074 0.0
C1778 C 0.09063 0.71308 0.01631 0.0
C1779 C 0.0659 0.70584 0.99809 0.0
C1780 C 0.03787 0.72695 0.99579 0.0
C1781 C 0.03431 0.75411 0.01242 0.0
C1782 C 0.12078 0.6911 0.01971 0.0
C1783 C 0.01129 0.72048 0.97626 0.0
C1784 C 0.10248 0.64588 0.9508 0.0
C1785 C 0.09351 0.61523 0.96157 0.0
C1786 C 0.0905 0.67591 0.9608 0.0
C1787 C 0.06965 0.67536 0.98239 0.0
C1788 C 0.05801 0.64459 0.99183 0.0
C1789 C 0.06977 0.61495 0.98111 0.0
C1790 C 0.10248 0.70825 0.94959 0.0
C1791 C 0.03556 0.64283 0.01474 0.0
H1792 H 0.10582 0.74563 0.04617 0.0
H1793 H 0.0124 0.76968 0.01126 0.0
H1794 H 0.11282 0.66542 0.02437 0.0
H1795 H 0.13522 0.68996 0.00183 0.0
H1796 H 0.13749 0.70004 0.03501 0.0
H1797 H 0.99548 0.7427 0.9731 0.0
H1798 H 0.02242 0.71285 0.95792 0.0
H1799 H 0.99509 0.69992 0.98284 0.0
H1800 H 0.12038 0.64681 0.93554 0.0
H1801 H 0.0615 0.59153 0.98895 0.0
H1802 H 0.12241 0.71872 0.96172 0.0
H1803 H 0.08201 0.72668 0.94884 0.0
H1804 H 0.11264 0.70482 0.93018 0.0
H1805 H 0.04972 0.65033 0.03185 0.0
H1806 H 0.0256 0.61742 0.01785 0.0
H1807 H 0.01442 0.66026 0.01273 0.0
loop_
_geom_bond_atom_site_label_1
_geom_bond_atom_site_label_2
_geom_bond_distance
_geom_bond_site_symmetry_2
_ccdc_geom_bond_type
C0 C1 1.351 . S
C0 N3 1.368 . S
C0 H5 0.931 . S
C1 C0 1.351 . S
C1 N2 1.373 . S
C1 H29 0.930 . S
N2 C1 1.373 . S
N2 C4 1.340 . S
N3 C0 1.368 . S
N3 C4 1.321 . S
N3 Co6 2.135 . S
C4 N2 1.340 . S
C4 N3 1.321 . S
C4 H28 0.930 . S
H5 C0 0.931 . S
Co6 N3 2.135 . S
Co6 N9 2.121 . S
Co6 O14 2.055 . S
Co6 O17 2.039 . S
Co6 N20 2.140 . S
C7 O8 1.227 . S
C7 O17 1.265 . S
O8 C7 1.227 . S
N9 Co6 2.121 . S
N9 C11 1.375 . S
N9 C12 1.313 . S
C10 C11 1.338 . S
C10 N13 1.377 . S
C10 H30 0.930 . S
C11 N9 1.375 . S
C11 C10 1.338 . S
C11 H15 0.931 . S
C12 N9 1.313 . S
C12 N13 1.344 . S
C12 H16 0.930 . S
N13 C10 1.377 . S
N13 C12 1.344 . S
O14 Co6 2.055 . S
O14 C18 1.253 . S
H15 C11 0.931 . S
H16 C12 0.930 . S
O17 Co6 2.039 . S
O17 C7 1.265 . S
C18 O14 1.253 . S
C18 O19 1.227 . S
O19 C18 1.227 . S
N20 Co6 2.140 . S
N20 C23 1.346 . S
N20 C24 1.345 . S
C21 C22 1.387 . S
C21 C25 1.391 . S
C22 C21 1.387 . S
C22 C23 1.369 . S
C22 H31 0.929 . S
C23 N20 1.346 . S
C23 C22 1.369 . S
C23 H26 0.928 . S
C24 N20 1.345 . S
C24 C25 1.371 . S
C24 H27 0.931 . S
C25 C21 1.391 . S
C25 C24 1.371 . S
C25 H32 0.930 . S
H26 C23 0.928 . S
H27 C24 0.931 . S
H28 C4 0.930 . S
H29 C1 0.930 . S
H30 C10 0.930 . S
H31 C22 0.929 . S
H32 C25 0.930 . S
C33 C34 1.351 . S
C33 N36 1.368 . S
C33 H38 0.931 . S
C34 C33 1.351 . S
C34 N35 1.373 . S
C34 H62 0.930 . S
N35 C34 1.373 . S
N35 C37 1.340 . S
N36 C33 1.368 . S
N36 C37 1.321 . S
N36 Co39 2.135 . S
C37 N35 1.340 . S
C37 N36 1.321 . S
C37 H61 0.930 . S
H38 C33 0.931 . S
Co39 N36 2.135 . S
Co39 N42 2.121 . S
Co39 O47 2.055 . S
Co39 O50 2.039 . S
Co39 N53 2.140 . S
C40 O41 1.227 . S
C40 O50 1.265 . S
O41 C40 1.227 . S
N42 Co39 2.121 . S
N42 C44 1.375 . S
N42 C45 1.313 . S
C43 C44 1.338 . S
C43 N46 1.377 . S
C43 H63 0.930 . S
C44 N42 1.375 . S
C44 C43 1.338 . S
C44 H48 0.931 . S
C45 N42 1.313 . S
C45 N46 1.344 . S
C45 H49 0.930 . S
N46 C43 1.377 . S
N46 C45 1.344 . S
O47 Co39 2.055 . S
O47 C51 1.253 . S
H48 C44 0.931 . S
H49 C45 0.930 . S
O50 Co39 2.039 . S
O50 C40 1.265 . S
C51 O47 1.253 . S
C51 O52 1.227 . S
O52 C51 1.227 . S
N53 Co39 2.140 . S
N53 C56 1.346 . S
N53 C57 1.345 . S
C54 C55 1.387 . S
C54 C58 1.391 . S
C55 C54 1.387 . S
C55 C56 1.369 . S
C55 H64 0.929 . S
C56 N53 1.346 . S
C56 C55 1.369 . S
C56 H59 0.928 . S
C57 N53 1.345 . S
C57 C58 1.371 . S
C57 H60 0.931 . S
C58 C54 1.391 . S
C58 C57 1.371 . S
C58 H65 0.930 . S
H59 C56 0.928 . S
H60 C57 0.931 . S
H61 C37 0.930 . S
H62 C34 0.930 . S
H63 C43 0.930 . S
H64 C55 0.929 . S
H65 C58 0.930 . S
C66 C67 1.368 . S
C66 N69 1.368 . S
C66 H71 0.931 . S
C67 C66 1.368 . S
C67 N68 1.351 1_655 S
C67 H95 0.935 . S
N68 C67 1.351 1_455 S
N68 C70 1.340 . S
N69 C66 1.368 . S
N69 C70 1.321 1_655 S
N69 Co72 2.135 . S
C70 N68 1.340 . S
C70 N69 1.321 1_455 S
C70 H94 0.930 . S
H71 C66 0.931 . S
Co72 N69 2.135 . S
Co72 N75 2.121 . S
Co72 O80 2.055 . S
Co72 O83 2.039 1_655 S
Co72 N86 2.140 . S
C73 O74 1.227 . S
C73 O83 1.265 . S
O74 C73 1.227 . S
N75 Co72 2.121 . S
N75 C77 1.375 . S
N75 C78 1.313 . S
C76 C77 1.338 . S
C76 N79 1.377 . S
C76 H96 0.930 . S
C77 N75 1.375 . S
C77 C76 1.338 . S
C77 H81 0.931 . S
C78 N75 1.313 . S
C78 N79 1.344 . S
C78 H82 0.930 . S
N79 C76 1.377 . S
N79 C78 1.344 . S
O80 Co72 2.055 . S
O80 C84 1.253 . S
H81 C77 0.931 . S
H82 C78 0.930 . S
O83 Co72 2.039 1_455 S
O83 C73 1.265 . S
C84 O80 1.253 . S
C84 O85 1.227 . S
O85 C84 1.227 . S
N86 Co72 2.140 . S
N86 C89 1.346 . S
N86 C90 1.345 . S
C87 C88 1.387 . S
C87 C91 1.391 . S
C88 C87 1.387 . S
C88 C89 1.369 . S
C88 H97 0.929 . S
C89 N86 1.346 . S
C89 C88 1.369 . S
C89 H92 0.928 . S
C90 N86 1.345 . S
C90 C91 1.371 . S
C90 H93 0.931 . S
C91 C87 1.391 . S
C91 C90 1.371 . S
C91 H98 0.930 . S
H92 C89 0.928 . S
H93 C90 0.931 . S
H94 C70 0.930 . S
H95 C67 0.935 . S
H96 C76 0.930 . S
H97 C88 0.929 . S
H98 C91 0.930 . S
C99 C100 1.368 . S
C99 N102 1.368 . S
C99 H104 0.931 . S
C100 C99 1.368 . S
C100 N101 1.351 1_565 S
C100 H128 0.935 . S
N101 C100 1.351 1_545 S
N101 C103 1.340 . S
N102 C99 1.368 . S
N102 C103 1.321 1_565 S
N102 Co105 2.135 . S
C103 N101 1.340 . S
C103 N102 1.321 1_545 S
C103 H127 0.930 . S
H104 C99 0.931 . S
Co105 N102 2.135 . S
Co105 N108 2.121 . S
Co105 O113 2.055 . S
Co105 O116 2.039 1_565 S
Co105 N119 2.140 . S
C106 O107 1.227 . S
C106 O116 1.265 . S
O107 C106 1.227 . S
N108 Co105 2.121 . S
N108 C110 1.375 . S
N108 C111 1.313 . S
C109 C110 1.338 . S
C109 N112 1.377 . S
C109 H129 0.930 . S
C110 N108 1.375 . S
C110 C109 1.338 . S
C110 H114 0.931 . S
C111 N108 1.313 . S
C111 N112 1.344 . S
C111 H115 0.930 . S
N112 C109 1.377 . S
N112 C111 1.344 . S
O113 Co105 2.055 . S
O113 C117 1.253 . S
H114 C110 0.931 . S
H115 C111 0.930 . S
O116 Co105 2.039 1_545 S
O116 C106 1.265 . S
C117 O113 1.253 . S
C117 O118 1.227 . S
O118 C117 1.227 . S
N119 Co105 2.140 . S
N119 C122 1.346 . S
N119 C123 1.345 . S
C120 C121 1.387 . S
C120 C124 1.391 . S
C121 C120 1.387 . S
C121 C122 1.369 . S
C121 H130 0.929 . S
C122 N119 1.346 . S
C122 C121 1.369 . S
C122 H125 0.928 . S
C123 N119 1.345 . S
C123 C124 1.371 . S
C123 H126 0.931 . S
C124 C120 1.391 . S
C124 C123 1.371 . S
C124 H131 0.930 . S
H125 C122 0.928 . S
H126 C123 0.931 . S
H127 C103 0.930 . S
H128 C100 0.935 . S
H129 C109 0.930 . S
H130 C121 0.929 . S
H131 C124 0.930 . S
C132 C133 1.368 . S
C132 N135 1.368 . S
C132 H137 0.931 . S
C133 C132 1.368 . S
C133 N134 1.351 1_455 S
C133 H161 0.935 . S
N134 C133 1.351 1_655 S
N134 C136 1.340 . S
N135 C132 1.368 . S
N135 C136 1.321 1_455 S
N135 Co138 2.135 . S
C136 N134 1.340 . S
C136 N135 1.321 1_655 S
C136 H160 0.930 . S
H137 C132 0.931 . S
Co138 N135 2.135 . S
Co138 N141 2.121 . S
Co138 O146 2.055 . S
Co138 O149 2.039 1_455 S
Co138 N152 2.140 . S
C139 O140 1.227 . S
C139 O149 1.265 . S
O140 C139 1.227 . S
N141 Co138 2.121 . S
N141 C143 1.375 . S
N141 C144 1.313 . S
C142 C143 1.338 . S
C142 N145 1.377 . S
C142 H162 0.930 . S
C143 N141 1.375 . S
C143 C142 1.338 . S
C143 H147 0.931 . S
C144 N141 1.313 . S
C144 N145 1.344 . S
C144 H148 0.930 . S
N145 C142 1.377 . S
N145 C144 1.344 . S
O146 Co138 2.055 . S
O146 C150 1.253 . S
H147 C143 0.931 . S
H148 C144 0.930 . S
O149 Co138 2.039 1_655 S
O149 C139 1.265 . S
C150 O146 1.253 . S
C150 O151 1.227 . S
O151 C150 1.227 . S
N152 Co138 2.140 . S
N152 C155 1.346 . S
N152 C156 1.345 . S
C153 C154 1.387 . S
C153 C157 1.391 . S
C154 C153 1.387 . S
C154 C155 1.369 . S
C154 H163 0.929 . S
C155 N152 1.346 . S
C155 C154 1.369 . S
C155 H158 0.928 . S
C156 N152 1.345 . S
C156 C157 1.371 . S
C156 H159 0.931 . S
C157 C153 1.391 . S
C157 C156 1.371 . S
C157 H164 0.930 . S
H158 C155 0.928 . S
H159 C156 0.931 . S
H160 C136 0.930 . S
H161 C133 0.935 . S
H162 C142 0.930 . S
H163 C154 0.929 . S
H164 C157 0.930 . S
C165 C166 1.368 . S
C165 N168 1.368 . S
C165 H170 0.931 . S
C166 C165 1.368 . S
C166 N167 1.351 1_545 S
C166 H194 0.935 . S
N167 C166 1.351 1_565 S
N167 C169 1.340 . S
N168 C165 1.368 . S
N168 C169 1.321 1_545 S
N168 Co171 2.135 . S
C169 N167 1.340 . S
C169 N168 1.321 1_565 S
C169 H193 0.930 . S
H170 C165 0.931 . S
Co171 N168 2.135 . S
Co171 N174 2.121 . S
Co171 O179 2.055 . S
Co171 O182 2.039 1_545 S
Co171 N185 2.140 . S
C172 O173 1.227 . S
C172 O182 1.265 . S
O173 C172 1.227 . S
N174 Co171 2.121 . S
N174 C176 1.375 . S
N174 C177 1.313 . S
C175 C176 1.338 . S
C175 N178 1.377 . S
C175 H195 0.930 . S
C176 N174 1.375 . S
C176 C175 1.338 . S
C176 H180 0.931 . S
C177 N174 1.313 . S
C177 N178 1.344 . S
C177 H181 0.930 . S
N178 C175 1.377 . S
N178 C177 1.344 . S
O179 Co171 2.055 . S
O179 C183 1.253 . S
H180 C176 0.931 . S
H181 C177 0.930 . S
O182 Co171 2.039 1_565 S
O182 C172 1.265 . S
C183 O179 1.253 . S
C183 O184 1.227 . S
O184 C183 1.227 . S
N185 Co171 2.140 . S
N185 C188 1.346 . S
N185 C189 1.345 . S
C186 C187 1.387 . S
C186 C190 1.391 . S
C187 C186 1.387 . S
C187 C188 1.369 . S
C187 H196 0.929 . S
C188 N185 1.346 . S
C188 C187 1.369 . S
C188 H191 0.928 . S
C189 N185 1.345 . S
C189 C190 1.371 . S
C189 H192 0.931 . S
C190 C186 1.391 . S
C190 C189 1.371 . S
C190 H197 0.930 . S
H191 C188 0.928 . S
H192 C189 0.931 . S
H193 C169 0.930 . S
H194 C166 0.935 . S
H195 C175 0.930 . S
H196 C187 0.929 . S
H197 C190 0.930 . S
C198 C199 1.351 . S
C198 N201 1.368 . S
C198 H203 0.931 . S
C199 C198 1.351 . S
C199 N200 1.373 . S
C199 H227 0.930 . S
N200 C199 1.373 . S
N200 C202 1.340 . S
N201 C198 1.368 . S
N201 C202 1.321 . S
N201 Co204 2.135 . S
C202 N200 1.340 . S
C202 N201 1.321 . S
C202 H226 0.930 . S
H203 C198 0.931 . S
Co204 N201 2.135 . S
Co204 N207 2.121 . S
Co204 O212 2.055 . S
Co204 O215 2.039 . S
Co204 N218 2.140 . S
C205 O206 1.227 . S
C205 O215 1.265 . S
O206 C205 1.227 . S
N207 Co204 2.121 . S
N207 C209 1.375 . S
N207 C210 1.313 . S
C208 C209 1.338 . S
C208 N211 1.377 . S
C208 H228 0.930 . S
C209 N207 1.375 . S
C209 C208 1.338 . S
C209 H213 0.931 . S
C210 N207 1.313 . S
C210 N211 1.344 . S
C210 H214 0.930 . S
N211 C208 1.377 . S
N211 C210 1.344 . S
O212 Co204 2.055 . S
O212 C216 1.253 . S
H213 C209 0.931 . S
H214 C210 0.930 . S
O215 Co204 2.039 . S
O215 C205 1.265 . S
C216 O212 1.253 . S
C216 O217 1.227 . S
O217 C216 1.227 . S
N218 Co204 2.140 . S
N218 C221 1.346 . S
N218 C222 1.345 . S
C219 C220 1.387 . S
C219 C223 1.391 . S
C220 C219 1.387 . S
C220 C221 1.369 . S
C220 H229 0.929 . S
C221 N218 1.346 . S
C221 C220 1.369 . S
C221 H224 0.928 . S
C222 N218 1.345 . S
C222 C223 1.371 . S
C222 H225 0.931 . S
C223 C219 1.391 . S
C223 C222 1.371 . S
C223 H230 0.930 . S
H224 C221 0.928 . S
H225 C222 0.931 . S
H226 C202 0.930 . S
H227 C199 0.930 . S
H228 C208 0.930 . S
H229 C220 0.929 . S
H230 C223 0.930 . S
C231 C232 1.351 . S
C231 N234 1.368 . S
C231 H236 0.931 . S
C232 C231 1.351 . S
C232 N233 1.373 . S
C232 H260 0.930 . S
N233 C232 1.373 . S
N233 C235 1.340 . S
N234 C231 1.368 . S
N234 C235 1.321 . S
N234 Co237 2.135 . S
C235 N233 1.340 . S
C235 N234 1.321 . S
C235 H259 0.930 . S
H236 C231 0.931 . S
Co237 N234 2.135 . S
Co237 N240 2.121 . S
Co237 O245 2.055 . S
Co237 O248 2.039 . S
Co237 N251 2.140 . S
C238 O239 1.227 . S
C238 O248 1.265 . S
O239 C238 1.227 . S
N240 Co237 2.121 . S
N240 C242 1.375 . S
N240 C243 1.313 . S
C241 C242 1.338 . S
C241 N244 1.377 . S
C241 H261 0.930 . S
C242 N240 1.375 . S
C242 C241 1.338 . S
C242 H246 0.931 . S
C243 N240 1.313 . S
C243 N244 1.344 . S
C243 H247 0.930 . S
N244 C241 1.377 . S
N244 C243 1.344 . S
O245 Co237 2.055 . S
O245 C249 1.253 . S
H246 C242 0.931 . S
H247 C243 0.930 . S
O248 Co237 2.039 . S
O248 C238 1.265 . S
C249 O245 1.253 . S
C249 O250 1.227 . S
O250 C249 1.227 . S
N251 Co237 2.140 . S
N251 C254 1.346 . S
N251 C255 1.345 . S
C252 C253 1.387 . S
C252 C256 1.391 . S
C253 C252 1.387 . S
C253 C254 1.369 . S
C253 H262 0.929 . S
C254 N251 1.346 . S
C254 C253 1.369 . S
C254 H257 0.928 . S
C255 N251 1.345 . S
C255 C256 1.371 . S
C255 H258 0.931 . S
C256 C252 1.391 . S
C256 C255 1.371 . S
C256 H263 0.930 . S
H257 C254 0.928 . S
H258 C255 0.931 . S
H259 C235 0.930 . S
H260 C232 0.930 . S
H261 C241 0.930 . S
H262 C253 0.929 . S
H263 C256 0.930 . S
C264 C265 1.351 . S
C264 N267 1.368 . S
C264 H269 0.931 . S
C265 C264 1.351 . S
C265 N266 1.373 . S
C265 H293 0.930 . S
N266 C265 1.373 . S
N266 C268 1.340 . S
N267 C264 1.368 . S
N267 C268 1.321 . S
N267 Co270 2.135 . S
C268 N266 1.340 . S
C268 N267 1.321 . S
C268 H292 0.930 . S
H269 C264 0.931 . S
Co270 N267 2.135 . S
Co270 N273 2.121 . S
Co270 O278 2.055 . S
Co270 O281 2.039 . S
Co270 N284 2.140 . S
C271 O272 1.227 . S
C271 O281 1.265 . S
O272 C271 1.227 . S
N273 Co270 2.121 . S
N273 C275 1.375 . S
N273 C276 1.313 . S
C274 C275 1.338 . S
C274 N277 1.377 . S
C274 H294 0.930 . S
C275 N273 1.375 . S
C275 C274 1.338 . S
C275 H279 0.931 . S
C276 N273 1.313 . S
C276 N277 1.344 . S
C276 H280 0.930 . S
N277 C274 1.377 . S
N277 C276 1.344 . S
O278 Co270 2.055 . S
O278 C282 1.253 . S
H279 C275 0.931 . S
H280 C276 0.930 . S
O281 Co270 2.039 . S
O281 C271 1.265 . S
C282 O278 1.253 . S
C282 O283 1.227 . S
O283 C282 1.227 . S
N284 Co270 2.140 . S
N284 C287 1.346 . S
N284 C288 1.345 . S
C285 C286 1.387 . S
C285 C289 1.391 . S
C286 C285 1.387 . S
C286 C287 1.369 . S
C286 H295 0.929 . S
C287 N284 1.346 . S
C287 C286 1.369 . S
C287 H290 0.928 . S
C288 N284 1.345 . S
C288 C289 1.371 . S
C288 H291 0.931 . S
C289 C285 1.391 . S
C289 C288 1.371 . S
C289 H296 0.930 . S
H290 C287 0.928 . S
H291 C288 0.931 . S
H292 C268 0.930 . S
H293 C265 0.930 . S
H294 C274 0.930 . S
H295 C286 0.929 . S
H296 C289 0.930 . S
C297 C298 1.351 . S
C297 N300 1.368 . S
C297 H302 0.931 . S
C298 C297 1.351 . S
C298 N299 1.373 . S
C298 H326 0.930 . S
N299 C298 1.373 . S
N299 C301 1.340 . S
N300 C297 1.368 . S
N300 C301 1.321 . S
N300 Co303 2.135 . S
C301 N299 1.340 . S
C301 N300 1.321 . S
C301 H325 0.930 . S
H302 C297 0.931 . S
Co303 N300 2.135 . S
Co303 N306 2.121 . S
Co303 O311 2.055 . S
Co303 O314 2.039 . S
Co303 N317 2.140 . S
C304 O305 1.227 . S
C304 O314 1.265 . S
O305 C304 1.227 . S
N306 Co303 2.121 . S
N306 C308 1.375 . S
N306 C309 1.313 . S
C307 C308 1.338 . S
C307 N310 1.377 . S
C307 H327 0.930 . S
C308 N306 1.375 . S
C308 C307 1.338 . S
C308 H312 0.931 . S
C309 N306 1.313 . S
C309 N310 1.344 . S
C309 H313 0.930 . S
N310 C307 1.377 . S
N310 C309 1.344 . S
O311 Co303 2.055 . S
O311 C315 1.253 . S
H312 C308 0.931 . S
H313 C309 0.930 . S
O314 Co303 2.039 . S
O314 C304 1.265 . S
C315 O311 1.253 . S
C315 O316 1.227 . S
O316 C315 1.227 . S
N317 Co303 2.140 . S
N317 C320 1.346 . S
N317 C321 1.345 . S
C318 C319 1.387 . S
C318 C322 1.391 . S
C319 C318 1.387 . S
C319 C320 1.369 . S
C319 H328 0.929 . S
C320 N317 1.346 . S
C320 C319 1.369 . S
C320 H323 0.928 . S
C321 N317 1.345 . S
C321 C322 1.371 . S
C321 H324 0.931 . S
C322 C318 1.391 . S
C322 C321 1.371 . S
C322 H329 0.930 . S
H323 C320 0.928 . S
H324 C321 0.931 . S
H325 C301 0.930 . S
H326 C298 0.930 . S
H327 C307 0.930 . S
H328 C319 0.929 . S
H329 C322 0.930 . S
C330 C331 1.368 . S
C330 N333 1.368 . S
C330 H335 0.931 . S
C331 C330 1.368 . S
C331 N332 1.351 1_455 S
C331 H359 0.935 . S
N332 C331 1.351 1_655 S
N332 C334 1.340 . S
N333 C330 1.368 . S
N333 C334 1.321 1_455 S
N333 Co336 2.135 . S
C334 N332 1.340 . S
C334 N333 1.321 1_655 S
C334 H358 0.930 . S
H335 C330 0.931 . S
Co336 N333 2.135 . S
Co336 N339 2.121 . S
Co336 O344 2.055 . S
Co336 O347 2.039 1_455 S
Co336 N350 2.140 . S
C337 O338 1.227 . S
C337 O347 1.265 . S
O338 C337 1.227 . S
N339 Co336 2.121 . S
N339 C341 1.375 . S
N339 C342 1.313 . S
C340 C341 1.338 . S
C340 N343 1.377 . S
C340 H360 0.930 . S
C341 N339 1.375 . S
C341 C340 1.338 . S
C341 H345 0.931 . S
C342 N339 1.313 . S
C342 N343 1.344 . S
C342 H346 0.930 . S
N343 C340 1.377 . S
N343 C342 1.344 . S
O344 Co336 2.055 . S
O344 C348 1.253 . S
H345 C341 0.931 . S
H346 C342 0.930 . S
O347 Co336 2.039 1_655 S
O347 C337 1.265 . S
C348 O344 1.253 . S
C348 O349 1.227 . S
O349 C348 1.227 . S
N350 Co336 2.140 . S
N350 C353 1.346 . S
N350 C354 1.345 . S
C351 C352 1.387 . S
C351 C355 1.391 . S
C352 C351 1.387 . S
C352 C353 1.369 . S
C352 H361 0.929 . S
C353 N350 1.346 . S
C353 C352 1.369 . S
C353 H356 0.928 . S
C354 N350 1.345 . S
C354 C355 1.371 . S
C354 H357 0.931 . S
C355 C351 1.391 . S
C355 C354 1.371 . S
C355 H362 0.930 . S
H356 C353 0.928 . S
H357 C354 0.931 . S
H358 C334 0.930 . S
H359 C331 0.935 . S
H360 C340 0.930 . S
H361 C352 0.929 . S
H362 C355 0.930 . S
C363 C364 1.368 . S
C363 N366 1.368 . S
C363 H368 0.931 . S
C364 C363 1.368 . S
C364 N365 1.351 1_545 S
C364 H392 0.935 . S
N365 C364 1.351 1_565 S
N365 C367 1.340 . S
N366 C363 1.368 . S
N366 C367 1.321 1_545 S
N366 Co369 2.135 . S
C367 N365 1.340 . S
C367 N366 1.321 1_565 S
C367 H391 0.930 . S
H368 C363 0.931 . S
Co369 N366 2.135 . S
Co369 N372 2.121 . S
Co369 O377 2.055 . S
Co369 O380 2.039 1_545 S
Co369 N383 2.140 . S
C370 O371 1.227 . S
C370 O380 1.265 . S
O371 C370 1.227 . S
N372 Co369 2.121 . S
N372 C374 1.375 . S
N372 C375 1.313 . S
C373 C374 1.338 . S
C373 N376 1.377 . S
C373 H393 0.930 . S
C374 N372 1.375 . S
C374 C373 1.338 . S
C374 H378 0.931 . S
C375 N372 1.313 . S
C375 N376 1.344 . S
C375 H379 0.930 . S
N376 C373 1.377 . S
N376 C375 1.344 . S
O377 Co369 2.055 . S
O377 C381 1.253 . S
H378 C374 0.931 . S
H379 C375 0.930 . S
O380 Co369 2.039 1_565 S
O380 C370 1.265 . S
C381 O377 1.253 . S
C381 O382 1.227 . S
O382 C381 1.227 . S
N383 Co369 2.140 . S
N383 C386 1.346 . S
N383 C387 1.345 . S
C384 C385 1.387 . S
C384 C388 1.391 . S
C385 C384 1.387 . S
C385 C386 1.369 . S
C385 H394 0.929 . S
C386 N383 1.346 . S
C386 C385 1.369 . S
C386 H389 0.928 . S
C387 N383 1.345 . S
C387 C388 1.371 . S
C387 H390 0.931 . S
C388 C384 1.391 . S
C388 C387 1.371 . S
C388 H395 0.930 . S
H389 C386 0.928 . S
H390 C387 0.931 . S
H391 C367 0.930 . S
H392 C364 0.935 . S
H393 C373 0.930 . S
H394 C385 0.929 . S
H395 C388 0.930 . S
C396 C397 1.368 . S
C396 N399 1.368 . S
C396 H401 0.931 . S
C397 C396 1.368 . S
C397 N398 1.351 1_655 S
C397 H425 0.935 . S
N398 C397 1.351 1_455 S
N398 C400 1.340 . S
N399 C396 1.368 . S
N399 C400 1.321 1_655 S
N399 Co402 2.135 . S
C400 N398 1.340 . S
C400 N399 1.321 1_455 S
C400 H424 0.930 . S
H401 C396 0.931 . S
Co402 N399 2.135 . S
Co402 N405 2.121 . S
Co402 O410 2.055 . S
Co402 O413 2.039 1_655 S
Co402 N416 2.140 . S
C403 O404 1.227 . S
C403 O413 1.265 . S
O404 C403 1.227 . S
N405 Co402 2.121 . S
N405 C407 1.375 . S
N405 C408 1.313 . S
C406 C407 1.338 . S
C406 N409 1.377 . S
C406 H426 0.930 . S
C407 N405 1.375 . S
C407 C406 1.338 . S
C407 H411 0.931 . S
C408 N405 1.313 . S
C408 N409 1.344 . S
C408 H412 0.930 . S
N409 C406 1.377 . S
N409 C408 1.344 . S
O410 Co402 2.055 . S
O410 C414 1.253 . S
H411 C407 0.931 . S
H412 C408 0.930 . S
O413 Co402 2.039 1_455 S
O413 C403 1.265 . S
C414 O410 1.253 . S
C414 O415 1.227 . S
O415 C414 1.227 . S
N416 Co402 2.140 . S
N416 C419 1.346 . S
N416 C420 1.345 . S
C417 C418 1.387 . S
C417 C421 1.391 . S
C418 C417 1.387 . S
C418 C419 1.369 . S
C418 H427 0.929 . S
C419 N416 1.346 . S
C419 C418 1.369 . S
C419 H422 0.928 . S
C420 N416 1.345 . S
C420 C421 1.371 . S
C420 H423 0.931 . S
C421 C417 1.391 . S
C421 C420 1.371 . S
C421 H428 0.930 . S
H422 C419 0.928 . S
H423 C420 0.931 . S
H424 C400 0.930 . S
H425 C397 0.935 . S
H426 C406 0.930 . S
H427 C418 0.929 . S
H428 C421 0.930 . S
C429 C430 1.368 . S
C429 N432 1.368 . S
C429 H434 0.931 . S
C430 C429 1.368 . S
C430 N431 1.351 1_565 S
C430 H458 0.935 . S
N431 C430 1.351 1_545 S
N431 C433 1.340 . S
N432 C429 1.368 . S
N432 C433 1.321 1_565 S
N432 Co435 2.135 . S
C433 N431 1.340 . S
C433 N432 1.321 1_545 S
C433 H457 0.930 . S
H434 C429 0.931 . S
Co435 N432 2.135 . S
Co435 N438 2.121 . S
Co435 O443 2.055 . S
Co435 O446 2.039 1_565 S
Co435 N449 2.140 . S
C436 O437 1.227 . S
C436 O446 1.265 . S
O437 C436 1.227 . S
N438 Co435 2.121 . S
N438 C440 1.375 . S
N438 C441 1.313 . S
C439 C440 1.338 . S
C439 N442 1.377 . S
C439 H459 0.930 . S
C440 N438 1.375 . S
C440 C439 1.338 . S
C440 H444 0.931 . S
C441 N438 1.313 . S
C441 N442 1.344 . S
C441 H445 0.930 . S
N442 C439 1.377 . S
N442 C441 1.344 . S
O443 Co435 2.055 . S
O443 C447 1.253 . S
H444 C440 0.931 . S
H445 C441 0.930 . S
O446 Co435 2.039 1_545 S
O446 C436 1.265 . S
C447 O443 1.253 . S
C447 O448 1.227 . S
O448 C447 1.227 . S
N449 Co435 2.140 . S
N449 C452 1.346 . S
N449 C453 1.345 . S
C450 C451 1.387 . S
C450 C454 1.391 . S
C451 C450 1.387 . S
C451 C452 1.369 . S
C451 H460 0.929 . S
C452 N449 1.346 . S
C452 C451 1.369 . S
C452 H455 0.928 . S
C453 N449 1.345 . S
C453 C454 1.371 . S
C453 H456 0.931 . S
C454 C450 1.391 . S
C454 C453 1.371 . S
C454 H461 0.930 . S
H455 C452 0.928 . S
H456 C453 0.931 . S
H457 C433 0.930 . S
H458 C430 0.935 . S
H459 C439 0.930 . S
H460 C451 0.929 . S
H461 C454 0.930 . S
C462 C463 1.351 . S
C462 N465 1.368 . S
C462 H467 0.931 . S
C463 C462 1.351 . S
C463 N464 1.373 . S
C463 H491 0.930 . S
N464 C463 1.373 . S
N464 C466 1.340 . S
N465 C462 1.368 . S
N465 C466 1.321 . S
N465 Co468 2.135 . S
C466 N464 1.340 . S
C466 N465 1.321 . S
C466 H490 0.930 . S
H467 C462 0.931 . S
Co468 N465 2.135 . S
Co468 N471 2.121 . S
Co468 O476 2.055 . S
Co468 O479 2.039 . S
Co468 N482 2.140 . S
C469 O470 1.227 . S
C469 O479 1.265 . S
O470 C469 1.227 . S
N471 Co468 2.121 . S
N471 C473 1.375 . S
N471 C474 1.313 . S
C472 C473 1.338 . S
C472 N475 1.377 . S
C472 H492 0.930 . S
C473 N471 1.375 . S
C473 C472 1.338 . S
C473 H477 0.931 . S
C474 N471 1.313 . S
C474 N475 1.344 . S
C474 H478 0.930 . S
N475 C472 1.377 . S
N475 C474 1.344 . S
O476 Co468 2.055 . S
O476 C480 1.253 . S
H477 C473 0.931 . S
H478 C474 0.930 . S
O479 Co468 2.039 . S
O479 C469 1.265 . S
C480 O476 1.253 . S
C480 O481 1.227 . S
O481 C480 1.227 . S
N482 Co468 2.140 . S
N482 C485 1.346 . S
N482 C486 1.345 . S
C483 C484 1.387 . S
C483 C487 1.391 . S
C484 C483 1.387 . S
C484 C485 1.369 . S
C484 H493 0.929 . S
C485 N482 1.346 . S
C485 C484 1.369 . S
C485 H488 0.928 . S
C486 N482 1.345 . S
C486 C487 1.371 . S
C486 H489 0.931 . S
C487 C483 1.391 . S
C487 C486 1.371 . S
C487 H494 0.930 . S
H488 C485 0.928 . S
H489 C486 0.931 . S
H490 C466 0.930 . S
H491 C463 0.930 . S
H492 C472 0.930 . S
H493 C484 0.929 . S
H494 C487 0.930 . S
C495 C496 1.351 . S
C495 N498 1.368 . S
C495 H500 0.931 . S
C496 C495 1.351 . S
C496 N497 1.373 . S
C496 H524 0.930 . S
N497 C496 1.373 . S
N497 C499 1.340 . S
N498 C495 1.368 . S
N498 C499 1.321 . S
N498 Co501 2.135 . S
C499 N497 1.340 . S
C499 N498 1.321 . S
C499 H523 0.930 . S
H500 C495 0.931 . S
Co501 N498 2.135 . S
Co501 N504 2.121 . S
Co501 O509 2.055 . S
Co501 O512 2.039 . S
Co501 N515 2.140 . S
C502 O503 1.227 . S
C502 O512 1.265 . S
O503 C502 1.227 . S
N504 Co501 2.121 . S
N504 C506 1.375 . S
N504 C507 1.313 . S
C505 C506 1.338 . S
C505 N508 1.377 . S
C505 H525 0.930 . S
C506 N504 1.375 . S
C506 C505 1.338 . S
C506 H510 0.931 . S
C507 N504 1.313 . S
C507 N508 1.344 . S
C507 H511 0.930 . S
N508 C505 1.377 . S
N508 C507 1.344 . S
O509 Co501 2.055 . S
O509 C513 1.253 . S
H510 C506 0.931 . S
H511 C507 0.930 . S
O512 Co501 2.039 . S
O512 C502 1.265 . S
C513 O509 1.253 . S
C513 O514 1.227 . S
O514 C513 1.227 . S
N515 Co501 2.140 . S
N515 C518 1.346 . S
N515 C519 1.345 . S
C516 C517 1.387 . S
C516 C520 1.391 . S
C517 C516 1.387 . S
C517 C518 1.369 . S
C517 H526 0.929 . S
C518 N515 1.346 . S
C518 C517 1.369 . S
C518 H521 0.928 . S
C519 N515 1.345 . S
C519 C520 1.371 . S
C519 H522 0.931 . S
C520 C516 1.391 . S
C520 C519 1.371 . S
C520 H527 0.930 . S
H521 C518 0.928 . S
H522 C519 0.931 . S
H523 C499 0.930 . S
H524 C496 0.930 . S
H525 C505 0.930 . S
H526 C517 0.929 . S
H527 C520 0.930 . S
C528 C529 1.391 . S
C528 C530 1.394 . S
C528 H544 0.931 . S
C529 C528 1.391 . S
C529 C533 1.376 . S
C530 C528 1.394 . S
C530 C531 1.369 . S
C530 C534 1.531 . S
C531 C530 1.369 . S
C531 C532 1.410 . S
C531 C539 1.503 . S
C532 C531 1.410 . S
C532 C533 1.392 . S
C532 C535 1.511 . S
C533 C529 1.376 . S
C533 C532 1.392 . S
C533 H545 0.929 . S
C534 C530 1.531 . S
C534 H546 0.960 . S
C534 H547 0.962 . S
C534 H548 0.960 . S
C535 C532 1.511 . S
C535 H549 0.961 . S
C535 H550 0.961 . S
C535 H551 0.961 . S
C536 C537 1.370 . S
C536 C538 1.363 . S
C536 H552 0.931 . S
C537 C536 1.370 . S
C537 C541 1.408 . S
C538 C536 1.363 . S
C538 C539 1.370 . S
C538 C542 1.524 . S
C539 C531 1.503 . S
C539 C538 1.370 . S
C539 C540 1.403 . S
C540 C539 1.403 . S
C540 C541 1.404 . S
C540 C543 1.539 . S
C541 C537 1.408 . S
C541 C540 1.404 . S
C541 H553 0.930 . S
C542 C538 1.524 . S
C542 H554 0.956 . S
C542 H555 0.961 . S
C542 H556 0.961 . S
C543 C540 1.539 . S
C543 H557 0.958 . S
C543 H558 0.961 . S
C543 H559 0.960 . S
H544 C528 0.931 . S
H545 C533 0.929 . S
H546 C534 0.960 . S
H547 C534 0.962 . S
H548 C534 0.960 . S
H549 C535 0.961 . S
H550 C535 0.961 . S
H551 C535 0.961 . S
H552 C536 0.931 . S
H553 C541 0.930 . S
H554 C542 0.956 . S
H555 C542 0.961 . S
H556 C542 0.961 . S
H557 C543 0.958 . S
H558 C543 0.961 . S
H559 C543 0.960 . S
C560 C561 1.391 . S
C560 C562 1.394 . S
C560 H576 0.931 . S
C561 C560 1.391 . S
C561 C565 1.376 . S
C562 C560 1.394 . S
C562 C563 1.369 . S
C562 C566 1.531 . S
C563 C562 1.369 . S
C563 C564 1.410 . S
C563 C571 1.503 . S
C564 C563 1.410 . S
C564 C565 1.392 . S
C564 C567 1.511 . S
C565 C561 1.376 . S
C565 C564 1.392 . S
C565 H577 0.929 . S
C566 C562 1.531 . S
C566 H578 0.960 . S
C566 H579 0.962 . S
C566 H580 0.960 . S
C567 C564 1.511 . S
C567 H581 0.961 . S
C567 H582 0.961 . S
C567 H583 0.961 . S
C568 C569 1.370 . S
C568 C570 1.363 . S
C568 H584 0.931 . S
C569 C568 1.370 . S
C569 C573 1.408 . S
C570 C568 1.363 . S
C570 C571 1.370 . S
C570 C574 1.524 . S
C571 C563 1.503 . S
C571 C570 1.370 . S
C571 C572 1.403 . S
C572 C571 1.403 . S
C572 C573 1.404 . S
C572 C575 1.539 . S
C573 C569 1.408 . S
C573 C572 1.404 . S
C573 H585 0.930 . S
C574 C570 1.524 . S
C574 H586 0.956 . S
C574 H587 0.961 . S
C574 H588 0.961 . S
C575 C572 1.539 . S
C575 H589 0.958 . S
C575 H590 0.961 . S
C575 H591 0.960 . S
H576 C560 0.931 . S
H577 C565 0.929 . S
H578 C566 0.960 . S
H579 C566 0.962 . S
H580 C566 0.960 . S
H581 C567 0.961 . S
H582 C567 0.961 . S
H583 C567 0.961 . S
H584 C568 0.931 . S
H585 C573 0.930 . S
H586 C574 0.956 . S
H587 C574 0.961 . S
H588 C574 0.961 . S
H589 C575 0.958 . S
H590 C575 0.961 . S
H591 C575 0.960 . S
C592 C593 1.391 . S
C592 C594 1.394 . S
C592 H608 0.931 . S
C593 C592 1.391 . S
C593 C597 1.376 . S
C594 C592 1.394 . S
C594 C595 1.369 . S
C594 C598 1.531 . S
C595 C594 1.369 . S
C595 C596 1.410 . S
C595 C603 1.503 . S
C596 C595 1.410 . S
C596 C597 1.392 . S
C596 C599 1.511 . S
C597 C593 1.376 . S
C597 C596 1.392 . S
C597 H609 0.929 . S
C598 C594 1.531 . S
C598 H610 0.960 . S
C598 H611 0.962 . S
C598 H612 0.960 . S
C599 C596 1.511 . S
C599 H613 0.961 . S
C599 H614 0.961 . S
C599 H615 0.961 . S
C600 C601 1.370 . S
C600 C602 1.363 . S
C600 H616 0.931 . S
C601 C600 1.370 . S
C601 C605 1.408 . S
C602 C600 1.363 . S
C602 C603 1.370 . S
C602 C606 1.524 . S
C603 C595 1.503 . S
C603 C602 1.370 . S
C603 C604 1.403 . S
C604 C603 1.403 . S
C604 C605 1.404 . S
C604 C607 1.539 . S
C605 C601 1.408 . S
C605 C604 1.404 . S
C605 H617 0.930 . S
C606 C602 1.524 . S
C606 H618 0.956 . S
C606 H619 0.961 . S
C606 H620 0.961 . S
C607 C604 1.539 . S
C607 H621 0.958 . S
C607 H622 0.961 . S
C607 H623 0.960 . S
H608 C592 0.931 . S
H609 C597 0.929 . S
H610 C598 0.960 . S
H611 C598 0.962 . S
H612 C598 0.960 . S
H613 C599 0.961 . S
H614 C599 0.961 . S
H615 C599 0.961 . S
H616 C600 0.931 . S
H617 C605 0.930 . S
H618 C606 0.956 . S
H619 C606 0.961 . S
H620 C606 0.961 . S
H621 C607 0.958 . S
H622 C607 0.961 . S
H623 C607 0.960 . S
C624 C625 1.391 . S
C624 C626 1.394 . S
C624 H640 0.931 . S
C625 C624 1.391 . S
C625 C629 1.376 . S
C626 C624 1.394 . S
C626 C627 1.369 . S
C626 C630 1.531 . S
C627 C626 1.369 . S
C627 C628 1.410 . S
C627 C635 1.503 . S
C628 C627 1.410 . S
C628 C629 1.392 . S
C628 C631 1.511 . S
C629 C625 1.376 . S
C629 C628 1.392 . S
C629 H641 0.929 . S
C630 C626 1.531 . S
C630 H642 0.960 . S
C630 H643 0.962 . S
C630 H644 0.960 . S
C631 C628 1.511 . S
C631 H645 0.961 . S
C631 H646 0.961 . S
C631 H647 0.961 . S
C632 C633 1.370 . S
C632 C634 1.363 . S
C632 H648 0.931 . S
C633 C632 1.370 . S
C633 C637 1.408 . S
C634 C632 1.363 . S
C634 C635 1.370 . S
C634 C638 1.524 . S
C635 C627 1.503 . S
C635 C634 1.370 . S
C635 C636 1.403 . S
C636 C635 1.403 . S
C636 C637 1.404 . S
C636 C639 1.539 . S
C637 C633 1.408 . S
C637 C636 1.404 . S
C637 H649 0.930 . S
C638 C634 1.524 . S
C638 H650 0.956 . S
C638 H651 0.961 . S
C638 H652 0.961 . S
C639 C636 1.539 . S
C639 H653 0.958 . S
C639 H654 0.961 . S
C639 H655 0.960 . S
H640 C624 0.931 . S
H641 C629 0.929 . S
H642 C630 0.960 . S
H643 C630 0.962 . S
H644 C630 0.960 . S
H645 C631 0.961 . S
H646 C631 0.961 . S
H647 C631 0.961 . S
H648 C632 0.931 . S
H649 C637 0.930 . S
H650 C638 0.956 . S
H651 C638 0.961 . S
H652 C638 0.961 . S
H653 C639 0.958 . S
H654 C639 0.961 . S
H655 C639 0.960 . S
C656 C657 1.391 . S
C656 C658 1.394 . S
C656 H672 0.931 . S
C657 C656 1.391 . S
C657 C661 1.376 . S
C658 C656 1.394 . S
C658 C659 1.369 . S
C658 C662 1.531 . S
C659 C658 1.369 . S
C659 C660 1.410 . S
C659 C667 1.503 . S
C660 C659 1.410 . S
C660 C661 1.392 . S
C660 C663 1.511 . S
C661 C657 1.376 . S
C661 C660 1.392 . S
C661 H673 0.929 . S
C662 C658 1.531 . S
C662 H674 0.960 . S
C662 H675 0.962 . S
C662 H676 0.960 . S
C663 C660 1.511 . S
C663 H677 0.961 . S
C663 H678 0.961 . S
C663 H679 0.961 . S
C664 C665 1.370 . S
C664 C666 1.363 . S
C664 H680 0.931 . S
C665 C664 1.370 . S
C665 C669 1.408 . S
C666 C664 1.363 . S
C666 C667 1.370 . S
C666 C670 1.524 . S
C667 C659 1.503 . S
C667 C666 1.370 . S
C667 C668 1.403 . S
C668 C667 1.403 . S
C668 C669 1.404 . S
C668 C671 1.539 . S
C669 C665 1.408 . S
C669 C668 1.404 . S
C669 H681 0.930 . S
C670 C666 1.524 . S
C670 H682 0.956 . S
C670 H683 0.961 . S
C670 H684 0.961 . S
C671 C668 1.539 . S
C671 H685 0.958 . S
C671 H686 0.961 . S
C671 H687 0.960 . S
H672 C656 0.931 . S
H673 C661 0.929 . S
H674 C662 0.960 . S
H675 C662 0.962 . S
H676 C662 0.960 . S
H677 C663 0.961 . S
H678 C663 0.961 . S
H679 C663 0.961 . S
H680 C664 0.931 . S
H681 C669 0.930 . S
H682 C670 0.956 . S
H683 C670 0.961 . S
H684 C670 0.961 . S
H685 C671 0.958 . S
H686 C671 0.961 . S
H687 C671 0.960 . S
C688 C689 1.391 . S
C688 C690 1.394 . S
C688 H704 0.931 . S
C689 C688 1.391 . S
C689 C693 1.376 . S
C690 C688 1.394 . S
C690 C691 1.369 . S
C690 C694 1.531 . S
C691 C690 1.369 . S
C691 C692 1.410 . S
C691 C699 1.503 . S
C692 C691 1.410 . S
C692 C693 1.392 . S
C692 C695 1.511 . S
C693 C689 1.376 . S
C693 C692 1.392 . S
C693 H705 0.929 . S
C694 C690 1.531 . S
C694 H706 0.960 . S
C694 H707 0.962 . S
C694 H708 0.960 . S
C695 C692 1.511 . S
C695 H709 0.961 . S
C695 H710 0.961 . S
C695 H711 0.961 . S
C696 C697 1.370 . S
C696 C698 1.363 . S
C696 H712 0.931 . S
C697 C696 1.370 . S
C697 C701 1.408 . S
C698 C696 1.363 . S
C698 C699 1.370 . S
C698 C702 1.524 . S
C699 C691 1.503 . S
C699 C698 1.370 . S
C699 C700 1.403 . S
C700 C699 1.403 . S
C700 C701 1.404 . S
C700 C703 1.539 . S
C701 C697 1.408 . S
C701 C700 1.404 . S
C701 H713 0.930 . S
C702 C698 1.524 . S
C702 H714 0.956 . S
C702 H715 0.961 . S
C702 H716 0.961 . S
C703 C700 1.539 . S
C703 H717 0.958 . S
C703 H718 0.961 . S
C703 H719 0.960 . S
H704 C688 0.931 . S
H705 C693 0.929 . S
H706 C694 0.960 . S
H707 C694 0.962 . S
H708 C694 0.960 . S
H709 C695 0.961 . S
H710 C695 0.961 . S
H711 C695 0.961 . S
H712 C696 0.931 . S
H713 C701 0.930 . S
H714 C702 0.956 . S
H715 C702 0.961 . S
H716 C702 0.961 . S
H717 C703 0.958 . S
H718 C703 0.961 . S
H719 C703 0.960 . S
C720 C721 1.391 . S
C720 C722 1.394 . S
C720 H736 0.931 . S
C721 C720 1.391 . S
C721 C725 1.376 . S
C722 C720 1.394 . S
C722 C723 1.369 . S
C722 C726 1.531 . S
C723 C722 1.369 . S
C723 C724 1.410 . S
C723 C731 1.503 . S
C724 C723 1.410 . S
C724 C725 1.392 . S
C724 C727 1.511 . S
C725 C721 1.376 . S
C725 C724 1.392 . S
C725 H737 0.929 . S
C726 C722 1.531 . S
C726 H738 0.960 . S
C726 H739 0.962 . S
C726 H740 0.960 . S
C727 C724 1.511 . S
C727 H741 0.961 . S
C727 H742 0.961 . S
C727 H743 0.961 . S
C728 C729 1.370 . S
C728 C730 1.363 . S
C728 H744 0.931 . S
C729 C728 1.370 . S
C729 C733 1.408 . S
C730 C728 1.363 . S
C730 C731 1.370 . S
C730 C734 1.524 . S
C731 C723 1.503 . S
C731 C730 1.370 . S
C731 C732 1.403 . S
C732 C731 1.403 . S
C732 C733 1.404 . S
C732 C735 1.539 . S
C733 C729 1.408 . S
C733 C732 1.404 . S
C733 H745 0.930 . S
C734 C730 1.524 . S
C734 H746 0.956 . S
C734 H747 0.961 . S
C734 H748 0.961 . S
C735 C732 1.539 . S
C735 H749 0.958 . S
C735 H750 0.961 . S
C735 H751 0.960 . S
H736 C720 0.931 . S
H737 C725 0.929 . S
H738 C726 0.960 . S
H739 C726 0.962 . S
H740 C726 0.960 . S
H741 C727 0.961 . S
H742 C727 0.961 . S
H743 C727 0.961 . S
H744 C728 0.931 . S
H745 C733 0.930 . S
H746 C734 0.956 . S
H747 C734 0.961 . S
H748 C734 0.961 . S
H749 C735 0.958 . S
H750 C735 0.961 . S
H751 C735 0.960 . S
C752 C753 1.391 . S
C752 C754 1.394 . S
C752 H768 0.931 . S
C753 C752 1.391 . S
C753 C757 1.376 . S
C754 C752 1.394 . S
C754 C755 1.369 . S
C754 C758 1.531 . S
C755 C754 1.369 . S
C755 C756 1.410 . S
C755 C763 1.503 . S
C756 C755 1.410 . S
C756 C757 1.392 . S
C756 C759 1.511 . S
C757 C753 1.376 . S
C757 C756 1.392 . S
C757 H769 0.929 . S
C758 C754 1.531 . S
C758 H770 0.960 . S
C758 H771 0.962 . S
C758 H772 0.960 . S
C759 C756 1.511 . S
C759 H773 0.961 . S
C759 H774 0.961 . S
C759 H775 0.961 . S
C760 C761 1.370 . S
C760 C762 1.363 . S
C760 H776 0.931 . S
C761 C760 1.370 . S
C761 C765 1.408 . S
C762 C760 1.363 . S
C762 C763 1.370 . S
C762 C766 1.524 . S
C763 C755 1.503 . S
C763 C762 1.370 . S
C763 C764 1.403 . S
C764 C763 1.403 . S
C764 C765 1.404 . S
C764 C767 1.539 . S
C765 C761 1.408 . S
C765 C764 1.404 . S
C765 H777 0.930 . S
C766 C762 1.524 . S
C766 H778 0.956 . S
C766 H779 0.961 . S
C766 H780 0.961 . S
C767 C764 1.539 . S
C767 H781 0.958 . S
C767 H782 0.961 . S
C767 H783 0.960 . S
H768 C752 0.931 . S
H769 C757 0.929 . S
H770 C758 0.960 . S
H771 C758 0.962 . S
H772 C758 0.960 . S
H773 C759 0.961 . S
H774 C759 0.961 . S
H775 C759 0.961 . S
H776 C760 0.931 . S
H777 C765 0.930 . S
H778 C766 0.956 . S
H779 C766 0.961 . S
H780 C766 0.961 . S
H781 C767 0.958 . S
H782 C767 0.961 . S
H783 C767 0.960 . S
C784 C785 1.391 . S
C784 C786 1.394 . S
C784 H800 0.931 . S
C785 C784 1.391 . S
C785 C789 1.376 . S
C786 C784 1.394 . S
C786 C787 1.369 . S
C786 C790 1.531 . S
C787 C786 1.369 . S
C787 C788 1.410 . S
C787 C795 1.503 . S
C788 C787 1.410 . S
C788 C789 1.392 . S
C788 C791 1.511 . S
C789 C785 1.376 . S
C789 C788 1.392 . S
C789 H801 0.929 . S
C790 C786 1.531 . S
C790 H802 0.960 . S
C790 H803 0.962 . S
C790 H804 0.960 . S
C791 C788 1.511 . S
C791 H805 0.961 . S
C791 H806 0.961 . S
C791 H807 0.961 . S
C792 C793 1.370 . S
C792 C794 1.363 . S
C792 H808 0.931 . S
C793 C792 1.370 . S
C793 C797 1.408 . S
C794 C792 1.363 . S
C794 C795 1.370 . S
C794 C798 1.524 . S
C795 C787 1.503 . S
C795 C794 1.370 . S
C795 C796 1.403 . S
C796 C795 1.403 . S
C796 C797 1.404 . S
C796 C799 1.539 . S
C797 C793 1.408 . S
C797 C796 1.404 . S
C797 H809 0.930 . S
C798 C794 1.524 . S
C798 H810 0.956 . S
C798 H811 0.961 . S
C798 H812 0.961 . S
C799 C796 1.539 . S
C799 H813 0.958 . S
C799 H814 0.961 . S
C799 H815 0.960 . S
H800 C784 0.931 . S
H801 C789 0.929 . S
H802 C790 0.960 . S
H803 C790 0.962 . S
H804 C790 0.960 . S
H805 C791 0.961 . S
H806 C791 0.961 . S
H807 C791 0.961 . S
H808 C792 0.931 . S
H809 C797 0.930 . S
H810 C798 0.956 . S
H811 C798 0.961 . S
H812 C798 0.961 . S
H813 C799 0.958 . S
H814 C799 0.961 . S
H815 C799 0.960 . S
C816 C817 1.391 . S
C816 C818 1.394 . S
C816 H832 0.931 . S
C817 C816 1.391 . S
C817 C821 1.376 . S
C818 C816 1.394 . S
C818 C819 1.369 . S
C818 C822 1.531 . S
C819 C818 1.369 . S
C819 C820 1.410 . S
C819 C827 1.503 . S
C820 C819 1.410 . S
C820 C821 1.392 . S
C820 C823 1.511 . S
C821 C817 1.376 . S
C821 C820 1.392 . S
C821 H833 0.929 . S
C822 C818 1.531 . S
C822 H834 0.960 . S
C822 H835 0.962 . S
C822 H836 0.960 . S
C823 C820 1.511 . S
C823 H837 0.961 . S
C823 H838 0.961 . S
C823 H839 0.961 . S
C824 C825 1.370 . S
C824 C826 1.363 . S
C824 H840 0.931 . S
C825 C824 1.370 . S
C825 C829 1.408 . S
C826 C824 1.363 . S
C826 C827 1.370 . S
C826 C830 1.524 . S
C827 C819 1.503 . S
C827 C826 1.370 . S
C827 C828 1.403 . S
C828 C827 1.403 . S
C828 C829 1.404 . S
C828 C831 1.539 . S
C829 C825 1.408 . S
C829 C828 1.404 . S
C829 H841 0.930 . S
C830 C826 1.524 . S
C830 H842 0.956 . S
C830 H843 0.961 . S
C830 H844 0.961 . S
C831 C828 1.539 . S
C831 H845 0.958 . S
C831 H846 0.961 . S
C831 H847 0.960 . S
H832 C816 0.931 . S
H833 C821 0.929 . S
H834 C822 0.960 . S
H835 C822 0.962 . S
H836 C822 0.960 . S
H837 C823 0.961 . S
H838 C823 0.961 . S
H839 C823 0.961 . S
H840 C824 0.931 . S
H841 C829 0.930 . S
H842 C830 0.956 . S
H843 C830 0.961 . S
H844 C830 0.961 . S
H845 C831 0.958 . S
H846 C831 0.961 . S
H847 C831 0.960 . S
C848 C849 1.391 . S
C848 C850 1.394 . S
C848 H864 0.931 . S
C849 C848 1.391 . S
C849 C853 1.376 . S
C850 C848 1.394 . S
C850 C851 1.369 . S
C850 C854 1.531 . S
C851 C850 1.369 . S
C851 C852 1.410 . S
C851 C859 1.503 . S
C852 C851 1.410 . S
C852 C853 1.392 . S
C852 C855 1.511 . S
C853 C849 1.376 . S
C853 C852 1.392 . S
C853 H865 0.929 . S
C854 C850 1.531 . S
C854 H866 0.960 . S
C854 H867 0.962 . S
C854 H868 0.960 . S
C855 C852 1.511 . S
C855 H869 0.961 . S
C855 H870 0.961 . S
C855 H871 0.961 . S
C856 C857 1.370 . S
C856 C858 1.363 . S
C856 H872 0.931 . S
C857 C856 1.370 . S
C857 C861 1.408 . S
C858 C856 1.363 . S
C858 C859 1.370 . S
C858 C862 1.524 . S
C859 C851 1.503 . S
C859 C858 1.370 . S
C859 C860 1.403 . S
C860 C859 1.403 . S
C860 C861 1.404 . S
C860 C863 1.539 . S
C861 C857 1.408 . S
C861 C860 1.404 . S
C861 H873 0.930 . S
C862 C858 1.524 . S
C862 H874 0.956 . S
C862 H875 0.961 . S
C862 H876 0.961 . S
C863 C860 1.539 . S
C863 H877 0.958 . S
C863 H878 0.961 . S
C863 H879 0.960 . S
H864 C848 0.931 . S
H865 C853 0.929 . S
H866 C854 0.960 . S
H867 C854 0.962 . S
H868 C854 0.960 . S
H869 C855 0.961 . S
H870 C855 0.961 . S
H871 C855 0.961 . S
H872 C856 0.931 . S
H873 C861 0.930 . S
H874 C862 0.956 . S
H875 C862 0.961 . S
H876 C862 0.961 . S
H877 C863 0.958 . S
H878 C863 0.961 . S
H879 C863 0.960 . S
C880 C881 1.391 . S
C880 C882 1.394 . S
C880 H896 0.931 . S
C881 C880 1.391 . S
C881 C885 1.376 . S
C882 C880 1.394 . S
C882 C883 1.369 . S
C882 C886 1.531 . S
C883 C882 1.369 . S
C883 C884 1.410 . S
C883 C891 1.503 . S
C884 C883 1.410 . S
C884 C885 1.392 . S
C884 C887 1.511 . S
C885 C881 1.376 . S
C885 C884 1.392 . S
C885 H897 0.929 . S
C886 C882 1.531 . S
C886 H898 0.960 . S
C886 H899 0.962 . S
C886 H900 0.960 . S
C887 C884 1.511 . S
C887 H901 0.961 . S
C887 H902 0.961 . S
C887 H903 0.961 . S
C888 C889 1.370 . S
C888 C890 1.363 . S
C888 H904 0.931 . S
C889 C888 1.370 . S
C889 C893 1.408 . S
C890 C888 1.363 . S
C890 C891 1.370 . S
C890 C894 1.524 . S
C891 C883 1.503 . S
C891 C890 1.370 . S
C891 C892 1.403 . S
C892 C891 1.403 . S
C892 C893 1.404 . S
C892 C895 1.539 . S
C893 C889 1.408 . S
C893 C892 1.404 . S
C893 H905 0.930 . S
C894 C890 1.524 . S
C894 H906 0.956 . S
C894 H907 0.961 . S
C894 H908 0.961 . S
C895 C892 1.539 . S
C895 H909 0.958 . S
C895 H910 0.961 . S
C895 H911 0.960 . S
H896 C880 0.931 . S
H897 C885 0.929 . S
H898 C886 0.960 . S
H899 C886 0.962 . S
H900 C886 0.960 . S
H901 C887 0.961 . S
H902 C887 0.961 . S
H903 C887 0.961 . S
H904 C888 0.931 . S
H905 C893 0.930 . S
H906 C894 0.956 . S
H907 C894 0.961 . S
H908 C894 0.961 . S
H909 C895 0.958 . S
H910 C895 0.961 . S
H911 C895 0.960 . S
C912 C913 1.391 . S
C912 C914 1.394 . S
C912 H928 0.931 . S
C913 C912 1.391 . S
C913 C917 1.376 . S
C914 C912 1.394 . S
C914 C915 1.369 . S
C914 C918 1.531 . S
C915 C914 1.369 . S
C915 C916 1.410 . S
C915 C923 1.503 . S
C916 C915 1.410 . S
C916 C917 1.392 . S
C916 C919 1.511 . S
C917 C913 1.376 . S
C917 C916 1.392 . S
C917 H929 0.929 . S
C918 C914 1.531 . S
C918 H930 0.960 . S
C918 H931 0.962 . S
C918 H932 0.960 . S
C919 C916 1.511 . S
C919 H933 0.961 . S
C919 H934 0.961 . S
C919 H935 0.961 . S
C920 C921 1.370 . S
C920 C922 1.363 . S
C920 H936 0.931 . S
C921 C920 1.370 . S
C921 C925 1.408 . S
C922 C920 1.363 . S
C922 C923 1.370 . S
C922 C926 1.524 . S
C923 C915 1.503 . S
C923 C922 1.370 . S
C923 C924 1.403 . S
C924 C923 1.403 . S
C924 C925 1.404 . S
C924 C927 1.539 . S
C925 C921 1.408 . S
C925 C924 1.404 . S
C925 H937 0.930 . S
C926 C922 1.524 . S
C926 H938 0.956 . S
C926 H939 0.961 . S
C926 H940 0.961 . S
C927 C924 1.539 . S
C927 H941 0.958 . S
C927 H942 0.961 . S
C927 H943 0.960 . S
H928 C912 0.931 . S
H929 C917 0.929 . S
H930 C918 0.960 . S
H931 C918 0.962 . S
H932 C918 0.960 . S
H933 C919 0.961 . S
H934 C919 0.961 . S
H935 C919 0.961 . S
H936 C920 0.931 . S
H937 C925 0.930 . S
H938 C926 0.956 . S
H939 C926 0.961 . S
H940 C926 0.961 . S
H941 C927 0.958 . S
H942 C927 0.961 . S
H943 C927 0.960 . S
C944 C945 1.391 . S
C944 C946 1.394 . S
C944 H960 0.931 . S
C945 C944 1.391 . S
C945 C949 1.376 . S
C946 C944 1.394 . S
C946 C947 1.369 . S
C946 C950 1.531 . S
C947 C946 1.369 . S
C947 C948 1.410 . S
C947 C955 1.503 . S
C948 C947 1.410 . S
C948 C949 1.392 . S
C948 C951 1.511 . S
C949 C945 1.376 . S
C949 C948 1.392 . S
C949 H961 0.929 . S
C950 C946 1.531 . S
C950 H962 0.960 . S
C950 H963 0.962 . S
C950 H964 0.960 . S
C951 C948 1.511 . S
C951 H965 0.961 . S
C951 H966 0.961 . S
C951 H967 0.961 . S
C952 C953 1.370 . S
C952 C954 1.363 . S
C952 H968 0.931 . S
C953 C952 1.370 . S
C953 C957 1.408 . S
C954 C952 1.363 . S
C954 C955 1.370 . S
C954 C958 1.524 . S
C955 C947 1.503 . S
C955 C954 1.370 . S
C955 C956 1.403 . S
C956 C955 1.403 . S
C956 C957 1.404 . S
C956 C959 1.539 . S
C957 C953 1.408 . S
C957 C956 1.404 . S
C957 H969 0.930 . S
C958 C954 1.524 . S
C958 H970 0.956 . S
C958 H971 0.961 . S
C958 H972 0.961 . S
C959 C956 1.539 . S
C959 H973 0.958 . S
C959 H974 0.961 . S
C959 H975 0.960 . S
H960 C944 0.931 . S
H961 C949 0.929 . S
H962 C950 0.960 . S
H963 C950 0.962 . S
H964 C950 0.960 . S
H965 C951 0.961 . S
H966 C951 0.961 . S
H967 C951 0.961 . S
H968 C952 0.931 . S
H969 C957 0.930 . S
H970 C958 0.956 . S
H971 C958 0.961 . S
H972 C958 0.961 . S
H973 C959 0.958 . S
H974 C959 0.961 . S
H975 C959 0.960 . S
C976 C977 1.391 . S
C976 C978 1.394 . S
C976 H992 0.931 . S
C977 C976 1.391 . S
C977 C981 1.376 . S
C978 C976 1.394 . S
C978 C979 1.369 . S
C978 C982 1.531 . S
C979 C978 1.369 . S
C979 C980 1.410 . S
C979 C987 1.503 . S
C980 C979 1.410 . S
C980 C981 1.392 . S
C980 C983 1.511 . S
C981 C977 1.376 . S
C981 C980 1.392 . S
C981 H993 0.929 . S
C982 C978 1.531 . S
C982 H994 0.960 . S
C982 H995 0.962 . S
C982 H996 0.960 . S
C983 C980 1.511 . S
C983 H997 0.961 . S
C983 H998 0.961 . S
C983 H999 0.961 . S
C984 C985 1.370 . S
C984 C986 1.363 . S
C984 H1000 0.931 . S
C985 C984 1.370 . S
C985 C989 1.408 . S
C986 C984 1.363 . S
C986 C987 1.370 . S
C986 C990 1.524 . S
C987 C979 1.503 . S
C987 C986 1.370 . S
C987 C988 1.403 . S
C988 C987 1.403 . S
C988 C989 1.404 . S
C988 C991 1.539 . S
C989 C985 1.408 . S
C989 C988 1.404 . S
C989 H1001 0.930 . S
C990 C986 1.524 . S
C990 H1002 0.956 . S
C990 H1003 0.961 . S
C990 H1004 0.961 . S
C991 C988 1.539 . S
C991 H1005 0.958 . S
C991 H1006 0.961 . S
C991 H1007 0.960 . S
H992 C976 0.931 . S
H993 C981 0.929 . S
H994 C982 0.960 . S
H995 C982 0.962 . S
H996 C982 0.960 . S
H997 C983 0.961 . S
H998 C983 0.961 . S
H999 C983 0.961 . S
H1000 C984 0.931 . S
H1001 C989 0.930 . S
H1002 C990 0.956 . S
H1003 C990 0.961 . S
H1004 C990 0.961 . S
H1005 C991 0.958 . S
H1006 C991 0.961 . S
H1007 C991 0.960 . S
C1008 C1009 1.391 . S
C1008 C1010 1.394 . S
C1008 H1024 0.931 . S
C1009 C1008 1.391 . S
C1009 C1013 1.376 . S
C1010 C1008 1.394 . S
C1010 C1011 1.369 . S
C1010 C1014 1.531 . S
C1011 C1010 1.369 . S
C1011 C1012 1.410 . S
C1011 C1019 1.503 . S
C1012 C1011 1.410 . S
C1012 C1013 1.392 . S
C1012 C1015 1.511 . S
C1013 C1009 1.376 . S
C1013 C1012 1.392 . S
C1013 H1025 0.929 . S
C1014 C1010 1.531 . S
C1014 H1026 0.960 . S
C1014 H1027 0.962 . S
C1014 H1028 0.960 . S
C1015 C1012 1.511 . S
C1015 H1029 0.961 . S
C1015 H1030 0.961 . S
C1015 H1031 0.961 . S
C1016 C1017 1.370 . S
C1016 C1018 1.363 . S
C1016 H1032 0.931 . S
C1017 C1016 1.370 . S
C1017 C1021 1.408 . S
C1018 C1016 1.363 . S
C1018 C1019 1.370 . S
C1018 C1022 1.524 . S
C1019 C1011 1.503 . S
C1019 C1018 1.370 . S
C1019 C1020 1.403 . S
C1020 C1019 1.403 . S
C1020 C1021 1.404 . S
C1020 C1023 1.539 . S
C1021 C1017 1.408 . S
C1021 C1020 1.404 . S
C1021 H1033 0.930 . S
C1022 C1018 1.524 . S
C1022 H1034 0.956 . S
C1022 H1035 0.961 . S
C1022 H1036 0.961 . S
C1023 C1020 1.539 . S
C1023 H1037 0.958 . S
C1023 H1038 0.961 . S
C1023 H1039 0.960 . S
H1024 C1008 0.931 . S
H1025 C1013 0.929 . S
H1026 C1014 0.960 . S
H1027 C1014 0.962 . S
H1028 C1014 0.960 . S
H1029 C1015 0.961 . S
H1030 C1015 0.961 . S
H1031 C1015 0.961 . S
H1032 C1016 0.931 . S
H1033 C1021 0.930 . S
H1034 C1022 0.956 . S
H1035 C1022 0.961 . S
H1036 C1022 0.961 . S
H1037 C1023 0.958 . S
H1038 C1023 0.961 . S
H1039 C1023 0.960 . S
C1040 C1041 1.391 . S
C1040 C1042 1.394 . S
C1040 H1056 0.931 . S
C1041 C1040 1.391 . S
C1041 C1045 1.376 . S
C1042 C1040 1.394 . S
C1042 C1043 1.369 . S
C1042 C1046 1.531 . S
C1043 C1042 1.369 . S
C1043 C1044 1.410 . S
C1043 C1051 1.503 . S
C1044 C1043 1.410 . S
C1044 C1045 1.392 . S
C1044 C1047 1.511 . S
C1045 C1041 1.376 . S
C1045 C1044 1.392 . S
C1045 H1057 0.929 . S
C1046 C1042 1.531 . S
C1046 H1058 0.960 . S
C1046 H1059 0.962 . S
C1046 H1060 0.960 . S
C1047 C1044 1.511 . S
C1047 H1061 0.961 . S
C1047 H1062 0.961 . S
C1047 H1063 0.961 . S
C1048 C1049 1.370 . S
C1048 C1050 1.363 . S
C1048 H1064 0.931 . S
C1049 C1048 1.370 . S
C1049 C1053 1.408 . S
C1050 C1048 1.363 . S
C1050 C1051 1.370 . S
C1050 C1054 1.524 . S
C1051 C1043 1.503 . S
C1051 C1050 1.370 . S
C1051 C1052 1.403 . S
C1052 C1051 1.403 . S
C1052 C1053 1.404 . S
C1052 C1055 1.539 . S
C1053 C1049 1.408 . S
C1053 C1052 1.404 . S
C1053 H1065 0.930 . S
C1054 C1050 1.524 . S
C1054 H1066 0.956 . S
C1054 H1067 0.961 . S
C1054 H1068 0.961 . S
C1055 C1052 1.539 . S
C1055 H1069 0.958 . S
C1055 H1070 0.961 . S
C1055 H1071 0.960 . S
H1056 C1040 0.931 . S
H1057 C1045 0.929 . S
H1058 C1046 0.960 . S
H1059 C1046 0.962 . S
H1060 C1046 0.960 . S
H1061 C1047 0.961 . S
H1062 C1047 0.961 . S
H1063 C1047 0.961 . S
H1064 C1048 0.931 . S
H1065 C1053 0.930 . S
H1066 C1054 0.956 . S
H1067 C1054 0.961 . S
H1068 C1054 0.961 . S
H1069 C1055 0.958 . S
H1070 C1055 0.961 . S
H1071 C1055 0.960 . S
C1072 C1073 1.391 . S
C1072 C1074 1.394 . S
C1072 H1088 0.931 . S
C1073 C1072 1.391 . S
C1073 C1077 1.376 . S
C1074 C1072 1.394 . S
C1074 C1075 1.369 . S
C1074 C1078 1.531 . S
C1075 C1074 1.369 . S
C1075 C1076 1.410 . S
C1075 C1083 1.503 . S
C1076 C1075 1.410 . S
C1076 C1077 1.392 . S
C1076 C1079 1.511 . S
C1077 C1073 1.376 . S
C1077 C1076 1.392 . S
C1077 H1089 0.929 . S
C1078 C1074 1.531 . S
C1078 H1090 0.960 . S
C1078 H1091 0.962 . S
C1078 H1092 0.960 . S
C1079 C1076 1.511 . S
C1079 H1093 0.961 . S
C1079 H1094 0.961 . S
C1079 H1095 0.961 . S
C1080 C1081 1.370 . S
C1080 C1082 1.363 . S
C1080 H1096 0.931 . S
C1081 C1080 1.370 . S
C1081 C1085 1.408 . S
C1082 C1080 1.363 . S
C1082 C1083 1.370 . S
C1082 C1086 1.524 . S
C1083 C1075 1.503 . S
C1083 C1082 1.370 . S
C1083 C1084 1.403 . S
C1084 C1083 1.403 . S
C1084 C1085 1.404 . S
C1084 C1087 1.539 . S
C1085 C1081 1.408 . S
C1085 C1084 1.404 . S
C1085 H1097 0.930 . S
C1086 C1082 1.524 . S
C1086 H1098 0.956 . S
C1086 H1099 0.961 . S
C1086 H1100 0.961 . S
C1087 C1084 1.539 . S
C1087 H1101 0.958 . S
C1087 H1102 0.961 . S
C1087 H1103 0.960 . S
H1088 C1072 0.931 . S
H1089 C1077 0.929 . S
H1090 C1078 0.960 . S
H1091 C1078 0.962 . S
H1092 C1078 0.960 . S
H1093 C1079 0.961 . S
H1094 C1079 0.961 . S
H1095 C1079 0.961 . S
H1096 C1080 0.931 . S
H1097 C1085 0.930 . S
H1098 C1086 0.956 . S
H1099 C1086 0.961 . S
H1100 C1086 0.961 . S
H1101 C1087 0.958 . S
H1102 C1087 0.961 . S
H1103 C1087 0.960 . S
C1104 C1105 1.391 . S
C1104 C1106 1.394 . S
C1104 H1120 0.931 . S
C1105 C1104 1.391 . S
C1105 C1109 1.376 . S
C1106 C1104 1.394 . S
C1106 C1107 1.369 . S
C1106 C1110 1.531 . S
C1107 C1106 1.369 . S
C1107 C1108 1.410 . S
C1107 C1115 1.503 . S
C1108 C1107 1.410 . S
C1108 C1109 1.392 . S
C1108 C1111 1.511 . S
C1109 C1105 1.376 . S
C1109 C1108 1.392 . S
C1109 H1121 0.929 . S
C1110 C1106 1.531 . S
C1110 H1122 0.960 . S
C1110 H1123 0.962 . S
C1110 H1124 0.960 . S
C1111 C1108 1.511 . S
C1111 H1125 0.961 . S
C1111 H1126 0.961 . S
C1111 H1127 0.961 . S
C1112 C1113 1.370 . S
C1112 C1114 1.363 . S
C1112 H1128 0.931 . S
C1113 C1112 1.370 . S
C1113 C1117 1.408 . S
C1114 C1112 1.363 . S
C1114 C1115 1.370 . S
C1114 C1118 1.524 . S
C1115 C1107 1.503 . S
C1115 C1114 1.370 . S
C1115 C1116 1.403 . S
C1116 C1115 1.403 . S
C1116 C1117 1.404 . S
C1116 C1119 1.539 . S
C1117 C1113 1.408 . S
C1117 C1116 1.404 . S
C1117 H1129 0.930 . S
C1118 C1114 1.524 . S
C1118 H1130 0.956 . S
C1118 H1131 0.961 . S
C1118 H1132 0.961 . S
C1119 C1116 1.539 . S
C1119 H1133 0.958 . S
C1119 H1134 0.961 . S
C1119 H1135 0.960 . S
H1120 C1104 0.931 . S
H1121 C1109 0.929 . S
H1122 C1110 0.960 . S
H1123 C1110 0.962 . S
H1124 C1110 0.960 . S
H1125 C1111 0.961 . S
H1126 C1111 0.961 . S
H1127 C1111 0.961 . S
H1128 C1112 0.931 . S
H1129 C1117 0.930 . S
H1130 C1118 0.956 . S
H1131 C1118 0.961 . S
H1132 C1118 0.961 . S
H1133 C1119 0.958 . S
H1134 C1119 0.961 . S
H1135 C1119 0.960 . S
C1136 C1137 1.391 . S
C1136 C1138 1.394 . S
C1136 H1152 0.931 . S
C1137 C1136 1.391 . S
C1137 C1141 1.376 . S
C1138 C1136 1.394 . S
C1138 C1139 1.369 . S
C1138 C1142 1.531 . S
C1139 C1138 1.369 . S
C1139 C1140 1.410 . S
C1139 C1147 1.503 . S
C1140 C1139 1.410 . S
C1140 C1141 1.392 . S
C1140 C1143 1.511 . S
C1141 C1137 1.376 . S
C1141 C1140 1.392 . S
C1141 H1153 0.929 . S
C1142 C1138 1.531 . S
C1142 H1154 0.960 . S
C1142 H1155 0.962 . S
C1142 H1156 0.960 . S
C1143 C1140 1.511 . S
C1143 H1157 0.961 . S
C1143 H1158 0.961 . S
C1143 H1159 0.961 . S
C1144 C1145 1.370 . S
C1144 C1146 1.363 . S
C1144 H1160 0.931 . S
C1145 C1144 1.370 . S
C1145 C1149 1.408 . S
C1146 C1144 1.363 . S
C1146 C1147 1.370 . S
C1146 C1150 1.524 . S
C1147 C1139 1.503 . S
C1147 C1146 1.370 . S
C1147 C1148 1.403 . S
C1148 C1147 1.403 . S
C1148 C1149 1.404 . S
C1148 C1151 1.539 . S
C1149 C1145 1.408 . S
C1149 C1148 1.404 . S
C1149 H1161 0.930 . S
C1150 C1146 1.524 . S
C1150 H1162 0.956 . S
C1150 H1163 0.961 . S
C1150 H1164 0.961 . S
C1151 C1148 1.539 . S
C1151 H1165 0.958 . S
C1151 H1166 0.961 . S
C1151 H1167 0.960 . S
H1152 C1136 0.931 . S
H1153 C1141 0.929 . S
H1154 C1142 0.960 . S
H1155 C1142 0.962 . S
H1156 C1142 0.960 . S
H1157 C1143 0.961 . S
H1158 C1143 0.961 . S
H1159 C1143 0.961 . S
H1160 C1144 0.931 . S
H1161 C1149 0.930 . S
H1162 C1150 0.956 . S
H1163 C1150 0.961 . S
H1164 C1150 0.961 . S
H1165 C1151 0.958 . S
H1166 C1151 0.961 . S
H1167 C1151 0.960 . S
C1168 C1169 1.391 . S
C1168 C1170 1.394 . S
C1168 H1184 0.931 . S
C1169 C1168 1.391 . S
C1169 C1173 1.376 . S
C1170 C1168 1.394 . S
C1170 C1171 1.369 . S
C1170 C1174 1.531 . S
C1171 C1170 1.369 . S
C1171 C1172 1.410 . S
C1171 C1179 1.503 . S
C1172 C1171 1.410 . S
C1172 C1173 1.392 . S
C1172 C1175 1.511 . S
C1173 C1169 1.376 . S
C1173 C1172 1.392 . S
C1173 H1185 0.929 . S
C1174 C1170 1.531 . S
C1174 H1186 0.960 . S
C1174 H1187 0.962 . S
C1174 H1188 0.960 . S
C1175 C1172 1.511 . S
C1175 H1189 0.961 . S
C1175 H1190 0.961 . S
C1175 H1191 0.961 . S
C1176 C1177 1.370 . S
C1176 C1178 1.363 . S
C1176 H1192 0.931 . S
C1177 C1176 1.370 . S
C1177 C1181 1.408 . S
C1178 C1176 1.363 . S
C1178 C1179 1.370 . S
C1178 C1182 1.524 . S
C1179 C1171 1.503 . S
C1179 C1178 1.370 . S
C1179 C1180 1.403 . S
C1180 C1179 1.403 . S
C1180 C1181 1.404 . S
C1180 C1183 1.539 . S
C1181 C1177 1.408 . S
C1181 C1180 1.404 . S
C1181 H1193 0.930 . S
C1182 C1178 1.524 . S
C1182 H1194 0.956 . S
C1182 H1195 0.961 . S
C1182 H1196 0.961 . S
C1183 C1180 1.539 . S
C1183 H1197 0.958 . S
C1183 H1198 0.961 . S
C1183 H1199 0.960 . S
H1184 C1168 0.931 . S
H1185 C1173 0.929 . S
H1186 C1174 0.960 . S
H1187 C1174 0.962 . S
H1188 C1174 0.960 . S
H1189 C1175 0.961 . S
H1190 C1175 0.961 . S
H1191 C1175 0.961 . S
H1192 C1176 0.931 . S
H1193 C1181 0.930 . S
H1194 C1182 0.956 . S
H1195 C1182 0.961 . S
H1196 C1182 0.961 . S
H1197 C1183 0.958 . S
H1198 C1183 0.961 . S
H1199 C1183 0.960 . S
C1200 C1201 1.391 . S
C1200 C1202 1.394 . S
C1200 H1216 0.931 . S
C1201 C1200 1.391 . S
C1201 C1205 1.376 . S
C1202 C1200 1.394 . S
C1202 C1203 1.369 . S
C1202 C1206 1.531 . S
C1203 C1202 1.369 . S
C1203 C1204 1.410 . S
C1203 C1211 1.503 . S
C1204 C1203 1.410 . S
C1204 C1205 1.392 . S
C1204 C1207 1.511 . S
C1205 C1201 1.376 . S
C1205 C1204 1.392 . S
C1205 H1217 0.929 . S
C1206 C1202 1.531 . S
C1206 H1218 0.960 . S
C1206 H1219 0.962 . S
C1206 H1220 0.960 . S
C1207 C1204 1.511 . S
C1207 H1221 0.961 . S
C1207 H1222 0.961 . S
C1207 H1223 0.961 . S
C1208 C1209 1.370 . S
C1208 C1210 1.363 . S
C1208 H1224 0.931 . S
C1209 C1208 1.370 . S
C1209 C1213 1.408 . S
C1210 C1208 1.363 . S
C1210 C1211 1.370 . S
C1210 C1214 1.524 . S
C1211 C1203 1.503 . S
C1211 C1210 1.370 . S
C1211 C1212 1.403 . S
C1212 C1211 1.403 . S
C1212 C1213 1.404 . S
C1212 C1215 1.539 . S
C1213 C1209 1.408 . S
C1213 C1212 1.404 . S
C1213 H1225 0.930 . S
C1214 C1210 1.524 . S
C1214 H1226 0.956 . S
C1214 H1227 0.961 . S
C1214 H1228 0.961 . S
C1215 C1212 1.539 . S
C1215 H1229 0.958 . S
C1215 H1230 0.961 . S
C1215 H1231 0.960 . S
H1216 C1200 0.931 . S
H1217 C1205 0.929 . S
H1218 C1206 0.960 . S
H1219 C1206 0.962 . S
H1220 C1206 0.960 . S
H1221 C1207 0.961 . S
H1222 C1207 0.961 . S
H1223 C1207 0.961 . S
H1224 C1208 0.931 . S
H1225 C1213 0.930 . S
H1226 C1214 0.956 . S
H1227 C1214 0.961 . S
H1228 C1214 0.961 . S
H1229 C1215 0.958 . S
H1230 C1215 0.961 . S
H1231 C1215 0.960 . S
C1232 C1233 1.391 . S
C1232 C1234 1.394 . S
C1232 H1248 0.931 . S
C1233 C1232 1.391 . S
C1233 C1237 1.376 . S
C1234 C1232 1.394 . S
C1234 C1235 1.369 . S
C1234 C1238 1.531 . S
C1235 C1234 1.369 . S
C1235 C1236 1.410 . S
C1235 C1243 1.503 . S
C1236 C1235 1.410 . S
C1236 C1237 1.392 . S
C1236 C1239 1.511 . S
C1237 C1233 1.376 . S
C1237 C1236 1.392 . S
C1237 H1249 0.929 . S
C1238 C1234 1.531 . S
C1238 H1250 0.960 . S
C1238 H1251 0.962 . S
C1238 H1252 0.960 . S
C1239 C1236 1.511 . S
C1239 H1253 0.961 . S
C1239 H1254 0.961 . S
C1239 H1255 0.961 . S
C1240 C1241 1.370 . S
C1240 C1242 1.363 . S
C1240 H1256 0.931 . S
C1241 C1240 1.370 . S
C1241 C1245 1.408 . S
C1242 C1240 1.363 . S
C1242 C1243 1.370 . S
C1242 C1246 1.524 . S
C1243 C1235 1.503 . S
C1243 C1242 1.370 . S
C1243 C1244 1.403 . S
C1244 C1243 1.403 . S
C1244 C1245 1.404 . S
C1244 C1247 1.539 . S
C1245 C1241 1.408 . S
C1245 C1244 1.404 . S
C1245 H1257 0.930 . S
C1246 C1242 1.524 . S
C1246 H1258 0.956 . S
C1246 H1259 0.961 . S
C1246 H1260 0.961 . S
C1247 C1244 1.539 . S
C1247 H1261 0.958 . S
C1247 H1262 0.961 . S
C1247 H1263 0.960 . S
H1248 C1232 0.931 . S
H1249 C1237 0.929 . S
H1250 C1238 0.960 . S
H1251 C1238 0.962 . S
H1252 C1238 0.960 . S
H1253 C1239 0.961 . S
H1254 C1239 0.961 . S
H1255 C1239 0.961 . S
H1256 C1240 0.931 . S
H1257 C1245 0.930 . S
H1258 C1246 0.956 . S
H1259 C1246 0.961 . S
H1260 C1246 0.961 . S
H1261 C1247 0.958 . S
H1262 C1247 0.961 . S
H1263 C1247 0.960 . S
C1264 C1265 1.391 . S
C1264 C1266 1.394 . S
C1264 H1280 0.931 . S
C1265 C1264 1.391 . S
C1265 C1269 1.376 . S
C1266 C1264 1.394 . S
C1266 C1267 1.369 . S
C1266 C1270 1.531 . S
C1267 C1266 1.369 . S
C1267 C1268 1.410 . S
C1267 C1275 1.503 . S
C1268 C1267 1.410 . S
C1268 C1269 1.392 . S
C1268 C1271 1.511 . S
C1269 C1265 1.376 . S
C1269 C1268 1.392 . S
C1269 H1281 0.929 . S
C1270 C1266 1.531 . S
C1270 H1282 0.960 . S
C1270 H1283 0.962 . S
C1270 H1284 0.960 . S
C1271 C1268 1.511 . S
C1271 H1285 0.961 . S
C1271 H1286 0.961 . S
C1271 H1287 0.961 . S
C1272 C1273 1.370 . S
C1272 C1274 1.363 . S
C1272 H1288 0.931 . S
C1273 C1272 1.370 . S
C1273 C1277 1.408 . S
C1274 C1272 1.363 . S
C1274 C1275 1.370 . S
C1274 C1278 1.524 . S
C1275 C1267 1.503 . S
C1275 C1274 1.370 . S
C1275 C1276 1.403 . S
C1276 C1275 1.403 . S
C1276 C1277 1.404 . S
C1276 C1279 1.539 . S
C1277 C1273 1.408 . S
C1277 C1276 1.404 . S
C1277 H1289 0.930 . S
C1278 C1274 1.524 . S
C1278 H1290 0.956 . S
C1278 H1291 0.961 . S
C1278 H1292 0.961 . S
C1279 C1276 1.539 . S
C1279 H1293 0.958 . S
C1279 H1294 0.961 . S
C1279 H1295 0.960 . S
H1280 C1264 0.931 . S
H1281 C1269 0.929 . S
H1282 C1270 0.960 . S
H1283 C1270 0.962 . S
H1284 C1270 0.960 . S
H1285 C1271 0.961 . S
H1286 C1271 0.961 . S
H1287 C1271 0.961 . S
H1288 C1272 0.931 . S
H1289 C1277 0.930 . S
H1290 C1278 0.956 . S
H1291 C1278 0.961 . S
H1292 C1278 0.961 . S
H1293 C1279 0.958 . S
H1294 C1279 0.961 . S
H1295 C1279 0.960 . S
C1296 C1297 1.391 . S
C1296 C1298 1.394 . S
C1296 H1312 0.931 . S
C1297 C1296 1.391 . S
C1297 C1301 1.376 . S
C1298 C1296 1.394 . S
C1298 C1299 1.369 . S
C1298 C1302 1.531 . S
C1299 C1298 1.369 . S
C1299 C1300 1.410 . S
C1299 C1307 1.503 . S
C1300 C1299 1.410 . S
C1300 C1301 1.392 . S
C1300 C1303 1.511 . S
C1301 C1297 1.376 . S
C1301 C1300 1.392 . S
C1301 H1313 0.929 . S
C1302 C1298 1.531 . S
C1302 H1314 0.960 . S
C1302 H1315 0.962 . S
C1302 H1316 0.960 . S
C1303 C1300 1.511 . S
C1303 H1317 0.961 . S
C1303 H1318 0.961 . S
C1303 H1319 0.961 . S
C1304 C1305 1.370 . S
C1304 C1306 1.363 . S
C1304 H1320 0.931 . S
C1305 C1304 1.370 . S
C1305 C1309 1.408 . S
C1306 C1304 1.363 . S
C1306 C1307 1.370 . S
C1306 C1310 1.524 . S
C1307 C1299 1.503 . S
C1307 C1306 1.370 . S
C1307 C1308 1.403 . S
C1308 C1307 1.403 . S
C1308 C1309 1.404 . S
C1308 C1311 1.539 . S
C1309 C1305 1.408 . S
C1309 C1308 1.404 . S
C1309 H1321 0.930 . S
C1310 C1306 1.524 . S
C1310 H1322 0.956 . S
C1310 H1323 0.961 . S
C1310 H1324 0.961 . S
C1311 C1308 1.539 . S
C1311 H1325 0.958 . S
C1311 H1326 0.961 . S
C1311 H1327 0.960 . S
H1312 C1296 0.931 . S
H1313 C1301 0.929 . S
H1314 C1302 0.960 . S
H1315 C1302 0.962 . S
H1316 C1302 0.960 . S
H1317 C1303 0.961 . S
H1318 C1303 0.961 . S
H1319 C1303 0.961 . S
H1320 C1304 0.931 . S
H1321 C1309 0.930 . S
H1322 C1310 0.956 . S
H1323 C1310 0.961 . S
H1324 C1310 0.961 . S
H1325 C1311 0.958 . S
H1326 C1311 0.961 . S
H1327 C1311 0.960 . S
C1328 C1329 1.391 . S
C1328 C1330 1.394 . S
C1328 H1344 0.931 . S
C1329 C1328 1.391 . S
C1329 C1333 1.376 . S
C1330 C1328 1.394 . S
C1330 C1331 1.369 . S
C1330 C1334 1.531 . S
C1331 C1330 1.369 . S
C1331 C1332 1.410 . S
C1331 C1339 1.503 . S
C1332 C1331 1.410 . S
C1332 C1333 1.392 . S
C1332 C1335 1.511 . S
C1333 C1329 1.376 . S
C1333 C1332 1.392 . S
C1333 H1345 0.929 . S
C1334 C1330 1.531 . S
C1334 H1346 0.960 . S
C1334 H1347 0.962 . S
C1334 H1348 0.960 . S
C1335 C1332 1.511 . S
C1335 H1349 0.961 . S
C1335 H1350 0.961 . S
C1335 H1351 0.961 . S
C1336 C1337 1.370 . S
C1336 C1338 1.363 . S
C1336 H1352 0.931 . S
C1337 C1336 1.370 . S
C1337 C1341 1.408 . S
C1338 C1336 1.363 . S
C1338 C1339 1.370 . S
C1338 C1342 1.524 . S
C1339 C1331 1.503 . S
C1339 C1338 1.370 . S
C1339 C1340 1.403 . S
C1340 C1339 1.403 . S
C1340 C1341 1.404 . S
C1340 C1343 1.539 . S
C1341 C1337 1.408 . S
C1341 C1340 1.404 . S
C1341 H1353 0.930 . S
C1342 C1338 1.524 . S
C1342 H1354 0.956 . S
C1342 H1355 0.961 . S
C1342 H1356 0.961 . S
C1343 C1340 1.539 . S
C1343 H1357 0.958 . S
C1343 H1358 0.961 . S
C1343 H1359 0.960 . S
H1344 C1328 0.931 . S
H1345 C1333 0.929 . S
H1346 C1334 0.960 . S
H1347 C1334 0.962 . S
H1348 C1334 0.960 . S
H1349 C1335 0.961 . S
H1350 C1335 0.961 . S
H1351 C1335 0.961 . S
H1352 C1336 0.931 . S
H1353 C1341 0.930 . S
H1354 C1342 0.956 . S
H1355 C1342 0.961 . S
H1356 C1342 0.961 . S
H1357 C1343 0.958 . S
H1358 C1343 0.961 . S
H1359 C1343 0.960 . S
C1360 C1361 1.391 . S
C1360 C1362 1.394 . S
C1360 H1376 0.931 . S
C1361 C1360 1.391 . S
C1361 C1365 1.376 . S
C1362 C1360 1.394 . S
C1362 C1363 1.369 . S
C1362 C1366 1.531 . S
C1363 C1362 1.369 . S
C1363 C1364 1.410 . S
C1363 C1371 1.503 . S
C1364 C1363 1.410 . S
C1364 C1365 1.392 . S
C1364 C1367 1.511 . S
C1365 C1361 1.376 . S
C1365 C1364 1.392 . S
C1365 H1377 0.929 . S
C1366 C1362 1.531 . S
C1366 H1378 0.960 . S
C1366 H1379 0.962 . S
C1366 H1380 0.960 . S
C1367 C1364 1.511 . S
C1367 H1381 0.961 . S
C1367 H1382 0.961 . S
C1367 H1383 0.961 . S
C1368 C1369 1.370 . S
C1368 C1370 1.363 . S
C1368 H1384 0.931 . S
C1369 C1368 1.370 . S
C1369 C1373 1.408 . S
C1370 C1368 1.363 . S
C1370 C1371 1.370 . S
C1370 C1374 1.524 . S
C1371 C1363 1.503 . S
C1371 C1370 1.370 . S
C1371 C1372 1.403 . S
C1372 C1371 1.403 . S
C1372 C1373 1.404 . S
C1372 C1375 1.539 . S
C1373 C1369 1.408 . S
C1373 C1372 1.404 . S
C1373 H1385 0.930 . S
C1374 C1370 1.524 . S
C1374 H1386 0.956 . S
C1374 H1387 0.961 . S
C1374 H1388 0.961 . S
C1375 C1372 1.539 . S
C1375 H1389 0.958 . S
C1375 H1390 0.961 . S
C1375 H1391 0.960 . S
H1376 C1360 0.931 . S
H1377 C1365 0.929 . S
H1378 C1366 0.960 . S
H1379 C1366 0.962 . S
H1380 C1366 0.960 . S
H1381 C1367 0.961 . S
H1382 C1367 0.961 . S
H1383 C1367 0.961 . S
H1384 C1368 0.931 . S
H1385 C1373 0.930 . S
H1386 C1374 0.956 . S
H1387 C1374 0.961 . S
H1388 C1374 0.961 . S
H1389 C1375 0.958 . S
H1390 C1375 0.961 . S
H1391 C1375 0.960 . S
C1392 C1393 1.391 . S
C1392 C1394 1.394 . S
C1392 H1408 0.931 . S
C1393 C1392 1.391 . S
C1393 C1397 1.376 . S
C1394 C1392 1.394 . S
C1394 C1395 1.369 . S
C1394 C1398 1.531 . S
C1395 C1394 1.369 . S
C1395 C1396 1.410 . S
C1395 C1403 1.503 . S
C1396 C1395 1.410 . S
C1396 C1397 1.392 . S
C1396 C1399 1.511 . S
C1397 C1393 1.376 . S
C1397 C1396 1.392 . S
C1397 H1409 0.929 . S
C1398 C1394 1.531 . S
C1398 H1410 0.960 . S
C1398 H1411 0.962 . S
C1398 H1412 0.960 . S
C1399 C1396 1.511 . S
C1399 H1413 0.961 . S
C1399 H1414 0.961 . S
C1399 H1415 0.961 . S
C1400 C1401 1.370 . S
C1400 C1402 1.363 . S
C1400 H1416 0.931 . S
C1401 C1400 1.370 . S
C1401 C1405 1.408 . S
C1402 C1400 1.363 . S
C1402 C1403 1.370 . S
C1402 C1406 1.524 . S
C1403 C1395 1.503 . S
C1403 C1402 1.370 . S
C1403 C1404 1.403 . S
C1404 C1403 1.403 . S
C1404 C1405 1.404 . S
C1404 C1407 1.539 . S
C1405 C1401 1.408 . S
C1405 C1404 1.404 . S
C1405 H1417 0.930 . S
C1406 C1402 1.524 . S
C1406 H1418 0.956 . S
C1406 H1419 0.961 . S
C1406 H1420 0.961 . S
C1407 C1404 1.539 . S
C1407 H1421 0.958 . S
C1407 H1422 0.961 . S
C1407 H1423 0.960 . S
H1408 C1392 0.931 . S
H1409 C1397 0.929 . S
H1410 C1398 0.960 . S
H1411 C1398 0.962 . S
H1412 C1398 0.960 . S
H1413 C1399 0.961 . S
H1414 C1399 0.961 . S
H1415 C1399 0.961 . S
H1416 C1400 0.931 . S
H1417 C1405 0.930 . S
H1418 C1406 0.956 . S
H1419 C1406 0.961 . S
H1420 C1406 0.961 . S
H1421 C1407 0.958 . S
H1422 C1407 0.961 . S
H1423 C1407 0.960 . S
C1424 C1425 1.391 . S
C1424 C1426 1.394 . S
C1424 H1440 0.931 . S
C1425 C1424 1.391 . S
C1425 C1429 1.376 . S
C1426 C1424 1.394 . S
C1426 C1427 1.369 . S
C1426 C1430 1.531 1_556 S
C1427 C1426 1.369 . S
C1427 C1428 1.410 . S
C1427 C1435 1.503 1_556 S
C1428 C1427 1.410 . S
C1428 C1429 1.392 . S
C1428 C1431 1.511 . S
C1429 C1425 1.376 . S
C1429 C1428 1.392 . S
C1429 H1441 0.929 . S
C1430 C1426 1.531 1_554 S
C1430 H1442 0.960 . S
C1430 H1443 0.962 . S
C1430 H1444 0.960 . S
C1431 C1428 1.511 . S
C1431 H1445 0.961 . S
C1431 H1446 0.961 . S
C1431 H1447 0.961 . S
C1432 C1433 1.370 . S
C1432 C1434 1.363 . S
C1432 H1448 0.931 . S
C1433 C1432 1.370 . S
C1433 C1437 1.408 . S
C1434 C1432 1.363 . S
C1434 C1435 1.370 . S
C1434 C1438 1.524 . S
C1435 C1427 1.503 1_554 S
C1435 C1434 1.370 . S
C1435 C1436 1.403 . S
C1436 C1435 1.403 . S
C1436 C1437 1.404 . S
C1436 C1439 1.539 . S
C1437 C1433 1.408 . S
C1437 C1436 1.404 . S
C1437 H1449 0.930 . S
C1438 C1434 1.524 . S
C1438 H1450 0.956 . S
C1438 H1451 0.961 1_554 S
C1438 H1452 0.961 . S
C1439 C1436 1.539 . S
C1439 H1453 0.958 . S
C1439 H1454 0.961 . S
C1439 H1455 0.960 1_554 S
H1440 C1424 0.931 . S
H1441 C1429 0.929 . S
H1442 C1430 0.960 . S
H1443 C1430 0.962 . S
H1444 C1430 0.960 . S
H1445 C1431 0.961 . S
H1446 C1431 0.961 . S
H1447 C1431 0.961 . S
H1448 C1432 0.931 . S
H1449 C1437 0.930 . S
H1450 C1438 0.956 . S
H1451 C1438 0.961 1_556 S
H1452 C1438 0.961 . S
H1453 C1439 0.958 . S
H1454 C1439 0.961 . S
H1455 C1439 0.960 1_556 S
C1456 C1457 1.391 . S
C1456 C1458 1.394 . S
C1456 H1472 0.931 . S
C1457 C1456 1.391 . S
C1457 C1461 1.376 . S
C1458 C1456 1.394 . S
C1458 C1459 1.369 . S
C1458 C1462 1.531 . S
C1459 C1458 1.369 . S
C1459 C1460 1.410 . S
C1459 C1467 1.503 1_554 S
C1460 C1459 1.410 . S
C1460 C1461 1.392 . S
C1460 C1463 1.511 1_554 S
C1461 C1457 1.376 . S
C1461 C1460 1.392 . S
C1461 H1473 0.929 . S
C1462 C1458 1.531 . S
C1462 H1474 0.960 . S
C1462 H1475 0.962 . S
C1462 H1476 0.960 . S
C1463 C1460 1.511 1_556 S
C1463 H1477 0.961 . S
C1463 H1478 0.961 . S
C1463 H1479 0.961 . S
C1464 C1465 1.370 . S
C1464 C1466 1.363 . S
C1464 H1480 0.931 . S
C1465 C1464 1.370 . S
C1465 C1469 1.408 . S
C1466 C1464 1.363 . S
C1466 C1467 1.370 . S
C1466 C1470 1.524 . S
C1467 C1459 1.503 1_556 S
C1467 C1466 1.370 . S
C1467 C1468 1.403 . S
C1468 C1467 1.403 . S
C1468 C1469 1.404 . S
C1468 C1471 1.539 1_556 S
C1469 C1465 1.408 . S
C1469 C1468 1.404 . S
C1469 H1481 0.930 . S
C1470 C1466 1.524 . S
C1470 H1482 0.956 . S
C1470 H1483 0.961 . S
C1470 H1484 0.961 . S
C1471 C1468 1.539 1_554 S
C1471 H1485 0.958 . S
C1471 H1486 0.961 . S
C1471 H1487 0.960 . S
H1472 C1456 0.931 . S
H1473 C1461 0.929 . S
H1474 C1462 0.960 . S
H1475 C1462 0.962 . S
H1476 C1462 0.960 . S
H1477 C1463 0.961 . S
H1478 C1463 0.961 . S
H1479 C1463 0.961 . S
H1480 C1464 0.931 . S
H1481 C1469 0.930 . S
H1482 C1470 0.956 . S
H1483 C1470 0.961 . S
H1484 C1470 0.961 . S
H1485 C1471 0.958 . S
H1486 C1471 0.961 . S
H1487 C1471 0.960 . S
C1488 C1489 1.391 . S
C1488 C1490 1.394 . S
C1488 H1504 0.931 . S
C1489 C1488 1.391 . S
C1489 C1493 1.376 . S
C1490 C1488 1.394 . S
C1490 C1491 1.369 . S
C1490 C1494 1.531 . S
C1491 C1490 1.369 . S
C1491 C1492 1.410 . S
C1491 C1499 1.503 1_556 S
C1492 C1491 1.410 . S
C1492 C1493 1.392 . S
C1492 C1495 1.511 . S
C1493 C1489 1.376 . S
C1493 C1492 1.392 . S
C1493 H1505 0.929 . S
C1494 C1490 1.531 . S
C1494 H1506 0.960 . S
C1494 H1507 0.962 1_556 S
C1494 H1508 0.960 . S
C1495 C1492 1.511 . S
C1495 H1509 0.961 . S
C1495 H1510 0.961 . S
C1495 H1511 0.961 . S
C1496 C1497 1.370 . S
C1496 C1498 1.363 . S
C1496 H1512 0.931 . S
C1497 C1496 1.370 . S
C1497 C1501 1.408 . S
C1498 C1496 1.363 . S
C1498 C1499 1.370 . S
C1498 C1502 1.524 . S
C1499 C1491 1.503 1_554 S
C1499 C1498 1.370 . S
C1499 C1500 1.409 . S
C1500 C1499 1.409 . S
C1500 C1501 1.432 . S
C1500 C1503 1.506 1_554 S
C1501 C1497 1.408 . S
C1501 C1500 1.432 . S
C1501 H1513 0.930 . S
C1502 C1498 1.524 . S
C1502 H1514 0.956 . S
C1502 H1515 0.961 . S
C1502 H1516 0.961 . S
C1503 C1500 1.506 1_556 S
C1503 H1517 0.958 . S
C1503 H1518 0.961 . S
C1503 H1519 0.960 . S
H1504 C1488 0.931 . S
H1505 C1493 0.929 . S
H1506 C1494 0.960 . S
H1507 C1494 0.962 1_554 S
H1508 C1494 0.960 . S
H1509 C1495 0.961 . S
H1510 C1495 0.961 . S
H1511 C1495 0.961 . S
H1512 C1496 0.931 . S
H1513 C1501 0.930 . S
H1514 C1502 0.956 . S
H1515 C1502 0.961 . S
H1516 C1502 0.961 . S
H1517 C1503 0.958 . S
H1518 C1503 0.961 . S
H1519 C1503 0.960 . S
C1520 C1521 1.391 . S
C1520 C1522 1.394 . S
C1520 H1536 0.931 . S
C1521 C1520 1.391 . S
C1521 C1525 1.376 . S
C1522 C1520 1.394 . S
C1522 C1523 1.369 . S
C1522 C1526 1.531 1_554 S
C1523 C1522 1.369 . S
C1523 C1524 1.410 . S
C1523 C1531 1.503 1_554 S
C1524 C1523 1.410 . S
C1524 C1525 1.392 . S
C1524 C1527 1.511 . S
C1525 C1521 1.376 . S
C1525 C1524 1.392 . S
C1525 H1537 0.929 . S
C1526 C1522 1.531 1_556 S
C1526 H1538 0.960 . S
C1526 H1539 0.960 . S
C1526 H1540 0.960 . S
C1527 C1524 1.511 . S
C1527 H1541 0.961 . S
C1527 H1542 0.961 . S
C1527 H1543 0.976 . S
C1528 C1529 1.370 . S
C1528 C1530 1.363 . S
C1528 H1544 0.931 . S
C1529 C1528 1.370 . S
C1529 C1533 1.408 . S
C1530 C1528 1.363 . S
C1530 C1531 1.370 . S
C1530 C1534 1.524 1_556 S
C1531 C1523 1.503 1_556 S
C1531 C1530 1.370 . S
C1531 C1532 1.403 . S
C1532 C1531 1.403 . S
C1532 C1533 1.404 . S
C1532 C1535 1.539 . S
C1533 C1529 1.408 . S
C1533 C1532 1.404 . S
C1533 H1545 0.930 . S
C1534 C1530 1.524 1_554 S
C1534 H1546 0.956 . S
C1534 H1547 0.961 . S
C1534 H1548 0.961 . S
C1535 C1532 1.539 . S
C1535 H1549 0.958 . S
C1535 H1550 0.961 . S
C1535 H1551 0.960 . S
H1536 C1520 0.931 . S
H1537 C1525 0.929 . S
H1538 C1526 0.960 . S
H1539 C1526 0.960 . S
H1540 C1526 0.960 . S
H1541 C1527 0.961 . S
H1542 C1527 0.961 . S
H1543 C1527 0.976 . S
H1544 C1528 0.931 . S
H1545 C1533 0.930 . S
H1546 C1534 0.956 . S
H1547 C1534 0.961 . S
H1548 C1534 0.961 . S
H1549 C1535 0.958 . S
H1550 C1535 0.961 . S
H1551 C1535 0.960 . S
C1552 C1553 1.391 . S
C1552 C1554 1.394 . S
C1552 H1568 0.931 . S
C1553 C1552 1.391 . S
C1553 C1557 1.376 . S
C1554 C1552 1.394 . S
C1554 C1555 1.369 . S
C1554 C1558 1.531 . S
C1555 C1554 1.369 . S
C1555 C1556 1.410 . S
C1555 C1563 1.503 . S
C1556 C1555 1.410 . S
C1556 C1557 1.392 . S
C1556 C1559 1.511 . S
C1557 C1553 1.376 . S
C1557 C1556 1.392 . S
C1557 H1569 0.929 . S
C1558 C1554 1.531 . S
C1558 H1570 0.960 . S
C1558 H1571 0.962 . S
C1558 H1572 0.960 . S
C1559 C1556 1.511 . S
C1559 H1573 0.961 . S
C1559 H1574 0.961 . S
C1559 H1575 0.961 . S
C1560 C1561 1.370 . S
C1560 C1562 1.363 . S
C1560 H1576 0.931 . S
C1561 C1560 1.370 . S
C1561 C1565 1.408 . S
C1562 C1560 1.363 . S
C1562 C1563 1.370 . S
C1562 C1566 1.524 . S
C1563 C1555 1.503 . S
C1563 C1562 1.370 . S
C1563 C1564 1.403 . S
C1564 C1563 1.403 . S
C1564 C1565 1.404 . S
C1564 C1567 1.539 . S
C1565 C1561 1.408 . S
C1565 C1564 1.404 . S
C1565 H1577 0.930 . S
C1566 C1562 1.524 . S
C1566 H1578 0.956 . S
C1566 H1579 0.961 . S
C1566 H1580 0.961 . S
C1567 C1564 1.539 . S
C1567 H1581 0.958 . S
C1567 H1582 0.961 . S
C1567 H1583 0.960 . S
H1568 C1552 0.931 . S
H1569 C1557 0.929 . S
H1570 C1558 0.960 . S
H1571 C1558 0.962 . S
H1572 C1558 0.960 . S
H1573 C1559 0.961 . S
H1574 C1559 0.961 . S
H1575 C1559 0.961 . S
H1576 C1560 0.931 . S
H1577 C1565 0.930 . S
H1578 C1566 0.956 . S
H1579 C1566 0.961 . S
H1580 C1566 0.961 . S
H1581 C1567 0.958 . S
H1582 C1567 0.961 . S
H1583 C1567 0.960 . S
C1584 C1585 1.391 . S
C1584 C1586 1.394 . S
C1584 H1600 0.931 . S
C1585 C1584 1.391 . S
C1585 C1589 1.376 . S
C1586 C1584 1.394 . S
C1586 C1587 1.369 . S
C1586 C1590 1.531 . S
C1587 C1586 1.369 . S
C1587 C1588 1.410 . S
C1587 C1595 1.503 . S
C1588 C1587 1.410 . S
C1588 C1589 1.392 . S
C1588 C1591 1.511 . S
C1589 C1585 1.376 . S
C1589 C1588 1.392 . S
C1589 H1601 0.929 . S
C1590 C1586 1.531 . S
C1590 H1602 0.960 . S
C1590 H1603 0.962 . S
C1590 H1604 0.960 . S
C1591 C1588 1.511 . S
C1591 H1605 0.961 . S
C1591 H1606 0.961 . S
C1591 H1607 0.961 . S
C1592 C1593 1.370 . S
C1592 C1594 1.363 . S
C1592 H1608 0.931 . S
C1593 C1592 1.370 . S
C1593 C1597 1.408 . S
C1594 C1592 1.363 . S
C1594 C1595 1.370 . S
C1594 C1598 1.524 . S
C1595 C1587 1.503 . S
C1595 C1594 1.370 . S
C1595 C1596 1.403 . S
C1596 C1595 1.403 . S
C1596 C1597 1.404 . S
C1596 C1599 1.539 . S
C1597 C1593 1.408 . S
C1597 C1596 1.404 . S
C1597 H1609 0.930 . S
C1598 C1594 1.524 . S
C1598 H1610 0.956 . S
C1598 H1611 0.961 . S
C1598 H1612 0.961 . S
C1599 C1596 1.539 . S
C1599 H1613 0.958 . S
C1599 H1614 0.961 . S
C1599 H1615 0.960 . S
H1600 C1584 0.931 . S
H1601 C1589 0.929 . S
H1602 C1590 0.960 . S
H1603 C1590 0.962 . S
H1604 C1590 0.960 . S
H1605 C1591 0.961 . S
H1606 C1591 0.961 . S
H1607 C1591 0.961 . S
H1608 C1592 0.931 . S
H1609 C1597 0.930 . S
H1610 C1598 0.956 . S
H1611 C1598 0.961 . S
H1612 C1598 0.961 . S
H1613 C1599 0.958 . S
H1614 C1599 0.961 . S
H1615 C1599 0.960 . S
C1616 C1617 1.391 . S
C1616 C1618 1.394 . S
C1616 H1632 0.931 . S
C1617 C1616 1.391 . S
C1617 C1621 1.376 . S
C1618 C1616 1.394 . S
C1618 C1619 1.369 . S
C1618 C1622 1.531 . S
C1619 C1618 1.369 . S
C1619 C1620 1.410 . S
C1619 C1627 1.503 . S
C1620 C1619 1.410 . S
C1620 C1621 1.392 . S
C1620 C1623 1.511 . S
C1621 C1617 1.376 . S
C1621 C1620 1.392 . S
C1621 H1633 0.929 . S
C1622 C1618 1.531 . S
C1622 H1634 0.960 . S
C1622 H1635 0.962 . S
C1622 H1636 0.960 . S
C1623 C1620 1.511 . S
C1623 H1637 0.961 . S
C1623 H1638 0.961 . S
C1623 H1639 0.961 . S
C1624 C1625 1.370 . S
C1624 C1626 1.363 . S
C1624 H1640 0.931 . S
C1625 C1624 1.370 . S
C1625 C1629 1.408 . S
C1626 C1624 1.363 . S
C1626 C1627 1.370 . S
C1626 C1630 1.524 . S
C1627 C1619 1.503 . S
C1627 C1626 1.370 . S
C1627 C1628 1.403 . S
C1628 C1627 1.403 . S
C1628 C1629 1.404 . S
C1628 C1631 1.539 . S
C1629 C1625 1.408 . S
C1629 C1628 1.404 . S
C1629 H1641 0.930 . S
C1630 C1626 1.524 . S
C1630 H1642 0.956 . S
C1630 H1643 0.961 . S
C1630 H1644 0.961 . S
C1631 C1628 1.539 . S
C1631 H1645 0.958 . S
C1631 H1646 0.961 . S
C1631 H1647 0.960 . S
H1632 C1616 0.931 . S
H1633 C1621 0.929 . S
H1634 C1622 0.960 . S
H1635 C1622 0.962 . S
H1636 C1622 0.960 . S
H1637 C1623 0.961 . S
H1638 C1623 0.961 . S
H1639 C1623 0.961 . S
H1640 C1624 0.931 . S
H1641 C1629 0.930 . S
H1642 C1630 0.956 . S
H1643 C1630 0.961 . S
H1644 C1630 0.961 . S
H1645 C1631 0.958 . S
H1646 C1631 0.961 . S
H1647 C1631 0.960 . S
C1648 C1649 1.391 . S
C1648 C1650 1.394 . S
C1648 H1664 0.931 . S
C1649 C1648 1.391 . S
C1649 C1653 1.376 . S
C1650 C1648 1.394 . S
C1650 C1651 1.369 . S
C1650 C1654 1.531 . S
C1651 C1650 1.369 . S
C1651 C1652 1.410 . S
C1651 C1659 1.503 . S
C1652 C1651 1.410 . S
C1652 C1653 1.392 . S
C1652 C1655 1.511 . S
C1653 C1649 1.376 . S
C1653 C1652 1.392 . S
C1653 H1665 0.929 . S
C1654 C1650 1.531 . S
C1654 H1666 0.960 . S
C1654 H1667 0.962 . S
C1654 H1668 0.960 . S
C1655 C1652 1.511 . S
C1655 H1669 0.961 . S
C1655 H1670 0.961 . S
C1655 H1671 0.961 . S
C1656 C1657 1.370 . S
C1656 C1658 1.363 . S
C1656 H1672 0.931 . S
C1657 C1656 1.370 . S
C1657 C1661 1.408 . S
C1658 C1656 1.363 . S
C1658 C1659 1.370 . S
C1658 C1662 1.524 . S
C1659 C1651 1.503 . S
C1659 C1658 1.370 . S
C1659 C1660 1.403 . S
C1660 C1659 1.403 . S
C1660 C1661 1.404 . S
C1660 C1663 1.539 . S
C1661 C1657 1.408 . S
C1661 C1660 1.404 . S
C1661 H1673 0.930 . S
C1662 C1658 1.524 . S
C1662 H1674 0.956 . S
C1662 H1675 0.961 . S
C1662 H1676 0.961 . S
C1663 C1660 1.539 . S
C1663 H1677 0.958 . S
C1663 H1678 0.961 . S
C1663 H1679 0.960 . S
H1664 C1648 0.931 . S
H1665 C1653 0.929 . S
H1666 C1654 0.960 . S
H1667 C1654 0.962 . S
H1668 C1654 0.960 . S
H1669 C1655 0.961 . S
H1670 C1655 0.961 . S
H1671 C1655 0.961 . S
H1672 C1656 0.931 . S
H1673 C1661 0.930 . S
H1674 C1662 0.956 . S
H1675 C1662 0.961 . S
H1676 C1662 0.961 . S
H1677 C1663 0.958 . S
H1678 C1663 0.961 . S
H1679 C1663 0.960 . S
C1680 C1681 1.391 . S
C1680 C1682 1.394 . S
C1680 H1696 0.931 . S
C1681 C1680 1.391 . S
C1681 C1685 1.376 . S
C1682 C1680 1.394 . S
C1682 C1683 1.369 . S
C1682 C1686 1.531 . S
C1683 C1682 1.369 . S
C1683 C1684 1.410 . S
C1683 C1691 1.503 1_554 S
C1684 C1683 1.410 . S
C1684 C1685 1.392 . S
C1684 C1687 1.511 . S
C1685 C1681 1.376 . S
C1685 C1684 1.392 . S
C1685 H1697 0.929 . S
C1686 C1682 1.531 . S
C1686 H1698 0.960 . S
C1686 H1699 0.962 . S
C1686 H1700 0.960 . S
C1687 C1684 1.511 . S
C1687 H1701 0.961 . S
C1687 H1702 0.961 1_554 S
C1687 H1703 0.961 . S
C1688 C1689 1.370 . S
C1688 C1690 1.363 . S
C1688 H1704 0.931 . S
C1689 C1688 1.370 . S
C1689 C1693 1.408 . S
C1690 C1688 1.363 . S
C1690 C1691 1.370 . S
C1690 C1694 1.524 . S
C1691 C1683 1.503 1_556 S
C1691 C1690 1.370 . S
C1691 C1692 1.407 . S
C1692 C1691 1.407 . S
C1692 C1693 1.423 . S
C1692 C1695 1.516 1_556 S
C1693 C1689 1.408 . S
C1693 C1692 1.423 . S
C1693 H1705 0.930 . S
C1694 C1690 1.524 . S
C1694 H1706 0.956 . S
C1694 H1707 0.961 . S
C1694 H1708 0.961 . S
C1695 C1692 1.516 1_554 S
C1695 H1709 0.958 . S
C1695 H1710 0.961 . S
C1695 H1711 0.960 . S
H1696 C1680 0.931 . S
H1697 C1685 0.929 . S
H1698 C1686 0.960 . S
H1699 C1686 0.962 . S
H1700 C1686 0.960 . S
H1701 C1687 0.961 . S
H1702 C1687 0.961 1_556 S
H1703 C1687 0.961 . S
H1704 C1688 0.931 . S
H1705 C1693 0.930 . S
H1706 C1694 0.956 . S
H1707 C1694 0.961 . S
H1708 C1694 0.961 . S
H1709 C1695 0.958 . S
H1710 C1695 0.961 . S
H1711 C1695 0.960 . S
C1712 C1713 1.391 . S
C1712 C1714 1.394 . S
C1712 H1728 0.931 . S
C1713 C1712 1.391 . S
C1713 C1717 1.376 . S
C1714 C1712 1.394 . S
C1714 C1715 1.369 . S
C1714 C1718 1.531 . S
C1715 C1714 1.369 . S
C1715 C1716 1.410 . S
C1715 C1723 1.503 1_556 S
C1716 C1715 1.410 . S
C1716 C1717 1.392 . S
C1716 C1719 1.511 1_556 S
C1717 C1713 1.376 . S
C1717 C1716 1.392 . S
C1717 H1729 0.929 . S
C1718 C1714 1.531 . S
C1718 H1730 0.960 . S
C1718 H1731 0.962 . S
C1718 H1732 0.960 . S
C1719 C1716 1.511 1_554 S
C1719 H1733 0.961 . S
C1719 H1734 0.961 . S
C1719 H1735 0.961 . S
C1720 C1721 1.370 . S
C1720 C1722 1.363 . S
C1720 H1736 0.931 . S
C1721 C1720 1.370 . S
C1721 C1725 1.408 . S
C1722 C1720 1.363 . S
C1722 C1723 1.370 . S
C1722 C1726 1.524 1_554 S
C1723 C1715 1.503 1_554 S
C1723 C1722 1.370 . S
C1723 C1724 1.403 . S
C1724 C1723 1.403 . S
C1724 C1725 1.404 . S
C1724 C1727 1.539 . S
C1725 C1721 1.408 . S
C1725 C1724 1.404 . S
C1725 H1737 0.930 . S
C1726 C1722 1.524 1_556 S
C1726 H1738 0.956 . S
C1726 H1739 0.961 . S
C1726 H1740 0.961 . S
C1727 C1724 1.539 . S
C1727 H1741 0.958 . S
C1727 H1742 0.961 . S
C1727 H1743 0.960 . S
H1728 C1712 0.931 . S
H1729 C1717 0.929 . S
H1730 C1718 0.960 . S
H1731 C1718 0.962 . S
H1732 C1718 0.960 . S
H1733 C1719 0.961 . S
H1734 C1719 0.961 . S
H1735 C1719 0.961 . S
H1736 C1720 0.931 . S
H1737 C1725 0.930 . S
H1738 C1726 0.956 . S
H1739 C1726 0.961 . S
H1740 C1726 0.961 . S
H1741 C1727 0.958 . S
H1742 C1727 0.961 . S
H1743 C1727 0.960 . S
C1744 C1745 1.391 . S
C1744 C1746 1.394 . S
C1744 H1760 0.931 . S
C1745 C1744 1.391 . S
C1745 C1749 1.376 . S
C1746 C1744 1.394 . S
C1746 C1747 1.369 . S
C1746 C1750 1.531 1_554 S
C1747 C1746 1.369 . S
C1747 C1748 1.410 . S
C1747 C1755 1.503 1_554 S
C1748 C1747 1.410 . S
C1748 C1749 1.392 . S
C1748 C1751 1.511 . S
C1749 C1745 1.376 . S
C1749 C1748 1.392 . S
C1749 H1761 0.929 . S
C1750 C1746 1.531 1_556 S
C1750 H1762 0.960 . S
C1750 H1763 0.962 1_556 S
C1750 H1764 0.960 . S
C1751 C1748 1.511 . S
C1751 H1765 0.961 . S
C1751 H1766 0.961 . S
C1751 H1767 0.961 . S
C1752 C1753 1.370 . S
C1752 C1754 1.363 . S
C1752 H1768 0.931 . S
C1753 C1752 1.370 . S
C1753 C1757 1.408 . S
C1754 C1752 1.363 . S
C1754 C1755 1.370 . S
C1754 C1758 1.524 1_556 S
C1755 C1747 1.503 1_556 S
C1755 C1754 1.370 . S
C1755 C1756 1.403 . S
C1756 C1755 1.403 . S
C1756 C1757 1.404 . S
C1756 C1759 1.539 . S
C1757 C1753 1.408 . S
C1757 C1756 1.404 . S
C1757 H1769 0.930 . S
C1758 C1754 1.524 1_554 S
C1758 H1770 0.956 . S
C1758 H1771 0.961 . S
C1758 H1772 0.961 . S
C1759 C1756 1.539 . S
C1759 H1773 0.958 . S
C1759 H1774 0.961 . S
C1759 H1775 0.960 . S
H1760 C1744 0.931 . S
H1761 C1749 0.929 . S
H1762 C1750 0.960 . S
H1763 C1750 0.962 1_554 S
H1764 C1750 0.960 . S
H1765 C1751 0.961 . S
H1766 C1751 0.961 . S
H1767 C1751 0.961 . S
H1768 C1752 0.931 . S
H1769 C1757 0.930 . S
H1770 C1758 0.956 . S
H1771 C1758 0.961 . S
H1772 C1758 0.961 . S
H1773 C1759 0.958 . S
H1774 C1759 0.961 . S
H1775 C1759 0.960 . S
C1776 C1777 1.391 . S
C1776 C1778 1.394 . S
C1776 H1792 0.931 . S
C1777 C1776 1.391 . S
C1777 C1781 1.376 . S
C1778 C1776 1.394 . S
C1778 C1779 1.369 . S
C1778 C1782 1.531 . S
C1779 C1778 1.369 . S
C1779 C1780 1.410 . S
C1779 C1787 1.503 1_554 S
C1780 C1779 1.410 . S
C1780 C1781 1.392 . S
C1780 C1783 1.511 1_554 S
C1781 C1777 1.376 . S
C1781 C1780 1.392 . S
C1781 H1793 0.929 . S
C1782 C1778 1.531 . S
C1782 H1794 0.960 . S
C1782 H1795 0.962 . S
C1782 H1796 0.960 . S
C1783 C1780 1.511 1_556 S
C1783 H1797 0.961 . S
C1783 H1798 0.961 . S
C1783 H1799 0.961 . S
C1784 C1785 1.370 . S
C1784 C1786 1.363 . S
C1784 H1800 0.931 . S
C1785 C1784 1.370 . S
C1785 C1789 1.408 . S
C1786 C1784 1.363 . S
C1786 C1787 1.370 . S
C1786 C1790 1.524 1_556 S
C1787 C1779 1.503 1_556 S
C1787 C1786 1.370 . S
C1787 C1788 1.403 . S
C1788 C1787 1.403 . S
C1788 C1789 1.404 . S
C1788 C1791 1.539 . S
C1789 C1785 1.408 . S
C1789 C1788 1.404 . S
C1789 H1801 0.930 . S
C1790 C1786 1.524 1_554 S
C1790 H1802 0.956 . S
C1790 H1803 0.961 . S
C1790 H1804 0.961 . S
C1791 C1788 1.539 . S
C1791 H1805 0.958 . S
C1791 H1806 0.961 . S
C1791 H1807 0.960 . S
H1792 C1776 0.931 . S
H1793 C1781 0.929 . S
H1794 C1782 0.960 . S
H1795 C1782 0.962 . S
H1796 C1782 0.960 . S
H1797 C1783 0.961 . S
H1798 C1783 0.961 . S
H1799 C1783 0.961 . S
H1800 C1784 0.931 . S
H1801 C1789 0.930 . S
H1802 C1790 0.956 . S
H1803 C1790 0.961 . S
H1804 C1790 0.961 . S
H1805 C1791 0.958 . S
H1806 C1791 0.961 . S
H1807 C1791 0.960 . S
C529 N101 1.390 . S
C537 C7 1.592 . S
C561 C40 1.587 . S
C569 N2 1.447 . S
C593 C73 1.564 . S
C601 N35 1.430 . S
C625 C106 1.585 . S
C633 N68 1.449 . S
C657 N167 1.467 . S
C665 C139 1.566 . S
C689 N200 1.483 . S
C697 C172 1.567 . S
C721 C205 1.604 . S
C729 N233 1.430 . S
C753 N134 1.485 . S
C761 C238 1.567 . S
C785 C271 1.604 . S
C793 N365 1.423 . S
C817 C304 1.573 . S
C825 N266 1.430 . S
C849 N299 1.397 . S
C857 C337 1.591 . S
C881 C370 1.576 . S
C889 N332 1.448 . S
C913 N431 1.382 . S
C921 C403 1.591 . S
C945 C436 1.582 . S
C953 N464 1.425 . S
C977 C469 1.604 . S
C985 N497 1.417 . S
C1009 C502 1.564 . S
C1017 N398 1.455 . S
C1041 C21 1.604 . S
C1049 C186 1.598 . S
C1073 C54 1.620 . S
C1081 C219 1.600 . S
C1105 C252 1.586 . S
C1113 C87 1.613 . S
C1137 C120 1.586 . S
C1145 C153 1.613 . S
C1169 C450 1.619 . S
C1177 C285 1.605 . S
C1201 C483 1.586 . S
C1209 C318 1.614 . S
C1233 C351 1.621 . S
C1241 C516 1.599 . S
C1265 C417 1.621 . S
C1273 C384 1.599 . S
C1297 N13 1.139 . S
C1305 C381 1.139 . S
C1329 N46 1.138 . S
C1337 C282 1.139 . S
C1361 N79 1.108 . S
C1369 C315 1.142 . S
C1393 N112 1.102 . S
C1401 C348 1.141 . S
C1425 C447 1.134 . S
C1433 N145 1.122 . S
C1457 N178 1.149 . S
C1465 C480 1.136 . S
C1489 C513 1.144 . S
C1497 N211 1.120 . S
C1521 N244 1.103 . S
C1529 C414 1.141 . S
C1553 C117 1.130 . S
C1561 N277 1.130 . S
C1585 C18 1.133 . S
C1593 N310 1.135 . S
C1617 C51 1.135 . S
C1625 N343 1.123 . S
C1649 C84 1.144 . S
C1657 N376 1.119 . S
C1681 C183 1.144 . S
C1689 N409 1.119 . S
C1713 N442 1.102 . S
C1721 C216 1.141 . S
C1745 C249 1.127 . S
C1753 N475 1.138 . S
C1777 C150 1.131 . S
C1785 N508 1.128 . S
