# Generated by pormake.
# Topology yfl, (5)-cn, num edge types: 1
# Building blocks:
#     Node 0, Type 0, BuildingBlock: XOMCOT_clean_sbu_0, # of connection points: 5
#     Node 1, Type 0, BuildingBlock: XOMCOT_clean_sbu_0, # of connection points: 5
#     Node 2, Type 0, BuildingBlock: XOMCOT_clean_sbu_0, # of connection points: 5
#     Node 3, Type 0, BuildingBlock: XOMCOT_clean_sbu_0, # of connection points: 5
#     Node 4, Type 0, BuildingBlock: XOMCOT_clean_sbu_0, # of connection points: 5
#     Node 5, Type 0, BuildingBlock: XOMCOT_clean_sbu_0, # of connection points: 5
#     Node 6, Type 0, BuildingBlock: XOMCOT_clean_sbu_0, # of connection points: 5
#     Node 7, Type 0, BuildingBlock: XOMCOT_clean_sbu_0, # of connection points: 5
#     Node 8, Type 0, BuildingBlock: XOMCOT_clean_sbu_0, # of connection points: 5
#     Node 9, Type 0, BuildingBlock: XOMCOT_clean_sbu_0, # of connection points: 5
#     Node 10, Type 0, BuildingBlock: XOMCOT_clean_sbu_0, # of connection points: 5
#     Node 11, Type 0, BuildingBlock: XOMCOT_clean_sbu_0, # of connection points: 5
#     Node 12, Type 0, BuildingBlock: XOMCOT_clean_sbu_0, # of connection points: 5
#     Node 13, Type 0, BuildingBlock: XOMCOT_clean_sbu_0, # of connection points: 5
#     Node 14, Type 0, BuildingBlock: XOMCOT_clean_sbu_0, # of connection points: 5
#     Node 15, Type 0, BuildingBlock: XOMCOT_clean_sbu_0, # of connection points: 5
#     Edge 16, Type (0, 0), BuildingBlock: XUDNAN_clean_linker_2, # of connection points: 2
#     Edge 17, Type (0, 0), BuildingBlock: XUDNAN_clean_linker_2, # of connection points: 2
#     Edge 18, Type (0, 0), BuildingBlock: XUDNAN_clean_linker_2, # of connection points: 2
#     Edge 19, Type (0, 0), BuildingBlock: XUDNAN_clean_linker_2, # of connection points: 2
#     Edge 20, Type (0, 0), BuildingBlock: XUDNAN_clean_linker_2, # of connection points: 2
#     Edge 21, Type (0, 0), BuildingBlock: XUDNAN_clean_linker_2, # of connection points: 2
#     Edge 22, Type (0, 0), BuildingBlock: XUDNAN_clean_linker_2, # of connection points: 2
#     Edge 23, Type (0, 0), BuildingBlock: XUDNAN_clean_linker_2, # of connection points: 2
#     Edge 24, Type (0, 0), BuildingBlock: XUDNAN_clean_linker_2, # of connection points: 2
#     Edge 25, Type (0, 0), BuildingBlock: XUDNAN_clean_linker_2, # of connection points: 2
#     Edge 26, Type (0, 0), BuildingBlock: XUDNAN_clean_linker_2, # of connection points: 2
#     Edge 27, Type (0, 0), BuildingBlock: XUDNAN_clean_linker_2, # of connection points: 2
#     Edge 28, Type (0, 0), BuildingBlock: XUDNAN_clean_linker_2, # of connection points: 2
#     Edge 29, Type (0, 0), BuildingBlock: XUDNAN_clean_linker_2, # of connection points: 2
#     Edge 30, Type (0, 0), BuildingBlock: XUDNAN_clean_linker_2, # of connection points: 2
#     Edge 31, Type (0, 0), BuildingBlock: XUDNAN_clean_linker_2, # of connection points: 2
#     Edge 32, Type (0, 0), BuildingBlock: XUDNAN_clean_linker_2, # of connection points: 2
#     Edge 33, Type (0, 0), BuildingBlock: XUDNAN_clean_linker_2, # of connection points: 2
#     Edge 34, Type (0, 0), BuildingBlock: XUDNAN_clean_linker_2, # of connection points: 2
#     Edge 35, Type (0, 0), BuildingBlock: XUDNAN_clean_linker_2, # of connection points: 2
#     Edge 36, Type (0, 0), BuildingBlock: XUDNAN_clean_linker_2, # of connection points: 2
#     Edge 37, Type (0, 0), BuildingBlock: XUDNAN_clean_linker_2, # of connection points: 2
#     Edge 38, Type (0, 0), BuildingBlock: XUDNAN_clean_linker_2, # of connection points: 2
#     Edge 39, Type (0, 0), BuildingBlock: XUDNAN_clean_linker_2, # of connection points: 2
#     Edge 40, Type (0, 0), BuildingBlock: XUDNAN_clean_linker_2, # of connection points: 2
#     Edge 41, Type (0, 0), BuildingBlock: XUDNAN_clean_linker_2, # of connection points: 2
#     Edge 42, Type (0, 0), BuildingBlock: XUDNAN_clean_linker_2, # of connection points: 2
#     Edge 43, Type (0, 0), BuildingBlock: XUDNAN_clean_linker_2, # of connection points: 2
#     Edge 44, Type (0, 0), BuildingBlock: XUDNAN_clean_linker_2, # of connection points: 2
#     Edge 45, Type (0, 0), BuildingBlock: XUDNAN_clean_linker_2, # of connection points: 2
#     Edge 46, Type (0, 0), BuildingBlock: XUDNAN_clean_linker_2, # of connection points: 2
#     Edge 47, Type (0, 0), BuildingBlock: XUDNAN_clean_linker_2, # of connection points: 2
#     Edge 48, Type (0, 0), BuildingBlock: XUDNAN_clean_linker_2, # of connection points: 2
#     Edge 49, Type (0, 0), BuildingBlock: XUDNAN_clean_linker_2, # of connection points: 2
#     Edge 50, Type (0, 0), BuildingBlock: XUDNAN_clean_linker_2, # of connection points: 2
#     Edge 51, Type (0, 0), BuildingBlock: XUDNAN_clean_linker_2, # of connection points: 2
#     Edge 52, Type (0, 0), BuildingBlock: XUDNAN_clean_linker_2, # of connection points: 2
#     Edge 53, Type (0, 0), BuildingBlock: XUDNAN_clean_linker_2, # of connection points: 2
#     Edge 54, Type (0, 0), BuildingBlock: XUDNAN_clean_linker_2, # of connection points: 2
#     Edge 55, Type (0, 0), BuildingBlock: XUDNAN_clean_linker_2, # of connection points: 2
# Relax obj value: 0.347
# Max RMSD: 0.254
# Mean RMSD: 0.254
data_MOF--net-yfl--node1-XOMCOT_clean_sbu_0--edge1-XUDNAN_clean_linker_2
_symmetry_space_group_name_H-M    P1
_symmetry_Int_Tables_number       1
_symmetry_cell_setting            triclinic
loop_
_symmetry_equiv_pos_as_xyz
'x, y, z'
_cell_length_a     30.080155
_cell_length_b     30.03576
_cell_length_c     102.70581
_cell_angle_alpha  90.020751
_cell_angle_beta   89.982762
_cell_angle_gamma 89.925928
loop_
_atom_site_label
_atom_site_type_symbol
_atom_site_fract_x
_atom_site_fract_y
_atom_site_fract_z
_atom_type_partial_charge
Co0 Co 0.04445 0.33221 0.32188 0.0
C1 C 0.11537 0.30904 0.34022 0.0
C2 C 0.13992 0.35195 0.32526 0.0
C3 C 0.17171 0.34873 0.33491 0.0
N4 N 0.10463 0.32658 0.32853 0.0
N5 N 0.15577 0.32222 0.3444 0.0
H6 H 0.09239 0.29076 0.34622 0.0
H7 H 0.14077 0.37499 0.31718 0.0
C8 C 0.0976 0.33533 0.29629 0.0
O9 O 0.12501 0.30307 0.29951 0.0
N10 N 0.98429 0.33811 0.3156 0.0
C11 C 0.9496 0.3119 0.3188 0.0
C12 C 0.91422 0.32243 0.31086 0.0
C13 C 0.96936 0.36496 0.30607 0.0
N14 N 0.92683 0.35576 0.30291 0.0
C15 C 0.03697 0.23932 0.32836 0.0
C16 C 0.02509 0.2098 0.30312 0.0
C17 C 0.02068 0.17926 0.31334 0.0
C18 C 0.02736 0.19443 0.32611 0.0
C19 C 0.03409 0.25431 0.30581 0.0
N20 N 0.04075 0.26867 0.31828 0.0
H21 H 0.0383 0.25083 0.33828 0.0
H22 H 0.03271 0.27743 0.29781 0.0
H23 H 0.95062 0.28557 0.32597 0.0
H24 H 0.98974 0.3891 0.30108 0.0
O25 O 0.02135 0.33484 0.33966 0.0
O26 O 0.0438 0.39223 0.32772 0.0
O27 O 0.06634 0.34716 0.30393 0.0
C28 C 0.02778 0.37766 0.33862 0.0
H29 H 0.20198 0.36807 0.33553 0.0
H30 H 0.88218 0.30606 0.31068 0.0
H31 H 0.02014 0.19983 0.29309 0.0
H32 H 0.02287 0.17244 0.33436 0.0
Co33 Co 0.30053 0.96802 0.68247 0.0
C34 C 0.29396 0.9001 0.66223 0.0
C35 C 0.34225 0.88154 0.67661 0.0
C36 C 0.34411 0.85132 0.6665 0.0
N37 N 0.31075 0.91197 0.67387 0.0
N38 N 0.31399 0.86337 0.6574 0.0
H39 H 0.26896 0.91936 0.65717 0.0
H40 H 0.36421 0.88279 0.68493 0.0
C41 C 0.30273 0.9468 0.71138 0.0
O42 O 0.26962 0.97417 0.71378 0.0
N43 N 0.29099 0.0253 0.69083 0.0
C44 C 0.26127 0.05693 0.68744 0.0
C45 C 0.26828 0.09418 0.69489 0.0
C46 C 0.31674 0.04463 0.70002 0.0
N47 N 0.3031 0.08647 0.70282 0.0
C48 C 0.20899 0.9738 0.67511 0.0
C49 C 0.17586 0.91815 0.69415 0.0
C50 C 0.14609 0.94359 0.68673 0.0
C51 C 0.16316 0.97006 0.67668 0.0
C52 C 0.22158 0.9229 0.6922 0.0
N53 N 0.23755 0.95357 0.68356 0.0
H54 H 0.2214 0.99474 0.6674 0.0
H55 H 0.24377 0.90225 0.69779 0.0
H56 H 0.23692 0.05442 0.67981 0.0
H57 H 0.34531 0.02863 0.7044 0.0
O58 O 0.30209 0.99783 0.66561 0.0
O59 O 0.36002 0.98549 0.67858 0.0
O60 O 0.31533 0.9394 0.69969 0.0
C61 C 0.34457 0.00139 0.66774 0.0
H62 H 0.36777 0.82434 0.66557 0.0
H63 H 0.2489 0.12453 0.69453 0.0
H64 H 0.16399 0.8955 0.70158 0.0
H65 H 0.14154 0.98966 0.6705 0.0
Co66 Co 0.94235 0.70174 0.31135 0.0
C67 C 0.86321 0.72477 0.32749 0.0
C68 C 0.84889 0.67627 0.31278 0.0
C69 C 0.81262 0.67958 0.32088 0.0
N70 N 0.88064 0.70485 0.31684 0.0
N71 N 0.82175 0.71027 0.33002 0.0
H72 H 0.8815 0.74569 0.3341 0.0
H73 H 0.85319 0.65209 0.30508 0.0
C74 C 0.89113 0.71562 0.28671 0.0
O75 O 0.86788 0.7467 0.29263 0.0
N76 N 0.00364 0.69736 0.30589 0.0
C77 C 0.03831 0.71828 0.31149 0.0
C78 C 0.07481 0.71415 0.30348 0.0
C79 C 0.01955 0.68013 0.29468 0.0
N80 N 0.06287 0.69022 0.29294 0.0
C81 C 0.94762 0.79148 0.3211 0.0
C82 C 0.96115 0.83181 0.29725 0.0
C83 C 0.95793 0.85842 0.3084 0.0
C84 C 0.95217 0.83772 0.32049 0.0
C85 C 0.957 0.78575 0.29834 0.0
N86 N 0.94742 0.76626 0.31003 0.0
H87 H 0.94561 0.77599 0.33053 0.0
H88 H 0.96252 0.76587 0.28974 0.0
H89 H 0.03646 0.73746 0.32039 0.0
H90 H -0.00068 0.66319 0.28752 0.0
O91 O 0.96028 0.69345 0.32935 0.0
O92 O 0.94162 0.63953 0.31555 0.0
O93 O 0.92261 0.69569 0.29269 0.0
C94 C 0.95349 0.65129 0.32722 0.0
H95 H 0.78302 0.65914 0.32059 0.0
H96 H 0.10714 0.72902 0.30502 0.0
H97 H 0.96781 0.84639 0.28781 0.0
H98 H 0.95098 0.85705 0.32939 0.0
Co99 Co 0.67958 0.06284 0.6902 0.0
C100 C 0.70663 0.13834 0.67389 0.0
C101 C 0.68306 0.16065 0.69251 0.0
C102 C 0.69158 0.19736 0.68487 0.0
N103 N 0.69261 0.12375 0.68559 0.0
N104 N 0.70597 0.18317 0.67314 0.0
H105 H 0.71549 0.11653 0.66591 0.0
H106 H 0.66871 0.16098 0.70217 0.0
C107 C 0.70097 0.0656 0.71924 0.0
O108 O 0.73046 0.03351 0.71815 0.0
N109 N 0.6651 0.00118 0.69463 0.0
C110 C 0.66498 0.96561 0.68656 0.0
C111 C 0.65539 0.92783 0.69359 0.0
C112 C 0.65233 0.98452 0.70626 0.0
N113 N 0.64791 0.93981 0.70603 0.0
C114 C 0.75883 0.01629 0.68228 0.0
C115 C 0.81648 0.06357 0.69799 0.0
C116 C 0.83233 0.02615 0.69128 0.0
C117 C 0.80335 0.00343 0.68294 0.0
C118 C 0.77178 0.07549 0.69692 0.0
N119 N 0.74289 0.04978 0.68995 0.0
H120 H 0.7373 -0.0009 0.67562 0.0
H121 H 0.75999 0.10439 0.70216 0.0
H122 H 0.67136 0.96655 0.67622 0.0
H123 H 0.64633 0.00429 0.71481 0.0
O124 O 0.66485 0.05061 0.67212 0.0
O125 O 0.61797 0.07459 0.68734 0.0
O126 O 0.68006 0.08 0.70925 0.0
C127 C 0.62485 0.06339 0.67528 0.0
H128 H 0.68501 0.23167 0.68747 0.0
H129 H 0.65428 0.89419 0.68983 0.0
H130 H 0.8383 0.08317 0.70411 0.0
H131 H 0.8146 0.97517 0.67727 0.0
Co132 Co 0.0399 0.16927 0.93479 0.0
C133 C 0.10008 0.20773 0.91524 0.0
C134 C 0.13625 0.18597 0.93207 0.0
C135 C 0.1662 0.19953 0.92271 0.0
N136 N 0.09484 0.19117 0.92734 0.0
N137 N 0.14338 0.21286 0.91207 0.0
H138 H 0.07269 0.21312 0.9086 0.0
H139 H 0.14433 0.17134 0.94139 0.0
C140 C 0.06301 0.19638 0.96277 0.0
O141 O 0.03604 0.23075 0.96266 0.0
N142 N 0.98458 0.14523 0.94215 0.0
C143 C 0.95105 0.12533 0.93553 0.0
C144 C 0.91686 0.1157 0.94397 0.0
C145 C 0.97017 0.14616 0.95463 0.0
N146 N 0.92916 0.12874 0.95594 0.0
C147 C 0.97315 0.23722 0.93245 0.0
C148 C 0.02752 0.3087 0.93808 0.0
C149 C 0.98233 0.31661 0.93553 0.0
C150 C 0.95514 0.27997 0.9327 0.0
C151 C 0.04397 0.2652 0.93803 0.0
N152 N 0.01662 0.22984 0.93558 0.0
H153 H 0.95189 0.21017 0.92957 0.0
H154 H 0.07866 0.26 0.94029 0.0
H155 H 0.95024 0.11944 0.92517 0.0
H156 H 0.98802 0.1602 0.96267 0.0
O157 O 0.02003 0.15354 0.91742 0.0
O158 O 0.05899 0.11014 0.93075 0.0
O159 O 0.06715 0.17139 0.95277 0.0
C160 C 0.04023 0.11573 0.91946 0.0
H161 H 0.20201 0.19808 0.92356 0.0
H162 H 0.8853 0.10063 0.94149 0.0
H163 H 0.05033 0.33579 0.93995 0.0
H164 H 0.92006 0.28397 0.93067 0.0
Co165 Co 0.22194 0.91469 0.0524 0.0
C166 C 0.23363 0.84188 0.07121 0.0
C167 C 0.22 0.81606 0.05214 0.0
C168 C 0.22554 0.78078 0.06057 0.0
N169 N 0.2252 0.85433 0.05884 0.0
N170 N 0.23382 0.79725 0.07253 0.0
H171 H 0.23979 0.86493 0.0791 0.0
H172 H 0.21227 0.81361 0.04189 0.0
C173 C 0.2335 0.90892 0.02318 0.0
O174 O 0.25241 0.94824 0.02275 0.0
N175 N 0.21817 0.97569 0.04622 0.0
C176 C 0.24238 0.01094 0.05019 0.0
C177 C 0.22662 0.04866 0.0442 0.0
C178 C 0.18725 0.99282 0.03807 0.0
N179 N 0.19209 0.03725 0.03655 0.0
C180 C 0.30496 0.93529 0.06432 0.0
C181 C 0.35958 0.89638 0.04591 0.0
C182 C 0.37839 0.91587 0.05695 0.0
C183 C 0.35069 0.93515 0.06627 0.0
C184 C 0.3134 0.89634 0.04446 0.0
N185 N 0.2866 0.91722 0.05336 0.0
H186 H 0.2844 0.95008 0.07175 0.0
H187 H 0.29986 0.87794 0.03642 0.0
H188 H 0.26924 0.01009 0.05711 0.0
H189 H 0.16177 0.97311 0.03337 0.0
O190 O 0.20761 0.93609 0.06965 0.0
O191 O 0.1584 0.91422 0.05492 0.0
O192 O 0.22198 0.89131 0.03399 0.0
C193 C 0.16633 0.92968 0.06652 0.0
H194 H 0.22254 0.7458 0.05818 0.0
H195 H 0.24003 0.08189 0.04525 0.0
H196 H 0.38028 0.88007 0.03871 0.0
H197 H 0.36432 0.95015 0.075 0.0
Co198 Co 0.96318 0.79196 0.93452 0.0
C199 C 0.87348 0.78951 0.92226 0.0
C200 C 0.88353 0.84784 0.9339 0.0
C201 C 0.84399 0.85246 0.92728 0.0
N202 N 0.90209 0.8083 0.93077 0.0
N203 N 0.83782 0.81558 0.92007 0.0
H204 H 0.87983 0.7595 0.91684 0.0
H205 H 0.89911 0.87284 0.93995 0.0
C206 C 0.92066 0.80404 0.96095 0.0
O207 O 0.88372 0.78496 0.95703 0.0
N208 N 0.02413 0.77753 0.93831 0.0
C209 C 0.04891 0.74319 0.93399 0.0
C210 C 0.08976 0.74482 0.94011 0.0
C211 C 0.0501 0.7999 0.94671 0.0
N212 N 0.09028 0.7806 0.94808 0.0
C213 C 0.94104 0.70531 0.92531 0.0
C214 C 0.94127 0.66222 0.94906 0.0
C215 C 0.93226 0.63771 0.93774 0.0
C216 C 0.93256 0.65988 0.92577 0.0
C217 C 0.94948 0.708 0.94816 0.0
N218 N 0.94772 0.72936 0.93641 0.0
H219 H 0.94326 0.72088 0.91589 0.0
H220 H 0.95888 0.7255 0.95689 0.0
H221 H 0.03777 0.71819 0.92715 0.0
H222 H 0.03901 0.82871 0.95215 0.0
O223 O 0.97656 0.79345 0.91597 0.0
O224 O 0.98136 0.85056 0.92967 0.0
O225 O 0.95439 0.80593 0.95346 0.0
C226 C 0.98571 0.83521 0.91793 0.0
H227 H 0.82259 0.88146 0.92724 0.0
H228 H 0.11663 0.72113 0.93898 0.0
H229 H 0.94256 0.64614 0.95849 0.0
H230 H 0.9279 0.642 0.91671 0.0
Co231 Co 0.83566 0.05597 0.06793 0.0
C232 C 0.81105 0.11762 0.08922 0.0
C233 C 0.82614 0.1538 0.07186 0.0
C234 C 0.81708 0.18383 0.08167 0.0
N235 N 0.82113 0.11206 0.0765 0.0
N236 N 0.80746 0.16089 0.09259 0.0
H237 H 0.80936 0.09065 0.09614 0.0
H238 H 0.83777 0.16235 0.06224 0.0
C239 C 0.80742 0.10759 0.04391 0.0
O240 O 0.76901 0.11845 0.04913 0.0
N241 N 0.851 0.00024 0.05965 0.0
C242 C 0.83733 0.95954 0.06343 0.0
C243 C 0.85079 0.92888 0.05429 0.0
C244 C 0.87327 0.99385 0.04841 0.0
N245 N 0.87324 0.95056 0.04487 0.0
C246 C 0.74908 0.03526 0.07779 0.0
C247 C 0.71408 0.00549 0.05448 0.0
C248 C 0.68882 0.00126 0.06587 0.0
C249 C 0.70656 0.01704 0.07759 0.0
C250 C 0.75649 0.0241 0.05511 0.0
N251 N 0.77339 0.03929 0.06665 0.0
H252 H 0.76312 0.04374 0.08707 0.0
H253 H 0.7766 0.02414 0.0464 0.0
H254 H 0.81746 0.95292 0.07199 0.0
H255 H 0.88727 0.02044 0.04261 0.0
O256 O 0.84974 0.02884 0.08451 0.0
O257 O 0.89699 0.06589 0.07187 0.0
O258 O 0.83582 0.08499 0.05033 0.0
C259 C 0.89001 0.0429 0.08239 0.0
H260 H 0.81861 0.2197 0.08085 0.0
H261 H 0.84382 0.89353 0.0544 0.0
H262 H 0.70209 0.99268 0.04527 0.0
H263 H 0.68822 0.01434 0.08663 0.0
Co264 Co 0.55867 0.83039 0.81597 0.0
C265 C 0.62415 0.80491 0.83641 0.0
C266 C 0.65422 0.8392 0.8204 0.0
C267 C 0.68546 0.83449 0.83006 0.0
N268 N 0.6158 0.82005 0.82425 0.0
N269 N 0.66643 0.81297 0.84009 0.0
H270 H 0.59918 0.79252 0.84301 0.0
H271 H 0.65841 0.8586 0.81163 0.0
C272 C 0.61657 0.80923 0.79261 0.0
O273 O 0.6329 0.77346 0.79822 0.0
N274 N 0.50221 0.84236 0.8076 0.0
C275 C 0.46114 0.83237 0.81198 0.0
C276 C 0.43065 0.8424 0.80234 0.0
C277 C 0.49617 0.85847 0.79548 0.0
N278 N 0.45302 0.8583 0.79196 0.0
C279 C 0.53897 0.74324 0.82544 0.0
C280 C 0.52238 0.70468 0.80147 0.0
C281 C 0.51466 0.68014 0.8128 0.0
C282 C 0.52331 0.69967 0.82488 0.0
C283 C 0.53729 0.74857 0.80248 0.0
N284 N 0.5465 0.76708 0.81435 0.0
H285 H 0.54216 0.75854 0.83485 0.0
H286 H 0.53899 0.76822 0.7937 0.0
H287 H 0.45401 0.81712 0.82128 0.0
H288 H 0.52279 0.86895 0.78913 0.0
O289 O 0.53136 0.84115 0.83273 0.0
O290 O 0.56416 0.8922 0.82033 0.0
O291 O 0.58822 0.83354 0.79849 0.0
C292 C 0.54299 0.88239 0.83098 0.0
H293 H 0.71885 0.84792 0.82999 0.0
H294 H 0.39525 0.83605 0.80264 0.0
H295 H 0.51451 0.69095 0.792 0.0
H296 H 0.51655 0.68188 0.83384 0.0
Co297 Co 0.81857 0.44172 0.19028 0.0
C298 C 0.79052 0.36115 0.1761 0.0
C299 C 0.82457 0.34435 0.19372 0.0
C300 C 0.81722 0.30579 0.18679 0.0
N301 N 0.80667 0.37907 0.1872 0.0
N302 N 0.79619 0.31667 0.17568 0.0
H303 H 0.77843 0.3803 0.16795 0.0
H304 H 0.84488 0.34707 0.20236 0.0
C305 C 0.80075 0.40746 0.21755 0.0
O306 O 0.76747 0.38288 0.21347 0.0
N307 N 0.83107 0.50418 0.193 0.0
C308 C 0.81778 0.53753 0.18514 0.0
C309 C 0.82518 0.57742 0.19134 0.0
C310 C 0.84703 0.5242 0.20378 0.0
N311 N 0.84312 0.56899 0.20312 0.0
C312 C 0.72975 0.4547 0.18059 0.0
C313 C 0.69583 0.48981 0.20339 0.0
C314 C 0.66848 0.48862 0.19236 0.0
C315 C 0.68607 0.47067 0.18081 0.0
C316 C 0.73949 0.475 0.20261 0.0
N317 N 0.75569 0.45612 0.19147 0.0
H318 H 0.74331 0.44359 0.17145 0.0
H319 H 0.7606 0.48089 0.21089 0.0
H320 H 0.80133 0.53308 0.17587 0.0
H321 H 0.85869 0.5064 0.21224 0.0
O322 O 0.82815 0.45046 0.17178 0.0
O323 O 0.87967 0.43087 0.1862 0.0
O324 O 0.82321 0.4313 0.20964 0.0
C325 C 0.86941 0.44032 0.17422 0.0
H326 H 0.82995 0.27302 0.18913 0.0
H327 H 0.8162 0.60996 0.18766 0.0
H328 H 0.68422 0.50298 0.21259 0.0
H329 H 0.66705 0.47044 0.17187 0.0
Co330 Co 0.41889 0.2079 0.81073 0.0
C331 C 0.34058 0.22292 0.82788 0.0
C332 C 0.32034 0.20231 0.80885 0.0
C333 C 0.28297 0.20699 0.81648 0.0
N334 N 0.35659 0.21396 0.81584 0.0
N335 N 0.29592 0.21982 0.82844 0.0
H336 H 0.36102 0.22967 0.83629 0.0
H337 H 0.32068 0.18871 0.79913 0.0
C338 C 0.37879 0.23109 0.78467 0.0
O339 O 0.36036 0.26691 0.78968 0.0
N340 N 0.48042 0.2004 0.80582 0.0
C341 C 0.51598 0.21702 0.81212 0.0
C342 C 0.55392 0.20255 0.80591 0.0
C343 C 0.49699 0.17599 0.79592 0.0
N344 N 0.54194 0.17679 0.79573 0.0
C345 C 0.41821 0.29606 0.82126 0.0
C346 C 0.44915 0.3392 0.7993 0.0
C347 C 0.4362 0.36452 0.81013 0.0
C348 C 0.42188 0.3422 0.82134 0.0
C349 C 0.44504 0.29283 0.79968 0.0
N350 N 0.42706 0.27211 0.8103 0.0
H351 H 0.40898 0.27968 0.83015 0.0
H352 H 0.45563 0.27362 0.79133 0.0
H353 H 0.51436 0.23811 0.82064 0.0
H354 H 0.4766 0.15743 0.78915 0.0
O355 O 0.43544 0.197 0.82863 0.0
O356 O 0.41477 0.14546 0.8143 0.0
O357 O 0.40206 0.20508 0.79175 0.0
C358 C 0.42804 0.15526 0.82602 0.0
H359 H 0.24918 0.19915 0.81368 0.0
H360 H 0.58769 0.21094 0.80858 0.0
H361 H 0.4615 0.355 0.79054 0.0
H362 H 0.41396 0.3602 0.83019 0.0
Co363 Co 0.19168 0.56284 0.18501 0.0
C364 C 0.21709 0.62103 0.1633 0.0
C365 C 0.18364 0.65805 0.17826 0.0
C366 C 0.1931 0.68635 0.16807 0.0
N367 N 0.19882 0.61721 0.17522 0.0
N368 N 0.21394 0.66297 0.1586 0.0
H369 H 0.23081 0.59305 0.15804 0.0
H370 H 0.16604 0.66652 0.1871 0.0
C371 C 0.20549 0.59065 0.21263 0.0
O372 O 0.23286 0.55681 0.2139 0.0
N373 N 0.18251 0.50752 0.19469 0.0
C374 C 0.19312 0.46532 0.19128 0.0
C375 C 0.17849 0.43652 0.20078 0.0
C376 C 0.15824 0.50291 0.20567 0.0
N377 N 0.15685 0.46037 0.20989 0.0
C378 C 0.27889 0.52356 0.18228 0.0
C379 C 0.32474 0.59553 0.19217 0.0
C380 C 0.34867 0.55697 0.18887 0.0
C381 C 0.3249 0.52079 0.18371 0.0
C382 C 0.27862 0.5961 0.19106 0.0
N383 N 0.25596 0.55964 0.1867 0.0
H384 H 0.26216 0.49705 0.17731 0.0
H385 H 0.26106 0.62627 0.19361 0.0
H386 H 0.20812 0.45514 0.18223 0.0
H387 H 0.14166 0.53021 0.21048 0.0
O388 O 0.18426 0.53013 0.16892 0.0
O389 O 0.13004 0.56215 0.18039 0.0
O390 O 0.18644 0.59839 0.20172 0.0
C391 C 0.14221 0.53932 0.17023 0.0
H392 H 0.18449 0.72128 0.16767 0.0
H393 H 0.18238 0.40068 0.2008 0.0
H394 H 0.34122 0.62545 0.19549 0.0
H395 H 0.34123 0.4903 0.18078 0.0
Co396 Co 0.55734 0.67774 0.43488 0.0
C397 C 0.62754 0.71095 0.41691 0.0
C398 C 0.65293 0.66673 0.43149 0.0
C399 C 0.68603 0.67453 0.42256 0.0
N400 N 0.61625 0.68991 0.42807 0.0
N401 N 0.66994 0.7024 0.41346 0.0
H402 H 0.60444 0.72805 0.41064 0.0
H403 H 0.65439 0.64277 0.43934 0.0
C404 C 0.61178 0.69492 0.45884 0.0
O405 O 0.62953 0.72971 0.45309 0.0
N406 N 0.49906 0.66413 0.44158 0.0
C407 C 0.46009 0.6812 0.43746 0.0
C408 C 0.42692 0.66696 0.44572 0.0
C409 C 0.48921 0.63922 0.45208 0.0
N410 N 0.4454 0.64065 0.45489 0.0
C411 C 0.53694 0.76713 0.4267 0.0
C412 C 0.5179 0.7994 0.45128 0.0
C413 C 0.5115 0.82739 0.44053 0.0
C414 C 0.52141 0.81076 0.4281 0.0
C415 C 0.53292 0.75601 0.44943 0.0
N416 N 0.54378 0.74062 0.4373 0.0
H417 H 0.54075 0.75399 0.41702 0.0
H418 H 0.53354 0.73426 0.45777 0.0
H419 H 0.45634 0.70372 0.42932 0.0
H420 H 0.51381 0.6221 0.45791 0.0
O421 O 0.5349 0.66921 0.41733 0.0
O422 O 0.56506 0.61688 0.42987 0.0
O423 O 0.58241 0.67176 0.45299 0.0
C424 C 0.54699 0.6279 0.41885 0.0
H425 H 0.71841 0.65878 0.42229 0.0
H426 H 0.39211 0.67595 0.44519 0.0
H427 H 0.51046 0.81046 0.46107 0.0
H428 H 0.51532 0.83049 0.41946 0.0
Co429 Co 0.68378 0.43567 0.56394 0.0
C430 C 0.70457 0.36934 0.58349 0.0
C431 C 0.65697 0.34314 0.56998 0.0
C432 C 0.66152 0.31362 0.58023 0.0
N433 N 0.68401 0.37799 0.57214 0.0
N434 N 0.69119 0.33051 0.5888 0.0
H435 H 0.727 0.39265 0.58806 0.0
H436 H 0.63337 0.3409 0.56206 0.0
C437 C 0.70459 0.4142 0.53599 0.0
O438 O 0.7346 0.44592 0.53579 0.0
N439 N 0.68293 0.49537 0.55621 0.0
C440 C 0.69301 0.53321 0.56268 0.0
C441 C 0.68855 0.56891 0.55452 0.0
C442 C 0.66959 0.50952 0.54428 0.0
N443 N 0.67442 0.5541 0.54288 0.0
C444 C 0.7713 0.46489 0.5716 0.0
C445 C 0.8172 0.39938 0.5583 0.0
C446 C 0.84137 0.43247 0.56481 0.0
C447 C 0.81767 0.46473 0.57188 0.0
C448 C 0.77092 0.4003 0.55854 0.0
N449 N 0.74849 0.43459 0.56433 0.0
H450 H 0.75395 0.48862 0.57756 0.0
H451 H 0.75313 0.37327 0.55398 0.0
H452 H 0.70176 0.53557 0.57284 0.0
H453 H 0.65691 0.48801 0.53672 0.0
O454 O 0.67162 0.46211 0.58082 0.0
O455 O 0.62084 0.43939 0.56657 0.0
O456 O 0.68198 0.40618 0.54625 0.0
C457 C 0.62989 0.45664 0.57787 0.0
H458 H 0.64204 0.28377 0.58167 0.0
H459 H 0.6948 0.60335 0.55702 0.0
H460 H 0.83361 0.37318 0.55288 0.0
H461 H 0.83465 0.48941 0.57772 0.0
Co462 Co 0.44743 0.30315 0.44123 0.0
C463 C 0.36273 0.29851 0.42649 0.0
C464 C 0.35592 0.33698 0.44392 0.0
C465 C 0.31682 0.3398 0.43703 0.0
N466 N 0.3844 0.30994 0.43753 0.0
N467 N 0.32134 0.31581 0.42604 0.0
H468 H 0.37754 0.28038 0.41852 0.0
H469 H 0.36388 0.35598 0.45255 0.0
C470 C 0.40785 0.29894 0.46853 0.0
O471 O 0.37587 0.27211 0.46477 0.0
N472 N 0.51009 0.29767 0.44483 0.0
C473 C 0.53867 0.26726 0.44001 0.0
C474 C 0.57767 0.2694 0.44705 0.0
C475 C 0.53225 0.31863 0.45441 0.0
N476 N 0.57336 0.30164 0.45612 0.0
C477 C 0.43321 0.21438 0.43174 0.0
C478 C 0.45184 0.17132 0.45489 0.0
C479 C 0.44134 0.14604 0.44389 0.0
C480 C 0.43245 0.16793 0.43216 0.0
C481 C 0.45315 0.2176 0.45398 0.0
N482 N 0.44209 0.23878 0.44265 0.0
H483 H 0.42858 0.23049 0.42249 0.0
H484 H 0.46499 0.23607 0.46228 0.0
H485 H 0.53076 0.24344 0.43246 0.0
H486 H 0.51752 0.34384 0.46056 0.0
O487 O 0.46083 0.30868 0.42278 0.0
O488 O 0.45511 0.36449 0.43694 0.0
O489 O 0.43701 0.31258 0.46044 0.0
C490 C 0.4619 0.35133 0.42506 0.0
H491 H 0.28842 0.36036 0.43947 0.0
H492 H 0.60623 0.24777 0.44593 0.0
H493 H 0.46075 0.15537 0.46399 0.0
H494 H 0.42546 0.14928 0.42336 0.0
Co495 Co 0.30611 0.55368 0.56631 0.0
C496 C 0.30757 0.64488 0.57773 0.0
C497 C 0.24987 0.63563 0.56588 0.0
C498 C 0.24698 0.67665 0.57175 0.0
N499 N 0.28806 0.6154 0.56955 0.0
N500 N 0.28307 0.68217 0.57929 0.0
H501 H 0.33825 0.63893 0.58289 0.0
H502 H 0.22385 0.62075 0.56011 0.0
C503 C 0.29815 0.58577 0.53786 0.0
O504 O 0.26041 0.60684 0.53949 0.0
N505 N 0.32399 0.49269 0.56328 0.0
C506 C 0.30387 0.45563 0.56775 0.0
C507 C 0.32116 0.41938 0.56125 0.0
C508 C 0.3544 0.47848 0.55461 0.0
N509 N 0.35273 0.43398 0.55296 0.0
C510 C 0.21565 0.54207 0.57352 0.0
C511 C 0.18981 0.49662 0.55132 0.0
C512 C 0.1592 0.50305 0.56141 0.0
C513 C 0.17221 0.52647 0.57254 0.0
C514 C 0.23268 0.51378 0.55255 0.0
N515 N 0.24498 0.53627 0.56353 0.0
H516 H 0.22605 0.55877 0.58233 0.0
H517 H 0.25657 0.50716 0.54493 0.0
H518 H 0.2764 0.45532 0.57455 0.0
H519 H 0.37519 0.50056 0.54897 0.0
O520 O 0.31053 0.54235 0.58487 0.0
O521 O 0.3651 0.56655 0.57206 0.0
O522 O 0.31723 0.56572 0.54727 0.0
C523 C 0.35219 0.55324 0.5835 0.0
H524 H 0.21889 0.69917 0.57127 0.0
H525 H 0.30973 0.38532 0.562 0.0
H526 H 0.18079 0.47813 0.54266 0.0
H527 H 0.14941 0.53137 0.58059 0.0
H528 H 0.1526 0.31634 0.27519 0.0
H529 H 0.05055 0.40811 0.28858 0.0
H530 H 0.05153 0.4459 0.26752 0.0
H531 H 0.21479 0.39935 0.25747 0.0
H532 H 0.23001 0.36241 0.24437 0.0
H533 H 0.2201 0.34041 0.26042 0.0
H534 H 0.16122 0.28649 0.25093 0.0
H535 H 0.17071 0.30864 0.23486 0.0
H536 H 0.11541 0.30862 0.24163 0.0
H537 H 0.06216 0.47405 0.24523 0.0
H538 H 0.08787 0.49592 0.22335 0.0
H539 H 0.18563 0.38953 0.22417 0.0
C540 C 0.1304 0.34425 0.27366 0.0
C541 C 0.10074 0.35839 0.28353 0.0
C542 C 0.07273 0.3956 0.28115 0.0
C543 C 0.07308 0.41759 0.26919 0.0
C544 C 0.10198 0.40246 0.25962 0.0
C545 C 0.13057 0.36709 0.2617 0.0
C546 C 0.15969 0.35932 0.24984 0.0
C547 C 0.20907 0.36577 0.25323 0.0
C548 C 0.15124 0.31301 0.24397 0.0
C549 C 0.14295 0.39594 0.2409 0.0
C550 C 0.10936 0.42005 0.24674 0.0
C551 C 0.08874 0.45575 0.24055 0.0
C552 C 0.10364 0.46799 0.22815 0.0
C553 C 0.13892 0.44468 0.22206 0.0
C554 C 0.15826 0.4077 0.22848 0.0
H555 H 0.37495 0.89845 0.7854 0.0
H556 H 0.49283 0.83569 0.76939 0.0
H557 H 0.46474 0.84852 0.74717 0.0
H558 H 0.29676 0.85785 0.76097 0.0
H559 H 0.26545 0.90902 0.76037 0.0
H560 H 0.29347 0.89306 0.77516 0.0
H561 H 0.33582 0.96822 0.7754 0.0
H562 H 0.30725 0.98432 0.76074 0.0
H563 H 0.36723 0.98465 0.76125 0.0
H564 H 0.42519 0.86799 0.7269 0.0
H565 H 0.37836 0.89727 0.70932 0.0
H566 H 0.28627 0.95112 0.73792 0.0
C567 C 0.39452 0.88725 0.77717 0.0
C568 C 0.43604 0.86613 0.77907 0.0
C569 C 0.46117 0.85233 0.76813 0.0
C570 C 0.44538 0.85922 0.75548 0.0
C571 C 0.40455 0.88037 0.75392 0.0
C572 C 0.3795 0.89452 0.76441 0.0
C573 C 0.33762 0.91815 0.75988 0.0
C574 C 0.29585 0.89301 0.76436 0.0
C575 C 0.33698 0.96673 0.76459 0.0
C576 C 0.34336 0.91531 0.74521 0.0
C577 C 0.38198 0.89281 0.74205 0.0
C578 C 0.39483 0.88567 0.72922 0.0
C579 C 0.36781 0.90241 0.71929 0.0
C580 C 0.32844 0.9265 0.72218 0.0
C581 C 0.31601 0.93274 0.73536 0.0
H582 H 0.90031 0.56189 0.22355 0.0
H583 H 0.79752 0.64605 0.20697 0.0
H584 H 0.80213 0.69574 0.22597 0.0
H585 H 0.86351 0.56737 0.25586 0.0
H586 H 0.91814 0.56905 0.26305 0.0
H587 H 0.91016 0.54242 0.24754 0.0
H588 H 0.97035 0.59279 0.23744 0.0
H589 H 0.9782 0.62062 0.25284 0.0
H590 H 0.96484 0.65247 0.2385 0.0
H591 H 0.81304 0.73271 0.24767 0.0
H592 H 0.83167 0.75548 0.27013 0.0
H593 H 0.92739 0.64742 0.27253 0.0
C594 C 0.87911 0.591 0.22385 0.0
C595 C 0.84876 0.6001 0.21369 0.0
C596 C 0.82165 0.63869 0.21447 0.0
C597 C 0.82382 0.66705 0.22528 0.0
C598 C 0.85352 0.65667 0.23522 0.0
C599 C 0.88101 0.61981 0.23455 0.0
C600 C 0.90881 0.61529 0.24677 0.0
C601 C 0.89956 0.5709 0.25371 0.0
C602 C 0.9585 0.62061 0.24369 0.0
C603 C 0.89158 0.65446 0.25455 0.0
C604 C 0.85998 0.67815 0.24769 0.0
C605 C 0.83812 0.71472 0.25309 0.0
C606 C 0.84884 0.72732 0.26587 0.0
C607 C 0.88108 0.70337 0.27308 0.0
C608 C 0.90285 0.6667 0.26725 0.0
H609 H 0.52426 0.15804 0.77034 0.0
H610 H 0.62634 0.14808 0.80002 0.0
H611 H 0.67809 0.11604 0.78384 0.0
H612 H 0.55492 0.05414 0.75293 0.0
H613 H 0.54128 0.07841 0.73739 0.0
H614 H 0.51242 0.09625 0.75186 0.0
H615 H 0.53481 0.17785 0.74648 0.0
H616 H 0.56519 0.15951 0.73237 0.0
H617 H 0.59289 0.19156 0.74479 0.0
H618 H 0.71934 0.08614 0.76411 0.0
H619 H 0.74708 0.06396 0.7423 0.0
H620 H 0.61859 0.09664 0.72566 0.0
C621 C 0.55721 0.1484 0.7735 0.0
C622 C 0.57122 0.15564 0.78646 0.0
C623 C 0.61499 0.14331 0.79012 0.0
C624 C 0.64454 0.12479 0.78102 0.0
C625 C 0.62986 0.11875 0.76828 0.0
C626 C 0.58717 0.13011 0.76454 0.0
C627 C 0.58015 0.12203 0.75014 0.0
C628 C 0.54512 0.08553 0.74795 0.0
C629 C 0.56753 0.16532 0.74303 0.0
C630 C 0.62599 0.10596 0.74628 0.0
C631 C 0.65398 0.10326 0.75691 0.0
C632 C 0.69774 0.08827 0.75571 0.0
C633 C 0.71324 0.07584 0.74331 0.0
C634 C 0.68528 0.07933 0.73228 0.0
C635 C 0.6411 0.09449 0.73386 0.0
H636 H 0.15604 0.01653 0.01305 0.0
H637 H 0.1743 0.12458 0.04053 0.0
H638 H 0.14035 0.177 0.02491 0.0
H639 H 0.18394 0.07512 0.98504 0.0
H640 H 0.14287 0.04931 0.97473 0.0
H641 H 0.16408 0.01992 0.98868 0.0
H642 H 0.08324 0.00996 0.99746 0.0
H643 H 0.06271 0.03882 0.9833 0.0
H644 H 0.04836 0.05833 0.99936 0.0
H645 H 0.10812 0.21845 0.00584 0.0
H646 H 0.08016 0.24572 0.98462 0.0
H647 H 0.08546 0.11101 0.96939 0.0
C648 C 0.15185 0.05099 0.01589 0.0
C649 C 0.16782 0.06652 0.028 0.0
C650 C 0.16265 0.11208 0.03126 0.0
C651 C 0.14319 0.14205 0.02249 0.0
C652 C 0.12891 0.12593 0.01049 0.0
C653 C 0.13266 0.08141 0.00721 0.0
C654 C 0.11687 0.07314 0.99342 0.0
C655 C 0.15417 0.05321 0.98497 0.0
C656 C 0.07534 0.04329 0.99338 0.0
C657 C 0.10547 0.12021 0.98929 0.0
C658 C 0.11171 0.15004 0.99936 0.0
C659 C 0.10303 0.19539 0.99789 0.0
C660 C 0.08733 0.21061 0.9858 0.0
C661 C 0.08126 0.18066 0.97532 0.0
C662 C 0.09053 0.1349 0.97714 0.0
H663 H 0.10919 0.86378 0.95669 0.0
H664 H 0.14546 0.72486 0.96111 0.0
H665 H 0.19448 0.74458 0.97951 0.0
H666 H 0.21927 0.91098 0.96611 0.0
H667 H 0.19419 0.95701 0.97465 0.0
H668 H 0.1667 0.93317 0.96071 0.0
H669 H 0.09605 0.91991 0.97446 0.0
H670 H 0.12285 0.94329 0.98852 0.0
H671 H 0.09983 0.88802 0.98929 0.0
H672 H 0.22848 0.77713 0.99951 0.0
H673 H 0.25033 0.82145 0.01878 0.0
H674 H 0.19548 0.94005 0.0009 0.0
C675 C 0.12816 0.83768 0.96138 0.0
C676 C 0.1236 0.79277 0.95748 0.0
C677 C 0.14895 0.7595 0.96382 0.0
C678 C 0.17672 0.7704 0.97431 0.0
C679 C 0.17934 0.81481 0.97817 0.0
C680 C 0.15629 0.84807 0.97178 0.0
C681 C 0.1625 0.89273 0.9784 0.0
C682 C 0.18714 0.9254 0.96943 0.0
C683 C 0.11764 0.91208 0.98293 0.0
C684 C 0.19119 0.87907 0.98984 0.0
C685 C 0.20063 0.83398 0.98949 0.0
C686 C 0.22242 0.81264 0.99972 0.0
C687 C 0.23452 0.83793 0.01062 0.0
C688 C 0.22531 0.88407 0.01111 0.0
C689 C 0.20412 0.90504 1.00051 0.0
H690 H 0.8604 0.80089 0.9812 0.0
H691 H 0.98632 0.85941 0.96958 0.0
H692 H 0.9887 0.90198 0.99002 0.0
H693 H 0.81524 0.89736 0.99619 0.0
H694 H 0.78904 0.86777 0.00938 0.0
H695 H 0.79774 0.84046 0.99398 0.0
H696 H 0.84104 0.77715 0.00556 0.0
H697 H 0.83231 0.80422 0.02101 0.0
H698 H 0.8879 0.79081 0.01574 0.0
H699 H 0.9747 0.94297 0.01096 0.0
H700 H 0.94805 0.97386 0.03195 0.0
H701 H 0.83363 0.8865 0.03044 0.0
C702 C 0.88865 0.82232 0.98301 0.0
C703 C 0.92309 0.82672 0.97375 0.0
C704 C 0.95952 0.85521 0.97651 0.0
C705 C 0.96119 0.87973 0.9881 0.0
C706 C 0.92644 0.87513 0.99693 0.0
C707 C 0.89114 0.84673 0.99462 0.0
C708 C 0.85808 0.84804 0.00574 0.0
C709 C 0.81233 0.86439 0.00104 0.0
C710 C 0.85465 0.80234 0.0124 0.0
C711 C 0.88007 0.88195 0.01455 0.0
C712 C 0.91932 0.89745 0.00925 0.0
C713 C 0.94435 0.9306 0.0153 0.0
C714 C 0.92895 0.9481 0.02715 0.0
C715 C 0.88923 0.93208 0.03284 0.0
C716 C 0.86466 0.89855 0.02643 0.0
H717 H 0.88747 0.09964 0.0316 0.0
H718 H 0.74983 0.13693 0.02493 0.0
H719 H 0.76605 0.1461 0.00144 0.0
H720 H 0.93705 0.17535 0.0084 0.0
H721 H 0.97928 0.13603 0.00356 0.0
H722 H 0.95674 0.13414 0.01979 0.0
H723 H 0.93593 0.05127 0.01638 0.0
H724 H 0.9578 0.05305 1.00007 0.0
H725 H 0.9012 0.03583 0.00283 0.0
H726 H 0.79676 0.14671 0.97846 0.0
H727 H 0.84105 0.14531 0.95811 0.0
H728 H 0.95843 0.10931 0.98018 0.0
C729 C 0.86069 0.11012 0.02525 0.0
C730 C 0.81729 0.11755 0.0301 0.0
C731 C 0.78335 0.1313 0.02144 0.0
C732 C 0.79221 0.13635 0.00809 0.0
C733 C 0.8352 0.1278 0.00361 0.0
C734 C 0.86898 0.11546 0.01197 0.0
C735 C 0.91225 0.1078 0.00476 0.0
C736 C 0.94845 0.14029 0.00941 0.0
C737 C 0.92768 0.05911 0.00609 0.0
C738 C 0.89765 0.11809 0.991 0.0
C739 C 0.853 0.12904 0.9905 0.0
C740 C 0.83179 0.13852 0.97876 0.0
C741 C 0.85704 0.13738 0.96727 0.0
C742 C 0.90303 0.12742 0.96765 0.0
C743 C 0.92341 0.11753 0.97968 0.0
H744 H 0.59699 0.8864 0.7799 0.0
H745 H 0.66006 0.75765 0.77439 0.0
H746 H 0.67238 0.77587 0.75112 0.0
H747 H 0.53972 0.88942 0.7493 0.0
H748 H 0.54714 0.94856 0.74737 0.0
H749 H 0.54413 0.92473 0.76343 0.0
H750 H 0.62051 0.96069 0.76899 0.0
H751 H 0.62342 0.98402 0.75288 0.0
H752 H 0.66786 0.94912 0.75876 0.0
H753 H 0.67662 0.80855 0.72835 0.0
H754 H 0.67723 0.85444 0.70843 0.0
H755 H 0.60865 0.96015 0.72917 0.0
C756 C 0.6134 0.86186 0.77384 0.0
C757 C 0.62739 0.82043 0.77895 0.0
C758 C 0.6492 0.78962 0.77069 0.0
C759 C 0.65609 0.7996 0.75747 0.0
C760 C 0.64098 0.84047 0.75272 0.0
C761 C 0.62037 0.87119 0.76071 0.0
C762 C 0.60731 0.91281 0.75334 0.0
C763 C 0.55656 0.91925 0.75337 0.0
C764 C 0.63122 0.95407 0.75882 0.0
C765 C 0.62414 0.90093 0.73992 0.0
C766 C 0.64321 0.85903 0.73972 0.0
C767 C 0.66162 0.84132 0.7284 0.0
C768 C 0.66143 0.86753 0.71709 0.0
C769 C 0.64301 0.91104 0.71718 0.0
C770 C 0.62344 0.92734 0.72875 0.0
H771 H 0.80104 0.33939 0.23538 0.0
H772 H 0.82593 0.48077 0.23109 0.0
H773 H 0.85417 0.48399 0.25357 0.0
H774 H 0.76915 0.34366 0.27062 0.0
H775 H 0.79653 0.29159 0.27411 0.0
H776 H 0.77276 0.30123 0.25824 0.0
H777 H 0.84891 0.28387 0.24756 0.0
H778 H 0.8729 0.2744 0.26336 0.0
H779 H 0.89731 0.31484 0.25256 0.0
H780 H 0.88969 0.47058 0.27496 0.0
H781 H 0.92552 0.44122 0.29489 0.0
H782 H 0.87585 0.30939 0.28597 0.0
C783 C 0.81143 0.37115 0.23933 0.0
C784 C 0.81183 0.40975 0.2315 0.0
C785 C 0.82631 0.45066 0.23685 0.0
C786 C 0.84205 0.45294 0.24964 0.0
C787 C 0.84291 0.41408 0.25698 0.0
C788 C 0.82753 0.374 0.25211 0.0
C789 C 0.83516 0.33665 0.26178 0.0
C790 C 0.79075 0.31714 0.26647 0.0
C791 C 0.86537 0.30032 0.25597 0.0
C792 C 0.85841 0.36185 0.2726 0.0
C793 C 0.8623 0.40654 0.26965 0.0
C794 C 0.88597 0.43586 0.27756 0.0
C795 C 0.90636 0.41898 0.28879 0.0
C796 C 0.9027 0.37338 0.29201 0.0
C797 C 0.87794 0.34466 0.28389 0.0
H798 H 0.34383 0.06368 0.72551 0.0
H799 H 0.29936 0.17676 0.70268 0.0
H800 H 0.31862 0.22715 0.72075 0.0
H801 H 0.30167 0.09987 0.75533 0.0
H802 H 0.34749 0.07872 0.76482 0.0
H803 H 0.33366 0.05325 0.74947 0.0
H804 H 0.41497 0.0659 0.74178 0.0
H805 H 0.42809 0.09261 0.75701 0.0
H806 H 0.43751 0.1215 0.74187 0.0
H807 H 0.33434 0.26409 0.74216 0.0
H808 H 0.35038 0.28544 0.76494 0.0
H809 H 0.38762 0.14888 0.77349 0.0
C810 C 0.33935 0.09913 0.72416 0.0
C811 C 0.31984 0.11619 0.71269 0.0
C812 C 0.31363 0.1628 0.71144 0.0
C813 C 0.32475 0.19176 0.72162 0.0
C814 C 0.34257 0.17372 0.73296 0.0
C815 C 0.35043 0.12856 0.73423 0.0
C816 C 0.36751 0.11743 0.7477 0.0
C817 C 0.33568 0.08544 0.75476 0.0
C818 C 0.41484 0.09823 0.74704 0.0
C819 C 0.36712 0.16321 0.75389 0.0
C820 C 0.35265 0.19525 0.74522 0.0
C821 C 0.34648 0.23946 0.74897 0.0
C822 C 0.35541 0.25123 0.76194 0.0
C823 C 0.37056 0.21895 0.77094 0.0
C824 C 0.3768 0.17449 0.76678 0.0
H825 H 0.156 0.55552 0.23213 0.0
H826 H 0.21881 0.67749 0.21926 0.0
H827 H 0.1914 0.71599 0.23914 0.0
H828 H 0.0568 0.61132 0.24375 0.0
H829 H 0.04831 0.57169 0.25673 0.0
H830 H 0.07579 0.55494 0.24193 0.0
H831 H 0.14314 0.5276 0.25575 0.0
H832 H 0.11576 0.54563 0.27043 0.0
H833 H 0.17046 0.56621 0.26654 0.0
H834 H 0.15851 0.73985 0.26073 0.0
H835 H 0.11588 0.75031 0.28112 0.0
H836 H 0.06778 0.61472 0.27853 0.0
C837 C 0.16406 0.59029 0.23355 0.0
C838 C 0.1898 0.61372 0.22436 0.0
C839 C 0.19932 0.65923 0.22634 0.0
C840 C 0.18399 0.68116 0.23757 0.0
C841 C 0.1584 0.65714 0.24648 0.0
C842 C 0.14785 0.61292 0.24446 0.0
C843 C 0.11681 0.59562 0.25491 0.0
C844 C 0.07173 0.5826 0.249 0.0
C845 C 0.13782 0.55646 0.26235 0.0
C846 C 0.11256 0.63664 0.26339 0.0
C847 C 0.13711 0.67165 0.25841 0.0
C848 C 0.13901 0.71276 0.26467 0.0
C849 C 0.11494 0.71834 0.27626 0.0
C850 C 0.08874 0.68329 0.28134 0.0
C851 C 0.08746 0.64202 0.27478 0.0
H852 H 0.61585 0.54261 0.52276 0.0
H853 H 0.72394 0.62572 0.53655 0.0
H854 H 0.71723 0.67281 0.51707 0.0
H855 H 0.64507 0.54686 0.48862 0.0
H856 H 0.58797 0.54819 0.48331 0.0
H857 H 0.6022 0.52201 0.49851 0.0
H858 H 0.54456 0.57324 0.51003 0.0
H859 H 0.53234 0.60052 0.49482 0.0
H860 H 0.55036 0.6328 0.50864 0.0
H861 H 0.70116 0.70959 0.49582 0.0
H862 H 0.67642 0.73324 0.47396 0.0
H863 H 0.57817 0.62737 0.47389 0.0
C864 C 0.63802 0.5707 0.52164 0.0
C865 C 0.6701 0.58074 0.53127 0.0
C866 C 0.69852 0.61788 0.52946 0.0
C867 C 0.69513 0.64477 0.51839 0.0
C868 C 0.66294 0.63439 0.50918 0.0
C869 C 0.63478 0.59836 0.51065 0.0
C870 C 0.60343 0.59458 0.49914 0.0
C871 C 0.61008 0.55024 0.49196 0.0
C872 C 0.5548 0.60066 0.50342 0.0
C873 C 0.61912 0.6334 0.49092 0.0
C874 C 0.65333 0.65606 0.49692 0.0
C875 C 0.6742 0.69227 0.49103 0.0
C876 C 0.65996 0.70543 0.47861 0.0
C877 C 0.62538 0.68225 0.47219 0.0
C878 C 0.6046 0.64597 0.47853 0.0
H879 H 0.58503 0.38117 0.46797 0.0
H880 H 0.6261 0.24284 0.46898 0.0
H881 H 0.66864 0.25723 0.48916 0.0
H882 H 0.68774 0.42736 0.47994 0.0
H883 H 0.66289 0.4691 0.49013 0.0
H884 H 0.63508 0.45163 0.47543 0.0
H885 H 0.56458 0.43065 0.48759 0.0
H886 H 0.58771 0.44749 0.503 0.0
H887 H 0.56688 0.39194 0.50098 0.0
H888 H 0.69913 0.28541 0.51073 0.0
H889 H 0.72067 0.32689 0.5307 0.0
H890 H 0.66282 0.44711 0.51474 0.0
C891 C 0.60352 0.35408 0.47234 0.0
C892 C 0.60244 0.31096 0.4669 0.0
C893 C 0.62705 0.2763 0.47288 0.0
C894 C 0.65103 0.2841 0.48439 0.0
C895 C 0.65051 0.32687 0.48967 0.0
C896 C 0.62789 0.36138 0.48371 0.0
C897 C 0.6312 0.40388 0.49152 0.0
C898 C 0.6556 0.44016 0.48378 0.0
C899 C 0.58487 0.41945 0.49601 0.0
C900 C 0.65884 0.38799 0.50288 0.0
C901 C 0.66941 0.34334 0.50173 0.0
C902 C 0.69187 0.32058 0.51159 0.0
C903 C 0.7039 0.34422 0.52286 0.0
C904 C 0.69403 0.39006 0.52399 0.0
C905 C 0.67155 0.41222 0.51388 0.0
H906 H 0.31208 0.37318 0.53762 0.0
H907 H 0.43634 0.44268 0.5438 0.0
H908 H 0.46685 0.40888 0.52368 0.0
H909 H 0.35889 0.27036 0.52268 0.0
H910 H 0.31382 0.26612 0.51119 0.0
H911 H 0.30435 0.29051 0.52699 0.0
H912 H 0.27377 0.36185 0.51598 0.0
H913 H 0.28344 0.33794 0.50017 0.0
H914 H 0.30775 0.39092 0.50429 0.0
H915 H 0.481 0.37334 0.50213 0.0
H916 H 0.47806 0.34018 0.48029 0.0
H917 H 0.34327 0.29503 0.48759 0.0
C918 C 0.34622 0.37994 0.53496 0.0
C919 C 0.37233 0.4098 0.54233 0.0
C920 C 0.41619 0.41951 0.5383 0.0
C921 C 0.4337 0.4004 0.52694 0.0
C922 C 0.40675 0.37182 0.51972 0.0
C923 C 0.36395 0.36156 0.52356 0.0
C924 C 0.34044 0.33348 0.51341 0.0
C925 C 0.32869 0.28737 0.5189 0.0
C926 C 0.29891 0.3575 0.50816 0.0
C927 C 0.3764 0.33023 0.50312 0.0
C928 C 0.41452 0.35215 0.50705 0.0
C929 C 0.45151 0.35573 0.499 0.0
C930 C 0.44936 0.33692 0.48655 0.0
C931 C 0.41037 0.31501 0.48216 0.0
C932 C 0.3737 0.3111 0.49069 0.0
H933 H 0.29118 0.64561 0.51765 0.0
H934 H 0.35195 0.52002 0.52857 0.0
H935 H 0.39303 0.51837 0.50789 0.0
H936 H 0.28064 0.61958 0.48256 0.0
H937 H 0.29341 0.67576 0.47767 0.0
H938 H 0.26612 0.6656 0.49301 0.0
H939 H 0.32841 0.70885 0.50499 0.0
H940 H 0.35589 0.71901 0.48972 0.0
H941 H 0.38552 0.69215 0.50279 0.0
H942 H 0.43282 0.53351 0.48708 0.0
H943 H 0.4658 0.56299 0.46678 0.0
H944 H 0.37792 0.67732 0.4688 0.0
C945 C 0.31256 0.61745 0.51557 0.0
C946 C 0.31898 0.58333 0.52484 0.0
C947 C 0.34745 0.54715 0.5218 0.0
C948 C 0.37061 0.54565 0.51 0.0
C949 C 0.36462 0.5804 0.50123 0.0
C950 C 0.33599 0.61542 0.50377 0.0
C951 C 0.33712 0.64937 0.49287 0.0
C952 C 0.29161 0.65276 0.48613 0.0
C953 C 0.35267 0.69503 0.4979 0.0
C954 C 0.37148 0.62835 0.48398 0.0
C955 C 0.38682 0.58852 0.48898 0.0
C956 C 0.4206 0.56432 0.48294 0.0
C957 C 0.43929 0.58137 0.47148 0.0
C958 C 0.42406 0.6221 0.46618 0.0
C959 C 0.38942 0.64556 0.47247 0.0
H960 H 0.0472 0.1019 0.32562 0.0
H961 H 0.95954 0.15164 0.29529 0.0
H962 H 0.93496 0.07521 0.29068 0.0
H963 H 0.07915 0.00049 0.30969 0.0
H964 H 0.07869 0.9677 0.32439 0.0
H965 H 0.09049 0.02641 0.32517 0.0
H966 H 0.02638 0.03703 0.34176 0.0
H967 H 0.01438 0.97834 0.34102 0.0
H968 H 0.97122 0.01836 0.33761 0.0
H969 H 0.92026 0.9938 0.28909 0.0
H970 H 0.91463 0.91206 0.29119 0.0
H971 H 0.00888 0.91504 0.32315 0.0
C972 C 0.02265 0.0968 0.31806 0.0
C973 C 0.00588 0.1329 0.3107 0.0
C974 C 0.97389 0.12459 0.30085 0.0
C975 C 0.95935 0.08127 0.29822 0.0
C976 C 0.97671 0.04656 0.3056 0.0
C977 C 0.00744 0.05375 0.31537 0.0
C978 C 0.02026 0.01048 0.32196 0.0
C979 C 0.0701 0.0007 0.32019 0.0
C980 C 0.00727 0.0111 0.33645 0.0
C981 C 0.99195 0.97794 0.31435 0.0
C982 C 0.96727 -0.00051 0.30491 0.0
C983 C 0.93929 0.97651 0.29646 0.0
C984 C 0.93645 0.93017 0.29769 0.0
C985 C 0.96121 0.90742 0.30734 0.0
C986 C 0.98918 0.93172 0.31579 0.0
H987 H 0.07454 0.94688 0.67006 0.0
H988 H 0.10964 0.94771 0.71106 0.0
H989 H 0.03164 0.96371 0.71675 0.0
H990 H 0.00374 0.03779 0.6712 0.0
H991 H 0.96372 0.01665 0.6597 0.0
H992 H 0.02073 0.99874 0.65882 0.0
H993 H 0.99606 0.91632 0.66059 0.0
H994 H 0.93881 0.93394 0.66131 0.0
H995 H 0.96141 0.89921 0.674 0.0
H996 H 0.95262 0.98911 0.71786 0.0
H997 H 0.87601 0.01634 0.71437 0.0
H998 H 0.89241 -6e-05 0.67267 0.0
C999 C 0.06568 0.94964 0.68024 0.0
C1000 C 0.09819 0.94585 0.69011 0.0
C1001 C 0.08521 0.94964 0.70333 0.0
C1002 C 0.04102 0.95905 0.70666 0.0
C1003 C 0.01017 0.9642 0.69667 0.0
C1004 C 0.02174 0.95901 0.68374 0.0
C1005 C 0.98283 0.96894 0.67484 0.0
C1006 C 0.99341 0.00784 0.6656 0.0
C1007 C 0.96896 0.9271 0.66724 0.0
C1008 C 0.94799 0.98185 0.68478 0.0
C1009 C 0.96438 0.97868 0.69732 0.0
C1010 C 0.9392 0.99117 0.7081 0.0
C1011 C 0.89595 0.00698 0.70602 0.0
C1012 C 0.87839 0.01017 0.69326 0.0
C1013 C 0.9048 0.99725 0.68254 0.0
H1014 H 0.97882 0.57591 0.95201 0.0
H1015 H 0.872 0.58897 0.92385 0.0
H1016 H 0.86937 0.50733 0.9215 0.0
H1017 H 0.03571 0.49197 0.9367 0.0
H1018 H 0.05133 0.46162 0.95113 0.0
H1019 H 0.04123 0.52056 0.95205 0.0
H1020 H 0.98208 0.50812 0.97002 0.0
H1021 H 0.99252 0.44905 0.96933 0.0
H1022 H 0.93687 0.47005 0.96713 0.0
H1023 H 0.886 0.42653 0.91968 0.0
H1024 H 0.91585 0.35044 0.91996 0.0
H1025 H 0.00774 0.38823 0.95071 0.0
C1026 C 0.95384 0.56154 0.94569 0.0
C1027 C 0.92574 0.58879 0.93807 0.0
C1028 C 0.89421 0.56871 0.92967 0.0
C1029 C 0.89228 0.52239 0.92832 0.0
C1030 C 0.92161 0.49657 0.93559 0.0
C1031 C 0.95123 0.51527 0.9443 0.0
C1032 C 0.98085 0.48007 0.95035 0.0
C1033 C 0.03018 0.48911 0.94737 0.0
C1034 C 0.97257 0.47662 0.96508 0.0
C1035 C 0.96439 0.43902 0.94328 0.0
C1036 C 0.9301 0.44929 0.93487 0.0
C1037 C 0.91194 0.41773 0.92651 0.0
C1038 C 0.92908 0.37438 0.9268 0.0
C1039 C 0.96386 0.36269 0.9355 0.0
C1040 C 0.98133 0.3957 0.9439 0.0
H1041 H 0.62219 0.00991 0.04779 0.0
H1042 H 0.65697 0.94128 0.08357 0.0
H1043 H 0.58294 0.90628 0.084 0.0
H1044 H 0.51239 0.03447 0.05607 0.0
H1045 H 0.48984 0.02553 0.04002 0.0
H1046 H 0.54688 0.04224 0.04189 0.0
H1047 H 0.5724 0.97333 0.02864 0.0
H1048 H 0.51532 0.95635 0.02673 0.0
H1049 H 0.55528 0.91852 0.03371 0.0
H1050 H 0.50361 0.88483 0.08182 0.0
H1051 H 0.42344 0.87742 0.07687 0.0
H1052 H 0.4409 0.95658 0.04198 0.0
C1053 C 0.61453 0.98683 0.05556 0.0
C1054 C 0.64518 0.97855 0.06569 0.0
C1055 C 0.63368 0.94871 0.07583 0.0
C1056 C 0.59192 0.92831 0.07609 0.0
C1057 C 0.56226 0.93767 0.06606 0.0
C1058 C 0.57304 0.96598 0.05594 0.0
C1059 C 0.53413 0.97232 0.04678 0.0
C1060 C 0.51998 0.02155 0.04616 0.0
C1061 C 0.54494 0.95402 0.03316 0.0
C1062 C 0.49947 0.94411 0.05354 0.0
C1063 C 0.51652 0.9242 0.06461 0.0
C1064 C 0.49003 0.89947 0.07305 0.0
C1065 C 0.44472 0.89549 0.0702 0.0
C1066 C 0.42671 0.91589 0.05898 0.0
C1067 C 0.45445 0.93983 0.05044 0.0
H1068 H 0.5013 0.41888 0.79995 0.0
H1069 H 0.37433 0.42161 0.82007 0.0
H1070 H 0.37893 0.50326 0.82172 0.0
H1071 H 0.55325 0.5019 0.81827 0.0
H1072 H 0.58267 0.52699 0.80486 0.0
H1073 H 0.5681 0.46894 0.80424 0.0
H1074 H 0.52665 0.4816 0.78245 0.0
H1075 H 0.54135 0.53974 0.78294 0.0
H1076 H 0.48387 0.52357 0.7815 0.0
H1077 H 0.40016 0.58268 0.82317 0.0
H1078 H 0.43542 0.65698 0.82323 0.0
H1079 H 0.54677 0.60448 0.80124 0.0
C1080 C 0.47403 0.43676 0.80444 0.0
C1081 C 0.43762 0.41385 0.80998 0.0
C1082 C 0.40291 0.43841 0.81596 0.0
C1083 C 0.40503 0.4848 0.81685 0.0
C1084 C 0.4418 0.50625 0.81158 0.0
C1085 C 0.47547 0.48324 0.80535 0.0
C1086 C 0.51214 0.51447 0.80101 0.0
C1087 C 0.55666 0.50234 0.80748 0.0
C1088 C 0.51622 0.51486 0.78609 0.0
C1089 C 0.49426 0.55836 0.80607 0.0
C1090 C 0.45356 0.55276 0.81211 0.0
C1091 C 0.43165 0.58771 0.8183 0.0
C1092 C 0.45192 0.62959 0.81834 0.0
C1093 C 0.49344 0.63607 0.81218 0.0
C1094 C 0.51466 0.60021 0.80584 0.0
H1095 H 0.59424 0.46227 0.17846 0.0
H1096 H 0.63854 0.55913 0.20717 0.0
H1097 H 0.5621 0.58643 0.20939 0.0
H1098 H 0.51657 0.53952 0.16262 0.0
H1099 H 0.47707 0.49614 0.15904 0.0
H1100 H 0.53553 0.48333 0.15987 0.0
H1101 H 0.51924 0.42261 0.17715 0.0
H1102 H 0.46084 0.43557 0.17649 0.0
H1103 H 0.48988 0.43751 0.19183 0.0
H1104 H 0.48018 0.59834 0.21009 0.0
H1105 H 0.3994 0.60123 0.20714 0.0
H1106 H 0.41049 0.50653 0.17517 0.0
C1107 C 0.58831 0.48973 0.18506 0.0
C1108 C 0.6227 0.5075 0.19288 0.0
C1109 C 0.61284 0.54339 0.20143 0.0
C1110 C 0.56947 0.55965 0.20267 0.0
C1111 C 0.53644 0.54071 0.19503 0.0
C1112 C 0.54544 0.50733 0.18616 0.0
C1113 C 0.50393 0.49377 0.17885 0.0
C1114 C 0.50856 0.50381 0.16423 0.0
C1115 C 0.49283 0.44445 0.18123 0.0
C1116 C 0.47013 0.52413 0.18523 0.0
C1117 C 0.48954 0.55052 0.19463 0.0
C1118 C 0.46466 0.57881 0.20249 0.0
C1119 C 0.41862 0.58048 0.20062 0.0
C1120 C 0.39783 0.5548 0.19073 0.0
C1121 C 0.42447 0.52647 0.18291 0.0
H1122 H 0.53289 0.90398 0.4272 0.0
H1123 H 0.44671 0.85353 0.45777 0.0
H1124 H 0.41776 0.92918 0.46145 0.0
H1125 H 0.56001 0.00633 0.44205 0.0
H1126 H 0.55872 0.0382 0.42719 0.0
H1127 H 0.57208 0.9798 0.42669 0.0
H1128 H 0.50825 0.96652 0.4102 0.0
H1129 H 0.49472 0.02497 0.41062 0.0
H1130 H 0.45262 0.98415 0.41425 0.0
H1131 H 0.40162 0.01076 0.46283 0.0
H1132 H 0.39687 0.09283 0.46094 0.0
H1133 H 0.48943 0.0894 0.42859 0.0
C1134 C 0.50745 0.90863 0.43454 0.0
C1135 C 0.49258 0.87274 0.4423 0.0
C1136 C 0.45955 0.88055 0.4519 0.0
C1137 C 0.44252 0.92336 0.45399 0.0
C1138 C 0.45832 0.95798 0.44629 0.0
C1139 C 0.48969 0.95107 0.43666 0.0
C1140 C 0.50141 0.99417 0.42984 0.0
C1141 C 0.55099 0.00526 0.43155 0.0
C1142 C 0.48846 0.99233 0.41537 0.0
C1143 C 0.47221 0.02644 0.43728 0.0
C1144 C 0.44769 0.00488 0.44675 0.0
C1145 C 0.42016 0.02797 0.45533 0.0
C1146 C 0.41774 0.07442 0.45423 0.0
C1147 C 0.44235 0.097 0.44454 0.0
C1148 C 0.46961 0.07265 0.43591 0.0
H1149 H 0.08042 0.54722 0.56311 0.0
H1150 H 0.13763 0.41578 0.55822 0.0
H1151 H 0.06218 0.38266 0.55865 0.0
H1152 H 0.99351 0.51777 0.58473 0.0
H1153 H 0.95305 0.55483 0.57763 0.0
H1154 H 0.01132 0.56809 0.57672 0.0
H1155 H 0.00603 0.57369 0.55157 0.0
H1156 H 0.94761 0.56094 0.55242 0.0
H1157 H 0.9839 0.52752 0.54243 0.0
H1158 H 0.98106 0.3641 0.56126 0.0
H1159 H 0.89961 0.36143 0.56352 0.0
H1160 H 0.89558 0.50609 0.5647 0.0
C1161 C 0.07683 0.51151 0.56205 0.0
C1162 C 0.11434 0.48381 0.56066 0.0
C1163 C 0.10891 0.43731 0.55922 0.0
C1164 C 0.06637 0.41832 0.55951 0.0
C1165 C 0.02991 0.44652 0.56105 0.0
C1166 C 0.03467 0.49217 0.56207 0.0
C1167 C 0.99016 0.51514 0.5634 0.0
C1168 C 0.98683 0.54044 0.57639 0.0
C1169 C 0.98141 0.54614 0.55176 0.0
C1170 C 0.95962 0.47522 0.56319 0.0
C1171 C 0.98315 0.43595 0.56193 0.0
C1172 C 0.96217 0.39468 0.56201 0.0
C1173 C 0.91577 0.39358 0.56322 0.0
C1174 C 0.89076 0.43356 0.56415 0.0
C1175 C 0.91337 0.4748 0.56416 0.0
H1176 H 0.02842 0.62002 0.33838 0.0
H1177 H 0.88575 0.60506 0.33778 0.0
H1178 H 0.89208 0.53474 0.35002 0.0
H1179 H 0.05204 0.52269 0.32901 0.0
H1180 H 0.10104 0.5118 0.33863 0.0
H1181 H 0.0849 0.56788 0.33542 0.0
H1182 H 0.08316 0.58387 0.36021 0.0
H1183 H 0.09896 0.52697 0.36346 0.0
H1184 H 0.0495 0.54988 0.37078 0.0
H1185 H 0.91318 0.45852 0.35488 0.0
H1186 H 0.94599 0.38557 0.3496 0.0
H1187 H 0.07602 0.44559 0.34749 0.0
C1188 C -0.0013 0.60298 0.34162 0.0
C1189 C 0.9567 0.61782 0.33752 0.0
C1190 C 0.91814 0.59424 0.34116 0.0
C1191 C 0.92152 0.55443 0.34818 0.0
C1192 C 0.96375 0.53859 0.35143 0.0
C1193 C 0.00183 0.56257 0.3484 0.0
C1194 C 0.04309 0.53415 0.35 0.0
C1195 C 0.07181 0.53409 0.33752 0.0
C1196 C 0.07027 0.54964 0.36182 0.0
C1197 C 0.022 0.4892 0.35261 0.0
C1198 C 0.97638 0.49285 0.35419 0.0
C1199 C 0.94893 0.45526 0.35416 0.0
C1200 C 0.96782 0.41366 0.35128 0.0
C1201 C 0.01345 0.41045 0.34831 0.0
C1202 C 0.0412 0.44767 0.35011 0.0
H1203 H 0.3768 0.08327 0.66979 0.0
H1204 H 0.38496 0.96276 0.64713 0.0
H1205 H 0.46063 0.98279 0.64008 0.0
H1206 H 0.4669 0.15328 0.64914 0.0
H1207 H 0.48619 0.17664 0.66428 0.0
H1208 H 0.42772 0.16615 0.66188 0.0
H1209 H 0.42689 0.11944 0.68301 0.0
H1210 H 0.48489 0.12856 0.68534 0.0
H1211 H 0.46395 0.07239 0.68448 0.0
H1212 H 0.5399 0.99825 0.64281 0.0
H1213 H 0.61136 0.00874 0.65429 0.0
H1214 H 0.55453 0.11847 0.67591 0.0
C1215 C 0.39353 0.06337 0.66248 0.0
C1216 C 0.37531 0.02241 0.65867 0.0
C1217 C 0.39818 0.99512 0.64973 0.0
C1218 C 0.44135 0.00625 0.64576 0.0
C1219 C 0.46079 0.04478 0.65082 0.0
C1220 C 0.43697 0.07381 0.65873 0.0
C1221 C 0.46748 0.10642 0.66554 0.0
C1222 C 0.46174 0.1534 0.65987 0.0
C1223 C 0.46039 0.10656 0.68045 0.0
C1224 C 0.51212 0.08714 0.66179 0.0
C1225 C 0.50788 0.05325 0.65273 0.0
C1226 C 0.54384 0.02579 0.6495 0.0
C1227 C 0.58431 0.03178 0.65609 0.0
C1228 C 0.58788 0.06427 0.66595 0.0
C1229 C 0.55226 0.0936 0.66831 0.0
H1230 H 0.09903 0.04866 0.91752 0.0
H1231 H 0.9767 0.0989 0.90102 0.0
H1232 H 0.96309 0.02599 0.89073 0.0
H1233 H 0.12081 0.95644 0.89017 0.0
H1234 H 0.14206 0.92015 0.90268 0.0
H1235 H 0.1524 0.97924 0.9035 0.0
H1236 H 0.11848 0.98134 0.92667 0.0
H1237 H 0.10835 0.92299 0.92591 0.0
H1238 H 0.06285 0.96057 0.92917 0.0
H1239 H 0.94843 0.94627 0.88991 0.0
H1240 H 0.9345 0.87175 0.89907 0.0
H1241 H 0.06638 0.86983 0.91548 0.0
C1242 C 0.07062 0.04466 0.91117 0.0
C1243 C 0.03875 0.07876 0.9101 0.0
C1244 C 0.00166 0.07303 0.90186 0.0
C1245 C 0.99385 0.03169 0.89593 0.0
C1246 C 0.02401 0.99701 0.89811 0.0
C1247 C 0.06251 0.00356 0.90528 0.0
C1248 C 0.08461 0.95983 0.9087 0.0
C1249 C 0.1275 0.95355 0.90078 0.0
C1250 C 0.09396 0.956 0.92347 0.0
C1251 C 0.0491 0.92772 0.9042 0.0
C1252 C 0.01561 0.94945 0.8974 0.0
C1253 C 0.97519 0.92849 0.89466 0.0
C1254 C 0.9675 0.88597 0.89982 0.0
C1255 C 4e-05 0.86533 0.90764 0.0
C1256 C 0.0421 0.88488 0.90905 0.0
H1257 H 0.91511 0.95871 0.08058 0.0
H1258 H 0.95235 0.08554 0.09703 0.0
H1259 H 0.02887 0.05786 0.10047 0.0
H1260 H 0.00443 0.8832 0.09703 0.0
H1261 H 0.01195 0.85439 0.08178 0.0
H1262 H 0.95772 0.87494 0.0863 0.0
H1263 H 0.95355 0.91783 0.06449 0.0
H1264 H 0.00785 0.89883 0.06002 0.0
H1265 H 0.99627 0.95771 0.06058 0.0
H1266 H 0.10301 0.02519 0.0968 0.0
H1267 H 0.16764 0.99473 0.08493 0.0
H1268 H 0.08344 0.89414 0.06752 0.0
C1269 C 0.93879 0.97924 0.08576 0.0
C1270 C 0.92801 0.02334 0.08907 0.0
C1271 C 0.96003 0.05101 0.09495 0.0
C1272 C 0.0035 0.03547 0.09689 0.0
C1273 C 0.01434 0.99274 0.09252 0.0
C1274 C 0.98268 0.96493 0.08704 0.0
C1275 C 0.00402 0.92647 0.07982 0.0
C1276 C 0.99394 0.88212 0.08665 0.0
C1277 C 0.98959 0.92523 0.06539 0.0
C1278 C 0.05246 0.93874 0.08124 0.0
C1279 C 0.05787 0.97567 0.08914 0.0
C1280 C 0.09928 0.99567 0.09086 0.0
C1281 C 0.13575 0.97829 0.08405 0.0
C1282 C 0.13009 0.9423 0.07534 0.0
C1283 C 0.08835 0.92157 0.07421 0.0
H1284 H 0.38757 0.07556 0.82845 0.0
H1285 H 0.49614 0.15478 0.84337 0.0
H1286 H 0.52937 0.08773 0.85322 0.0
H1287 H 0.39146 0.98516 0.85675 0.0
H1288 H 0.37731 0.94297 0.84498 0.0
H1289 H 0.35396 0.99813 0.84359 0.0
H1290 H 0.38382 0.00336 0.81999 0.0
H1291 H 0.40736 0.94894 0.82131 0.0
H1292 H 0.44242 0.99533 0.81703 0.0
H1293 H 0.56369 0.01413 0.85309 0.0
H1294 H 0.59089 0.94102 0.84543 0.0
H1295 H 0.45812 0.90599 0.83326 0.0
C1296 C 0.41702 0.07883 0.83444 0.0
C1297 C 0.43948 0.11978 0.83521 0.0
C1298 C 0.47827 0.12354 0.84286 0.0
C1299 C 0.4973 0.08558 0.84849 0.0
C1300 C 0.47622 0.04463 0.84672 0.0
C1301 C 0.43587 0.04128 0.84028 0.0
C1302 C 0.42371 0.99318 0.83773 0.0
C1303 C 0.38428 0.97903 0.84628 0.0
C1304 C 0.41385 0.98478 0.82316 0.0
C1305 C 0.46607 0.97049 0.84209 0.0
C1306 C 0.49555 0.00053 0.84761 0.0
C1307 C 0.54029 0.9897 0.84949 0.0
C1308 C 0.5556 0.94824 0.84511 0.0
C1309 C 0.52596 0.91798 0.83925 0.0
C1310 C 0.48051 0.92818 0.83836 0.0
H1311 H 0.94486 0.39241 0.17273 0.0
H1312 H 0.87395 0.50133 0.15471 0.0
H1313 H 0.94338 0.52693 0.14446 0.0
H1314 H 0.02463 0.44435 0.1839 0.0
H1315 H 0.07029 0.40666 0.181 0.0
H1316 H 0.015 0.38546 0.18183 0.0
H1317 H 0.02324 0.35052 0.15893 0.0
H1318 H 0.07942 0.37131 0.15806 0.0
H1319 H 0.04021 0.3846 0.14537 0.0
H1320 H 0.01804 0.55735 0.14469 0.0
H1321 H 0.08973 0.58426 0.15329 0.0
H1322 H 0.11667 0.45441 0.16944 0.0
C1323 C 0.94387 0.41999 0.16595 0.0
C1324 C 0.90467 0.44506 0.16446 0.0
C1325 C 0.90378 0.48143 0.15579 0.0
C1326 C 0.94319 0.49615 0.14993 0.0
C1327 C 0.98264 0.47329 0.1526 0.0
C1328 C 0.98298 0.43474 0.16002 0.0
C1329 C 0.02993 0.42123 0.16362 0.0
C1330 C 0.0352 0.41413 0.17845 0.0
C1331 C 0.04403 0.37944 0.15604 0.0
C1332 C 0.05514 0.46164 0.15888 0.0
C1333 C 0.02763 0.4905 0.15206 0.0
C1334 C 0.04055 0.53421 0.14936 0.0
C1335 C 0.08122 0.54938 0.15429 0.0
C1336 C 0.10863 0.52064 0.16159 0.0
C1337 C 0.09669 0.47588 0.16331 0.0
H1338 H 0.46517 0.59808 0.41443 0.0
H1339 H 0.60294 0.57631 0.40468 0.0
H1340 H 0.58529 0.5005 0.39709 0.0
H1341 H 0.45499 0.51185 0.4309 0.0
H1342 H 0.39876 0.49564 0.42709 0.0
H1343 H 0.41519 0.55231 0.42515 0.0
H1344 H 0.39102 0.55074 0.40098 0.0
H1345 H 0.3738 0.49358 0.40287 0.0
H1346 H 0.41261 0.50846 0.39023 0.0
H1347 H 0.56036 0.42339 0.39805 0.0
H1348 H 0.5332 0.35498 0.40877 0.0
H1349 H 0.41259 0.4233 0.41987 0.0
C1350 C 0.4906 0.57818 0.40973 0.0
C1351 C 0.53487 0.5929 0.40965 0.0
C1352 C 0.56853 0.5657 0.40435 0.0
C1353 C 0.55866 0.52257 0.40003 0.0
C1354 C 0.51512 0.50704 0.40133 0.0
C1355 C 0.48132 0.5344 0.40595 0.0
C1356 C 0.44098 0.50749 0.40991 0.0
C1357 C 0.42679 0.51738 0.42409 0.0
C1358 C 0.40232 0.51554 0.40043 0.0
C1359 C 0.45927 0.46083 0.40838 0.0
C1360 C 0.50097 0.46106 0.40265 0.0
C1361 C 0.52717 0.42258 0.4021 0.0
C1362 C 0.51158 0.38379 0.40819 0.0
C1363 C 0.4708 0.38441 0.41494 0.0
C1364 C 0.44347 0.42239 0.41445 0.0
H1365 H 0.37906 0.47148 0.58868 0.0
H1366 H 0.40465 0.60951 0.59746 0.0
H1367 H 0.48102 0.59051 0.60421 0.0
H1368 H 0.47037 0.41643 0.6112 0.0
H1369 H 0.48268 0.37798 0.59821 0.0
H1370 H 0.42632 0.39657 0.60082 0.0
H1371 H 0.42258 0.42188 0.57679 0.0
H1372 H 0.47878 0.40496 0.57411 0.0
H1373 H 0.46257 0.46167 0.57084 0.0
H1374 H 0.55788 0.56285 0.60296 0.0
H1375 H 0.62575 0.53159 0.59284 0.0
H1376 H 0.55245 0.41376 0.58173 0.0
C1377 C 0.3999 0.49679 0.59305 0.0
C1378 C 0.38604 0.54145 0.59306 0.0
C1379 C 0.41452 0.57483 0.59789 0.0
C1380 C 0.45805 0.56421 0.60168 0.0
C1381 C 0.47262 0.52027 0.60025 0.0
C1382 C 0.44406 0.48685 0.59611 0.0
C1383 C 0.46952 0.44603 0.59167 0.0
C1384 C 0.46177 0.40694 0.60104 0.0
C1385 C 0.45768 0.43299 0.57753 0.0
C1386 C 0.5166 0.46314 0.59275 0.0
C1387 C 0.51798 0.50499 0.59838 0.0
C1388 C 0.55735 0.5296 0.59891 0.0
C1389 C 0.59572 0.51174 0.59312 0.0
C1390 C 0.5938 0.47046 0.58658 0.0
C1391 C 0.5544 0.44528 0.58683 0.0
H1392 H 0.34022 0.31469 0.40011 0.0
H1393 H 0.23198 0.31293 0.42798 0.0
H1394 H 0.17773 0.3118 0.40991 0.0
H1395 H 0.28788 0.38756 0.37742 0.0
H1396 H 0.30971 0.3601 0.36317 0.0
H1397 H 0.34016 0.35828 0.37826 0.0
H1398 H 0.34079 0.27208 0.37737 0.0
H1399 H 0.31042 0.27362 0.36226 0.0
H1400 H 0.28899 0.2424 0.37586 0.0
H1401 H 0.13562 0.31248 0.38906 0.0
H1402 H 0.10737 0.31734 0.36666 0.0
H1403 H 0.24261 0.31937 0.35192 0.0
C1404 C 0.30512 0.31332 0.40238 0.0
C1405 C 0.29015 0.31353 0.41544 0.0
C1406 C 0.24397 0.31291 0.41804 0.0
C1407 C 0.21302 0.31207 0.40785 0.0
C1408 C 0.22883 0.31215 0.3951 0.0
C1409 C 0.27374 0.31292 0.3923 0.0
C1410 C 0.28171 0.31479 0.37772 0.0
C1411 C 0.30631 0.35774 0.37392 0.0
C1412 C 0.30697 0.27324 0.37303 0.0
C1413 C 0.23422 0.31507 0.37277 0.0
C1414 C 0.20436 0.31319 0.38299 0.0
C1415 C 0.15865 0.31354 0.38096 0.0
C1416 C 0.14293 0.31593 0.36816 0.0
C1417 C 0.17277 0.31803 0.35748 0.0
C1418 C 0.21906 0.31769 0.35988 0.0
H1419 H 0.33355 0.77871 0.64965 0.0
H1420 H 0.28209 0.90531 0.63581 0.0
H1421 H 0.27196 0.87327 0.614 0.0
H1422 H 0.3945 0.75086 0.62006 0.0
H1423 H 0.38189 0.69232 0.62114 0.0
H1424 H 0.38598 0.72532 0.63575 0.0
H1425 H 0.30669 0.70083 0.64253 0.0
H1426 H 0.3025 0.66761 0.62799 0.0
H1427 H 0.26105 0.70939 0.63143 0.0
H1428 H 0.26451 0.82694 0.59385 0.0
H1429 H 0.26018 0.7688 0.57682 0.0
H1430 H 0.31886 0.67337 0.60343 0.0
C1431 C 0.32059 0.79988 0.64202 0.0
C1432 C 0.30831 0.84452 0.64457 0.0
C1433 C 0.29095 0.87082 0.63428 0.0
C1434 C 0.28547 0.85304 0.62177 0.0
C1435 C 0.2978 0.80899 0.61963 0.0
C1436 C 0.31511 0.78274 0.62945 0.0
C1437 C 0.32481 0.73606 0.62461 0.0
C1438 C 0.37477 0.72554 0.62544 0.0
C1439 C 0.2971 0.70144 0.63208 0.0
C1440 C 0.30971 0.7401 0.61059 0.0
C1441 C 0.29435 0.78248 0.60791 0.0
C1442 C 0.2768 0.79373 0.59579 0.0
C1443 C 0.27437 0.76057 0.5862 0.0
C1444 C 0.28955 0.71683 0.58877 0.0
C1445 C 0.30795 0.70677 0.60109 0.0
H1446 H 0.79356 0.64857 0.34711 0.0
H1447 H 0.79648 0.79011 0.33943 0.0
H1448 H 0.75536 0.80424 0.36003 0.0
H1449 H 0.68526 0.64292 0.36234 0.0
H1450 H 0.70251 0.60265 0.37433 0.0
H1451 H 0.72931 0.60414 0.35865 0.0
H1452 H 0.8059 0.61313 0.36991 0.0
H1453 H 0.77935 0.61177 0.38562 0.0
H1454 H 0.81425 0.65817 0.38125 0.0
H1455 H 0.71185 0.80173 0.38124 0.0
H1456 H 0.6761 0.7836 0.40242 0.0
H1457 H 0.70831 0.64443 0.39687 0.0
C1458 C 0.78485 0.68239 0.34974 0.0
C1459 C 0.79708 0.71835 0.34171 0.0
C1460 C 0.78669 0.76237 0.34551 0.0
C1461 C 0.76342 0.77054 0.35713 0.0
C1462 C 0.75176 0.73426 0.36489 0.0
C1463 C 0.76265 0.6911 0.36142 0.0
C1464 C 0.74885 0.65818 0.37179 0.0
C1465 C 0.71443 0.62503 0.36645 0.0
C1466 C 0.78951 0.6339 0.37748 0.0
C1467 C 0.72825 0.68946 0.38163 0.0
C1468 C 0.7296 0.73315 0.37741 0.0
C1469 C 0.71103 0.76771 0.3847 0.0
C1470 C 0.69083 0.75725 0.39664 0.0
C1471 C 0.69032 0.7129 0.40123 0.0
C1472 C 0.70921 0.6787 0.39362 0.0
H1473 H 0.6884 0.15987 0.64806 0.0
H1474 H 0.73682 0.26767 0.6723 0.0
H1475 H 0.74241 0.31597 0.65289 0.0
H1476 H 0.757 0.18473 0.61925 0.0
H1477 H 0.7132 0.17031 0.60805 0.0
H1478 H 0.7165 0.14319 0.62367 0.0
H1479 H 0.63557 0.16728 0.62869 0.0
H1480 H 0.63207 0.19471 0.61315 0.0
H1481 H 0.62084 0.22542 0.62787 0.0
H1482 H 0.73792 0.35361 0.63136 0.0
H1483 H 0.72393 0.37912 0.60914 0.0
H1484 H 0.6797 0.2463 0.59841 0.0
C1485 C 0.70123 0.19327 0.64924 0.0
C1486 C 0.71252 0.21001 0.66169 0.0
C1487 C 0.72788 0.25433 0.66287 0.0
C1488 C 0.73136 0.28187 0.6519 0.0
C1489 C 0.71934 0.26453 0.63982 0.0
C1490 C 0.7047 0.22125 0.6384 0.0
C1491 C 0.69153 0.21167 0.62442 0.0
C1492 C 0.72135 0.17532 0.6185 0.0
C1493 C 0.64207 0.19904 0.62349 0.0
C1494 C 0.70041 0.25661 0.61825 0.0
C1495 C 0.71672 0.28641 0.62731 0.0
C1496 C 0.72581 0.33041 0.62412 0.0
C1497 C 0.71793 0.3445 0.61134 0.0
C1498 C 0.70109 0.31472 0.60179 0.0
C1499 C 0.69252 0.27004 0.60538 0.0
H1500 H 0.22553 0.19198 0.90239 0.0
H1501 H 0.10125 0.25771 0.89259 0.0
H1502 H 0.12788 0.2685 0.87014 0.0
H1503 H 0.29672 0.26399 0.88229 0.0
H1504 H 0.33309 0.21869 0.87787 0.0
H1505 H 0.30501 0.21819 0.89337 0.0
H1506 H 0.27152 0.14098 0.88789 0.0
H1507 H 0.29913 0.1414 0.87234 0.0
H1508 H 0.23971 0.13417 0.87315 0.0
H1509 H 0.16539 0.26628 0.84824 0.0
H1510 H 0.21388 0.25645 0.82895 0.0
H1511 H 0.3148 0.19595 0.85331 0.0
C1512 C 0.20413 0.20954 0.89567 0.0
C1513 C 0.16095 0.22357 0.89934 0.0
C1514 C 0.13407 0.24583 0.89004 0.0
C1515 C 0.14902 0.25241 0.87725 0.0
C1516 C 0.19123 0.23713 0.87391 0.0
C1517 C 0.21867 0.21675 0.88289 0.0
C1518 C 0.26223 0.20254 0.87674 0.0
C1519 C 0.30159 0.22734 0.88293 0.0
C1520 C 0.26848 0.15176 0.87758 0.0
C1521 C 0.25464 0.21743 0.86283 0.0
C1522 C 0.21343 0.2372 0.86139 0.0
C1523 C 0.19799 0.25142 0.84928 0.0
C1524 C 0.22553 0.24548 0.83839 0.0
C1525 C 0.2681 0.22588 0.83969 0.0
C1526 C 0.28277 0.21187 0.8521 0.0
H1527 H 0.18831 0.74016 0.14652 0.0
H1528 H 0.268 0.62069 0.14108 0.0
H1529 H 0.28334 0.64325 0.11855 0.0
H1530 H 0.13954 0.7428 0.11561 0.0
H1531 H 0.14195 0.80247 0.11388 0.0
H1532 H 0.13851 0.77798 0.12983 0.0
H1533 H 0.21019 0.81948 0.13677 0.0
H1534 H 0.21371 0.84437 0.12084 0.0
H1535 H 0.26006 0.81313 0.1272 0.0
H1536 H 0.28502 0.67569 0.09595 0.0
H1537 H 0.27744 0.71915 0.07555 0.0
H1538 H 0.20109 0.81913 0.09621 0.0
C1539 C 0.20963 0.71889 0.14078 0.0
C1540 C 0.2263 0.67815 0.14573 0.0
C1541 C 0.25381 0.65153 0.1376 0.0
C1542 C 0.26308 0.66421 0.12475 0.0
C1543 C 0.24529 0.704 0.12016 0.0
C1544 C 0.21968 0.73127 0.12798 0.0
C1545 C 0.20408 0.77212 0.12064 0.0
C1546 C 0.153 0.77391 0.11995 0.0
C1547 C 0.22316 0.8148 0.12673 0.0
C1548 C 0.22426 0.76312 0.1074 0.0
C1549 C 0.24779 0.72357 0.1073 0.0
C1550 C 0.26724 0.70703 0.09596 0.0
C1551 C 0.2626 0.73169 0.08443 0.0
C1552 C 0.23914 0.77255 0.0844 0.0
C1553 C 0.21999 0.78844 0.09606 0.0
H1554 H 0.8153 0.87392 0.90125 0.0
H1555 H 0.78967 0.74139 0.91591 0.0
H1556 H 0.73818 0.72742 0.89746 0.0
H1557 H 0.7044 0.89721 0.88792 0.0
H1558 H 0.72646 0.92526 0.87382 0.0
H1559 H 0.75671 0.92622 0.88896 0.0
H1560 H 0.82593 0.89381 0.87725 0.0
H1561 H 0.79585 0.89247 0.86211 0.0
H1562 H 0.82102 0.84232 0.86834 0.0
H1563 H 0.69109 0.72787 0.87703 0.0
H1564 H 0.65664 0.74048 0.85538 0.0
H1565 H 0.71811 0.87063 0.85349 0.0
C1566 C 0.79784 0.84247 0.9007 0.0
C1567 C 0.80534 0.80895 0.91005 0.0
C1568 C 0.78357 0.76747 0.90885 0.0
C1569 C 0.75438 0.75938 0.89846 0.0
C1570 C 0.74804 0.79299 0.88928 0.0
C1571 C 0.76945 0.8336 0.89025 0.0
C1572 C 0.76016 0.86265 0.87854 0.0
C1573 C 0.73545 0.90536 0.88255 0.0
C1574 C 0.8033 0.87342 0.87112 0.0
C1575 C 0.73047 0.83198 0.87076 0.0
C1576 C 0.72321 0.79225 0.87719 0.0
C1577 C 0.69659 0.75884 0.87189 0.0
C1578 C 0.67716 0.76621 0.85965 0.0
C1579 C 0.68522 0.80621 0.85279 0.0
C1580 C 0.71203 0.83948 0.85847 0.0
H1581 H 0.82832 0.24329 0.10215 0.0
H1582 H 0.76537 0.118 0.11239 0.0
H1583 H 0.75395 0.1452 0.13474 0.0
H1584 H 0.88488 0.26032 0.13188 0.0
H1585 H 0.87604 0.31967 0.13226 0.0
H1586 H 0.87841 0.29089 0.11689 0.0
H1587 H 0.80095 0.32237 0.11074 0.0
H1588 H 0.79842 0.35139 0.12608 0.0
H1589 H 0.75455 0.31359 0.12156 0.0
H1590 H 0.75418 0.18382 0.15644 0.0
H1591 H 0.76167 0.2339 0.17555 0.0
H1592 H 0.81945 0.33528 0.15085 0.0
C1593 C 0.81152 0.22171 0.10899 0.0
C1594 C 0.79832 0.17816 0.10545 0.0
C1595 C 0.77681 0.15106 0.11486 0.0
C1596 C 0.76981 0.16634 0.12758 0.0
C1597 C 0.78391 0.20906 0.13077 0.0
C1598 C 0.80386 0.23658 0.12172 0.0
C1599 C 0.81633 0.28093 0.1277 0.0
C1600 C 0.86691 0.28837 0.12715 0.0
C1601 C 0.79104 0.31934 0.12113 0.0
C1602 C 0.80061 0.27383 0.14155 0.0
C1603 C 0.78225 0.23204 0.14315 0.0
C1604 C 0.76784 0.21689 0.15528 0.0
C1605 C 0.77227 0.24531 0.16604 0.0
C1606 C 0.79032 0.28842 0.16455 0.0
C1607 C 0.80445 0.30283 0.15214 0.0
loop_
_geom_bond_atom_site_label_1
_geom_bond_atom_site_label_2
_geom_bond_distance
_geom_bond_site_symmetry_2
_ccdc_geom_bond_type
Co0 N4 2.148 . S
Co0 N10 2.128 1_455 S
Co0 N20 2.194 . S
Co0 O25 2.351 1_455 S
Co0 O26 2.155 . S
Co0 O27 2.096 . S
C1 N4 1.301 . S
C1 N5 1.328 . S
C1 H6 0.930 . S
C2 C3 1.333 . S
C2 N4 1.317 . S
C2 H7 0.930 . S
C3 C2 1.333 . S
C3 N5 1.350 . S
C3 H29 0.931 . S
N4 Co0 2.148 . S
N4 C1 1.301 . S
N4 C2 1.317 . S
N5 C1 1.328 . S
N5 C3 1.350 . S
H6 C1 0.930 . S
H7 C2 0.930 . S
C8 O9 1.224 . S
C8 O27 1.247 . S
O9 C8 1.224 . S
N10 Co0 2.128 1_655 S
N10 C11 1.355 . S
N10 C13 1.311 . S
C11 N10 1.355 . S
C11 C12 1.363 . S
C11 H23 0.929 . S
C12 C11 1.363 . S
C12 N14 1.375 . S
C12 H30 0.931 . S
C13 N10 1.311 . S
C13 N14 1.347 . S
C13 H24 0.929 . S
N14 C12 1.375 . S
N14 C13 1.347 . S
C15 C18 1.365 . S
C15 N20 1.328 1_655 S
C15 H21 0.929 . S
C16 C17 1.362 1_455 S
C16 C19 1.378 . S
C16 H31 0.929 . S
C17 C16 1.362 1_655 S
C17 C18 1.366 . S
C18 C15 1.365 . S
C18 C17 1.366 . S
C18 H32 0.930 . S
C19 C16 1.378 . S
C19 N20 1.315 . S
C19 H22 0.930 . S
N20 Co0 2.194 . S
N20 C15 1.328 1_455 S
N20 C19 1.315 . S
H21 C15 0.929 . S
H22 C19 0.930 . S
H23 C11 0.929 . S
H24 C13 0.929 . S
O25 Co0 2.351 1_655 S
O25 C28 1.244 . S
O26 Co0 2.155 . S
O26 C28 1.240 1_455 S
O27 Co0 2.096 . S
O27 C8 1.247 . S
C28 O25 1.244 . S
C28 O26 1.240 1_655 S
H29 C3 0.931 . S
H30 C12 0.931 . S
H31 C16 0.929 . S
H32 C18 0.930 . S
Co33 N37 2.148 . S
Co33 N43 2.128 1_565 S
Co33 N53 2.194 . S
Co33 O58 2.351 1_565 S
Co33 O59 2.155 . S
Co33 O60 2.096 . S
C34 N37 1.301 . S
C34 N38 1.328 . S
C34 H39 0.930 . S
C35 C36 1.333 . S
C35 N37 1.317 . S
C35 H40 0.930 . S
C36 C35 1.333 . S
C36 N38 1.350 . S
C36 H62 0.931 . S
N37 Co33 2.148 . S
N37 C34 1.301 . S
N37 C35 1.317 . S
N38 C34 1.328 . S
N38 C36 1.350 . S
H39 C34 0.930 . S
H40 C35 0.930 . S
C41 O42 1.224 . S
C41 O60 1.247 . S
O42 C41 1.224 . S
N43 Co33 2.128 1_545 S
N43 C44 1.355 . S
N43 C46 1.311 . S
C44 N43 1.355 . S
C44 C45 1.363 . S
C44 H56 0.929 . S
C45 C44 1.363 . S
C45 N47 1.375 . S
C45 H63 0.931 . S
C46 N43 1.311 . S
C46 N47 1.347 . S
C46 H57 0.929 . S
N47 C45 1.375 . S
N47 C46 1.347 . S
C48 C51 1.365 . S
C48 N53 1.328 1_545 S
C48 H54 0.929 . S
C49 C50 1.362 1_565 S
C49 C52 1.378 . S
C49 H64 0.929 . S
C50 C49 1.362 1_545 S
C50 C51 1.366 . S
C51 C48 1.365 . S
C51 C50 1.366 . S
C51 H65 0.930 . S
C52 C49 1.378 . S
C52 N53 1.315 . S
C52 H55 0.930 . S
N53 Co33 2.194 . S
N53 C48 1.328 1_565 S
N53 C52 1.315 . S
H54 C48 0.929 . S
H55 C52 0.930 . S
H56 C44 0.929 . S
H57 C46 0.929 . S
O58 Co33 2.351 1_545 S
O58 C61 1.244 . S
O59 Co33 2.155 . S
O59 C61 1.240 1_565 S
O60 Co33 2.096 . S
O60 C41 1.247 . S
C61 O58 1.244 . S
C61 O59 1.240 1_545 S
H62 C36 0.931 . S
H63 C45 0.931 . S
H64 C49 0.929 . S
H65 C51 0.930 . S
Co66 N70 2.148 . S
Co66 N76 2.128 1_655 S
Co66 N86 2.194 . S
Co66 O91 2.351 1_655 S
Co66 O92 2.155 . S
Co66 O93 2.096 . S
C67 N70 1.301 . S
C67 N71 1.328 . S
C67 H72 0.930 . S
C68 C69 1.333 . S
C68 N70 1.317 . S
C68 H73 0.930 . S
C69 C68 1.333 . S
C69 N71 1.350 . S
C69 H95 0.931 . S
N70 Co66 2.148 . S
N70 C67 1.301 . S
N70 C68 1.317 . S
N71 C67 1.328 . S
N71 C69 1.350 . S
H72 C67 0.930 . S
H73 C68 0.930 . S
C74 O75 1.224 . S
C74 O93 1.247 . S
O75 C74 1.224 . S
N76 Co66 2.128 1_455 S
N76 C77 1.355 . S
N76 C79 1.311 . S
C77 N76 1.355 . S
C77 C78 1.363 . S
C77 H89 0.929 . S
C78 C77 1.363 . S
C78 N80 1.375 . S
C78 H96 0.931 . S
C79 N76 1.311 . S
C79 N80 1.347 . S
C79 H90 0.929 . S
N80 C78 1.375 . S
N80 C79 1.347 . S
C81 C84 1.365 . S
C81 N86 1.328 1_455 S
C81 H87 0.929 . S
C82 C83 1.362 1_655 S
C82 C85 1.378 . S
C82 H97 0.929 . S
C83 C82 1.362 1_455 S
C83 C84 1.366 . S
C84 C81 1.365 . S
C84 C83 1.366 . S
C84 H98 0.930 . S
C85 C82 1.378 . S
C85 N86 1.315 . S
C85 H88 0.930 . S
N86 Co66 2.194 . S
N86 C81 1.328 1_655 S
N86 C85 1.315 . S
H87 C81 0.929 . S
H88 C85 0.930 . S
H89 C77 0.929 . S
H90 C79 0.929 . S
O91 Co66 2.351 1_455 S
O91 C94 1.244 . S
O92 Co66 2.155 . S
O92 C94 1.240 1_655 S
O93 Co66 2.096 . S
O93 C74 1.247 . S
C94 O91 1.244 . S
C94 O92 1.240 1_455 S
H95 C69 0.931 . S
H96 C78 0.931 . S
H97 C82 0.929 . S
H98 C84 0.930 . S
Co99 N103 2.148 . S
Co99 N109 2.128 1_545 S
Co99 N119 2.194 . S
Co99 O124 2.351 1_545 S
Co99 O125 2.155 . S
Co99 O126 2.096 . S
C100 N103 1.301 . S
C100 N104 1.328 . S
C100 H105 0.930 . S
C101 C102 1.333 . S
C101 N103 1.317 . S
C101 H106 0.930 . S
C102 C101 1.333 . S
C102 N104 1.350 . S
C102 H128 0.931 . S
N103 Co99 2.148 . S
N103 C100 1.301 . S
N103 C101 1.317 . S
N104 C100 1.328 . S
N104 C102 1.350 . S
H105 C100 0.930 . S
H106 C101 0.930 . S
C107 O108 1.224 . S
C107 O126 1.247 . S
O108 C107 1.224 . S
N109 Co99 2.128 1_565 S
N109 C110 1.355 . S
N109 C112 1.311 . S
C110 N109 1.355 . S
C110 C111 1.363 . S
C110 H122 0.929 . S
C111 C110 1.363 . S
C111 N113 1.375 . S
C111 H129 0.931 . S
C112 N109 1.311 . S
C112 N113 1.347 . S
C112 H123 0.929 . S
N113 C111 1.375 . S
N113 C112 1.347 . S
C114 C117 1.365 . S
C114 N119 1.328 1_565 S
C114 H120 0.929 . S
C115 C116 1.362 1_545 S
C115 C118 1.378 . S
C115 H130 0.929 . S
C116 C115 1.362 1_565 S
C116 C117 1.366 . S
C117 C114 1.365 . S
C117 C116 1.366 . S
C117 H131 0.930 . S
C118 C115 1.378 . S
C118 N119 1.315 . S
C118 H121 0.930 . S
N119 Co99 2.194 . S
N119 C114 1.328 1_545 S
N119 C118 1.315 . S
H120 C114 0.929 . S
H121 C118 0.930 . S
H122 C110 0.929 . S
H123 C112 0.929 . S
O124 Co99 2.351 1_565 S
O124 C127 1.244 . S
O125 Co99 2.155 . S
O125 C127 1.240 1_545 S
O126 Co99 2.096 . S
O126 C107 1.247 . S
C127 O124 1.244 . S
C127 O125 1.240 1_565 S
H128 C102 0.931 . S
H129 C111 0.931 . S
H130 C115 0.929 . S
H131 C117 0.930 . S
Co132 N136 2.148 . S
Co132 N142 2.128 1_455 S
Co132 N152 2.194 . S
Co132 O157 2.351 1_455 S
Co132 O158 2.155 . S
Co132 O159 2.096 . S
C133 N136 1.301 . S
C133 N137 1.328 . S
C133 H138 0.930 . S
C134 C135 1.333 . S
C134 N136 1.317 . S
C134 H139 0.930 . S
C135 C134 1.333 . S
C135 N137 1.350 . S
C135 H161 0.931 . S
N136 Co132 2.148 . S
N136 C133 1.301 . S
N136 C134 1.317 . S
N137 C133 1.328 . S
N137 C135 1.350 . S
H138 C133 0.930 . S
H139 C134 0.930 . S
C140 O141 1.224 . S
C140 O159 1.247 . S
O141 C140 1.224 . S
N142 Co132 2.128 1_655 S
N142 C143 1.355 . S
N142 C145 1.311 . S
C143 N142 1.355 . S
C143 C144 1.363 . S
C143 H155 0.929 . S
C144 C143 1.363 . S
C144 N146 1.375 . S
C144 H162 0.931 . S
C145 N142 1.311 . S
C145 N146 1.347 . S
C145 H156 0.929 . S
N146 C144 1.375 . S
N146 C145 1.347 . S
C147 C150 1.365 . S
C147 N152 1.328 1_655 S
C147 H153 0.929 . S
C148 C149 1.362 1_455 S
C148 C151 1.378 . S
C148 H163 0.929 . S
C149 C148 1.362 1_655 S
C149 C150 1.366 . S
C150 C147 1.365 . S
C150 C149 1.366 . S
C150 H164 0.930 . S
C151 C148 1.378 . S
C151 N152 1.315 . S
C151 H154 0.930 . S
N152 Co132 2.194 . S
N152 C147 1.328 1_455 S
N152 C151 1.315 . S
H153 C147 0.929 . S
H154 C151 0.930 . S
H155 C143 0.929 . S
H156 C145 0.929 . S
O157 Co132 2.351 1_655 S
O157 C160 1.244 . S
O158 Co132 2.155 . S
O158 C160 1.240 1_455 S
O159 Co132 2.096 . S
O159 C140 1.247 . S
C160 O157 1.244 . S
C160 O158 1.240 1_655 S
H161 C135 0.931 . S
H162 C144 0.931 . S
H163 C148 0.929 . S
H164 C150 0.930 . S
Co165 N169 2.148 . S
Co165 N175 2.128 1_565 S
Co165 N185 2.194 . S
Co165 O190 2.351 1_565 S
Co165 O191 2.155 . S
Co165 O192 2.096 . S
C166 N169 1.301 . S
C166 N170 1.328 . S
C166 H171 0.930 . S
C167 C168 1.333 . S
C167 N169 1.317 . S
C167 H172 0.930 . S
C168 C167 1.333 . S
C168 N170 1.350 . S
C168 H194 0.931 . S
N169 Co165 2.148 . S
N169 C166 1.301 . S
N169 C167 1.317 . S
N170 C166 1.328 . S
N170 C168 1.350 . S
H171 C166 0.930 . S
H172 C167 0.930 . S
C173 O174 1.224 . S
C173 O192 1.247 . S
O174 C173 1.224 . S
N175 Co165 2.128 1_545 S
N175 C176 1.355 . S
N175 C178 1.311 . S
C176 N175 1.355 . S
C176 C177 1.363 . S
C176 H188 0.929 . S
C177 C176 1.363 . S
C177 N179 1.375 . S
C177 H195 0.931 . S
C178 N175 1.311 . S
C178 N179 1.347 . S
C178 H189 0.929 . S
N179 C177 1.375 . S
N179 C178 1.347 . S
C180 C183 1.365 . S
C180 N185 1.328 1_545 S
C180 H186 0.929 . S
C181 C182 1.362 1_565 S
C181 C184 1.378 . S
C181 H196 0.929 . S
C182 C181 1.362 1_545 S
C182 C183 1.366 . S
C183 C180 1.365 . S
C183 C182 1.366 . S
C183 H197 0.930 . S
C184 C181 1.378 . S
C184 N185 1.315 . S
C184 H187 0.930 . S
N185 Co165 2.194 . S
N185 C180 1.328 1_565 S
N185 C184 1.315 . S
H186 C180 0.929 . S
H187 C184 0.930 . S
H188 C176 0.929 . S
H189 C178 0.929 . S
O190 Co165 2.351 1_545 S
O190 C193 1.244 . S
O191 Co165 2.155 . S
O191 C193 1.240 1_565 S
O192 Co165 2.096 . S
O192 C173 1.247 . S
C193 O190 1.244 . S
C193 O191 1.240 1_545 S
H194 C168 0.931 . S
H195 C177 0.931 . S
H196 C181 0.929 . S
H197 C183 0.930 . S
Co198 N202 2.148 . S
Co198 N208 2.128 1_655 S
Co198 N218 2.194 . S
Co198 O223 2.351 1_655 S
Co198 O224 2.155 . S
Co198 O225 2.096 . S
C199 N202 1.301 . S
C199 N203 1.328 . S
C199 H204 0.930 . S
C200 C201 1.333 . S
C200 N202 1.317 . S
C200 H205 0.930 . S
C201 C200 1.333 . S
C201 N203 1.350 . S
C201 H227 0.931 . S
N202 Co198 2.148 . S
N202 C199 1.301 . S
N202 C200 1.317 . S
N203 C199 1.328 . S
N203 C201 1.350 . S
H204 C199 0.930 . S
H205 C200 0.930 . S
C206 O207 1.224 . S
C206 O225 1.247 . S
O207 C206 1.224 . S
N208 Co198 2.128 1_455 S
N208 C209 1.355 . S
N208 C211 1.311 . S
C209 N208 1.355 . S
C209 C210 1.363 . S
C209 H221 0.929 . S
C210 C209 1.363 . S
C210 N212 1.375 . S
C210 H228 0.931 . S
C211 N208 1.311 . S
C211 N212 1.347 . S
C211 H222 0.929 . S
N212 C210 1.375 . S
N212 C211 1.347 . S
C213 C216 1.365 . S
C213 N218 1.328 1_455 S
C213 H219 0.929 . S
C214 C215 1.362 1_655 S
C214 C217 1.378 . S
C214 H229 0.929 . S
C215 C214 1.362 1_455 S
C215 C216 1.366 . S
C216 C213 1.365 . S
C216 C215 1.366 . S
C216 H230 0.930 . S
C217 C214 1.378 . S
C217 N218 1.315 . S
C217 H220 0.930 . S
N218 Co198 2.194 . S
N218 C213 1.328 1_655 S
N218 C217 1.315 . S
H219 C213 0.929 . S
H220 C217 0.930 . S
H221 C209 0.929 . S
H222 C211 0.929 . S
O223 Co198 2.351 1_455 S
O223 C226 1.244 . S
O224 Co198 2.155 . S
O224 C226 1.240 1_655 S
O225 Co198 2.096 . S
O225 C206 1.247 . S
C226 O223 1.244 . S
C226 O224 1.240 1_455 S
H227 C201 0.931 . S
H228 C210 0.931 . S
H229 C214 0.929 . S
H230 C216 0.930 . S
Co231 N235 2.148 . S
Co231 N241 2.128 1_545 S
Co231 N251 2.194 . S
Co231 O256 2.351 1_545 S
Co231 O257 2.155 . S
Co231 O258 2.096 . S
C232 N235 1.301 . S
C232 N236 1.328 . S
C232 H237 0.930 . S
C233 C234 1.333 . S
C233 N235 1.317 . S
C233 H238 0.930 . S
C234 C233 1.333 . S
C234 N236 1.350 . S
C234 H260 0.931 . S
N235 Co231 2.148 . S
N235 C232 1.301 . S
N235 C233 1.317 . S
N236 C232 1.328 . S
N236 C234 1.350 . S
H237 C232 0.930 . S
H238 C233 0.930 . S
C239 O240 1.224 . S
C239 O258 1.247 . S
O240 C239 1.224 . S
N241 Co231 2.128 1_565 S
N241 C242 1.355 . S
N241 C244 1.311 . S
C242 N241 1.355 . S
C242 C243 1.363 . S
C242 H254 0.929 . S
C243 C242 1.363 . S
C243 N245 1.375 . S
C243 H261 0.931 . S
C244 N241 1.311 . S
C244 N245 1.347 . S
C244 H255 0.929 . S
N245 C243 1.375 . S
N245 C244 1.347 . S
C246 C249 1.365 . S
C246 N251 1.328 1_565 S
C246 H252 0.929 . S
C247 C248 1.362 1_545 S
C247 C250 1.378 . S
C247 H262 0.929 . S
C248 C247 1.362 1_565 S
C248 C249 1.366 . S
C249 C246 1.365 . S
C249 C248 1.366 . S
C249 H263 0.930 . S
C250 C247 1.378 . S
C250 N251 1.315 . S
C250 H253 0.930 . S
N251 Co231 2.194 . S
N251 C246 1.328 1_545 S
N251 C250 1.315 . S
H252 C246 0.929 . S
H253 C250 0.930 . S
H254 C242 0.929 . S
H255 C244 0.929 . S
O256 Co231 2.351 1_565 S
O256 C259 1.244 . S
O257 Co231 2.155 . S
O257 C259 1.240 1_545 S
O258 Co231 2.096 . S
O258 C239 1.247 . S
C259 O256 1.244 . S
C259 O257 1.240 1_565 S
H260 C234 0.931 . S
H261 C243 0.931 . S
H262 C247 0.929 . S
H263 C249 0.930 . S
Co264 N268 2.148 . S
Co264 N274 2.128 . S
Co264 N284 2.194 . S
Co264 O289 2.351 . S
Co264 O290 2.155 . S
Co264 O291 2.096 . S
C265 N268 1.301 . S
C265 N269 1.328 . S
C265 H270 0.930 . S
C266 C267 1.333 . S
C266 N268 1.317 . S
C266 H271 0.930 . S
C267 C266 1.333 . S
C267 N269 1.350 . S
C267 H293 0.931 . S
N268 Co264 2.148 . S
N268 C265 1.301 . S
N268 C266 1.317 . S
N269 C265 1.328 . S
N269 C267 1.350 . S
H270 C265 0.930 . S
H271 C266 0.930 . S
C272 O273 1.224 . S
C272 O291 1.247 . S
O273 C272 1.224 . S
N274 Co264 2.128 . S
N274 C275 1.355 . S
N274 C277 1.311 . S
C275 N274 1.355 . S
C275 C276 1.363 . S
C275 H287 0.929 . S
C276 C275 1.363 . S
C276 N278 1.375 . S
C276 H294 0.931 . S
C277 N274 1.311 . S
C277 N278 1.347 . S
C277 H288 0.929 . S
N278 C276 1.375 . S
N278 C277 1.347 . S
C279 C282 1.365 . S
C279 N284 1.328 . S
C279 H285 0.929 . S
C280 C281 1.362 . S
C280 C283 1.378 . S
C280 H295 0.929 . S
C281 C280 1.362 . S
C281 C282 1.366 . S
C282 C279 1.365 . S
C282 C281 1.366 . S
C282 H296 0.930 . S
C283 C280 1.378 . S
C283 N284 1.315 . S
C283 H286 0.930 . S
N284 Co264 2.194 . S
N284 C279 1.328 . S
N284 C283 1.315 . S
H285 C279 0.929 . S
H286 C283 0.930 . S
H287 C275 0.929 . S
H288 C277 0.929 . S
O289 Co264 2.351 . S
O289 C292 1.244 . S
O290 Co264 2.155 . S
O290 C292 1.240 . S
O291 Co264 2.096 . S
O291 C272 1.247 . S
C292 O289 1.244 . S
C292 O290 1.240 . S
H293 C267 0.931 . S
H294 C276 0.931 . S
H295 C280 0.929 . S
H296 C282 0.930 . S
Co297 N301 2.148 . S
Co297 N307 2.128 . S
Co297 N317 2.194 . S
Co297 O322 2.351 . S
Co297 O323 2.155 . S
Co297 O324 2.096 . S
C298 N301 1.301 . S
C298 N302 1.328 . S
C298 H303 0.930 . S
C299 C300 1.333 . S
C299 N301 1.317 . S
C299 H304 0.930 . S
C300 C299 1.333 . S
C300 N302 1.350 . S
C300 H326 0.931 . S
N301 Co297 2.148 . S
N301 C298 1.301 . S
N301 C299 1.317 . S
N302 C298 1.328 . S
N302 C300 1.350 . S
H303 C298 0.930 . S
H304 C299 0.930 . S
C305 O306 1.224 . S
C305 O324 1.247 . S
O306 C305 1.224 . S
N307 Co297 2.128 . S
N307 C308 1.355 . S
N307 C310 1.311 . S
C308 N307 1.355 . S
C308 C309 1.363 . S
C308 H320 0.929 . S
C309 C308 1.363 . S
C309 N311 1.375 . S
C309 H327 0.931 . S
C310 N307 1.311 . S
C310 N311 1.347 . S
C310 H321 0.929 . S
N311 C309 1.375 . S
N311 C310 1.347 . S
C312 C315 1.365 . S
C312 N317 1.328 . S
C312 H318 0.929 . S
C313 C314 1.362 . S
C313 C316 1.378 . S
C313 H328 0.929 . S
C314 C313 1.362 . S
C314 C315 1.366 . S
C315 C312 1.365 . S
C315 C314 1.366 . S
C315 H329 0.930 . S
C316 C313 1.378 . S
C316 N317 1.315 . S
C316 H319 0.930 . S
N317 Co297 2.194 . S
N317 C312 1.328 . S
N317 C316 1.315 . S
H318 C312 0.929 . S
H319 C316 0.930 . S
H320 C308 0.929 . S
H321 C310 0.929 . S
O322 Co297 2.351 . S
O322 C325 1.244 . S
O323 Co297 2.155 . S
O323 C325 1.240 . S
O324 Co297 2.096 . S
O324 C305 1.247 . S
C325 O322 1.244 . S
C325 O323 1.240 . S
H326 C300 0.931 . S
H327 C309 0.931 . S
H328 C313 0.929 . S
H329 C315 0.930 . S
Co330 N334 2.148 . S
Co330 N340 2.128 . S
Co330 N350 2.194 . S
Co330 O355 2.351 . S
Co330 O356 2.155 . S
Co330 O357 2.096 . S
C331 N334 1.301 . S
C331 N335 1.328 . S
C331 H336 0.930 . S
C332 C333 1.333 . S
C332 N334 1.317 . S
C332 H337 0.930 . S
C333 C332 1.333 . S
C333 N335 1.350 . S
C333 H359 0.931 . S
N334 Co330 2.148 . S
N334 C331 1.301 . S
N334 C332 1.317 . S
N335 C331 1.328 . S
N335 C333 1.350 . S
H336 C331 0.930 . S
H337 C332 0.930 . S
C338 O339 1.224 . S
C338 O357 1.247 . S
O339 C338 1.224 . S
N340 Co330 2.128 . S
N340 C341 1.355 . S
N340 C343 1.311 . S
C341 N340 1.355 . S
C341 C342 1.363 . S
C341 H353 0.929 . S
C342 C341 1.363 . S
C342 N344 1.375 . S
C342 H360 0.931 . S
C343 N340 1.311 . S
C343 N344 1.347 . S
C343 H354 0.929 . S
N344 C342 1.375 . S
N344 C343 1.347 . S
C345 C348 1.365 . S
C345 N350 1.328 . S
C345 H351 0.929 . S
C346 C347 1.362 . S
C346 C349 1.378 . S
C346 H361 0.929 . S
C347 C346 1.362 . S
C347 C348 1.366 . S
C348 C345 1.365 . S
C348 C347 1.366 . S
C348 H362 0.930 . S
C349 C346 1.378 . S
C349 N350 1.315 . S
C349 H352 0.930 . S
N350 Co330 2.194 . S
N350 C345 1.328 . S
N350 C349 1.315 . S
H351 C345 0.929 . S
H352 C349 0.930 . S
H353 C341 0.929 . S
H354 C343 0.929 . S
O355 Co330 2.351 . S
O355 C358 1.244 . S
O356 Co330 2.155 . S
O356 C358 1.240 . S
O357 Co330 2.096 . S
O357 C338 1.247 . S
C358 O355 1.244 . S
C358 O356 1.240 . S
H359 C333 0.931 . S
H360 C342 0.931 . S
H361 C346 0.929 . S
H362 C348 0.930 . S
Co363 N367 2.148 . S
Co363 N373 2.128 . S
Co363 N383 2.194 . S
Co363 O388 2.351 . S
Co363 O389 2.155 . S
Co363 O390 2.096 . S
C364 N367 1.301 . S
C364 N368 1.328 . S
C364 H369 0.930 . S
C365 C366 1.333 . S
C365 N367 1.317 . S
C365 H370 0.930 . S
C366 C365 1.333 . S
C366 N368 1.350 . S
C366 H392 0.931 . S
N367 Co363 2.148 . S
N367 C364 1.301 . S
N367 C365 1.317 . S
N368 C364 1.328 . S
N368 C366 1.350 . S
H369 C364 0.930 . S
H370 C365 0.930 . S
C371 O372 1.224 . S
C371 O390 1.247 . S
O372 C371 1.224 . S
N373 Co363 2.128 . S
N373 C374 1.355 . S
N373 C376 1.311 . S
C374 N373 1.355 . S
C374 C375 1.363 . S
C374 H386 0.929 . S
C375 C374 1.363 . S
C375 N377 1.375 . S
C375 H393 0.931 . S
C376 N373 1.311 . S
C376 N377 1.347 . S
C376 H387 0.929 . S
N377 C375 1.375 . S
N377 C376 1.347 . S
C378 C381 1.365 . S
C378 N383 1.328 . S
C378 H384 0.929 . S
C379 C380 1.362 . S
C379 C382 1.378 . S
C379 H394 0.929 . S
C380 C379 1.362 . S
C380 C381 1.366 . S
C381 C378 1.365 . S
C381 C380 1.366 . S
C381 H395 0.930 . S
C382 C379 1.378 . S
C382 N383 1.315 . S
C382 H385 0.930 . S
N383 Co363 2.194 . S
N383 C378 1.328 . S
N383 C382 1.315 . S
H384 C378 0.929 . S
H385 C382 0.930 . S
H386 C374 0.929 . S
H387 C376 0.929 . S
O388 Co363 2.351 . S
O388 C391 1.244 . S
O389 Co363 2.155 . S
O389 C391 1.240 . S
O390 Co363 2.096 . S
O390 C371 1.247 . S
C391 O388 1.244 . S
C391 O389 1.240 . S
H392 C366 0.931 . S
H393 C375 0.931 . S
H394 C379 0.929 . S
H395 C381 0.930 . S
Co396 N400 2.148 . S
Co396 N406 2.128 . S
Co396 N416 2.194 . S
Co396 O421 2.351 . S
Co396 O422 2.155 . S
Co396 O423 2.096 . S
C397 N400 1.301 . S
C397 N401 1.328 . S
C397 H402 0.930 . S
C398 C399 1.333 . S
C398 N400 1.317 . S
C398 H403 0.930 . S
C399 C398 1.333 . S
C399 N401 1.350 . S
C399 H425 0.931 . S
N400 Co396 2.148 . S
N400 C397 1.301 . S
N400 C398 1.317 . S
N401 C397 1.328 . S
N401 C399 1.350 . S
H402 C397 0.930 . S
H403 C398 0.930 . S
C404 O405 1.224 . S
C404 O423 1.247 . S
O405 C404 1.224 . S
N406 Co396 2.128 . S
N406 C407 1.355 . S
N406 C409 1.311 . S
C407 N406 1.355 . S
C407 C408 1.363 . S
C407 H419 0.929 . S
C408 C407 1.363 . S
C408 N410 1.375 . S
C408 H426 0.931 . S
C409 N406 1.311 . S
C409 N410 1.347 . S
C409 H420 0.929 . S
N410 C408 1.375 . S
N410 C409 1.347 . S
C411 C414 1.365 . S
C411 N416 1.328 . S
C411 H417 0.929 . S
C412 C413 1.362 . S
C412 C415 1.378 . S
C412 H427 0.929 . S
C413 C412 1.362 . S
C413 C414 1.366 . S
C414 C411 1.365 . S
C414 C413 1.366 . S
C414 H428 0.930 . S
C415 C412 1.378 . S
C415 N416 1.315 . S
C415 H418 0.930 . S
N416 Co396 2.194 . S
N416 C411 1.328 . S
N416 C415 1.315 . S
H417 C411 0.929 . S
H418 C415 0.930 . S
H419 C407 0.929 . S
H420 C409 0.929 . S
O421 Co396 2.351 . S
O421 C424 1.244 . S
O422 Co396 2.155 . S
O422 C424 1.240 . S
O423 Co396 2.096 . S
O423 C404 1.247 . S
C424 O421 1.244 . S
C424 O422 1.240 . S
H425 C399 0.931 . S
H426 C408 0.931 . S
H427 C412 0.929 . S
H428 C414 0.930 . S
Co429 N433 2.148 . S
Co429 N439 2.128 . S
Co429 N449 2.194 . S
Co429 O454 2.351 . S
Co429 O455 2.155 . S
Co429 O456 2.096 . S
C430 N433 1.301 . S
C430 N434 1.328 . S
C430 H435 0.930 . S
C431 C432 1.333 . S
C431 N433 1.317 . S
C431 H436 0.930 . S
C432 C431 1.333 . S
C432 N434 1.350 . S
C432 H458 0.931 . S
N433 Co429 2.148 . S
N433 C430 1.301 . S
N433 C431 1.317 . S
N434 C430 1.328 . S
N434 C432 1.350 . S
H435 C430 0.930 . S
H436 C431 0.930 . S
C437 O438 1.224 . S
C437 O456 1.247 . S
O438 C437 1.224 . S
N439 Co429 2.128 . S
N439 C440 1.355 . S
N439 C442 1.311 . S
C440 N439 1.355 . S
C440 C441 1.363 . S
C440 H452 0.929 . S
C441 C440 1.363 . S
C441 N443 1.375 . S
C441 H459 0.931 . S
C442 N439 1.311 . S
C442 N443 1.347 . S
C442 H453 0.929 . S
N443 C441 1.375 . S
N443 C442 1.347 . S
C444 C447 1.365 . S
C444 N449 1.328 . S
C444 H450 0.929 . S
C445 C446 1.362 . S
C445 C448 1.378 . S
C445 H460 0.929 . S
C446 C445 1.362 . S
C446 C447 1.366 . S
C447 C444 1.365 . S
C447 C446 1.366 . S
C447 H461 0.930 . S
C448 C445 1.378 . S
C448 N449 1.315 . S
C448 H451 0.930 . S
N449 Co429 2.194 . S
N449 C444 1.328 . S
N449 C448 1.315 . S
H450 C444 0.929 . S
H451 C448 0.930 . S
H452 C440 0.929 . S
H453 C442 0.929 . S
O454 Co429 2.351 . S
O454 C457 1.244 . S
O455 Co429 2.155 . S
O455 C457 1.240 . S
O456 Co429 2.096 . S
O456 C437 1.247 . S
C457 O454 1.244 . S
C457 O455 1.240 . S
H458 C432 0.931 . S
H459 C441 0.931 . S
H460 C445 0.929 . S
H461 C447 0.930 . S
Co462 N466 2.148 . S
Co462 N472 2.128 . S
Co462 N482 2.194 . S
Co462 O487 2.351 . S
Co462 O488 2.155 . S
Co462 O489 2.096 . S
C463 N466 1.301 . S
C463 N467 1.328 . S
C463 H468 0.930 . S
C464 C465 1.333 . S
C464 N466 1.317 . S
C464 H469 0.930 . S
C465 C464 1.333 . S
C465 N467 1.350 . S
C465 H491 0.931 . S
N466 Co462 2.148 . S
N466 C463 1.301 . S
N466 C464 1.317 . S
N467 C463 1.328 . S
N467 C465 1.350 . S
H468 C463 0.930 . S
H469 C464 0.930 . S
C470 O471 1.224 . S
C470 O489 1.247 . S
O471 C470 1.224 . S
N472 Co462 2.128 . S
N472 C473 1.355 . S
N472 C475 1.311 . S
C473 N472 1.355 . S
C473 C474 1.363 . S
C473 H485 0.929 . S
C474 C473 1.363 . S
C474 N476 1.375 . S
C474 H492 0.931 . S
C475 N472 1.311 . S
C475 N476 1.347 . S
C475 H486 0.929 . S
N476 C474 1.375 . S
N476 C475 1.347 . S
C477 C480 1.365 . S
C477 N482 1.328 . S
C477 H483 0.929 . S
C478 C479 1.362 . S
C478 C481 1.378 . S
C478 H493 0.929 . S
C479 C478 1.362 . S
C479 C480 1.366 . S
C480 C477 1.365 . S
C480 C479 1.366 . S
C480 H494 0.930 . S
C481 C478 1.378 . S
C481 N482 1.315 . S
C481 H484 0.930 . S
N482 Co462 2.194 . S
N482 C477 1.328 . S
N482 C481 1.315 . S
H483 C477 0.929 . S
H484 C481 0.930 . S
H485 C473 0.929 . S
H486 C475 0.929 . S
O487 Co462 2.351 . S
O487 C490 1.244 . S
O488 Co462 2.155 . S
O488 C490 1.240 . S
O489 Co462 2.096 . S
O489 C470 1.247 . S
C490 O487 1.244 . S
C490 O488 1.240 . S
H491 C465 0.931 . S
H492 C474 0.931 . S
H493 C478 0.929 . S
H494 C480 0.930 . S
Co495 N499 2.148 . S
Co495 N505 2.128 . S
Co495 N515 2.194 . S
Co495 O520 2.351 . S
Co495 O521 2.155 . S
Co495 O522 2.096 . S
C496 N499 1.301 . S
C496 N500 1.328 . S
C496 H501 0.930 . S
C497 C498 1.333 . S
C497 N499 1.317 . S
C497 H502 0.930 . S
C498 C497 1.333 . S
C498 N500 1.350 . S
C498 H524 0.931 . S
N499 Co495 2.148 . S
N499 C496 1.301 . S
N499 C497 1.317 . S
N500 C496 1.328 . S
N500 C498 1.350 . S
H501 C496 0.930 . S
H502 C497 0.930 . S
C503 O504 1.224 . S
C503 O522 1.247 . S
O504 C503 1.224 . S
N505 Co495 2.128 . S
N505 C506 1.355 . S
N505 C508 1.311 . S
C506 N505 1.355 . S
C506 C507 1.363 . S
C506 H518 0.929 . S
C507 C506 1.363 . S
C507 N509 1.375 . S
C507 H525 0.931 . S
C508 N505 1.311 . S
C508 N509 1.347 . S
C508 H519 0.929 . S
N509 C507 1.375 . S
N509 C508 1.347 . S
C510 C513 1.365 . S
C510 N515 1.328 . S
C510 H516 0.929 . S
C511 C512 1.362 . S
C511 C514 1.378 . S
C511 H526 0.929 . S
C512 C511 1.362 . S
C512 C513 1.366 . S
C513 C510 1.365 . S
C513 C512 1.366 . S
C513 H527 0.930 . S
C514 C511 1.378 . S
C514 N515 1.315 . S
C514 H517 0.930 . S
N515 Co495 2.194 . S
N515 C510 1.328 . S
N515 C514 1.315 . S
H516 C510 0.929 . S
H517 C514 0.930 . S
H518 C506 0.929 . S
H519 C508 0.929 . S
O520 Co495 2.351 . S
O520 C523 1.244 . S
O521 Co495 2.155 . S
O521 C523 1.240 . S
O522 Co495 2.096 . S
O522 C503 1.247 . S
C523 O520 1.244 . S
C523 O521 1.240 . S
H524 C498 0.931 . S
H525 C507 0.931 . S
H526 C511 0.929 . S
H527 C513 0.930 . S
H528 C540 0.930 . S
H529 C542 0.930 . S
H530 C543 0.930 . S
H531 C547 0.959 . S
H532 C547 0.959 . S
H533 C547 0.961 . S
H534 C548 0.960 . S
H535 C548 0.961 . S
H536 C548 0.959 . S
H537 C551 0.929 . S
H538 C552 0.931 . S
H539 C554 0.930 . S
C540 H528 0.930 . S
C540 C541 1.399 . S
C540 C545 1.399 . S
C541 C540 1.399 . S
C541 C542 1.376 . S
C542 H529 0.930 . S
C542 C541 1.376 . S
C542 C543 1.388 . S
C543 H530 0.930 . S
C543 C542 1.388 . S
C543 C544 1.390 . S
C544 C543 1.390 . S
C544 C545 1.394 . S
C544 C550 1.465 . S
C545 C540 1.399 . S
C545 C544 1.394 . S
C545 C546 1.516 . S
C546 C545 1.516 . S
C546 C547 1.502 . S
C546 C548 1.561 . S
C546 C549 1.526 . S
C547 H531 0.959 . S
C547 H532 0.959 . S
C547 H533 0.961 . S
C547 C546 1.502 . S
C548 H534 0.960 . S
C548 H535 0.961 . S
C548 H536 0.959 . S
C548 C546 1.561 . S
C549 C546 1.526 . S
C549 C550 1.396 . S
C549 C554 1.390 . S
C550 C544 1.465 . S
C550 C549 1.396 . S
C550 C551 1.399 . S
C551 H537 0.929 . S
C551 C550 1.399 . S
C551 C552 1.385 . S
C552 H538 0.931 . S
C552 C551 1.385 . S
C552 C553 1.389 . S
C553 C552 1.389 . S
C553 C554 1.387 . S
C554 H539 0.930 . S
C554 C549 1.390 . S
C554 C553 1.387 . S
H555 C567 0.930 . S
H556 C569 0.930 . S
H557 C570 0.930 . S
H558 C574 0.959 . S
H559 C574 0.959 . S
H560 C574 0.961 . S
H561 C575 0.960 . S
H562 C575 0.961 . S
H563 C575 0.959 . S
H564 C578 0.929 . S
H565 C579 0.931 . S
H566 C581 0.930 . S
C567 H555 0.930 . S
C567 C568 1.399 . S
C567 C572 1.399 . S
C568 C567 1.399 . S
C568 C569 1.376 . S
C569 H556 0.930 . S
C569 C568 1.376 . S
C569 C570 1.388 . S
C570 H557 0.930 . S
C570 C569 1.388 . S
C570 C571 1.390 . S
C571 C570 1.390 . S
C571 C572 1.394 . S
C571 C577 1.465 . S
C572 C567 1.399 . S
C572 C571 1.394 . S
C572 C573 1.516 . S
C573 C572 1.516 . S
C573 C574 1.502 . S
C573 C575 1.561 . S
C573 C576 1.526 . S
C574 H558 0.959 . S
C574 H559 0.959 . S
C574 H560 0.961 . S
C574 C573 1.502 . S
C575 H561 0.960 . S
C575 H562 0.961 . S
C575 H563 0.959 . S
C575 C573 1.561 . S
C576 C573 1.526 . S
C576 C577 1.396 . S
C576 C581 1.390 . S
C577 C571 1.465 . S
C577 C576 1.396 . S
C577 C578 1.399 . S
C578 H564 0.929 . S
C578 C577 1.399 . S
C578 C579 1.385 . S
C579 H565 0.931 . S
C579 C578 1.385 . S
C579 C580 1.389 . S
C580 C579 1.389 . S
C580 C581 1.387 . S
C581 H566 0.930 . S
C581 C576 1.390 . S
C581 C580 1.387 . S
H582 C594 0.930 . S
H583 C596 0.930 . S
H584 C597 0.930 . S
H585 C601 0.959 . S
H586 C601 0.959 . S
H587 C601 0.961 . S
H588 C602 0.960 . S
H589 C602 0.961 . S
H590 C602 0.959 . S
H591 C605 0.929 . S
H592 C606 0.931 . S
H593 C608 0.930 . S
C594 H582 0.930 . S
C594 C595 1.399 . S
C594 C599 1.399 . S
C595 C594 1.399 . S
C595 C596 1.376 . S
C596 H583 0.930 . S
C596 C595 1.376 . S
C596 C597 1.388 . S
C597 H584 0.930 . S
C597 C596 1.388 . S
C597 C598 1.390 . S
C598 C597 1.390 . S
C598 C599 1.394 . S
C598 C604 1.465 . S
C599 C594 1.399 . S
C599 C598 1.394 . S
C599 C600 1.516 . S
C600 C599 1.516 . S
C600 C601 1.502 . S
C600 C602 1.561 . S
C600 C603 1.526 . S
C601 H585 0.959 . S
C601 H586 0.959 . S
C601 H587 0.961 . S
C601 C600 1.502 . S
C602 H588 0.960 . S
C602 H589 0.961 . S
C602 H590 0.959 . S
C602 C600 1.561 . S
C603 C600 1.526 . S
C603 C604 1.396 . S
C603 C608 1.390 . S
C604 C598 1.465 . S
C604 C603 1.396 . S
C604 C605 1.399 . S
C605 H591 0.929 . S
C605 C604 1.399 . S
C605 C606 1.385 . S
C606 H592 0.931 . S
C606 C605 1.385 . S
C606 C607 1.389 . S
C607 C606 1.389 . S
C607 C608 1.387 . S
C608 H593 0.930 . S
C608 C603 1.390 . S
C608 C607 1.387 . S
H609 C621 0.930 . S
H610 C623 0.930 . S
H611 C624 0.930 . S
H612 C628 0.959 . S
H613 C628 0.959 . S
H614 C628 0.961 . S
H615 C629 0.960 . S
H616 C629 0.961 . S
H617 C629 0.959 . S
H618 C632 0.929 . S
H619 C633 0.931 . S
H620 C635 0.930 . S
C621 H609 0.930 . S
C621 C622 1.399 . S
C621 C626 1.399 . S
C622 C621 1.399 . S
C622 C623 1.376 . S
C623 H610 0.930 . S
C623 C622 1.376 . S
C623 C624 1.388 . S
C624 H611 0.930 . S
C624 C623 1.388 . S
C624 C625 1.390 . S
C625 C624 1.390 . S
C625 C626 1.394 . S
C625 C631 1.465 . S
C626 C621 1.399 . S
C626 C625 1.394 . S
C626 C627 1.516 . S
C627 C626 1.516 . S
C627 C628 1.502 . S
C627 C629 1.561 . S
C627 C630 1.526 . S
C628 H612 0.959 . S
C628 H613 0.959 . S
C628 H614 0.961 . S
C628 C627 1.502 . S
C629 H615 0.960 . S
C629 H616 0.961 . S
C629 H617 0.959 . S
C629 C627 1.561 . S
C630 C627 1.526 . S
C630 C631 1.396 . S
C630 C635 1.390 . S
C631 C625 1.465 . S
C631 C630 1.396 . S
C631 C632 1.399 . S
C632 H618 0.929 . S
C632 C631 1.399 . S
C632 C633 1.385 . S
C633 H619 0.931 . S
C633 C632 1.385 . S
C633 C634 1.389 . S
C634 C633 1.389 . S
C634 C635 1.387 . S
C635 H620 0.930 . S
C635 C630 1.390 . S
C635 C634 1.387 . S
H636 C648 0.930 . S
H637 C650 0.930 . S
H638 C651 0.930 . S
H639 C655 0.959 . S
H640 C655 0.959 . S
H641 C655 0.961 . S
H642 C656 0.905 1_554 S
H643 C656 0.961 . S
H644 C656 0.959 . S
H645 C659 0.929 . S
H646 C660 0.931 . S
H647 C662 0.930 . S
C648 H636 0.930 . S
C648 C649 1.399 . S
C648 C653 1.399 . S
C649 C648 1.399 . S
C649 C650 1.376 . S
C650 H637 0.930 . S
C650 C649 1.376 . S
C650 C651 1.388 . S
C651 H638 0.930 . S
C651 C650 1.388 . S
C651 C652 1.390 . S
C652 C651 1.390 . S
C652 C653 1.394 . S
C652 C658 1.465 1_554 S
C653 C648 1.399 . S
C653 C652 1.394 . S
C653 C654 1.516 1_554 S
C654 C653 1.516 1_556 S
C654 C655 1.502 . S
C654 C656 1.561 . S
C654 C657 1.526 . S
C655 H639 0.959 . S
C655 H640 0.959 . S
C655 H641 0.961 . S
C655 C654 1.502 . S
C656 H642 0.905 1_556 S
C656 H643 0.961 . S
C656 H644 0.959 . S
C656 C654 1.561 . S
C657 C654 1.526 . S
C657 C658 1.396 . S
C657 C662 1.390 . S
C658 C652 1.465 1_556 S
C658 C657 1.396 . S
C658 C659 1.399 . S
C659 H645 0.929 . S
C659 C658 1.399 . S
C659 C660 1.385 . S
C660 H646 0.931 . S
C660 C659 1.385 . S
C660 C661 1.389 . S
C661 C660 1.389 . S
C661 C662 1.387 . S
C662 H647 0.930 . S
C662 C657 1.390 . S
C662 C661 1.387 . S
H663 C675 0.930 . S
H664 C677 0.930 . S
H665 C678 0.930 1_554 S
H666 C682 0.959 . S
H667 C682 0.959 . S
H668 C682 0.961 . S
H669 C683 0.960 . S
H670 C683 0.961 1_554 S
H671 C683 0.959 1_554 S
H672 C686 0.929 . S
H673 C687 0.931 . S
H674 C689 0.930 . S
C675 H663 0.930 . S
C675 C676 1.399 . S
C675 C680 1.399 . S
C676 C675 1.399 . S
C676 C677 1.376 . S
C677 H664 0.930 . S
C677 C676 1.376 . S
C677 C678 1.388 . S
C678 H665 0.930 1_556 S
C678 C677 1.388 . S
C678 C679 1.381 1_556 S
C679 C678 1.381 1_554 S
C679 C680 1.369 1_554 S
C679 C685 1.498 . S
C680 C675 1.399 . S
C680 C679 1.369 1_556 S
C680 C681 1.516 . S
C681 C680 1.516 . S
C681 C682 1.502 . S
C681 C683 1.561 . S
C681 C684 1.526 1_556 S
C682 H666 0.959 . S
C682 H667 0.959 . S
C682 H668 0.961 . S
C682 C681 1.502 . S
C683 H669 0.960 . S
C683 H670 0.961 1_556 S
C683 H671 0.959 1_556 S
C683 C681 1.561 . S
C684 C681 1.526 1_554 S
C684 C685 1.396 . S
C684 C689 1.390 . S
C685 C679 1.498 . S
C685 C684 1.396 . S
C685 C686 1.399 . S
C686 H672 0.929 . S
C686 C685 1.399 . S
C686 C687 1.385 . S
C687 H673 0.931 . S
C687 C686 1.385 . S
C687 C688 1.389 . S
C688 C687 1.389 . S
C688 C689 1.387 . S
C689 H674 0.930 . S
C689 C684 1.390 . S
C689 C688 1.387 . S
H690 C702 0.930 . S
H691 C704 0.930 . S
H692 C705 0.930 . S
H693 C709 0.959 . S
H694 C709 0.959 1_554 S
H695 C709 0.961 . S
H696 C710 0.962 . S
H697 C710 0.961 . S
H698 C710 0.959 . S
H699 C713 0.929 . S
H700 C714 0.931 . S
H701 C716 0.930 . S
C702 H690 0.930 . S
C702 C703 1.399 . S
C702 C707 1.399 . S
C703 C702 1.399 . S
C703 C704 1.376 . S
C704 H691 0.930 . S
C704 C703 1.376 . S
C704 C705 1.388 . S
C705 H692 0.930 . S
C705 C704 1.388 . S
C705 C706 1.390 . S
C706 C705 1.390 . S
C706 C707 1.394 . S
C706 C712 1.465 1_556 S
C707 C702 1.399 . S
C707 C706 1.394 . S
C707 C708 1.583 . S
C708 C707 1.583 . S
C708 C709 1.523 . S
C708 C710 1.524 1_556 S
C708 C711 1.478 1_556 S
C709 H693 0.959 . S
C709 H694 0.959 1_556 S
C709 H695 0.961 . S
C709 C708 1.523 . S
C710 H696 0.962 . S
C710 H697 0.961 . S
C710 H698 0.959 . S
C710 C708 1.524 1_554 S
C711 C708 1.478 1_554 S
C711 C712 1.396 . S
C711 C716 1.390 . S
C712 C706 1.465 1_554 S
C712 C711 1.396 . S
C712 C713 1.399 . S
C713 H699 0.929 . S
C713 C712 1.399 . S
C713 C714 1.385 . S
C714 H700 0.931 . S
C714 C713 1.385 . S
C714 C715 1.389 . S
C715 C714 1.389 . S
C715 C716 1.387 . S
C716 H701 0.930 . S
C716 C711 1.390 . S
C716 C715 1.387 . S
H717 C729 0.930 . S
H718 C731 0.930 . S
H719 C732 0.930 . S
H720 C736 0.959 . S
H721 C736 0.959 . S
H722 C736 0.961 . S
H723 C737 0.960 . S
H724 C737 0.961 . S
H725 C737 0.959 . S
H726 C740 0.929 . S
H727 C741 0.931 . S
H728 C743 0.930 . S
C729 H717 0.930 . S
C729 C730 1.399 . S
C729 C734 1.399 . S
C730 C729 1.399 . S
C730 C731 1.376 . S
C731 H718 0.930 . S
C731 C730 1.376 . S
C731 C732 1.388 . S
C732 H719 0.930 . S
C732 C731 1.388 . S
C732 C733 1.390 . S
C733 C732 1.390 . S
C733 C734 1.394 . S
C733 C739 1.465 1_554 S
C734 C729 1.399 . S
C734 C733 1.394 . S
C734 C735 1.516 . S
C735 C734 1.516 . S
C735 C736 1.502 . S
C735 C737 1.561 . S
C735 C738 1.526 1_554 S
C736 H720 0.959 . S
C736 H721 0.959 . S
C736 H722 0.961 . S
C736 C735 1.502 . S
C737 H723 0.960 . S
C737 H724 0.961 . S
C737 H725 0.959 . S
C737 C735 1.561 . S
C738 C735 1.526 1_556 S
C738 C739 1.396 . S
C738 C743 1.390 . S
C739 C733 1.465 1_556 S
C739 C738 1.396 . S
C739 C740 1.399 . S
C740 H726 0.929 . S
C740 C739 1.399 . S
C740 C741 1.385 . S
C741 H727 0.931 . S
C741 C740 1.385 . S
C741 C742 1.389 . S
C742 C741 1.389 . S
C742 C743 1.387 . S
C743 H728 0.930 . S
C743 C738 1.390 . S
C743 C742 1.387 . S
H744 C756 0.930 . S
H745 C758 0.930 . S
H746 C759 0.930 . S
H747 C763 0.959 . S
H748 C763 0.959 . S
H749 C763 0.961 . S
H750 C764 0.960 . S
H751 C764 0.961 . S
H752 C764 0.959 . S
H753 C767 0.929 . S
H754 C768 0.931 . S
H755 C770 0.930 . S
C756 H744 0.930 . S
C756 C757 1.399 . S
C756 C761 1.399 . S
C757 C756 1.399 . S
C757 C758 1.376 . S
C758 H745 0.930 . S
C758 C757 1.376 . S
C758 C759 1.388 . S
C759 H746 0.930 . S
C759 C758 1.388 . S
C759 C760 1.390 . S
C760 C759 1.390 . S
C760 C761 1.394 . S
C760 C766 1.465 . S
C761 C756 1.399 . S
C761 C760 1.394 . S
C761 C762 1.516 . S
C762 C761 1.516 . S
C762 C763 1.502 . S
C762 C764 1.561 . S
C762 C765 1.526 . S
C763 H747 0.959 . S
C763 H748 0.959 . S
C763 H749 0.961 . S
C763 C762 1.502 . S
C764 H750 0.960 . S
C764 H751 0.961 . S
C764 H752 0.959 . S
C764 C762 1.561 . S
C765 C762 1.526 . S
C765 C766 1.396 . S
C765 C770 1.390 . S
C766 C760 1.465 . S
C766 C765 1.396 . S
C766 C767 1.399 . S
C767 H753 0.929 . S
C767 C766 1.399 . S
C767 C768 1.385 . S
C768 H754 0.931 . S
C768 C767 1.385 . S
C768 C769 1.389 . S
C769 C768 1.389 . S
C769 C770 1.387 . S
C770 H755 0.930 . S
C770 C765 1.390 . S
C770 C769 1.387 . S
H771 C783 0.930 . S
H772 C785 0.930 . S
H773 C786 0.930 . S
H774 C790 0.959 . S
H775 C790 0.959 . S
H776 C790 0.961 . S
H777 C791 0.960 . S
H778 C791 0.961 . S
H779 C791 0.959 . S
H780 C794 0.929 . S
H781 C795 0.931 . S
H782 C797 0.930 . S
C783 H771 0.930 . S
C783 C784 1.399 . S
C783 C788 1.399 . S
C784 C783 1.399 . S
C784 C785 1.376 . S
C785 H772 0.930 . S
C785 C784 1.376 . S
C785 C786 1.388 . S
C786 H773 0.930 . S
C786 C785 1.388 . S
C786 C787 1.390 . S
C787 C786 1.390 . S
C787 C788 1.394 . S
C787 C793 1.465 . S
C788 C783 1.399 . S
C788 C787 1.394 . S
C788 C789 1.516 . S
C789 C788 1.516 . S
C789 C790 1.502 . S
C789 C791 1.561 . S
C789 C792 1.526 . S
C790 H774 0.959 . S
C790 H775 0.959 . S
C790 H776 0.961 . S
C790 C789 1.502 . S
C791 H777 0.960 . S
C791 H778 0.961 . S
C791 H779 0.959 . S
C791 C789 1.561 . S
C792 C789 1.526 . S
C792 C793 1.396 . S
C792 C797 1.390 . S
C793 C787 1.465 . S
C793 C792 1.396 . S
C793 C794 1.399 . S
C794 H780 0.929 . S
C794 C793 1.399 . S
C794 C795 1.385 . S
C795 H781 0.931 . S
C795 C794 1.385 . S
C795 C796 1.389 . S
C796 C795 1.389 . S
C796 C797 1.387 . S
C797 H782 0.930 . S
C797 C792 1.390 . S
C797 C796 1.387 . S
H798 C810 0.930 . S
H799 C812 0.930 . S
H800 C813 0.930 . S
H801 C817 0.959 . S
H802 C817 0.959 . S
H803 C817 0.961 . S
H804 C818 0.960 . S
H805 C818 0.961 . S
H806 C818 0.959 . S
H807 C821 0.929 . S
H808 C822 0.931 . S
H809 C824 0.930 . S
C810 H798 0.930 . S
C810 C811 1.399 . S
C810 C815 1.399 . S
C811 C810 1.399 . S
C811 C812 1.376 . S
C812 H799 0.930 . S
C812 C811 1.376 . S
C812 C813 1.388 . S
C813 H800 0.930 . S
C813 C812 1.388 . S
C813 C814 1.390 . S
C814 C813 1.390 . S
C814 C815 1.394 . S
C814 C820 1.465 . S
C815 C810 1.399 . S
C815 C814 1.394 . S
C815 C816 1.516 . S
C816 C815 1.516 . S
C816 C817 1.502 . S
C816 C818 1.561 . S
C816 C819 1.526 . S
C817 H801 0.959 . S
C817 H802 0.959 . S
C817 H803 0.961 . S
C817 C816 1.502 . S
C818 H804 0.960 . S
C818 H805 0.961 . S
C818 H806 0.959 . S
C818 C816 1.561 . S
C819 C816 1.526 . S
C819 C820 1.396 . S
C819 C824 1.390 . S
C820 C814 1.465 . S
C820 C819 1.396 . S
C820 C821 1.399 . S
C821 H807 0.929 . S
C821 C820 1.399 . S
C821 C822 1.385 . S
C822 H808 0.931 . S
C822 C821 1.385 . S
C822 C823 1.389 . S
C823 C822 1.389 . S
C823 C824 1.387 . S
C824 H809 0.930 . S
C824 C819 1.390 . S
C824 C823 1.387 . S
H825 C837 0.930 . S
H826 C839 0.930 . S
H827 C840 0.930 . S
H828 C844 0.959 . S
H829 C844 0.959 . S
H830 C844 0.961 . S
H831 C845 0.960 . S
H832 C845 0.961 . S
H833 C845 0.959 . S
H834 C848 0.929 . S
H835 C849 0.931 . S
H836 C851 0.930 . S
C837 H825 0.930 . S
C837 C838 1.399 . S
C837 C842 1.399 . S
C838 C837 1.399 . S
C838 C839 1.376 . S
C839 H826 0.930 . S
C839 C838 1.376 . S
C839 C840 1.388 . S
C840 H827 0.930 . S
C840 C839 1.388 . S
C840 C841 1.390 . S
C841 C840 1.390 . S
C841 C842 1.394 . S
C841 C847 1.465 . S
C842 C837 1.399 . S
C842 C841 1.394 . S
C842 C843 1.516 . S
C843 C842 1.516 . S
C843 C844 1.502 . S
C843 C845 1.561 . S
C843 C846 1.526 . S
C844 H828 0.959 . S
C844 H829 0.959 . S
C844 H830 0.961 . S
C844 C843 1.502 . S
C845 H831 0.960 . S
C845 H832 0.961 . S
C845 H833 0.959 . S
C845 C843 1.561 . S
C846 C843 1.526 . S
C846 C847 1.396 . S
C846 C851 1.390 . S
C847 C841 1.465 . S
C847 C846 1.396 . S
C847 C848 1.399 . S
C848 H834 0.929 . S
C848 C847 1.399 . S
C848 C849 1.385 . S
C849 H835 0.931 . S
C849 C848 1.385 . S
C849 C850 1.389 . S
C850 C849 1.389 . S
C850 C851 1.387 . S
C851 H836 0.930 . S
C851 C846 1.390 . S
C851 C850 1.387 . S
H852 C864 0.930 . S
H853 C866 0.930 . S
H854 C867 0.930 . S
H855 C871 0.959 . S
H856 C871 0.959 . S
H857 C871 0.961 . S
H858 C872 0.960 . S
H859 C872 0.961 . S
H860 C872 0.959 . S
H861 C875 0.929 . S
H862 C876 0.931 . S
H863 C878 0.930 . S
C864 H852 0.930 . S
C864 C865 1.399 . S
C864 C869 1.399 . S
C865 C864 1.399 . S
C865 C866 1.376 . S
C866 H853 0.930 . S
C866 C865 1.376 . S
C866 C867 1.388 . S
C867 H854 0.930 . S
C867 C866 1.388 . S
C867 C868 1.390 . S
C868 C867 1.390 . S
C868 C869 1.394 . S
C868 C874 1.465 . S
C869 C864 1.399 . S
C869 C868 1.394 . S
C869 C870 1.516 . S
C870 C869 1.516 . S
C870 C871 1.502 . S
C870 C872 1.561 . S
C870 C873 1.526 . S
C871 H855 0.959 . S
C871 H856 0.959 . S
C871 H857 0.961 . S
C871 C870 1.502 . S
C872 H858 0.960 . S
C872 H859 0.961 . S
C872 H860 0.959 . S
C872 C870 1.561 . S
C873 C870 1.526 . S
C873 C874 1.396 . S
C873 C878 1.390 . S
C874 C868 1.465 . S
C874 C873 1.396 . S
C874 C875 1.399 . S
C875 H861 0.929 . S
C875 C874 1.399 . S
C875 C876 1.385 . S
C876 H862 0.931 . S
C876 C875 1.385 . S
C876 C877 1.389 . S
C877 C876 1.389 . S
C877 C878 1.387 . S
C878 H863 0.930 . S
C878 C873 1.390 . S
C878 C877 1.387 . S
H879 C891 0.930 . S
H880 C893 0.930 . S
H881 C894 0.930 . S
H882 C898 0.959 . S
H883 C898 0.959 . S
H884 C898 0.961 . S
H885 C899 0.960 . S
H886 C899 0.961 . S
H887 C899 0.959 . S
H888 C902 0.929 . S
H889 C903 0.931 . S
H890 C905 0.930 . S
C891 H879 0.930 . S
C891 C892 1.399 . S
C891 C896 1.399 . S
C892 C891 1.399 . S
C892 C893 1.376 . S
C893 H880 0.930 . S
C893 C892 1.376 . S
C893 C894 1.388 . S
C894 H881 0.930 . S
C894 C893 1.388 . S
C894 C895 1.390 . S
C895 C894 1.390 . S
C895 C896 1.394 . S
C895 C901 1.465 . S
C896 C891 1.399 . S
C896 C895 1.394 . S
C896 C897 1.516 . S
C897 C896 1.516 . S
C897 C898 1.502 . S
C897 C899 1.561 . S
C897 C900 1.526 . S
C898 H882 0.959 . S
C898 H883 0.959 . S
C898 H884 0.961 . S
C898 C897 1.502 . S
C899 H885 0.960 . S
C899 H886 0.961 . S
C899 H887 0.959 . S
C899 C897 1.561 . S
C900 C897 1.526 . S
C900 C901 1.396 . S
C900 C905 1.390 . S
C901 C895 1.465 . S
C901 C900 1.396 . S
C901 C902 1.399 . S
C902 H888 0.929 . S
C902 C901 1.399 . S
C902 C903 1.385 . S
C903 H889 0.931 . S
C903 C902 1.385 . S
C903 C904 1.389 . S
C904 C903 1.389 . S
C904 C905 1.387 . S
C905 H890 0.930 . S
C905 C900 1.390 . S
C905 C904 1.387 . S
H906 C918 0.930 . S
H907 C920 0.930 . S
H908 C921 0.930 . S
H909 C925 0.959 . S
H910 C925 0.959 . S
H911 C925 0.961 . S
H912 C926 0.960 . S
H913 C926 0.961 . S
H914 C926 0.959 . S
H915 C929 0.929 . S
H916 C930 0.931 . S
H917 C932 0.930 . S
C918 H906 0.930 . S
C918 C919 1.399 . S
C918 C923 1.399 . S
C919 C918 1.399 . S
C919 C920 1.376 . S
C920 H907 0.930 . S
C920 C919 1.376 . S
C920 C921 1.388 . S
C921 H908 0.930 . S
C921 C920 1.388 . S
C921 C922 1.390 . S
C922 C921 1.390 . S
C922 C923 1.394 . S
C922 C928 1.465 . S
C923 C918 1.399 . S
C923 C922 1.394 . S
C923 C924 1.516 . S
C924 C923 1.516 . S
C924 C925 1.502 . S
C924 C926 1.561 . S
C924 C927 1.526 . S
C925 H909 0.959 . S
C925 H910 0.959 . S
C925 H911 0.961 . S
C925 C924 1.502 . S
C926 H912 0.960 . S
C926 H913 0.961 . S
C926 H914 0.959 . S
C926 C924 1.561 . S
C927 C924 1.526 . S
C927 C928 1.396 . S
C927 C932 1.390 . S
C928 C922 1.465 . S
C928 C927 1.396 . S
C928 C929 1.399 . S
C929 H915 0.929 . S
C929 C928 1.399 . S
C929 C930 1.385 . S
C930 H916 0.931 . S
C930 C929 1.385 . S
C930 C931 1.389 . S
C931 C930 1.389 . S
C931 C932 1.387 . S
C932 H917 0.930 . S
C932 C927 1.390 . S
C932 C931 1.387 . S
H933 C945 0.930 . S
H934 C947 0.930 . S
H935 C948 0.930 . S
H936 C952 0.959 . S
H937 C952 0.959 . S
H938 C952 0.961 . S
H939 C953 0.960 . S
H940 C953 0.961 . S
H941 C953 0.959 . S
H942 C956 0.929 . S
H943 C957 0.931 . S
H944 C959 0.930 . S
C945 H933 0.930 . S
C945 C946 1.399 . S
C945 C950 1.399 . S
C946 C945 1.399 . S
C946 C947 1.376 . S
C947 H934 0.930 . S
C947 C946 1.376 . S
C947 C948 1.388 . S
C948 H935 0.930 . S
C948 C947 1.388 . S
C948 C949 1.390 . S
C949 C948 1.390 . S
C949 C950 1.394 . S
C949 C955 1.465 . S
C950 C945 1.399 . S
C950 C949 1.394 . S
C950 C951 1.516 . S
C951 C950 1.516 . S
C951 C952 1.502 . S
C951 C953 1.561 . S
C951 C954 1.526 . S
C952 H936 0.959 . S
C952 H937 0.959 . S
C952 H938 0.961 . S
C952 C951 1.502 . S
C953 H939 0.960 . S
C953 H940 0.961 . S
C953 H941 0.959 . S
C953 C951 1.561 . S
C954 C951 1.526 . S
C954 C955 1.396 . S
C954 C959 1.390 . S
C955 C949 1.465 . S
C955 C954 1.396 . S
C955 C956 1.399 . S
C956 H942 0.929 . S
C956 C955 1.399 . S
C956 C957 1.385 . S
C957 H943 0.931 . S
C957 C956 1.385 . S
C957 C958 1.389 . S
C958 C957 1.389 . S
C958 C959 1.387 . S
C959 H944 0.930 . S
C959 C954 1.390 . S
C959 C958 1.387 . S
H960 C972 0.930 . S
H961 C974 0.930 . S
H962 C975 0.930 . S
H963 C979 0.959 . S
H964 C979 0.959 1_565 S
H965 C979 0.961 . S
H966 C980 0.960 . S
H967 C980 0.961 1_565 S
H968 C980 0.959 . S
H969 C983 0.929 . S
H970 C984 0.931 . S
H971 C986 0.930 . S
C972 H960 0.930 . S
C972 C973 1.399 1_455 S
C972 C977 1.399 . S
C973 C972 1.399 1_655 S
C973 C974 1.376 . S
C974 H961 0.930 . S
C974 C973 1.376 . S
C974 C975 1.388 . S
C975 H962 0.930 . S
C975 C974 1.388 . S
C975 C976 1.390 . S
C976 C975 1.390 . S
C976 C977 1.394 1_655 S
C976 C982 1.465 1_545 S
C977 C972 1.399 . S
C977 C976 1.394 1_455 S
C977 C978 1.516 . S
C978 C977 1.516 . S
C978 C979 1.502 . S
C978 C980 1.561 . S
C978 C981 1.526 1_545 S
C979 H963 0.959 . S
C979 H964 0.959 1_545 S
C979 H965 0.961 . S
C979 C978 1.502 . S
C980 H966 0.960 . S
C980 H967 0.961 1_545 S
C980 H968 0.959 . S
C980 C978 1.561 . S
C981 C978 1.526 1_565 S
C981 C982 1.396 1_455 S
C981 C986 1.390 . S
C982 C976 1.465 1_565 S
C982 C981 1.396 1_655 S
C982 C983 1.399 . S
C983 H969 0.929 . S
C983 C982 1.399 . S
C983 C984 1.385 . S
C984 H970 0.931 . S
C984 C983 1.385 . S
C984 C985 1.389 1_655 S
C985 C984 1.389 1_455 S
C985 C986 1.387 . S
C986 H971 0.930 . S
C986 C981 1.390 . S
C986 C985 1.387 . S
H987 C999 0.930 . S
H988 C1001 0.930 . S
H989 C1002 0.930 . S
H990 C1006 0.959 . S
H991 C1006 0.959 . S
H992 C1006 0.961 1_455 S
H993 C1007 0.960 . S
H994 C1007 0.961 1_655 S
H995 C1007 0.959 . S
H996 C1010 0.929 . S
H997 C1011 0.931 . S
H998 C1013 0.930 1_545 S
C999 H987 0.930 . S
C999 C1000 1.399 . S
C999 C1004 1.399 . S
C1000 C999 1.399 . S
C1000 C1001 1.376 1_545 S
C1001 H988 0.930 . S
C1001 C1000 1.376 1_565 S
C1001 C1002 1.388 . S
C1002 H989 0.930 . S
C1002 C1001 1.388 . S
C1002 C1003 1.390 . S
C1003 C1002 1.390 . S
C1003 C1004 1.394 1_565 S
C1003 C1009 1.465 1_455 S
C1004 C999 1.399 . S
C1004 C1003 1.394 1_545 S
C1004 C1005 1.516 1_455 S
C1005 C1004 1.516 1_655 S
C1005 C1006 1.502 . S
C1005 C1007 1.561 1_645 S
C1005 C1008 1.526 1_545 S
C1006 H990 0.959 . S
C1006 H991 0.959 . S
C1006 H992 0.961 1_655 S
C1006 C1005 1.502 . S
C1007 H993 0.960 . S
C1007 H994 0.961 1_455 S
C1007 H995 0.959 . S
C1007 C1005 1.561 1_465 S
C1008 C1005 1.526 1_565 S
C1008 C1009 1.396 . S
C1008 C1013 1.390 . S
C1009 C1003 1.465 1_655 S
C1009 C1008 1.396 . S
C1009 C1010 1.399 . S
C1010 H996 0.929 . S
C1010 C1009 1.399 . S
C1010 C1011 1.385 . S
C1011 H997 0.931 . S
C1011 C1010 1.385 . S
C1011 C1012 1.389 . S
C1012 C1011 1.389 . S
C1012 C1013 1.387 . S
C1013 H998 0.930 1_565 S
C1013 C1008 1.390 . S
C1013 C1012 1.387 . S
H1014 C1026 0.930 . S
H1015 C1028 0.930 . S
H1016 C1029 0.930 . S
H1017 C1033 0.959 . S
H1018 C1033 0.959 . S
H1019 C1033 0.961 . S
H1020 C1034 0.960 . S
H1021 C1034 0.961 . S
H1022 C1034 0.959 . S
H1023 C1037 0.929 . S
H1024 C1038 0.931 . S
H1025 C1040 0.930 . S
C1026 H1014 0.930 . S
C1026 C1027 1.399 . S
C1026 C1031 1.399 . S
C1027 C1026 1.399 . S
C1027 C1028 1.376 . S
C1028 H1015 0.930 . S
C1028 C1027 1.376 . S
C1028 C1029 1.388 1_455 S
C1029 H1016 0.930 . S
C1029 C1028 1.388 1_655 S
C1029 C1030 1.390 . S
C1030 C1029 1.390 . S
C1030 C1031 1.394 1_655 S
C1030 C1036 1.465 . S
C1031 C1026 1.399 . S
C1031 C1030 1.394 1_455 S
C1031 C1032 1.515 1_455 S
C1032 C1031 1.515 1_655 S
C1032 C1033 1.485 1_655 S
C1032 C1034 1.580 . S
C1032 C1035 1.528 . S
C1033 H1017 0.959 . S
C1033 H1018 0.959 . S
C1033 H1019 0.961 . S
C1033 C1032 1.485 1_455 S
C1034 H1020 0.960 . S
C1034 H1021 0.961 . S
C1034 H1022 0.959 . S
C1034 C1032 1.580 . S
C1035 C1032 1.528 . S
C1035 C1036 1.396 . S
C1035 C1040 1.390 . S
C1036 C1030 1.465 . S
C1036 C1035 1.396 . S
C1036 C1037 1.399 . S
C1037 H1023 0.929 . S
C1037 C1036 1.399 . S
C1037 C1038 1.385 . S
C1038 H1024 0.931 . S
C1038 C1037 1.385 . S
C1038 C1039 1.389 . S
C1039 C1038 1.389 . S
C1039 C1040 1.387 . S
C1040 H1025 0.930 . S
C1040 C1035 1.390 . S
C1040 C1039 1.387 . S
H1041 C1053 0.930 . S
H1042 C1055 0.930 . S
H1043 C1056 0.930 . S
H1044 C1060 0.959 . S
H1045 C1060 0.959 . S
H1046 C1060 0.961 . S
H1047 C1061 0.960 . S
H1048 C1061 0.961 . S
H1049 C1061 0.959 . S
H1050 C1064 0.929 . S
H1051 C1065 0.931 . S
H1052 C1067 0.930 . S
C1053 H1041 0.930 . S
C1053 C1054 1.399 1_545 S
C1053 C1058 1.399 . S
C1054 C1053 1.399 1_565 S
C1054 C1055 1.376 . S
C1055 H1042 0.930 . S
C1055 C1054 1.376 . S
C1055 C1056 1.388 . S
C1056 H1043 0.930 . S
C1056 C1055 1.388 . S
C1056 C1057 1.390 . S
C1057 C1056 1.390 . S
C1057 C1058 1.388 1_565 S
C1057 C1063 1.465 . S
C1058 C1053 1.399 . S
C1058 C1057 1.388 1_545 S
C1058 C1059 1.521 . S
C1059 C1058 1.521 . S
C1059 C1060 1.502 . S
C1059 C1061 1.561 1_545 S
C1059 C1062 1.526 . S
C1060 H1044 0.959 . S
C1060 H1045 0.959 . S
C1060 H1046 0.961 . S
C1060 C1059 1.502 . S
C1061 H1047 0.960 . S
C1061 H1048 0.961 . S
C1061 H1049 0.959 . S
C1061 C1059 1.561 1_565 S
C1062 C1059 1.526 . S
C1062 C1063 1.396 1_545 S
C1062 C1067 1.390 . S
C1063 C1057 1.465 . S
C1063 C1062 1.396 1_565 S
C1063 C1064 1.399 . S
C1064 H1050 0.929 . S
C1064 C1063 1.399 . S
C1064 C1065 1.385 . S
C1065 H1051 0.931 . S
C1065 C1064 1.385 . S
C1065 C1066 1.389 1_565 S
C1066 C1065 1.389 1_545 S
C1066 C1067 1.387 . S
C1067 H1052 0.930 . S
C1067 C1062 1.390 . S
C1067 C1066 1.387 . S
H1068 C1080 0.930 . S
H1069 C1082 0.930 . S
H1070 C1083 0.930 . S
H1071 C1087 0.959 . S
H1072 C1087 0.959 . S
H1073 C1087 0.961 . S
H1074 C1088 0.960 . S
H1075 C1088 0.961 . S
H1076 C1088 0.959 . S
H1077 C1091 0.929 . S
H1078 C1092 0.931 . S
H1079 C1094 0.930 . S
C1080 H1068 0.930 . S
C1080 C1081 1.399 . S
C1080 C1085 1.399 . S
C1081 C1080 1.399 . S
C1081 C1082 1.376 . S
C1082 H1069 0.930 . S
C1082 C1081 1.376 . S
C1082 C1083 1.388 . S
C1083 H1070 0.930 . S
C1083 C1082 1.388 . S
C1083 C1084 1.390 . S
C1084 C1083 1.390 . S
C1084 C1085 1.394 . S
C1084 C1090 1.465 . S
C1085 C1080 1.399 . S
C1085 C1084 1.394 . S
C1085 C1086 1.516 . S
C1086 C1085 1.516 . S
C1086 C1087 1.502 . S
C1086 C1088 1.561 . S
C1086 C1089 1.526 . S
C1087 H1071 0.959 . S
C1087 H1072 0.959 . S
C1087 H1073 0.961 . S
C1087 C1086 1.502 . S
C1088 H1074 0.960 . S
C1088 H1075 0.961 . S
C1088 H1076 0.959 . S
C1088 C1086 1.561 . S
C1089 C1086 1.526 . S
C1089 C1090 1.396 . S
C1089 C1094 1.390 . S
C1090 C1084 1.465 . S
C1090 C1089 1.396 . S
C1090 C1091 1.399 . S
C1091 H1077 0.929 . S
C1091 C1090 1.399 . S
C1091 C1092 1.385 . S
C1092 H1078 0.931 . S
C1092 C1091 1.385 . S
C1092 C1093 1.389 . S
C1093 C1092 1.389 . S
C1093 C1094 1.387 . S
C1094 H1079 0.930 . S
C1094 C1089 1.390 . S
C1094 C1093 1.387 . S
H1095 C1107 0.930 . S
H1096 C1109 0.930 . S
H1097 C1110 0.930 . S
H1098 C1114 0.959 . S
H1099 C1114 0.959 . S
H1100 C1114 0.961 . S
H1101 C1115 0.960 . S
H1102 C1115 0.961 . S
H1103 C1115 0.959 . S
H1104 C1118 0.929 . S
H1105 C1119 0.931 . S
H1106 C1121 0.930 . S
C1107 H1095 0.930 . S
C1107 C1108 1.399 . S
C1107 C1112 1.399 . S
C1108 C1107 1.399 . S
C1108 C1109 1.376 . S
C1109 H1096 0.930 . S
C1109 C1108 1.376 . S
C1109 C1110 1.388 . S
C1110 H1097 0.930 . S
C1110 C1109 1.388 . S
C1110 C1111 1.390 . S
C1111 C1110 1.390 . S
C1111 C1112 1.394 . S
C1111 C1117 1.465 . S
C1112 C1107 1.399 . S
C1112 C1111 1.394 . S
C1112 C1113 1.516 . S
C1113 C1112 1.516 . S
C1113 C1114 1.502 . S
C1113 C1115 1.561 . S
C1113 C1116 1.526 . S
C1114 H1098 0.959 . S
C1114 H1099 0.959 . S
C1114 H1100 0.961 . S
C1114 C1113 1.502 . S
C1115 H1101 0.960 . S
C1115 H1102 0.961 . S
C1115 H1103 0.959 . S
C1115 C1113 1.561 . S
C1116 C1113 1.526 . S
C1116 C1117 1.396 . S
C1116 C1121 1.390 . S
C1117 C1111 1.465 . S
C1117 C1116 1.396 . S
C1117 C1118 1.399 . S
C1118 H1104 0.929 . S
C1118 C1117 1.399 . S
C1118 C1119 1.385 . S
C1119 H1105 0.931 . S
C1119 C1118 1.385 . S
C1119 C1120 1.389 . S
C1120 C1119 1.389 . S
C1120 C1121 1.387 . S
C1121 H1106 0.930 . S
C1121 C1116 1.390 . S
C1121 C1120 1.387 . S
H1122 C1134 0.930 . S
H1123 C1136 0.930 . S
H1124 C1137 0.930 . S
H1125 C1141 0.959 . S
H1126 C1141 0.959 1_545 S
H1127 C1141 0.961 . S
H1128 C1142 0.960 1_565 S
H1129 C1142 0.961 . S
H1130 C1142 0.959 . S
H1131 C1145 0.929 . S
H1132 C1146 0.931 . S
H1133 C1148 0.930 . S
C1134 H1122 0.930 . S
C1134 C1135 1.399 . S
C1134 C1139 1.399 . S
C1135 C1134 1.399 . S
C1135 C1136 1.376 . S
C1136 H1123 0.930 . S
C1136 C1135 1.376 . S
C1136 C1137 1.388 . S
C1137 H1124 0.930 . S
C1137 C1136 1.388 . S
C1137 C1138 1.390 . S
C1138 C1137 1.390 . S
C1138 C1139 1.394 . S
C1138 C1144 1.465 1_565 S
C1139 C1134 1.399 . S
C1139 C1138 1.394 . S
C1139 C1140 1.532 . S
C1140 C1139 1.532 . S
C1140 C1141 1.504 . S
C1140 C1142 1.560 1_565 S
C1140 C1143 1.509 1_565 S
C1141 H1125 0.959 . S
C1141 H1126 0.959 1_565 S
C1141 H1127 0.961 . S
C1141 C1140 1.504 . S
C1142 H1128 0.960 1_545 S
C1142 H1129 0.961 . S
C1142 H1130 0.959 . S
C1142 C1140 1.560 1_545 S
C1143 C1140 1.509 1_545 S
C1143 C1144 1.396 . S
C1143 C1148 1.390 . S
C1144 C1138 1.465 1_545 S
C1144 C1143 1.396 . S
C1144 C1145 1.399 . S
C1145 H1131 0.929 . S
C1145 C1144 1.399 . S
C1145 C1146 1.385 . S
C1146 H1132 0.931 . S
C1146 C1145 1.385 . S
C1146 C1147 1.389 . S
C1147 C1146 1.389 . S
C1147 C1148 1.387 . S
C1148 H1133 0.930 . S
C1148 C1143 1.390 . S
C1148 C1147 1.387 . S
H1149 C1161 0.930 . S
H1150 C1163 0.930 . S
H1151 C1164 0.930 . S
H1152 C1168 0.959 . S
H1153 C1168 0.959 1_655 S
H1154 C1168 0.961 . S
H1155 C1169 0.960 1_455 S
H1156 C1169 0.961 . S
H1157 C1169 0.959 . S
H1158 C1172 0.929 . S
H1159 C1173 0.931 . S
H1160 C1175 0.930 . S
C1161 H1149 0.930 . S
C1161 C1162 1.399 . S
C1161 C1166 1.399 . S
C1162 C1161 1.399 . S
C1162 C1163 1.376 . S
C1163 H1150 0.930 . S
C1163 C1162 1.376 . S
C1163 C1164 1.388 . S
C1164 H1151 0.930 . S
C1164 C1163 1.388 . S
C1164 C1165 1.390 . S
C1165 C1164 1.390 . S
C1165 C1166 1.394 . S
C1165 C1171 1.465 1_455 S
C1166 C1161 1.399 . S
C1166 C1165 1.394 . S
C1166 C1167 1.516 . S
C1167 C1166 1.516 . S
C1167 C1168 1.502 . S
C1167 C1169 1.561 1_455 S
C1167 C1170 1.526 1_455 S
C1168 H1152 0.959 . S
C1168 H1153 0.959 1_455 S
C1168 H1154 0.961 . S
C1168 C1167 1.502 . S
C1169 H1155 0.960 1_655 S
C1169 H1156 0.961 . S
C1169 H1157 0.959 . S
C1169 C1167 1.561 1_655 S
C1170 C1167 1.526 1_655 S
C1170 C1171 1.396 . S
C1170 C1175 1.390 . S
C1171 C1165 1.465 1_655 S
C1171 C1170 1.396 . S
C1171 C1172 1.399 . S
C1172 H1158 0.929 . S
C1172 C1171 1.399 . S
C1172 C1173 1.385 . S
C1173 H1159 0.931 . S
C1173 C1172 1.385 . S
C1173 C1174 1.389 . S
C1174 C1173 1.389 . S
C1174 C1175 1.387 . S
C1175 H1160 0.930 . S
C1175 C1170 1.390 . S
C1175 C1174 1.387 . S
H1176 C1188 0.930 . S
H1177 C1190 0.930 . S
H1178 C1191 0.930 . S
H1179 C1195 0.959 . S
H1180 C1195 0.959 . S
H1181 C1195 0.961 . S
H1182 C1196 0.960 . S
H1183 C1196 0.961 . S
H1184 C1196 0.959 . S
H1185 C1199 0.929 . S
H1186 C1200 0.931 . S
H1187 C1202 0.930 1_455 S
C1188 H1176 0.930 . S
C1188 C1189 1.399 . S
C1188 C1193 1.399 . S
C1189 C1188 1.399 . S
C1189 C1190 1.376 1_455 S
C1190 H1177 0.930 . S
C1190 C1189 1.376 1_655 S
C1190 C1191 1.388 . S
C1191 H1178 0.930 . S
C1191 C1190 1.388 . S
C1191 C1192 1.390 . S
C1192 C1191 1.390 . S
C1192 C1193 1.394 1_655 S
C1192 C1198 1.465 . S
C1193 C1188 1.399 . S
C1193 C1192 1.394 1_455 S
C1193 C1194 1.516 . S
C1194 C1193 1.516 . S
C1194 C1195 1.502 . S
C1194 C1196 1.561 1_455 S
C1194 C1197 1.526 1_455 S
C1195 H1179 0.959 . S
C1195 H1180 0.959 . S
C1195 H1181 0.961 . S
C1195 C1194 1.502 . S
C1196 H1182 0.960 . S
C1196 H1183 0.961 . S
C1196 H1184 0.959 . S
C1196 C1194 1.561 1_655 S
C1197 C1194 1.526 1_655 S
C1197 C1198 1.396 . S
C1197 C1202 1.390 . S
C1198 C1192 1.465 . S
C1198 C1197 1.396 . S
C1198 C1199 1.399 . S
C1199 H1185 0.929 . S
C1199 C1198 1.399 . S
C1199 C1200 1.385 . S
C1200 H1186 0.931 . S
C1200 C1199 1.385 . S
C1200 C1201 1.389 . S
C1201 C1200 1.389 . S
C1201 C1202 1.387 . S
C1202 H1187 0.930 1_655 S
C1202 C1197 1.390 . S
C1202 C1201 1.387 . S
H1203 C1215 0.930 . S
H1204 C1217 0.930 . S
H1205 C1218 0.930 . S
H1206 C1222 0.959 . S
H1207 C1222 0.959 . S
H1208 C1222 0.961 . S
H1209 C1223 0.960 1_545 S
H1210 C1223 0.961 1_545 S
H1211 C1223 0.959 . S
H1212 C1226 0.929 . S
H1213 C1227 0.931 . S
H1214 C1229 0.930 . S
C1215 H1203 0.930 . S
C1215 C1216 1.399 . S
C1215 C1220 1.399 . S
C1216 C1215 1.399 . S
C1216 C1217 1.376 1_545 S
C1217 H1204 0.930 . S
C1217 C1216 1.376 1_565 S
C1217 C1218 1.388 . S
C1218 H1205 0.930 . S
C1218 C1217 1.388 . S
C1218 C1219 1.390 . S
C1219 C1218 1.390 . S
C1219 C1220 1.394 1_565 S
C1219 C1225 1.465 . S
C1220 C1215 1.399 . S
C1220 C1219 1.394 1_545 S
C1220 C1221 1.516 . S
C1221 C1220 1.516 . S
C1221 C1222 1.502 . S
C1221 C1223 1.561 1_545 S
C1221 C1224 1.526 . S
C1222 H1206 0.959 . S
C1222 H1207 0.959 . S
C1222 H1208 0.961 . S
C1222 C1221 1.502 . S
C1223 H1209 0.960 1_565 S
C1223 H1210 0.961 1_565 S
C1223 H1211 0.959 . S
C1223 C1221 1.561 1_565 S
C1224 C1221 1.526 . S
C1224 C1225 1.396 1_545 S
C1224 C1229 1.390 . S
C1225 C1219 1.465 . S
C1225 C1224 1.396 1_565 S
C1225 C1226 1.399 . S
C1226 H1212 0.929 . S
C1226 C1225 1.399 . S
C1226 C1227 1.385 . S
C1227 H1213 0.931 . S
C1227 C1226 1.385 . S
C1227 C1228 1.389 . S
C1228 C1227 1.389 . S
C1228 C1229 1.387 1_565 S
C1229 H1214 0.930 . S
C1229 C1224 1.390 . S
C1229 C1228 1.387 1_545 S
H1230 C1242 0.930 . S
H1231 C1244 0.930 . S
H1232 C1245 0.930 . S
H1233 C1249 0.959 . S
H1234 C1249 0.959 1_565 S
H1235 C1249 0.961 . S
H1236 C1250 0.960 . S
H1237 C1250 0.961 1_565 S
H1238 C1250 0.959 . S
H1239 C1253 0.929 . S
H1240 C1254 0.931 . S
H1241 C1256 0.930 . S
C1242 H1230 0.930 . S
C1242 C1243 1.399 1_455 S
C1242 C1247 1.399 . S
C1243 C1242 1.399 1_655 S
C1243 C1244 1.376 . S
C1244 H1231 0.930 . S
C1244 C1243 1.376 . S
C1244 C1245 1.388 . S
C1245 H1232 0.930 . S
C1245 C1244 1.388 . S
C1245 C1246 1.390 . S
C1246 C1245 1.390 . S
C1246 C1247 1.394 1_655 S
C1246 C1252 1.465 1_545 S
C1247 C1242 1.399 . S
C1247 C1246 1.394 1_455 S
C1247 C1248 1.516 . S
C1248 C1247 1.516 . S
C1248 C1249 1.502 . S
C1248 C1250 1.561 . S
C1248 C1251 1.526 1_545 S
C1249 H1233 0.959 . S
C1249 H1234 0.959 1_545 S
C1249 H1235 0.961 . S
C1249 C1248 1.502 . S
C1250 H1236 0.960 . S
C1250 H1237 0.961 1_545 S
C1250 H1238 0.959 . S
C1250 C1248 1.561 . S
C1251 C1248 1.526 1_565 S
C1251 C1252 1.396 1_455 S
C1251 C1256 1.390 . S
C1252 C1246 1.465 1_565 S
C1252 C1251 1.396 1_655 S
C1252 C1253 1.399 . S
C1253 H1239 0.929 . S
C1253 C1252 1.399 . S
C1253 C1254 1.385 . S
C1254 H1240 0.931 . S
C1254 C1253 1.385 . S
C1254 C1255 1.389 1_655 S
C1255 C1254 1.389 1_455 S
C1255 C1256 1.387 . S
C1256 H1241 0.930 . S
C1256 C1251 1.390 . S
C1256 C1255 1.387 . S
H1257 C1269 0.930 . S
H1258 C1271 0.930 . S
H1259 C1272 0.930 . S
H1260 C1276 0.959 . S
H1261 C1276 0.959 . S
H1262 C1276 0.961 1_655 S
H1263 C1277 0.960 1_655 S
H1264 C1277 0.961 . S
H1265 C1277 0.959 1_645 S
H1266 C1280 0.929 . S
H1267 C1281 0.931 . S
H1268 C1283 0.930 . S
C1269 H1257 0.930 . S
C1269 C1270 1.399 . S
C1269 C1274 1.399 . S
C1270 C1269 1.399 . S
C1270 C1271 1.376 1_565 S
C1271 H1258 0.930 . S
C1271 C1270 1.376 1_545 S
C1271 C1272 1.388 . S
C1272 H1259 0.930 . S
C1272 C1271 1.388 . S
C1272 C1273 1.390 . S
C1273 C1272 1.390 . S
C1273 C1274 1.394 1_545 S
C1273 C1279 1.465 1_655 S
C1274 C1269 1.399 . S
C1274 C1273 1.394 1_565 S
C1274 C1275 1.516 1_655 S
C1275 C1274 1.516 1_455 S
C1275 C1276 1.502 . S
C1275 C1277 1.561 . S
C1275 C1278 1.526 . S
C1276 H1260 0.959 . S
C1276 H1261 0.959 . S
C1276 H1262 0.961 1_455 S
C1276 C1275 1.502 . S
C1277 H1263 0.960 1_455 S
C1277 H1264 0.961 . S
C1277 H1265 0.959 1_465 S
C1277 C1275 1.561 . S
C1278 C1275 1.526 . S
C1278 C1279 1.396 1_565 S
C1278 C1283 1.390 . S
C1279 C1273 1.465 1_455 S
C1279 C1278 1.396 1_545 S
C1279 C1280 1.399 . S
C1280 H1266 0.929 . S
C1280 C1279 1.399 . S
C1280 C1281 1.385 . S
C1281 H1267 0.931 . S
C1281 C1280 1.385 . S
C1281 C1282 1.389 . S
C1282 C1281 1.389 . S
C1282 C1283 1.387 1_545 S
C1283 H1268 0.930 . S
C1283 C1278 1.390 . S
C1283 C1282 1.387 1_565 S
H1284 C1296 0.930 . S
H1285 C1298 0.930 . S
H1286 C1299 0.930 . S
H1287 C1303 0.959 . S
H1288 C1303 0.959 1_565 S
H1289 C1303 0.961 . S
H1290 C1304 0.960 1_545 S
H1291 C1304 0.961 . S
H1292 C1304 0.959 . S
H1293 C1307 0.929 . S
H1294 C1308 0.931 . S
H1295 C1310 0.930 . S
C1296 H1284 0.930 . S
C1296 C1297 1.399 . S
C1296 C1301 1.399 . S
C1297 C1296 1.399 . S
C1297 C1298 1.376 . S
C1298 H1285 0.930 . S
C1298 C1297 1.376 . S
C1298 C1299 1.388 . S
C1299 H1286 0.930 . S
C1299 C1298 1.388 . S
C1299 C1300 1.390 . S
C1300 C1299 1.390 . S
C1300 C1301 1.394 . S
C1300 C1306 1.465 1_545 S
C1301 C1296 1.399 . S
C1301 C1300 1.394 . S
C1301 C1302 1.535 . S
C1302 C1301 1.535 . S
C1302 C1303 1.505 . S
C1302 C1304 1.559 1_545 S
C1302 C1305 1.506 1_545 S
C1303 H1287 0.959 . S
C1303 H1288 0.959 1_545 S
C1303 H1289 0.961 . S
C1303 C1302 1.505 . S
C1304 H1290 0.960 1_565 S
C1304 H1291 0.961 . S
C1304 H1292 0.959 . S
C1304 C1302 1.559 1_565 S
C1305 C1302 1.506 1_565 S
C1305 C1306 1.396 . S
C1305 C1310 1.390 . S
C1306 C1300 1.465 1_565 S
C1306 C1305 1.396 . S
C1306 C1307 1.399 . S
C1307 H1293 0.929 . S
C1307 C1306 1.399 . S
C1307 C1308 1.385 . S
C1308 H1294 0.931 . S
C1308 C1307 1.385 . S
C1308 C1309 1.389 . S
C1309 C1308 1.389 . S
C1309 C1310 1.387 . S
C1310 H1295 0.930 . S
C1310 C1305 1.390 . S
C1310 C1309 1.387 . S
H1311 C1323 0.930 . S
H1312 C1325 0.930 . S
H1313 C1326 0.930 . S
H1314 C1330 0.959 . S
H1315 C1330 0.959 1_455 S
H1316 C1330 0.961 . S
H1317 C1331 0.955 1_655 S
H1318 C1331 0.965 . S
H1319 C1331 0.960 . S
H1320 C1334 0.929 . S
H1321 C1335 0.931 . S
H1322 C1337 0.930 . S
C1323 H1311 0.930 . S
C1323 C1324 1.399 . S
C1323 C1328 1.399 . S
C1324 C1323 1.399 . S
C1324 C1325 1.376 . S
C1325 H1312 0.930 . S
C1325 C1324 1.376 . S
C1325 C1326 1.388 . S
C1326 H1313 0.930 . S
C1326 C1325 1.388 . S
C1326 C1327 1.390 . S
C1327 C1326 1.390 . S
C1327 C1328 1.394 . S
C1327 C1333 1.465 1_655 S
C1328 C1323 1.399 . S
C1328 C1327 1.394 . S
C1328 C1329 1.516 . S
C1329 C1328 1.516 . S
C1329 C1330 1.502 . S
C1329 C1331 1.561 1_655 S
C1329 C1332 1.526 1_655 S
C1330 H1314 0.959 . S
C1330 H1315 0.959 1_655 S
C1330 H1316 0.961 . S
C1330 C1329 1.502 . S
C1331 H1317 0.955 1_455 S
C1331 H1318 0.965 . S
C1331 H1319 0.960 . S
C1331 C1329 1.561 1_455 S
C1332 C1329 1.526 1_455 S
C1332 C1333 1.396 . S
C1332 C1337 1.390 . S
C1333 C1327 1.465 1_455 S
C1333 C1332 1.396 . S
C1333 C1334 1.399 . S
C1334 H1320 0.929 . S
C1334 C1333 1.399 . S
C1334 C1335 1.385 . S
C1335 H1321 0.931 . S
C1335 C1334 1.385 . S
C1335 C1336 1.389 . S
C1336 C1335 1.389 . S
C1336 C1337 1.387 . S
C1337 H1322 0.930 . S
C1337 C1332 1.390 . S
C1337 C1336 1.387 . S
H1338 C1350 0.930 . S
H1339 C1352 0.930 . S
H1340 C1353 0.930 . S
H1341 C1357 0.959 . S
H1342 C1357 0.959 . S
H1343 C1357 0.961 . S
H1344 C1358 0.960 . S
H1345 C1358 0.961 . S
H1346 C1358 0.959 . S
H1347 C1361 0.929 . S
H1348 C1362 0.931 . S
H1349 C1364 0.930 . S
C1350 H1338 0.930 . S
C1350 C1351 1.399 . S
C1350 C1355 1.399 . S
C1351 C1350 1.399 . S
C1351 C1352 1.376 . S
C1352 H1339 0.930 . S
C1352 C1351 1.376 . S
C1352 C1353 1.388 . S
C1353 H1340 0.930 . S
C1353 C1352 1.388 . S
C1353 C1354 1.390 . S
C1354 C1353 1.390 . S
C1354 C1355 1.394 . S
C1354 C1360 1.465 . S
C1355 C1350 1.399 . S
C1355 C1354 1.394 . S
C1355 C1356 1.516 . S
C1356 C1355 1.516 . S
C1356 C1357 1.502 . S
C1356 C1358 1.561 . S
C1356 C1359 1.526 . S
C1357 H1341 0.959 . S
C1357 H1342 0.959 . S
C1357 H1343 0.961 . S
C1357 C1356 1.502 . S
C1358 H1344 0.960 . S
C1358 H1345 0.961 . S
C1358 H1346 0.959 . S
C1358 C1356 1.561 . S
C1359 C1356 1.526 . S
C1359 C1360 1.396 . S
C1359 C1364 1.390 . S
C1360 C1354 1.465 . S
C1360 C1359 1.396 . S
C1360 C1361 1.399 . S
C1361 H1347 0.929 . S
C1361 C1360 1.399 . S
C1361 C1362 1.385 . S
C1362 H1348 0.931 . S
C1362 C1361 1.385 . S
C1362 C1363 1.389 . S
C1363 C1362 1.389 . S
C1363 C1364 1.387 . S
C1364 H1349 0.930 . S
C1364 C1359 1.390 . S
C1364 C1363 1.387 . S
H1365 C1377 0.930 . S
H1366 C1379 0.930 . S
H1367 C1380 0.930 . S
H1368 C1384 0.959 . S
H1369 C1384 0.959 . S
H1370 C1384 0.961 . S
H1371 C1385 0.960 . S
H1372 C1385 0.961 . S
H1373 C1385 0.959 . S
H1374 C1388 0.929 . S
H1375 C1389 0.931 . S
H1376 C1391 0.930 . S
C1377 H1365 0.930 . S
C1377 C1378 1.399 . S
C1377 C1382 1.399 . S
C1378 C1377 1.399 . S
C1378 C1379 1.376 . S
C1379 H1366 0.930 . S
C1379 C1378 1.376 . S
C1379 C1380 1.388 . S
C1380 H1367 0.930 . S
C1380 C1379 1.388 . S
C1380 C1381 1.390 . S
C1381 C1380 1.390 . S
C1381 C1382 1.394 . S
C1381 C1387 1.465 . S
C1382 C1377 1.399 . S
C1382 C1381 1.394 . S
C1382 C1383 1.516 . S
C1383 C1382 1.516 . S
C1383 C1384 1.502 . S
C1383 C1385 1.561 . S
C1383 C1386 1.526 . S
C1384 H1368 0.959 . S
C1384 H1369 0.959 . S
C1384 H1370 0.961 . S
C1384 C1383 1.502 . S
C1385 H1371 0.960 . S
C1385 H1372 0.961 . S
C1385 H1373 0.959 . S
C1385 C1383 1.561 . S
C1386 C1383 1.526 . S
C1386 C1387 1.396 . S
C1386 C1391 1.390 . S
C1387 C1381 1.465 . S
C1387 C1386 1.396 . S
C1387 C1388 1.399 . S
C1388 H1374 0.929 . S
C1388 C1387 1.399 . S
C1388 C1389 1.385 . S
C1389 H1375 0.931 . S
C1389 C1388 1.385 . S
C1389 C1390 1.389 . S
C1390 C1389 1.389 . S
C1390 C1391 1.387 . S
C1391 H1376 0.930 . S
C1391 C1386 1.390 . S
C1391 C1390 1.387 . S
H1392 C1404 0.930 . S
H1393 C1406 0.930 . S
H1394 C1407 0.930 . S
H1395 C1411 0.959 . S
H1396 C1411 0.959 . S
H1397 C1411 0.961 . S
H1398 C1412 0.960 . S
H1399 C1412 0.961 . S
H1400 C1412 0.959 . S
H1401 C1415 0.929 . S
H1402 C1416 0.931 . S
H1403 C1418 0.930 . S
C1404 H1392 0.930 . S
C1404 C1405 1.399 . S
C1404 C1409 1.399 . S
C1405 C1404 1.399 . S
C1405 C1406 1.376 . S
C1406 H1393 0.930 . S
C1406 C1405 1.376 . S
C1406 C1407 1.388 . S
C1407 H1394 0.930 . S
C1407 C1406 1.388 . S
C1407 C1408 1.390 . S
C1408 C1407 1.390 . S
C1408 C1409 1.394 . S
C1408 C1414 1.465 . S
C1409 C1404 1.399 . S
C1409 C1408 1.394 . S
C1409 C1410 1.516 . S
C1410 C1409 1.516 . S
C1410 C1411 1.502 . S
C1410 C1412 1.561 . S
C1410 C1413 1.526 . S
C1411 H1395 0.959 . S
C1411 H1396 0.959 . S
C1411 H1397 0.961 . S
C1411 C1410 1.502 . S
C1412 H1398 0.960 . S
C1412 H1399 0.961 . S
C1412 H1400 0.959 . S
C1412 C1410 1.561 . S
C1413 C1410 1.526 . S
C1413 C1414 1.396 . S
C1413 C1418 1.390 . S
C1414 C1408 1.465 . S
C1414 C1413 1.396 . S
C1414 C1415 1.399 . S
C1415 H1401 0.929 . S
C1415 C1414 1.399 . S
C1415 C1416 1.385 . S
C1416 H1402 0.931 . S
C1416 C1415 1.385 . S
C1416 C1417 1.389 . S
C1417 C1416 1.389 . S
C1417 C1418 1.387 . S
C1418 H1403 0.930 . S
C1418 C1413 1.390 . S
C1418 C1417 1.387 . S
H1419 C1431 0.930 . S
H1420 C1433 0.930 . S
H1421 C1434 0.930 . S
H1422 C1438 0.959 . S
H1423 C1438 0.959 . S
H1424 C1438 0.961 . S
H1425 C1439 0.960 . S
H1426 C1439 0.961 . S
H1427 C1439 0.959 . S
H1428 C1442 0.929 . S
H1429 C1443 0.931 . S
H1430 C1445 0.930 . S
C1431 H1419 0.930 . S
C1431 C1432 1.399 . S
C1431 C1436 1.399 . S
C1432 C1431 1.399 . S
C1432 C1433 1.376 . S
C1433 H1420 0.930 . S
C1433 C1432 1.376 . S
C1433 C1434 1.388 . S
C1434 H1421 0.930 . S
C1434 C1433 1.388 . S
C1434 C1435 1.390 . S
C1435 C1434 1.390 . S
C1435 C1436 1.394 . S
C1435 C1441 1.465 . S
C1436 C1431 1.399 . S
C1436 C1435 1.394 . S
C1436 C1437 1.516 . S
C1437 C1436 1.516 . S
C1437 C1438 1.502 . S
C1437 C1439 1.561 . S
C1437 C1440 1.526 . S
C1438 H1422 0.959 . S
C1438 H1423 0.959 . S
C1438 H1424 0.961 . S
C1438 C1437 1.502 . S
C1439 H1425 0.960 . S
C1439 H1426 0.961 . S
C1439 H1427 0.959 . S
C1439 C1437 1.561 . S
C1440 C1437 1.526 . S
C1440 C1441 1.396 . S
C1440 C1445 1.390 . S
C1441 C1435 1.465 . S
C1441 C1440 1.396 . S
C1441 C1442 1.399 . S
C1442 H1428 0.929 . S
C1442 C1441 1.399 . S
C1442 C1443 1.385 . S
C1443 H1429 0.931 . S
C1443 C1442 1.385 . S
C1443 C1444 1.389 . S
C1444 C1443 1.389 . S
C1444 C1445 1.387 . S
C1445 H1430 0.930 . S
C1445 C1440 1.390 . S
C1445 C1444 1.387 . S
H1446 C1458 0.930 . S
H1447 C1460 0.930 . S
H1448 C1461 0.930 . S
H1449 C1465 0.959 . S
H1450 C1465 0.959 . S
H1451 C1465 0.961 . S
H1452 C1466 0.960 . S
H1453 C1466 0.961 . S
H1454 C1466 0.959 . S
H1455 C1469 0.929 . S
H1456 C1470 0.931 . S
H1457 C1472 0.930 . S
C1458 H1446 0.930 . S
C1458 C1459 1.399 . S
C1458 C1463 1.399 . S
C1459 C1458 1.399 . S
C1459 C1460 1.376 . S
C1460 H1447 0.930 . S
C1460 C1459 1.376 . S
C1460 C1461 1.388 . S
C1461 H1448 0.930 . S
C1461 C1460 1.388 . S
C1461 C1462 1.390 . S
C1462 C1461 1.390 . S
C1462 C1463 1.394 . S
C1462 C1468 1.465 . S
C1463 C1458 1.399 . S
C1463 C1462 1.394 . S
C1463 C1464 1.516 . S
C1464 C1463 1.516 . S
C1464 C1465 1.502 . S
C1464 C1466 1.561 . S
C1464 C1467 1.526 . S
C1465 H1449 0.959 . S
C1465 H1450 0.959 . S
C1465 H1451 0.961 . S
C1465 C1464 1.502 . S
C1466 H1452 0.960 . S
C1466 H1453 0.961 . S
C1466 H1454 0.959 . S
C1466 C1464 1.561 . S
C1467 C1464 1.526 . S
C1467 C1468 1.396 . S
C1467 C1472 1.390 . S
C1468 C1462 1.465 . S
C1468 C1467 1.396 . S
C1468 C1469 1.399 . S
C1469 H1455 0.929 . S
C1469 C1468 1.399 . S
C1469 C1470 1.385 . S
C1470 H1456 0.931 . S
C1470 C1469 1.385 . S
C1470 C1471 1.389 . S
C1471 C1470 1.389 . S
C1471 C1472 1.387 . S
C1472 H1457 0.930 . S
C1472 C1467 1.390 . S
C1472 C1471 1.387 . S
H1473 C1485 0.930 . S
H1474 C1487 0.930 . S
H1475 C1488 0.930 . S
H1476 C1492 0.959 . S
H1477 C1492 0.959 . S
H1478 C1492 0.961 . S
H1479 C1493 0.960 . S
H1480 C1493 0.961 . S
H1481 C1493 0.959 . S
H1482 C1496 0.929 . S
H1483 C1497 0.931 . S
H1484 C1499 0.930 . S
C1485 H1473 0.930 . S
C1485 C1486 1.399 . S
C1485 C1490 1.399 . S
C1486 C1485 1.399 . S
C1486 C1487 1.376 . S
C1487 H1474 0.930 . S
C1487 C1486 1.376 . S
C1487 C1488 1.388 . S
C1488 H1475 0.930 . S
C1488 C1487 1.388 . S
C1488 C1489 1.390 . S
C1489 C1488 1.390 . S
C1489 C1490 1.394 . S
C1489 C1495 1.465 . S
C1490 C1485 1.399 . S
C1490 C1489 1.394 . S
C1490 C1491 1.516 . S
C1491 C1490 1.516 . S
C1491 C1492 1.502 . S
C1491 C1493 1.561 . S
C1491 C1494 1.526 . S
C1492 H1476 0.959 . S
C1492 H1477 0.959 . S
C1492 H1478 0.961 . S
C1492 C1491 1.502 . S
C1493 H1479 0.960 . S
C1493 H1480 0.961 . S
C1493 H1481 0.959 . S
C1493 C1491 1.561 . S
C1494 C1491 1.526 . S
C1494 C1495 1.396 . S
C1494 C1499 1.390 . S
C1495 C1489 1.465 . S
C1495 C1494 1.396 . S
C1495 C1496 1.399 . S
C1496 H1482 0.929 . S
C1496 C1495 1.399 . S
C1496 C1497 1.385 . S
C1497 H1483 0.931 . S
C1497 C1496 1.385 . S
C1497 C1498 1.389 . S
C1498 C1497 1.389 . S
C1498 C1499 1.387 . S
C1499 H1484 0.930 . S
C1499 C1494 1.390 . S
C1499 C1498 1.387 . S
H1500 C1512 0.930 . S
H1501 C1514 0.930 . S
H1502 C1515 0.930 . S
H1503 C1519 0.959 . S
H1504 C1519 0.959 . S
H1505 C1519 0.961 . S
H1506 C1520 0.960 . S
H1507 C1520 0.961 . S
H1508 C1520 0.959 . S
H1509 C1523 0.929 . S
H1510 C1524 0.931 . S
H1511 C1526 0.930 . S
C1512 H1500 0.930 . S
C1512 C1513 1.399 . S
C1512 C1517 1.399 . S
C1513 C1512 1.399 . S
C1513 C1514 1.376 . S
C1514 H1501 0.930 . S
C1514 C1513 1.376 . S
C1514 C1515 1.388 . S
C1515 H1502 0.930 . S
C1515 C1514 1.388 . S
C1515 C1516 1.390 . S
C1516 C1515 1.390 . S
C1516 C1517 1.394 . S
C1516 C1522 1.465 . S
C1517 C1512 1.399 . S
C1517 C1516 1.394 . S
C1517 C1518 1.516 . S
C1518 C1517 1.516 . S
C1518 C1519 1.502 . S
C1518 C1520 1.561 . S
C1518 C1521 1.526 . S
C1519 H1503 0.959 . S
C1519 H1504 0.959 . S
C1519 H1505 0.961 . S
C1519 C1518 1.502 . S
C1520 H1506 0.960 . S
C1520 H1507 0.961 . S
C1520 H1508 0.959 . S
C1520 C1518 1.561 . S
C1521 C1518 1.526 . S
C1521 C1522 1.396 . S
C1521 C1526 1.390 . S
C1522 C1516 1.465 . S
C1522 C1521 1.396 . S
C1522 C1523 1.399 . S
C1523 H1509 0.929 . S
C1523 C1522 1.399 . S
C1523 C1524 1.385 . S
C1524 H1510 0.931 . S
C1524 C1523 1.385 . S
C1524 C1525 1.389 . S
C1525 C1524 1.389 . S
C1525 C1526 1.387 . S
C1526 H1511 0.930 . S
C1526 C1521 1.390 . S
C1526 C1525 1.387 . S
H1527 C1539 0.930 . S
H1528 C1541 0.930 . S
H1529 C1542 0.930 . S
H1530 C1546 0.959 . S
H1531 C1546 0.959 . S
H1532 C1546 0.961 . S
H1533 C1547 0.960 . S
H1534 C1547 0.961 . S
H1535 C1547 0.959 . S
H1536 C1550 0.929 . S
H1537 C1551 0.931 . S
H1538 C1553 0.930 . S
C1539 H1527 0.930 . S
C1539 C1540 1.399 . S
C1539 C1544 1.399 . S
C1540 C1539 1.399 . S
C1540 C1541 1.376 . S
C1541 H1528 0.930 . S
C1541 C1540 1.376 . S
C1541 C1542 1.388 . S
C1542 H1529 0.930 . S
C1542 C1541 1.388 . S
C1542 C1543 1.390 . S
C1543 C1542 1.390 . S
C1543 C1544 1.394 . S
C1543 C1549 1.465 . S
C1544 C1539 1.399 . S
C1544 C1543 1.394 . S
C1544 C1545 1.516 . S
C1545 C1544 1.516 . S
C1545 C1546 1.502 . S
C1545 C1547 1.561 . S
C1545 C1548 1.526 . S
C1546 H1530 0.959 . S
C1546 H1531 0.959 . S
C1546 H1532 0.961 . S
C1546 C1545 1.502 . S
C1547 H1533 0.960 . S
C1547 H1534 0.961 . S
C1547 H1535 0.959 . S
C1547 C1545 1.561 . S
C1548 C1545 1.526 . S
C1548 C1549 1.396 . S
C1548 C1553 1.390 . S
C1549 C1543 1.465 . S
C1549 C1548 1.396 . S
C1549 C1550 1.399 . S
C1550 H1536 0.929 . S
C1550 C1549 1.399 . S
C1550 C1551 1.385 . S
C1551 H1537 0.931 . S
C1551 C1550 1.385 . S
C1551 C1552 1.389 . S
C1552 C1551 1.389 . S
C1552 C1553 1.387 . S
C1553 H1538 0.930 . S
C1553 C1548 1.390 . S
C1553 C1552 1.387 . S
H1554 C1566 0.930 . S
H1555 C1568 0.930 . S
H1556 C1569 0.930 . S
H1557 C1573 0.959 . S
H1558 C1573 0.959 . S
H1559 C1573 0.961 . S
H1560 C1574 0.960 . S
H1561 C1574 0.961 . S
H1562 C1574 0.959 . S
H1563 C1577 0.929 . S
H1564 C1578 0.931 . S
H1565 C1580 0.930 . S
C1566 H1554 0.930 . S
C1566 C1567 1.399 . S
C1566 C1571 1.399 . S
C1567 C1566 1.399 . S
C1567 C1568 1.376 . S
C1568 H1555 0.930 . S
C1568 C1567 1.376 . S
C1568 C1569 1.388 . S
C1569 H1556 0.930 . S
C1569 C1568 1.388 . S
C1569 C1570 1.390 . S
C1570 C1569 1.390 . S
C1570 C1571 1.394 . S
C1570 C1576 1.465 . S
C1571 C1566 1.399 . S
C1571 C1570 1.394 . S
C1571 C1572 1.516 . S
C1572 C1571 1.516 . S
C1572 C1573 1.502 . S
C1572 C1574 1.561 . S
C1572 C1575 1.526 . S
C1573 H1557 0.959 . S
C1573 H1558 0.959 . S
C1573 H1559 0.961 . S
C1573 C1572 1.502 . S
C1574 H1560 0.960 . S
C1574 H1561 0.961 . S
C1574 H1562 0.959 . S
C1574 C1572 1.561 . S
C1575 C1572 1.526 . S
C1575 C1576 1.396 . S
C1575 C1580 1.390 . S
C1576 C1570 1.465 . S
C1576 C1575 1.396 . S
C1576 C1577 1.399 . S
C1577 H1563 0.929 . S
C1577 C1576 1.399 . S
C1577 C1578 1.385 . S
C1578 H1564 0.931 . S
C1578 C1577 1.385 . S
C1578 C1579 1.389 . S
C1579 C1578 1.389 . S
C1579 C1580 1.387 . S
C1580 H1565 0.930 . S
C1580 C1575 1.390 . S
C1580 C1579 1.387 . S
H1581 C1593 0.930 . S
H1582 C1595 0.930 . S
H1583 C1596 0.930 . S
H1584 C1600 0.959 . S
H1585 C1600 0.959 . S
H1586 C1600 0.961 . S
H1587 C1601 0.960 . S
H1588 C1601 0.961 . S
H1589 C1601 0.959 . S
H1590 C1604 0.929 . S
H1591 C1605 0.931 . S
H1592 C1607 0.930 . S
C1593 H1581 0.930 . S
C1593 C1594 1.399 . S
C1593 C1598 1.399 . S
C1594 C1593 1.399 . S
C1594 C1595 1.376 . S
C1595 H1582 0.930 . S
C1595 C1594 1.376 . S
C1595 C1596 1.388 . S
C1596 H1583 0.930 . S
C1596 C1595 1.388 . S
C1596 C1597 1.390 . S
C1597 C1596 1.390 . S
C1597 C1598 1.394 . S
C1597 C1603 1.465 . S
C1598 C1593 1.399 . S
C1598 C1597 1.394 . S
C1598 C1599 1.516 . S
C1599 C1598 1.516 . S
C1599 C1600 1.502 . S
C1599 C1601 1.561 . S
C1599 C1602 1.526 . S
C1600 H1584 0.959 . S
C1600 H1585 0.959 . S
C1600 H1586 0.961 . S
C1600 C1599 1.502 . S
C1601 H1587 0.960 . S
C1601 H1588 0.961 . S
C1601 H1589 0.959 . S
C1601 C1599 1.561 . S
C1602 C1599 1.526 . S
C1602 C1603 1.396 . S
C1602 C1607 1.390 . S
C1603 C1597 1.465 . S
C1603 C1602 1.396 . S
C1603 C1604 1.399 . S
C1604 H1590 0.929 . S
C1604 C1603 1.399 . S
C1604 C1605 1.385 . S
C1605 H1591 0.931 . S
C1605 C1604 1.385 . S
C1605 C1606 1.389 . S
C1606 C1605 1.389 . S
C1606 C1607 1.387 . S
C1607 H1592 0.930 . S
C1607 C1602 1.390 . S
C1607 C1606 1.387 . S
C541 C8 0.966 . S
C553 N377 0.984 . S
C568 N278 1.015 . S
C580 C41 1.019 . S
C595 N311 1.016 . S
C607 C74 1.005 . S
C622 N344 1.019 . S
C634 C107 1.025 . S
C649 N179 0.994 . S
C661 C140 1.002 . S
C676 N212 1.017 . S
C688 C173 1.022 . S
C703 C206 0.968 . S
C715 N245 0.991 . S
C730 C239 0.978 . S
C742 N146 0.991 . S
C757 C272 1.006 . S
C769 N113 0.996 . S
C784 C305 0.968 . S
C796 N14 0.984 . S
C811 N47 0.987 . S
C823 C338 0.990 . S
C838 C371 1.007 . S
C850 N80 1.009 . S
C865 N443 1.016 . S
C877 C404 1.005 . S
C892 N476 1.016 . S
C904 C437 1.020 . S
C919 N509 1.018 . S
C931 C470 1.009 . S
C946 C503 0.973 . S
C958 N410 0.986 . S
C973 C17 1.534 . S
C985 C83 1.475 . S
C1000 C50 1.480 . S
C1012 C116 1.509 . S
C1027 C215 1.495 . S
C1039 C149 1.518 . S
C1054 C248 1.531 . S
C1066 C182 1.496 . S
C1081 C347 1.488 . S
C1093 C281 1.524 . S
C1108 C314 1.480 . S
C1120 C380 1.509 . S
C1135 C413 1.518 . S
C1147 C479 1.487 . S
C1162 C512 1.531 . S
C1174 C446 1.495 . S
C1189 C94 0.485 . S
C1201 C28 0.565 . S
C1216 C61 0.638 . S
C1228 C127 0.755 . S
C1243 C160 0.653 . S
C1255 C226 0.544 . S
C1270 C259 0.625 . S
C1282 C193 0.754 . S
C1297 C358 0.758 . S
C1309 C292 0.709 . S
C1324 C325 0.637 . S
C1336 C391 0.485 . S
C1351 C424 0.486 . S
C1363 C490 0.567 . S
C1378 C523 0.671 . S
C1390 C457 0.755 . S
C1405 N467 1.463 . S
C1417 N5 1.519 . S
C1432 N38 1.530 . S
C1444 N500 1.465 . S
C1459 N71 1.533 . S
C1471 N401 1.478 . S
C1486 N104 1.475 . S
C1498 N434 1.517 . S
C1513 N137 1.473 . S
C1525 N335 1.500 . S
C1540 N368 1.527 . S
C1552 N170 1.472 . S
C1567 N203 1.531 . S
C1579 N269 1.484 . S
C1594 N236 1.522 . S
C1606 N302 1.478 . S
