# Generated by pormake.
# Topology wgo, (5)-cn, num edge types: 1
# Building blocks:
#     Node 0, Type 0, BuildingBlock: BEQFEK_clean_sbu_0, # of connection points: 5
#     Node 1, Type 0, BuildingBlock: BEQFEK_clean_sbu_0, # of connection points: 5
#     Node 2, Type 0, BuildingBlock: BEQFEK_clean_sbu_0, # of connection points: 5
#     Node 3, Type 0, BuildingBlock: BEQFEK_clean_sbu_0, # of connection points: 5
#     Node 4, Type 0, BuildingBlock: BEQFEK_clean_sbu_0, # of connection points: 5
#     Node 5, Type 0, BuildingBlock: BEQFEK_clean_sbu_0, # of connection points: 5
#     Node 6, Type 0, BuildingBlock: BEQFEK_clean_sbu_0, # of connection points: 5
#     Node 7, Type 0, BuildingBlock: BEQFEK_clean_sbu_0, # of connection points: 5
#     Node 8, Type 0, BuildingBlock: BEQFEK_clean_sbu_0, # of connection points: 5
#     Node 9, Type 0, BuildingBlock: BEQFEK_clean_sbu_0, # of connection points: 5
#     Node 10, Type 0, BuildingBlock: BEQFEK_clean_sbu_0, # of connection points: 5
#     Node 11, Type 0, BuildingBlock: BEQFEK_clean_sbu_0, # of connection points: 5
#     Node 12, Type 0, BuildingBlock: BEQFEK_clean_sbu_0, # of connection points: 5
#     Node 13, Type 0, BuildingBlock: BEQFEK_clean_sbu_0, # of connection points: 5
#     Node 14, Type 0, BuildingBlock: BEQFEK_clean_sbu_0, # of connection points: 5
#     Node 15, Type 0, BuildingBlock: BEQFEK_clean_sbu_0, # of connection points: 5
#     Node 16, Type 0, BuildingBlock: BEQFEK_clean_sbu_0, # of connection points: 5
#     Node 17, Type 0, BuildingBlock: BEQFEK_clean_sbu_0, # of connection points: 5
#     Node 18, Type 0, BuildingBlock: BEQFEK_clean_sbu_0, # of connection points: 5
#     Node 19, Type 0, BuildingBlock: BEQFEK_clean_sbu_0, # of connection points: 5
#     Node 20, Type 0, BuildingBlock: BEQFEK_clean_sbu_0, # of connection points: 5
#     Node 21, Type 0, BuildingBlock: BEQFEK_clean_sbu_0, # of connection points: 5
#     Node 22, Type 0, BuildingBlock: BEQFEK_clean_sbu_0, # of connection points: 5
#     Node 23, Type 0, BuildingBlock: BEQFEK_clean_sbu_0, # of connection points: 5
#     Node 24, Type 0, BuildingBlock: BEQFEK_clean_sbu_0, # of connection points: 5
#     Node 25, Type 0, BuildingBlock: BEQFEK_clean_sbu_0, # of connection points: 5
#     Node 26, Type 0, BuildingBlock: BEQFEK_clean_sbu_0, # of connection points: 5
#     Node 27, Type 0, BuildingBlock: BEQFEK_clean_sbu_0, # of connection points: 5
#     Node 28, Type 0, BuildingBlock: BEQFEK_clean_sbu_0, # of connection points: 5
#     Node 29, Type 0, BuildingBlock: BEQFEK_clean_sbu_0, # of connection points: 5
#     Node 30, Type 0, BuildingBlock: BEQFEK_clean_sbu_0, # of connection points: 5
#     Node 31, Type 0, BuildingBlock: BEQFEK_clean_sbu_0, # of connection points: 5
#     Edge 32, Type (0, 0), BuildingBlock: OJICUG_clean_linker_0, # of connection points: 2
#     Edge 33, Type (0, 0), BuildingBlock: OJICUG_clean_linker_0, # of connection points: 2
#     Edge 34, Type (0, 0), BuildingBlock: OJICUG_clean_linker_0, # of connection points: 2
#     Edge 35, Type (0, 0), BuildingBlock: OJICUG_clean_linker_0, # of connection points: 2
#     Edge 36, Type (0, 0), BuildingBlock: OJICUG_clean_linker_0, # of connection points: 2
#     Edge 37, Type (0, 0), BuildingBlock: OJICUG_clean_linker_0, # of connection points: 2
#     Edge 38, Type (0, 0), BuildingBlock: OJICUG_clean_linker_0, # of connection points: 2
#     Edge 39, Type (0, 0), BuildingBlock: OJICUG_clean_linker_0, # of connection points: 2
#     Edge 40, Type (0, 0), BuildingBlock: OJICUG_clean_linker_0, # of connection points: 2
#     Edge 41, Type (0, 0), BuildingBlock: OJICUG_clean_linker_0, # of connection points: 2
#     Edge 42, Type (0, 0), BuildingBlock: OJICUG_clean_linker_0, # of connection points: 2
#     Edge 43, Type (0, 0), BuildingBlock: OJICUG_clean_linker_0, # of connection points: 2
#     Edge 44, Type (0, 0), BuildingBlock: OJICUG_clean_linker_0, # of connection points: 2
#     Edge 45, Type (0, 0), BuildingBlock: OJICUG_clean_linker_0, # of connection points: 2
#     Edge 46, Type (0, 0), BuildingBlock: OJICUG_clean_linker_0, # of connection points: 2
#     Edge 47, Type (0, 0), BuildingBlock: OJICUG_clean_linker_0, # of connection points: 2
#     Edge 48, Type (0, 0), BuildingBlock: OJICUG_clean_linker_0, # of connection points: 2
#     Edge 49, Type (0, 0), BuildingBlock: OJICUG_clean_linker_0, # of connection points: 2
#     Edge 50, Type (0, 0), BuildingBlock: OJICUG_clean_linker_0, # of connection points: 2
#     Edge 51, Type (0, 0), BuildingBlock: OJICUG_clean_linker_0, # of connection points: 2
#     Edge 52, Type (0, 0), BuildingBlock: OJICUG_clean_linker_0, # of connection points: 2
#     Edge 53, Type (0, 0), BuildingBlock: OJICUG_clean_linker_0, # of connection points: 2
#     Edge 54, Type (0, 0), BuildingBlock: OJICUG_clean_linker_0, # of connection points: 2
#     Edge 55, Type (0, 0), BuildingBlock: OJICUG_clean_linker_0, # of connection points: 2
#     Edge 56, Type (0, 0), BuildingBlock: OJICUG_clean_linker_0, # of connection points: 2
#     Edge 57, Type (0, 0), BuildingBlock: OJICUG_clean_linker_0, # of connection points: 2
#     Edge 58, Type (0, 0), BuildingBlock: OJICUG_clean_linker_0, # of connection points: 2
#     Edge 59, Type (0, 0), BuildingBlock: OJICUG_clean_linker_0, # of connection points: 2
#     Edge 60, Type (0, 0), BuildingBlock: OJICUG_clean_linker_0, # of connection points: 2
#     Edge 61, Type (0, 0), BuildingBlock: OJICUG_clean_linker_0, # of connection points: 2
#     Edge 62, Type (0, 0), BuildingBlock: OJICUG_clean_linker_0, # of connection points: 2
#     Edge 63, Type (0, 0), BuildingBlock: OJICUG_clean_linker_0, # of connection points: 2
#     Edge 64, Type (0, 0), BuildingBlock: OJICUG_clean_linker_0, # of connection points: 2
#     Edge 65, Type (0, 0), BuildingBlock: OJICUG_clean_linker_0, # of connection points: 2
#     Edge 66, Type (0, 0), BuildingBlock: OJICUG_clean_linker_0, # of connection points: 2
#     Edge 67, Type (0, 0), BuildingBlock: OJICUG_clean_linker_0, # of connection points: 2
#     Edge 68, Type (0, 0), BuildingBlock: OJICUG_clean_linker_0, # of connection points: 2
#     Edge 69, Type (0, 0), BuildingBlock: OJICUG_clean_linker_0, # of connection points: 2
#     Edge 70, Type (0, 0), BuildingBlock: OJICUG_clean_linker_0, # of connection points: 2
#     Edge 71, Type (0, 0), BuildingBlock: OJICUG_clean_linker_0, # of connection points: 2
#     Edge 72, Type (0, 0), BuildingBlock: OJICUG_clean_linker_0, # of connection points: 2
#     Edge 73, Type (0, 0), BuildingBlock: OJICUG_clean_linker_0, # of connection points: 2
#     Edge 74, Type (0, 0), BuildingBlock: OJICUG_clean_linker_0, # of connection points: 2
#     Edge 75, Type (0, 0), BuildingBlock: OJICUG_clean_linker_0, # of connection points: 2
#     Edge 76, Type (0, 0), BuildingBlock: OJICUG_clean_linker_0, # of connection points: 2
#     Edge 77, Type (0, 0), BuildingBlock: OJICUG_clean_linker_0, # of connection points: 2
#     Edge 78, Type (0, 0), BuildingBlock: OJICUG_clean_linker_0, # of connection points: 2
#     Edge 79, Type (0, 0), BuildingBlock: OJICUG_clean_linker_0, # of connection points: 2
#     Edge 80, Type (0, 0), BuildingBlock: OJICUG_clean_linker_0, # of connection points: 2
#     Edge 81, Type (0, 0), BuildingBlock: OJICUG_clean_linker_0, # of connection points: 2
#     Edge 82, Type (0, 0), BuildingBlock: OJICUG_clean_linker_0, # of connection points: 2
#     Edge 83, Type (0, 0), BuildingBlock: OJICUG_clean_linker_0, # of connection points: 2
#     Edge 84, Type (0, 0), BuildingBlock: OJICUG_clean_linker_0, # of connection points: 2
#     Edge 85, Type (0, 0), BuildingBlock: OJICUG_clean_linker_0, # of connection points: 2
#     Edge 86, Type (0, 0), BuildingBlock: OJICUG_clean_linker_0, # of connection points: 2
#     Edge 87, Type (0, 0), BuildingBlock: OJICUG_clean_linker_0, # of connection points: 2
#     Edge 88, Type (0, 0), BuildingBlock: OJICUG_clean_linker_0, # of connection points: 2
#     Edge 89, Type (0, 0), BuildingBlock: OJICUG_clean_linker_0, # of connection points: 2
#     Edge 90, Type (0, 0), BuildingBlock: OJICUG_clean_linker_0, # of connection points: 2
#     Edge 91, Type (0, 0), BuildingBlock: OJICUG_clean_linker_0, # of connection points: 2
#     Edge 92, Type (0, 0), BuildingBlock: OJICUG_clean_linker_0, # of connection points: 2
#     Edge 93, Type (0, 0), BuildingBlock: OJICUG_clean_linker_0, # of connection points: 2
#     Edge 94, Type (0, 0), BuildingBlock: OJICUG_clean_linker_0, # of connection points: 2
#     Edge 95, Type (0, 0), BuildingBlock: OJICUG_clean_linker_0, # of connection points: 2
#     Edge 96, Type (0, 0), BuildingBlock: OJICUG_clean_linker_0, # of connection points: 2
#     Edge 97, Type (0, 0), BuildingBlock: OJICUG_clean_linker_0, # of connection points: 2
#     Edge 98, Type (0, 0), BuildingBlock: OJICUG_clean_linker_0, # of connection points: 2
#     Edge 99, Type (0, 0), BuildingBlock: OJICUG_clean_linker_0, # of connection points: 2
#     Edge 100, Type (0, 0), BuildingBlock: OJICUG_clean_linker_0, # of connection points: 2
#     Edge 101, Type (0, 0), BuildingBlock: OJICUG_clean_linker_0, # of connection points: 2
#     Edge 102, Type (0, 0), BuildingBlock: OJICUG_clean_linker_0, # of connection points: 2
#     Edge 103, Type (0, 0), BuildingBlock: OJICUG_clean_linker_0, # of connection points: 2
#     Edge 104, Type (0, 0), BuildingBlock: OJICUG_clean_linker_0, # of connection points: 2
#     Edge 105, Type (0, 0), BuildingBlock: OJICUG_clean_linker_0, # of connection points: 2
#     Edge 106, Type (0, 0), BuildingBlock: OJICUG_clean_linker_0, # of connection points: 2
#     Edge 107, Type (0, 0), BuildingBlock: OJICUG_clean_linker_0, # of connection points: 2
#     Edge 108, Type (0, 0), BuildingBlock: OJICUG_clean_linker_0, # of connection points: 2
#     Edge 109, Type (0, 0), BuildingBlock: OJICUG_clean_linker_0, # of connection points: 2
#     Edge 110, Type (0, 0), BuildingBlock: OJICUG_clean_linker_0, # of connection points: 2
#     Edge 111, Type (0, 0), BuildingBlock: OJICUG_clean_linker_0, # of connection points: 2
# Relax obj value: 0.342
# Max RMSD: 0.187
# Mean RMSD: 0.187
data_MOF--net-wgo--node1-BEQFEK_clean_sbu_0--edge1-OJICUG_clean_linker_0
_symmetry_space_group_name_H-M    P1
_symmetry_Int_Tables_number       1
_symmetry_cell_setting            triclinic
loop_
_symmetry_equiv_pos_as_xyz
'x, y, z'
_cell_length_a     27.567388
_cell_length_b     27.565331
_cell_length_c     75.510347
_cell_angle_alpha  89.979501
_cell_angle_beta   90.023931
_cell_angle_gamma 90.006591
loop_
_atom_site_label
_atom_site_type_symbol
_atom_site_fract_x
_atom_site_fract_y
_atom_site_fract_z
_atom_type_partial_charge
Co0 Co 0.50208 0.04743 0.10794 0.0
Co1 Co 0.40252 0.08103 0.09367 0.0
C2 C 0.47133 0.03798 0.06888 0.0
O3 O 0.50016 0.03536 0.08199 0.0
O4 O 0.42847 0.05465 0.07085 0.0
C5 C 0.56653 0.9715 0.10752 0.0
O6 O 0.52848 0.94992 0.1006 0.0
C7 C 0.29869 0.088 0.08356 0.0
C8 C 0.27564 0.14444 0.10252 0.0
C9 C 0.25793 0.11111 0.09045 0.0
N10 N 0.33813 0.10555 0.09182 0.0
N11 N 0.32414 0.14049 0.10265 0.0
C12 C 0.3005 0.0507 0.06913 0.0
H13 H 0.33157 0.02572 0.07111 0.0
H14 H 0.26606 0.0302 0.06802 0.0
H15 H 0.30644 0.06968 0.05635 0.0
C16 C 0.43907 0.99036 0.13291 0.0
N17 N 0.4463 0.02127 0.11924 0.0
N18 N 0.40424 0.0328 0.11222 0.0
C19 C 0.36907 0.00812 0.12079 0.0
C20 C 0.38947 0.98096 0.13448 0.0
C21 C 0.47883 0.97201 0.14459 0.0
H22 H 0.51012 0.99731 0.14436 0.0
H23 H 0.49111 0.93617 0.13964 0.0
H24 H 0.46573 0.96751 0.15839 0.0
O25 O 0.50993 0.11795 0.11223 0.0
O26 O 0.43987 0.14031 0.10049 0.0
H27 H 0.29903 0.04052 0.11844 0.0
H28 H 0.29759 0.97504 0.12035 0.0
C29 C 0.31758 0.00633 0.11472 0.0
H30 H 0.31707 1.00223 0.1002 0.0
H31 H 0.34741 0.15916 0.11115 0.0
O32 O 0.5616 0.01334 0.11436 0.0
C33 C 0.48012 0.151 0.10775 0.0
Co34 Co 0.21011 0.2516 0.35878 0.0
Co35 Co 0.17584 0.15144 0.34548 0.0
C36 C 0.22073 0.22068 0.32037 0.0
O37 O 0.22282 0.25034 0.33315 0.0
O38 O 0.20424 0.17793 0.32276 0.0
C39 C 0.28556 0.31597 0.35812 0.0
O40 O 0.30659 0.27773 0.35113 0.0
C41 C 0.1796 0.04869 0.33596 0.0
C42 C 0.11237 0.02213 0.34859 0.0
C43 C 0.15473 0.00654 0.34052 0.0
N44 N 0.15416 0.08684 0.34191 0.0
N45 N 0.11321 0.07085 0.34886 0.0
C46 C 0.22665 0.05337 0.32619 0.0
H47 H 0.25539 0.06656 0.33525 0.0
H48 H 0.23772 0.01841 0.32014 0.0
H49 H 0.22269 0.08103 0.31561 0.0
C50 C 0.26942 0.1904 0.38354 0.0
N51 N 0.23673 0.19613 0.37033 0.0
N52 N 0.22164 0.15321 0.365 0.0
C53 C 0.24372 0.11899 0.37504 0.0
C54 C 0.27561 0.14114 0.38672 0.0
C55 C 0.29505 0.23126 0.39261 0.0
H56 H 0.2704 0.26284 0.39394 0.0
H57 H 0.32669 0.24234 0.38449 0.0
H58 H 0.30848 0.22022 0.40585 0.0
O59 O 0.1388 0.25878 0.36259 0.0
O60 O 0.11584 0.18776 0.35169 0.0
H61 H 0.23956 0.04958 0.38813 0.0
H62 H 0.25492 0.04782 0.36517 0.0
C63 C 0.23177 0.06615 0.37503 0.0
H64 H 0.19302 0.06043 0.37195 0.0
H65 H 0.08753 0.09293 0.35501 0.0
O66 O 0.24378 0.31146 0.36507 0.0
C67 C 0.1055 0.22877 0.35844 0.0
Co68 Co 0.00717 0.96125 0.60781 0.0
Co69 Co 0.1071 0.9264 0.59456 0.0
C70 C 0.03795 0.97097 0.56935 0.0
O71 O 0.00832 0.97332 0.58213 0.0
O72 O 0.08068 0.95445 0.57177 0.0
C73 C 0.94255 0.0366 0.60696 0.0
O74 O 0.9805 0.05764 0.59976 0.0
C75 C 0.20996 0.92897 0.58509 0.0
C76 C 0.23554 0.86129 0.59769 0.0
C77 C 0.25174 0.90345 0.58964 0.0
N78 N 0.17145 0.90405 0.59102 0.0
N79 N 0.18685 0.86283 0.59796 0.0
C80 C 0.20597 0.97617 0.57536 0.0
H81 H 0.19302 0.00498 0.58442 0.0
H82 H 0.24114 0.98688 0.56938 0.0
H83 H 0.17839 0.97263 0.56473 0.0
C84 C 0.0685 0.02068 0.63239 0.0
N85 N 0.06272 0.98797 0.61921 0.0
N86 N 0.10559 0.97261 0.61393 0.0
C87 C 0.13984 0.99457 0.62398 0.0
C88 C 0.11775 0.02662 0.63561 0.0
C89 C 0.02767 0.04644 0.64141 0.0
H90 H 0.9963 0.02162 0.64298 0.0
H91 H 0.01617 0.0776 0.63312 0.0
H92 H 0.03885 0.06054 0.65455 0.0
O93 O 0.99994 0.8902 0.61206 0.0
O94 O 0.07067 0.86678 0.60108 0.0
H95 H 0.19817 0.94359 0.62087 0.0
H96 H 0.20891 0.98955 0.63726 0.0
C97 C 0.1926 0.98227 0.62408 0.0
H98 H 0.21131 0.00565 0.61438 0.0
H99 H 0.16442 0.83741 0.60409 0.0
O100 O 0.94743 0.99508 0.61409 0.0
C101 C 0.02985 0.85673 0.60803 0.0
Co102 Co 0.29691 0.75689 0.85792 0.0
Co103 Co 0.33194 0.85729 0.84483 0.0
C104 C 0.28778 0.78841 0.81949 0.0
O105 O 0.28537 0.75877 0.83227 0.0
O106 O 0.30415 0.8312 0.82193 0.0
C107 C 0.22092 0.6926 0.85656 0.0
O108 O 0.20007 0.73109 0.84968 0.0
C109 C 0.32966 0.96055 0.83564 0.0
C110 C 0.39726 0.98569 0.8484 0.0
C111 C 0.35527 1.00218 0.84032 0.0
N112 N 0.35439 0.92182 0.84152 0.0
N113 N 0.39555 0.937 0.84857 0.0
C114 C 0.28263 0.95691 0.82578 0.0
H115 H 0.25365 0.94365 0.83471 0.0
H116 H 0.27203 0.99228 0.81992 0.0
H117 H 0.28635 0.92968 0.81505 0.0
C118 C 0.2372 0.81818 0.8825 0.0
N119 N 0.27006 0.81243 0.86936 0.0
N120 N 0.28554 0.85536 0.86414 0.0
C121 C 0.26358 0.88956 0.87421 0.0
C122 C 0.23133 0.86744 0.88576 0.0
C123 C 0.21122 0.77733 0.89143 0.0
H124 H 0.23567 0.74558 0.89274 0.0
H125 H 0.17965 0.76654 0.88321 0.0
H126 H 0.19766 0.78823 0.90466 0.0
O127 O 0.36809 0.74965 0.86222 0.0
O128 O 0.39143 0.82061 0.85136 0.0
H129 H 0.2685 0.95849 0.88759 0.0
H130 H 0.25331 0.96123 0.86463 0.0
C131 C 0.27617 0.94226 0.87443 0.0
H132 H 0.315 0.94763 0.87143 0.0
H133 H 0.42082 0.91437 0.85468 0.0
O134 O 0.26253 0.69679 0.8637 0.0
C135 C 0.40154 0.7797 0.85824 0.0
Co136 Co 0.50224 0.96022 0.46263 0.0
Co137 Co 0.40221 0.92549 0.47586 0.0
C138 C 0.47124 0.97036 0.50105 0.0
O139 O 0.50093 0.9727 0.48828 0.0
O140 O 0.42857 0.95372 0.49862 0.0
C141 C 0.56683 0.03562 0.46337 0.0
O142 O 0.52879 0.05668 0.47049 0.0
C143 C 0.29949 0.92876 0.48537 0.0
C144 C 0.27322 0.86148 0.4727 0.0
C145 C 0.25744 0.90374 0.48078 0.0
N146 N 0.33774 0.90351 0.47941 0.0
N147 N 0.32193 0.86252 0.47243 0.0
C148 C 0.30398 0.9758 0.49517 0.0
H149 H 0.31694 1.00465 0.48611 0.0
H150 H 0.26899 0.98666 0.50125 0.0
H151 H 0.33172 0.97195 0.50572 0.0
C152 C 0.44086 0.01964 0.43795 0.0
N153 N 0.4467 0.98685 0.45112 0.0
N154 N 0.40383 0.97151 0.45641 0.0
C155 C 0.36955 0.99352 0.44638 0.0
C156 C 0.39159 0.02563 0.43475 0.0
C157 C 0.48165 0.04554 0.42894 0.0
H158 H 0.51321 0.02092 0.42749 0.0
H159 H 0.49281 0.07692 0.43718 0.0
H160 H 0.47053 0.05935 0.41576 0.0
O161 O 0.50957 0.88898 0.45866 0.0
O162 O 0.43862 0.86569 0.46952 0.0
H163 H 0.31123 0.94252 0.44942 0.0
H164 H 0.30029 0.98895 0.43321 0.0
C165 C 0.31678 0.98129 0.44633 0.0
H166 H 0.29825 1.00439 0.45615 0.0
H167 H 0.34411 0.83696 0.46627 0.0
O168 O 0.56207 0.99397 0.45634 0.0
C169 C 0.47962 0.85555 0.46273 0.0
Co170 Co 0.29889 0.25138 0.71188 0.0
Co171 Co 0.33324 0.15114 0.72514 0.0
C172 C 0.28897 0.22003 0.75033 0.0
O173 O 0.2869 0.24963 0.73752 0.0
O174 O 0.30524 0.17721 0.74796 0.0
C175 C 0.22358 0.31605 0.71298 0.0
O176 O 0.20254 0.27779 0.71996 0.0
C177 C 0.3305 0.04835 0.73463 0.0
C178 C 0.39764 0.02239 0.72178 0.0
C179 C 0.35567 0.00644 0.73002 0.0
N180 N 0.35541 0.0867 0.72856 0.0
N181 N 0.39631 0.07108 0.72147 0.0
C182 C 0.28363 0.05258 0.74454 0.0
H183 H 0.25471 0.0661 0.73563 0.0
H184 H 0.2727 0.01739 0.75047 0.0
H185 H 0.28779 0.07985 0.75525 0.0
C186 C 0.23935 0.19047 0.68721 0.0
N187 N 0.27206 0.19604 0.70041 0.0
N188 N 0.28707 0.15306 0.70574 0.0
C189 C 0.26483 0.11894 0.6957 0.0
C190 C 0.23303 0.14125 0.68403 0.0
C191 C 0.21385 0.23147 0.67818 0.0
H192 H 0.2387 0.26289 0.67679 0.0
H193 H 0.18245 0.24281 0.68638 0.0
H194 H 0.2001 0.22051 0.66497 0.0
O195 O 0.36995 0.25842 0.70773 0.0
O196 O 0.39298 0.18757 0.71876 0.0
H197 H 0.31519 0.0601 0.69882 0.0
H198 H 0.2685 0.04942 0.68269 0.0
C199 C 0.27647 0.06604 0.69576 0.0
H200 H 0.25327 0.04791 0.70567 0.0
H201 H 0.42164 0.09339 0.71522 0.0
O202 O 0.2651 0.31145 0.70583 0.0
C203 C 0.40326 0.22839 0.71185 0.0
Co204 Co 0.00775 0.05076 0.96188 0.0
Co205 Co 0.10821 0.08433 0.97509 0.0
C206 C 0.03892 0.04015 1.0003 0.0
O207 O 0.00918 0.03835 0.98753 0.0
O208 O 0.08182 0.05622 0.99788 0.0
C209 C 0.94329 0.97544 0.96275 0.0
O210 O 0.98166 0.9544 0.96965 0.0
C211 C 0.21112 0.08074 0.98454 0.0
C212 C 0.23741 0.1479 0.97177 0.0
C213 C 0.25316 0.10574 0.97994 0.0
N214 N 0.17287 0.10596 0.97854 0.0
N215 N 0.18871 0.14686 0.97149 0.0
C216 C 0.20667 0.03381 0.99441 0.0
H217 H 0.19277 0.00508 0.9855 0.0
H218 H 0.24186 0.02254 1.00025 0.0
H219 H 0.1796 0.03808 1.00517 0.0
C220 C 0.06826 0.99081 0.93716 0.0
N221 N 0.06293 0.0236 0.95035 0.0
N222 N 0.10602 0.03828 0.95566 0.0
C223 C 0.13997 0.01571 0.94565 0.0
C224 C 0.11743 0.98403 0.934 0.0
C225 C 0.0271 0.96564 0.9281 0.0
H226 H 0.99571 0.99056 0.92684 0.0
H227 H 0.01585 0.93397 0.93618 0.0
H228 H 0.03787 0.9523 0.91482 0.0
O229 O 1.0011 0.12204 0.95784 0.0
O230 O 0.07219 0.14451 0.96881 0.0
H231 H 0.19923 0.06558 0.94878 0.0
H232 H 0.20949 0.01888 0.93263 0.0
C233 C 0.19297 0.02692 0.94571 0.0
H234 H 0.21093 1.00351 0.9556 0.0
H235 H 0.16654 0.17239 0.96529 0.0
O236 O 0.94764 0.01721 0.95576 0.0
C237 C 0.03135 0.15515 0.96198 0.0
Co238 Co 0.21207 0.75759 0.21305 0.0
Co239 Co 0.17864 0.85717 0.22733 0.0
C240 C 0.22197 0.78832 0.25209 0.0
O241 O 0.22444 0.75948 0.23899 0.0
O242 O 0.20527 0.83119 0.25012 0.0
C243 C 0.28801 0.69315 0.21336 0.0
O244 O 0.30966 0.73117 0.22027 0.0
C245 C 0.17183 0.96106 0.23737 0.0
C246 C 0.11525 0.98407 0.21845 0.0
C247 C 0.14869 1.00181 0.23047 0.0
N248 N 0.15418 0.92159 0.22916 0.0
N249 N 0.11916 0.93556 0.21835 0.0
C250 C 0.20923 0.95929 0.25178 0.0
H251 H 0.19033 0.95357 0.26459 0.0
H252 H 0.23409 0.92811 0.24984 0.0
H253 H 0.22986 0.99367 0.25281 0.0
C254 C 0.26902 0.82055 0.18804 0.0
N255 N 0.23816 0.81335 0.20171 0.0
N256 N 0.22671 0.85543 0.20873 0.0
C257 C 0.25141 0.89057 0.20014 0.0
C258 C 0.27849 0.87014 0.18646 0.0
C259 C 0.28729 0.78077 0.17636 0.0
H260 H 0.26192 0.74953 0.17659 0.0
H261 H 0.3231 0.7684 0.18132 0.0
H262 H 0.29181 0.79388 0.16256 0.0
O263 O 0.14152 0.74977 0.20883 0.0
O264 O 0.11926 0.81984 0.22056 0.0
H265 H 0.21913 0.96066 0.2025 0.0
H266 H 0.28459 0.962 0.20056 0.0
C267 C 0.25332 0.94205 0.20621 0.0
H268 H 0.2575 0.94254 0.22072 0.0
H269 H 0.10041 0.91227 0.20989 0.0
O270 O 0.24608 0.6981 0.20659 0.0
C271 C 0.1085 0.77958 0.21331 0.0
Co272 Co 0.50827 0.95944 0.96194 0.0
Co273 Co 0.60855 0.92506 0.97515 0.0
C274 C 0.53986 0.96981 1.00033 0.0
O275 O 0.51018 0.97187 0.98755 0.0
O276 O 0.5826 0.95334 0.99795 0.0
C277 C 0.4436 0.0348 0.9629 0.0
O278 O 0.48182 0.05589 0.9699 0.0
C279 C 0.71131 0.92828 0.98462 0.0
C280 C 0.73763 0.86137 0.97171 0.0
C281 C 0.75336 0.90344 0.97995 0.0
N282 N 0.67308 0.90312 0.97857 0.0
N283 N 0.68892 0.86234 0.97145 0.0
C284 C 0.7068 0.97507 0.99457 0.0
H285 H 0.69331 1.00401 0.98566 0.0
H286 H 0.74188 0.98606 1.00056 0.0
H287 H 0.67943 0.97075 1.00523 0.0
C288 C 0.56923 0.01895 0.93721 0.0
N289 N 0.56361 0.98612 0.95037 0.0
N290 N 0.60657 0.97105 0.95569 0.0
C291 C 0.64071 0.99332 0.94567 0.0
C292 C 0.61846 0.02527 0.93404 0.0
C293 C 0.52829 0.04468 0.92823 0.0
H294 H 0.49671 0.02002 0.92688 0.0
H295 H 0.51725 0.07618 0.93642 0.0
H296 H 0.5392 0.05831 0.915 0.0
O297 O 0.50101 0.88822 0.95803 0.0
O298 O 0.57202 0.8652 0.96893 0.0
H299 H 0.69949 0.94287 0.9487 0.0
H300 H 0.71027 0.98983 0.93268 0.0
C301 C 0.6936 0.98166 0.94573 0.0
H302 H 0.71169 1.00467 0.9557 0.0
H303 H 0.66675 0.83691 0.9652 0.0
O304 O 0.4482 0.99317 0.95584 0.0
C305 C 0.53101 0.85491 0.96216 0.0
Co306 Co 0.79737 0.75729 0.71289 0.0
Co307 Co 0.8322 0.85724 0.72613 0.0
C308 C 0.78774 0.78809 0.75136 0.0
O309 O 0.78536 0.75847 0.73857 0.0
O310 O 0.80422 0.83083 0.74894 0.0
C311 C 0.72203 0.69269 0.71378 0.0
O312 O 0.70099 0.73072 0.72092 0.0
C313 C 0.82971 0.9601 0.7356 0.0
C314 C 0.8974 0.98567 0.72303 0.0
C315 C 0.85526 1.00187 0.73107 0.0
N316 N 0.85459 0.92159 0.72966 0.0
N317 N 0.89581 0.93698 0.72274 0.0
C318 C 0.78251 0.95613 0.74532 0.0
H319 H 0.78605 0.92859 0.75596 0.0
H320 H 0.75371 0.94313 0.73625 0.0
H321 H 0.77178 0.99132 0.75128 0.0
C322 C 0.73803 0.81858 0.68824 0.0
N323 N 0.77066 0.81283 0.70146 0.0
N324 N 0.78597 0.85572 0.70675 0.0
C325 C 0.76404 0.88996 0.69666 0.0
C326 C 0.73208 0.86783 0.685 0.0
C327 C 0.71236 0.77771 0.67919 0.0
H328 H 0.73721 0.74635 0.67767 0.0
H329 H 0.68116 0.76619 0.68746 0.0
H330 H 0.69832 0.78885 0.66605 0.0
O331 O 0.86842 0.75004 0.70866 0.0
O332 O 0.89183 0.8208 0.71964 0.0
H333 H 0.76901 0.95906 0.68341 0.0
H334 H 0.75285 0.96139 0.70629 0.0
C335 C 0.77628 0.94273 0.69659 0.0
H336 H 0.81494 0.94835 0.69983 0.0
H337 H 0.92121 0.91453 0.7166 0.0
O338 O 0.76352 0.69751 0.70664 0.0
C339 C 0.90189 0.77996 0.71271 0.0
Co340 Co 1.00289 0.05014 0.46213 0.0
Co341 Co 0.90245 0.0839 0.47522 0.0
C342 C 0.97136 0.03971 0.50053 0.0
O343 O 1.00118 0.03784 0.4878 0.0
O344 O 0.92851 0.05585 0.49806 0.0
C345 C 0.06742 0.97484 0.46317 0.0
O346 O 0.02903 0.95376 0.47005 0.0
C347 C 0.79956 0.08097 0.48464 0.0
C348 C 0.77358 0.14807 0.47174 0.0
C349 C 0.75766 0.10614 0.48001 0.0
N350 N 0.83791 0.10586 0.47857 0.0
N351 N 0.82227 0.14673 0.47143 0.0
C352 C 0.80378 0.03413 0.49459 0.0
H353 H 0.81788 0.00532 0.48576 0.0
H354 H 0.76848 0.02292 0.50034 0.0
H355 H 0.83063 0.03852 0.50543 0.0
C356 C 0.94244 0.99024 0.43737 0.0
N357 N 0.94774 0.02304 0.45055 0.0
N358 N 0.90464 0.03773 0.45584 0.0
C359 C 0.87071 0.01513 0.44582 0.0
C360 C 0.89327 0.98346 0.43417 0.0
C361 C 0.98363 0.96503 0.42836 0.0
H362 H 0.01502 0.98997 0.4271 0.0
H363 H 0.99488 0.93343 0.43647 0.0
H364 H 0.97289 0.9516 0.41508 0.0
O365 O 0.00973 0.12135 0.45803 0.0
O366 O 0.93864 0.14392 0.46893 0.0
H367 H 0.81133 0.06484 0.44895 0.0
H368 H 0.80107 0.01802 0.43284 0.0
C369 C 0.81768 0.02618 0.4459 0.0
H370 H 0.79987 1.00277 0.45583 0.0
H371 H 0.84456 0.17205 0.46517 0.0
O372 O 0.06302 0.01652 0.45612 0.0
C373 C 0.97949 0.15449 0.46211 0.0
Co374 Co 0.70924 0.25151 0.21171 0.0
Co375 Co 0.67565 0.15097 0.22486 0.0
C376 C 0.71979 0.21973 0.25012 0.0
O377 O 0.72151 0.24947 0.23735 0.0
O378 O 0.70374 0.17683 0.24772 0.0
C379 C 0.78449 0.31625 0.21287 0.0
O380 O 0.80561 0.27783 0.21971 0.0
C381 C 0.6786 0.0481 0.23429 0.0
C382 C 0.61177 0.022 0.22124 0.0
C383 C 0.6536 0.00615 0.2296 0.0
N384 N 0.65373 0.08641 0.22816 0.0
N385 N 0.61299 0.0707 0.22094 0.0
C386 C 0.72528 0.05241 0.24433 0.0
H387 H 0.72064 0.07916 0.25517 0.0
H388 H 0.75417 0.06666 0.23556 0.0
H389 H 0.73651 0.01711 0.25008 0.0
C390 C 0.76918 0.19119 0.18694 0.0
N391 N 0.73637 0.19644 0.20012 0.0
N392 N 0.7218 0.15331 0.20544 0.0
C393 C 0.74451 0.11941 0.19545 0.0
C394 C 0.77611 0.14203 0.18379 0.0
C395 C 0.79434 0.23245 0.17794 0.0
H396 H 0.76939 0.26383 0.17671 0.0
H397 H 0.82596 0.24367 0.18605 0.0
H398 H 0.80772 0.22177 0.16465 0.0
O399 O 0.63804 0.25828 0.20765 0.0
O400 O 0.61558 0.18721 0.21862 0.0
H401 H 0.69503 0.05984 0.1986 0.0
H402 H 0.74213 0.04959 0.1826 0.0
C403 C 0.73371 0.06633 0.19561 0.0
H404 H 0.75703 0.04876 0.20562 0.0
H405 H 0.58775 0.09295 0.21463 0.0
O406 O 0.74283 0.31183 0.20579 0.0
C407 C 0.60494 0.22805 0.21179 0.0
Co408 Co 0.50689 0.04783 0.60842 0.0
Co409 Co 0.60685 0.0827 0.59521 0.0
C410 C 0.53785 0.03827 0.56996 0.0
O411 O 0.5082 0.03585 0.58274 0.0
O412 O 0.58057 0.05477 0.5724 0.0
C413 C 0.44238 0.97243 0.60743 0.0
O414 O 0.48055 0.95142 0.60038 0.0
C415 C 0.70959 0.0804 0.58565 0.0
C416 C 0.73528 0.14789 0.59834 0.0
C417 C 0.75139 0.10591 0.59016 0.0
N418 N 0.67115 0.10516 0.59171 0.0
N419 N 0.6866 0.14626 0.59871 0.0
C420 C 0.70555 0.03335 0.57584 0.0
H421 H 0.69237 1.00447 0.58484 0.0
H422 H 0.74073 0.02258 0.56989 0.0
H423 H 0.6781 0.03714 0.56517 0.0
C424 C 0.56816 0.98852 0.63309 0.0
N425 N 0.56241 0.02115 0.61987 0.0
N426 N 0.60531 0.03641 0.61457 0.0
C427 C 0.63954 0.01441 0.62463 0.0
C428 C 0.61741 0.9825 0.63631 0.0
C429 C 0.52728 0.96289 0.64214 0.0
H430 H 0.49589 0.98771 0.64362 0.0
H431 H 0.51584 0.93159 0.63391 0.0
H432 H 0.5384 0.94899 0.65531 0.0
O433 O 0.49956 0.11888 0.61263 0.0
O434 O 0.57036 0.14227 0.60169 0.0
H435 H 0.69808 0.06512 0.62144 0.0
H436 H 0.70891 0.01886 0.63773 0.0
C437 C 0.69237 0.02642 0.62461 0.0
H438 H 0.71074 1.00311 0.61481 0.0
H439 H 0.66422 0.17153 0.60494 0.0
O440 O 0.44707 0.01391 0.6146 0.0
C441 C 0.5295 0.15234 0.6086 0.0
Co442 Co 0.714 0.75647 0.35794 0.0
Co443 Co 0.6787 0.8568 0.3449 0.0
C444 C 0.72264 0.78804 0.3195 0.0
O445 O 0.72524 0.75841 0.33228 0.0
O446 O 0.70626 0.83081 0.32196 0.0
C447 C 0.79002 0.69222 0.35647 0.0
O448 O 0.81081 0.73072 0.34956 0.0
C449 C 0.68045 0.96009 0.3357 0.0
C450 C 0.61285 0.98493 0.34853 0.0
C451 C 0.65468 1.0016 0.34039 0.0
N452 N 0.65597 0.92126 0.34162 0.0
N453 N 0.61481 0.93624 0.34871 0.0
C454 C 0.72742 0.95668 0.32581 0.0
H455 H 0.75648 0.94335 0.33471 0.0
H456 H 0.73792 0.99214 0.32 0.0
H457 H 0.72367 0.92957 0.31504 0.0
C458 C 0.77373 0.8178 0.3825 0.0
N459 N 0.74084 0.81204 0.36936 0.0
N460 N 0.72529 0.85495 0.36416 0.0
C461 C 0.74727 0.88916 0.37423 0.0
C462 C 0.77956 0.86705 0.38577 0.0
C463 C 0.79976 0.77694 0.39142 0.0
H464 H 0.77526 0.74523 0.39277 0.0
H465 H 0.8312 0.76607 0.38316 0.0
H466 H 0.81349 0.78786 0.40463 0.0
O467 O 0.64292 0.74904 0.36232 0.0
O468 O 0.61937 0.81996 0.35148 0.0
H469 H 0.74242 0.95812 0.38759 0.0
H470 H 0.75755 0.96081 0.36462 0.0
C471 C 0.7347 0.94186 0.37444 0.0
H472 H 0.69587 0.94723 0.37143 0.0
H473 H 0.58969 0.9135 0.35486 0.0
O474 O 0.74851 0.69643 0.36368 0.0
C475 C 0.60939 0.77903 0.35837 0.0
Co476 Co 1.0032 0.96303 0.10754 0.0
Co477 Co 0.9029 0.9278 0.09449 0.0
C478 C 0.97168 0.97208 0.06911 0.0
O479 O 1.00134 0.97457 0.08188 0.0
O480 O 0.92893 0.95563 0.07157 0.0
C481 C 0.06756 0.03901 0.10622 0.0
O482 O 0.02919 0.0599 0.09926 0.0
C483 C 0.79958 0.92978 0.08534 0.0
C484 C 0.77475 0.86199 0.09806 0.0
C485 C 0.75806 0.90398 0.09003 0.0
N486 N 0.83842 0.90516 0.09118 0.0
N487 N 0.82343 0.86389 0.0982 0.0
C488 C 0.80298 0.9769 0.07553 0.0
H489 H 0.83018 0.97336 0.06478 0.0
H490 H 0.81619 0.00586 0.08449 0.0
H491 H 0.76755 0.98741 0.06971 0.0
C492 C 0.94188 0.02265 0.13213 0.0
N493 N 0.94764 0.9898 0.11899 0.0
N494 N 0.90474 0.97422 0.1138 0.0
C495 C 0.87054 0.9961 0.12389 0.0
C496 C 0.89263 0.0284 0.13543 0.0
C497 C 0.98272 0.0487 0.14105 0.0
H498 H 0.01443 0.02422 0.14242 0.0
H499 H 0.99359 0.08014 0.13278 0.0
H500 H 0.97179 0.06244 0.15426 0.0
O501 O 0.01061 0.89188 0.11187 0.0
O502 O 0.93969 0.86836 0.10103 0.0
H503 H 0.81257 0.94457 0.12108 0.0
H504 H 0.80175 0.99085 0.13734 0.0
C505 C 0.81788 0.98338 0.12414 0.0
H506 H 0.79876 0.00634 0.11441 0.0
H507 H 0.84618 0.83865 0.10427 0.0
O508 O 0.06322 0.99743 0.11337 0.0
C509 C 0.98063 0.85835 0.10791 0.0
Co510 Co 0.79932 0.25198 0.85823 0.0
Co511 Co 0.83386 0.15193 0.84496 0.0
C512 C 0.78886 0.22096 0.81982 0.0
O513 O 0.7867 0.25063 0.8326 0.0
O514 O 0.80546 0.17826 0.82222 0.0
C515 C 0.72394 0.31654 0.85749 0.0
O516 O 0.70285 0.27845 0.85041 0.0
C517 C 0.83063 0.04916 0.83546 0.0
C518 C 0.89796 0.02298 0.84814 0.0
C519 C 0.85571 0.00715 0.84005 0.0
N520 N 0.85585 0.08745 0.84142 0.0
N521 N 0.89687 0.07169 0.8484 0.0
C522 C 0.78357 0.05358 0.82566 0.0
H523 H 0.78743 0.08121 0.81506 0.0
H524 H 0.75476 0.06666 0.8347 0.0
H525 H 0.77267 0.01854 0.81962 0.0
C526 C 0.73999 0.19065 0.88292 0.0
N527 N 0.77274 0.19646 0.86975 0.0
N528 N 0.78797 0.15358 0.86443 0.0
C529 C 0.76593 0.11931 0.87446 0.0
C530 C 0.73391 0.14138 0.8861 0.0
C531 C 0.71418 0.23146 0.89194 0.0
H532 H 0.73881 0.26303 0.89337 0.0
H533 H 0.68273 0.2426 0.88373 0.0
H534 H 0.70048 0.22036 0.90514 0.0
O535 O 0.87056 0.25931 0.86216 0.0
O536 O 0.89369 0.18838 0.85125 0.0
H537 H 0.81676 0.06087 0.87138 0.0
H538 H 0.77034 0.04997 0.88758 0.0
C539 C 0.77802 0.06651 0.87447 0.0
H540 H 0.75484 0.04808 0.86464 0.0
H541 H 0.92242 0.09391 0.85456 0.0
O542 O 0.76561 0.31182 0.86452 0.0
C543 C 0.90392 0.22936 0.85804 0.0
Co544 Co 1.00144 0.549 0.60864 0.0
Co545 Co 0.90128 0.58323 0.59527 0.0
C546 C 0.97075 0.53893 0.57017 0.0
O547 O 1.0003 0.53684 0.58299 0.0
O548 O 0.92789 0.55516 0.57253 0.0
C549 C 0.06583 0.47364 0.60779 0.0
O550 O 0.02756 0.45265 0.60079 0.0
C551 C 0.79841 0.57992 0.58578 0.0
C552 C 0.77236 0.64749 0.59831 0.0
C553 C 0.75645 0.60518 0.59029 0.0
N554 N 0.83675 0.60514 0.5917 0.0
N555 N 0.82106 0.64627 0.5986 0.0
C556 C 0.8027 0.53273 0.57607 0.0
H557 H 0.83021 0.53647 0.56544 0.0
H558 H 0.81592 0.50404 0.58515 0.0
H559 H 0.76759 0.52174 0.57011 0.0
C560 C 0.94034 0.48953 0.63328 0.0
N561 N 0.94599 0.52216 0.62005 0.0
N562 N 0.90305 0.53723 0.61471 0.0
C563 C 0.86888 0.51517 0.62478 0.0
C564 C 0.89111 0.48335 0.63646 0.0
C565 C 0.98127 0.46406 0.64237 0.0
H566 H 0.99263 0.43259 0.63422 0.0
H567 H 0.97022 0.45042 0.65558 0.0
H568 H 0.01268 0.4889 0.64377 0.0
O569 O 0.00835 0.62014 0.61273 0.0
O570 O 0.93751 0.6431 0.60166 0.0
H571 H 0.79967 0.51969 0.63796 0.0
H572 H 0.79754 0.50383 0.61505 0.0
C573 C 0.81606 0.52718 0.62481 0.0
H574 H 0.81033 0.56587 0.62164 0.0
H575 H 0.84333 0.67187 0.60472 0.0
O576 O 0.06132 0.51526 0.61487 0.0
C577 C 0.97832 0.65342 0.60858 0.0
Co578 Co 0.70961 0.75242 0.85867 0.0
Co579 Co 0.67577 0.65205 0.84553 0.0
C580 C 0.71982 0.72112 0.82023 0.0
O581 O 0.72179 0.75088 0.83299 0.0
O582 O 0.7037 0.67825 0.82269 0.0
C583 C 0.78488 0.817 0.85765 0.0
O584 O 0.80594 0.77865 0.85076 0.0
C585 C 0.67869 0.54919 0.83606 0.0
C586 C 0.61155 0.52319 0.84892 0.0
C587 C 0.6535 0.50728 0.84067 0.0
N588 N 0.65379 0.58753 0.84214 0.0
N589 N 0.61289 0.57188 0.84924 0.0
C590 C 0.72556 0.55344 0.82615 0.0
H591 H 0.72126 0.58044 0.81536 0.0
H592 H 0.75438 0.56735 0.83503 0.0
H593 H 0.73669 0.51818 0.82035 0.0
C594 C 0.76953 0.69184 0.88342 0.0
N595 N 0.73675 0.69721 0.87022 0.0
N596 N 0.72201 0.65413 0.86492 0.0
C597 C 0.74455 0.62015 0.87494 0.0
C598 C 0.77625 0.64266 0.8866 0.0
C599 C 0.79474 0.73301 0.89246 0.0
H600 H 0.76979 0.76436 0.89374 0.0
H601 H 0.82629 0.74434 0.88434 0.0
H602 H 0.80825 0.7222 0.90572 0.0
O603 O 0.6384 0.75925 0.86279 0.0
O604 O 0.61577 0.6882 0.85186 0.0
H605 H 0.69474 0.56085 0.87176 0.0
H606 H 0.74143 0.55054 0.88793 0.0
C607 C 0.73339 0.56714 0.87485 0.0
H608 H 0.75683 0.54926 0.86496 0.0
H609 H 0.58757 0.59416 0.85549 0.0
O610 O 0.74324 0.81254 0.86472 0.0
C611 C 0.60523 0.72903 0.8587 0.0
Co612 Co 0.50856 0.45907 0.10872 0.0
Co613 Co 0.60875 0.42468 0.09546 0.0
C614 C 0.53996 0.46957 0.07032 0.0
O615 O 0.51034 0.47159 0.08311 0.0
O616 O 0.5827 0.45306 0.07268 0.0
C617 C 0.44387 0.53443 0.10779 0.0
O618 O 0.48204 0.55554 0.10078 0.0
C619 C 0.71147 0.42793 0.08596 0.0
C620 C 0.73784 0.36097 0.09885 0.0
C621 C 0.75354 0.40308 0.09062 0.0
N622 N 0.67326 0.40274 0.092 0.0
N623 N 0.68913 0.36194 0.09911 0.0
C624 C 0.70691 0.47475 0.07602 0.0
H625 H 0.67946 0.4705 0.06538 0.0
H626 H 0.69352 0.50368 0.08495 0.0
H627 H 0.74196 0.48573 0.07001 0.0
C628 C 0.56968 0.51851 0.13341 0.0
N629 N 0.56397 0.48569 0.12026 0.0
N630 N 0.60689 0.4706 0.11493 0.0
C631 C 0.6411 0.49283 0.12493 0.0
C632 C 0.61894 0.52479 0.13656 0.0
C633 C 0.52881 0.54428 0.1424 0.0
H634 H 0.49721 0.51965 0.14377 0.0
H635 H 0.51776 0.57579 0.1342 0.0
H636 H 0.5398 0.55791 0.15562 0.0
O637 O 0.50131 0.38784 0.11262 0.0
O638 O 0.57225 0.36482 0.10169 0.0
H639 H 0.71069 0.48921 0.13792 0.0
H640 H 0.71207 0.50411 0.1149 0.0
C641 C 0.69397 0.48109 0.12487 0.0
H642 H 0.6998 0.4423 0.12189 0.0
H643 H 0.66698 0.33647 0.10536 0.0
O644 O 0.44853 0.49279 0.11485 0.0
C645 C 0.53128 0.35452 0.10848 0.0
Co646 Co 0.7983 0.25794 0.35768 0.0
Co647 Co 0.83183 0.35746 0.34334 0.0
C648 C 0.78857 0.28851 0.3186 0.0
O649 O 0.78603 0.25972 0.33172 0.0
O650 O 0.80527 0.33139 0.32055 0.0
C651 C 0.72239 0.19342 0.35739 0.0
O652 O 0.70075 0.23136 0.35042 0.0
C653 C 0.83871 0.46137 0.33327 0.0
C654 C 0.89532 0.48432 0.35219 0.0
C655 C 0.86188 0.50211 0.34017 0.0
N656 N 0.85634 0.42187 0.34148 0.0
N657 N 0.89138 0.43581 0.35228 0.0
C658 C 0.80135 0.45964 0.31884 0.0
H659 H 0.7765 0.42844 0.32077 0.0
H660 H 0.78072 0.49402 0.31782 0.0
H661 H 0.82028 0.45398 0.30605 0.0
C662 C 0.74126 0.32102 0.38262 0.0
N663 N 0.77217 0.31375 0.36897 0.0
N664 N 0.78368 0.3558 0.36193 0.0
C665 C 0.75898 0.39098 0.37048 0.0
C666 C 0.73183 0.37061 0.38417 0.0
C667 C 0.7229 0.28129 0.39432 0.0
H668 H 0.74824 0.25002 0.39412 0.0
H669 H 0.6871 0.26893 0.38934 0.0
H670 H 0.71833 0.29444 0.4081 0.0
O671 O 0.86886 0.25013 0.36194 0.0
O672 O 0.89119 0.32014 0.35016 0.0
H673 H 0.79135 0.46103 0.36809 0.0
H674 H 0.72588 0.46244 0.37001 0.0
C675 C 0.75714 0.44245 0.36438 0.0
H676 H 0.75297 0.44289 0.34986 0.0
H677 H 0.91011 0.4125 0.36075 0.0
O678 O 0.76429 0.19845 0.36417 0.0
C679 C 0.90192 0.27991 0.35745 0.0
Co680 Co 1.00301 0.46349 0.96307 0.0
Co681 Co 0.90272 0.42825 0.9761 0.0
C682 C 0.97155 0.47239 1.00151 0.0
O683 O 1.00119 0.47494 0.98873 0.0
O684 O 0.92879 0.45597 0.99904 0.0
C685 C 0.06736 0.53947 0.96442 0.0
O686 O 0.02898 0.56034 0.97136 0.0
C687 C 0.79942 0.43017 0.98524 0.0
C688 C 0.77458 0.36241 0.97252 0.0
C689 C 0.75791 0.40436 0.98057 0.0
N690 N 0.83825 0.40559 0.9794 0.0
N691 N 0.82327 0.36433 0.97238 0.0
C692 C 0.80283 0.47727 0.99506 0.0
H693 H 0.81605 0.50624 0.98611 0.0
H694 H 0.76739 0.48777 1.00087 0.0
H695 H 0.83001 0.47369 1.00582 0.0
C696 C 0.94168 0.52312 0.93844 0.0
N697 N 0.94744 0.49029 0.95161 0.0
N698 N 0.90453 0.47474 0.9568 0.0
C699 C 0.87033 0.49664 0.94669 0.0
C700 C 0.89242 0.5289 0.93514 0.0
C701 C 0.98253 0.54912 0.92952 0.0
H702 H 0.01421 0.52461 0.92816 0.0
H703 H 0.99345 0.58056 0.93778 0.0
H704 H 0.97159 0.56287 0.91631 0.0
O705 O 0.01042 0.39235 0.95874 0.0
O706 O 0.93951 0.36882 0.96956 0.0
H707 H 0.81231 0.44516 0.94952 0.0
H708 H 0.80148 0.49147 0.93326 0.0
C709 C 0.81765 0.48397 0.94645 0.0
H710 H 0.7986 0.50693 0.95619 0.0
H711 H 0.846 0.33912 0.96629 0.0
O712 O 0.06303 0.49791 0.95726 0.0
C713 C 0.98044 0.35882 0.96269 0.0
Co714 Co 0.80035 0.75133 0.21223 0.0
Co715 Co 0.83467 0.65119 0.22558 0.0
C716 C 0.78988 0.72054 0.25066 0.0
O717 O 0.78776 0.75016 0.23786 0.0
O718 O 0.80634 0.67777 0.24829 0.0
C719 C 0.72493 0.81573 0.21288 0.0
O720 O 0.70391 0.77756 0.21994 0.0
C721 C 0.83086 0.54838 0.23509 0.0
C722 C 0.89818 0.52192 0.22252 0.0
C723 C 0.85576 0.50625 0.23052 0.0
N724 N 0.85634 0.58658 0.22919 0.0
N725 N 0.89734 0.57064 0.22227 0.0
C726 C 0.78375 0.553 0.24483 0.0
H727 H 0.78759 0.58073 0.25538 0.0
H728 H 0.75501 0.56605 0.23574 0.0
H729 H 0.77274 0.51803 0.25091 0.0
C730 C 0.74091 0.69006 0.18757 0.0
N731 N 0.77366 0.69583 0.20075 0.0
N732 N 0.78883 0.65293 0.20609 0.0
C733 C 0.76677 0.61869 0.19606 0.0
C734 C 0.73477 0.6408 0.18441 0.0
C735 C 0.71518 0.73088 0.17851 0.0
H736 H 0.73982 0.76246 0.17712 0.0
H737 H 0.68363 0.74199 0.18666 0.0
H738 H 0.70161 0.7198 0.16529 0.0
O739 O 0.87162 0.75846 0.20836 0.0
O740 O 0.89463 0.68749 0.21932 0.0
H741 H 0.81766 0.56028 0.19911 0.0
H742 H 0.77124 0.54944 0.18289 0.0
C743 C 0.77891 0.5659 0.19601 0.0
H744 H 0.75577 0.54736 0.20583 0.0
H745 H 0.92307 0.59276 0.21615 0.0
O746 O 0.76667 0.81117 0.2059 0.0
C747 C 0.90493 0.72847 0.21252 0.0
Co748 Co 0.50843 0.54839 0.4626 0.0
Co749 Co 0.60808 0.58157 0.47694 0.0
C750 C 0.53914 0.53837 0.50165 0.0
O751 O 0.51033 0.53601 0.48853 0.0
O752 O 0.58206 0.55493 0.49972 0.0
C753 C 0.44394 0.47252 0.46296 0.0
O754 O 0.48205 0.45088 0.4698 0.0
C755 C 0.71195 0.58815 0.48704 0.0
C756 C 0.73514 0.64466 0.46811 0.0
C757 C 0.75277 0.61118 0.48015 0.0
N758 N 0.67254 0.60589 0.47881 0.0
N759 N 0.68662 0.64087 0.468 0.0
C760 C 0.71006 0.55076 0.50145 0.0
H761 H 0.67888 0.52591 0.49947 0.0
H762 H 0.74442 0.53013 0.50253 0.0
H763 H 0.70424 0.56968 0.51424 0.0
C764 C 0.57133 0.49131 0.4376 0.0
N765 N 0.56415 0.52219 0.45127 0.0
N766 N 0.60624 0.53355 0.45832 0.0
C767 C 0.64135 0.5088 0.44975 0.0
C768 C 0.6209 0.48177 0.43604 0.0
C769 C 0.53154 0.47307 0.42591 0.0
H770 H 0.5003 0.49843 0.42614 0.0
H771 H 0.51917 0.43724 0.43086 0.0
H772 H 0.54464 0.46858 0.41211 0.0
O773 O 0.50077 0.61901 0.45842 0.0
O774 O 0.57086 0.64105 0.47023 0.0
H775 H 0.7115 0.54094 0.45216 0.0
H776 H 0.7127 0.47547 0.4502 0.0
C777 C 0.69281 0.50678 0.45585 0.0
H778 H 0.69324 0.50257 0.47036 0.0
H779 H 0.6634 0.65967 0.45952 0.0
O780 O 0.44881 0.51445 0.45617 0.0
C781 C 0.53063 0.65194 0.46297 0.0
Co782 Co 0.71099 0.25722 0.71253 0.0
Co783 Co 0.67607 0.3571 0.72583 0.0
C784 C 0.72045 0.28789 0.75102 0.0
O785 O 0.72287 0.25834 0.73822 0.0
O786 O 0.70396 0.33064 0.74862 0.0
C787 C 0.78638 0.1927 0.7135 0.0
O788 O 0.80736 0.2308 0.72063 0.0
C789 C 0.67841 0.45986 0.73543 0.0
C790 C 0.61089 0.48554 0.72276 0.0
C791 C 0.65291 0.50166 0.73092 0.0
N792 N 0.65363 0.42141 0.72938 0.0
N793 N 0.61249 0.43685 0.72239 0.0
C794 C 0.72549 0.45581 0.74524 0.0
H795 H 0.72178 0.42824 0.75586 0.0
H796 H 0.75438 0.44279 0.73622 0.0
H797 H 0.7362 0.49096 0.75124 0.0
C798 C 0.77045 0.3187 0.68801 0.0
N799 N 0.73773 0.31284 0.70118 0.0
N800 N 0.72239 0.35569 0.7065 0.0
C801 C 0.74441 0.39001 0.69649 0.0
C802 C 0.77644 0.36797 0.68485 0.0
C803 C 0.7962 0.2779 0.67896 0.0
H804 H 0.7714 0.2465 0.67741 0.0
H805 H 0.82742 0.26642 0.68722 0.0
H806 H 0.81021 0.28912 0.66582 0.0
O807 O 0.63998 0.24997 0.70824 0.0
O808 O 0.61655 0.32066 0.71925 0.0
H809 H 0.69354 0.4484 0.69965 0.0
H810 H 0.73972 0.45931 0.68336 0.0
C811 C 0.73224 0.44279 0.69649 0.0
H812 H 0.75553 0.46129 0.70628 0.0
H813 H 0.58719 0.41447 0.71618 0.0
O814 O 0.74493 0.19746 0.70631 0.0
C815 C 0.60651 0.27987 0.71228 0.0
Co816 Co 0.00729 0.46277 0.46295 0.0
Co817 Co 0.10769 0.42776 0.47605 0.0
C818 C 0.03872 0.47172 0.50139 0.0
O819 O 0.0091 0.47416 0.4886 0.0
O820 O 0.08153 0.45543 0.49896 0.0
C821 C 0.94293 0.5387 0.46429 0.0
O822 O 0.98136 0.55954 0.47123 0.0
C823 C 0.21101 0.43009 0.48519 0.0
C824 C 0.23604 0.36239 0.47248 0.0
C825 C 0.2526 0.40444 0.4805 0.0
N826 N 0.17223 0.40532 0.47937 0.0
N827 N 0.18735 0.36411 0.47236 0.0
C828 C 0.20745 0.47717 0.495 0.0
H829 H 0.19423 0.50613 0.48604 0.0
H830 H 0.24284 0.48775 0.50085 0.0
H831 H 0.18021 0.47354 0.50574 0.0
C832 C 0.06854 0.52259 0.4384 0.0
N833 N 0.06281 0.4897 0.45154 0.0
N834 N 0.10574 0.4742 0.45674 0.0
C835 C 0.13992 0.49617 0.44666 0.0
C836 C 0.11778 0.52845 0.43512 0.0
C837 C 0.02767 0.54857 0.42947 0.0
H838 H 0.99598 0.52406 0.42812 0.0
H839 H 0.01679 0.58004 0.4377 0.0
H840 H 0.0386 0.56226 0.41624 0.0
O841 O 1.0001 0.39162 0.45862 0.0
O842 O 0.07104 0.36827 0.4695 0.0
H843 H 0.19792 0.44466 0.44943 0.0
H844 H 0.2087 0.49105 0.4332 0.0
C845 C 0.19259 0.48349 0.44639 0.0
H846 H 0.2117 0.5064 0.45614 0.0
H847 H 0.16468 0.3388 0.46629 0.0
O848 O 0.9472 0.49712 0.45714 0.0
C849 C 0.03014 0.35817 0.4626 0.0
Co850 Co 0.29669 0.25644 0.21304 0.0
Co851 Co 0.33209 0.35672 0.22605 0.0
C852 C 0.28807 0.28793 0.25148 0.0
O853 O 0.28541 0.25829 0.23871 0.0
O854 O 0.30453 0.33067 0.249 0.0
C855 C 0.22068 0.19212 0.21445 0.0
O856 O 0.19987 0.23053 0.2214 0.0
C857 C 0.33022 0.45997 0.23524 0.0
C858 C 0.39784 0.48491 0.22244 0.0
C859 C 0.35595 0.50152 0.23055 0.0
N860 N 0.35478 0.42118 0.22934 0.0
N861 N 0.39595 0.43622 0.22228 0.0
C862 C 0.28322 0.45648 0.24511 0.0
H863 H 0.25416 0.44334 0.23618 0.0
H864 H 0.27277 0.49187 0.25097 0.0
H865 H 0.28689 0.42921 0.25584 0.0
C866 C 0.23696 0.31784 0.18848 0.0
N867 N 0.26986 0.31204 0.20161 0.0
N868 N 0.28549 0.35493 0.20679 0.0
C869 C 0.26357 0.38917 0.19671 0.0
C870 C 0.23122 0.3671 0.18518 0.0
C871 C 0.21087 0.27702 0.17957 0.0
H872 H 0.23534 0.24531 0.17819 0.0
H873 H 0.17948 0.26613 0.18784 0.0
H874 H 0.19707 0.28799 0.16636 0.0
O875 O 0.36779 0.24901 0.20865 0.0
O876 O 0.39142 0.31992 0.21946 0.0
H877 H 0.26867 0.45805 0.18329 0.0
H878 H 0.25347 0.46089 0.20625 0.0
C879 C 0.27629 0.44183 0.19646 0.0
H880 H 0.31514 0.44712 0.19948 0.0
H881 H 0.42111 0.41352 0.21615 0.0
O882 O 0.2622 0.19642 0.20726 0.0
C883 C 0.40135 0.27899 0.21257 0.0
Co884 Co 0.50181 0.5478 0.96277 0.0
Co885 Co 0.4023 0.5814 0.97708 0.0
C886 C 0.47122 0.53827 1.00183 0.0
O887 O 0.49999 0.53567 0.98872 0.0
O888 O 0.42835 0.55496 0.99988 0.0
C889 C 0.56626 0.47187 0.96317 0.0
O890 O 0.52826 0.45028 0.9701 0.0
C891 C 0.29849 0.58838 0.98719 0.0
C892 C 0.27542 0.64483 0.96821 0.0
C893 C 0.25772 0.6115 0.98029 0.0
N894 N 0.33792 0.60592 0.97892 0.0
N895 N 0.32392 0.64087 0.96809 0.0
C896 C 0.30031 0.55111 1.00164 0.0
H897 H 0.33144 0.52618 0.99969 0.0
H898 H 0.26591 0.53053 1.00272 0.0
H899 H 0.30615 0.57011 1.01441 0.0
C900 C 0.43867 0.4907 0.93785 0.0
N901 N 0.44598 0.52165 0.95149 0.0
N902 N 0.40395 0.53318 0.95853 0.0
C903 C 0.36874 0.50845 0.95 0.0
C904 C 0.38907 0.48128 0.93631 0.0
C905 C 0.47836 0.47232 0.92616 0.0
H906 H 0.50966 0.49763 0.92636 0.0
H907 H 0.49069 0.4365 0.93113 0.0
H908 H 0.46519 0.46778 0.91237 0.0
O909 O 0.50963 0.61833 0.95847 0.0
O910 O 0.43963 0.64068 0.97024 0.0
H911 H 0.2987 0.54081 0.95237 0.0
H912 H 0.29729 0.47532 0.95049 0.0
C913 C 0.3173 0.50663 0.9561 0.0
H914 H 0.31688 0.50255 0.97062 0.0
H915 H 0.34717 0.65953 0.95958 0.0
O916 O 0.56129 0.51372 0.95633 0.0
C917 C 0.47986 0.65138 0.96296 0.0
Co918 Co 0.20966 0.75144 0.71226 0.0
Co919 Co 0.17538 0.65132 0.72563 0.0
C920 C 0.21989 0.72079 0.75072 0.0
O921 O 0.22198 0.75036 0.73791 0.0
O922 O 0.20356 0.67796 0.74836 0.0
C923 C 0.28502 0.81591 0.71301 0.0
O924 O 0.30604 0.77775 0.72008 0.0
C925 C 0.17877 0.54846 0.73513 0.0
C926 C 0.11122 0.52236 0.72259 0.0
C927 C 0.15356 0.50647 0.7306 0.0
N928 N 0.1535 0.58678 0.72922 0.0
N929 N 0.11236 0.57106 0.72232 0.0
C930 C 0.22597 0.55281 0.74484 0.0
H931 H 0.22228 0.58041 0.75545 0.0
H932 H 0.25467 0.56592 0.73575 0.0
H933 H 0.23693 0.51774 0.75085 0.0
C934 C 0.26911 0.69027 0.68765 0.0
N935 N 0.23646 0.69597 0.70085 0.0
N936 N 0.22133 0.65305 0.70619 0.0
C937 C 0.24337 0.61885 0.69614 0.0
C938 C 0.27526 0.64103 0.68448 0.0
C939 C 0.29466 0.73116 0.67857 0.0
H940 H 0.26986 0.76259 0.67713 0.0
H941 H 0.32612 0.74251 0.68674 0.0
H942 H 0.30835 0.72007 0.66537 0.0
O943 O 0.1385 0.75837 0.70818 0.0
O944 O 0.11549 0.68753 0.71924 0.0
H945 H 0.23872 0.54967 0.68294 0.0
H946 H 0.25461 0.54747 0.70584 0.0
C947 C 0.23127 0.56604 0.69609 0.0
H948 H 0.19258 0.56035 0.69926 0.0
H949 H 0.08674 0.59331 0.71621 0.0
O950 O 0.24336 0.8113 0.70597 0.0
C951 C 0.10519 0.72835 0.71232 0.0
Co952 Co 0.00793 0.55032 0.1088 0.0
Co953 Co 0.10838 0.58387 0.0956 0.0
C954 C 0.03905 0.53982 0.07038 0.0
O955 O 0.00933 0.53799 0.08314 0.0
O956 O 0.08197 0.55585 0.0728 0.0
C957 C 0.94346 0.475 0.10791 0.0
O958 O 0.98185 0.45397 0.10103 0.0
C959 C 0.2113 0.5803 0.08619 0.0
C960 C 0.23758 0.64747 0.09895 0.0
C961 C 0.25333 0.60532 0.0908 0.0
N962 N 0.17305 0.60551 0.09218 0.0
N963 N 0.18888 0.64641 0.09923 0.0
C964 C 0.20686 0.53336 0.07634 0.0
H965 H 0.1798 0.53762 0.06557 0.0
H966 H 0.19296 0.50463 0.08526 0.0
H967 H 0.24205 0.52209 0.07052 0.0
C968 C 0.06841 0.49039 0.13356 0.0
N969 N 0.06309 0.52314 0.12035 0.0
N970 N 0.10619 0.53779 0.11504 0.0
C971 C 0.14013 0.51525 0.12508 0.0
C972 C 0.11758 0.48361 0.13675 0.0
C973 C 0.02723 0.46528 0.14263 0.0
H974 H 0.99587 0.49025 0.14387 0.0
H975 H 0.01593 0.43362 0.13456 0.0
H976 H 0.038 0.45194 0.15591 0.0
O977 O 1.00129 0.62158 0.11283 0.0
O978 O 0.07237 0.64405 0.10188 0.0
H979 H 0.19941 0.56509 0.12195 0.0
H980 H 0.20965 0.51842 0.13813 0.0
C981 C 0.19313 0.52644 0.12504 0.0
H982 H 0.2111 0.50301 0.11517 0.0
H983 H 0.1667 0.67194 0.10541 0.0
O984 O 0.94781 0.51676 0.11489 0.0
C985 C 0.03154 0.65469 0.1087 0.0
Co986 Co 0.21102 0.25811 0.85786 0.0
Co987 Co 0.17777 0.35783 0.84358 0.0
C988 C 0.22079 0.28894 0.81882 0.0
O989 O 0.22324 0.26009 0.83192 0.0
O990 O 0.20423 0.33185 0.82078 0.0
C991 C 0.28691 0.19363 0.85751 0.0
O992 O 0.30852 0.23172 0.85063 0.0
C993 C 0.1712 0.46178 0.83356 0.0
C994 C 0.11483 0.48488 0.85254 0.0
C995 C 0.14825 0.50258 0.8405 0.0
N996 N 0.15347 0.42232 0.84177 0.0
N997 N 0.11857 0.43635 0.8526 0.0
C998 C 0.20848 0.45997 0.81913 0.0
H999 H 0.23326 0.4287 0.82104 0.0
H1000 H 0.2292 0.49429 0.81809 0.0
H1001 H 0.18946 0.45436 0.80634 0.0
C1002 C 0.2682 0.32091 0.88286 0.0
N1003 N 0.23727 0.31379 0.86919 0.0
N1004 N 0.22591 0.3559 0.86217 0.0
C1005 C 0.25073 0.39097 0.87074 0.0
C1006 C 0.27779 0.37047 0.88443 0.0
C1007 C 0.28643 0.28108 0.89454 0.0
H1008 H 0.26102 0.24987 0.89431 0.0
H1009 H 0.32222 0.26868 0.88958 0.0
H1010 H 0.291 0.29417 0.90834 0.0
O1011 O 0.14046 0.25045 0.86208 0.0
O1012 O 0.11834 0.32059 0.85033 0.0
H1013 H 0.21867 0.46116 0.86837 0.0
H1014 H 0.28415 0.46229 0.87029 0.0
C1015 C 0.25278 0.44244 0.86466 0.0
H1016 H 0.25691 0.44292 0.85014 0.0
H1017 H 0.0998 0.41308 0.86107 0.0
O1018 O 0.24498 0.19851 0.86428 0.0
C1019 C 0.1075 0.28034 0.85757 0.0
Co1020 Co 0.50092 0.46004 0.60857 0.0
Co1021 Co 0.4008 0.42557 0.59523 0.0
C1022 C 0.4699 0.46991 0.57009 0.0
O1023 O 0.49941 0.47202 0.58293 0.0
O1024 O 0.42708 0.45358 0.57243 0.0
C1025 C 0.56571 0.53532 0.60754 0.0
O1026 O 0.52759 0.55638 0.60046 0.0
C1027 C 0.29802 0.42843 0.5857 0.0
C1028 C 0.27204 0.36115 0.59847 0.0
C1029 C 0.25609 0.40324 0.5903 0.0
N1030 N 0.33637 0.40342 0.59173 0.0
N1031 N 0.32073 0.36243 0.59877 0.0
C1032 C 0.30228 0.47541 0.57585 0.0
H1033 H 0.31553 0.5043 0.58482 0.0
H1034 H 0.26716 0.48626 0.56985 0.0
H1035 H 0.32975 0.47145 0.56521 0.0
C1036 C 0.43978 0.51966 0.63312 0.0
N1037 N 0.44547 0.48689 0.61995 0.0
N1038 N 0.40256 0.47175 0.61462 0.0
C1039 C 0.36836 0.49391 0.62463 0.0
C1040 C 0.39054 0.52587 0.63627 0.0
C1041 C 0.48068 0.54533 0.64215 0.0
H1042 H 0.5121 0.52052 0.64363 0.0
H1043 H 0.49206 0.57663 0.6339 0.0
H1044 H 0.46961 0.55923 0.65532 0.0
O1045 O 0.5079 0.38896 0.61276 0.0
O1046 O 0.43716 0.36583 0.60168 0.0
H1047 H 0.30975 0.44326 0.62152 0.0
H1048 H 0.29899 0.48972 0.63772 0.0
C1049 C 0.31552 0.48198 0.62462 0.0
H1050 H 0.29717 0.50521 0.61477 0.0
H1051 H 0.34302 0.33703 0.60498 0.0
O1052 O 0.56095 0.49381 0.6147 0.0
C1053 C 0.47793 0.35561 0.60864 0.0
Co1054 Co 0.30152 0.75163 0.35897 0.0
Co1055 Co 0.33514 0.65108 0.34587 0.0
C1056 C 0.29105 0.71984 0.32058 0.0
O1057 O 0.28931 0.74959 0.33334 0.0
O1058 O 0.30711 0.67695 0.323 0.0
C1059 C 0.22627 0.81639 0.35781 0.0
O1060 O 0.20518 0.77803 0.35092 0.0
C1061 C 0.33212 0.5482 0.33648 0.0
C1062 C 0.39891 0.52208 0.34957 0.0
C1063 C 0.35707 0.50624 0.34121 0.0
N1064 N 0.35703 0.5865 0.3426 0.0
N1065 N 0.39773 0.57078 0.34983 0.0
C1066 C 0.28548 0.55252 0.32642 0.0
H1067 H 0.25655 0.56674 0.33518 0.0
H1068 H 0.27427 0.51723 0.32066 0.0
H1069 H 0.29014 0.57931 0.31558 0.0
C1070 C 0.24145 0.69134 0.3837 0.0
N1071 N 0.27434 0.69658 0.37055 0.0
N1072 N 0.28893 0.65344 0.36526 0.0
C1073 C 0.26617 0.61956 0.37524 0.0
C1074 C 0.2345 0.64219 0.38687 0.0
C1075 C 0.21625 0.7326 0.39268 0.0
H1076 H 0.2412 0.76397 0.39393 0.0
H1077 H 0.18469 0.74383 0.38454 0.0
H1078 H 0.20275 0.72192 0.40595 0.0
O1079 O 0.37269 0.75838 0.36307 0.0
O1080 O 0.39519 0.6873 0.35213 0.0
H1081 H 0.26853 0.54979 0.38815 0.0
H1082 H 0.25371 0.54886 0.36512 0.0
C1083 C 0.27699 0.56648 0.37513 0.0
H1084 H 0.31568 0.56 0.37217 0.0
H1085 H 0.42299 0.59303 0.35614 0.0
O1086 O 0.26793 0.81193 0.36489 0.0
C1087 C 0.4058 0.72814 0.35897 0.0
C1088 C 0.45913 0.02335 0.03625 0.0
C1089 C 0.48885 0.02078 0.0513 0.0
H1090 H 0.45182 0.00961 1.00856 0.0
C1091 C 0.53601 1.00135 0.04946 0.0
H1092 H 0.42276 0.03803 0.03713 0.0
C1093 C 0.55291 0.98491 1.033 0.0
C1094 C 0.52308 0.98739 1.01797 0.0
H1095 H 0.56006 0.99869 0.06077 0.0
H1096 H 0.58924 0.97016 1.0321 0.0
C1097 C 0.47599 0.00692 1.01983 0.0
C1098 C 0.23563 0.20734 0.28776 0.0
C1099 C 0.23814 0.23744 0.3027 0.0
H1100 H 0.24912 0.19958 0.26004 0.0
C1101 C 0.25745 0.28461 0.30067 0.0
H1102 H 0.22104 0.17096 0.28878 0.0
C1103 C 0.27367 0.30125 0.28415 0.0
C1104 C 0.27108 0.27116 0.26921 0.0
H1105 H 0.26012 0.30898 0.31188 0.0
H1106 H 0.28821 0.33764 0.28312 0.0
C1107 C 0.25183 0.22396 0.27125 0.0
C1108 C 0.95764 0.0242 0.53311 0.0
C1109 C 0.98795 0.02216 0.51821 0.0
H1110 H 0.94956 0.00994 0.56077 0.0
C1111 C 0.03515 1.00295 0.52027 0.0
H1112 H 0.92123 0.03868 0.53206 0.0
C1113 C 0.05159 0.98634 0.53676 0.0
C1114 C 0.02129 0.98841 0.55166 0.0
H1115 H 0.05968 1.00062 0.5091 0.0
H1116 H 0.08801 0.97187 0.53781 0.0
C1117 C 0.97408 0.0076 0.5496 0.0
C1118 C 0.23502 0.70763 0.78334 0.0
C1119 C 0.23729 0.73769 0.76837 0.0
H1120 H 0.24887 0.69998 0.81103 0.0
C1121 C 0.25651 0.78493 0.77035 0.0
H1122 H 0.22052 0.6712 0.78235 0.0
C1123 C 0.27288 0.80164 0.78683 0.0
C1124 C 0.27057 0.77158 0.8018 0.0
H1125 H 0.259 0.80926 0.75912 0.0
H1126 H 0.28736 0.83807 0.78782 0.0
C1127 C 0.25138 0.72434 0.79981 0.0
C1128 C 0.5514 0.02354 0.53733 0.0
C1129 C 0.5212 0.02101 0.55225 0.0
H1130 H 0.5594 0.00985 0.50963 0.0
C1131 C 0.47408 1.00162 0.55018 0.0
H1132 H 0.58775 0.03819 0.53838 0.0
C1133 C 0.45763 0.98527 0.53366 0.0
C1134 C 0.48783 0.98777 0.51874 0.0
H1135 H 0.44963 0.99895 0.56137 0.0
H1136 H 0.42128 0.9706 0.53261 0.0
C1137 C 0.53495 0.00719 0.52081 0.0
C1138 C 0.27384 0.20716 0.783 0.0
C1139 C 0.27151 0.23696 0.76795 0.0
H1140 H 0.2599 0.2001 0.81076 0.0
C1141 C 0.25214 0.28413 0.76979 0.0
H1142 H 0.28846 0.17077 0.78211 0.0
C1143 C 0.23569 0.30108 0.7862 0.0
C1144 C 0.23807 0.27136 0.80126 0.0
H1145 H 0.24957 0.30828 0.75851 0.0
H1146 H 0.22112 0.33749 0.78706 0.0
C1147 C 0.25737 0.22415 0.79944 0.0
C1148 C 0.95825 0.98713 0.03647 0.0
C1149 C 0.98843 0.98931 0.05141 0.0
H1150 H 0.95044 1.00118 1.00877 0.0
C1151 C 0.0357 0.0084 0.04938 0.0
H1152 H 0.9218 0.97273 0.03749 0.0
C1153 C 0.05231 0.02481 1.03289 0.0
C1154 C 0.02213 0.02269 1.01796 0.0
H1155 H 0.06015 0.01081 0.06058 0.0
H1156 H 0.08876 0.03923 1.03188 0.0
C1157 C 0.97487 1.00356 1.01998 0.0
C1158 C 0.27542 0.70672 0.28794 0.0
C1159 C 0.27337 0.73665 0.30295 0.0
H1160 H 0.26104 0.69947 0.26021 0.0
C1161 C 0.25402 0.78383 0.30108 0.0
H1162 H 0.29 0.67032 0.28885 0.0
C1163 C 0.23733 0.80066 0.28467 0.0
C1164 C 0.23945 0.77083 0.26965 0.0
H1165 H 0.25166 0.80807 0.31233 0.0
H1166 H 0.22279 0.83709 0.2838 0.0
C1167 C 0.25872 0.7236 0.2715 0.0
C1168 C 0.77273 0.80158 0.78398 0.0
C1169 C 0.77047 0.77136 0.76906 0.0
H1170 H 0.75881 0.80951 0.81167 0.0
C1171 C 0.75131 0.72413 0.77112 0.0
H1172 H 0.78718 0.83801 0.78294 0.0
C1173 C 0.73494 0.70759 0.78763 0.0
C1174 C 0.73718 0.73782 0.80254 0.0
H1175 H 0.74885 0.69965 0.75993 0.0
H1176 H 0.72048 0.67116 0.78867 0.0
C1177 C 0.75634 0.78504 0.80049 0.0
C1178 C 0.73532 0.20674 0.28278 0.0
C1179 C 0.73744 0.2366 0.26774 0.0
H1180 H 0.74954 0.19961 0.31052 0.0
C1181 C 0.75678 0.28379 0.26959 0.0
H1182 H 0.72073 0.17034 0.28189 0.0
C1183 C 0.77339 0.3007 0.28599 0.0
C1184 C 0.77119 0.27094 0.30104 0.0
H1185 H 0.75921 0.30799 0.25832 0.0
H1186 H 0.78793 0.33713 0.28685 0.0
C1187 C 0.75193 0.22369 0.29922 0.0
C1188 C 0.77502 0.70732 0.28328 0.0
C1189 C 0.77253 0.73737 0.26832 0.0
H1190 H 0.76153 0.69966 0.311 0.0
C1191 C 0.75325 0.78457 0.27031 0.0
H1192 H 0.78957 0.67092 0.28228 0.0
C1193 C 0.73706 0.80127 0.28682 0.0
C1194 C 0.73963 0.77122 0.30179 0.0
H1195 H 0.7506 0.8089 0.25909 0.0
H1196 H 0.72254 0.83767 0.28783 0.0
C1197 C 0.75884 0.724 0.29977 0.0
C1198 C 0.75188 0.28474 0.80014 0.0
C1199 C 0.77129 0.23761 0.80216 0.0
H1200 H 0.72076 0.33764 0.78262 0.0
C1201 C 0.77363 0.20746 0.78722 0.0
H1202 H 0.74933 0.30915 0.81134 0.0
C1203 C 0.75714 0.22398 0.77073 0.0
C1204 C 0.73777 0.27113 0.76871 0.0
H1205 H 0.78829 0.1711 0.78824 0.0
H1206 H 0.7597 0.19959 0.75953 0.0
C1207 C 0.73538 0.30127 0.78364 0.0
C1208 C 0.95773 0.52407 0.53754 0.0
C1209 C 0.98772 0.52169 0.55252 0.0
H1210 H 0.95022 0.51047 0.50982 0.0
C1211 C 0.03499 0.50255 0.55055 0.0
H1212 H 0.92129 0.53851 0.53851 0.0
C1213 C 0.0518 0.48635 0.53406 0.0
C1214 C 0.0218 0.48877 0.51908 0.0
H1215 H 0.05928 0.49999 0.56179 0.0
H1216 H 0.08824 0.47192 0.53308 0.0
C1217 C 0.97453 0.50788 0.52106 0.0
C1218 C 0.53595 0.50148 1.02122 0.0
C1219 C 0.4888 0.52095 1.0194 0.0
H1220 H 0.58922 0.47012 0.03855 0.0
C1221 C 0.45913 0.52342 1.03445 0.0
H1222 H 0.55995 0.49888 1.0099 0.0
C1223 C 0.47603 0.50685 0.05086 0.0
C1224 C 0.52312 0.48727 0.0527 0.0
H1225 H 0.42276 0.53813 1.0336 0.0
H1226 H 0.45191 0.50947 0.06214 0.0
C1227 C 0.55289 0.4849 0.03766 0.0
C1228 C 0.97493 0.50342 0.05067 0.0
C1229 C 0.02221 0.5225 0.0527 0.0
H1230 H 0.92178 0.47278 1.03314 0.0
C1231 C 0.05234 0.52475 0.03776 0.0
H1232 H 0.95054 0.50094 0.06188 0.0
C1233 C 0.03565 0.50851 1.02126 0.0
C1234 C 0.98836 0.48947 1.01922 0.0
H1235 H 0.08879 0.53915 0.03878 0.0
H1236 H 0.06006 0.51102 1.01006 0.0
C1237 C 0.95824 0.48716 1.03417 0.0
C1238 C 0.55113 0.5233 0.53427 0.0
C1239 C 0.52149 0.52098 0.5192 0.0
H1240 H 0.5582 0.50931 0.56197 0.0
C1241 C 0.47427 0.50166 0.52098 0.0
H1242 H 0.58755 0.53789 0.53344 0.0
C1243 C 0.4572 0.48512 0.53741 0.0
C1244 C 0.48693 0.4874 0.55247 0.0
H1245 H 0.45028 0.49917 0.50965 0.0
H1246 H 0.42081 0.4705 0.53827 0.0
C1247 C 0.53411 0.50678 0.55067 0.0
C1248 C 0.65483 0.98578 0.10338 0.0
C1249 C 0.61547 0.95352 0.10331 0.0
H1250 H 0.72987 0.99625 0.09859 0.0
C1251 C 0.62268 0.90561 0.09755 0.0
H1252 H 0.65034 0.02319 0.10746 0.0
C1253 C 0.66884 0.89002 0.0924 0.0
C1254 C 0.70823 0.92238 0.09252 0.0
H1255 H 0.59279 0.88011 0.09717 0.0
H1256 H 0.67392 0.8525 0.08856 0.0
C1257 C 0.70052 0.97049 0.09793 0.0
C1258 C 0.2893 0.44997 0.34883 0.0
C1259 C 0.33764 0.45679 0.34354 0.0
H1260 H 0.23544 0.40066 0.35814 0.0
C1261 C 0.36922 0.4168 0.34341 0.0
H1262 H 0.26413 0.47983 0.34949 0.0
C1263 C 0.35262 0.37091 0.34843 0.0
C1264 C 0.30448 0.36458 0.35407 0.0
H1265 H 0.4069 0.42121 0.33966 0.0
H1266 H 0.37753 0.34053 0.34806 0.0
C1267 C 0.27299 0.40452 0.35416 0.0
C1268 C 0.80842 0.03887 0.59789 0.0
C1269 C 0.80106 0.08704 0.59247 0.0
H1270 H 0.85835 0.9857 0.60728 0.0
C1271 C 0.84074 0.119 0.59217 0.0
H1272 H 0.77885 0.01341 0.59868 0.0
C1273 C 0.88687 0.10296 0.59716 0.0
C1274 C 0.89372 0.05501 0.60293 0.0
H1275 H 0.83592 0.15656 0.58831 0.0
H1276 H 0.917 0.12815 0.59665 0.0
C1277 C 0.85409 0.02314 0.60319 0.0
C1278 C 0.21675 0.55918 0.8461 0.0
C1279 C 0.16761 0.55222 0.84192 0.0
H1280 H 0.27171 0.60852 0.85456 0.0
C1281 C 0.13576 0.59189 0.84275 0.0
H1282 H 0.242 0.52926 0.84611 0.0
C1283 C 0.15289 0.63773 0.84764 0.0
C1284 C 0.20182 0.64415 0.8523 0.0
H1285 H 0.09748 0.58713 0.84 0.0
H1286 H 0.12774 0.6679 0.84809 0.0
C1287 C 0.23361 0.60452 0.85135 0.0
C1288 C 0.70104 0.03876 0.47229 0.0
C1289 C 0.70811 0.08695 0.47772 0.0
H1290 H 0.65138 0.98526 0.46295 0.0
C1291 C 0.66823 0.11865 0.47804 0.0
H1292 H 0.73081 0.01353 0.47147 0.0
C1293 C 0.62219 0.10231 0.47309 0.0
C1294 C 0.61559 0.05431 0.46734 0.0
H1295 H 0.67284 0.15623 0.48189 0.0
H1296 H 0.5919 0.12731 0.47363 0.0
C1297 C 0.65543 0.02271 0.46704 0.0
C1298 C 0.2369 0.40442 0.71728 0.0
C1299 C 0.20511 0.36471 0.71727 0.0
H1300 H 0.24642 0.47951 0.72218 0.0
C1301 C 0.15711 0.37123 0.72303 0.0
H1302 H 0.27437 0.40039 0.71322 0.0
C1303 C 0.14092 0.41711 0.72823 0.0
C1304 C 0.17274 0.45693 0.72815 0.0
H1305 H 0.13199 0.34102 0.72335 0.0
H1306 H 0.10331 0.42166 0.73205 0.0
C1307 C 0.221 0.44986 0.72279 0.0
C1308 C 0.80952 0.97151 0.97244 0.0
C1309 C 0.80277 0.923 0.97757 0.0
H1310 H 0.85865 0.0256 0.96317 0.0
C1311 C 0.84278 0.89144 0.97751 0.0
H1312 H 0.77972 0.99675 0.97195 0.0
C1313 C 0.88857 0.90816 0.97242 0.0
C1314 C 0.89477 0.95644 0.96691 0.0
H1315 H 0.83847 0.85366 0.98115 0.0
H1316 H 0.91894 0.88325 0.97263 0.0
C1317 C 0.85485 0.98794 0.96704 0.0
C1318 C 0.27391 0.60479 0.2174 0.0
C1319 C 0.30612 0.6442 0.21749 0.0
H1320 H 0.26359 0.52968 0.2221 0.0
C1321 C 0.35409 0.63699 0.22318 0.0
H1322 H 0.23646 0.60928 0.21337 0.0
C1323 C 0.3698 0.59079 0.22825 0.0
C1324 C 0.33749 0.55135 0.22812 0.0
H1325 H 0.37955 0.66691 0.22357 0.0
H1326 H 0.40736 0.58571 0.23204 0.0
C1327 C 0.28932 0.55906 0.22277 0.0
C1328 C 0.38852 0.10156 0.97276 0.0
C1329 C 0.39493 0.05353 0.96702 0.0
H1330 H 0.33814 0.15561 0.98163 0.0
C1331 C 0.35504 0.02196 0.96686 0.0
H1332 H 0.41885 0.12653 0.97319 0.0
C1333 C 0.30955 0.0381 0.97221 0.0
C1334 C 0.30264 0.08637 0.97759 0.0
H1335 H 0.35897 0.98448 0.9628 0.0
H1336 H 0.27974 0.01289 0.97149 0.0
C1337 C 0.3426 0.118 0.97781 0.0
C1338 C 0.65574 0.63706 0.72368 0.0
C1339 C 0.7037 0.6439 0.71792 0.0
H1340 H 0.60218 0.58617 0.73258 0.0
C1341 C 0.73565 0.60432 0.7178 0.0
H1342 H 0.6305 0.66715 0.72409 0.0
C1343 C 0.71996 0.55872 0.7232 0.0
C1344 C 0.67177 0.55134 0.72857 0.0
H1345 H 0.77309 0.60859 0.71374 0.0
H1346 H 0.74549 0.52919 0.7225 0.0
C1347 C 0.63975 0.59099 0.72876 0.0
C1348 C 0.15574 0.98776 0.46765 0.0
C1349 C 0.11596 0.95609 0.46746 0.0
H1350 H 0.23077 0.99696 0.47269 0.0
C1351 C 0.12228 0.9079 0.47305 0.0
H1352 H 0.15184 0.02538 0.46373 0.0
C1353 C 0.16807 0.89141 0.47825 0.0
C1354 C 0.20797 0.92313 0.47834 0.0
H1355 H 0.092 0.88285 0.47323 0.0
H1356 H 0.17249 0.85368 0.48194 0.0
C1357 C 0.20108 0.97158 0.47316 0.0
C1358 C 0.78784 0.44996 0.22285 0.0
C1359 C 0.83627 0.4568 0.22807 0.0
H1360 H 0.73402 0.40077 0.21339 0.0
C1361 C 0.86791 0.41685 0.22802 0.0
H1362 H 0.76251 0.4797 0.22237 0.0
C1363 C 0.8514 0.37108 0.22281 0.0
C1364 C 0.80323 0.3648 0.21718 0.0
H1365 H 0.90563 0.4212 0.23173 0.0
H1366 H 0.8764 0.34077 0.22302 0.0
C1367 C 0.77162 0.40463 0.21734 0.0
C1368 C 0.30866 0.97052 0.59753 0.0
C1369 C 0.30137 0.92232 0.59213 0.0
H1370 H 0.35835 0.0236 0.60717 0.0
C1371 C 0.341 0.89028 0.59207 0.0
H1372 H 0.27916 0.99609 0.59812 0.0
C1373 C 0.38694 0.90622 0.59732 0.0
C1374 C 0.39368 0.95416 0.60311 0.0
H1375 H 0.33626 0.85271 0.58823 0.0
H1376 H 0.41703 0.88095 0.59701 0.0
C1377 C 0.35414 0.98615 0.60309 0.0
C1378 C 0.8747 0.59136 0.34246 0.0
C1379 C 0.84269 0.55181 0.34161 0.0
H1380 H 0.88304 0.6673 0.34789 0.0
C1381 C 0.79361 0.55891 0.34582 0.0
H1382 H 0.91295 0.5865 0.33968 0.0
C1383 C 0.77696 0.60426 0.35113 0.0
C1384 C 0.80891 0.64377 0.35212 0.0
H1385 H 0.76824 0.52909 0.3458 0.0
H1386 H 0.73889 0.60836 0.35436 0.0
C1387 C 0.85778 0.63722 0.34742 0.0
C1388 C 0.12269 0.1069 0.09737 0.0
C1389 C 0.11609 0.05799 0.10203 0.0
H1390 H 0.17353 0.16215 0.08979 0.0
C1391 C 0.15564 0.02609 0.10116 0.0
H1392 H 0.09258 0.13212 0.09776 0.0
C1393 C 0.20109 0.04282 0.09599 0.0
C1394 C 0.20822 0.09192 0.0918 0.0
H1395 H 0.15151 0.98801 0.10438 0.0
H1396 H 0.23093 0.01748 0.09605 0.0
C1397 C 0.16864 0.12389 0.09255 0.0
C1398 C 0.72089 0.45068 0.84841 0.0
C1399 C 0.67268 0.45773 0.84299 0.0
H1400 H 0.77437 0.40106 0.8578 0.0
C1401 C 0.64096 0.41786 0.8427 0.0
H1402 H 0.74615 0.48043 0.84919 0.0
C1403 C 0.65727 0.37185 0.8477 0.0
C1404 C 0.70528 0.36527 0.85346 0.0
H1405 H 0.60337 0.42245 0.83885 0.0
H1406 H 0.63226 0.34157 0.84721 0.0
C1407 C 0.73691 0.4051 0.85371 0.0
C1408 C 0.1209 0.40694 0.59789 0.0
C1409 C 0.11444 0.45503 0.60355 0.0
H1410 H 0.17128 0.35296 0.58897 0.0
C1411 C 0.15416 0.48679 0.60347 0.0
H1412 H 0.09067 0.38184 0.59763 0.0
C1413 C 0.19956 0.47079 0.59798 0.0
C1414 C 0.20657 0.42244 0.59272 0.0
H1415 H 0.15017 0.52434 0.60745 0.0
H1416 H 0.22922 0.4962 0.59853 0.0
C1417 C 0.16675 0.39063 0.59271 0.0
C1418 C 0.86812 0.91778 0.84255 0.0
C1419 C 0.83637 0.95765 0.84249 0.0
H1420 H 0.87677 0.8417 0.84754 0.0
C1421 C 0.78798 0.95071 0.84772 0.0
H1422 H 0.90581 0.92223 0.83884 0.0
C1423 C 0.77187 0.90534 0.85323 0.0
C1424 C 0.80357 0.86557 0.85337 0.0
H1425 H 0.76259 0.98038 0.84821 0.0
H1426 H 0.73429 0.9014 0.85717 0.0
C1427 C 0.85171 0.87196 0.84775 0.0
C1428 C 0.30976 0.53772 0.09856 0.0
C1429 C 0.30283 0.58597 0.09315 0.0
H1430 H 0.35923 0.48412 0.10798 0.0
C1431 C 0.34278 0.6176 0.0929 0.0
H1432 H 0.27995 0.51251 0.09931 0.0
C1433 C 0.38872 0.60118 0.09794 0.0
C1434 C 0.39517 0.55316 0.1037 0.0
H1435 H 0.3383 0.65521 0.08906 0.0
H1436 H 0.41905 0.62615 0.09748 0.0
C1437 C 0.35528 0.52159 0.1039 0.0
C1438 C 0.65639 0.13712 0.3476 0.0
C1439 C 0.70433 0.14441 0.35332 0.0
H1440 H 0.60321 0.08573 0.33876 0.0
C1441 C 0.73655 0.10502 0.3535 0.0
H1442 H 0.63092 0.16702 0.34715 0.0
C1443 C 0.7212 0.05924 0.34817 0.0
C1444 C 0.67307 0.05146 0.34279 0.0
H1445 H 0.77397 0.10957 0.35756 0.0
H1446 H 0.74692 0.02987 0.34891 0.0
C1447 C 0.64074 0.09086 0.34258 0.0
C1448 C 0.16844 0.6243 0.97815 0.0
C1449 C 0.20801 0.59231 0.97893 0.0
H1450 H 0.0924 0.63257 0.97288 0.0
C1451 C 0.20085 0.54321 0.97476 0.0
H1452 H 0.17334 0.66256 0.98089 0.0
C1453 C 0.15542 0.52651 0.96955 0.0
C1454 C 0.11588 0.55842 0.96865 0.0
H1455 H 0.23069 0.51785 0.97472 0.0
H1456 H 0.15127 0.48842 0.96635 0.0
C1457 C 0.12249 0.60733 0.9733 0.0
C1458 C 0.72128 0.94982 0.22197 0.0
C1459 C 0.67297 0.95668 0.2273 0.0
H1460 H 0.77506 0.90043 0.21268 0.0
C1461 C 0.64139 0.9167 0.22751 0.0
H1462 H 0.74644 0.97967 0.22124 0.0
C1463 C 0.65794 0.87076 0.22254 0.0
C1464 C 0.70604 0.86439 0.21687 0.0
H1465 H 0.60373 0.92115 0.23128 0.0
H1466 H 0.63303 0.84039 0.22298 0.0
C1467 C 0.73753 0.90433 0.2167 0.0
C1468 C 0.38795 0.40646 0.47291 0.0
C1469 C 0.39505 0.45443 0.46719 0.0
H1470 H 0.33686 0.35317 0.48189 0.0
C1471 C 0.35562 0.4866 0.46716 0.0
H1472 H 0.41788 0.38102 0.47325 0.0
C1473 C 0.30998 0.47117 0.47263 0.0
C1474 C 0.30238 0.423 0.478 0.0
H1475 H 0.36003 0.52405 0.46311 0.0
H1476 H 0.28058 0.49688 0.47201 0.0
C1477 C 0.34184 0.39073 0.47807 0.0
C1478 C 0.85256 0.13716 0.72357 0.0
C1479 C 0.80464 0.14395 0.71775 0.0
H1480 H 0.90601 0.08638 0.73264 0.0
C1481 C 0.77267 0.10439 0.71766 0.0
H1482 H 0.87781 0.16726 0.72395 0.0
C1483 C 0.78828 0.05885 0.72317 0.0
C1484 C 0.83643 0.05153 0.72861 0.0
H1485 H 0.73525 0.10863 0.71355 0.0
H1486 H 0.76273 0.02933 0.7225 0.0
C1487 C 0.86847 0.09116 0.72876 0.0
C1488 C 0.88798 0.60665 0.47318 0.0
C1489 C 0.89445 0.55775 0.4685 0.0
H1490 H 0.8373 0.662 0.48079 0.0
C1491 C 0.85482 0.52594 0.46937 0.0
H1492 H 0.91815 0.63182 0.47278 0.0
C1493 C 0.80942 0.54275 0.47457 0.0
C1494 C 0.80242 0.59186 0.47878 0.0
H1495 H 0.85885 0.48786 0.46615 0.0
H1496 H 0.77951 0.51749 0.4745 0.0
C1497 C 0.84209 0.62373 0.47802 0.0
C1498 C 0.23364 0.10405 0.2196 0.0
C1499 C 0.20174 0.14361 0.21871 0.0
H1500 H 0.2423 0.02879 0.22478 0.0
C1501 C 0.15287 0.13703 0.22341 0.0
H1502 H 0.2717 0.10817 0.21635 0.0
C1503 C 0.13592 0.0911 0.22829 0.0
C1504 C 0.16789 0.05151 0.22906 0.0
H1505 H 0.12764 0.16713 0.22301 0.0
H1506 H 0.09768 0.08622 0.23108 0.0
C1507 C 0.21696 0.05863 0.22483 0.0
C1508 C 0.65459 0.48613 0.96723 0.0
C1509 C 0.61523 0.45388 0.96735 0.0
H1510 H 0.72967 0.4966 0.97196 0.0
C1511 C 0.62247 0.40598 0.97312 0.0
H1512 H 0.65008 0.52354 0.96314 0.0
C1513 C 0.66867 0.39039 0.97824 0.0
C1514 C 0.70806 0.42275 0.97808 0.0
H1515 H 0.59259 0.38048 0.97353 0.0
H1516 H 0.67378 0.35287 0.98209 0.0
C1517 C 0.70032 0.47085 0.97266 0.0
C1518 C 0.27205 0.90437 0.71702 0.0
C1519 C 0.30373 0.86459 0.7171 0.0
H1520 H 0.2628 0.97958 0.72172 0.0
C1521 C 0.35183 0.8711 0.72276 0.0
H1522 H 0.23452 0.90036 0.71302 0.0
C1523 C 0.3682 0.91705 0.72781 0.0
C1524 C 0.33645 0.9569 0.72767 0.0
H1525 H 0.37687 0.84084 0.72313 0.0
H1526 H 0.40586 0.92161 0.73157 0.0
C1527 C 0.28813 0.94987 0.72238 0.0
C1528 C 0.84296 0.39106 0.09309 0.0
C1529 C 0.80296 0.42264 0.093 0.0
H1530 H 0.91911 0.38283 0.09802 0.0
C1531 C 0.80972 0.47115 0.09812 0.0
H1532 H 0.83864 0.35328 0.08946 0.0
C1533 C 0.85505 0.48755 0.10355 0.0
C1534 C 0.89495 0.45603 0.10372 0.0
H1535 H 0.77994 0.49641 0.09859 0.0
H1536 H 0.85886 0.52521 0.10741 0.0
C1537 C 0.88874 0.40776 0.09821 0.0
C1538 C 0.35308 0.13763 0.84769 0.0
C1539 C 0.30509 0.14472 0.85337 0.0
H1540 H 0.40646 0.0865 0.83883 0.0
C1541 C 0.27298 0.10524 0.85346 0.0
H1542 H 0.37847 0.16761 0.84731 0.0
C1543 C 0.28849 0.05955 0.84808 0.0
C1544 C 0.33667 0.05197 0.84275 0.0
H1545 H 0.23552 0.10964 0.85749 0.0
H1546 H 0.26283 0.03011 0.84875 0.0
C1547 C 0.36888 0.09148 0.84262 0.0
C1548 C 0.69971 0.53786 0.59811 0.0
C1549 C 0.70687 0.58607 0.59269 0.0
H1550 H 0.65005 0.48455 0.60761 0.0
C1551 C 0.66708 0.6179 0.59248 0.0
H1552 H 0.72936 0.51246 0.59882 0.0
C1553 C 0.6211 0.60174 0.59758 0.0
C1554 C 0.61445 0.55378 0.60337 0.0
H1555 H 0.67171 0.65547 0.58861 0.0
H1556 H 0.5909 0.62686 0.59715 0.0
C1557 C 0.65416 0.522 0.60352 0.0
C1558 C 0.22267 0.95026 0.34814 0.0
C1559 C 0.17425 0.95709 0.34291 0.0
H1560 H 0.27656 0.90102 0.35751 0.0
C1561 C 0.14267 0.91708 0.34288 0.0
H1562 H 0.24793 0.98005 0.3487 0.0
C1563 C 0.15926 0.87125 0.34799 0.0
C1564 C 0.20743 0.86496 0.3536 0.0
H1565 H 0.10496 0.92143 0.33916 0.0
H1566 H 0.13432 0.84089 0.3477 0.0
C1567 C 0.23897 0.90487 0.35355 0.0
C1568 C 0.29045 0.94135 0.16628 0.0
C1569 C 0.30758 0.89682 0.17283 0.0
H1570 H 0.30442 1.0042 0.15066 0.0
C1571 C 0.35267 0.87972 0.16666 0.0
H1572 H 0.25539 0.95525 0.17026 0.0
C1573 C 0.37977 0.90678 0.15429 0.0
C1574 C 0.36275 0.95191 0.14811 0.0
H1575 H 0.36729 0.84579 0.17151 0.0
H1576 H 0.41367 0.8921 0.14945 0.0
C1577 C 0.31826 0.96911 0.15465 0.0
C1578 C 0.3329 0.09329 0.42902 0.0
C1579 C 0.36652 0.05944 0.42241 0.0
H1580 H 0.27822 0.14638 0.42289 0.0
C1581 C 0.37212 0.05496 0.40401 0.0
H1582 H 0.32751 0.09695 0.44317 0.0
C1583 C 0.34361 0.08284 0.39246 0.0
C1584 C 0.30949 0.1162 0.39907 0.0
H1585 H 0.39704 0.02849 0.39858 0.0
H1586 H 0.34738 0.07755 0.37831 0.0
C1587 C 0.30488 0.12166 0.41746 0.0
C1588 C 0.1368 0.05539 0.66642 0.0
C1589 C 0.14271 0.06014 0.64805 0.0
H1590 H 0.1611 0.07762 0.69221 0.0
C1591 C 0.17645 0.09405 0.64156 0.0
H1592 H 0.11176 0.02886 0.67175 0.0
C1593 C 0.20428 0.12224 0.65321 0.0
C1594 C 0.19934 0.11651 0.67159 0.0
H1595 H 0.18205 0.09792 0.62742 0.0
H1596 H 0.23105 0.14703 0.64788 0.0
C1597 C 0.16511 0.08309 0.67808 0.0
C1598 C 0.16415 0.92649 0.89162 0.0
C1599 C 0.19775 0.89249 0.89816 0.0
H1600 H 0.11174 0.98169 0.89784 0.0
C1601 C 0.2024 0.88673 0.91655 0.0
H1602 H 0.16039 0.93203 0.87748 0.0
C1603 C 0.17497 0.91545 0.92816 0.0
C1604 C 0.1419 0.94996 0.92161 0.0
H1605 H 0.22871 0.86152 0.92193 0.0
H1606 H 0.18039 0.91154 0.9423 0.0
C1607 C 0.13623 0.95473 0.90323 0.0
C1608 C 0.66615 0.08281 0.89178 0.0
C1609 C 0.70007 0.11635 0.89842 0.0
H1610 H 0.61302 0.02815 0.89787 0.0
C1611 C 0.70458 0.12188 0.91682 0.0
H1612 H 0.66246 0.07749 0.87763 0.0
C1613 C 0.67669 0.09335 0.92836 0.0
C1614 C 0.6433 0.05928 0.92172 0.0
H1615 H 0.73109 0.14675 0.92226 0.0
H1616 H 0.68201 0.09705 0.94251 0.0
C1617 C 0.63777 0.05477 0.90332 0.0
C1618 C 0.70361 0.88678 0.65412 0.0
C1619 C 0.69867 0.89275 0.67249 0.0
H1620 H 0.6815 0.91086 0.62828 0.0
C1621 C 0.66463 0.92645 0.67891 0.0
H1622 H 0.73023 0.86177 0.64885 0.0
C1623 C 0.63645 0.95412 0.66718 0.0
C1624 C 0.64231 0.94908 0.64882 0.0
H1625 H 0.66062 0.93211 0.69303 0.0
H1626 H 0.61151 0.98082 0.67246 0.0
C1627 C 0.67592 0.91495 0.6424 0.0
C1628 C 0.80837 0.88622 0.4166 0.0
C1629 C 0.81308 0.89209 0.39822 0.0
H1630 H 0.8303 0.91089 0.44238 0.0
C1631 C 0.84669 0.92614 0.39172 0.0
H1632 H 0.78206 0.86097 0.42194 0.0
C1633 C 0.87457 0.95432 0.40337 0.0
C1634 C 0.86884 0.94945 0.42175 0.0
H1635 H 0.85049 0.93176 0.37759 0.0
H1636 H 0.89908 0.98132 0.39802 0.0
C1637 C 0.83577 0.91489 0.42825 0.0
C1638 C 0.83347 0.09545 0.14135 0.0
C1639 C 0.86757 0.06191 0.14786 0.0
H1640 H 0.77823 0.14778 0.14763 0.0
C1641 C 0.87348 0.05727 0.16624 0.0
H1642 H 0.82782 0.09921 0.12722 0.0
C1643 C 0.84479 0.08465 0.17788 0.0
C1644 C 0.81017 0.11766 0.17137 0.0
H1645 H 0.89877 0.03101 0.1716 0.0
H1646 H 0.84882 0.07923 0.19202 0.0
C1647 C 0.80527 0.12333 0.15299 0.0
C1648 C 0.83282 0.41555 0.64239 0.0
C1649 C 0.86629 0.44971 0.6489 0.0
H1650 H 0.77857 0.3622 0.6487 0.0
C1651 C 0.87205 0.45457 0.66728 0.0
H1652 H 0.82732 0.41161 0.62826 0.0
C1653 C 0.84388 0.42669 0.67893 0.0
C1654 C 0.80994 0.39299 0.67242 0.0
H1655 H 0.89687 0.48129 0.67262 0.0
H1656 H 0.84778 0.43221 0.69306 0.0
C1657 C 0.80513 0.38719 0.65404 0.0
C1658 C 0.8447 0.58502 0.8926 0.0
C1659 C 0.81016 0.61816 0.89907 0.0
H1660 H 0.89856 0.5313 0.89897 0.0
C1661 C 0.80521 0.62389 0.91744 0.0
H1662 H 0.84875 0.57955 0.87847 0.0
C1663 C 0.83332 0.59599 0.92912 0.0
C1664 C 0.86738 0.56236 0.92266 0.0
H1665 H 0.77823 0.64844 0.92276 0.0
H1666 H 0.82765 0.59983 0.94325 0.0
C1667 C 0.8733 0.55762 0.90428 0.0
C1668 C 0.63842 0.55431 0.16726 0.0
C1669 C 0.64387 0.55879 0.14886 0.0
H1670 H 0.66326 0.57703 0.19293 0.0
C1671 C 0.67728 0.59279 0.14219 0.0
H1672 H 0.61365 0.52773 0.17273 0.0
C1673 C 0.70527 0.62129 0.15371 0.0
C1674 C 0.70084 0.6158 0.17211 0.0
H1675 H 0.68254 0.59646 0.12804 0.0
H1676 H 0.73181 0.6461 0.14824 0.0
C1677 C 0.6669 0.58232 0.17877 0.0
C1678 C 0.69214 0.46974 0.41591 0.0
C1679 C 0.64758 0.45264 0.42243 0.0
H1680 H 0.75504 0.45571 0.40033 0.0
C1681 C 0.63049 0.40754 0.41626 0.0
H1682 H 0.70605 0.5048 0.41989 0.0
C1683 C 0.65758 0.38039 0.40392 0.0
C1684 C 0.70274 0.39738 0.39777 0.0
H1685 H 0.59653 0.39294 0.42109 0.0
H1686 H 0.64291 0.34648 0.39909 0.0
C1687 C 0.71993 0.44189 0.40431 0.0
C1688 C 0.16577 0.58482 0.39271 0.0
C1689 C 0.20034 0.61783 0.39925 0.0
H1690 H 0.1118 0.53112 0.39896 0.0
C1691 C 0.2051 0.62351 0.41764 0.0
H1692 H 0.16186 0.5794 0.37857 0.0
C1693 C 0.17684 0.59562 0.42925 0.0
C1694 C 0.14282 0.56204 0.42271 0.0
H1695 H 0.2321 0.64797 0.42301 0.0
H1696 H 0.1824 0.59936 0.44339 0.0
C1697 C 0.13702 0.55741 0.40433 0.0
C1698 C 0.13634 0.45452 0.16757 0.0
C1699 C 0.14202 0.44962 0.14919 0.0
H1700 H 0.16043 0.43195 0.19335 0.0
C1701 C 0.17504 0.41501 0.14269 0.0
H1702 H 0.11188 0.48155 0.17291 0.0
C1703 C 0.20241 0.38631 0.15435 0.0
C1704 C 0.19774 0.3922 0.17273 0.0
H1705 H 0.18047 0.41099 0.12856 0.0
H1706 H 0.22867 0.36102 0.14902 0.0
C1707 C 0.1642 0.42631 0.17922 0.0
C1708 C 0.37923 0.40705 0.91655 0.0
C1709 C 0.36227 0.4522 0.92271 0.0
H1710 H 0.36662 0.34603 0.89937 0.0
C1711 C 0.31775 0.46942 0.91619 0.0
H1712 H 0.41315 0.39236 0.92138 0.0
C1713 C 0.28987 0.44165 0.90459 0.0
C1714 C 0.30694 0.3971 0.89805 0.0
H1715 H 0.30396 0.50452 0.92016 0.0
H1716 H 0.2548 0.45557 0.90061 0.0
C1717 C 0.35205 0.37998 0.90421 0.0
C1718 C 0.30421 0.62186 0.6537 0.0
C1719 C 0.30895 0.61615 0.67208 0.0
H1720 H 0.32662 0.59741 0.62796 0.0
C1721 C 0.34301 0.58264 0.67864 0.0
H1722 H 0.27757 0.6467 0.64832 0.0
C1723 C 0.37136 0.55484 0.66704 0.0
C1724 C 0.36564 0.55957 0.64866 0.0
H1725 H 0.34687 0.5772 0.69278 0.0
H1726 H 0.39625 0.52824 0.67242 0.0
C1727 C 0.33208 0.59357 0.6421 0.0
C1728 C 0.45672 0.23887 0.10991 0.0
C1729 C 0.49302 0.20294 0.11002 0.0
H1730 H 0.44021 0.31492 0.10973 0.0
C1731 C 0.54179 0.21743 0.11111 0.0
H1732 H 0.41876 0.22889 0.10917 0.0
C1733 C 0.55406 0.26672 0.11116 0.0
C1734 C 0.51782 0.30266 0.11047 0.0
H1735 H 0.57062 0.19073 0.1112 0.0
H1736 H 0.59206 0.27668 0.11139 0.0
C1737 C 0.46896 0.28818 0.11031 0.0
C1738 C 0.9898 0.30334 0.35963 0.0
C1739 C 0.95386 0.26703 0.35975 0.0
H1740 H 0.06586 0.31985 0.35952 0.0
C1741 C 0.96836 0.21827 0.36091 0.0
H1742 H 0.97984 0.34129 0.35884 0.0
C1743 C 0.01765 0.20601 0.36103 0.0
C1744 C 0.0536 0.24224 0.36035 0.0
H1745 H 0.94166 0.18944 0.36101 0.0
H1746 H 0.02761 0.168 0.36132 0.0
C1747 C 0.03912 0.2911 0.36011 0.0
C1748 C 0.95535 0.7413 0.61091 0.0
C1749 C 0.99159 0.70529 0.6107 0.0
H1750 H 0.93893 0.81734 0.61058 0.0
C1751 C 0.04044 0.7197 0.61116 0.0
H1752 H 0.91733 0.7314 0.61067 0.0
C1753 C 0.05277 0.76897 0.61084 0.0
C1754 C 0.01654 0.80496 0.6104 0.0
H1755 H 0.0692 0.69294 0.61098 0.0
H1756 H 0.09079 0.77885 0.61057 0.0
C1757 C 0.96768 0.79058 0.61093 0.0
C1758 C 0.51738 0.70562 0.86096 0.0
C1759 C 0.55325 0.74202 0.86082 0.0
H1760 H 0.44139 0.68885 0.86061 0.0
C1761 C 0.5386 0.7908 0.86138 0.0
H1762 H 0.52743 0.66765 0.86065 0.0
C1763 C 0.48926 0.8029 0.8611 0.0
C1764 C 0.4534 0.76652 0.8606 0.0
H1765 H 0.56522 0.8197 0.86127 0.0
H1766 H 0.47922 0.84088 0.86091 0.0
C1767 C 0.46802 0.71773 0.86102 0.0
C1768 C 0.55413 0.73986 0.46107 0.0
C1769 C 0.5178 0.70395 0.46083 0.0
H1770 H 0.57069 0.81591 0.46146 0.0
C1771 C 0.46905 0.71851 0.45973 0.0
H1772 H 0.59207 0.72985 0.46181 0.0
C1773 C 0.45682 0.7678 0.45981 0.0
C1774 C 0.49308 0.80371 0.46063 0.0
H1775 H 0.4402 0.69183 0.45955 0.0
H1776 H 0.41883 0.77779 0.45957 0.0
C1777 C 0.54192 0.7892 0.46079 0.0
C1778 C 0.51877 0.30282 0.70949 0.0
C1779 C 0.55475 0.26657 0.7099 0.0
H1780 H 0.44275 0.31928 0.70941 0.0
C1781 C 0.54036 0.21772 0.70939 0.0
H1782 H 0.52866 0.34084 0.70975 0.0
C1783 C 0.49109 0.2054 0.70945 0.0
C1784 C 0.4551 0.24165 0.70969 0.0
H1785 H 0.56712 0.18895 0.70972 0.0
H1786 H 0.48118 0.16738 0.70969 0.0
C1787 C 0.46951 0.2905 0.70921 0.0
C1788 C 0.05467 0.24308 0.95988 0.0
C1789 C 0.01832 0.20716 0.95993 0.0
H1790 H 0.07134 0.3191 0.96035 0.0
C1791 C 0.96953 0.22177 0.95937 0.0
H1792 H 0.09265 0.23306 0.9602 0.0
C1793 C 0.95736 0.27109 0.95972 0.0
C1794 C 0.99369 0.30699 0.96029 0.0
H1795 H 0.94066 0.19511 0.95943 0.0
H1796 H 0.91937 0.28108 0.9599 0.0
C1797 C 0.0425 0.29243 0.95989 0.0
C1798 C 0.97131 0.79078 0.21074 0.0
C1799 C 0.95681 0.74192 0.21055 0.0
H1800 H 0.03061 0.84097 0.21191 0.0
C1801 C 0.99274 0.70568 0.20988 0.0
H1802 H 0.94457 0.81953 0.21131 0.0
C1803 C 0.04203 0.71794 0.20994 0.0
C1804 C 0.05655 0.7667 0.21106 0.0
H1805 H 0.98277 0.66767 0.20963 0.0
H1806 H 0.06872 0.6891 0.20985 0.0
C1807 C 0.02062 0.80301 0.21117 0.0
C1808 C 0.45644 0.73925 0.9608 0.0
C1809 C 0.49275 0.70331 0.96068 0.0
H1810 H 0.43994 0.8153 0.96096 0.0
C1811 C 0.54151 0.71781 0.95956 0.0
H1812 H 0.41849 0.72927 0.96155 0.0
C1813 C 0.55378 0.7671 0.9595 0.0
C1814 C 0.51755 0.80304 0.96019 0.0
H1815 H 0.57033 0.69111 0.95946 0.0
H1816 H 0.59178 0.77706 0.95925 0.0
C1817 C 0.46869 0.78856 0.96037 0.0
C1818 C 0.98969 0.80285 0.70997 0.0
C1819 C 0.95367 0.76663 0.71038 0.0
H1820 H 0.06572 0.81926 0.70989 0.0
C1821 C 0.96803 0.71777 0.70988 0.0
H1822 H 0.97983 0.84088 0.71023 0.0
C1823 C 0.01731 0.70541 0.70994 0.0
C1824 C 0.05333 0.74164 0.71017 0.0
H1825 H 0.94126 0.68901 0.7102 0.0
H1826 H 0.02718 0.66739 0.71019 0.0
C1827 C 0.03895 0.7905 0.7097 0.0
C1828 C 0.95609 0.24234 0.45985 0.0
C1829 C 0.99249 0.20648 0.45999 0.0
H1830 H 0.93932 0.31832 0.46019 0.0
C1831 C 0.04126 0.22114 0.45946 0.0
H1832 H 0.91812 0.23227 0.46014 0.0
C1833 C 0.05337 0.27047 0.45974 0.0
C1834 C 0.01699 0.30632 0.46023 0.0
H1835 H 0.07016 0.19452 0.45958 0.0
H1836 H 0.09134 0.28052 0.45995 0.0
C1837 C 0.96819 0.2917 0.4598 0.0
C1838 C 0.53834 0.28987 0.20917 0.0
C1839 C 0.55294 0.24108 0.20975 0.0
H1840 H 0.47905 0.34004 0.20969 0.0
C1841 C 0.51702 0.20472 0.20973 0.0
H1842 H 0.56501 0.31874 0.2092 0.0
C1843 C 0.46768 0.21689 0.20975 0.0
C1844 C 0.45314 0.26571 0.21014 0.0
H1845 H 0.52703 0.16674 0.21006 0.0
H1846 H 0.44101 0.18806 0.21023 0.0
C1847 C 0.48904 0.30204 0.20953 0.0
C1848 C 0.46729 0.21849 0.61129 0.0
C1849 C 0.51616 0.20413 0.61087 0.0
H1850 H 0.41693 0.27764 0.61081 0.0
C1851 C 0.55238 0.24014 0.61128 0.0
H1852 H 0.43854 0.19171 0.61096 0.0
C1853 C 0.54003 0.2894 0.61146 0.0
C1854 C 0.49119 0.30378 0.61089 0.0
H1855 H 0.5904 0.23027 0.61109 0.0
H1856 H 0.5688 0.31617 0.61126 0.0
C1857 C 0.45495 0.26776 0.61113 0.0
C1858 C 0.49368 0.70479 0.36112 0.0
C1859 C 0.45779 0.74115 0.36105 0.0
H1860 H 0.56968 0.68811 0.36069 0.0
C1861 C 0.47239 0.78994 0.36164 0.0
H1862 H 0.48365 0.66681 0.36078 0.0
C1863 C 0.52171 0.8021 0.36134 0.0
C1864 C 0.55759 0.76577 0.36077 0.0
H1865 H 0.44575 0.81882 0.36158 0.0
H1866 H 0.53171 0.8401 0.36118 0.0
C1867 C 0.54303 0.71695 0.36115 0.0
C1868 C 0.0427 0.79197 0.11075 0.0
C1869 C 0.99389 0.80652 0.11032 0.0
H1870 H 0.09285 0.7326 0.11047 0.0
C1871 C 0.95756 0.77063 0.1109 0.0
H1872 H 0.07154 0.81864 0.11029 0.0
C1873 C 0.96973 0.72131 0.11127 0.0
C1874 C 0.01851 0.7067 0.11072 0.0
H1875 H 0.91957 0.78061 0.11071 0.0
H1876 H 0.94085 0.69465 0.11121 0.0
C1877 C 0.05487 0.74262 0.11078 0.0
C1878 C 0.04097 0.21876 0.86088 0.0
C1879 C 0.05552 0.26751 0.85977 0.0
H1880 H 0.98168 0.16854 0.8611 0.0
C1881 C 0.01963 0.30385 0.85958 0.0
H1882 H 0.06763 0.18991 0.86102 0.0
C1883 C 0.97029 0.29165 0.85993 0.0
C1884 C 0.95577 0.2428 0.86009 0.0
H1885 H 0.02964 0.3418 0.85884 0.0
H1886 H 0.94358 0.32042 0.85929 0.0
C1887 C 0.99167 0.20654 0.86086 0.0
loop_
_geom_bond_atom_site_label_1
_geom_bond_atom_site_label_2
_geom_bond_distance
_geom_bond_site_symmetry_2
_ccdc_geom_bond_type
Co0 O3 1.970 . S
Co0 N17 1.989 1_545 S
Co0 O25 1.967 . S
Co0 O32 1.920 . S
Co1 O4 1.966 . S
Co1 N10 2.022 . S
Co1 N18 1.993 1_545 S
Co1 O26 1.941 . S
C2 O3 1.258 . S
C2 O4 1.263 . S
O3 Co0 1.970 . S
O3 C2 1.258 . S
O4 Co1 1.966 . S
O4 C2 1.263 . S
C5 O6 1.235 . S
C5 O32 1.289 1_565 S
O6 C5 1.235 . S
C7 C9 1.400 . S
C7 N10 1.351 . S
C7 C12 1.501 1_545 S
C8 C9 1.387 . S
C8 N11 1.341 . S
C9 C7 1.400 . S
C9 C8 1.387 . S
N10 Co1 2.022 . S
N10 C7 1.351 . S
N10 N11 1.365 . S
N11 C8 1.341 . S
N11 N10 1.365 . S
N11 H31 0.862 . S
C12 C7 1.501 1_565 S
C12 H13 0.961 1_565 S
C12 H14 0.961 . S
C12 H15 0.960 1_565 S
H13 C12 0.961 1_545 S
H14 C12 0.961 . S
H15 C12 0.960 1_545 S
C16 N17 1.342 . S
C16 C20 1.401 . S
C16 C21 1.499 . S
N17 Co0 1.989 1_565 S
N17 C16 1.342 . S
N17 N18 1.388 . S
N18 Co1 1.993 1_565 S
N18 N17 1.388 . S
N18 C19 1.346 . S
C19 N18 1.346 . S
C19 C20 1.396 . S
C19 C29 1.510 . S
C20 C16 1.401 . S
C20 C19 1.396 . S
C21 C16 1.499 . S
C21 H22 0.959 . S
C21 H23 0.960 . S
C21 H24 0.961 . S
H22 C21 0.959 . S
H23 C21 0.960 . S
H24 C21 0.961 . S
O25 Co0 1.967 . S
O25 C33 1.258 . S
O26 Co1 1.941 . S
O26 C33 1.266 . S
H27 C29 0.959 . S
H28 C29 0.961 . S
C29 C19 1.510 . S
C29 H27 0.959 . S
C29 H28 0.961 . S
C29 H30 0.960 . S
H30 C29 0.960 . S
H31 N11 0.862 . S
O32 Co0 1.920 . S
O32 C5 1.289 1_545 S
C33 O25 1.258 . S
C33 O26 1.266 . S
Co34 O37 1.970 . S
Co34 N51 1.989 . S
Co34 O59 1.967 . S
Co34 O66 1.920 . S
Co35 O38 1.966 . S
Co35 N44 2.022 . S
Co35 N52 1.993 . S
Co35 O60 1.941 . S
C36 O37 1.258 . S
C36 O38 1.263 . S
O37 Co34 1.970 . S
O37 C36 1.258 . S
O38 Co35 1.966 . S
O38 C36 1.263 . S
C39 O40 1.235 . S
C39 O66 1.289 . S
O40 C39 1.235 . S
C41 C43 1.400 . S
C41 N44 1.351 . S
C41 C46 1.501 . S
C42 C43 1.387 . S
C42 N45 1.341 . S
C43 C41 1.400 . S
C43 C42 1.387 . S
N44 Co35 2.022 . S
N44 C41 1.351 . S
N44 N45 1.365 . S
N45 C42 1.341 . S
N45 N44 1.365 . S
N45 H65 0.862 . S
C46 C41 1.501 . S
C46 H47 0.961 . S
C46 H48 0.961 . S
C46 H49 0.960 . S
H47 C46 0.961 . S
H48 C46 0.961 . S
H49 C46 0.960 . S
C50 N51 1.342 . S
C50 C54 1.401 . S
C50 C55 1.499 . S
N51 Co34 1.989 . S
N51 C50 1.342 . S
N51 N52 1.388 . S
N52 Co35 1.993 . S
N52 N51 1.388 . S
N52 C53 1.346 . S
C53 N52 1.346 . S
C53 C54 1.396 . S
C53 C63 1.510 . S
C54 C50 1.401 . S
C54 C53 1.396 . S
C55 C50 1.499 . S
C55 H56 0.959 . S
C55 H57 0.960 . S
C55 H58 0.961 . S
H56 C55 0.959 . S
H57 C55 0.960 . S
H58 C55 0.961 . S
O59 Co34 1.967 . S
O59 C67 1.258 . S
O60 Co35 1.941 . S
O60 C67 1.266 . S
H61 C63 0.959 . S
H62 C63 0.961 . S
C63 C53 1.510 . S
C63 H61 0.959 . S
C63 H62 0.961 . S
C63 H64 0.960 . S
H64 C63 0.960 . S
H65 N45 0.862 . S
O66 Co34 1.920 . S
O66 C39 1.289 . S
C67 O59 1.258 . S
C67 O60 1.266 . S
Co68 O71 1.970 . S
Co68 N85 1.989 1_665 S
Co68 O93 1.967 . S
Co68 O100 1.920 . S
Co69 O72 1.966 . S
Co69 N78 2.022 . S
Co69 N86 1.993 1_565 S
Co69 O94 1.941 . S
C70 O71 1.258 1_455 S
C70 O72 1.263 . S
O71 Co68 1.970 . S
O71 C70 1.258 1_655 S
O72 Co69 1.966 . S
O72 C70 1.263 . S
C73 O74 1.235 . S
C73 O100 1.289 1_545 S
O74 C73 1.235 . S
C75 C77 1.400 . S
C75 N78 1.351 . S
C75 C80 1.501 1_565 S
C76 C77 1.387 . S
C76 N79 1.341 . S
C77 C75 1.400 . S
C77 C76 1.387 . S
N78 Co69 2.022 . S
N78 C75 1.351 . S
N78 N79 1.365 . S
N79 C76 1.341 . S
N79 N78 1.365 . S
N79 H99 0.862 . S
C80 C75 1.501 1_545 S
C80 H81 0.961 1_545 S
C80 H82 0.961 . S
C80 H83 0.960 1_545 S
H81 C80 0.961 1_565 S
H82 C80 0.961 . S
H83 C80 0.960 1_565 S
C84 N85 1.342 . S
C84 C88 1.401 . S
C84 C89 1.499 1_455 S
N85 Co68 1.989 1_445 S
N85 C84 1.342 . S
N85 N86 1.388 . S
N86 Co69 1.993 1_545 S
N86 N85 1.388 . S
N86 C87 1.346 . S
C87 N86 1.346 . S
C87 C88 1.396 . S
C87 C97 1.510 . S
C88 C84 1.401 . S
C88 C87 1.396 . S
C89 C84 1.499 1_655 S
C89 H90 0.959 . S
C89 H91 0.960 . S
C89 H92 0.961 . S
H90 C89 0.959 . S
H91 C89 0.960 . S
H92 C89 0.961 . S
O93 Co68 1.967 . S
O93 C101 1.258 1_655 S
O94 Co69 1.941 . S
O94 C101 1.266 . S
H95 C97 0.959 . S
H96 C97 0.961 . S
C97 C87 1.510 . S
C97 H95 0.959 . S
C97 H96 0.961 . S
C97 H98 0.960 . S
H98 C97 0.960 . S
H99 N79 0.862 . S
O100 Co68 1.920 . S
O100 C73 1.289 1_565 S
C101 O93 1.258 1_455 S
C101 O94 1.266 . S
Co102 O105 1.970 . S
Co102 N119 1.989 . S
Co102 O127 1.967 . S
Co102 O134 1.920 . S
Co103 O106 1.966 . S
Co103 N112 2.022 . S
Co103 N120 1.993 . S
Co103 O128 1.941 . S
C104 O105 1.258 . S
C104 O106 1.263 . S
O105 Co102 1.970 . S
O105 C104 1.258 . S
O106 Co103 1.966 . S
O106 C104 1.263 . S
C107 O108 1.235 . S
C107 O134 1.289 . S
O108 C107 1.235 . S
C109 C111 1.400 . S
C109 N112 1.351 . S
C109 C114 1.501 . S
C110 C111 1.387 . S
C110 N113 1.341 . S
C111 C109 1.400 . S
C111 C110 1.387 . S
N112 Co103 2.022 . S
N112 C109 1.351 . S
N112 N113 1.365 . S
N113 C110 1.341 . S
N113 N112 1.365 . S
N113 H133 0.862 . S
C114 C109 1.501 . S
C114 H115 0.961 . S
C114 H116 0.961 . S
C114 H117 0.960 . S
H115 C114 0.961 . S
H116 C114 0.961 . S
H117 C114 0.960 . S
C118 N119 1.342 . S
C118 C122 1.401 . S
C118 C123 1.499 . S
N119 Co102 1.989 . S
N119 C118 1.342 . S
N119 N120 1.388 . S
N120 Co103 1.993 . S
N120 N119 1.388 . S
N120 C121 1.346 . S
C121 N120 1.346 . S
C121 C122 1.396 . S
C121 C131 1.510 . S
C122 C118 1.401 . S
C122 C121 1.396 . S
C123 C118 1.499 . S
C123 H124 0.959 . S
C123 H125 0.960 . S
C123 H126 0.961 . S
H124 C123 0.959 . S
H125 C123 0.960 . S
H126 C123 0.961 . S
O127 Co102 1.967 . S
O127 C135 1.258 . S
O128 Co103 1.941 . S
O128 C135 1.266 . S
H129 C131 0.959 . S
H130 C131 0.961 . S
C131 C121 1.510 . S
C131 H129 0.959 . S
C131 H130 0.961 . S
C131 H132 0.960 . S
H132 C131 0.960 . S
H133 N113 0.862 . S
O134 Co102 1.920 . S
O134 C107 1.289 . S
C135 O127 1.258 . S
C135 O128 1.266 . S
Co136 O139 1.970 . S
Co136 N153 1.989 1_565 S
Co136 O161 1.967 . S
Co136 O168 1.920 . S
Co137 O140 1.966 . S
Co137 N146 2.022 . S
Co137 N154 1.993 1_565 S
Co137 O162 1.941 . S
C138 O139 1.258 . S
C138 O140 1.263 . S
O139 Co136 1.970 . S
O139 C138 1.258 . S
O140 Co137 1.966 . S
O140 C138 1.263 . S
C141 O142 1.235 . S
C141 O168 1.289 1_545 S
O142 C141 1.235 . S
C143 C145 1.400 . S
C143 N146 1.351 . S
C143 C148 1.501 1_565 S
C144 C145 1.387 . S
C144 N147 1.341 . S
C145 C143 1.400 . S
C145 C144 1.387 . S
N146 Co137 2.022 . S
N146 C143 1.351 . S
N146 N147 1.365 . S
N147 C144 1.341 . S
N147 N146 1.365 . S
N147 H167 0.862 . S
C148 C143 1.501 1_545 S
C148 H149 0.961 1_545 S
C148 H150 0.961 . S
C148 H151 0.960 1_545 S
H149 C148 0.961 1_565 S
H150 C148 0.961 . S
H151 C148 0.960 1_565 S
C152 N153 1.342 . S
C152 C156 1.401 . S
C152 C157 1.499 . S
N153 Co136 1.989 1_545 S
N153 C152 1.342 . S
N153 N154 1.388 . S
N154 Co137 1.993 1_545 S
N154 N153 1.388 . S
N154 C155 1.346 . S
C155 N154 1.346 . S
C155 C156 1.396 . S
C155 C165 1.510 . S
C156 C152 1.401 . S
C156 C155 1.396 . S
C157 C152 1.499 . S
C157 H158 0.959 . S
C157 H159 0.960 . S
C157 H160 0.961 . S
H158 C157 0.959 . S
H159 C157 0.960 . S
H160 C157 0.961 . S
O161 Co136 1.967 . S
O161 C169 1.258 . S
O162 Co137 1.941 . S
O162 C169 1.266 . S
H163 C165 0.959 . S
H164 C165 0.961 . S
C165 C155 1.510 . S
C165 H163 0.959 . S
C165 H164 0.961 . S
C165 H166 0.960 . S
H166 C165 0.960 . S
H167 N147 0.862 . S
O168 Co136 1.920 . S
O168 C141 1.289 1_565 S
C169 O161 1.258 . S
C169 O162 1.266 . S
Co170 O173 1.970 . S
Co170 N187 1.989 . S
Co170 O195 1.967 . S
Co170 O202 1.920 . S
Co171 O174 1.966 . S
Co171 N180 2.022 . S
Co171 N188 1.993 . S
Co171 O196 1.941 . S
C172 O173 1.258 . S
C172 O174 1.263 . S
O173 Co170 1.970 . S
O173 C172 1.258 . S
O174 Co171 1.966 . S
O174 C172 1.263 . S
C175 O176 1.235 . S
C175 O202 1.289 . S
O176 C175 1.235 . S
C177 C179 1.400 . S
C177 N180 1.351 . S
C177 C182 1.501 . S
C178 C179 1.387 . S
C178 N181 1.341 . S
C179 C177 1.400 . S
C179 C178 1.387 . S
N180 Co171 2.022 . S
N180 C177 1.351 . S
N180 N181 1.365 . S
N181 C178 1.341 . S
N181 N180 1.365 . S
N181 H201 0.862 . S
C182 C177 1.501 . S
C182 H183 0.961 . S
C182 H184 0.961 . S
C182 H185 0.960 . S
H183 C182 0.961 . S
H184 C182 0.961 . S
H185 C182 0.960 . S
C186 N187 1.342 . S
C186 C190 1.401 . S
C186 C191 1.499 . S
N187 Co170 1.989 . S
N187 C186 1.342 . S
N187 N188 1.388 . S
N188 Co171 1.993 . S
N188 N187 1.388 . S
N188 C189 1.346 . S
C189 N188 1.346 . S
C189 C190 1.396 . S
C189 C199 1.510 . S
C190 C186 1.401 . S
C190 C189 1.396 . S
C191 C186 1.499 . S
C191 H192 0.959 . S
C191 H193 0.960 . S
C191 H194 0.961 . S
H192 C191 0.959 . S
H193 C191 0.960 . S
H194 C191 0.961 . S
O195 Co170 1.967 . S
O195 C203 1.258 . S
O196 Co171 1.941 . S
O196 C203 1.266 . S
H197 C199 0.959 . S
H198 C199 0.961 . S
C199 C189 1.510 . S
C199 H197 0.959 . S
C199 H198 0.961 . S
C199 H200 0.960 . S
H200 C199 0.960 . S
H201 N181 0.862 . S
O202 Co170 1.920 . S
O202 C175 1.289 . S
C203 O195 1.258 . S
C203 O196 1.266 . S
Co204 O207 1.970 . S
Co204 N221 1.989 1_645 S
Co204 O229 1.967 . S
Co204 O236 1.920 . S
Co205 O208 1.966 . S
Co205 N214 2.022 . S
Co205 N222 1.993 1_545 S
Co205 O230 1.941 . S
C206 O207 1.258 1_455 S
C206 O208 1.263 . S
O207 Co204 1.970 . S
O207 C206 1.258 1_655 S
O208 Co205 1.966 . S
O208 C206 1.263 . S
C209 O210 1.235 . S
C209 O236 1.289 1_565 S
O210 C209 1.235 . S
C211 C213 1.400 . S
C211 N214 1.351 . S
C211 C216 1.501 1_545 S
C212 C213 1.387 . S
C212 N215 1.341 . S
C213 C211 1.400 . S
C213 C212 1.387 . S
N214 Co205 2.022 . S
N214 C211 1.351 . S
N214 N215 1.365 . S
N215 C212 1.341 . S
N215 N214 1.365 . S
N215 H235 0.862 . S
C216 C211 1.501 1_565 S
C216 H217 0.961 1_565 S
C216 H218 0.961 . S
C216 H219 0.960 1_565 S
H217 C216 0.961 1_545 S
H218 C216 0.961 . S
H219 C216 0.960 1_545 S
C220 N221 1.342 . S
C220 C224 1.401 . S
C220 C225 1.499 1_455 S
N221 Co204 1.989 1_465 S
N221 C220 1.342 . S
N221 N222 1.388 . S
N222 Co205 1.993 1_565 S
N222 N221 1.388 . S
N222 C223 1.346 . S
C223 N222 1.346 . S
C223 C224 1.396 . S
C223 C233 1.510 . S
C224 C220 1.401 . S
C224 C223 1.396 . S
C225 C220 1.499 1_655 S
C225 H226 0.959 . S
C225 H227 0.960 . S
C225 H228 0.961 . S
H226 C225 0.959 . S
H227 C225 0.960 . S
H228 C225 0.961 . S
O229 Co204 1.967 . S
O229 C237 1.258 1_655 S
O230 Co205 1.941 . S
O230 C237 1.266 . S
H231 C233 0.959 . S
H232 C233 0.961 . S
C233 C223 1.510 . S
C233 H231 0.959 . S
C233 H232 0.961 . S
C233 H234 0.960 . S
H234 C233 0.960 . S
H235 N215 0.862 . S
O236 Co204 1.920 . S
O236 C209 1.289 1_545 S
C237 O229 1.258 1_455 S
C237 O230 1.266 . S
Co238 O241 1.970 . S
Co238 N255 1.989 . S
Co238 O263 1.967 . S
Co238 O270 1.920 . S
Co239 O242 1.966 . S
Co239 N248 2.022 . S
Co239 N256 1.993 . S
Co239 O264 1.941 . S
C240 O241 1.258 . S
C240 O242 1.263 . S
O241 Co238 1.970 . S
O241 C240 1.258 . S
O242 Co239 1.966 . S
O242 C240 1.263 . S
C243 O244 1.235 . S
C243 O270 1.289 . S
O244 C243 1.235 . S
C245 C247 1.400 . S
C245 N248 1.351 . S
C245 C250 1.501 . S
C246 C247 1.387 . S
C246 N249 1.341 . S
C247 C245 1.400 . S
C247 C246 1.387 . S
N248 Co239 2.022 . S
N248 C245 1.351 . S
N248 N249 1.365 . S
N249 C246 1.341 . S
N249 N248 1.365 . S
N249 H269 0.862 . S
C250 C245 1.501 . S
C250 H251 0.961 . S
C250 H252 0.961 . S
C250 H253 0.960 . S
H251 C250 0.961 . S
H252 C250 0.961 . S
H253 C250 0.960 . S
C254 N255 1.342 . S
C254 C258 1.401 . S
C254 C259 1.499 . S
N255 Co238 1.989 . S
N255 C254 1.342 . S
N255 N256 1.388 . S
N256 Co239 1.993 . S
N256 N255 1.388 . S
N256 C257 1.346 . S
C257 N256 1.346 . S
C257 C258 1.396 . S
C257 C267 1.510 . S
C258 C254 1.401 . S
C258 C257 1.396 . S
C259 C254 1.499 . S
C259 H260 0.959 . S
C259 H261 0.960 . S
C259 H262 0.961 . S
H260 C259 0.959 . S
H261 C259 0.960 . S
H262 C259 0.961 . S
O263 Co238 1.967 . S
O263 C271 1.258 . S
O264 Co239 1.941 . S
O264 C271 1.266 . S
H265 C267 0.959 . S
H266 C267 0.961 . S
C267 C257 1.510 . S
C267 H265 0.959 . S
C267 H266 0.961 . S
C267 H268 0.960 . S
H268 C267 0.960 . S
H269 N249 0.862 . S
O270 Co238 1.920 . S
O270 C243 1.289 . S
C271 O263 1.258 . S
C271 O264 1.266 . S
Co272 O275 1.970 . S
Co272 N289 1.989 1_565 S
Co272 O297 1.967 . S
Co272 O304 1.920 . S
Co273 O276 1.966 . S
Co273 N282 2.022 . S
Co273 N290 1.993 1_565 S
Co273 O298 1.941 . S
C274 O275 1.258 . S
C274 O276 1.263 . S
O275 Co272 1.970 . S
O275 C274 1.258 . S
O276 Co273 1.966 . S
O276 C274 1.263 . S
C277 O278 1.235 . S
C277 O304 1.289 1_545 S
O278 C277 1.235 . S
C279 C281 1.400 . S
C279 N282 1.351 . S
C279 C284 1.501 1_565 S
C280 C281 1.387 . S
C280 N283 1.341 . S
C281 C279 1.400 . S
C281 C280 1.387 . S
N282 Co273 2.022 . S
N282 C279 1.351 . S
N282 N283 1.365 . S
N283 C280 1.341 . S
N283 N282 1.365 . S
N283 H303 0.862 . S
C284 C279 1.501 1_545 S
C284 H285 0.961 1_545 S
C284 H286 0.961 . S
C284 H287 0.960 1_545 S
H285 C284 0.961 1_565 S
H286 C284 0.961 . S
H287 C284 0.960 1_565 S
C288 N289 1.342 . S
C288 C292 1.401 . S
C288 C293 1.499 . S
N289 Co272 1.989 1_545 S
N289 C288 1.342 . S
N289 N290 1.388 . S
N290 Co273 1.993 1_545 S
N290 N289 1.388 . S
N290 C291 1.346 . S
C291 N290 1.346 . S
C291 C292 1.396 . S
C291 C301 1.510 . S
C292 C288 1.401 . S
C292 C291 1.396 . S
C293 C288 1.499 . S
C293 H294 0.959 . S
C293 H295 0.960 . S
C293 H296 0.961 . S
H294 C293 0.959 . S
H295 C293 0.960 . S
H296 C293 0.961 . S
O297 Co272 1.967 . S
O297 C305 1.258 . S
O298 Co273 1.941 . S
O298 C305 1.266 . S
H299 C301 0.959 . S
H300 C301 0.961 . S
C301 C291 1.510 . S
C301 H299 0.959 . S
C301 H300 0.961 . S
C301 H302 0.960 . S
H302 C301 0.960 . S
H303 N283 0.862 . S
O304 Co272 1.920 . S
O304 C277 1.289 1_565 S
C305 O297 1.258 . S
C305 O298 1.266 . S
Co306 O309 1.970 . S
Co306 N323 1.989 . S
Co306 O331 1.967 . S
Co306 O338 1.920 . S
Co307 O310 1.966 . S
Co307 N316 2.022 . S
Co307 N324 1.993 . S
Co307 O332 1.941 . S
C308 O309 1.258 . S
C308 O310 1.263 . S
O309 Co306 1.970 . S
O309 C308 1.258 . S
O310 Co307 1.966 . S
O310 C308 1.263 . S
C311 O312 1.235 . S
C311 O338 1.289 . S
O312 C311 1.235 . S
C313 C315 1.400 . S
C313 N316 1.351 . S
C313 C318 1.501 . S
C314 C315 1.387 . S
C314 N317 1.341 . S
C315 C313 1.400 . S
C315 C314 1.387 . S
N316 Co307 2.022 . S
N316 C313 1.351 . S
N316 N317 1.365 . S
N317 C314 1.341 . S
N317 N316 1.365 . S
N317 H337 0.862 . S
C318 C313 1.501 . S
C318 H319 0.961 . S
C318 H320 0.961 . S
C318 H321 0.960 . S
H319 C318 0.961 . S
H320 C318 0.961 . S
H321 C318 0.960 . S
C322 N323 1.342 . S
C322 C326 1.401 . S
C322 C327 1.499 . S
N323 Co306 1.989 . S
N323 C322 1.342 . S
N323 N324 1.388 . S
N324 Co307 1.993 . S
N324 N323 1.388 . S
N324 C325 1.346 . S
C325 N324 1.346 . S
C325 C326 1.396 . S
C325 C335 1.510 . S
C326 C322 1.401 . S
C326 C325 1.396 . S
C327 C322 1.499 . S
C327 H328 0.959 . S
C327 H329 0.960 . S
C327 H330 0.961 . S
H328 C327 0.959 . S
H329 C327 0.960 . S
H330 C327 0.961 . S
O331 Co306 1.967 . S
O331 C339 1.258 . S
O332 Co307 1.941 . S
O332 C339 1.266 . S
H333 C335 0.959 . S
H334 C335 0.961 . S
C335 C325 1.510 . S
C335 H333 0.959 . S
C335 H334 0.961 . S
C335 H336 0.960 . S
H336 C335 0.960 . S
H337 N317 0.862 . S
O338 Co306 1.920 . S
O338 C311 1.289 . S
C339 O331 1.258 . S
C339 O332 1.266 . S
Co340 O343 1.970 . S
Co340 N357 1.989 1_445 S
Co340 O365 1.967 . S
Co340 O372 1.920 . S
Co341 O344 1.966 . S
Co341 N350 2.022 . S
Co341 N358 1.993 1_545 S
Co341 O366 1.941 . S
C342 O343 1.258 1_655 S
C342 O344 1.263 . S
O343 Co340 1.970 . S
O343 C342 1.258 1_455 S
O344 Co341 1.966 . S
O344 C342 1.263 . S
C345 O346 1.235 . S
C345 O372 1.289 1_565 S
O346 C345 1.235 . S
C347 C349 1.400 . S
C347 N350 1.351 . S
C347 C352 1.501 1_545 S
C348 C349 1.387 . S
C348 N351 1.341 . S
C349 C347 1.400 . S
C349 C348 1.387 . S
N350 Co341 2.022 . S
N350 C347 1.351 . S
N350 N351 1.365 . S
N351 C348 1.341 . S
N351 N350 1.365 . S
N351 H371 0.862 . S
C352 C347 1.501 1_565 S
C352 H353 0.961 1_565 S
C352 H354 0.961 . S
C352 H355 0.960 1_565 S
H353 C352 0.961 1_545 S
H354 C352 0.961 . S
H355 C352 0.960 1_545 S
C356 N357 1.342 . S
C356 C360 1.401 . S
C356 C361 1.499 1_655 S
N357 Co340 1.989 1_665 S
N357 C356 1.342 . S
N357 N358 1.388 . S
N358 Co341 1.993 1_565 S
N358 N357 1.388 . S
N358 C359 1.346 . S
C359 N358 1.346 . S
C359 C360 1.396 . S
C359 C369 1.510 . S
C360 C356 1.401 . S
C360 C359 1.396 . S
C361 C356 1.499 1_455 S
C361 H362 0.959 . S
C361 H363 0.960 . S
C361 H364 0.961 . S
H362 C361 0.959 . S
H363 C361 0.960 . S
H364 C361 0.961 . S
O365 Co340 1.967 . S
O365 C373 1.258 1_455 S
O366 Co341 1.941 . S
O366 C373 1.266 . S
H367 C369 0.959 . S
H368 C369 0.961 . S
C369 C359 1.510 . S
C369 H367 0.959 . S
C369 H368 0.961 . S
C369 H370 0.960 . S
H370 C369 0.960 . S
H371 N351 0.862 . S
O372 Co340 1.920 . S
O372 C345 1.289 1_545 S
C373 O365 1.258 1_655 S
C373 O366 1.266 . S
Co374 O377 1.970 . S
Co374 N391 1.989 . S
Co374 O399 1.967 . S
Co374 O406 1.920 . S
Co375 O378 1.966 . S
Co375 N384 2.022 . S
Co375 N392 1.993 . S
Co375 O400 1.941 . S
C376 O377 1.258 . S
C376 O378 1.263 . S
O377 Co374 1.970 . S
O377 C376 1.258 . S
O378 Co375 1.966 . S
O378 C376 1.263 . S
C379 O380 1.235 . S
C379 O406 1.289 . S
O380 C379 1.235 . S
C381 C383 1.400 . S
C381 N384 1.351 . S
C381 C386 1.501 . S
C382 C383 1.387 . S
C382 N385 1.341 . S
C383 C381 1.400 . S
C383 C382 1.387 . S
N384 Co375 2.022 . S
N384 C381 1.351 . S
N384 N385 1.365 . S
N385 C382 1.341 . S
N385 N384 1.365 . S
N385 H405 0.862 . S
C386 C381 1.501 . S
C386 H387 0.961 . S
C386 H388 0.961 . S
C386 H389 0.960 . S
H387 C386 0.961 . S
H388 C386 0.961 . S
H389 C386 0.960 . S
C390 N391 1.342 . S
C390 C394 1.401 . S
C390 C395 1.499 . S
N391 Co374 1.989 . S
N391 C390 1.342 . S
N391 N392 1.388 . S
N392 Co375 1.993 . S
N392 N391 1.388 . S
N392 C393 1.346 . S
C393 N392 1.346 . S
C393 C394 1.396 . S
C393 C403 1.510 . S
C394 C390 1.401 . S
C394 C393 1.396 . S
C395 C390 1.499 . S
C395 H396 0.959 . S
C395 H397 0.960 . S
C395 H398 0.961 . S
H396 C395 0.959 . S
H397 C395 0.960 . S
H398 C395 0.961 . S
O399 Co374 1.967 . S
O399 C407 1.258 . S
O400 Co375 1.941 . S
O400 C407 1.266 . S
H401 C403 0.959 . S
H402 C403 0.961 . S
C403 C393 1.510 . S
C403 H401 0.959 . S
C403 H402 0.961 . S
C403 H404 0.960 . S
H404 C403 0.960 . S
H405 N385 0.862 . S
O406 Co374 1.920 . S
O406 C379 1.289 . S
C407 O399 1.258 . S
C407 O400 1.266 . S
Co408 O411 1.970 . S
Co408 N425 1.989 1_545 S
Co408 O433 1.967 . S
Co408 O440 1.920 . S
Co409 O412 1.966 . S
Co409 N418 2.022 . S
Co409 N426 1.993 1_545 S
Co409 O434 1.941 . S
C410 O411 1.258 . S
C410 O412 1.263 . S
O411 Co408 1.970 . S
O411 C410 1.258 . S
O412 Co409 1.966 . S
O412 C410 1.263 . S
C413 O414 1.235 . S
C413 O440 1.289 1_565 S
O414 C413 1.235 . S
C415 C417 1.400 . S
C415 N418 1.351 . S
C415 C420 1.501 1_545 S
C416 C417 1.387 . S
C416 N419 1.341 . S
C417 C415 1.400 . S
C417 C416 1.387 . S
N418 Co409 2.022 . S
N418 C415 1.351 . S
N418 N419 1.365 . S
N419 C416 1.341 . S
N419 N418 1.365 . S
N419 H439 0.862 . S
C420 C415 1.501 1_565 S
C420 H421 0.961 1_565 S
C420 H422 0.961 . S
C420 H423 0.960 1_565 S
H421 C420 0.961 1_545 S
H422 C420 0.961 . S
H423 C420 0.960 1_545 S
C424 N425 1.342 . S
C424 C428 1.401 . S
C424 C429 1.499 . S
N425 Co408 1.989 1_565 S
N425 C424 1.342 . S
N425 N426 1.388 . S
N426 Co409 1.993 1_565 S
N426 N425 1.388 . S
N426 C427 1.346 . S
C427 N426 1.346 . S
C427 C428 1.396 . S
C427 C437 1.510 . S
C428 C424 1.401 . S
C428 C427 1.396 . S
C429 C424 1.499 . S
C429 H430 0.959 . S
C429 H431 0.960 . S
C429 H432 0.961 . S
H430 C429 0.959 . S
H431 C429 0.960 . S
H432 C429 0.961 . S
O433 Co408 1.967 . S
O433 C441 1.258 . S
O434 Co409 1.941 . S
O434 C441 1.266 . S
H435 C437 0.959 . S
H436 C437 0.961 . S
C437 C427 1.510 . S
C437 H435 0.959 . S
C437 H436 0.961 . S
C437 H438 0.960 . S
H438 C437 0.960 . S
H439 N419 0.862 . S
O440 Co408 1.920 . S
O440 C413 1.289 1_545 S
C441 O433 1.258 . S
C441 O434 1.266 . S
Co442 O445 1.970 . S
Co442 N459 1.989 . S
Co442 O467 1.967 . S
Co442 O474 1.920 . S
Co443 O446 1.966 . S
Co443 N452 2.022 . S
Co443 N460 1.993 . S
Co443 O468 1.941 . S
C444 O445 1.258 . S
C444 O446 1.263 . S
O445 Co442 1.970 . S
O445 C444 1.258 . S
O446 Co443 1.966 . S
O446 C444 1.263 . S
C447 O448 1.235 . S
C447 O474 1.289 . S
O448 C447 1.235 . S
C449 C451 1.400 . S
C449 N452 1.351 . S
C449 C454 1.501 . S
C450 C451 1.387 . S
C450 N453 1.341 . S
C451 C449 1.400 . S
C451 C450 1.387 . S
N452 Co443 2.022 . S
N452 C449 1.351 . S
N452 N453 1.365 . S
N453 C450 1.341 . S
N453 N452 1.365 . S
N453 H473 0.862 . S
C454 C449 1.501 . S
C454 H455 0.961 . S
C454 H456 0.961 . S
C454 H457 0.960 . S
H455 C454 0.961 . S
H456 C454 0.961 . S
H457 C454 0.960 . S
C458 N459 1.342 . S
C458 C462 1.401 . S
C458 C463 1.499 . S
N459 Co442 1.989 . S
N459 C458 1.342 . S
N459 N460 1.388 . S
N460 Co443 1.993 . S
N460 N459 1.388 . S
N460 C461 1.346 . S
C461 N460 1.346 . S
C461 C462 1.396 . S
C461 C471 1.510 . S
C462 C458 1.401 . S
C462 C461 1.396 . S
C463 C458 1.499 . S
C463 H464 0.959 . S
C463 H465 0.960 . S
C463 H466 0.961 . S
H464 C463 0.959 . S
H465 C463 0.960 . S
H466 C463 0.961 . S
O467 Co442 1.967 . S
O467 C475 1.258 . S
O468 Co443 1.941 . S
O468 C475 1.266 . S
H469 C471 0.959 . S
H470 C471 0.961 . S
C471 C461 1.510 . S
C471 H469 0.959 . S
C471 H470 0.961 . S
C471 H472 0.960 . S
H472 C471 0.960 . S
H473 N453 0.862 . S
O474 Co442 1.920 . S
O474 C447 1.289 . S
C475 O467 1.258 . S
C475 O468 1.266 . S
Co476 O479 1.970 . S
Co476 N493 1.989 1_465 S
Co476 O501 1.967 . S
Co476 O508 1.920 . S
Co477 O480 1.966 . S
Co477 N486 2.022 . S
Co477 N494 1.993 1_565 S
Co477 O502 1.941 . S
C478 O479 1.258 1_655 S
C478 O480 1.263 . S
O479 Co476 1.970 . S
O479 C478 1.258 1_455 S
O480 Co477 1.966 . S
O480 C478 1.263 . S
C481 O482 1.235 . S
C481 O508 1.289 1_545 S
O482 C481 1.235 . S
C483 C485 1.400 . S
C483 N486 1.351 . S
C483 C488 1.501 1_565 S
C484 C485 1.387 . S
C484 N487 1.341 . S
C485 C483 1.400 . S
C485 C484 1.387 . S
N486 Co477 2.022 . S
N486 C483 1.351 . S
N486 N487 1.365 . S
N487 C484 1.341 . S
N487 N486 1.365 . S
N487 H507 0.862 . S
C488 C483 1.501 1_545 S
C488 H489 0.961 1_545 S
C488 H490 0.961 . S
C488 H491 0.960 1_545 S
H489 C488 0.961 1_565 S
H490 C488 0.961 . S
H491 C488 0.960 1_565 S
C492 N493 1.342 . S
C492 C496 1.401 . S
C492 C497 1.499 1_655 S
N493 Co476 1.989 1_645 S
N493 C492 1.342 . S
N493 N494 1.388 . S
N494 Co477 1.993 1_545 S
N494 N493 1.388 . S
N494 C495 1.346 . S
C495 N494 1.346 . S
C495 C496 1.396 . S
C495 C505 1.510 . S
C496 C492 1.401 . S
C496 C495 1.396 . S
C497 C492 1.499 1_455 S
C497 H498 0.959 . S
C497 H499 0.960 . S
C497 H500 0.961 . S
H498 C497 0.959 . S
H499 C497 0.960 . S
H500 C497 0.961 . S
O501 Co476 1.967 . S
O501 C509 1.258 1_455 S
O502 Co477 1.941 . S
O502 C509 1.266 . S
H503 C505 0.959 . S
H504 C505 0.961 . S
C505 C495 1.510 . S
C505 H503 0.959 . S
C505 H504 0.961 . S
C505 H506 0.960 . S
H506 C505 0.960 . S
H507 N487 0.862 . S
O508 Co476 1.920 . S
O508 C481 1.289 1_565 S
C509 O501 1.258 1_655 S
C509 O502 1.266 . S
Co510 O513 1.970 . S
Co510 N527 1.989 . S
Co510 O535 1.967 . S
Co510 O542 1.920 . S
Co511 O514 1.966 . S
Co511 N520 2.022 . S
Co511 N528 1.993 . S
Co511 O536 1.941 . S
C512 O513 1.258 . S
C512 O514 1.263 . S
O513 Co510 1.970 . S
O513 C512 1.258 . S
O514 Co511 1.966 . S
O514 C512 1.263 . S
C515 O516 1.235 . S
C515 O542 1.289 . S
O516 C515 1.235 . S
C517 C519 1.400 . S
C517 N520 1.351 . S
C517 C522 1.501 . S
C518 C519 1.387 . S
C518 N521 1.341 . S
C519 C517 1.400 . S
C519 C518 1.387 . S
N520 Co511 2.022 . S
N520 C517 1.351 . S
N520 N521 1.365 . S
N521 C518 1.341 . S
N521 N520 1.365 . S
N521 H541 0.862 . S
C522 C517 1.501 . S
C522 H523 0.961 . S
C522 H524 0.961 . S
C522 H525 0.960 . S
H523 C522 0.961 . S
H524 C522 0.961 . S
H525 C522 0.960 . S
C526 N527 1.342 . S
C526 C530 1.401 . S
C526 C531 1.499 . S
N527 Co510 1.989 . S
N527 C526 1.342 . S
N527 N528 1.388 . S
N528 Co511 1.993 . S
N528 N527 1.388 . S
N528 C529 1.346 . S
C529 N528 1.346 . S
C529 C530 1.396 . S
C529 C539 1.510 . S
C530 C526 1.401 . S
C530 C529 1.396 . S
C531 C526 1.499 . S
C531 H532 0.959 . S
C531 H533 0.960 . S
C531 H534 0.961 . S
H532 C531 0.959 . S
H533 C531 0.960 . S
H534 C531 0.961 . S
O535 Co510 1.967 . S
O535 C543 1.258 . S
O536 Co511 1.941 . S
O536 C543 1.266 . S
H537 C539 0.959 . S
H538 C539 0.961 . S
C539 C529 1.510 . S
C539 H537 0.959 . S
C539 H538 0.961 . S
C539 H540 0.960 . S
H540 C539 0.960 . S
H541 N521 0.862 . S
O542 Co510 1.920 . S
O542 C515 1.289 . S
C543 O535 1.258 . S
C543 O536 1.266 . S
Co544 O547 1.970 . S
Co544 N561 1.989 1_455 S
Co544 O569 1.967 . S
Co544 O576 1.920 . S
Co545 O548 1.966 . S
Co545 N554 2.022 . S
Co545 N562 1.993 . S
Co545 O570 1.941 . S
C546 O547 1.258 1_655 S
C546 O548 1.263 . S
O547 Co544 1.970 . S
O547 C546 1.258 1_455 S
O548 Co545 1.966 . S
O548 C546 1.263 . S
C549 O550 1.235 . S
C549 O576 1.289 . S
O550 C549 1.235 . S
C551 C553 1.400 . S
C551 N554 1.351 . S
C551 C556 1.501 . S
C552 C553 1.387 . S
C552 N555 1.341 . S
C553 C551 1.400 . S
C553 C552 1.387 . S
N554 Co545 2.022 . S
N554 C551 1.351 . S
N554 N555 1.365 . S
N555 C552 1.341 . S
N555 N554 1.365 . S
N555 H575 0.862 . S
C556 C551 1.501 . S
C556 H557 0.961 . S
C556 H558 0.961 . S
C556 H559 0.960 . S
H557 C556 0.961 . S
H558 C556 0.961 . S
H559 C556 0.960 . S
C560 N561 1.342 . S
C560 C564 1.401 . S
C560 C565 1.499 1_655 S
N561 Co544 1.989 1_655 S
N561 C560 1.342 . S
N561 N562 1.388 . S
N562 Co545 1.993 . S
N562 N561 1.388 . S
N562 C563 1.346 . S
C563 N562 1.346 . S
C563 C564 1.396 . S
C563 C573 1.510 . S
C564 C560 1.401 . S
C564 C563 1.396 . S
C565 C560 1.499 1_455 S
C565 H566 0.959 . S
C565 H567 0.960 . S
C565 H568 0.961 . S
H566 C565 0.959 . S
H567 C565 0.960 . S
H568 C565 0.961 . S
O569 Co544 1.967 . S
O569 C577 1.258 1_455 S
O570 Co545 1.941 . S
O570 C577 1.266 . S
H571 C573 0.959 . S
H572 C573 0.961 . S
C573 C563 1.510 . S
C573 H571 0.959 . S
C573 H572 0.961 . S
C573 H574 0.960 . S
H574 C573 0.960 . S
H575 N555 0.862 . S
O576 Co544 1.920 . S
O576 C549 1.289 . S
C577 O569 1.258 1_655 S
C577 O570 1.266 . S
Co578 O581 1.970 . S
Co578 N595 1.989 . S
Co578 O603 1.967 . S
Co578 O610 1.920 . S
Co579 O582 1.966 . S
Co579 N588 2.022 . S
Co579 N596 1.993 . S
Co579 O604 1.941 . S
C580 O581 1.258 . S
C580 O582 1.263 . S
O581 Co578 1.970 . S
O581 C580 1.258 . S
O582 Co579 1.966 . S
O582 C580 1.263 . S
C583 O584 1.235 . S
C583 O610 1.289 . S
O584 C583 1.235 . S
C585 C587 1.400 . S
C585 N588 1.351 . S
C585 C590 1.501 . S
C586 C587 1.387 . S
C586 N589 1.341 . S
C587 C585 1.400 . S
C587 C586 1.387 . S
N588 Co579 2.022 . S
N588 C585 1.351 . S
N588 N589 1.365 . S
N589 C586 1.341 . S
N589 N588 1.365 . S
N589 H609 0.862 . S
C590 C585 1.501 . S
C590 H591 0.961 . S
C590 H592 0.961 . S
C590 H593 0.960 . S
H591 C590 0.961 . S
H592 C590 0.961 . S
H593 C590 0.960 . S
C594 N595 1.342 . S
C594 C598 1.401 . S
C594 C599 1.499 . S
N595 Co578 1.989 . S
N595 C594 1.342 . S
N595 N596 1.388 . S
N596 Co579 1.993 . S
N596 N595 1.388 . S
N596 C597 1.346 . S
C597 N596 1.346 . S
C597 C598 1.396 . S
C597 C607 1.510 . S
C598 C594 1.401 . S
C598 C597 1.396 . S
C599 C594 1.499 . S
C599 H600 0.959 . S
C599 H601 0.960 . S
C599 H602 0.961 . S
H600 C599 0.959 . S
H601 C599 0.960 . S
H602 C599 0.961 . S
O603 Co578 1.967 . S
O603 C611 1.258 . S
O604 Co579 1.941 . S
O604 C611 1.266 . S
H605 C607 0.959 . S
H606 C607 0.961 . S
C607 C597 1.510 . S
C607 H605 0.959 . S
C607 H606 0.961 . S
C607 H608 0.960 . S
H608 C607 0.960 . S
H609 N589 0.862 . S
O610 Co578 1.920 . S
O610 C583 1.289 . S
C611 O603 1.258 . S
C611 O604 1.266 . S
Co612 O615 1.970 . S
Co612 N629 1.989 . S
Co612 O637 1.967 . S
Co612 O644 1.920 . S
Co613 O616 1.966 . S
Co613 N622 2.022 . S
Co613 N630 1.993 . S
Co613 O638 1.941 . S
C614 O615 1.258 . S
C614 O616 1.263 . S
O615 Co612 1.970 . S
O615 C614 1.258 . S
O616 Co613 1.966 . S
O616 C614 1.263 . S
C617 O618 1.235 . S
C617 O644 1.289 . S
O618 C617 1.235 . S
C619 C621 1.400 . S
C619 N622 1.351 . S
C619 C624 1.501 . S
C620 C621 1.387 . S
C620 N623 1.341 . S
C621 C619 1.400 . S
C621 C620 1.387 . S
N622 Co613 2.022 . S
N622 C619 1.351 . S
N622 N623 1.365 . S
N623 C620 1.341 . S
N623 N622 1.365 . S
N623 H643 0.862 . S
C624 C619 1.501 . S
C624 H625 0.961 . S
C624 H626 0.961 . S
C624 H627 0.960 . S
H625 C624 0.961 . S
H626 C624 0.961 . S
H627 C624 0.960 . S
C628 N629 1.342 . S
C628 C632 1.401 . S
C628 C633 1.499 . S
N629 Co612 1.989 . S
N629 C628 1.342 . S
N629 N630 1.388 . S
N630 Co613 1.993 . S
N630 N629 1.388 . S
N630 C631 1.346 . S
C631 N630 1.346 . S
C631 C632 1.396 . S
C631 C641 1.510 . S
C632 C628 1.401 . S
C632 C631 1.396 . S
C633 C628 1.499 . S
C633 H634 0.959 . S
C633 H635 0.960 . S
C633 H636 0.961 . S
H634 C633 0.959 . S
H635 C633 0.960 . S
H636 C633 0.961 . S
O637 Co612 1.967 . S
O637 C645 1.258 . S
O638 Co613 1.941 . S
O638 C645 1.266 . S
H639 C641 0.959 . S
H640 C641 0.961 . S
C641 C631 1.510 . S
C641 H639 0.959 . S
C641 H640 0.961 . S
C641 H642 0.960 . S
H642 C641 0.960 . S
H643 N623 0.862 . S
O644 Co612 1.920 . S
O644 C617 1.289 . S
C645 O637 1.258 . S
C645 O638 1.266 . S
Co646 O649 1.970 . S
Co646 N663 1.989 . S
Co646 O671 1.967 . S
Co646 O678 1.920 . S
Co647 O650 1.966 . S
Co647 N656 2.022 . S
Co647 N664 1.993 . S
Co647 O672 1.941 . S
C648 O649 1.258 . S
C648 O650 1.263 . S
O649 Co646 1.970 . S
O649 C648 1.258 . S
O650 Co647 1.966 . S
O650 C648 1.263 . S
C651 O652 1.235 . S
C651 O678 1.289 . S
O652 C651 1.235 . S
C653 C655 1.400 . S
C653 N656 1.351 . S
C653 C658 1.501 . S
C654 C655 1.387 . S
C654 N657 1.341 . S
C655 C653 1.400 . S
C655 C654 1.387 . S
N656 Co647 2.022 . S
N656 C653 1.351 . S
N656 N657 1.365 . S
N657 C654 1.341 . S
N657 N656 1.365 . S
N657 H677 0.862 . S
C658 C653 1.501 . S
C658 H659 0.961 . S
C658 H660 0.961 . S
C658 H661 0.960 . S
H659 C658 0.961 . S
H660 C658 0.961 . S
H661 C658 0.960 . S
C662 N663 1.342 . S
C662 C666 1.401 . S
C662 C667 1.499 . S
N663 Co646 1.989 . S
N663 C662 1.342 . S
N663 N664 1.388 . S
N664 Co647 1.993 . S
N664 N663 1.388 . S
N664 C665 1.346 . S
C665 N664 1.346 . S
C665 C666 1.396 . S
C665 C675 1.510 . S
C666 C662 1.401 . S
C666 C665 1.396 . S
C667 C662 1.499 . S
C667 H668 0.959 . S
C667 H669 0.960 . S
C667 H670 0.961 . S
H668 C667 0.959 . S
H669 C667 0.960 . S
H670 C667 0.961 . S
O671 Co646 1.967 . S
O671 C679 1.258 . S
O672 Co647 1.941 . S
O672 C679 1.266 . S
H673 C675 0.959 . S
H674 C675 0.961 . S
C675 C665 1.510 . S
C675 H673 0.959 . S
C675 H674 0.961 . S
C675 H676 0.960 . S
H676 C675 0.960 . S
H677 N657 0.862 . S
O678 Co646 1.920 . S
O678 C651 1.289 . S
C679 O671 1.258 . S
C679 O672 1.266 . S
Co680 O683 1.970 . S
Co680 N697 1.989 1_455 S
Co680 O705 1.967 . S
Co680 O712 1.920 . S
Co681 O684 1.966 . S
Co681 N690 2.022 . S
Co681 N698 1.993 . S
Co681 O706 1.941 . S
C682 O683 1.258 1_655 S
C682 O684 1.263 . S
O683 Co680 1.970 . S
O683 C682 1.258 1_455 S
O684 Co681 1.966 . S
O684 C682 1.263 . S
C685 O686 1.235 . S
C685 O712 1.289 . S
O686 C685 1.235 . S
C687 C689 1.400 . S
C687 N690 1.351 . S
C687 C692 1.501 . S
C688 C689 1.387 . S
C688 N691 1.341 . S
C689 C687 1.400 . S
C689 C688 1.387 . S
N690 Co681 2.022 . S
N690 C687 1.351 . S
N690 N691 1.365 . S
N691 C688 1.341 . S
N691 N690 1.365 . S
N691 H711 0.862 . S
C692 C687 1.501 . S
C692 H693 0.961 . S
C692 H694 0.961 . S
C692 H695 0.960 . S
H693 C692 0.961 . S
H694 C692 0.961 . S
H695 C692 0.960 . S
C696 N697 1.342 . S
C696 C700 1.401 . S
C696 C701 1.499 1_655 S
N697 Co680 1.989 1_655 S
N697 C696 1.342 . S
N697 N698 1.388 . S
N698 Co681 1.993 . S
N698 N697 1.388 . S
N698 C699 1.346 . S
C699 N698 1.346 . S
C699 C700 1.396 . S
C699 C709 1.510 . S
C700 C696 1.401 . S
C700 C699 1.396 . S
C701 C696 1.499 1_455 S
C701 H702 0.959 . S
C701 H703 0.960 . S
C701 H704 0.961 . S
H702 C701 0.959 . S
H703 C701 0.960 . S
H704 C701 0.961 . S
O705 Co680 1.967 . S
O705 C713 1.258 1_455 S
O706 Co681 1.941 . S
O706 C713 1.266 . S
H707 C709 0.959 . S
H708 C709 0.961 . S
C709 C699 1.510 . S
C709 H707 0.959 . S
C709 H708 0.961 . S
C709 H710 0.960 . S
H710 C709 0.960 . S
H711 N691 0.862 . S
O712 Co680 1.920 . S
O712 C685 1.289 . S
C713 O705 1.258 1_655 S
C713 O706 1.266 . S
Co714 O717 1.970 . S
Co714 N731 1.989 . S
Co714 O739 1.967 . S
Co714 O746 1.920 . S
Co715 O718 1.966 . S
Co715 N724 2.022 . S
Co715 N732 1.993 . S
Co715 O740 1.941 . S
C716 O717 1.258 . S
C716 O718 1.263 . S
O717 Co714 1.970 . S
O717 C716 1.258 . S
O718 Co715 1.966 . S
O718 C716 1.263 . S
C719 O720 1.235 . S
C719 O746 1.289 . S
O720 C719 1.235 . S
C721 C723 1.400 . S
C721 N724 1.351 . S
C721 C726 1.501 . S
C722 C723 1.387 . S
C722 N725 1.341 . S
C723 C721 1.400 . S
C723 C722 1.387 . S
N724 Co715 2.022 . S
N724 C721 1.351 . S
N724 N725 1.365 . S
N725 C722 1.341 . S
N725 N724 1.365 . S
N725 H745 0.862 . S
C726 C721 1.501 . S
C726 H727 0.961 . S
C726 H728 0.961 . S
C726 H729 0.960 . S
H727 C726 0.961 . S
H728 C726 0.961 . S
H729 C726 0.960 . S
C730 N731 1.342 . S
C730 C734 1.401 . S
C730 C735 1.499 . S
N731 Co714 1.989 . S
N731 C730 1.342 . S
N731 N732 1.388 . S
N732 Co715 1.993 . S
N732 N731 1.388 . S
N732 C733 1.346 . S
C733 N732 1.346 . S
C733 C734 1.396 . S
C733 C743 1.510 . S
C734 C730 1.401 . S
C734 C733 1.396 . S
C735 C730 1.499 . S
C735 H736 0.959 . S
C735 H737 0.960 . S
C735 H738 0.961 . S
H736 C735 0.959 . S
H737 C735 0.960 . S
H738 C735 0.961 . S
O739 Co714 1.967 . S
O739 C747 1.258 . S
O740 Co715 1.941 . S
O740 C747 1.266 . S
H741 C743 0.959 . S
H742 C743 0.961 . S
C743 C733 1.510 . S
C743 H741 0.959 . S
C743 H742 0.961 . S
C743 H744 0.960 . S
H744 C743 0.960 . S
H745 N725 0.862 . S
O746 Co714 1.920 . S
O746 C719 1.289 . S
C747 O739 1.258 . S
C747 O740 1.266 . S
Co748 O751 1.970 . S
Co748 N765 1.989 . S
Co748 O773 1.967 . S
Co748 O780 1.920 . S
Co749 O752 1.966 . S
Co749 N758 2.022 . S
Co749 N766 1.993 . S
Co749 O774 1.941 . S
C750 O751 1.258 . S
C750 O752 1.263 . S
O751 Co748 1.970 . S
O751 C750 1.258 . S
O752 Co749 1.966 . S
O752 C750 1.263 . S
C753 O754 1.235 . S
C753 O780 1.289 . S
O754 C753 1.235 . S
C755 C757 1.400 . S
C755 N758 1.351 . S
C755 C760 1.501 . S
C756 C757 1.387 . S
C756 N759 1.341 . S
C757 C755 1.400 . S
C757 C756 1.387 . S
N758 Co749 2.022 . S
N758 C755 1.351 . S
N758 N759 1.365 . S
N759 C756 1.341 . S
N759 N758 1.365 . S
N759 H779 0.862 . S
C760 C755 1.501 . S
C760 H761 0.961 . S
C760 H762 0.961 . S
C760 H763 0.960 . S
H761 C760 0.961 . S
H762 C760 0.961 . S
H763 C760 0.960 . S
C764 N765 1.342 . S
C764 C768 1.401 . S
C764 C769 1.499 . S
N765 Co748 1.989 . S
N765 C764 1.342 . S
N765 N766 1.388 . S
N766 Co749 1.993 . S
N766 N765 1.388 . S
N766 C767 1.346 . S
C767 N766 1.346 . S
C767 C768 1.396 . S
C767 C777 1.510 . S
C768 C764 1.401 . S
C768 C767 1.396 . S
C769 C764 1.499 . S
C769 H770 0.959 . S
C769 H771 0.960 . S
C769 H772 0.961 . S
H770 C769 0.959 . S
H771 C769 0.960 . S
H772 C769 0.961 . S
O773 Co748 1.967 . S
O773 C781 1.258 . S
O774 Co749 1.941 . S
O774 C781 1.266 . S
H775 C777 0.959 . S
H776 C777 0.961 . S
C777 C767 1.510 . S
C777 H775 0.959 . S
C777 H776 0.961 . S
C777 H778 0.960 . S
H778 C777 0.960 . S
H779 N759 0.862 . S
O780 Co748 1.920 . S
O780 C753 1.289 . S
C781 O773 1.258 . S
C781 O774 1.266 . S
Co782 O785 1.970 . S
Co782 N799 1.989 . S
Co782 O807 1.967 . S
Co782 O814 1.920 . S
Co783 O786 1.966 . S
Co783 N792 2.022 . S
Co783 N800 1.993 . S
Co783 O808 1.941 . S
C784 O785 1.258 . S
C784 O786 1.263 . S
O785 Co782 1.970 . S
O785 C784 1.258 . S
O786 Co783 1.966 . S
O786 C784 1.263 . S
C787 O788 1.235 . S
C787 O814 1.289 . S
O788 C787 1.235 . S
C789 C791 1.400 . S
C789 N792 1.351 . S
C789 C794 1.501 . S
C790 C791 1.387 . S
C790 N793 1.341 . S
C791 C789 1.400 . S
C791 C790 1.387 . S
N792 Co783 2.022 . S
N792 C789 1.351 . S
N792 N793 1.365 . S
N793 C790 1.341 . S
N793 N792 1.365 . S
N793 H813 0.862 . S
C794 C789 1.501 . S
C794 H795 0.961 . S
C794 H796 0.961 . S
C794 H797 0.960 . S
H795 C794 0.961 . S
H796 C794 0.961 . S
H797 C794 0.960 . S
C798 N799 1.342 . S
C798 C802 1.401 . S
C798 C803 1.499 . S
N799 Co782 1.989 . S
N799 C798 1.342 . S
N799 N800 1.388 . S
N800 Co783 1.993 . S
N800 N799 1.388 . S
N800 C801 1.346 . S
C801 N800 1.346 . S
C801 C802 1.396 . S
C801 C811 1.510 . S
C802 C798 1.401 . S
C802 C801 1.396 . S
C803 C798 1.499 . S
C803 H804 0.959 . S
C803 H805 0.960 . S
C803 H806 0.961 . S
H804 C803 0.959 . S
H805 C803 0.960 . S
H806 C803 0.961 . S
O807 Co782 1.967 . S
O807 C815 1.258 . S
O808 Co783 1.941 . S
O808 C815 1.266 . S
H809 C811 0.959 . S
H810 C811 0.961 . S
C811 C801 1.510 . S
C811 H809 0.959 . S
C811 H810 0.961 . S
C811 H812 0.960 . S
H812 C811 0.960 . S
H813 N793 0.862 . S
O814 Co782 1.920 . S
O814 C787 1.289 . S
C815 O807 1.258 . S
C815 O808 1.266 . S
Co816 O819 1.970 . S
Co816 N833 1.989 1_655 S
Co816 O841 1.967 . S
Co816 O848 1.920 . S
Co817 O820 1.966 . S
Co817 N826 2.022 . S
Co817 N834 1.993 . S
Co817 O842 1.941 . S
C818 O819 1.258 1_455 S
C818 O820 1.263 . S
O819 Co816 1.970 . S
O819 C818 1.258 1_655 S
O820 Co817 1.966 . S
O820 C818 1.263 . S
C821 O822 1.235 . S
C821 O848 1.289 . S
O822 C821 1.235 . S
C823 C825 1.400 . S
C823 N826 1.351 . S
C823 C828 1.501 . S
C824 C825 1.387 . S
C824 N827 1.341 . S
C825 C823 1.400 . S
C825 C824 1.387 . S
N826 Co817 2.022 . S
N826 C823 1.351 . S
N826 N827 1.365 . S
N827 C824 1.341 . S
N827 N826 1.365 . S
N827 H847 0.862 . S
C828 C823 1.501 . S
C828 H829 0.961 . S
C828 H830 0.961 . S
C828 H831 0.960 . S
H829 C828 0.961 . S
H830 C828 0.961 . S
H831 C828 0.960 . S
C832 N833 1.342 . S
C832 C836 1.401 . S
C832 C837 1.499 1_455 S
N833 Co816 1.989 1_455 S
N833 C832 1.342 . S
N833 N834 1.388 . S
N834 Co817 1.993 . S
N834 N833 1.388 . S
N834 C835 1.346 . S
C835 N834 1.346 . S
C835 C836 1.396 . S
C835 C845 1.510 . S
C836 C832 1.401 . S
C836 C835 1.396 . S
C837 C832 1.499 1_655 S
C837 H838 0.959 . S
C837 H839 0.960 . S
C837 H840 0.961 . S
H838 C837 0.959 . S
H839 C837 0.960 . S
H840 C837 0.961 . S
O841 Co816 1.967 . S
O841 C849 1.258 1_655 S
O842 Co817 1.941 . S
O842 C849 1.266 . S
H843 C845 0.959 . S
H844 C845 0.961 . S
C845 C835 1.510 . S
C845 H843 0.959 . S
C845 H844 0.961 . S
C845 H846 0.960 . S
H846 C845 0.960 . S
H847 N827 0.862 . S
O848 Co816 1.920 . S
O848 C821 1.289 . S
C849 O841 1.258 1_455 S
C849 O842 1.266 . S
Co850 O853 1.970 . S
Co850 N867 1.989 . S
Co850 O875 1.967 . S
Co850 O882 1.920 . S
Co851 O854 1.966 . S
Co851 N860 2.022 . S
Co851 N868 1.993 . S
Co851 O876 1.941 . S
C852 O853 1.258 . S
C852 O854 1.263 . S
O853 Co850 1.970 . S
O853 C852 1.258 . S
O854 Co851 1.966 . S
O854 C852 1.263 . S
C855 O856 1.235 . S
C855 O882 1.289 . S
O856 C855 1.235 . S
C857 C859 1.400 . S
C857 N860 1.351 . S
C857 C862 1.501 . S
C858 C859 1.387 . S
C858 N861 1.341 . S
C859 C857 1.400 . S
C859 C858 1.387 . S
N860 Co851 2.022 . S
N860 C857 1.351 . S
N860 N861 1.365 . S
N861 C858 1.341 . S
N861 N860 1.365 . S
N861 H881 0.862 . S
C862 C857 1.501 . S
C862 H863 0.961 . S
C862 H864 0.961 . S
C862 H865 0.960 . S
H863 C862 0.961 . S
H864 C862 0.961 . S
H865 C862 0.960 . S
C866 N867 1.342 . S
C866 C870 1.401 . S
C866 C871 1.499 . S
N867 Co850 1.989 . S
N867 C866 1.342 . S
N867 N868 1.388 . S
N868 Co851 1.993 . S
N868 N867 1.388 . S
N868 C869 1.346 . S
C869 N868 1.346 . S
C869 C870 1.396 . S
C869 C879 1.510 . S
C870 C866 1.401 . S
C870 C869 1.396 . S
C871 C866 1.499 . S
C871 H872 0.959 . S
C871 H873 0.960 . S
C871 H874 0.961 . S
H872 C871 0.959 . S
H873 C871 0.960 . S
H874 C871 0.961 . S
O875 Co850 1.967 . S
O875 C883 1.258 . S
O876 Co851 1.941 . S
O876 C883 1.266 . S
H877 C879 0.959 . S
H878 C879 0.961 . S
C879 C869 1.510 . S
C879 H877 0.959 . S
C879 H878 0.961 . S
C879 H880 0.960 . S
H880 C879 0.960 . S
H881 N861 0.862 . S
O882 Co850 1.920 . S
O882 C855 1.289 . S
C883 O875 1.258 . S
C883 O876 1.266 . S
Co884 O887 1.970 . S
Co884 N901 1.989 . S
Co884 O909 1.967 . S
Co884 O916 1.920 . S
Co885 O888 1.966 . S
Co885 N894 2.022 . S
Co885 N902 1.993 . S
Co885 O910 1.941 . S
C886 O887 1.258 . S
C886 O888 1.263 . S
O887 Co884 1.970 . S
O887 C886 1.258 . S
O888 Co885 1.966 . S
O888 C886 1.263 . S
C889 O890 1.235 . S
C889 O916 1.289 . S
O890 C889 1.235 . S
C891 C893 1.400 . S
C891 N894 1.351 . S
C891 C896 1.501 . S
C892 C893 1.387 . S
C892 N895 1.341 . S
C893 C891 1.400 . S
C893 C892 1.387 . S
N894 Co885 2.022 . S
N894 C891 1.351 . S
N894 N895 1.365 . S
N895 C892 1.341 . S
N895 N894 1.365 . S
N895 H915 0.862 . S
C896 C891 1.501 . S
C896 H897 0.961 . S
C896 H898 0.961 . S
C896 H899 0.960 . S
H897 C896 0.961 . S
H898 C896 0.961 . S
H899 C896 0.960 . S
C900 N901 1.342 . S
C900 C904 1.401 . S
C900 C905 1.499 . S
N901 Co884 1.989 . S
N901 C900 1.342 . S
N901 N902 1.388 . S
N902 Co885 1.993 . S
N902 N901 1.388 . S
N902 C903 1.346 . S
C903 N902 1.346 . S
C903 C904 1.396 . S
C903 C913 1.510 . S
C904 C900 1.401 . S
C904 C903 1.396 . S
C905 C900 1.499 . S
C905 H906 0.959 . S
C905 H907 0.960 . S
C905 H908 0.961 . S
H906 C905 0.959 . S
H907 C905 0.960 . S
H908 C905 0.961 . S
O909 Co884 1.967 . S
O909 C917 1.258 . S
O910 Co885 1.941 . S
O910 C917 1.266 . S
H911 C913 0.959 . S
H912 C913 0.961 . S
C913 C903 1.510 . S
C913 H911 0.959 . S
C913 H912 0.961 . S
C913 H914 0.960 . S
H914 C913 0.960 . S
H915 N895 0.862 . S
O916 Co884 1.920 . S
O916 C889 1.289 . S
C917 O909 1.258 . S
C917 O910 1.266 . S
Co918 O921 1.970 . S
Co918 N935 1.989 . S
Co918 O943 1.967 . S
Co918 O950 1.920 . S
Co919 O922 1.966 . S
Co919 N928 2.022 . S
Co919 N936 1.993 . S
Co919 O944 1.941 . S
C920 O921 1.258 . S
C920 O922 1.263 . S
O921 Co918 1.970 . S
O921 C920 1.258 . S
O922 Co919 1.966 . S
O922 C920 1.263 . S
C923 O924 1.235 . S
C923 O950 1.289 . S
O924 C923 1.235 . S
C925 C927 1.400 . S
C925 N928 1.351 . S
C925 C930 1.501 . S
C926 C927 1.387 . S
C926 N929 1.341 . S
C927 C925 1.400 . S
C927 C926 1.387 . S
N928 Co919 2.022 . S
N928 C925 1.351 . S
N928 N929 1.365 . S
N929 C926 1.341 . S
N929 N928 1.365 . S
N929 H949 0.862 . S
C930 C925 1.501 . S
C930 H931 0.961 . S
C930 H932 0.961 . S
C930 H933 0.960 . S
H931 C930 0.961 . S
H932 C930 0.961 . S
H933 C930 0.960 . S
C934 N935 1.342 . S
C934 C938 1.401 . S
C934 C939 1.499 . S
N935 Co918 1.989 . S
N935 C934 1.342 . S
N935 N936 1.388 . S
N936 Co919 1.993 . S
N936 N935 1.388 . S
N936 C937 1.346 . S
C937 N936 1.346 . S
C937 C938 1.396 . S
C937 C947 1.510 . S
C938 C934 1.401 . S
C938 C937 1.396 . S
C939 C934 1.499 . S
C939 H940 0.959 . S
C939 H941 0.960 . S
C939 H942 0.961 . S
H940 C939 0.959 . S
H941 C939 0.960 . S
H942 C939 0.961 . S
O943 Co918 1.967 . S
O943 C951 1.258 . S
O944 Co919 1.941 . S
O944 C951 1.266 . S
H945 C947 0.959 . S
H946 C947 0.961 . S
C947 C937 1.510 . S
C947 H945 0.959 . S
C947 H946 0.961 . S
C947 H948 0.960 . S
H948 C947 0.960 . S
H949 N929 0.862 . S
O950 Co918 1.920 . S
O950 C923 1.289 . S
C951 O943 1.258 . S
C951 O944 1.266 . S
Co952 O955 1.970 . S
Co952 N969 1.989 1_655 S
Co952 O977 1.967 . S
Co952 O984 1.920 . S
Co953 O956 1.966 . S
Co953 N962 2.022 . S
Co953 N970 1.993 . S
Co953 O978 1.941 . S
C954 O955 1.258 1_455 S
C954 O956 1.263 . S
O955 Co952 1.970 . S
O955 C954 1.258 1_655 S
O956 Co953 1.966 . S
O956 C954 1.263 . S
C957 O958 1.235 . S
C957 O984 1.289 . S
O958 C957 1.235 . S
C959 C961 1.400 . S
C959 N962 1.351 . S
C959 C964 1.501 . S
C960 C961 1.387 . S
C960 N963 1.341 . S
C961 C959 1.400 . S
C961 C960 1.387 . S
N962 Co953 2.022 . S
N962 C959 1.351 . S
N962 N963 1.365 . S
N963 C960 1.341 . S
N963 N962 1.365 . S
N963 H983 0.862 . S
C964 C959 1.501 . S
C964 H965 0.961 . S
C964 H966 0.961 . S
C964 H967 0.960 . S
H965 C964 0.961 . S
H966 C964 0.961 . S
H967 C964 0.960 . S
C968 N969 1.342 . S
C968 C972 1.401 . S
C968 C973 1.499 1_455 S
N969 Co952 1.989 1_455 S
N969 C968 1.342 . S
N969 N970 1.388 . S
N970 Co953 1.993 . S
N970 N969 1.388 . S
N970 C971 1.346 . S
C971 N970 1.346 . S
C971 C972 1.396 . S
C971 C981 1.510 . S
C972 C968 1.401 . S
C972 C971 1.396 . S
C973 C968 1.499 1_655 S
C973 H974 0.959 . S
C973 H975 0.960 . S
C973 H976 0.961 . S
H974 C973 0.959 . S
H975 C973 0.960 . S
H976 C973 0.961 . S
O977 Co952 1.967 . S
O977 C985 1.258 1_655 S
O978 Co953 1.941 . S
O978 C985 1.266 . S
H979 C981 0.959 . S
H980 C981 0.961 . S
C981 C971 1.510 . S
C981 H979 0.959 . S
C981 H980 0.961 . S
C981 H982 0.960 . S
H982 C981 0.960 . S
H983 N963 0.862 . S
O984 Co952 1.920 . S
O984 C957 1.289 . S
C985 O977 1.258 1_455 S
C985 O978 1.266 . S
Co986 O989 1.970 . S
Co986 N1003 1.989 . S
Co986 O1011 1.967 . S
Co986 O1018 1.920 . S
Co987 O990 1.966 . S
Co987 N996 2.022 . S
Co987 N1004 1.993 . S
Co987 O1012 1.941 . S
C988 O989 1.258 . S
C988 O990 1.263 . S
O989 Co986 1.970 . S
O989 C988 1.258 . S
O990 Co987 1.966 . S
O990 C988 1.263 . S
C991 O992 1.235 . S
C991 O1018 1.289 . S
O992 C991 1.235 . S
C993 C995 1.400 . S
C993 N996 1.351 . S
C993 C998 1.501 . S
C994 C995 1.387 . S
C994 N997 1.341 . S
C995 C993 1.400 . S
C995 C994 1.387 . S
N996 Co987 2.022 . S
N996 C993 1.351 . S
N996 N997 1.365 . S
N997 C994 1.341 . S
N997 N996 1.365 . S
N997 H1017 0.862 . S
C998 C993 1.501 . S
C998 H999 0.961 . S
C998 H1000 0.961 . S
C998 H1001 0.960 . S
H999 C998 0.961 . S
H1000 C998 0.961 . S
H1001 C998 0.960 . S
C1002 N1003 1.342 . S
C1002 C1006 1.401 . S
C1002 C1007 1.499 . S
N1003 Co986 1.989 . S
N1003 C1002 1.342 . S
N1003 N1004 1.388 . S
N1004 Co987 1.993 . S
N1004 N1003 1.388 . S
N1004 C1005 1.346 . S
C1005 N1004 1.346 . S
C1005 C1006 1.396 . S
C1005 C1015 1.510 . S
C1006 C1002 1.401 . S
C1006 C1005 1.396 . S
C1007 C1002 1.499 . S
C1007 H1008 0.959 . S
C1007 H1009 0.960 . S
C1007 H1010 0.961 . S
H1008 C1007 0.959 . S
H1009 C1007 0.960 . S
H1010 C1007 0.961 . S
O1011 Co986 1.967 . S
O1011 C1019 1.258 . S
O1012 Co987 1.941 . S
O1012 C1019 1.266 . S
H1013 C1015 0.959 . S
H1014 C1015 0.961 . S
C1015 C1005 1.510 . S
C1015 H1013 0.959 . S
C1015 H1014 0.961 . S
C1015 H1016 0.960 . S
H1016 C1015 0.960 . S
H1017 N997 0.862 . S
O1018 Co986 1.920 . S
O1018 C991 1.289 . S
C1019 O1011 1.258 . S
C1019 O1012 1.266 . S
Co1020 O1023 1.970 . S
Co1020 N1037 1.989 . S
Co1020 O1045 1.967 . S
Co1020 O1052 1.920 . S
Co1021 O1024 1.966 . S
Co1021 N1030 2.022 . S
Co1021 N1038 1.993 . S
Co1021 O1046 1.941 . S
C1022 O1023 1.258 . S
C1022 O1024 1.263 . S
O1023 Co1020 1.970 . S
O1023 C1022 1.258 . S
O1024 Co1021 1.966 . S
O1024 C1022 1.263 . S
C1025 O1026 1.235 . S
C1025 O1052 1.289 . S
O1026 C1025 1.235 . S
C1027 C1029 1.400 . S
C1027 N1030 1.351 . S
C1027 C1032 1.501 . S
C1028 C1029 1.387 . S
C1028 N1031 1.341 . S
C1029 C1027 1.400 . S
C1029 C1028 1.387 . S
N1030 Co1021 2.022 . S
N1030 C1027 1.351 . S
N1030 N1031 1.365 . S
N1031 C1028 1.341 . S
N1031 N1030 1.365 . S
N1031 H1051 0.862 . S
C1032 C1027 1.501 . S
C1032 H1033 0.961 . S
C1032 H1034 0.961 . S
C1032 H1035 0.960 . S
H1033 C1032 0.961 . S
H1034 C1032 0.961 . S
H1035 C1032 0.960 . S
C1036 N1037 1.342 . S
C1036 C1040 1.401 . S
C1036 C1041 1.499 . S
N1037 Co1020 1.989 . S
N1037 C1036 1.342 . S
N1037 N1038 1.388 . S
N1038 Co1021 1.993 . S
N1038 N1037 1.388 . S
N1038 C1039 1.346 . S
C1039 N1038 1.346 . S
C1039 C1040 1.396 . S
C1039 C1049 1.510 . S
C1040 C1036 1.401 . S
C1040 C1039 1.396 . S
C1041 C1036 1.499 . S
C1041 H1042 0.959 . S
C1041 H1043 0.960 . S
C1041 H1044 0.961 . S
H1042 C1041 0.959 . S
H1043 C1041 0.960 . S
H1044 C1041 0.961 . S
O1045 Co1020 1.967 . S
O1045 C1053 1.258 . S
O1046 Co1021 1.941 . S
O1046 C1053 1.266 . S
H1047 C1049 0.959 . S
H1048 C1049 0.961 . S
C1049 C1039 1.510 . S
C1049 H1047 0.959 . S
C1049 H1048 0.961 . S
C1049 H1050 0.960 . S
H1050 C1049 0.960 . S
H1051 N1031 0.862 . S
O1052 Co1020 1.920 . S
O1052 C1025 1.289 . S
C1053 O1045 1.258 . S
C1053 O1046 1.266 . S
Co1054 O1057 1.970 . S
Co1054 N1071 1.989 . S
Co1054 O1079 1.967 . S
Co1054 O1086 1.920 . S
Co1055 O1058 1.966 . S
Co1055 N1064 2.022 . S
Co1055 N1072 1.993 . S
Co1055 O1080 1.941 . S
C1056 O1057 1.258 . S
C1056 O1058 1.263 . S
O1057 Co1054 1.970 . S
O1057 C1056 1.258 . S
O1058 Co1055 1.966 . S
O1058 C1056 1.263 . S
C1059 O1060 1.235 . S
C1059 O1086 1.289 . S
O1060 C1059 1.235 . S
C1061 C1063 1.400 . S
C1061 N1064 1.351 . S
C1061 C1066 1.501 . S
C1062 C1063 1.387 . S
C1062 N1065 1.341 . S
C1063 C1061 1.400 . S
C1063 C1062 1.387 . S
N1064 Co1055 2.022 . S
N1064 C1061 1.351 . S
N1064 N1065 1.365 . S
N1065 C1062 1.341 . S
N1065 N1064 1.365 . S
N1065 H1085 0.862 . S
C1066 C1061 1.501 . S
C1066 H1067 0.961 . S
C1066 H1068 0.961 . S
C1066 H1069 0.960 . S
H1067 C1066 0.961 . S
H1068 C1066 0.961 . S
H1069 C1066 0.960 . S
C1070 N1071 1.342 . S
C1070 C1074 1.401 . S
C1070 C1075 1.499 . S
N1071 Co1054 1.989 . S
N1071 C1070 1.342 . S
N1071 N1072 1.388 . S
N1072 Co1055 1.993 . S
N1072 N1071 1.388 . S
N1072 C1073 1.346 . S
C1073 N1072 1.346 . S
C1073 C1074 1.396 . S
C1073 C1083 1.510 . S
C1074 C1070 1.401 . S
C1074 C1073 1.396 . S
C1075 C1070 1.499 . S
C1075 H1076 0.959 . S
C1075 H1077 0.960 . S
C1075 H1078 0.961 . S
H1076 C1075 0.959 . S
H1077 C1075 0.960 . S
H1078 C1075 0.961 . S
O1079 Co1054 1.967 . S
O1079 C1087 1.258 . S
O1080 Co1055 1.941 . S
O1080 C1087 1.266 . S
H1081 C1083 0.959 . S
H1082 C1083 0.961 . S
C1083 C1073 1.510 . S
C1083 H1081 0.959 . S
C1083 H1082 0.961 . S
C1083 H1084 0.960 . S
H1084 C1083 0.960 . S
H1085 N1065 0.862 . S
O1086 Co1054 1.920 . S
O1086 C1059 1.289 . S
C1087 O1079 1.258 . S
C1087 O1080 1.266 . S
C1088 C1089 1.387 . S
C1088 H1092 0.950 . S
C1088 C1097 1.390 1_554 S
C1089 C1088 1.387 . S
C1089 C1091 1.387 1_545 S
H1090 C1097 0.950 . S
C1091 C1089 1.387 1_565 S
C1091 C1093 1.390 1_554 S
C1091 H1095 0.950 . S
H1092 C1088 0.950 . S
C1093 C1091 1.390 1_556 S
C1093 C1094 1.387 . S
C1093 H1096 0.950 . S
C1094 C1093 1.387 . S
C1094 C1097 1.387 1_565 S
H1095 C1091 0.950 . S
H1096 C1093 0.950 . S
C1097 C1088 1.390 1_556 S
C1097 H1090 0.950 . S
C1097 C1094 1.387 1_545 S
C1098 C1099 1.387 . S
C1098 H1102 0.950 . S
C1098 C1107 1.390 . S
C1099 C1098 1.387 . S
C1099 C1101 1.387 . S
H1100 C1107 0.950 . S
C1101 C1099 1.387 . S
C1101 C1103 1.390 . S
C1101 H1105 0.950 . S
H1102 C1098 0.950 . S
C1103 C1101 1.390 . S
C1103 C1104 1.387 . S
C1103 H1106 0.950 . S
C1104 C1103 1.387 . S
C1104 C1107 1.387 . S
H1105 C1101 0.950 . S
H1106 C1103 0.950 . S
C1107 C1098 1.390 . S
C1107 H1100 0.950 . S
C1107 C1104 1.387 . S
C1108 C1109 1.387 . S
C1108 H1112 0.950 . S
C1108 C1117 1.390 . S
C1109 C1108 1.387 . S
C1109 C1111 1.387 1_645 S
H1110 C1117 0.950 . S
C1111 C1109 1.387 1_465 S
C1111 C1113 1.390 . S
C1111 H1115 0.950 . S
H1112 C1108 0.950 . S
C1113 C1111 1.390 . S
C1113 C1114 1.387 . S
C1113 H1116 0.950 . S
C1114 C1113 1.387 . S
C1114 C1117 1.387 1_465 S
H1115 C1111 0.950 . S
H1116 C1113 0.950 . S
C1117 C1108 1.390 . S
C1117 H1110 0.950 . S
C1117 C1114 1.387 1_645 S
C1118 C1119 1.387 . S
C1118 H1122 0.950 . S
C1118 C1127 1.390 . S
C1119 C1118 1.387 . S
C1119 C1121 1.387 . S
H1120 C1127 0.950 . S
C1121 C1119 1.387 . S
C1121 C1123 1.390 . S
C1121 H1125 0.950 . S
H1122 C1118 0.950 . S
C1123 C1121 1.390 . S
C1123 C1124 1.387 . S
C1123 H1126 0.950 . S
C1124 C1123 1.387 . S
C1124 C1127 1.387 . S
H1125 C1121 0.950 . S
H1126 C1123 0.950 . S
C1127 C1118 1.390 . S
C1127 H1120 0.950 . S
C1127 C1124 1.387 . S
C1128 C1129 1.387 . S
C1128 H1132 0.950 . S
C1128 C1137 1.390 . S
C1129 C1128 1.387 . S
C1129 C1131 1.387 1_545 S
H1130 C1137 0.950 . S
C1131 C1129 1.387 1_565 S
C1131 C1133 1.390 . S
C1131 H1135 0.950 . S
H1132 C1128 0.950 . S
C1133 C1131 1.390 . S
C1133 C1134 1.387 . S
C1133 H1136 0.950 . S
C1134 C1133 1.387 . S
C1134 C1137 1.387 1_565 S
H1135 C1131 0.950 . S
H1136 C1133 0.950 . S
C1137 C1128 1.390 . S
C1137 H1130 0.950 . S
C1137 C1134 1.387 1_545 S
C1138 C1139 1.387 . S
C1138 H1142 0.950 . S
C1138 C1147 1.390 . S
C1139 C1138 1.387 . S
C1139 C1141 1.387 . S
H1140 C1147 0.950 . S
C1141 C1139 1.387 . S
C1141 C1143 1.390 . S
C1141 H1145 0.950 . S
H1142 C1138 0.950 . S
C1143 C1141 1.390 . S
C1143 C1144 1.387 . S
C1143 H1146 0.950 . S
C1144 C1143 1.387 . S
C1144 C1147 1.387 . S
H1145 C1141 0.950 . S
H1146 C1143 0.950 . S
C1147 C1138 1.390 . S
C1147 H1140 0.950 . S
C1147 C1144 1.387 . S
C1148 C1149 1.387 . S
C1148 H1152 0.950 . S
C1148 C1157 1.390 1_654 S
C1149 C1148 1.387 . S
C1149 C1151 1.387 1_565 S
H1150 C1157 0.950 . S
C1151 C1149 1.387 1_545 S
C1151 C1153 1.390 1_654 S
C1151 H1155 0.950 . S
H1152 C1148 0.950 . S
C1153 C1151 1.390 1_456 S
C1153 C1154 1.387 . S
C1153 H1156 0.950 . S
C1154 C1153 1.387 . S
C1154 C1157 1.387 1_545 S
H1155 C1151 0.950 . S
H1156 C1153 0.950 . S
C1157 C1148 1.390 1_456 S
C1157 H1150 0.950 . S
C1157 C1154 1.387 1_565 S
C1158 C1159 1.387 . S
C1158 H1162 0.950 . S
C1158 C1167 1.390 . S
C1159 C1158 1.387 . S
C1159 C1161 1.387 . S
H1160 C1167 0.950 . S
C1161 C1159 1.387 . S
C1161 C1163 1.390 . S
C1161 H1165 0.950 . S
H1162 C1158 0.950 . S
C1163 C1161 1.390 . S
C1163 C1164 1.387 . S
C1163 H1166 0.950 . S
C1164 C1163 1.387 . S
C1164 C1167 1.387 . S
H1165 C1161 0.950 . S
H1166 C1163 0.950 . S
C1167 C1158 1.390 . S
C1167 H1160 0.950 . S
C1167 C1164 1.387 . S
C1168 C1169 1.387 . S
C1168 H1172 0.950 . S
C1168 C1177 1.390 . S
C1169 C1168 1.387 . S
C1169 C1171 1.387 . S
H1170 C1177 0.950 . S
C1171 C1169 1.387 . S
C1171 C1173 1.390 . S
C1171 H1175 0.950 . S
H1172 C1168 0.950 . S
C1173 C1171 1.390 . S
C1173 C1174 1.387 . S
C1173 H1176 0.950 . S
C1174 C1173 1.387 . S
C1174 C1177 1.387 . S
H1175 C1171 0.950 . S
H1176 C1173 0.950 . S
C1177 C1168 1.390 . S
C1177 H1170 0.950 . S
C1177 C1174 1.387 . S
C1178 C1179 1.387 . S
C1178 H1182 0.950 . S
C1178 C1187 1.390 . S
C1179 C1178 1.387 . S
C1179 C1181 1.387 . S
H1180 C1187 0.950 . S
C1181 C1179 1.387 . S
C1181 C1183 1.390 . S
C1181 H1185 0.950 . S
H1182 C1178 0.950 . S
C1183 C1181 1.390 . S
C1183 C1184 1.387 . S
C1183 H1186 0.950 . S
C1184 C1183 1.387 . S
C1184 C1187 1.387 . S
H1185 C1181 0.950 . S
H1186 C1183 0.950 . S
C1187 C1178 1.390 . S
C1187 H1180 0.950 . S
C1187 C1184 1.387 . S
C1188 C1189 1.387 . S
C1188 H1192 0.950 . S
C1188 C1197 1.390 . S
C1189 C1188 1.387 . S
C1189 C1191 1.387 . S
H1190 C1197 0.950 . S
C1191 C1189 1.387 . S
C1191 C1193 1.390 . S
C1191 H1195 0.950 . S
H1192 C1188 0.950 . S
C1193 C1191 1.390 . S
C1193 C1194 1.387 . S
C1193 H1196 0.950 . S
C1194 C1193 1.387 . S
C1194 C1197 1.387 . S
H1195 C1191 0.950 . S
H1196 C1193 0.950 . S
C1197 C1188 1.390 . S
C1197 H1190 0.950 . S
C1197 C1194 1.387 . S
C1198 C1199 1.387 . S
C1198 H1202 0.950 . S
C1198 C1207 1.390 . S
C1199 C1198 1.387 . S
C1199 C1201 1.387 . S
H1200 C1207 0.950 . S
C1201 C1199 1.387 . S
C1201 C1203 1.390 . S
C1201 H1205 0.950 . S
H1202 C1198 0.950 . S
C1203 C1201 1.390 . S
C1203 C1204 1.387 . S
C1203 H1206 0.950 . S
C1204 C1203 1.387 . S
C1204 C1207 1.387 . S
H1205 C1201 0.950 . S
H1206 C1203 0.950 . S
C1207 C1198 1.390 . S
C1207 H1200 0.950 . S
C1207 C1204 1.387 . S
C1208 C1209 1.387 . S
C1208 H1212 0.950 . S
C1208 C1217 1.390 . S
C1209 C1208 1.387 . S
C1209 C1211 1.387 1_655 S
H1210 C1217 0.950 . S
C1211 C1209 1.387 1_455 S
C1211 C1213 1.390 . S
C1211 H1215 0.950 . S
H1212 C1208 0.950 . S
C1213 C1211 1.390 . S
C1213 C1214 1.387 . S
C1213 H1216 0.950 . S
C1214 C1213 1.387 . S
C1214 C1217 1.387 1_455 S
H1215 C1211 0.950 . S
H1216 C1213 0.950 . S
C1217 C1208 1.390 . S
C1217 H1210 0.950 . S
C1217 C1214 1.387 1_655 S
C1218 C1219 1.387 . S
C1218 H1222 0.950 . S
C1218 C1227 1.390 1_556 S
C1219 C1218 1.387 . S
C1219 C1221 1.387 . S
H1220 C1227 0.950 . S
C1221 C1219 1.387 . S
C1221 C1223 1.390 1_556 S
C1221 H1225 0.950 . S
H1222 C1218 0.950 . S
C1223 C1221 1.390 1_554 S
C1223 C1224 1.387 . S
C1223 H1226 0.950 . S
C1224 C1223 1.387 . S
C1224 C1227 1.387 . S
H1225 C1221 0.950 . S
H1226 C1223 0.950 . S
C1227 C1218 1.390 1_554 S
C1227 H1220 0.950 . S
C1227 C1224 1.387 . S
C1228 C1229 1.387 1_655 S
C1228 H1232 0.950 . S
C1228 C1237 1.390 1_554 S
C1229 C1228 1.387 1_455 S
C1229 C1231 1.387 . S
H1230 C1237 0.950 . S
C1231 C1229 1.387 . S
C1231 C1233 1.390 1_554 S
C1231 H1235 0.950 . S
H1232 C1228 0.950 . S
C1233 C1231 1.390 1_556 S
C1233 C1234 1.387 1_455 S
C1233 H1236 0.950 . S
C1234 C1233 1.387 1_655 S
C1234 C1237 1.387 . S
H1235 C1231 0.950 . S
H1236 C1233 0.950 . S
C1237 C1228 1.390 1_556 S
C1237 H1230 0.950 . S
C1237 C1234 1.387 . S
C1238 C1239 1.387 . S
C1238 H1242 0.950 . S
C1238 C1247 1.390 . S
C1239 C1238 1.387 . S
C1239 C1241 1.387 . S
H1240 C1247 0.950 . S
C1241 C1239 1.387 . S
C1241 C1243 1.390 . S
C1241 H1245 0.950 . S
H1242 C1238 0.950 . S
C1243 C1241 1.390 . S
C1243 C1244 1.387 . S
C1243 H1246 0.950 . S
C1244 C1243 1.387 . S
C1244 C1247 1.387 . S
H1245 C1241 0.950 . S
H1246 C1243 0.950 . S
C1247 C1238 1.390 . S
C1247 H1240 0.950 . S
C1247 C1244 1.387 . S
C1248 C1249 1.387 1_545 S
C1248 H1252 0.950 . S
C1248 C1257 1.390 . S
C1249 C1248 1.387 1_565 S
C1249 C1251 1.387 . S
H1250 C1257 0.950 . S
C1251 C1249 1.387 . S
C1251 C1253 1.390 . S
C1251 H1255 0.950 . S
H1252 C1248 0.950 . S
C1253 C1251 1.390 . S
C1253 C1254 1.387 . S
C1253 H1256 0.950 . S
C1254 C1253 1.387 . S
C1254 C1257 1.387 1_565 S
H1255 C1251 0.950 . S
H1256 C1253 0.950 . S
C1257 C1248 1.390 . S
C1257 H1250 0.950 . S
C1257 C1254 1.387 1_545 S
C1258 C1259 1.387 . S
C1258 H1262 0.950 . S
C1258 C1267 1.390 . S
C1259 C1258 1.387 . S
C1259 C1261 1.387 . S
H1260 C1267 0.950 . S
C1261 C1259 1.387 . S
C1261 C1263 1.390 . S
C1261 H1265 0.950 . S
H1262 C1258 0.950 . S
C1263 C1261 1.390 . S
C1263 C1264 1.387 . S
C1263 H1266 0.950 . S
C1264 C1263 1.387 . S
C1264 C1267 1.387 . S
H1265 C1261 0.950 . S
H1266 C1263 0.950 . S
C1267 C1258 1.390 . S
C1267 H1260 0.950 . S
C1267 C1264 1.387 . S
C1268 C1269 1.387 1_565 S
C1268 H1272 0.950 . S
C1268 C1277 1.390 . S
C1269 C1268 1.387 1_545 S
C1269 C1271 1.387 . S
H1270 C1277 0.950 . S
C1271 C1269 1.387 . S
C1271 C1273 1.390 . S
C1271 H1275 0.950 . S
H1272 C1268 0.950 . S
C1273 C1271 1.390 . S
C1273 C1274 1.387 . S
C1273 H1276 0.950 . S
C1274 C1273 1.387 . S
C1274 C1277 1.387 1_545 S
H1275 C1271 0.950 . S
H1276 C1273 0.950 . S
C1277 C1268 1.390 . S
C1277 H1270 0.950 . S
C1277 C1274 1.387 1_565 S
C1278 C1279 1.387 . S
C1278 H1282 0.950 . S
C1278 C1287 1.390 . S
C1279 C1278 1.387 . S
C1279 C1281 1.387 . S
H1280 C1287 0.950 . S
C1281 C1279 1.387 . S
C1281 C1283 1.390 . S
C1281 H1285 0.950 . S
H1282 C1278 0.950 . S
C1283 C1281 1.390 . S
C1283 C1284 1.387 . S
C1283 H1286 0.950 . S
C1284 C1283 1.387 . S
C1284 C1287 1.387 . S
H1285 C1281 0.950 . S
H1286 C1283 0.950 . S
C1287 C1278 1.390 . S
C1287 H1280 0.950 . S
C1287 C1284 1.387 . S
C1288 C1289 1.387 1_565 S
C1288 H1292 0.950 . S
C1288 C1297 1.390 . S
C1289 C1288 1.387 1_545 S
C1289 C1291 1.387 . S
H1290 C1297 0.950 . S
C1291 C1289 1.387 . S
C1291 C1293 1.390 . S
C1291 H1295 0.950 . S
H1292 C1288 0.950 . S
C1293 C1291 1.390 . S
C1293 C1294 1.387 . S
C1293 H1296 0.950 . S
C1294 C1293 1.387 . S
C1294 C1297 1.387 1_545 S
H1295 C1291 0.950 . S
H1296 C1293 0.950 . S
C1297 C1288 1.390 . S
C1297 H1290 0.950 . S
C1297 C1294 1.387 1_565 S
C1298 C1299 1.387 . S
C1298 H1302 0.950 . S
C1298 C1307 1.390 . S
C1299 C1298 1.387 . S
C1299 C1301 1.387 . S
H1300 C1307 0.950 . S
C1301 C1299 1.387 . S
C1301 C1303 1.390 . S
C1301 H1305 0.950 . S
H1302 C1298 0.950 . S
C1303 C1301 1.390 . S
C1303 C1304 1.387 . S
C1303 H1306 0.950 . S
C1304 C1303 1.387 . S
C1304 C1307 1.387 . S
H1305 C1301 0.950 . S
H1306 C1303 0.950 . S
C1307 C1298 1.390 . S
C1307 H1300 0.950 . S
C1307 C1304 1.387 . S
C1308 C1309 1.387 1_545 S
C1308 H1312 0.950 . S
C1308 C1317 1.390 . S
C1309 C1308 1.387 1_565 S
C1309 C1311 1.387 . S
H1310 C1317 0.950 . S
C1311 C1309 1.387 . S
C1311 C1313 1.390 . S
C1311 H1315 0.950 . S
H1312 C1308 0.950 . S
C1313 C1311 1.390 . S
C1313 C1314 1.387 . S
C1313 H1316 0.950 . S
C1314 C1313 1.387 . S
C1314 C1317 1.387 1_565 S
H1315 C1311 0.950 . S
H1316 C1313 0.950 . S
C1317 C1308 1.390 . S
C1317 H1310 0.950 . S
C1317 C1314 1.387 1_545 S
C1318 C1319 1.387 . S
C1318 H1322 0.950 . S
C1318 C1327 1.390 . S
C1319 C1318 1.387 . S
C1319 C1321 1.387 . S
H1320 C1327 0.950 . S
C1321 C1319 1.387 . S
C1321 C1323 1.390 . S
C1321 H1325 0.950 . S
H1322 C1318 0.950 . S
C1323 C1321 1.390 . S
C1323 C1324 1.387 . S
C1323 H1326 0.950 . S
C1324 C1323 1.387 . S
C1324 C1327 1.387 . S
H1325 C1321 0.950 . S
H1326 C1323 0.950 . S
C1327 C1318 1.390 . S
C1327 H1320 0.950 . S
C1327 C1324 1.387 . S
C1328 C1329 1.387 . S
C1328 H1332 0.950 . S
C1328 C1337 1.390 . S
C1329 C1328 1.387 . S
C1329 C1331 1.387 1_545 S
H1330 C1337 0.950 . S
C1331 C1329 1.387 1_565 S
C1331 C1333 1.390 . S
C1331 H1335 0.950 . S
H1332 C1328 0.950 . S
C1333 C1331 1.390 . S
C1333 C1334 1.387 1_565 S
C1333 H1336 0.950 . S
C1334 C1333 1.387 1_545 S
C1334 C1337 1.387 . S
H1335 C1331 0.950 . S
H1336 C1333 0.950 . S
C1337 C1328 1.390 . S
C1337 H1330 0.950 . S
C1337 C1334 1.387 . S
C1338 C1339 1.387 . S
C1338 H1342 0.950 . S
C1338 C1347 1.390 . S
C1339 C1338 1.387 . S
C1339 C1341 1.387 . S
H1340 C1347 0.950 . S
C1341 C1339 1.387 . S
C1341 C1343 1.390 . S
C1341 H1345 0.950 . S
H1342 C1338 0.950 . S
C1343 C1341 1.390 . S
C1343 C1344 1.387 . S
C1343 H1346 0.950 . S
C1344 C1343 1.387 . S
C1344 C1347 1.387 . S
H1345 C1341 0.950 . S
H1346 C1343 0.950 . S
C1347 C1338 1.390 . S
C1347 H1340 0.950 . S
C1347 C1344 1.387 . S
C1348 C1349 1.387 1_545 S
C1348 H1352 0.950 . S
C1348 C1357 1.390 . S
C1349 C1348 1.387 1_565 S
C1349 C1351 1.387 . S
H1350 C1357 0.950 . S
C1351 C1349 1.387 . S
C1351 C1353 1.390 . S
C1351 H1355 0.950 . S
H1352 C1348 0.950 . S
C1353 C1351 1.390 . S
C1353 C1354 1.387 . S
C1353 H1356 0.950 . S
C1354 C1353 1.387 . S
C1354 C1357 1.387 1_565 S
H1355 C1351 0.950 . S
H1356 C1353 0.950 . S
C1357 C1348 1.390 . S
C1357 H1350 0.950 . S
C1357 C1354 1.387 1_545 S
C1358 C1359 1.387 . S
C1358 H1362 0.950 . S
C1358 C1367 1.390 . S
C1359 C1358 1.387 . S
C1359 C1361 1.387 . S
H1360 C1367 0.950 . S
C1361 C1359 1.387 . S
C1361 C1363 1.390 . S
C1361 H1365 0.950 . S
H1362 C1358 0.950 . S
C1363 C1361 1.390 . S
C1363 C1364 1.387 . S
C1363 H1366 0.950 . S
C1364 C1363 1.387 . S
C1364 C1367 1.387 . S
H1365 C1361 0.950 . S
H1366 C1363 0.950 . S
C1367 C1358 1.390 . S
C1367 H1360 0.950 . S
C1367 C1364 1.387 . S
C1368 C1369 1.387 1_545 S
C1368 H1372 0.950 . S
C1368 C1377 1.390 . S
C1369 C1368 1.387 1_565 S
C1369 C1371 1.387 . S
H1370 C1377 0.950 . S
C1371 C1369 1.387 . S
C1371 C1373 1.390 . S
C1371 H1375 0.950 . S
H1372 C1368 0.950 . S
C1373 C1371 1.390 . S
C1373 C1374 1.387 . S
C1373 H1376 0.950 . S
C1374 C1373 1.387 . S
C1374 C1377 1.387 1_565 S
H1375 C1371 0.950 . S
H1376 C1373 0.950 . S
C1377 C1368 1.390 . S
C1377 H1370 0.950 . S
C1377 C1374 1.387 1_545 S
C1378 C1379 1.387 . S
C1378 H1382 0.950 . S
C1378 C1387 1.390 . S
C1379 C1378 1.387 . S
C1379 C1381 1.387 . S
H1380 C1387 0.950 . S
C1381 C1379 1.387 . S
C1381 C1383 1.390 . S
C1381 H1385 0.950 . S
H1382 C1378 0.950 . S
C1383 C1381 1.390 . S
C1383 C1384 1.387 . S
C1383 H1386 0.950 . S
C1384 C1383 1.387 . S
C1384 C1387 1.387 . S
H1385 C1381 0.950 . S
H1386 C1383 0.950 . S
C1387 C1378 1.390 . S
C1387 H1380 0.950 . S
C1387 C1384 1.387 . S
C1388 C1389 1.387 . S
C1388 H1392 0.950 . S
C1388 C1397 1.390 . S
C1389 C1388 1.387 . S
C1389 C1391 1.387 1_545 S
H1390 C1397 0.950 . S
C1391 C1389 1.387 1_565 S
C1391 C1393 1.390 . S
C1391 H1395 0.950 . S
H1392 C1388 0.950 . S
C1393 C1391 1.390 . S
C1393 C1394 1.387 1_565 S
C1393 H1396 0.950 . S
C1394 C1393 1.387 1_545 S
C1394 C1397 1.387 . S
H1395 C1391 0.950 . S
H1396 C1393 0.950 . S
C1397 C1388 1.390 . S
C1397 H1390 0.950 . S
C1397 C1394 1.387 . S
C1398 C1399 1.387 . S
C1398 H1402 0.950 . S
C1398 C1407 1.390 . S
C1399 C1398 1.387 . S
C1399 C1401 1.387 . S
H1400 C1407 0.950 . S
C1401 C1399 1.387 . S
C1401 C1403 1.390 . S
C1401 H1405 0.950 . S
H1402 C1398 0.950 . S
C1403 C1401 1.390 . S
C1403 C1404 1.387 . S
C1403 H1406 0.950 . S
C1404 C1403 1.387 . S
C1404 C1407 1.387 . S
H1405 C1401 0.950 . S
H1406 C1403 0.950 . S
C1407 C1398 1.390 . S
C1407 H1400 0.950 . S
C1407 C1404 1.387 . S
C1408 C1409 1.387 . S
C1408 H1412 0.950 . S
C1408 C1417 1.390 . S
C1409 C1408 1.387 . S
C1409 C1411 1.387 . S
H1410 C1417 0.950 . S
C1411 C1409 1.387 . S
C1411 C1413 1.390 . S
C1411 H1415 0.950 . S
H1412 C1408 0.950 . S
C1413 C1411 1.390 . S
C1413 C1414 1.387 . S
C1413 H1416 0.950 . S
C1414 C1413 1.387 . S
C1414 C1417 1.387 . S
H1415 C1411 0.950 . S
H1416 C1413 0.950 . S
C1417 C1408 1.390 . S
C1417 H1410 0.950 . S
C1417 C1414 1.387 . S
C1418 C1419 1.387 . S
C1418 H1422 0.950 . S
C1418 C1427 1.390 . S
C1419 C1418 1.387 . S
C1419 C1421 1.387 . S
H1420 C1427 0.950 . S
C1421 C1419 1.387 . S
C1421 C1423 1.390 . S
C1421 H1425 0.950 . S
H1422 C1418 0.950 . S
C1423 C1421 1.390 . S
C1423 C1424 1.387 . S
C1423 H1426 0.950 . S
C1424 C1423 1.387 . S
C1424 C1427 1.387 . S
H1425 C1421 0.950 . S
H1426 C1423 0.950 . S
C1427 C1418 1.390 . S
C1427 H1420 0.950 . S
C1427 C1424 1.387 . S
C1428 C1429 1.387 . S
C1428 H1432 0.950 . S
C1428 C1437 1.390 . S
C1429 C1428 1.387 . S
C1429 C1431 1.387 . S
H1430 C1437 0.950 . S
C1431 C1429 1.387 . S
C1431 C1433 1.390 . S
C1431 H1435 0.950 . S
H1432 C1428 0.950 . S
C1433 C1431 1.390 . S
C1433 C1434 1.387 . S
C1433 H1436 0.950 . S
C1434 C1433 1.387 . S
C1434 C1437 1.387 . S
H1435 C1431 0.950 . S
H1436 C1433 0.950 . S
C1437 C1428 1.390 . S
C1437 H1430 0.950 . S
C1437 C1434 1.387 . S
C1438 C1439 1.387 . S
C1438 H1442 0.950 . S
C1438 C1447 1.390 . S
C1439 C1438 1.387 . S
C1439 C1441 1.387 . S
H1440 C1447 0.950 . S
C1441 C1439 1.387 . S
C1441 C1443 1.390 . S
C1441 H1445 0.950 . S
H1442 C1438 0.950 . S
C1443 C1441 1.390 . S
C1443 C1444 1.387 . S
C1443 H1446 0.950 1_545 S
C1444 C1443 1.387 . S
C1444 C1447 1.387 . S
H1445 C1441 0.950 . S
H1446 C1443 0.950 1_565 S
C1447 C1438 1.390 . S
C1447 H1440 0.950 . S
C1447 C1444 1.387 . S
C1448 C1449 1.387 . S
C1448 H1452 0.950 . S
C1448 C1457 1.390 . S
C1449 C1448 1.387 . S
C1449 C1451 1.387 . S
H1450 C1457 0.950 . S
C1451 C1449 1.387 . S
C1451 C1453 1.390 . S
C1451 H1455 0.950 . S
H1452 C1448 0.950 . S
C1453 C1451 1.390 . S
C1453 C1454 1.387 . S
C1453 H1456 0.950 . S
C1454 C1453 1.387 . S
C1454 C1457 1.387 . S
H1455 C1451 0.950 . S
H1456 C1453 0.950 . S
C1457 C1448 1.390 . S
C1457 H1450 0.950 . S
C1457 C1454 1.387 . S
C1458 C1459 1.387 . S
C1458 H1462 0.950 . S
C1458 C1467 1.390 . S
C1459 C1458 1.387 . S
C1459 C1461 1.387 . S
H1460 C1467 0.950 . S
C1461 C1459 1.387 . S
C1461 C1463 1.390 . S
C1461 H1465 0.942 1_565 S
H1462 C1458 0.950 . S
C1463 C1461 1.390 . S
C1463 C1464 1.387 . S
C1463 H1466 0.950 . S
C1464 C1463 1.387 . S
C1464 C1467 1.387 . S
H1465 C1461 0.942 1_545 S
H1466 C1463 0.950 . S
C1467 C1458 1.390 . S
C1467 H1460 0.950 . S
C1467 C1464 1.387 . S
C1468 C1469 1.387 . S
C1468 H1472 0.950 . S
C1468 C1477 1.390 . S
C1469 C1468 1.387 . S
C1469 C1471 1.387 . S
H1470 C1477 0.950 . S
C1471 C1469 1.387 . S
C1471 C1473 1.390 . S
C1471 H1475 0.950 . S
H1472 C1468 0.950 . S
C1473 C1471 1.390 . S
C1473 C1474 1.387 . S
C1473 H1476 0.950 . S
C1474 C1473 1.387 . S
C1474 C1477 1.387 . S
H1475 C1471 0.950 . S
H1476 C1473 0.950 . S
C1477 C1468 1.390 . S
C1477 H1470 0.950 . S
C1477 C1474 1.387 . S
C1478 C1479 1.387 . S
C1478 H1482 0.950 . S
C1478 C1487 1.390 . S
C1479 C1478 1.387 . S
C1479 C1481 1.387 . S
H1480 C1487 0.950 . S
C1481 C1479 1.387 . S
C1481 C1483 1.390 . S
C1481 H1485 0.950 . S
H1482 C1478 0.950 . S
C1483 C1481 1.390 . S
C1483 C1484 1.387 . S
C1483 H1486 0.950 . S
C1484 C1483 1.387 . S
C1484 C1487 1.387 . S
H1485 C1481 0.950 . S
H1486 C1483 0.950 . S
C1487 C1478 1.390 . S
C1487 H1480 0.950 . S
C1487 C1484 1.387 . S
C1488 C1489 1.387 . S
C1488 H1492 0.950 . S
C1488 C1497 1.390 . S
C1489 C1488 1.387 . S
C1489 C1491 1.387 . S
H1490 C1497 0.950 . S
C1491 C1489 1.387 . S
C1491 C1493 1.390 . S
C1491 H1495 0.950 . S
H1492 C1488 0.950 . S
C1493 C1491 1.390 . S
C1493 C1494 1.387 . S
C1493 H1496 0.950 . S
C1494 C1493 1.387 . S
C1494 C1497 1.387 . S
H1495 C1491 0.950 . S
H1496 C1493 0.950 . S
C1497 C1488 1.390 . S
C1497 H1490 0.950 . S
C1497 C1494 1.387 . S
C1498 C1499 1.387 . S
C1498 H1502 0.950 . S
C1498 C1507 1.390 . S
C1499 C1498 1.387 . S
C1499 C1501 1.387 . S
H1500 C1507 0.950 . S
C1501 C1499 1.387 . S
C1501 C1503 1.390 . S
C1501 H1505 0.950 . S
H1502 C1498 0.950 . S
C1503 C1501 1.390 . S
C1503 C1504 1.387 . S
C1503 H1506 0.950 1_545 S
C1504 C1503 1.387 . S
C1504 C1507 1.387 . S
H1505 C1501 0.950 . S
H1506 C1503 0.950 1_565 S
C1507 C1498 1.390 . S
C1507 H1500 0.950 . S
C1507 C1504 1.387 . S
C1508 C1509 1.387 . S
C1508 H1512 0.950 . S
C1508 C1517 1.390 . S
C1509 C1508 1.387 . S
C1509 C1511 1.387 . S
H1510 C1517 0.950 . S
C1511 C1509 1.387 . S
C1511 C1513 1.390 . S
C1511 H1515 0.950 . S
H1512 C1508 0.950 . S
C1513 C1511 1.390 . S
C1513 C1514 1.387 . S
C1513 H1516 0.950 . S
C1514 C1513 1.387 . S
C1514 C1517 1.387 . S
H1515 C1511 0.950 . S
H1516 C1513 0.950 . S
C1517 C1508 1.390 . S
C1517 H1510 0.950 . S
C1517 C1514 1.387 . S
C1518 C1519 1.387 . S
C1518 H1522 0.950 . S
C1518 C1527 1.390 . S
C1519 C1518 1.387 . S
C1519 C1521 1.387 . S
H1520 C1527 0.950 . S
C1521 C1519 1.387 . S
C1521 C1523 1.390 . S
C1521 H1525 0.950 . S
H1522 C1518 0.950 . S
C1523 C1521 1.390 . S
C1523 C1524 1.387 . S
C1523 H1526 0.950 . S
C1524 C1523 1.387 . S
C1524 C1527 1.387 . S
H1525 C1521 0.950 . S
H1526 C1523 0.950 . S
C1527 C1518 1.390 . S
C1527 H1520 0.950 . S
C1527 C1524 1.387 . S
C1528 C1529 1.387 . S
C1528 H1532 0.950 . S
C1528 C1537 1.390 . S
C1529 C1528 1.387 . S
C1529 C1531 1.387 . S
H1530 C1537 0.950 . S
C1531 C1529 1.387 . S
C1531 C1533 1.390 . S
C1531 H1535 0.950 . S
H1532 C1528 0.950 . S
C1533 C1531 1.390 . S
C1533 C1534 1.387 . S
C1533 H1536 0.950 . S
C1534 C1533 1.387 . S
C1534 C1537 1.387 . S
H1535 C1531 0.950 . S
H1536 C1533 0.950 . S
C1537 C1528 1.390 . S
C1537 H1530 0.950 . S
C1537 C1534 1.387 . S
C1538 C1539 1.387 . S
C1538 H1542 0.950 . S
C1538 C1547 1.390 . S
C1539 C1538 1.387 . S
C1539 C1541 1.387 . S
H1540 C1547 0.950 . S
C1541 C1539 1.387 . S
C1541 C1543 1.390 . S
C1541 H1545 0.950 . S
H1542 C1538 0.950 . S
C1543 C1541 1.390 . S
C1543 C1544 1.387 . S
C1543 H1546 0.950 . S
C1544 C1543 1.387 . S
C1544 C1547 1.387 . S
H1545 C1541 0.950 . S
H1546 C1543 0.950 . S
C1547 C1538 1.390 . S
C1547 H1540 0.950 . S
C1547 C1544 1.387 . S
C1548 C1549 1.387 . S
C1548 H1552 0.950 . S
C1548 C1557 1.390 . S
C1549 C1548 1.387 . S
C1549 C1551 1.387 . S
H1550 C1557 0.950 . S
C1551 C1549 1.387 . S
C1551 C1553 1.390 . S
C1551 H1555 0.950 . S
H1552 C1548 0.950 . S
C1553 C1551 1.390 . S
C1553 C1554 1.387 . S
C1553 H1556 0.950 . S
C1554 C1553 1.387 . S
C1554 C1557 1.387 . S
H1555 C1551 0.950 . S
H1556 C1553 0.950 . S
C1557 C1548 1.390 . S
C1557 H1550 0.950 . S
C1557 C1554 1.387 . S
C1558 C1559 1.387 . S
C1558 H1562 0.950 1_565 S
C1558 C1567 1.390 . S
C1559 C1558 1.387 . S
C1559 C1561 1.387 . S
H1560 C1567 0.950 . S
C1561 C1559 1.387 . S
C1561 C1563 1.390 . S
C1561 H1565 0.950 . S
H1562 C1558 0.950 1_545 S
C1563 C1561 1.390 . S
C1563 C1564 1.387 . S
C1563 H1566 0.950 . S
C1564 C1563 1.387 . S
C1564 C1567 1.387 . S
H1565 C1561 0.950 . S
H1566 C1563 0.950 . S
C1567 C1558 1.390 . S
C1567 H1560 0.950 . S
C1567 C1564 1.387 . S
C1568 C1569 1.387 . S
C1568 H1572 0.950 . S
C1568 C1577 1.390 . S
C1569 C1568 1.387 . S
C1569 C1571 1.387 . S
H1570 C1577 0.950 . S
C1571 C1569 1.387 . S
C1571 C1573 1.390 . S
C1571 H1575 0.950 . S
H1572 C1568 0.950 . S
C1573 C1571 1.390 . S
C1573 C1574 1.387 . S
C1573 H1576 0.950 . S
C1574 C1573 1.387 . S
C1574 C1577 1.387 . S
H1575 C1571 0.950 . S
H1576 C1573 0.950 . S
C1577 C1568 1.390 . S
C1577 H1570 0.950 . S
C1577 C1574 1.387 . S
C1578 C1579 1.387 . S
C1578 H1582 0.950 . S
C1578 C1587 1.390 . S
C1579 C1578 1.387 . S
C1579 C1581 1.387 . S
H1580 C1587 0.950 . S
C1581 C1579 1.387 . S
C1581 C1583 1.390 . S
C1581 H1585 0.950 . S
H1582 C1578 0.950 . S
C1583 C1581 1.390 . S
C1583 C1584 1.387 . S
C1583 H1586 0.950 . S
C1584 C1583 1.387 . S
C1584 C1587 1.387 . S
H1585 C1581 0.950 . S
H1586 C1583 0.950 . S
C1587 C1578 1.390 . S
C1587 H1580 0.950 . S
C1587 C1584 1.387 . S
C1588 C1589 1.387 . S
C1588 H1592 0.950 . S
C1588 C1597 1.390 . S
C1589 C1588 1.387 . S
C1589 C1591 1.387 . S
H1590 C1597 0.950 . S
C1591 C1589 1.387 . S
C1591 C1593 1.390 . S
C1591 H1595 0.950 . S
H1592 C1588 0.950 . S
C1593 C1591 1.390 . S
C1593 C1594 1.387 . S
C1593 H1596 0.950 . S
C1594 C1593 1.387 . S
C1594 C1597 1.387 . S
H1595 C1591 0.950 . S
H1596 C1593 0.950 . S
C1597 C1588 1.390 . S
C1597 H1590 0.950 . S
C1597 C1594 1.387 . S
C1598 C1599 1.387 . S
C1598 H1602 0.950 . S
C1598 C1607 1.390 . S
C1599 C1598 1.387 . S
C1599 C1601 1.387 . S
H1600 C1607 0.950 . S
C1601 C1599 1.387 . S
C1601 C1603 1.390 . S
C1601 H1605 0.950 . S
H1602 C1598 0.950 . S
C1603 C1601 1.390 . S
C1603 C1604 1.387 . S
C1603 H1606 0.950 . S
C1604 C1603 1.387 . S
C1604 C1607 1.387 . S
H1605 C1601 0.950 . S
H1606 C1603 0.950 . S
C1607 C1598 1.390 . S
C1607 H1600 0.950 . S
C1607 C1604 1.387 . S
C1608 C1609 1.387 . S
C1608 H1612 0.950 . S
C1608 C1617 1.390 . S
C1609 C1608 1.387 . S
C1609 C1611 1.387 . S
H1610 C1617 0.950 . S
C1611 C1609 1.387 . S
C1611 C1613 1.390 . S
C1611 H1615 0.950 . S
H1612 C1608 0.950 . S
C1613 C1611 1.390 . S
C1613 C1614 1.387 . S
C1613 H1616 0.950 . S
C1614 C1613 1.387 . S
C1614 C1617 1.387 . S
H1615 C1611 0.950 . S
H1616 C1613 0.950 . S
C1617 C1608 1.390 . S
C1617 H1610 0.950 . S
C1617 C1614 1.387 . S
C1618 C1619 1.387 . S
C1618 H1622 0.950 . S
C1618 C1627 1.390 . S
C1619 C1618 1.387 . S
C1619 C1621 1.387 . S
H1620 C1627 0.950 . S
C1621 C1619 1.387 . S
C1621 C1623 1.390 . S
C1621 H1625 0.950 . S
H1622 C1618 0.950 . S
C1623 C1621 1.390 . S
C1623 C1624 1.387 . S
C1623 H1626 0.950 . S
C1624 C1623 1.387 . S
C1624 C1627 1.387 . S
H1625 C1621 0.950 . S
H1626 C1623 0.950 . S
C1627 C1618 1.390 . S
C1627 H1620 0.950 . S
C1627 C1624 1.387 . S
C1628 C1629 1.387 . S
C1628 H1632 0.950 . S
C1628 C1637 1.390 . S
C1629 C1628 1.387 . S
C1629 C1631 1.387 . S
H1630 C1637 0.950 . S
C1631 C1629 1.387 . S
C1631 C1633 1.390 . S
C1631 H1635 0.950 . S
H1632 C1628 0.950 . S
C1633 C1631 1.390 . S
C1633 C1634 1.387 . S
C1633 H1636 0.950 . S
C1634 C1633 1.387 . S
C1634 C1637 1.387 . S
H1635 C1631 0.950 . S
H1636 C1633 0.950 . S
C1637 C1628 1.390 . S
C1637 H1630 0.950 . S
C1637 C1634 1.387 . S
C1638 C1639 1.387 . S
C1638 H1642 0.950 . S
C1638 C1647 1.390 . S
C1639 C1638 1.387 . S
C1639 C1641 1.387 . S
H1640 C1647 0.950 . S
C1641 C1639 1.387 . S
C1641 C1643 1.390 . S
C1641 H1645 0.950 . S
H1642 C1638 0.950 . S
C1643 C1641 1.390 . S
C1643 C1644 1.387 . S
C1643 H1646 0.950 . S
C1644 C1643 1.387 . S
C1644 C1647 1.387 . S
H1645 C1641 0.950 . S
H1646 C1643 0.950 . S
C1647 C1638 1.390 . S
C1647 H1640 0.950 . S
C1647 C1644 1.387 . S
C1648 C1649 1.387 . S
C1648 H1652 0.950 . S
C1648 C1657 1.390 . S
C1649 C1648 1.387 . S
C1649 C1651 1.387 . S
H1650 C1657 0.950 . S
C1651 C1649 1.387 . S
C1651 C1653 1.390 . S
C1651 H1655 0.950 . S
H1652 C1648 0.950 . S
C1653 C1651 1.390 . S
C1653 C1654 1.387 . S
C1653 H1656 0.950 . S
C1654 C1653 1.387 . S
C1654 C1657 1.387 . S
H1655 C1651 0.950 . S
H1656 C1653 0.950 . S
C1657 C1648 1.390 . S
C1657 H1650 0.950 . S
C1657 C1654 1.387 . S
C1658 C1659 1.387 . S
C1658 H1662 0.950 . S
C1658 C1667 1.390 . S
C1659 C1658 1.387 . S
C1659 C1661 1.387 . S
H1660 C1667 0.950 . S
C1661 C1659 1.387 . S
C1661 C1663 1.390 . S
C1661 H1665 0.950 . S
H1662 C1658 0.950 . S
C1663 C1661 1.390 . S
C1663 C1664 1.387 . S
C1663 H1666 0.950 . S
C1664 C1663 1.387 . S
C1664 C1667 1.387 . S
H1665 C1661 0.950 . S
H1666 C1663 0.950 . S
C1667 C1658 1.390 . S
C1667 H1660 0.950 . S
C1667 C1664 1.387 . S
C1668 C1669 1.387 . S
C1668 H1672 0.950 . S
C1668 C1677 1.390 . S
C1669 C1668 1.387 . S
C1669 C1671 1.387 . S
H1670 C1677 0.950 . S
C1671 C1669 1.387 . S
C1671 C1673 1.390 . S
C1671 H1675 0.950 . S
H1672 C1668 0.950 . S
C1673 C1671 1.390 . S
C1673 C1674 1.387 . S
C1673 H1676 0.950 . S
C1674 C1673 1.387 . S
C1674 C1677 1.387 . S
H1675 C1671 0.950 . S
H1676 C1673 0.950 . S
C1677 C1668 1.390 . S
C1677 H1670 0.950 . S
C1677 C1674 1.387 . S
C1678 C1679 1.387 . S
C1678 H1682 0.950 . S
C1678 C1687 1.390 . S
C1679 C1678 1.387 . S
C1679 C1681 1.387 . S
H1680 C1687 0.950 . S
C1681 C1679 1.387 . S
C1681 C1683 1.390 . S
C1681 H1685 0.950 . S
H1682 C1678 0.950 . S
C1683 C1681 1.390 . S
C1683 C1684 1.387 . S
C1683 H1686 0.950 . S
C1684 C1683 1.387 . S
C1684 C1687 1.387 . S
H1685 C1681 0.950 . S
H1686 C1683 0.950 . S
C1687 C1678 1.390 . S
C1687 H1680 0.950 . S
C1687 C1684 1.387 . S
C1688 C1689 1.387 . S
C1688 H1692 0.950 . S
C1688 C1697 1.390 . S
C1689 C1688 1.387 . S
C1689 C1691 1.387 . S
H1690 C1697 0.950 . S
C1691 C1689 1.387 . S
C1691 C1693 1.390 . S
C1691 H1695 0.950 . S
H1692 C1688 0.950 . S
C1693 C1691 1.390 . S
C1693 C1694 1.387 . S
C1693 H1696 0.950 . S
C1694 C1693 1.387 . S
C1694 C1697 1.387 . S
H1695 C1691 0.950 . S
H1696 C1693 0.950 . S
C1697 C1688 1.390 . S
C1697 H1690 0.950 . S
C1697 C1694 1.387 . S
C1698 C1699 1.387 . S
C1698 H1702 0.950 . S
C1698 C1707 1.390 . S
C1699 C1698 1.387 . S
C1699 C1701 1.387 . S
H1700 C1707 0.950 . S
C1701 C1699 1.387 . S
C1701 C1703 1.390 . S
C1701 H1705 0.950 . S
H1702 C1698 0.950 . S
C1703 C1701 1.390 . S
C1703 C1704 1.387 . S
C1703 H1706 0.950 . S
C1704 C1703 1.387 . S
C1704 C1707 1.387 . S
H1705 C1701 0.950 . S
H1706 C1703 0.950 . S
C1707 C1698 1.390 . S
C1707 H1700 0.950 . S
C1707 C1704 1.387 . S
C1708 C1709 1.387 . S
C1708 H1712 0.950 . S
C1708 C1717 1.390 . S
C1709 C1708 1.387 . S
C1709 C1711 1.387 . S
H1710 C1717 0.950 . S
C1711 C1709 1.387 . S
C1711 C1713 1.390 . S
C1711 H1715 0.950 . S
H1712 C1708 0.950 . S
C1713 C1711 1.390 . S
C1713 C1714 1.387 . S
C1713 H1716 0.950 . S
C1714 C1713 1.387 . S
C1714 C1717 1.387 . S
H1715 C1711 0.950 . S
H1716 C1713 0.950 . S
C1717 C1708 1.390 . S
C1717 H1710 0.950 . S
C1717 C1714 1.387 . S
C1718 C1719 1.387 . S
C1718 H1722 0.950 . S
C1718 C1727 1.390 . S
C1719 C1718 1.387 . S
C1719 C1721 1.387 . S
H1720 C1727 0.950 . S
C1721 C1719 1.387 . S
C1721 C1723 1.390 . S
C1721 H1725 0.950 . S
H1722 C1718 0.950 . S
C1723 C1721 1.390 . S
C1723 C1724 1.387 . S
C1723 H1726 0.950 . S
C1724 C1723 1.387 . S
C1724 C1727 1.387 . S
H1725 C1721 0.950 . S
H1726 C1723 0.950 . S
C1727 C1718 1.390 . S
C1727 H1720 0.950 . S
C1727 C1724 1.387 . S
C1728 C1729 1.387 . S
C1728 H1732 0.950 . S
C1728 C1737 1.390 . S
C1729 C1728 1.387 . S
C1729 C1731 1.387 . S
H1730 C1737 0.950 . S
C1731 C1729 1.387 . S
C1731 C1733 1.390 . S
C1731 H1735 0.950 . S
H1732 C1728 0.950 . S
C1733 C1731 1.390 . S
C1733 C1734 1.387 . S
C1733 H1736 0.950 . S
C1734 C1733 1.387 . S
C1734 C1737 1.387 . S
H1735 C1731 0.950 . S
H1736 C1733 0.950 . S
C1737 C1728 1.390 . S
C1737 H1730 0.950 . S
C1737 C1734 1.387 . S
C1738 C1739 1.387 . S
C1738 H1742 0.950 . S
C1738 C1747 1.390 1_655 S
C1739 C1738 1.387 . S
C1739 C1741 1.387 . S
H1740 C1747 0.950 . S
C1741 C1739 1.387 . S
C1741 C1743 1.390 1_655 S
C1741 H1745 0.950 . S
H1742 C1738 0.950 . S
C1743 C1741 1.390 1_455 S
C1743 C1744 1.387 . S
C1743 H1746 0.950 . S
C1744 C1743 1.387 . S
C1744 C1747 1.387 . S
H1745 C1741 0.950 . S
H1746 C1743 0.950 . S
C1747 C1738 1.390 1_455 S
C1747 H1740 0.950 . S
C1747 C1744 1.387 . S
C1748 C1749 1.387 . S
C1748 H1752 0.950 . S
C1748 C1757 1.390 1_655 S
C1749 C1748 1.387 . S
C1749 C1751 1.387 . S
H1750 C1757 0.950 . S
C1751 C1749 1.387 . S
C1751 C1753 1.390 1_655 S
C1751 H1755 0.950 . S
H1752 C1748 0.950 . S
C1753 C1751 1.390 1_455 S
C1753 C1754 1.387 . S
C1753 H1756 0.950 . S
C1754 C1753 1.387 . S
C1754 C1757 1.387 . S
H1755 C1751 0.950 . S
H1756 C1753 0.950 . S
C1757 C1748 1.390 1_455 S
C1757 H1750 0.950 . S
C1757 C1754 1.387 . S
C1758 C1759 1.387 . S
C1758 H1762 0.950 . S
C1758 C1767 1.390 . S
C1759 C1758 1.387 . S
C1759 C1761 1.387 . S
H1760 C1767 0.950 . S
C1761 C1759 1.387 . S
C1761 C1763 1.390 . S
C1761 H1765 0.950 . S
H1762 C1758 0.950 . S
C1763 C1761 1.390 . S
C1763 C1764 1.387 . S
C1763 H1766 0.950 . S
C1764 C1763 1.387 . S
C1764 C1767 1.387 . S
H1765 C1761 0.950 . S
H1766 C1763 0.950 . S
C1767 C1758 1.390 . S
C1767 H1760 0.950 . S
C1767 C1764 1.387 . S
C1768 C1769 1.387 . S
C1768 H1772 0.950 . S
C1768 C1777 1.390 . S
C1769 C1768 1.387 . S
C1769 C1771 1.387 . S
H1770 C1777 0.950 . S
C1771 C1769 1.387 . S
C1771 C1773 1.390 . S
C1771 H1775 0.950 . S
H1772 C1768 0.950 . S
C1773 C1771 1.390 . S
C1773 C1774 1.387 . S
C1773 H1776 0.950 . S
C1774 C1773 1.387 . S
C1774 C1777 1.387 . S
H1775 C1771 0.950 . S
H1776 C1773 0.950 . S
C1777 C1768 1.390 . S
C1777 H1770 0.950 . S
C1777 C1774 1.387 . S
C1778 C1779 1.387 . S
C1778 H1782 0.950 . S
C1778 C1787 1.390 . S
C1779 C1778 1.387 . S
C1779 C1781 1.387 . S
H1780 C1787 0.950 . S
C1781 C1779 1.387 . S
C1781 C1783 1.390 . S
C1781 H1785 0.950 . S
H1782 C1778 0.950 . S
C1783 C1781 1.390 . S
C1783 C1784 1.387 . S
C1783 H1786 0.950 . S
C1784 C1783 1.387 . S
C1784 C1787 1.387 . S
H1785 C1781 0.950 . S
H1786 C1783 0.950 . S
C1787 C1778 1.390 . S
C1787 H1780 0.950 . S
C1787 C1784 1.387 . S
C1788 C1789 1.387 . S
C1788 H1792 0.950 . S
C1788 C1797 1.390 1_455 S
C1789 C1788 1.387 . S
C1789 C1791 1.387 . S
H1790 C1797 0.950 . S
C1791 C1789 1.387 . S
C1791 C1793 1.390 1_455 S
C1791 H1795 0.950 . S
H1792 C1788 0.950 . S
C1793 C1791 1.390 1_655 S
C1793 C1794 1.387 . S
C1793 H1796 0.950 . S
C1794 C1793 1.387 . S
C1794 C1797 1.387 . S
H1795 C1791 0.950 . S
H1796 C1793 0.950 . S
C1797 C1788 1.390 1_655 S
C1797 H1790 0.950 . S
C1797 C1794 1.387 . S
C1798 C1799 1.387 . S
C1798 H1802 0.950 . S
C1798 C1807 1.390 1_655 S
C1799 C1798 1.387 . S
C1799 C1801 1.387 . S
H1800 C1807 0.950 . S
C1801 C1799 1.387 . S
C1801 C1803 1.390 1_655 S
C1801 H1805 0.950 . S
H1802 C1798 0.950 . S
C1803 C1801 1.390 1_455 S
C1803 C1804 1.387 . S
C1803 H1806 0.950 . S
C1804 C1803 1.387 . S
C1804 C1807 1.387 . S
H1805 C1801 0.950 . S
H1806 C1803 0.950 . S
C1807 C1798 1.390 1_455 S
C1807 H1800 0.950 . S
C1807 C1804 1.387 . S
C1808 C1809 1.387 . S
C1808 H1812 0.950 . S
C1808 C1817 1.390 . S
C1809 C1808 1.387 . S
C1809 C1811 1.387 . S
H1810 C1817 0.950 . S
C1811 C1809 1.387 . S
C1811 C1813 1.390 . S
C1811 H1815 0.950 . S
H1812 C1808 0.950 . S
C1813 C1811 1.390 . S
C1813 C1814 1.387 . S
C1813 H1816 0.950 . S
C1814 C1813 1.387 . S
C1814 C1817 1.387 . S
H1815 C1811 0.950 . S
H1816 C1813 0.950 . S
C1817 C1808 1.390 . S
C1817 H1810 0.950 . S
C1817 C1814 1.387 . S
C1818 C1819 1.387 . S
C1818 H1822 0.950 . S
C1818 C1827 1.390 1_655 S
C1819 C1818 1.387 . S
C1819 C1821 1.387 . S
H1820 C1827 0.950 . S
C1821 C1819 1.387 . S
C1821 C1823 1.390 1_655 S
C1821 H1825 0.950 . S
H1822 C1818 0.950 . S
C1823 C1821 1.390 1_455 S
C1823 C1824 1.387 . S
C1823 H1826 0.950 . S
C1824 C1823 1.387 . S
C1824 C1827 1.387 . S
H1825 C1821 0.950 . S
H1826 C1823 0.950 . S
C1827 C1818 1.390 1_455 S
C1827 H1820 0.950 . S
C1827 C1824 1.387 . S
C1828 C1829 1.387 . S
C1828 H1832 0.950 . S
C1828 C1837 1.390 1_655 S
C1829 C1828 1.387 . S
C1829 C1831 1.387 . S
H1830 C1837 0.950 . S
C1831 C1829 1.387 . S
C1831 C1833 1.390 1_655 S
C1831 H1835 0.950 . S
H1832 C1828 0.950 . S
C1833 C1831 1.390 1_455 S
C1833 C1834 1.387 . S
C1833 H1836 0.950 . S
C1834 C1833 1.387 . S
C1834 C1837 1.387 . S
H1835 C1831 0.950 . S
H1836 C1833 0.950 . S
C1837 C1828 1.390 1_455 S
C1837 H1830 0.950 . S
C1837 C1834 1.387 . S
C1838 C1839 1.387 . S
C1838 H1842 0.950 . S
C1838 C1847 1.390 . S
C1839 C1838 1.387 . S
C1839 C1841 1.387 . S
H1840 C1847 0.950 . S
C1841 C1839 1.387 . S
C1841 C1843 1.390 . S
C1841 H1845 0.950 . S
H1842 C1838 0.950 . S
C1843 C1841 1.390 . S
C1843 C1844 1.387 . S
C1843 H1846 0.950 . S
C1844 C1843 1.387 . S
C1844 C1847 1.387 . S
H1845 C1841 0.950 . S
H1846 C1843 0.950 . S
C1847 C1838 1.390 . S
C1847 H1840 0.950 . S
C1847 C1844 1.387 . S
C1848 C1849 1.387 . S
C1848 H1852 0.950 . S
C1848 C1857 1.390 . S
C1849 C1848 1.387 . S
C1849 C1851 1.387 . S
H1850 C1857 0.950 . S
C1851 C1849 1.387 . S
C1851 C1853 1.390 . S
C1851 H1855 0.950 . S
H1852 C1848 0.950 . S
C1853 C1851 1.390 . S
C1853 C1854 1.387 . S
C1853 H1856 0.950 . S
C1854 C1853 1.387 . S
C1854 C1857 1.387 . S
H1855 C1851 0.950 . S
H1856 C1853 0.950 . S
C1857 C1848 1.390 . S
C1857 H1850 0.950 . S
C1857 C1854 1.387 . S
C1858 C1859 1.387 . S
C1858 H1862 0.950 . S
C1858 C1867 1.390 . S
C1859 C1858 1.387 . S
C1859 C1861 1.387 . S
H1860 C1867 0.950 . S
C1861 C1859 1.387 . S
C1861 C1863 1.390 . S
C1861 H1865 0.950 . S
H1862 C1858 0.950 . S
C1863 C1861 1.390 . S
C1863 C1864 1.387 . S
C1863 H1866 0.950 . S
C1864 C1863 1.387 . S
C1864 C1867 1.387 . S
H1865 C1861 0.950 . S
H1866 C1863 0.950 . S
C1867 C1858 1.390 . S
C1867 H1860 0.950 . S
C1867 C1864 1.387 . S
C1868 C1869 1.387 . S
C1868 H1872 0.950 . S
C1868 C1877 1.390 1_655 S
C1869 C1868 1.387 . S
C1869 C1871 1.387 . S
H1870 C1877 0.950 . S
C1871 C1869 1.387 . S
C1871 C1873 1.390 1_655 S
C1871 H1875 0.950 . S
H1872 C1868 0.950 . S
C1873 C1871 1.390 1_455 S
C1873 C1874 1.387 . S
C1873 H1876 0.950 . S
C1874 C1873 1.387 . S
C1874 C1877 1.387 . S
H1875 C1871 0.950 . S
H1876 C1873 0.950 . S
C1877 C1868 1.390 1_455 S
C1877 H1870 0.950 . S
C1877 C1874 1.387 . S
C1878 C1879 1.387 . S
C1878 H1882 0.950 . S
C1878 C1887 1.390 1_455 S
C1879 C1878 1.387 . S
C1879 C1881 1.387 . S
H1880 C1887 0.950 . S
C1881 C1879 1.387 . S
C1881 C1883 1.390 1_455 S
C1881 H1885 0.950 . S
H1882 C1878 0.950 . S
C1883 C1881 1.390 1_655 S
C1883 C1884 1.387 . S
C1883 H1886 0.950 . S
C1884 C1883 1.387 . S
C1884 C1887 1.387 . S
H1885 C1881 0.950 . S
H1886 C1883 0.950 . S
C1887 C1878 1.390 1_655 S
C1887 H1880 0.950 . S
C1887 C1884 1.387 . S
C1089 C2 1.555 . S
C1094 C274 1.555 . S
C1099 C36 1.555 . S
C1104 C852 1.555 . S
C1109 C342 1.554 . S
C1114 C70 1.554 . S
C1119 C920 1.555 . S
C1124 C104 1.555 . S
C1129 C410 1.555 . S
C1134 C138 1.555 . S
C1139 C172 1.555 . S
C1144 C988 1.555 . S
C1149 C478 1.554 . S
C1154 C206 1.554 . S
C1159 C1056 1.555 . S
C1164 C240 1.555 . S
C1169 C308 1.556 . S
C1174 C580 1.556 . S
C1179 C376 1.555 . S
C1184 C648 1.555 . S
C1189 C716 1.555 . S
C1194 C444 1.555 . S
C1199 C512 1.554 . S
C1204 C784 1.554 . S
C1209 C546 1.555 . S
C1214 C818 1.555 . S
C1219 C886 1.556 . S
C1224 C614 1.556 . S
C1229 C954 1.555 . S
C1234 C682 1.555 . S
C1239 C750 1.556 . S
C1244 C1022 1.556 . S
C1249 C5 1.003 . S
C1254 C485 0.924 . S
C1259 C1063 0.924 . S
C1264 C39 1.006 . S
C1269 C417 0.923 . S
C1274 C73 1.003 . S
C1279 C995 0.923 . S
C1284 C107 1.003 . S
C1289 C349 0.923 . S
C1294 C141 1.003 . S
C1299 C175 1.003 . S
C1304 C927 0.923 . S
C1309 C281 0.923 . S
C1314 C209 1.003 . S
C1319 C243 1.003 . S
C1324 C859 0.922 . S
C1329 C277 1.003 . S
C1334 C213 0.923 . S
C1339 C311 1.004 . S
C1344 C791 0.926 . S
C1349 C345 1.009 . S
C1354 C145 0.931 . S
C1359 C723 0.930 . S
C1364 C379 1.009 . S
C1369 C77 0.931 . S
C1374 C413 1.009 . S
C1379 C655 0.922 . S
C1384 C447 1.003 . S
C1389 C481 1.003 . S
C1394 C9 0.923 . S
C1399 C587 0.931 . S
C1404 C515 1.009 . S
C1409 C549 1.009 . S
C1414 C1029 0.931 . S
C1419 C519 0.930 1_565 S
C1424 C583 1.009 . S
C1429 C961 0.924 . S
C1434 C617 1.003 . S
C1439 C651 1.007 . S
C1444 C451 0.931 1_545 S
C1449 C893 0.931 . S
C1454 C685 1.009 . S
C1459 C383 0.926 1_565 S
C1464 C719 1.004 . S
C1469 C753 1.009 . S
C1474 C825 0.931 . S
C1479 C787 1.009 . S
C1484 C315 0.930 1_545 S
C1489 C821 1.003 . S
C1494 C757 0.924 . S
C1499 C855 1.009 . S
C1504 C247 0.928 1_545 S
C1509 C889 1.009 . S
C1514 C689 0.931 . S
C1519 C923 1.009 . S
C1524 C179 0.931 1_565 S
C1529 C621 0.923 . S
C1534 C957 1.003 . S
C1539 C991 1.003 . S
C1544 C111 0.923 1_545 S
C1549 C553 0.931 . S
C1554 C1025 1.009 . S
C1559 C43 0.931 1_565 S
C1564 C1059 1.008 . S
C1569 C258 1.907 . S
C1574 C20 1.907 . S
C1579 C156 1.904 . S
C1584 C54 1.905 . S
C1589 C88 1.906 . S
C1594 C190 1.906 . S
C1599 C122 1.906 . S
C1604 C224 1.907 . S
C1609 C530 1.906 . S
C1614 C292 1.905 . S
C1619 C326 1.906 . S
C1624 C428 1.907 . S
C1629 C462 1.905 . S
C1634 C360 1.906 . S
C1639 C496 1.906 . S
C1644 C394 1.905 . S
C1649 C564 1.906 . S
C1654 C802 1.907 . S
C1659 C598 1.906 . S
C1664 C700 1.906 . S
C1669 C632 1.905 . S
C1674 C734 1.905 . S
C1679 C768 1.907 . S
C1684 C666 1.907 . S
C1689 C1074 1.906 . S
C1694 C836 1.905 . S
C1699 C972 1.905 . S
C1704 C870 1.905 . S
C1709 C904 1.907 . S
C1714 C1006 1.907 . S
C1719 C938 1.906 . S
C1724 C1040 1.906 . S
C1729 C33 2.261 . S
C1734 C645 2.261 . S
C1739 C679 2.261 . S
C1744 C67 2.261 . S
C1749 C577 2.261 . S
C1754 C101 2.261 . S
C1759 C611 2.261 . S
C1764 C135 2.261 . S
C1769 C781 2.261 . S
C1774 C169 2.261 . S
C1779 C815 2.261 . S
C1784 C203 2.261 . S
C1789 C237 2.260 . S
C1794 C713 2.260 . S
C1799 C747 2.260 . S
C1804 C271 2.260 . S
C1809 C917 2.260 . S
C1814 C305 2.260 . S
C1819 C339 2.260 . S
C1824 C951 2.260 . S
C1829 C373 2.261 . S
C1834 C849 2.261 . S
C1839 C407 2.261 . S
C1844 C883 2.261 . S
C1849 C441 2.261 . S
C1854 C1053 2.261 . S
C1859 C1087 2.261 . S
C1864 C475 2.261 . S
C1869 C509 2.260 . S
C1874 C985 2.260 . S
C1879 C1019 2.260 . S
C1884 C543 2.260 . S
