# Generated by pormake.
# Topology uni, (4)-cn, num edge types: 1
# Building blocks:
#     Node 0, Type 0, BuildingBlock: UXUYUI_clean_sbu_0, # of connection points: 4
#     Node 1, Type 0, BuildingBlock: UXUYUI_clean_sbu_0, # of connection points: 4
#     Node 2, Type 0, BuildingBlock: UXUYUI_clean_sbu_0, # of connection points: 4
#     Node 3, Type 0, BuildingBlock: UXUYUI_clean_sbu_0, # of connection points: 4
#     Node 4, Type 0, BuildingBlock: UXUYUI_clean_sbu_0, # of connection points: 4
#     Node 5, Type 0, BuildingBlock: UXUYUI_clean_sbu_0, # of connection points: 4
#     Edge 6, Type (0, 0), BuildingBlock: XIVTED_clean_linker_0, # of connection points: 2
#     Edge 7, Type (0, 0), BuildingBlock: XIVTED_clean_linker_0, # of connection points: 2
#     Edge 8, Type (0, 0), BuildingBlock: XIVTED_clean_linker_0, # of connection points: 2
#     Edge 9, Type (0, 0), BuildingBlock: XIVTED_clean_linker_0, # of connection points: 2
#     Edge 10, Type (0, 0), BuildingBlock: XIVTED_clean_linker_0, # of connection points: 2
#     Edge 11, Type (0, 0), BuildingBlock: XIVTED_clean_linker_0, # of connection points: 2
#     Edge 12, Type (0, 0), BuildingBlock: XIVTED_clean_linker_0, # of connection points: 2
#     Edge 13, Type (0, 0), BuildingBlock: XIVTED_clean_linker_0, # of connection points: 2
#     Edge 14, Type (0, 0), BuildingBlock: XIVTED_clean_linker_0, # of connection points: 2
#     Edge 15, Type (0, 0), BuildingBlock: XIVTED_clean_linker_0, # of connection points: 2
#     Edge 16, Type (0, 0), BuildingBlock: XIVTED_clean_linker_0, # of connection points: 2
#     Edge 17, Type (0, 0), BuildingBlock: XIVTED_clean_linker_0, # of connection points: 2
# Relax obj value: 0.104
# Max RMSD: 0.125
# Mean RMSD: 0.125
data_MOF--net-uni--node1-UXUYUI_clean_sbu_0--edge1-XIVTED_clean_linker_0
_symmetry_space_group_name_H-M    P1
_symmetry_Int_Tables_number       1
_symmetry_cell_setting            triclinic
loop_
_symmetry_equiv_pos_as_xyz
'x, y, z'
_cell_length_a     57.373028
_cell_length_b     57.373248
_cell_length_c     34.26744
_cell_angle_alpha  90.005832
_cell_angle_beta   90.010318
_cell_angle_gamma 120.00159
loop_
_atom_site_label
_atom_site_type_symbol
_atom_site_fract_x
_atom_site_fract_y
_atom_site_fract_z
_atom_type_partial_charge
Li0 Li 0.65928 0.0292 0.04104 0.0
Li1 Li 0.62047 0.01309 0.08287 0.0
Li2 Li 0.63545 0.98277 0.06007 0.0
Li3 Li 0.61469 0.99925 0.01536 0.0
C4 C 0.67823 0.01588 0.10757 0.0
N5 N 0.72505 0.01835 0.13333 0.0
C6 C 0.68485 0.01953 0.14719 0.0
C7 C 0.69541 0.01347 0.08103 0.0
C8 C 0.70862 0.02074 0.15965 0.0
C9 C 0.71899 0.01478 0.09463 0.0
C10 C 0.6374 0.06247 0.0441 0.0
C11 C 0.6409 0.10487 0.02701 0.0
N12 N 0.65509 0.11592 0.06031 0.0
C13 C 0.652 0.07422 0.07817 0.0
C14 C 0.6318 0.07788 0.01829 0.0
C15 C 0.66077 0.10129 0.08583 0.0
C16 C 0.6993 0.0644 0.98946 0.0
N17 N 0.69316 0.05959 0.02797 0.0
C18 C 0.73425 0.0991 0.04552 0.0
C19 C 0.71003 0.07633 0.05596 0.0
C20 C 0.7411 0.10476 0.00589 0.0
C21 C 0.72329 0.08696 0.97769 0.0
H22 H 0.68541 0.05078 0.96786 0.0
H23 H 0.70454 0.07222 0.0864 0.0
C24 C 0.60088 0.00613 0.15901 0.0
N25 N 0.60357 0.02001 0.12563 0.0
C26 C 0.58669 0.00819 0.19066 0.0
C27 C 0.57879 0.03928 0.15325 0.0
C28 C 0.5928 0.03631 0.12215 0.0
C29 C 0.57527 0.02487 0.18804 0.0
H30 H 0.6092 0.99288 0.16061 0.0
H31 H 0.59454 0.04661 0.095 0.0
C32 C 0.64256 0.97711 0.98094 0.0
N33 N 0.63167 0.93614 0.92884 0.0
C34 C 0.61916 0.95208 0.98493 0.0
C35 C 0.66041 0.98129 0.95046 0.0
C36 C 0.61402 0.93163 0.95829 0.0
C37 C 0.65455 0.96032 0.92442 0.0
C38 C 0.57151 0.96859 0.06514 0.0
C39 C 0.55308 0.94307 0.07936 0.0
C40 C 0.56262 0.9864 0.05462 0.0
C41 C 0.526 0.93575 0.0828 0.0
C42 C 0.53539 0.97834 0.05852 0.0
N43 N 0.51779 0.95339 0.07241 0.0
C44 C 0.62197 0.93644 0.10353 0.0
C45 C 0.65689 0.94726 0.05772 0.0
C46 C 0.62306 0.91377 0.11572 0.0
N47 N 0.63866 0.95253 0.07494 0.0
C48 C 0.65863 0.92478 0.06896 0.0
C49 C 0.64152 0.90763 0.09829 0.0
H50 H 0.60773 0.94119 0.11674 0.0
H51 H 0.67008 0.96049 0.03524 0.0
C52 C 0.60048 0.01232 0.94452 0.0
N53 N 0.59253 0.99188 0.97054 0.0
C54 C 0.5846 0.00945 0.91204 0.0
C55 C 0.5528 0.96429 0.93335 0.0
C56 C 0.56945 0.96797 0.96528 0.0
C57 C 0.56023 0.98531 0.90642 0.0
H58 H 0.619 0.03105 0.94943 0.0
H59 H 0.56371 0.95188 0.98616 0.0
O60 O 0.65495 0.0146 0.09515 0.0
O61 O 0.62881 0.03609 0.03565 0.0
O62 O 0.64818 0.99755 0.00659 0.0
O63 O 0.59811 0.976 0.06197 0.0
H64 H 0.67172 0.0214 0.16809 0.0
H65 H 0.69069 0.01069 0.05025 0.0
H66 H 0.714 0.02356 0.19024 0.0
H67 H 0.73247 0.01296 0.07441 0.0
H68 H 0.63669 0.11704 0.0073 0.0
H69 H 0.65645 0.06258 0.09854 0.0
H70 H 0.6205 0.06906 0.9918 0.0
H71 H 0.6721 0.11065 0.11207 0.0
H72 H 0.74716 0.11245 0.06822 0.0
H73 H 0.72787 0.09035 0.94686 0.0
H74 H 0.58408 0.99621 0.21643 0.0
H75 H 0.57068 0.05262 0.14987 0.0
H76 H 0.60514 0.94837 0.00839 0.0
H77 H 0.67862 0.00055 0.94701 0.0
H78 H 0.59601 0.91216 0.96106 0.0
H79 H 0.6682 0.96328 0.9007 0.0
H80 H 0.55965 0.92905 0.08765 0.0
H81 H 0.57653 0.00622 0.04348 0.0
H82 H 0.51151 0.91605 0.09376 0.0
H83 H 0.52824 0.99192 0.05049 0.0
H84 H 0.60927 0.90097 0.1381 0.0
H85 H 0.6734 0.92103 0.05511 0.0
H86 H 0.59096 0.02623 0.89218 0.0
H87 H 0.53433 0.94526 0.9298 0.0
Li88 Li 0.6396 0.65854 0.20946 0.0
Li89 Li 0.61799 0.61862 0.25236 0.0
Li90 Li 0.66377 0.63749 0.22887 0.0
Li91 Li 0.62612 0.61465 0.18242 0.0
C92 C 0.66819 0.6648 0.29233 0.0
N93 N 0.70758 0.68378 0.34933 0.0
C94 C 0.6631 0.65184 0.32845 0.0
C95 C 0.6932 0.68769 0.28547 0.0
C96 C 0.68329 0.66168 0.35683 0.0
C97 C 0.71289 0.69689 0.31456 0.0
C98 C 0.57613 0.60775 0.2013 0.0
C99 C 0.54081 0.56125 0.20263 0.0
N100 N 0.52277 0.56881 0.19169 0.0
C101 C 0.55726 0.61505 0.19 0.0
C102 C 0.56789 0.58062 0.20761 0.0
C103 C 0.53036 0.59507 0.18532 0.0
C104 C 0.62749 0.6918 0.1642 0.0
N105 N 0.64066 0.69137 0.1969 0.0
C106 C 0.65556 0.73772 0.20931 0.0
C107 C 0.65439 0.7136 0.2196 0.0
C108 C 0.64241 0.73891 0.17536 0.0
C109 C 0.62819 0.71549 0.15274 0.0
H110 H 0.61657 0.67372 0.14688 0.0
H111 H 0.66456 0.71264 0.24557 0.0
C112 C 0.59967 0.58461 0.31731 0.0
N113 N 0.59408 0.60052 0.29437 0.0
C114 C 0.58269 0.57034 0.34824 0.0
C115 C 0.55407 0.58848 0.3307 0.0
C116 C 0.57195 0.6029 0.30059 0.0
C117 C 0.55948 0.57206 0.35499 0.0
H118 H 0.61745 0.58317 0.31165 0.0
H119 H 0.56807 0.61582 0.28202 0.0
C120 C 0.67165 0.66933 0.1494 0.0
N121 N 0.69181 0.71252 0.09859 0.0
C122 C 0.66169 0.66592 0.11135 0.0
C123 C 0.69226 0.69462 0.16133 0.0
C124 C 0.67205 0.68801 0.08616 0.0
C125 C 0.70206 0.71623 0.13532 0.0
C126 C 0.6437 0.58188 0.22004 0.0
C127 C 0.66431 0.58938 0.19261 0.0
C128 C 0.6331 0.55704 0.2389 0.0
C129 C 0.67392 0.57183 0.18451 0.0
C130 C 0.64322 0.54003 0.22991 0.0
N131 N 0.66326 0.54772 0.20315 0.0
C132 C 0.69705 0.62647 0.2755 0.0
C133 C 0.72058 0.65717 0.22436 0.0
C134 C 0.72055 0.62715 0.28777 0.0
N135 N 0.69747 0.64128 0.24429 0.0
C136 C 0.74464 0.65855 0.23575 0.0
C137 C 0.74475 0.6432 0.26766 0.0
H138 H 0.67832 0.6139 0.29065 0.0
H139 H 0.72027 0.66844 0.19931 0.0
C140 C 0.59663 0.60084 0.11358 0.0
N141 N 0.60975 0.59229 0.13748 0.0
C142 C 0.58206 0.58542 0.08157 0.0
C143 C 0.59496 0.55262 0.09874 0.0
C144 C 0.60904 0.56857 0.13075 0.0
C145 C 0.58101 0.56086 0.07373 0.0
H146 H 0.59703 0.61951 0.11993 0.0
H147 H 0.61887 0.56157 0.15038 0.0
O148 O 0.64883 0.6551 0.26387 0.0
O149 O 0.60258 0.62713 0.20556 0.0
O150 O 0.66132 0.64805 0.17478 0.0
O151 O 0.63448 0.59903 0.22935 0.0
H152 H 0.64381 0.63434 0.33453 0.0
H153 H 0.69752 0.69809 0.25785 0.0
H154 H 0.67965 0.65173 0.38481 0.0
H155 H 0.73241 0.71442 0.30946 0.0
H156 H 0.53415 0.5402 0.20742 0.0
H157 H 0.56337 0.63596 0.18484 0.0
H158 H 0.5822 0.57454 0.21619 0.0
H159 H 0.51553 0.60043 0.1766 0.0
H160 H 0.66694 0.75533 0.22742 0.0
H161 H 0.61742 0.71536 0.1267 0.0
H162 H 0.58739 0.55774 0.36631 0.0
H163 H 0.53641 0.59038 0.33527 0.0
H164 H 0.64614 0.64645 0.10131 0.0
H165 H 0.70036 0.69763 0.19051 0.0
H166 H 0.66439 0.68567 0.05672 0.0
H167 H 0.71779 0.73597 0.14435 0.0
H168 H 0.67276 0.6085 0.17766 0.0
H169 H 0.6172 0.55097 0.26026 0.0
H170 H 0.68984 0.57737 0.16337 0.0
H171 H 0.63518 0.52073 0.24426 0.0
H172 H 0.71977 0.61525 0.31279 0.0
H173 H 0.76279 0.67093 0.21916 0.0
H174 H 0.57118 0.59241 0.0638 0.0
H175 H 0.59498 0.534 0.0938 0.0
Li176 Li 0.98999 0.63832 0.38095 0.0
Li177 Li 0.00661 0.61618 0.42487 0.0
Li178 Li 0.03651 0.66155 0.39975 0.0
Li179 Li 0.01952 0.62207 0.35714 0.0
C180 C 0.98666 0.65453 0.45097 0.0
N181 N 0.94751 0.6637 0.48197 0.0
C182 C 0.96695 0.63552 0.47569 0.0
C183 C 0.98657 0.67828 0.44219 0.0
C184 C 0.94732 0.64052 0.49106 0.0
C185 C 0.96656 0.68251 0.45807 0.0
C186 C 0.97087 0.58039 0.35317 0.0
C187 C 0.96476 0.53906 0.32539 0.0
N188 N 0.94911 0.54062 0.29687 0.0
C189 C 0.95469 0.58157 0.32361 0.0
C190 C 0.97588 0.55892 0.35418 0.0
C191 C 0.94386 0.56125 0.29544 0.0
C192 C 0.96149 0.66019 0.34196 0.0
N193 N 0.95941 0.64152 0.36826 0.0
C194 C 0.91229 0.62498 0.37565 0.0
C195 C 0.93547 0.62403 0.38505 0.0
C196 C 0.91369 0.64392 0.34833 0.0
C197 C 0.93878 0.66179 0.33157 0.0
H198 H 0.98067 0.67353 0.32853 0.0
H199 H 0.93438 0.60918 0.40554 0.0
C200 C 0.01259 0.60513 0.50294 0.0
N201 N 0.99891 0.59372 0.46945 0.0
C202 C 0.0102 0.58907 0.53495 0.0
C203 C 0.97822 0.55 0.49836 0.0
C204 C 0.98146 0.56682 0.46687 0.0
C205 C 0.99319 0.56106 0.53262 0.0
H206 H 0.02606 0.62666 0.50426 0.0
H207 H 0.97058 0.55833 0.44007 0.0
C208 C 0.03972 0.68031 0.32902 0.0
N209 N 0.07852 0.7283 0.29675 0.0
C210 C 0.05903 0.68072 0.30374 0.0
C211 C 0.04004 0.70428 0.33774 0.0
C212 C 0.07849 0.7052 0.28773 0.0
C213 C 0.05986 0.72834 0.3212 0.0
C214 C 0.05558 0.62295 0.42923 0.0
C215 C 0.07409 0.64143 0.4558 0.0
C216 C 0.04876 0.59592 0.43127 0.0
C217 C 0.08539 0.63253 0.48409 0.0
C218 C 0.06045 0.58781 0.46006 0.0
N219 N 0.07837 0.60612 0.48565 0.0
C220 C 0.06456 0.7107 0.44088 0.0
C221 C 0.09088 0.70329 0.39458 0.0
C222 C 0.08688 0.73501 0.45221 0.0
N223 N 0.06695 0.69546 0.41254 0.0
C224 C 0.11367 0.72758 0.40475 0.0
C225 C 0.11187 0.74369 0.43413 0.0
H226 H 0.04541 0.7038 0.45512 0.0
H227 H 0.09233 0.69045 0.37278 0.0
C228 C 0.01584 0.60626 0.27839 0.0
N229 N 0.02669 0.60599 0.31354 0.0
C230 C 0.0179 0.59194 0.2469 0.0
C231 C 0.04305 0.5781 0.28806 0.0
C232 C 0.04065 0.59283 0.31865 0.0
C233 C 0.03121 0.57718 0.25179 0.0
H234 H 0.00482 0.6169 0.27523 0.0
H235 H 0.04934 0.5932 0.34671 0.0
O236 O 0.00573 0.64977 0.43501 0.0
O237 O 0.98226 0.60047 0.38041 0.0
O238 O 0.02075 0.65662 0.34544 0.0
O239 O 0.04391 0.6312 0.40175 0.0
H240 H 0.96665 0.61698 0.48265 0.0
H241 H 0.00158 0.69312 0.4229 0.0
H242 H 0.93187 0.62594 0.51009 0.0
H243 H 0.96613 0.70071 0.45131 0.0
H244 H 0.96869 0.52248 0.32561 0.0
H245 H 0.95079 0.59813 0.32211 0.0
H246 H 0.98869 0.5579 0.37648 0.0
H247 H 0.9314 0.56196 0.2723 0.0
H248 H 0.89349 0.61102 0.38968 0.0
H249 H 0.94076 0.67641 0.30992 0.0
H250 H 0.02177 0.5984 0.56107 0.0
H251 H 0.96495 0.5285 0.49539 0.0
H252 H 0.05916 0.66239 0.29684 0.0
H253 H 0.02537 0.70434 0.3575 0.0
H254 H 0.09363 0.70584 0.26824 0.0
H255 H 0.06047 0.74706 0.3279 0.0
H256 H 0.07951 0.66238 0.45489 0.0
H257 H 0.0341 0.58122 0.41147 0.0
H258 H 0.09967 0.6466 0.50491 0.0
H259 H 0.05513 0.56691 0.46222 0.0
H260 H 0.0846 0.74691 0.47483 0.0
H261 H 0.13264 0.73332 0.39051 0.0
H262 H 0.00831 0.59159 0.21951 0.0
H263 H 0.05383 0.56734 0.29284 0.0
Li264 Li 0.40368 0.00851 0.58571 0.0
Li265 Li 0.36259 0.98901 0.54593 0.0
Li266 Li 0.40718 0.01787 0.51804 0.0
Li267 Li 0.38862 0.03892 0.55877 0.0
C268 C 0.39772 0.96335 0.5583 0.0
N269 N 0.40775 0.92565 0.59257 0.0
C270 C 0.37649 0.93951 0.57332 0.0
C271 C 0.42402 0.96794 0.56045 0.0
C272 C 0.38198 0.9207 0.59055 0.0
C273 C 0.42868 0.94867 0.578 0.0
C274 C 0.34781 0.00861 0.61251 0.0
C275 C 0.30835 0.01287 0.60439 0.0
N276 N 0.30441 0.01055 0.64366 0.0
C277 C 0.34345 0.00637 0.65277 0.0
C278 C 0.33018 0.01196 0.58807 0.0
C279 C 0.32135 0.00734 0.66797 0.0
C280 C 0.44711 0.02057 0.63517 0.0
N281 N 0.42059 0.00269 0.62958 0.0
C282 C 0.42051 0.97611 0.6834 0.0
C283 C 0.40698 0.98103 0.6534 0.0
C284 C 0.4482 0.99379 0.68894 0.0
C285 C 0.46137 0.01648 0.6647 0.0
H286 H 0.45731 0.03795 0.61649 0.0
H287 H 0.38578 0.96728 0.64856 0.0
C288 C 0.32723 0.94533 0.50143 0.0
N289 N 0.32853 0.95775 0.53577 0.0
C290 C 0.30349 0.9224 0.49008 0.0
C291 C 0.28291 0.9248 0.5503 0.0
C292 C 0.30717 0.94766 0.56059 0.0
C293 C 0.28076 0.91195 0.51442 0.0
H294 H 0.34484 0.95312 0.48302 0.0
H295 H 0.30883 0.95713 0.58845 0.0
C296 C 0.44917 0.06242 0.54422 0.0
N297 N 0.49729 0.09921 0.50986 0.0
C298 C 0.45348 0.08766 0.53274 0.0
C299 C 0.46942 0.05597 0.53845 0.0
C300 C 0.47793 0.10596 0.51539 0.0
C301 C 0.49358 0.07481 0.52095 0.0
C302 C 0.37723 0.03 0.47193 0.0
C303 C 0.38995 0.05779 0.46587 0.0
C304 C 0.36858 0.01262 0.43984 0.0
C305 C 0.39384 0.06774 0.42779 0.0
C306 C 0.37292 0.02336 0.4022 0.0
N307 N 0.38534 0.05046 0.397 0.0
C308 C 0.43035 0.9994 0.46304 0.0
C309 C 0.44124 0.04439 0.45097 0.0
C310 C 0.44655 0.00033 0.43209 0.0
N311 N 0.42832 0.02135 0.47238 0.0
C312 C 0.45744 0.0461 0.4194 0.0
C313 C 0.46053 0.02398 0.41005 0.0
H314 H 0.41955 0.98114 0.47984 0.0
H315 H 0.43953 0.06167 0.45881 0.0
C316 C 0.40173 0.08525 0.60115 0.0
N317 N 0.38575 0.06967 0.57161 0.0
C318 C 0.40087 0.10806 0.61301 0.0
C319 C 0.3667 0.09816 0.56423 0.0
C320 C 0.36823 0.07548 0.55331 0.0
C321 C 0.38327 0.11489 0.59437 0.0
H322 H 0.41518 0.07987 0.61551 0.0
H323 H 0.3555 0.06255 0.53019 0.0
O324 O 0.39283 0.98222 0.54185 0.0
O325 O 0.36969 0.0083 0.59734 0.0
O326 O 0.42537 0.04425 0.56134 0.0
O327 O 0.37333 0.01988 0.50903 0.0
H328 H 0.35603 0.93565 0.57204 0.0
H329 H 0.44068 0.98632 0.54906 0.0
H330 H 0.36577 0.90222 0.60246 0.0
H331 H 0.44895 0.95204 0.58012 0.0
H332 H 0.29452 0.01541 0.58582 0.0
H333 H 0.35703 0.00394 0.67207 0.0
H334 H 0.33325 0.0137 0.55682 0.0
H335 H 0.3177 0.0056 0.69908 0.0
H336 H 0.40957 0.95835 0.70138 0.0
H337 H 0.4825 0.03104 0.66856 0.0
H338 H 0.30312 0.91277 0.46273 0.0
H339 H 0.26597 0.9175 0.57006 0.0
H340 H 0.43807 0.09302 0.53693 0.0
H341 H 0.46638 0.03648 0.54692 0.0
H342 H 0.4815 0.12552 0.50622 0.0
H343 H 0.50933 0.07001 0.51605 0.0
H344 H 0.39722 0.07159 0.49021 0.0
H345 H 0.35875 0.9911 0.44387 0.0
H346 H 0.40379 0.08921 0.42271 0.0
H347 H 0.36641 0.01014 0.37712 0.0
H348 H 0.44806 0.98268 0.42538 0.0
H349 H 0.46801 0.06475 0.40317 0.0
H350 H 0.41364 0.12004 0.63685 0.0
H351 H 0.35297 0.10273 0.54887 0.0
Li352 Li 0.40317 0.40035 0.75293 0.0
Li353 Li 0.38098 0.36114 0.70984 0.0
Li354 Li 0.39678 0.40745 0.683 0.0
Li355 Li 0.35689 0.38416 0.72544 0.0
C356 C 0.44563 0.40428 0.70453 0.0
N357 N 0.50109 0.42869 0.70096 0.0
C358 C 0.45828 0.38904 0.70943 0.0
C359 C 0.46121 0.43187 0.69716 0.0
C360 C 0.48633 0.40176 0.70773 0.0
C361 C 0.48921 0.44386 0.69563 0.0
C362 C 0.36262 0.342 0.77986 0.0
C363 C 0.33269 0.29423 0.78695 0.0
N364 N 0.34988 0.29327 0.8134 0.0
C365 C 0.37991 0.3406 0.80729 0.0
C366 C 0.33873 0.31869 0.76977 0.0
C367 C 0.37312 0.31575 0.82387 0.0
C368 C 0.41975 0.43208 0.82022 0.0
N369 N 0.42567 0.4164 0.79728 0.0
C370 C 0.46442 0.42708 0.83605 0.0
C371 C 0.44713 0.41316 0.80509 0.0
C372 C 0.45956 0.44454 0.85887 0.0
C373 C 0.43668 0.44665 0.85103 0.0
H374 H 0.40221 0.43382 0.8139 0.0
H375 H 0.45103 0.40006 0.78707 0.0
C376 C 0.36223 0.31236 0.66801 0.0
N377 N 0.37825 0.32738 0.69795 0.0
C378 C 0.36104 0.28825 0.65753 0.0
C379 C 0.39269 0.29543 0.70912 0.0
C380 C 0.39323 0.31936 0.71859 0.0
C381 C 0.37663 0.27963 0.67794 0.0
H382 H 0.35077 0.31935 0.65175 0.0
H383 H 0.40584 0.3317 0.74223 0.0
C384 C 0.39742 0.44861 0.73323 0.0
N385 N 0.41717 0.50338 0.73996 0.0
C386 C 0.38017 0.45909 0.72913 0.0
C387 C 0.42469 0.46604 0.74113 0.0
C388 C 0.39055 0.48682 0.73251 0.0
C389 C 0.43429 0.49364 0.74436 0.0
C390 C 0.33954 0.36732 0.65337 0.0
C391 C 0.33957 0.3852 0.62565 0.0
C392 C 0.31566 0.34346 0.66153 0.0
C393 C 0.31555 0.37902 0.60681 0.0
C394 C 0.29206 0.33804 0.64212 0.0
N395 N 0.29249 0.35579 0.6154 0.0
C396 C 0.42056 0.41903 0.60948 0.0
C397 C 0.41807 0.45576 0.63652 0.0
C398 C 0.43447 0.43447 0.57703 0.0
N399 N 0.41299 0.42995 0.6386 0.0
C400 C 0.43236 0.47205 0.60498 0.0
C401 C 0.44094 0.46147 0.57497 0.0
H402 H 0.41626 0.39846 0.61194 0.0
H403 H 0.41155 0.46399 0.65946 0.0
C404 C 0.30869 0.36554 0.76825 0.0
N405 N 0.32271 0.38056 0.73695 0.0
C406 C 0.28428 0.36367 0.77875 0.0
C407 C 0.28906 0.39255 0.72436 0.0
C408 C 0.31337 0.39388 0.71497 0.0
C409 C 0.27428 0.37751 0.75689 0.0
H410 H 0.31672 0.35544 0.78557 0.0
H411 H 0.32498 0.40585 0.69041 0.0
O412 O 0.41814 0.39206 0.70602 0.0
O413 O 0.3691 0.36606 0.76291 0.0
O414 O 0.38752 0.42146 0.72998 0.0
O415 O 0.36279 0.37313 0.67233 0.0
H416 H 0.4466 0.36763 0.71467 0.0
H417 H 0.45187 0.44391 0.69229 0.0
H418 H 0.49637 0.39022 0.71174 0.0
H419 H 0.50148 0.46521 0.69004 0.0
H420 H 0.31436 0.27599 0.77922 0.0
H421 H 0.39844 0.35847 0.81547 0.0
H422 H 0.32512 0.31947 0.74864 0.0
H423 H 0.38637 0.31433 0.84499 0.0
H424 H 0.48182 0.42487 0.84133 0.0
H425 H 0.43201 0.45956 0.86843 0.0
H426 H 0.34866 0.2769 0.63299 0.0
H427 H 0.40475 0.2894 0.72599 0.0
H428 H 0.35901 0.446 0.72333 0.0
H429 H 0.43831 0.45839 0.74517 0.0
H430 H 0.37742 0.49517 0.72924 0.0
H431 H 0.45534 0.5073 0.75046 0.0
H432 H 0.35788 0.40374 0.61896 0.0
H433 H 0.31533 0.3294 0.68287 0.0
H434 H 0.31523 0.39272 0.58542 0.0
H435 H 0.27339 0.31974 0.64832 0.0
H436 H 0.44091 0.42569 0.55449 0.0
H437 H 0.43677 0.49274 0.60411 0.0
H438 H 0.27378 0.35216 0.80437 0.0
H439 H 0.28199 0.40327 0.70637 0.0
Li440 Li 0.01142 0.40308 0.92395 0.0
Li441 Li 0.03106 0.38345 0.88006 0.0
Li442 Li 0.00011 0.39662 0.85576 0.0
Li443 Li 0.98402 0.35819 0.89684 0.0
C444 C 0.04308 0.44509 0.86557 0.0
N445 N 0.05573 0.49466 0.83513 0.0
C446 C 0.06369 0.45761 0.83807 0.0
C447 C 0.02896 0.45784 0.87768 0.0
C448 C 0.06976 0.48265 0.823 0.0
C449 C 0.03566 0.48288 0.86195 0.0
C450 C 0.0343 0.37649 0.96089 0.0
C451 C 0.04922 0.36526 0.02011 0.0
N452 N 0.07321 0.38854 0.01717 0.0
C453 C 0.05911 0.40032 0.95846 0.0
C454 C 0.02928 0.35883 0.99195 0.0
C455 C 0.07851 0.40603 0.98719 0.0
C456 C 0.99694 0.41715 0.99462 0.0
N457 N 0.0172 0.42521 0.96823 0.0
C458 C 0.04424 0.46584 0.00379 0.0
C459 C 0.04069 0.44885 0.97242 0.0
C460 C 0.0235 0.45828 0.03124 0.0
C461 C 0.9997 0.43342 0.02661 0.0
H462 H 0.97848 0.39823 0.99043 0.0
H463 H 0.05654 0.45468 0.95109 0.0
C464 C 0.07462 0.39392 0.83271 0.0
N465 N 0.06214 0.38129 0.86629 0.0
C466 C 0.0975 0.3935 0.81995 0.0
C467 C 0.09375 0.3662 0.87591 0.0
C468 C 0.07093 0.36719 0.88762 0.0
C469 C 0.10749 0.37966 0.84179 0.0
H470 H 0.06658 0.40412 0.81561 0.0
H471 H 0.06023 0.35662 0.91363 0.0
C472 C 0.94912 0.37778 0.88906 0.0
N473 N 0.89621 0.35756 0.86652 0.0
C474 C 0.93994 0.36393 0.85373 0.0
C475 C 0.93139 0.38133 0.91292 0.0
C476 C 0.91312 0.35387 0.84286 0.0
C477 C 0.90472 0.37097 0.901 0.0
C478 C 0.00028 0.34008 0.833 0.0
C479 C 0.99646 0.33225 0.79384 0.0
C480 C 0.0042 0.32444 0.86067 0.0
C481 C 0.9966 0.30885 0.78297 0.0
C482 C 0.00421 0.30119 0.84862 0.0
N483 N 0.00044 0.29394 0.81035 0.0
C484 C 0.00709 0.41421 0.77839 0.0
C485 C 0.97893 0.4254 0.8149 0.0
C486 C 0.00609 0.42872 0.74638 0.0
N487 N 0.99386 0.41308 0.81184 0.0
C488 C 0.97716 0.43991 0.78345 0.0
C489 C 0.9912 0.44203 0.74885 0.0
H490 H 0.0191 0.4045 0.77709 0.0
H491 H 0.96919 0.4248 0.84218 0.0
C492 C 0.94831 0.31694 0.94667 0.0
N493 N 0.95418 0.32363 0.90847 0.0
C494 C 0.9258 0.29249 0.95708 0.0
C495 C 0.91594 0.28221 0.88858 0.0
C496 C 0.93864 0.30684 0.87951 0.0
C497 C 0.90914 0.27481 0.92783 0.0
H498 H 0.9609 0.33085 0.96906 0.0
H499 H 0.94363 0.3127 0.84933 0.0
O500 O 0.03618 0.42015 0.87972 0.0
O501 O 0.0148 0.37042 0.93336 0.0
O502 O 0.9752 0.38759 0.90069 0.0
O503 O 0.00035 0.36308 0.84379 0.0
H504 H 0.07486 0.44811 0.82837 0.0
H505 H 0.01263 0.44825 0.89843 0.0
H506 H 0.08561 0.49253 0.80161 0.0
H507 H 0.02477 0.49287 0.87087 0.0
H508 H 0.04561 0.35176 0.0443 0.0
H509 H 0.06346 0.41421 0.9346 0.0
H510 H 0.01017 0.34032 0.99426 0.0
H511 H 0.0978 0.42438 0.98564 0.0
H512 H 0.06302 0.48468 0.00657 0.0
H513 H 0.98313 0.42695 0.04691 0.0
H514 H 0.10703 0.40359 0.79297 0.0
H515 H 0.10075 0.35531 0.89367 0.0
H516 H 0.95333 0.36094 0.83488 0.0
H517 H 0.93819 0.39196 0.94039 0.0
H518 H 0.90575 0.3431 0.81563 0.0
H519 H 0.89077 0.37357 0.91919 0.0
H520 H 0.99345 0.34418 0.77208 0.0
H521 H 0.00718 0.3301 0.8911 0.0
H522 H 0.99367 0.30255 0.75275 0.0
H523 H 0.00723 0.28892 0.86971 0.0
H524 H 0.01708 0.42975 0.72012 0.0
H525 H 0.96581 0.45023 0.78672 0.0
H526 H 0.92114 0.28782 0.98769 0.0
H527 H 0.90387 0.2691 0.86507 0.0
H528 H 0.53022 0.03023 0.18415 0.0
H529 H 0.49822 0.00822 0.41134 0.0
H530 H 0.58307 0.02309 0.26708 0.0
H531 H 0.46375 0.04323 0.33588 0.0
H532 H 0.52702 0.00973 0.35759 0.0
H533 H 0.50348 0.03188 0.23826 0.0
C534 C 0.53646 0.0293 0.21365 0.0
C535 C 0.55909 0.02654 0.22084 0.0
C536 C 0.51325 0.0172 0.35284 0.0
C537 C 0.52796 0.02771 0.283 0.0
C538 C 0.49671 0.01618 0.38338 0.0
C539 C 0.47854 0.02553 0.37793 0.0
C540 C 0.51136 0.0273 0.31639 0.0
C541 C 0.4776 0.03596 0.34131 0.0
C542 C 0.52102 0.03008 0.24455 0.0
C543 C 0.5656 0.02476 0.25988 0.0
N544 N 0.49364 0.03638 0.31178 0.0
N545 N 0.55004 0.02522 0.28942 0.0
H546 H 0.50516 0.53781 0.35133 0.0
H547 H 0.48644 0.51052 0.58021 0.0
H548 H 0.57203 0.57139 0.43157 0.0
H549 H 0.43338 0.45179 0.49645 0.0
H550 H 0.5149 0.53848 0.52648 0.0
H551 H 0.47524 0.51123 0.40504 0.0
C552 C 0.51344 0.53969 0.38034 0.0
C553 C 0.54102 0.55667 0.3872 0.0
C554 C 0.49698 0.5195 0.51991 0.0
C555 C 0.5071 0.52674 0.4484 0.0
C556 C 0.4807 0.50367 0.55044 0.0
C557 C 0.45761 0.47887 0.5426 0.0
C558 C 0.48985 0.51068 0.48127 0.0
C559 C 0.45114 0.47074 0.5036 0.0
C560 C 0.49645 0.52447 0.4108 0.0
C561 C 0.55088 0.55834 0.42515 0.0
N562 N 0.46713 0.48669 0.47428 0.0
N563 N 0.53389 0.54366 0.45443 0.0
H564 H 0.03435 0.47839 0.70615 0.0
H565 H 0.94866 0.51805 0.56483 0.0
H566 H 0.94855 0.44474 0.71775 0.0
H567 H 0.03524 0.56371 0.57361 0.0
H568 H 0.94775 0.4885 0.61723 0.0
H569 H 0.03461 0.5072 0.65346 0.0
C570 C 0.01552 0.47692 0.69735 0.0
C571 C 0.99137 0.45909 0.71624 0.0
C572 C 0.96692 0.50506 0.60776 0.0
C573 C 0.99154 0.49217 0.65617 0.0
C574 C 0.96745 0.52183 0.5778 0.0
C575 C 0.99205 0.54341 0.56502 0.0
C576 C 0.99119 0.50972 0.62469 0.0
C577 C 0.01581 0.54752 0.58295 0.0
C578 C 0.01571 0.49352 0.6675 0.0
C579 C 0.96763 0.45834 0.70411 0.0
N580 N 0.0148 0.53078 0.61174 0.0
N581 N 0.96829 0.47459 0.67473 0.0
H582 H 0.50549 0.9639 0.9072 0.0
H583 H 0.49882 0.00062 0.68363 0.0
H584 H 0.57428 0.00069 0.83047 0.0
H585 H 0.43256 0.9755 0.76397 0.0
H586 H 0.52515 0.99558 0.73535 0.0
H587 H 0.47689 0.96257 0.85321 0.0
C588 C 0.51452 0.9714 0.87886 0.0
C589 C 0.54234 0.98257 0.87335 0.0
C590 C 0.50482 0.99109 0.74169 0.0
C591 C 0.5098 0.9813 0.81161 0.0
C592 C 0.48981 0.99408 0.7122 0.0
C593 C 0.46354 0.98884 0.71958 0.0
C594 C 0.49356 0.98272 0.77897 0.0
C595 C 0.45269 0.97971 0.75692 0.0
C596 C 0.49821 0.9708 0.84815 0.0
C597 C 0.55301 0.99226 0.83615 0.0
N598 N 0.46781 0.97711 0.7853 0.0
N599 N 0.53674 0.99147 0.80676 0.0
H600 H 0.5736 0.57695 0.00142 0.0
H601 H 0.48176 0.42863 0.91654 0.0
H602 H 0.5514 0.50551 0.06964 0.0
H603 H 0.48079 0.49832 0.8714 0.0
H604 H 0.51284 0.45686 0.96811 0.0
H605 H 0.54494 0.5486 0.9486 0.0
C606 C 0.56268 0.55534 0.00546 0.0
C607 C 0.56484 0.54372 0.04038 0.0
C608 C 0.50579 0.46592 0.94687 0.0
C609 C 0.53238 0.51109 0.97942 0.0
C610 C 0.4882 0.44989 0.91743 0.0
C611 C 0.47861 0.46118 0.88991 0.0
C612 C 0.51414 0.49347 0.94832 0.0
C613 C 0.48746 0.48878 0.89238 0.0
C614 C 0.54641 0.53917 0.97514 0.0
C615 C 0.55069 0.51547 0.04323 0.0
N616 N 0.5048 0.504 0.92099 0.0
N617 N 0.53506 0.50013 0.01319 0.0
H618 H 0.04378 0.51277 0.02883 0.0
H619 H 0.0222 0.52576 0.25688 0.0
H620 H 0.00957 0.44524 0.10798 0.0
H621 H 0.04108 0.58937 0.17394 0.0
H622 H 0.02178 0.49717 0.2037 0.0
H623 H 0.0472 0.54229 0.08271 0.0
C624 C 0.03719 0.50419 0.05763 0.0
C625 C 0.02635 0.47649 0.06393 0.0
C626 C 0.02607 0.51739 0.19712 0.0
C627 C 0.03005 0.51013 0.12566 0.0
C628 C 0.02651 0.5338 0.22749 0.0
C629 C 0.03174 0.56001 0.21982 0.0
C630 C 0.03105 0.52729 0.15874 0.0
C631 C 0.03674 0.56921 0.18109 0.0
C632 C 0.03898 0.52102 0.0883 0.0
C633 C 0.01778 0.46642 0.10174 0.0
N634 N 0.03632 0.55289 0.152 0.0
N635 N 0.01985 0.48323 0.13117 0.0
H636 H 0.64845 0.76013 0.10186 0.0
H637 H 0.63795 0.88775 0.17227 0.0
H638 H 0.6386 0.77568 0.22222 0.0
H639 H 0.64775 0.87212 0.05192 0.0
H640 H 0.63882 0.84715 0.19126 0.0
H641 H 0.64892 0.80144 0.08313 0.0
C642 C 0.64627 0.77217 0.12435 0.0
C643 C 0.64338 0.76433 0.16369 0.0
C644 C 0.64084 0.85262 0.1607 0.0
C645 C 0.64415 0.81187 0.14244 0.0
C646 C 0.64019 0.87574 0.1498 0.0
C647 C 0.64271 0.88336 0.1104 0.0
C648 C 0.64396 0.8369 0.13201 0.0
C649 C 0.64603 0.86722 0.08267 0.0
C650 C 0.6467 0.79585 0.11365 0.0
C651 C 0.64115 0.78103 0.19161 0.0
N652 N 0.64648 0.84474 0.09399 0.0
N653 N 0.6415 0.80394 0.18044 0.0
H654 H 0.90814 0.68799 0.33311 0.0
H655 H 0.7502 0.60022 0.28893 0.0
H656 H 0.86292 0.60115 0.33654 0.0
H657 H 0.79615 0.68631 0.27298 0.0
H658 H 0.79118 0.60058 0.30893 0.0
H659 H 0.86733 0.68817 0.31295 0.0
C660 C 0.88969 0.66896 0.32949 0.0
C661 C 0.88902 0.64451 0.33663 0.0
C662 C 0.79236 0.61942 0.30105 0.0
C663 C 0.84214 0.64461 0.31394 0.0
C664 C 0.76891 0.61925 0.28985 0.0
C665 C 0.76971 0.64329 0.27942 0.0
C666 C 0.81688 0.64384 0.302 0.0
C667 C 0.79465 0.66728 0.28048 0.0
C668 C 0.86636 0.66909 0.31814 0.0
C669 C 0.86438 0.6205 0.33201 0.0
N670 N 0.81723 0.66696 0.29169 0.0
N671 N 0.84198 0.62118 0.32099 0.0
H672 H 0.12807 0.76216 0.50855 0.0
H673 H 0.25853 0.89853 0.44115 0.0
H674 H 0.15081 0.78283 0.38804 0.0
H675 H 0.24439 0.87005 0.56022 0.0
H676 H 0.21723 0.85806 0.42162 0.0
H677 H 0.16847 0.80361 0.52847 0.0
C678 C 0.14147 0.77553 0.48627 0.0
C679 C 0.13606 0.76903 0.44656 0.0
C680 C 0.22316 0.86067 0.45203 0.0
C681 C 0.18243 0.81643 0.46916 0.0
C682 C 0.24685 0.88373 0.46322 0.0
C683 C 0.25515 0.88773 0.50242 0.0
C684 C 0.20746 0.84142 0.48022 0.0
C685 C 0.23873 0.86806 0.52976 0.0
C686 C 0.16462 0.79909 0.49767 0.0
C687 C 0.15434 0.78692 0.41897 0.0
N688 N 0.21571 0.84578 0.51813 0.0
N689 N 0.17667 0.80981 0.43078 0.0
H690 H 0.33401 0.23104 0.65483 0.0
H691 H 0.42549 0.16433 0.61447 0.0
H692 H 0.4199 0.27179 0.67344 0.0
H693 H 0.33906 0.12136 0.60146 0.0
H694 H 0.42368 0.20403 0.63528 0.0
H695 H 0.33533 0.19092 0.63394 0.0
C696 C 0.35315 0.23159 0.65443 0.0
C697 C 0.37687 0.25484 0.66599 0.0
C698 C 0.40508 0.18593 0.6279 0.0
C699 C 0.37851 0.20893 0.6423 0.0
C700 C 0.40608 0.16317 0.61619 0.0
C701 C 0.38237 0.13936 0.60632 0.0
C702 C 0.38019 0.18503 0.62976 0.0
C703 C 0.35789 0.13932 0.60837 0.0
C704 C 0.35387 0.20863 0.64268 0.0
C705 C 0.40104 0.25424 0.66534 0.0
N706 N 0.35743 0.16177 0.61991 0.0
N707 N 0.40123 0.23171 0.65364 0.0
H708 H 0.15378 0.42129 0.81133 0.0
H709 H 0.22735 0.33483 0.78475 0.0
H710 H 0.1174 0.33747 0.84313 0.0
H711 H 0.26385 0.41922 0.75636 0.0
H712 H 0.18669 0.33506 0.80555 0.0
H713 H 0.1939 0.42049 0.78985 0.0
C714 C 0.15415 0.40265 0.8136 0.0
C715 C 0.13211 0.37939 0.829 0.0
C716 C 0.20359 0.35351 0.7947 0.0
C717 C 0.17824 0.3784 0.80476 0.0
C718 C 0.22687 0.35342 0.78297 0.0
C719 C 0.2491 0.37704 0.76872 0.0
C720 C 0.2025 0.37738 0.79223 0.0
C721 C 0.24711 0.40043 0.76658 0.0
C722 C 0.17716 0.40225 0.80151 0.0
C723 C 0.134 0.35596 0.83185 0.0
N724 N 0.22428 0.40001 0.77825 0.0
N725 N 0.15663 0.35605 0.81979 0.0
H726 H 0.85954 0.25181 0.89279 0.0
H727 H 0.79108 0.1266 0.03975 0.0
H728 H 0.90234 0.23939 0.98667 0.0
H729 H 0.7488 0.139 0.94511 0.0
H730 H 0.83214 0.16758 0.02051 0.0
H731 H 0.81905 0.21003 0.9108 0.0
C732 C 0.86051 0.2402 0.917 0.0
C733 C 0.88446 0.24917 0.9382 0.0
C734 C 0.8139 0.16131 0.0039 0.0
C735 C 0.83793 0.20136 0.95935 0.0
C736 C 0.79039 0.13798 0.015 0.0
C737 C 0.7664 0.12931 0.99405 0.0
C738 C 0.81345 0.1762 0.97164 0.0
C739 C 0.76687 0.14468 0.96184 0.0
C740 C 0.8373 0.2164 0.92744 0.0
C741 C 0.88429 0.23346 0.96977 0.0
N742 N 0.78997 0.16737 0.95171 0.0
N743 N 0.86141 0.21036 0.97938 0.0
loop_
_geom_bond_atom_site_label_1
_geom_bond_atom_site_label_2
_geom_bond_distance
_geom_bond_site_symmetry_2
_ccdc_geom_bond_type
Li0 N17 1.990 . S
Li0 O60 1.956 . S
Li0 O61 1.970 . S
Li0 O62 1.961 . S
Li1 N25 1.990 . S
Li1 O60 1.970 . S
Li1 O61 1.956 . S
Li1 O63 1.961 1_545 S
Li2 N47 1.990 . S
Li2 O60 1.961 1_565 S
Li2 O62 1.956 1_565 S
Li2 O63 1.970 . S
Li3 N53 1.990 1_554 S
Li3 O61 1.961 . S
Li3 O62 1.970 . S
Li3 O63 1.956 1_545 S
C4 C6 1.348 . S
C4 C7 1.356 . S
C4 O60 1.325 . S
N5 C8 1.314 . S
N5 C9 1.279 . S
C6 C4 1.348 . S
C6 C8 1.353 . S
C6 H64 0.929 . S
C7 C4 1.356 . S
C7 C9 1.358 . S
C7 H65 0.930 . S
C8 N5 1.314 . S
C8 C6 1.353 . S
C8 H66 0.930 . S
C9 N5 1.279 . S
C9 C7 1.358 . S
C9 H67 0.930 . S
C10 C13 1.348 . S
C10 C14 1.356 . S
C10 O61 1.325 . S
C11 N12 1.279 . S
C11 C14 1.358 . S
C11 H68 0.930 . S
N12 C11 1.279 . S
N12 C15 1.314 . S
C13 C10 1.348 . S
C13 C15 1.353 . S
C13 H69 0.929 . S
C14 C10 1.356 . S
C14 C11 1.358 . S
C14 H70 0.930 . S
C15 N12 1.314 . S
C15 C13 1.353 . S
C15 H71 0.930 . S
C16 N17 1.314 . S
C16 C21 1.349 1_554 S
C16 H22 0.930 1_554 S
N17 Li0 1.990 . S
N17 C16 1.314 . S
N17 C19 1.279 . S
C18 C19 1.358 . S
C18 C20 1.356 . S
C18 H72 0.930 . S
C19 N17 1.279 . S
C19 C18 1.358 . S
C19 H23 0.930 . S
C20 C18 1.356 . S
C20 C21 1.332 1_554 S
C21 C16 1.349 1_556 S
C21 C20 1.332 1_556 S
C21 H73 0.949 . S
H22 C16 0.930 1_556 S
H23 C19 0.930 . S
C24 N25 1.340 . S
C24 C26 1.368 . S
C24 H30 0.884 1_545 S
N25 Li1 1.990 . S
N25 C24 1.340 . S
N25 C28 1.279 . S
C26 C24 1.368 . S
C26 C29 1.348 . S
C26 H74 0.929 1_545 S
C27 C28 1.358 . S
C27 C29 1.356 . S
C27 H75 0.930 . S
C28 N25 1.279 . S
C28 C27 1.358 . S
C28 H31 0.930 . S
C29 C26 1.348 . S
C29 C27 1.356 . S
H30 C24 0.884 1_565 S
H31 C28 0.930 . S
C32 C34 1.348 1_545 S
C32 C35 1.356 . S
C32 O62 1.325 1_556 S
N33 C36 1.314 . S
N33 C37 1.279 1_565 S
C34 C32 1.348 1_565 S
C34 C36 1.353 . S
C34 H76 0.929 . S
C35 C32 1.356 . S
C35 C37 1.358 . S
C35 H77 0.930 1_556 S
C36 N33 1.314 . S
C36 C34 1.353 . S
C36 H78 0.930 . S
C37 N33 1.279 1_545 S
C37 C35 1.358 . S
C37 H79 0.930 . S
C38 C39 1.348 . S
C38 C40 1.356 . S
C38 O63 1.325 . S
C39 C38 1.348 . S
C39 C41 1.353 . S
C39 H80 0.929 . S
C40 C38 1.356 . S
C40 C42 1.358 . S
C40 H81 0.930 . S
C41 C39 1.353 . S
C41 N43 1.314 . S
C41 H82 0.930 . S
C42 C40 1.358 . S
C42 N43 1.279 . S
C42 H83 0.930 . S
N43 C41 1.314 . S
N43 C42 1.279 . S
C44 C46 1.353 . S
C44 N47 1.314 . S
C44 H50 0.930 . S
C45 N47 1.279 . S
C45 C48 1.358 . S
C45 H51 0.930 . S
C46 C44 1.353 . S
C46 C49 1.348 . S
C46 H84 0.929 . S
N47 Li2 1.990 . S
N47 C44 1.314 . S
N47 C45 1.279 . S
C48 C45 1.358 . S
C48 C49 1.356 . S
C48 H85 0.930 . S
C49 C46 1.348 . S
C49 C48 1.356 . S
H50 C44 0.930 . S
H51 C45 0.930 . S
C52 N53 1.313 . S
C52 C54 1.353 . S
C52 H58 0.930 . S
N53 Li3 1.990 1_556 S
N53 C52 1.313 . S
N53 C56 1.280 1_545 S
C54 C52 1.353 . S
C54 C57 1.348 1_545 S
C54 H86 0.929 . S
C55 C56 1.358 . S
C55 C57 1.356 . S
C55 H87 0.930 . S
C56 N53 1.280 1_565 S
C56 C55 1.358 . S
C56 H59 0.930 . S
C57 C54 1.348 1_565 S
C57 C55 1.356 . S
H58 C52 0.930 . S
H59 C56 0.930 . S
O60 Li0 1.956 . S
O60 Li1 1.970 . S
O60 Li2 1.961 1_545 S
O60 C4 1.325 . S
O61 Li0 1.970 . S
O61 Li1 1.956 . S
O61 Li3 1.961 . S
O61 C10 1.325 . S
O62 Li0 1.961 . S
O62 Li2 1.956 1_545 S
O62 Li3 1.970 . S
O62 C32 1.325 1_554 S
O63 Li1 1.961 1_565 S
O63 Li2 1.970 . S
O63 Li3 1.956 1_565 S
O63 C38 1.325 . S
H64 C6 0.929 . S
H65 C7 0.930 . S
H66 C8 0.930 . S
H67 C9 0.930 . S
H68 C11 0.930 . S
H69 C13 0.929 . S
H70 C14 0.930 . S
H71 C15 0.930 . S
H72 C18 0.930 . S
H73 C21 0.949 . S
H74 C26 0.929 1_565 S
H75 C27 0.930 . S
H76 C34 0.929 . S
H77 C35 0.930 1_554 S
H78 C36 0.930 . S
H79 C37 0.930 . S
H80 C39 0.929 . S
H81 C40 0.930 . S
H82 C41 0.930 . S
H83 C42 0.930 . S
H84 C46 0.929 . S
H85 C48 0.930 . S
H86 C54 0.929 . S
H87 C55 0.930 . S
Li88 N105 1.990 . S
Li88 O148 1.956 . S
Li88 O149 1.970 . S
Li88 O150 1.961 . S
Li89 N113 1.990 . S
Li89 O148 1.970 . S
Li89 O149 1.956 . S
Li89 O151 1.961 . S
Li90 N135 1.990 . S
Li90 O148 1.961 . S
Li90 O150 1.956 . S
Li90 O151 1.970 . S
Li91 N141 1.990 . S
Li91 O149 1.961 . S
Li91 O150 1.970 . S
Li91 O151 1.956 . S
C92 C94 1.348 . S
C92 C95 1.356 . S
C92 O148 1.325 . S
N93 C96 1.314 . S
N93 C97 1.279 . S
C94 C92 1.348 . S
C94 C96 1.353 . S
C94 H152 0.929 . S
C95 C92 1.356 . S
C95 C97 1.358 . S
C95 H153 0.930 . S
C96 N93 1.314 . S
C96 C94 1.353 . S
C96 H154 0.930 . S
C97 N93 1.279 . S
C97 C95 1.358 . S
C97 H155 0.930 . S
C98 C101 1.348 . S
C98 C102 1.356 . S
C98 O149 1.325 . S
C99 N100 1.279 . S
C99 C102 1.358 . S
C99 H156 0.930 . S
N100 C99 1.279 . S
N100 C103 1.314 . S
C101 C98 1.348 . S
C101 C103 1.353 . S
C101 H157 0.929 . S
C102 C98 1.356 . S
C102 C99 1.358 . S
C102 H158 0.930 . S
C103 N100 1.314 . S
C103 C101 1.353 . S
C103 H159 0.930 . S
C104 N105 1.314 . S
C104 C109 1.353 . S
C104 H110 0.930 . S
N105 Li88 1.990 . S
N105 C104 1.314 . S
N105 C107 1.279 . S
C106 C107 1.358 . S
C106 C108 1.356 . S
C106 H160 0.930 . S
C107 N105 1.279 . S
C107 C106 1.358 . S
C107 H111 0.930 . S
C108 C106 1.356 . S
C108 C109 1.348 . S
C109 C104 1.353 . S
C109 C108 1.348 . S
C109 H161 0.929 . S
H110 C104 0.930 . S
H111 C107 0.930 . S
C112 N113 1.314 . S
C112 C114 1.353 . S
C112 H118 0.930 . S
N113 Li89 1.990 . S
N113 C112 1.314 . S
N113 C116 1.279 . S
C114 C112 1.353 . S
C114 C117 1.348 . S
C114 H162 0.929 . S
C115 C116 1.358 . S
C115 C117 1.356 . S
C115 H163 0.930 . S
C116 N113 1.279 . S
C116 C115 1.358 . S
C116 H119 0.930 . S
C117 C114 1.348 . S
C117 C115 1.356 . S
H118 C112 0.930 . S
H119 C116 0.930 . S
C120 C122 1.348 . S
C120 C123 1.356 . S
C120 O150 1.325 . S
N121 C124 1.314 . S
N121 C125 1.279 . S
C122 C120 1.348 . S
C122 C124 1.353 . S
C122 H164 0.929 . S
C123 C120 1.356 . S
C123 C125 1.358 . S
C123 H165 0.930 . S
C124 N121 1.314 . S
C124 C122 1.353 . S
C124 H166 0.930 . S
C125 N121 1.279 . S
C125 C123 1.358 . S
C125 H167 0.930 . S
C126 C127 1.348 . S
C126 C128 1.356 . S
C126 O151 1.325 . S
C127 C126 1.348 . S
C127 C129 1.353 . S
C127 H168 0.929 . S
C128 C126 1.356 . S
C128 C130 1.358 . S
C128 H169 0.930 . S
C129 C127 1.353 . S
C129 N131 1.314 . S
C129 H170 0.930 . S
C130 C128 1.358 . S
C130 N131 1.279 . S
C130 H171 0.930 . S
N131 C129 1.314 . S
N131 C130 1.279 . S
C132 C134 1.353 . S
C132 N135 1.314 . S
C132 H138 0.930 . S
C133 N135 1.279 . S
C133 C136 1.358 . S
C133 H139 0.930 . S
C134 C132 1.353 . S
C134 C137 1.348 . S
C134 H172 0.929 . S
N135 Li90 1.990 . S
N135 C132 1.314 . S
N135 C133 1.279 . S
C136 C133 1.358 . S
C136 C137 1.356 . S
C136 H173 0.930 . S
C137 C134 1.348 . S
C137 C136 1.356 . S
H138 C132 0.930 . S
H139 C133 0.930 . S
C140 N141 1.314 . S
C140 C142 1.353 . S
C140 H146 0.930 . S
N141 Li91 1.990 . S
N141 C140 1.314 . S
N141 C144 1.279 . S
C142 C140 1.353 . S
C142 C145 1.348 . S
C142 H174 0.929 . S
C143 C144 1.358 . S
C143 C145 1.356 . S
C143 H175 0.930 . S
C144 N141 1.279 . S
C144 C143 1.358 . S
C144 H147 0.930 . S
C145 C142 1.348 . S
C145 C143 1.356 . S
H146 C140 0.930 . S
H147 C144 0.930 . S
O148 Li88 1.956 . S
O148 Li89 1.970 . S
O148 Li90 1.961 . S
O148 C92 1.325 . S
O149 Li88 1.970 . S
O149 Li89 1.956 . S
O149 Li91 1.961 . S
O149 C98 1.325 . S
O150 Li88 1.961 . S
O150 Li90 1.956 . S
O150 Li91 1.970 . S
O150 C120 1.325 . S
O151 Li89 1.961 . S
O151 Li90 1.970 . S
O151 Li91 1.956 . S
O151 C126 1.325 . S
H152 C94 0.929 . S
H153 C95 0.930 . S
H154 C96 0.930 . S
H155 C97 0.930 . S
H156 C99 0.930 . S
H157 C101 0.929 . S
H158 C102 0.930 . S
H159 C103 0.930 . S
H160 C106 0.930 . S
H161 C109 0.929 . S
H162 C114 0.929 . S
H163 C115 0.930 . S
H164 C122 0.929 . S
H165 C123 0.930 . S
H166 C124 0.930 . S
H167 C125 0.930 . S
H168 C127 0.929 . S
H169 C128 0.930 . S
H170 C129 0.930 . S
H171 C130 0.930 . S
H172 C134 0.929 . S
H173 C136 0.930 . S
H174 C142 0.929 . S
H175 C143 0.930 . S
Li176 N193 1.990 . S
Li176 O236 1.956 1_655 S
Li176 O237 1.970 . S
Li176 O238 1.961 1_655 S
Li177 N201 1.990 . S
Li177 O236 1.970 . S
Li177 O237 1.956 1_455 S
Li177 O239 1.961 . S
Li178 N223 1.990 . S
Li178 O236 1.961 . S
Li178 O238 1.956 . S
Li178 O239 1.970 . S
Li179 N229 1.990 . S
Li179 O237 1.961 1_455 S
Li179 O238 1.970 . S
Li179 O239 1.956 . S
C180 C182 1.348 1_455 S
C180 C183 1.356 . S
C180 O236 1.325 . S
N181 C184 1.314 . S
N181 C185 1.279 1_655 S
C182 C180 1.348 1_655 S
C182 C184 1.353 . S
C182 H240 0.929 . S
C183 C180 1.356 . S
C183 C185 1.358 . S
C183 H241 0.930 . S
C184 N181 1.314 . S
C184 C182 1.353 . S
C184 H242 0.930 . S
C185 N181 1.279 1_455 S
C185 C183 1.358 . S
C185 H243 0.930 . S
C186 C189 1.348 . S
C186 C190 1.356 . S
C186 O237 1.325 . S
C187 N188 1.279 . S
C187 C190 1.358 . S
C187 H244 0.930 . S
N188 C187 1.279 . S
N188 C191 1.314 . S
C189 C186 1.348 . S
C189 C191 1.353 . S
C189 H245 0.929 . S
C190 C186 1.356 . S
C190 C187 1.358 . S
C190 H246 0.930 . S
C191 N188 1.314 . S
C191 C189 1.353 . S
C191 H247 0.930 . S
C192 N193 1.314 . S
C192 C197 1.353 . S
C192 H198 0.930 . S
N193 Li176 1.990 . S
N193 C192 1.314 . S
N193 C195 1.279 . S
C194 C195 1.358 . S
C194 C196 1.356 . S
C194 H248 0.930 . S
C195 N193 1.279 . S
C195 C194 1.358 . S
C195 H199 0.930 . S
C196 C194 1.356 . S
C196 C197 1.348 . S
C197 C192 1.353 . S
C197 C196 1.348 . S
C197 H249 0.929 . S
H198 C192 0.930 . S
H199 C195 0.930 . S
C200 N201 1.314 . S
C200 C202 1.353 . S
C200 H206 0.930 . S
N201 Li177 1.990 . S
N201 C200 1.314 . S
N201 C204 1.279 1_455 S
C202 C200 1.353 . S
C202 C205 1.348 1_455 S
C202 H250 0.929 . S
C203 C204 1.358 . S
C203 C205 1.356 . S
C203 H251 0.930 . S
C204 N201 1.279 1_655 S
C204 C203 1.358 . S
C204 H207 0.930 . S
C205 C202 1.348 1_655 S
C205 C203 1.356 . S
H206 C200 0.930 . S
H207 C204 0.930 . S
C208 C210 1.348 . S
C208 C211 1.356 . S
C208 O238 1.325 . S
N209 C212 1.314 . S
N209 C213 1.279 . S
C210 C208 1.348 . S
C210 C212 1.353 . S
C210 H252 0.929 . S
C211 C208 1.356 . S
C211 C213 1.358 . S
C211 H253 0.930 . S
C212 N209 1.314 . S
C212 C210 1.353 . S
C212 H254 0.930 . S
C213 N209 1.279 . S
C213 C211 1.358 . S
C213 H255 0.930 . S
C214 C215 1.348 . S
C214 C216 1.356 . S
C214 O239 1.325 . S
C215 C214 1.348 . S
C215 C217 1.353 . S
C215 H256 0.929 . S
C216 C214 1.356 . S
C216 C218 1.358 . S
C216 H257 0.930 . S
C217 C215 1.353 . S
C217 N219 1.314 . S
C217 H258 0.930 . S
C218 C216 1.358 . S
C218 N219 1.279 . S
C218 H259 0.930 . S
N219 C217 1.314 . S
N219 C218 1.279 . S
C220 C222 1.353 . S
C220 N223 1.314 . S
C220 H226 0.930 . S
C221 N223 1.279 . S
C221 C224 1.358 . S
C221 H227 0.930 . S
C222 C220 1.353 . S
C222 C225 1.348 . S
C222 H260 0.929 . S
N223 Li178 1.990 . S
N223 C220 1.314 . S
N223 C221 1.279 . S
C224 C221 1.358 . S
C224 C225 1.356 . S
C224 H261 0.930 . S
C225 C222 1.348 . S
C225 C224 1.356 . S
H226 C220 0.930 . S
H227 C221 0.930 . S
C228 N229 1.314 . S
C228 C230 1.353 . S
C228 H234 0.930 1_455 S
N229 Li179 1.990 . S
N229 C228 1.314 . S
N229 C232 1.279 . S
C230 C228 1.353 . S
C230 C233 1.348 . S
C230 H262 0.929 1_455 S
C231 C232 1.358 . S
C231 C233 1.356 . S
C231 H263 0.930 . S
C232 N229 1.279 . S
C232 C231 1.358 . S
C232 H235 0.930 . S
C233 C230 1.348 . S
C233 C231 1.356 . S
H234 C228 0.930 1_655 S
H235 C232 0.930 . S
O236 Li176 1.956 1_455 S
O236 Li177 1.970 . S
O236 Li178 1.961 . S
O236 C180 1.325 . S
O237 Li176 1.970 . S
O237 Li177 1.956 1_655 S
O237 Li179 1.961 1_655 S
O237 C186 1.325 . S
O238 Li176 1.961 1_455 S
O238 Li178 1.956 . S
O238 Li179 1.970 . S
O238 C208 1.325 . S
O239 Li177 1.961 . S
O239 Li178 1.970 . S
O239 Li179 1.956 . S
O239 C214 1.325 . S
H240 C182 0.929 . S
H241 C183 0.930 . S
H242 C184 0.930 . S
H243 C185 0.930 . S
H244 C187 0.930 . S
H245 C189 0.929 . S
H246 C190 0.930 . S
H247 C191 0.930 . S
H248 C194 0.930 . S
H249 C197 0.929 . S
H250 C202 0.929 . S
H251 C203 0.930 . S
H252 C210 0.929 . S
H253 C211 0.930 . S
H254 C212 0.930 . S
H255 C213 0.930 . S
H256 C215 0.929 . S
H257 C216 0.930 . S
H258 C217 0.930 . S
H259 C218 0.930 . S
H260 C222 0.929 . S
H261 C224 0.930 . S
H262 C230 0.929 1_655 S
H263 C231 0.930 . S
Li264 N281 1.990 . S
Li264 O324 1.956 1_545 S
Li264 O325 1.970 . S
Li264 O326 1.961 . S
Li265 N289 1.990 . S
Li265 O324 1.970 . S
Li265 O325 1.956 1_565 S
Li265 O327 1.961 1_565 S
Li266 N311 1.990 . S
Li266 O324 1.961 1_545 S
Li266 O326 1.956 . S
Li266 O327 1.970 . S
Li267 N317 1.990 . S
Li267 O325 1.961 . S
Li267 O326 1.970 . S
Li267 O327 1.956 . S
C268 C270 1.348 . S
C268 C271 1.356 . S
C268 O324 1.325 . S
N269 C272 1.314 . S
N269 C273 1.279 . S
C270 C268 1.348 . S
C270 C272 1.353 . S
C270 H328 0.929 . S
C271 C268 1.356 . S
C271 C273 1.358 . S
C271 H329 0.930 . S
C272 N269 1.314 . S
C272 C270 1.353 . S
C272 H330 0.930 . S
C273 N269 1.279 . S
C273 C271 1.358 . S
C273 H331 0.930 . S
C274 C277 1.348 1_545 S
C274 C278 1.356 . S
C274 O325 1.325 . S
C275 N276 1.279 1_545 S
C275 C278 1.358 . S
C275 H332 0.930 . S
N276 C275 1.279 1_565 S
N276 C279 1.314 . S
C277 C274 1.348 1_565 S
C277 C279 1.353 . S
C277 H333 0.929 . S
C278 C274 1.356 . S
C278 C275 1.358 . S
C278 H334 0.930 . S
C279 N276 1.314 . S
C279 C277 1.353 . S
C279 H335 0.930 . S
C280 N281 1.314 . S
C280 C285 1.353 . S
C280 H286 0.930 . S
N281 Li264 1.990 . S
N281 C280 1.314 . S
N281 C283 1.281 1_545 S
C282 C283 1.358 . S
C282 C284 1.356 . S
C282 H336 0.930 . S
C283 N281 1.281 1_565 S
C283 C282 1.358 . S
C283 H287 0.930 . S
C284 C282 1.356 . S
C284 C285 1.348 1_565 S
C285 C280 1.353 . S
C285 C284 1.348 1_545 S
C285 H337 0.929 . S
H286 C280 0.930 . S
H287 C283 0.930 . S
C288 N289 1.314 . S
C288 C290 1.353 . S
C288 H294 0.930 . S
N289 Li265 1.990 . S
N289 C288 1.314 . S
N289 C292 1.279 . S
C290 C288 1.353 . S
C290 C293 1.348 . S
C290 H338 0.929 . S
C291 C292 1.358 . S
C291 C293 1.356 . S
C291 H339 0.930 . S
C292 N289 1.279 . S
C292 C291 1.358 . S
C292 H295 0.930 . S
C293 C290 1.348 . S
C293 C291 1.356 . S
H294 C288 0.930 . S
H295 C292 0.930 . S
C296 C298 1.348 . S
C296 C299 1.356 . S
C296 O326 1.325 . S
N297 C300 1.314 . S
N297 C301 1.279 . S
C298 C296 1.348 . S
C298 C300 1.353 . S
C298 H340 0.929 . S
C299 C296 1.356 . S
C299 C301 1.358 . S
C299 H341 0.930 . S
C300 N297 1.314 . S
C300 C298 1.353 . S
C300 H342 0.930 . S
C301 N297 1.279 . S
C301 C299 1.358 . S
C301 H343 0.930 . S
C302 C303 1.348 . S
C302 C304 1.356 . S
C302 O327 1.325 . S
C303 C302 1.348 . S
C303 C305 1.353 . S
C303 H344 0.929 . S
C304 C302 1.356 . S
C304 C306 1.358 . S
C304 H345 0.930 . S
C305 C303 1.353 . S
C305 N307 1.314 . S
C305 H346 0.930 . S
C306 C304 1.358 . S
C306 N307 1.279 . S
C306 H347 0.930 . S
N307 C305 1.314 . S
N307 C306 1.279 . S
C308 C310 1.344 . S
C308 N311 1.346 . S
C308 H314 0.906 1_545 S
C309 N311 1.279 . S
C309 C312 1.358 . S
C309 H315 0.930 . S
C310 C308 1.344 . S
C310 C313 1.348 . S
C310 H348 0.929 1_545 S
N311 Li266 1.990 . S
N311 C308 1.346 . S
N311 C309 1.279 . S
C312 C309 1.358 . S
C312 C313 1.356 . S
C312 H349 0.930 . S
C313 C310 1.348 . S
C313 C312 1.356 . S
H314 C308 0.906 1_565 S
H315 C309 0.930 . S
C316 N317 1.314 . S
C316 C318 1.353 . S
C316 H322 0.930 . S
N317 Li267 1.990 . S
N317 C316 1.314 . S
N317 C320 1.279 . S
C318 C316 1.353 . S
C318 C321 1.348 . S
C318 H350 0.929 . S
C319 C320 1.358 . S
C319 C321 1.356 . S
C319 H351 0.930 . S
C320 N317 1.279 . S
C320 C319 1.358 . S
C320 H323 0.930 . S
C321 C318 1.348 . S
C321 C319 1.356 . S
H322 C316 0.930 . S
H323 C320 0.930 . S
O324 Li264 1.956 1_565 S
O324 Li265 1.970 . S
O324 Li266 1.961 1_565 S
O324 C268 1.325 . S
O325 Li264 1.970 . S
O325 Li265 1.956 1_545 S
O325 Li267 1.961 . S
O325 C274 1.325 . S
O326 Li264 1.961 . S
O326 Li266 1.956 . S
O326 Li267 1.970 . S
O326 C296 1.325 . S
O327 Li265 1.961 1_545 S
O327 Li266 1.970 . S
O327 Li267 1.956 . S
O327 C302 1.325 . S
H328 C270 0.929 . S
H329 C271 0.930 . S
H330 C272 0.930 . S
H331 C273 0.930 . S
H332 C275 0.930 . S
H333 C277 0.929 . S
H334 C278 0.930 . S
H335 C279 0.930 . S
H336 C282 0.930 . S
H337 C285 0.929 . S
H338 C290 0.929 . S
H339 C291 0.930 . S
H340 C298 0.929 . S
H341 C299 0.930 . S
H342 C300 0.930 . S
H343 C301 0.930 . S
H344 C303 0.929 . S
H345 C304 0.930 . S
H346 C305 0.930 . S
H347 C306 0.930 . S
H348 C310 0.929 1_565 S
H349 C312 0.930 . S
H350 C318 0.929 . S
H351 C319 0.930 . S
Li352 N369 1.990 . S
Li352 O412 1.956 . S
Li352 O413 1.970 . S
Li352 O414 1.961 . S
Li353 N377 1.990 . S
Li353 O412 1.970 . S
Li353 O413 1.956 . S
Li353 O415 1.961 . S
Li354 N399 1.990 . S
Li354 O412 1.961 . S
Li354 O414 1.956 . S
Li354 O415 1.970 . S
Li355 N405 1.990 . S
Li355 O413 1.961 . S
Li355 O414 1.970 . S
Li355 O415 1.956 . S
C356 C358 1.348 . S
C356 C359 1.356 . S
C356 O412 1.325 . S
N357 C360 1.314 . S
N357 C361 1.279 . S
C358 C356 1.348 . S
C358 C360 1.353 . S
C358 H416 0.929 . S
C359 C356 1.356 . S
C359 C361 1.358 . S
C359 H417 0.930 . S
C360 N357 1.314 . S
C360 C358 1.353 . S
C360 H418 0.930 . S
C361 N357 1.279 . S
C361 C359 1.358 . S
C361 H419 0.930 . S
C362 C365 1.348 . S
C362 C366 1.356 . S
C362 O413 1.325 . S
C363 N364 1.279 . S
C363 C366 1.358 . S
C363 H420 0.930 . S
N364 C363 1.279 . S
N364 C367 1.314 . S
C365 C362 1.348 . S
C365 C367 1.353 . S
C365 H421 0.929 . S
C366 C362 1.356 . S
C366 C363 1.358 . S
C366 H422 0.930 . S
C367 N364 1.314 . S
C367 C365 1.353 . S
C367 H423 0.930 . S
C368 N369 1.314 . S
C368 C373 1.353 . S
C368 H374 0.930 . S
N369 Li352 1.990 . S
N369 C368 1.314 . S
N369 C371 1.279 . S
C370 C371 1.358 . S
C370 C372 1.356 . S
C370 H424 0.930 . S
C371 N369 1.279 . S
C371 C370 1.358 . S
C371 H375 0.930 . S
C372 C370 1.356 . S
C372 C373 1.348 . S
C373 C368 1.353 . S
C373 C372 1.348 . S
C373 H425 0.929 . S
H374 C368 0.930 . S
H375 C371 0.930 . S
C376 N377 1.314 . S
C376 C378 1.353 . S
C376 H382 0.930 . S
N377 Li353 1.990 . S
N377 C376 1.314 . S
N377 C380 1.279 . S
C378 C376 1.353 . S
C378 C381 1.348 . S
C378 H426 0.929 . S
C379 C380 1.358 . S
C379 C381 1.356 . S
C379 H427 0.930 . S
C380 N377 1.279 . S
C380 C379 1.358 . S
C380 H383 0.930 . S
C381 C378 1.348 . S
C381 C379 1.356 . S
H382 C376 0.930 . S
H383 C380 0.930 . S
C384 C386 1.348 . S
C384 C387 1.356 . S
C384 O414 1.325 . S
N385 C388 1.314 . S
N385 C389 1.279 . S
C386 C384 1.348 . S
C386 C388 1.353 . S
C386 H428 0.929 . S
C387 C384 1.356 . S
C387 C389 1.358 . S
C387 H429 0.930 . S
C388 N385 1.314 . S
C388 C386 1.353 . S
C388 H430 0.930 . S
C389 N385 1.279 . S
C389 C387 1.358 . S
C389 H431 0.930 . S
C390 C391 1.348 . S
C390 C392 1.356 . S
C390 O415 1.325 . S
C391 C390 1.348 . S
C391 C393 1.353 . S
C391 H432 0.929 . S
C392 C390 1.356 . S
C392 C394 1.358 . S
C392 H433 0.930 . S
C393 C391 1.353 . S
C393 N395 1.314 . S
C393 H434 0.930 . S
C394 C392 1.358 . S
C394 N395 1.279 . S
C394 H435 0.930 . S
N395 C393 1.314 . S
N395 C394 1.279 . S
C396 C398 1.353 . S
C396 N399 1.314 . S
C396 H402 0.930 . S
C397 N399 1.279 . S
C397 C400 1.358 . S
C397 H403 0.930 . S
C398 C396 1.353 . S
C398 C401 1.348 . S
C398 H436 0.929 . S
N399 Li354 1.990 . S
N399 C396 1.314 . S
N399 C397 1.279 . S
C400 C397 1.358 . S
C400 C401 1.356 . S
C400 H437 0.930 . S
C401 C398 1.348 . S
C401 C400 1.356 . S
H402 C396 0.930 . S
H403 C397 0.930 . S
C404 N405 1.314 . S
C404 C406 1.353 . S
C404 H410 0.930 . S
N405 Li355 1.990 . S
N405 C404 1.314 . S
N405 C408 1.279 . S
C406 C404 1.353 . S
C406 C409 1.348 . S
C406 H438 0.929 . S
C407 C408 1.358 . S
C407 C409 1.356 . S
C407 H439 0.930 . S
C408 N405 1.279 . S
C408 C407 1.358 . S
C408 H411 0.930 . S
C409 C406 1.348 . S
C409 C407 1.356 . S
H410 C404 0.930 . S
H411 C408 0.930 . S
O412 Li352 1.956 . S
O412 Li353 1.970 . S
O412 Li354 1.961 . S
O412 C356 1.325 . S
O413 Li352 1.970 . S
O413 Li353 1.956 . S
O413 Li355 1.961 . S
O413 C362 1.325 . S
O414 Li352 1.961 . S
O414 Li354 1.956 . S
O414 Li355 1.970 . S
O414 C384 1.325 . S
O415 Li353 1.961 . S
O415 Li354 1.970 . S
O415 Li355 1.956 . S
O415 C390 1.325 . S
H416 C358 0.929 . S
H417 C359 0.930 . S
H418 C360 0.930 . S
H419 C361 0.930 . S
H420 C363 0.930 . S
H421 C365 0.929 . S
H422 C366 0.930 . S
H423 C367 0.930 . S
H424 C370 0.930 . S
H425 C373 0.929 . S
H426 C378 0.929 . S
H427 C379 0.930 . S
H428 C386 0.929 . S
H429 C387 0.930 . S
H430 C388 0.930 . S
H431 C389 0.930 . S
H432 C391 0.929 . S
H433 C392 0.930 . S
H434 C393 0.930 . S
H435 C394 0.930 . S
H436 C398 0.929 . S
H437 C400 0.930 . S
H438 C406 0.929 . S
H439 C407 0.930 . S
Li440 N457 1.990 . S
Li440 O500 1.956 . S
Li440 O501 1.970 . S
Li440 O502 1.961 1_455 S
Li441 N465 1.990 . S
Li441 O500 1.970 . S
Li441 O501 1.956 . S
Li441 O503 1.961 . S
Li442 N487 1.990 . S
Li442 O500 1.961 . S
Li442 O502 1.956 1_455 S
Li442 O503 1.970 . S
Li443 N493 1.990 . S
Li443 O501 1.961 1_655 S
Li443 O502 1.970 . S
Li443 O503 1.956 1_655 S
C444 C446 1.348 . S
C444 C447 1.356 . S
C444 O500 1.325 . S
N445 C448 1.314 . S
N445 C449 1.279 . S
C446 C444 1.348 . S
C446 C448 1.353 . S
C446 H504 0.929 . S
C447 C444 1.356 . S
C447 C449 1.358 . S
C447 H505 0.930 . S
C448 N445 1.314 . S
C448 C446 1.353 . S
C448 H506 0.930 . S
C449 N445 1.279 . S
C449 C447 1.358 . S
C449 H507 0.930 . S
C450 C453 1.348 . S
C450 C454 1.356 . S
C450 O501 1.325 . S
C451 N452 1.279 1_556 S
C451 C454 1.358 . S
C451 H508 0.930 . S
N452 C451 1.279 1_554 S
N452 C455 1.314 . S
C453 C450 1.348 . S
C453 C455 1.353 1_556 S
C453 H509 0.929 . S
C454 C450 1.356 . S
C454 C451 1.358 . S
C454 H510 0.930 . S
C455 N452 1.314 . S
C455 C453 1.353 1_554 S
C455 H511 0.930 . S
C456 N457 1.314 . S
C456 C461 1.353 1_556 S
C456 H462 0.930 1_455 S
N457 Li440 1.990 . S
N457 C456 1.314 . S
N457 C459 1.279 . S
C458 C459 1.358 1_554 S
C458 C460 1.356 . S
C458 H512 0.930 . S
C459 N457 1.279 . S
C459 C458 1.358 1_556 S
C459 H463 0.930 . S
C460 C458 1.356 . S
C460 C461 1.348 . S
C461 C456 1.353 1_554 S
C461 C460 1.348 . S
C461 H513 0.929 1_455 S
H462 C456 0.930 1_655 S
H463 C459 0.930 . S
C464 N465 1.314 . S
C464 C466 1.353 . S
C464 H470 0.930 . S
N465 Li441 1.990 . S
N465 C464 1.314 . S
N465 C468 1.279 . S
C466 C464 1.353 . S
C466 C469 1.348 . S
C466 H514 0.929 . S
C467 C468 1.358 . S
C467 C469 1.356 . S
C467 H515 0.930 . S
C468 N465 1.279 . S
C468 C467 1.358 . S
C468 H471 0.930 . S
C469 C466 1.348 . S
C469 C467 1.356 . S
H470 C464 0.930 . S
H471 C468 0.930 . S
C472 C474 1.348 . S
C472 C475 1.356 . S
C472 O502 1.325 . S
N473 C476 1.314 . S
N473 C477 1.279 . S
C474 C472 1.348 . S
C474 C476 1.353 . S
C474 H516 0.929 . S
C475 C472 1.356 . S
C475 C477 1.358 . S
C475 H517 0.930 . S
C476 N473 1.314 . S
C476 C474 1.353 . S
C476 H518 0.930 . S
C477 N473 1.279 . S
C477 C475 1.358 . S
C477 H519 0.930 . S
C478 C479 1.348 1_455 S
C478 C480 1.356 . S
C478 O503 1.325 . S
C479 C478 1.348 1_655 S
C479 C481 1.353 . S
C479 H520 0.929 . S
C480 C478 1.356 . S
C480 C482 1.358 . S
C480 H521 0.930 . S
C481 C479 1.353 . S
C481 N483 1.314 . S
C481 H522 0.930 . S
C482 C480 1.358 . S
C482 N483 1.279 1_455 S
C482 H523 0.930 . S
N483 C481 1.314 . S
N483 C482 1.279 1_655 S
C484 C486 1.353 . S
C484 N487 1.314 . S
C484 H490 0.930 . S
C485 N487 1.279 1_655 S
C485 C488 1.358 . S
C485 H491 0.930 . S
C486 C484 1.353 . S
C486 C489 1.348 1_455 S
C486 H524 0.929 . S
N487 Li442 1.990 . S
N487 C484 1.314 . S
N487 C485 1.279 1_455 S
C488 C485 1.358 . S
C488 C489 1.356 . S
C488 H525 0.930 . S
C489 C486 1.348 1_655 S
C489 C488 1.356 . S
H490 C484 0.930 . S
H491 C485 0.930 . S
C492 N493 1.314 . S
C492 C494 1.353 . S
C492 H498 0.930 . S
N493 Li443 1.990 . S
N493 C492 1.314 . S
N493 C496 1.279 . S
C494 C492 1.353 . S
C494 C497 1.348 . S
C494 H526 0.929 . S
C495 C496 1.358 . S
C495 C497 1.356 . S
C495 H527 0.930 . S
C496 N493 1.279 . S
C496 C495 1.358 . S
C496 H499 0.930 . S
C497 C494 1.348 . S
C497 C495 1.356 . S
H498 C492 0.930 . S
H499 C496 0.930 . S
O500 Li440 1.956 . S
O500 Li441 1.970 . S
O500 Li442 1.961 . S
O500 C444 1.325 . S
O501 Li440 1.970 . S
O501 Li441 1.956 . S
O501 Li443 1.961 1_455 S
O501 C450 1.325 . S
O502 Li440 1.961 1_655 S
O502 Li442 1.956 1_655 S
O502 Li443 1.970 . S
O502 C472 1.325 . S
O503 Li441 1.961 . S
O503 Li442 1.970 . S
O503 Li443 1.956 1_455 S
O503 C478 1.325 . S
H504 C446 0.929 . S
H505 C447 0.930 . S
H506 C448 0.930 . S
H507 C449 0.930 . S
H508 C451 0.930 . S
H509 C453 0.929 . S
H510 C454 0.930 . S
H511 C455 0.930 . S
H512 C458 0.930 . S
H513 C461 0.929 1_655 S
H514 C466 0.929 . S
H515 C467 0.930 . S
H516 C474 0.929 . S
H517 C475 0.930 . S
H518 C476 0.930 . S
H519 C477 0.930 . S
H520 C479 0.929 . S
H521 C480 0.930 . S
H522 C481 0.930 . S
H523 C482 0.930 . S
H524 C486 0.929 . S
H525 C488 0.930 . S
H526 C494 0.929 . S
H527 C495 0.930 . S
H528 C534 0.930 . S
H529 C538 0.930 1_565 S
H530 C543 0.929 1_565 S
H531 C541 0.929 . S
H532 C536 0.929 1_565 S
H533 C542 0.929 . S
C534 H528 0.930 . S
C534 C535 1.367 . S
C534 C542 1.378 . S
C535 C534 1.367 . S
C535 C543 1.433 . S
C536 H532 0.929 1_545 S
C536 C538 1.378 . S
C536 C540 1.350 . S
C537 C540 1.463 . S
C537 C542 1.350 . S
C537 N545 1.427 . S
C538 H529 0.930 1_545 S
C538 C536 1.378 . S
C538 C539 1.367 . S
C539 C538 1.367 . S
C539 C541 1.433 . S
C540 C536 1.350 . S
C540 C537 1.463 . S
C540 N544 1.427 . S
C541 H531 0.929 . S
C541 C539 1.433 . S
C541 N544 1.384 . S
C542 H533 0.929 . S
C542 C534 1.378 . S
C542 C537 1.350 . S
C543 H530 0.929 1_545 S
C543 C535 1.433 . S
C543 N545 1.384 . S
N544 C540 1.427 . S
N544 C541 1.384 . S
N545 C537 1.427 . S
N545 C543 1.384 . S
H546 C552 0.930 . S
H547 C556 0.930 . S
H548 C561 0.929 . S
H549 C559 0.929 . S
H550 C554 0.929 . S
H551 C560 0.929 . S
C552 H546 0.930 . S
C552 C553 1.367 . S
C552 C560 1.378 . S
C553 C552 1.367 . S
C553 C561 1.433 . S
C554 H550 0.929 . S
C554 C556 1.378 . S
C554 C558 1.350 . S
C555 C558 1.463 . S
C555 C560 1.350 . S
C555 N563 1.427 . S
C556 H547 0.930 . S
C556 C554 1.378 . S
C556 C557 1.367 . S
C557 C556 1.367 . S
C557 C559 1.433 . S
C558 C554 1.350 . S
C558 C555 1.463 . S
C558 N562 1.427 . S
C559 H549 0.929 . S
C559 C557 1.433 . S
C559 N562 1.384 . S
C560 H551 0.929 . S
C560 C552 1.378 . S
C560 C555 1.350 . S
C561 H548 0.929 . S
C561 C553 1.433 . S
C561 N563 1.384 . S
N562 C558 1.427 . S
N562 C559 1.384 . S
N563 C555 1.427 . S
N563 C561 1.384 . S
H564 C570 0.930 . S
H565 C574 0.930 . S
H566 C579 0.929 . S
H567 C577 0.929 . S
H568 C572 0.929 . S
H569 C578 0.929 . S
C570 H564 0.930 . S
C570 C571 1.367 1_455 S
C570 C578 1.378 . S
C571 C570 1.367 1_655 S
C571 C579 1.433 . S
C572 H568 0.929 . S
C572 C574 1.378 . S
C572 C576 1.350 . S
C573 C576 1.463 . S
C573 C578 1.350 1_655 S
C573 N581 1.427 . S
C574 H565 0.930 . S
C574 C572 1.378 . S
C574 C575 1.367 . S
C575 C574 1.367 . S
C575 C577 1.433 1_655 S
C576 C572 1.350 . S
C576 C573 1.463 . S
C576 N580 1.427 1_655 S
C577 H567 0.929 . S
C577 C575 1.433 1_455 S
C577 N580 1.384 . S
C578 H569 0.929 . S
C578 C570 1.378 . S
C578 C573 1.350 1_455 S
C579 H566 0.929 . S
C579 C571 1.433 . S
C579 N581 1.384 . S
N580 C576 1.427 1_455 S
N580 C577 1.384 . S
N581 C573 1.427 . S
N581 C579 1.384 . S
H582 C588 0.930 . S
H583 C592 0.930 . S
H584 C597 0.929 . S
H585 C595 0.929 . S
H586 C590 0.929 . S
H587 C596 0.929 . S
C588 H582 0.930 . S
C588 C589 1.367 . S
C588 C596 1.378 . S
C589 C588 1.367 . S
C589 C597 1.433 1_565 S
C590 H586 0.929 . S
C590 C592 1.378 . S
C590 C594 1.350 1_545 S
C591 C594 1.463 . S
C591 C596 1.350 . S
C591 N599 1.427 1_565 S
C592 H583 0.930 . S
C592 C590 1.378 . S
C592 C593 1.367 1_545 S
C593 C592 1.367 1_565 S
C593 C595 1.433 . S
C594 C590 1.350 1_565 S
C594 C591 1.463 . S
C594 N598 1.427 . S
C595 H585 0.929 . S
C595 C593 1.433 . S
C595 N598 1.384 . S
C596 H587 0.929 . S
C596 C588 1.378 . S
C596 C591 1.350 . S
C597 H584 0.929 . S
C597 C589 1.433 1_545 S
C597 N599 1.384 . S
N598 C594 1.427 . S
N598 C595 1.384 . S
N599 C591 1.427 1_545 S
N599 C597 1.384 . S
H600 C606 0.930 1_556 S
H601 C610 0.930 . S
H602 C615 0.929 . S
H603 C613 0.929 . S
H604 C608 0.929 . S
H605 C614 0.929 . S
C606 H600 0.930 1_554 S
C606 C607 1.367 . S
C606 C614 1.378 1_554 S
C607 C606 1.367 . S
C607 C615 1.433 . S
C608 H604 0.929 . S
C608 C610 1.378 . S
C608 C612 1.350 . S
C609 C612 1.463 . S
C609 C614 1.350 . S
C609 N617 1.427 1_556 S
C610 H601 0.930 . S
C610 C608 1.378 . S
C610 C611 1.367 . S
C611 C610 1.367 . S
C611 C613 1.433 . S
C612 C608 1.350 . S
C612 C609 1.463 . S
C612 N616 1.427 . S
C613 H603 0.929 . S
C613 C611 1.433 . S
C613 N616 1.384 . S
C614 H605 0.929 . S
C614 C606 1.378 1_556 S
C614 C609 1.350 . S
C615 H602 0.929 . S
C615 C607 1.433 . S
C615 N617 1.384 . S
N616 C612 1.427 . S
N616 C613 1.384 . S
N617 C609 1.427 1_554 S
N617 C615 1.384 . S
H618 C624 0.930 . S
H619 C628 0.930 . S
H620 C633 0.929 . S
H621 C631 0.929 . S
H622 C626 0.929 . S
H623 C632 0.929 . S
C624 H618 0.930 . S
C624 C625 1.367 . S
C624 C632 1.378 . S
C625 C624 1.367 . S
C625 C633 1.433 . S
C626 H622 0.929 . S
C626 C628 1.378 . S
C626 C630 1.350 . S
C627 C630 1.463 . S
C627 C632 1.350 . S
C627 N635 1.427 . S
C628 H619 0.930 . S
C628 C626 1.378 . S
C628 C629 1.367 . S
C629 C628 1.367 . S
C629 C631 1.433 . S
C630 C626 1.350 . S
C630 C627 1.463 . S
C630 N634 1.427 . S
C631 H621 0.929 . S
C631 C629 1.433 . S
C631 N634 1.384 . S
C632 H623 0.929 . S
C632 C624 1.378 . S
C632 C627 1.350 . S
C633 H620 0.929 . S
C633 C625 1.433 . S
C633 N635 1.384 . S
N634 C630 1.427 . S
N634 C631 1.384 . S
N635 C627 1.427 . S
N635 C633 1.384 . S
H636 C642 0.930 . S
H637 C646 0.930 . S
H638 C651 0.929 . S
H639 C649 0.929 . S
H640 C644 0.929 . S
H641 C650 0.929 . S
C642 H636 0.930 . S
C642 C643 1.367 . S
C642 C650 1.378 . S
C643 C642 1.367 . S
C643 C651 1.433 . S
C644 H640 0.929 . S
C644 C646 1.378 . S
C644 C648 1.350 . S
C645 C648 1.463 . S
C645 C650 1.350 . S
C645 N653 1.427 . S
C646 H637 0.930 . S
C646 C644 1.378 . S
C646 C647 1.367 . S
C647 C646 1.367 . S
C647 C649 1.433 . S
C648 C644 1.350 . S
C648 C645 1.463 . S
C648 N652 1.427 . S
C649 H639 0.929 . S
C649 C647 1.433 . S
C649 N652 1.384 . S
C650 H641 0.929 . S
C650 C642 1.378 . S
C650 C645 1.350 . S
C651 H638 0.929 . S
C651 C643 1.433 . S
C651 N653 1.384 . S
N652 C648 1.427 . S
N652 C649 1.384 . S
N653 C645 1.427 . S
N653 C651 1.384 . S
H654 C660 0.930 . S
H655 C664 0.930 . S
H656 C669 0.929 . S
H657 C667 0.929 . S
H658 C662 0.929 . S
H659 C668 0.929 . S
C660 H654 0.930 . S
C660 C661 1.367 . S
C660 C668 1.378 . S
C661 C660 1.367 . S
C661 C669 1.433 . S
C662 H658 0.929 . S
C662 C664 1.378 . S
C662 C666 1.350 . S
C663 C666 1.463 . S
C663 C668 1.350 . S
C663 N671 1.427 . S
C664 H655 0.930 . S
C664 C662 1.378 . S
C664 C665 1.367 . S
C665 C664 1.367 . S
C665 C667 1.433 . S
C666 C662 1.350 . S
C666 C663 1.463 . S
C666 N670 1.427 . S
C667 H657 0.929 . S
C667 C665 1.433 . S
C667 N670 1.384 . S
C668 H659 0.929 . S
C668 C660 1.378 . S
C668 C663 1.350 . S
C669 H656 0.929 . S
C669 C661 1.433 . S
C669 N671 1.384 . S
N670 C666 1.427 . S
N670 C667 1.384 . S
N671 C663 1.427 . S
N671 C669 1.384 . S
H672 C678 0.930 . S
H673 C682 0.930 . S
H674 C687 0.929 . S
H675 C685 0.929 . S
H676 C680 0.929 . S
H677 C686 0.929 . S
C678 H672 0.930 . S
C678 C679 1.367 . S
C678 C686 1.378 . S
C679 C678 1.367 . S
C679 C687 1.433 . S
C680 H676 0.929 . S
C680 C682 1.378 . S
C680 C684 1.350 . S
C681 C684 1.463 . S
C681 C686 1.350 . S
C681 N689 1.427 . S
C682 H673 0.930 . S
C682 C680 1.378 . S
C682 C683 1.367 . S
C683 C682 1.367 . S
C683 C685 1.433 . S
C684 C680 1.350 . S
C684 C681 1.463 . S
C684 N688 1.427 . S
C685 H675 0.929 . S
C685 C683 1.433 . S
C685 N688 1.384 . S
C686 H677 0.929 . S
C686 C678 1.378 . S
C686 C681 1.350 . S
C687 H674 0.929 . S
C687 C679 1.433 . S
C687 N689 1.384 . S
N688 C684 1.427 . S
N688 C685 1.384 . S
N689 C681 1.427 . S
N689 C687 1.384 . S
H690 C696 0.930 . S
H691 C700 0.930 . S
H692 C705 0.929 . S
H693 C703 0.929 . S
H694 C698 0.929 . S
H695 C704 0.929 . S
C696 H690 0.930 . S
C696 C697 1.367 . S
C696 C704 1.378 . S
C697 C696 1.367 . S
C697 C705 1.433 . S
C698 H694 0.929 . S
C698 C700 1.378 . S
C698 C702 1.350 . S
C699 C702 1.463 . S
C699 C704 1.350 . S
C699 N707 1.427 . S
C700 H691 0.930 . S
C700 C698 1.378 . S
C700 C701 1.367 . S
C701 C700 1.367 . S
C701 C703 1.433 . S
C702 C698 1.350 . S
C702 C699 1.463 . S
C702 N706 1.427 . S
C703 H693 0.929 . S
C703 C701 1.433 . S
C703 N706 1.384 . S
C704 H695 0.929 . S
C704 C696 1.378 . S
C704 C699 1.350 . S
C705 H692 0.929 . S
C705 C697 1.433 . S
C705 N707 1.384 . S
N706 C702 1.427 . S
N706 C703 1.384 . S
N707 C699 1.427 . S
N707 C705 1.384 . S
H708 C714 0.930 . S
H709 C718 0.930 . S
H710 C723 0.929 . S
H711 C721 0.929 . S
H712 C716 0.929 . S
H713 C722 0.929 . S
C714 H708 0.930 . S
C714 C715 1.367 . S
C714 C722 1.378 . S
C715 C714 1.367 . S
C715 C723 1.433 . S
C716 H712 0.929 . S
C716 C718 1.378 . S
C716 C720 1.350 . S
C717 C720 1.463 . S
C717 C722 1.350 . S
C717 N725 1.427 . S
C718 H709 0.930 . S
C718 C716 1.378 . S
C718 C719 1.367 . S
C719 C718 1.367 . S
C719 C721 1.433 . S
C720 C716 1.350 . S
C720 C717 1.463 . S
C720 N724 1.427 . S
C721 H711 0.929 . S
C721 C719 1.433 . S
C721 N724 1.384 . S
C722 H713 0.929 . S
C722 C714 1.378 . S
C722 C717 1.350 . S
C723 H710 0.929 . S
C723 C715 1.433 . S
C723 N725 1.384 . S
N724 C720 1.427 . S
N724 C721 1.384 . S
N725 C717 1.427 . S
N725 C723 1.384 . S
H726 C732 0.930 . S
H727 C736 0.930 . S
H728 C741 0.929 . S
H729 C739 0.929 . S
H730 C734 0.929 . S
H731 C740 0.929 . S
C732 H726 0.930 . S
C732 C733 1.367 . S
C732 C740 1.378 . S
C733 C732 1.367 . S
C733 C741 1.433 . S
C734 H730 0.929 . S
C734 C736 1.378 . S
C734 C738 1.350 1_554 S
C735 C738 1.463 . S
C735 C740 1.350 . S
C735 N743 1.427 . S
C736 H727 0.930 . S
C736 C734 1.378 . S
C736 C737 1.367 . S
C737 C736 1.367 . S
C737 C739 1.433 1_554 S
C738 C734 1.350 1_556 S
C738 C735 1.463 . S
C738 N742 1.427 . S
C739 H729 0.929 . S
C739 C737 1.433 1_556 S
C739 N742 1.384 . S
C740 H731 0.929 . S
C740 C732 1.378 . S
C740 C735 1.350 . S
C741 H728 0.929 . S
C741 C733 1.433 . S
C741 N743 1.384 . S
N742 C738 1.427 . S
N742 C739 1.384 . S
N743 C735 1.427 . S
N743 C741 1.384 . S
C535 C29 1.293 . S
C539 C313 1.291 . S
C553 C117 1.291 . S
C557 C401 1.291 . S
C571 C489 1.293 . S
C575 C205 1.296 . S
C589 C57 1.295 . S
C593 C284 1.292 . S
C607 C145 1.297 . S
C611 C372 1.299 . S
C625 C460 1.291 . S
C629 C233 1.291 . S
C643 C108 1.490 . S
C647 C49 1.490 . S
C661 C196 1.493 . S
C665 C137 1.492 . S
C679 C225 1.490 . S
C683 C293 1.491 . S
C697 C381 1.494 . S
C701 C321 1.493 . S
C715 C469 1.492 . S
C719 C409 1.493 . S
C733 C497 1.498 . S
C737 C20 1.499 . S
