# Generated by pormake.
# Topology ato, (4)-cn, num edge types: 1
# Building blocks:
#     Node 0, Type 0, BuildingBlock: QUQFOY_clean_sbu_3, # of connection points: 4
#     Node 1, Type 0, BuildingBlock: QUQFOY_clean_sbu_3, # of connection points: 4
#     Node 2, Type 0, BuildingBlock: QUQFOY_clean_sbu_3, # of connection points: 4
#     Node 3, Type 0, BuildingBlock: QUQFOY_clean_sbu_3, # of connection points: 4
#     Node 4, Type 0, BuildingBlock: QUQFOY_clean_sbu_3, # of connection points: 4
#     Node 5, Type 0, BuildingBlock: QUQFOY_clean_sbu_3, # of connection points: 4
#     Node 6, Type 0, BuildingBlock: QUQFOY_clean_sbu_3, # of connection points: 4
#     Node 7, Type 0, BuildingBlock: QUQFOY_clean_sbu_3, # of connection points: 4
#     Node 8, Type 0, BuildingBlock: QUQFOY_clean_sbu_3, # of connection points: 4
#     Node 9, Type 0, BuildingBlock: QUQFOY_clean_sbu_3, # of connection points: 4
#     Node 10, Type 0, BuildingBlock: QUQFOY_clean_sbu_3, # of connection points: 4
#     Node 11, Type 0, BuildingBlock: QUQFOY_clean_sbu_3, # of connection points: 4
#     Node 12, Type 0, BuildingBlock: QUQFOY_clean_sbu_3, # of connection points: 4
#     Node 13, Type 0, BuildingBlock: QUQFOY_clean_sbu_3, # of connection points: 4
#     Node 14, Type 0, BuildingBlock: QUQFOY_clean_sbu_3, # of connection points: 4
#     Node 15, Type 0, BuildingBlock: QUQFOY_clean_sbu_3, # of connection points: 4
#     Node 16, Type 0, BuildingBlock: QUQFOY_clean_sbu_3, # of connection points: 4
#     Node 17, Type 0, BuildingBlock: QUQFOY_clean_sbu_3, # of connection points: 4
#     Node 18, Type 0, BuildingBlock: QUQFOY_clean_sbu_3, # of connection points: 4
#     Node 19, Type 0, BuildingBlock: QUQFOY_clean_sbu_3, # of connection points: 4
#     Node 20, Type 0, BuildingBlock: QUQFOY_clean_sbu_3, # of connection points: 4
#     Node 21, Type 0, BuildingBlock: QUQFOY_clean_sbu_3, # of connection points: 4
#     Node 22, Type 0, BuildingBlock: QUQFOY_clean_sbu_3, # of connection points: 4
#     Node 23, Type 0, BuildingBlock: QUQFOY_clean_sbu_3, # of connection points: 4
#     Node 24, Type 0, BuildingBlock: QUQFOY_clean_sbu_3, # of connection points: 4
#     Node 25, Type 0, BuildingBlock: QUQFOY_clean_sbu_3, # of connection points: 4
#     Node 26, Type 0, BuildingBlock: QUQFOY_clean_sbu_3, # of connection points: 4
#     Node 27, Type 0, BuildingBlock: QUQFOY_clean_sbu_3, # of connection points: 4
#     Node 28, Type 0, BuildingBlock: QUQFOY_clean_sbu_3, # of connection points: 4
#     Node 29, Type 0, BuildingBlock: QUQFOY_clean_sbu_3, # of connection points: 4
#     Node 30, Type 0, BuildingBlock: QUQFOY_clean_sbu_3, # of connection points: 4
#     Node 31, Type 0, BuildingBlock: QUQFOY_clean_sbu_3, # of connection points: 4
#     Node 32, Type 0, BuildingBlock: QUQFOY_clean_sbu_3, # of connection points: 4
#     Node 33, Type 0, BuildingBlock: QUQFOY_clean_sbu_3, # of connection points: 4
#     Node 34, Type 0, BuildingBlock: QUQFOY_clean_sbu_3, # of connection points: 4
#     Node 35, Type 0, BuildingBlock: QUQFOY_clean_sbu_3, # of connection points: 4
#     Edge 36, Type (0, 0), BuildingBlock: TEMPAE_clean_linker_10, # of connection points: 2
#     Edge 37, Type (0, 0), BuildingBlock: TEMPAE_clean_linker_10, # of connection points: 2
#     Edge 38, Type (0, 0), BuildingBlock: TEMPAE_clean_linker_10, # of connection points: 2
#     Edge 39, Type (0, 0), BuildingBlock: TEMPAE_clean_linker_10, # of connection points: 2
#     Edge 40, Type (0, 0), BuildingBlock: TEMPAE_clean_linker_10, # of connection points: 2
#     Edge 41, Type (0, 0), BuildingBlock: TEMPAE_clean_linker_10, # of connection points: 2
#     Edge 42, Type (0, 0), BuildingBlock: TEMPAE_clean_linker_10, # of connection points: 2
#     Edge 43, Type (0, 0), BuildingBlock: TEMPAE_clean_linker_10, # of connection points: 2
#     Edge 44, Type (0, 0), BuildingBlock: TEMPAE_clean_linker_10, # of connection points: 2
#     Edge 45, Type (0, 0), BuildingBlock: TEMPAE_clean_linker_10, # of connection points: 2
#     Edge 46, Type (0, 0), BuildingBlock: TEMPAE_clean_linker_10, # of connection points: 2
#     Edge 47, Type (0, 0), BuildingBlock: TEMPAE_clean_linker_10, # of connection points: 2
#     Edge 48, Type (0, 0), BuildingBlock: TEMPAE_clean_linker_10, # of connection points: 2
#     Edge 49, Type (0, 0), BuildingBlock: TEMPAE_clean_linker_10, # of connection points: 2
#     Edge 50, Type (0, 0), BuildingBlock: TEMPAE_clean_linker_10, # of connection points: 2
#     Edge 51, Type (0, 0), BuildingBlock: TEMPAE_clean_linker_10, # of connection points: 2
#     Edge 52, Type (0, 0), BuildingBlock: TEMPAE_clean_linker_10, # of connection points: 2
#     Edge 53, Type (0, 0), BuildingBlock: TEMPAE_clean_linker_10, # of connection points: 2
#     Edge 54, Type (0, 0), BuildingBlock: TEMPAE_clean_linker_10, # of connection points: 2
#     Edge 55, Type (0, 0), BuildingBlock: TEMPAE_clean_linker_10, # of connection points: 2
#     Edge 56, Type (0, 0), BuildingBlock: TEMPAE_clean_linker_10, # of connection points: 2
#     Edge 57, Type (0, 0), BuildingBlock: TEMPAE_clean_linker_10, # of connection points: 2
#     Edge 58, Type (0, 0), BuildingBlock: TEMPAE_clean_linker_10, # of connection points: 2
#     Edge 59, Type (0, 0), BuildingBlock: TEMPAE_clean_linker_10, # of connection points: 2
#     Edge 60, Type (0, 0), BuildingBlock: TEMPAE_clean_linker_10, # of connection points: 2
#     Edge 61, Type (0, 0), BuildingBlock: TEMPAE_clean_linker_10, # of connection points: 2
#     Edge 62, Type (0, 0), BuildingBlock: TEMPAE_clean_linker_10, # of connection points: 2
#     Edge 63, Type (0, 0), BuildingBlock: TEMPAE_clean_linker_10, # of connection points: 2
#     Edge 64, Type (0, 0), BuildingBlock: TEMPAE_clean_linker_10, # of connection points: 2
#     Edge 65, Type (0, 0), BuildingBlock: TEMPAE_clean_linker_10, # of connection points: 2
#     Edge 66, Type (0, 0), BuildingBlock: TEMPAE_clean_linker_10, # of connection points: 2
#     Edge 67, Type (0, 0), BuildingBlock: TEMPAE_clean_linker_10, # of connection points: 2
#     Edge 68, Type (0, 0), BuildingBlock: TEMPAE_clean_linker_10, # of connection points: 2
#     Edge 69, Type (0, 0), BuildingBlock: TEMPAE_clean_linker_10, # of connection points: 2
#     Edge 70, Type (0, 0), BuildingBlock: TEMPAE_clean_linker_10, # of connection points: 2
#     Edge 71, Type (0, 0), BuildingBlock: TEMPAE_clean_linker_10, # of connection points: 2
#     Edge 72, Type (0, 0), BuildingBlock: TEMPAE_clean_linker_10, # of connection points: 2
#     Edge 73, Type (0, 0), BuildingBlock: TEMPAE_clean_linker_10, # of connection points: 2
#     Edge 74, Type (0, 0), BuildingBlock: TEMPAE_clean_linker_10, # of connection points: 2
#     Edge 75, Type (0, 0), BuildingBlock: TEMPAE_clean_linker_10, # of connection points: 2
#     Edge 76, Type (0, 0), BuildingBlock: TEMPAE_clean_linker_10, # of connection points: 2
#     Edge 77, Type (0, 0), BuildingBlock: TEMPAE_clean_linker_10, # of connection points: 2
#     Edge 78, Type (0, 0), BuildingBlock: TEMPAE_clean_linker_10, # of connection points: 2
#     Edge 79, Type (0, 0), BuildingBlock: TEMPAE_clean_linker_10, # of connection points: 2
#     Edge 80, Type (0, 0), BuildingBlock: TEMPAE_clean_linker_10, # of connection points: 2
#     Edge 81, Type (0, 0), BuildingBlock: TEMPAE_clean_linker_10, # of connection points: 2
#     Edge 82, Type (0, 0), BuildingBlock: TEMPAE_clean_linker_10, # of connection points: 2
#     Edge 83, Type (0, 0), BuildingBlock: TEMPAE_clean_linker_10, # of connection points: 2
#     Edge 84, Type (0, 0), BuildingBlock: TEMPAE_clean_linker_10, # of connection points: 2
#     Edge 85, Type (0, 0), BuildingBlock: TEMPAE_clean_linker_10, # of connection points: 2
#     Edge 86, Type (0, 0), BuildingBlock: TEMPAE_clean_linker_10, # of connection points: 2
#     Edge 87, Type (0, 0), BuildingBlock: TEMPAE_clean_linker_10, # of connection points: 2
#     Edge 88, Type (0, 0), BuildingBlock: TEMPAE_clean_linker_10, # of connection points: 2
#     Edge 89, Type (0, 0), BuildingBlock: TEMPAE_clean_linker_10, # of connection points: 2
#     Edge 90, Type (0, 0), BuildingBlock: TEMPAE_clean_linker_10, # of connection points: 2
#     Edge 91, Type (0, 0), BuildingBlock: TEMPAE_clean_linker_10, # of connection points: 2
#     Edge 92, Type (0, 0), BuildingBlock: TEMPAE_clean_linker_10, # of connection points: 2
#     Edge 93, Type (0, 0), BuildingBlock: TEMPAE_clean_linker_10, # of connection points: 2
#     Edge 94, Type (0, 0), BuildingBlock: TEMPAE_clean_linker_10, # of connection points: 2
#     Edge 95, Type (0, 0), BuildingBlock: TEMPAE_clean_linker_10, # of connection points: 2
#     Edge 96, Type (0, 0), BuildingBlock: TEMPAE_clean_linker_10, # of connection points: 2
#     Edge 97, Type (0, 0), BuildingBlock: TEMPAE_clean_linker_10, # of connection points: 2
#     Edge 98, Type (0, 0), BuildingBlock: TEMPAE_clean_linker_10, # of connection points: 2
#     Edge 99, Type (0, 0), BuildingBlock: TEMPAE_clean_linker_10, # of connection points: 2
#     Edge 100, Type (0, 0), BuildingBlock: TEMPAE_clean_linker_10, # of connection points: 2
#     Edge 101, Type (0, 0), BuildingBlock: TEMPAE_clean_linker_10, # of connection points: 2
#     Edge 102, Type (0, 0), BuildingBlock: TEMPAE_clean_linker_10, # of connection points: 2
#     Edge 103, Type (0, 0), BuildingBlock: TEMPAE_clean_linker_10, # of connection points: 2
#     Edge 104, Type (0, 0), BuildingBlock: TEMPAE_clean_linker_10, # of connection points: 2
#     Edge 105, Type (0, 0), BuildingBlock: TEMPAE_clean_linker_10, # of connection points: 2
#     Edge 106, Type (0, 0), BuildingBlock: TEMPAE_clean_linker_10, # of connection points: 2
#     Edge 107, Type (0, 0), BuildingBlock: TEMPAE_clean_linker_10, # of connection points: 2
# Relax obj value: 0.073
# Max RMSD: 0.088
# Mean RMSD: 0.088
data_MOF--net-ato--node1-QUQFOY_clean_sbu_3--edge1-TEMPAE_clean_linker_10
_symmetry_space_group_name_H-M    P1
_symmetry_Int_Tables_number       1
_symmetry_cell_setting            triclinic
loop_
_symmetry_equiv_pos_as_xyz
'x, y, z'
_cell_length_a     105.93305
_cell_length_b     105.82083
_cell_length_c     24.768595
_cell_angle_alpha  90.025377
_cell_angle_beta   89.962659
_cell_angle_gamma 119.92735
loop_
_atom_site_label
_atom_site_type_symbol
_atom_site_fract_x
_atom_site_fract_y
_atom_site_fract_z
_atom_type_partial_charge
C0 C 0.20821 0.06253 0.22458 0.0
O1 O 0.20567 0.05812 0.17594 0.0
Cd2 Cd 0.20934 0.03925 0.13718 0.0
O3 O 0.21227 0.05635 0.25895 0.0
Cd4 Cd 0.21725 0.03612 0.26177 0.0
C5 C 0.2451 0.05383 0.17317 0.0
O6 O 0.20008 0.01904 0.19673 0.0
O7 O 0.21759 0.0155 0.22177 0.0
O8 O 0.20402 0.0249 0.3439 0.0
C9 C 0.20624 0.01139 0.19348 0.0
O10 O 0.23574 0.04955 0.13522 0.0
C11 C 0.21513 0.02673 0.37006 0.0
O12 O 0.24127 0.05148 0.22262 0.0
O13 O 0.22742 0.03381 0.34679 0.0
C14 C 0.92207 0.15063 0.23172 0.0
O15 O 0.91949 0.14853 0.18145 0.0
Cd16 Cd 0.92747 0.16656 0.11211 0.0
O17 O 0.9306 0.16334 0.25002 0.0
Cd18 Cd 0.94675 0.18755 0.20947 0.0
C19 C 0.91823 0.19081 0.16699 0.0
O20 O 0.95286 0.18107 0.12359 0.0
O21 O 0.9582 0.20356 0.13338 0.0
O22 O 0.96883 0.19205 0.25405 0.0
C23 C 0.95856 0.19386 0.10442 0.0
O24 O 0.91625 0.18149 0.13053 0.0
C25 C 0.96967 0.2021 0.28441 0.0
O26 O 0.92815 0.19444 0.20248 0.0
O27 O 0.95956 0.20521 0.28095 0.0
C28 C 0.81607 0.74668 0.19654 0.0
O29 O 0.81263 0.74391 0.14708 0.0
Cd30 Cd 0.78943 0.73519 0.10726 0.0
O31 O 0.80667 0.74511 0.23209 0.0
Cd32 Cd 0.7802 0.73701 0.23347 0.0
C33 C 0.77189 0.70376 0.18303 0.0
O34 O 0.7805 0.74898 0.15135 0.0
O35 O 0.75906 0.73516 0.18386 0.0
O36 O 0.78443 0.75616 0.2971 0.0
C37 C 0.76695 0.74408 0.14764 0.0
O38 O 0.77695 0.71006 0.13796 0.0
C39 C 0.77558 0.74774 0.33257 0.0
O40 O 0.77198 0.71092 0.22457 0.0
O41 O 0.76922 0.73414 0.32288 0.0
C42 C 0.06756 0.22501 0.75614 0.0
O43 O 0.06227 0.22254 0.80357 0.0
Cd44 Cd 0.04422 0.22762 0.8372 0.0
O45 O 0.06293 0.23012 0.71941 0.0
Cd46 Cd 0.04292 0.23562 0.70765 0.0
C47 C 0.05831 0.26364 0.79781 0.0
O48 O 0.0269 0.21709 0.76736 0.0
O49 O 0.01847 0.23047 0.73785 0.0
O50 O 0.03646 0.22246 0.62387 0.0
C51 C 0.01664 0.2199 0.76727 0.0
O52 O 0.05526 0.25433 0.83547 0.0
C53 C 0.03678 0.23268 0.59599 0.0
O54 O 0.05535 0.25968 0.74867 0.0
O55 O 0.04082 0.24475 0.61972 0.0
C56 C 0.73846 0.82701 0.76015 0.0
O57 O 0.73427 0.82393 0.80883 0.0
Cd58 Cd 0.72492 0.80103 0.85252 0.0
O59 O 0.73784 0.81729 0.72804 0.0
Cd60 Cd 0.72915 0.79069 0.73444 0.0
C61 C 0.69482 0.78142 0.77342 0.0
O62 O 0.73974 0.79154 0.82159 0.0
O63 O 0.72568 0.76995 0.79028 0.0
O64 O 0.74889 0.7926 0.67821 0.0
C65 C 0.73432 0.77792 0.827 0.0
O66 O 0.70025 0.78696 0.81911 0.0
C67 C 0.74068 0.784 0.64177 0.0
O68 O 0.70289 0.78183 0.73453 0.0
O69 O 0.72707 0.77887 0.64749 0.0
C70 C 0.15976 0.90841 0.75477 0.0
O71 O 0.16049 0.90533 0.80382 0.0
Cd72 Cd 0.17944 0.9188 0.86637 0.0
O73 O 0.17013 0.91972 0.73276 0.0
Cd74 Cd 0.1946 0.93937 0.76195 0.0
C75 C 0.20668 0.91637 0.80138 0.0
O76 O 0.18607 0.94325 0.84678 0.0
O77 O 0.2093 0.95615 0.83496 0.0
O78 O 0.19161 0.95738 0.71253 0.0
C79 C 0.19827 0.95312 0.86398 0.0
O80 O 0.19802 0.91312 0.84122 0.0
C81 C 0.20204 0.96078 0.67994 0.0
O82 O 0.20741 0.92529 0.76527 0.0
O83 O 0.20903 0.95395 0.68439 0.0
C84 C 0.77523 0.93143 0.74017 0.0
O85 O 0.7796 0.93545 0.7883 0.0
Cd86 Cd 0.77938 0.95458 0.83981 0.0
O87 O 0.77047 0.93815 0.71141 0.0
Cd88 Cd 0.76735 0.95973 0.72029 0.0
C89 C 0.74304 0.94337 0.82443 0.0
O90 O 0.78829 0.9739 0.77652 0.0
O91 O 0.77564 0.98401 0.75783 0.0
O92 O 0.77362 0.96582 0.62573 0.0
C93 C 0.78619 0.98454 0.78364 0.0
O94 O 0.75333 0.94525 0.85606 0.0
C95 C 0.76279 0.96757 0.61612 0.0
O96 O 0.74549 0.94718 0.77502 0.0
O97 O 0.75382 0.96495 0.65435 0.0
C98 C 0.06298 0.83933 0.73401 0.0
O99 O 0.0626 0.83966 0.78516 0.0
Cd100 Cd 0.05193 0.81844 0.8406 0.0
O101 O 0.05623 0.82725 0.70899 0.0
Cd102 Cd 0.03922 0.8018 0.73666 0.0
C103 C 0.06598 0.79792 0.78826 0.0
O104 O 0.02698 0.80367 0.81649 0.0
O105 O 0.0281 0.78388 0.80825 0.0
O106 O 0.01917 0.79808 0.68037 0.0
C107 C 0.02272 0.79074 0.8319 0.0
O108 O 0.06542 0.80529 0.82795 0.0
C109 C 0.01931 0.78832 0.65105 0.0
O110 O 0.05812 0.79572 0.74667 0.0
O111 O 0.02916 0.78511 0.6603 0.0
C112 C 0.16407 0.23905 0.82391 0.0
O113 O 0.16714 0.2422 0.87345 0.0
Cd114 Cd 0.19058 0.25498 0.91307 0.0
O115 O 0.17401 0.24201 0.78893 0.0
Cd116 Cd 0.20091 0.25299 0.78508 0.0
C117 C 0.20393 0.28493 0.82777 0.0
O118 O 0.20313 0.24461 0.87114 0.0
O119 O 0.22374 0.25916 0.83344 0.0
O120 O 0.19846 0.23317 0.72886 0.0
C121 C 0.21687 0.25145 0.87389 0.0
O122 O 0.1994 0.27894 0.87371 0.0
C123 C 0.20617 0.24121 0.69025 0.0
O124 O 0.20536 0.27804 0.78815 0.0
O125 O 0.2111 0.25485 0.69493 0.0
C126 C 0.9132 0.76114 0.21415 0.0
O127 O 0.91617 0.76274 0.16413 0.0
Cd128 Cd 0.92982 0.75331 0.12061 0.0
O129 O 0.91856 0.75541 0.24497 0.0
Cd130 Cd 0.93691 0.74763 0.23584 0.0
C131 C 0.91383 0.7179 0.16694 0.0
O132 O 0.95272 0.76351 0.16571 0.0
O133 O 0.95327 0.74359 0.17884 0.0
O134 O 0.95193 0.76356 0.30616 0.0
C135 C 0.9588 0.75601 0.15666 0.0
O136 O 0.91616 0.72648 0.12732 0.0
C137 C 0.95139 0.75362 0.33627 0.0
O138 O 0.91943 0.72283 0.21301 0.0
O139 O 0.94346 0.74052 0.32065 0.0
C140 C 0.24305 0.16825 0.22862 0.0
O141 O 0.24758 0.17339 0.18176 0.0
Cd142 Cd 0.2556 0.19774 0.15304 0.0
O143 O 0.24346 0.17644 0.26714 0.0
Cd144 Cd 0.25253 0.20293 0.27807 0.0
C145 C 0.28645 0.21592 0.22881 0.0
O146 O 0.2405 0.20475 0.19891 0.0
O147 O 0.2558 0.22537 0.23413 0.0
O148 O 0.23302 0.19808 0.34097 0.0
C149 C 0.2461 0.21845 0.19882 0.0
O150 O 0.28049 0.21317 0.18247 0.0
C151 C 0.24126 0.20613 0.37843 0.0
O152 O 0.27886 0.21179 0.27188 0.0
O153 O 0.2549 0.2122 0.37029 0.0
C154 C 0.82872 0.08445 0.23073 0.0
O155 O 0.8297 0.08642 0.17996 0.0
Cd156 Cd 0.8134 0.0709 0.11281 0.0
O157 O 0.81775 0.07347 0.25172 0.0
Cd158 Cd 0.79452 0.05314 0.21604 0.0
C159 C 0.78477 0.07516 0.14956 0.0
O160 O 0.8071 0.04744 0.14694 0.0
O161 O 0.78381 0.03387 0.14713 0.0
O162 O 0.7966 0.04253 0.2997 0.0
C163 C 0.79594 0.03665 0.12722 0.0
O164 O 0.79428 0.07707 0.11422 0.0
C165 C 0.78299 0.03473 0.30761 0.0
O166 O 0.78309 0.06754 0.19161 0.0
O167 O 0.77461 0.03575 0.27349 0.0
C168 C 0.89051 0.40105 0.57921 0.0
O169 O 0.88911 0.39776 0.52938 0.0
Cd170 Cd 0.89391 0.38029 0.48643 0.0
O171 O 0.89416 0.39437 0.61294 0.0
Cd172 Cd 0.89905 0.37387 0.60949 0.0
C173 C 0.92886 0.39296 0.5318 0.0
O174 O 0.88237 0.35898 0.5393 0.0
O175 O 0.89901 0.35382 0.56082 0.0
O176 O 0.88307 0.36081 0.68358 0.0
C177 C 0.88781 0.35079 0.53301 0.0
O178 O 0.92017 0.38984 0.49208 0.0
C179 C 0.89281 0.36059 0.71272 0.0
O180 O 0.9242 0.38964 0.58011 0.0
O181 O 0.90584 0.3675 0.6954 0.0
C182 C 0.56556 0.50592 0.59255 0.0
O183 O 0.56431 0.5096 0.54488 0.0
Cd184 Cd 0.58197 0.5306 0.49681 0.0
O185 O 0.5766 0.5142 0.62134 0.0
Cd186 Cd 0.59821 0.5387 0.60967 0.0
C187 C 0.58056 0.55663 0.57191 0.0
O188 O 0.60439 0.53263 0.5233 0.0
O189 O 0.61817 0.55494 0.54826 0.0
O190 O 0.61182 0.53099 0.66612 0.0
C191 C 0.61562 0.54486 0.51482 0.0
O192 O 0.57956 0.55112 0.52541 0.0
C193 C 0.61588 0.54126 0.70008 0.0
O194 O 0.5855 0.5529 0.61198 0.0
O195 O 0.61133 0.55021 0.69306 0.0
C196 C 0.49613 0.10176 0.57013 0.0
O197 O 0.49297 0.10212 0.52088 0.0
Cd198 Cd 0.46889 0.09267 0.48494 0.0
O199 O 0.48628 0.09696 0.60628 0.0
Cd200 Cd 0.45999 0.08787 0.61193 0.0
C201 C 0.45326 0.05815 0.53977 0.0
O202 O 0.45695 0.10151 0.5405 0.0
O203 O 0.43719 0.08294 0.5693 0.0
O204 O 0.46222 0.10396 0.68485 0.0
C205 C 0.4432 0.09382 0.53784 0.0
O206 O 0.45661 0.0662 0.49791 0.0
C207 C 0.45414 0.09385 0.71736 0.0
O208 O 0.45465 0.0634 0.58713 0.0
O209 O 0.44939 0.0808 0.70174 0.0
C210 C 0.72347 0.55065 0.13151 0.0
O211 O 0.72196 0.55086 0.18232 0.0
Cd212 Cd 0.70874 0.5606 0.22824 0.0
O213 O 0.71687 0.55485 0.09966 0.0
Cd214 Cd 0.69874 0.56299 0.10778 0.0
C215 C 0.72287 0.59448 0.16981 0.0
O216 O 0.68525 0.54988 0.18806 0.0
O217 O 0.6817 0.56713 0.15911 0.0
O218 O 0.68187 0.54663 0.04034 0.0
C219 C 0.67854 0.55697 0.19279 0.0
O220 O 0.72166 0.58697 0.21171 0.0
C221 C 0.68382 0.55668 0.00759 0.0
O222 O 0.71626 0.58838 0.12621 0.0
O223 O 0.69317 0.56966 0.0206 0.0
C224 C 0.3914 0.14939 0.12659 0.0
O225 O 0.38661 0.14664 0.17472 0.0
Cd226 Cd 0.38038 0.12503 0.22492 0.0
O227 O 0.39289 0.14006 0.0991 0.0
Cd228 Cd 0.3881 0.11499 0.11207 0.0
C229 C 0.35262 0.10105 0.14463 0.0
O230 O 0.3986 0.11946 0.20045 0.0
O231 O 0.38839 0.09701 0.1749 0.0
O232 O 0.4098 0.12096 0.06068 0.0
C233 C 0.39571 0.10658 0.2102 0.0
O234 O 0.35689 0.10661 0.19122 0.0
C235 C 0.40335 0.1111 0.02538 0.0
O236 O 0.36155 0.10341 0.10638 0.0
O237 O 0.3896 0.10318 0.02951 0.0
C238 C 0.81797 0.24231 0.1184 0.0
O239 O 0.81927 0.24073 0.16855 0.0
Cd240 Cd 0.83996 0.25425 0.22443 0.0
O241 O 0.82858 0.25193 0.09084 0.0
Cd242 Cd 0.85441 0.27016 0.1097 0.0
C243 C 0.86276 0.24512 0.15895 0.0
O244 O 0.84979 0.27851 0.19353 0.0
O245 O 0.8725 0.28757 0.17342 0.0
O246 O 0.85326 0.28799 0.05227 0.0
C247 C 0.86296 0.28722 0.20528 0.0
O248 O 0.85558 0.2445 0.20105 0.0
C249 C 0.86314 0.28937 0.01981 0.0
O250 O 0.86359 0.25306 0.11884 0.0
O251 O 0.86872 0.28133 0.02777 0.0
C252 C 0.42414 0.2522 0.07537 0.0
O253 O 0.42881 0.25705 0.12247 0.0
Cd254 Cd 0.42926 0.27733 0.16611 0.0
O255 O 0.41925 0.25842 0.04456 0.0
Cd256 Cd 0.4165 0.28027 0.04892 0.0
C257 C 0.3927 0.26506 0.15341 0.0
O258 O 0.43892 0.29472 0.09573 0.0
O259 O 0.42584 0.30483 0.08886 0.0
O260 O 0.42231 0.28361 0.95361 0.0
C261 C 0.4376 0.30572 0.10499 0.0
O262 O 0.40343 0.26896 0.18546 0.0
C263 C 0.4132 0.28771 0.94242 0.0
O264 O 0.39458 0.2671 0.10271 0.0
O265 O 0.40504 0.28751 0.9804 0.0
C266 C 0.72159 0.16625 0.07272 0.0
O267 O 0.72003 0.16475 0.12357 0.0
Cd268 Cd 0.70872 0.14206 0.1708 0.0
O269 O 0.71572 0.15521 0.04162 0.0
Cd270 Cd 0.69855 0.12876 0.05147 0.0
C271 C 0.72481 0.12427 0.10918 0.0
O272 O 0.68535 0.12797 0.13229 0.0
O273 O 0.68319 0.10749 0.1059 0.0
O274 O 0.68102 0.12839 0.98847 0.0
C275 C 0.67959 0.11431 0.1389 0.0
O276 O 0.72317 0.13035 0.15096 0.0
C277 C 0.68208 0.11987 0.95504 0.0
O278 O 0.71765 0.12285 0.06611 0.0
O279 O 0.69134 0.11591 0.96545 0.0
C280 C 0.82136 0.56563 0.12268 0.0
O281 O 0.82541 0.56857 0.17153 0.0
Cd282 Cd 0.84901 0.57781 0.20822 0.0
O283 O 0.83036 0.56729 0.08528 0.0
Cd284 Cd 0.85717 0.5764 0.08146 0.0
C285 C 0.86478 0.60929 0.13309 0.0
O286 O 0.85875 0.56487 0.16287 0.0
O287 O 0.87942 0.58039 0.12846 0.0
O288 O 0.85508 0.55828 0.01587 0.0
C289 C 0.87249 0.57099 0.16469 0.0
O290 O 0.86044 0.60299 0.17859 0.0
C291 C 0.86321 0.5675 0.98072 0.0
O292 O 0.86446 0.60221 0.09097 0.0
O293 O 0.86795 0.58086 0.9914 0.0
C294 C 0.56874 0.07357 0.52351 0.0
O295 O 0.56701 0.06899 0.47517 0.0
Cd296 Cd 0.5805 0.05962 0.43057 0.0
O297 O 0.57801 0.07298 0.55456 0.0
Cd298 Cd 0.59566 0.06418 0.54916 0.0
C299 C 0.57107 0.02964 0.50934 0.0
O300 O 0.60458 0.075 0.46265 0.0
O301 O 0.61456 0.06312 0.49452 0.0
O302 O 0.61184 0.08416 0.60696 0.0
C303 C 0.61389 0.07095 0.45719 0.0
O304 O 0.57041 0.03497 0.4641 0.0
C305 C 0.6129 0.07625 0.64307 0.0
O306 O 0.57893 0.03782 0.54762 0.0
O307 O 0.60557 0.06254 0.63623 0.0
C308 C 0.91729 0.50305 0.55855 0.0
O309 O 0.92154 0.50612 0.50993 0.0
Cd310 Cd 0.92882 0.52838 0.46418 0.0
O311 O 0.91669 0.51241 0.58932 0.0
Cd312 Cd 0.92268 0.53833 0.5811 0.0
C313 C 0.95792 0.55058 0.54481 0.0
O314 O 0.91182 0.53534 0.49325 0.0
O315 O 0.92316 0.55746 0.52246 0.0
O316 O 0.90162 0.53347 0.63564 0.0
C317 C 0.9154 0.54854 0.48603 0.0
O318 O 0.9529 0.54428 0.49974 0.0
C319 C 0.90878 0.54272 0.67211 0.0
O320 O 0.94943 0.54988 0.58263 0.0
O321 O 0.92255 0.54973 0.66713 0.0
C322 C 0.50321 0.4036 0.5557 0.0
O323 O 0.50558 0.40343 0.50542 0.0
Cd324 Cd 0.48938 0.38808 0.43642 0.0
O325 O 0.49111 0.39424 0.57664 0.0
Cd326 Cd 0.46845 0.37263 0.54475 0.0
C327 C 0.46133 0.39452 0.46404 0.0
O328 O 0.47919 0.3647 0.47619 0.0
O329 O 0.45585 0.35242 0.482 0.0
O330 O 0.46684 0.36036 0.6294 0.0
C331 C 0.46728 0.35451 0.45803 0.0
O332 O 0.47124 0.39598 0.4312 0.0
C333 C 0.45337 0.35599 0.63607 0.0
O334 O 0.45887 0.38723 0.50746 0.0
O335 O 0.44718 0.3599 0.60136 0.0
C336 C 0.55383 0.7316 0.90255 0.0
O337 O 0.55091 0.73219 0.8531 0.0
Cd338 Cd 0.5514 0.7182 0.77827 0.0
O339 O 0.55704 0.72215 0.91922 0.0
Cd340 Cd 0.55825 0.70119 0.88001 0.0
C341 C 0.58624 0.72426 0.79716 0.0
O342 O 0.53898 0.69471 0.81635 0.0
O343 O 0.54862 0.68108 0.81466 0.0
O344 O 0.54876 0.68905 0.96516 0.0
C345 C 0.53968 0.68434 0.79411 0.0
O346 O 0.57735 0.72615 0.76833 0.0
C347 C 0.55745 0.68406 0.9685 0.0
O348 O 0.58199 0.7163 0.8393 0.0
O349 O 0.56679 0.6874 0.93113 0.0
C350 C 0.26166 0.82669 0.92146 0.0
O351 O 0.26337 0.82581 0.87105 0.0
Cd352 Cd 0.27925 0.84483 0.81113 0.0
O353 O 0.2693 0.8386 0.94689 0.0
Cd354 Cd 0.28992 0.86306 0.92445 0.0
C355 C 0.26877 0.87009 0.84032 0.0
O356 O 0.30164 0.85543 0.85829 0.0
O357 O 0.31091 0.87857 0.86826 0.0
O358 O 0.30005 0.86223 0.01126 0.0
C359 C 0.31127 0.86816 0.84461 0.0
O360 O 0.26945 0.86146 0.80605 0.0
C361 C 0.30395 0.87533 0.02348 0.0
O362 O 0.27463 0.87195 0.88671 0.0
O363 O 0.30068 0.88247 0.9907 0.0
C364 C 0.15588 0.41332 0.88681 0.0
O365 O 0.15426 0.41037 0.83674 0.0
Cd366 Cd 0.13351 0.40428 0.78337 0.0
O367 O 0.14556 0.41275 0.91524 0.0
Cd368 Cd 0.11963 0.40565 0.89723 0.0
C369 C 0.11052 0.3722 0.84717 0.0
O370 O 0.12588 0.42053 0.81612 0.0
O371 O 0.103 0.40789 0.83432 0.0
O372 O 0.12346 0.42171 0.97419 0.0
C373 C 0.11299 0.41731 0.80467 0.0
O374 O 0.11761 0.37881 0.80505 0.0
C375 C 0.11036 0.41459 0.99035 0.0
O376 O 0.1099 0.37924 0.88785 0.0
O377 O 0.10183 0.40305 0.96475 0.0
C378 C 0.41964 0.91232 0.43869 0.0
O379 O 0.42013 0.91494 0.48896 0.0
Cd380 Cd 0.40218 0.91696 0.54069 0.0
O381 O 0.40983 0.91224 0.40874 0.0
Cd382 Cd 0.39057 0.91849 0.42554 0.0
C383 C 0.4098 0.94992 0.49595 0.0
O384 O 0.3803 0.90018 0.49591 0.0
O385 O 0.3691 0.91208 0.48211 0.0
O386 O 0.38115 0.90658 0.33871 0.0
C387 C 0.36952 0.90177 0.5063 0.0
O388 O 0.40765 0.94213 0.53771 0.0
C389 C 0.37551 0.91435 0.32665 0.0
O390 O 0.40633 0.94422 0.4492 0.0
O391 O 0.37751 0.92441 0.35931 0.0
C392 C 0.07263 0.49308 0.42656 0.0
O393 O 0.07098 0.4899 0.47649 0.0
Cd394 Cd 0.06952 0.46905 0.51983 0.0
O395 O 0.07281 0.48431 0.3917 0.0
Cd396 Cd 0.06858 0.45908 0.39779 0.0
C397 C 0.03679 0.44513 0.46727 0.0
O398 O 0.08594 0.46437 0.47059 0.0
O399 O 0.07306 0.44181 0.44822 0.0
O400 O 0.08256 0.46393 0.31394 0.0
C401 C 0.08336 0.45142 0.4763 0.0
O402 O 0.04438 0.44979 0.51005 0.0
C403 C 0.07458 0.45115 0.29538 0.0
O404 O 0.04268 0.44835 0.42071 0.0
O405 O 0.06344 0.44255 0.3228 0.0
C406 C 0.47945 0.59139 0.41273 0.0
O407 O 0.47956 0.59716 0.45794 0.0
Cd408 Cd 0.49964 0.61771 0.49969 0.0
O409 O 0.49083 0.59642 0.38333 0.0
Cd410 Cd 0.51607 0.61694 0.38563 0.0
C411 C 0.52316 0.60424 0.50187 0.0
O412 O 0.50864 0.63286 0.42274 0.0
O413 O 0.5317 0.64274 0.41476 0.0
O414 O 0.51458 0.61742 0.28841 0.0
C415 C 0.52095 0.64397 0.43011 0.0
O416 O 0.51641 0.60919 0.5295 0.0
C417 C 0.52757 0.62017 0.28047 0.0
O418 O 0.5236 0.60493 0.45056 0.0
O419 O 0.53497 0.62075 0.32168 0.0
C420 C 0.09657 0.59519 0.42338 0.0
O421 O 0.10079 0.59906 0.47171 0.0
Cd422 Cd 0.10121 0.61855 0.52215 0.0
O423 O 0.09241 0.60232 0.39391 0.0
Cd424 Cd 0.09085 0.62488 0.40249 0.0
C425 C 0.06542 0.60928 0.50318 0.0
O426 O 0.112 0.63789 0.45905 0.0
O427 O 0.10026 0.6491 0.44272 0.0
O428 O 0.0985 0.63083 0.30885 0.0
C429 C 0.11075 0.64903 0.46674 0.0
O430 O 0.07532 0.61053 0.53561 0.0
C431 C 0.08886 0.63422 0.2974 0.0
O432 O 0.06832 0.61318 0.45397 0.0
O433 O 0.07974 0.63245 0.33405 0.0
C434 C 0.40418 0.48946 0.45347 0.0
O435 O 0.4045 0.48597 0.50235 0.0
Cd436 Cd 0.39105 0.46249 0.54155 0.0
O437 O 0.39588 0.48001 0.41895 0.0
Cd438 Cd 0.37763 0.45367 0.41556 0.0
C439 C 0.40316 0.4451 0.45532 0.0
O440 O 0.36818 0.45438 0.50101 0.0
O441 O 0.35769 0.43291 0.46571 0.0
O442 O 0.36325 0.45974 0.35695 0.0
C443 C 0.35864 0.44108 0.5048 0.0
O444 O 0.40282 0.45008 0.50178 0.0
C445 C 0.3618 0.45084 0.31985 0.0
O446 O 0.39533 0.44529 0.41664 0.0
O447 O 0.36816 0.44346 0.3265 0.0
C448 C 0.48937 0.88004 0.43445 0.0
O449 O 0.48966 0.87779 0.4847 0.0
Cd450 Cd 0.5117 0.88622 0.53575 0.0
O451 O 0.50101 0.88546 0.40662 0.0
Cd452 Cd 0.52682 0.89293 0.41874 0.0
C453 C 0.53011 0.92167 0.49008 0.0
O454 O 0.52661 0.87804 0.49395 0.0
O455 O 0.54732 0.89682 0.47255 0.0
O456 O 0.52774 0.87811 0.34635 0.0
C457 C 0.54026 0.88562 0.50184 0.0
O458 O 0.52345 0.9128 0.52854 0.0
C459 C 0.53673 0.8888 0.31773 0.0
O460 O 0.53234 0.91723 0.44517 0.0
O461 O 0.5407 0.90153 0.33526 0.0
C462 C 0.25453 0.43808 0.89173 0.0
O463 O 0.25597 0.43824 0.84078 0.0
Cd464 Cd 0.26738 0.42694 0.79255 0.0
O465 O 0.26058 0.43292 0.92189 0.0
Cd466 Cd 0.27725 0.42322 0.91091 0.0
C467 C 0.25057 0.39297 0.85182 0.0
O468 O 0.29083 0.43471 0.8292 0.0
O469 O 0.29097 0.41539 0.85716 0.0
O470 O 0.29555 0.43986 0.97314 0.0
C471 C 0.29541 0.42574 0.82341 0.0
O472 O 0.25254 0.40077 0.81 0.0
C473 C 0.29387 0.43011 0.00689 0.0
O474 O 0.25755 0.39858 0.89537 0.0
O475 O 0.28396 0.4171 -0.00308 0.0
C476 C 0.59773 0.83181 0.91516 0.0
O477 O 0.60141 0.83343 0.86573 0.0
Cd478 Cd 0.60681 0.85371 0.80981 0.0
O479 O 0.59685 0.84179 0.9407 0.0
Cd480 Cd 0.60125 0.86655 0.91886 0.0
C481 C 0.63628 0.87989 0.87837 0.0
O482 O 0.58851 0.85952 0.83353 0.0
O483 O 0.59863 0.88242 0.8527 0.0
O484 O 0.58052 0.86205 0.97372 0.0
C485 C 0.59056 0.87201 0.82133 0.0
O486 O 0.63102 0.87198 0.83658 0.0
C487 C 0.58758 0.87245 0.00641 0.0
O488 O 0.628 0.87978 0.91587 0.0
O489 O 0.60127 0.88006 -0.00058 0.0
C490 C 0.16468 0.75293 0.90408 0.0
O491 O 0.16522 0.7538 0.8529 0.0
Cd492 Cd 0.14827 0.73752 0.78908 0.0
O493 O 0.1539 0.74249 0.92824 0.0
Cd494 Cd 0.13033 0.72165 0.8971 0.0
C495 C 0.12107 0.74376 0.8286 0.0
O496 O 0.14136 0.71431 0.827 0.0
O497 O 0.11799 0.70214 0.83032 0.0
O498 O 0.13186 0.71033 0.98028 0.0
C499 C 0.12962 0.70385 0.80915 0.0
O500 O 0.12988 0.7447 0.79178 0.0
C501 C 0.11826 0.70371 0.98949 0.0
O502 O 0.11964 0.73664 0.87181 0.0
O503 O 0.11032 0.70589 0.95679 0.0
C504 C 0.20256 0.98331 0.6483 0.0
C505 C 0.20567 0.97209 0.63872 0.0
C506 C 0.20513 0.99375 0.60857 0.0
C507 C 0.21051 0.99263 0.55758 0.0
C508 C 0.21396 0.98148 0.54809 0.0
C509 C 0.21169 0.97145 0.58921 0.0
C510 C 0.20175 0.00573 0.62068 0.0
C511 C 0.21941 0.97976 0.49378 0.0
C512 C 0.20027 0.00703 0.43537 0.0
C513 C 0.2136 0.01935 0.4221 0.0
C514 C 0.19909 -0.00163 0.47993 0.0
C515 C 0.21144 0.00236 0.51281 0.0
C516 C 0.22471 0.01526 0.50144 0.0
C517 C 0.2257 0.02351 0.45563 0.0
C518 C 0.1848 0.98456 0.49021 0.0
C519 C 0.23796 0.02009 0.53667 0.0
H520 H 0.19806 0.9839 0.68694 0.0
H521 H 0.21405 0.96274 0.58185 0.0
H522 H 0.21111 0.0165 0.60943 0.0
H523 H 0.19228 0.00412 0.59625 0.0
H524 H 0.19917 0.00601 0.66401 0.0
H525 H 0.22205 0.97083 0.49359 0.0
H526 H 0.21099 0.97738 0.46259 0.0
H527 H 0.22929 0.99005 0.48198 0.0
H528 H 0.19092 0.00371 0.40928 0.0
H529 H 0.236 0.03306 0.4455 0.0
H530 H 0.18093 0.9846 0.53178 0.0
H531 H 0.18638 0.97498 0.48687 0.0
H532 H 0.17618 0.98315 0.46131 0.0
H533 H 0.2351 0.02017 0.57972 0.0
H534 H 0.24694 0.03112 0.52563 0.0
H535 H 0.242 0.01226 0.53279 0.0
C536 C 0.03226 0.24137 0.50819 0.0
C537 C 0.03066 0.22989 0.54108 0.0
C538 C 0.02429 0.23855 0.46012 0.0
C539 C 0.01425 0.22395 0.4459 0.0
C540 C 0.01322 0.21233 0.47748 0.0
C541 C 0.02161 0.21546 0.5243 0.0
C542 C 0.02606 0.25117 0.42619 0.0
C543 C 0.00248 0.1966 0.46407 0.0
C544 C 0.97937 0.21435 0.37248 0.0
C545 C 0.98169 0.20945 0.32303 0.0
C546 C 0.9902 0.21975 0.41226 0.0
C547 C 0.00377 0.22067 0.40133 0.0
C548 C 0.0065 0.21673 0.34992 0.0
C549 C -0.0047 0.2109 0.31159 0.0
C550 C 0.98678 0.22356 0.46708 0.0
C551 C 0.02101 0.21807 0.33626 0.0
H552 H 0.03936 0.25255 0.52088 0.0
H553 H 0.02033 0.20654 0.54962 0.0
H554 H 0.02663 0.249 0.38268 0.0
H555 H 0.01647 0.25262 0.43188 0.0
H556 H 0.03599 0.26153 0.43734 0.0
H557 H 0.00349 0.18886 0.49155 0.0
H558 H 0.99121 0.19471 0.46713 0.0
H559 H 0.00407 0.1941 0.42201 0.0
H560 H 0.96881 0.21321 0.38115 0.0
H561 H -0.00287 0.2073 0.27285 0.0
H562 H -0.00472 0.23469 0.47906 0.0
H563 H 0.98674 0.21589 0.49775 0.0
H564 H 0.97602 0.22299 0.46799 0.0
H565 H 0.03008 0.22876 0.34981 0.0
H566 H 0.02218 0.21689 0.29225 0.0
H567 H 0.02212 0.20946 0.35767 0.0
C568 C 0.77566 0.76827 0.38222 0.0
C569 C 0.77208 0.7536 0.38085 0.0
C570 C 0.77117 0.77373 0.42518 0.0
C571 C 0.76316 0.76436 0.46825 0.0
C572 C 0.76002 0.74969 0.46815 0.0
C573 C 0.7644 0.74443 0.42411 0.0
C574 C 0.77456 0.78938 0.42351 0.0
C575 C 0.75176 0.73946 0.51398 0.0
C576 C 0.76074 0.78153 0.59954 0.0
C577 C 0.74666 0.77958 0.59633 0.0
C578 C 0.76624 0.77656 0.55826 0.0
C579 C 0.75756 0.76975 0.51229 0.0
C580 C 0.74345 0.76804 0.50831 0.0
C581 C 0.73811 0.77285 0.55068 0.0
C582 C 0.78124 0.77835 0.56427 0.0
C583 C 0.73398 0.76107 0.45939 0.0
H584 H 0.78153 0.77538 0.34871 0.0
H585 H 0.76168 0.73311 0.4233 0.0
H586 H 0.76425 0.78971 0.42204 0.0
H587 H 0.7804 0.79519 0.4607 0.0
H588 H 0.7813 0.79537 0.38798 0.0
H589 H 0.7511 0.7287 0.50958 0.0
H590 H 0.75707 0.74434 0.55307 0.0
H591 H 0.74053 0.7377 0.51568 0.0
H592 H 0.76734 0.78662 0.63501 0.0
H593 H 0.72724 0.77137 0.54802 0.0
H594 H 0.78828 0.7848 0.5301 0.0
H595 H 0.78048 0.76751 0.56308 0.0
H596 H 0.78659 0.78386 0.60263 0.0
H597 H 0.7398 0.76701 0.42231 0.0
H598 H 0.72347 0.76101 0.4618 0.0
H599 H 0.73164 0.74967 0.45515 0.0
C600 C 0.76961 0.97434 0.51979 0.0
C601 C 0.76174 0.97423 0.56536 0.0
C602 C 0.77079 0.98285 0.47467 0.0
C603 C 0.76427 0.99172 0.47605 0.0
C604 C 0.75555 0.99093 0.52061 0.0
C605 C 0.75425 0.98203 0.56457 0.0
C606 C 0.77982 0.98309 0.42708 0.0
C607 C 0.74863 0.00039 0.52397 0.0
C608 C 0.78567 0.0271 0.39955 0.0
C609 C 0.77732 0.02434 0.35272 0.0
C610 C 0.78117 0.01676 0.44096 0.0
C611 C 0.76823 0.00317 0.43453 0.0
C612 C 0.75957 0.00044 0.38778 0.0
C613 C 0.76415 0.01118 0.34756 0.0
C614 C 0.79049 0.02023 0.49098 0.0
C615 C 0.74587 0.98597 0.37915 0.0
H616 H 0.77529 0.96819 0.52016 0.0
H617 H 0.74817 0.98199 0.59986 0.0
H618 H 0.77411 0.98232 0.38864 0.0
H619 H 0.79029 0.99356 0.4266 0.0
H620 H 0.78227 0.97403 0.42873 0.0
H621 H 0.74062 -0.00295 0.5575 0.0
H622 H 0.75723 0.01189 0.53072 0.0
H623 H 0.74307 4e-05 0.48561 0.0
H624 H 0.79582 0.03733 0.40359 0.0
H625 H 0.75777 0.00902 0.311 0.0
H626 H 0.79518 0.01293 0.49326 0.0
H627 H 0.78376 0.0183 0.5277 0.0
H628 H 0.79958 0.03171 0.49146 0.0
H629 H 0.74875 0.97728 0.3745 0.0
H630 H 0.73978 0.98601 0.34269 0.0
H631 H 0.73859 0.9831 0.41473 0.0
C632 C 0.01104 0.77416 0.56532 0.0
C633 C 0.00837 0.78106 0.60846 0.0
C634 C 0.00107 0.76815 0.52271 0.0
C635 C 0.98809 0.76887 0.52418 0.0
C636 C 0.985 0.77511 0.56915 0.0
C637 C -0.00473 0.78128 0.61056 0.0
C638 C 0.00479 0.76176 0.47489 0.0
C639 C 0.97113 0.77584 0.57247 0.0
C640 C 0.97182 0.77164 0.3924 0.0
C641 C 0.96036 0.75733 0.38534 0.0
C642 C 0.98104 0.77543 0.43709 0.0
C643 C 0.97856 0.76469 0.47616 0.0
C644 C 0.96691 0.75025 0.46973 0.0
C645 C 0.95798 0.74669 0.42392 0.0
C646 C -0.00652 0.79092 0.4423 0.0
C647 C 0.96385 0.73863 0.51129 0.0
H648 H 0.02117 0.77395 0.56384 0.0
H649 H -0.0069 0.78641 0.64442 0.0
H650 H -0.00445 0.75081 0.46494 0.0
H651 H 0.00682 0.7688 0.43903 0.0
H652 H 0.01463 0.76081 0.48225 0.0
H653 H 0.96961 0.77944 0.61289 0.0
H654 H 0.97141 0.78362 0.54186 0.0
H655 H 0.96155 0.76503 0.56342 0.0
H656 H 0.97378 0.77988 0.36237 0.0
H657 H 0.94911 0.73562 0.41846 0.0
H658 H 0.00396 0.79099 0.44586 0.0
H659 H -0.00787 0.79596 0.47953 0.0
H660 H -0.00582 0.7978 0.40729 0.0
H661 H 0.9735 0.73726 0.51605 0.0
H662 H 0.95433 0.72793 0.50029 0.0
H663 H 0.96174 0.74202 0.55113 0.0
C664 C 0.24429 0.2169 0.47056 0.0
C665 C 0.23523 0.20932 0.42698 0.0
C666 C 0.23898 0.22127 0.51441 0.0
C667 C 0.22433 0.21816 0.51412 0.0
C668 C 0.21503 0.21017 0.4709 0.0
C669 C 0.22057 0.20574 0.428 0.0
C670 C 0.24913 0.22955 0.56035 0.0
C671 C 0.1994 0.20677 0.46896 0.0
C672 C 0.20776 0.22082 0.64642 0.0
C673 C 0.20992 0.23501 0.64362 0.0
C674 C 0.21229 0.21513 0.60435 0.0
C675 C 0.21892 0.22376 0.55809 0.0
C676 C 0.22072 0.23792 0.5543 0.0
C677 C 0.21631 0.24343 0.59738 0.0
C678 C 0.21034 0.20004 0.61003 0.0
C679 C 0.22752 0.24734 0.50509 0.0
H680 H 0.25561 0.21964 0.47003 0.0
H681 H 0.21353 0.19993 0.39426 0.0
H682 H 0.25085 0.24077 0.56203 0.0
H683 H 0.24423 0.22421 0.5994 0.0
H684 H 0.25991 0.23025 0.55612 0.0
H685 H 0.19343 0.1999 0.43366 0.0
H686 H 0.19359 0.20105 0.50633 0.0
H687 H 0.19907 0.21708 0.4668 0.0
H688 H 0.20289 0.21428 0.68222 0.0
H689 H 0.21793 0.25438 0.59498 0.0
H690 H 0.22113 0.20073 0.60952 0.0
H691 H 0.20404 0.19312 0.57539 0.0
H692 H 0.20463 0.19459 0.648 0.0
H693 H 0.23894 0.24979 0.50066 0.0
H694 H 0.22748 0.25781 0.50736 0.0
H695 H 0.22156 0.24142 0.46819 0.0
C696 C 0.87464 0.33954 0.76649 0.0
C697 C 0.88884 0.35135 0.76132 0.0
C698 C 0.8709 0.3296 0.80904 0.0
C699 C 0.88151 0.33176 0.84816 0.0
C700 C 0.89576 0.34391 0.84412 0.0
C701 C 0.89933 0.35348 0.80018 0.0
C702 C 0.85567 0.3166 0.81137 0.0
C703 C 0.90723 0.34674 0.88597 0.0
C704 C 0.86622 0.31239 0.98091 0.0
C705 C 0.86819 0.30029 0.9762 0.0
C706 C 0.87101 0.32301 0.94034 0.0
C707 C 0.87757 0.32125 0.89335 0.0
C708 C 0.87963 0.30906 0.88839 0.0
C709 C 0.87508 0.29879 0.93034 0.0
C710 C 0.86891 0.33602 0.94754 0.0
C711 C 0.88629 0.30668 0.83824 0.0
H712 H 0.86655 0.33775 0.7361 0.0
H713 H 0.91031 0.36261 0.79617 0.0
H714 H 0.85616 0.30636 0.81087 0.0
H715 H 0.85028 0.31674 0.84959 0.0
H716 H 0.8488 0.31636 0.77707 0.0
H717 H 0.91759 0.35702 0.87817 0.0
H718 H 0.90321 0.34736 0.92671 0.0
H719 H 0.9095 0.33758 0.88656 0.0
H720 H 0.86106 0.31366 0.01672 0.0
H721 H 0.87659 0.28942 0.9267 0.0
H722 H 0.86121 0.33579 0.91669 0.0
H723 H 0.87941 0.34627 0.94157 0.0
H724 H 0.86459 0.33629 0.98815 0.0
H725 H 0.87943 0.30552 0.80267 0.0
H726 H 0.88738 0.29679 0.84119 0.0
H727 H 0.89721 0.31625 0.8308 0.0
C728 C 0.62665 0.55093 0.79068 0.0
C729 C 0.62589 0.54299 0.74438 0.0
C730 C 0.6363 0.55277 0.83267 0.0
C731 C 0.64563 0.54684 0.8274 0.0
C732 C 0.64501 0.53895 0.78042 0.0
C733 C 0.63499 0.53695 0.73971 0.0
C734 C 0.63645 0.56098 0.88278 0.0
C735 C 0.65503 0.53277 0.77289 0.0
C736 C 0.67905 0.56385 0.91723 0.0
C737 C 0.67476 0.55356 0.95885 0.0
C738 C 0.66987 0.56155 0.87305 0.0
C739 C 0.65597 0.54883 0.87135 0.0
C740 C 0.65171 0.53827 0.91274 0.0
C741 C 0.66125 0.54069 0.95575 0.0
C742 C 0.67491 0.57287 0.82887 0.0
C743 C 0.63688 0.52469 0.91272 0.0
H744 H 0.61958 0.55556 0.79435 0.0
H745 H 0.63452 0.53093 0.70361 0.0
H746 H 0.63429 0.55401 0.91893 0.0
H747 H 0.64736 0.57076 0.8881 0.0
H748 H 0.62821 0.56454 0.88114 0.0
H749 H 0.65337 0.52718 0.73339 0.0
H750 H 0.66655 0.54164 0.77562 0.0
H751 H 0.65323 0.52487 0.80553 0.0
H752 H 0.68953 0.57378 0.91945 0.0
H753 H 0.65786 0.53275 0.9881 0.0
H754 H 0.66799 0.57802 0.82844 0.0
H755 H 0.67373 0.56766 0.78889 0.0
H756 H 0.68644 0.58157 0.83415 0.0
H757 H 0.6283 0.52778 0.91487 0.0
H758 H 0.63541 0.51737 0.9472 0.0
H759 H 0.63517 0.51853 0.87463 0.0
C760 C 0.44237 0.0864 0.80797 0.0
C761 C 0.4491 0.09712 0.76813 0.0
C762 C 0.43583 0.08882 0.85302 0.0
C763 C 0.43574 0.10211 0.85734 0.0
C764 C 0.44295 0.11315 0.81815 0.0
C765 C 0.4497 0.11058 0.77429 0.0
C766 C 0.42857 0.07696 0.89491 0.0
C767 C 0.44287 0.12737 0.82095 0.0
C768 C 0.40463 0.10163 0.93463 0.0
C769 C 0.41157 0.10877 0.98241 0.0
C770 C 0.41241 0.09943 0.89344 0.0
C771 C 0.42737 0.10417 0.90102 0.0
C772 C 0.43438 0.11117 0.94962 0.0
C773 C 0.42642 0.11355 0.98954 0.0
C774 C 0.40468 0.09223 0.84155 0.0
C775 C 0.45023 0.11608 0.95947 0.0
H776 H 0.44196 0.07601 0.80337 0.0
H777 H 0.45482 0.11886 0.74335 0.0
H778 H 0.43227 0.0815 0.93598 0.0
H779 H 0.4166 0.07241 0.89348 0.0
H780 H 0.43089 0.06792 0.8885 0.0
H781 H 0.44957 0.13509 0.78859 0.0
H782 H 0.43153 0.12522 0.81708 0.0
H783 H 0.44704 0.13271 0.86061 0.0
H784 H 0.39316 0.09798 0.92907 0.0
H785 H 0.43176 0.11895 0.02678 0.0
H786 H 0.40518 0.08213 0.83467 0.0
H787 H 0.4102 0.0996 0.80692 0.0
H788 H 0.39306 0.08938 0.84184 0.0
H789 H 0.45211 0.10671 0.95494 0.0
H790 H 0.45389 0.12085 0.00033 0.0
H791 H 0.45712 0.12434 0.929 0.0
C792 C 0.43021 0.33576 0.67277 0.0
C793 C 0.44502 0.34594 0.67999 0.0
C794 C 0.42246 0.32509 0.71192 0.0
C795 C 0.42964 0.32491 0.75976 0.0
C796 C 0.44443 0.3356 0.76819 0.0
C797 C 0.45201 0.34586 0.72772 0.0
C798 C 0.40682 0.31365 0.70107 0.0
C799 C 0.45234 0.336 0.81945 0.0
C800 C 0.41045 0.3059 0.88827 0.0
C801 C 0.41387 0.29471 0.89042 0.0
C802 C 0.41465 0.31536 0.84392 0.0
C803 C 0.42207 0.31325 0.80044 0.0
C804 C 0.4241 0.301 0.79996 0.0
C805 C 0.42015 0.29197 0.84548 0.0
C806 C 0.41245 0.32839 0.84621 0.0
C807 C 0.4315 0.29811 0.75335 0.0
H808 H 0.42485 0.33575 0.63548 0.0
H809 H 0.46344 0.3538 0.7333 0.0
H810 H 0.40606 0.30287 0.6961 0.0
H811 H 0.39979 0.31274 0.73574 0.0
H812 H 0.40248 0.31605 0.66406 0.0
H813 H 0.46344 0.3457 0.82139 0.0
H814 H 0.44607 0.33609 0.85522 0.0
H815 H 0.45334 0.32607 0.82212 0.0
H816 H 0.40561 0.30805 0.92312 0.0
H817 H 0.42265 0.2832 0.84697 0.0
H818 H 0.40855 0.33012 0.8069 0.0
H819 H 0.42304 0.33832 0.85496 0.0
H820 H 0.40457 0.32721 0.87815 0.0
H821 H 0.42721 0.29948 0.71426 0.0
H822 H 0.43001 0.28696 0.75505 0.0
H823 H 0.44335 0.30609 0.75436 0.0
C824 C 0.65947 0.11491 0.9068 0.0
C825 C 0.67231 0.11415 0.90803 0.0
C826 C 0.64953 0.10869 0.86428 0.0
C827 C 0.65268 0.10182 0.82157 0.0
C828 C 0.66576 0.10127 0.82203 0.0
C829 C 0.67538 0.10733 0.86564 0.0
C830 C 0.63557 0.10927 0.8655 0.0
C831 C 0.66956 0.09424 0.77656 0.0
C832 C 0.62176 0.07427 0.73434 0.0
C833 C 0.62271 0.0828 0.68961 0.0
C834 C 0.63136 0.08037 0.77801 0.0
C835 C 0.64229 0.09525 0.77622 0.0
C836 C 0.64329 0.10391 0.73116 0.0
C837 C 0.6334 0.0976 0.68855 0.0
C838 C 0.62983 0.0709 0.82598 0.0
C839 C 0.65493 0.11978 0.72764 0.0
H840 H 0.657 0.12006 0.9398 0.0
H841 H 0.68531 0.10676 0.86652 0.0
H842 H 0.63488 0.11506 0.82928 0.0
H843 H 0.62607 0.09805 0.86441 0.0
H844 H 0.63471 0.11488 0.90206 0.0
H845 H 0.68034 0.09506 0.78243 0.0
H846 H 0.66116 0.08255 0.77328 0.0
H847 H 0.66968 0.09949 0.73764 0.0
H848 H 0.61347 0.06284 0.73531 0.0
H849 H 0.63423 0.10421 0.65385 0.0
H850 H 0.62827 0.07575 0.86336 0.0
H851 H 0.63993 0.07034 0.83122 0.0
H852 H 0.6205 0.05962 0.82164 0.0
H853 H 0.6539 0.12592 0.76205 0.0
H854 H 0.65431 0.12495 0.68946 0.0
H855 H 0.66587 0.12083 0.73042 0.0
C856 C 0.88654 0.54127 0.71282 0.0
C857 C 0.90135 0.54556 0.71702 0.0
C858 C 0.87945 0.54448 0.75393 0.0
C859 C 0.8873 0.55187 0.80078 0.0
C860 C 0.90219 0.55598 0.80568 0.0
C861 C 0.90908 0.5529 0.76344 0.0
C862 C 0.86365 0.54016 0.74685 0.0
C863 C 0.91084 0.56364 0.85552 0.0
C864 C 0.87482 0.57282 0.88948 0.0
C865 C 0.86798 0.56298 0.93197 0.0
C866 C 0.88072 0.56914 0.84551 0.0
C867 C 0.88001 0.55542 0.84466 0.0
C868 C 0.8728 0.54531 0.88683 0.0
C869 C 0.86675 0.54916 0.92976 0.0
C870 C 0.88805 0.58008 0.80065 0.0
C871 C 0.87199 0.53065 0.88769 0.0
H872 H 0.88055 0.53569 0.67677 0.0
H873 H 0.92051 0.55618 0.76689 0.0
H874 H 0.85703 0.53286 0.78021 0.0
H875 H 0.86247 0.55 0.74869 0.0
H876 H 0.85912 0.53451 0.70787 0.0
H877 H 0.92218 0.56565 0.85379 0.0
H878 H 0.91126 0.57426 0.86045 0.0
H879 H 0.90544 0.55703 0.89193 0.0
H880 H 0.87575 0.58349 0.89094 0.0
H881 H 0.86156 0.54155 0.9627 0.0
H882 H 0.88349 0.57496 0.76099 0.0
H883 H 0.89985 0.58375 0.79994 0.0
H884 H 0.88673 0.58981 0.8054 0.0
H885 H 0.86703 0.52462 0.84981 0.0
H886 H 0.86555 0.52383 0.92241 0.0
H887 H 0.88315 0.53223 0.89011 0.0
C888 C 0.54941 0.63504 0.22397 0.0
C889 C 0.53444 0.62507 0.22724 0.0
C890 C 0.55538 0.64346 0.1774 0.0
C891 C 0.54614 0.64155 0.13321 0.0
C892 C 0.5315 0.63006 0.13373 0.0
C893 C 0.52575 0.62203 0.1812 0.0
C894 C 0.57107 0.65555 0.17828 0.0
C895 C 0.52146 0.62733 0.08649 0.0
C896 C 0.54983 0.67465 0.06139 0.0
C897 C 0.55613 0.67416 0.01242 0.0
C898 C 0.54721 0.66445 0.10198 0.0
C899 C 0.55065 0.6533 0.09266 0.0
C900 C 0.55744 0.65301 0.04387 0.0
C901 C 0.56024 0.66359 0.00433 0.0
C902 C 0.54027 0.66535 0.15413 0.0
C903 C 0.56103 0.64116 0.0322 0.0
H904 H 0.5562 0.63733 0.25948 0.0
H905 H 0.51421 0.61411 0.18343 0.0
H906 H 0.57634 0.65671 0.13849 0.0
H907 H 0.57147 0.66602 0.18735 0.0
H908 H 0.57744 0.65367 0.20965 0.0
H909 H 0.51149 0.61642 0.08893 0.0
H910 H 0.5181 0.63572 0.08609 0.0
H911 H 0.52709 0.62814 0.04778 0.0
H912 H 0.54679 0.68292 0.06773 0.0
H913 H 0.56504 0.66317 0.96615 0.0
H914 H 0.5467 0.66518 0.18919 0.0
H915 H 0.52917 0.65575 0.15772 0.0
H916 H 0.53941 0.67537 0.15655 0.0
H917 H 0.56599 0.63901 0.0679 0.0
H918 H 0.56857 0.64396 -0.00266 0.0
H919 H 0.55084 0.6309 0.02265 0.0
C920 C 0.36738 0.90376 0.23489 0.0
C921 C 0.36583 0.91089 0.27979 0.0
C922 C 0.35731 0.89916 0.19243 0.0
C923 C 0.34518 0.90133 0.19613 0.0
C924 C 0.34373 0.90879 0.24097 0.0
C925 C 0.35422 0.91369 0.28197 0.0
C926 C 0.35944 0.89165 0.14433 0.0
C927 C 0.33074 0.91095 0.24693 0.0
C928 C 0.32384 0.89718 0.06833 0.0
C929 C 0.31323 0.88238 0.07065 0.0
C930 C 0.33423 0.90361 0.10938 0.0
C931 C 0.33365 0.8951 0.15438 0.0
C932 C 0.32243 0.88036 0.15828 0.0
C933 C 0.31248 0.87409 0.11578 0.0
C934 C 0.34626 0.91924 0.10323 0.0
C935 C 0.32119 0.87109 0.20655 0.0
H936 H 0.37641 0.90167 0.23321 0.0
H937 H 0.35294 0.91908 0.31707 0.0
H938 H 0.35069 0.88005 0.14339 0.0
H939 H 0.35868 0.89677 0.10631 0.0
H940 H 0.37012 0.89206 0.14532 0.0
H941 H 0.33162 0.91761 0.28294 0.0
H942 H 0.3295 0.91634 0.21056 0.0
H943 H 0.32067 0.90018 0.25065 0.0
H944 H 0.3245 0.90353 0.03301 0.0
H945 H 0.30421 0.86265 0.11752 0.0
H946 H 0.35688 0.91961 0.0993 0.0
H947 H 0.34693 0.92566 0.13959 0.0
H948 H 0.34469 0.92458 0.06726 0.0
H949 H 0.33063 0.86927 0.20755 0.0
H950 H 0.31104 0.86031 0.20572 0.0
H951 H 0.32141 0.87679 0.24447 0.0
C952 C 0.087 0.45549 0.20592 0.0
C953 C 0.07891 0.44593 0.24762 0.0
C954 C 0.09193 0.45065 0.1622 0.0
C955 C 0.08916 0.43609 0.16159 0.0
C956 C 0.08105 0.42645 0.20387 0.0
C957 C 0.07579 0.43142 0.24587 0.0
C958 C 0.10011 0.46109 0.11683 0.0
C959 C 0.07827 0.41099 0.20558 0.0
C960 C 0.09088 0.41786 0.03224 0.0
C961 C 0.10501 0.41996 0.03458 0.0
C962 C 0.08575 0.42349 0.07246 0.0
C963 C 0.0948 0.4309 0.11703 0.0
C964 C 0.10903 0.43286 0.11993 0.0
C965 C 0.11408 0.4276 0.07798 0.0
C966 C 0.07071 0.4216 0.06709 0.0
C967 C 0.11881 0.44026 0.16775 0.0
H968 H 0.0894 0.46671 0.20739 0.0
H969 H 0.06972 0.42408 0.27862 0.0
H970 H 0.11141 0.46307 0.11495 0.0
H971 H 0.09486 0.45625 0.07759 0.0
H972 H 0.10054 0.47173 0.12176 0.0
H973 H 0.0721 0.40501 0.24212 0.0
H974 H 0.07206 0.4049 0.16938 0.0
H975 H 0.08879 0.41107 0.20494 0.0
H976 H 0.08396 0.41213 -0.00187 0.0
H977 H 0.12501 0.42919 0.07965 0.0
H978 H 0.07131 0.43236 0.07003 0.0
H979 H 0.06367 0.41476 0.10059 0.0
H980 H 0.06543 0.41642 0.02823 0.0
H981 H 0.12083 0.45156 0.17179 0.0
H982 H 0.12946 0.44066 0.16425 0.0
H983 H 0.11336 0.43437 0.20541 0.0
C984 C 0.08412 0.65147 0.24527 0.0
C985 C 0.0895 0.64176 0.24665 0.0
C986 C 0.08714 0.66094 0.20151 0.0
C987 C 0.09539 0.66037 0.15762 0.0
C988 C 0.09981 0.64976 0.15689 0.0
C989 C 0.097 0.6407 0.20192 0.0
C990 C 0.08249 0.67229 0.20426 0.0
C991 C 0.10823 0.64851 0.10993 0.0
C992 C 0.09794 0.68106 0.02921 0.0
C993 C 0.11192 0.69323 0.03417 0.0
C994 C 0.09234 0.67021 0.06912 0.0
C995 C 0.1008 0.67186 0.11556 0.0
C996 C 0.1147 0.68444 0.12161 0.0
C997 C 0.12019 0.69487 0.08035 0.0
C998 C 0.07765 0.65677 0.06074 0.0
C999 C 0.12388 0.68678 0.17132 0.0
H1000 H 0.07838 0.65236 0.28 0.0
H1001 H 0.10106 0.63311 0.20281 0.0
H1002 H 0.09224 0.68322 0.20979 0.0
H1003 H 0.07719 0.67258 0.16605 0.0
H1004 H 0.07485 0.67028 0.2382 0.0
H1005 H 0.109 0.63844 0.11212 0.0
H1006 H 0.10301 0.64856 0.07115 0.0
H1007 H 0.11942 0.65805 0.10969 0.0
H1008 H 0.09161 0.67973 0.99309 0.0
H1009 H 0.13098 0.70433 0.08419 0.0
H1010 H 0.07041 0.65511 0.09562 0.0
H1011 H 0.07897 0.64702 0.05812 0.0
H1012 H 0.07221 0.65743 0.02335 0.0
H1013 H 0.11753 0.6859 0.20819 0.0
H1014 H 0.13399 0.69759 0.1713 0.0
H1015 H 0.12696 0.6782 0.17378 0.0
C1016 C 0.34235 0.45352 0.27417 0.0
C1017 C 0.35247 0.44865 0.27264 0.0
C1018 C 0.33271 0.45073 0.23126 0.0
C1019 C 0.33341 0.44314 0.1854 0.0
C1020 C 0.34384 0.43851 0.18301 0.0
C1021 C 0.35317 0.4412 0.227 0.0
C1022 C 0.32158 0.45565 0.23548 0.0
C1023 C 0.34505 0.43063 0.1342 0.0
C1024 C 0.30015 0.42356 0.09572 0.0
C1025 C 0.3036 0.43366 0.05386 0.0
C1026 C 0.30971 0.42658 0.13921 0.0
C1027 C 0.32309 0.4399 0.14017 0.0
C1028 C 0.32661 0.45015 0.09806 0.0
C1029 C 0.31675 0.44696 0.05559 0.0
C1030 C 0.30551 0.41552 0.184 0.0
C1031 C 0.34088 0.46438 0.09745 0.0
H1032 H 0.34171 0.45919 0.30958 0.0
H1033 H 0.36103 0.43748 0.22567 0.0
H1034 H 0.32288 0.463 0.20137 0.0
H1035 H 0.31044 0.44608 0.23272 0.0
H1036 H 0.32252 0.46147 0.27391 0.0
H1037 H 0.35414 0.42828 0.13786 0.0
H1038 H 0.33475 0.42017 0.12853 0.0
H1039 H 0.34679 0.43726 0.09734 0.0
H1040 H 0.28998 0.41329 0.0945 0.0
H1041 H 0.31951 0.45475 0.02303 0.0
H1042 H 0.30562 0.4206 0.22333 0.0
H1043 H 0.31357 0.41176 0.18665 0.0
H1044 H 0.29453 0.40586 0.17783 0.0
H1045 H 0.34185 0.4708 0.13419 0.0
H1046 H 0.342 0.47111 0.06142 0.0
H1047 H 0.3501 0.4622 0.09792 0.0
C1048 C 0.55 0.89763 0.23022 0.0
C1049 C 0.54311 0.88649 0.26849 0.0
C1050 C 0.55697 0.89582 0.18518 0.0
C1051 C 0.55736 0.88271 0.17931 0.0
C1052 C 0.55029 0.87138 0.2176 0.0
C1053 C 0.5431 0.87334 0.26142 0.0
C1054 C 0.56406 0.90796 0.14426 0.0
C1055 C 0.55069 0.85734 0.21315 0.0
C1056 C 0.56526 0.87112 0.04479 0.0
C1057 C 0.58008 0.8756 0.04994 0.0
C1058 C 0.55784 0.87385 0.08586 0.0
C1059 C 0.56535 0.88085 0.13371 0.0
C1060 C 0.58035 0.88547 0.13902 0.0
C1061 C 0.58761 0.88295 0.09663 0.0
C1062 C 0.54193 0.86909 0.07829 0.0
C1063 C 0.58863 0.8927 0.19002 0.0
H1064 H 0.54996 0.90778 0.23557 0.0
H1065 H 0.53789 0.86475 0.29123 0.0
H1066 H 0.57599 0.91228 0.1437 0.0
H1067 H 0.55991 0.90373 0.10321 0.0
H1068 H 0.56204 0.9171 0.15308 0.0
H1069 H 0.54468 0.84963 0.2465 0.0
H1070 H 0.54588 0.85188 0.17422 0.0
H1071 H 0.56215 0.85973 0.21374 0.0
H1072 H 0.55948 0.86558 0.00834 0.0
H1073 H 0.59906 0.88637 0.10062 0.0
H1074 H 0.54011 0.87841 0.08553 0.0
H1075 H 0.53526 0.86051 0.10814 0.0
H1076 H 0.53798 0.86473 0.03714 0.0
H1077 H 0.58794 0.90262 0.19864 0.0
H1078 H 0.6003 0.89581 0.18736 0.0
H1079 H 0.58365 0.88519 0.22475 0.0
C1080 C 0.21152 0.97421 0.9264 0.0
C1081 C 0.19938 0.96058 0.91536 0.0
C1082 C 0.2121 0.98183 0.9735 0.0
C1083 C 0.20035 0.97549 0.01057 0.0
C1084 C 0.18829 0.96152 0.00039 0.0
C1085 C 0.18789 0.95427 0.95258 0.0
C1086 C 0.22508 -0.00321 0.98295 0.0
C1087 C 0.17573 0.95432 0.0396 0.0
C1088 C 0.20852 0.99129 0.1516 0.0
C1089 C 0.20294 0.00083 0.14958 0.0
C1090 C 0.20732 0.98258 0.10715 0.0
C1091 C 0.20057 0.98364 0.05947 0.0
C1092 C 0.19447 0.99288 0.05784 0.0
C1093 C 0.19562 0.00129 0.10324 0.0
C1094 C 0.21369 0.97263 0.11061 0.0
C1095 C 0.1873 0.99434 0.0074 0.0
H1096 H 0.22038 0.9791 0.89749 0.0
H1097 H 0.17853 0.94366 0.94427 0.0
H1098 H 0.22146 0.00497 0.98539 0.0
H1099 H 0.23031 -0.00295 0.02203 0.0
H1100 H 0.23335 0.0001 0.9504 0.0
H1101 H 0.16752 0.94311 0.02688 0.0
H1102 H 0.17979 0.95378 0.08033 0.0
H1103 H 0.17027 0.96091 0.04324 0.0
H1104 H 0.21412 0.99088 0.18759 0.0
H1105 H 0.1914 0.00874 0.10148 0.0
H1106 H 0.22302 0.97645 0.08238 0.0
H1107 H 0.20547 0.9614 0.09829 0.0
H1108 H 0.21754 0.97225 0.15196 0.0
H1109 H 0.1954 -0.00117 0.97418 0.0
H1110 H 0.18264 0.0016 0.01343 0.0
H1111 H 0.17847 0.98349 -0.00584 0.0
C1112 C 0.97574 0.21124 0.03707 0.0
C1113 C 0.96462 0.19716 0.04971 0.0
C1114 C 0.98247 0.21431 0.98642 0.0
C1115 C 0.97762 0.20308 0.94731 0.0
C1116 C 0.96575 0.18907 0.95878 0.0
C1117 C 0.95952 0.18619 0.01039 0.0
C1118 C -0.00468 0.22931 0.97599 0.0
C1119 C 0.96002 0.17699 0.91738 0.0
C1120 C -0.00649 0.21631 0.80819 0.0
C1121 C 0.00534 0.21385 0.8093 0.0
C1122 C 0.98375 0.21204 0.8517 0.0
C1123 C 0.9862 0.20556 0.89748 0.0
C1124 C -0.00223 0.20251 0.8977 0.0
C1125 C 0.00708 0.20652 0.85322 0.0
C1126 C 0.97121 0.21499 0.84962 0.0
C1127 C 0.00088 0.19583 0.94621 0.0
H1128 H 0.97963 0.2197 0.06764 0.0
H1129 H 0.95071 0.17535 0.02006 0.0
H1130 H 0.00532 0.22852 0.97089 0.0
H1131 H -0.0063 0.23388 0.93809 0.0
H1132 H -0.00285 0.23702 0.00948 0.0
H1133 H 0.9494 0.16755 0.92964 0.0
H1134 H 0.95869 0.18104 0.87767 0.0
H1135 H 0.96795 0.17314 0.91191 0.0
H1136 H -0.00792 0.22184 0.77393 0.0
H1137 H 0.01618 0.20454 0.85416 0.0
H1138 H 0.97338 0.22408 0.87738 0.0
H1139 H 0.961 0.20527 0.86326 0.0
H1140 H 0.96953 0.21799 0.80836 0.0
H1141 H 0.00364 0.20324 0.98143 0.0
H1142 H 0.01005 0.19376 0.93904 0.0
H1143 H 0.99109 0.18537 0.95717 0.0
C1144 C 0.73388 0.75714 0.87637 0.0
C1145 C 0.73723 0.77173 0.87547 0.0
C1146 C 0.73742 0.75145 0.92133 0.0
C1147 C 0.74426 0.76056 0.96639 0.0
C1148 C 0.74713 0.77513 0.96645 0.0
C1149 C 0.74367 0.78057 0.92078 0.0
C1150 C 0.73436 0.73591 0.91975 0.0
C1151 C 0.75428 0.78511 0.01407 0.0
C1152 C 0.74631 0.74464 0.10113 0.0
C1153 C 0.76074 0.74757 0.10063 0.0
C1154 C 0.74063 0.74855 0.05714 0.0
C1155 C 0.74958 0.75534 0.01166 0.0
C1156 C 0.76402 0.75791 0.01042 0.0
C1157 C 0.76946 0.75408 0.0551 0.0
C1158 C 0.72523 0.74582 0.05992 0.0
C1159 C 0.77385 0.76498 0.96233 0.0
H1160 H 0.72889 0.75029 0.84136 0.0
H1161 H 0.74613 0.79181 0.92043 0.0
H1162 H 0.7448 0.73584 0.91959 0.0
H1163 H 0.72827 0.72993 0.95634 0.0
H1164 H 0.728 0.72995 0.88349 0.0
H1165 H 0.75463 0.79572 0.0095 0.0
H1166 H 0.74837 0.77984 0.05186 0.0
H1167 H 0.7656 0.78726 0.01862 0.0
H1168 H 0.73957 0.73961 0.13636 0.0
H1169 H 0.78059 0.75623 0.05437 0.0
H1170 H 0.71895 0.73954 0.02408 0.0
H1171 H 0.72537 0.75637 0.05938 0.0
H1172 H 0.71945 0.73975 0.09692 0.0
H1173 H 0.76848 0.75893 0.92487 0.0
H1174 H 0.78449 0.76538 0.96649 0.0
H1175 H 0.77593 0.77628 0.95741 0.0
C1176 C 0.79034 0.00648 0.83462 0.0
C1177 C 0.79231 0.99438 0.83033 0.0
C1178 C 0.79316 0.01419 0.88316 0.0
C1179 C 0.79794 0.00957 0.92845 0.0
C1180 C 0.80101 -0.00194 0.92319 0.0
C1181 C 0.79824 0.99063 0.87386 0.0
C1182 C 0.79002 0.0266 0.88697 0.0
C1183 C 0.80612 0.99284 0.97067 0.0
C1184 C 0.80993 0.03468 0.04979 0.0
C1185 C 0.79688 0.02899 0.07906 0.0
C1186 C 0.81063 0.02819 0.00138 0.0
C1187 C 0.79801 0.01567 0.98232 0.0
C1188 C 0.78499 0.00951 0.01297 0.0
C1189 C 0.78456 0.0163 0.06091 0.0
C1190 C 0.82466 0.03508 0.96957 0.0
C1191 C 0.77135 -0.00396 -0.00584 0.0
H1192 H 0.78591 0.00949 0.80075 0.0
H1193 H 0.79984 0.98131 0.87061 0.0
H1194 H 0.78018 0.02322 0.91221 0.0
H1195 H 0.79919 0.0362 0.90671 0.0
H1196 H 0.78808 0.02995 0.84671 0.0
H1197 H 0.81003 0.9853 0.95812 0.0
H1198 H 0.815 0.00219 0.99258 0.0
H1199 H 0.79696 0.98701 -0.00055 0.0
H1200 H 0.8195 0.0445 0.06378 0.0
H1201 H 0.7745 0.0118 0.08373 0.0
H1202 H 0.82319 0.03974 0.93157 0.0
H1203 H 0.82763 0.02675 0.9582 0.0
H1204 H 0.83384 0.04391 0.99245 0.0
H1205 H 0.76738 -0.00153 0.95628 0.0
H1206 H 0.76247 0.99203 0.02462 0.0
H1207 H 0.77373 0.98717 0.98517 0.0
C1208 C 0.00168 0.78667 0.88768 0.0
C1209 C 0.01374 0.78485 0.88021 0.0
C1210 C -0.00702 0.78115 0.93378 0.0
C1211 C -0.00309 0.77425 0.97406 0.0
C1212 C 0.00925 0.77258 0.96691 0.0
C1213 C 0.01739 0.77767 0.91929 0.0
C1214 C 0.9796 0.78267 0.93932 0.0
C1215 C 0.01403 0.76577 0.00999 0.0
C1216 C 0.98117 0.77443 0.11059 0.0
C1217 C 0.96951 0.76015 0.1134 0.0
C1218 C 0.99079 0.77892 0.06676 0.0
C1219 C 0.98817 0.76904 0.02399 0.0
C1220 C 0.97651 0.75449 0.02728 0.0
C1221 C 0.96744 0.75014 0.07271 0.0
C1222 C 0.00345 0.79435 0.06543 0.0
C1223 C 0.97311 0.74382 0.98158 0.0
H1224 H -0.00109 0.79217 0.85694 0.0
H1225 H 0.02688 0.77646 0.91333 0.0
H1226 H 0.96988 0.77186 0.94727 0.0
H1227 H 0.98087 0.78979 0.97418 0.0
H1228 H 0.97754 0.7874 0.90259 0.0
H1229 H 0.02396 0.7654 -0.00186 0.0
H1230 H 0.0163 0.77208 0.04805 0.0
H1231 H 0.0052 0.75451 0.01868 0.0
H1232 H 0.9827 0.78208 0.14254 0.0
H1233 H 0.95825 0.73913 0.07504 0.0
H1234 H 0.00158 0.80066 0.03383 0.0
H1235 H 0.01366 0.79439 0.05496 0.0
H1236 H 0.00499 0.80002 0.10471 0.0
H1237 H 0.96995 0.74772 0.94523 0.0
H1238 H 0.9641 0.73272 0.99176 0.0
H1239 H 0.98288 0.74308 0.97078 0.0
C1240 C 0.23334 0.21743 0.11373 0.0
C1241 C 0.24337 0.22585 0.15377 0.0
C1242 C 0.23091 0.22398 0.06911 0.0
C1243 C 0.23862 0.23936 0.06458 0.0
C1244 C 0.24872 0.24798 0.10492 0.0
C1245 C 0.251 0.24109 0.14925 0.0
C1246 C 0.22 0.2144 0.02692 0.0
C1247 C 0.257 0.26441 0.10134 0.0
C1248 C 0.23719 0.25083 0.92167 0.0
C1249 C 0.22425 0.25132 0.9237 0.0
C1250 C 0.24281 0.24807 0.96862 0.0
C1251 C 0.23544 0.24615 0.01832 0.0
C1252 C 0.22321 0.24814 0.02109 0.0
C1253 C 0.21761 0.25047 0.97345 0.0
C1254 C 0.25579 0.24585 0.96408 0.0
C1255 C 0.21526 0.24654 0.07353 0.0
H1256 H 0.2274 0.20565 0.11701 0.0
H1257 H 0.25879 0.24762 0.18013 0.0
H1258 H 0.2109 0.21673 0.02496 0.0
H1259 H 0.22522 0.21677 0.98652 0.0
H1260 H 0.21538 0.2026 0.03552 0.0
H1261 H 0.26454 0.26952 0.13595 0.0
H1262 H 0.2634 0.26791 0.06336 0.0
H1263 H 0.24926 0.26859 0.10019 0.0
H1264 H 0.24231 0.25156 0.88298 0.0
H1265 H 0.20773 0.25113 0.97496 0.0
H1266 H 0.25203 0.23402 0.96648 0.0
H1267 H 0.2635 0.25128 -0.00213 0.0
H1268 H 0.26168 0.25009 0.92528 0.0
H1269 H 0.20877 0.23482 0.08427 0.0
H1270 H 0.20775 0.25099 0.07058 0.0
H1271 H 0.22307 0.25217 0.10687 0.0
C1272 C 0.87569 0.3417 0.44422 0.0
C1273 C 0.88341 0.34044 0.4878 0.0
C1274 C 0.87251 0.33276 0.39875 0.0
C1275 C 0.8769 0.32214 0.39757 0.0
C1276 C 0.88434 0.32054 0.4421 0.0
C1277 C 0.88764 0.32984 0.48661 0.0
C1278 C 0.86474 0.3349 0.35154 0.0
C1279 C 0.8889 0.30911 0.44249 0.0
C1280 C 0.85684 0.29146 0.29781 0.0
C1281 C 0.86689 0.2958 0.25532 0.0
C1282 C 0.86016 0.29972 0.34518 0.0
C1283 C 0.87371 0.31275 0.34944 0.0
C1284 C 0.88397 0.31711 0.30686 0.0
C1285 C 0.88048 0.30846 0.26036 0.0
C1286 C 0.8491 0.29461 0.39031 0.0
C1287 C 0.89843 0.3311 0.30981 0.0
H1288 H 0.87252 0.34999 0.44489 0.0
H1289 H 0.89357 0.32884 0.52046 0.0
H1290 H 0.87158 0.33759 0.31473 0.0
H1291 H 0.85442 0.32465 0.34321 0.0
H1292 H 0.86219 0.34374 0.35881 0.0
H1293 H 0.8941 0.30893 0.4812 0.0
H1294 H 0.87929 0.29816 0.43555 0.0
H1295 H 0.8967 0.31119 0.40917 0.0
H1296 H 0.84638 0.28157 0.29408 0.0
H1297 H 0.88822 0.31182 0.22733 0.0
H1298 H 0.8453 0.30256 0.39642 0.0
H1299 H 0.85415 0.29398 0.4287 0.0
H1300 H 0.83947 0.28375 0.38191 0.0
H1301 H 0.89659 0.34051 0.31352 0.0
H1302 H 0.9053 0.33276 0.27365 0.0
H1303 H 0.90452 0.3311 0.3462 0.0
C1304 C 0.6602 0.56133 0.23913 0.0
C1305 C 0.66902 0.55492 0.23928 0.0
C1306 C 0.65151 0.56003 0.28377 0.0
C1307 C 0.6518 0.55228 0.32982 0.0
C1308 C 0.6607 0.5458 0.33026 0.0
C1309 C 0.66914 0.54711 0.28472 0.0
C1310 C 0.64196 0.56688 0.28157 0.0
C1311 C 0.66136 0.53755 0.37893 0.0
C1312 C 0.63878 0.55938 0.46319 0.0
C1313 C 0.62482 0.54715 0.46702 0.0
C1314 C 0.64775 0.5612 0.41871 0.0
C1315 C 0.6425 0.55063 0.37702 0.0
C1316 C 0.62831 0.5384 0.38031 0.0
C1317 C 0.61968 0.53677 0.42546 0.0
C1318 C 0.6629 0.5743 0.4166 0.0
C1319 C 0.62226 0.52702 0.33624 0.0
H1320 H 0.66006 0.56736 0.20395 0.0
H1321 H 0.67604 0.54224 0.28511 0.0
H1322 H 0.63039 0.55839 0.28737 0.0
H1323 H 0.64487 0.57488 0.31483 0.0
H1324 H 0.64298 0.57252 0.24263 0.0
H1325 H 0.66912 0.53348 0.37326 0.0
H1326 H 0.6647 0.54471 0.41506 0.0
H1327 H 0.65041 0.52812 0.38737 0.0
H1328 H 0.6428 0.56739 0.4954 0.0
H1329 H 0.60884 0.52733 0.42811 0.0
H1330 H 0.66419 0.58077 0.37967 0.0
H1331 H 0.67107 0.57068 0.41442 0.0
H1332 H 0.66534 0.5815 0.45235 0.0
H1333 H 0.62254 0.53221 0.29702 0.0
H1334 H 0.61088 0.51833 0.34446 0.0
H1335 H 0.62912 0.52187 0.33186 0.0
C1336 C 0.40361 0.11242 0.30548 0.0
C1337 C 0.40028 0.10303 0.26125 0.0
C1338 C 0.40923 0.11008 0.35306 0.0
C1339 C 0.41182 0.09823 0.35591 0.0
C1340 C 0.40797 0.08838 0.31209 0.0
C1341 C 0.40209 0.09083 0.26521 0.0
C1342 C 0.41297 0.12066 0.39939 0.0
C1343 C 0.41077 0.07572 0.31365 0.0
C1344 C 0.44266 0.10385 0.44774 0.0
C1345 C 0.4351 0.09537 0.49255 0.0
C1346 C 0.43516 0.10464 0.4026 0.0
C1347 C 0.41975 0.09696 0.40281 0.0
C1348 C 0.41204 0.08854 0.44822 0.0
C1349 C 0.41983 0.08775 0.49256 0.0
C1350 C 0.44374 0.11363 0.35455 0.0
C1351 C 0.3956 0.08042 0.44998 0.0
H1352 H 0.40202 0.12176 0.30262 0.0
H1353 H 0.39951 0.08359 0.23089 0.0
H1354 H 0.4083 0.11467 0.43764 0.0
H1355 H 0.42496 0.12704 0.40453 0.0
H1356 H 0.4089 0.12839 0.39276 0.0
H1357 H 0.40606 0.06841 0.27816 0.0
H1358 H 0.42268 0.07991 0.31439 0.0
H1359 H 0.40613 0.06922 0.35094 0.0
H1360 H 0.45446 0.10965 0.4474 0.0
H1361 H 0.41398 0.08119 0.52726 0.0
H1362 H 0.44133 0.12256 0.34742 0.0
H1363 H 0.44047 0.10676 0.31769 0.0
H1364 H 0.45568 0.11851 0.36018 0.0
H1365 H 0.39153 0.08821 0.44527 0.0
H1366 H 0.39126 0.07434 0.48836 0.0
H1367 H 0.39115 0.07261 0.41588 0.0
C1368 C 0.45654 0.31403 0.1765 0.0
C1369 C 0.44655 0.3163 0.14691 0.0
C1370 C 0.46264 0.32171 0.22431 0.0
C1371 C 0.45881 0.33204 0.24221 0.0
C1372 C 0.44998 0.33548 0.2095 0.0
C1373 C 0.44386 0.32747 0.16219 0.0
C1374 C 0.47199 0.31773 0.25815 0.0
C1375 C 0.44595 0.3467 0.22678 0.0
C1376 C 0.45367 0.33488 0.39155 0.0
C1377 C 0.46624 0.34795 0.4048 0.0
C1378 C 0.4514 0.32938 0.33898 0.0
C1379 C 0.46188 0.3373 0.29861 0.0
C1380 C 0.47484 0.35027 0.3121 0.0
C1381 C 0.47694 0.3554 0.36543 0.0
C1382 C 0.43755 0.31533 0.32633 0.0
C1383 C 0.48612 0.35906 0.26985 0.0
H1384 H 0.45882 0.30552 0.16449 0.0
H1385 H 0.43633 0.32942 0.13891 0.0
H1386 H 0.48156 0.32762 0.27452 0.0
H1387 H 0.46553 0.31103 0.29301 0.0
H1388 H 0.47588 0.31136 0.2348 0.0
H1389 H 0.44117 0.34985 0.19307 0.0
H1390 H 0.43784 0.34217 0.25994 0.0
H1391 H 0.45564 0.35663 0.2424 0.0
H1392 H 0.44544 0.32911 0.42215 0.0
H1393 H 0.48662 0.36559 0.37563 0.0
H1394 H 0.44015 0.30751 0.30645 0.0
H1395 H 0.43078 0.31751 0.29783 0.0
H1396 H 0.43097 0.31009 0.36306 0.0
H1397 H 0.48901 0.35198 0.24607 0.0
H1398 H 0.4962 0.36808 0.28787 0.0
H1399 H 0.48156 0.36381 0.24124 0.0
C1400 C 0.66206 0.09173 0.18785 0.0
C1401 C 0.6705 0.10697 0.18627 0.0
C1402 C 0.65312 0.08464 0.2323 0.0
C1403 C 0.65283 0.09303 0.27621 0.0
C1404 C 0.66171 0.1084 0.27557 0.0
C1405 C 0.67036 0.1152 0.2303 0.0
C1406 C 0.64364 0.06824 0.2315 0.0
C1407 C 0.6618 0.11767 0.32213 0.0
C1408 C 0.61926 0.07967 0.3627 0.0
C1409 C 0.62338 0.07524 0.40952 0.0
C1410 C 0.62855 0.0849 0.31808 0.0
C1411 C 0.64237 0.08595 0.3209 0.0
C1412 C 0.64645 0.08111 0.36751 0.0
C1413 C 0.6368 0.07566 0.41133 0.0
C1414 C 0.62374 0.08974 0.26862 0.0
C1415 C 0.6612 0.08227 0.37195 0.0
H1416 H 0.6622 0.08535 0.15382 0.0
H1417 H 0.67703 0.12699 0.22944 0.0
H1418 H 0.64531 0.06345 0.26876 0.0
H1419 H 0.63201 0.06526 0.23051 0.0
H1420 H 0.6459 0.06326 0.19598 0.0
H1421 H 0.67019 0.12934 0.31716 0.0
H1422 H 0.65098 0.11688 0.32557 0.0
H1423 H 0.66386 0.11365 0.36063 0.0
H1424 H 0.6088 0.07918 0.36113 0.0
H1425 H 0.63997 0.07226 0.4477 0.0
H1426 H 0.62501 0.08444 0.23196 0.0
H1427 H 0.63073 0.10169 0.26329 0.0
H1428 H 0.61222 0.08712 0.27142 0.0
H1429 H 0.66326 0.07717 0.3364 0.0
H1430 H 0.66224 0.07699 0.40916 0.0
H1431 H 0.66981 0.09393 0.37238 0.0
C1432 C 0.9057 0.54373 0.39233 0.0
C1433 C 0.9111 0.5532 0.43666 0.0
C1434 C 0.90068 0.54749 0.3462 0.0
C1435 C 0.9009 0.56095 0.34475 0.0
C1436 C 0.90675 0.57077 0.38869 0.0
C1437 C 0.91189 0.5668 0.43414 0.0
C1438 C 0.89469 0.53682 0.29979 0.0
C1439 C 0.90702 0.58517 0.38864 0.0
C1440 C 0.89496 0.5739 0.20923 0.0
C1441 C 0.87993 0.5687 0.21074 0.0
C1442 C 0.90204 0.57163 0.25289 0.0
C1443 C 0.89387 0.56415 0.29915 0.0
C1444 C 0.87875 0.55911 0.30118 0.0
C1445 C 0.87194 0.56136 0.25678 0.0
C1446 C 0.91815 0.57698 0.24919 0.0
C1447 C 0.8697 0.55121 0.35007 0.0
H1448 H 0.90523 0.53326 0.3939 0.0
H1449 H 0.91608 0.57414 0.46838 0.0
H1450 H 0.88282 0.5326 0.29593 0.0
H1451 H 0.89984 0.54235 0.26129 0.0
H1452 H 0.89649 0.52742 0.30533 0.0
H1453 H 0.91292 0.59202 0.42406 0.0
H1454 H 0.91225 0.59134 0.35126 0.0
H1455 H 0.89569 0.58317 0.38919 0.0
H1456 H 0.90116 0.57957 0.17362 0.0
H1457 H 0.86034 0.55743 0.25831 0.0
H1458 H 0.92005 0.56758 0.25146 0.0
H1459 H 0.92394 0.58423 0.2838 0.0
H1460 H 0.92301 0.58301 0.21111 0.0
H1461 H 0.86981 0.54087 0.35612 0.0
H1462 H 0.85821 0.54861 0.34617 0.0
H1463 H 0.87444 0.55794 0.38683 0.0
C1464 C 0.53661 0.66492 0.49026 0.0
C1465 C 0.5227 0.65456 0.4722 0.0
C1466 C 0.53838 0.672 0.53983 0.0
C1467 C 0.52596 0.66841 0.57185 0.0
C1468 C 0.51186 0.6593 0.55082 0.0
C1469 C 0.5104 0.6526 0.50074 0.0
C1470 C 0.55359 0.68211 0.56031 0.0
C1471 C 0.49835 0.65522 0.58369 0.0
C1472 C 0.5327 0.66631 0.72019 0.0
C1473 C 0.53396 0.6793 0.73954 0.0
C1474 C 0.52947 0.66237 0.66595 0.0
C1475 C 0.52778 0.67187 0.63014 0.0
C1476 C 0.52845 0.68472 0.64987 0.0
C1477 C 0.53135 0.6882 0.70474 0.0
C1478 C 0.52842 0.64833 0.64661 0.0
C1479 C 0.52693 0.69519 0.61268 0.0
H1480 H 0.54614 0.6667 0.46776 0.0
H1481 H 0.49959 0.64482 0.4864 0.0
H1482 H 0.55419 0.69178 0.58033 0.0
H1483 H 0.55653 0.67632 0.59072 0.0
H1484 H 0.56176 0.68586 0.52725 0.0
H1485 H 0.4884 0.65039 0.5582 0.0
H1486 H 0.49704 0.64707 0.61466 0.0
H1487 H 0.49925 0.66483 0.60517 0.0
H1488 H 0.53461 0.65938 0.74728 0.0
H1489 H 0.53233 0.69827 0.71966 0.0
H1490 H 0.53752 0.65081 0.61851 0.0
H1491 H 0.5181 0.6417 0.62412 0.0
H1492 H 0.52887 0.64167 0.68043 0.0
H1493 H 0.53682 0.70087 0.58709 0.0
H1494 H 0.52563 0.70353 0.63536 0.0
H1495 H 0.51749 0.68928 0.58524 0.0
C1496 C 0.31583 0.86031 0.75535 0.0
C1497 C 0.32025 0.87087 0.7961 0.0
C1498 C 0.32323 0.86357 0.70587 0.0
C1499 C 0.33544 0.8776 0.69779 0.0
C1500 C 0.34035 0.88804 0.73987 0.0
C1501 C 0.3326 0.88457 0.78844 0.0
C1502 C 0.31762 0.85226 0.66155 0.0
C1503 C 0.35351 0.90303 0.733 0.0
C1504 C 0.36309 0.88588 0.58744 0.0
C1505 C 0.35963 0.89391 0.55139 0.0
C1506 C 0.35485 0.87984 0.63428 0.0
C1507 C 0.34279 0.88177 0.6447 0.0
C1508 C 0.3387 0.88906 0.60672 0.0
C1509 C 0.34725 0.89516 0.56055 0.0
C1510 C 0.35957 0.87221 0.6741 0.0
C1511 C 0.32572 0.89107 0.61617 0.0
H1512 H 0.30619 0.84973 0.76117 0.0
H1513 H 0.33605 0.89269 0.82016 0.0
H1514 H 0.31342 0.85602 0.62783 0.0
H1515 H 0.32657 0.85083 0.6451 0.0
H1516 H 0.30874 0.84152 0.67576 0.0
H1517 H 0.35645 0.90949 0.77093 0.0
H1518 H 0.36302 0.90214 0.71948 0.0
H1519 H 0.3513 0.90911 0.70138 0.0
H1520 H 0.37263 0.88484 0.58036 0.0
H1521 H 0.34447 0.90122 0.53237 0.0
H1522 H 0.35017 0.86161 0.6865 0.0
H1523 H 0.36388 0.87898 0.71102 0.0
H1524 H 0.36818 0.87026 0.65733 0.0
H1525 H 0.31603 0.88055 0.62738 0.0
H1526 H 0.32303 0.8955 0.58004 0.0
H1527 H 0.32804 0.89872 0.65029 0.0
C1528 C 0.12028 0.43004 0.71579 0.0
C1529 C 0.10969 0.42314 0.75601 0.0
C1530 C 0.11711 0.43515 0.66841 0.0
C1531 C 0.1031 0.43349 0.66176 0.0
C1532 C 0.09246 0.42677 0.7027 0.0
C1533 C 0.09586 0.42157 0.74922 0.0
C1534 C 0.12864 0.4421 0.62521 0.0
C1535 C 0.07747 0.42502 0.69723 0.0
C1536 C 0.09704 0.45722 0.56302 0.0
C1537 C 0.08978 0.44735 0.52098 0.0
C1538 C 0.1018 0.45297 0.60865 0.0
C1539 C 0.09942 0.43859 0.61171 0.0
C1540 C 0.09272 0.4288 0.56825 0.0
C1541 C 0.08788 0.43328 0.52346 0.0
C1542 C 0.10879 0.46365 0.65453 0.0
C1543 C 0.09024 0.41346 0.56984 0.0
H1544 H 0.13094 0.4312 0.7208 0.0
H1545 H 0.08766 0.41629 0.78055 0.0
H1546 H 0.1247 0.43578 0.58714 0.0
H1547 H 0.13082 0.4533 0.6166 0.0
H1548 H 0.13903 0.44267 0.63691 0.0
H1549 H 0.07062 0.41998 0.73359 0.0
H1550 H 0.07837 0.4358 0.69036 0.0
H1551 H 0.07183 0.41811 0.66171 0.0
H1552 H 0.09851 0.46811 0.56125 0.0
H1553 H 0.08237 0.42567 0.49077 0.0
H1554 H 0.11939 0.4646 0.66543 0.0
H1555 H 0.10171 0.4596 0.69077 0.0
H1556 H 0.11063 0.47467 0.64443 0.0
H1557 H 0.10055 0.41363 0.57952 0.0
H1558 H 0.08598 0.40763 0.53096 0.0
H1559 H 0.08232 0.40719 0.6022 0.0
C1560 C 0.14179 0.70071 0.72811 0.0
C1561 C 0.12935 0.69569 0.7606 0.0
C1562 C 0.14124 0.69382 0.67909 0.0
C1563 C 0.12797 0.68159 0.66277 0.0
C1564 C 0.11557 0.67609 0.69667 0.0
C1565 C 0.1164 0.68326 0.74511 0.0
C1566 C 0.15463 0.7 0.64376 0.0
C1567 C 0.10127 0.66292 0.68087 0.0
C1568 C 0.11699 0.67165 0.51748 0.0
C1569 C 0.11807 0.65905 0.51209 0.0
C1570 C 0.12125 0.67978 0.56526 0.0
C1571 C 0.12657 0.67507 0.60867 0.0
C1572 C 0.12874 0.66301 0.60193 0.0
C1573 C 0.12453 0.65516 0.55339 0.0
C1574 C 0.11904 0.69277 0.57065 0.0
C1575 C 0.13439 0.65769 0.64736 0.0
H1576 H 0.15184 0.71033 0.74003 0.0
H1577 H 0.10681 0.67929 0.77044 0.0
H1578 H 0.1568 0.69125 0.6305 0.0
H1579 H 0.15279 0.70481 0.60689 0.0
H1580 H 0.16445 0.70859 0.66474 0.0
H1581 H 0.093 0.65943 0.71351 0.0
H1582 H 0.09688 0.66547 0.64439 0.0
H1583 H 0.10293 0.65365 0.67061 0.0
H1584 H 0.11217 0.67477 0.48526 0.0
H1585 H 0.12544 0.64545 0.54925 0.0
H1586 H 0.12885 0.70219 0.58823 0.0
H1587 H 0.1098 0.69002 0.59843 0.0
H1588 H 0.11663 0.6961 0.53121 0.0
H1589 H 0.14393 0.66694 0.66702 0.0
H1590 H 0.13754 0.64969 0.63314 0.0
H1591 H 0.12578 0.65235 0.67852 0.0
C1592 C 0.30992 0.41689 0.77352 0.0
C1593 C 0.30406 0.42619 0.77618 0.0
C1594 C 0.31824 0.41721 0.72903 0.0
C1595 C 0.32064 0.42701 0.6863 0.0
C1596 C 0.31439 0.43611 0.68806 0.0
C1597 C 0.30622 0.43565 0.73322 0.0
C1598 C 0.32486 0.40745 0.7286 0.0
C1599 C 0.31665 0.44663 0.64287 0.0
C1600 C 0.35469 0.44313 0.60185 0.0
C1601 C 0.34941 0.4357 0.55297 0.0
C1602 C 0.34558 0.43974 0.64672 0.0
C1603 C 0.33078 0.42882 0.64207 0.0
C1604 C 0.32556 0.42072 0.59366 0.0
C1605 C 0.33504 0.42419 0.54951 0.0
C1606 C 0.35162 0.4484 0.6981 0.0
C1607 C 0.30981 0.40905 0.58739 0.0
H1608 H 0.30822 0.40951 0.80664 0.0
H1609 H 0.30156 0.44273 0.73489 0.0
H1610 H 0.32233 0.40129 0.69013 0.0
H1611 H 0.33689 0.41421 0.73142 0.0
H1612 H 0.32091 0.39957 0.76267 0.0
H1613 H 0.31011 0.45209 0.64851 0.0
H1614 H 0.32833 0.45512 0.64065 0.0
H1615 H 0.31369 0.44082 0.60356 0.0
H1616 H 0.36589 0.45192 0.60458 0.0
H1617 H 0.331 0.41848 0.51151 0.0
H1618 H 0.34869 0.44099 0.73334 0.0
H1619 H 0.34679 0.45547 0.70473 0.0
H1620 H 0.36366 0.45542 0.69676 0.0
H1621 H 0.30616 0.40155 0.62252 0.0
H1622 H 0.30793 0.40257 0.54991 0.0
H1623 H 0.30292 0.41421 0.58597 0.0
C1624 C 0.57825 0.86356 0.73255 0.0
C1625 C 0.58363 0.87412 0.7734 0.0
C1626 C 0.57118 0.86508 0.68739 0.0
C1627 C 0.56924 0.87734 0.68366 0.0
C1628 C 0.57464 0.88805 0.72483 0.0
C1629 C 0.58192 0.88638 0.76911 0.0
C1630 C 0.56581 0.8536 0.64369 0.0
C1631 C 0.57257 0.90116 0.72241 0.0
C1632 C 0.56261 0.88881 0.54681 0.0
C1633 C 0.54745 0.88271 0.54706 0.0
C1634 C 0.56983 0.88695 0.59074 0.0
C1635 C 0.56168 0.87902 0.6363 0.0
C1636 C 0.54634 0.87274 0.63666 0.0
C1637 C 0.53936 0.87455 0.59165 0.0
C1638 C 0.58617 0.89354 0.58855 0.0
C1639 C 0.53734 0.86439 0.68498 0.0
H1640 H 0.57963 0.85408 0.73572 0.0
H1641 H 0.58599 0.89449 0.80088 0.0
H1642 H 0.55384 0.84852 0.63928 0.0
H1643 H 0.57075 0.8587 0.60438 0.0
H1644 H 0.56847 0.84488 0.6523 0.0
H1645 H 0.5772 0.90835 0.75824 0.0
H1646 H 0.57784 0.90764 0.68562 0.0
H1647 H 0.56079 0.89755 0.71975 0.0
H1648 H 0.56886 0.89507 0.51217 0.0
H1649 H 0.52764 0.86993 0.59203 0.0
H1650 H 0.58912 0.88497 0.59526 0.0
H1651 H 0.59134 0.90171 0.62124 0.0
H1652 H 0.59082 0.89895 0.54928 0.0
H1653 H 0.53896 0.85502 0.69366 0.0
H1654 H 0.52552 0.86023 0.67882 0.0
H1655 H 0.54096 0.87153 0.72116 0.0
C1656 C 0.32848 0.08012 0.16653 0.0
C1657 C 0.33694 0.09247 0.13503 0.0
C1658 C 0.31326 0.07319 0.16509 0.0
C1659 C 0.30647 0.07917 0.13294 0.0
C1660 C 0.31502 0.09133 0.09933 0.0
C1661 C 0.33024 0.09776 0.10029 0.0
C1662 C 0.3045 0.05999 0.20031 0.0
C1663 C 0.3082 0.09822 0.0656 0.0
C1664 C 0.26553 0.05646 0.11551 0.0
C1665 C 0.26068 0.06116 0.15972 0.0
C1666 C 0.28046 0.06243 0.10537 0.0
C1667 C 0.29066 0.07363 0.13936 0.0
C1668 C 0.28574 0.0789 0.18238 0.0
C1669 C 0.27078 0.0724 0.19263 0.0
C1670 C 0.28533 0.05629 0.06009 0.0
C1671 C 0.29628 0.09113 0.21855 0.0
H1672 H 0.3338 0.07615 0.19347 0.0
H1673 H 0.33692 0.10748 0.07665 0.0
H1674 H 0.29975 0.06297 0.23458 0.0
H1675 H 0.29534 0.05125 0.17711 0.0
H1676 H 0.31127 0.05557 0.21692 0.0
H1677 H 0.31612 0.10647 0.03709 0.0
H1678 H 0.29882 0.08982 0.04228 0.0
H1679 H 0.30398 0.10365 0.09259 0.0
H1680 H 0.25765 0.04767 0.09033 0.0
H1681 H 0.26697 0.0761 0.2265 0.0
H1682 H 0.29094 0.05072 0.07723 0.0
H1683 H 0.29326 0.06517 0.03365 0.0
H1684 H 0.27605 0.04834 0.03502 0.0
H1685 H 0.30257 0.08739 0.24296 0.0
H1686 H 0.29065 0.09492 0.2465 0.0
H1687 H 0.30419 0.10052 0.19391 0.0
C1688 C 0.88106 0.2394 0.11896 0.0
C1689 C 0.87021 0.23646 0.15735 0.0
C1690 C 0.88862 0.23164 0.11916 0.0
C1691 C 0.88508 0.2206 0.15825 0.0
C1692 C 0.87388 0.21734 0.19614 0.0
C1693 C 0.86663 0.22536 0.19541 0.0
C1694 C 0.9006 0.23547 0.07841 0.0
C1695 C 0.86969 0.20552 0.238 0.0
C1696 C 0.89697 0.19271 0.13353 0.0
C1697 C 0.90938 0.19806 0.16633 0.0
C1698 C 0.88889 0.1999 0.13068 0.0
C1699 C 0.89344 0.21281 0.16089 0.0
C1700 C 0.9059 0.21822 0.19428 0.0
C1701 C 0.91368 0.21073 0.19685 0.0
C1702 C 0.87551 0.1937 0.09528 0.0
C1703 C 0.91111 0.23201 0.22688 0.0
H1704 H 0.88389 0.24798 0.08952 0.0
H1705 H 0.85815 0.22292 0.2249 0.0
H1706 H 0.91113 0.23939 0.09962 0.0
H1707 H 0.89844 0.22565 0.05504 0.0
H1708 H 0.90173 0.24405 0.04975 0.0
H1709 H 0.86024 0.20385 0.26284 0.0
H1710 H 0.86693 0.19505 0.21811 0.0
H1711 H 0.87904 0.20837 0.26525 0.0
H1712 H 0.89355 0.18289 0.11 0.0
H1713 H 0.92331 0.21498 0.22204 0.0
H1714 H 0.87684 0.20177 0.06395 0.0
H1715 H 0.86584 0.19148 0.1198 0.0
H1716 H 0.87332 0.18344 0.07496 0.0
H1717 H 0.91343 0.24125 0.19968 0.0
H1718 H 0.92111 0.23484 0.2504 0.0
H1719 H 0.90247 0.23076 0.25531 0.0
C1720 C 0.74214 0.61766 0.21172 0.0
C1721 C 0.73118 0.61056 0.17291 0.0
C1722 C 0.74961 0.63292 0.21628 0.0
C1723 C 0.74575 0.64118 0.18212 0.0
C1724 C 0.73467 0.63404 0.143 0.0
C1725 C 0.72765 0.61883 0.13844 0.0
C1726 C 0.76164 0.6402 0.25746 0.0
C1727 C 0.73009 0.64246 0.10643 0.0
C1728 C 0.7545 0.67935 0.222 0.0
C1729 C 0.76592 0.68787 0.18647 0.0
C1730 C 0.74801 0.66409 0.22197 0.0
C1731 C 0.75335 0.65731 0.18655 0.0
C1732 C 0.76534 0.66594 0.15252 0.0
C1733 C 0.77136 0.68111 0.15239 0.0
C1734 C 0.73505 0.65521 0.25807 0.0
C1735 C 0.77157 0.65914 0.11518 0.0
H1736 H 0.74493 0.61128 0.23829 0.0
H1737 H 0.71907 0.61338 0.10877 0.0
H1738 H 0.77192 0.64816 0.23718 0.0
H1739 H 0.7589 0.64638 0.28684 0.0
H1740 H 0.76357 0.63224 0.27994 0.0
H1741 H 0.72098 0.63521 0.07926 0.0
H1742 H 0.72663 0.64898 0.131 0.0
H1743 H 0.73943 0.6502 0.08126 0.0
H1744 H 0.75027 0.68457 0.24825 0.0
H1745 H 0.78033 0.68771 0.12538 0.0
H1746 H 0.73693 0.64764 0.28322 0.0
H1747 H 0.72528 0.64846 0.23293 0.0
H1748 H 0.73269 0.66216 0.28511 0.0
H1749 H 0.77387 0.65147 0.13784 0.0
H1750 H 0.78177 0.66744 0.0953 0.0
H1751 H 0.76351 0.65277 0.08338 0.0
C1752 C 0.06342 0.2888 0.77699 0.0
C1753 C 0.06529 0.27931 0.81117 0.0
C1754 C 0.07023 0.30377 0.78807 0.0
C1755 C 0.07941 0.30942 0.83375 0.0
C1756 C 0.08117 0.29987 0.86892 0.0
C1757 C 0.07394 0.28487 0.85752 0.0
C1758 C 0.06785 0.31357 0.75018 0.0
C1759 C 0.09112 0.30555 0.91734 0.0
C1760 C 0.10872 0.3489 0.81781 0.0
C1761 C 0.10307 0.35613 0.84812 0.0
C1762 C 0.10144 0.33366 0.81498 0.0
C1763 C 0.08798 0.32545 0.84204 0.0
C1764 C 0.08235 0.33266 0.87378 0.0
C1765 C 0.09008 0.34797 0.87699 0.0
C1766 C 0.10798 0.32638 0.78174 0.0
C1767 C 0.06789 0.32427 0.90235 0.0
H1768 H 0.05659 0.28452 0.7415 0.0
H1769 H 0.07542 0.27755 0.88396 0.0
H1770 H 0.06452 0.32042 0.77323 0.0
H1771 H 0.07819 0.32103 0.72914 0.0
H1772 H 0.05941 0.3073 0.71928 0.0
H1773 H 0.09062 0.29662 0.94246 0.0
H1774 H 0.10252 0.31262 0.90364 0.0
H1775 H 0.08824 0.31235 0.94288 0.0
H1776 H 0.11887 0.3552 0.796 0.0
H1777 H 0.08568 0.35356 0.90028 0.0
H1778 H 0.10099 0.32099 0.74612 0.0
H1779 H 0.10848 0.31779 0.8058 0.0
H1780 H 0.11913 0.33425 0.76728 0.0
H1781 H 0.05905 0.31889 0.87207 0.0
H1782 H 0.0655 0.3314 0.92823 0.0
H1783 H 0.06769 0.31554 0.92777 0.0
C1784 C 0.67045 0.77674 0.80364 0.0
C1785 C 0.67884 0.77398 0.76682 0.0
C1786 C 0.65522 0.76886 0.80173 0.0
C1787 C 0.6482 0.75782 0.76236 0.0
C1788 C 0.65658 0.75536 0.72363 0.0
C1789 C 0.67185 0.76355 0.72613 0.0
C1790 C 0.64666 0.77194 0.84335 0.0
C1791 C 0.64943 0.74363 0.68125 0.0
C1792 C 0.61124 0.72788 0.80823 0.0
C1793 C 0.6019 0.7319 0.78317 0.0
C1794 C 0.6263 0.73581 0.79945 0.0
C1795 C 0.63218 0.74814 0.76512 0.0
C1796 C 0.62278 0.7519 0.73787 0.0
C1797 C 0.60771 0.74369 0.74705 0.0
C1798 C 0.63597 0.73136 0.82886 0.0
C1799 C 0.62869 0.76503 0.70119 0.0
H1800 H 0.67579 0.78493 0.83477 0.0
H1801 H 0.67829 0.76137 0.69758 0.0
H1802 H 0.63829 0.77368 0.82338 0.0
H1803 H 0.64089 0.7624 0.87057 0.0
H1804 H 0.65374 0.78167 0.8683 0.0
H1805 H 0.65737 0.7441 0.65081 0.0
H1806 H 0.64423 0.73276 0.70091 0.0
H1807 H 0.64072 0.7446 0.66019 0.0
H1808 H 0.60682 0.71868 0.83569 0.0
H1809 H 0.60056 0.74685 0.72748 0.0
H1810 H 0.64267 0.73982 0.85909 0.0
H1811 H 0.64356 0.73051 0.80018 0.0
H1812 H 0.62961 0.72077 0.8501 0.0
H1813 H 0.63465 0.77512 0.7256 0.0
H1814 H 0.61992 0.76554 0.67849 0.0
H1815 H 0.63656 0.7649 0.67194 0.0
C1816 C 0.22864 0.91571 0.76692 0.0
C1817 C 0.21586 0.90951 0.79795 0.0
C1818 C 0.23788 0.90973 0.76747 0.0
C1819 C 0.23411 0.89721 0.79927 0.0
C1820 C 0.22091 0.89058 0.82871 0.0
C1821 C 0.21201 0.89685 0.8279 0.0
C1822 C 0.25192 0.9171 0.73575 0.0
C1823 C 0.2164 0.8771 0.86256 0.0
C1824 C 0.25146 0.8736 0.78189 0.0
C1825 C 0.26084 0.87787 0.8266 0.0
C1826 C 0.24312 0.88025 0.77091 0.0
C1827 C 0.2443 0.89149 0.80519 0.0
C1828 C 0.25423 0.89628 0.84888 0.0
C1829 C 0.26232 0.88936 0.85922 0.0
C1830 C 0.23256 0.87478 0.72421 0.0
C1831 C 0.25588 0.90833 0.88611 0.0
H1832 H 0.23166 0.92549 0.74367 0.0
H1833 H 0.20203 0.89187 0.85136 0.0
H1834 H 0.26129 0.92179 0.764 0.0
H1835 H 0.25293 0.90904 0.71014 0.0
H1836 H 0.25268 0.92598 0.7096 0.0
H1837 H 0.20532 0.87272 0.88001 0.0
H1838 H 0.21657 0.86844 0.83789 0.0
H1839 H 0.22424 0.8797 0.89616 0.0
H1840 H 0.25028 0.86474 0.7564 0.0
H1841 H 0.26967 0.89285 0.89344 0.0
H1842 H 0.23385 0.88403 0.69911 0.0
H1843 H 0.22123 0.86912 0.73991 0.0
H1844 H 0.23403 0.86707 0.69814 0.0
H1845 H 0.25774 0.918 0.86239 0.0
H1846 H 0.26502 0.91169 0.915 0.0
H1847 H 0.24568 0.90459 0.90949 0.0
C1848 C 0.7172 0.93729 0.81506 0.0
C1849 C 0.72785 0.93601 0.84418 0.0
C1850 C 0.70246 0.92908 0.82906 0.0
C1851 C 0.69824 0.91919 0.87282 0.0
C1852 C 0.709 0.91845 0.90432 0.0
C1853 C 0.72372 0.92695 0.88977 0.0
C1854 C 0.69133 0.93033 0.79487 0.0
C1855 C 0.7049 0.90799 0.95111 0.0
C1856 C 0.65852 0.90183 0.91473 0.0
C1857 C 0.65224 0.8893 0.88228 0.0
C1858 C 0.67364 0.91148 0.91394 0.0
C1859 C 0.68259 0.90836 0.88044 0.0
C1860 C 0.67635 0.89532 0.84994 0.0
C1861 C 0.66126 0.88601 0.851 0.0
C1862 C 0.67993 0.92531 0.94682 0.0
C1863 C 0.68553 0.89149 0.81427 0.0
H1864 H 0.72034 0.94445 0.78028 0.0
H1865 H 0.73192 0.92594 0.91252 0.0
H1866 H 0.68504 0.9202 0.77093 0.0
H1867 H 0.68348 0.93159 0.82081 0.0
H1868 H 0.69646 0.93971 0.76653 0.0
H1869 H 0.71449 0.91022 0.97615 0.0
H1870 H 0.69668 0.90855 0.97719 0.0
H1871 H 0.69993 0.89667 0.93547 0.0
H1872 H 0.65158 0.90439 0.93903 0.0
H1873 H 0.65649 0.87621 0.8265 0.0
H1874 H 0.6836 0.93479 0.91936 0.0
H1875 H 0.6896 0.9269 0.9698 0.0
H1876 H 0.67186 0.92529 0.97556 0.0
H1877 H 0.69018 0.89944 0.78064 0.0
H1878 H 0.67917 0.88037 0.79677 0.0
H1879 H 0.69478 0.89213 0.83751 0.0
C1880 C 0.07211 0.77915 0.75787 0.0
C1881 C 0.07496 0.79085 0.79208 0.0
C1882 C 0.07966 0.7715 0.76358 0.0
C1883 C 0.0905 0.77583 0.80385 0.0
C1884 C 0.09373 0.78787 0.83758 0.0
C1885 C 0.08582 0.79518 0.8316 0.0
C1886 C 0.07581 0.7586 0.72727 0.0
C1887 C 0.10543 0.79294 0.88026 0.0
C1888 C 0.10058 0.74804 0.85279 0.0
C1889 C 0.11306 0.75175 0.822 0.0
C1890 C 0.09309 0.75578 0.84719 0.0
C1891 C 0.09839 0.76765 0.81074 0.0
C1892 C 0.11106 0.77154 0.78 0.0
C1893 C 0.11817 0.76345 0.78563 0.0
C1894 C 0.07944 0.75118 0.87992 0.0
C1895 C 0.11716 0.78428 0.74137 0.0
H1896 H 0.06365 0.77567 0.72751 0.0
H1897 H 0.0881 0.80425 0.85799 0.0
H1898 H 0.08557 0.76034 0.7045 0.0
H1899 H 0.0721 0.74863 0.75201 0.0
H1900 H 0.0671 0.75667 0.69793 0.0
H1901 H 0.10699 0.80284 0.90173 0.0
H1902 H 0.10257 0.78415 0.91033 0.0
H1903 H 0.11594 0.79537 0.86163 0.0
H1904 H 0.09658 0.73899 0.88083 0.0
H1905 H 0.12791 0.76647 0.76215 0.0
H1906 H 0.07011 0.74835 0.85254 0.0
H1907 H 0.08079 0.76035 0.90569 0.0
H1908 H 0.07671 0.74165 0.90617 0.0
H1909 H 0.10904 0.78237 0.7095 0.0
H1910 H 0.12737 0.78614 0.72167 0.0
H1911 H 0.11941 0.79436 0.76315 0.0
C1912 C 0.2012 0.30614 0.85345 0.0
C1913 C 0.20813 0.30038 0.82195 0.0
C1914 C 0.20628 0.32115 0.85435 0.0
C1915 C 0.21881 0.3306 0.82409 0.0
C1916 C 0.22539 0.32477 0.78996 0.0
C1917 C 0.21984 0.30965 0.78882 0.0
C1918 C 0.19873 0.32693 0.89003 0.0
C1919 C 0.23889 0.33455 0.75764 0.0
C1920 C 0.23088 0.37069 0.80663 0.0
C1921 C 0.24127 0.37699 0.84786 0.0
C1922 C 0.22309 0.35551 0.79929 0.0
C1923 C 0.22606 0.34656 0.8332 0.0
C1924 C 0.23631 0.35285 0.87559 0.0
C1925 C 0.24367 0.36799 0.88278 0.0
C1926 C 0.21193 0.3491 0.75469 0.0
C1927 C 0.23988 0.34366 0.91226 0.0
H1928 H 0.19199 0.29892 0.87852 0.0
H1929 H 0.2252 0.30519 0.76453 0.0
H1930 H 0.20561 0.33236 0.92584 0.0
H1931 H 0.19716 0.33519 0.86818 0.0
H1932 H 0.18796 0.31811 0.9043 0.0
H1933 H 0.24186 0.32828 0.72944 0.0
H1934 H 0.23732 0.34256 0.73408 0.0
H1935 H 0.24816 0.3408 0.78556 0.0
H1936 H 0.22895 0.37762 0.77972 0.0
H1937 H 0.25177 0.37281 0.91444 0.0
H1938 H 0.20142 0.34032 0.77089 0.0
H1939 H 0.21563 0.34411 0.72365 0.0
H1940 H 0.21004 0.35743 0.73487 0.0
H1941 H 0.2299 0.33536 0.93314 0.0
H1942 H 0.24815 0.35028 0.94324 0.0
H1943 H 0.24409 0.33773 0.88798 0.0
C1944 C 0.90827 0.69287 0.19139 0.0
C1945 C 0.90547 0.70198 0.1586 0.0
C1946 C 0.90113 0.6778 0.18268 0.0
C1947 C 0.89064 0.67163 0.141 0.0
C1948 C 0.88757 0.68073 0.10824 0.0
C1949 C 0.89519 0.69587 0.11698 0.0
C1950 C 0.90491 0.66849 0.21785 0.0
C1951 C 0.87618 0.67446 0.06439 0.0
C1952 C 0.88204 0.63391 0.09585 0.0
C1953 C 0.87037 0.6251 0.12994 0.0
C1954 C 0.88847 0.64916 0.09746 0.0
C1955 C 0.88278 0.6556 0.1329 0.0
C1956 C 0.87041 0.64666 0.16484 0.0
C1957 C 0.86449 0.63151 0.16358 0.0
C1958 C 0.90185 0.65836 0.06368 0.0
C1959 C 0.8638 0.6531 0.20206 0.0
H1960 H 0.91635 0.69757 0.22318 0.0
H1961 H 0.89299 0.7029 0.09167 0.0
H1962 H 0.89517 0.66057 0.24094 0.0
H1963 H 0.90836 0.66213 0.19233 0.0
H1964 H 0.91378 0.67508 0.24693 0.0
H1965 H 0.87495 0.68301 0.04297 0.0
H1966 H 0.87907 0.66853 0.03448 0.0
H1967 H 0.8655 0.66646 0.08205 0.0
H1968 H 0.8866 0.62894 0.06997 0.0
H1969 H 0.85532 0.62466 0.18943 0.0
H1970 H 0.91142 0.66437 0.09055 0.0
H1971 H 0.90056 0.6666 0.04045 0.0
H1972 H 0.90418 0.6517 0.03504 0.0
H1973 H 0.87132 0.65871 0.2362 0.0
H1974 H 0.85316 0.64466 0.21879 0.0
H1975 H 0.86218 0.66137 0.18039 0.0
C1976 C 0.3668 0.2458 0.1457 0.0
C1977 C 0.37772 0.25753 0.1746 0.0
C1978 C 0.3523 0.23886 0.16308 0.0
C1979 C 0.34856 0.24411 0.2095 0.0
C1980 C 0.35962 0.25574 0.23966 0.0
C1981 C 0.37417 0.26219 0.22224 0.0
C1982 C 0.3409 0.22623 0.13056 0.0
C1983 C 0.356 0.26187 0.2885 0.0
C1984 C 0.30992 0.23666 0.19884 0.0
C1985 C 0.30243 0.2243 0.23144 0.0
C1986 C 0.32511 0.24389 0.19476 0.0
C1987 C 0.33294 0.23829 0.22257 0.0
C1988 C 0.32545 0.22615 0.25745 0.0
C1989 C 0.31022 0.21938 0.26207 0.0
C1990 C 0.33269 0.25704 0.15828 0.0
C1991 C 0.33338 0.21967 0.28679 0.0
H1992 H 0.36962 0.24208 0.10925 0.0
H1993 H 0.38266 0.2713 0.24444 0.0
H1994 H 0.33394 0.21694 0.15749 0.0
H1995 H 0.33372 0.22956 0.10997 0.0
H1996 H 0.34581 0.22243 0.09945 0.0
H1997 H 0.36592 0.2699 0.31057 0.0
H1998 H 0.3499 0.26735 0.27555 0.0
H1999 H 0.34887 0.253 0.31664 0.0
H2000 H 0.30382 0.2405 0.17556 0.0
H2001 H 0.30434 0.20974 0.287 0.0
H2002 H 0.33666 0.25412 0.12153 0.0
H2003 H 0.3423 0.26598 0.17889 0.0
H2004 H 0.32533 0.26116 0.14559 0.0
H2005 H 0.33695 0.21421 0.25721 0.0
H2006 H 0.32638 0.21153 0.31752 0.0
H2007 H 0.34329 0.22832 0.3069 0.0
C2008 C 0.74518 0.12247 0.15218 0.0
C2009 C 0.73446 0.11794 0.11205 0.0
C2010 C 0.75376 0.11586 0.15755 0.0
C2011 C 0.75134 0.10428 0.1226 0.0
C2012 C 0.74066 0.09978 0.0816 0.0
C2013 C 0.73243 0.10677 0.07648 0.0
C2014 C 0.76528 0.12115 0.201 0.0
C2015 C 0.73767 0.08735 0.044 0.0
C2016 C 0.78079 0.0942 0.10658 0.0
C2017 C 0.77604 0.0824 0.14233 0.0
C2018 C 0.77292 0.1015 0.1001 0.0
C2019 C 0.75985 0.09673 0.12939 0.0
C2020 C 0.7549 0.08473 0.16513 0.0
C2021 C 0.76313 0.07778 0.17155 0.0
C2022 C 0.77866 0.11441 0.06232 0.0
C2023 C 0.74088 0.07922 0.19642 0.0
H2024 H 0.74685 0.13117 0.17955 0.0
H2025 H 0.72408 0.10315 0.04565 0.0
H2026 H 0.76265 0.11227 0.23041 0.0
H2027 H 0.77602 0.12418 0.18298 0.0
H2028 H 0.76625 0.13073 0.22317 0.0
H2029 H 0.72908 0.08529 0.01389 0.0
H2030 H 0.74776 0.08972 0.02214 0.0
H2031 H 0.73417 0.07724 0.0677 0.0
H2032 H 0.79083 0.09791 0.08422 0.0
H2033 H 0.75939 0.06864 0.19906 0.0
H2034 H 0.78035 0.12421 0.08474 0.0
H2035 H 0.77057 0.1123 0.0301 0.0
H2036 H 0.78911 0.11685 0.04309 0.0
H2037 H 0.74156 0.08797 0.22306 0.0
H2038 H 0.7384 0.06958 0.22167 0.0
H2039 H 0.73169 0.07621 0.16817 0.0
C2040 C 0.01207 0.4403 0.44227 0.0
C2041 C 0.02087 0.43652 0.47227 0.0
C2042 C -0.00303 0.4332 0.45097 0.0
C2043 C 0.99058 0.42169 0.48903 0.0
C2044 C -0.00058 0.41745 0.51772 0.0
C2045 C 0.01454 0.42515 0.50981 0.0
C2046 C 0.98796 0.43835 0.42097 0.0
C2047 C -0.00706 0.40488 0.55712 0.0
C2048 C 0.95435 0.4118 0.55406 0.0
C2049 C 0.94461 0.40029 0.5212 0.0
C2050 C 0.96935 0.4191 0.54325 0.0
C2051 C 0.97469 0.41434 0.49993 0.0
C2052 C 0.96487 0.40249 0.46737 0.0
C2053 C 0.94988 0.39579 0.47778 0.0
C2054 C 0.97945 0.432 0.57772 0.0
C2055 C 0.97019 0.39677 0.42213 0.0
H2056 H 0.01708 0.44925 0.41376 0.0
H2057 H 0.02144 0.42225 0.53281 0.0
H2058 H 0.97926 0.42925 0.39754 0.0
H2059 H 0.98255 0.44204 0.45027 0.0
H2060 H -0.00537 0.44746 0.39287 0.0
H2061 H 0.00117 0.40222 0.5727 0.0
H2062 H 0.98811 0.40759 0.59187 0.0
H2063 H 0.98404 0.39503 0.53747 0.0
H2064 H 0.95019 0.41531 0.58735 0.0
H2065 H 0.94229 0.38678 0.45273 0.0
H2066 H 0.98597 0.44167 0.55179 0.0
H2067 H 0.98721 0.42966 0.59939 0.0
H2068 H 0.97347 0.43478 0.60794 0.0
H2069 H 0.97606 0.40541 0.39153 0.0
H2070 H 0.96115 0.38715 0.40182 0.0
H2071 H 0.97803 0.39364 0.43814 0.0
C2072 C 0.56472 0.56419 0.62001 0.0
C2073 C 0.57478 0.56659 0.57897 0.0
C2074 C 0.55649 0.57128 0.619 0.0
C2075 C 0.55869 0.58117 0.57661 0.0
C2076 C 0.56989 0.58464 0.5383 0.0
C2077 C 0.57763 0.57712 0.53946 0.0
C2078 C 0.54457 0.56716 0.66021 0.0
C2079 C 0.57288 0.5954 0.49328 0.0
C2080 C 0.52808 0.58386 0.51037 0.0
C2081 C 0.53058 0.5974 0.52881 0.0
C2082 C 0.53645 0.57792 0.52931 0.0
C2083 C 0.54792 0.58598 0.56621 0.0
C2084 C 0.55002 0.59937 0.58703 0.0
C2085 C 0.54115 0.60487 0.56844 0.0
C2086 C 0.53356 0.56341 0.50716 0.0
C2087 C 0.56226 0.60839 0.62571 0.0
H2088 H 0.56247 0.55594 0.65034 0.0
H2089 H 0.5855 0.57901 0.50796 0.0
H2090 H 0.5441 0.57688 0.67404 0.0
H2091 H 0.53392 0.55956 0.64143 0.0
H2092 H 0.54608 0.56167 0.69585 0.0
H2093 H 0.58332 0.59856 0.47232 0.0
H2094 H 0.56395 0.59047 0.46316 0.0
H2095 H 0.57325 0.60539 0.50911 0.0
H2096 H 0.5198 0.57808 0.47994 0.0
H2097 H 0.54308 0.61541 0.58231 0.0
H2098 H 0.53323 0.55621 0.54034 0.0
H2099 H 0.54251 0.56513 0.47944 0.0
H2100 H 0.52313 0.55771 0.48453 0.0
H2101 H 0.56298 0.60144 0.65769 0.0
H2102 H 0.56091 0.61712 0.64501 0.0
H2103 H 0.57274 0.61356 0.6034 0.0
C2104 C 0.45216 0.03487 0.56541 0.0
C2105 C 0.44726 0.04238 0.533 0.0
C2106 C 0.44656 0.01984 0.55876 0.0
C2107 C 0.43539 0.01212 0.52038 0.0
C2108 C 0.43026 0.01968 0.4882 0.0
C2109 C 0.43648 0.0348 0.49417 0.0
C2110 C 0.45266 0.01223 0.59242 0.0
C2111 C 0.418 0.01175 0.44826 0.0
C2112 C 0.4276 0.97524 0.46771 0.0
C2113 C 0.41633 0.96577 0.50199 0.0
C2114 C 0.43419 0.9904 0.47415 0.0
C2115 C 0.42891 -0.00388 0.51433 0.0
C2116 C 0.4173 0.98653 0.54833 0.0
C2117 C 0.41134 0.97144 0.54245 0.0
C2118 C 0.44689 0.00027 0.43846 0.0
C2119 C 0.41102 0.99221 0.59028 0.0
H2120 H 0.46059 0.04083 0.59513 0.0
H2121 H 0.43264 0.04066 0.46951 0.0
H2122 H 0.44403 0.00399 0.61886 0.0
H2123 H 0.45646 0.00636 0.56578 0.0
H2124 H 0.4619 0.01996 0.61814 0.0
H2125 H 0.41497 0.01919 0.42769 0.0
H2126 H 0.42118 0.00632 0.41716 0.0
H2127 H 0.40825 0.00311 0.46927 0.0
H2128 H 0.4315 0.97077 0.43676 0.0
H2129 H 0.40253 0.96403 0.56863 0.0
H2130 H 0.4564 0.00769 0.46369 0.0
H2131 H 0.44406 0.00719 0.41348 0.0
H2132 H 0.45016 0.99406 0.41116 0.0
H2133 H 0.41948 -0.00101 0.62027 0.0
H2134 H 0.40162 0.98328 0.612 0.0
H2135 H 0.40738 -0.00071 0.57079 0.0
C2136 C 0.56839 0.00703 0.55182 0.0
C2137 C 0.56328 0.01365 0.51569 0.0
C2138 C 0.56231 0.99183 0.55251 0.0
C2139 C 0.55072 0.98313 0.51694 0.0
C2140 C 0.54493 0.98971 0.48292 0.0
C2141 C 0.55137 0.00492 0.48233 0.0
C2142 C 0.56887 0.98519 0.58894 0.0
C2143 C 0.53237 0.98076 0.44524 0.0
C2144 C 0.54675 0.94765 0.46536 0.0
C2145 C 0.53543 0.93736 0.49774 0.0
C2146 C 0.552 0.9626 0.47207 0.0
C2147 C 0.54558 0.96734 0.51141 0.0
C2148 C 0.5341 0.95702 0.54412 0.0
C2149 C 0.52925 0.94212 0.53724 0.0
C2150 C 0.5644 0.97331 0.43689 0.0
C2151 C 0.52682 0.9617 0.58569 0.0
H2152 H 0.57762 0.01376 0.57756 0.0
H2153 H 0.54728 0.01001 0.45482 0.0
H2154 H 0.56024 0.97602 0.61238 0.0
H2155 H 0.57442 0.98069 0.56401 0.0
H2156 H 0.57693 0.99327 0.61755 0.0
H2157 H 0.52808 0.98736 0.42616 0.0
H2158 H 0.53599 0.97605 0.41282 0.0
H2159 H 0.52337 0.97154 0.46728 0.0
H2160 H 0.55164 0.94403 0.43508 0.0
H2161 H 0.52043 0.93419 0.56213 0.0
H2162 H 0.57351 0.98128 0.46244 0.0
H2163 H 0.56074 0.97954 0.4117 0.0
H2164 H 0.56858 0.96785 0.40979 0.0
H2165 H 0.535 0.96936 0.6149 0.0
H2166 H 0.51815 0.95231 0.6083 0.0
H2167 H 0.52192 0.96761 0.56562 0.0
C2168 C 0.98047 0.57106 0.58624 0.0
C2169 C 0.97388 0.55891 0.55192 0.0
C2170 C -0.00429 0.58 0.58744 0.0
C2171 C 0.00443 0.57653 0.55413 0.0
C2172 C -0.00218 0.56377 0.52207 0.0
C2173 C 0.98263 0.55519 0.52106 0.0
C2174 C 0.00239 0.59356 0.62194 0.0
C2175 C 0.00674 0.55952 0.48669 0.0
C2176 C 0.04008 0.60467 0.49231 0.0
C2177 C 0.05015 0.60253 0.52177 0.0
C2178 C 0.02523 0.59702 0.50518 0.0
C2179 C 0.02029 0.58682 0.54805 0.0
C2180 C 0.03049 0.58521 0.57992 0.0
C2181 C 0.04535 0.59317 0.56658 0.0
C2182 C 0.01472 0.59923 0.47072 0.0
C2183 C 0.02564 0.57438 0.62575 0.0
H2184 H 0.97371 0.57395 0.61015 0.0
H2185 H 0.97758 0.54567 0.49511 0.0
H2186 H 0.0118 0.59453 0.64499 0.0
H2187 H 0.00652 0.60331 0.59559 0.0
H2188 H -0.0056 0.59368 0.65073 0.0
H2189 H 3e-05 0.54858 0.46822 0.0
H2190 H 0.01189 0.56763 0.45377 0.0
H2191 H 0.01561 0.55951 0.51043 0.0
H2192 H 0.04375 0.61206 0.45815 0.0
H2193 H 0.0531 0.5915 0.58959 0.0
H2194 H 0.00703 0.60079 0.49649 0.0
H2195 H 0.00818 0.58937 0.44567 0.0
H2196 H 0.02041 0.60878 0.44341 0.0
H2197 H 0.01747 0.57519 0.65134 0.0
H2198 H 0.03492 0.57602 0.65152 0.0
H2199 H 0.02036 0.56316 0.60903 0.0
C2200 C 0.42434 0.44251 0.48272 0.0
C2201 C 0.41279 0.43891 0.44695 0.0
C2202 C 0.43293 0.43592 0.47849 0.0
C2203 C 0.42974 0.42534 0.43793 0.0
C2204 C 0.41852 0.42212 0.40014 0.0
C2205 C 0.4102 0.42904 0.4049 0.0
C2206 C 0.44497 0.43981 0.51908 0.0
C2207 C 0.4148 0.41083 0.35654 0.0
C2208 C 0.45794 0.41364 0.41771 0.0
C2209 C 0.45269 0.40166 0.45276 0.0
C2210 C 0.45034 0.42124 0.41085 0.0
C2211 C 0.43714 0.41659 0.4392 0.0
C2212 C 0.43148 0.4041 0.47267 0.0
C2213 C 0.43937 0.39685 0.47929 0.0
C2214 C 0.45675 0.43461 0.37531 0.0
C2215 C 0.41734 0.39872 0.50315 0.0
H2216 H 0.42655 0.45033 0.51476 0.0
H2217 H 0.4013 0.42627 0.37704 0.0
H2218 H 0.442 0.43037 0.54609 0.0
H2219 H 0.45523 0.44231 0.49824 0.0
H2220 H 0.44702 0.44933 0.54434 0.0
H2221 H 0.40694 0.41079 0.32679 0.0
H2222 H 0.42477 0.41277 0.33484 0.0
H2223 H 0.40993 0.39985 0.3752 0.0
H2224 H 0.46825 0.41741 0.3972 0.0
H2225 H 0.43518 0.38749 0.50593 0.0
H2226 H 0.46026 0.44446 0.40065 0.0
H2227 H 0.44844 0.43406 0.34667 0.0
H2228 H 0.4663 0.43594 0.35198 0.0
H2229 H 0.41861 0.40691 0.53383 0.0
H2230 H 0.41389 0.38819 0.52401 0.0
H2231 H 0.40855 0.39729 0.47521 0.0
C2232 C 0.21812 0.08489 0.28129 0.0
C2233 C 0.20904 0.07648 0.23882 0.0
C2234 C 0.22211 0.09959 0.28713 0.0
C2235 C 0.2166 0.10588 0.25042 0.0
C2236 C 0.20619 0.09703 0.21124 0.0
C2237 C 0.20266 0.08244 0.20544 0.0
C2238 C 0.23338 0.10868 0.329 0.0
C2239 C 0.19972 0.10325 0.17247 0.0
C2240 C 0.22526 0.14492 0.27367 0.0
C2241 C 0.23679 0.15248 0.23733 0.0
C2242 C 0.21843 0.12968 0.27834 0.0
C2243 C 0.22355 0.12198 0.24692 0.0
C2244 C 0.23548 0.12966 0.21139 0.0
C2245 C 0.24182 0.14479 0.20654 0.0
C2246 C 0.20552 0.12179 0.31558 0.0
C2247 C 0.2415 0.1219 0.17806 0.0
H2248 H 0.22308 0.08036 0.30736 0.0
H2249 H 0.19548 0.07593 0.17302 0.0
H2250 H 0.24399 0.11567 0.30869 0.0
H2251 H 0.23034 0.116 0.35024 0.0
H2252 H 0.23489 0.10182 0.35939 0.0
H2253 H 0.18993 0.09455 0.15174 0.0
H2254 H 0.19668 0.11057 0.19384 0.0
H2255 H 0.20793 0.10984 0.14134 0.0
H2256 H 0.22126 0.15087 0.297 0.0
H2257 H 0.25078 0.15065 0.17863 0.0
H2258 H 0.20741 0.11491 0.34453 0.0
H2259 H 0.19572 0.11439 0.29167 0.0
H2260 H 0.20322 0.12942 0.33867 0.0
H2261 H 0.24448 0.11536 0.20466 0.0
H2262 H 0.25127 0.12958 0.15444 0.0
H2263 H 0.23307 0.11425 0.14955 0.0
C2264 C 0.84581 0.08931 0.30787 0.0
C2265 C 0.84127 0.09444 0.26402 0.0
C2266 C 0.85996 0.0977 0.32886 0.0
C2267 C 0.86961 0.11131 0.30479 0.0
C2268 C 0.86425 0.11726 0.26559 0.0
C2269 C 0.85013 0.10871 0.24584 0.0
C2270 C 0.86478 0.09134 0.37334 0.0
C2271 C 0.87387 0.13195 0.23955 0.0
C2272 C 0.90737 0.14165 0.31597 0.0
C2273 C 0.91271 0.13866 0.26866 0.0
C2274 C 0.89382 0.13117 0.33707 0.0
C2275 C 0.88564 0.11784 0.3092 0.0
C2276 C 0.89259 0.11375 0.26961 0.0
C2277 C 0.90612 0.12432 0.24951 0.0
C2278 C 0.88734 0.13523 0.38342 0.0
C2279 C 0.88469 0.09916 0.24155 0.0
H2280 H 0.83883 0.07834 0.32281 0.0
H2281 H 0.84639 0.1128 0.213 0.0
H2282 H 0.86651 0.08259 0.35656 0.0
H2283 H 0.87499 0.09964 0.39305 0.0
H2284 H 0.8561 0.08623 0.40442 0.0
H2285 H 0.86769 0.13519 0.21206 0.0
H2286 H 0.87914 0.14052 0.27078 0.0
H2287 H 0.88258 0.13164 0.21572 0.0
H2288 H 0.91272 0.15261 0.33233 0.0
H2289 H 0.91062 0.12185 0.21438 0.0
H2290 H 0.87938 0.12542 0.40616 0.0
H2291 H 0.88156 0.14078 0.36767 0.0
H2292 H 0.89599 0.14288 0.41138 0.0
H2293 H 0.87909 0.09027 0.27144 0.0
H2294 H 0.89223 0.09697 0.21732 0.0
H2295 H 0.87631 0.09893 0.21404 0.0
C2296 C 0.89203 0.75494 0.27388 0.0
C2297 C 0.90184 0.76405 0.23446 0.0
C2298 C 0.87869 0.75446 0.2815 0.0
C2299 C 0.87535 0.76349 0.24953 0.0
C2300 C 0.88621 0.77429 0.2161 0.0
C2301 C 0.89929 0.77429 0.20823 0.0
C2302 C 0.86746 0.74288 0.31792 0.0
C2303 C 0.8833 0.78455 0.1831 0.0
C2304 C 0.8385 0.74546 0.18267 0.0
C2305 C 0.83102 0.75086 0.2126 0.0
C2306 C 0.85277 0.74923 0.1956 0.0
C2307 C 0.85991 0.75898 0.23889 0.0
C2308 C 0.85242 0.76449 0.26953 0.0
C2309 C 0.83788 0.76014 0.25654 0.0
C2310 C 0.86024 0.74288 0.16222 0.0
C2311 C 0.85975 0.77502 0.31549 0.0
H2312 H 0.89407 0.74713 0.29471 0.0
H2313 H 0.90707 0.7816 0.1787 0.0
H2314 H 0.86099 0.74694 0.33936 0.0
H2315 H 0.85982 0.73338 0.29308 0.0
H2316 H 0.87257 0.73908 0.34817 0.0
H2317 H 0.89359 0.79423 0.16962 0.0
H2318 H 0.87692 0.77876 0.1467 0.0
H2319 H 0.87682 0.78828 0.2065 0.0
H2320 H 0.83312 0.73811 0.14916 0.0
H2321 H 0.83204 0.76429 0.2797 0.0
H2322 H 0.8645 0.73743 0.18879 0.0
H2323 H 0.86962 0.75173 0.14031 0.0
H2324 H 0.85281 0.73481 0.1321 0.0
H2325 H 0.86103 0.76916 0.35022 0.0
H2326 H 0.85333 0.78014 0.32909 0.0
H2327 H 0.8708 0.78375 0.30355 0.0
C2328 C 0.09237 0.23411 0.71941 0.0
C2329 C 0.08012 0.2231 0.74563 0.0
C2330 C 0.10573 0.23441 0.72186 0.0
C2331 C 0.10658 0.22319 0.74991 0.0
C2332 C 0.09375 0.21106 0.76994 0.0
C2333 C 0.08067 0.21131 0.76862 0.0
C2334 C 0.11918 0.24761 0.70041 0.0
C2335 C 0.09412 0.19857 0.79783 0.0
C2336 C 0.14391 0.22642 0.7565 0.0
C2337 C 0.14892 0.2335 0.80629 0.0
C2338 C 0.12982 0.22232 0.73822 0.0
C2339 C 0.1209 0.2259 0.76972 0.0
C2340 C 0.12586 0.23279 0.82046 0.0
C2341 C 0.13971 0.23629 0.83839 0.0
C2342 C 0.12469 0.21453 0.68482 0.0
C2343 C 0.11676 0.23698 0.85518 0.0
H2344 H 0.09186 0.2432 0.70151 0.0
H2345 H 0.07105 0.20265 0.78802 0.0
H2346 H 0.12557 0.25463 0.73476 0.0
H2347 H 0.12624 0.24435 0.67854 0.0
H2348 H 0.11643 0.25417 0.67285 0.0
H2349 H 0.08313 0.1887 0.79953 0.0
H2350 H 0.10169 0.19579 0.7769 0.0
H2351 H 0.09809 0.20179 0.8398 0.0
H2352 H 0.151 0.22417 0.73173 0.0
H2353 H 0.14356 0.24185 0.87675 0.0
H2354 H 0.12553 0.22239 0.65344 0.0
H2355 H 0.11311 0.20579 0.68712 0.0
H2356 H 0.13137 0.20967 0.6717 0.0
H2357 H 0.11399 0.24429 0.83227 0.0
H2358 H 0.12244 0.24264 0.89289 0.0
H2359 H 0.10638 0.22712 0.86637 0.0
C2360 C 0.74054 0.85128 0.7702 0.0
C2361 C 0.74424 0.84217 0.74167 0.0
C2362 C 0.74675 0.86604 0.75722 0.0
C2363 C 0.75708 0.87191 0.71484 0.0
C2364 C 0.76043 0.86267 0.6842 0.0
C2365 C 0.75391 0.84782 0.69792 0.0
C2366 C 0.74265 0.87545 0.79045 0.0
C2367 C 0.77138 0.86853 0.6388 0.0
C2368 C 0.76307 0.90918 0.68221 0.0
C2369 C 0.77367 0.91751 0.7209 0.0
C2370 C 0.75858 0.89439 0.67479 0.0
C2371 C 0.76496 0.88793 0.70653 0.0
C2372 C 0.77698 0.89678 0.74016 0.0
C2373 C 0.78113 0.91147 0.74724 0.0
C2374 C 0.74591 0.88536 0.63779 0.0
C2375 C 0.78434 0.89039 0.77358 0.0
H2376 H 0.73289 0.84691 0.80349 0.0
H2377 H 0.75679 0.84078 0.67574 0.0
H2378 H 0.75229 0.88365 0.81327 0.0
H2379 H 0.73905 0.88145 0.76372 0.0
H2380 H 0.73379 0.86898 0.81972 0.0
H2381 H 0.77047 0.85968 0.61209 0.0
H2382 H 0.77003 0.87652 0.61409 0.0
H2383 H 0.78254 0.87429 0.65599 0.0
H2384 H 0.75737 0.91383 0.66117 0.0
H2385 H 0.78958 0.91797 0.77626 0.0
H2386 H 0.7358 0.87953 0.66217 0.0
H2387 H 0.74744 0.87705 0.61613 0.0
H2388 H 0.74436 0.89226 0.6077 0.0
H2389 H 0.77726 0.88437 0.80833 0.0
H2390 H 0.79501 0.89897 0.78954 0.0
H2391 H 0.78607 0.88254 0.74948 0.0
C2392 C 0.14123 0.90477 0.68434 0.0
C2393 C 0.14617 0.89909 0.72506 0.0
C2394 C 0.12691 0.89665 0.66454 0.0
C2395 C 0.11749 0.88267 0.68642 0.0
C2396 C 0.123 0.87642 0.72363 0.0
C2397 C 0.13726 0.88472 0.74233 0.0
C2398 C 0.12176 0.90353 0.62325 0.0
C2399 C 0.11353 0.8614 0.74742 0.0
C2400 C 0.07936 0.86612 0.73171 0.0
C2401 C 0.07369 0.85265 0.70549 0.0
C2402 C 0.09323 0.87758 0.71864 0.0
C2403 C 0.10148 0.87531 0.67883 0.0
C2404 C 0.09458 0.86293 0.64496 0.0
C2405 C 0.08065 0.85157 0.65893 0.0
C2406 C 0.0999 0.89104 0.75366 0.0
C2407 C 0.10268 0.86069 0.59937 0.0
H2408 H 0.14818 0.91586 0.67037 0.0
H2409 H 0.14122 0.88019 0.7728 0.0
H2410 H 0.11214 0.8953 0.60042 0.0
H2411 H 0.11877 0.91097 0.64399 0.0
H2412 H 0.13063 0.9102 0.59428 0.0
H2413 H 0.11976 0.85798 0.7739 0.0
H2414 H 0.10465 0.86124 0.77173 0.0
H2415 H 0.10844 0.85319 0.71483 0.0
H2416 H 0.0737 0.86718 0.7664 0.0
H2417 H 0.0761 0.84132 0.63726 0.0
H2418 H 0.10642 0.90095 0.72893 0.0
H2419 H 0.1073 0.89029 0.78357 0.0
H2420 H 0.09147 0.89227 0.77599 0.0
H2421 H 0.11049 0.87123 0.58026 0.0
H2422 H 0.09504 0.85327 0.5682 0.0
H2423 H 0.10895 0.85568 0.61537 0.0
C2424 C 0.88281 0.41944 0.56358 0.0
C2425 C 0.88993 0.41412 0.59617 0.0
C2426 C 0.88528 0.43363 0.57044 0.0
C2427 C 0.8953 0.44273 0.61019 0.0
C2428 C 0.90115 0.43684 0.64726 0.0
C2429 C 0.89832 0.4225 0.63996 0.0
C2430 C 0.87847 0.43937 0.5311 0.0
C2431 C 0.9117 0.44612 0.69068 0.0
C2432 C 0.91905 0.48061 0.5552 0.0
C2433 C 0.91282 0.48828 0.57839 0.0
C2434 C 0.91394 0.46599 0.56791 0.0
C2435 C 0.90211 0.45877 0.60423 0.0
C2436 C 0.89624 0.46664 0.63004 0.0
C2437 C 0.90175 0.48141 0.61698 0.0
C2438 C 0.92075 0.45811 0.54024 0.0
C2439 C 0.88363 0.45932 0.66886 0.0
H2440 H 0.87605 0.41286 0.53042 0.0
H2441 H 0.90374 0.41838 0.66567 0.0
H2442 H 0.87475 0.44619 0.55216 0.0
H2443 H 0.88671 0.44634 0.50065 0.0
H2444 H 0.86906 0.43041 0.50956 0.0
H2445 H 0.91266 0.43935 0.7229 0.0
H2446 H 0.92263 0.45298 0.67245 0.0
H2447 H 0.90834 0.45354 0.70916 0.0
H2448 H 0.92778 0.48599 0.52599 0.0
H2449 H 0.89691 0.48735 0.63491 0.0
H2450 H 0.91273 0.44972 0.51244 0.0
H2451 H 0.92388 0.45243 0.57044 0.0
H2452 H 0.93058 0.46561 0.51653 0.0
H2453 H 0.87339 0.45301 0.64565 0.0
H2454 H 0.88256 0.46739 0.69425 0.0
H2455 H 0.88482 0.45156 0.69555 0.0
C2456 C 0.50921 0.42125 0.63168 0.0
C2457 C 0.51383 0.41623 0.58763 0.0
C2458 C 0.51792 0.43551 0.65115 0.0
C2459 C 0.53139 0.4448 0.62565 0.0
C2460 C 0.53692 0.43903 0.58666 0.0
C2461 C 0.52804 0.42478 0.56805 0.0
C2462 C 0.51198 0.44108 0.69467 0.0
C2463 C 0.55146 0.44842 0.55955 0.0
C2464 C 0.54202 0.48283 0.58255 0.0
C2465 C 0.55498 0.49108 0.61138 0.0
C2466 C 0.53346 0.4678 0.59068 0.0
C2467 C 0.53794 0.46086 0.62886 0.0
C2468 C 0.5501 0.46935 0.66236 0.0
C2469 C 0.55855 0.48443 0.65308 0.0
C2470 C 0.52039 0.45921 0.55462 0.0
C2471 C 0.55495 0.46247 0.70481 0.0
H2472 H 0.49831 0.41458 0.64771 0.0
H2473 H 0.5318 0.42077 0.53502 0.0
H2474 H 0.52083 0.44911 0.72097 0.0
H2475 H 0.50656 0.44662 0.67569 0.0
H2476 H 0.5038 0.43202 0.72001 0.0
H2477 H 0.55501 0.44183 0.5358 0.0
H2478 H 0.55063 0.4562 0.53177 0.0
H2479 H 0.55996 0.45487 0.58987 0.0
H2480 H 0.53902 0.48797 0.55114 0.0
H2481 H 0.56846 0.49078 0.6761 0.0
H2482 H 0.51072 0.45175 0.57898 0.0
H2483 H 0.52263 0.45244 0.5263 0.0
H2484 H 0.51766 0.46638 0.53052 0.0
H2485 H 0.5456 0.45255 0.72218 0.0
H2486 H 0.56089 0.47029 0.73795 0.0
H2487 H 0.56248 0.45928 0.68629 0.0
C2488 C 0.56558 0.09128 0.58067 0.0
C2489 C 0.55994 0.07983 0.54316 0.0
C2490 C 0.55759 0.09806 0.59561 0.0
C2491 C 0.54351 0.09287 0.57372 0.0
C2492 C 0.53762 0.08093 0.53733 0.0
C2493 C 0.54599 0.0747 0.52202 0.0
C2494 C 0.56427 0.11086 0.6339 0.0
C2495 C 0.52253 0.07487 0.51362 0.0
C2496 C 0.51223 0.09624 0.62601 0.0
C2497 C 0.5107 0.10408 0.58337 0.0
C2498 C 0.52415 0.09393 0.62779 0.0
C2499 C 0.5348 0.0999 0.5866 0.0
C2500 C 0.53448 0.1098 0.54897 0.0
C2501 C 0.52228 0.11164 0.54733 0.0
C2502 C 0.52412 0.08339 0.66888 0.0
C2503 C 0.54599 0.11689 0.50586 0.0
H2504 H 0.57644 0.09527 0.5968 0.0
H2505 H 0.54159 0.06575 0.49338 0.0
H2506 H 0.56313 0.12002 0.61776 0.0
H2507 H 0.55846 0.10766 0.67312 0.0
H2508 H 0.57599 0.11478 0.64134 0.0
H2509 H 0.51931 0.06502 0.48847 0.0
H2510 H 0.51437 0.07195 0.54633 0.0
H2511 H 0.5221 0.08325 0.48806 0.0
H2512 H 0.50339 0.09052 0.65451 0.0
H2513 H 0.52128 0.11802 0.51512 0.0
H2514 H 0.53531 0.08679 0.68273 0.0
H2515 H 0.5196 0.07246 0.65001 0.0
H2516 H 0.5173 0.08239 0.70451 0.0
H2517 H 0.55696 0.1202 0.52219 0.0
H2518 H 0.54609 0.12661 0.48844 0.0
H2519 H 0.54372 0.10895 0.47278 0.0
C2520 C 0.74309 0.55531 0.06559 0.0
C2521 C 0.73467 0.54756 0.11032 0.0
C2522 C 0.75637 0.5559 0.05469 0.0
C2523 C 0.76109 0.54835 0.08884 0.0
C2524 C 0.75159 0.53885 0.129 0.0
C2525 C 0.73855 0.53874 0.13987 0.0
C2526 C 0.76613 0.56609 0.01124 0.0
C2527 C 0.75597 0.53016 0.16491 0.0
C2528 C 0.79808 0.55098 0.07097 0.0
C2529 C 0.80626 0.5616 0.1097 0.0
C2530 C 0.78331 0.5466 0.0625 0.0
C2531 C 0.77686 0.55329 0.09275 0.0
C2532 C 0.78538 0.56451 0.12999 0.0
C2533 C 0.79989 0.56837 0.13839 0.0
C2534 C 0.77453 0.53445 0.02318 0.0
C2535 C 0.7791 0.57223 0.16224 0.0
H2536 H 0.74005 0.56206 0.04232 0.0
H2537 H 0.73188 0.53248 0.17379 0.0
H2538 H 0.77434 0.57651 0.03009 0.0
H2539 H 0.77209 0.56144 0.98993 0.0
H2540 H 0.75986 0.56855 0.98121 0.0
H2541 H 0.7464 0.52115 0.18559 0.0
H2542 H 0.7616 0.52553 0.1413 0.0
H2543 H 0.76364 0.53745 0.19621 0.0
H2544 H 0.80306 0.54574 0.0489 0.0
H2545 H 0.80631 0.57677 0.16772 0.0
H2546 H 0.7671 0.53678 -0.00086 0.0
H2547 H 0.7677 0.52423 0.04599 0.0
H2548 H 0.78163 0.53256 -0.0048 0.0
H2549 H 0.77386 0.57656 0.13492 0.0
H2550 H 0.78751 0.58142 0.18644 0.0
H2551 H 0.77061 0.56441 0.19023 0.0
C2552 C 0.39198 0.17315 0.12962 0.0
C2553 C 0.39593 0.1639 0.10354 0.0
C2554 C 0.39735 0.18748 0.11204 0.0
C2555 C 0.40696 0.1927 0.06734 0.0
C2556 C 0.41043 0.18322 0.03903 0.0
C2557 C 0.40484 0.16887 0.05751 0.0
C2558 C 0.39324 0.19721 0.14303 0.0
C2559 C 0.4206 0.18841 0.99114 0.0
C2560 C 0.41143 0.22876 0.02464 0.0
C2561 C 0.42258 0.23806 0.05984 0.0
C2562 C 0.40713 0.21392 0.02171 0.0
C2563 C 0.41426 0.20845 0.05447 0.0
C2564 C 0.42675 0.21818 0.08441 0.0
C2565 C 0.43072 0.23291 0.08695 0.0
C2566 C 0.39395 0.20389 0.98843 0.0
C2567 C 0.43488 0.21283 0.11884 0.0
H2568 H 0.38494 0.16931 0.16473 0.0
H2569 H 0.40791 0.16174 0.03707 0.0
H2570 H 0.40304 0.2061 0.16292 0.0
H2571 H 0.38893 0.20235 0.11513 0.0
H2572 H 0.3849 0.19117 0.17456 0.0
H2573 H 0.41974 0.17914 0.9671 0.0
H2574 H 0.41834 0.19546 0.96441 0.0
H2575 H 0.43198 0.19501 0.00557 0.0
H2576 H 0.40521 0.23275 0.00307 0.0
H2577 H 0.43959 0.24018 0.11321 0.0
H2578 H 0.38428 0.19848 0.01519 0.0
H2579 H 0.39537 0.19523 0.96899 0.0
H2580 H 0.39174 0.20995 0.95672 0.0
H2581 H 0.42837 0.20744 0.1555 0.0
H2582 H 0.44566 0.22189 0.13183 0.0
H2583 H 0.43654 0.20466 0.09671 0.0
C2584 C 0.7417 0.18133 0.00909 0.0
C2585 C 0.73255 0.18057 0.05144 0.0
C2586 C 0.75546 0.19375 0.00263 0.0
C2587 C 0.75991 0.2055 0.03914 0.0
C2588 C 0.74961 0.20579 0.07472 0.0
C2589 C 0.73603 0.19318 0.08102 0.0
C2590 C 0.76597 0.19331 0.9626 0.0
C2591 C 0.75369 0.21848 0.11228 0.0
C2592 C 0.79531 0.21853 0.11301 0.0
C2593 C 0.8039 0.2326 0.09247 0.0
C2594 C 0.78129 0.20938 0.09348 0.0
C2595 C 0.77557 0.21454 0.0528 0.0
C2596 C 0.78444 0.22851 0.02989 0.0
C2597 C 0.79863 0.23741 0.04992 0.0
C2598 C 0.77238 0.1944 0.11837 0.0
C2599 C 0.77882 0.23446 0.98661 0.0
H2600 H 0.73891 0.17168 0.98532 0.0
H2601 H 0.72875 0.19273 0.11272 0.0
H2602 H 0.77336 0.2043 0.94578 0.0
H2603 H 0.77276 0.18952 0.98336 0.0
H2604 H 0.76012 0.18566 0.92891 0.0
H2605 H 0.74389 0.21847 0.12838 0.0
H2606 H 0.75994 0.21773 0.1469 0.0
H2607 H 0.76068 0.22898 0.09137 0.0
H2608 H 0.79951 0.21472 0.14526 0.0
H2609 H 0.80531 0.24833 0.034 0.0
H2610 H 0.76798 0.18593 0.08644 0.0
H2611 H 0.76301 0.19377 0.14078 0.0
H2612 H 0.77884 0.19178 0.14685 0.0
H2613 H 0.77071 0.22569 0.96022 0.0
H2614 H 0.78786 0.24262 0.9612 0.0
H2615 H 0.77343 0.23998 0.00602 0.0
C2616 C 0.56615 0.74849 0.97992 0.0
C2617 C 0.55584 0.74364 0.93814 0.0
C2618 C 0.57217 0.76279 -0.00031 0.0
C2619 C 0.56789 0.77225 0.9762 0.0
C2620 C 0.5556 0.76647 0.94175 0.0
C2621 C 0.5497 0.75216 0.92306 0.0
C2622 C 0.58442 0.76829 0.0401 0.0
C2623 C 0.55015 0.77598 0.91786 0.0
C2624 C 0.58407 0.81308 0.98678 0.0
C2625 C 0.59297 0.81752 0.94066 0.0
C2626 C 0.57687 0.79841 0.00327 0.0
C2627 C 0.57851 0.78808 0.9723 0.0
C2628 C 0.58874 0.79287 0.92937 0.0
C2629 C 0.59589 0.80754 0.91444 0.0
C2630 C 0.56676 0.79398 0.05118 0.0
C2631 C 0.59111 0.78233 0.89549 0.0
H2632 H 0.57063 0.74176 0.99309 0.0
H2633 H 0.54129 0.74819 0.89233 0.0
H2634 H 0.59497 0.77301 0.01841 0.0
H2635 H 0.58459 0.77694 0.06599 0.0
H2636 H 0.58343 0.75928 0.06608 0.0
H2637 H 0.53941 0.76945 0.89777 0.0
H2638 H 0.5491 0.78279 0.9496 0.0
H2639 H 0.55808 0.78342 0.88744 0.0
H2640 H 0.58198 0.82081 0.00802 0.0
H2641 H 0.60311 0.81101 0.87977 0.0
H2642 H 0.56452 0.78339 0.0685 0.0
H2643 H 0.55628 0.79305 0.0386 0.0
H2644 H 0.57145 0.80245 0.08316 0.0
H2645 H 0.59401 0.77565 0.92155 0.0
H2646 H 0.59992 0.78798 0.86518 0.0
H2647 H 0.58093 0.7748 0.87371 0.0
C2648 C 0.18475 0.77821 0.91359 0.0
C2649 C 0.1772 0.76408 0.9345 0.0
C2650 C 0.19868 0.78819 0.93206 0.0
C2651 C 0.20522 0.78382 0.97231 0.0
C2652 C 0.19691 0.77017 -0.00171 0.0
C2653 C 0.18288 0.76035 0.97888 0.0
C2654 C 0.20693 0.80278 0.90395 0.0
C2655 C 0.20319 0.76533 0.04303 0.0
C2656 C 0.24347 0.80032 0.92492 0.0
C2657 C 0.24942 0.81415 0.94851 0.0
C2658 C 0.22949 0.78925 0.93881 0.0
C2659 C 0.22131 0.79219 0.97692 0.0
C2660 C 0.22818 0.80528 0.00705 0.0
C2661 C 0.24223 0.81624 0.99225 0.0
C2662 C 0.22281 0.77518 0.90714 0.0
C2663 C 0.22011 0.80842 0.05033 0.0
H2664 H 0.18014 0.78117 0.88012 0.0
H2665 H 0.17692 0.74944 -0.00443 0.0
H2666 H 0.21198 0.81173 0.93392 0.0
H2667 H 0.2158 0.8031 0.87907 0.0
H2668 H 0.1998 0.80492 0.87711 0.0
H2669 H 0.19454 0.75819 0.07201 0.0
H2670 H 0.20785 0.75889 0.0256 0.0
H2671 H 0.21193 0.77473 0.06525 0.0
H2672 H 0.24924 0.79852 0.89237 0.0
H2673 H 0.24696 0.82683 0.01163 0.0
H2674 H 0.2149 0.77508 0.87753 0.0
H2675 H 0.21682 0.76569 0.93434 0.0
H2676 H 0.23114 0.77382 0.88472 0.0
H2677 H 0.21397 0.81325 0.03162 0.0
H2678 H 0.22777 0.81635 0.0803 0.0
H2679 H 0.2122 0.79829 0.07158 0.0
C2680 C 0.17789 0.41109 0.89251 0.0
C2681 C 0.17019 0.41781 0.91072 0.0
C2682 C 0.19257 0.4168 0.90534 0.0
C2683 C 0.19979 0.42972 0.9366 0.0
C2684 C 0.19177 0.43591 0.95874 0.0
C2685 C 0.17693 0.4298 0.94561 0.0
C2686 C 0.20056 0.40955 0.88188 0.0
C2687 C 0.19895 0.44953 0.99281 0.0
C2688 C 0.23664 0.43472 0.96376 0.0
C2689 C 0.24342 0.44111 0.91457 0.0
C2690 C 0.22288 0.43279 0.97638 0.0
C2691 C 0.21592 0.43739 0.93893 0.0
C2692 C 0.22385 0.44608 0.89427 0.0
C2693 C 0.23753 0.44778 0.88238 0.0
C2694 C 0.21501 0.42405 0.02572 0.0
C2695 C 0.21706 0.45176 0.85458 0.0
H2696 H 0.17255 0.40168 0.86613 0.0
H2697 H 0.17092 0.43499 0.95965 0.0
H2698 H 0.20856 0.41682 0.85132 0.0
H2699 H 0.20667 0.40756 0.91392 0.0
H2700 H 0.19307 0.39898 0.86216 0.0
H2701 H 0.19101 0.44997 0.02097 0.0
H2702 H 0.2082 0.45029 0.01646 0.0
H2703 H 0.20323 0.45921 0.96606 0.0
H2704 H 0.2413 0.42985 0.98966 0.0
H2705 H 0.24296 0.45315 0.84519 0.0
H2706 H 0.20805 0.41243 0.01415 0.0
H2707 H 0.20786 0.42787 0.04318 0.0
H2708 H 0.2228 0.42469 0.0571 0.0
H2709 H 0.20935 0.44268 0.82823 0.0
H2710 H 0.22539 0.46048 0.82851 0.0
H2711 H 0.21084 0.45611 0.87597 0.0
C2712 C 0.44339 0.91314 0.44102 0.0
C2713 C 0.42974 0.90784 0.41689 0.0
C2714 C 0.45208 0.90701 0.42908 0.0
C2715 C 0.44685 0.8951 0.39269 0.0
C2716 C 0.43353 0.89039 0.36518 0.0
C2717 C 0.42512 0.89691 0.37746 0.0
C2718 C 0.46642 0.91266 0.45835 0.0
C2719 C 0.4276 0.87781 0.32596 0.0
C2720 C 0.47748 0.88787 0.36571 0.0
C2721 C 0.47621 0.87942 0.4113 0.0
C2722 C 0.46686 0.89171 0.35441 0.0
C2723 C 0.45474 0.88684 0.38923 0.0
C2724 C 0.45232 0.87646 0.42986 0.0
C2725 C 0.46317 0.87293 0.44067 0.0
C2726 C 0.46961 0.90246 0.30969 0.0
C2727 C 0.4392 0.87054 0.46649 0.0
H2728 H 0.44702 0.92172 0.47103 0.0
H2729 H 0.41451 0.89276 0.35889 0.0
H2730 H 0.4657 0.90425 0.48695 0.0
H2731 H 0.47528 0.91496 0.42927 0.0
H2732 H 0.46945 0.92278 0.4815 0.0
H2733 H 0.41975 0.87825 0.29737 0.0
H2734 H 0.43644 0.87762 0.30259 0.0
H2735 H 0.42177 0.86743 0.34878 0.0
H2736 H 0.48742 0.89272 0.34204 0.0
H2737 H 0.46195 0.86607 0.47507 0.0
H2738 H 0.47452 0.9136 0.32704 0.0
H2739 H 0.4593 0.90005 0.2895 0.0
H2740 H 0.47724 0.90243 0.27899 0.0
H2741 H 0.44074 0.87903 0.49629 0.0
H2742 H 0.43755 0.86074 0.48893 0.0
H2743 H 0.42921 0.86767 0.44303 0.0
C2744 C 0.10363 0.57608 0.42716 0.0
C2745 C 0.09517 0.58139 0.40372 0.0
C2746 C 0.10047 0.56175 0.41796 0.0
C2747 C 0.08841 0.55247 0.38521 0.0
C2748 C 0.08067 0.55818 0.35745 0.0
C2749 C 0.08421 0.57267 0.36683 0.0
C2750 C 0.10921 0.55618 0.44741 0.0
C2751 C 0.06781 0.54865 0.32195 0.0
C2752 C 0.08337 0.51468 0.36466 0.0
C2753 C 0.07488 0.50744 0.40995 0.0
C2754 C 0.08727 0.52923 0.35384 0.0
C2755 C 0.0824 0.53649 0.38887 0.0
C2756 C 0.07296 0.52882 0.43227 0.0
C2757 C 0.0694 0.51443 0.44247 0.0
C2758 C 0.09734 0.53705 0.30719 0.0
C2759 C 0.06728 0.53607 0.47007 0.0
H2760 H 0.11229 0.58291 0.45494 0.0
H2761 H 0.07768 0.57678 0.34841 0.0
H2762 H 0.10262 0.54901 0.48112 0.0
H2763 H 0.11195 0.5496 0.42003 0.0
H2764 H 0.11947 0.56521 0.46439 0.0
H2765 H 0.06496 0.55523 0.29491 0.0
H2766 H 0.07 0.54125 0.29699 0.0
H2767 H 0.05822 0.54176 0.34773 0.0
H2768 H 0.0876 0.50927 0.3394 0.0
H2769 H 0.06263 0.50876 0.47699 0.0
H2770 H 0.10849 0.54434 0.32284 0.0
H2771 H 0.09386 0.54395 0.2854 0.0
H2772 H 0.09784 0.5293 0.27815 0.0
H2773 H 0.07643 0.54455 0.49411 0.0
H2774 H 0.05894 0.52819 0.49842 0.0
H2775 H 0.06244 0.54156 0.44681 0.0
C2776 C 0.46767 0.56713 0.36809 0.0
C2777 C 0.46634 0.57772 0.39744 0.0
C2778 C 0.45604 0.55278 0.36536 0.0
C2779 C 0.44282 0.54916 0.39182 0.0
C2780 C 0.44086 0.56027 0.41523 0.0
C2781 C 0.45275 0.57444 0.41838 0.0
C2782 C 0.45857 0.54124 0.34011 0.0
C2783 C 0.42676 0.5569 0.44239 0.0
C2784 C 0.41164 0.51003 0.38795 0.0
C2785 C 0.41386 0.50469 0.43673 0.0
C2786 C 0.42087 0.5246 0.37259 0.0
C2787 C 0.43267 0.5338 0.40644 0.0
C2788 C 0.43498 0.5284 0.45552 0.0
C2789 C 0.42549 0.51395 0.47016 0.0
C2790 C 0.41802 0.53012 0.32045 0.0
C2791 C 0.44751 0.53786 0.49272 0.0
H2792 H 0.47816 0.56969 0.35145 0.0
H2793 H 0.45164 0.58274 0.44003 0.0
H2794 H 0.46066 0.53527 0.37248 0.0
H2795 H 0.44883 0.53319 0.31741 0.0
H2796 H 0.46809 0.54606 0.31242 0.0
H2797 H 0.42588 0.56687 0.44751 0.0
H2798 H 0.41725 0.54875 0.41897 0.0
H2799 H 0.42626 0.55223 0.48297 0.0
H2800 H 0.4026 0.5029 0.36211 0.0
H2801 H 0.42732 0.50986 0.50773 0.0
H2802 H 0.42719 0.53315 0.29206 0.0
H2803 H 0.41735 0.5401 0.328 0.0
H2804 H 0.40778 0.52186 0.30068 0.0
H2805 H 0.45799 0.5423 0.47067 0.0
H2806 H 0.44796 0.53181 0.52862 0.0
H2807 H 0.4465 0.54726 0.50693 0.0
loop_
_geom_bond_atom_site_label_1
_geom_bond_atom_site_label_2
_geom_bond_distance
_geom_bond_site_symmetry_2
_ccdc_geom_bond_type
C0 O1 1.306 . S
C0 O3 1.160 . S
O1 C0 1.306 . S
O1 Cd2 2.228 . S
Cd2 O1 2.228 . S
Cd2 O6 2.273 . S
Cd2 O10 2.277 . S
O3 C0 1.160 . S
O3 Cd4 2.203 . S
Cd4 O3 2.203 . S
Cd4 O6 2.411 . S
Cd4 O7 2.333 . S
Cd4 O8 2.352 . S
Cd4 O12 2.277 . S
Cd4 O13 2.356 . S
C5 O10 1.209 . S
C5 O12 1.226 . S
O6 Cd2 2.273 . S
O6 Cd4 2.411 . S
O6 C9 1.320 . S
O7 Cd4 2.333 . S
O7 C9 1.214 . S
O8 Cd4 2.352 . S
O8 C11 1.258 . S
C9 O6 1.320 . S
C9 O7 1.214 . S
O10 Cd2 2.277 . S
O10 C5 1.209 . S
C11 O8 1.258 . S
C11 O13 1.282 . S
O12 Cd4 2.277 . S
O12 C5 1.226 . S
O13 Cd4 2.356 . S
O13 C11 1.282 . S
C14 O15 1.306 . S
C14 O17 1.160 . S
O15 C14 1.306 . S
O15 Cd16 2.228 . S
Cd16 O15 2.228 . S
Cd16 O20 2.273 . S
Cd16 O24 2.277 . S
O17 C14 1.160 . S
O17 Cd18 2.203 . S
Cd18 O17 2.203 . S
Cd18 O20 2.411 . S
Cd18 O21 2.333 . S
Cd18 O22 2.352 . S
Cd18 O26 2.277 . S
Cd18 O27 2.356 . S
C19 O24 1.209 . S
C19 O26 1.226 . S
O20 Cd16 2.273 . S
O20 Cd18 2.411 . S
O20 C23 1.320 . S
O21 Cd18 2.333 . S
O21 C23 1.214 . S
O22 Cd18 2.352 . S
O22 C25 1.258 . S
C23 O20 1.320 . S
C23 O21 1.214 . S
O24 Cd16 2.277 . S
O24 C19 1.209 . S
C25 O22 1.258 . S
C25 O27 1.282 . S
O26 Cd18 2.277 . S
O26 C19 1.226 . S
O27 Cd18 2.356 . S
O27 C25 1.282 . S
C28 O29 1.306 . S
C28 O31 1.160 . S
O29 C28 1.306 . S
O29 Cd30 2.228 . S
Cd30 O29 2.228 . S
Cd30 O34 2.273 . S
Cd30 O38 2.277 . S
O31 C28 1.160 . S
O31 Cd32 2.203 . S
Cd32 O31 2.203 . S
Cd32 O34 2.411 . S
Cd32 O35 2.333 . S
Cd32 O36 2.352 . S
Cd32 O40 2.277 . S
Cd32 O41 2.356 . S
C33 O38 1.209 . S
C33 O40 1.226 . S
O34 Cd30 2.273 . S
O34 Cd32 2.411 . S
O34 C37 1.320 . S
O35 Cd32 2.333 . S
O35 C37 1.214 . S
O36 Cd32 2.352 . S
O36 C39 1.258 . S
C37 O34 1.320 . S
C37 O35 1.214 . S
O38 Cd30 2.277 . S
O38 C33 1.209 . S
C39 O36 1.258 . S
C39 O41 1.282 . S
O40 Cd32 2.277 . S
O40 C33 1.226 . S
O41 Cd32 2.356 . S
O41 C39 1.282 . S
C42 O43 1.306 . S
C42 O45 1.160 . S
O43 C42 1.306 . S
O43 Cd44 2.228 . S
Cd44 O43 2.228 . S
Cd44 O48 2.273 . S
Cd44 O52 2.277 . S
O45 C42 1.160 . S
O45 Cd46 2.203 . S
Cd46 O45 2.203 . S
Cd46 O48 2.411 . S
Cd46 O49 2.333 . S
Cd46 O50 2.352 . S
Cd46 O54 2.277 . S
Cd46 O55 2.356 . S
C47 O52 1.209 . S
C47 O54 1.226 . S
O48 Cd44 2.273 . S
O48 Cd46 2.411 . S
O48 C51 1.320 . S
O49 Cd46 2.333 . S
O49 C51 1.214 . S
O50 Cd46 2.352 . S
O50 C53 1.258 . S
C51 O48 1.320 . S
C51 O49 1.214 . S
O52 Cd44 2.277 . S
O52 C47 1.209 . S
C53 O50 1.258 . S
C53 O55 1.282 . S
O54 Cd46 2.277 . S
O54 C47 1.226 . S
O55 Cd46 2.356 . S
O55 C53 1.282 . S
C56 O57 1.306 . S
C56 O59 1.160 . S
O57 C56 1.306 . S
O57 Cd58 2.228 . S
Cd58 O57 2.228 . S
Cd58 O62 2.273 . S
Cd58 O66 2.277 . S
O59 C56 1.160 . S
O59 Cd60 2.203 . S
Cd60 O59 2.203 . S
Cd60 O62 2.411 . S
Cd60 O63 2.333 . S
Cd60 O64 2.352 . S
Cd60 O68 2.277 . S
Cd60 O69 2.356 . S
C61 O66 1.209 . S
C61 O68 1.226 . S
O62 Cd58 2.273 . S
O62 Cd60 2.411 . S
O62 C65 1.320 . S
O63 Cd60 2.333 . S
O63 C65 1.214 . S
O64 Cd60 2.352 . S
O64 C67 1.258 . S
C65 O62 1.320 . S
C65 O63 1.214 . S
O66 Cd58 2.277 . S
O66 C61 1.209 . S
C67 O64 1.258 . S
C67 O69 1.282 . S
O68 Cd60 2.277 . S
O68 C61 1.226 . S
O69 Cd60 2.356 . S
O69 C67 1.282 . S
C70 O71 1.306 . S
C70 O73 1.160 . S
O71 C70 1.306 . S
O71 Cd72 2.228 . S
Cd72 O71 2.228 . S
Cd72 O76 2.273 . S
Cd72 O80 2.277 . S
O73 C70 1.160 . S
O73 Cd74 2.203 . S
Cd74 O73 2.203 . S
Cd74 O76 2.411 . S
Cd74 O77 2.333 . S
Cd74 O78 2.352 . S
Cd74 O82 2.277 . S
Cd74 O83 2.356 . S
C75 O80 1.209 . S
C75 O82 1.226 . S
O76 Cd72 2.273 . S
O76 Cd74 2.411 . S
O76 C79 1.320 . S
O77 Cd74 2.333 . S
O77 C79 1.214 . S
O78 Cd74 2.352 . S
O78 C81 1.258 . S
C79 O76 1.320 . S
C79 O77 1.214 . S
O80 Cd72 2.277 . S
O80 C75 1.209 . S
C81 O78 1.258 . S
C81 O83 1.282 . S
O82 Cd74 2.277 . S
O82 C75 1.226 . S
O83 Cd74 2.356 . S
O83 C81 1.282 . S
C84 O85 1.306 . S
C84 O87 1.160 . S
O85 C84 1.306 . S
O85 Cd86 2.228 . S
Cd86 O85 2.228 . S
Cd86 O90 2.273 . S
Cd86 O94 2.277 . S
O87 C84 1.160 . S
O87 Cd88 2.203 . S
Cd88 O87 2.203 . S
Cd88 O90 2.411 . S
Cd88 O91 2.333 . S
Cd88 O92 2.352 . S
Cd88 O96 2.277 . S
Cd88 O97 2.356 . S
C89 O94 1.209 . S
C89 O96 1.226 . S
O90 Cd86 2.273 . S
O90 Cd88 2.411 . S
O90 C93 1.320 . S
O91 Cd88 2.333 . S
O91 C93 1.214 . S
O92 Cd88 2.352 . S
O92 C95 1.258 . S
C93 O90 1.320 . S
C93 O91 1.214 . S
O94 Cd86 2.277 . S
O94 C89 1.209 . S
C95 O92 1.258 . S
C95 O97 1.282 . S
O96 Cd88 2.277 . S
O96 C89 1.226 . S
O97 Cd88 2.356 . S
O97 C95 1.282 . S
C98 O99 1.306 . S
C98 O101 1.160 . S
O99 C98 1.306 . S
O99 Cd100 2.228 . S
Cd100 O99 2.228 . S
Cd100 O104 2.273 . S
Cd100 O108 2.277 . S
O101 C98 1.160 . S
O101 Cd102 2.203 . S
Cd102 O101 2.203 . S
Cd102 O104 2.411 . S
Cd102 O105 2.333 . S
Cd102 O106 2.352 . S
Cd102 O110 2.277 . S
Cd102 O111 2.356 . S
C103 O108 1.209 . S
C103 O110 1.226 . S
O104 Cd100 2.273 . S
O104 Cd102 2.411 . S
O104 C107 1.320 . S
O105 Cd102 2.333 . S
O105 C107 1.214 . S
O106 Cd102 2.352 . S
O106 C109 1.258 . S
C107 O104 1.320 . S
C107 O105 1.214 . S
O108 Cd100 2.277 . S
O108 C103 1.209 . S
C109 O106 1.258 . S
C109 O111 1.282 . S
O110 Cd102 2.277 . S
O110 C103 1.226 . S
O111 Cd102 2.356 . S
O111 C109 1.282 . S
C112 O113 1.306 . S
C112 O115 1.160 . S
O113 C112 1.306 . S
O113 Cd114 2.228 . S
Cd114 O113 2.228 . S
Cd114 O118 2.273 . S
Cd114 O122 2.277 . S
O115 C112 1.160 . S
O115 Cd116 2.203 . S
Cd116 O115 2.203 . S
Cd116 O118 2.411 . S
Cd116 O119 2.333 . S
Cd116 O120 2.352 . S
Cd116 O124 2.277 . S
Cd116 O125 2.356 . S
C117 O122 1.209 . S
C117 O124 1.226 . S
O118 Cd114 2.273 . S
O118 Cd116 2.411 . S
O118 C121 1.320 . S
O119 Cd116 2.333 . S
O119 C121 1.214 . S
O120 Cd116 2.352 . S
O120 C123 1.258 . S
C121 O118 1.320 . S
C121 O119 1.214 . S
O122 Cd114 2.277 . S
O122 C117 1.209 . S
C123 O120 1.258 . S
C123 O125 1.282 . S
O124 Cd116 2.277 . S
O124 C117 1.226 . S
O125 Cd116 2.356 . S
O125 C123 1.282 . S
C126 O127 1.306 . S
C126 O129 1.160 . S
O127 C126 1.306 . S
O127 Cd128 2.228 . S
Cd128 O127 2.228 . S
Cd128 O132 2.273 . S
Cd128 O136 2.277 . S
O129 C126 1.160 . S
O129 Cd130 2.203 . S
Cd130 O129 2.203 . S
Cd130 O132 2.411 . S
Cd130 O133 2.333 . S
Cd130 O134 2.352 . S
Cd130 O138 2.277 . S
Cd130 O139 2.356 . S
C131 O136 1.209 . S
C131 O138 1.226 . S
O132 Cd128 2.273 . S
O132 Cd130 2.411 . S
O132 C135 1.320 . S
O133 Cd130 2.333 . S
O133 C135 1.214 . S
O134 Cd130 2.352 . S
O134 C137 1.258 . S
C135 O132 1.320 . S
C135 O133 1.214 . S
O136 Cd128 2.277 . S
O136 C131 1.209 . S
C137 O134 1.258 . S
C137 O139 1.282 . S
O138 Cd130 2.277 . S
O138 C131 1.226 . S
O139 Cd130 2.356 . S
O139 C137 1.282 . S
C140 O141 1.306 . S
C140 O143 1.160 . S
O141 C140 1.306 . S
O141 Cd142 2.228 . S
Cd142 O141 2.228 . S
Cd142 O146 2.273 . S
Cd142 O150 2.277 . S
O143 C140 1.160 . S
O143 Cd144 2.203 . S
Cd144 O143 2.203 . S
Cd144 O146 2.411 . S
Cd144 O147 2.333 . S
Cd144 O148 2.352 . S
Cd144 O152 2.277 . S
Cd144 O153 2.356 . S
C145 O150 1.209 . S
C145 O152 1.226 . S
O146 Cd142 2.273 . S
O146 Cd144 2.411 . S
O146 C149 1.320 . S
O147 Cd144 2.333 . S
O147 C149 1.214 . S
O148 Cd144 2.352 . S
O148 C151 1.258 . S
C149 O146 1.320 . S
C149 O147 1.214 . S
O150 Cd142 2.277 . S
O150 C145 1.209 . S
C151 O148 1.258 . S
C151 O153 1.282 . S
O152 Cd144 2.277 . S
O152 C145 1.226 . S
O153 Cd144 2.356 . S
O153 C151 1.282 . S
C154 O155 1.306 . S
C154 O157 1.160 . S
O155 C154 1.306 . S
O155 Cd156 2.228 . S
Cd156 O155 2.228 . S
Cd156 O160 2.273 . S
Cd156 O164 2.277 . S
O157 C154 1.160 . S
O157 Cd158 2.203 . S
Cd158 O157 2.203 . S
Cd158 O160 2.411 . S
Cd158 O161 2.333 . S
Cd158 O162 2.352 . S
Cd158 O166 2.277 . S
Cd158 O167 2.356 . S
C159 O164 1.209 . S
C159 O166 1.226 . S
O160 Cd156 2.273 . S
O160 Cd158 2.411 . S
O160 C163 1.320 . S
O161 Cd158 2.333 . S
O161 C163 1.214 . S
O162 Cd158 2.352 . S
O162 C165 1.258 . S
C163 O160 1.320 . S
C163 O161 1.214 . S
O164 Cd156 2.277 . S
O164 C159 1.209 . S
C165 O162 1.258 . S
C165 O167 1.282 . S
O166 Cd158 2.277 . S
O166 C159 1.226 . S
O167 Cd158 2.356 . S
O167 C165 1.282 . S
C168 O169 1.306 . S
C168 O171 1.160 . S
O169 C168 1.306 . S
O169 Cd170 2.228 . S
Cd170 O169 2.228 . S
Cd170 O174 2.273 . S
Cd170 O178 2.277 . S
O171 C168 1.160 . S
O171 Cd172 2.203 . S
Cd172 O171 2.203 . S
Cd172 O174 2.411 . S
Cd172 O175 2.333 . S
Cd172 O176 2.352 . S
Cd172 O180 2.277 . S
Cd172 O181 2.356 . S
C173 O178 1.209 . S
C173 O180 1.226 . S
O174 Cd170 2.273 . S
O174 Cd172 2.411 . S
O174 C177 1.320 . S
O175 Cd172 2.333 . S
O175 C177 1.214 . S
O176 Cd172 2.352 . S
O176 C179 1.258 . S
C177 O174 1.320 . S
C177 O175 1.214 . S
O178 Cd170 2.277 . S
O178 C173 1.209 . S
C179 O176 1.258 . S
C179 O181 1.282 . S
O180 Cd172 2.277 . S
O180 C173 1.226 . S
O181 Cd172 2.356 . S
O181 C179 1.282 . S
C182 O183 1.306 . S
C182 O185 1.160 . S
O183 C182 1.306 . S
O183 Cd184 2.228 . S
Cd184 O183 2.228 . S
Cd184 O188 2.273 . S
Cd184 O192 2.277 . S
O185 C182 1.160 . S
O185 Cd186 2.203 . S
Cd186 O185 2.203 . S
Cd186 O188 2.411 . S
Cd186 O189 2.333 . S
Cd186 O190 2.352 . S
Cd186 O194 2.277 . S
Cd186 O195 2.356 . S
C187 O192 1.209 . S
C187 O194 1.226 . S
O188 Cd184 2.273 . S
O188 Cd186 2.411 . S
O188 C191 1.320 . S
O189 Cd186 2.333 . S
O189 C191 1.214 . S
O190 Cd186 2.352 . S
O190 C193 1.258 . S
C191 O188 1.320 . S
C191 O189 1.214 . S
O192 Cd184 2.277 . S
O192 C187 1.209 . S
C193 O190 1.258 . S
C193 O195 1.282 . S
O194 Cd186 2.277 . S
O194 C187 1.226 . S
O195 Cd186 2.356 . S
O195 C193 1.282 . S
C196 O197 1.306 . S
C196 O199 1.160 . S
O197 C196 1.306 . S
O197 Cd198 2.228 . S
Cd198 O197 2.228 . S
Cd198 O202 2.273 . S
Cd198 O206 2.277 . S
O199 C196 1.160 . S
O199 Cd200 2.203 . S
Cd200 O199 2.203 . S
Cd200 O202 2.411 . S
Cd200 O203 2.333 . S
Cd200 O204 2.352 . S
Cd200 O208 2.277 . S
Cd200 O209 2.356 . S
C201 O206 1.209 . S
C201 O208 1.226 . S
O202 Cd198 2.273 . S
O202 Cd200 2.411 . S
O202 C205 1.320 . S
O203 Cd200 2.333 . S
O203 C205 1.214 . S
O204 Cd200 2.352 . S
O204 C207 1.258 . S
C205 O202 1.320 . S
C205 O203 1.214 . S
O206 Cd198 2.277 . S
O206 C201 1.209 . S
C207 O204 1.258 . S
C207 O209 1.282 . S
O208 Cd200 2.277 . S
O208 C201 1.226 . S
O209 Cd200 2.356 . S
O209 C207 1.282 . S
C210 O211 1.306 . S
C210 O213 1.160 . S
O211 C210 1.306 . S
O211 Cd212 2.228 . S
Cd212 O211 2.228 . S
Cd212 O216 2.273 . S
Cd212 O220 2.277 . S
O213 C210 1.160 . S
O213 Cd214 2.203 . S
Cd214 O213 2.203 . S
Cd214 O216 2.411 . S
Cd214 O217 2.333 . S
Cd214 O218 2.352 . S
Cd214 O222 2.277 . S
Cd214 O223 2.356 1_554 S
C215 O220 1.209 . S
C215 O222 1.226 . S
O216 Cd212 2.273 . S
O216 Cd214 2.411 . S
O216 C219 1.320 . S
O217 Cd214 2.333 . S
O217 C219 1.214 . S
O218 Cd214 2.352 . S
O218 C221 1.258 1_554 S
C219 O216 1.320 . S
C219 O217 1.214 . S
O220 Cd212 2.277 . S
O220 C215 1.209 . S
C221 O218 1.258 1_556 S
C221 O223 1.282 . S
O222 Cd214 2.277 . S
O222 C215 1.226 . S
O223 Cd214 2.356 1_556 S
O223 C221 1.282 . S
C224 O225 1.306 . S
C224 O227 1.160 . S
O225 C224 1.306 . S
O225 Cd226 2.228 . S
Cd226 O225 2.228 . S
Cd226 O230 2.273 . S
Cd226 O234 2.277 . S
O227 C224 1.160 . S
O227 Cd228 2.203 . S
Cd228 O227 2.203 . S
Cd228 O230 2.411 . S
Cd228 O231 2.333 . S
Cd228 O232 2.352 . S
Cd228 O236 2.277 . S
Cd228 O237 2.356 1_554 S
C229 O234 1.209 . S
C229 O236 1.226 . S
O230 Cd226 2.273 . S
O230 Cd228 2.411 . S
O230 C233 1.320 . S
O231 Cd228 2.333 . S
O231 C233 1.214 . S
O232 Cd228 2.352 . S
O232 C235 1.258 1_554 S
C233 O230 1.320 . S
C233 O231 1.214 . S
O234 Cd226 2.277 . S
O234 C229 1.209 . S
C235 O232 1.258 1_556 S
C235 O237 1.282 . S
O236 Cd228 2.277 . S
O236 C229 1.226 . S
O237 Cd228 2.356 1_556 S
O237 C235 1.282 . S
C238 O239 1.306 . S
C238 O241 1.160 . S
O239 C238 1.306 . S
O239 Cd240 2.228 . S
Cd240 O239 2.228 . S
Cd240 O244 2.273 . S
Cd240 O248 2.277 . S
O241 C238 1.160 . S
O241 Cd242 2.203 . S
Cd242 O241 2.203 . S
Cd242 O244 2.411 . S
Cd242 O245 2.333 . S
Cd242 O246 2.352 . S
Cd242 O250 2.277 . S
Cd242 O251 2.356 1_554 S
C243 O248 1.209 . S
C243 O250 1.226 . S
O244 Cd240 2.273 . S
O244 Cd242 2.411 . S
O244 C247 1.320 . S
O245 Cd242 2.333 . S
O245 C247 1.214 . S
O246 Cd242 2.352 . S
O246 C249 1.258 1_554 S
C247 O244 1.320 . S
C247 O245 1.214 . S
O248 Cd240 2.277 . S
O248 C243 1.209 . S
C249 O246 1.258 1_556 S
C249 O251 1.282 . S
O250 Cd242 2.277 . S
O250 C243 1.226 . S
O251 Cd242 2.356 1_556 S
O251 C249 1.282 . S
C252 O253 1.306 . S
C252 O255 1.160 . S
O253 C252 1.306 . S
O253 Cd254 2.228 . S
Cd254 O253 2.228 . S
Cd254 O258 2.273 . S
Cd254 O262 2.277 . S
O255 C252 1.160 . S
O255 Cd256 2.203 . S
Cd256 O255 2.203 . S
Cd256 O258 2.411 . S
Cd256 O259 2.333 . S
Cd256 O260 2.352 . S
Cd256 O264 2.277 . S
Cd256 O265 2.356 1_554 S
C257 O262 1.209 . S
C257 O264 1.226 . S
O258 Cd254 2.273 . S
O258 Cd256 2.411 . S
O258 C261 1.320 . S
O259 Cd256 2.333 . S
O259 C261 1.214 . S
O260 Cd256 2.352 . S
O260 C263 1.258 1_554 S
C261 O258 1.320 . S
C261 O259 1.214 . S
O262 Cd254 2.277 . S
O262 C257 1.209 . S
C263 O260 1.258 1_556 S
C263 O265 1.282 . S
O264 Cd256 2.277 . S
O264 C257 1.226 . S
O265 Cd256 2.356 1_556 S
O265 C263 1.282 . S
C266 O267 1.306 . S
C266 O269 1.160 . S
O267 C266 1.306 . S
O267 Cd268 2.228 . S
Cd268 O267 2.228 . S
Cd268 O272 2.273 . S
Cd268 O276 2.277 . S
O269 C266 1.160 . S
O269 Cd270 2.203 . S
Cd270 O269 2.203 . S
Cd270 O272 2.411 . S
Cd270 O273 2.333 . S
Cd270 O274 2.352 . S
Cd270 O278 2.277 . S
Cd270 O279 2.356 1_554 S
C271 O276 1.209 . S
C271 O278 1.226 . S
O272 Cd268 2.273 . S
O272 Cd270 2.411 . S
O272 C275 1.320 . S
O273 Cd270 2.333 . S
O273 C275 1.214 . S
O274 Cd270 2.352 . S
O274 C277 1.258 1_554 S
C275 O272 1.320 . S
C275 O273 1.214 . S
O276 Cd268 2.277 . S
O276 C271 1.209 . S
C277 O274 1.258 1_556 S
C277 O279 1.282 . S
O278 Cd270 2.277 . S
O278 C271 1.226 . S
O279 Cd270 2.356 1_556 S
O279 C277 1.282 . S
C280 O281 1.306 . S
C280 O283 1.160 . S
O281 C280 1.306 . S
O281 Cd282 2.228 . S
Cd282 O281 2.228 . S
Cd282 O286 2.273 . S
Cd282 O290 2.277 . S
O283 C280 1.160 . S
O283 Cd284 2.203 . S
Cd284 O283 2.203 . S
Cd284 O286 2.411 . S
Cd284 O287 2.333 . S
Cd284 O288 2.352 . S
Cd284 O292 2.277 . S
Cd284 O293 2.356 1_554 S
C285 O290 1.209 . S
C285 O292 1.226 . S
O286 Cd282 2.273 . S
O286 Cd284 2.411 . S
O286 C289 1.320 . S
O287 Cd284 2.333 . S
O287 C289 1.214 . S
O288 Cd284 2.352 . S
O288 C291 1.258 1_554 S
C289 O286 1.320 . S
C289 O287 1.214 . S
O290 Cd282 2.277 . S
O290 C285 1.209 . S
C291 O288 1.258 1_556 S
C291 O293 1.282 . S
O292 Cd284 2.277 . S
O292 C285 1.226 . S
O293 Cd284 2.356 1_556 S
O293 C291 1.282 . S
C294 O295 1.306 . S
C294 O297 1.160 . S
O295 C294 1.306 . S
O295 Cd296 2.228 . S
Cd296 O295 2.228 . S
Cd296 O300 2.273 . S
Cd296 O304 2.277 . S
O297 C294 1.160 . S
O297 Cd298 2.203 . S
Cd298 O297 2.203 . S
Cd298 O300 2.411 . S
Cd298 O301 2.333 . S
Cd298 O302 2.352 . S
Cd298 O306 2.277 . S
Cd298 O307 2.356 . S
C299 O304 1.209 . S
C299 O306 1.226 . S
O300 Cd296 2.273 . S
O300 Cd298 2.411 . S
O300 C303 1.320 . S
O301 Cd298 2.333 . S
O301 C303 1.214 . S
O302 Cd298 2.352 . S
O302 C305 1.258 . S
C303 O300 1.320 . S
C303 O301 1.214 . S
O304 Cd296 2.277 . S
O304 C299 1.209 . S
C305 O302 1.258 . S
C305 O307 1.282 . S
O306 Cd298 2.277 . S
O306 C299 1.226 . S
O307 Cd298 2.356 . S
O307 C305 1.282 . S
C308 O309 1.306 . S
C308 O311 1.160 . S
O309 C308 1.306 . S
O309 Cd310 2.228 . S
Cd310 O309 2.228 . S
Cd310 O314 2.273 . S
Cd310 O318 2.277 . S
O311 C308 1.160 . S
O311 Cd312 2.203 . S
Cd312 O311 2.203 . S
Cd312 O314 2.411 . S
Cd312 O315 2.333 . S
Cd312 O316 2.352 . S
Cd312 O320 2.277 . S
Cd312 O321 2.356 . S
C313 O318 1.209 . S
C313 O320 1.226 . S
O314 Cd310 2.273 . S
O314 Cd312 2.411 . S
O314 C317 1.320 . S
O315 Cd312 2.333 . S
O315 C317 1.214 . S
O316 Cd312 2.352 . S
O316 C319 1.258 . S
C317 O314 1.320 . S
C317 O315 1.214 . S
O318 Cd310 2.277 . S
O318 C313 1.209 . S
C319 O316 1.258 . S
C319 O321 1.282 . S
O320 Cd312 2.277 . S
O320 C313 1.226 . S
O321 Cd312 2.356 . S
O321 C319 1.282 . S
C322 O323 1.306 . S
C322 O325 1.160 . S
O323 C322 1.306 . S
O323 Cd324 2.228 . S
Cd324 O323 2.228 . S
Cd324 O328 2.273 . S
Cd324 O332 2.277 . S
O325 C322 1.160 . S
O325 Cd326 2.203 . S
Cd326 O325 2.203 . S
Cd326 O328 2.411 . S
Cd326 O329 2.333 . S
Cd326 O330 2.352 . S
Cd326 O334 2.277 . S
Cd326 O335 2.356 . S
C327 O332 1.209 . S
C327 O334 1.226 . S
O328 Cd324 2.273 . S
O328 Cd326 2.411 . S
O328 C331 1.320 . S
O329 Cd326 2.333 . S
O329 C331 1.214 . S
O330 Cd326 2.352 . S
O330 C333 1.258 . S
C331 O328 1.320 . S
C331 O329 1.214 . S
O332 Cd324 2.277 . S
O332 C327 1.209 . S
C333 O330 1.258 . S
C333 O335 1.282 . S
O334 Cd326 2.277 . S
O334 C327 1.226 . S
O335 Cd326 2.356 . S
O335 C333 1.282 . S
C336 O337 1.306 . S
C336 O339 1.160 . S
O337 C336 1.306 . S
O337 Cd338 2.228 . S
Cd338 O337 2.228 . S
Cd338 O342 2.273 . S
Cd338 O346 2.277 . S
O339 C336 1.160 . S
O339 Cd340 2.203 . S
Cd340 O339 2.203 . S
Cd340 O342 2.411 . S
Cd340 O343 2.333 . S
Cd340 O344 2.352 . S
Cd340 O348 2.277 . S
Cd340 O349 2.356 1_556 S
C341 O346 1.209 . S
C341 O348 1.226 . S
O342 Cd338 2.273 . S
O342 Cd340 2.411 . S
O342 C345 1.320 . S
O343 Cd340 2.333 . S
O343 C345 1.214 . S
O344 Cd340 2.352 . S
O344 C347 1.258 1_556 S
C345 O342 1.320 . S
C345 O343 1.214 . S
O346 Cd338 2.277 . S
O346 C341 1.209 . S
C347 O344 1.258 1_554 S
C347 O349 1.282 . S
O348 Cd340 2.277 . S
O348 C341 1.226 . S
O349 Cd340 2.356 1_554 S
O349 C347 1.282 . S
C350 O351 1.306 . S
C350 O353 1.160 . S
O351 C350 1.306 . S
O351 Cd352 2.228 . S
Cd352 O351 2.228 . S
Cd352 O356 2.273 . S
Cd352 O360 2.277 . S
O353 C350 1.160 . S
O353 Cd354 2.203 . S
Cd354 O353 2.203 . S
Cd354 O356 2.411 . S
Cd354 O357 2.333 . S
Cd354 O358 2.352 . S
Cd354 O362 2.277 . S
Cd354 O363 2.356 1_556 S
C355 O360 1.209 . S
C355 O362 1.226 . S
O356 Cd352 2.273 . S
O356 Cd354 2.411 . S
O356 C359 1.320 . S
O357 Cd354 2.333 . S
O357 C359 1.214 . S
O358 Cd354 2.352 . S
O358 C361 1.258 1_556 S
C359 O356 1.320 . S
C359 O357 1.214 . S
O360 Cd352 2.277 . S
O360 C355 1.209 . S
C361 O358 1.258 1_554 S
C361 O363 1.282 . S
O362 Cd354 2.277 . S
O362 C355 1.226 . S
O363 Cd354 2.356 1_554 S
O363 C361 1.282 . S
C364 O365 1.306 . S
C364 O367 1.160 . S
O365 C364 1.306 . S
O365 Cd366 2.228 . S
Cd366 O365 2.228 . S
Cd366 O370 2.273 . S
Cd366 O374 2.277 . S
O367 C364 1.160 . S
O367 Cd368 2.203 . S
Cd368 O367 2.203 . S
Cd368 O370 2.411 . S
Cd368 O371 2.333 . S
Cd368 O372 2.352 . S
Cd368 O376 2.277 . S
Cd368 O377 2.356 1_556 S
C369 O374 1.209 . S
C369 O376 1.226 . S
O370 Cd366 2.273 . S
O370 Cd368 2.411 . S
O370 C373 1.320 . S
O371 Cd368 2.333 . S
O371 C373 1.214 . S
O372 Cd368 2.352 . S
O372 C375 1.258 1_556 S
C373 O370 1.320 . S
C373 O371 1.214 . S
O374 Cd366 2.277 . S
O374 C369 1.209 . S
C375 O372 1.258 1_554 S
C375 O377 1.282 . S
O376 Cd368 2.277 . S
O376 C369 1.226 . S
O377 Cd368 2.356 1_554 S
O377 C375 1.282 . S
C378 O379 1.306 . S
C378 O381 1.160 . S
O379 C378 1.306 . S
O379 Cd380 2.228 . S
Cd380 O379 2.228 . S
Cd380 O384 2.273 . S
Cd380 O388 2.277 . S
O381 C378 1.160 . S
O381 Cd382 2.203 . S
Cd382 O381 2.203 . S
Cd382 O384 2.411 . S
Cd382 O385 2.333 . S
Cd382 O386 2.352 . S
Cd382 O390 2.277 . S
Cd382 O391 2.356 . S
C383 O388 1.209 . S
C383 O390 1.226 . S
O384 Cd380 2.273 . S
O384 Cd382 2.411 . S
O384 C387 1.320 . S
O385 Cd382 2.333 . S
O385 C387 1.214 . S
O386 Cd382 2.352 . S
O386 C389 1.258 . S
C387 O384 1.320 . S
C387 O385 1.214 . S
O388 Cd380 2.277 . S
O388 C383 1.209 . S
C389 O386 1.258 . S
C389 O391 1.282 . S
O390 Cd382 2.277 . S
O390 C383 1.226 . S
O391 Cd382 2.356 . S
O391 C389 1.282 . S
C392 O393 1.306 . S
C392 O395 1.160 . S
O393 C392 1.306 . S
O393 Cd394 2.228 . S
Cd394 O393 2.228 . S
Cd394 O398 2.273 . S
Cd394 O402 2.277 . S
O395 C392 1.160 . S
O395 Cd396 2.203 . S
Cd396 O395 2.203 . S
Cd396 O398 2.411 . S
Cd396 O399 2.333 . S
Cd396 O400 2.352 . S
Cd396 O404 2.277 . S
Cd396 O405 2.356 . S
C397 O402 1.209 . S
C397 O404 1.226 . S
O398 Cd394 2.273 . S
O398 Cd396 2.411 . S
O398 C401 1.320 . S
O399 Cd396 2.333 . S
O399 C401 1.214 . S
O400 Cd396 2.352 . S
O400 C403 1.258 . S
C401 O398 1.320 . S
C401 O399 1.214 . S
O402 Cd394 2.277 . S
O402 C397 1.209 . S
C403 O400 1.258 . S
C403 O405 1.282 . S
O404 Cd396 2.277 . S
O404 C397 1.226 . S
O405 Cd396 2.356 . S
O405 C403 1.282 . S
C406 O407 1.306 . S
C406 O409 1.160 . S
O407 C406 1.306 . S
O407 Cd408 2.228 . S
Cd408 O407 2.228 . S
Cd408 O412 2.273 . S
Cd408 O416 2.277 . S
O409 C406 1.160 . S
O409 Cd410 2.203 . S
Cd410 O409 2.203 . S
Cd410 O412 2.411 . S
Cd410 O413 2.333 . S
Cd410 O414 2.352 . S
Cd410 O418 2.277 . S
Cd410 O419 2.356 . S
C411 O416 1.209 . S
C411 O418 1.226 . S
O412 Cd408 2.273 . S
O412 Cd410 2.411 . S
O412 C415 1.320 . S
O413 Cd410 2.333 . S
O413 C415 1.214 . S
O414 Cd410 2.352 . S
O414 C417 1.258 . S
C415 O412 1.320 . S
C415 O413 1.214 . S
O416 Cd408 2.277 . S
O416 C411 1.209 . S
C417 O414 1.258 . S
C417 O419 1.282 . S
O418 Cd410 2.277 . S
O418 C411 1.226 . S
O419 Cd410 2.356 . S
O419 C417 1.282 . S
C420 O421 1.306 . S
C420 O423 1.160 . S
O421 C420 1.306 . S
O421 Cd422 2.228 . S
Cd422 O421 2.228 . S
Cd422 O426 2.273 . S
Cd422 O430 2.277 . S
O423 C420 1.160 . S
O423 Cd424 2.203 . S
Cd424 O423 2.203 . S
Cd424 O426 2.411 . S
Cd424 O427 2.333 . S
Cd424 O428 2.352 . S
Cd424 O432 2.277 . S
Cd424 O433 2.356 . S
C425 O430 1.209 . S
C425 O432 1.226 . S
O426 Cd422 2.273 . S
O426 Cd424 2.411 . S
O426 C429 1.320 . S
O427 Cd424 2.333 . S
O427 C429 1.214 . S
O428 Cd424 2.352 . S
O428 C431 1.258 . S
C429 O426 1.320 . S
C429 O427 1.214 . S
O430 Cd422 2.277 . S
O430 C425 1.209 . S
C431 O428 1.258 . S
C431 O433 1.282 . S
O432 Cd424 2.277 . S
O432 C425 1.226 . S
O433 Cd424 2.356 . S
O433 C431 1.282 . S
C434 O435 1.306 . S
C434 O437 1.160 . S
O435 C434 1.306 . S
O435 Cd436 2.228 . S
Cd436 O435 2.228 . S
Cd436 O440 2.273 . S
Cd436 O444 2.277 . S
O437 C434 1.160 . S
O437 Cd438 2.203 . S
Cd438 O437 2.203 . S
Cd438 O440 2.411 . S
Cd438 O441 2.333 . S
Cd438 O442 2.352 . S
Cd438 O446 2.277 . S
Cd438 O447 2.356 . S
C439 O444 1.209 . S
C439 O446 1.226 . S
O440 Cd436 2.273 . S
O440 Cd438 2.411 . S
O440 C443 1.320 . S
O441 Cd438 2.333 . S
O441 C443 1.214 . S
O442 Cd438 2.352 . S
O442 C445 1.258 . S
C443 O440 1.320 . S
C443 O441 1.214 . S
O444 Cd436 2.277 . S
O444 C439 1.209 . S
C445 O442 1.258 . S
C445 O447 1.282 . S
O446 Cd438 2.277 . S
O446 C439 1.226 . S
O447 Cd438 2.356 . S
O447 C445 1.282 . S
C448 O449 1.306 . S
C448 O451 1.160 . S
O449 C448 1.306 . S
O449 Cd450 2.228 . S
Cd450 O449 2.228 . S
Cd450 O454 2.273 . S
Cd450 O458 2.277 . S
O451 C448 1.160 . S
O451 Cd452 2.203 . S
Cd452 O451 2.203 . S
Cd452 O454 2.411 . S
Cd452 O455 2.333 . S
Cd452 O456 2.352 . S
Cd452 O460 2.277 . S
Cd452 O461 2.356 . S
C453 O458 1.209 . S
C453 O460 1.226 . S
O454 Cd450 2.273 . S
O454 Cd452 2.411 . S
O454 C457 1.320 . S
O455 Cd452 2.333 . S
O455 C457 1.214 . S
O456 Cd452 2.352 . S
O456 C459 1.258 . S
C457 O454 1.320 . S
C457 O455 1.214 . S
O458 Cd450 2.277 . S
O458 C453 1.209 . S
C459 O456 1.258 . S
C459 O461 1.282 . S
O460 Cd452 2.277 . S
O460 C453 1.226 . S
O461 Cd452 2.356 . S
O461 C459 1.282 . S
C462 O463 1.306 . S
C462 O465 1.160 . S
O463 C462 1.306 . S
O463 Cd464 2.228 . S
Cd464 O463 2.228 . S
Cd464 O468 2.273 . S
Cd464 O472 2.277 . S
O465 C462 1.160 . S
O465 Cd466 2.203 . S
Cd466 O465 2.203 . S
Cd466 O468 2.411 . S
Cd466 O469 2.333 . S
Cd466 O470 2.352 . S
Cd466 O474 2.277 . S
Cd466 O475 2.356 1_556 S
C467 O472 1.209 . S
C467 O474 1.226 . S
O468 Cd464 2.273 . S
O468 Cd466 2.411 . S
O468 C471 1.320 . S
O469 Cd466 2.333 . S
O469 C471 1.214 . S
O470 Cd466 2.352 . S
O470 C473 1.258 1_556 S
C471 O468 1.320 . S
C471 O469 1.214 . S
O472 Cd464 2.277 . S
O472 C467 1.209 . S
C473 O470 1.258 1_554 S
C473 O475 1.282 . S
O474 Cd466 2.277 . S
O474 C467 1.226 . S
O475 Cd466 2.356 1_554 S
O475 C473 1.282 . S
C476 O477 1.306 . S
C476 O479 1.160 . S
O477 C476 1.306 . S
O477 Cd478 2.228 . S
Cd478 O477 2.228 . S
Cd478 O482 2.273 . S
Cd478 O486 2.277 . S
O479 C476 1.160 . S
O479 Cd480 2.203 . S
Cd480 O479 2.203 . S
Cd480 O482 2.411 . S
Cd480 O483 2.333 . S
Cd480 O484 2.352 . S
Cd480 O488 2.277 . S
Cd480 O489 2.356 1_556 S
C481 O486 1.209 . S
C481 O488 1.226 . S
O482 Cd478 2.273 . S
O482 Cd480 2.411 . S
O482 C485 1.320 . S
O483 Cd480 2.333 . S
O483 C485 1.214 . S
O484 Cd480 2.352 . S
O484 C487 1.258 1_556 S
C485 O482 1.320 . S
C485 O483 1.214 . S
O486 Cd478 2.277 . S
O486 C481 1.209 . S
C487 O484 1.258 1_554 S
C487 O489 1.282 . S
O488 Cd480 2.277 . S
O488 C481 1.226 . S
O489 Cd480 2.356 1_554 S
O489 C487 1.282 . S
C490 O491 1.306 . S
C490 O493 1.160 . S
O491 C490 1.306 . S
O491 Cd492 2.228 . S
Cd492 O491 2.228 . S
Cd492 O496 2.273 . S
Cd492 O500 2.277 . S
O493 C490 1.160 . S
O493 Cd494 2.203 . S
Cd494 O493 2.203 . S
Cd494 O496 2.411 . S
Cd494 O497 2.333 . S
Cd494 O498 2.352 . S
Cd494 O502 2.277 . S
Cd494 O503 2.356 1_556 S
C495 O500 1.209 . S
C495 O502 1.226 . S
O496 Cd492 2.273 . S
O496 Cd494 2.411 . S
O496 C499 1.320 . S
O497 Cd494 2.333 . S
O497 C499 1.214 . S
O498 Cd494 2.352 . S
O498 C501 1.258 1_556 S
C499 O496 1.320 . S
C499 O497 1.214 . S
O500 Cd492 2.277 . S
O500 C495 1.209 . S
C501 O498 1.258 1_554 S
C501 O503 1.282 . S
O502 Cd494 2.277 . S
O502 C495 1.226 . S
O503 Cd494 2.356 1_554 S
O503 C501 1.282 . S
C504 C505 1.391 . S
C504 C506 1.394 . S
C504 H520 0.931 . S
C505 C504 1.391 . S
C505 C509 1.376 . S
C506 C504 1.394 . S
C506 C507 1.369 . S
C506 C510 1.531 1_565 S
C507 C506 1.369 . S
C507 C508 1.410 . S
C507 C515 1.503 1_565 S
C508 C507 1.410 . S
C508 C509 1.392 . S
C508 C511 1.511 . S
C509 C505 1.376 . S
C509 C508 1.392 . S
C509 H521 0.929 . S
C510 C506 1.531 1_545 S
C510 H522 0.960 . S
C510 H523 0.962 . S
C510 H524 0.960 . S
C511 C508 1.511 . S
C511 H525 0.961 . S
C511 H526 0.961 . S
C511 H527 0.961 . S
C512 C513 1.370 . S
C512 C514 1.363 . S
C512 H528 0.931 . S
C513 C512 1.370 . S
C513 C517 1.408 . S
C514 C512 1.363 . S
C514 C515 1.370 . S
C514 C518 1.524 1_545 S
C515 C507 1.503 1_545 S
C515 C514 1.370 . S
C515 C516 1.403 . S
C516 C515 1.403 . S
C516 C517 1.404 . S
C516 C519 1.539 . S
C517 C513 1.408 . S
C517 C516 1.404 . S
C517 H529 0.930 . S
C518 C514 1.524 1_565 S
C518 H530 0.956 . S
C518 H531 0.961 . S
C518 H532 0.961 . S
C519 C516 1.539 . S
C519 H533 0.958 . S
C519 H534 0.961 . S
C519 H535 0.960 . S
H520 C504 0.931 . S
H521 C509 0.929 . S
H522 C510 0.960 . S
H523 C510 0.962 . S
H524 C510 0.960 . S
H525 C511 0.961 . S
H526 C511 0.961 . S
H527 C511 0.961 . S
H528 C512 0.931 . S
H529 C517 0.930 . S
H530 C518 0.956 . S
H531 C518 0.961 . S
H532 C518 0.961 . S
H533 C519 0.958 . S
H534 C519 0.961 . S
H535 C519 0.960 . S
C536 C537 1.391 . S
C536 C538 1.394 . S
C536 H552 0.931 . S
C537 C536 1.391 . S
C537 C541 1.376 . S
C538 C536 1.394 . S
C538 C539 1.369 . S
C538 C542 1.531 . S
C539 C538 1.369 . S
C539 C540 1.410 . S
C539 C547 1.503 1_455 S
C540 C539 1.410 . S
C540 C541 1.392 . S
C540 C543 1.511 . S
C541 C537 1.376 . S
C541 C540 1.392 . S
C541 H553 0.929 . S
C542 C538 1.531 . S
C542 H554 0.960 . S
C542 H555 0.962 1_455 S
C542 H556 0.960 . S
C543 C540 1.511 . S
C543 H557 0.961 . S
C543 H558 0.961 . S
C543 H559 0.961 . S
C544 C545 1.370 . S
C544 C546 1.363 . S
C544 H560 0.931 . S
C545 C544 1.370 . S
C545 C549 1.408 . S
C546 C544 1.363 . S
C546 C547 1.370 . S
C546 C550 1.524 . S
C547 C539 1.503 1_655 S
C547 C546 1.370 . S
C547 C548 1.403 1_655 S
C548 C547 1.403 1_455 S
C548 C549 1.404 1_455 S
C548 C551 1.539 . S
C549 C545 1.408 . S
C549 C548 1.404 1_655 S
C549 H561 0.930 . S
C550 C546 1.524 . S
C550 H562 0.956 . S
C550 H563 0.961 . S
C550 H564 0.961 . S
C551 C548 1.539 . S
C551 H565 0.958 . S
C551 H566 0.961 . S
C551 H567 0.960 . S
H552 C536 0.931 . S
H553 C541 0.929 . S
H554 C542 0.960 . S
H555 C542 0.962 1_655 S
H556 C542 0.960 . S
H557 C543 0.961 . S
H558 C543 0.961 . S
H559 C543 0.961 . S
H560 C544 0.931 . S
H561 C549 0.930 . S
H562 C550 0.956 . S
H563 C550 0.961 . S
H564 C550 0.961 . S
H565 C551 0.958 . S
H566 C551 0.961 . S
H567 C551 0.960 . S
C568 C569 1.391 . S
C568 C570 1.394 . S
C568 H584 0.931 . S
C569 C568 1.391 . S
C569 C573 1.376 . S
C570 C568 1.394 . S
C570 C571 1.369 . S
C570 C574 1.531 . S
C571 C570 1.369 . S
C571 C572 1.410 . S
C571 C579 1.503 . S
C572 C571 1.410 . S
C572 C573 1.392 . S
C572 C575 1.511 . S
C573 C569 1.376 . S
C573 C572 1.392 . S
C573 H585 0.929 . S
C574 C570 1.531 . S
C574 H586 0.960 . S
C574 H587 0.962 . S
C574 H588 0.960 . S
C575 C572 1.511 . S
C575 H589 0.961 . S
C575 H590 0.961 . S
C575 H591 0.961 . S
C576 C577 1.370 . S
C576 C578 1.363 . S
C576 H592 0.931 . S
C577 C576 1.370 . S
C577 C581 1.408 . S
C578 C576 1.363 . S
C578 C579 1.370 . S
C578 C582 1.524 . S
C579 C571 1.503 . S
C579 C578 1.370 . S
C579 C580 1.403 . S
C580 C579 1.403 . S
C580 C581 1.404 . S
C580 C583 1.539 . S
C581 C577 1.408 . S
C581 C580 1.404 . S
C581 H593 0.930 . S
C582 C578 1.524 . S
C582 H594 0.956 . S
C582 H595 0.961 . S
C582 H596 0.961 . S
C583 C580 1.539 . S
C583 H597 0.958 . S
C583 H598 0.961 . S
C583 H599 0.960 . S
H584 C568 0.931 . S
H585 C573 0.929 . S
H586 C574 0.960 . S
H587 C574 0.962 . S
H588 C574 0.960 . S
H589 C575 0.961 . S
H590 C575 0.961 . S
H591 C575 0.961 . S
H592 C576 0.931 . S
H593 C581 0.930 . S
H594 C582 0.956 . S
H595 C582 0.961 . S
H596 C582 0.961 . S
H597 C583 0.958 . S
H598 C583 0.961 . S
H599 C583 0.960 . S
C600 C601 1.391 . S
C600 C602 1.394 . S
C600 H616 0.931 . S
C601 C600 1.391 . S
C601 C605 1.376 . S
C602 C600 1.394 . S
C602 C603 1.369 . S
C602 C606 1.531 . S
C603 C602 1.369 . S
C603 C604 1.410 . S
C603 C611 1.503 1_565 S
C604 C603 1.410 . S
C604 C605 1.392 . S
C604 C607 1.511 1_565 S
C605 C601 1.376 . S
C605 C604 1.392 . S
C605 H617 0.929 . S
C606 C602 1.531 . S
C606 H618 0.960 . S
C606 H619 0.962 . S
C606 H620 0.960 . S
C607 C604 1.511 1_545 S
C607 H621 0.961 . S
C607 H622 0.961 . S
C607 H623 0.961 . S
C608 C609 1.370 . S
C608 C610 1.363 . S
C608 H624 0.931 . S
C609 C608 1.370 . S
C609 C613 1.408 . S
C610 C608 1.363 . S
C610 C611 1.370 . S
C610 C614 1.524 . S
C611 C603 1.503 1_545 S
C611 C610 1.370 . S
C611 C612 1.403 . S
C612 C611 1.403 . S
C612 C613 1.404 . S
C612 C615 1.539 1_545 S
C613 C609 1.408 . S
C613 C612 1.404 . S
C613 H625 0.930 . S
C614 C610 1.524 . S
C614 H626 0.956 . S
C614 H627 0.961 . S
C614 H628 0.961 . S
C615 C612 1.539 1_565 S
C615 H629 0.958 . S
C615 H630 0.961 . S
C615 H631 0.960 . S
H616 C600 0.931 . S
H617 C605 0.929 . S
H618 C606 0.960 . S
H619 C606 0.962 . S
H620 C606 0.960 . S
H621 C607 0.961 . S
H622 C607 0.961 . S
H623 C607 0.961 . S
H624 C608 0.931 . S
H625 C613 0.930 . S
H626 C614 0.956 . S
H627 C614 0.961 . S
H628 C614 0.961 . S
H629 C615 0.958 . S
H630 C615 0.961 . S
H631 C615 0.960 . S
C632 C633 1.391 . S
C632 C634 1.394 . S
C632 H648 0.931 . S
C633 C632 1.391 . S
C633 C637 1.376 . S
C634 C632 1.394 . S
C634 C635 1.369 . S
C634 C638 1.531 . S
C635 C634 1.369 . S
C635 C636 1.410 . S
C635 C643 1.503 1_455 S
C636 C635 1.410 . S
C636 C637 1.392 . S
C636 C639 1.511 1_455 S
C637 C633 1.376 . S
C637 C636 1.392 . S
C637 H649 0.929 . S
C638 C634 1.531 . S
C638 H650 0.960 . S
C638 H651 0.962 . S
C638 H652 0.960 . S
C639 C636 1.511 1_655 S
C639 H653 0.961 . S
C639 H654 0.961 . S
C639 H655 0.961 . S
C640 C641 1.370 . S
C640 C642 1.363 . S
C640 H656 0.931 . S
C641 C640 1.370 . S
C641 C645 1.408 . S
C642 C640 1.363 . S
C642 C643 1.370 . S
C642 C646 1.524 1_655 S
C643 C635 1.503 1_655 S
C643 C642 1.370 . S
C643 C644 1.403 . S
C644 C643 1.403 . S
C644 C645 1.404 . S
C644 C647 1.539 . S
C645 C641 1.408 . S
C645 C644 1.404 . S
C645 H657 0.930 . S
C646 C642 1.524 1_455 S
C646 H658 0.956 . S
C646 H659 0.961 . S
C646 H660 0.961 . S
C647 C644 1.539 . S
C647 H661 0.958 . S
C647 H662 0.961 . S
C647 H663 0.960 . S
H648 C632 0.931 . S
H649 C637 0.929 . S
H650 C638 0.960 . S
H651 C638 0.962 . S
H652 C638 0.960 . S
H653 C639 0.961 . S
H654 C639 0.961 . S
H655 C639 0.961 . S
H656 C640 0.931 . S
H657 C645 0.930 . S
H658 C646 0.956 . S
H659 C646 0.961 . S
H660 C646 0.961 . S
H661 C647 0.958 . S
H662 C647 0.961 . S
H663 C647 0.960 . S
C664 C665 1.391 . S
C664 C666 1.394 . S
C664 H680 0.931 . S
C665 C664 1.391 . S
C665 C669 1.376 . S
C666 C664 1.394 . S
C666 C667 1.369 . S
C666 C670 1.531 . S
C667 C666 1.369 . S
C667 C668 1.410 . S
C667 C675 1.503 . S
C668 C667 1.410 . S
C668 C669 1.392 . S
C668 C671 1.511 . S
C669 C665 1.376 . S
C669 C668 1.392 . S
C669 H681 0.929 . S
C670 C666 1.531 . S
C670 H682 0.960 . S
C670 H683 0.962 . S
C670 H684 0.960 . S
C671 C668 1.511 . S
C671 H685 0.961 . S
C671 H686 0.961 . S
C671 H687 0.961 . S
C672 C673 1.370 . S
C672 C674 1.363 . S
C672 H688 0.931 . S
C673 C672 1.370 . S
C673 C677 1.408 . S
C674 C672 1.363 . S
C674 C675 1.370 . S
C674 C678 1.524 . S
C675 C667 1.503 . S
C675 C674 1.370 . S
C675 C676 1.403 . S
C676 C675 1.403 . S
C676 C677 1.404 . S
C676 C679 1.539 . S
C677 C673 1.408 . S
C677 C676 1.404 . S
C677 H689 0.930 . S
C678 C674 1.524 . S
C678 H690 0.956 . S
C678 H691 0.961 . S
C678 H692 0.961 . S
C679 C676 1.539 . S
C679 H693 0.958 . S
C679 H694 0.961 . S
C679 H695 0.960 . S
H680 C664 0.931 . S
H681 C669 0.929 . S
H682 C670 0.960 . S
H683 C670 0.962 . S
H684 C670 0.960 . S
H685 C671 0.961 . S
H686 C671 0.961 . S
H687 C671 0.961 . S
H688 C672 0.931 . S
H689 C677 0.930 . S
H690 C678 0.956 . S
H691 C678 0.961 . S
H692 C678 0.961 . S
H693 C679 0.958 . S
H694 C679 0.961 . S
H695 C679 0.960 . S
C696 C697 1.391 . S
C696 C698 1.394 . S
C696 H712 0.931 . S
C697 C696 1.391 . S
C697 C701 1.376 . S
C698 C696 1.394 . S
C698 C699 1.369 . S
C698 C702 1.531 . S
C699 C698 1.369 . S
C699 C700 1.410 . S
C699 C707 1.503 . S
C700 C699 1.410 . S
C700 C701 1.392 . S
C700 C703 1.511 . S
C701 C697 1.376 . S
C701 C700 1.392 . S
C701 H713 0.929 . S
C702 C698 1.531 . S
C702 H714 0.960 . S
C702 H715 0.962 . S
C702 H716 0.960 . S
C703 C700 1.511 . S
C703 H717 0.961 . S
C703 H718 0.961 . S
C703 H719 0.961 . S
C704 C705 1.370 . S
C704 C706 1.363 . S
C704 H720 0.931 . S
C705 C704 1.370 . S
C705 C709 1.408 . S
C706 C704 1.363 . S
C706 C707 1.370 . S
C706 C710 1.524 . S
C707 C699 1.503 . S
C707 C706 1.370 . S
C707 C708 1.403 . S
C708 C707 1.403 . S
C708 C709 1.404 . S
C708 C711 1.539 . S
C709 C705 1.408 . S
C709 C708 1.404 . S
C709 H721 0.930 . S
C710 C706 1.524 . S
C710 H722 0.956 . S
C710 H723 0.961 . S
C710 H724 0.961 . S
C711 C708 1.539 . S
C711 H725 0.958 . S
C711 H726 0.961 . S
C711 H727 0.960 . S
H712 C696 0.931 . S
H713 C701 0.929 . S
H714 C702 0.960 . S
H715 C702 0.962 . S
H716 C702 0.960 . S
H717 C703 0.961 . S
H718 C703 0.961 . S
H719 C703 0.961 . S
H720 C704 0.931 . S
H721 C709 0.930 . S
H722 C710 0.956 . S
H723 C710 0.961 . S
H724 C710 0.961 . S
H725 C711 0.958 . S
H726 C711 0.961 . S
H727 C711 0.960 . S
C728 C729 1.391 . S
C728 C730 1.394 . S
C728 H744 0.931 . S
C729 C728 1.391 . S
C729 C733 1.376 . S
C730 C728 1.394 . S
C730 C731 1.369 . S
C730 C734 1.531 . S
C731 C730 1.369 . S
C731 C732 1.410 . S
C731 C739 1.503 . S
C732 C731 1.410 . S
C732 C733 1.392 . S
C732 C735 1.511 . S
C733 C729 1.376 . S
C733 C732 1.392 . S
C733 H745 0.929 . S
C734 C730 1.531 . S
C734 H746 0.960 . S
C734 H747 0.962 . S
C734 H748 0.960 . S
C735 C732 1.511 . S
C735 H749 0.961 . S
C735 H750 0.961 . S
C735 H751 0.961 . S
C736 C737 1.370 . S
C736 C738 1.363 . S
C736 H752 0.931 . S
C737 C736 1.370 . S
C737 C741 1.408 . S
C738 C736 1.363 . S
C738 C739 1.370 . S
C738 C742 1.524 . S
C739 C731 1.503 . S
C739 C738 1.370 . S
C739 C740 1.403 . S
C740 C739 1.403 . S
C740 C741 1.404 . S
C740 C743 1.539 . S
C741 C737 1.408 . S
C741 C740 1.404 . S
C741 H753 0.930 . S
C742 C738 1.524 . S
C742 H754 0.956 . S
C742 H755 0.961 . S
C742 H756 0.961 . S
C743 C740 1.539 . S
C743 H757 0.958 . S
C743 H758 0.961 . S
C743 H759 0.960 . S
H744 C728 0.931 . S
H745 C733 0.929 . S
H746 C734 0.960 . S
H747 C734 0.962 . S
H748 C734 0.960 . S
H749 C735 0.961 . S
H750 C735 0.961 . S
H751 C735 0.961 . S
H752 C736 0.931 . S
H753 C741 0.930 . S
H754 C742 0.956 . S
H755 C742 0.961 . S
H756 C742 0.961 . S
H757 C743 0.958 . S
H758 C743 0.961 . S
H759 C743 0.960 . S
C760 C761 1.391 . S
C760 C762 1.394 . S
C760 H776 0.931 . S
C761 C760 1.391 . S
C761 C765 1.376 . S
C762 C760 1.394 . S
C762 C763 1.369 . S
C762 C766 1.531 . S
C763 C762 1.369 . S
C763 C764 1.410 . S
C763 C771 1.503 . S
C764 C763 1.410 . S
C764 C765 1.392 . S
C764 C767 1.511 . S
C765 C761 1.376 . S
C765 C764 1.392 . S
C765 H777 0.929 . S
C766 C762 1.531 . S
C766 H778 0.960 . S
C766 H779 0.962 . S
C766 H780 0.960 . S
C767 C764 1.511 . S
C767 H781 0.961 . S
C767 H782 0.961 . S
C767 H783 0.961 . S
C768 C769 1.370 . S
C768 C770 1.363 . S
C768 H784 0.931 . S
C769 C768 1.370 . S
C769 C773 1.408 . S
C770 C768 1.363 . S
C770 C771 1.370 . S
C770 C774 1.524 . S
C771 C763 1.503 . S
C771 C770 1.370 . S
C771 C772 1.403 . S
C772 C771 1.403 . S
C772 C773 1.404 . S
C772 C775 1.539 . S
C773 C769 1.408 . S
C773 C772 1.404 . S
C773 H785 0.930 . S
C774 C770 1.524 . S
C774 H786 0.956 . S
C774 H787 0.961 . S
C774 H788 0.961 . S
C775 C772 1.539 . S
C775 H789 0.958 . S
C775 H790 0.961 . S
C775 H791 0.960 . S
H776 C760 0.931 . S
H777 C765 0.929 . S
H778 C766 0.960 . S
H779 C766 0.962 . S
H780 C766 0.960 . S
H781 C767 0.961 . S
H782 C767 0.961 . S
H783 C767 0.961 . S
H784 C768 0.931 . S
H785 C773 0.930 . S
H786 C774 0.956 . S
H787 C774 0.961 . S
H788 C774 0.961 . S
H789 C775 0.958 . S
H790 C775 0.961 . S
H791 C775 0.960 . S
C792 C793 1.391 . S
C792 C794 1.394 . S
C792 H808 0.931 . S
C793 C792 1.391 . S
C793 C797 1.376 . S
C794 C792 1.394 . S
C794 C795 1.369 . S
C794 C798 1.531 . S
C795 C794 1.369 . S
C795 C796 1.410 . S
C795 C803 1.503 . S
C796 C795 1.410 . S
C796 C797 1.392 . S
C796 C799 1.511 . S
C797 C793 1.376 . S
C797 C796 1.392 . S
C797 H809 0.929 . S
C798 C794 1.531 . S
C798 H810 0.960 . S
C798 H811 0.962 . S
C798 H812 0.960 . S
C799 C796 1.511 . S
C799 H813 0.961 . S
C799 H814 0.961 . S
C799 H815 0.961 . S
C800 C801 1.370 . S
C800 C802 1.363 . S
C800 H816 0.931 . S
C801 C800 1.370 . S
C801 C805 1.408 . S
C802 C800 1.363 . S
C802 C803 1.370 . S
C802 C806 1.524 . S
C803 C795 1.503 . S
C803 C802 1.370 . S
C803 C804 1.403 . S
C804 C803 1.403 . S
C804 C805 1.404 . S
C804 C807 1.539 . S
C805 C801 1.408 . S
C805 C804 1.404 . S
C805 H817 0.930 . S
C806 C802 1.524 . S
C806 H818 0.956 . S
C806 H819 0.961 . S
C806 H820 0.961 . S
C807 C804 1.539 . S
C807 H821 0.958 . S
C807 H822 0.961 . S
C807 H823 0.960 . S
H808 C792 0.931 . S
H809 C797 0.929 . S
H810 C798 0.960 . S
H811 C798 0.962 . S
H812 C798 0.960 . S
H813 C799 0.961 . S
H814 C799 0.961 . S
H815 C799 0.961 . S
H816 C800 0.931 . S
H817 C805 0.930 . S
H818 C806 0.956 . S
H819 C806 0.961 . S
H820 C806 0.961 . S
H821 C807 0.958 . S
H822 C807 0.961 . S
H823 C807 0.960 . S
C824 C825 1.391 . S
C824 C826 1.394 . S
C824 H840 0.931 . S
C825 C824 1.391 . S
C825 C829 1.376 . S
C826 C824 1.394 . S
C826 C827 1.369 . S
C826 C830 1.531 . S
C827 C826 1.369 . S
C827 C828 1.410 . S
C827 C835 1.503 . S
C828 C827 1.410 . S
C828 C829 1.392 . S
C828 C831 1.511 . S
C829 C825 1.376 . S
C829 C828 1.392 . S
C829 H841 0.929 . S
C830 C826 1.531 . S
C830 H842 0.960 . S
C830 H843 0.962 . S
C830 H844 0.960 . S
C831 C828 1.511 . S
C831 H845 0.961 . S
C831 H846 0.961 . S
C831 H847 0.961 . S
C832 C833 1.370 . S
C832 C834 1.363 . S
C832 H848 0.931 . S
C833 C832 1.370 . S
C833 C837 1.408 . S
C834 C832 1.363 . S
C834 C835 1.370 . S
C834 C838 1.524 . S
C835 C827 1.503 . S
C835 C834 1.370 . S
C835 C836 1.403 . S
C836 C835 1.403 . S
C836 C837 1.404 . S
C836 C839 1.539 . S
C837 C833 1.408 . S
C837 C836 1.404 . S
C837 H849 0.930 . S
C838 C834 1.524 . S
C838 H850 0.956 . S
C838 H851 0.961 . S
C838 H852 0.961 . S
C839 C836 1.539 . S
C839 H853 0.958 . S
C839 H854 0.961 . S
C839 H855 0.960 . S
H840 C824 0.931 . S
H841 C829 0.929 . S
H842 C830 0.960 . S
H843 C830 0.962 . S
H844 C830 0.960 . S
H845 C831 0.961 . S
H846 C831 0.961 . S
H847 C831 0.961 . S
H848 C832 0.931 . S
H849 C837 0.930 . S
H850 C838 0.956 . S
H851 C838 0.961 . S
H852 C838 0.961 . S
H853 C839 0.958 . S
H854 C839 0.961 . S
H855 C839 0.960 . S
C856 C857 1.391 . S
C856 C858 1.394 . S
C856 H872 0.931 . S
C857 C856 1.391 . S
C857 C861 1.376 . S
C858 C856 1.394 . S
C858 C859 1.369 . S
C858 C862 1.531 . S
C859 C858 1.369 . S
C859 C860 1.410 . S
C859 C867 1.503 . S
C860 C859 1.410 . S
C860 C861 1.392 . S
C860 C863 1.511 . S
C861 C857 1.376 . S
C861 C860 1.392 . S
C861 H873 0.929 . S
C862 C858 1.531 . S
C862 H874 0.960 . S
C862 H875 0.962 . S
C862 H876 0.960 . S
C863 C860 1.511 . S
C863 H877 0.961 . S
C863 H878 0.961 . S
C863 H879 0.961 . S
C864 C865 1.370 . S
C864 C866 1.363 . S
C864 H880 0.931 . S
C865 C864 1.370 . S
C865 C869 1.408 . S
C866 C864 1.363 . S
C866 C867 1.370 . S
C866 C870 1.524 . S
C867 C859 1.503 . S
C867 C866 1.370 . S
C867 C868 1.403 . S
C868 C867 1.403 . S
C868 C869 1.404 . S
C868 C871 1.539 . S
C869 C865 1.408 . S
C869 C868 1.404 . S
C869 H881 0.930 . S
C870 C866 1.524 . S
C870 H882 0.956 . S
C870 H883 0.961 . S
C870 H884 0.961 . S
C871 C868 1.539 . S
C871 H885 0.958 . S
C871 H886 0.961 . S
C871 H887 0.960 . S
H872 C856 0.931 . S
H873 C861 0.929 . S
H874 C862 0.960 . S
H875 C862 0.962 . S
H876 C862 0.960 . S
H877 C863 0.961 . S
H878 C863 0.961 . S
H879 C863 0.961 . S
H880 C864 0.931 . S
H881 C869 0.930 . S
H882 C870 0.956 . S
H883 C870 0.961 . S
H884 C870 0.961 . S
H885 C871 0.958 . S
H886 C871 0.961 . S
H887 C871 0.960 . S
C888 C889 1.391 . S
C888 C890 1.394 . S
C888 H904 0.931 . S
C889 C888 1.391 . S
C889 C893 1.376 . S
C890 C888 1.394 . S
C890 C891 1.369 . S
C890 C894 1.531 . S
C891 C890 1.369 . S
C891 C892 1.410 . S
C891 C899 1.503 . S
C892 C891 1.410 . S
C892 C893 1.392 . S
C892 C895 1.511 . S
C893 C889 1.376 . S
C893 C892 1.392 . S
C893 H905 0.929 . S
C894 C890 1.531 . S
C894 H906 0.960 . S
C894 H907 0.962 . S
C894 H908 0.960 . S
C895 C892 1.511 . S
C895 H909 0.961 . S
C895 H910 0.961 . S
C895 H911 0.961 . S
C896 C897 1.370 . S
C896 C898 1.363 . S
C896 H912 0.931 . S
C897 C896 1.370 . S
C897 C901 1.408 . S
C898 C896 1.363 . S
C898 C899 1.370 . S
C898 C902 1.524 . S
C899 C891 1.503 . S
C899 C898 1.370 . S
C899 C900 1.403 . S
C900 C899 1.403 . S
C900 C901 1.404 . S
C900 C903 1.539 . S
C901 C897 1.408 . S
C901 C900 1.404 . S
C901 H913 0.930 . S
C902 C898 1.524 . S
C902 H914 0.956 . S
C902 H915 0.961 . S
C902 H916 0.961 . S
C903 C900 1.539 . S
C903 H917 0.958 . S
C903 H918 0.961 . S
C903 H919 0.960 . S
H904 C888 0.931 . S
H905 C893 0.929 . S
H906 C894 0.960 . S
H907 C894 0.962 . S
H908 C894 0.960 . S
H909 C895 0.961 . S
H910 C895 0.961 . S
H911 C895 0.961 . S
H912 C896 0.931 . S
H913 C901 0.930 . S
H914 C902 0.956 . S
H915 C902 0.961 . S
H916 C902 0.961 . S
H917 C903 0.958 . S
H918 C903 0.961 . S
H919 C903 0.960 . S
C920 C921 1.391 . S
C920 C922 1.394 . S
C920 H936 0.931 . S
C921 C920 1.391 . S
C921 C925 1.376 . S
C922 C920 1.394 . S
C922 C923 1.369 . S
C922 C926 1.531 . S
C923 C922 1.369 . S
C923 C924 1.410 . S
C923 C931 1.503 . S
C924 C923 1.410 . S
C924 C925 1.392 . S
C924 C927 1.511 . S
C925 C921 1.376 . S
C925 C924 1.392 . S
C925 H937 0.929 . S
C926 C922 1.531 . S
C926 H938 0.960 . S
C926 H939 0.962 . S
C926 H940 0.960 . S
C927 C924 1.511 . S
C927 H941 0.961 . S
C927 H942 0.961 . S
C927 H943 0.961 . S
C928 C929 1.370 . S
C928 C930 1.363 . S
C928 H944 0.931 . S
C929 C928 1.370 . S
C929 C933 1.408 . S
C930 C928 1.363 . S
C930 C931 1.370 . S
C930 C934 1.524 . S
C931 C923 1.503 . S
C931 C930 1.370 . S
C931 C932 1.403 . S
C932 C931 1.403 . S
C932 C933 1.404 . S
C932 C935 1.539 . S
C933 C929 1.408 . S
C933 C932 1.404 . S
C933 H945 0.930 . S
C934 C930 1.524 . S
C934 H946 0.956 . S
C934 H947 0.961 . S
C934 H948 0.961 . S
C935 C932 1.539 . S
C935 H949 0.958 . S
C935 H950 0.961 . S
C935 H951 0.960 . S
H936 C920 0.931 . S
H937 C925 0.929 . S
H938 C926 0.960 . S
H939 C926 0.962 . S
H940 C926 0.960 . S
H941 C927 0.961 . S
H942 C927 0.961 . S
H943 C927 0.961 . S
H944 C928 0.931 . S
H945 C933 0.930 . S
H946 C934 0.956 . S
H947 C934 0.961 . S
H948 C934 0.961 . S
H949 C935 0.958 . S
H950 C935 0.961 . S
H951 C935 0.960 . S
C952 C953 1.391 . S
C952 C954 1.394 . S
C952 H968 0.931 . S
C953 C952 1.391 . S
C953 C957 1.376 . S
C954 C952 1.394 . S
C954 C955 1.369 . S
C954 C958 1.531 . S
C955 C954 1.369 . S
C955 C956 1.410 . S
C955 C963 1.503 . S
C956 C955 1.410 . S
C956 C957 1.392 . S
C956 C959 1.511 . S
C957 C953 1.376 . S
C957 C956 1.392 . S
C957 H969 0.929 . S
C958 C954 1.531 . S
C958 H970 0.960 . S
C958 H971 0.962 . S
C958 H972 0.960 . S
C959 C956 1.511 . S
C959 H973 0.961 . S
C959 H974 0.961 . S
C959 H975 0.961 . S
C960 C961 1.370 . S
C960 C962 1.363 . S
C960 H976 0.931 . S
C961 C960 1.370 . S
C961 C965 1.408 . S
C962 C960 1.363 . S
C962 C963 1.370 . S
C962 C966 1.524 . S
C963 C955 1.503 . S
C963 C962 1.370 . S
C963 C964 1.403 . S
C964 C963 1.403 . S
C964 C965 1.404 . S
C964 C967 1.539 . S
C965 C961 1.408 . S
C965 C964 1.404 . S
C965 H977 0.930 . S
C966 C962 1.524 . S
C966 H978 0.956 . S
C966 H979 0.961 . S
C966 H980 0.961 . S
C967 C964 1.539 . S
C967 H981 0.958 . S
C967 H982 0.961 . S
C967 H983 0.960 . S
H968 C952 0.931 . S
H969 C957 0.929 . S
H970 C958 0.960 . S
H971 C958 0.962 . S
H972 C958 0.960 . S
H973 C959 0.961 . S
H974 C959 0.961 . S
H975 C959 0.961 . S
H976 C960 0.931 . S
H977 C965 0.930 . S
H978 C966 0.956 . S
H979 C966 0.961 . S
H980 C966 0.961 . S
H981 C967 0.958 . S
H982 C967 0.961 . S
H983 C967 0.960 . S
C984 C985 1.391 . S
C984 C986 1.394 . S
C984 H1000 0.931 . S
C985 C984 1.391 . S
C985 C989 1.376 . S
C986 C984 1.394 . S
C986 C987 1.369 . S
C986 C990 1.531 . S
C987 C986 1.369 . S
C987 C988 1.410 . S
C987 C995 1.503 . S
C988 C987 1.410 . S
C988 C989 1.392 . S
C988 C991 1.511 . S
C989 C985 1.376 . S
C989 C988 1.392 . S
C989 H1001 0.929 . S
C990 C986 1.531 . S
C990 H1002 0.960 . S
C990 H1003 0.962 . S
C990 H1004 0.960 . S
C991 C988 1.511 . S
C991 H1005 0.961 . S
C991 H1006 0.961 . S
C991 H1007 0.961 . S
C992 C993 1.370 . S
C992 C994 1.363 . S
C992 H1008 0.931 . S
C993 C992 1.370 . S
C993 C997 1.408 . S
C994 C992 1.363 . S
C994 C995 1.370 . S
C994 C998 1.524 . S
C995 C987 1.503 . S
C995 C994 1.370 . S
C995 C996 1.403 . S
C996 C995 1.403 . S
C996 C997 1.404 . S
C996 C999 1.539 . S
C997 C993 1.408 . S
C997 C996 1.404 . S
C997 H1009 0.930 . S
C998 C994 1.524 . S
C998 H1010 0.956 . S
C998 H1011 0.961 . S
C998 H1012 0.961 . S
C999 C996 1.539 . S
C999 H1013 0.958 . S
C999 H1014 0.961 . S
C999 H1015 0.960 . S
H1000 C984 0.931 . S
H1001 C989 0.929 . S
H1002 C990 0.960 . S
H1003 C990 0.962 . S
H1004 C990 0.960 . S
H1005 C991 0.961 . S
H1006 C991 0.961 . S
H1007 C991 0.961 . S
H1008 C992 0.931 . S
H1009 C997 0.930 . S
H1010 C998 0.956 . S
H1011 C998 0.961 . S
H1012 C998 0.961 . S
H1013 C999 0.958 . S
H1014 C999 0.961 . S
H1015 C999 0.960 . S
C1016 C1017 1.391 . S
C1016 C1018 1.394 . S
C1016 H1032 0.931 . S
C1017 C1016 1.391 . S
C1017 C1021 1.376 . S
C1018 C1016 1.394 . S
C1018 C1019 1.369 . S
C1018 C1022 1.531 . S
C1019 C1018 1.369 . S
C1019 C1020 1.410 . S
C1019 C1027 1.503 . S
C1020 C1019 1.410 . S
C1020 C1021 1.392 . S
C1020 C1023 1.511 . S
C1021 C1017 1.376 . S
C1021 C1020 1.392 . S
C1021 H1033 0.929 . S
C1022 C1018 1.531 . S
C1022 H1034 0.960 . S
C1022 H1035 0.962 . S
C1022 H1036 0.960 . S
C1023 C1020 1.511 . S
C1023 H1037 0.961 . S
C1023 H1038 0.961 . S
C1023 H1039 0.961 . S
C1024 C1025 1.370 . S
C1024 C1026 1.363 . S
C1024 H1040 0.931 . S
C1025 C1024 1.370 . S
C1025 C1029 1.408 . S
C1026 C1024 1.363 . S
C1026 C1027 1.370 . S
C1026 C1030 1.524 . S
C1027 C1019 1.503 . S
C1027 C1026 1.370 . S
C1027 C1028 1.403 . S
C1028 C1027 1.403 . S
C1028 C1029 1.404 . S
C1028 C1031 1.539 . S
C1029 C1025 1.408 . S
C1029 C1028 1.404 . S
C1029 H1041 0.930 . S
C1030 C1026 1.524 . S
C1030 H1042 0.956 . S
C1030 H1043 0.961 . S
C1030 H1044 0.961 . S
C1031 C1028 1.539 . S
C1031 H1045 0.958 . S
C1031 H1046 0.961 . S
C1031 H1047 0.960 . S
H1032 C1016 0.931 . S
H1033 C1021 0.929 . S
H1034 C1022 0.960 . S
H1035 C1022 0.962 . S
H1036 C1022 0.960 . S
H1037 C1023 0.961 . S
H1038 C1023 0.961 . S
H1039 C1023 0.961 . S
H1040 C1024 0.931 . S
H1041 C1029 0.930 . S
H1042 C1030 0.956 . S
H1043 C1030 0.961 . S
H1044 C1030 0.961 . S
H1045 C1031 0.958 . S
H1046 C1031 0.961 . S
H1047 C1031 0.960 . S
C1048 C1049 1.391 . S
C1048 C1050 1.394 . S
C1048 H1064 0.931 . S
C1049 C1048 1.391 . S
C1049 C1053 1.376 . S
C1050 C1048 1.394 . S
C1050 C1051 1.369 . S
C1050 C1054 1.531 . S
C1051 C1050 1.369 . S
C1051 C1052 1.410 . S
C1051 C1059 1.503 . S
C1052 C1051 1.410 . S
C1052 C1053 1.392 . S
C1052 C1055 1.511 . S
C1053 C1049 1.376 . S
C1053 C1052 1.392 . S
C1053 H1065 0.929 . S
C1054 C1050 1.531 . S
C1054 H1066 0.960 . S
C1054 H1067 0.962 . S
C1054 H1068 0.960 . S
C1055 C1052 1.511 . S
C1055 H1069 0.961 . S
C1055 H1070 0.961 . S
C1055 H1071 0.961 . S
C1056 C1057 1.370 . S
C1056 C1058 1.363 . S
C1056 H1072 0.931 . S
C1057 C1056 1.370 . S
C1057 C1061 1.408 . S
C1058 C1056 1.363 . S
C1058 C1059 1.370 . S
C1058 C1062 1.524 . S
C1059 C1051 1.503 . S
C1059 C1058 1.370 . S
C1059 C1060 1.403 . S
C1060 C1059 1.403 . S
C1060 C1061 1.404 . S
C1060 C1063 1.539 . S
C1061 C1057 1.408 . S
C1061 C1060 1.404 . S
C1061 H1073 0.930 . S
C1062 C1058 1.524 . S
C1062 H1074 0.956 . S
C1062 H1075 0.961 . S
C1062 H1076 0.961 . S
C1063 C1060 1.539 . S
C1063 H1077 0.958 . S
C1063 H1078 0.961 . S
C1063 H1079 0.960 . S
H1064 C1048 0.931 . S
H1065 C1053 0.929 . S
H1066 C1054 0.960 . S
H1067 C1054 0.962 . S
H1068 C1054 0.960 . S
H1069 C1055 0.961 . S
H1070 C1055 0.961 . S
H1071 C1055 0.961 . S
H1072 C1056 0.931 . S
H1073 C1061 0.930 . S
H1074 C1062 0.956 . S
H1075 C1062 0.961 . S
H1076 C1062 0.961 . S
H1077 C1063 0.958 . S
H1078 C1063 0.961 . S
H1079 C1063 0.960 . S
C1080 C1081 1.391 . S
C1080 C1082 1.394 . S
C1080 H1096 0.931 . S
C1081 C1080 1.391 . S
C1081 C1085 1.376 . S
C1082 C1080 1.394 . S
C1082 C1083 1.369 . S
C1082 C1086 1.531 1_565 S
C1083 C1082 1.369 . S
C1083 C1084 1.410 . S
C1083 C1091 1.503 1_566 S
C1084 C1083 1.410 . S
C1084 C1085 1.392 . S
C1084 C1087 1.511 1_556 S
C1085 C1081 1.376 . S
C1085 C1084 1.392 . S
C1085 H1097 0.929 . S
C1086 C1082 1.531 1_545 S
C1086 H1098 0.960 . S
C1086 H1099 0.962 . S
C1086 H1100 0.960 . S
C1087 C1084 1.511 1_554 S
C1087 H1101 0.961 . S
C1087 H1102 0.962 . S
C1087 H1103 0.960 1_554 S
C1088 C1089 1.370 . S
C1088 C1090 1.363 . S
C1088 H1104 0.931 . S
C1089 C1088 1.370 . S
C1089 C1093 1.408 . S
C1090 C1088 1.363 . S
C1090 C1091 1.370 . S
C1090 C1094 1.524 1_545 S
C1091 C1083 1.503 1_544 S
C1091 C1090 1.370 . S
C1091 C1092 1.403 . S
C1092 C1091 1.403 . S
C1092 C1093 1.404 . S
C1092 C1095 1.539 1_554 S
C1093 C1089 1.408 . S
C1093 C1092 1.404 . S
C1093 H1105 0.930 . S
C1094 C1090 1.524 1_565 S
C1094 H1106 0.956 . S
C1094 H1107 0.961 . S
C1094 H1108 0.961 . S
C1095 C1092 1.539 1_556 S
C1095 H1109 0.958 . S
C1095 H1110 0.961 . S
C1095 H1111 0.960 . S
H1096 C1080 0.931 . S
H1097 C1085 0.929 . S
H1098 C1086 0.960 . S
H1099 C1086 0.962 . S
H1100 C1086 0.960 . S
H1101 C1087 0.961 . S
H1102 C1087 0.962 . S
H1103 C1087 0.960 1_556 S
H1104 C1088 0.931 . S
H1105 C1093 0.930 . S
H1106 C1094 0.956 . S
H1107 C1094 0.961 . S
H1108 C1094 0.961 . S
H1109 C1095 0.958 . S
H1110 C1095 0.961 . S
H1111 C1095 0.960 . S
C1112 C1113 1.391 . S
C1112 C1114 1.347 1_655 S
C1112 H1128 0.931 . S
C1113 C1112 1.391 . S
C1113 C1117 1.376 . S
C1114 C1112 1.347 1_455 S
C1114 C1115 1.338 1_455 S
C1114 C1118 1.616 . S
C1115 C1114 1.338 1_655 S
C1115 C1116 1.410 . S
C1115 C1123 1.503 1_654 S
C1116 C1115 1.410 . S
C1116 C1117 1.392 . S
C1116 C1119 1.511 1_554 S
C1117 C1113 1.376 . S
C1117 C1116 1.392 . S
C1117 H1129 0.929 . S
C1118 C1114 1.616 . S
C1118 H1130 0.960 . S
C1118 H1131 0.962 . S
C1118 H1132 0.960 . S
C1119 C1116 1.511 1_556 S
C1119 H1133 0.961 . S
C1119 H1134 0.961 . S
C1119 H1135 0.961 . S
C1120 C1121 1.370 . S
C1120 C1122 1.363 . S
C1120 H1136 0.931 . S
C1121 C1120 1.370 . S
C1121 C1125 1.408 . S
C1122 C1120 1.363 . S
C1122 C1123 1.370 . S
C1122 C1126 1.524 . S
C1123 C1115 1.503 1_456 S
C1123 C1122 1.370 . S
C1123 C1124 1.403 . S
C1124 C1123 1.403 . S
C1124 C1125 1.404 . S
C1124 C1127 1.539 . S
C1125 C1121 1.408 . S
C1125 C1124 1.404 . S
C1125 H1137 0.930 . S
C1126 C1122 1.524 . S
C1126 H1138 0.956 1_556 S
C1126 H1139 0.961 1_455 S
C1126 H1140 0.961 . S
C1127 C1124 1.539 . S
C1127 H1141 0.958 . S
C1127 H1142 0.961 . S
C1127 H1143 0.960 1_455 S
H1128 C1112 0.931 . S
H1129 C1117 0.929 . S
H1130 C1118 0.960 . S
H1131 C1118 0.962 . S
H1132 C1118 0.960 . S
H1133 C1119 0.961 . S
H1134 C1119 0.961 . S
H1135 C1119 0.961 . S
H1136 C1120 0.931 . S
H1137 C1125 0.930 . S
H1138 C1126 0.956 1_554 S
H1139 C1126 0.961 1_655 S
H1140 C1126 0.961 . S
H1141 C1127 0.958 . S
H1142 C1127 0.961 . S
H1143 C1127 0.960 1_655 S
C1144 C1145 1.391 . S
C1144 C1146 1.394 . S
C1144 H1160 0.931 . S
C1145 C1144 1.391 . S
C1145 C1149 1.376 . S
C1146 C1144 1.394 . S
C1146 C1147 1.369 . S
C1146 C1150 1.531 . S
C1147 C1146 1.369 . S
C1147 C1148 1.410 . S
C1147 C1155 1.503 1_556 S
C1148 C1147 1.410 . S
C1148 C1149 1.392 . S
C1148 C1151 1.511 1_556 S
C1149 C1145 1.376 . S
C1149 C1148 1.392 . S
C1149 H1161 0.929 . S
C1150 C1146 1.531 . S
C1150 H1162 0.960 . S
C1150 H1163 0.962 . S
C1150 H1164 0.960 . S
C1151 C1148 1.511 1_554 S
C1151 H1165 0.961 . S
C1151 H1166 0.961 . S
C1151 H1167 0.961 . S
C1152 C1153 1.370 . S
C1152 C1154 1.363 . S
C1152 H1168 0.931 . S
C1153 C1152 1.370 . S
C1153 C1157 1.408 . S
C1154 C1152 1.363 . S
C1154 C1155 1.370 . S
C1154 C1158 1.524 1_554 S
C1155 C1147 1.503 1_554 S
C1155 C1154 1.370 . S
C1155 C1156 1.403 . S
C1156 C1155 1.403 . S
C1156 C1157 1.404 . S
C1156 C1159 1.539 . S
C1157 C1153 1.408 . S
C1157 C1156 1.404 . S
C1157 H1169 0.930 . S
C1158 C1154 1.524 1_556 S
C1158 H1170 0.956 . S
C1158 H1171 0.961 . S
C1158 H1172 0.961 1_556 S
C1159 C1156 1.539 . S
C1159 H1173 0.958 . S
C1159 H1174 0.961 . S
C1159 H1175 0.960 . S
H1160 C1144 0.931 . S
H1161 C1149 0.929 . S
H1162 C1150 0.960 . S
H1163 C1150 0.962 . S
H1164 C1150 0.960 . S
H1165 C1151 0.961 . S
H1166 C1151 0.961 . S
H1167 C1151 0.961 . S
H1168 C1152 0.931 . S
H1169 C1157 0.930 . S
H1170 C1158 0.956 . S
H1171 C1158 0.961 . S
H1172 C1158 0.961 1_554 S
H1173 C1159 0.958 . S
H1174 C1159 0.961 . S
H1175 C1159 0.960 . S
C1176 C1177 1.391 . S
C1176 C1178 1.394 . S
C1176 H1192 0.931 . S
C1177 C1176 1.391 . S
C1177 C1181 1.376 . S
C1178 C1176 1.394 . S
C1178 C1179 1.369 . S
C1178 C1182 1.530 1_556 S
C1179 C1178 1.369 . S
C1179 C1180 1.410 . S
C1179 C1187 1.503 1_566 S
C1180 C1179 1.410 . S
C1180 C1181 1.392 . S
C1180 C1183 1.511 . S
C1181 C1177 1.376 . S
C1181 C1180 1.392 . S
C1181 H1193 0.929 . S
C1182 C1178 1.530 1_554 S
C1182 H1194 0.961 . S
C1182 H1195 0.962 1_554 S
C1182 H1196 0.960 1_554 S
C1183 C1180 1.511 . S
C1183 H1197 0.957 . S
C1183 H1198 0.961 1_565 S
C1183 H1199 0.961 . S
C1184 C1185 1.370 . S
C1184 C1186 1.363 . S
C1184 H1200 0.931 . S
C1185 C1184 1.370 . S
C1185 C1189 1.408 . S
C1186 C1184 1.363 . S
C1186 C1187 1.370 . S
C1186 C1190 1.524 1_554 S
C1187 C1179 1.503 1_544 S
C1187 C1186 1.370 . S
C1187 C1188 1.403 1_545 S
C1188 C1187 1.403 1_565 S
C1188 C1189 1.404 1_565 S
C1188 C1191 1.539 . S
C1189 C1185 1.408 . S
C1189 C1188 1.404 1_545 S
C1189 H1201 0.930 . S
C1190 C1186 1.524 1_556 S
C1190 H1202 0.956 . S
C1190 H1203 0.961 . S
C1190 H1204 0.961 . S
C1191 C1188 1.539 . S
C1191 H1205 0.958 . S
C1191 H1206 0.961 . S
C1191 H1207 0.960 . S
H1192 C1176 0.931 . S
H1193 C1181 0.929 . S
H1194 C1182 0.961 . S
H1195 C1182 0.962 1_556 S
H1196 C1182 0.960 1_556 S
H1197 C1183 0.957 . S
H1198 C1183 0.961 1_545 S
H1199 C1183 0.961 . S
H1200 C1184 0.931 . S
H1201 C1189 0.930 . S
H1202 C1190 0.956 . S
H1203 C1190 0.961 . S
H1204 C1190 0.961 . S
H1205 C1191 0.958 . S
H1206 C1191 0.961 . S
H1207 C1191 0.960 . S
C1208 C1209 1.391 . S
C1208 C1210 1.403 . S
C1208 H1224 0.931 . S
C1209 C1208 1.391 . S
C1209 C1213 1.376 . S
C1210 C1208 1.403 . S
C1210 C1211 1.377 . S
C1210 C1214 1.513 1_455 S
C1211 C1210 1.377 . S
C1211 C1212 1.410 . S
C1211 C1219 1.503 1_456 S
C1212 C1211 1.410 . S
C1212 C1213 1.392 . S
C1212 C1215 1.511 1_556 S
C1213 C1209 1.376 . S
C1213 C1212 1.392 . S
C1213 H1225 0.929 . S
C1214 C1210 1.513 1_655 S
C1214 H1226 0.960 . S
C1214 H1227 0.962 . S
C1214 H1228 0.960 . S
C1215 C1212 1.511 1_554 S
C1215 H1229 0.961 . S
C1215 H1230 0.961 . S
C1215 H1231 0.961 . S
C1216 C1217 1.370 . S
C1216 C1218 1.363 . S
C1216 H1232 0.931 . S
C1217 C1216 1.370 . S
C1217 C1221 1.408 . S
C1218 C1216 1.363 . S
C1218 C1219 1.370 . S
C1218 C1222 1.524 1_655 S
C1219 C1211 1.503 1_654 S
C1219 C1218 1.370 . S
C1219 C1220 1.403 . S
C1220 C1219 1.403 . S
C1220 C1221 1.404 . S
C1220 C1223 1.539 1_554 S
C1221 C1217 1.408 . S
C1221 C1220 1.404 . S
C1221 H1233 0.930 . S
C1222 C1218 1.524 1_455 S
C1222 H1234 0.956 . S
C1222 H1235 0.961 . S
C1222 H1236 0.961 . S
C1223 C1220 1.539 1_556 S
C1223 H1237 0.958 . S
C1223 H1238 0.961 . S
C1223 H1239 0.960 . S
H1224 C1208 0.931 . S
H1225 C1213 0.929 . S
H1226 C1214 0.960 . S
H1227 C1214 0.962 . S
H1228 C1214 0.960 . S
H1229 C1215 0.961 . S
H1230 C1215 0.961 . S
H1231 C1215 0.961 . S
H1232 C1216 0.931 . S
H1233 C1221 0.930 . S
H1234 C1222 0.956 . S
H1235 C1222 0.961 . S
H1236 C1222 0.961 . S
H1237 C1223 0.958 . S
H1238 C1223 0.961 . S
H1239 C1223 0.960 . S
C1240 C1241 1.391 . S
C1240 C1242 1.394 . S
C1240 H1256 0.931 . S
C1241 C1240 1.391 . S
C1241 C1245 1.376 . S
C1242 C1240 1.394 . S
C1242 C1243 1.369 . S
C1242 C1246 1.531 . S
C1243 C1242 1.369 . S
C1243 C1244 1.410 . S
C1243 C1251 1.503 1_554 S
C1244 C1243 1.410 . S
C1244 C1245 1.392 . S
C1244 C1247 1.511 1_554 S
C1245 C1241 1.376 . S
C1245 C1244 1.392 . S
C1245 H1257 0.929 . S
C1246 C1242 1.531 . S
C1246 H1258 0.960 . S
C1246 H1259 0.962 . S
C1246 H1260 0.960 . S
C1247 C1244 1.511 1_556 S
C1247 H1261 0.961 . S
C1247 H1262 0.961 . S
C1247 H1263 0.961 1_556 S
C1248 C1249 1.370 . S
C1248 C1250 1.363 . S
C1248 H1264 0.931 . S
C1249 C1248 1.370 . S
C1249 C1253 1.408 . S
C1250 C1248 1.363 . S
C1250 C1251 1.370 . S
C1250 C1254 1.524 . S
C1251 C1243 1.503 1_556 S
C1251 C1250 1.370 . S
C1251 C1252 1.403 . S
C1252 C1251 1.403 . S
C1252 C1253 1.404 . S
C1252 C1255 1.539 1_556 S
C1253 C1249 1.408 . S
C1253 C1252 1.404 . S
C1253 H1265 0.930 . S
C1254 C1250 1.524 . S
C1254 H1266 0.956 . S
C1254 H1267 0.961 . S
C1254 H1268 0.961 . S
C1255 C1252 1.539 1_554 S
C1255 H1269 0.958 . S
C1255 H1270 0.961 . S
C1255 H1271 0.960 . S
H1256 C1240 0.931 . S
H1257 C1245 0.929 . S
H1258 C1246 0.960 . S
H1259 C1246 0.962 . S
H1260 C1246 0.960 . S
H1261 C1247 0.961 . S
H1262 C1247 0.961 . S
H1263 C1247 0.961 1_554 S
H1264 C1248 0.931 . S
H1265 C1253 0.930 . S
H1266 C1254 0.956 . S
H1267 C1254 0.961 . S
H1268 C1254 0.961 . S
H1269 C1255 0.958 . S
H1270 C1255 0.961 . S
H1271 C1255 0.960 . S
C1272 C1273 1.391 . S
C1272 C1274 1.394 . S
C1272 H1288 0.931 . S
C1273 C1272 1.391 . S
C1273 C1277 1.376 . S
C1274 C1272 1.394 . S
C1274 C1275 1.369 . S
C1274 C1278 1.531 . S
C1275 C1274 1.369 . S
C1275 C1276 1.410 . S
C1275 C1283 1.503 . S
C1276 C1275 1.410 . S
C1276 C1277 1.392 . S
C1276 C1279 1.511 . S
C1277 C1273 1.376 . S
C1277 C1276 1.392 . S
C1277 H1289 0.929 . S
C1278 C1274 1.531 . S
C1278 H1290 0.960 . S
C1278 H1291 0.962 . S
C1278 H1292 0.960 . S
C1279 C1276 1.511 . S
C1279 H1293 0.961 . S
C1279 H1294 0.961 . S
C1279 H1295 0.961 . S
C1280 C1281 1.370 . S
C1280 C1282 1.363 . S
C1280 H1296 0.931 . S
C1281 C1280 1.370 . S
C1281 C1285 1.408 . S
C1282 C1280 1.363 . S
C1282 C1283 1.370 . S
C1282 C1286 1.524 . S
C1283 C1275 1.503 . S
C1283 C1282 1.370 . S
C1283 C1284 1.403 . S
C1284 C1283 1.403 . S
C1284 C1285 1.404 . S
C1284 C1287 1.539 . S
C1285 C1281 1.408 . S
C1285 C1284 1.404 . S
C1285 H1297 0.930 . S
C1286 C1282 1.524 . S
C1286 H1298 0.956 . S
C1286 H1299 0.961 . S
C1286 H1300 0.961 . S
C1287 C1284 1.539 . S
C1287 H1301 0.958 . S
C1287 H1302 0.961 . S
C1287 H1303 0.960 . S
H1288 C1272 0.931 . S
H1289 C1277 0.929 . S
H1290 C1278 0.960 . S
H1291 C1278 0.962 . S
H1292 C1278 0.960 . S
H1293 C1279 0.961 . S
H1294 C1279 0.961 . S
H1295 C1279 0.961 . S
H1296 C1280 0.931 . S
H1297 C1285 0.930 . S
H1298 C1286 0.956 . S
H1299 C1286 0.961 . S
H1300 C1286 0.961 . S
H1301 C1287 0.958 . S
H1302 C1287 0.961 . S
H1303 C1287 0.960 . S
C1304 C1305 1.391 . S
C1304 C1306 1.394 . S
C1304 H1320 0.931 . S
C1305 C1304 1.391 . S
C1305 C1309 1.376 . S
C1306 C1304 1.394 . S
C1306 C1307 1.369 . S
C1306 C1310 1.531 . S
C1307 C1306 1.369 . S
C1307 C1308 1.410 . S
C1307 C1315 1.503 . S
C1308 C1307 1.410 . S
C1308 C1309 1.392 . S
C1308 C1311 1.511 . S
C1309 C1305 1.376 . S
C1309 C1308 1.392 . S
C1309 H1321 0.929 . S
C1310 C1306 1.531 . S
C1310 H1322 0.960 . S
C1310 H1323 0.962 . S
C1310 H1324 0.960 . S
C1311 C1308 1.511 . S
C1311 H1325 0.961 . S
C1311 H1326 0.961 . S
C1311 H1327 0.961 . S
C1312 C1313 1.370 . S
C1312 C1314 1.363 . S
C1312 H1328 0.931 . S
C1313 C1312 1.370 . S
C1313 C1317 1.408 . S
C1314 C1312 1.363 . S
C1314 C1315 1.370 . S
C1314 C1318 1.524 . S
C1315 C1307 1.503 . S
C1315 C1314 1.370 . S
C1315 C1316 1.403 . S
C1316 C1315 1.403 . S
C1316 C1317 1.404 . S
C1316 C1319 1.539 . S
C1317 C1313 1.408 . S
C1317 C1316 1.404 . S
C1317 H1329 0.930 . S
C1318 C1314 1.524 . S
C1318 H1330 0.956 . S
C1318 H1331 0.961 . S
C1318 H1332 0.961 . S
C1319 C1316 1.539 . S
C1319 H1333 0.958 . S
C1319 H1334 0.961 . S
C1319 H1335 0.960 . S
H1320 C1304 0.931 . S
H1321 C1309 0.929 . S
H1322 C1310 0.960 . S
H1323 C1310 0.962 . S
H1324 C1310 0.960 . S
H1325 C1311 0.961 . S
H1326 C1311 0.961 . S
H1327 C1311 0.961 . S
H1328 C1312 0.931 . S
H1329 C1317 0.930 . S
H1330 C1318 0.956 . S
H1331 C1318 0.961 . S
H1332 C1318 0.961 . S
H1333 C1319 0.958 . S
H1334 C1319 0.961 . S
H1335 C1319 0.960 . S
C1336 C1337 1.391 . S
C1336 C1338 1.394 . S
C1336 H1352 0.931 . S
C1337 C1336 1.391 . S
C1337 C1341 1.376 . S
C1338 C1336 1.394 . S
C1338 C1339 1.369 . S
C1338 C1342 1.531 . S
C1339 C1338 1.369 . S
C1339 C1340 1.410 . S
C1339 C1347 1.503 . S
C1340 C1339 1.410 . S
C1340 C1341 1.392 . S
C1340 C1343 1.511 . S
C1341 C1337 1.376 . S
C1341 C1340 1.392 . S
C1341 H1353 0.929 . S
C1342 C1338 1.531 . S
C1342 H1354 0.960 . S
C1342 H1355 0.962 . S
C1342 H1356 0.960 . S
C1343 C1340 1.511 . S
C1343 H1357 0.961 . S
C1343 H1358 0.961 . S
C1343 H1359 0.961 . S
C1344 C1345 1.370 . S
C1344 C1346 1.363 . S
C1344 H1360 0.931 . S
C1345 C1344 1.370 . S
C1345 C1349 1.408 . S
C1346 C1344 1.363 . S
C1346 C1347 1.370 . S
C1346 C1350 1.524 . S
C1347 C1339 1.503 . S
C1347 C1346 1.370 . S
C1347 C1348 1.403 . S
C1348 C1347 1.403 . S
C1348 C1349 1.404 . S
C1348 C1351 1.539 . S
C1349 C1345 1.408 . S
C1349 C1348 1.404 . S
C1349 H1361 0.930 . S
C1350 C1346 1.524 . S
C1350 H1362 0.956 . S
C1350 H1363 0.961 . S
C1350 H1364 0.961 . S
C1351 C1348 1.539 . S
C1351 H1365 0.958 . S
C1351 H1366 0.961 . S
C1351 H1367 0.960 . S
H1352 C1336 0.931 . S
H1353 C1341 0.929 . S
H1354 C1342 0.960 . S
H1355 C1342 0.962 . S
H1356 C1342 0.960 . S
H1357 C1343 0.961 . S
H1358 C1343 0.961 . S
H1359 C1343 0.961 . S
H1360 C1344 0.931 . S
H1361 C1349 0.930 . S
H1362 C1350 0.956 . S
H1363 C1350 0.961 . S
H1364 C1350 0.961 . S
H1365 C1351 0.958 . S
H1366 C1351 0.961 . S
H1367 C1351 0.960 . S
C1368 C1369 1.391 . S
C1368 C1370 1.394 . S
C1368 H1384 0.931 . S
C1369 C1368 1.391 . S
C1369 C1373 1.376 . S
C1370 C1368 1.394 . S
C1370 C1371 1.369 . S
C1370 C1374 1.531 . S
C1371 C1370 1.369 . S
C1371 C1372 1.410 . S
C1371 C1379 1.503 . S
C1372 C1371 1.410 . S
C1372 C1373 1.392 . S
C1372 C1375 1.511 . S
C1373 C1369 1.376 . S
C1373 C1372 1.392 . S
C1373 H1385 0.929 . S
C1374 C1370 1.531 . S
C1374 H1386 0.960 . S
C1374 H1387 0.962 . S
C1374 H1388 0.960 . S
C1375 C1372 1.511 . S
C1375 H1389 0.961 . S
C1375 H1390 0.961 . S
C1375 H1391 0.961 . S
C1376 C1377 1.370 . S
C1376 C1378 1.363 . S
C1376 H1392 0.931 . S
C1377 C1376 1.370 . S
C1377 C1381 1.408 . S
C1378 C1376 1.363 . S
C1378 C1379 1.370 . S
C1378 C1382 1.524 . S
C1379 C1371 1.503 . S
C1379 C1378 1.370 . S
C1379 C1380 1.403 . S
C1380 C1379 1.403 . S
C1380 C1381 1.404 . S
C1380 C1383 1.539 . S
C1381 C1377 1.408 . S
C1381 C1380 1.404 . S
C1381 H1393 0.930 . S
C1382 C1378 1.524 . S
C1382 H1394 0.956 . S
C1382 H1395 0.961 . S
C1382 H1396 0.961 . S
C1383 C1380 1.539 . S
C1383 H1397 0.958 . S
C1383 H1398 0.961 . S
C1383 H1399 0.960 . S
H1384 C1368 0.931 . S
H1385 C1373 0.929 . S
H1386 C1374 0.960 . S
H1387 C1374 0.962 . S
H1388 C1374 0.960 . S
H1389 C1375 0.961 . S
H1390 C1375 0.961 . S
H1391 C1375 0.961 . S
H1392 C1376 0.931 . S
H1393 C1381 0.930 . S
H1394 C1382 0.956 . S
H1395 C1382 0.961 . S
H1396 C1382 0.961 . S
H1397 C1383 0.958 . S
H1398 C1383 0.961 . S
H1399 C1383 0.960 . S
C1400 C1401 1.391 . S
C1400 C1402 1.394 . S
C1400 H1416 0.931 . S
C1401 C1400 1.391 . S
C1401 C1405 1.376 . S
C1402 C1400 1.394 . S
C1402 C1403 1.369 . S
C1402 C1406 1.531 . S
C1403 C1402 1.369 . S
C1403 C1404 1.410 . S
C1403 C1411 1.503 . S
C1404 C1403 1.410 . S
C1404 C1405 1.392 . S
C1404 C1407 1.511 . S
C1405 C1401 1.376 . S
C1405 C1404 1.392 . S
C1405 H1417 0.929 . S
C1406 C1402 1.531 . S
C1406 H1418 0.960 . S
C1406 H1419 0.962 . S
C1406 H1420 0.960 . S
C1407 C1404 1.511 . S
C1407 H1421 0.961 . S
C1407 H1422 0.961 . S
C1407 H1423 0.961 . S
C1408 C1409 1.370 . S
C1408 C1410 1.363 . S
C1408 H1424 0.931 . S
C1409 C1408 1.370 . S
C1409 C1413 1.408 . S
C1410 C1408 1.363 . S
C1410 C1411 1.370 . S
C1410 C1414 1.524 . S
C1411 C1403 1.503 . S
C1411 C1410 1.370 . S
C1411 C1412 1.403 . S
C1412 C1411 1.403 . S
C1412 C1413 1.404 . S
C1412 C1415 1.539 . S
C1413 C1409 1.408 . S
C1413 C1412 1.404 . S
C1413 H1425 0.930 . S
C1414 C1410 1.524 . S
C1414 H1426 0.956 . S
C1414 H1427 0.961 . S
C1414 H1428 0.961 . S
C1415 C1412 1.539 . S
C1415 H1429 0.958 . S
C1415 H1430 0.961 . S
C1415 H1431 0.960 . S
H1416 C1400 0.931 . S
H1417 C1405 0.929 . S
H1418 C1406 0.960 . S
H1419 C1406 0.962 . S
H1420 C1406 0.960 . S
H1421 C1407 0.961 . S
H1422 C1407 0.961 . S
H1423 C1407 0.961 . S
H1424 C1408 0.931 . S
H1425 C1413 0.930 . S
H1426 C1414 0.956 . S
H1427 C1414 0.961 . S
H1428 C1414 0.961 . S
H1429 C1415 0.958 . S
H1430 C1415 0.961 . S
H1431 C1415 0.960 . S
C1432 C1433 1.391 . S
C1432 C1434 1.394 . S
C1432 H1448 0.931 . S
C1433 C1432 1.391 . S
C1433 C1437 1.376 . S
C1434 C1432 1.394 . S
C1434 C1435 1.369 . S
C1434 C1438 1.531 . S
C1435 C1434 1.369 . S
C1435 C1436 1.410 . S
C1435 C1443 1.503 . S
C1436 C1435 1.410 . S
C1436 C1437 1.392 . S
C1436 C1439 1.511 . S
C1437 C1433 1.376 . S
C1437 C1436 1.392 . S
C1437 H1449 0.929 . S
C1438 C1434 1.531 . S
C1438 H1450 0.960 . S
C1438 H1451 0.962 . S
C1438 H1452 0.960 . S
C1439 C1436 1.511 . S
C1439 H1453 0.961 . S
C1439 H1454 0.961 . S
C1439 H1455 0.961 . S
C1440 C1441 1.370 . S
C1440 C1442 1.363 . S
C1440 H1456 0.931 . S
C1441 C1440 1.370 . S
C1441 C1445 1.408 . S
C1442 C1440 1.363 . S
C1442 C1443 1.370 . S
C1442 C1446 1.524 . S
C1443 C1435 1.503 . S
C1443 C1442 1.370 . S
C1443 C1444 1.403 . S
C1444 C1443 1.403 . S
C1444 C1445 1.404 . S
C1444 C1447 1.539 . S
C1445 C1441 1.408 . S
C1445 C1444 1.404 . S
C1445 H1457 0.930 . S
C1446 C1442 1.524 . S
C1446 H1458 0.956 . S
C1446 H1459 0.961 . S
C1446 H1460 0.961 . S
C1447 C1444 1.539 . S
C1447 H1461 0.958 . S
C1447 H1462 0.961 . S
C1447 H1463 0.960 . S
H1448 C1432 0.931 . S
H1449 C1437 0.929 . S
H1450 C1438 0.960 . S
H1451 C1438 0.962 . S
H1452 C1438 0.960 . S
H1453 C1439 0.961 . S
H1454 C1439 0.961 . S
H1455 C1439 0.961 . S
H1456 C1440 0.931 . S
H1457 C1445 0.930 . S
H1458 C1446 0.956 . S
H1459 C1446 0.961 . S
H1460 C1446 0.961 . S
H1461 C1447 0.958 . S
H1462 C1447 0.961 . S
H1463 C1447 0.960 . S
C1464 C1465 1.391 . S
C1464 C1466 1.394 . S
C1464 H1480 0.931 . S
C1465 C1464 1.391 . S
C1465 C1469 1.376 . S
C1466 C1464 1.394 . S
C1466 C1467 1.369 . S
C1466 C1470 1.531 . S
C1467 C1466 1.369 . S
C1467 C1468 1.410 . S
C1467 C1475 1.503 . S
C1468 C1467 1.410 . S
C1468 C1469 1.392 . S
C1468 C1471 1.511 . S
C1469 C1465 1.376 . S
C1469 C1468 1.392 . S
C1469 H1481 0.929 . S
C1470 C1466 1.531 . S
C1470 H1482 0.960 . S
C1470 H1483 0.962 . S
C1470 H1484 0.960 . S
C1471 C1468 1.511 . S
C1471 H1485 0.961 . S
C1471 H1486 0.961 . S
C1471 H1487 0.961 . S
C1472 C1473 1.370 . S
C1472 C1474 1.363 . S
C1472 H1488 0.931 . S
C1473 C1472 1.370 . S
C1473 C1477 1.408 . S
C1474 C1472 1.363 . S
C1474 C1475 1.370 . S
C1474 C1478 1.524 . S
C1475 C1467 1.503 . S
C1475 C1474 1.370 . S
C1475 C1476 1.403 . S
C1476 C1475 1.403 . S
C1476 C1477 1.404 . S
C1476 C1479 1.539 . S
C1477 C1473 1.408 . S
C1477 C1476 1.404 . S
C1477 H1489 0.930 . S
C1478 C1474 1.524 . S
C1478 H1490 0.956 . S
C1478 H1491 0.961 . S
C1478 H1492 0.961 . S
C1479 C1476 1.539 . S
C1479 H1493 0.958 . S
C1479 H1494 0.961 . S
C1479 H1495 0.960 . S
H1480 C1464 0.931 . S
H1481 C1469 0.929 . S
H1482 C1470 0.960 . S
H1483 C1470 0.962 . S
H1484 C1470 0.960 . S
H1485 C1471 0.961 . S
H1486 C1471 0.961 . S
H1487 C1471 0.961 . S
H1488 C1472 0.931 . S
H1489 C1477 0.930 . S
H1490 C1478 0.956 . S
H1491 C1478 0.961 . S
H1492 C1478 0.961 . S
H1493 C1479 0.958 . S
H1494 C1479 0.961 . S
H1495 C1479 0.960 . S
C1496 C1497 1.391 . S
C1496 C1498 1.394 . S
C1496 H1512 0.931 . S
C1497 C1496 1.391 . S
C1497 C1501 1.376 . S
C1498 C1496 1.394 . S
C1498 C1499 1.369 . S
C1498 C1502 1.531 . S
C1499 C1498 1.369 . S
C1499 C1500 1.410 . S
C1499 C1507 1.503 . S
C1500 C1499 1.410 . S
C1500 C1501 1.392 . S
C1500 C1503 1.511 . S
C1501 C1497 1.376 . S
C1501 C1500 1.392 . S
C1501 H1513 0.929 . S
C1502 C1498 1.531 . S
C1502 H1514 0.960 . S
C1502 H1515 0.962 . S
C1502 H1516 0.960 . S
C1503 C1500 1.511 . S
C1503 H1517 0.961 . S
C1503 H1518 0.961 . S
C1503 H1519 0.961 . S
C1504 C1505 1.370 . S
C1504 C1506 1.363 . S
C1504 H1520 0.931 . S
C1505 C1504 1.370 . S
C1505 C1509 1.408 . S
C1506 C1504 1.363 . S
C1506 C1507 1.370 . S
C1506 C1510 1.524 . S
C1507 C1499 1.503 . S
C1507 C1506 1.370 . S
C1507 C1508 1.403 . S
C1508 C1507 1.403 . S
C1508 C1509 1.404 . S
C1508 C1511 1.539 . S
C1509 C1505 1.408 . S
C1509 C1508 1.404 . S
C1509 H1521 0.930 . S
C1510 C1506 1.524 . S
C1510 H1522 0.956 . S
C1510 H1523 0.961 . S
C1510 H1524 0.961 . S
C1511 C1508 1.539 . S
C1511 H1525 0.958 . S
C1511 H1526 0.961 . S
C1511 H1527 0.960 . S
H1512 C1496 0.931 . S
H1513 C1501 0.929 . S
H1514 C1502 0.960 . S
H1515 C1502 0.962 . S
H1516 C1502 0.960 . S
H1517 C1503 0.961 . S
H1518 C1503 0.961 . S
H1519 C1503 0.961 . S
H1520 C1504 0.931 . S
H1521 C1509 0.930 . S
H1522 C1510 0.956 . S
H1523 C1510 0.961 . S
H1524 C1510 0.961 . S
H1525 C1511 0.958 . S
H1526 C1511 0.961 . S
H1527 C1511 0.960 . S
C1528 C1529 1.391 . S
C1528 C1530 1.394 . S
C1528 H1544 0.931 . S
C1529 C1528 1.391 . S
C1529 C1533 1.376 . S
C1530 C1528 1.394 . S
C1530 C1531 1.369 . S
C1530 C1534 1.531 . S
C1531 C1530 1.369 . S
C1531 C1532 1.410 . S
C1531 C1539 1.503 . S
C1532 C1531 1.410 . S
C1532 C1533 1.392 . S
C1532 C1535 1.511 . S
C1533 C1529 1.376 . S
C1533 C1532 1.392 . S
C1533 H1545 0.929 . S
C1534 C1530 1.531 . S
C1534 H1546 0.960 . S
C1534 H1547 0.962 . S
C1534 H1548 0.960 . S
C1535 C1532 1.511 . S
C1535 H1549 0.961 . S
C1535 H1550 0.961 . S
C1535 H1551 0.961 . S
C1536 C1537 1.370 . S
C1536 C1538 1.363 . S
C1536 H1552 0.931 . S
C1537 C1536 1.370 . S
C1537 C1541 1.408 . S
C1538 C1536 1.363 . S
C1538 C1539 1.370 . S
C1538 C1542 1.524 . S
C1539 C1531 1.503 . S
C1539 C1538 1.370 . S
C1539 C1540 1.403 . S
C1540 C1539 1.403 . S
C1540 C1541 1.404 . S
C1540 C1543 1.539 . S
C1541 C1537 1.408 . S
C1541 C1540 1.404 . S
C1541 H1553 0.930 . S
C1542 C1538 1.524 . S
C1542 H1554 0.956 . S
C1542 H1555 0.961 . S
C1542 H1556 0.961 . S
C1543 C1540 1.539 . S
C1543 H1557 0.958 . S
C1543 H1558 0.961 . S
C1543 H1559 0.960 . S
H1544 C1528 0.931 . S
H1545 C1533 0.929 . S
H1546 C1534 0.960 . S
H1547 C1534 0.962 . S
H1548 C1534 0.960 . S
H1549 C1535 0.961 . S
H1550 C1535 0.961 . S
H1551 C1535 0.961 . S
H1552 C1536 0.931 . S
H1553 C1541 0.930 . S
H1554 C1542 0.956 . S
H1555 C1542 0.961 . S
H1556 C1542 0.961 . S
H1557 C1543 0.958 . S
H1558 C1543 0.961 . S
H1559 C1543 0.960 . S
C1560 C1561 1.391 . S
C1560 C1562 1.394 . S
C1560 H1576 0.931 . S
C1561 C1560 1.391 . S
C1561 C1565 1.376 . S
C1562 C1560 1.394 . S
C1562 C1563 1.369 . S
C1562 C1566 1.531 . S
C1563 C1562 1.369 . S
C1563 C1564 1.410 . S
C1563 C1571 1.503 . S
C1564 C1563 1.410 . S
C1564 C1565 1.392 . S
C1564 C1567 1.511 . S
C1565 C1561 1.376 . S
C1565 C1564 1.392 . S
C1565 H1577 0.929 . S
C1566 C1562 1.531 . S
C1566 H1578 0.960 . S
C1566 H1579 0.962 . S
C1566 H1580 0.960 . S
C1567 C1564 1.511 . S
C1567 H1581 0.961 . S
C1567 H1582 0.961 . S
C1567 H1583 0.961 . S
C1568 C1569 1.370 . S
C1568 C1570 1.363 . S
C1568 H1584 0.931 . S
C1569 C1568 1.370 . S
C1569 C1573 1.408 . S
C1570 C1568 1.363 . S
C1570 C1571 1.370 . S
C1570 C1574 1.524 . S
C1571 C1563 1.503 . S
C1571 C1570 1.370 . S
C1571 C1572 1.403 . S
C1572 C1571 1.403 . S
C1572 C1573 1.404 . S
C1572 C1575 1.539 . S
C1573 C1569 1.408 . S
C1573 C1572 1.404 . S
C1573 H1585 0.930 . S
C1574 C1570 1.524 . S
C1574 H1586 0.956 . S
C1574 H1587 0.961 . S
C1574 H1588 0.961 . S
C1575 C1572 1.539 . S
C1575 H1589 0.958 . S
C1575 H1590 0.961 . S
C1575 H1591 0.960 . S
H1576 C1560 0.931 . S
H1577 C1565 0.929 . S
H1578 C1566 0.960 . S
H1579 C1566 0.962 . S
H1580 C1566 0.960 . S
H1581 C1567 0.961 . S
H1582 C1567 0.961 . S
H1583 C1567 0.961 . S
H1584 C1568 0.931 . S
H1585 C1573 0.930 . S
H1586 C1574 0.956 . S
H1587 C1574 0.961 . S
H1588 C1574 0.961 . S
H1589 C1575 0.958 . S
H1590 C1575 0.961 . S
H1591 C1575 0.960 . S
C1592 C1593 1.391 . S
C1592 C1594 1.394 . S
C1592 H1608 0.931 . S
C1593 C1592 1.391 . S
C1593 C1597 1.376 . S
C1594 C1592 1.394 . S
C1594 C1595 1.369 . S
C1594 C1598 1.531 . S
C1595 C1594 1.369 . S
C1595 C1596 1.410 . S
C1595 C1603 1.503 . S
C1596 C1595 1.410 . S
C1596 C1597 1.392 . S
C1596 C1599 1.511 . S
C1597 C1593 1.376 . S
C1597 C1596 1.392 . S
C1597 H1609 0.929 . S
C1598 C1594 1.531 . S
C1598 H1610 0.960 . S
C1598 H1611 0.962 . S
C1598 H1612 0.960 . S
C1599 C1596 1.511 . S
C1599 H1613 0.961 . S
C1599 H1614 0.961 . S
C1599 H1615 0.961 . S
C1600 C1601 1.370 . S
C1600 C1602 1.363 . S
C1600 H1616 0.931 . S
C1601 C1600 1.370 . S
C1601 C1605 1.408 . S
C1602 C1600 1.363 . S
C1602 C1603 1.370 . S
C1602 C1606 1.524 . S
C1603 C1595 1.503 . S
C1603 C1602 1.370 . S
C1603 C1604 1.403 . S
C1604 C1603 1.403 . S
C1604 C1605 1.404 . S
C1604 C1607 1.539 . S
C1605 C1601 1.408 . S
C1605 C1604 1.404 . S
C1605 H1617 0.930 . S
C1606 C1602 1.524 . S
C1606 H1618 0.956 . S
C1606 H1619 0.961 . S
C1606 H1620 0.961 . S
C1607 C1604 1.539 . S
C1607 H1621 0.958 . S
C1607 H1622 0.961 . S
C1607 H1623 0.960 . S
H1608 C1592 0.931 . S
H1609 C1597 0.929 . S
H1610 C1598 0.960 . S
H1611 C1598 0.962 . S
H1612 C1598 0.960 . S
H1613 C1599 0.961 . S
H1614 C1599 0.961 . S
H1615 C1599 0.961 . S
H1616 C1600 0.931 . S
H1617 C1605 0.930 . S
H1618 C1606 0.956 . S
H1619 C1606 0.961 . S
H1620 C1606 0.961 . S
H1621 C1607 0.958 . S
H1622 C1607 0.961 . S
H1623 C1607 0.960 . S
C1624 C1625 1.391 . S
C1624 C1626 1.394 . S
C1624 H1640 0.931 . S
C1625 C1624 1.391 . S
C1625 C1629 1.376 . S
C1626 C1624 1.394 . S
C1626 C1627 1.369 . S
C1626 C1630 1.531 . S
C1627 C1626 1.369 . S
C1627 C1628 1.410 . S
C1627 C1635 1.503 . S
C1628 C1627 1.410 . S
C1628 C1629 1.392 . S
C1628 C1631 1.511 . S
C1629 C1625 1.376 . S
C1629 C1628 1.392 . S
C1629 H1641 0.929 . S
C1630 C1626 1.531 . S
C1630 H1642 0.960 . S
C1630 H1643 0.962 . S
C1630 H1644 0.960 . S
C1631 C1628 1.511 . S
C1631 H1645 0.961 . S
C1631 H1646 0.961 . S
C1631 H1647 0.961 . S
C1632 C1633 1.370 . S
C1632 C1634 1.363 . S
C1632 H1648 0.931 . S
C1633 C1632 1.370 . S
C1633 C1637 1.408 . S
C1634 C1632 1.363 . S
C1634 C1635 1.370 . S
C1634 C1638 1.524 . S
C1635 C1627 1.503 . S
C1635 C1634 1.370 . S
C1635 C1636 1.403 . S
C1636 C1635 1.403 . S
C1636 C1637 1.404 . S
C1636 C1639 1.539 . S
C1637 C1633 1.408 . S
C1637 C1636 1.404 . S
C1637 H1649 0.930 . S
C1638 C1634 1.524 . S
C1638 H1650 0.956 . S
C1638 H1651 0.961 . S
C1638 H1652 0.961 . S
C1639 C1636 1.539 . S
C1639 H1653 0.958 . S
C1639 H1654 0.961 . S
C1639 H1655 0.960 . S
H1640 C1624 0.931 . S
H1641 C1629 0.929 . S
H1642 C1630 0.960 . S
H1643 C1630 0.962 . S
H1644 C1630 0.960 . S
H1645 C1631 0.961 . S
H1646 C1631 0.961 . S
H1647 C1631 0.961 . S
H1648 C1632 0.931 . S
H1649 C1637 0.930 . S
H1650 C1638 0.956 . S
H1651 C1638 0.961 . S
H1652 C1638 0.961 . S
H1653 C1639 0.958 . S
H1654 C1639 0.961 . S
H1655 C1639 0.960 . S
C1656 C1657 1.391 . S
C1656 C1658 1.394 . S
C1656 H1672 0.931 . S
C1657 C1656 1.391 . S
C1657 C1661 1.376 . S
C1658 C1656 1.394 . S
C1658 C1659 1.369 . S
C1658 C1662 1.531 . S
C1659 C1658 1.369 . S
C1659 C1660 1.410 . S
C1659 C1667 1.503 . S
C1660 C1659 1.410 . S
C1660 C1661 1.392 . S
C1660 C1663 1.511 . S
C1661 C1657 1.376 . S
C1661 C1660 1.392 . S
C1661 H1673 0.929 . S
C1662 C1658 1.531 . S
C1662 H1674 0.960 . S
C1662 H1675 0.962 . S
C1662 H1676 0.960 . S
C1663 C1660 1.511 . S
C1663 H1677 0.961 . S
C1663 H1678 0.961 . S
C1663 H1679 0.961 . S
C1664 C1665 1.370 . S
C1664 C1666 1.363 . S
C1664 H1680 0.931 . S
C1665 C1664 1.370 . S
C1665 C1669 1.408 . S
C1666 C1664 1.363 . S
C1666 C1667 1.370 . S
C1666 C1670 1.524 . S
C1667 C1659 1.503 . S
C1667 C1666 1.370 . S
C1667 C1668 1.403 . S
C1668 C1667 1.403 . S
C1668 C1669 1.404 . S
C1668 C1671 1.539 . S
C1669 C1665 1.408 . S
C1669 C1668 1.404 . S
C1669 H1681 0.930 . S
C1670 C1666 1.524 . S
C1670 H1682 0.956 . S
C1670 H1683 0.961 . S
C1670 H1684 0.961 . S
C1671 C1668 1.539 . S
C1671 H1685 0.958 . S
C1671 H1686 0.961 . S
C1671 H1687 0.960 . S
H1672 C1656 0.931 . S
H1673 C1661 0.929 . S
H1674 C1662 0.960 . S
H1675 C1662 0.962 . S
H1676 C1662 0.960 . S
H1677 C1663 0.961 . S
H1678 C1663 0.961 . S
H1679 C1663 0.961 . S
H1680 C1664 0.931 . S
H1681 C1669 0.930 . S
H1682 C1670 0.956 . S
H1683 C1670 0.961 . S
H1684 C1670 0.961 . S
H1685 C1671 0.958 . S
H1686 C1671 0.961 . S
H1687 C1671 0.960 . S
C1688 C1689 1.391 . S
C1688 C1690 1.394 . S
C1688 H1704 0.931 . S
C1689 C1688 1.391 . S
C1689 C1693 1.376 . S
C1690 C1688 1.394 . S
C1690 C1691 1.369 . S
C1690 C1694 1.531 . S
C1691 C1690 1.369 . S
C1691 C1692 1.410 . S
C1691 C1699 1.503 . S
C1692 C1691 1.410 . S
C1692 C1693 1.392 . S
C1692 C1695 1.511 . S
C1693 C1689 1.376 . S
C1693 C1692 1.392 . S
C1693 H1705 0.929 . S
C1694 C1690 1.531 . S
C1694 H1706 0.960 . S
C1694 H1707 0.962 . S
C1694 H1708 0.960 . S
C1695 C1692 1.511 . S
C1695 H1709 0.961 . S
C1695 H1710 0.961 . S
C1695 H1711 0.961 . S
C1696 C1697 1.370 . S
C1696 C1698 1.363 . S
C1696 H1712 0.931 . S
C1697 C1696 1.370 . S
C1697 C1701 1.408 . S
C1698 C1696 1.363 . S
C1698 C1699 1.370 . S
C1698 C1702 1.524 . S
C1699 C1691 1.503 . S
C1699 C1698 1.370 . S
C1699 C1700 1.403 . S
C1700 C1699 1.403 . S
C1700 C1701 1.404 . S
C1700 C1703 1.539 . S
C1701 C1697 1.408 . S
C1701 C1700 1.404 . S
C1701 H1713 0.930 . S
C1702 C1698 1.524 . S
C1702 H1714 0.956 . S
C1702 H1715 0.961 . S
C1702 H1716 0.961 . S
C1703 C1700 1.539 . S
C1703 H1717 0.958 . S
C1703 H1718 0.961 . S
C1703 H1719 0.960 . S
H1704 C1688 0.931 . S
H1705 C1693 0.929 . S
H1706 C1694 0.960 . S
H1707 C1694 0.962 . S
H1708 C1694 0.960 . S
H1709 C1695 0.961 . S
H1710 C1695 0.961 . S
H1711 C1695 0.961 . S
H1712 C1696 0.931 . S
H1713 C1701 0.930 . S
H1714 C1702 0.956 . S
H1715 C1702 0.961 . S
H1716 C1702 0.961 . S
H1717 C1703 0.958 . S
H1718 C1703 0.961 . S
H1719 C1703 0.960 . S
C1720 C1721 1.391 . S
C1720 C1722 1.394 . S
C1720 H1736 0.931 . S
C1721 C1720 1.391 . S
C1721 C1725 1.376 . S
C1722 C1720 1.394 . S
C1722 C1723 1.369 . S
C1722 C1726 1.531 . S
C1723 C1722 1.369 . S
C1723 C1724 1.410 . S
C1723 C1731 1.503 . S
C1724 C1723 1.410 . S
C1724 C1725 1.392 . S
C1724 C1727 1.511 . S
C1725 C1721 1.376 . S
C1725 C1724 1.392 . S
C1725 H1737 0.929 . S
C1726 C1722 1.531 . S
C1726 H1738 0.960 . S
C1726 H1739 0.962 . S
C1726 H1740 0.960 . S
C1727 C1724 1.511 . S
C1727 H1741 0.961 . S
C1727 H1742 0.961 . S
C1727 H1743 0.961 . S
C1728 C1729 1.370 . S
C1728 C1730 1.363 . S
C1728 H1744 0.931 . S
C1729 C1728 1.370 . S
C1729 C1733 1.408 . S
C1730 C1728 1.363 . S
C1730 C1731 1.370 . S
C1730 C1734 1.524 . S
C1731 C1723 1.503 . S
C1731 C1730 1.370 . S
C1731 C1732 1.403 . S
C1732 C1731 1.403 . S
C1732 C1733 1.404 . S
C1732 C1735 1.539 . S
C1733 C1729 1.408 . S
C1733 C1732 1.404 . S
C1733 H1745 0.930 . S
C1734 C1730 1.524 . S
C1734 H1746 0.956 . S
C1734 H1747 0.961 . S
C1734 H1748 0.961 . S
C1735 C1732 1.539 . S
C1735 H1749 0.958 . S
C1735 H1750 0.961 . S
C1735 H1751 0.960 . S
H1736 C1720 0.931 . S
H1737 C1725 0.929 . S
H1738 C1726 0.960 . S
H1739 C1726 0.962 . S
H1740 C1726 0.960 . S
H1741 C1727 0.961 . S
H1742 C1727 0.961 . S
H1743 C1727 0.961 . S
H1744 C1728 0.931 . S
H1745 C1733 0.930 . S
H1746 C1734 0.956 . S
H1747 C1734 0.961 . S
H1748 C1734 0.961 . S
H1749 C1735 0.958 . S
H1750 C1735 0.961 . S
H1751 C1735 0.960 . S
C1752 C1753 1.391 . S
C1752 C1754 1.394 . S
C1752 H1768 0.931 . S
C1753 C1752 1.391 . S
C1753 C1757 1.376 . S
C1754 C1752 1.394 . S
C1754 C1755 1.369 . S
C1754 C1758 1.531 . S
C1755 C1754 1.369 . S
C1755 C1756 1.410 . S
C1755 C1763 1.503 . S
C1756 C1755 1.410 . S
C1756 C1757 1.392 . S
C1756 C1759 1.511 . S
C1757 C1753 1.376 . S
C1757 C1756 1.392 . S
C1757 H1769 0.929 . S
C1758 C1754 1.531 . S
C1758 H1770 0.960 . S
C1758 H1771 0.962 . S
C1758 H1772 0.960 . S
C1759 C1756 1.511 . S
C1759 H1773 0.961 . S
C1759 H1774 0.961 . S
C1759 H1775 0.961 . S
C1760 C1761 1.370 . S
C1760 C1762 1.363 . S
C1760 H1776 0.931 . S
C1761 C1760 1.370 . S
C1761 C1765 1.408 . S
C1762 C1760 1.363 . S
C1762 C1763 1.370 . S
C1762 C1766 1.524 . S
C1763 C1755 1.503 . S
C1763 C1762 1.370 . S
C1763 C1764 1.403 . S
C1764 C1763 1.403 . S
C1764 C1765 1.404 . S
C1764 C1767 1.539 . S
C1765 C1761 1.408 . S
C1765 C1764 1.404 . S
C1765 H1777 0.930 . S
C1766 C1762 1.524 . S
C1766 H1778 0.956 . S
C1766 H1779 0.961 . S
C1766 H1780 0.961 . S
C1767 C1764 1.539 . S
C1767 H1781 0.958 . S
C1767 H1782 0.961 . S
C1767 H1783 0.960 . S
H1768 C1752 0.931 . S
H1769 C1757 0.929 . S
H1770 C1758 0.960 . S
H1771 C1758 0.962 . S
H1772 C1758 0.960 . S
H1773 C1759 0.961 . S
H1774 C1759 0.961 . S
H1775 C1759 0.961 . S
H1776 C1760 0.931 . S
H1777 C1765 0.930 . S
H1778 C1766 0.956 . S
H1779 C1766 0.961 . S
H1780 C1766 0.961 . S
H1781 C1767 0.958 . S
H1782 C1767 0.961 . S
H1783 C1767 0.960 . S
C1784 C1785 1.391 . S
C1784 C1786 1.394 . S
C1784 H1800 0.931 . S
C1785 C1784 1.391 . S
C1785 C1789 1.376 . S
C1786 C1784 1.394 . S
C1786 C1787 1.369 . S
C1786 C1790 1.531 . S
C1787 C1786 1.369 . S
C1787 C1788 1.410 . S
C1787 C1795 1.503 . S
C1788 C1787 1.410 . S
C1788 C1789 1.392 . S
C1788 C1791 1.511 . S
C1789 C1785 1.376 . S
C1789 C1788 1.392 . S
C1789 H1801 0.929 . S
C1790 C1786 1.531 . S
C1790 H1802 0.960 . S
C1790 H1803 0.962 . S
C1790 H1804 0.960 . S
C1791 C1788 1.511 . S
C1791 H1805 0.961 . S
C1791 H1806 0.961 . S
C1791 H1807 0.961 . S
C1792 C1793 1.370 . S
C1792 C1794 1.363 . S
C1792 H1808 0.931 . S
C1793 C1792 1.370 . S
C1793 C1797 1.408 . S
C1794 C1792 1.363 . S
C1794 C1795 1.370 . S
C1794 C1798 1.524 . S
C1795 C1787 1.503 . S
C1795 C1794 1.370 . S
C1795 C1796 1.403 . S
C1796 C1795 1.403 . S
C1796 C1797 1.404 . S
C1796 C1799 1.539 . S
C1797 C1793 1.408 . S
C1797 C1796 1.404 . S
C1797 H1809 0.930 . S
C1798 C1794 1.524 . S
C1798 H1810 0.956 . S
C1798 H1811 0.961 . S
C1798 H1812 0.961 . S
C1799 C1796 1.539 . S
C1799 H1813 0.958 . S
C1799 H1814 0.961 . S
C1799 H1815 0.960 . S
H1800 C1784 0.931 . S
H1801 C1789 0.929 . S
H1802 C1790 0.960 . S
H1803 C1790 0.962 . S
H1804 C1790 0.960 . S
H1805 C1791 0.961 . S
H1806 C1791 0.961 . S
H1807 C1791 0.961 . S
H1808 C1792 0.931 . S
H1809 C1797 0.930 . S
H1810 C1798 0.956 . S
H1811 C1798 0.961 . S
H1812 C1798 0.961 . S
H1813 C1799 0.958 . S
H1814 C1799 0.961 . S
H1815 C1799 0.960 . S
C1816 C1817 1.391 . S
C1816 C1818 1.394 . S
C1816 H1832 0.931 . S
C1817 C1816 1.391 . S
C1817 C1821 1.376 . S
C1818 C1816 1.394 . S
C1818 C1819 1.369 . S
C1818 C1822 1.531 . S
C1819 C1818 1.369 . S
C1819 C1820 1.410 . S
C1819 C1827 1.503 . S
C1820 C1819 1.410 . S
C1820 C1821 1.392 . S
C1820 C1823 1.511 . S
C1821 C1817 1.376 . S
C1821 C1820 1.392 . S
C1821 H1833 0.929 . S
C1822 C1818 1.531 . S
C1822 H1834 0.960 . S
C1822 H1835 0.962 . S
C1822 H1836 0.960 . S
C1823 C1820 1.511 . S
C1823 H1837 0.961 . S
C1823 H1838 0.961 . S
C1823 H1839 0.961 . S
C1824 C1825 1.370 . S
C1824 C1826 1.363 . S
C1824 H1840 0.931 . S
C1825 C1824 1.370 . S
C1825 C1829 1.408 . S
C1826 C1824 1.363 . S
C1826 C1827 1.370 . S
C1826 C1830 1.524 . S
C1827 C1819 1.503 . S
C1827 C1826 1.370 . S
C1827 C1828 1.403 . S
C1828 C1827 1.403 . S
C1828 C1829 1.404 . S
C1828 C1831 1.539 . S
C1829 C1825 1.408 . S
C1829 C1828 1.404 . S
C1829 H1841 0.930 . S
C1830 C1826 1.524 . S
C1830 H1842 0.956 . S
C1830 H1843 0.961 . S
C1830 H1844 0.961 . S
C1831 C1828 1.539 . S
C1831 H1845 0.958 . S
C1831 H1846 0.961 . S
C1831 H1847 0.960 . S
H1832 C1816 0.931 . S
H1833 C1821 0.929 . S
H1834 C1822 0.960 . S
H1835 C1822 0.962 . S
H1836 C1822 0.960 . S
H1837 C1823 0.961 . S
H1838 C1823 0.961 . S
H1839 C1823 0.961 . S
H1840 C1824 0.931 . S
H1841 C1829 0.930 . S
H1842 C1830 0.956 . S
H1843 C1830 0.961 . S
H1844 C1830 0.961 . S
H1845 C1831 0.958 . S
H1846 C1831 0.961 . S
H1847 C1831 0.960 . S
C1848 C1849 1.391 . S
C1848 C1850 1.394 . S
C1848 H1864 0.931 . S
C1849 C1848 1.391 . S
C1849 C1853 1.376 . S
C1850 C1848 1.394 . S
C1850 C1851 1.369 . S
C1850 C1854 1.531 . S
C1851 C1850 1.369 . S
C1851 C1852 1.410 . S
C1851 C1859 1.503 . S
C1852 C1851 1.410 . S
C1852 C1853 1.392 . S
C1852 C1855 1.511 . S
C1853 C1849 1.376 . S
C1853 C1852 1.392 . S
C1853 H1865 0.929 . S
C1854 C1850 1.531 . S
C1854 H1866 0.960 . S
C1854 H1867 0.962 . S
C1854 H1868 0.960 . S
C1855 C1852 1.511 . S
C1855 H1869 0.961 . S
C1855 H1870 0.961 . S
C1855 H1871 0.961 . S
C1856 C1857 1.370 . S
C1856 C1858 1.363 . S
C1856 H1872 0.931 . S
C1857 C1856 1.370 . S
C1857 C1861 1.408 . S
C1858 C1856 1.363 . S
C1858 C1859 1.370 . S
C1858 C1862 1.524 . S
C1859 C1851 1.503 . S
C1859 C1858 1.370 . S
C1859 C1860 1.403 . S
C1860 C1859 1.403 . S
C1860 C1861 1.404 . S
C1860 C1863 1.539 . S
C1861 C1857 1.408 . S
C1861 C1860 1.404 . S
C1861 H1873 0.930 . S
C1862 C1858 1.524 . S
C1862 H1874 0.956 . S
C1862 H1875 0.961 . S
C1862 H1876 0.961 . S
C1863 C1860 1.539 . S
C1863 H1877 0.958 . S
C1863 H1878 0.961 . S
C1863 H1879 0.960 . S
H1864 C1848 0.931 . S
H1865 C1853 0.929 . S
H1866 C1854 0.960 . S
H1867 C1854 0.962 . S
H1868 C1854 0.960 . S
H1869 C1855 0.961 . S
H1870 C1855 0.961 . S
H1871 C1855 0.961 . S
H1872 C1856 0.931 . S
H1873 C1861 0.930 . S
H1874 C1862 0.956 . S
H1875 C1862 0.961 . S
H1876 C1862 0.961 . S
H1877 C1863 0.958 . S
H1878 C1863 0.961 . S
H1879 C1863 0.960 . S
C1880 C1881 1.391 . S
C1880 C1882 1.394 . S
C1880 H1896 0.931 . S
C1881 C1880 1.391 . S
C1881 C1885 1.376 . S
C1882 C1880 1.394 . S
C1882 C1883 1.369 . S
C1882 C1886 1.531 . S
C1883 C1882 1.369 . S
C1883 C1884 1.410 . S
C1883 C1891 1.503 . S
C1884 C1883 1.410 . S
C1884 C1885 1.392 . S
C1884 C1887 1.511 . S
C1885 C1881 1.376 . S
C1885 C1884 1.392 . S
C1885 H1897 0.929 . S
C1886 C1882 1.531 . S
C1886 H1898 0.960 . S
C1886 H1899 0.962 . S
C1886 H1900 0.960 . S
C1887 C1884 1.511 . S
C1887 H1901 0.961 . S
C1887 H1902 0.961 . S
C1887 H1903 0.961 . S
C1888 C1889 1.370 . S
C1888 C1890 1.363 . S
C1888 H1904 0.931 . S
C1889 C1888 1.370 . S
C1889 C1893 1.408 . S
C1890 C1888 1.363 . S
C1890 C1891 1.370 . S
C1890 C1894 1.524 . S
C1891 C1883 1.503 . S
C1891 C1890 1.370 . S
C1891 C1892 1.403 . S
C1892 C1891 1.403 . S
C1892 C1893 1.404 . S
C1892 C1895 1.539 . S
C1893 C1889 1.408 . S
C1893 C1892 1.404 . S
C1893 H1905 0.930 . S
C1894 C1890 1.524 . S
C1894 H1906 0.956 . S
C1894 H1907 0.961 . S
C1894 H1908 0.961 . S
C1895 C1892 1.539 . S
C1895 H1909 0.958 . S
C1895 H1910 0.961 . S
C1895 H1911 0.960 . S
H1896 C1880 0.931 . S
H1897 C1885 0.929 . S
H1898 C1886 0.960 . S
H1899 C1886 0.962 . S
H1900 C1886 0.960 . S
H1901 C1887 0.961 . S
H1902 C1887 0.961 . S
H1903 C1887 0.961 . S
H1904 C1888 0.931 . S
H1905 C1893 0.930 . S
H1906 C1894 0.956 . S
H1907 C1894 0.961 . S
H1908 C1894 0.961 . S
H1909 C1895 0.958 . S
H1910 C1895 0.961 . S
H1911 C1895 0.960 . S
C1912 C1913 1.391 . S
C1912 C1914 1.394 . S
C1912 H1928 0.931 . S
C1913 C1912 1.391 . S
C1913 C1917 1.376 . S
C1914 C1912 1.394 . S
C1914 C1915 1.369 . S
C1914 C1918 1.531 . S
C1915 C1914 1.369 . S
C1915 C1916 1.410 . S
C1915 C1923 1.503 . S
C1916 C1915 1.410 . S
C1916 C1917 1.392 . S
C1916 C1919 1.511 . S
C1917 C1913 1.376 . S
C1917 C1916 1.392 . S
C1917 H1929 0.929 . S
C1918 C1914 1.531 . S
C1918 H1930 0.960 . S
C1918 H1931 0.962 . S
C1918 H1932 0.960 . S
C1919 C1916 1.511 . S
C1919 H1933 0.961 . S
C1919 H1934 0.961 . S
C1919 H1935 0.961 . S
C1920 C1921 1.370 . S
C1920 C1922 1.363 . S
C1920 H1936 0.931 . S
C1921 C1920 1.370 . S
C1921 C1925 1.408 . S
C1922 C1920 1.363 . S
C1922 C1923 1.370 . S
C1922 C1926 1.524 . S
C1923 C1915 1.503 . S
C1923 C1922 1.370 . S
C1923 C1924 1.403 . S
C1924 C1923 1.403 . S
C1924 C1925 1.404 . S
C1924 C1927 1.539 . S
C1925 C1921 1.408 . S
C1925 C1924 1.404 . S
C1925 H1937 0.930 . S
C1926 C1922 1.524 . S
C1926 H1938 0.956 . S
C1926 H1939 0.961 . S
C1926 H1940 0.961 . S
C1927 C1924 1.539 . S
C1927 H1941 0.958 . S
C1927 H1942 0.961 . S
C1927 H1943 0.960 . S
H1928 C1912 0.931 . S
H1929 C1917 0.929 . S
H1930 C1918 0.960 . S
H1931 C1918 0.962 . S
H1932 C1918 0.960 . S
H1933 C1919 0.961 . S
H1934 C1919 0.961 . S
H1935 C1919 0.961 . S
H1936 C1920 0.931 . S
H1937 C1925 0.930 . S
H1938 C1926 0.956 . S
H1939 C1926 0.961 . S
H1940 C1926 0.961 . S
H1941 C1927 0.958 . S
H1942 C1927 0.961 . S
H1943 C1927 0.960 . S
C1944 C1945 1.391 . S
C1944 C1946 1.394 . S
C1944 H1960 0.931 . S
C1945 C1944 1.391 . S
C1945 C1949 1.376 . S
C1946 C1944 1.394 . S
C1946 C1947 1.369 . S
C1946 C1950 1.531 . S
C1947 C1946 1.369 . S
C1947 C1948 1.410 . S
C1947 C1955 1.503 . S
C1948 C1947 1.410 . S
C1948 C1949 1.392 . S
C1948 C1951 1.511 . S
C1949 C1945 1.376 . S
C1949 C1948 1.392 . S
C1949 H1961 0.929 . S
C1950 C1946 1.531 . S
C1950 H1962 0.960 . S
C1950 H1963 0.962 . S
C1950 H1964 0.960 . S
C1951 C1948 1.511 . S
C1951 H1965 0.961 . S
C1951 H1966 0.961 . S
C1951 H1967 0.961 . S
C1952 C1953 1.370 . S
C1952 C1954 1.363 . S
C1952 H1968 0.931 . S
C1953 C1952 1.370 . S
C1953 C1957 1.408 . S
C1954 C1952 1.363 . S
C1954 C1955 1.370 . S
C1954 C1958 1.524 . S
C1955 C1947 1.503 . S
C1955 C1954 1.370 . S
C1955 C1956 1.403 . S
C1956 C1955 1.403 . S
C1956 C1957 1.404 . S
C1956 C1959 1.539 . S
C1957 C1953 1.408 . S
C1957 C1956 1.404 . S
C1957 H1969 0.930 . S
C1958 C1954 1.524 . S
C1958 H1970 0.956 . S
C1958 H1971 0.961 . S
C1958 H1972 0.961 . S
C1959 C1956 1.539 . S
C1959 H1973 0.958 . S
C1959 H1974 0.961 . S
C1959 H1975 0.960 . S
H1960 C1944 0.931 . S
H1961 C1949 0.929 . S
H1962 C1950 0.960 . S
H1963 C1950 0.962 . S
H1964 C1950 0.960 . S
H1965 C1951 0.961 . S
H1966 C1951 0.961 . S
H1967 C1951 0.961 . S
H1968 C1952 0.931 . S
H1969 C1957 0.930 . S
H1970 C1958 0.956 . S
H1971 C1958 0.961 . S
H1972 C1958 0.961 . S
H1973 C1959 0.958 . S
H1974 C1959 0.961 . S
H1975 C1959 0.960 . S
C1976 C1977 1.391 . S
C1976 C1978 1.394 . S
C1976 H1992 0.931 . S
C1977 C1976 1.391 . S
C1977 C1981 1.376 . S
C1978 C1976 1.394 . S
C1978 C1979 1.369 . S
C1978 C1982 1.531 . S
C1979 C1978 1.369 . S
C1979 C1980 1.410 . S
C1979 C1987 1.503 . S
C1980 C1979 1.410 . S
C1980 C1981 1.392 . S
C1980 C1983 1.511 . S
C1981 C1977 1.376 . S
C1981 C1980 1.392 . S
C1981 H1993 0.929 . S
C1982 C1978 1.531 . S
C1982 H1994 0.960 . S
C1982 H1995 0.962 . S
C1982 H1996 0.960 . S
C1983 C1980 1.511 . S
C1983 H1997 0.961 . S
C1983 H1998 0.961 . S
C1983 H1999 0.961 . S
C1984 C1985 1.370 . S
C1984 C1986 1.363 . S
C1984 H2000 0.931 . S
C1985 C1984 1.370 . S
C1985 C1989 1.408 . S
C1986 C1984 1.363 . S
C1986 C1987 1.370 . S
C1986 C1990 1.524 . S
C1987 C1979 1.503 . S
C1987 C1986 1.370 . S
C1987 C1988 1.403 . S
C1988 C1987 1.403 . S
C1988 C1989 1.404 . S
C1988 C1991 1.539 . S
C1989 C1985 1.408 . S
C1989 C1988 1.404 . S
C1989 H2001 0.930 . S
C1990 C1986 1.524 . S
C1990 H2002 0.956 . S
C1990 H2003 0.961 . S
C1990 H2004 0.961 . S
C1991 C1988 1.539 . S
C1991 H2005 0.958 . S
C1991 H2006 0.961 . S
C1991 H2007 0.960 . S
H1992 C1976 0.931 . S
H1993 C1981 0.929 . S
H1994 C1982 0.960 . S
H1995 C1982 0.962 . S
H1996 C1982 0.960 . S
H1997 C1983 0.961 . S
H1998 C1983 0.961 . S
H1999 C1983 0.961 . S
H2000 C1984 0.931 . S
H2001 C1989 0.930 . S
H2002 C1990 0.956 . S
H2003 C1990 0.961 . S
H2004 C1990 0.961 . S
H2005 C1991 0.958 . S
H2006 C1991 0.961 . S
H2007 C1991 0.960 . S
C2008 C2009 1.391 . S
C2008 C2010 1.394 . S
C2008 H2024 0.931 . S
C2009 C2008 1.391 . S
C2009 C2013 1.376 . S
C2010 C2008 1.394 . S
C2010 C2011 1.369 . S
C2010 C2014 1.531 . S
C2011 C2010 1.369 . S
C2011 C2012 1.410 . S
C2011 C2019 1.503 . S
C2012 C2011 1.410 . S
C2012 C2013 1.392 . S
C2012 C2015 1.511 . S
C2013 C2009 1.376 . S
C2013 C2012 1.392 . S
C2013 H2025 0.929 . S
C2014 C2010 1.531 . S
C2014 H2026 0.960 . S
C2014 H2027 0.962 . S
C2014 H2028 0.960 . S
C2015 C2012 1.511 . S
C2015 H2029 0.961 . S
C2015 H2030 0.961 . S
C2015 H2031 0.961 . S
C2016 C2017 1.370 . S
C2016 C2018 1.363 . S
C2016 H2032 0.931 . S
C2017 C2016 1.370 . S
C2017 C2021 1.408 . S
C2018 C2016 1.363 . S
C2018 C2019 1.370 . S
C2018 C2022 1.524 . S
C2019 C2011 1.503 . S
C2019 C2018 1.370 . S
C2019 C2020 1.403 . S
C2020 C2019 1.403 . S
C2020 C2021 1.404 . S
C2020 C2023 1.539 . S
C2021 C2017 1.408 . S
C2021 C2020 1.404 . S
C2021 H2033 0.930 . S
C2022 C2018 1.524 . S
C2022 H2034 0.956 . S
C2022 H2035 0.961 . S
C2022 H2036 0.961 . S
C2023 C2020 1.539 . S
C2023 H2037 0.958 . S
C2023 H2038 0.961 . S
C2023 H2039 0.960 . S
H2024 C2008 0.931 . S
H2025 C2013 0.929 . S
H2026 C2014 0.960 . S
H2027 C2014 0.962 . S
H2028 C2014 0.960 . S
H2029 C2015 0.961 . S
H2030 C2015 0.961 . S
H2031 C2015 0.961 . S
H2032 C2016 0.931 . S
H2033 C2021 0.930 . S
H2034 C2022 0.956 . S
H2035 C2022 0.961 . S
H2036 C2022 0.961 . S
H2037 C2023 0.958 . S
H2038 C2023 0.961 . S
H2039 C2023 0.960 . S
C2040 C2041 1.391 . S
C2040 C2042 1.394 . S
C2040 H2056 0.931 . S
C2041 C2040 1.391 . S
C2041 C2045 1.376 . S
C2042 C2040 1.394 . S
C2042 C2043 1.369 . S
C2042 C2046 1.531 . S
C2043 C2042 1.369 . S
C2043 C2044 1.410 . S
C2043 C2051 1.503 1_455 S
C2044 C2043 1.410 . S
C2044 C2045 1.392 . S
C2044 C2047 1.511 . S
C2045 C2041 1.376 . S
C2045 C2044 1.392 . S
C2045 H2057 0.929 . S
C2046 C2042 1.531 . S
C2046 H2058 0.960 1_455 S
C2046 H2059 0.962 . S
C2046 H2060 0.960 . S
C2047 C2044 1.511 . S
C2047 H2061 0.961 . S
C2047 H2062 0.961 . S
C2047 H2063 0.961 . S
C2048 C2049 1.370 . S
C2048 C2050 1.363 . S
C2048 H2064 0.931 . S
C2049 C2048 1.370 . S
C2049 C2053 1.408 . S
C2050 C2048 1.363 . S
C2050 C2051 1.370 . S
C2050 C2054 1.524 . S
C2051 C2043 1.503 1_655 S
C2051 C2050 1.370 . S
C2051 C2052 1.403 . S
C2052 C2051 1.403 . S
C2052 C2053 1.404 . S
C2052 C2055 1.539 . S
C2053 C2049 1.408 . S
C2053 C2052 1.404 . S
C2053 H2065 0.930 . S
C2054 C2050 1.524 . S
C2054 H2066 0.956 1_655 S
C2054 H2067 0.961 1_655 S
C2054 H2068 0.961 . S
C2055 C2052 1.539 . S
C2055 H2069 0.958 . S
C2055 H2070 0.961 . S
C2055 H2071 0.960 . S
H2056 C2040 0.931 . S
H2057 C2045 0.929 . S
H2058 C2046 0.960 1_655 S
H2059 C2046 0.962 . S
H2060 C2046 0.960 . S
H2061 C2047 0.961 . S
H2062 C2047 0.961 . S
H2063 C2047 0.961 . S
H2064 C2048 0.931 . S
H2065 C2053 0.930 . S
H2066 C2054 0.956 1_455 S
H2067 C2054 0.961 1_455 S
H2068 C2054 0.961 . S
H2069 C2055 0.958 . S
H2070 C2055 0.961 . S
H2071 C2055 0.960 . S
C2072 C2073 1.391 . S
C2072 C2074 1.394 . S
C2072 H2088 0.931 . S
C2073 C2072 1.391 . S
C2073 C2077 1.376 . S
C2074 C2072 1.394 . S
C2074 C2075 1.369 . S
C2074 C2078 1.531 . S
C2075 C2074 1.369 . S
C2075 C2076 1.410 . S
C2075 C2083 1.503 . S
C2076 C2075 1.410 . S
C2076 C2077 1.392 . S
C2076 C2079 1.511 . S
C2077 C2073 1.376 . S
C2077 C2076 1.392 . S
C2077 H2089 0.929 . S
C2078 C2074 1.531 . S
C2078 H2090 0.960 . S
C2078 H2091 0.962 . S
C2078 H2092 0.960 . S
C2079 C2076 1.511 . S
C2079 H2093 0.961 . S
C2079 H2094 0.961 . S
C2079 H2095 0.961 . S
C2080 C2081 1.370 . S
C2080 C2082 1.363 . S
C2080 H2096 0.931 . S
C2081 C2080 1.370 . S
C2081 C2085 1.408 . S
C2082 C2080 1.363 . S
C2082 C2083 1.370 . S
C2082 C2086 1.524 . S
C2083 C2075 1.503 . S
C2083 C2082 1.370 . S
C2083 C2084 1.403 . S
C2084 C2083 1.403 . S
C2084 C2085 1.404 . S
C2084 C2087 1.539 . S
C2085 C2081 1.408 . S
C2085 C2084 1.404 . S
C2085 H2097 0.930 . S
C2086 C2082 1.524 . S
C2086 H2098 0.956 . S
C2086 H2099 0.961 . S
C2086 H2100 0.961 . S
C2087 C2084 1.539 . S
C2087 H2101 0.958 . S
C2087 H2102 0.961 . S
C2087 H2103 0.960 . S
H2088 C2072 0.931 . S
H2089 C2077 0.929 . S
H2090 C2078 0.960 . S
H2091 C2078 0.962 . S
H2092 C2078 0.960 . S
H2093 C2079 0.961 . S
H2094 C2079 0.961 . S
H2095 C2079 0.961 . S
H2096 C2080 0.931 . S
H2097 C2085 0.930 . S
H2098 C2086 0.956 . S
H2099 C2086 0.961 . S
H2100 C2086 0.961 . S
H2101 C2087 0.958 . S
H2102 C2087 0.961 . S
H2103 C2087 0.960 . S
C2104 C2105 1.391 . S
C2104 C2106 1.394 . S
C2104 H2120 0.931 . S
C2105 C2104 1.391 . S
C2105 C2109 1.376 . S
C2106 C2104 1.394 . S
C2106 C2107 1.369 . S
C2106 C2110 1.531 . S
C2107 C2106 1.369 . S
C2107 C2108 1.410 . S
C2107 C2115 1.503 1_545 S
C2108 C2107 1.410 . S
C2108 C2109 1.392 . S
C2108 C2111 1.511 . S
C2109 C2105 1.376 . S
C2109 C2108 1.392 . S
C2109 H2121 0.929 . S
C2110 C2106 1.531 . S
C2110 H2122 0.960 1_545 S
C2110 H2123 0.962 . S
C2110 H2124 0.960 . S
C2111 C2108 1.511 . S
C2111 H2125 0.961 . S
C2111 H2126 1.038 . S
C2111 H2127 0.961 . S
C2112 C2113 1.370 . S
C2112 C2114 1.363 . S
C2112 H2128 0.931 . S
C2113 C2112 1.370 . S
C2113 C2117 1.408 . S
C2114 C2112 1.363 . S
C2114 C2115 1.370 . S
C2114 C2118 1.524 . S
C2115 C2107 1.503 1_565 S
C2115 C2114 1.370 . S
C2115 C2116 1.403 . S
C2116 C2115 1.403 . S
C2116 C2117 1.404 . S
C2116 C2119 1.539 . S
C2117 C2113 1.408 . S
C2117 C2116 1.404 . S
C2117 H2129 0.930 . S
C2118 C2114 1.524 . S
C2118 H2130 0.956 1_565 S
C2118 H2131 0.961 1_565 S
C2118 H2132 0.961 . S
C2119 C2116 1.539 . S
C2119 H2133 0.958 . S
C2119 H2134 0.961 . S
C2119 H2135 0.960 . S
H2120 C2104 0.931 . S
H2121 C2109 0.929 . S
H2122 C2110 0.960 1_565 S
H2123 C2110 0.962 . S
H2124 C2110 0.960 . S
H2125 C2111 0.961 . S
H2126 C2111 1.038 . S
H2127 C2111 0.961 . S
H2128 C2112 0.931 . S
H2129 C2117 0.930 . S
H2130 C2118 0.956 1_545 S
H2131 C2118 0.961 1_545 S
H2132 C2118 0.961 . S
H2133 C2119 0.958 . S
H2134 C2119 0.961 . S
H2135 C2119 0.960 . S
C2136 C2137 1.391 . S
C2136 C2138 1.394 . S
C2136 H2152 0.931 . S
C2137 C2136 1.391 . S
C2137 C2141 1.376 . S
C2138 C2136 1.394 . S
C2138 C2139 1.369 . S
C2138 C2142 1.531 . S
C2139 C2138 1.369 . S
C2139 C2140 1.410 . S
C2139 C2147 1.503 1_545 S
C2140 C2139 1.410 . S
C2140 C2141 1.392 . S
C2140 C2143 1.511 . S
C2141 C2137 1.376 . S
C2141 C2140 1.392 . S
C2141 H2153 0.929 . S
C2142 C2138 1.531 . S
C2142 H2154 0.960 1_545 S
C2142 H2155 0.962 . S
C2142 H2156 0.960 . S
C2143 C2140 1.511 . S
C2143 H2157 0.961 . S
C2143 H2158 0.961 . S
C2143 H2159 0.961 . S
C2144 C2145 1.370 . S
C2144 C2146 1.363 . S
C2144 H2160 0.931 . S
C2145 C2144 1.370 . S
C2145 C2149 1.408 . S
C2146 C2144 1.363 . S
C2146 C2147 1.370 . S
C2146 C2150 1.524 . S
C2147 C2139 1.503 1_565 S
C2147 C2146 1.370 . S
C2147 C2148 1.403 . S
C2148 C2147 1.403 . S
C2148 C2149 1.404 . S
C2148 C2151 1.539 . S
C2149 C2145 1.408 . S
C2149 C2148 1.404 . S
C2149 H2161 0.930 . S
C2150 C2146 1.524 . S
C2150 H2162 0.956 1_565 S
C2150 H2163 0.961 1_565 S
C2150 H2164 0.961 . S
C2151 C2148 1.539 . S
C2151 H2165 0.958 . S
C2151 H2166 0.961 . S
C2151 H2167 0.960 . S
H2152 C2136 0.931 . S
H2153 C2141 0.929 . S
H2154 C2142 0.960 1_565 S
H2155 C2142 0.962 . S
H2156 C2142 0.960 . S
H2157 C2143 0.961 . S
H2158 C2143 0.961 . S
H2159 C2143 0.961 . S
H2160 C2144 0.931 . S
H2161 C2149 0.930 . S
H2162 C2150 0.956 1_545 S
H2163 C2150 0.961 1_545 S
H2164 C2150 0.961 . S
H2165 C2151 0.958 . S
H2166 C2151 0.961 . S
H2167 C2151 0.960 . S
C2168 C2169 1.391 . S
C2168 C2170 1.394 . S
C2168 H2184 0.931 . S
C2169 C2168 1.391 . S
C2169 C2173 1.376 . S
C2170 C2168 1.394 . S
C2170 C2171 1.369 . S
C2170 C2174 1.531 . S
C2171 C2170 1.369 . S
C2171 C2172 1.410 . S
C2171 C2179 1.503 1_655 S
C2172 C2171 1.410 . S
C2172 C2173 1.392 . S
C2172 C2175 1.511 . S
C2173 C2169 1.376 . S
C2173 C2172 1.392 . S
C2173 H2185 0.929 . S
C2174 C2170 1.531 . S
C2174 H2186 0.960 1_655 S
C2174 H2187 0.962 . S
C2174 H2188 0.960 . S
C2175 C2172 1.511 . S
C2175 H2189 0.961 . S
C2175 H2190 1.009 . S
C2175 H2191 0.961 . S
C2176 C2177 1.370 . S
C2176 C2178 1.363 . S
C2176 H2192 0.931 . S
C2177 C2176 1.370 . S
C2177 C2181 1.408 . S
C2178 C2176 1.363 . S
C2178 C2179 1.370 . S
C2178 C2182 1.524 . S
C2179 C2171 1.503 1_455 S
C2179 C2178 1.370 . S
C2179 C2180 1.403 . S
C2180 C2179 1.403 . S
C2180 C2181 1.404 . S
C2180 C2183 1.539 . S
C2181 C2177 1.408 . S
C2181 C2180 1.404 . S
C2181 H2193 0.930 . S
C2182 C2178 1.524 . S
C2182 H2194 0.956 1_455 S
C2182 H2195 0.961 1_455 S
C2182 H2196 0.961 . S
C2183 C2180 1.539 . S
C2183 H2197 0.958 . S
C2183 H2198 0.961 . S
C2183 H2199 0.960 . S
H2184 C2168 0.931 . S
H2185 C2173 0.929 . S
H2186 C2174 0.960 1_455 S
H2187 C2174 0.962 . S
H2188 C2174 0.960 . S
H2189 C2175 0.961 . S
H2190 C2175 1.009 . S
H2191 C2175 0.961 . S
H2192 C2176 0.931 . S
H2193 C2181 0.930 . S
H2194 C2182 0.956 1_655 S
H2195 C2182 0.961 1_655 S
H2196 C2182 0.961 . S
H2197 C2183 0.958 . S
H2198 C2183 0.961 . S
H2199 C2183 0.960 . S
C2200 C2201 1.391 . S
C2200 C2202 1.394 . S
C2200 H2216 0.931 . S
C2201 C2200 1.391 . S
C2201 C2205 1.376 . S
C2202 C2200 1.394 . S
C2202 C2203 1.369 . S
C2202 C2206 1.531 . S
C2203 C2202 1.369 . S
C2203 C2204 1.410 . S
C2203 C2211 1.503 . S
C2204 C2203 1.410 . S
C2204 C2205 1.392 . S
C2204 C2207 1.511 . S
C2205 C2201 1.376 . S
C2205 C2204 1.392 . S
C2205 H2217 0.929 . S
C2206 C2202 1.531 . S
C2206 H2218 0.960 . S
C2206 H2219 0.962 . S
C2206 H2220 0.960 . S
C2207 C2204 1.511 . S
C2207 H2221 0.961 . S
C2207 H2222 0.961 . S
C2207 H2223 0.961 . S
C2208 C2209 1.370 . S
C2208 C2210 1.363 . S
C2208 H2224 0.931 . S
C2209 C2208 1.370 . S
C2209 C2213 1.408 . S
C2210 C2208 1.363 . S
C2210 C2211 1.370 . S
C2210 C2214 1.524 . S
C2211 C2203 1.503 . S
C2211 C2210 1.370 . S
C2211 C2212 1.403 . S
C2212 C2211 1.403 . S
C2212 C2213 1.404 . S
C2212 C2215 1.539 . S
C2213 C2209 1.408 . S
C2213 C2212 1.404 . S
C2213 H2225 0.930 . S
C2214 C2210 1.524 . S
C2214 H2226 0.956 . S
C2214 H2227 0.961 . S
C2214 H2228 0.961 . S
C2215 C2212 1.539 . S
C2215 H2229 0.958 . S
C2215 H2230 0.961 . S
C2215 H2231 0.960 . S
H2216 C2200 0.931 . S
H2217 C2205 0.929 . S
H2218 C2206 0.960 . S
H2219 C2206 0.962 . S
H2220 C2206 0.960 . S
H2221 C2207 0.961 . S
H2222 C2207 0.961 . S
H2223 C2207 0.961 . S
H2224 C2208 0.931 . S
H2225 C2213 0.930 . S
H2226 C2214 0.956 . S
H2227 C2214 0.961 . S
H2228 C2214 0.961 . S
H2229 C2215 0.958 . S
H2230 C2215 0.961 . S
H2231 C2215 0.960 . S
C2232 C2233 1.391 . S
C2232 C2234 1.394 . S
C2232 H2248 0.931 . S
C2233 C2232 1.391 . S
C2233 C2237 1.376 . S
C2234 C2232 1.394 . S
C2234 C2235 1.369 . S
C2234 C2238 1.531 . S
C2235 C2234 1.369 . S
C2235 C2236 1.410 . S
C2235 C2243 1.503 . S
C2236 C2235 1.410 . S
C2236 C2237 1.392 . S
C2236 C2239 1.511 . S
C2237 C2233 1.376 . S
C2237 C2236 1.392 . S
C2237 H2249 0.929 . S
C2238 C2234 1.531 . S
C2238 H2250 0.960 . S
C2238 H2251 0.962 . S
C2238 H2252 0.960 . S
C2239 C2236 1.511 . S
C2239 H2253 0.961 . S
C2239 H2254 0.961 . S
C2239 H2255 0.961 . S
C2240 C2241 1.370 . S
C2240 C2242 1.363 . S
C2240 H2256 0.931 . S
C2241 C2240 1.370 . S
C2241 C2245 1.408 . S
C2242 C2240 1.363 . S
C2242 C2243 1.370 . S
C2242 C2246 1.524 . S
C2243 C2235 1.503 . S
C2243 C2242 1.370 . S
C2243 C2244 1.403 . S
C2244 C2243 1.403 . S
C2244 C2245 1.404 . S
C2244 C2247 1.539 . S
C2245 C2241 1.408 . S
C2245 C2244 1.404 . S
C2245 H2257 0.930 . S
C2246 C2242 1.524 . S
C2246 H2258 0.956 . S
C2246 H2259 0.961 . S
C2246 H2260 0.961 . S
C2247 C2244 1.539 . S
C2247 H2261 0.958 . S
C2247 H2262 0.961 . S
C2247 H2263 0.960 . S
H2248 C2232 0.931 . S
H2249 C2237 0.929 . S
H2250 C2238 0.960 . S
H2251 C2238 0.962 . S
H2252 C2238 0.960 . S
H2253 C2239 0.961 . S
H2254 C2239 0.961 . S
H2255 C2239 0.961 . S
H2256 C2240 0.931 . S
H2257 C2245 0.930 . S
H2258 C2246 0.956 . S
H2259 C2246 0.961 . S
H2260 C2246 0.961 . S
H2261 C2247 0.958 . S
H2262 C2247 0.961 . S
H2263 C2247 0.960 . S
C2264 C2265 1.391 . S
C2264 C2266 1.394 . S
C2264 H2280 0.931 . S
C2265 C2264 1.391 . S
C2265 C2269 1.376 . S
C2266 C2264 1.394 . S
C2266 C2267 1.369 . S
C2266 C2270 1.531 . S
C2267 C2266 1.369 . S
C2267 C2268 1.410 . S
C2267 C2275 1.503 . S
C2268 C2267 1.410 . S
C2268 C2269 1.392 . S
C2268 C2271 1.511 . S
C2269 C2265 1.376 . S
C2269 C2268 1.392 . S
C2269 H2281 0.929 . S
C2270 C2266 1.531 . S
C2270 H2282 0.960 . S
C2270 H2283 0.962 . S
C2270 H2284 0.960 . S
C2271 C2268 1.511 . S
C2271 H2285 0.961 . S
C2271 H2286 0.961 . S
C2271 H2287 0.961 . S
C2272 C2273 1.370 . S
C2272 C2274 1.363 . S
C2272 H2288 0.931 . S
C2273 C2272 1.370 . S
C2273 C2277 1.408 . S
C2274 C2272 1.363 . S
C2274 C2275 1.370 . S
C2274 C2278 1.524 . S
C2275 C2267 1.503 . S
C2275 C2274 1.370 . S
C2275 C2276 1.403 . S
C2276 C2275 1.403 . S
C2276 C2277 1.404 . S
C2276 C2279 1.539 . S
C2277 C2273 1.408 . S
C2277 C2276 1.404 . S
C2277 H2289 0.930 . S
C2278 C2274 1.524 . S
C2278 H2290 0.956 . S
C2278 H2291 0.961 . S
C2278 H2292 0.961 . S
C2279 C2276 1.539 . S
C2279 H2293 0.958 . S
C2279 H2294 0.961 . S
C2279 H2295 0.960 . S
H2280 C2264 0.931 . S
H2281 C2269 0.929 . S
H2282 C2270 0.960 . S
H2283 C2270 0.962 . S
H2284 C2270 0.960 . S
H2285 C2271 0.961 . S
H2286 C2271 0.961 . S
H2287 C2271 0.961 . S
H2288 C2272 0.931 . S
H2289 C2277 0.930 . S
H2290 C2278 0.956 . S
H2291 C2278 0.961 . S
H2292 C2278 0.961 . S
H2293 C2279 0.958 . S
H2294 C2279 0.961 . S
H2295 C2279 0.960 . S
C2296 C2297 1.391 . S
C2296 C2298 1.394 . S
C2296 H2312 0.931 . S
C2297 C2296 1.391 . S
C2297 C2301 1.376 . S
C2298 C2296 1.394 . S
C2298 C2299 1.369 . S
C2298 C2302 1.531 . S
C2299 C2298 1.369 . S
C2299 C2300 1.410 . S
C2299 C2307 1.503 . S
C2300 C2299 1.410 . S
C2300 C2301 1.392 . S
C2300 C2303 1.511 . S
C2301 C2297 1.376 . S
C2301 C2300 1.392 . S
C2301 H2313 0.929 . S
C2302 C2298 1.531 . S
C2302 H2314 0.960 . S
C2302 H2315 0.962 . S
C2302 H2316 0.960 . S
C2303 C2300 1.511 . S
C2303 H2317 0.961 . S
C2303 H2318 0.961 . S
C2303 H2319 0.961 . S
C2304 C2305 1.370 . S
C2304 C2306 1.363 . S
C2304 H2320 0.931 . S
C2305 C2304 1.370 . S
C2305 C2309 1.408 . S
C2306 C2304 1.363 . S
C2306 C2307 1.370 . S
C2306 C2310 1.524 . S
C2307 C2299 1.503 . S
C2307 C2306 1.370 . S
C2307 C2308 1.403 . S
C2308 C2307 1.403 . S
C2308 C2309 1.404 . S
C2308 C2311 1.539 . S
C2309 C2305 1.408 . S
C2309 C2308 1.404 . S
C2309 H2321 0.930 . S
C2310 C2306 1.524 . S
C2310 H2322 0.956 . S
C2310 H2323 0.961 . S
C2310 H2324 0.961 . S
C2311 C2308 1.539 . S
C2311 H2325 0.958 . S
C2311 H2326 0.961 . S
C2311 H2327 0.960 . S
H2312 C2296 0.931 . S
H2313 C2301 0.929 . S
H2314 C2302 0.960 . S
H2315 C2302 0.962 . S
H2316 C2302 0.960 . S
H2317 C2303 0.961 . S
H2318 C2303 0.961 . S
H2319 C2303 0.961 . S
H2320 C2304 0.931 . S
H2321 C2309 0.930 . S
H2322 C2310 0.956 . S
H2323 C2310 0.961 . S
H2324 C2310 0.961 . S
H2325 C2311 0.958 . S
H2326 C2311 0.961 . S
H2327 C2311 0.960 . S
C2328 C2329 1.391 . S
C2328 C2330 1.394 . S
C2328 H2344 0.931 . S
C2329 C2328 1.391 . S
C2329 C2333 1.376 . S
C2330 C2328 1.394 . S
C2330 C2331 1.369 . S
C2330 C2334 1.531 . S
C2331 C2330 1.369 . S
C2331 C2332 1.410 . S
C2331 C2339 1.503 . S
C2332 C2331 1.410 . S
C2332 C2333 1.392 . S
C2332 C2335 1.511 . S
C2333 C2329 1.376 . S
C2333 C2332 1.392 . S
C2333 H2345 0.929 . S
C2334 C2330 1.531 . S
C2334 H2346 0.960 . S
C2334 H2347 0.962 . S
C2334 H2348 0.960 . S
C2335 C2332 1.511 . S
C2335 H2349 0.961 . S
C2335 H2350 0.961 . S
C2335 H2351 0.961 . S
C2336 C2337 1.370 . S
C2336 C2338 1.363 . S
C2336 H2352 0.931 . S
C2337 C2336 1.370 . S
C2337 C2341 1.408 . S
C2338 C2336 1.363 . S
C2338 C2339 1.370 . S
C2338 C2342 1.524 . S
C2339 C2331 1.503 . S
C2339 C2338 1.370 . S
C2339 C2340 1.403 . S
C2340 C2339 1.403 . S
C2340 C2341 1.404 . S
C2340 C2343 1.539 . S
C2341 C2337 1.408 . S
C2341 C2340 1.404 . S
C2341 H2353 0.930 . S
C2342 C2338 1.524 . S
C2342 H2354 0.956 . S
C2342 H2355 0.961 . S
C2342 H2356 0.961 . S
C2343 C2340 1.539 . S
C2343 H2357 0.958 . S
C2343 H2358 0.961 . S
C2343 H2359 0.960 . S
H2344 C2328 0.931 . S
H2345 C2333 0.929 . S
H2346 C2334 0.960 . S
H2347 C2334 0.962 . S
H2348 C2334 0.960 . S
H2349 C2335 0.961 . S
H2350 C2335 0.961 . S
H2351 C2335 0.961 . S
H2352 C2336 0.931 . S
H2353 C2341 0.930 . S
H2354 C2342 0.956 . S
H2355 C2342 0.961 . S
H2356 C2342 0.961 . S
H2357 C2343 0.958 . S
H2358 C2343 0.961 . S
H2359 C2343 0.960 . S
C2360 C2361 1.391 . S
C2360 C2362 1.394 . S
C2360 H2376 0.931 . S
C2361 C2360 1.391 . S
C2361 C2365 1.376 . S
C2362 C2360 1.394 . S
C2362 C2363 1.369 . S
C2362 C2366 1.531 . S
C2363 C2362 1.369 . S
C2363 C2364 1.410 . S
C2363 C2371 1.503 . S
C2364 C2363 1.410 . S
C2364 C2365 1.392 . S
C2364 C2367 1.511 . S
C2365 C2361 1.376 . S
C2365 C2364 1.392 . S
C2365 H2377 0.929 . S
C2366 C2362 1.531 . S
C2366 H2378 0.960 . S
C2366 H2379 0.962 . S
C2366 H2380 0.960 . S
C2367 C2364 1.511 . S
C2367 H2381 0.961 . S
C2367 H2382 0.961 . S
C2367 H2383 0.961 . S
C2368 C2369 1.370 . S
C2368 C2370 1.363 . S
C2368 H2384 0.931 . S
C2369 C2368 1.370 . S
C2369 C2373 1.408 . S
C2370 C2368 1.363 . S
C2370 C2371 1.370 . S
C2370 C2374 1.524 . S
C2371 C2363 1.503 . S
C2371 C2370 1.370 . S
C2371 C2372 1.403 . S
C2372 C2371 1.403 . S
C2372 C2373 1.404 . S
C2372 C2375 1.539 . S
C2373 C2369 1.408 . S
C2373 C2372 1.404 . S
C2373 H2385 0.930 . S
C2374 C2370 1.524 . S
C2374 H2386 0.956 . S
C2374 H2387 0.961 . S
C2374 H2388 0.961 . S
C2375 C2372 1.539 . S
C2375 H2389 0.958 . S
C2375 H2390 0.961 . S
C2375 H2391 0.960 . S
H2376 C2360 0.931 . S
H2377 C2365 0.929 . S
H2378 C2366 0.960 . S
H2379 C2366 0.962 . S
H2380 C2366 0.960 . S
H2381 C2367 0.961 . S
H2382 C2367 0.961 . S
H2383 C2367 0.961 . S
H2384 C2368 0.931 . S
H2385 C2373 0.930 . S
H2386 C2374 0.956 . S
H2387 C2374 0.961 . S
H2388 C2374 0.961 . S
H2389 C2375 0.958 . S
H2390 C2375 0.961 . S
H2391 C2375 0.960 . S
C2392 C2393 1.391 . S
C2392 C2394 1.394 . S
C2392 H2408 0.931 . S
C2393 C2392 1.391 . S
C2393 C2397 1.376 . S
C2394 C2392 1.394 . S
C2394 C2395 1.369 . S
C2394 C2398 1.531 . S
C2395 C2394 1.369 . S
C2395 C2396 1.410 . S
C2395 C2403 1.503 . S
C2396 C2395 1.410 . S
C2396 C2397 1.392 . S
C2396 C2399 1.511 . S
C2397 C2393 1.376 . S
C2397 C2396 1.392 . S
C2397 H2409 0.929 . S
C2398 C2394 1.531 . S
C2398 H2410 0.960 . S
C2398 H2411 0.962 . S
C2398 H2412 0.960 . S
C2399 C2396 1.511 . S
C2399 H2413 0.961 . S
C2399 H2414 0.961 . S
C2399 H2415 0.961 . S
C2400 C2401 1.370 . S
C2400 C2402 1.363 . S
C2400 H2416 0.931 . S
C2401 C2400 1.370 . S
C2401 C2405 1.408 . S
C2402 C2400 1.363 . S
C2402 C2403 1.370 . S
C2402 C2406 1.524 . S
C2403 C2395 1.503 . S
C2403 C2402 1.370 . S
C2403 C2404 1.403 . S
C2404 C2403 1.403 . S
C2404 C2405 1.404 . S
C2404 C2407 1.539 . S
C2405 C2401 1.408 . S
C2405 C2404 1.404 . S
C2405 H2417 0.930 . S
C2406 C2402 1.524 . S
C2406 H2418 0.956 . S
C2406 H2419 0.961 . S
C2406 H2420 0.961 . S
C2407 C2404 1.539 . S
C2407 H2421 0.958 . S
C2407 H2422 0.961 . S
C2407 H2423 0.960 . S
H2408 C2392 0.931 . S
H2409 C2397 0.929 . S
H2410 C2398 0.960 . S
H2411 C2398 0.962 . S
H2412 C2398 0.960 . S
H2413 C2399 0.961 . S
H2414 C2399 0.961 . S
H2415 C2399 0.961 . S
H2416 C2400 0.931 . S
H2417 C2405 0.930 . S
H2418 C2406 0.956 . S
H2419 C2406 0.961 . S
H2420 C2406 0.961 . S
H2421 C2407 0.958 . S
H2422 C2407 0.961 . S
H2423 C2407 0.960 . S
C2424 C2425 1.391 . S
C2424 C2426 1.394 . S
C2424 H2440 0.931 . S
C2425 C2424 1.391 . S
C2425 C2429 1.376 . S
C2426 C2424 1.394 . S
C2426 C2427 1.369 . S
C2426 C2430 1.531 . S
C2427 C2426 1.369 . S
C2427 C2428 1.410 . S
C2427 C2435 1.503 . S
C2428 C2427 1.410 . S
C2428 C2429 1.392 . S
C2428 C2431 1.511 . S
C2429 C2425 1.376 . S
C2429 C2428 1.392 . S
C2429 H2441 0.929 . S
C2430 C2426 1.531 . S
C2430 H2442 0.960 . S
C2430 H2443 0.962 . S
C2430 H2444 0.960 . S
C2431 C2428 1.511 . S
C2431 H2445 0.961 . S
C2431 H2446 0.961 . S
C2431 H2447 0.961 . S
C2432 C2433 1.370 . S
C2432 C2434 1.363 . S
C2432 H2448 0.931 . S
C2433 C2432 1.370 . S
C2433 C2437 1.408 . S
C2434 C2432 1.363 . S
C2434 C2435 1.370 . S
C2434 C2438 1.524 . S
C2435 C2427 1.503 . S
C2435 C2434 1.370 . S
C2435 C2436 1.403 . S
C2436 C2435 1.403 . S
C2436 C2437 1.404 . S
C2436 C2439 1.539 . S
C2437 C2433 1.408 . S
C2437 C2436 1.404 . S
C2437 H2449 0.930 . S
C2438 C2434 1.524 . S
C2438 H2450 0.956 . S
C2438 H2451 0.961 . S
C2438 H2452 0.961 . S
C2439 C2436 1.539 . S
C2439 H2453 0.958 . S
C2439 H2454 0.961 . S
C2439 H2455 0.960 . S
H2440 C2424 0.931 . S
H2441 C2429 0.929 . S
H2442 C2430 0.960 . S
H2443 C2430 0.962 . S
H2444 C2430 0.960 . S
H2445 C2431 0.961 . S
H2446 C2431 0.961 . S
H2447 C2431 0.961 . S
H2448 C2432 0.931 . S
H2449 C2437 0.930 . S
H2450 C2438 0.956 . S
H2451 C2438 0.961 . S
H2452 C2438 0.961 . S
H2453 C2439 0.958 . S
H2454 C2439 0.961 . S
H2455 C2439 0.960 . S
C2456 C2457 1.391 . S
C2456 C2458 1.394 . S
C2456 H2472 0.931 . S
C2457 C2456 1.391 . S
C2457 C2461 1.376 . S
C2458 C2456 1.394 . S
C2458 C2459 1.369 . S
C2458 C2462 1.531 . S
C2459 C2458 1.369 . S
C2459 C2460 1.410 . S
C2459 C2467 1.503 . S
C2460 C2459 1.410 . S
C2460 C2461 1.392 . S
C2460 C2463 1.511 . S
C2461 C2457 1.376 . S
C2461 C2460 1.392 . S
C2461 H2473 0.929 . S
C2462 C2458 1.531 . S
C2462 H2474 0.960 . S
C2462 H2475 0.962 . S
C2462 H2476 0.960 . S
C2463 C2460 1.511 . S
C2463 H2477 0.961 . S
C2463 H2478 0.961 . S
C2463 H2479 0.961 . S
C2464 C2465 1.370 . S
C2464 C2466 1.363 . S
C2464 H2480 0.931 . S
C2465 C2464 1.370 . S
C2465 C2469 1.408 . S
C2466 C2464 1.363 . S
C2466 C2467 1.370 . S
C2466 C2470 1.524 . S
C2467 C2459 1.503 . S
C2467 C2466 1.370 . S
C2467 C2468 1.403 . S
C2468 C2467 1.403 . S
C2468 C2469 1.404 . S
C2468 C2471 1.539 . S
C2469 C2465 1.408 . S
C2469 C2468 1.404 . S
C2469 H2481 0.930 . S
C2470 C2466 1.524 . S
C2470 H2482 0.956 . S
C2470 H2483 0.961 . S
C2470 H2484 0.961 . S
C2471 C2468 1.539 . S
C2471 H2485 0.958 . S
C2471 H2486 0.961 . S
C2471 H2487 0.960 . S
H2472 C2456 0.931 . S
H2473 C2461 0.929 . S
H2474 C2462 0.960 . S
H2475 C2462 0.962 . S
H2476 C2462 0.960 . S
H2477 C2463 0.961 . S
H2478 C2463 0.961 . S
H2479 C2463 0.961 . S
H2480 C2464 0.931 . S
H2481 C2469 0.930 . S
H2482 C2470 0.956 . S
H2483 C2470 0.961 . S
H2484 C2470 0.961 . S
H2485 C2471 0.958 . S
H2486 C2471 0.961 . S
H2487 C2471 0.960 . S
C2488 C2489 1.391 . S
C2488 C2490 1.394 . S
C2488 H2504 0.931 . S
C2489 C2488 1.391 . S
C2489 C2493 1.376 . S
C2490 C2488 1.394 . S
C2490 C2491 1.369 . S
C2490 C2494 1.531 . S
C2491 C2490 1.369 . S
C2491 C2492 1.410 . S
C2491 C2499 1.503 . S
C2492 C2491 1.410 . S
C2492 C2493 1.392 . S
C2492 C2495 1.511 . S
C2493 C2489 1.376 . S
C2493 C2492 1.392 . S
C2493 H2505 0.929 . S
C2494 C2490 1.531 . S
C2494 H2506 0.960 . S
C2494 H2507 0.962 . S
C2494 H2508 0.960 . S
C2495 C2492 1.511 . S
C2495 H2509 0.961 . S
C2495 H2510 0.961 . S
C2495 H2511 0.961 . S
C2496 C2497 1.370 . S
C2496 C2498 1.363 . S
C2496 H2512 0.931 . S
C2497 C2496 1.370 . S
C2497 C2501 1.408 . S
C2498 C2496 1.363 . S
C2498 C2499 1.370 . S
C2498 C2502 1.524 . S
C2499 C2491 1.503 . S
C2499 C2498 1.370 . S
C2499 C2500 1.403 . S
C2500 C2499 1.403 . S
C2500 C2501 1.404 . S
C2500 C2503 1.539 . S
C2501 C2497 1.408 . S
C2501 C2500 1.404 . S
C2501 H2513 0.930 . S
C2502 C2498 1.524 . S
C2502 H2514 0.956 . S
C2502 H2515 0.961 . S
C2502 H2516 0.961 . S
C2503 C2500 1.539 . S
C2503 H2517 0.958 . S
C2503 H2518 0.961 . S
C2503 H2519 0.960 . S
H2504 C2488 0.931 . S
H2505 C2493 0.929 . S
H2506 C2494 0.960 . S
H2507 C2494 0.962 . S
H2508 C2494 0.960 . S
H2509 C2495 0.961 . S
H2510 C2495 0.961 . S
H2511 C2495 0.961 . S
H2512 C2496 0.931 . S
H2513 C2501 0.930 . S
H2514 C2502 0.956 . S
H2515 C2502 0.961 . S
H2516 C2502 0.961 . S
H2517 C2503 0.958 . S
H2518 C2503 0.961 . S
H2519 C2503 0.960 . S
C2520 C2521 1.391 . S
C2520 C2522 1.394 . S
C2520 H2536 0.931 . S
C2521 C2520 1.391 . S
C2521 C2525 1.376 . S
C2522 C2520 1.394 . S
C2522 C2523 1.369 . S
C2522 C2526 1.531 1_554 S
C2523 C2522 1.369 . S
C2523 C2524 1.410 . S
C2523 C2531 1.503 . S
C2524 C2523 1.410 . S
C2524 C2525 1.392 . S
C2524 C2527 1.511 . S
C2525 C2521 1.376 . S
C2525 C2524 1.392 . S
C2525 H2537 0.929 . S
C2526 C2522 1.531 1_556 S
C2526 H2538 0.960 1_556 S
C2526 H2539 0.962 . S
C2526 H2540 0.960 . S
C2527 C2524 1.511 . S
C2527 H2541 0.961 . S
C2527 H2542 0.961 . S
C2527 H2543 0.961 . S
C2528 C2529 1.370 . S
C2528 C2530 1.363 . S
C2528 H2544 0.931 . S
C2529 C2528 1.370 . S
C2529 C2533 1.408 . S
C2530 C2528 1.363 . S
C2530 C2531 1.370 . S
C2530 C2534 1.524 . S
C2531 C2523 1.503 . S
C2531 C2530 1.370 . S
C2531 C2532 1.403 . S
C2532 C2531 1.403 . S
C2532 C2533 1.404 . S
C2532 C2535 1.539 . S
C2533 C2529 1.408 . S
C2533 C2532 1.404 . S
C2533 H2545 0.930 . S
C2534 C2530 1.524 . S
C2534 H2546 0.956 1_554 S
C2534 H2547 0.961 . S
C2534 H2548 0.961 . S
C2535 C2532 1.539 . S
C2535 H2549 0.958 . S
C2535 H2550 0.961 . S
C2535 H2551 0.960 . S
H2536 C2520 0.931 . S
H2537 C2525 0.929 . S
H2538 C2526 0.960 1_554 S
H2539 C2526 0.962 . S
H2540 C2526 0.960 . S
H2541 C2527 0.961 . S
H2542 C2527 0.961 . S
H2543 C2527 0.961 . S
H2544 C2528 0.931 . S
H2545 C2533 0.930 . S
H2546 C2534 0.956 1_556 S
H2547 C2534 0.961 . S
H2548 C2534 0.961 . S
H2549 C2535 0.958 . S
H2550 C2535 0.961 . S
H2551 C2535 0.960 . S
C2552 C2553 1.391 . S
C2552 C2554 1.394 . S
C2552 H2568 0.931 . S
C2553 C2552 1.391 . S
C2553 C2557 1.376 . S
C2554 C2552 1.394 . S
C2554 C2555 1.369 . S
C2554 C2558 1.531 . S
C2555 C2554 1.369 . S
C2555 C2556 1.410 . S
C2555 C2563 1.503 . S
C2556 C2555 1.410 . S
C2556 C2557 1.392 . S
C2556 C2559 1.511 . S
C2557 C2553 1.376 . S
C2557 C2556 1.392 . S
C2557 H2569 0.929 . S
C2558 C2554 1.531 . S
C2558 H2570 0.960 . S
C2558 H2571 0.962 . S
C2558 H2572 0.960 . S
C2559 C2556 1.511 . S
C2559 H2573 0.961 1_554 S
C2559 H2574 0.961 . S
C2559 H2575 0.961 . S
C2560 C2561 1.370 . S
C2560 C2562 1.363 . S
C2560 H2576 0.931 . S
C2561 C2560 1.370 . S
C2561 C2565 1.408 . S
C2562 C2560 1.363 . S
C2562 C2563 1.370 . S
C2562 C2566 1.524 1_554 S
C2563 C2555 1.503 . S
C2563 C2562 1.370 . S
C2563 C2564 1.403 . S
C2564 C2563 1.403 . S
C2564 C2565 1.404 . S
C2564 C2567 1.539 . S
C2565 C2561 1.408 . S
C2565 C2564 1.404 . S
C2565 H2577 0.930 . S
C2566 C2562 1.524 1_556 S
C2566 H2578 0.956 1_556 S
C2566 H2579 0.961 . S
C2566 H2580 0.961 . S
C2567 C2564 1.539 . S
C2567 H2581 0.958 . S
C2567 H2582 0.961 . S
C2567 H2583 0.960 . S
H2568 C2552 0.931 . S
H2569 C2557 0.929 . S
H2570 C2558 0.960 . S
H2571 C2558 0.962 . S
H2572 C2558 0.960 . S
H2573 C2559 0.961 1_556 S
H2574 C2559 0.961 . S
H2575 C2559 0.961 . S
H2576 C2560 0.931 . S
H2577 C2565 0.930 . S
H2578 C2566 0.956 1_554 S
H2579 C2566 0.961 . S
H2580 C2566 0.961 . S
H2581 C2567 0.958 . S
H2582 C2567 0.961 . S
H2583 C2567 0.960 . S
C2584 C2585 1.391 . S
C2584 C2586 1.394 . S
C2584 H2600 0.931 . S
C2585 C2584 1.391 . S
C2585 C2589 1.376 . S
C2586 C2584 1.394 . S
C2586 C2587 1.369 . S
C2586 C2590 1.531 1_554 S
C2587 C2586 1.369 . S
C2587 C2588 1.410 . S
C2587 C2595 1.503 . S
C2588 C2587 1.410 . S
C2588 C2589 1.392 . S
C2588 C2591 1.511 . S
C2589 C2585 1.376 . S
C2589 C2588 1.392 . S
C2589 H2601 0.929 . S
C2590 C2586 1.531 1_556 S
C2590 H2602 0.960 . S
C2590 H2603 0.962 1_556 S
C2590 H2604 0.960 . S
C2591 C2588 1.511 . S
C2591 H2605 0.961 . S
C2591 H2606 0.961 . S
C2591 H2607 0.961 . S
C2592 C2593 1.370 . S
C2592 C2594 1.363 . S
C2592 H2608 0.931 . S
C2593 C2592 1.370 . S
C2593 C2597 1.408 . S
C2594 C2592 1.363 . S
C2594 C2595 1.370 . S
C2594 C2598 1.524 . S
C2595 C2587 1.503 . S
C2595 C2594 1.370 . S
C2595 C2596 1.403 . S
C2596 C2595 1.403 . S
C2596 C2597 1.404 . S
C2596 C2599 1.539 1_554 S
C2597 C2593 1.408 . S
C2597 C2596 1.404 . S
C2597 H2609 0.930 . S
C2598 C2594 1.524 . S
C2598 H2610 0.956 . S
C2598 H2611 0.961 . S
C2598 H2612 0.961 . S
C2599 C2596 1.539 1_556 S
C2599 H2613 0.958 . S
C2599 H2614 0.961 . S
C2599 H2615 0.960 . S
H2600 C2584 0.931 . S
H2601 C2589 0.929 . S
H2602 C2590 0.960 . S
H2603 C2590 0.962 1_554 S
H2604 C2590 0.960 . S
H2605 C2591 0.961 . S
H2606 C2591 0.961 . S
H2607 C2591 0.961 . S
H2608 C2592 0.931 . S
H2609 C2597 0.930 . S
H2610 C2598 0.956 . S
H2611 C2598 0.961 . S
H2612 C2598 0.961 . S
H2613 C2599 0.958 . S
H2614 C2599 0.961 . S
H2615 C2599 0.960 . S
C2616 C2617 1.391 . S
C2616 C2618 1.394 . S
C2616 H2632 0.931 . S
C2617 C2616 1.391 . S
C2617 C2621 1.376 . S
C2618 C2616 1.394 . S
C2618 C2619 1.369 . S
C2618 C2622 1.531 . S
C2619 C2618 1.369 . S
C2619 C2620 1.410 . S
C2619 C2627 1.503 . S
C2620 C2619 1.410 . S
C2620 C2621 1.392 . S
C2620 C2623 1.511 . S
C2621 C2617 1.376 . S
C2621 C2620 1.392 . S
C2621 H2633 0.929 . S
C2622 C2618 1.531 . S
C2622 H2634 0.960 . S
C2622 H2635 0.962 1_556 S
C2622 H2636 0.960 . S
C2623 C2620 1.511 . S
C2623 H2637 0.961 . S
C2623 H2638 0.961 . S
C2623 H2639 0.961 . S
C2624 C2625 1.370 . S
C2624 C2626 1.363 . S
C2624 H2640 0.938 . S
C2625 C2624 1.370 . S
C2625 C2629 1.408 . S
C2626 C2624 1.363 . S
C2626 C2627 1.370 . S
C2626 C2630 1.524 1_556 S
C2627 C2619 1.503 . S
C2627 C2626 1.370 . S
C2627 C2628 1.403 . S
C2628 C2627 1.403 . S
C2628 C2629 1.404 . S
C2628 C2631 1.539 . S
C2629 C2625 1.408 . S
C2629 C2628 1.404 . S
C2629 H2641 0.930 . S
C2630 C2626 1.524 1_554 S
C2630 H2642 0.956 . S
C2630 H2643 0.961 1_554 S
C2630 H2644 0.961 . S
C2631 C2628 1.539 . S
C2631 H2645 0.958 . S
C2631 H2646 0.961 . S
C2631 H2647 0.960 . S
H2632 C2616 0.931 . S
H2633 C2621 0.929 . S
H2634 C2622 0.960 . S
H2635 C2622 0.962 1_554 S
H2636 C2622 0.960 . S
H2637 C2623 0.961 . S
H2638 C2623 0.961 . S
H2639 C2623 0.961 . S
H2640 C2624 0.938 . S
H2641 C2629 0.930 . S
H2642 C2630 0.956 . S
H2643 C2630 0.961 1_556 S
H2644 C2630 0.961 . S
H2645 C2631 0.958 . S
H2646 C2631 0.961 . S
H2647 C2631 0.960 . S
C2648 C2649 1.391 . S
C2648 C2650 1.394 . S
C2648 H2664 0.931 . S
C2649 C2648 1.391 . S
C2649 C2653 1.376 . S
C2650 C2648 1.394 . S
C2650 C2651 1.369 . S
C2650 C2654 1.531 . S
C2651 C2650 1.369 . S
C2651 C2652 1.410 . S
C2651 C2659 1.503 . S
C2652 C2651 1.410 . S
C2652 C2653 1.392 . S
C2652 C2655 1.511 1_556 S
C2653 C2649 1.376 . S
C2653 C2652 1.392 . S
C2653 H2665 0.929 . S
C2654 C2650 1.531 . S
C2654 H2666 0.960 . S
C2654 H2667 0.962 . S
C2654 H2668 0.960 . S
C2655 C2652 1.511 1_554 S
C2655 H2669 0.961 . S
C2655 H2670 0.961 1_554 S
C2655 H2671 0.961 . S
C2656 C2657 1.370 . S
C2656 C2658 1.363 . S
C2656 H2672 0.931 . S
C2657 C2656 1.370 . S
C2657 C2661 1.408 . S
C2658 C2656 1.363 . S
C2658 C2659 1.370 . S
C2658 C2662 1.524 . S
C2659 C2651 1.503 . S
C2659 C2658 1.370 . S
C2659 C2660 1.403 . S
C2660 C2659 1.403 . S
C2660 C2661 1.404 . S
C2660 C2663 1.539 1_556 S
C2661 C2657 1.408 . S
C2661 C2660 1.404 . S
C2661 H2673 0.931 . S
C2662 C2658 1.524 . S
C2662 H2674 0.956 . S
C2662 H2675 0.961 . S
C2662 H2676 0.961 . S
C2663 C2660 1.539 1_554 S
C2663 H2677 0.958 . S
C2663 H2678 0.961 . S
C2663 H2679 0.960 . S
H2664 C2648 0.931 . S
H2665 C2653 0.929 . S
H2666 C2654 0.960 . S
H2667 C2654 0.962 . S
H2668 C2654 0.960 . S
H2669 C2655 0.961 . S
H2670 C2655 0.961 1_556 S
H2671 C2655 0.961 . S
H2672 C2656 0.931 . S
H2673 C2661 0.931 . S
H2674 C2662 0.956 . S
H2675 C2662 0.961 . S
H2676 C2662 0.961 . S
H2677 C2663 0.958 . S
H2678 C2663 0.961 . S
H2679 C2663 0.960 . S
C2680 C2681 1.391 . S
C2680 C2682 1.394 . S
C2680 H2696 0.931 . S
C2681 C2680 1.391 . S
C2681 C2685 1.376 . S
C2682 C2680 1.394 . S
C2682 C2683 1.369 . S
C2682 C2686 1.531 . S
C2683 C2682 1.369 . S
C2683 C2684 1.410 . S
C2683 C2691 1.503 . S
C2684 C2683 1.410 . S
C2684 C2685 1.392 . S
C2684 C2687 1.511 . S
C2685 C2681 1.376 . S
C2685 C2684 1.392 . S
C2685 H2697 0.929 . S
C2686 C2682 1.531 . S
C2686 H2698 0.960 . S
C2686 H2699 0.962 . S
C2686 H2700 0.960 . S
C2687 C2684 1.511 . S
C2687 H2701 0.961 . S
C2687 H2702 0.961 . S
C2687 H2703 0.961 . S
C2688 C2689 1.370 . S
C2688 C2690 1.363 . S
C2688 H2704 0.931 1_556 S
C2689 C2688 1.370 . S
C2689 C2693 1.408 . S
C2690 C2688 1.363 . S
C2690 C2691 1.370 . S
C2690 C2694 1.524 1_556 S
C2691 C2683 1.503 . S
C2691 C2690 1.370 . S
C2691 C2692 1.403 . S
C2692 C2691 1.403 . S
C2692 C2693 1.404 . S
C2692 C2695 1.539 . S
C2693 C2689 1.408 . S
C2693 C2692 1.404 . S
C2693 H2705 0.930 . S
C2694 C2690 1.524 1_554 S
C2694 H2706 0.956 . S
C2694 H2707 0.961 . S
C2694 H2708 0.961 . S
C2695 C2692 1.539 . S
C2695 H2709 0.958 . S
C2695 H2710 0.961 . S
C2695 H2711 0.960 . S
H2696 C2680 0.931 . S
H2697 C2685 0.929 . S
H2698 C2686 0.960 . S
H2699 C2686 0.962 . S
H2700 C2686 0.960 . S
H2701 C2687 0.961 . S
H2702 C2687 0.961 . S
H2703 C2687 0.961 . S
H2704 C2688 0.931 1_554 S
H2705 C2693 0.930 . S
H2706 C2694 0.956 . S
H2707 C2694 0.961 . S
H2708 C2694 0.961 . S
H2709 C2695 0.958 . S
H2710 C2695 0.961 . S
H2711 C2695 0.960 . S
C2712 C2713 1.391 . S
C2712 C2714 1.394 . S
C2712 H2728 0.931 . S
C2713 C2712 1.391 . S
C2713 C2717 1.376 . S
C2714 C2712 1.394 . S
C2714 C2715 1.369 . S
C2714 C2718 1.531 . S
C2715 C2714 1.369 . S
C2715 C2716 1.410 . S
C2715 C2723 1.503 . S
C2716 C2715 1.410 . S
C2716 C2717 1.392 . S
C2716 C2719 1.511 . S
C2717 C2713 1.376 . S
C2717 C2716 1.392 . S
C2717 H2729 0.929 . S
C2718 C2714 1.531 . S
C2718 H2730 0.960 . S
C2718 H2731 0.962 . S
C2718 H2732 0.960 . S
C2719 C2716 1.511 . S
C2719 H2733 0.961 . S
C2719 H2734 0.961 . S
C2719 H2735 0.961 . S
C2720 C2721 1.370 . S
C2720 C2722 1.363 . S
C2720 H2736 0.931 . S
C2721 C2720 1.370 . S
C2721 C2725 1.408 . S
C2722 C2720 1.363 . S
C2722 C2723 1.370 . S
C2722 C2726 1.524 . S
C2723 C2715 1.503 . S
C2723 C2722 1.370 . S
C2723 C2724 1.403 . S
C2724 C2723 1.403 . S
C2724 C2725 1.404 . S
C2724 C2727 1.539 . S
C2725 C2721 1.408 . S
C2725 C2724 1.404 . S
C2725 H2737 0.930 . S
C2726 C2722 1.524 . S
C2726 H2738 0.956 . S
C2726 H2739 0.961 . S
C2726 H2740 0.961 . S
C2727 C2724 1.539 . S
C2727 H2741 0.958 . S
C2727 H2742 0.961 . S
C2727 H2743 0.960 . S
H2728 C2712 0.931 . S
H2729 C2717 0.929 . S
H2730 C2718 0.960 . S
H2731 C2718 0.962 . S
H2732 C2718 0.960 . S
H2733 C2719 0.961 . S
H2734 C2719 0.961 . S
H2735 C2719 0.961 . S
H2736 C2720 0.931 . S
H2737 C2725 0.930 . S
H2738 C2726 0.956 . S
H2739 C2726 0.961 . S
H2740 C2726 0.961 . S
H2741 C2727 0.958 . S
H2742 C2727 0.961 . S
H2743 C2727 0.960 . S
C2744 C2745 1.391 . S
C2744 C2746 1.394 . S
C2744 H2760 0.931 . S
C2745 C2744 1.391 . S
C2745 C2749 1.376 . S
C2746 C2744 1.394 . S
C2746 C2747 1.369 . S
C2746 C2750 1.531 . S
C2747 C2746 1.369 . S
C2747 C2748 1.410 . S
C2747 C2755 1.503 . S
C2748 C2747 1.410 . S
C2748 C2749 1.392 . S
C2748 C2751 1.511 . S
C2749 C2745 1.376 . S
C2749 C2748 1.392 . S
C2749 H2761 0.929 . S
C2750 C2746 1.531 . S
C2750 H2762 0.960 . S
C2750 H2763 0.962 . S
C2750 H2764 0.960 . S
C2751 C2748 1.511 . S
C2751 H2765 0.961 . S
C2751 H2766 0.961 . S
C2751 H2767 0.961 . S
C2752 C2753 1.370 . S
C2752 C2754 1.363 . S
C2752 H2768 0.931 . S
C2753 C2752 1.370 . S
C2753 C2757 1.408 . S
C2754 C2752 1.363 . S
C2754 C2755 1.370 . S
C2754 C2758 1.524 . S
C2755 C2747 1.503 . S
C2755 C2754 1.370 . S
C2755 C2756 1.403 . S
C2756 C2755 1.403 . S
C2756 C2757 1.404 . S
C2756 C2759 1.539 . S
C2757 C2753 1.408 . S
C2757 C2756 1.404 . S
C2757 H2769 0.930 . S
C2758 C2754 1.524 . S
C2758 H2770 0.956 . S
C2758 H2771 0.961 . S
C2758 H2772 0.961 . S
C2759 C2756 1.539 . S
C2759 H2773 0.958 . S
C2759 H2774 0.961 . S
C2759 H2775 0.960 . S
H2760 C2744 0.931 . S
H2761 C2749 0.929 . S
H2762 C2750 0.960 . S
H2763 C2750 0.962 . S
H2764 C2750 0.960 . S
H2765 C2751 0.961 . S
H2766 C2751 0.961 . S
H2767 C2751 0.961 . S
H2768 C2752 0.931 . S
H2769 C2757 0.930 . S
H2770 C2758 0.956 . S
H2771 C2758 0.961 . S
H2772 C2758 0.961 . S
H2773 C2759 0.958 . S
H2774 C2759 0.961 . S
H2775 C2759 0.960 . S
C2776 C2777 1.391 . S
C2776 C2778 1.394 . S
C2776 H2792 0.931 . S
C2777 C2776 1.391 . S
C2777 C2781 1.376 . S
C2778 C2776 1.394 . S
C2778 C2779 1.369 . S
C2778 C2782 1.531 . S
C2779 C2778 1.369 . S
C2779 C2780 1.410 . S
C2779 C2787 1.503 . S
C2780 C2779 1.410 . S
C2780 C2781 1.392 . S
C2780 C2783 1.511 . S
C2781 C2777 1.376 . S
C2781 C2780 1.392 . S
C2781 H2793 0.929 . S
C2782 C2778 1.531 . S
C2782 H2794 0.960 . S
C2782 H2795 0.962 . S
C2782 H2796 0.960 . S
C2783 C2780 1.511 . S
C2783 H2797 0.961 . S
C2783 H2798 0.961 . S
C2783 H2799 0.961 . S
C2784 C2785 1.370 . S
C2784 C2786 1.363 . S
C2784 H2800 0.931 . S
C2785 C2784 1.370 . S
C2785 C2789 1.408 . S
C2786 C2784 1.363 . S
C2786 C2787 1.370 . S
C2786 C2790 1.524 . S
C2787 C2779 1.503 . S
C2787 C2786 1.370 . S
C2787 C2788 1.403 . S
C2788 C2787 1.403 . S
C2788 C2789 1.404 . S
C2788 C2791 1.539 . S
C2789 C2785 1.408 . S
C2789 C2788 1.404 . S
C2789 H2801 0.930 . S
C2790 C2786 1.524 . S
C2790 H2802 0.956 . S
C2790 H2803 0.961 . S
C2790 H2804 0.961 . S
C2791 C2788 1.539 . S
C2791 H2805 0.958 . S
C2791 H2806 0.961 . S
C2791 H2807 0.960 . S
H2792 C2776 0.931 . S
H2793 C2781 0.929 . S
H2794 C2782 0.960 . S
H2795 C2782 0.962 . S
H2796 C2782 0.960 . S
H2797 C2783 0.961 . S
H2798 C2783 0.961 . S
H2799 C2783 0.961 . S
H2800 C2784 0.931 . S
H2801 C2789 0.930 . S
H2802 C2790 0.956 . S
H2803 C2790 0.961 . S
H2804 C2790 0.961 . S
H2805 C2791 0.958 . S
H2806 C2791 0.961 . S
H2807 C2791 0.960 . S
C505 C81 1.465 . S
C513 C11 1.478 . S
C537 C53 1.479 . S
C545 C25 1.479 . S
C569 C39 1.469 . S
C577 C67 1.480 . S
C601 C95 1.465 . S
C609 C165 1.473 . S
C633 C109 1.463 . S
C641 C137 1.480 . S
C665 C151 1.459 . S
C673 C123 1.476 . S
C697 C179 1.463 . S
C705 C249 1.477 . S
C729 C193 1.495 . S
C737 C221 1.487 . S
C761 C207 1.494 . S
C769 C235 1.488 . S
C793 C333 1.489 . S
C801 C263 1.488 . S
C825 C277 1.492 . S
C833 C305 1.483 . S
C857 C319 1.493 . S
C865 C291 1.484 . S
C889 C417 1.473 . S
C897 C347 1.477 . S
C921 C389 1.487 . S
C929 C361 1.487 . S
C953 C403 1.488 . S
C961 C375 1.487 . S
C985 C431 1.475 . S
C993 C501 1.485 . S
C1017 C445 1.494 . S
C1025 C473 1.487 . S
C1049 C459 1.467 . S
C1057 C487 1.481 . S
C1081 C79 1.584 . S
C1089 C9 1.588 . S
C1113 C23 1.588 . S
C1121 C51 1.588 . S
C1145 C65 1.587 . S
C1153 C37 1.588 . S
C1177 C93 1.585 . S
C1185 C163 1.587 . S
C1209 C107 1.577 . S
C1217 C135 1.585 . S
C1241 C149 1.578 . S
C1249 C121 1.585 . S
C1273 C177 1.580 . S
C1281 C247 1.584 . S
C1305 C219 1.587 . S
C1313 C191 1.588 . S
C1337 C233 1.581 . S
C1345 C205 1.584 . S
C1369 C261 1.586 . S
C1377 C331 1.588 . S
C1401 C275 1.577 . S
C1409 C303 1.584 . S
C1433 C317 1.587 . S
C1441 C289 1.589 . S
C1465 C415 1.584 . S
C1473 C345 1.588 . S
C1497 C359 1.577 . S
C1505 C387 1.584 . S
C1529 C373 1.580 . S
C1537 C401 1.584 . S
C1561 C499 1.587 . S
C1569 C429 1.588 . S
C1593 C471 1.585 . S
C1601 C443 1.587 . S
C1625 C485 1.587 . S
C1633 C457 1.588 . S
C1657 C229 1.637 . S
C1665 C5 1.639 . S
C1689 C243 1.638 . S
C1697 C19 1.638 . S
C1721 C215 1.636 . S
C1729 C33 1.640 . S
C1753 C47 1.635 . S
C1761 C369 1.640 . S
C1785 C61 1.633 . S
C1793 C341 1.641 . S
C1817 C75 1.638 . S
C1825 C355 1.638 . S
C1849 C89 1.636 . S
C1857 C481 1.640 . S
C1881 C103 1.633 . S
C1889 C495 1.641 . S
C1913 C117 1.638 . S
C1921 C467 1.639 . S
C1945 C131 1.633 . S
C1953 C285 1.640 . S
C1977 C257 1.638 . S
C1985 C145 1.638 . S
C2009 C271 1.639 . S
C2017 C159 1.639 . S
C2041 C397 1.633 . S
C2049 C173 1.641 . S
C2073 C187 1.634 . S
C2081 C411 1.640 . S
C2105 C201 1.633 . S
C2113 C383 1.641 . S
C2137 C299 1.633 . S
C2145 C453 1.641 . S
C2169 C313 1.633 . S
C2177 C425 1.641 . S
C2201 C439 1.636 . S
C2209 C327 1.640 . S
C2233 C0 1.289 . S
C2241 C140 1.306 . S
C2265 C154 1.297 . S
C2273 C14 1.308 . S
C2297 C126 1.333 . S
C2305 C28 1.325 . S
C2329 C42 1.293 . S
C2337 C112 1.306 . S
C2361 C56 1.295 . S
C2369 C84 1.309 . S
C2393 C70 1.309 . S
C2401 C98 1.312 . S
C2425 C168 1.331 . S
C2433 C308 1.322 . S
C2457 C322 1.333 . S
C2465 C182 1.323 . S
C2489 C294 1.313 . S
C2497 C196 1.314 . S
C2521 C210 1.290 . S
C2529 C280 1.305 . S
C2553 C224 1.303 . S
C2561 C252 1.313 . S
C2585 C266 1.336 . S
C2593 C238 1.324 . S
C2617 C336 1.287 . S
C2625 C476 1.305 . S
C2649 C490 1.322 . S
C2657 C350 1.321 . S
C2681 C364 1.294 . S
C2689 C462 1.309 . S
C2713 C378 1.322 . S
C2721 C448 1.321 . S
C2745 C420 1.295 . S
C2753 C392 1.309 . S
C2777 C406 1.296 . S
C2785 C434 1.310 . S
