# Generated by pormake.
# Topology umu, (4)-cn, num edge types: 1
# Building blocks:
#     Node 0, Type 0, BuildingBlock: QUQFOY_clean_sbu_1, # of connection points: 4
#     Node 1, Type 0, BuildingBlock: QUQFOY_clean_sbu_1, # of connection points: 4
#     Node 2, Type 0, BuildingBlock: QUQFOY_clean_sbu_1, # of connection points: 4
#     Node 3, Type 0, BuildingBlock: QUQFOY_clean_sbu_1, # of connection points: 4
#     Node 4, Type 0, BuildingBlock: QUQFOY_clean_sbu_1, # of connection points: 4
#     Node 5, Type 0, BuildingBlock: QUQFOY_clean_sbu_1, # of connection points: 4
#     Node 6, Type 0, BuildingBlock: QUQFOY_clean_sbu_1, # of connection points: 4
#     Node 7, Type 0, BuildingBlock: QUQFOY_clean_sbu_1, # of connection points: 4
#     Node 8, Type 0, BuildingBlock: QUQFOY_clean_sbu_1, # of connection points: 4
#     Node 9, Type 0, BuildingBlock: QUQFOY_clean_sbu_1, # of connection points: 4
#     Node 10, Type 0, BuildingBlock: QUQFOY_clean_sbu_1, # of connection points: 4
#     Node 11, Type 0, BuildingBlock: QUQFOY_clean_sbu_1, # of connection points: 4
#     Node 12, Type 0, BuildingBlock: QUQFOY_clean_sbu_1, # of connection points: 4
#     Node 13, Type 0, BuildingBlock: QUQFOY_clean_sbu_1, # of connection points: 4
#     Node 14, Type 0, BuildingBlock: QUQFOY_clean_sbu_1, # of connection points: 4
#     Node 15, Type 0, BuildingBlock: QUQFOY_clean_sbu_1, # of connection points: 4
#     Node 16, Type 0, BuildingBlock: QUQFOY_clean_sbu_1, # of connection points: 4
#     Node 17, Type 0, BuildingBlock: QUQFOY_clean_sbu_1, # of connection points: 4
#     Node 18, Type 0, BuildingBlock: QUQFOY_clean_sbu_1, # of connection points: 4
#     Node 19, Type 0, BuildingBlock: QUQFOY_clean_sbu_1, # of connection points: 4
#     Node 20, Type 0, BuildingBlock: QUQFOY_clean_sbu_1, # of connection points: 4
#     Node 21, Type 0, BuildingBlock: QUQFOY_clean_sbu_1, # of connection points: 4
#     Node 22, Type 0, BuildingBlock: QUQFOY_clean_sbu_1, # of connection points: 4
#     Node 23, Type 0, BuildingBlock: QUQFOY_clean_sbu_1, # of connection points: 4
#     Node 24, Type 0, BuildingBlock: QUQFOY_clean_sbu_1, # of connection points: 4
#     Node 25, Type 0, BuildingBlock: QUQFOY_clean_sbu_1, # of connection points: 4
#     Node 26, Type 0, BuildingBlock: QUQFOY_clean_sbu_1, # of connection points: 4
#     Node 27, Type 0, BuildingBlock: QUQFOY_clean_sbu_1, # of connection points: 4
#     Node 28, Type 0, BuildingBlock: QUQFOY_clean_sbu_1, # of connection points: 4
#     Node 29, Type 0, BuildingBlock: QUQFOY_clean_sbu_1, # of connection points: 4
#     Node 30, Type 0, BuildingBlock: QUQFOY_clean_sbu_1, # of connection points: 4
#     Node 31, Type 0, BuildingBlock: QUQFOY_clean_sbu_1, # of connection points: 4
#     Edge 32, Type (0, 0), BuildingBlock: OJICUG_clean_linker_0, # of connection points: 2
#     Edge 33, Type (0, 0), BuildingBlock: OJICUG_clean_linker_0, # of connection points: 2
#     Edge 34, Type (0, 0), BuildingBlock: OJICUG_clean_linker_0, # of connection points: 2
#     Edge 35, Type (0, 0), BuildingBlock: OJICUG_clean_linker_0, # of connection points: 2
#     Edge 36, Type (0, 0), BuildingBlock: OJICUG_clean_linker_0, # of connection points: 2
#     Edge 37, Type (0, 0), BuildingBlock: OJICUG_clean_linker_0, # of connection points: 2
#     Edge 38, Type (0, 0), BuildingBlock: OJICUG_clean_linker_0, # of connection points: 2
#     Edge 39, Type (0, 0), BuildingBlock: OJICUG_clean_linker_0, # of connection points: 2
#     Edge 40, Type (0, 0), BuildingBlock: OJICUG_clean_linker_0, # of connection points: 2
#     Edge 41, Type (0, 0), BuildingBlock: OJICUG_clean_linker_0, # of connection points: 2
#     Edge 42, Type (0, 0), BuildingBlock: OJICUG_clean_linker_0, # of connection points: 2
#     Edge 43, Type (0, 0), BuildingBlock: OJICUG_clean_linker_0, # of connection points: 2
#     Edge 44, Type (0, 0), BuildingBlock: OJICUG_clean_linker_0, # of connection points: 2
#     Edge 45, Type (0, 0), BuildingBlock: OJICUG_clean_linker_0, # of connection points: 2
#     Edge 46, Type (0, 0), BuildingBlock: OJICUG_clean_linker_0, # of connection points: 2
#     Edge 47, Type (0, 0), BuildingBlock: OJICUG_clean_linker_0, # of connection points: 2
#     Edge 48, Type (0, 0), BuildingBlock: OJICUG_clean_linker_0, # of connection points: 2
#     Edge 49, Type (0, 0), BuildingBlock: OJICUG_clean_linker_0, # of connection points: 2
#     Edge 50, Type (0, 0), BuildingBlock: OJICUG_clean_linker_0, # of connection points: 2
#     Edge 51, Type (0, 0), BuildingBlock: OJICUG_clean_linker_0, # of connection points: 2
#     Edge 52, Type (0, 0), BuildingBlock: OJICUG_clean_linker_0, # of connection points: 2
#     Edge 53, Type (0, 0), BuildingBlock: OJICUG_clean_linker_0, # of connection points: 2
#     Edge 54, Type (0, 0), BuildingBlock: OJICUG_clean_linker_0, # of connection points: 2
#     Edge 55, Type (0, 0), BuildingBlock: OJICUG_clean_linker_0, # of connection points: 2
#     Edge 56, Type (0, 0), BuildingBlock: OJICUG_clean_linker_0, # of connection points: 2
#     Edge 57, Type (0, 0), BuildingBlock: OJICUG_clean_linker_0, # of connection points: 2
#     Edge 58, Type (0, 0), BuildingBlock: OJICUG_clean_linker_0, # of connection points: 2
#     Edge 59, Type (0, 0), BuildingBlock: OJICUG_clean_linker_0, # of connection points: 2
#     Edge 60, Type (0, 0), BuildingBlock: OJICUG_clean_linker_0, # of connection points: 2
#     Edge 61, Type (0, 0), BuildingBlock: OJICUG_clean_linker_0, # of connection points: 2
#     Edge 62, Type (0, 0), BuildingBlock: OJICUG_clean_linker_0, # of connection points: 2
#     Edge 63, Type (0, 0), BuildingBlock: OJICUG_clean_linker_0, # of connection points: 2
#     Edge 64, Type (0, 0), BuildingBlock: OJICUG_clean_linker_0, # of connection points: 2
#     Edge 65, Type (0, 0), BuildingBlock: OJICUG_clean_linker_0, # of connection points: 2
#     Edge 66, Type (0, 0), BuildingBlock: OJICUG_clean_linker_0, # of connection points: 2
#     Edge 67, Type (0, 0), BuildingBlock: OJICUG_clean_linker_0, # of connection points: 2
#     Edge 68, Type (0, 0), BuildingBlock: OJICUG_clean_linker_0, # of connection points: 2
#     Edge 69, Type (0, 0), BuildingBlock: OJICUG_clean_linker_0, # of connection points: 2
#     Edge 70, Type (0, 0), BuildingBlock: OJICUG_clean_linker_0, # of connection points: 2
#     Edge 71, Type (0, 0), BuildingBlock: OJICUG_clean_linker_0, # of connection points: 2
#     Edge 72, Type (0, 0), BuildingBlock: OJICUG_clean_linker_0, # of connection points: 2
#     Edge 73, Type (0, 0), BuildingBlock: OJICUG_clean_linker_0, # of connection points: 2
#     Edge 74, Type (0, 0), BuildingBlock: OJICUG_clean_linker_0, # of connection points: 2
#     Edge 75, Type (0, 0), BuildingBlock: OJICUG_clean_linker_0, # of connection points: 2
#     Edge 76, Type (0, 0), BuildingBlock: OJICUG_clean_linker_0, # of connection points: 2
#     Edge 77, Type (0, 0), BuildingBlock: OJICUG_clean_linker_0, # of connection points: 2
#     Edge 78, Type (0, 0), BuildingBlock: OJICUG_clean_linker_0, # of connection points: 2
#     Edge 79, Type (0, 0), BuildingBlock: OJICUG_clean_linker_0, # of connection points: 2
#     Edge 80, Type (0, 0), BuildingBlock: OJICUG_clean_linker_0, # of connection points: 2
#     Edge 81, Type (0, 0), BuildingBlock: OJICUG_clean_linker_0, # of connection points: 2
#     Edge 82, Type (0, 0), BuildingBlock: OJICUG_clean_linker_0, # of connection points: 2
#     Edge 83, Type (0, 0), BuildingBlock: OJICUG_clean_linker_0, # of connection points: 2
#     Edge 84, Type (0, 0), BuildingBlock: OJICUG_clean_linker_0, # of connection points: 2
#     Edge 85, Type (0, 0), BuildingBlock: OJICUG_clean_linker_0, # of connection points: 2
#     Edge 86, Type (0, 0), BuildingBlock: OJICUG_clean_linker_0, # of connection points: 2
#     Edge 87, Type (0, 0), BuildingBlock: OJICUG_clean_linker_0, # of connection points: 2
#     Edge 88, Type (0, 0), BuildingBlock: OJICUG_clean_linker_0, # of connection points: 2
#     Edge 89, Type (0, 0), BuildingBlock: OJICUG_clean_linker_0, # of connection points: 2
#     Edge 90, Type (0, 0), BuildingBlock: OJICUG_clean_linker_0, # of connection points: 2
#     Edge 91, Type (0, 0), BuildingBlock: OJICUG_clean_linker_0, # of connection points: 2
#     Edge 92, Type (0, 0), BuildingBlock: OJICUG_clean_linker_0, # of connection points: 2
#     Edge 93, Type (0, 0), BuildingBlock: OJICUG_clean_linker_0, # of connection points: 2
#     Edge 94, Type (0, 0), BuildingBlock: OJICUG_clean_linker_0, # of connection points: 2
#     Edge 95, Type (0, 0), BuildingBlock: OJICUG_clean_linker_0, # of connection points: 2
# Relax obj value: 0.024
# Max RMSD: 0.053
# Mean RMSD: 0.053
data_MOF--net-umu--node1-QUQFOY_clean_sbu_1--edge1-OJICUG_clean_linker_0
_symmetry_space_group_name_H-M    P1
_symmetry_Int_Tables_number       1
_symmetry_cell_setting            triclinic
loop_
_symmetry_equiv_pos_as_xyz
'x, y, z'
_cell_length_a     64.81005
_cell_length_b     64.799109
_cell_length_c     20.488823
_cell_angle_alpha  89.909794
_cell_angle_beta   90.084157
_cell_angle_gamma 90.045444
loop_
_atom_site_label
_atom_site_type_symbol
_atom_site_fract_x
_atom_site_fract_y
_atom_site_fract_z
_atom_type_partial_charge
O0 O 0.20265 0.15717 1.00194 0.0
Cd1 Cd 0.18194 0.16527 0.07264 0.0
Cd2 Cd 0.2202 0.16312 0.14352 0.0
O3 O 0.23091 0.15025 0.05772 0.0
O4 O 0.15692 0.16463 1.01639 0.0
O5 O 0.16124 0.14395 0.10123 0.0
C6 C 0.15053 0.14931 0.05078 0.0
C7 C 0.23 0.15004 0.24546 0.0
C8 C 0.22108 0.1507 1.00401 0.0
C9 C 0.1982 0.20432 0.13075 0.0
O10 O 0.21473 0.19455 0.1437 0.0
O11 O 0.18261 0.19499 0.10731 0.0
O12 O 0.24299 0.15937 0.2081 0.0
O13 O 0.21151 0.14719 0.22359 0.0
O14 O 0.08512 0.95979 0.24717 0.0
Cd15 Cd 0.07678 0.9391 0.31778 0.0
Cd16 Cd 0.07828 0.97749 0.38823 0.0
O17 O 0.09144 0.98821 0.30266 0.0
O18 O 0.07774 0.91406 0.26195 0.0
O19 O 0.09798 0.91849 0.34776 0.0
C20 C 0.09287 0.90773 0.29724 0.0
C21 C 0.09081 0.98749 0.49063 0.0
C22 C 0.09139 0.9783 0.24915 0.0
C23 C 0.03735 0.95505 0.37391 0.0
O24 O 0.04692 0.97166 0.38738 0.0
O25 O 0.0469 0.93959 0.35077 0.0
O26 O 0.08156 0.00037 0.45262 0.0
O27 O 0.09393 0.96901 0.46914 0.0
O28 O 0.28241 0.83896 0.49859 0.0
Cd29 Cd 0.30312 0.83066 0.56922 0.0
Cd30 Cd 0.26489 0.83295 0.64037 0.0
O31 O 0.25428 0.84609 0.55446 0.0
O32 O 0.32819 0.83157 0.51349 0.0
O33 O 0.32369 0.85196 0.59871 0.0
C34 C 0.33446 0.84683 0.5483 0.0
C35 C 0.2549 0.84557 0.74262 0.0
C36 C 0.26405 0.8456 0.5007 0.0
C37 C 0.28672 0.79162 0.62686 0.0
O38 O 0.27032 0.80152 0.64026 0.0
O39 O 0.30233 0.80084 0.60317 0.0
O40 O 0.24196 0.83645 0.70453 0.0
O41 O 0.27342 0.84854 0.72128 0.0
O42 O 0.40007 0.0374 0.74427 0.0
Cd43 Cd 0.40843 0.05797 0.81508 0.0
Cd44 Cd 0.40677 0.01968 0.88563 0.0
O45 O 0.39354 0.00903 0.80001 0.0
O46 O 0.40725 0.08317 0.75979 0.0
O47 O 0.38717 0.07836 0.84567 0.0
C48 C 0.39213 0.0893 0.79534 0.0
C49 C 0.39421 0.00973 0.98805 0.0
C50 C 0.39369 0.01892 0.74637 0.0
C51 C 0.44781 0.04195 0.87149 0.0
O52 O 0.43817 0.02538 0.88503 0.0
O53 O 0.43832 0.05745 0.84813 0.0
O54 O 0.40339 -0.0032 0.95021 0.0
O55 O 0.39118 0.02822 0.96637 0.0
O56 O 0.20411 0.84034 0.25638 0.0
Cd57 Cd 0.18309 0.83221 0.18652 0.0
Cd58 Cd 0.22151 0.83303 0.11474 0.0
O59 O 0.23263 0.84582 0.20042 0.0
O60 O 0.15827 0.83344 0.24328 0.0
O61 O 0.16254 0.85357 0.15712 0.0
C62 C 0.15191 0.84857 0.208 0.0
C63 C 0.23186 0.84545 1.01245 0.0
C64 C 0.22279 0.8461 0.25406 0.0
C65 C 0.19823 0.79252 0.12956 0.0
O66 O 0.21494 0.8018 0.11526 0.0
O67 O 0.18308 0.80231 0.15364 0.0
O68 O 0.24449 0.83582 0.05037 0.0
O69 O 0.21346 0.84899 0.03393 0.0
O70 O 0.39937 0.95929 0.50255 0.0
Cd71 Cd 0.40806 0.9383 0.43347 0.0
Cd72 Cd 0.40654 0.97681 0.36085 0.0
O73 O 0.3935 0.98771 0.44626 0.0
O74 O 0.40744 0.91361 0.49124 0.0
O75 O 0.38725 0.91707 0.40491 0.0
C76 C 0.39249 0.90673 0.45624 0.0
C77 C 0.39411 0.98693 0.2583 0.0
C78 C 0.39332 0.97786 0.49997 0.0
C79 C 0.44748 0.95438 0.37648 0.0
O80 O 0.43786 0.97086 0.36175 0.0
O81 O 0.43799 0.93902 0.4008 0.0
O82 O 0.40346 -0.00026 0.29623 0.0
O83 O 0.39083 0.96847 0.27993 0.0
O84 O 0.28051 0.15672 0.75891 0.0
Cd85 Cd 0.3012 0.16454 0.6878 0.0
Cd86 Cd 0.26289 0.16245 0.61671 0.0
O87 O 0.25213 0.15005 0.70338 0.0
O88 O 0.32644 0.16356 0.74294 0.0
O89 O 0.32143 0.14302 0.65823 0.0
C90 C 0.33248 0.14825 0.70805 0.0
C91 C 0.25266 0.14935 0.51536 0.0
C92 C 0.26199 0.15046 0.75705 0.0
C93 C 0.28549 0.20344 0.62697 0.0
O94 O 0.26889 0.19376 0.6141 0.0
O95 O 0.30084 0.19414 0.65199 0.0
O96 O 0.23988 0.15888 0.55279 0.0
O97 O 0.27112 0.14618 0.53705 0.0
O98 O 0.08508 0.03774 1.00444 0.0
Cd99 Cd 0.07642 0.05861 0.9347 0.0
Cd100 Cd 0.07825 0.02017 0.86297 0.0
O101 O 0.09139 0.0094 0.9486 0.0
O102 O 0.07697 0.08337 0.99194 0.0
O103 O 0.0973 0.07978 0.9062 0.0
C104 C 0.09202 0.09016 0.95725 0.0
C105 C 0.09079 0.01019 0.76068 0.0
C106 C 0.09137 0.01925 1.00221 0.0
C107 C 0.03715 0.04231 0.87749 0.0
O108 O 0.04687 0.02586 0.86347 0.0
O109 O 0.04654 0.05778 0.90142 0.0
O110 O 0.08154 -0.00271 0.7986 0.0
O111 O 0.0939 0.02868 0.78219 0.0
O112 O 0.78097 0.84104 0.25671 0.0
Cd113 Cd 0.80171 0.83237 0.18688 0.0
Cd114 Cd 0.76325 0.83379 0.11546 0.0
O115 O 0.75249 0.84698 0.20081 0.0
O116 O 0.82662 0.83316 0.24356 0.0
O117 O 0.82268 0.85326 0.15715 0.0
C118 C 0.83326 0.84812 0.20808 0.0
C119 C 0.7533 0.84634 1.01294 0.0
C120 C 0.76242 0.84717 0.25437 0.0
C121 C 0.78563 0.79287 0.13075 0.0
O122 O 0.76908 0.80243 0.1165 0.0
O123 O 0.80103 0.80243 0.15444 0.0
O124 O 0.7404 0.83705 0.05074 0.0
O125 O 0.77177 0.84947 0.03469 0.0
O126 O 0.90002 0.03659 1.00285 0.0
Cd127 Cd 0.90867 0.05757 0.93348 0.0
Cd128 Cd 0.90731 0.01909 0.86144 0.0
O129 O 0.89429 0.00812 0.9469 0.0
O130 O 0.90798 0.08227 0.99094 0.0
O131 O 0.88779 0.07869 0.90464 0.0
C132 C 0.89299 0.08906 0.95586 0.0
C133 C 0.89481 0.00899 0.75907 0.0
C134 C 0.89403 0.01799 1.00048 0.0
C135 C 0.94817 0.04171 0.87678 0.0
O136 O 0.93863 0.02517 0.86224 0.0
O137 O 0.93861 0.05701 0.9009 0.0
O138 O 0.90423 -0.00381 0.79696 0.0
O139 O 0.89153 0.02743 0.78063 0.0
O140 O 0.70429 0.1561 0.75597 0.0
Cd141 Cd 0.68338 0.16453 0.68606 0.0
Cd142 Cd 0.72179 0.1632 0.61421 0.0
O143 O 0.73271 0.15026 0.70001 0.0
O144 O 0.65848 0.16343 0.74255 0.0
O145 O 0.66267 0.14337 0.65639 0.0
C146 C 0.65203 0.14838 0.70718 0.0
C147 C 0.73199 0.15068 0.51206 0.0
C148 C 0.72287 0.15009 0.75366 0.0
C149 C 0.69907 0.20403 0.62862 0.0
O150 O 0.71562 0.19451 0.61432 0.0
O151 O 0.68379 0.19445 0.65299 0.0
O152 O 0.74474 0.16016 0.54991 0.0
O153 O 0.71355 0.14734 0.53354 0.0
O154 O 0.58444 0.95934 0.50359 0.0
Cd155 Cd 0.57588 0.93846 0.43395 0.0
Cd156 Cd 0.57744 0.97685 0.36185 0.0
O157 O 0.59052 0.98773 0.44738 0.0
O158 O 0.57675 0.91359 0.49092 0.0
O159 O 0.5969 0.91758 0.40486 0.0
C160 C 0.59179 0.90703 0.45586 0.0
C161 C 0.58996 0.98692 0.25947 0.0
C162 C 0.5906 0.97788 0.50111 0.0
C163 C 0.53646 0.95442 0.37682 0.0
O164 O 0.54609 0.97092 0.36241 0.0
O165 O 0.54595 0.93904 0.40101 0.0
O166 O 0.58063 -0.00025 0.29722 0.0
O167 O 0.59316 0.96846 0.28118 0.0
O168 O 0.78253 0.15627 0.99819 0.0
Cd169 Cd 0.80329 0.16459 0.0686 0.0
Cd170 Cd 0.76497 0.16278 0.13959 0.0
O171 O 0.75424 0.14962 0.05399 0.0
O172 O 0.82828 0.16371 1.01247 0.0
O173 O 0.82396 0.14337 0.09809 0.0
C174 C 0.83465 0.14852 0.04747 0.0
C175 C 0.75495 0.15034 0.24214 0.0
C176 C 0.76407 0.14987 1.00032 0.0
C177 C 0.78718 0.20388 0.12497 0.0
O178 O 0.77066 0.19418 0.13858 0.0
O179 O 0.8027 0.19446 0.10174 0.0
O180 O 0.74206 0.1595 0.20393 0.0
O181 O 0.77344 0.14724 0.22077 0.0
O182 O 0.58444 0.03744 0.74533 0.0
Cd183 Cd 0.57618 0.0581 0.8159 0.0
Cd184 Cd 0.57779 0.01977 0.88669 0.0
O185 O 0.59094 0.00908 0.80118 0.0
O186 O 0.57732 0.08324 0.76028 0.0
O187 O 0.59749 0.07856 0.84616 0.0
C188 C 0.59248 0.08943 0.7957 0.0
C189 C 0.59025 0.00974 0.98925 0.0
C190 C 0.59077 0.01896 0.74751 0.0
C191 C 0.53679 0.04205 0.87212 0.0
O192 O 0.54641 0.02549 0.88573 0.0
O193 O 0.54628 0.05756 0.84886 0.0
O194 O 0.58105 -0.00315 0.95122 0.0
O195 O 0.59338 0.02824 0.96768 0.0
O196 O 0.70306 0.8409 0.49872 0.0
Cd197 Cd 0.68235 0.8323 0.56883 0.0
Cd198 Cd 0.72074 0.83416 0.64011 0.0
O199 O 0.73141 0.84741 0.55458 0.0
O200 O 0.65738 0.83303 0.51235 0.0
O201 O 0.66147 0.85327 0.59815 0.0
C202 C 0.65084 0.84809 0.54738 0.0
C203 C 0.73067 0.84666 0.7426 0.0
C204 C 0.72153 0.8473 0.50094 0.0
C205 C 0.69869 0.793 0.62551 0.0
O206 O 0.71517 0.80275 0.63936 0.0
O207 O 0.68316 0.80239 0.60192 0.0
O208 O 0.74361 0.83753 0.70469 0.0
O209 O 0.71218 0.84969 0.72094 0.0
O210 O 0.9008 0.95865 0.24563 0.0
Cd211 Cd 0.90915 0.93813 0.31678 0.0
Cd212 Cd 0.90721 0.97643 0.38671 0.0
O213 O 0.89393 0.98695 0.30095 0.0
O214 O 0.90819 0.91293 0.2617 0.0
O215 O 0.88792 0.91761 0.34711 0.0
C216 C 0.89302 0.90671 0.29695 0.0
C217 C 0.89462 0.9863 0.48902 0.0
C218 C 0.89425 0.97705 0.24743 0.0
C219 C 0.94838 0.95449 0.37322 0.0
O220 O 0.93864 0.97101 0.3862 0.0
O221 O 0.93899 0.93887 0.35028 0.0
O222 O 0.90369 -0.0007 0.451 0.0
O223 O 0.89169 0.96778 0.46755 0.0
O224 O 0.70414 0.65547 0.50071 0.0
Cd225 Cd 0.68318 0.66445 0.56955 0.0
Cd226 Cd 0.72176 0.66312 0.64223 0.0
O227 O 0.73266 0.65003 0.55691 0.0
O228 O 0.65852 0.66393 0.51162 0.0
O229 O 0.66172 0.64391 0.59846 0.0
C230 C 0.65145 0.64916 0.54702 0.0
C231 C 0.73181 0.65061 0.74473 0.0
C232 C 0.72275 0.64957 0.50333 0.0
C233 C 0.69929 0.704 0.62609 0.0
O234 O 0.71576 0.69444 0.64122 0.0
O235 O 0.684 0.69444 0.60161 0.0
O236 O 0.74463 0.66001 0.70697 0.0
O237 O 0.71337 0.64736 0.72299 0.0
O238 O 0.58528 0.46149 0.75025 0.0
Cd239 Cd 0.57713 0.43999 0.81867 0.0
Cd240 Cd 0.57736 0.47854 0.89248 0.0
O241 O 0.5899 0.49004 0.80687 0.0
O242 O 0.57833 0.41557 0.76001 0.0
O243 O 0.59835 0.41907 0.84668 0.0
C244 C 0.59334 0.40882 0.79504 0.0
C245 C 0.5894 0.48925 0.99497 0.0
C246 C 0.59055 0.4803 0.75307 0.0
C247 C 0.53719 0.45466 0.87597 0.0
O248 O 0.54628 0.47135 0.89154 0.0
O249 O 0.54715 0.43975 0.85098 0.0
O250 O 0.57954 0.50162 0.95682 0.0
O251 O 0.59338 0.47092 0.97366 0.0
O252 O 0.78151 0.34064 0.99529 0.0
Cd253 Cd 0.80237 0.33228 0.06539 0.0
Cd254 Cd 0.76395 0.33372 0.13693 0.0
O255 O 0.75311 0.3467 0.05109 0.0
O256 O 0.82726 0.3332 1.00881 0.0
O257 O 0.82315 0.35342 0.09461 0.0
C258 C 0.83376 0.3483 0.04386 0.0
C259 C 0.75379 0.34626 0.23907 0.0
C260 C 0.76296 0.34675 0.99748 0.0
C261 C 0.78656 0.29286 0.12292 0.0
O262 O 0.76999 0.3024 0.13681 0.0
O263 O 0.80191 0.30241 0.09887 0.0
O264 O 0.741 0.33685 0.20117 0.0
O265 O 0.77225 0.34953 0.21763 0.0
O266 O 0.90096 0.53688 0.2476 0.0
Cd267 Cd 0.90898 0.5577 0.31813 0.0
Cd268 Cd 0.90671 0.51939 0.39001 0.0
O269 O 0.8943 0.50855 0.30347 0.0
O270 O 0.90816 0.5828 0.26224 0.0
O271 O 0.88764 0.57819 0.3472 0.0
C272 C 0.89291 0.58905 0.29701 0.0
C273 C 0.89365 0.50917 0.49146 0.0
C274 C 0.89469 0.51837 0.24971 0.0
C275 C 0.94782 0.54181 0.379 0.0
O276 O 0.93803 0.52533 0.3924 0.0
O277 O 0.93861 0.55717 0.35363 0.0
O278 O 0.90317 0.49639 0.454 0.0
O279 O 0.89048 0.52764 0.46976 0.0
O280 O 0.70331 0.34056 0.75298 0.0
Cd281 Cd 0.6825 0.33241 0.68255 0.0
Cd282 Cd 0.72075 0.33406 0.61152 0.0
O283 O 0.73158 0.34718 0.69705 0.0
O284 O 0.65749 0.33363 0.73847 0.0
O285 O 0.66212 0.35388 0.65279 0.0
C286 C 0.65135 0.34891 0.70341 0.0
C287 C 0.73082 0.34647 0.50898 0.0
C288 C 0.72179 0.34692 0.75077 0.0
C289 C 0.69839 0.29302 0.62632 0.0
O290 O 0.71492 0.30269 0.61258 0.0
O291 O 0.6829 0.3025 0.6496 0.0
O292 O 0.74366 0.33723 0.54714 0.0
O293 O 0.71235 0.34966 0.53037 0.0
O294 O 0.90149 0.45901 1.00463 0.0
Cd295 Cd 0.90941 0.43845 0.93328 0.0
Cd296 Cd 0.90743 0.4767 0.86326 0.0
O297 O 0.89454 0.48733 0.94915 0.0
O298 O 0.9085 0.41322 0.98852 0.0
O299 O 0.88791 0.4181 0.90373 0.0
C300 C 0.89314 0.40713 0.95376 0.0
C301 C 0.89434 0.48651 0.76137 0.0
C302 C 0.89503 0.47745 1.00278 0.0
C303 C 0.94852 0.45455 0.87544 0.0
O304 O 0.93885 0.47118 0.86297 0.0
O305 O 0.9391 0.43896 0.89852 0.0
O306 O 0.90366 0.49951 0.79874 0.0
O307 O 0.89149 0.46801 0.78324 0.0
O308 O 0.78211 0.6562 0.2588 0.0
Cd309 Cd 0.80263 0.66463 0.18789 0.0
Cd310 Cd 0.76432 0.66266 0.11761 0.0
O311 O 0.7538 0.64932 0.20321 0.0
O312 O 0.82783 0.66369 0.24322 0.0
O313 O 0.82317 0.64346 0.15764 0.0
C314 C 0.83406 0.64855 0.20794 0.0
C315 C 0.75446 0.65016 1.01508 0.0
C316 C 0.7637 0.64963 0.25682 0.0
C317 C 0.78624 0.70387 0.13155 0.0
O318 O 0.76972 0.6941 0.11838 0.0
O319 O 0.80186 0.69451 0.15456 0.0
O320 O 0.74146 0.65916 0.05307 0.0
O321 O 0.77298 0.64723 0.03671 0.0
O322 O 0.58201 0.5402 0.50904 0.0
Cd323 Cd 0.5739 0.56075 0.43777 0.0
Cd324 Cd 0.57654 0.52268 0.36693 0.0
O325 O 0.58978 0.51225 0.45304 0.0
O326 O 0.5751 0.58608 0.49223 0.0
O327 O 0.59545 0.58088 0.40728 0.0
C328 C 0.59046 0.59196 0.45718 0.0
C329 C 0.58918 0.51268 0.26466 0.0
C330 C 0.58897 0.52195 0.50692 0.0
C331 C 0.53505 0.54427 0.37979 0.0
O332 O 0.54506 0.52791 0.36685 0.0
O333 O 0.54415 0.55997 0.40335 0.0
O334 O 0.5802 0.49971 0.30296 0.0
O335 O 0.59203 0.53125 0.28583 0.0
O336 O 0.27971 0.3407 0.739 0.0
Cd337 Cd 0.3013 0.33203 0.67179 0.0
Cd338 Cd 0.26321 0.33293 0.59653 0.0
O339 O 0.25125 0.34505 0.68151 0.0
O340 O 0.3254 0.33261 0.73211 0.0
O341 O 0.32301 0.35264 0.64509 0.0
C342 C 0.33281 0.34739 0.69744 0.0
C343 C 0.25322 0.34593 0.49462 0.0
C344 C 0.26088 0.34581 0.73551 0.0
C345 C 0.28594 0.29227 0.61439 0.0
O346 O 0.26964 0.30173 0.59703 0.0
O347 O 0.3009 0.30194 0.64049 0.0
O348 O 0.24054 0.33589 0.53115 0.0
O349 O 0.27154 0.3494 0.5171 0.0
O350 O 0.39824 0.53488 0.50218 0.0
Cd351 Cd 0.40617 0.55629 0.43328 0.0
Cd352 Cd 0.40597 0.51783 0.3601 0.0
O353 O 0.39341 0.50634 0.44568 0.0
O354 O 0.40475 0.58081 0.49141 0.0
O355 O 0.38467 0.57689 0.40504 0.0
C356 C 0.38959 0.58728 0.45649 0.0
C357 C 0.39392 0.50714 0.25762 0.0
C358 C 0.39289 0.51609 0.49948 0.0
C359 C 0.44612 0.54175 0.37624 0.0
O360 O 0.43705 0.52501 0.36107 0.0
O361 O 0.43613 0.5567 0.40084 0.0
O362 O 0.40378 0.49476 0.29575 0.0
O363 O 0.38995 0.52547 0.27894 0.0
O364 O 0.20039 0.65673 0.25961 0.0
Cd365 Cd 0.1798 0.66464 0.18821 0.0
Cd366 Cd 0.21795 0.66219 0.11808 0.0
O367 O 0.22841 0.64897 0.20405 0.0
O368 O 0.15462 0.66375 0.24343 0.0
O369 O 0.1595 0.64299 0.15932 0.0
C370 C 0.14862 0.64822 0.20938 0.0
C371 C 0.22787 0.64956 1.01584 0.0
C372 C 0.21865 0.64982 0.25778 0.0
C373 C 0.19624 0.70357 0.13057 0.0
O374 O 0.21271 0.69365 0.11824 0.0
O375 O 0.18049 0.69435 0.15335 0.0
O376 O 0.24086 0.65856 0.05402 0.0
O377 O 0.20932 0.6467 0.03712 0.0
O378 O 0.07812 0.45782 0.02189 0.0
Cd379 Cd 0.0751 0.4391 0.94234 0.0
Cd380 Cd 0.07837 0.47592 0.88162 0.0
O381 O 0.09154 0.48435 0.96979 0.0
O382 O 0.07866 0.41127 0.98129 0.0
O383 O 0.10149 0.42582 0.91495 0.0
C384 C 0.09652 0.41091 0.9539 0.0
C385 C 0.09194 0.48559 0.78069 0.0
C386 C 0.08743 0.47503 0.02289 0.0
C387 C 0.03734 0.4545 0.88046 0.0
O388 O 0.04676 0.47171 0.87878 0.0
O389 O 0.04697 0.43818 0.89634 0.0
O390 O 0.08357 0.49893 0.819 0.0
O391 O 0.09386 0.46685 0.80164 0.0
O392 O 0.27858 0.65484 0.50201 0.0
Cd393 Cd 0.29977 0.66287 0.57146 0.0
Cd394 Cd 0.26137 0.66222 0.6438 0.0
O395 O 0.25008 0.64954 0.55822 0.0
O396 O 0.32446 0.66155 0.51406 0.0
O397 O 0.3203 0.64138 0.60014 0.0
C398 C 0.33082 0.64634 0.54897 0.0
C399 C 0.25095 0.64985 0.74606 0.0
C400 C 0.25988 0.6492 0.50451 0.0
C401 C 0.28484 0.70264 0.62855 0.0
O402 O 0.26815 0.69341 0.64322 0.0
O403 O 0.29993 0.6928 0.60422 0.0
O404 O 0.23839 0.6596 0.70822 0.0
O405 O 0.26932 0.64618 0.72456 0.0
O406 O 0.08531 0.53447 0.26634 0.0
Cd407 Cd 0.07658 0.55629 0.33272 0.0
Cd408 Cd 0.07705 0.51819 0.40902 0.0
O409 O 0.089 0.50597 0.32416 0.0
O410 O 0.07723 0.58016 0.27144 0.0
O411 O 0.09714 0.57812 0.35879 0.0
C412 C 0.09194 0.58772 0.30601 0.0
C413 C 0.09002 0.5081 0.51089 0.0
C414 C 0.0901 0.51556 0.27014 0.0
C415 C 0.03666 0.54137 0.39055 0.0
O416 O 0.04595 0.52504 0.40863 0.0
O417 O 0.04646 0.55611 0.36373 0.0
O418 O 0.07975 0.49553 0.47459 0.0
O419 O 0.09371 0.52636 0.48824 0.0
O420 O 0.20288 0.33413 0.98324 0.0
Cd421 Cd 0.1839 0.33105 0.06216 0.0
Cd422 Cd 0.22082 0.33399 0.12404 0.0
O423 O 0.22957 0.34699 0.03594 0.0
O424 O 0.15623 0.33444 0.02194 0.0
O425 O 0.17031 0.35737 0.0889 0.0
C426 C 0.15561 0.35229 0.04935 0.0
C427 C 0.23066 0.34755 0.22486 0.0
C428 C 0.22025 0.34314 0.98266 0.0
C429 C 0.19892 0.29315 0.1247 0.0
O430 O 0.2162 0.30243 0.12715 0.0
O431 O 0.18276 0.30289 0.10797 0.0
O432 O 0.24388 0.33891 0.1867 0.0
O433 O 0.21196 0.3497 0.20386 0.0
O434 O 0.40134 0.45626 0.74359 0.0
Cd435 Cd 0.40945 0.43558 0.81448 0.0
Cd436 Cd 0.40678 0.47373 0.88569 0.0
O437 O 0.39356 0.48419 0.79963 0.0
O438 O 0.40862 0.41047 0.75892 0.0
O439 O 0.38796 0.41513 0.84341 0.0
C440 C 0.39318 0.40433 0.79315 0.0
C441 C 0.39414 0.48373 0.98795 0.0
C442 C 0.39438 0.47451 0.74575 0.0
C443 C 0.44826 0.45211 0.87283 0.0
O444 O 0.43825 0.46848 0.88573 0.0
O445 O 0.43917 0.4364 0.84928 0.0
O446 O 0.40314 0.49669 0.94967 0.0
O447 O 0.39128 0.46517 0.96677 0.0
C448 C 0.1158 0.11981 0.93676 0.0
C449 C 0.1045 0.10764 0.98056 0.0
H450 H 0.13883 0.14319 0.92528 0.0
C451 C 0.10691 0.11078 0.04808 0.0
H452 H 0.11422 0.11762 0.88458 0.0
C453 C 0.12139 0.12494 0.07145 0.0
C454 C 0.13317 0.13663 0.02762 0.0
H455 H 0.09848 0.10144 0.08292 0.0
H456 H 0.12378 0.12634 0.1236 0.0
C457 C 0.12978 0.13445 0.96014 0.0
C458 C 0.10805 0.88677 0.2079 0.0
C459 C 0.10561 0.89031 0.27517 0.0
H460 H 0.12504 0.8709 0.13354 0.0
C461 C 0.11705 0.87859 0.31986 0.0
H462 H 0.09951 0.89577 0.17239 0.0
C463 C 0.13118 0.86396 0.29754 0.0
C464 C 0.13456 0.86136 0.23024 0.0
H465 H 0.11544 0.88109 0.37187 0.0
H466 H 0.1403 0.85554 0.33302 0.0
C467 C 0.12267 0.87264 0.18557 0.0
C468 C 0.37764 0.88587 0.54671 0.0
C469 C 0.38011 0.88912 0.47927 0.0
H470 H 0.36086 0.87001 0.62181 0.0
C471 C 0.36902 0.87687 0.43517 0.0
H472 H 0.38592 0.89526 0.58176 0.0
C473 C 0.35518 0.86203 0.4582 0.0
C474 C 0.35173 0.85972 0.52559 0.0
H475 H 0.37066 0.87914 0.38303 0.0
H476 H 0.34629 0.85323 0.4231 0.0
C477 C 0.3633 0.8715 0.56971 0.0
C478 C 0.36799 0.11836 0.81875 0.0
C479 C 0.37925 0.10668 0.77368 0.0
H480 H 0.34472 0.14133 0.83265 0.0
C481 C 0.37646 0.11023 0.70649 0.0
H482 H 0.36985 0.11584 0.87071 0.0
C483 C 0.36168 0.12431 0.68466 0.0
C484 C 0.34998 0.13554 0.72972 0.0
H485 H 0.38486 0.10126 0.67072 0.0
H486 H 0.35904 0.12605 0.63271 0.0
C487 C 0.3537 0.13295 0.79689 0.0
C488 C 0.8543 0.86327 0.29755 0.0
C489 C 0.85086 0.86063 0.23027 0.0
H490 H 0.87025 0.88033 0.37178 0.0
C491 C 0.86289 0.8717 0.18554 0.0
H492 H 0.84506 0.855 0.33308 0.0
C493 C 0.8777 0.8857 0.2078 0.0
C494 C 0.88018 0.88932 0.27504 0.0
H495 H 0.86048 0.86994 0.13351 0.0
H496 H 0.88633 0.89457 0.17223 0.0
C497 C 0.86862 0.87776 0.31979 0.0
C498 C 0.87805 0.1098 0.04617 0.0
C499 C 0.88053 0.10658 0.97874 0.0
H500 H 0.86118 0.12551 0.12115 0.0
C501 C 0.86937 0.11875 0.93456 0.0
H502 H 0.88639 0.10046 0.08129 0.0
C503 C 0.85543 0.13347 0.95747 0.0
C504 C 0.85197 0.13575 0.02485 0.0
H505 H 0.87101 0.1165 0.88243 0.0
H506 H 0.84649 0.14221 0.9223 0.0
C507 C 0.86362 0.12405 0.06906 0.0
C508 C 0.63112 0.13297 0.79651 0.0
C509 C 0.63455 0.13568 0.72926 0.0
H510 H 0.61522 0.1158 0.87064 0.0
C511 C 0.6226 0.12455 0.68444 0.0
H512 H 0.6403 0.14127 0.8321 0.0
C513 C 0.60786 0.11047 0.70659 0.0
C514 C 0.60535 0.10682 0.77382 0.0
H515 H 0.62501 0.12636 0.63244 0.0
H516 H 0.59927 0.10158 0.67097 0.0
C517 C 0.61687 0.11839 0.81865 0.0
C518 C 0.61578 0.87768 0.43443 0.0
C519 C 0.60444 0.8896 0.47864 0.0
H520 H 0.63897 0.85456 0.42214 0.0
C521 C 0.60694 0.88624 0.54605 0.0
H522 H 0.61413 0.88003 0.38232 0.0
C523 C 0.62155 0.87213 0.56893 0.0
C524 C 0.63337 0.8607 0.5247 0.0
H525 H 0.59847 0.89538 0.5812 0.0
H526 H 0.62399 0.87057 0.62102 0.0
C527 C 0.6299 0.86309 0.45731 0.0
C528 C 0.63031 0.63439 0.45711 0.0
C529 C 0.63363 0.63702 0.52446 0.0
H530 H 0.6141 0.61766 0.38266 0.0
C531 C 0.62117 0.62635 0.56897 0.0
H532 H 0.63986 0.64236 0.42176 0.0
C533 C 0.60605 0.61273 0.54648 0.0
C534 C 0.60364 0.60908 0.47922 0.0
H535 H 0.62348 0.62812 0.62104 0.0
H536 H 0.59708 0.60414 0.58191 0.0
C537 C 0.61565 0.62026 0.43466 0.0
C538 C 0.61692 0.37909 0.81623 0.0
C539 C 0.60589 0.39139 0.77204 0.0
H540 H 0.63953 0.35537 0.82853 0.0
C541 C 0.60845 0.38822 0.70461 0.0
H542 H 0.61521 0.38127 0.86836 0.0
C543 C 0.62276 0.37385 0.68175 0.0
C544 C 0.63422 0.36196 0.72598 0.0
H545 H 0.60021 0.39765 0.6695 0.0
H546 H 0.62522 0.37239 0.62967 0.0
C547 C 0.63073 0.36424 0.79334 0.0
C548 C 0.87797 0.38615 0.04331 0.0
C549 C 0.88033 0.38976 0.97601 0.0
H550 H 0.86095 0.37032 0.11793 0.0
C551 C 0.86872 0.37816 0.93149 0.0
H552 H 0.88664 0.39507 0.07868 0.0
C553 C 0.8545 0.3636 0.95402 0.0
C554 C 0.85121 0.36095 0.02137 0.0
H555 H 0.87025 0.38072 0.87946 0.0
H556 H 0.84525 0.35528 0.91868 0.0
C557 C 0.86326 0.3721 0.06586 0.0
C558 C 0.86311 0.62432 0.18523 0.0
C559 C 0.85147 0.63575 0.22995 0.0
H560 H 0.88602 0.60094 0.17203 0.0
C561 C 0.85505 0.63318 0.29722 0.0
H562 H 0.86058 0.62601 0.13322 0.0
C563 C 0.8691 0.61844 0.3195 0.0
C564 C 0.88028 0.60656 0.2748 0.0
H565 H 0.84611 0.64171 0.33275 0.0
H566 H 0.87084 0.61597 0.37153 0.0
C567 C 0.87767 0.61007 0.20752 0.0
C568 C 0.36322 0.37028 0.67829 0.0
C569 C 0.35045 0.35948 0.72162 0.0
H570 H 0.3874 0.3925 0.66763 0.0
C571 C 0.35332 0.36191 0.78925 0.0
H572 H 0.36128 0.36865 0.62602 0.0
C573 C 0.36784 0.37595 0.81312 0.0
C574 C 0.38015 0.38726 0.76973 0.0
H575 H 0.34353 0.35385 0.82371 0.0
H576 H 0.36904 0.37839 0.86529 0.0
C577 C 0.3782 0.38381 0.70221 0.0
C578 C 0.35132 0.63111 0.45858 0.0
C579 C 0.34801 0.63345 0.52602 0.0
H580 H 0.36695 0.61427 0.38336 0.0
C581 C 0.35982 0.62185 0.57008 0.0
H582 H 0.34225 0.63977 0.42354 0.0
C583 C 0.37434 0.60773 0.547 0.0
C584 C 0.37677 0.60451 0.47955 0.0
H585 H 0.35751 0.62337 0.62221 0.0
H586 H 0.38286 0.59852 0.58203 0.0
C587 C 0.36536 0.61651 0.4355 0.0
C588 C 0.10655 0.60799 0.21377 0.0
C589 C 0.10399 0.60534 0.28145 0.0
H590 H 0.12306 0.62358 0.13753 0.0
C591 C 0.11458 0.61835 0.32454 0.0
H592 H 0.09864 0.59801 0.1795 0.0
C593 C 0.12804 0.63336 0.30038 0.0
C594 C 0.13161 0.63511 0.23287 0.0
H595 H 0.11285 0.61658 0.37684 0.0
H596 H 0.13657 0.64276 0.33482 0.0
C597 C 0.12052 0.62254 0.18968 0.0
C598 C 0.10563 0.37513 0.98832 0.0
C599 C 0.11174 0.39544 0.97438 0.0
H600 H 0.11502 0.34526 0.02268 0.0
C601 C 0.13206 0.40163 0.98782 0.0
H602 H 0.08993 0.37015 0.9791 0.0
C603 C 0.14601 0.38777 1.01563 0.0
C604 C 0.14003 0.36736 0.02851 0.0
H605 H 0.13697 0.41736 0.97868 0.0
H606 H 0.16165 0.39286 0.02531 0.0
C607 C 0.11983 0.36103 1.0139 0.0
C608 C 0.22003 0.14511 0.88336 0.0
C609 C 0.23154 0.14604 0.94166 0.0
H610 H 0.22062 0.14552 0.77892 0.0
C611 C 0.25313 0.14506 0.93836 0.0
H612 H 0.20331 0.14554 0.88427 0.0
C613 C 0.26302 0.14506 0.87786 0.0
C614 C 0.25151 0.14595 0.81954 0.0
H615 H 0.26242 0.14559 0.9823 0.0
H616 H 0.27973 0.14545 0.87696 0.0
C617 C 0.22992 0.14502 0.82286 0.0
C618 C 0.09731 0.01033 0.18331 0.0
C619 C 0.09619 0.98875 0.18676 0.0
H620 H 0.09697 0.03696 0.12173 0.0
C621 C 0.09704 0.97725 0.12852 0.0
H622 H 0.09687 0.01963 0.22717 0.0
C623 C 0.09708 0.98716 0.06795 0.0
C624 C 0.09621 0.00875 0.06451 0.0
H625 H 0.09652 0.96054 0.12953 0.0
H626 H 0.09644 0.97787 0.02408 0.0
C627 C 0.09729 0.02024 0.12274 0.0
C628 C 0.22204 0.85196 0.37463 0.0
C629 C 0.23344 0.85069 0.31627 0.0
H630 H 0.22278 0.8516 0.47909 0.0
C631 C 0.25505 0.85121 0.31946 0.0
H632 H 0.20532 0.8519 0.37383 0.0
C633 C 0.26503 0.85105 0.37992 0.0
C634 C 0.25359 0.85043 0.43832 0.0
H635 H 0.26427 0.85042 0.2755 0.0
H636 H 0.28172 0.85028 0.38073 0.0
C637 C 0.23202 0.85186 0.4351 0.0
C638 C 0.38811 0.01998 0.62563 0.0
C639 C 0.38882 0.0085 0.68405 0.0
H640 H 0.38871 0.01931 0.52121 0.0
C641 C 0.38743 0.98692 0.68088 0.0
H642 H 0.38883 0.03669 0.6264 0.0
C643 C 0.38733 0.97699 0.62045 0.0
C644 C 0.38856 0.98844 0.56206 0.0
H645 H 0.38775 0.97765 0.72489 0.0
H646 H 0.38746 0.96027 0.61969 0.0
C647 C 0.38796 0.01005 0.5652 0.0
C648 C 0.76346 0.85315 0.37485 0.0
C649 C 0.75196 0.85206 0.31654 0.0
H650 H 0.76286 0.85275 0.47929 0.0
C651 C 0.73037 0.853 0.31981 0.0
H652 H 0.78017 0.85277 0.37399 0.0
C653 C 0.72047 0.85302 0.3803 0.0
C654 C 0.73197 0.85214 0.43864 0.0
H655 H 0.72107 0.85239 0.27588 0.0
H656 H 0.70376 0.85254 0.38117 0.0
C657 C 0.75356 0.85321 0.43534 0.0
C658 C 0.88871 0.98581 0.06609 0.0
C659 C 0.88924 0.00742 0.06265 0.0
H660 H 0.8896 0.9592 0.12769 0.0
C661 C 0.88788 0.01889 0.12085 0.0
H662 H 0.88955 0.97653 0.02224 0.0
C663 C 0.88793 0.00898 0.18142 0.0
C664 C 0.88939 0.98742 0.18492 0.0
H665 H 0.88794 0.03561 0.11984 0.0
H666 H 0.88815 0.01828 0.2253 0.0
C667 C 0.88881 0.9759 0.12667 0.0
C668 C 0.73198 0.144 0.93469 0.0
C669 C 0.75357 0.14516 0.93796 0.0
H670 H 0.7053 0.14437 0.87338 0.0
C671 C 0.76501 0.14444 0.87958 0.0
H672 H 0.72273 0.14435 0.97866 0.0
C673 C 0.75504 0.14448 0.8191 0.0
C674 C 0.73344 0.14529 0.81587 0.0
H675 H 0.78172 0.145 0.88043 0.0
H676 H 0.76429 0.14519 0.77516 0.0
C677 C 0.72201 0.14409 0.87421 0.0
C678 C 0.59667 0.98691 0.68205 0.0
C679 C 0.59551 0.0085 0.68521 0.0
H680 H 0.59633 0.96026 0.62088 0.0
C681 C 0.59626 0.01997 0.62679 0.0
H682 H 0.59631 0.97764 0.72606 0.0
C683 C 0.59625 0.01004 0.56636 0.0
C684 C 0.59544 0.98843 0.56324 0.0
H685 H 0.5957 0.03668 0.62755 0.0
H686 H 0.59555 0.0193 0.52236 0.0
C687 C 0.59661 0.97698 0.62163 0.0
C688 C 0.72186 0.64327 0.383 0.0
C689 C 0.73332 0.64469 0.44131 0.0
H690 H 0.72248 0.64347 0.27856 0.0
C691 C 0.75493 0.64417 0.4381 0.0
H692 H 0.70514 0.64332 0.38383 0.0
C693 C 0.76484 0.64424 0.37762 0.0
C694 C 0.75333 0.64478 0.31925 0.0
H695 H 0.7642 0.64507 0.48203 0.0
H696 H 0.78154 0.64504 0.37677 0.0
C697 C 0.73177 0.64329 0.32253 0.0
C698 C 0.59412 0.52289 0.62787 0.0
C699 C 0.59395 0.51153 0.56929 0.0
H700 H 0.59346 0.52196 0.73229 0.0
C701 C 0.59613 0.49002 0.57222 0.0
H702 H 0.59278 0.53956 0.62731 0.0
C703 C 0.59657 0.47996 0.63254 0.0
C704 C 0.59487 0.49121 0.69108 0.0
H705 H 0.59624 0.48084 0.52808 0.0
H706 H 0.59709 0.46324 0.63309 0.0
C707 C 0.59461 0.51283 0.68819 0.0
C708 C 0.72087 0.35249 0.87143 0.0
C709 C 0.73232 0.35162 0.81308 0.0
H710 H 0.72158 0.35187 0.97586 0.0
C711 C 0.75391 0.35264 0.81635 0.0
H712 H 0.70416 0.35204 0.87057 0.0
C713 C 0.76387 0.35256 0.87684 0.0
C714 C 0.75243 0.35152 0.93518 0.0
H715 H 0.76316 0.35217 0.77239 0.0
H716 H 0.78058 0.35217 0.87769 0.0
C717 C 0.73083 0.35247 0.93192 0.0
C718 C 0.88908 0.51933 0.12902 0.0
C719 C 0.89017 0.50784 0.18733 0.0
H720 H 0.8895 0.51874 0.02459 0.0
C721 C 0.88949 0.48623 0.18404 0.0
H722 H 0.88927 0.53605 0.12991 0.0
C723 C 0.88963 0.47633 0.12354 0.0
C724 C 0.89036 0.48785 0.06522 0.0
H725 H 0.89015 0.47694 0.22799 0.0
H726 H 0.89025 0.45963 0.12264 0.0
C727 C 0.88913 0.50944 0.06852 0.0
C728 C 0.22832 0.34706 0.80053 0.0
C729 C 0.24977 0.34976 0.79707 0.0
H730 H 0.20213 0.34283 0.86239 0.0
C731 C 0.26095 0.35319 0.855 0.0
H732 H 0.21928 0.34444 0.75682 0.0
C733 C 0.25116 0.35226 0.91555 0.0
C734 C 0.23002 0.34774 0.91924 0.0
H735 H 0.27751 0.35553 0.85382 0.0
H736 H 0.26036 0.35393 0.95938 0.0
C737 C 0.21855 0.34597 0.86112 0.0
C738 C 0.38874 0.4836 0.56448 0.0
C739 C 0.38858 0.50522 0.56154 0.0
H740 H 0.39045 0.45688 0.62543 0.0
C741 C 0.38696 0.5165 0.62005 0.0
H742 H 0.38982 0.47446 0.52041 0.0
C743 C 0.38736 0.50646 0.6804 0.0
C744 C 0.38943 0.48493 0.68338 0.0
H745 H 0.38652 0.53322 0.61945 0.0
H746 H 0.38731 0.51565 0.72451 0.0
C747 C 0.38919 0.47356 0.62483 0.0
C748 C 0.22754 0.64455 0.43919 0.0
C749 C 0.24916 0.64468 0.4424 0.0
H750 H 0.20089 0.64582 0.37786 0.0
C751 C 0.26054 0.6431 0.38408 0.0
H752 H 0.21833 0.64559 0.48312 0.0
C753 C 0.25057 0.64325 0.32361 0.0
C754 C 0.22903 0.64505 0.32033 0.0
H755 H 0.27725 0.64286 0.38491 0.0
H756 H 0.25982 0.64324 0.27962 0.0
C757 C 0.21758 0.64477 0.37871 0.0
C758 C 0.09087 0.48297 0.20518 0.0
C759 C 0.09407 0.50435 0.20877 0.0
H760 H 0.08624 0.45689 0.14311 0.0
C761 C 0.09799 0.51546 0.151 0.0
H762 H 0.08786 0.474 0.24877 0.0
C763 C 0.09706 0.50569 0.09041 0.0
C764 C 0.09204 0.48467 0.08651 0.0
H765 H 0.10072 0.53196 0.15231 0.0
H766 H 0.09912 0.51486 0.04667 0.0
C767 C 0.08978 0.47323 0.14453 0.0
C768 C 0.17953 0.23808 0.12378 0.0
C769 C 0.19765 0.22703 0.13796 0.0
H770 H 0.16564 0.26765 0.10917 0.0
C771 C 0.21564 0.238 0.15431 0.0
H772 H 0.16535 0.23011 0.11149 0.0
C773 C 0.21582 0.25955 0.15282 0.0
C774 C 0.19799 0.27058 0.13521 0.0
H775 H 0.22984 0.22998 0.16587 0.0
H776 H 0.23014 0.26752 0.16335 0.0
C777 C 0.17969 0.25963 0.12255 0.0
C778 C 0.00354 0.97164 0.40118 0.0
C779 C 0.01465 0.95417 0.38088 0.0
H780 H 0.97391 0.98543 0.4151 0.0
C781 C 0.00374 0.93626 0.36328 0.0
H782 H 0.01145 0.98567 0.41539 0.0
C783 C 0.9822 0.93613 0.36312 0.0
C784 C 0.97109 0.9539 0.38054 0.0
H785 H 0.01181 0.92249 0.34778 0.0
H786 H 0.9743 0.92225 0.34748 0.0
C787 C 0.98199 0.97151 0.40101 0.0
C788 C 0.30452 0.75751 0.61544 0.0
C789 C 0.2871 0.76891 0.63452 0.0
H790 H 0.31754 0.72768 0.59897 0.0
C791 C 0.26956 0.75828 0.65697 0.0
H792 H 0.31833 0.7652 0.59824 0.0
C793 C 0.26911 0.73673 0.65742 0.0
C794 C 0.28618 0.72534 0.6354 0.0
H795 H 0.25592 0.76657 0.67242 0.0
H796 H 0.25513 0.72904 0.67316 0.0
C797 C 0.30406 0.73597 0.61586 0.0
C798 C 0.48152 0.06054 0.86072 0.0
C799 C 0.47051 0.04272 0.87871 0.0
H800 H 0.51105 0.07437 0.84493 0.0
C801 C 0.48152 0.02524 0.89973 0.0
H802 H 0.47354 0.07432 0.84465 0.0
C803 C 0.50307 0.02527 0.8999 0.0
C804 C 0.51408 0.04278 0.87905 0.0
H805 H 0.47353 0.01129 0.91428 0.0
H806 H 0.51107 0.01134 0.91457 0.0
C807 C 0.50306 0.06057 0.86088 0.0
C808 C 0.2141 0.75844 0.10141 0.0
C809 C 0.19692 0.76983 0.12249 0.0
H810 H 0.22734 0.72858 0.08699 0.0
C811 C 0.17891 0.75922 0.14083 0.0
H812 H 0.22819 0.76612 0.0866 0.0
C813 C 0.17841 0.73768 0.14102 0.0
C814 C 0.19593 0.72627 0.12293 0.0
H815 H 0.16534 0.76752 0.15693 0.0
H816 H 0.16449 0.73 0.15732 0.0
C817 C 0.21361 0.73689 0.10164 0.0
C818 C 0.4812 0.93592 0.38889 0.0
C819 C 0.47019 0.95359 0.36952 0.0
H820 H 0.51072 0.92226 0.40599 0.0
C821 C 0.4812 0.97093 0.34739 0.0
H822 H 0.47321 0.92224 0.40585 0.0
C823 C 0.50275 0.97094 0.34747 0.0
C824 C 0.51376 0.9536 0.36968 0.0
H825 H 0.47321 0.98476 0.33177 0.0
H826 H 0.51075 0.98478 0.33191 0.0
C827 C 0.50274 0.93593 0.38896 0.0
C828 C 0.30415 0.23719 0.63483 0.0
C829 C 0.28649 0.22601 0.61651 0.0
H830 H 0.31793 0.26687 0.64798 0.0
C831 C 0.26935 0.23676 0.59166 0.0
H832 H 0.31768 0.2294 0.65374 0.0
C833 C 0.26951 0.25828 0.58822 0.0
C834 C 0.2868 0.26951 0.60964 0.0
H835 H 0.25554 0.22861 0.57665 0.0
H836 H 0.2558 0.2661 0.57085 0.0
C837 C 0.30431 0.25871 0.63146 0.0
C838 C 0.98177 0.06042 0.88891 0.0
C839 C 0.97087 0.04265 0.86988 0.0
H840 H 0.01121 0.07432 0.90584 0.0
C841 C 0.98199 0.02536 0.84817 0.0
H842 H 0.9737 0.07406 0.90554 0.0
C843 C 0.00354 0.02551 0.84834 0.0
C844 C 0.01444 0.04295 0.87022 0.0
H845 H 0.97408 0.01146 0.83282 0.0
H846 H 0.01163 0.01171 0.83312 0.0
C847 C 0.00331 0.06057 0.88908 0.0
C848 C 0.80455 0.73775 0.14211 0.0
C849 C 0.78681 0.72659 0.12433 0.0
H850 H 0.81815 0.76739 0.15768 0.0
C851 C 0.76921 0.73745 0.10352 0.0
H852 H 0.81841 0.72987 0.15802 0.0
C853 C 0.76906 0.75901 0.10331 0.0
C854 C 0.7865 0.77016 0.12393 0.0
H855 H 0.75532 0.72934 0.08915 0.0
H856 H 0.75506 0.76689 0.0888 0.0
C857 C 0.8044 0.75929 0.14193 0.0
C858 C 0.71533 0.23783 0.5987 0.0
C859 C 0.69808 0.22672 0.62098 0.0
H860 H 0.72893 0.26746 0.58245 0.0
C861 C 0.68031 0.23762 0.63975 0.0
H862 H 0.72924 0.22992 0.58352 0.0
C863 C 0.68014 0.25917 0.63911 0.0
C864 C 0.69772 0.27029 0.61971 0.0
H865 H 0.6667 0.22955 0.65679 0.0
H866 H 0.6664 0.26708 0.65572 0.0
C867 C 0.71516 0.25938 0.59808 0.0
C868 C 0.77016 0.25907 0.1522 0.0
C869 C 0.7875 0.27017 0.13059 0.0
H870 H 0.75648 0.22944 0.16782 0.0
C871 C 0.80533 0.25926 0.11245 0.0
H872 H 0.75621 0.26698 0.16688 0.0
C873 C 0.80549 0.23772 0.11301 0.0
C874 C 0.78782 0.2266 0.13171 0.0
H875 H 0.81901 0.26733 0.09595 0.0
H876 H 0.81928 0.22981 0.09689 0.0
C877 C 0.77031 0.23752 0.15275 0.0
C878 C 0.7157 0.73785 0.65455 0.0
C879 C 0.69838 0.72671 0.63288 0.0
H880 H 0.72936 0.76751 0.66962 0.0
C881 C 0.6806 0.73759 0.61388 0.0
H882 H 0.72962 0.72996 0.66985 0.0
C883 C 0.68044 0.75913 0.61377 0.0
C884 C 0.69808 0.77028 0.63263 0.0
H885 H 0.66693 0.7295 0.5973 0.0
H886 H 0.66667 0.76701 0.59708 0.0
C887 C 0.71555 0.75941 0.65442 0.0
C888 C 0.50404 0.43519 0.86247 0.0
C889 C 0.5145 0.45312 0.8825 0.0
H890 H 0.47495 0.42074 0.84411 0.0
C891 C 0.50294 0.47006 0.90467 0.0
H892 H 0.51246 0.42181 0.84547 0.0
C893 C 0.48141 0.46945 0.90385 0.0
C894 C 0.47095 0.45187 0.8809 0.0
H895 H 0.5105 0.48407 0.92079 0.0
H896 H 0.47299 0.483 0.91941 0.0
C897 C 0.48251 0.43457 0.8617 0.0
C898 C 0.98099 0.52553 0.41488 0.0
C899 C 0.9704 0.54264 0.38918 0.0
H900 H 0.01021 0.51177 0.43613 0.0
C901 C 0.98176 0.56007 0.36967 0.0
H902 H 0.97272 0.5119 0.43082 0.0
C903 C 0.00328 0.56 0.37274 0.0
C904 C 0.01391 0.5425 0.39546 0.0
H905 H 0.97409 0.57358 0.35005 0.0
H906 H 0.01157 0.57344 0.35531 0.0
C907 C 0.00252 0.52547 0.41804 0.0
C908 C 0.98232 0.47185 0.85244 0.0
C909 C 0.97121 0.45386 0.86801 0.0
H910 H 0.01194 0.48614 0.84375 0.0
C911 C 0.98213 0.43558 0.88112 0.0
H912 H 0.9744 0.48617 0.84171 0.0
C913 C 0.00367 0.43554 0.88206 0.0
C914 C 0.01476 0.45381 0.87018 0.0
H915 H 0.97405 0.4214 0.89277 0.0
H916 H 0.01158 0.42136 0.89461 0.0
C917 C 0.00387 0.47183 0.85364 0.0
C918 C 0.47926 0.56122 0.38989 0.0
C919 C 0.46881 0.54329 0.3698 0.0
H920 H 0.50835 0.57566 0.40843 0.0
C921 C 0.48037 0.52634 0.34772 0.0
H922 H 0.47084 0.5746 0.40685 0.0
C923 C 0.50191 0.52695 0.34866 0.0
C924 C 0.51236 0.54452 0.37167 0.0
H925 H 0.47282 0.51233 0.33155 0.0
H926 H 0.51033 0.51339 0.33315 0.0
C927 C 0.5008 0.56182 0.3908 0.0
C928 C 0.25655 0.14416 0.33236 0.0
C929 C 0.23567 0.14512 0.31375 0.0
H930 H 0.27832 0.14414 0.41119 0.0
C931 C 0.22043 0.14422 0.36233 0.0
H932 H 0.26864 0.14473 0.29594 0.0
C933 C 0.22599 0.14423 0.42838 0.0
C934 C 0.24688 0.1447 0.44701 0.0
H935 H 0.20423 0.14497 0.34953 0.0
H936 H 0.21391 0.14488 0.46482 0.0
C937 C 0.2621 0.14374 0.39839 0.0
C938 C 0.09623 0.978 0.60786 0.0
C939 C 0.09536 -0.00677 0.55908 0.0
H940 H 0.09542 0.97148 0.7104 0.0
C941 C 0.09604 0.01412 0.57751 0.0
H942 H 0.09568 0.96179 0.59522 0.0
C943 C 0.09625 0.01968 0.6435 0.0
C944 C 0.09535 0.00445 0.69228 0.0
H945 H 0.09547 0.0262 0.54095 0.0
H946 H 0.09571 0.0359 0.65614 0.0
C947 C 0.09601 0.98356 0.67385 0.0
C948 C 0.25868 0.85038 0.92595 0.0
C949 C 0.23776 0.85001 0.94413 0.0
H950 H 0.28054 0.84987 0.84757 0.0
C951 C 0.22261 0.85123 0.89517 0.0
H952 H 0.2707 0.84954 0.96265 0.0
C953 C 0.22825 0.85105 0.82924 0.0
C954 C 0.24915 0.85009 0.81104 0.0
H955 H 0.20638 0.85092 0.90762 0.0
H956 H 0.21621 0.85073 0.79253 0.0
C957 C 0.26432 0.85065 0.86003 0.0
C958 C 0.38882 0.98311 0.07509 0.0
C959 C 0.38965 0.004 0.05652 0.0
H960 H 0.38899 0.9613 0.15387 0.0
C961 C 0.3889 0.01921 0.1052 0.0
H962 H 0.38929 0.97103 0.03861 0.0
C963 C 0.3891 0.01363 0.17123 0.0
C964 C 0.3896 -0.00727 0.1898 0.0
H965 H 0.38957 0.03543 0.09245 0.0
H966 H 0.38979 0.0257 0.20771 0.0
C967 C 0.38858 0.97753 0.14112 0.0
C968 C 0.72668 0.85159 0.92579 0.0
C969 C 0.74757 0.85096 0.94448 0.0
H970 H 0.70494 0.85132 0.8469 0.0
C971 C 0.7628 0.85197 0.8959 0.0
H972 H 0.7146 0.85092 0.96219 0.0
C973 C 0.75726 0.85185 0.82984 0.0
C974 C 0.73639 0.85114 0.81114 0.0
H975 H 0.77902 0.85146 0.90874 0.0
H976 H 0.76936 0.85137 0.79343 0.0
C977 C 0.72115 0.8519 0.85974 0.0
C978 C 0.88974 0.9823 0.67225 0.0
C979 C 0.89022 0.0032 0.69069 0.0
H980 H 0.89017 0.96053 0.59361 0.0
C981 C 0.88906 0.01842 0.64193 0.0
H982 H 0.89052 0.97023 0.7088 0.0
C983 C 0.88922 0.01286 0.57593 0.0
C984 C 0.89009 0.99198 0.55748 0.0
H985 H 0.88945 0.03464 0.65457 0.0
H986 H 0.8896 0.02495 0.53937 0.0
C987 C 0.88946 0.97674 0.60627 0.0
C988 C 0.76437 0.14525 0.35958 0.0
C989 C 0.74918 0.14589 0.31065 0.0
H990 H 0.77079 0.14634 0.46217 0.0
C991 C 0.72828 0.14507 0.32893 0.0
H992 H 0.78059 0.14592 0.34705 0.0
C993 C 0.72267 0.14494 0.39488 0.0
C994 C 0.73784 0.14608 0.44377 0.0
H995 H 0.71623 0.14546 0.29225 0.0
H996 H 0.70644 0.14536 0.40737 0.0
C997 C 0.75875 0.14557 0.42552 0.0
C998 C 0.59556 0.9775 0.14239 0.0
C999 C 0.59456 -0.00729 0.19107 0.0
H1000 H 0.59492 0.97102 0.03986 0.0
C1001 C 0.59519 0.01361 0.17252 0.0
H1002 H 0.59504 0.96128 0.15512 0.0
C1003 C 0.59549 0.01919 0.10651 0.0
C1004 C 0.59472 0.00398 0.0578 0.0
H1005 H 0.59453 0.02567 0.209 0.0
H1006 H 0.59492 0.03542 0.09376 0.0
C1007 C 0.59542 0.98309 0.07636 0.0
C1008 C 0.72791 0.64485 0.92779 0.0
C1009 C 0.74879 0.64571 0.94649 0.0
H1010 H 0.70615 0.64515 0.84892 0.0
C1011 C 0.76403 0.64515 0.89787 0.0
H1012 H 0.71582 0.64517 0.96423 0.0
C1013 C 0.75848 0.6455 0.83182 0.0
C1014 C 0.73759 0.64598 0.81316 0.0
H1015 H 0.78023 0.64586 0.91071 0.0
H1016 H 0.77056 0.64632 0.79542 0.0
C1017 C 0.72237 0.64476 0.86174 0.0
C1018 C 0.59398 0.52201 0.14704 0.0
C1019 C 0.59371 0.5069 0.19625 0.0
H1020 H 0.59274 0.52823 0.04432 0.0
C1021 C 0.59498 0.48599 0.17832 0.0
H1022 H 0.59295 0.53823 0.15928 0.0
C1023 C 0.59524 0.48027 0.11246 0.0
C1024 C 0.59377 0.49533 0.06328 0.0
H1025 H 0.59486 0.474 0.21521 0.0
H1026 H 0.5952 0.46401 0.10024 0.0
C1027 C 0.59378 0.51627 0.08119 0.0
C1028 C 0.75751 0.35168 0.42224 0.0
C1029 C 0.73661 0.35094 0.4405 0.0
H1030 H 0.77936 0.35137 0.34382 0.0
C1031 C 0.72143 0.3517 0.39157 0.0
H1032 H 0.76956 0.3512 0.45893 0.0
C1033 C 0.72705 0.35142 0.32563 0.0
C1034 C 0.74796 0.35083 0.30739 0.0
H1035 H 0.70521 0.35109 0.40408 0.0
H1036 H 0.71501 0.35074 0.28897 0.0
C1037 C 0.76313 0.35185 0.3563 0.0
C1038 C 0.88854 0.47694 0.64451 0.0
C1039 C 0.88942 0.49219 0.69309 0.0
H1040 H 0.88922 0.47042 0.54202 0.0
C1041 C 0.88846 0.51306 0.67446 0.0
H1042 H 0.8893 0.46073 0.65732 0.0
C1043 C 0.88804 0.51861 0.60843 0.0
C1044 C 0.88902 0.50339 0.55981 0.0
H1045 H 0.88901 0.52515 0.71088 0.0
H1046 H 0.88843 0.53483 0.59562 0.0
C1047 C 0.88856 0.4825 0.57846 0.0
C1048 C 0.25714 0.35315 0.31217 0.0
C1049 C 0.23628 0.35208 0.2934 0.0
H1050 H 0.27889 0.35258 0.39109 0.0
C1051 C 0.22102 0.35222 0.34202 0.0
H1052 H 0.26924 0.35315 0.27575 0.0
C1053 C 0.22656 0.35152 0.408 0.0
C1054 C 0.24745 0.35111 0.42664 0.0
H1055 H 0.20483 0.35135 0.32914 0.0
H1056 H 0.21449 0.3503 0.44431 0.0
C1057 C 0.26267 0.35288 0.37824 0.0
C1058 C 0.38835 0.51042 0.07428 0.0
C1059 C 0.38961 0.48951 0.05635 0.0
H1060 H 0.38814 0.5324 0.15237 0.0
C1061 C 0.38932 0.47439 0.10555 0.0
H1062 H 0.38847 0.52241 0.03739 0.0
C1063 C 0.38952 0.48013 0.1714 0.0
C1064 C 0.38954 0.50108 0.18931 0.0
H1065 H 0.39035 0.45817 0.0933 0.0
H1066 H 0.39055 0.46817 0.20826 0.0
C1067 C 0.38809 0.51614 0.14014 0.0
C1068 C 0.21842 0.64472 0.89837 0.0
C1069 C 0.2336 0.64507 0.94738 0.0
H1070 H 0.21207 0.64603 0.79577 0.0
C1071 C 0.25448 0.64397 0.92919 0.0
H1072 H 0.20221 0.64562 0.91083 0.0
C1073 C 0.26013 0.64384 0.86327 0.0
C1074 C 0.245 0.64526 0.81432 0.0
H1075 H 0.26652 0.64414 0.96593 0.0
H1076 H 0.27637 0.64403 0.85085 0.0
C1077 C 0.22408 0.64504 0.83247 0.0
C1078 C 0.09734 0.5175 0.6271 0.0
C1079 C 0.09525 0.50228 0.57879 0.0
H1080 H 0.09795 0.52409 0.72955 0.0
C1081 C 0.09543 0.48139 0.59748 0.0
H1082 H 0.09723 0.53371 0.61419 0.0
C1083 C 0.09622 0.47586 0.66347 0.0
C1084 C 0.09641 0.49114 0.71204 0.0
H1085 H 0.09397 0.46932 0.56124 0.0
H1086 H 0.09517 0.45968 0.67641 0.0
C1087 C 0.09771 0.51198 0.69317 0.0
loop_
_geom_bond_atom_site_label_1
_geom_bond_atom_site_label_2
_geom_bond_distance
_geom_bond_site_symmetry_2
_ccdc_geom_bond_type
O0 Cd1 2.223 1_556 S
O0 C8 1.315 . S
Cd1 O0 2.223 1_554 S
Cd1 O4 2.297 1_554 S
Cd1 O5 2.439 . S
Cd1 O11 2.240 . S
Cd2 O3 2.240 . S
Cd2 O10 2.223 . S
Cd2 O12 2.297 . S
Cd2 O13 2.439 . S
O3 Cd2 2.240 . S
O3 C8 1.279 1_554 S
O4 Cd1 2.297 1_556 S
O4 C6 1.247 1_556 S
O5 Cd1 2.439 . S
O5 C6 1.208 . S
C6 O4 1.247 1_554 S
C6 O5 1.208 . S
C7 O12 1.247 . S
C7 O13 1.208 . S
C8 O0 1.315 . S
C8 O3 1.279 1_556 S
C9 O10 1.315 . S
C9 O11 1.279 . S
O10 Cd2 2.223 . S
O10 C9 1.315 . S
O11 Cd1 2.240 . S
O11 C9 1.279 . S
O12 Cd2 2.297 . S
O12 C7 1.247 . S
O13 Cd2 2.439 . S
O13 C7 1.208 . S
O14 Cd15 2.223 . S
O14 C22 1.315 . S
Cd15 O14 2.223 . S
Cd15 O18 2.297 . S
Cd15 O19 2.439 . S
Cd15 O25 2.240 . S
Cd16 O17 2.240 1_545 S
Cd16 O24 2.224 . S
Cd16 O26 2.297 . S
Cd16 O27 2.439 1_545 S
O17 Cd16 2.240 1_565 S
O17 C22 1.279 . S
O18 Cd15 2.297 . S
O18 C20 1.247 . S
O19 Cd15 2.439 . S
O19 C20 1.208 . S
C20 O18 1.247 . S
C20 O19 1.208 . S
C21 O26 1.247 1_565 S
C21 O27 1.208 . S
C22 O14 1.315 . S
C22 O17 1.279 . S
C23 O24 1.312 1_565 S
C23 O25 1.279 . S
O24 Cd16 2.224 . S
O24 C23 1.312 1_545 S
O25 Cd15 2.240 . S
O25 C23 1.279 . S
O26 Cd16 2.297 . S
O26 C21 1.247 1_545 S
O27 Cd16 2.439 1_565 S
O27 C21 1.208 . S
O28 Cd29 2.223 . S
O28 C36 1.315 . S
Cd29 O28 2.223 . S
Cd29 O32 2.297 . S
Cd29 O33 2.439 . S
Cd29 O39 2.240 . S
Cd30 O31 2.240 . S
Cd30 O38 2.223 . S
Cd30 O40 2.297 . S
Cd30 O41 2.439 . S
O31 Cd30 2.240 . S
O31 C36 1.279 . S
O32 Cd29 2.297 . S
O32 C34 1.247 . S
O33 Cd29 2.439 . S
O33 C34 1.208 . S
C34 O32 1.247 . S
C34 O33 1.208 . S
C35 O40 1.247 . S
C35 O41 1.208 . S
C36 O28 1.315 . S
C36 O31 1.279 . S
C37 O38 1.315 . S
C37 O39 1.279 . S
O38 Cd30 2.223 . S
O38 C37 1.315 . S
O39 Cd29 2.240 . S
O39 C37 1.279 . S
O40 Cd30 2.297 . S
O40 C35 1.247 . S
O41 Cd30 2.439 . S
O41 C35 1.208 . S
O42 Cd43 2.223 . S
O42 C50 1.315 . S
Cd43 O42 2.223 . S
Cd43 O46 2.297 . S
Cd43 O47 2.439 . S
Cd43 O53 2.240 . S
Cd44 O45 2.240 . S
Cd44 O52 2.223 . S
Cd44 O54 2.297 . S
Cd44 O55 2.439 . S
O45 Cd44 2.240 . S
O45 C50 1.279 . S
O46 Cd43 2.297 . S
O46 C48 1.247 . S
O47 Cd43 2.439 . S
O47 C48 1.208 . S
C48 O46 1.247 . S
C48 O47 1.208 . S
C49 O54 1.247 . S
C49 O55 1.208 . S
C50 O42 1.315 . S
C50 O45 1.279 . S
C51 O52 1.315 . S
C51 O53 1.279 . S
O52 Cd44 2.223 . S
O52 C51 1.315 . S
O53 Cd43 2.240 . S
O53 C51 1.279 . S
O54 Cd44 2.297 . S
O54 C49 1.247 . S
O55 Cd44 2.439 . S
O55 C49 1.208 . S
O56 Cd57 2.223 . S
O56 C64 1.315 . S
Cd57 O56 2.223 . S
Cd57 O60 2.297 . S
Cd57 O61 2.439 . S
Cd57 O67 2.240 . S
Cd58 O59 2.240 . S
Cd58 O66 2.223 . S
Cd58 O68 2.297 . S
Cd58 O69 2.439 . S
O59 Cd58 2.240 . S
O59 C64 1.279 . S
O60 Cd57 2.297 . S
O60 C62 1.247 . S
O61 Cd57 2.439 . S
O61 C62 1.208 . S
C62 O60 1.247 . S
C62 O61 1.208 . S
C63 O68 1.247 1_556 S
C63 O69 1.208 1_556 S
C64 O56 1.315 . S
C64 O59 1.279 . S
C65 O66 1.315 . S
C65 O67 1.279 . S
O66 Cd58 2.223 . S
O66 C65 1.315 . S
O67 Cd57 2.240 . S
O67 C65 1.279 . S
O68 Cd58 2.297 . S
O68 C63 1.247 1_554 S
O69 Cd58 2.439 . S
O69 C63 1.208 1_554 S
O70 Cd71 2.223 . S
O70 C78 1.315 . S
Cd71 O70 2.223 . S
Cd71 O74 2.297 . S
Cd71 O75 2.439 . S
Cd71 O81 2.240 . S
Cd72 O73 2.240 1_545 S
Cd72 O80 2.223 . S
Cd72 O82 2.297 . S
Cd72 O83 2.439 1_545 S
O73 Cd72 2.240 1_565 S
O73 C78 1.279 . S
O74 Cd71 2.297 . S
O74 C76 1.247 . S
O75 Cd71 2.439 . S
O75 C76 1.208 . S
C76 O74 1.247 . S
C76 O75 1.208 . S
C77 O82 1.247 1_565 S
C77 O83 1.208 . S
C78 O70 1.315 . S
C78 O73 1.279 . S
C79 O80 1.312 1_565 S
C79 O81 1.279 . S
O80 Cd72 2.223 . S
O80 C79 1.312 1_545 S
O81 Cd71 2.240 . S
O81 C79 1.279 . S
O82 Cd72 2.297 . S
O82 C77 1.247 1_545 S
O83 Cd72 2.439 1_565 S
O83 C77 1.208 . S
O84 Cd85 2.223 . S
O84 C92 1.315 . S
Cd85 O84 2.223 . S
Cd85 O88 2.297 . S
Cd85 O89 2.439 . S
Cd85 O95 2.240 . S
Cd86 O87 2.240 . S
Cd86 O94 2.223 . S
Cd86 O96 2.297 . S
Cd86 O97 2.439 . S
O87 Cd86 2.240 . S
O87 C92 1.279 . S
O88 Cd85 2.297 . S
O88 C90 1.247 . S
O89 Cd85 2.439 . S
O89 C90 1.208 . S
C90 O88 1.247 . S
C90 O89 1.208 . S
C91 O96 1.247 . S
C91 O97 1.208 . S
C92 O84 1.315 . S
C92 O87 1.279 . S
C93 O94 1.315 . S
C93 O95 1.279 . S
O94 Cd86 2.223 . S
O94 C93 1.315 . S
O95 Cd85 2.240 . S
O95 C93 1.279 . S
O96 Cd86 2.297 . S
O96 C91 1.247 . S
O97 Cd86 2.439 . S
O97 C91 1.208 . S
O98 Cd99 2.223 1_554 S
O98 C106 1.315 . S
Cd99 O98 2.223 1_556 S
Cd99 O102 2.297 . S
Cd99 O103 2.439 . S
Cd99 O109 2.240 . S
Cd100 O101 2.240 . S
Cd100 O108 2.223 . S
Cd100 O110 2.297 . S
Cd100 O111 2.439 . S
O101 Cd100 2.240 . S
O101 C106 1.279 1_556 S
O102 Cd99 2.297 . S
O102 C104 1.247 . S
O103 Cd99 2.439 . S
O103 C104 1.208 . S
C104 O102 1.247 . S
C104 O103 1.208 . S
C105 O110 1.247 . S
C105 O111 1.208 . S
C106 O98 1.315 . S
C106 O101 1.279 1_554 S
C107 O108 1.315 . S
C107 O109 1.279 . S
O108 Cd100 2.223 . S
O108 C107 1.315 . S
O109 Cd99 2.240 . S
O109 C107 1.279 . S
O110 Cd100 2.297 . S
O110 C105 1.247 . S
O111 Cd100 2.439 . S
O111 C105 1.208 . S
O112 Cd113 2.223 . S
O112 C120 1.315 . S
Cd113 O112 2.223 . S
Cd113 O116 2.297 . S
Cd113 O117 2.439 . S
Cd113 O123 2.240 . S
Cd114 O115 2.240 . S
Cd114 O122 2.223 . S
Cd114 O124 2.297 . S
Cd114 O125 2.439 . S
O115 Cd114 2.240 . S
O115 C120 1.279 . S
O116 Cd113 2.297 . S
O116 C118 1.247 . S
O117 Cd113 2.439 . S
O117 C118 1.208 . S
C118 O116 1.247 . S
C118 O117 1.208 . S
C119 O124 1.247 1_556 S
C119 O125 1.208 1_556 S
C120 O112 1.315 . S
C120 O115 1.279 . S
C121 O122 1.315 . S
C121 O123 1.279 . S
O122 Cd114 2.223 . S
O122 C121 1.315 . S
O123 Cd113 2.240 . S
O123 C121 1.279 . S
O124 Cd114 2.297 . S
O124 C119 1.247 1_554 S
O125 Cd114 2.439 . S
O125 C119 1.208 1_554 S
O126 Cd127 2.223 1_554 S
O126 C134 1.315 . S
Cd127 O126 2.223 1_556 S
Cd127 O130 2.297 . S
Cd127 O131 2.439 . S
Cd127 O137 2.240 . S
Cd128 O129 2.240 . S
Cd128 O136 2.223 . S
Cd128 O138 2.297 . S
Cd128 O139 2.439 . S
O129 Cd128 2.240 . S
O129 C134 1.279 1_556 S
O130 Cd127 2.297 . S
O130 C132 1.247 . S
O131 Cd127 2.439 . S
O131 C132 1.208 . S
C132 O130 1.247 . S
C132 O131 1.208 . S
C133 O138 1.247 . S
C133 O139 1.208 . S
C134 O126 1.315 . S
C134 O129 1.279 1_554 S
C135 O136 1.315 . S
C135 O137 1.279 . S
O136 Cd128 2.223 . S
O136 C135 1.315 . S
O137 Cd127 2.240 . S
O137 C135 1.279 . S
O138 Cd128 2.297 . S
O138 C133 1.247 . S
O139 Cd128 2.439 . S
O139 C133 1.208 . S
O140 Cd141 2.223 . S
O140 C148 1.315 . S
Cd141 O140 2.223 . S
Cd141 O144 2.297 . S
Cd141 O145 2.439 . S
Cd141 O151 2.240 . S
Cd142 O143 2.240 . S
Cd142 O150 2.223 . S
Cd142 O152 2.297 . S
Cd142 O153 2.439 . S
O143 Cd142 2.240 . S
O143 C148 1.279 . S
O144 Cd141 2.297 . S
O144 C146 1.247 . S
O145 Cd141 2.439 . S
O145 C146 1.208 . S
C146 O144 1.247 . S
C146 O145 1.208 . S
C147 O152 1.247 . S
C147 O153 1.208 . S
C148 O140 1.315 . S
C148 O143 1.279 . S
C149 O150 1.315 . S
C149 O151 1.279 . S
O150 Cd142 2.223 . S
O150 C149 1.315 . S
O151 Cd141 2.240 . S
O151 C149 1.279 . S
O152 Cd142 2.297 . S
O152 C147 1.247 . S
O153 Cd142 2.439 . S
O153 C147 1.208 . S
O154 Cd155 2.223 . S
O154 C162 1.315 . S
Cd155 O154 2.223 . S
Cd155 O158 2.297 . S
Cd155 O159 2.439 . S
Cd155 O165 2.240 . S
Cd156 O157 2.240 1_545 S
Cd156 O164 2.223 . S
Cd156 O166 2.297 . S
Cd156 O167 2.439 1_545 S
O157 Cd156 2.240 1_565 S
O157 C162 1.279 . S
O158 Cd155 2.297 . S
O158 C160 1.247 . S
O159 Cd155 2.439 . S
O159 C160 1.208 . S
C160 O158 1.247 . S
C160 O159 1.208 . S
C161 O166 1.247 1_565 S
C161 O167 1.208 . S
C162 O154 1.315 . S
C162 O157 1.279 . S
C163 O164 1.312 1_565 S
C163 O165 1.279 . S
O164 Cd156 2.223 . S
O164 C163 1.312 1_545 S
O165 Cd155 2.240 . S
O165 C163 1.279 . S
O166 Cd156 2.297 . S
O166 C161 1.247 1_545 S
O167 Cd156 2.439 1_565 S
O167 C161 1.208 . S
O168 Cd169 2.223 1_556 S
O168 C176 1.315 . S
Cd169 O168 2.223 1_554 S
Cd169 O172 2.297 1_554 S
Cd169 O173 2.439 . S
Cd169 O179 2.240 . S
Cd170 O171 2.240 . S
Cd170 O178 2.223 . S
Cd170 O180 2.297 . S
Cd170 O181 2.439 . S
O171 Cd170 2.240 . S
O171 C176 1.279 1_554 S
O172 Cd169 2.297 1_556 S
O172 C174 1.247 1_556 S
O173 Cd169 2.439 . S
O173 C174 1.208 . S
C174 O172 1.247 1_554 S
C174 O173 1.208 . S
C175 O180 1.247 . S
C175 O181 1.208 . S
C176 O168 1.315 . S
C176 O171 1.279 1_556 S
C177 O178 1.315 . S
C177 O179 1.279 . S
O178 Cd170 2.223 . S
O178 C177 1.315 . S
O179 Cd169 2.240 . S
O179 C177 1.279 . S
O180 Cd170 2.297 . S
O180 C175 1.247 . S
O181 Cd170 2.439 . S
O181 C175 1.208 . S
O182 Cd183 2.223 . S
O182 C190 1.315 . S
Cd183 O182 2.223 . S
Cd183 O186 2.297 . S
Cd183 O187 2.439 . S
Cd183 O193 2.240 . S
Cd184 O185 2.240 . S
Cd184 O192 2.223 . S
Cd184 O194 2.297 . S
Cd184 O195 2.439 . S
O185 Cd184 2.240 . S
O185 C190 1.279 . S
O186 Cd183 2.297 . S
O186 C188 1.247 . S
O187 Cd183 2.439 . S
O187 C188 1.208 . S
C188 O186 1.247 . S
C188 O187 1.208 . S
C189 O194 1.247 . S
C189 O195 1.208 . S
C190 O182 1.315 . S
C190 O185 1.279 . S
C191 O192 1.315 . S
C191 O193 1.279 . S
O192 Cd184 2.223 . S
O192 C191 1.315 . S
O193 Cd183 2.240 . S
O193 C191 1.279 . S
O194 Cd184 2.297 . S
O194 C189 1.247 . S
O195 Cd184 2.439 . S
O195 C189 1.208 . S
O196 Cd197 2.223 . S
O196 C204 1.315 . S
Cd197 O196 2.223 . S
Cd197 O200 2.297 . S
Cd197 O201 2.439 . S
Cd197 O207 2.240 . S
Cd198 O199 2.240 . S
Cd198 O206 2.223 . S
Cd198 O208 2.297 . S
Cd198 O209 2.439 . S
O199 Cd198 2.240 . S
O199 C204 1.279 . S
O200 Cd197 2.297 . S
O200 C202 1.247 . S
O201 Cd197 2.439 . S
O201 C202 1.208 . S
C202 O200 1.247 . S
C202 O201 1.208 . S
C203 O208 1.247 . S
C203 O209 1.208 . S
C204 O196 1.315 . S
C204 O199 1.279 . S
C205 O206 1.315 . S
C205 O207 1.279 . S
O206 Cd198 2.223 . S
O206 C205 1.315 . S
O207 Cd197 2.240 . S
O207 C205 1.279 . S
O208 Cd198 2.297 . S
O208 C203 1.247 . S
O209 Cd198 2.439 . S
O209 C203 1.208 . S
O210 Cd211 2.223 . S
O210 C218 1.315 . S
Cd211 O210 2.223 . S
Cd211 O214 2.297 . S
Cd211 O215 2.439 . S
Cd211 O221 2.240 . S
Cd212 O213 2.240 1_545 S
Cd212 O220 2.224 . S
Cd212 O222 2.297 . S
Cd212 O223 2.439 1_545 S
O213 Cd212 2.240 1_565 S
O213 C218 1.279 . S
O214 Cd211 2.297 . S
O214 C216 1.247 . S
O215 Cd211 2.439 . S
O215 C216 1.208 . S
C216 O214 1.247 . S
C216 O215 1.208 . S
C217 O222 1.247 1_565 S
C217 O223 1.208 . S
C218 O210 1.315 . S
C218 O213 1.279 . S
C219 O220 1.312 1_565 S
C219 O221 1.279 . S
O220 Cd212 2.224 . S
O220 C219 1.312 1_545 S
O221 Cd211 2.240 . S
O221 C219 1.279 . S
O222 Cd212 2.297 . S
O222 C217 1.247 1_545 S
O223 Cd212 2.439 1_565 S
O223 C217 1.208 . S
O224 Cd225 2.223 . S
O224 C232 1.315 . S
Cd225 O224 2.223 . S
Cd225 O228 2.297 . S
Cd225 O229 2.439 . S
Cd225 O235 2.240 . S
Cd226 O227 2.240 . S
Cd226 O234 2.223 . S
Cd226 O236 2.297 . S
Cd226 O237 2.439 . S
O227 Cd226 2.240 . S
O227 C232 1.279 . S
O228 Cd225 2.297 . S
O228 C230 1.247 . S
O229 Cd225 2.439 . S
O229 C230 1.208 . S
C230 O228 1.247 . S
C230 O229 1.208 . S
C231 O236 1.247 . S
C231 O237 1.208 . S
C232 O224 1.315 . S
C232 O227 1.279 . S
C233 O234 1.315 . S
C233 O235 1.279 . S
O234 Cd226 2.223 . S
O234 C233 1.315 . S
O235 Cd225 2.240 . S
O235 C233 1.279 . S
O236 Cd226 2.297 . S
O236 C231 1.247 . S
O237 Cd226 2.439 . S
O237 C231 1.208 . S
O238 Cd239 2.223 . S
O238 C246 1.315 . S
Cd239 O238 2.223 . S
Cd239 O242 2.297 . S
Cd239 O243 2.439 . S
Cd239 O249 2.240 . S
Cd240 O241 2.240 . S
Cd240 O248 2.223 . S
Cd240 O250 2.297 . S
Cd240 O251 2.439 . S
O241 Cd240 2.240 . S
O241 C246 1.279 . S
O242 Cd239 2.297 . S
O242 C244 1.247 . S
O243 Cd239 2.439 . S
O243 C244 1.208 . S
C244 O242 1.247 . S
C244 O243 1.208 . S
C245 O250 1.247 . S
C245 O251 1.208 . S
C246 O238 1.315 . S
C246 O241 1.279 . S
C247 O248 1.315 . S
C247 O249 1.279 . S
O248 Cd240 2.223 . S
O248 C247 1.315 . S
O249 Cd239 2.240 . S
O249 C247 1.279 . S
O250 Cd240 2.297 . S
O250 C245 1.247 . S
O251 Cd240 2.439 . S
O251 C245 1.208 . S
O252 Cd253 2.223 1_556 S
O252 C260 1.315 . S
Cd253 O252 2.223 1_554 S
Cd253 O256 2.297 1_554 S
Cd253 O257 2.439 . S
Cd253 O263 2.240 . S
Cd254 O255 2.240 . S
Cd254 O262 2.223 . S
Cd254 O264 2.297 . S
Cd254 O265 2.439 . S
O255 Cd254 2.240 . S
O255 C260 1.279 1_554 S
O256 Cd253 2.297 1_556 S
O256 C258 1.247 1_556 S
O257 Cd253 2.439 . S
O257 C258 1.208 . S
C258 O256 1.247 1_554 S
C258 O257 1.208 . S
C259 O264 1.247 . S
C259 O265 1.208 . S
C260 O252 1.315 . S
C260 O255 1.279 1_556 S
C261 O262 1.315 . S
C261 O263 1.279 . S
O262 Cd254 2.223 . S
O262 C261 1.315 . S
O263 Cd253 2.240 . S
O263 C261 1.279 . S
O264 Cd254 2.297 . S
O264 C259 1.247 . S
O265 Cd254 2.439 . S
O265 C259 1.208 . S
O266 Cd267 2.223 . S
O266 C274 1.315 . S
Cd267 O266 2.223 . S
Cd267 O270 2.297 . S
Cd267 O271 2.439 . S
Cd267 O277 2.240 . S
Cd268 O269 2.240 . S
Cd268 O276 2.223 . S
Cd268 O278 2.297 . S
Cd268 O279 2.439 . S
O269 Cd268 2.240 . S
O269 C274 1.279 . S
O270 Cd267 2.297 . S
O270 C272 1.247 . S
O271 Cd267 2.439 . S
O271 C272 1.208 . S
C272 O270 1.247 . S
C272 O271 1.208 . S
C273 O278 1.247 . S
C273 O279 1.208 . S
C274 O266 1.315 . S
C274 O269 1.279 . S
C275 O276 1.315 . S
C275 O277 1.279 . S
O276 Cd268 2.223 . S
O276 C275 1.315 . S
O277 Cd267 2.240 . S
O277 C275 1.279 . S
O278 Cd268 2.297 . S
O278 C273 1.247 . S
O279 Cd268 2.439 . S
O279 C273 1.208 . S
O280 Cd281 2.223 . S
O280 C288 1.315 . S
Cd281 O280 2.223 . S
Cd281 O284 2.297 . S
Cd281 O285 2.439 . S
Cd281 O291 2.240 . S
Cd282 O283 2.240 . S
Cd282 O290 2.223 . S
Cd282 O292 2.297 . S
Cd282 O293 2.439 . S
O283 Cd282 2.240 . S
O283 C288 1.279 . S
O284 Cd281 2.297 . S
O284 C286 1.247 . S
O285 Cd281 2.439 . S
O285 C286 1.208 . S
C286 O284 1.247 . S
C286 O285 1.208 . S
C287 O292 1.247 . S
C287 O293 1.208 . S
C288 O280 1.315 . S
C288 O283 1.279 . S
C289 O290 1.315 . S
C289 O291 1.279 . S
O290 Cd282 2.223 . S
O290 C289 1.315 . S
O291 Cd281 2.240 . S
O291 C289 1.279 . S
O292 Cd282 2.297 . S
O292 C287 1.247 . S
O293 Cd282 2.439 . S
O293 C287 1.208 . S
O294 Cd295 2.223 1_554 S
O294 C302 1.315 . S
Cd295 O294 2.223 1_556 S
Cd295 O298 2.297 . S
Cd295 O299 2.439 . S
Cd295 O305 2.240 . S
Cd296 O297 2.240 . S
Cd296 O304 2.223 . S
Cd296 O306 2.297 . S
Cd296 O307 2.439 . S
O297 Cd296 2.240 . S
O297 C302 1.279 1_556 S
O298 Cd295 2.297 . S
O298 C300 1.247 . S
O299 Cd295 2.439 . S
O299 C300 1.208 . S
C300 O298 1.247 . S
C300 O299 1.208 . S
C301 O306 1.247 . S
C301 O307 1.208 . S
C302 O294 1.315 . S
C302 O297 1.279 1_554 S
C303 O304 1.315 . S
C303 O305 1.279 . S
O304 Cd296 2.223 . S
O304 C303 1.315 . S
O305 Cd295 2.240 . S
O305 C303 1.279 . S
O306 Cd296 2.297 . S
O306 C301 1.247 . S
O307 Cd296 2.439 . S
O307 C301 1.208 . S
O308 Cd309 2.223 . S
O308 C316 1.315 . S
Cd309 O308 2.223 . S
Cd309 O312 2.297 . S
Cd309 O313 2.439 . S
Cd309 O319 2.240 . S
Cd310 O311 2.240 . S
Cd310 O318 2.223 . S
Cd310 O320 2.297 . S
Cd310 O321 2.439 . S
O311 Cd310 2.240 . S
O311 C316 1.279 . S
O312 Cd309 2.297 . S
O312 C314 1.247 . S
O313 Cd309 2.439 . S
O313 C314 1.208 . S
C314 O312 1.247 . S
C314 O313 1.208 . S
C315 O320 1.247 1_556 S
C315 O321 1.208 1_556 S
C316 O308 1.315 . S
C316 O311 1.279 . S
C317 O318 1.315 . S
C317 O319 1.279 . S
O318 Cd310 2.223 . S
O318 C317 1.315 . S
O319 Cd309 2.240 . S
O319 C317 1.279 . S
O320 Cd310 2.297 . S
O320 C315 1.247 1_554 S
O321 Cd310 2.439 . S
O321 C315 1.208 1_554 S
O322 Cd323 2.223 . S
O322 C330 1.315 . S
Cd323 O322 2.223 . S
Cd323 O326 2.297 . S
Cd323 O327 2.439 . S
Cd323 O333 2.240 . S
Cd324 O325 2.240 . S
Cd324 O332 2.223 . S
Cd324 O334 2.297 . S
Cd324 O335 2.439 . S
O325 Cd324 2.240 . S
O325 C330 1.279 . S
O326 Cd323 2.297 . S
O326 C328 1.247 . S
O327 Cd323 2.439 . S
O327 C328 1.208 . S
C328 O326 1.247 . S
C328 O327 1.208 . S
C329 O334 1.247 . S
C329 O335 1.208 . S
C330 O322 1.315 . S
C330 O325 1.279 . S
C331 O332 1.315 . S
C331 O333 1.279 . S
O332 Cd324 2.223 . S
O332 C331 1.315 . S
O333 Cd323 2.240 . S
O333 C331 1.279 . S
O334 Cd324 2.297 . S
O334 C329 1.247 . S
O335 Cd324 2.439 . S
O335 C329 1.208 . S
O336 Cd337 2.223 . S
O336 C344 1.315 . S
Cd337 O336 2.223 . S
Cd337 O340 2.297 . S
Cd337 O341 2.439 . S
Cd337 O347 2.240 . S
Cd338 O339 2.240 . S
Cd338 O346 2.223 . S
Cd338 O348 2.297 . S
Cd338 O349 2.439 . S
O339 Cd338 2.240 . S
O339 C344 1.279 . S
O340 Cd337 2.297 . S
O340 C342 1.247 . S
O341 Cd337 2.439 . S
O341 C342 1.208 . S
C342 O340 1.247 . S
C342 O341 1.208 . S
C343 O348 1.247 . S
C343 O349 1.208 . S
C344 O336 1.315 . S
C344 O339 1.279 . S
C345 O346 1.315 . S
C345 O347 1.279 . S
O346 Cd338 2.223 . S
O346 C345 1.315 . S
O347 Cd337 2.240 . S
O347 C345 1.279 . S
O348 Cd338 2.297 . S
O348 C343 1.247 . S
O349 Cd338 2.439 . S
O349 C343 1.208 . S
O350 Cd351 2.223 . S
O350 C358 1.315 . S
Cd351 O350 2.223 . S
Cd351 O354 2.297 . S
Cd351 O355 2.439 . S
Cd351 O361 2.240 . S
Cd352 O353 2.240 . S
Cd352 O360 2.223 . S
Cd352 O362 2.297 . S
Cd352 O363 2.439 . S
O353 Cd352 2.240 . S
O353 C358 1.279 . S
O354 Cd351 2.297 . S
O354 C356 1.247 . S
O355 Cd351 2.439 . S
O355 C356 1.208 . S
C356 O354 1.247 . S
C356 O355 1.208 . S
C357 O362 1.247 . S
C357 O363 1.208 . S
C358 O350 1.315 . S
C358 O353 1.279 . S
C359 O360 1.315 . S
C359 O361 1.279 . S
O360 Cd352 2.223 . S
O360 C359 1.315 . S
O361 Cd351 2.240 . S
O361 C359 1.279 . S
O362 Cd352 2.297 . S
O362 C357 1.247 . S
O363 Cd352 2.439 . S
O363 C357 1.208 . S
O364 Cd365 2.223 . S
O364 C372 1.315 . S
Cd365 O364 2.223 . S
Cd365 O368 2.297 . S
Cd365 O369 2.439 . S
Cd365 O375 2.240 . S
Cd366 O367 2.240 . S
Cd366 O374 2.223 . S
Cd366 O376 2.297 . S
Cd366 O377 2.439 . S
O367 Cd366 2.240 . S
O367 C372 1.279 . S
O368 Cd365 2.297 . S
O368 C370 1.247 . S
O369 Cd365 2.439 . S
O369 C370 1.208 . S
C370 O368 1.247 . S
C370 O369 1.208 . S
C371 O376 1.247 1_556 S
C371 O377 1.208 1_556 S
C372 O364 1.315 . S
C372 O367 1.279 . S
C373 O374 1.315 . S
C373 O375 1.279 . S
O374 Cd366 2.223 . S
O374 C373 1.315 . S
O375 Cd365 2.240 . S
O375 C373 1.279 . S
O376 Cd366 2.297 . S
O376 C371 1.247 1_554 S
O377 Cd366 2.439 . S
O377 C371 1.208 1_554 S
O378 Cd379 2.223 1_554 S
O378 C386 1.315 . S
Cd379 O378 2.223 1_556 S
Cd379 O382 2.297 . S
Cd379 O383 2.439 . S
Cd379 O389 2.240 . S
Cd380 O381 2.240 . S
Cd380 O388 2.223 . S
Cd380 O390 2.297 . S
Cd380 O391 2.439 . S
O381 Cd380 2.240 . S
O381 C386 1.279 1_556 S
O382 Cd379 2.297 . S
O382 C384 1.247 . S
O383 Cd379 2.439 . S
O383 C384 1.208 . S
C384 O382 1.247 . S
C384 O383 1.208 . S
C385 O390 1.247 . S
C385 O391 1.208 . S
C386 O378 1.315 . S
C386 O381 1.279 1_554 S
C387 O388 1.315 . S
C387 O389 1.279 . S
O388 Cd380 2.223 . S
O388 C387 1.315 . S
O389 Cd379 2.240 . S
O389 C387 1.279 . S
O390 Cd380 2.297 . S
O390 C385 1.247 . S
O391 Cd380 2.439 . S
O391 C385 1.208 . S
O392 Cd393 2.223 . S
O392 C400 1.315 . S
Cd393 O392 2.223 . S
Cd393 O396 2.297 . S
Cd393 O397 2.439 . S
Cd393 O403 2.240 . S
Cd394 O395 2.240 . S
Cd394 O402 2.223 . S
Cd394 O404 2.297 . S
Cd394 O405 2.439 . S
O395 Cd394 2.240 . S
O395 C400 1.279 . S
O396 Cd393 2.297 . S
O396 C398 1.247 . S
O397 Cd393 2.439 . S
O397 C398 1.208 . S
C398 O396 1.247 . S
C398 O397 1.208 . S
C399 O404 1.247 . S
C399 O405 1.208 . S
C400 O392 1.315 . S
C400 O395 1.279 . S
C401 O402 1.315 . S
C401 O403 1.279 . S
O402 Cd394 2.223 . S
O402 C401 1.315 . S
O403 Cd393 2.240 . S
O403 C401 1.279 . S
O404 Cd394 2.297 . S
O404 C399 1.247 . S
O405 Cd394 2.439 . S
O405 C399 1.208 . S
O406 Cd407 2.223 . S
O406 C414 1.315 . S
Cd407 O406 2.223 . S
Cd407 O410 2.297 . S
Cd407 O411 2.439 . S
Cd407 O417 2.240 . S
Cd408 O409 2.240 . S
Cd408 O416 2.223 . S
Cd408 O418 2.297 . S
Cd408 O419 2.439 . S
O409 Cd408 2.240 . S
O409 C414 1.279 . S
O410 Cd407 2.297 . S
O410 C412 1.247 . S
O411 Cd407 2.439 . S
O411 C412 1.208 . S
C412 O410 1.247 . S
C412 O411 1.208 . S
C413 O418 1.247 . S
C413 O419 1.208 . S
C414 O406 1.315 . S
C414 O409 1.279 . S
C415 O416 1.315 . S
C415 O417 1.279 . S
O416 Cd408 2.223 . S
O416 C415 1.315 . S
O417 Cd407 2.240 . S
O417 C415 1.279 . S
O418 Cd408 2.297 . S
O418 C413 1.247 . S
O419 Cd408 2.439 . S
O419 C413 1.208 . S
O420 Cd421 2.223 1_556 S
O420 C428 1.315 . S
Cd421 O420 2.223 1_554 S
Cd421 O424 2.297 1_554 S
Cd421 O425 2.439 . S
Cd421 O431 2.240 . S
Cd422 O423 2.240 . S
Cd422 O430 2.223 . S
Cd422 O432 2.297 . S
Cd422 O433 2.439 . S
O423 Cd422 2.240 . S
O423 C428 1.279 1_554 S
O424 Cd421 2.297 1_556 S
O424 C426 1.247 1_556 S
O425 Cd421 2.439 . S
O425 C426 1.208 . S
C426 O424 1.247 1_554 S
C426 O425 1.208 . S
C427 O432 1.247 . S
C427 O433 1.208 . S
C428 O420 1.315 . S
C428 O423 1.279 1_556 S
C429 O430 1.315 . S
C429 O431 1.279 . S
O430 Cd422 2.223 . S
O430 C429 1.315 . S
O431 Cd421 2.240 . S
O431 C429 1.279 . S
O432 Cd422 2.297 . S
O432 C427 1.247 . S
O433 Cd422 2.439 . S
O433 C427 1.208 . S
O434 Cd435 2.223 . S
O434 C442 1.315 . S
Cd435 O434 2.223 . S
Cd435 O438 2.297 . S
Cd435 O439 2.439 . S
Cd435 O445 2.240 . S
Cd436 O437 2.240 . S
Cd436 O444 2.223 . S
Cd436 O446 2.297 . S
Cd436 O447 2.439 . S
O437 Cd436 2.240 . S
O437 C442 1.279 . S
O438 Cd435 2.297 . S
O438 C440 1.247 . S
O439 Cd435 2.439 . S
O439 C440 1.208 . S
C440 O438 1.247 . S
C440 O439 1.208 . S
C441 O446 1.247 . S
C441 O447 1.208 . S
C442 O434 1.315 . S
C442 O437 1.279 . S
C443 O444 1.315 . S
C443 O445 1.279 . S
O444 Cd436 2.223 . S
O444 C443 1.315 . S
O445 Cd435 2.240 . S
O445 C443 1.279 . S
O446 Cd436 2.297 . S
O446 C441 1.247 . S
O447 Cd436 2.439 . S
O447 C441 1.208 . S
C448 C449 1.387 . S
C448 H452 0.950 . S
C448 C457 1.390 . S
C449 C448 1.387 . S
C449 C451 1.387 1_556 S
H450 C457 0.950 . S
C451 C449 1.387 1_554 S
C451 C453 1.390 . S
C451 H455 0.950 . S
H452 C448 0.950 . S
C453 C451 1.390 . S
C453 C454 1.387 . S
C453 H456 0.950 . S
C454 C453 1.387 . S
C454 C457 1.387 1_554 S
H455 C451 0.950 . S
H456 C453 0.950 . S
C457 C448 1.390 . S
C457 H450 0.950 . S
C457 C454 1.387 1_556 S
C458 C459 1.387 . S
C458 H462 0.950 . S
C458 C467 1.390 . S
C459 C458 1.387 . S
C459 C461 1.387 . S
H460 C467 0.950 . S
C461 C459 1.387 . S
C461 C463 1.390 . S
C461 H465 0.950 . S
H462 C458 0.950 . S
C463 C461 1.390 . S
C463 C464 1.387 . S
C463 H466 0.950 . S
C464 C463 1.387 . S
C464 C467 1.387 . S
H465 C461 0.950 . S
H466 C463 0.950 . S
C467 C458 1.390 . S
C467 H460 0.950 . S
C467 C464 1.387 . S
C468 C469 1.387 . S
C468 H472 0.950 . S
C468 C477 1.390 . S
C469 C468 1.387 . S
C469 C471 1.387 . S
H470 C477 0.950 . S
C471 C469 1.387 . S
C471 C473 1.390 . S
C471 H475 0.950 . S
H472 C468 0.950 . S
C473 C471 1.390 . S
C473 C474 1.387 . S
C473 H476 0.950 . S
C474 C473 1.387 . S
C474 C477 1.387 . S
H475 C471 0.950 . S
H476 C473 0.950 . S
C477 C468 1.390 . S
C477 H470 0.950 . S
C477 C474 1.387 . S
C478 C479 1.387 . S
C478 H482 0.950 . S
C478 C487 1.390 . S
C479 C478 1.387 . S
C479 C481 1.387 . S
H480 C487 0.950 . S
C481 C479 1.387 . S
C481 C483 1.390 . S
C481 H485 0.950 . S
H482 C478 0.950 . S
C483 C481 1.390 . S
C483 C484 1.387 . S
C483 H486 0.950 . S
C484 C483 1.387 . S
C484 C487 1.387 . S
H485 C481 0.950 . S
H486 C483 0.950 . S
C487 C478 1.390 . S
C487 H480 0.950 . S
C487 C484 1.387 . S
C488 C489 1.387 . S
C488 H492 0.950 . S
C488 C497 1.390 . S
C489 C488 1.387 . S
C489 C491 1.387 . S
H490 C497 0.950 . S
C491 C489 1.387 . S
C491 C493 1.390 . S
C491 H495 0.950 . S
H492 C488 0.950 . S
C493 C491 1.390 . S
C493 C494 1.387 . S
C493 H496 0.950 . S
C494 C493 1.387 . S
C494 C497 1.387 . S
H495 C491 0.950 . S
H496 C493 0.950 . S
C497 C488 1.390 . S
C497 H490 0.950 . S
C497 C494 1.387 . S
C498 C499 1.387 1_554 S
C498 H502 0.950 . S
C498 C507 1.390 . S
C499 C498 1.387 1_556 S
C499 C501 1.387 . S
H500 C507 0.950 . S
C501 C499 1.387 . S
C501 C503 1.390 . S
C501 H505 0.950 . S
H502 C498 0.950 . S
C503 C501 1.390 . S
C503 C504 1.387 1_556 S
C503 H506 0.950 . S
C504 C503 1.387 1_554 S
C504 C507 1.387 . S
H505 C501 0.950 . S
H506 C503 0.950 . S
C507 C498 1.390 . S
C507 H500 0.950 . S
C507 C504 1.387 . S
C508 C509 1.387 . S
C508 H512 0.950 . S
C508 C517 1.390 . S
C509 C508 1.387 . S
C509 C511 1.387 . S
H510 C517 0.950 . S
C511 C509 1.387 . S
C511 C513 1.390 . S
C511 H515 0.950 . S
H512 C508 0.950 . S
C513 C511 1.390 . S
C513 C514 1.387 . S
C513 H516 0.950 . S
C514 C513 1.387 . S
C514 C517 1.387 . S
H515 C511 0.950 . S
H516 C513 0.950 . S
C517 C508 1.390 . S
C517 H510 0.950 . S
C517 C514 1.387 . S
C518 C519 1.387 . S
C518 H522 0.950 . S
C518 C527 1.390 . S
C519 C518 1.387 . S
C519 C521 1.387 . S
H520 C527 0.950 . S
C521 C519 1.387 . S
C521 C523 1.390 . S
C521 H525 0.950 . S
H522 C518 0.950 . S
C523 C521 1.390 . S
C523 C524 1.387 . S
C523 H526 0.950 . S
C524 C523 1.387 . S
C524 C527 1.387 . S
H525 C521 0.950 . S
H526 C523 0.950 . S
C527 C518 1.390 . S
C527 H520 0.950 . S
C527 C524 1.387 . S
C528 C529 1.387 . S
C528 H532 0.950 . S
C528 C537 1.390 . S
C529 C528 1.387 . S
C529 C531 1.387 . S
H530 C537 0.950 . S
C531 C529 1.387 . S
C531 C533 1.390 . S
C531 H535 0.950 . S
H532 C528 0.950 . S
C533 C531 1.390 . S
C533 C534 1.387 . S
C533 H536 0.950 . S
C534 C533 1.387 . S
C534 C537 1.387 . S
H535 C531 0.950 . S
H536 C533 0.950 . S
C537 C528 1.390 . S
C537 H530 0.950 . S
C537 C534 1.387 . S
C538 C539 1.387 . S
C538 H542 0.950 . S
C538 C547 1.390 . S
C539 C538 1.387 . S
C539 C541 1.387 . S
H540 C547 0.950 . S
C541 C539 1.387 . S
C541 C543 1.390 . S
C541 H545 0.950 . S
H542 C538 0.950 . S
C543 C541 1.390 . S
C543 C544 1.387 . S
C543 H546 0.950 . S
C544 C543 1.387 . S
C544 C547 1.387 . S
H545 C541 0.950 . S
H546 C543 0.950 . S
C547 C538 1.390 . S
C547 H540 0.950 . S
C547 C544 1.387 . S
C548 C549 1.387 1_554 S
C548 H552 0.950 . S
C548 C557 1.390 . S
C549 C548 1.387 1_556 S
C549 C551 1.387 . S
H550 C557 0.950 . S
C551 C549 1.387 . S
C551 C553 1.390 . S
C551 H555 0.950 . S
H552 C548 0.950 . S
C553 C551 1.390 . S
C553 C554 1.387 1_556 S
C553 H556 0.950 . S
C554 C553 1.387 1_554 S
C554 C557 1.387 . S
H555 C551 0.950 . S
H556 C553 0.950 . S
C557 C548 1.390 . S
C557 H550 0.950 . S
C557 C554 1.387 . S
C558 C559 1.387 . S
C558 H562 0.950 . S
C558 C567 1.390 . S
C559 C558 1.387 . S
C559 C561 1.387 . S
H560 C567 0.950 . S
C561 C559 1.387 . S
C561 C563 1.390 . S
C561 H565 0.950 . S
H562 C558 0.950 . S
C563 C561 1.390 . S
C563 C564 1.387 . S
C563 H566 0.950 . S
C564 C563 1.387 . S
C564 C567 1.387 . S
H565 C561 0.950 . S
H566 C563 0.950 . S
C567 C558 1.390 . S
C567 H560 0.950 . S
C567 C564 1.387 . S
C568 C569 1.387 . S
C568 H572 0.950 . S
C568 C577 1.390 . S
C569 C568 1.387 . S
C569 C571 1.387 . S
H570 C577 0.950 . S
C571 C569 1.387 . S
C571 C573 1.390 . S
C571 H575 0.950 . S
H572 C568 0.950 . S
C573 C571 1.390 . S
C573 C574 1.387 . S
C573 H576 0.950 . S
C574 C573 1.387 . S
C574 C577 1.387 . S
H575 C571 0.950 . S
H576 C573 0.950 . S
C577 C568 1.390 . S
C577 H570 0.950 . S
C577 C574 1.387 . S
C578 C579 1.387 . S
C578 H582 0.950 . S
C578 C587 1.390 . S
C579 C578 1.387 . S
C579 C581 1.387 . S
H580 C587 0.950 . S
C581 C579 1.387 . S
C581 C583 1.390 . S
C581 H585 0.950 . S
H582 C578 0.950 . S
C583 C581 1.390 . S
C583 C584 1.387 . S
C583 H586 0.950 . S
C584 C583 1.387 . S
C584 C587 1.387 . S
H585 C581 0.950 . S
H586 C583 0.950 . S
C587 C578 1.390 . S
C587 H580 0.950 . S
C587 C584 1.387 . S
C588 C589 1.387 . S
C588 H592 0.950 . S
C588 C597 1.390 . S
C589 C588 1.387 . S
C589 C591 1.387 . S
H590 C597 0.950 . S
C591 C589 1.387 . S
C591 C593 1.390 . S
C591 H595 0.950 . S
H592 C588 0.950 . S
C593 C591 1.390 . S
C593 C594 1.387 . S
C593 H596 0.950 . S
C594 C593 1.387 . S
C594 C597 1.387 . S
H595 C591 0.950 . S
H596 C593 0.950 . S
C597 C588 1.390 . S
C597 H590 0.950 . S
C597 C594 1.387 . S
C598 C599 1.387 . S
C598 H602 0.950 . S
C598 C607 1.390 . S
C599 C598 1.387 . S
C599 C601 1.387 . S
H600 C607 0.950 . S
C601 C599 1.387 . S
C601 C603 1.390 1_556 S
C601 H605 0.950 1_556 S
H602 C598 0.950 . S
C603 C601 1.390 1_554 S
C603 C604 1.387 . S
C603 H606 0.950 . S
C604 C603 1.387 . S
C604 C607 1.387 1_554 S
H605 C601 0.950 1_554 S
H606 C603 0.950 . S
C607 C598 1.390 . S
C607 H600 0.950 . S
C607 C604 1.387 1_556 S
C608 C609 1.387 . S
C608 H612 0.950 . S
C608 C617 1.390 . S
C609 C608 1.387 . S
C609 C611 1.387 . S
H610 C617 0.950 . S
C611 C609 1.387 . S
C611 C613 1.390 . S
C611 H615 0.950 . S
H612 C608 0.950 . S
C613 C611 1.390 . S
C613 C614 1.387 . S
C613 H616 0.950 . S
C614 C613 1.387 . S
C614 C617 1.387 . S
H615 C611 0.950 . S
H616 C613 0.950 . S
C617 C608 1.390 . S
C617 H610 0.950 . S
C617 C614 1.387 . S
C618 C619 1.387 1_545 S
C618 H622 0.948 1_545 S
C618 C627 1.390 . S
C619 C618 1.387 1_565 S
C619 C621 1.387 1_565 S
H620 C627 0.950 . S
C621 C619 1.387 1_545 S
C621 C623 1.390 . S
C621 H625 0.948 1_545 S
H622 C618 0.948 1_565 S
C623 C621 1.390 . S
C623 C624 1.387 . S
C623 H626 0.950 . S
C624 C623 1.387 . S
C624 C627 1.387 . S
H625 C621 0.948 1_565 S
H626 C623 0.950 . S
C627 C618 1.390 . S
C627 H620 0.950 . S
C627 C624 1.387 . S
C628 C629 1.387 . S
C628 H632 0.950 . S
C628 C637 1.390 . S
C629 C628 1.387 . S
C629 C631 1.387 . S
H630 C637 0.950 . S
C631 C629 1.387 . S
C631 C633 1.390 . S
C631 H635 0.950 . S
H632 C628 0.950 . S
C633 C631 1.390 . S
C633 C634 1.387 . S
C633 H636 0.950 . S
C634 C633 1.387 . S
C634 C637 1.387 . S
H635 C631 0.950 . S
H636 C633 0.950 . S
C637 C628 1.390 . S
C637 H630 0.950 . S
C637 C634 1.387 . S
C638 C639 1.387 . S
C638 H642 0.950 . S
C638 C647 1.390 . S
C639 C638 1.387 . S
C639 C641 1.387 . S
H640 C647 0.944 1_565 S
C641 C639 1.387 . S
C641 C643 1.390 . S
C641 H645 0.950 . S
H642 C638 0.950 . S
C643 C641 1.390 . S
C643 C644 1.387 1_545 S
C643 H646 0.944 1_545 S
C644 C643 1.387 1_565 S
C644 C647 1.387 1_565 S
H645 C641 0.950 . S
H646 C643 0.944 1_565 S
C647 C638 1.390 . S
C647 H640 0.944 1_545 S
C647 C644 1.387 1_545 S
C648 C649 1.387 . S
C648 H652 0.950 . S
C648 C657 1.390 . S
C649 C648 1.387 . S
C649 C651 1.387 . S
H650 C657 0.950 . S
C651 C649 1.387 . S
C651 C653 1.390 . S
C651 H655 0.950 . S
H652 C648 0.950 . S
C653 C651 1.390 . S
C653 C654 1.387 . S
C653 H656 0.950 . S
C654 C653 1.387 . S
C654 C657 1.387 . S
H655 C651 0.950 . S
H656 C653 0.950 . S
C657 C648 1.390 . S
C657 H650 0.950 . S
C657 C654 1.387 . S
C658 C659 1.387 . S
C658 H662 0.950 . S
C658 C667 1.390 . S
C659 C658 1.387 . S
C659 C661 1.387 . S
H660 C667 0.948 1_565 S
C661 C659 1.387 . S
C661 C663 1.390 . S
C661 H665 0.950 . S
H662 C658 0.950 . S
C663 C661 1.390 . S
C663 C664 1.387 1_545 S
C663 H666 0.948 1_545 S
C664 C663 1.387 1_565 S
C664 C667 1.387 1_565 S
H665 C661 0.950 . S
H666 C663 0.948 1_565 S
C667 C658 1.390 . S
C667 H660 0.948 1_545 S
C667 C664 1.387 1_545 S
C668 C669 1.387 . S
C668 H672 0.950 . S
C668 C677 1.390 . S
C669 C668 1.387 . S
C669 C671 1.387 . S
H670 C677 0.950 . S
C671 C669 1.387 . S
C671 C673 1.390 . S
C671 H675 0.950 . S
H672 C668 0.950 . S
C673 C671 1.390 . S
C673 C674 1.387 . S
C673 H676 0.950 . S
C674 C673 1.387 . S
C674 C677 1.387 . S
H675 C671 0.950 . S
H676 C673 0.950 . S
C677 C668 1.390 . S
C677 H670 0.950 . S
C677 C674 1.387 . S
C678 C679 1.387 . S
C678 H682 0.950 . S
C678 C687 1.390 . S
C679 C678 1.387 . S
C679 C681 1.387 . S
H680 C687 0.944 1_565 S
C681 C679 1.387 . S
C681 C683 1.390 . S
C681 H685 0.950 . S
H682 C678 0.950 . S
C683 C681 1.390 . S
C683 C684 1.387 1_545 S
C683 H686 0.944 1_545 S
C684 C683 1.387 1_565 S
C684 C687 1.387 1_565 S
H685 C681 0.950 . S
H686 C683 0.944 1_565 S
C687 C678 1.390 . S
C687 H680 0.944 1_545 S
C687 C684 1.387 1_545 S
C688 C689 1.387 . S
C688 H692 0.950 . S
C688 C697 1.390 . S
C689 C688 1.387 . S
C689 C691 1.387 . S
H690 C697 0.950 . S
C691 C689 1.387 . S
C691 C693 1.390 . S
C691 H695 0.950 . S
H692 C688 0.950 . S
C693 C691 1.390 . S
C693 C694 1.387 . S
C693 H696 0.950 . S
C694 C693 1.387 . S
C694 C697 1.387 . S
H695 C691 0.950 . S
H696 C693 0.950 . S
C697 C688 1.390 . S
C697 H690 0.950 . S
C697 C694 1.387 . S
C698 C699 1.387 . S
C698 H702 0.950 . S
C698 C707 1.390 . S
C699 C698 1.387 . S
C699 C701 1.387 . S
H700 C707 0.950 . S
C701 C699 1.387 . S
C701 C703 1.390 . S
C701 H705 0.950 . S
H702 C698 0.950 . S
C703 C701 1.390 . S
C703 C704 1.387 . S
C703 H706 0.950 . S
C704 C703 1.387 . S
C704 C707 1.387 . S
H705 C701 0.950 . S
H706 C703 0.950 . S
C707 C698 1.390 . S
C707 H700 0.950 . S
C707 C704 1.387 . S
C708 C709 1.387 . S
C708 H712 0.950 . S
C708 C717 1.390 . S
C709 C708 1.387 . S
C709 C711 1.387 . S
H710 C717 0.950 . S
C711 C709 1.387 . S
C711 C713 1.390 . S
C711 H715 0.950 . S
H712 C708 0.950 . S
C713 C711 1.390 . S
C713 C714 1.387 . S
C713 H716 0.950 . S
C714 C713 1.387 . S
C714 C717 1.387 . S
H715 C711 0.950 . S
H716 C713 0.950 . S
C717 C708 1.390 . S
C717 H710 0.950 . S
C717 C714 1.387 . S
C718 C719 1.387 . S
C718 H722 0.950 . S
C718 C727 1.390 . S
C719 C718 1.387 . S
C719 C721 1.387 . S
H720 C727 0.950 . S
C721 C719 1.387 . S
C721 C723 1.390 . S
C721 H725 0.950 . S
H722 C718 0.950 . S
C723 C721 1.390 . S
C723 C724 1.387 . S
C723 H726 0.950 . S
C724 C723 1.387 . S
C724 C727 1.387 . S
H725 C721 0.950 . S
H726 C723 0.950 . S
C727 C718 1.390 . S
C727 H720 0.950 . S
C727 C724 1.387 . S
C728 C729 1.387 . S
C728 H732 0.950 . S
C728 C737 1.390 . S
C729 C728 1.387 . S
C729 C731 1.387 . S
H730 C737 0.950 . S
C731 C729 1.387 . S
C731 C733 1.390 . S
C731 H735 0.950 . S
H732 C728 0.950 . S
C733 C731 1.390 . S
C733 C734 1.387 . S
C733 H736 0.950 . S
C734 C733 1.387 . S
C734 C737 1.387 . S
H735 C731 0.950 . S
H736 C733 0.950 . S
C737 C728 1.390 . S
C737 H730 0.950 . S
C737 C734 1.387 . S
C738 C739 1.387 . S
C738 H742 0.950 . S
C738 C747 1.390 . S
C739 C738 1.387 . S
C739 C741 1.387 . S
H740 C747 0.950 . S
C741 C739 1.387 . S
C741 C743 1.390 . S
C741 H745 0.950 . S
H742 C738 0.950 . S
C743 C741 1.390 . S
C743 C744 1.387 . S
C743 H746 0.950 . S
C744 C743 1.387 . S
C744 C747 1.387 . S
H745 C741 0.950 . S
H746 C743 0.950 . S
C747 C738 1.390 . S
C747 H740 0.950 . S
C747 C744 1.387 . S
C748 C749 1.387 . S
C748 H752 0.950 . S
C748 C757 1.390 . S
C749 C748 1.387 . S
C749 C751 1.387 . S
H750 C757 0.950 . S
C751 C749 1.387 . S
C751 C753 1.390 . S
C751 H755 0.950 . S
H752 C748 0.950 . S
C753 C751 1.390 . S
C753 C754 1.387 . S
C753 H756 0.950 . S
C754 C753 1.387 . S
C754 C757 1.387 . S
H755 C751 0.950 . S
H756 C753 0.950 . S
C757 C748 1.390 . S
C757 H750 0.950 . S
C757 C754 1.387 . S
C758 C759 1.387 . S
C758 H762 0.950 . S
C758 C767 1.390 . S
C759 C758 1.387 . S
C759 C761 1.387 . S
H760 C767 0.950 . S
C761 C759 1.387 . S
C761 C763 1.390 . S
C761 H765 0.950 . S
H762 C758 0.950 . S
C763 C761 1.390 . S
C763 C764 1.387 . S
C763 H766 0.950 . S
C764 C763 1.387 . S
C764 C767 1.387 . S
H765 C761 0.950 . S
H766 C763 0.950 . S
C767 C758 1.390 . S
C767 H760 0.950 . S
C767 C764 1.387 . S
C768 C769 1.387 . S
C768 H772 0.950 . S
C768 C777 1.390 . S
C769 C768 1.387 . S
C769 C771 1.387 . S
H770 C777 0.950 . S
C771 C769 1.387 . S
C771 C773 1.390 . S
C771 H775 0.950 . S
H772 C768 0.950 . S
C773 C771 1.390 . S
C773 C774 1.387 . S
C773 H776 0.950 . S
C774 C773 1.387 . S
C774 C777 1.387 . S
H775 C771 0.950 . S
H776 C773 0.950 . S
C777 C768 1.390 . S
C777 H770 0.950 . S
C777 C774 1.387 . S
C778 C779 1.387 . S
C778 H782 0.950 . S
C778 C787 1.390 1_455 S
C779 C778 1.387 . S
C779 C781 1.387 . S
H780 C787 0.950 . S
C781 C779 1.387 . S
C781 C783 1.390 1_455 S
C781 H785 0.950 . S
H782 C778 0.950 . S
C783 C781 1.390 1_655 S
C783 C784 1.387 . S
C783 H786 0.950 . S
C784 C783 1.387 . S
C784 C787 1.387 . S
H785 C781 0.950 . S
H786 C783 0.950 . S
C787 C778 1.390 1_655 S
C787 H780 0.950 . S
C787 C784 1.387 . S
C788 C789 1.387 . S
C788 H792 0.950 . S
C788 C797 1.390 . S
C789 C788 1.387 . S
C789 C791 1.387 . S
H790 C797 0.950 . S
C791 C789 1.387 . S
C791 C793 1.390 . S
C791 H795 0.950 . S
H792 C788 0.950 . S
C793 C791 1.390 . S
C793 C794 1.387 . S
C793 H796 0.950 . S
C794 C793 1.387 . S
C794 C797 1.387 . S
H795 C791 0.950 . S
H796 C793 0.950 . S
C797 C788 1.390 . S
C797 H790 0.950 . S
C797 C794 1.387 . S
C798 C799 1.387 . S
C798 H802 0.950 . S
C798 C807 1.390 . S
C799 C798 1.387 . S
C799 C801 1.387 . S
H800 C807 0.950 . S
C801 C799 1.387 . S
C801 C803 1.390 . S
C801 H805 0.950 . S
H802 C798 0.950 . S
C803 C801 1.390 . S
C803 C804 1.387 . S
C803 H806 0.950 . S
C804 C803 1.387 . S
C804 C807 1.387 . S
H805 C801 0.950 . S
H806 C803 0.950 . S
C807 C798 1.390 . S
C807 H800 0.950 . S
C807 C804 1.387 . S
C808 C809 1.387 . S
C808 H812 0.950 . S
C808 C817 1.390 . S
C809 C808 1.387 . S
C809 C811 1.387 . S
H810 C817 0.950 . S
C811 C809 1.387 . S
C811 C813 1.390 . S
C811 H815 0.950 . S
H812 C808 0.950 . S
C813 C811 1.390 . S
C813 C814 1.387 . S
C813 H816 0.950 . S
C814 C813 1.387 . S
C814 C817 1.387 . S
H815 C811 0.950 . S
H816 C813 0.950 . S
C817 C808 1.390 . S
C817 H810 0.950 . S
C817 C814 1.387 . S
C818 C819 1.387 . S
C818 H822 0.950 . S
C818 C827 1.390 . S
C819 C818 1.387 . S
C819 C821 1.387 . S
H820 C827 0.950 . S
C821 C819 1.387 . S
C821 C823 1.390 . S
C821 H825 0.950 . S
H822 C818 0.950 . S
C823 C821 1.390 . S
C823 C824 1.387 . S
C823 H826 0.950 . S
C824 C823 1.387 . S
C824 C827 1.387 . S
H825 C821 0.950 . S
H826 C823 0.950 . S
C827 C818 1.390 . S
C827 H820 0.950 . S
C827 C824 1.387 . S
C828 C829 1.387 . S
C828 H832 0.950 . S
C828 C837 1.390 . S
C829 C828 1.387 . S
C829 C831 1.387 . S
H830 C837 0.950 . S
C831 C829 1.387 . S
C831 C833 1.390 . S
C831 H835 0.950 . S
H832 C828 0.950 . S
C833 C831 1.390 . S
C833 C834 1.387 . S
C833 H836 0.950 . S
C834 C833 1.387 . S
C834 C837 1.387 . S
H835 C831 0.950 . S
H836 C833 0.950 . S
C837 C828 1.390 . S
C837 H830 0.950 . S
C837 C834 1.387 . S
C838 C839 1.387 . S
C838 H842 0.950 . S
C838 C847 1.390 1_655 S
C839 C838 1.387 . S
C839 C841 1.387 . S
H840 C847 0.950 . S
C841 C839 1.387 . S
C841 C843 1.390 1_655 S
C841 H845 0.950 . S
H842 C838 0.950 . S
C843 C841 1.390 1_455 S
C843 C844 1.387 . S
C843 H846 0.950 . S
C844 C843 1.387 . S
C844 C847 1.387 . S
H845 C841 0.950 . S
H846 C843 0.950 . S
C847 C838 1.390 1_455 S
C847 H840 0.950 . S
C847 C844 1.387 . S
C848 C849 1.387 . S
C848 H852 0.950 . S
C848 C857 1.390 . S
C849 C848 1.387 . S
C849 C851 1.387 . S
H850 C857 0.950 . S
C851 C849 1.387 . S
C851 C853 1.390 . S
C851 H855 0.950 . S
H852 C848 0.950 . S
C853 C851 1.390 . S
C853 C854 1.387 . S
C853 H856 0.950 . S
C854 C853 1.387 . S
C854 C857 1.387 . S
H855 C851 0.950 . S
H856 C853 0.950 . S
C857 C848 1.390 . S
C857 H850 0.950 . S
C857 C854 1.387 . S
C858 C859 1.387 . S
C858 H862 0.950 . S
C858 C867 1.390 . S
C859 C858 1.387 . S
C859 C861 1.387 . S
H860 C867 0.950 . S
C861 C859 1.387 . S
C861 C863 1.390 . S
C861 H865 0.950 . S
H862 C858 0.950 . S
C863 C861 1.390 . S
C863 C864 1.387 . S
C863 H866 0.950 . S
C864 C863 1.387 . S
C864 C867 1.387 . S
H865 C861 0.950 . S
H866 C863 0.950 . S
C867 C858 1.390 . S
C867 H860 0.950 . S
C867 C864 1.387 . S
C868 C869 1.387 . S
C868 H872 0.950 . S
C868 C877 1.390 . S
C869 C868 1.387 . S
C869 C871 1.387 . S
H870 C877 0.950 . S
C871 C869 1.387 . S
C871 C873 1.390 . S
C871 H875 0.950 . S
H872 C868 0.950 . S
C873 C871 1.390 . S
C873 C874 1.387 . S
C873 H876 0.950 . S
C874 C873 1.387 . S
C874 C877 1.387 . S
H875 C871 0.950 . S
H876 C873 0.950 . S
C877 C868 1.390 . S
C877 H870 0.950 . S
C877 C874 1.387 . S
C878 C879 1.387 . S
C878 H882 0.950 . S
C878 C887 1.390 . S
C879 C878 1.387 . S
C879 C881 1.387 . S
H880 C887 0.950 . S
C881 C879 1.387 . S
C881 C883 1.390 . S
C881 H885 0.950 . S
H882 C878 0.950 . S
C883 C881 1.390 . S
C883 C884 1.387 . S
C883 H886 0.950 . S
C884 C883 1.387 . S
C884 C887 1.387 . S
H885 C881 0.950 . S
H886 C883 0.950 . S
C887 C878 1.390 . S
C887 H880 0.950 . S
C887 C884 1.387 . S
C888 C889 1.387 . S
C888 H892 0.950 . S
C888 C897 1.390 . S
C889 C888 1.387 . S
C889 C891 1.387 . S
H890 C897 0.950 . S
C891 C889 1.387 . S
C891 C893 1.390 . S
C891 H895 0.950 . S
H892 C888 0.950 . S
C893 C891 1.390 . S
C893 C894 1.387 . S
C893 H896 0.950 . S
C894 C893 1.387 . S
C894 C897 1.387 . S
H895 C891 0.950 . S
H896 C893 0.950 . S
C897 C888 1.390 . S
C897 H890 0.950 . S
C897 C894 1.387 . S
C898 C899 1.387 . S
C898 H902 0.950 . S
C898 C907 1.390 1_655 S
C899 C898 1.387 . S
C899 C901 1.387 . S
H900 C907 0.950 . S
C901 C899 1.387 . S
C901 C903 1.390 1_655 S
C901 H905 0.950 . S
H902 C898 0.950 . S
C903 C901 1.390 1_455 S
C903 C904 1.387 . S
C903 H906 0.950 . S
C904 C903 1.387 . S
C904 C907 1.387 . S
H905 C901 0.950 . S
H906 C903 0.950 . S
C907 C898 1.390 1_455 S
C907 H900 0.950 . S
C907 C904 1.387 . S
C908 C909 1.387 . S
C908 H912 0.950 . S
C908 C917 1.390 1_655 S
C909 C908 1.387 . S
C909 C911 1.387 . S
H910 C917 0.950 . S
C911 C909 1.387 . S
C911 C913 1.390 1_655 S
C911 H915 0.950 . S
H912 C908 0.950 . S
C913 C911 1.390 1_455 S
C913 C914 1.387 . S
C913 H916 0.950 . S
C914 C913 1.387 . S
C914 C917 1.387 . S
H915 C911 0.950 . S
H916 C913 0.950 . S
C917 C908 1.390 1_455 S
C917 H910 0.950 . S
C917 C914 1.387 . S
C918 C919 1.387 . S
C918 H922 0.950 . S
C918 C927 1.390 . S
C919 C918 1.387 . S
C919 C921 1.387 . S
H920 C927 0.950 . S
C921 C919 1.387 . S
C921 C923 1.390 . S
C921 H925 0.950 . S
H922 C918 0.950 . S
C923 C921 1.390 . S
C923 C924 1.387 . S
C923 H926 0.950 . S
C924 C923 1.387 . S
C924 C927 1.387 . S
H925 C921 0.950 . S
H926 C923 0.950 . S
C927 C918 1.390 . S
C927 H920 0.950 . S
C927 C924 1.387 . S
C928 C929 1.387 . S
C928 H932 0.950 . S
C928 C937 1.390 . S
C929 C928 1.387 . S
C929 C931 1.387 . S
H930 C937 0.950 . S
C931 C929 1.387 . S
C931 C933 1.390 . S
C931 H935 0.950 . S
H932 C928 0.950 . S
C933 C931 1.390 . S
C933 C934 1.387 . S
C933 H936 0.950 . S
C934 C933 1.387 . S
C934 C937 1.387 . S
H935 C931 0.950 . S
H936 C933 0.950 . S
C937 C928 1.390 . S
C937 H930 0.950 . S
C937 C934 1.387 . S
C938 C939 1.387 1_545 S
C938 H942 0.949 . S
C938 C947 1.390 . S
C939 C938 1.387 1_565 S
C939 C941 1.387 1_565 S
H940 C947 0.950 . S
C941 C939 1.387 1_545 S
C941 C943 1.390 . S
C941 H945 0.947 1_545 S
H942 C938 0.949 . S
C943 C941 1.390 . S
C943 C944 1.387 . S
C943 H946 0.950 . S
C944 C943 1.387 . S
C944 C947 1.387 . S
H945 C941 0.947 1_565 S
H946 C943 0.950 . S
C947 C938 1.390 . S
C947 H940 0.950 . S
C947 C944 1.387 . S
C948 C949 1.387 . S
C948 H952 0.950 . S
C948 C957 1.390 . S
C949 C948 1.387 . S
C949 C951 1.387 . S
H950 C957 0.950 . S
C951 C949 1.387 . S
C951 C953 1.390 . S
C951 H955 0.950 . S
H952 C948 0.950 . S
C953 C951 1.390 . S
C953 C954 1.387 . S
C953 H956 0.950 . S
C954 C953 1.387 . S
C954 C957 1.387 . S
H955 C951 0.950 . S
H956 C953 0.950 . S
C957 C948 1.390 . S
C957 H950 0.950 . S
C957 C954 1.387 . S
C958 C959 1.387 . S
C958 H962 0.950 . S
C958 C967 1.390 . S
C959 C958 1.387 . S
C959 C961 1.387 . S
H960 C967 0.945 1_565 S
C961 C959 1.387 . S
C961 C963 1.390 . S
C961 H965 0.950 . S
H962 C958 0.950 . S
C963 C961 1.390 . S
C963 C964 1.387 1_545 S
C963 H966 0.946 1_545 S
C964 C963 1.387 1_565 S
C964 C967 1.387 1_565 S
H965 C961 0.950 . S
H966 C963 0.946 1_565 S
C967 C958 1.390 . S
C967 H960 0.945 1_545 S
C967 C964 1.387 1_545 S
C968 C969 1.387 . S
C968 H972 0.950 . S
C968 C977 1.390 . S
C969 C968 1.387 . S
C969 C971 1.387 . S
H970 C977 0.950 . S
C971 C969 1.387 . S
C971 C973 1.390 . S
C971 H975 0.950 . S
H972 C968 0.950 . S
C973 C971 1.390 . S
C973 C974 1.387 . S
C973 H976 0.950 . S
C974 C973 1.387 . S
C974 C977 1.387 . S
H975 C971 0.950 . S
H976 C973 0.950 . S
C977 C968 1.390 . S
C977 H970 0.950 . S
C977 C974 1.387 . S
C978 C979 1.387 . S
C978 H982 0.950 . S
C978 C987 1.390 . S
C979 C978 1.387 . S
C979 C981 1.387 . S
H980 C987 0.945 1_565 S
C981 C979 1.387 . S
C981 C983 1.390 . S
C981 H985 0.950 . S
H982 C978 0.950 . S
C983 C981 1.390 . S
C983 C984 1.387 1_545 S
C983 H986 0.946 1_545 S
C984 C983 1.387 1_565 S
C984 C987 1.387 1_565 S
H985 C981 0.950 . S
H986 C983 0.946 1_565 S
C987 C978 1.390 . S
C987 H980 0.945 1_545 S
C987 C984 1.387 1_545 S
C988 C989 1.387 . S
C988 H992 0.950 . S
C988 C997 1.390 . S
C989 C988 1.387 . S
C989 C991 1.387 . S
H990 C997 0.950 . S
C991 C989 1.387 . S
C991 C993 1.390 . S
C991 H995 0.950 . S
H992 C988 0.950 . S
C993 C991 1.390 . S
C993 C994 1.387 . S
C993 H996 0.950 . S
C994 C993 1.387 . S
C994 C997 1.387 . S
H995 C991 0.950 . S
H996 C993 0.950 . S
C997 C988 1.390 . S
C997 H990 0.950 . S
C997 C994 1.387 . S
C998 C999 1.387 1_545 S
C998 H1002 0.947 1_545 S
C998 C1007 1.390 . S
C999 C998 1.387 1_565 S
C999 C1001 1.387 1_565 S
H1000 C1007 0.950 . S
C1001 C999 1.387 1_545 S
C1001 C1003 1.390 . S
C1001 H1005 0.951 1_545 S
H1002 C998 0.947 1_565 S
C1003 C1001 1.390 . S
C1003 C1004 1.387 . S
C1003 H1006 0.950 . S
C1004 C1003 1.387 . S
C1004 C1007 1.387 . S
H1005 C1001 0.951 1_565 S
H1006 C1003 0.950 . S
C1007 C998 1.390 . S
C1007 H1000 0.950 . S
C1007 C1004 1.387 . S
C1008 C1009 1.387 . S
C1008 H1012 0.950 . S
C1008 C1017 1.390 . S
C1009 C1008 1.387 . S
C1009 C1011 1.387 . S
H1010 C1017 0.950 . S
C1011 C1009 1.387 . S
C1011 C1013 1.390 . S
C1011 H1015 0.950 . S
H1012 C1008 0.950 . S
C1013 C1011 1.390 . S
C1013 C1014 1.387 . S
C1013 H1016 0.950 . S
C1014 C1013 1.387 . S
C1014 C1017 1.387 . S
H1015 C1011 0.950 . S
H1016 C1013 0.950 . S
C1017 C1008 1.390 . S
C1017 H1010 0.950 . S
C1017 C1014 1.387 . S
C1018 C1019 1.387 . S
C1018 H1022 0.950 . S
C1018 C1027 1.390 . S
C1019 C1018 1.387 . S
C1019 C1021 1.387 . S
H1020 C1027 0.950 . S
C1021 C1019 1.387 . S
C1021 C1023 1.390 . S
C1021 H1025 0.950 . S
H1022 C1018 0.950 . S
C1023 C1021 1.390 . S
C1023 C1024 1.387 . S
C1023 H1026 0.950 . S
C1024 C1023 1.387 . S
C1024 C1027 1.387 . S
H1025 C1021 0.950 . S
H1026 C1023 0.950 . S
C1027 C1018 1.390 . S
C1027 H1020 0.950 . S
C1027 C1024 1.387 . S
C1028 C1029 1.387 . S
C1028 H1032 0.950 . S
C1028 C1037 1.390 . S
C1029 C1028 1.387 . S
C1029 C1031 1.387 . S
H1030 C1037 0.950 . S
C1031 C1029 1.387 . S
C1031 C1033 1.390 . S
C1031 H1035 0.950 . S
H1032 C1028 0.950 . S
C1033 C1031 1.390 . S
C1033 C1034 1.387 . S
C1033 H1036 0.950 . S
C1034 C1033 1.387 . S
C1034 C1037 1.387 . S
H1035 C1031 0.950 . S
H1036 C1033 0.950 . S
C1037 C1028 1.390 . S
C1037 H1030 0.950 . S
C1037 C1034 1.387 . S
C1038 C1039 1.387 . S
C1038 H1042 0.950 . S
C1038 C1047 1.390 . S
C1039 C1038 1.387 . S
C1039 C1041 1.387 . S
H1040 C1047 0.950 . S
C1041 C1039 1.387 . S
C1041 C1043 1.390 . S
C1041 H1045 0.950 . S
H1042 C1038 0.950 . S
C1043 C1041 1.390 . S
C1043 C1044 1.387 . S
C1043 H1046 0.950 . S
C1044 C1043 1.387 . S
C1044 C1047 1.387 . S
H1045 C1041 0.950 . S
H1046 C1043 0.950 . S
C1047 C1038 1.390 . S
C1047 H1040 0.950 . S
C1047 C1044 1.387 . S
C1048 C1049 1.387 . S
C1048 H1052 0.950 . S
C1048 C1057 1.390 . S
C1049 C1048 1.387 . S
C1049 C1051 1.387 . S
H1050 C1057 0.950 . S
C1051 C1049 1.387 . S
C1051 C1053 1.390 . S
C1051 H1055 0.950 . S
H1052 C1048 0.950 . S
C1053 C1051 1.390 . S
C1053 C1054 1.387 . S
C1053 H1056 0.950 . S
C1054 C1053 1.387 . S
C1054 C1057 1.387 . S
H1055 C1051 0.950 . S
H1056 C1053 0.950 . S
C1057 C1048 1.390 . S
C1057 H1050 0.950 . S
C1057 C1054 1.387 . S
C1058 C1059 1.387 . S
C1058 H1062 0.950 . S
C1058 C1067 1.390 . S
C1059 C1058 1.387 . S
C1059 C1061 1.387 . S
H1060 C1067 0.950 . S
C1061 C1059 1.387 . S
C1061 C1063 1.390 . S
C1061 H1065 0.950 . S
H1062 C1058 0.950 . S
C1063 C1061 1.390 . S
C1063 C1064 1.387 . S
C1063 H1066 0.950 . S
C1064 C1063 1.387 . S
C1064 C1067 1.387 . S
H1065 C1061 0.950 . S
H1066 C1063 0.950 . S
C1067 C1058 1.390 . S
C1067 H1060 0.950 . S
C1067 C1064 1.387 . S
C1068 C1069 1.387 . S
C1068 H1072 0.950 . S
C1068 C1077 1.390 . S
C1069 C1068 1.387 . S
C1069 C1071 1.387 . S
H1070 C1077 0.950 . S
C1071 C1069 1.387 . S
C1071 C1073 1.390 . S
C1071 H1075 0.950 . S
H1072 C1068 0.950 . S
C1073 C1071 1.390 . S
C1073 C1074 1.387 . S
C1073 H1076 0.950 . S
C1074 C1073 1.387 . S
C1074 C1077 1.387 . S
H1075 C1071 0.950 . S
H1076 C1073 0.950 . S
C1077 C1068 1.390 . S
C1077 H1070 0.950 . S
C1077 C1074 1.387 . S
C1078 C1079 1.387 . S
C1078 H1082 0.950 . S
C1078 C1087 1.390 . S
C1079 C1078 1.387 . S
C1079 C1081 1.387 . S
H1080 C1087 0.950 . S
C1081 C1079 1.387 . S
C1081 C1083 1.390 . S
C1081 H1085 0.950 . S
H1082 C1078 0.950 . S
C1083 C1081 1.390 . S
C1083 C1084 1.387 . S
C1083 H1086 0.950 . S
C1084 C1083 1.387 . S
C1084 C1087 1.387 . S
H1085 C1081 0.950 . S
H1086 C1083 0.950 . S
C1087 C1078 1.390 . S
C1087 H1080 0.950 . S
C1087 C1084 1.387 . S
C449 C104 1.496 . S
C454 C6 1.494 . S
C459 C20 1.494 . S
C464 C62 1.496 . S
C469 C76 1.494 . S
C474 C34 1.496 . S
C479 C48 1.496 . S
C484 C90 1.494 . S
C489 C118 1.496 . S
C494 C216 1.494 . S
C499 C132 1.496 . S
C504 C174 1.494 . S
C509 C146 1.496 . S
C514 C188 1.494 . S
C519 C160 1.493 . S
C524 C202 1.495 . S
C529 C230 1.494 . S
C534 C328 1.496 . S
C539 C244 1.496 . S
C544 C286 1.494 . S
C549 C300 1.493 . S
C554 C258 1.495 . S
C559 C314 1.496 . S
C564 C272 1.495 . S
C569 C342 1.493 . S
C574 C440 1.495 . S
C579 C398 1.495 . S
C584 C356 1.494 . S
C589 C412 1.496 . S
C594 C370 1.495 . S
C599 C384 1.493 . S
C604 C426 1.494 . S
C609 C8 1.134 . S
C614 C92 1.134 . S
C619 C22 1.134 . S
C624 C106 1.134 . S
C629 C64 1.130 . S
C634 C36 1.130 . S
C639 C50 1.130 . S
C644 C78 1.130 . S
C649 C120 1.134 . S
C654 C204 1.134 . S
C659 C134 1.134 . S
C664 C218 1.134 . S
C669 C176 1.131 . S
C674 C148 1.131 . S
C679 C190 1.130 . S
C684 C162 1.130 . S
C689 C232 1.134 . S
C694 C316 1.134 . S
C699 C330 1.130 . S
C704 C246 1.130 . S
C709 C288 1.134 . S
C714 C260 1.134 . S
C719 C274 1.134 . S
C724 C302 1.134 . S
C729 C344 1.131 . S
C734 C428 1.131 . S
C739 C358 1.134 . S
C744 C442 1.134 . S
C749 C400 1.134 . S
C754 C372 1.134 . S
C759 C414 1.134 . S
C764 C386 1.134 . S
C769 C9 1.539 . S
C774 C429 1.539 . S
C779 C23 1.540 . S
C784 C219 1.539 . S
C789 C37 1.540 . S
C794 C401 1.539 . S
C799 C51 1.540 . S
C804 C191 1.538 . S
C809 C65 1.539 . S
C814 C373 1.540 . S
C819 C79 1.539 . S
C824 C163 1.540 . S
C829 C93 1.540 . S
C834 C345 1.538 . S
C839 C135 1.540 . S
C844 C107 1.539 . S
C849 C317 1.540 . S
C854 C121 1.539 . S
C859 C149 1.540 . S
C864 C289 1.539 . S
C869 C261 1.539 . S
C874 C177 1.540 . S
C879 C233 1.540 . S
C884 C205 1.539 . S
C889 C247 1.539 . S
C894 C443 1.540 . S
C899 C275 1.540 . S
C904 C415 1.538 . S
C909 C303 1.538 . S
C914 C387 1.540 . S
C919 C359 1.540 . S
C924 C331 1.539 . S
C929 C7 1.510 . S
C934 C91 1.510 . S
C939 C21 1.511 . S
C944 C105 1.511 . S
C949 C63 1.511 . S
C954 C35 1.511 . S
C959 C49 1.513 1_554 S
C964 C77 1.513 . S
C969 C119 1.511 . S
C974 C203 1.511 . S
C979 C133 1.513 . S
C984 C217 1.513 . S
C989 C175 1.513 . S
C994 C147 1.513 . S
C999 C161 1.511 . S
C1004 C189 1.511 1_554 S
C1009 C315 1.513 . S
C1014 C231 1.513 . S
C1019 C329 1.511 . S
C1024 C245 1.511 1_554 S
C1029 C287 1.513 . S
C1034 C259 1.513 . S
C1039 C301 1.510 . S
C1044 C273 1.510 . S
C1049 C427 1.513 . S
C1054 C343 1.513 . S
C1059 C441 1.511 1_554 S
C1064 C357 1.511 . S
C1069 C371 1.513 . S
C1074 C399 1.513 . S
C1079 C413 1.510 . S
C1084 C385 1.510 . S
