# Generated by pormake.
# Topology snz, (6)-cn, num edge types: 1
# Building blocks:
#     Node 0, Type 0, BuildingBlock: MIFKUJ_clean_sbu_0, # of connection points: 6
#     Node 1, Type 0, BuildingBlock: MIFKUJ_clean_sbu_0, # of connection points: 6
#     Node 2, Type 0, BuildingBlock: MIFKUJ_clean_sbu_0, # of connection points: 6
#     Node 3, Type 0, BuildingBlock: MIFKUJ_clean_sbu_0, # of connection points: 6
#     Node 4, Type 0, BuildingBlock: MIFKUJ_clean_sbu_0, # of connection points: 6
#     Node 5, Type 0, BuildingBlock: MIFKUJ_clean_sbu_0, # of connection points: 6
#     Node 6, Type 0, BuildingBlock: MIFKUJ_clean_sbu_0, # of connection points: 6
#     Node 7, Type 0, BuildingBlock: MIFKUJ_clean_sbu_0, # of connection points: 6
#     Node 8, Type 0, BuildingBlock: MIFKUJ_clean_sbu_0, # of connection points: 6
#     Edge 9, Type (0, 0), BuildingBlock: UVAHIK_clean_linker_0, # of connection points: 2
#     Edge 10, Type (0, 0), BuildingBlock: UVAHIK_clean_linker_0, # of connection points: 2
#     Edge 11, Type (0, 0), BuildingBlock: UVAHIK_clean_linker_0, # of connection points: 2
#     Edge 12, Type (0, 0), BuildingBlock: UVAHIK_clean_linker_0, # of connection points: 2
#     Edge 13, Type (0, 0), BuildingBlock: UVAHIK_clean_linker_0, # of connection points: 2
#     Edge 14, Type (0, 0), BuildingBlock: UVAHIK_clean_linker_0, # of connection points: 2
#     Edge 15, Type (0, 0), BuildingBlock: UVAHIK_clean_linker_0, # of connection points: 2
#     Edge 16, Type (0, 0), BuildingBlock: UVAHIK_clean_linker_0, # of connection points: 2
#     Edge 17, Type (0, 0), BuildingBlock: UVAHIK_clean_linker_0, # of connection points: 2
#     Edge 18, Type (0, 0), BuildingBlock: UVAHIK_clean_linker_0, # of connection points: 2
#     Edge 19, Type (0, 0), BuildingBlock: UVAHIK_clean_linker_0, # of connection points: 2
#     Edge 20, Type (0, 0), BuildingBlock: UVAHIK_clean_linker_0, # of connection points: 2
#     Edge 21, Type (0, 0), BuildingBlock: UVAHIK_clean_linker_0, # of connection points: 2
#     Edge 22, Type (0, 0), BuildingBlock: UVAHIK_clean_linker_0, # of connection points: 2
#     Edge 23, Type (0, 0), BuildingBlock: UVAHIK_clean_linker_0, # of connection points: 2
#     Edge 24, Type (0, 0), BuildingBlock: UVAHIK_clean_linker_0, # of connection points: 2
#     Edge 25, Type (0, 0), BuildingBlock: UVAHIK_clean_linker_0, # of connection points: 2
#     Edge 26, Type (0, 0), BuildingBlock: UVAHIK_clean_linker_0, # of connection points: 2
#     Edge 27, Type (0, 0), BuildingBlock: UVAHIK_clean_linker_0, # of connection points: 2
#     Edge 28, Type (0, 0), BuildingBlock: UVAHIK_clean_linker_0, # of connection points: 2
#     Edge 29, Type (0, 0), BuildingBlock: UVAHIK_clean_linker_0, # of connection points: 2
#     Edge 30, Type (0, 0), BuildingBlock: UVAHIK_clean_linker_0, # of connection points: 2
#     Edge 31, Type (0, 0), BuildingBlock: UVAHIK_clean_linker_0, # of connection points: 2
#     Edge 32, Type (0, 0), BuildingBlock: UVAHIK_clean_linker_0, # of connection points: 2
#     Edge 33, Type (0, 0), BuildingBlock: UVAHIK_clean_linker_0, # of connection points: 2
#     Edge 34, Type (0, 0), BuildingBlock: UVAHIK_clean_linker_0, # of connection points: 2
#     Edge 35, Type (0, 0), BuildingBlock: UVAHIK_clean_linker_0, # of connection points: 2
# Relax obj value: 0.100
# Max RMSD: 0.176
# Mean RMSD: 0.125
data_MOF--net-snz--node1-MIFKUJ_clean_sbu_0--edge1-UVAHIK_clean_linker_0
_symmetry_space_group_name_H-M    P1
_symmetry_Int_Tables_number       1
_symmetry_cell_setting            triclinic
loop_
_symmetry_equiv_pos_as_xyz
'x, y, z'
_cell_length_a     71.438194
_cell_length_b     68.959235
_cell_length_c     19.115308
_cell_angle_alpha  93.673179
_cell_angle_beta   93.658758
_cell_angle_gamma 120.10078
loop_
_atom_site_label
_atom_site_type_symbol
_atom_site_fract_x
_atom_site_fract_y
_atom_site_fract_z
_atom_type_partial_charge
Zn0 Zn 0.04355 0.50899 0.01575 0.0
Zn1 Zn 0.07173 0.48331 0.01283 0.0
C2 C 0.07582 0.54865 0.10115 0.0
O3 O 0.06103 0.53988 0.1451 0.0
C4 C 0.04172 0.442 0.92798 0.0
O5 O 0.05547 0.45213 0.88202 0.0
O6 O 0.02204 0.51983 0.00523 0.0
O7 O 0.0423 0.4946 0.91967 0.0
O8 O 0.07585 0.50096 0.92885 0.0
C9 C 0.0049 0.50989 0.96165 0.0
O10 O 0.99971 0.49058 0.92618 0.0
O11 O 0.07251 0.53799 0.04055 0.0
C12 C 0.09694 0.46736 0.08014 0.0
O13 O 0.082 0.46268 0.12333 0.0
O14 O 0.09639 0.47693 0.02588 0.0
O15 O 0.07112 0.49701 0.10843 0.0
O16 O 0.03745 0.49027 0.09722 0.0
O17 O 0.04479 0.45232 0.98901 0.0
C18 C 0.05924 0.49838 0.89133 0.0
C19 C 0.05378 0.49251 0.13548 0.0
Zn20 Zn 0.55991 0.48349 0.01423 0.0
Zn21 Zn 0.61281 0.50697 0.02452 0.0
C22 C 0.53931 0.44053 0.94108 0.0
O23 O 0.53245 0.45153 0.90361 0.0
C24 C 0.62065 0.54798 0.09687 0.0
O25 O 0.62817 0.54041 0.14605 0.0
O26 O 0.53006 0.47924 0.02526 0.0
O27 O 0.57647 0.49759 0.11062 0.0
O28 O 0.60369 0.49108 0.11194 0.0
C29 C 0.52177 0.46783 0.0762 0.0
O30 O 0.53327 0.4613 0.1137 0.0
O31 O 0.55326 0.45125 0.99462 0.0
C32 C 0.65077 0.52735 0.95808 0.0
O33 O 0.63669 0.52933 0.91601 0.0
O34 O 0.6445 0.51755 0.01338 0.0
O35 O 0.59632 0.48882 0.93226 0.0
O36 O 0.57167 0.49902 0.92748 0.0
O37 O 0.61223 0.5361 0.03752 0.0
C38 C 0.58974 0.49336 0.144 0.0
C39 C 0.5841 0.49388 0.89653 0.0
Zn40 Zn 0.60656 0.02839 0.04911 0.0
Zn41 Zn 0.54599 0.00259 0.04191 0.0
C42 C 0.59928 0.98391 0.07864 0.0
O43 O 0.58631 0.98453 0.12324 0.0
C44 C 0.54776 0.04567 0.01136 0.0
O45 O 0.56905 0.05635 0.02493 0.0
O46 O 0.63639 0.0526 0.02918 0.0
O47 O 0.58693 0.02932 0.97013 0.0
O48 O 0.55727 0.99599 0.95322 0.0
C49 C 0.65356 0.05203 0.04668 0.0
O50 O 0.65246 0.03688 0.08721 0.0
O51 O 0.6079 0.99962 0.03906 0.0
C52 C 0.50976 0.97884 0.11438 0.0
O53 O 0.52065 0.99861 0.15219 0.0
O54 O 0.51752 0.97535 0.05997 0.0
O55 O 0.56504 0.01381 0.13639 0.0
O56 O 0.6011 0.03335 0.15001 0.0
O57 O 0.53662 0.02469 0.01722 0.0
C58 C 0.57362 0.01178 0.92913 0.0
C59 C 0.58301 0.02437 0.17616 0.0
Zn60 Zn 0.73836 0.85246 0.31261 0.0
Zn61 Zn 0.76501 0.82523 0.3099 0.0
C62 C 0.76868 0.89215 0.40151 0.0
O63 O 0.75363 0.88209 0.44376 0.0
C64 C 0.7326 0.78491 0.22704 0.0
O65 O 0.74739 0.79297 0.18278 0.0
O66 O 0.71531 0.86112 0.29628 0.0
O67 O 0.73843 0.8384 0.21694 0.0
O68 O 0.77152 0.84354 0.22736 0.0
C69 C 0.71864 0.87337 0.24608 0.0
O70 O 0.73586 0.87883 0.21274 0.0
O71 O 0.76631 0.88246 0.33994 0.0
C72 C 0.80305 0.82337 0.36625 0.0
O73 O 0.80831 0.84247 0.40325 0.0
O74 O 0.78618 0.81399 0.32153 0.0
O75 O 0.76604 0.8398 0.40547 0.0
O76 O 0.7327 0.83409 0.39547 0.0
O77 O 0.73593 0.79644 0.28597 0.0
C78 C 0.75543 0.84192 0.18941 0.0
C79 C 0.749 0.83604 0.43326 0.0
Zn80 Zn 0.19545 0.82526 0.3064 0.0
Zn81 Zn 0.24904 0.85245 0.31801 0.0
C82 C 0.18886 0.78441 0.23763 0.0
O83 O 0.18016 0.79088 0.18847 0.0
C84 C 0.26147 0.89373 0.39836 0.0
O85 O 0.26787 0.88394 0.44295 0.0
O86 O 0.16349 0.81306 0.31832 0.0
O87 O 0.2115 0.84415 0.39788 0.0
O88 O 0.23725 0.83557 0.40284 0.0
C89 C 0.15792 0.8024 0.3724 0.0
O90 O 0.17276 0.80079 0.41167 0.0
O91 O 0.19773 0.79711 0.29544 0.0
C92 C 0.28809 0.86563 0.2547 0.0
O93 O 0.27608 0.86738 0.2034 0.0
O94 O 0.28006 0.85917 0.31222 0.0
O95 O 0.23325 0.83776 0.22058 0.0
O96 O 0.20366 0.84043 0.21753 0.0
O97 O 0.25217 0.88329 0.33765 0.0
C98 C 0.22388 0.83928 0.4335 0.0
C99 C 0.21829 0.83926 0.18603 0.0
Zn100 Zn 0.25906 0.32873 0.25392 0.0
Zn101 Zn 0.20132 0.30495 0.2394 0.0
C102 C 0.28016 0.31159 0.33652 0.0
O103 O 0.28739 0.33163 0.37063 0.0
C104 C 0.20324 0.34321 0.17994 0.0
O105 O 0.19914 0.33008 0.12136 0.0
O106 O 0.28825 0.35535 0.2385 0.0
O107 O 0.2418 0.31767 0.1567 0.0
O108 O 0.20597 0.29539 0.14278 0.0
C109 C 0.29699 0.35007 0.19054 0.0
O110 O 0.28632 0.32942 0.15829 0.0
O111 O 0.26657 0.30544 0.28178 0.0
C112 C 0.16609 0.29462 0.31395 0.0
O113 O 0.18171 0.31413 0.34572 0.0
O114 O 0.16997 0.28589 0.2601 0.0
O115 O 0.21778 0.30178 0.32352 0.0
O116 O 0.24696 0.33556 0.33993 0.0
O117 O 0.20607 0.33671 0.23855 0.0
C118 C 0.22404 0.30554 0.11686 0.0
C119 C 0.23168 0.3189 0.36494 0.0
Zn120 Zn 0.3947 0.15522 0.7707 0.0
Zn121 Zn 0.40569 0.16983 0.61435 0.0
C122 C 0.41405 0.12995 0.74886 0.0
O123 O 0.3942 0.11536 0.76157 0.0
C124 C 0.37598 0.18478 0.58796 0.0
O125 O 0.36893 0.17392 0.64333 0.0
O126 O 0.3955 0.1485 0.8701 0.0
O127 O 0.40195 0.1874 0.77328 0.0
O128 O 0.42537 0.19285 0.69711 0.0
C129 C 0.41422 0.16068 0.90431 0.0
O130 O 0.42909 0.1782 0.87695 0.0
O131 O 0.41872 0.15006 0.74143 0.0
C132 C 0.42702 0.14812 0.55267 0.0
O133 O 0.41554 0.13252 0.59288 0.0
O134 O 0.42545 0.1657 0.55321 0.0
O135 O 0.37978 0.13818 0.61761 0.0
O136 O 0.36631 0.13154 0.7197 0.0
O137 O 0.39245 0.18563 0.56313 0.0
C138 C 0.41917 0.20055 0.74703 0.0
C139 C 0.3652 0.12549 0.65484 0.0
Zn140 Zn 0.92797 0.17129 0.67491 0.0
Zn141 Zn 0.88216 0.16158 0.66059 0.0
C142 C 0.9728 0.20093 0.66817 0.0
O143 O 0.96583 0.21523 0.67561 0.0
C144 C 0.83638 0.13393 0.64869 0.0
O145 O 0.84218 0.1186 0.64546 0.0
O146 O 0.92029 0.17526 0.57745 0.0
O147 O 0.90893 0.13789 0.68282 0.0
O148 O 0.88468 0.13729 0.60386 0.0
C149 C 0.92435 0.1652 0.52811 0.0
O150 O 0.93411 0.15394 0.54388 0.0
O151 O 0.95961 0.18017 0.67278 0.0
C152 C 0.87732 0.16627 0.80133 0.0
O153 O 0.87102 0.17952 0.77534 0.0
O154 O 0.88408 0.15635 0.76081 0.0
O155 O 0.90322 0.19532 0.65988 0.0
O156 O 0.92575 0.19385 0.74073 0.0
O157 O 0.85087 0.15445 0.64642 0.0
C158 C 0.89335 0.12722 0.6335 0.0
C159 C 0.91798 0.20485 0.71214 0.0
Zn160 Zn 0.91054 0.67989 0.73213 0.0
Zn161 Zn 0.89692 0.65339 0.59587 0.0
C162 C 0.86699 0.66333 0.77241 0.0
O163 O 0.87407 0.68502 0.78274 0.0
C164 C 0.93862 0.66813 0.55004 0.0
O165 O 0.92919 0.6462 0.53391 0.0
O166 O 0.92307 0.69928 0.8242 0.0
O167 O 0.92683 0.66306 0.72247 0.0
O168 O 0.89793 0.6333 0.66621 0.0
C169 C 0.92232 0.71697 0.84136 0.0
O170 O 0.91495 0.72518 0.79388 0.0
O171 O 0.87938 0.65685 0.74814 0.0
C172 C 0.86668 0.63349 0.47195 0.0
O173 O 0.85284 0.63446 0.51205 0.0
O174 O 0.88422 0.63569 0.50114 0.0
O175 O 0.88058 0.66996 0.60951 0.0
O176 O 0.91027 0.69983 0.65937 0.0
O177 O 0.92807 0.676 0.58014 0.0
C178 C 0.91565 0.64179 0.70663 0.0
C179 C 0.89217 0.69126 0.62128 0.0
C180 C 0.04046 0.49523 0.77256 0.0
C181 C 0.05894 0.49824 0.8138 0.0
C182 C 0.03979 0.49455 0.69928 0.0
C183 C 0.07492 0.51106 0.55544 0.0
H184 H 0.02205 0.46651 0.43926 0.0
C185 C 0.07195 0.49521 0.2548 0.0
C186 C 0.05362 0.49223 0.2128 0.0
C187 C 0.07231 0.4957 0.32794 0.0
C188 C 0.03684 0.47921 0.47098 0.0
H189 H 0.09124 0.50295 0.81025 0.0
H190 H 0.09001 0.50162 0.68205 0.0
H191 H 0.02347 0.46795 0.56745 0.0
H192 H 0.02117 0.48723 0.21487 0.0
H193 H 0.02188 0.48828 0.34302 0.0
H194 H 0.08829 0.52234 0.45907 0.0
C195 C 0.07613 0.50003 0.70664 0.0
C196 C 0.03767 0.48003 0.5444 0.0
C197 C 0.0768 0.5007 0.78007 0.0
C198 C 0.03552 0.4895 0.24567 0.0
C199 C 0.03589 0.49001 0.31904 0.0
C200 C 0.07409 0.51025 0.48207 0.0
C201 C 0.05758 0.49686 0.66545 0.0
C202 C 0.05672 0.49595 0.58744 0.0
C203 C 0.05436 0.49326 0.36099 0.0
C204 C 0.05506 0.49428 0.43899 0.0
H205 H 0.02643 0.49337 0.7968 0.0
H206 H 0.0254 0.49242 0.66915 0.0
H207 H 0.08971 0.52376 0.58715 0.0
H208 H 0.08616 0.49727 0.2313 0.0
H209 H 0.08664 0.49786 0.35861 0.0
C210 C 0.57006 0.49729 0.77665 0.0
C211 C 0.58449 0.49357 0.8191 0.0
C212 C 0.5707 0.49695 0.70356 0.0
C213 C 0.6067 0.50296 0.56576 0.0
H214 H 0.55283 0.47242 0.44051 0.0
C215 C 0.60458 0.48935 0.26197 0.0
C216 C 0.58966 0.49288 0.22139 0.0
C217 C 0.60414 0.48898 0.33507 0.0
C218 C 0.56803 0.48121 0.47477 0.0
H219 H 0.61094 0.48657 0.81793 0.0
H220 H 0.61194 0.48591 0.69103 0.0
H221 H 0.5516 0.47318 0.56774 0.0
H222 H 0.56263 0.49888 0.22611 0.0
H223 H 0.56209 0.49848 0.35262 0.0
H224 H 0.62312 0.51112 0.47275 0.0
C225 C 0.60027 0.4893 0.71411 0.0
C226 C 0.56731 0.48166 0.54768 0.0
C227 C 0.59957 0.48954 0.78691 0.0
C228 C 0.57435 0.49603 0.25549 0.0
C229 C 0.57391 0.49565 0.32819 0.0
C230 C 0.60742 0.50255 0.49279 0.0
C231 C 0.58585 0.49299 0.67154 0.0
C232 C 0.58662 0.4926 0.59402 0.0
C233 C 0.58874 0.49206 0.36892 0.0
C234 C 0.58809 0.49177 0.44644 0.0
H235 H 0.55826 0.50046 0.79979 0.0
H236 H 0.5595 0.50008 0.6722 0.0
H237 H 0.62187 0.51176 0.60011 0.0
H238 H 0.61655 0.48685 0.23734 0.0
H239 H 0.61567 0.48599 0.36494 0.0
C240 C 0.55749 0.9966 0.80247 0.0
C241 C 0.57514 0.01194 0.85172 0.0
C242 C 0.55878 0.99793 0.72977 0.0
C243 C 0.59046 0.0377 0.60141 0.0
H244 H 0.56186 0.98364 0.46849 0.0
C245 C 0.60142 0.03831 0.30134 0.0
C246 C 0.58259 0.02446 0.25417 0.0
C247 C 0.60094 0.03721 0.37443 0.0
C248 C 0.5698 0.99894 0.50481 0.0
H249 H 0.60827 0.04024 0.8626 0.0
H250 H 0.6107 0.0422 0.73667 0.0
H251 H 0.56025 0.98043 0.59443 0.0
H252 H 0.54855 0.99836 0.24781 0.0
H253 H 0.54769 0.99667 0.3741 0.0
H254 H 0.60017 0.05614 0.51144 0.0
C255 C 0.5956 0.02951 0.75382 0.0
C256 C 0.56883 0.9971 0.57727 0.0
C257 C 0.59426 0.02827 0.82632 0.0
C258 C 0.56331 0.00957 0.28215 0.0
C259 C 0.56287 0.00836 0.35485 0.0
C260 C 0.59155 0.03952 0.52892 0.0
C261 C 0.57781 0.01454 0.70432 0.0
C262 C 0.57906 0.01646 0.62678 0.0
C263 C 0.58169 0.02203 0.40207 0.0
C264 C 0.58112 0.02017 0.47957 0.0
H265 H 0.54248 0.98386 0.82005 0.0
H266 H 0.54462 0.98625 0.69362 0.0
H267 H 0.59825 0.05305 0.63747 0.0
H268 H 0.61659 0.04989 0.28179 0.0
H269 H 0.61579 0.04788 0.40918 0.0
C270 C 0.7317 0.83464 0.54471 0.0
C271 C 0.7491 0.83591 0.5107 0.0
C272 C 0.73236 0.83528 0.61817 0.0
C273 C 0.75925 0.82626 0.77407 0.0
H274 H 0.741 0.86313 0.87685 0.0
C275 C 0.77294 0.84345 0.07836 0.0
C276 C 0.75555 0.84229 0.11209 0.0
C277 C 0.77248 0.84307 0.00498 0.0
C278 C 0.74596 0.85258 0.84887 0.0
H279 H 0.78073 0.83863 0.52727 0.0
H280 H 0.78188 0.83987 0.65488 0.0
H281 H 0.7389 0.86098 0.74851 0.0
H282 H 0.72415 0.84008 0.09515 0.0
H283 H 0.72331 0.8392 0.9677 0.0
H284 H 0.76627 0.81782 0.87439 0.0
C285 C 0.76765 0.83817 0.62489 0.0
C286 C 0.74472 0.85133 0.77534 0.0
C287 C 0.76702 0.8376 0.55166 0.0
C288 C 0.73784 0.841 0.07096 0.0
C289 C 0.7374 0.84065 0.99782 0.0
C290 C 0.76048 0.82751 0.8476 0.0
C291 C 0.75038 0.83711 0.65904 0.0
C292 C 0.75135 0.83815 0.73711 0.0
C293 C 0.75466 0.84158 0.9639 0.0
C294 C 0.75383 0.84066 0.88585 0.0
H295 H 0.71766 0.83333 0.51471 0.0
H296 H 0.71869 0.83418 0.64293 0.0
H297 H 0.76421 0.81572 0.74607 0.0
H298 H 0.78684 0.84449 0.1085 0.0
H299 H 0.78616 0.84407 0.98046 0.0
C300 C 0.20746 0.84203 0.54267 0.0
C301 C 0.22296 0.83869 0.51058 0.0
C302 C 0.20634 0.84152 0.61517 0.0
C303 C 0.22168 0.82121 0.7703 0.0
H304 H 0.21264 0.86535 0.87518 0.0
C305 C 0.23243 0.83455 0.07371 0.0
C306 C 0.21753 0.83834 0.10814 0.0
C307 C 0.23219 0.8339 0.00059 0.0
C308 C 0.21487 0.85272 0.84652 0.0
H309 H 0.24945 0.83219 0.52978 0.0
H310 H 0.24765 0.83154 0.65693 0.0
H311 H 0.21453 0.86586 0.74834 0.0
H312 H 0.1905 0.84417 0.09221 0.0
H313 H 0.19001 0.84291 0.96385 0.0
H314 H 0.22214 0.80816 0.86857 0.0
C315 C 0.23618 0.83429 0.62559 0.0
C316 C 0.216 0.85303 0.77383 0.0
C317 C 0.2373 0.83477 0.55281 0.0
C318 C 0.20224 0.84129 0.0674 0.0
C319 C 0.20203 0.84068 0.99395 0.0
C320 C 0.22056 0.82091 0.84298 0.0
C321 C 0.22071 0.8377 0.65759 0.0
C322 C 0.21949 0.83733 0.73489 0.0
C323 C 0.21704 0.837 0.95977 0.0
C324 C 0.21726 0.83673 0.88201 0.0
H325 H 0.19605 0.84495 0.51173 0.0
H326 H 0.19401 0.84386 0.63787 0.0
H327 H 0.224 0.80864 0.74171 0.0
H328 H 0.2444 0.83212 0.1032 0.0
H329 H 0.24416 0.83135 0.97613 0.0
C330 C 0.21196 0.30181 0.46848 0.0
C331 C 0.23086 0.31823 0.44238 0.0
C332 C 0.21109 0.30034 0.54095 0.0
C333 C 0.2389 0.33227 0.71699 0.0
H334 H 0.20693 0.2731 0.7816 0.0
C335 C 0.24424 0.31885 0.011 0.0
C336 C 0.22464 0.30483 0.03894 0.0
C337 C 0.2448 0.31996 0.93833 0.0
C338 C 0.21576 0.28975 0.7644 0.0
H339 H 0.26372 0.34608 0.47257 0.0
H340 H 0.26245 0.34321 0.59911 0.0
H341 H 0.20872 0.27643 0.65566 0.0
H342 H 0.19029 0.2806 0.01129 0.0
H343 H 0.19135 0.28235 0.88391 0.0
H344 H 0.24623 0.34549 0.82608 0.0
C345 C 0.24807 0.3317 0.56355 0.0
C346 C 0.21676 0.29171 0.69202 0.0
C347 C 0.24886 0.33332 0.49084 0.0
C348 C 0.20568 0.2915 0.99178 0.0
C349 C 0.2063 0.29248 0.91874 0.0
C350 C 0.23805 0.33028 0.78935 0.0
C351 C 0.22918 0.3151 0.58968 0.0
C352 C 0.22831 0.31302 0.66714 0.0
C353 C 0.22582 0.30699 0.89125 0.0
C354 C 0.22647 0.309 0.81402 0.0
H355 H 0.1977 0.29001 0.43281 0.0
H356 H 0.19608 0.28767 0.55868 0.0
H357 H 0.24761 0.34898 0.7002 0.0
H358 H 0.25919 0.32945 0.04534 0.0
H359 H 0.26017 0.33105 0.91898 0.0
C360 C 0.45224 0.16081 0.45984 0.0
C361 C 0.43814 0.14341 0.49759 0.0
C362 C 0.45807 0.15573 0.39605 0.0
C363 C 0.42716 0.11383 0.25493 0.0
H364 H 0.47496 0.1541 0.15517 0.0
C365 C 0.41 0.13 0.97584 0.0
C366 C 0.42061 0.15301 0.96657 0.0
C367 C 0.41707 0.1226 0.03253 0.0
C368 C 0.46148 0.14258 0.18212 0.0
H369 H 0.4217 0.10733 0.50409 0.0
H370 H 0.43146 0.09844 0.39134 0.0
H371 H 0.48164 0.15184 0.28042 0.0
H372 H 0.44713 0.18627 0.00766 0.0
H373 H 0.45863 0.17372 0.10893 0.0
H374 H 0.40651 0.10635 0.15983 0.0
C375 C 0.43795 0.11596 0.411 0.0
C376 C 0.46539 0.1411 0.25354 0.0
C377 C 0.4323 0.12108 0.47534 0.0
C378 C 0.43857 0.16845 0.01409 0.0
C379 C 0.4454 0.16115 0.07139 0.0
C380 C 0.42321 0.11552 0.18398 0.0
C381 C 0.44966 0.13315 0.3687 0.0
C382 C 0.44796 0.12788 0.29158 0.0
C383 C 0.43465 0.13814 0.08169 0.0
C384 C 0.44006 0.1311 0.14816 0.0
H385 H 0.45735 0.17822 0.47664 0.0
H386 H 0.4671 0.16938 0.36472 0.0
H387 H 0.41335 0.10352 0.28274 0.0
H388 H 0.39645 0.11766 0.93867 0.0
H389 H 0.40859 0.10475 0.03826 0.0
C390 C 0.9186 0.15114 0.40096 0.0
C391 C 0.91587 0.16395 0.45499 0.0
C392 C 0.90982 0.14923 0.33202 0.0
C393 C 0.89359 0.17882 0.21459 0.0
H394 H 0.86747 0.12232 0.09303 0.0
C395 C 0.86846 0.17355 0.92044 0.0
C396 C 0.87659 0.16308 0.87645 0.0
C397 C 0.86857 0.17129 0.9923 0.0
C398 C 0.87469 0.13817 0.12653 0.0
H399 H 0.90168 0.18466 0.47979 0.0
H400 H 0.8864 0.18135 0.35896 0.0
H401 H 0.87674 0.12306 0.2188 0.0
H402 H 0.89049 0.1414 0.87222 0.0
H403 H 0.89104 0.13779 0.99799 0.0
H404 H 0.89229 0.19412 0.12222 0.0
C405 C 0.89542 0.1729 0.37003 0.0
C406 C 0.88 0.1386 0.1982 0.0
C407 C 0.90417 0.1748 0.43902 0.0
C408 C 0.8842 0.14973 0.905 0.0
C409 C 0.88432 0.14748 0.97683 0.0
C410 C 0.8883 0.1784 0.14298 0.0
C411 C 0.89819 0.16012 0.31601 0.0
C412 C 0.89001 0.15904 0.24238 0.0
C413 C 0.8768 0.15851 0.02121 0.0
C414 C 0.87933 0.15819 0.09809 0.0
H415 H 0.92749 0.14254 0.4118 0.0
H416 H 0.91251 0.13959 0.29101 0.0
H417 H 0.90149 0.19484 0.24746 0.0
H418 H 0.86227 0.18376 0.89966 0.0
H419 H 0.8625 0.17978 0.02543 0.0
C420 C 0.85438 0.649 0.37614 0.0
C421 C 0.86699 0.63971 0.39939 0.0
C422 C 0.85961 0.66149 0.31831 0.0
C423 C 0.90789 0.69724 0.23556 0.0
H424 H 0.86936 0.69038 0.07177 0.0
C425 C 0.93492 0.71815 0.96595 0.0
C426 C 0.92274 0.72288 0.91687 0.0
C427 C 0.92982 0.71565 0.0351 0.0
C428 C 0.88024 0.69302 0.11817 0.0
H429 H 0.89314 0.63386 0.37518 0.0
H430 H 0.90205 0.65543 0.27418 0.0
H431 H 0.85446 0.66725 0.16778 0.0
H432 H 0.8975 0.73148 0.90306 0.0
H433 H 0.88859 0.72716 0.02451 0.0
H434 H 0.93376 0.7225 0.18558 0.0
C435 C 0.88859 0.6536 0.30191 0.0
C436 C 0.8717 0.67961 0.17267 0.0
C437 C 0.88332 0.64106 0.35921 0.0
C438 C 0.90716 0.72782 0.94001 0.0
C439 C 0.9019 0.72511 0.00926 0.0
C440 C 0.91639 0.71077 0.18154 0.0
C441 C 0.87747 0.66479 0.28318 0.0
C442 C 0.88563 0.68097 0.23026 0.0
C443 C 0.91234 0.71771 0.05616 0.0
C444 C 0.9028 0.70813 0.1209 0.0
H445 H 0.84163 0.64819 0.40577 0.0
H446 H 0.85066 0.66978 0.30412 0.0
H447 H 0.91885 0.69897 0.28054 0.0
H448 H 0.94706 0.71435 0.94927 0.0
H449 H 0.93818 0.7099 0.06973 0.0
C450 C 0.19371 0.37081 0.23396 0.0
C451 C 0.2008 0.36321 0.17718 0.0
C452 C 0.18721 0.38668 0.22566 0.0
C453 C 0.16585 0.4064 0.08263 0.0
H454 H 0.169 0.44868 0.2332 0.0
C455 C 0.12649 0.46083 0.04126 0.0
C456 C 0.11331 0.46045 0.09331 0.0
C457 C 0.14068 0.4526 0.05245 0.0
C458 C 0.168 0.43693 0.19065 0.0
H459 H 0.20845 0.36763 0.06938 0.0
H460 H 0.19798 0.39587 0.05573 0.0
H461 H 0.18843 0.42835 0.25199 0.0
H462 H 0.10536 0.45199 0.19901 0.0
H463 H 0.13003 0.43769 0.21834 0.0
H464 H 0.14521 0.41471 0.02169 0.0
C465 C 0.19661 0.38904 0.10583 0.0
C466 C 0.17908 0.42524 0.20146 0.0
C467 C 0.2028 0.37298 0.11382 0.0
C468 C 0.11521 0.45244 0.15765 0.0
C469 C 0.12949 0.44439 0.16902 0.0
C470 C 0.15493 0.41818 0.07173 0.0
C471 C 0.18791 0.39545 0.16065 0.0
C472 C 0.17789 0.40955 0.14788 0.0
C473 C 0.14212 0.44402 0.11615 0.0
C474 C 0.15558 0.43332 0.12592 0.0
H475 H 0.19187 0.36346 0.2833 0.0
H476 H 0.18048 0.39107 0.26896 0.0
H477 H 0.16411 0.39413 0.04055 0.0
H478 H 0.12545 0.46695 0.9912 0.0
H479 H 0.15036 0.45272 0.01094 0.0
C480 C 0.6264 0.58068 0.1781 0.0
C481 C 0.62419 0.571 0.10902 0.0
C482 C 0.63278 0.60342 0.19156 0.0
C483 C 0.64363 0.6549 0.10527 0.0
H484 H 0.68527 0.68535 0.27162 0.0
C485 C 0.70924 0.74981 0.14447 0.0
C486 C 0.71407 0.76147 0.21228 0.0
C487 C 0.69393 0.72675 0.13239 0.0
C488 C 0.67339 0.67709 0.22561 0.0
H489 H 0.62602 0.57721 -0.00064 0.0
H490 H 0.63807 0.61719 0.02278 0.0
H491 H 0.66664 0.64459 0.24942 0.0
H492 H 0.70576 0.75834 0.31976 0.0
H493 H 0.67918 0.71796 0.29873 0.0
H494 H 0.65155 0.68789 0.08004 0.0
C495 C 0.63434 0.60717 0.0667 0.0
C496 C 0.66259 0.65362 0.21283 0.0
C497 C 0.6275 0.58424 0.05314 0.0
C498 C 0.70244 0.74984 0.26695 0.0
C499 C 0.68731 0.72671 0.25503 0.0
C500 C 0.6547 0.67849 0.11768 0.0
C501 C 0.63763 0.61721 0.13638 0.0
C502 C 0.64771 0.64215 0.15213 0.0
C503 C 0.6833 0.71482 0.18802 0.0
C504 C 0.66985 0.68982 0.17767 0.0
H505 H 0.62365 0.57076 0.22211 0.0
H506 H 0.63445 0.61029 0.24563 0.0
H507 H 0.63206 0.64672 0.05859 0.0
H508 H 0.71783 0.75832 0.10114 0.0
H509 H 0.69129 0.71803 0.08031 0.0
C510 C 0.47151 0.94664 0.08124 0.0
C511 C 0.48816 0.96197 0.13313 0.0
C512 C 0.45029 0.93303 0.09864 0.0
C513 C 0.41532 0.93125 0.23768 0.0
H514 H 0.37405 0.873 0.13547 0.0
C515 C 0.32657 0.87877 0.30401 0.0
C516 C 0.31088 0.8722 0.24558 0.0
C517 C 0.34848 0.88706 0.2943 0.0
C518 C 0.38545 0.88924 0.16453 0.0
H519 H 0.49612 0.97398 0.24455 0.0
H520 H 0.45961 0.94961 0.27558 0.0
H521 H 0.41209 0.89203 0.11169 0.0
H522 H 0.30566 0.86813 0.13126 0.0
H523 H 0.34373 0.88217 0.11449 0.0
H524 H 0.38863 0.92832 0.29064 0.0
C525 C 0.46249 0.94866 0.22089 0.0
C526 C 0.40723 0.90024 0.15064 0.0
C527 C 0.48352 0.96252 0.20325 0.0
C528 C 0.31739 0.87317 0.17738 0.0
C529 C 0.33917 0.88107 0.16769 0.0
C530 C 0.39365 0.9201 0.25222 0.0
C531 C 0.44538 0.93422 0.16856 0.0
C532 C 0.42244 0.92158 0.18634 0.0
C533 C 0.35502 0.88851 0.226 0.0
C534 C 0.37841 0.89914 0.21513 0.0
H535 H 0.47462 0.94598 0.02666 0.0
H536 H 0.4376 0.92234 0.05661 0.0
H537 H 0.42628 0.94784 0.26527 0.0
H538 H 0.32205 0.87825 0.35718 0.0
H539 H 0.36037 0.89259 0.34019 0.0
C540 C 0.51369 0.04555 0.97199 0.0
C541 C 0.5365 0.05745 0.98601 0.0
C542 C 0.50279 0.05606 0.946 0.0
C543 C 0.50973 0.10381 0.85151 0.0
H544 H 0.45408 0.0877 0.91785 0.0
C545 C 0.45324 0.14049 0.77386 0.0
C546 C 0.43111 0.12387 0.75808 0.0
C547 C 0.46847 0.13454 0.79785 0.0
C548 C 0.46958 0.09231 0.89867 0.0
H549 H 0.56575 0.08988 0.98371 0.0
H550 H 0.54653 0.10841 0.93875 0.0
H551 H 0.47635 0.07409 0.97252 0.0
H552 H 0.40797 0.08792 0.74905 0.0
H553 H 0.43438 0.07769 0.79067 0.0
H554 H 0.50267 0.12215 0.77756 0.0
C555 C 0.53717 0.09082 0.94744 0.0
C556 C 0.48232 0.08448 0.92985 0.0
C557 C 0.54816 0.08024 0.97361 0.0
C558 C 0.42483 0.10116 0.76159 0.0
C559 C 0.43993 0.09528 0.78573 0.0
C560 C 0.49696 0.11184 0.82053 0.0
C561 C 0.51433 0.07882 0.93351 0.0
C562 C 0.50227 0.08958 0.90543 0.0
C563 C 0.4617 0.11195 0.80658 0.0
C564 C 0.4765 0.10561 0.84267 0.0
H565 H 0.50415 0.02795 0.98047 0.0
H566 H 0.48524 0.04615 0.93457 0.0
H567 H 0.52499 0.108 0.83136 0.0
H568 H 0.45854 0.15815 0.77182 0.0
H569 H 0.48521 0.14768 0.81341 0.0
C570 C 0.9359 0.23662 0.80901 0.0
C571 C 0.92668 0.22875 0.73868 0.0
C572 C 0.94532 0.25942 0.83368 0.0
C573 C 0.95118 0.31405 0.78624 0.0
H574 H 1.00257 0.33943 0.92209 0.0
C575 C 0.01709 0.40898 0.83963 0.0
C576 C 0.02434 0.41815 0.91051 0.0
C577 C 1.00239 0.38593 0.82228 0.0
C578 C 0.98808 0.33253 0.88482 0.0
H579 H 0.91984 0.23848 0.6391 0.0
H580 H 0.9372 0.27849 0.68084 0.0
H581 H 0.98274 0.29919 0.88397 0.0
H582 H 0.02146 0.41049 0.01889 0.0
H583 H 0.99615 0.36996 0.98832 0.0
H584 H 0.95755 0.34794 0.78473 0.0
C585 C 0.93659 0.26703 0.71797 0.0
C586 C 0.97658 0.30938 0.86304 0.0
C587 C 0.92672 0.24408 0.69373 0.0
C588 C 0.01609 0.40391 0.96383 0.0
C589 C 1.00172 0.38074 0.94639 0.0
C590 C 0.96297 0.33731 0.80712 0.0
C591 C 0.94625 0.27509 0.7882 0.0
C592 C 0.95797 0.29975 0.81321 0.0
C593 C 0.99498 0.3715 0.87542 0.0
C594 C 0.98156 0.34675 0.85645 0.0
H595 H 0.93582 0.2251 0.84513 0.0
H596 H 0.95197 0.26473 0.88853 0.0
H597 H 0.93674 0.30734 0.74891 0.0
H598 H 0.02312 0.41958 0.79744 0.0
H599 H 0.99755 0.37922 0.76718 0.0
C600 C 0.83343 0.65463 0.82914 0.0
C601 C 0.84533 0.64691 0.79258 0.0
C602 C 0.81329 0.6394 0.85034 0.0
C603 C 0.76708 0.58162 0.80962 0.0
H604 H 0.75209 0.59359 0.99259 0.0
C605 C 0.67868 0.54394 0.87394 0.0
C606 C 0.67355 0.53719 0.94133 0.0
C607 C 0.70019 0.5546 0.85813 0.0
C608 C 0.75609 0.58981 0.94172 0.0
H609 H 0.84529 0.61703 0.74936 0.0
H610 H 0.80988 0.59035 0.78597 0.0
H611 H 0.78887 0.61758 0.96144 0.0
H612 H 0.68699 0.53589 0.04463 0.0
H613 H 0.72483 0.55479 0.01707 0.0
H614 H 0.7342 0.55407 0.7895 0.0
C615 C 0.81622 0.60826 0.79814 0.0
C616 C 0.7771 0.60371 0.92354 0.0
C617 C 0.83652 0.62353 0.77732 0.0
C618 C 0.69043 0.54089 0.99224 0.0
C619 C 0.71208 0.55181 0.97656 0.0
C620 C 0.74603 0.56781 0.82763 0.0
C621 C 0.80443 0.61604 0.83521 0.0
C622 C 0.78273 0.60003 0.8568 0.0
C623 C 0.7172 0.55895 0.90943 0.0
C624 C 0.74018 0.57199 0.8934 0.0
H625 H 0.83971 0.67251 0.84191 0.0
H626 H 0.80449 0.64597 0.87777 0.0
H627 H 0.77085 0.57838 0.75772 0.0
H628 H 0.66607 0.54128 0.83334 0.0
H629 H 0.70356 0.56012 0.80624 0.0
C630 C 0.91225 0.60387 0.71265 0.0
C631 C 0.92325 0.62712 0.73519 0.0
C632 C 0.91947 0.5901 0.73985 0.0
C633 C 0.95237 0.58717 0.89148 0.0
H634 H 0.95639 0.54375 0.76371 0.0
C635 C 1.00031 0.54367 0.97331 0.0
C636 C 0.99262 0.52138 0.94435 0.0
C637 C 0.99012 0.55539 0.95128 0.0
C638 C 0.95503 0.55549 0.80042 0.0
H639 H 0.95045 0.65408 0.80428 0.0
H640 H 0.963 0.63006 0.85154 0.0
H641 H 0.94202 0.56642 0.71791 0.0
H642 H 0.96757 0.4936 0.87168 0.0
H643 H 0.94951 0.51387 0.8344 0.0
H644 H 0.9654 0.5763 0.97403 0.0
C645 C 0.9487 0.62245 0.81323 0.0
C646 C 0.94684 0.56854 0.77403 0.0
C647 C 0.94158 0.63624 0.78573 0.0
C648 C 0.974 0.5108 0.8948 0.0
C649 C 0.96374 0.52249 0.87299 0.0
C650 C 0.96047 0.57403 0.91795 0.0
C651 C 0.93775 0.59922 0.79056 0.0
C652 C 0.94561 0.58468 0.81913 0.0
C653 C 0.9719 0.54508 0.89998 0.0
C654 C 0.9621 0.55817 0.87267 0.0
H655 H 0.89807 0.59629 0.67385 0.0
H656 H 0.91058 0.57224 0.72174 0.0
H657 H 0.95132 0.59921 0.92778 0.0
H658 H 0.01466 0.55238 0.01142 0.0
H659 H 0.99703 0.57283 0.97271 0.0
C660 C 0.53478 0.40301 0.96623 0.0
C661 C 0.52918 0.41578 0.92434 0.0
C662 C 0.52377 0.37943 0.95236 0.0
C663 C 0.47148 0.33167 0.86839 0.0
H664 H 0.50157 0.29799 0.8644 0.0
C665 C 0.42496 0.23422 0.82557 0.0
C666 C 0.43253 0.22468 0.77566 0.0
C667 C 0.43732 0.25719 0.85027 0.0
C668 C 0.49295 0.30718 0.86536 0.0
H669 H 0.50806 0.41377 0.83382 0.0
H670 H 0.48906 0.37296 0.80997 0.0
H671 H 0.5224 0.339 0.89374 0.0
H672 H 0.45929 0.23177 0.7139 0.0
H673 H 0.48074 0.27173 0.75693 0.0
H674 H 0.44211 0.30006 0.8387 0.0
C675 C 0.50171 0.38106 0.85403 0.0
C676 C 0.50486 0.33062 0.88272 0.0
C677 C 0.51274 0.40451 0.8675 0.0
C678 C 0.45293 0.23854 0.75222 0.0
C679 C 0.46533 0.26145 0.77729 0.0
C680 C 0.45959 0.30827 0.8516 0.0
C681 C 0.50686 0.3682 0.89677 0.0
C682 C 0.49428 0.34316 0.88329 0.0
C683 C 0.45759 0.2711 0.82606 0.0
C684 C 0.47019 0.29577 0.84895 0.0
H685 H 0.54735 0.41118 0.01044 0.0
H686 H 0.52807 0.36995 0.98628 0.0
H687 H 0.46282 0.34083 0.86924 0.0
H688 H 0.40936 0.22402 0.84488 0.0
H689 H 0.43099 0.26409 0.88834 0.0
C690 C 0.79844 0.10528 0.66762 0.0
C691 C 0.81507 0.12799 0.67312 0.0
C692 C 0.7801 0.09879 0.70349 0.0
C693 C 0.74993 0.11988 0.80604 0.0
H694 H 0.73283 0.06545 0.89596 0.0
C695 C 0.67283 0.07669 0.95357 0.0
C696 C 0.67344 0.06539 0.01164 0.0
C697 C 0.69052 0.08642 0.91389 0.0
C698 C 0.73752 0.08084 0.87207 0.0
H699 H 0.82491 0.16191 0.71741 0.0
H700 H 0.79307 0.15056 0.78103 0.0
H701 H 0.7617 0.07799 0.81984 0.0
H702 H 0.69368 0.05673 0.07612 0.0
H703 H 0.7247 0.0742 0.00827 0.0
H704 H 0.72603 0.12297 0.8603 0.0
C705 C 0.79403 0.13775 0.74828 0.0
C706 C 0.75387 0.08784 0.82719 0.0
C707 C 0.81231 0.14428 0.71169 0.0
C708 C 0.69258 0.06512 0.03136 0.0
C709 C 0.71031 0.07499 0.99202 0.0
C710 C 0.73355 0.11289 0.85129 0.0
C711 C 0.77806 0.11482 0.74655 0.0
C712 C 0.76025 0.10738 0.79323 0.0
C713 C 0.70929 0.08521 0.93156 0.0
C714 C 0.72714 0.09326 0.88493 0.0
H715 H 0.8 0.09235 0.63787 0.0
H716 H 0.76784 0.08106 0.69924 0.0
H717 H 0.75435 0.13497 0.78063 0.0
H718 H 0.6583 0.07716 0.9367 0.0
H719 H 0.68904 0.09399 0.86749 0.0
C720 C 0.62264 0.96838 0.04116 0.0
C721 C 0.60706 0.9677 0.08389 0.0
C722 C 0.63254 0.95565 0.05352 0.0
C723 C 0.62934 0.90888 0.14906 0.0
H724 H 0.69193 0.94177 0.14539 0.0
C725 C 0.68655 0.87837 0.2637 0.0
C726 C 0.70387 0.88177 0.22513 0.0
C727 C 0.67334 0.88726 0.24424 0.0
C728 C 0.67443 0.93219 0.14586 0.0
H729 H 0.5888 0.95206 0.17066 0.0
H730 H 0.60621 0.93004 0.19255 0.0
H731 H 0.67096 0.95929 0.11231 0.0
H732 H 0.72042 0.89654 0.13452 0.0
H733 H 0.69742 0.91169 0.10052 0.0
H734 H 0.633 0.88183 0.18349 0.0
C735 C 0.61069 0.94031 0.14919 0.0
C736 C 0.66237 0.94224 0.12667 0.0
C737 C 0.60075 0.95302 0.13674 0.0
C738 C 0.70738 0.89379 0.16598 0.0
C739 C 0.69424 0.9026 0.14657 0.0
C740 C 0.64145 0.89878 0.16835 0.0
C741 C 0.62715 0.94196 0.109 0.0
C742 C 0.63967 0.93072 0.12775 0.0
C743 C 0.67723 0.89972 0.18588 0.0
C744 C 0.66414 0.91031 0.16667 0.0
H745 H 0.62779 0.97938 -0.00032 0.0
H746 H 0.64481 0.95694 0.02054 0.0
H747 H 0.61186 0.89947 0.15009 0.0
H748 H 0.68341 0.86917 0.30951 0.0
H749 H 0.66046 0.88486 0.27591 0.0
C750 C 0.17988 0.74956 0.16066 0.0
C751 C 0.18572 0.76147 0.22838 0.0
C752 C 0.17376 0.72681 0.15194 0.0
C753 C 0.14703 0.67724 0.24415 0.0
H754 H 0.16092 0.64839 0.0917 0.0
C755 C 0.10125 0.58084 0.19063 0.0
C756 C 0.09459 0.57174 0.11963 0.0
C757 C 0.11687 0.6036 0.20854 0.0
C758 C 0.15674 0.65614 0.13427 0.0
H759 H 0.1908 0.75919 0.33987 0.0
H760 H 0.17977 0.7192 0.32463 0.0
H761 H 0.18063 0.68952 0.11452 0.0
H762 H 0.09975 0.57904 0.01168 0.0
H763 H 0.12638 0.61895 0.0425 0.0
H764 H 0.12237 0.64427 0.26179 0.0
C765 C 0.17997 0.72756 0.27836 0.0
C766 C 0.16814 0.6797 0.14754 0.0
C767 C 0.18639 0.75045 0.28703 0.0
C768 C 0.10464 0.58559 0.0669 0.0
C769 C 0.12 0.60849 0.08475 0.0
C770 C 0.13547 0.65375 0.2304 0.0
C771 C 0.17311 0.71539 0.21083 0.0
C772 C 0.16316 0.69049 0.20195 0.0
C773 C 0.12591 0.61795 0.15582 0.0
C774 C 0.13989 0.64285 0.17455 0.0
H775 H 0.17932 0.75764 0.11442 0.0
H776 H 0.16841 0.71785 0.09932 0.0
H777 H 0.14257 0.68506 0.28569 0.0
H778 H 0.09398 0.57047 0.23246 0.0
H779 H 0.12142 0.61005 0.26385 0.0
C780 C 0.49084 0.44735 0.14706 0.0
C781 C 0.49914 0.4603 0.09086 0.0
C782 C 0.46905 0.43822 0.15824 0.0
C783 C 0.41962 0.44124 0.12348 0.0
H784 H 0.39057 0.37721 0.14271 0.0
C785 C 0.33246 0.38721 0.21241 0.0
C786 C 0.31929 0.36587 0.17381 0.0
C787 C 0.35418 0.40093 0.19947 0.0
C788 C 0.39841 0.39507 0.13717 0.0
H789 H 0.49125 0.47476 0.00434 0.0
H790 H 0.45286 0.45872 0.02435 0.0
H791 H 0.42909 0.39747 0.12691 0.0
H792 H 0.3183 0.34277 0.08887 0.0
H793 H 0.35591 0.36649 0.06704 0.0
H794 H 0.38867 0.43862 0.13426 0.0
C795 C 0.4634 0.4557 0.0595 0.0
C796 C 0.42051 0.4067 0.12866 0.0
C797 C 0.48532 0.46478 0.04792 0.0
C798 C 0.328 0.35897 0.12026 0.0
C799 C 0.34959 0.37255 0.1077 0.0
C800 C 0.39743 0.42957 0.13294 0.0
C801 C 0.45498 0.44188 0.11379 0.0
C802 C 0.43138 0.42989 0.12178 0.0
C803 C 0.36306 0.39343 0.1481 0.0
C804 C 0.38661 0.40633 0.13944 0.0
H805 H 0.50103 0.44373 0.18172 0.0
H806 H 0.46309 0.42792 0.20113 0.0
H807 H 0.42766 0.45914 0.11856 0.0
H808 H 0.3262 0.39303 0.25385 0.0
H809 H 0.36425 0.41696 0.2315 0.0
C810 C 0.89504 0.72888 0.61299 0.0
C811 C 0.88452 0.70564 0.59093 0.0
C812 C 0.88738 0.74221 0.58491 0.0
C813 C 0.83788 0.73755 0.49131 0.0
H814 H 0.87752 0.79905 0.45574 0.0
C815 C 0.80727 0.78941 0.35091 0.0
C816 C 0.81493 0.81141 0.38276 0.0
C817 C 0.81696 0.77714 0.37201 0.0
C818 C 0.86626 0.78194 0.46579 0.0
H819 H 0.85812 0.67833 0.52051 0.0
H820 H 0.84516 0.70154 0.47044 0.0
H821 H 0.89206 0.77635 0.50111 0.0
H822 H 0.83943 0.83808 0.45975 0.0
H823 H 0.85638 0.81665 0.49634 0.0
H824 H 0.81211 0.74309 0.45576 0.0
C825 C 0.85894 0.70945 0.5108 0.0
C826 C 0.87457 0.76894 0.492 0.0
C827 C 0.86646 0.69612 0.53929 0.0
C828 C 0.8331 0.82117 0.43416 0.0
C829 C 0.84288 0.80892 0.45498 0.0
C830 C 0.8296 0.75048 0.46472 0.0
C831 C 0.86915 0.73263 0.53371 0.0
C832 C 0.86047 0.74656 0.5052 0.0
C833 C 0.83463 0.7866 0.42516 0.0
C834 C 0.84367 0.77283 0.45171 0.0
H835 H 0.909 0.73673 0.6527 0.0
H836 H 0.89551 0.75993 0.60445 0.0
H837 H 0.82649 0.72058 0.50218 0.0
H838 H 0.79336 0.78138 0.31097 0.0
H839 H 0.81044 0.7601 0.34725 0.0
C840 C 0.33741 0.08528 0.66633 0.0
C841 C 0.34825 0.10253 0.62332 0.0
C842 C 0.32396 0.06291 0.63651 0.0
C843 C 0.31553 0.026 0.47326 0.0
H844 H 0.26709 0.98179 0.56263 0.0
C845 C 0.26744 0.93114 0.36701 0.0
C846 C 0.26613 0.91694 0.4184 0.0
C847 C 0.27407 0.95378 0.3869 0.0
C848 C 0.28055 0.99398 0.53701 0.0
H849 H 0.35238 0.11004 0.51504 0.0
H850 H 0.32832 0.07126 0.46294 0.0
H851 H 0.28441 0.02171 0.60611 0.0
H852 H 0.26966 0.91497 0.53083 0.0
H853 H 0.28083 0.95423 0.56536 0.0
H854 H 0.31163 0.99816 0.40439 0.0
C855 C 0.33073 0.07479 0.51984 0.0
C856 C 0.29058 0.01686 0.56212 0.0
C857 C 0.3444 0.0971 0.5497 0.0
C858 C 0.27063 0.92553 0.48997 0.0
C859 C 0.27689 0.94798 0.50982 0.0
C860 C 0.30532 0.00316 0.44765 0.0
C861 C 0.32081 0.05727 0.56286 0.0
C862 C 0.30853 0.03317 0.53159 0.0
C863 C 0.27909 0.96248 0.45854 0.0
C864 C 0.28803 0.98686 0.48019 0.0
H865 H 0.34016 0.08886 0.72326 0.0
H866 H 0.31688 0.04994 0.6716 0.0
H867 H 0.32951 0.03789 0.44898 0.0
H868 H 0.26411 0.92499 0.31145 0.0
H869 H 0.27554 0.96457 0.34629 0.0
C870 C 0.99821 0.19305 0.60319 0.0
C871 C 0.99412 0.20842 0.64127 0.0
C872 C 0.01673 0.2008 0.56709 0.0
C873 C 0.05571 0.25219 0.49077 0.0
H874 H 0.08937 0.22255 0.472 0.0
C875 C 0.13988 0.29547 0.39221 0.0
C876 C 0.14493 0.28311 0.34343 0.0
C877 C 0.12069 0.28491 0.42408 0.0
C878 C 0.07992 0.23081 0.47606 0.0
H879 H 0.00695 0.24381 0.67544 0.0
H880 H 0.03944 0.25724 0.6148 0.0
H881 H 0.05825 0.20694 0.54115 0.0
H882 H 0.13371 0.24989 0.28972 0.0
H883 H 0.09995 0.23123 0.34642 0.0
H884 H 0.07753 0.27625 0.42705 0.0
C885 C 0.02807 0.23926 0.61059 0.0
C886 C 0.06213 0.22191 0.51575 0.0
C887 C 0.00953 0.23155 0.64601 0.0
C888 C 0.13019 0.25987 0.3268 0.0
C889 C 0.11099 0.24918 0.35958 0.0
C890 C 0.07348 0.2611 0.45165 0.0
C891 C 0.03156 0.22407 0.56873 0.0
C892 C 0.05002 0.23273 0.52456 0.0
C893 C 0.10608 0.26165 0.40858 0.0
C894 C 0.086 0.25074 0.44469 0.0
H895 H 0.98655 0.17512 0.59813 0.0
H896 H 0.01886 0.18863 0.53531 0.0
H897 H 0.0464 0.26061 0.49449 0.0
H898 H 0.15087 0.3134 0.4063 0.0
H899 H 0.11752 0.29494 0.46217 0.0
C900 C 0.37335 0.20965 0.50177 0.0
C901 C 0.36503 0.19614 0.55677 0.0
C902 C 0.36323 0.22094 0.47478 0.0
C903 C 0.32699 0.24205 0.5246 0.0
H904 H 0.32117 0.24792 0.32516 0.0
C905 C 0.30314 0.30414 0.42207 0.0
C906 C 0.28855 0.29708 0.36035 0.0
C907 C 0.31172 0.29101 0.44417 0.0
C908 C 0.3225 0.24625 0.38094 0.0
H909 H 0.3392 0.18339 0.62509 0.0
H910 H 0.32153 0.20277 0.57767 0.0
H911 H 0.33734 0.22612 0.36594 0.0
H912 H 0.27147 0.27056 0.2735 0.0
H913 H 0.28637 0.24744 0.31261 0.0
H914 H 0.31196 0.26187 0.53976 0.0
C915 C 0.33607 0.20503 0.55618 0.0
C916 C 0.332 0.23399 0.40439 0.0
C917 C 0.34617 0.19381 0.58315 0.0
C918 C 0.28265 0.27647 0.32133 0.0
C919 C 0.29131 0.2633 0.34345 0.0
C920 C 0.31755 0.25429 0.50124 0.0
C921 C 0.3446 0.21894 0.50225 0.0
C922 C 0.33438 0.23178 0.47656 0.0
C923 C 0.30594 0.27044 0.40517 0.0
C924 C 0.31529 0.25666 0.42921 0.0
H925 H 0.38786 0.21179 0.48031 0.0
H926 H 0.37033 0.23168 0.43365 0.0
H927 H 0.32879 0.24092 0.58064 0.0
H928 H 0.3081 0.31995 0.45331 0.0
H929 H 0.32319 0.29718 0.49137 0.0
C930 C 0.79558 0.93112 0.37548 0.0
C931 C 0.7869 0.91525 0.42411 0.0
C932 C 0.81051 0.95381 0.39892 0.0
C933 C 0.8287 0.99419 0.56227 0.0
H934 H 0.87062 0.03514 0.44627 0.0
C935 C 0.88712 0.08903 0.65526 0.0
C936 C 0.88531 0.10328 0.6094 0.0
C937 C 0.8779 0.066 0.63353 0.0
C938 C 0.85902 0.02383 0.47923 0.0
H939 H 0.7881 0.91019 0.53453 0.0
H940 H 0.81502 0.94931 0.57519 0.0
H941 H 0.85011 0.99472 0.40738 0.0
H942 H 0.87342 0.10489 0.50391 0.0
H943 H 0.85781 0.06478 0.46557 0.0
H944 H 0.83794 0.0234 0.63444 0.0
C945 C 0.80965 0.94469 0.5193 0.0
C946 C 0.84712 1.00067 0.45681 0.0
C947 C 0.79436 0.92217 0.49601 0.0
C948 C 0.87491 0.09426 0.54058 0.0
C949 C 0.86612 0.07137 0.51843 0.0
C950 C 0.84089 0.01724 0.5852 0.0
C951 C 0.81742 0.96102 0.47143 0.0
C952 C 0.8315 0.98552 0.49748 0.0
C953 C 0.86719 0.05694 0.56506 0.0
C954 C 0.8559 0.03232 0.54344 0.0
H955 H 0.78995 0.92623 0.31975 0.0
H956 H 0.81584 0.96578 0.36027 0.0
H957 H 0.81654 0.98333 0.59455 0.0
H958 H 0.89501 0.09554 0.70861 0.0
H959 H 0.87897 0.0552 0.67038 0.0
C960 C 0.97116 0.70678 0.54558 0.0
C961 C 0.96093 0.68319 0.53156 0.0
C962 C 0.99219 0.72073 0.52712 0.0
C963 C 0.04163 0.71941 0.48892 0.0
H964 H 0.05787 0.77508 0.40733 0.0
C965 C 0.13062 0.78176 0.45503 0.0
C966 C 0.13523 0.79122 0.39087 0.0
C967 C 0.10928 0.76992 0.47203 0.0
C968 C 0.05353 0.75951 0.42967 0.0
H969 H 0.96471 0.65583 0.48633 0.0
H970 H 1.00107 0.68002 0.45412 0.0
H971 H 0.0206 0.75159 0.43654 0.0
H972 H 0.12101 0.79622 0.2951 0.0
H973 H 0.08344 0.77519 0.32466 0.0
H974 H 0.07425 0.72696 0.48121 0.0
C975 C 0.99306 0.6878 0.48014 0.0
C976 C 0.03226 0.74618 0.44712 0.0
C977 C 0.97212 0.67391 0.4984 0.0
C978 C 0.11798 0.78911 0.34489 0.0
C979 C 0.09649 0.77714 0.36197 0.0
C980 C 0.0628 0.7327 0.47174 0.0
C981 C 0.00343 0.71138 0.49455 0.0
C982 C 0.02605 0.72593 0.4768 0.0
C983 C 0.09188 0.76708 0.42529 0.0
C984 C 0.06908 0.75295 0.44212 0.0
H985 H 0.96297 0.71447 0.57091 0.0
H986 H 0.99978 0.73882 0.53951 0.0
H987 H 0.03751 0.70407 0.5124 0.0
H988 H 0.1435 0.78329 0.49221 0.0
H989 H 0.10641 0.76285 0.52191 0.0
loop_
_geom_bond_atom_site_label_1
_geom_bond_atom_site_label_2
_geom_bond_distance
_geom_bond_site_symmetry_2
_ccdc_geom_bond_type
Zn0 O6 1.969 1_455 S
Zn0 O7 1.965 1_554 S
Zn0 O11 2.024 . S
Zn0 O16 1.969 . S
Zn1 O8 1.969 1_554 S
Zn1 O14 1.969 . S
Zn1 O15 1.965 . S
Zn1 O17 2.024 . S
C2 O3 1.229 . S
C2 O11 1.058 . S
O3 C2 1.229 . S
C4 O5 1.229 . S
C4 O17 1.058 1_556 S
O5 C4 1.229 . S
O6 Zn0 1.969 1_655 S
O6 C9 1.267 1_554 S
O7 Zn0 1.965 1_556 S
O7 C18 1.260 . S
O8 Zn1 1.969 1_556 S
O8 C18 1.258 . S
C9 O6 1.267 1_556 S
C9 O10 1.228 1_655 S
O10 C9 1.228 1_455 S
O11 Zn0 2.024 . S
O11 C2 1.058 . S
C12 O13 1.228 . S
C12 O14 1.267 . S
O13 C12 1.228 . S
O14 Zn1 1.969 . S
O14 C12 1.267 . S
O15 Zn1 1.965 . S
O15 C19 1.260 . S
O16 Zn0 1.969 . S
O16 C19 1.258 . S
O17 Zn1 2.024 . S
O17 C4 1.058 1_554 S
C18 O7 1.260 . S
C18 O8 1.258 . S
C19 O15 1.260 . S
C19 O16 1.258 . S
Zn20 O26 1.969 . S
Zn20 O27 1.965 . S
Zn20 O31 2.024 . S
Zn20 O36 1.969 1_554 S
Zn21 O28 1.969 . S
Zn21 O34 1.969 . S
Zn21 O35 1.965 . S
Zn21 O37 2.024 . S
C22 O23 1.229 1_554 S
C22 O31 1.058 . S
O23 C22 1.229 1_556 S
C24 O25 1.229 . S
C24 O37 1.058 . S
O25 C24 1.229 . S
O26 Zn20 1.969 . S
O26 C29 1.267 . S
O27 Zn20 1.965 . S
O27 C38 1.260 . S
O28 Zn21 1.969 . S
O28 C38 1.258 . S
C29 O26 1.267 . S
C29 O30 1.228 . S
O30 C29 1.228 . S
O31 Zn20 2.024 . S
O31 C22 1.058 . S
C32 O33 1.228 1_554 S
C32 O34 1.267 . S
O33 C32 1.228 1_556 S
O34 Zn21 1.969 . S
O34 C32 1.267 . S
O35 Zn21 1.965 . S
O35 C39 1.260 1_554 S
O36 Zn20 1.969 1_556 S
O36 C39 1.258 . S
O37 Zn21 2.024 . S
O37 C24 1.058 . S
C38 O27 1.260 . S
C38 O28 1.258 . S
C39 O35 1.260 1_556 S
C39 O36 1.258 . S
Zn40 O46 1.969 . S
Zn40 O47 1.965 . S
Zn40 O51 2.024 . S
Zn40 O56 1.969 . S
Zn41 O48 1.969 . S
Zn41 O54 1.969 . S
Zn41 O55 1.965 . S
Zn41 O57 2.024 . S
C42 O43 1.229 . S
C42 O51 1.058 . S
O43 C42 1.229 . S
C44 O45 1.229 . S
C44 O57 1.058 . S
O45 C44 1.229 . S
O46 Zn40 1.969 . S
O46 C49 1.267 . S
O47 Zn40 1.965 . S
O47 C58 1.261 1_554 S
O48 Zn41 1.969 . S
O48 C58 1.258 1_554 S
C49 O46 1.267 . S
C49 O50 1.228 . S
O50 C49 1.228 . S
O51 Zn40 2.024 . S
O51 C42 1.058 . S
C52 O53 1.228 . S
C52 O54 1.267 . S
O53 C52 1.228 . S
O54 Zn41 1.969 . S
O54 C52 1.267 . S
O55 Zn41 1.965 . S
O55 C59 1.260 . S
O56 Zn40 1.969 . S
O56 C59 1.258 . S
O57 Zn41 2.024 . S
O57 C44 1.058 . S
C58 O47 1.261 1_556 S
C58 O48 1.258 1_556 S
C59 O55 1.260 . S
C59 O56 1.258 . S
Zn60 O66 1.969 . S
Zn60 O67 1.965 . S
Zn60 O71 2.024 . S
Zn60 O76 1.969 . S
Zn61 O68 1.969 . S
Zn61 O74 1.969 . S
Zn61 O75 1.965 . S
Zn61 O77 2.024 . S
C62 O63 1.229 . S
C62 O71 1.058 . S
O63 C62 1.229 . S
C64 O65 1.229 . S
C64 O77 1.058 . S
O65 C64 1.229 . S
O66 Zn60 1.969 . S
O66 C69 1.267 . S
O67 Zn60 1.965 . S
O67 C78 1.260 . S
O68 Zn61 1.969 . S
O68 C78 1.258 . S
C69 O66 1.267 . S
C69 O70 1.228 . S
O70 C69 1.228 . S
O71 Zn60 2.024 . S
O71 C62 1.058 . S
C72 O73 1.228 . S
C72 O74 1.267 . S
O73 C72 1.228 . S
O74 Zn61 1.969 . S
O74 C72 1.267 . S
O75 Zn61 1.965 . S
O75 C79 1.260 . S
O76 Zn60 1.969 . S
O76 C79 1.258 . S
O77 Zn61 2.024 . S
O77 C64 1.058 . S
C78 O67 1.260 . S
C78 O68 1.258 . S
C79 O75 1.260 . S
C79 O76 1.258 . S
Zn80 O86 1.969 . S
Zn80 O87 1.965 . S
Zn80 O91 2.024 . S
Zn80 O96 1.969 . S
Zn81 O88 1.969 . S
Zn81 O94 1.969 . S
Zn81 O95 1.965 . S
Zn81 O97 2.024 . S
C82 O83 1.229 . S
C82 O91 1.058 . S
O83 C82 1.229 . S
C84 O85 1.229 . S
C84 O97 1.058 . S
O85 C84 1.229 . S
O86 Zn80 1.969 . S
O86 C89 1.267 . S
O87 Zn80 1.965 . S
O87 C98 1.260 . S
O88 Zn81 1.969 . S
O88 C98 1.258 . S
C89 O86 1.267 . S
C89 O90 1.228 . S
O90 C89 1.228 . S
O91 Zn80 2.024 . S
O91 C82 1.058 . S
C92 O93 1.228 . S
C92 O94 1.267 . S
O93 C92 1.228 . S
O94 Zn81 1.969 . S
O94 C92 1.267 . S
O95 Zn81 1.965 . S
O95 C99 1.260 . S
O96 Zn80 1.969 . S
O96 C99 1.258 . S
O97 Zn81 2.024 . S
O97 C84 1.058 . S
C98 O87 1.260 . S
C98 O88 1.258 . S
C99 O95 1.260 . S
C99 O96 1.258 . S
Zn100 O106 1.969 . S
Zn100 O107 1.965 . S
Zn100 O111 2.024 . S
Zn100 O116 1.969 . S
Zn101 O108 1.969 . S
Zn101 O114 1.969 . S
Zn101 O115 1.965 . S
Zn101 O117 2.024 . S
C102 O103 1.229 . S
C102 O111 1.058 . S
O103 C102 1.229 . S
C104 O105 1.229 . S
C104 O117 1.058 . S
O105 C104 1.229 . S
O106 Zn100 1.969 . S
O106 C109 1.267 . S
O107 Zn100 1.965 . S
O107 C118 1.260 . S
O108 Zn101 1.969 . S
O108 C118 1.258 . S
C109 O106 1.267 . S
C109 O110 1.228 . S
O110 C109 1.228 . S
O111 Zn100 2.024 . S
O111 C102 1.058 . S
C112 O113 1.228 . S
C112 O114 1.267 . S
O113 C112 1.228 . S
O114 Zn101 1.969 . S
O114 C112 1.267 . S
O115 Zn101 1.965 . S
O115 C119 1.260 . S
O116 Zn100 1.969 . S
O116 C119 1.258 . S
O117 Zn101 2.024 . S
O117 C104 1.058 . S
C118 O107 1.260 . S
C118 O108 1.258 . S
C119 O115 1.260 . S
C119 O116 1.258 . S
Zn120 O126 1.969 . S
Zn120 O127 1.965 . S
Zn120 O131 2.024 . S
Zn120 O136 1.969 . S
Zn121 O128 1.969 . S
Zn121 O134 1.969 . S
Zn121 O135 1.965 . S
Zn121 O137 2.024 . S
C122 O123 1.229 . S
C122 O131 1.058 . S
O123 C122 1.229 . S
C124 O125 1.229 . S
C124 O137 1.058 . S
O125 C124 1.229 . S
O126 Zn120 1.969 . S
O126 C129 1.267 . S
O127 Zn120 1.965 . S
O127 C138 1.260 . S
O128 Zn121 1.969 . S
O128 C138 1.258 . S
C129 O126 1.267 . S
C129 O130 1.228 . S
O130 C129 1.228 . S
O131 Zn120 2.024 . S
O131 C122 1.058 . S
C132 O133 1.228 . S
C132 O134 1.267 . S
O133 C132 1.228 . S
O134 Zn121 1.969 . S
O134 C132 1.267 . S
O135 Zn121 1.965 . S
O135 C139 1.260 . S
O136 Zn120 1.969 . S
O136 C139 1.258 . S
O137 Zn121 2.024 . S
O137 C124 1.058 . S
C138 O127 1.260 . S
C138 O128 1.258 . S
C139 O135 1.260 . S
C139 O136 1.258 . S
Zn140 O146 1.969 . S
Zn140 O147 1.965 . S
Zn140 O151 2.024 . S
Zn140 O156 1.969 . S
Zn141 O148 1.969 . S
Zn141 O154 1.969 . S
Zn141 O155 1.965 . S
Zn141 O157 2.024 . S
C142 O143 1.229 . S
C142 O151 1.058 . S
O143 C142 1.229 . S
C144 O145 1.229 . S
C144 O157 1.058 . S
O145 C144 1.229 . S
O146 Zn140 1.969 . S
O146 C149 1.267 . S
O147 Zn140 1.965 . S
O147 C158 1.260 . S
O148 Zn141 1.969 . S
O148 C158 1.258 . S
C149 O146 1.267 . S
C149 O150 1.228 . S
O150 C149 1.228 . S
O151 Zn140 2.024 . S
O151 C142 1.058 . S
C152 O153 1.228 . S
C152 O154 1.267 . S
O153 C152 1.228 . S
O154 Zn141 1.969 . S
O154 C152 1.267 . S
O155 Zn141 1.965 . S
O155 C159 1.260 . S
O156 Zn140 1.969 . S
O156 C159 1.258 . S
O157 Zn141 2.024 . S
O157 C144 1.058 . S
C158 O147 1.260 . S
C158 O148 1.258 . S
C159 O155 1.260 . S
C159 O156 1.258 . S
Zn160 O166 1.969 . S
Zn160 O167 1.965 . S
Zn160 O171 2.024 . S
Zn160 O176 1.969 . S
Zn161 O168 1.969 . S
Zn161 O174 1.969 . S
Zn161 O175 1.965 . S
Zn161 O177 2.024 . S
C162 O163 1.229 . S
C162 O171 1.058 . S
O163 C162 1.229 . S
C164 O165 1.229 . S
C164 O177 1.058 . S
O165 C164 1.229 . S
O166 Zn160 1.969 . S
O166 C169 1.267 . S
O167 Zn160 1.965 . S
O167 C178 1.260 . S
O168 Zn161 1.969 . S
O168 C178 1.258 . S
C169 O166 1.267 . S
C169 O170 1.228 . S
O170 C169 1.228 . S
O171 Zn160 2.024 . S
O171 C162 1.058 . S
C172 O173 1.228 . S
C172 O174 1.267 . S
O173 C172 1.228 . S
O174 Zn161 1.969 . S
O174 C172 1.267 . S
O175 Zn161 1.965 . S
O175 C179 1.260 . S
O176 Zn160 1.969 . S
O176 C179 1.258 . S
O177 Zn161 2.024 . S
O177 C164 1.058 . S
C178 O167 1.260 . S
C178 O168 1.258 . S
C179 O175 1.260 . S
C179 O176 1.258 . S
C180 C181 1.349 . S
C180 C182 1.327 . S
C180 H205 0.950 . S
C181 C180 1.349 . S
C181 C197 1.349 . S
C182 C180 1.327 . S
C182 C201 1.429 . S
C182 H206 0.950 . S
C183 C200 1.574 . S
C183 C202 1.368 . S
C183 H207 0.949 . S
H184 C188 0.949 1_655 S
C185 C186 1.349 . S
C185 C187 1.327 . S
C185 H208 0.950 . S
C186 C185 1.349 . S
C186 C198 1.349 . S
C187 C185 1.327 . S
C187 C203 1.429 . S
C187 H209 0.950 . S
C188 H184 0.949 1_455 S
C188 C196 1.574 . S
C188 C204 1.368 . S
H189 C197 0.950 . S
H190 C195 0.950 . S
H191 C196 0.954 . S
H192 C198 0.950 1_655 S
H193 C199 0.950 1_655 S
H194 C200 0.949 . S
C195 H190 0.950 . S
C195 C197 1.327 . S
C195 C201 1.429 . S
C196 C188 1.574 . S
C196 H191 0.954 . S
C196 C202 1.368 . S
C197 C181 1.349 . S
C197 H189 0.950 . S
C197 C195 1.327 . S
C198 C186 1.349 . S
C198 H192 0.950 1_455 S
C198 C199 1.327 . S
C199 H193 0.950 1_455 S
C199 C198 1.327 . S
C199 C203 1.429 . S
C200 C183 1.574 . S
C200 H194 0.949 . S
C200 C204 1.368 . S
C201 C182 1.429 . S
C201 C195 1.429 . S
C201 C202 1.523 . S
C202 C183 1.368 . S
C202 C196 1.368 . S
C202 C201 1.523 . S
C203 C187 1.429 . S
C203 C199 1.429 . S
C203 C204 1.523 . S
C204 C188 1.368 . S
C204 C200 1.368 . S
C204 C203 1.523 . S
H205 C180 0.950 . S
H206 C182 0.950 . S
H207 C183 0.949 . S
H208 C185 0.950 . S
H209 C187 0.950 . S
C210 C211 1.349 . S
C210 C212 1.327 . S
C210 H235 0.950 . S
C211 C210 1.349 . S
C211 C227 1.349 . S
C212 C210 1.327 . S
C212 C231 1.429 . S
C212 H236 0.950 . S
C213 C230 1.574 . S
C213 C232 1.368 . S
C213 H237 0.949 . S
H214 C218 0.949 . S
C215 C216 1.349 . S
C215 C217 1.327 . S
C215 H238 0.950 . S
C216 C215 1.349 . S
C216 C228 1.349 . S
C217 C215 1.327 . S
C217 C233 1.429 . S
C217 H239 0.950 . S
C218 H214 0.949 . S
C218 C226 1.574 . S
C218 C234 1.368 . S
H219 C227 0.950 . S
H220 C225 0.950 . S
H221 C226 0.949 . S
H222 C228 0.950 . S
H223 C229 0.950 . S
H224 C230 0.949 . S
C225 H220 0.950 . S
C225 C227 1.327 . S
C225 C231 1.429 . S
C226 C218 1.574 . S
C226 H221 0.949 . S
C226 C232 1.368 . S
C227 C211 1.349 . S
C227 H219 0.950 . S
C227 C225 1.327 . S
C228 C216 1.349 . S
C228 H222 0.950 . S
C228 C229 1.327 . S
C229 H223 0.950 . S
C229 C228 1.327 . S
C229 C233 1.429 . S
C230 C213 1.574 . S
C230 H224 0.949 . S
C230 C234 1.368 . S
C231 C212 1.429 . S
C231 C225 1.429 . S
C231 C232 1.523 . S
C232 C213 1.368 . S
C232 C226 1.368 . S
C232 C231 1.523 . S
C233 C217 1.429 . S
C233 C229 1.429 . S
C233 C234 1.523 . S
C234 C218 1.368 . S
C234 C230 1.368 . S
C234 C233 1.523 . S
H235 C210 0.950 . S
H236 C212 0.950 . S
H237 C213 0.949 . S
H238 C215 0.950 . S
H239 C217 0.950 . S
C240 C241 1.349 . S
C240 C242 1.327 . S
C240 H265 0.942 1_545 S
C241 C240 1.349 . S
C241 C257 1.349 . S
C242 C240 1.327 . S
C242 C261 1.429 . S
C242 H266 0.950 . S
C243 C260 1.574 . S
C243 C262 1.368 . S
C243 H267 0.949 . S
H244 C248 0.949 . S
C245 C246 1.349 . S
C245 C247 1.327 . S
C245 H268 0.950 . S
C246 C245 1.349 . S
C246 C258 1.349 . S
C247 C245 1.327 . S
C247 C263 1.429 . S
C247 H269 0.950 . S
C248 H244 0.949 . S
C248 C256 1.574 . S
C248 C264 1.368 . S
H249 C257 0.950 . S
H250 C255 0.950 . S
H251 C256 0.949 . S
H252 C258 0.950 . S
H253 C259 0.950 . S
H254 C260 0.949 . S
C255 H250 0.950 . S
C255 C257 1.327 . S
C255 C261 1.429 . S
C256 C248 1.574 . S
C256 H251 0.949 . S
C256 C262 1.368 . S
C257 C241 1.349 . S
C257 H249 0.950 . S
C257 C255 1.327 . S
C258 C246 1.349 . S
C258 H252 0.950 . S
C258 C259 1.327 . S
C259 H253 0.950 . S
C259 C258 1.327 . S
C259 C263 1.429 . S
C260 C243 1.574 . S
C260 H254 0.949 . S
C260 C264 1.368 . S
C261 C242 1.429 . S
C261 C255 1.429 . S
C261 C262 1.523 . S
C262 C243 1.368 . S
C262 C256 1.368 . S
C262 C261 1.523 . S
C263 C247 1.429 . S
C263 C259 1.429 . S
C263 C264 1.523 . S
C264 C248 1.368 . S
C264 C260 1.368 . S
C264 C263 1.523 . S
H265 C240 0.942 1_565 S
H266 C242 0.950 . S
H267 C243 0.949 . S
H268 C245 0.950 . S
H269 C247 0.950 . S
C270 C271 1.349 . S
C270 C272 1.327 . S
C270 H295 0.950 . S
C271 C270 1.349 . S
C271 C287 1.349 . S
C272 C270 1.327 . S
C272 C291 1.429 . S
C272 H296 0.950 . S
C273 C290 1.574 . S
C273 C292 1.368 . S
C273 H297 0.949 . S
H274 C278 0.949 . S
C275 C276 1.349 . S
C275 C277 1.327 1_554 S
C275 H298 0.950 . S
C276 C275 1.349 . S
C276 C288 1.349 . S
C277 C275 1.327 1_556 S
C277 C293 1.429 . S
C277 H299 0.950 . S
C278 H274 0.949 . S
C278 C286 1.574 . S
C278 C294 1.368 . S
H279 C287 0.950 . S
H280 C285 0.950 . S
H281 C286 0.949 . S
H282 C288 0.950 . S
H283 C289 0.950 1_556 S
H284 C290 0.949 . S
C285 H280 0.950 . S
C285 C287 1.327 . S
C285 C291 1.429 . S
C286 C278 1.574 . S
C286 H281 0.949 . S
C286 C292 1.368 . S
C287 C271 1.349 . S
C287 H279 0.950 . S
C287 C285 1.327 . S
C288 C276 1.349 . S
C288 H282 0.950 . S
C288 C289 1.327 . S
C289 H283 0.950 1_554 S
C289 C288 1.327 . S
C289 C293 1.429 1_554 S
C290 C273 1.574 . S
C290 H284 0.949 . S
C290 C294 1.368 . S
C291 C272 1.429 . S
C291 C285 1.429 . S
C291 C292 1.523 . S
C292 C273 1.368 . S
C292 C286 1.368 . S
C292 C291 1.523 . S
C293 C277 1.429 . S
C293 C289 1.429 1_556 S
C293 C294 1.523 . S
C294 C278 1.368 . S
C294 C290 1.368 . S
C294 C293 1.523 . S
H295 C270 0.950 . S
H296 C272 0.950 . S
H297 C273 0.949 . S
H298 C275 0.950 . S
H299 C277 0.950 . S
C300 C301 1.349 . S
C300 C302 1.327 . S
C300 H325 0.950 . S
C301 C300 1.349 . S
C301 C317 1.349 . S
C302 C300 1.327 . S
C302 C321 1.429 . S
C302 H326 0.950 . S
C303 C320 1.574 . S
C303 C322 1.368 . S
C303 H327 0.949 . S
H304 C308 0.949 . S
C305 C306 1.349 . S
C305 C307 1.327 1_554 S
C305 H328 0.950 . S
C306 C305 1.349 . S
C306 C318 1.349 . S
C307 C305 1.327 1_556 S
C307 C323 1.429 . S
C307 H329 0.950 . S
C308 H304 0.949 . S
C308 C316 1.574 . S
C308 C324 1.368 . S
H309 C317 0.950 . S
H310 C315 0.950 . S
H311 C316 0.949 . S
H312 C318 0.950 . S
H313 C319 0.950 . S
H314 C320 0.949 . S
C315 H310 0.950 . S
C315 C317 1.327 . S
C315 C321 1.429 . S
C316 C308 1.574 . S
C316 H311 0.949 . S
C316 C322 1.368 . S
C317 C301 1.349 . S
C317 H309 0.950 . S
C317 C315 1.327 . S
C318 C306 1.349 . S
C318 H312 0.950 . S
C318 C319 1.327 1_554 S
C319 H313 0.950 . S
C319 C318 1.327 1_556 S
C319 C323 1.429 . S
C320 C303 1.574 . S
C320 H314 0.949 . S
C320 C324 1.368 . S
C321 C302 1.429 . S
C321 C315 1.429 . S
C321 C322 1.523 . S
C322 C303 1.368 . S
C322 C316 1.368 . S
C322 C321 1.523 . S
C323 C307 1.429 . S
C323 C319 1.429 . S
C323 C324 1.523 . S
C324 C308 1.368 . S
C324 C320 1.368 . S
C324 C323 1.523 . S
H325 C300 0.950 . S
H326 C302 0.950 . S
H327 C303 0.949 . S
H328 C305 0.950 . S
H329 C307 0.950 . S
C330 C331 1.349 . S
C330 C332 1.327 . S
C330 H355 0.950 . S
C331 C330 1.349 . S
C331 C347 1.349 . S
C332 C330 1.327 . S
C332 C351 1.429 . S
C332 H356 0.950 . S
C333 C350 1.574 . S
C333 C352 1.368 . S
C333 H357 0.949 . S
H334 C338 0.949 . S
C335 C336 1.349 1_556 S
C335 C337 1.327 . S
C335 H358 0.950 1_556 S
C336 C335 1.349 1_554 S
C336 C348 1.349 1_554 S
C337 C335 1.327 . S
C337 C353 1.429 . S
C337 H359 0.950 . S
C338 H334 0.949 . S
C338 C346 1.574 . S
C338 C354 1.368 . S
H339 C347 0.950 . S
H340 C345 0.950 . S
H341 C346 0.949 . S
H342 C348 0.950 . S
H343 C349 0.950 . S
H344 C350 0.949 . S
C345 H340 0.950 . S
C345 C347 1.327 . S
C345 C351 1.429 . S
C346 C338 1.574 . S
C346 H341 0.949 . S
C346 C352 1.368 . S
C347 C331 1.349 . S
C347 H339 0.950 . S
C347 C345 1.327 . S
C348 C336 1.349 1_556 S
C348 H342 0.950 . S
C348 C349 1.327 . S
C349 H343 0.950 . S
C349 C348 1.327 . S
C349 C353 1.429 . S
C350 C333 1.574 . S
C350 H344 0.949 . S
C350 C354 1.368 . S
C351 C332 1.429 . S
C351 C345 1.429 . S
C351 C352 1.523 . S
C352 C333 1.368 . S
C352 C346 1.368 . S
C352 C351 1.523 . S
C353 C337 1.429 . S
C353 C349 1.429 . S
C353 C354 1.523 . S
C354 C338 1.368 . S
C354 C350 1.368 . S
C354 C353 1.523 . S
H355 C330 0.950 . S
H356 C332 0.950 . S
H357 C333 0.949 . S
H358 C335 0.950 1_554 S
H359 C337 0.950 . S
C360 C361 1.349 . S
C360 C362 1.327 . S
C360 H385 0.950 . S
C361 C360 1.349 . S
C361 C377 1.349 . S
C362 C360 1.327 . S
C362 C381 1.429 . S
C362 H386 0.950 . S
C363 C380 1.574 . S
C363 C382 1.368 . S
C363 H387 0.949 . S
H364 C368 0.949 . S
C365 C366 1.349 . S
C365 C367 1.327 . S
C365 H388 0.950 . S
C366 C365 1.349 . S
C366 C378 1.349 . S
C367 C365 1.327 . S
C367 C383 1.429 1_556 S
C367 H389 0.950 . S
C368 H364 0.949 . S
C368 C376 1.574 . S
C368 C384 1.368 . S
H369 C377 0.950 . S
H370 C375 0.950 . S
H371 C376 0.949 . S
H372 C378 0.950 . S
H373 C379 0.950 1_554 S
H374 C380 0.949 . S
C375 H370 0.950 . S
C375 C377 1.327 . S
C375 C381 1.429 . S
C376 C368 1.574 . S
C376 H371 0.949 . S
C376 C382 1.368 . S
C377 C361 1.349 . S
C377 H369 0.950 . S
C377 C375 1.327 . S
C378 C366 1.349 . S
C378 H372 0.950 . S
C378 C379 1.327 . S
C379 H373 0.950 1_556 S
C379 C378 1.327 . S
C379 C383 1.429 1_556 S
C380 C363 1.574 . S
C380 H374 0.949 . S
C380 C384 1.368 . S
C381 C362 1.429 . S
C381 C375 1.429 . S
C381 C382 1.523 . S
C382 C363 1.368 . S
C382 C376 1.368 . S
C382 C381 1.523 . S
C383 C367 1.429 1_554 S
C383 C379 1.429 1_554 S
C383 C384 1.523 . S
C384 C368 1.368 . S
C384 C380 1.368 . S
C384 C383 1.523 . S
H385 C360 0.950 . S
H386 C362 0.950 . S
H387 C363 0.949 . S
H388 C365 0.950 . S
H389 C367 0.950 . S
C390 C391 1.349 . S
C390 C392 1.327 . S
C390 H415 0.950 . S
C391 C390 1.349 . S
C391 C407 1.349 . S
C392 C390 1.327 . S
C392 C411 1.429 . S
C392 H416 0.950 . S
C393 C410 1.574 . S
C393 C412 1.368 . S
C393 H417 0.949 . S
H394 C398 0.949 . S
C395 C396 1.349 . S
C395 C397 1.327 . S
C395 H418 0.950 . S
C396 C395 1.349 . S
C396 C408 1.349 . S
C397 C395 1.327 . S
C397 C413 1.429 1_556 S
C397 H419 0.950 1_556 S
C398 H394 0.949 . S
C398 C406 1.574 . S
C398 C414 1.368 . S
H399 C407 0.950 . S
H400 C405 0.950 . S
H401 C406 0.949 . S
H402 C408 0.950 . S
H403 C409 0.950 . S
H404 C410 0.949 . S
C405 H400 0.950 . S
C405 C407 1.327 . S
C405 C411 1.429 . S
C406 C398 1.574 . S
C406 H401 0.949 . S
C406 C412 1.368 . S
C407 C391 1.349 . S
C407 H399 0.950 . S
C407 C405 1.327 . S
C408 C396 1.349 . S
C408 H402 0.950 . S
C408 C409 1.327 . S
C409 H403 0.950 . S
C409 C408 1.327 . S
C409 C413 1.429 1_556 S
C410 C393 1.574 . S
C410 H404 0.949 . S
C410 C414 1.368 . S
C411 C392 1.429 . S
C411 C405 1.429 . S
C411 C412 1.523 . S
C412 C393 1.368 . S
C412 C406 1.368 . S
C412 C411 1.523 . S
C413 C397 1.429 1_554 S
C413 C409 1.429 1_554 S
C413 C414 1.523 . S
C414 C398 1.368 . S
C414 C410 1.368 . S
C414 C413 1.523 . S
H415 C390 0.950 . S
H416 C392 0.950 . S
H417 C393 0.949 . S
H418 C395 0.950 . S
H419 C397 0.950 1_554 S
C420 C421 1.349 . S
C420 C422 1.327 . S
C420 H445 0.950 . S
C421 C420 1.349 . S
C421 C437 1.349 . S
C422 C420 1.327 . S
C422 C441 1.429 . S
C422 H446 0.950 . S
C423 C440 1.574 . S
C423 C442 1.368 . S
C423 H447 0.949 . S
H424 C428 0.949 . S
C425 C426 1.349 . S
C425 C427 1.327 . S
C425 H448 0.950 . S
C426 C425 1.349 . S
C426 C438 1.349 . S
C427 C425 1.327 . S
C427 C443 1.429 1_556 S
C427 H449 0.950 1_556 S
C428 H424 0.949 . S
C428 C436 1.574 . S
C428 C444 1.368 . S
H429 C437 0.950 . S
H430 C435 0.950 . S
H431 C436 0.949 . S
H432 C438 0.950 . S
H433 C439 0.950 . S
H434 C440 0.949 . S
C435 H430 0.950 . S
C435 C437 1.327 . S
C435 C441 1.429 . S
C436 C428 1.574 . S
C436 H431 0.949 . S
C436 C442 1.368 . S
C437 C421 1.349 . S
C437 H429 0.950 . S
C437 C435 1.327 . S
C438 C426 1.349 . S
C438 H432 0.950 . S
C438 C439 1.327 . S
C439 H433 0.950 . S
C439 C438 1.327 . S
C439 C443 1.429 1_556 S
C440 C423 1.574 . S
C440 H434 0.949 . S
C440 C444 1.368 . S
C441 C422 1.429 . S
C441 C435 1.429 . S
C441 C442 1.523 . S
C442 C423 1.368 . S
C442 C436 1.368 . S
C442 C441 1.523 . S
C443 C427 1.429 1_554 S
C443 C439 1.429 1_554 S
C443 C444 1.523 . S
C444 C428 1.368 . S
C444 C440 1.368 . S
C444 C443 1.523 . S
H445 C420 0.950 . S
H446 C422 0.950 . S
H447 C423 0.949 . S
H448 C425 0.950 . S
H449 C427 0.950 1_554 S
C450 C451 1.349 . S
C450 C452 1.327 . S
C450 H475 0.950 . S
C451 C450 1.349 . S
C451 C467 1.349 . S
C452 C450 1.327 . S
C452 C471 1.429 . S
C452 H476 0.950 . S
C453 C470 1.574 . S
C453 C472 1.368 . S
C453 H477 0.949 . S
H454 C458 0.949 . S
C455 C456 1.349 . S
C455 C457 1.327 . S
C455 H478 0.950 . S
C456 C455 1.349 . S
C456 C468 1.349 . S
C457 C455 1.327 . S
C457 C473 1.429 . S
C457 H479 0.950 . S
C458 H454 0.949 . S
C458 C466 1.574 . S
C458 C474 1.368 . S
H459 C467 0.950 . S
H460 C465 0.950 . S
H461 C466 0.949 . S
H462 C468 0.950 . S
H463 C469 0.950 . S
H464 C470 0.949 . S
C465 H460 0.950 . S
C465 C467 1.327 . S
C465 C471 1.429 . S
C466 C458 1.574 . S
C466 H461 0.949 . S
C466 C472 1.368 . S
C467 C451 1.349 . S
C467 H459 0.950 . S
C467 C465 1.327 . S
C468 C456 1.349 . S
C468 H462 0.950 . S
C468 C469 1.327 . S
C469 H463 0.950 . S
C469 C468 1.327 . S
C469 C473 1.429 . S
C470 C453 1.574 . S
C470 H464 0.949 . S
C470 C474 1.368 . S
C471 C452 1.429 . S
C471 C465 1.429 . S
C471 C472 1.523 . S
C472 C453 1.368 . S
C472 C466 1.368 . S
C472 C471 1.523 . S
C473 C457 1.429 . S
C473 C469 1.429 . S
C473 C474 1.523 . S
C474 C458 1.368 . S
C474 C470 1.368 . S
C474 C473 1.523 . S
H475 C450 0.950 . S
H476 C452 0.950 . S
H477 C453 0.949 . S
H478 C455 0.950 . S
H479 C457 0.950 . S
C480 C481 1.349 . S
C480 C482 1.327 . S
C480 H505 0.950 . S
C481 C480 1.349 . S
C481 C497 1.349 . S
C482 C480 1.327 . S
C482 C501 1.429 . S
C482 H506 0.950 . S
C483 C500 1.574 . S
C483 C502 1.368 . S
C483 H507 0.949 . S
H484 C488 0.949 . S
C485 C486 1.349 . S
C485 C487 1.327 . S
C485 H508 0.950 . S
C486 C485 1.349 . S
C486 C498 1.349 . S
C487 C485 1.327 . S
C487 C503 1.429 . S
C487 H509 0.950 . S
C488 H484 0.949 . S
C488 C496 1.574 . S
C488 C504 1.368 . S
H489 C497 0.950 . S
H490 C495 0.950 . S
H491 C496 0.949 . S
H492 C498 0.950 . S
H493 C499 0.950 . S
H494 C500 0.949 . S
C495 H490 0.950 . S
C495 C497 1.327 . S
C495 C501 1.429 . S
C496 C488 1.574 . S
C496 H491 0.949 . S
C496 C502 1.368 . S
C497 C481 1.349 . S
C497 H489 0.950 . S
C497 C495 1.327 . S
C498 C486 1.349 . S
C498 H492 0.950 . S
C498 C499 1.327 . S
C499 H493 0.950 . S
C499 C498 1.327 . S
C499 C503 1.429 . S
C500 C483 1.574 . S
C500 H494 0.949 . S
C500 C504 1.368 . S
C501 C482 1.429 . S
C501 C495 1.429 . S
C501 C502 1.523 . S
C502 C483 1.368 . S
C502 C496 1.368 . S
C502 C501 1.523 . S
C503 C487 1.429 . S
C503 C499 1.429 . S
C503 C504 1.523 . S
C504 C488 1.368 . S
C504 C500 1.368 . S
C504 C503 1.523 . S
H505 C480 0.950 . S
H506 C482 0.950 . S
H507 C483 0.949 . S
H508 C485 0.950 . S
H509 C487 0.950 . S
C510 C511 1.349 . S
C510 C512 1.327 . S
C510 H535 0.950 . S
C511 C510 1.349 . S
C511 C527 1.349 . S
C512 C510 1.327 . S
C512 C531 1.429 . S
C512 H536 0.950 . S
C513 C530 1.574 . S
C513 C532 1.368 . S
C513 H537 0.949 . S
H514 C518 0.949 . S
C515 C516 1.349 . S
C515 C517 1.327 . S
C515 H538 0.950 . S
C516 C515 1.349 . S
C516 C528 1.349 . S
C517 C515 1.327 . S
C517 C533 1.429 . S
C517 H539 0.950 . S
C518 H514 0.949 . S
C518 C526 1.574 . S
C518 C534 1.368 . S
H519 C527 0.950 . S
H520 C525 0.950 . S
H521 C526 0.949 . S
H522 C528 0.950 . S
H523 C529 0.950 . S
H524 C530 0.949 . S
C525 H520 0.950 . S
C525 C527 1.327 . S
C525 C531 1.429 . S
C526 C518 1.574 . S
C526 H521 0.949 . S
C526 C532 1.368 . S
C527 C511 1.349 . S
C527 H519 0.950 . S
C527 C525 1.327 . S
C528 C516 1.349 . S
C528 H522 0.950 . S
C528 C529 1.327 . S
C529 H523 0.950 . S
C529 C528 1.327 . S
C529 C533 1.429 . S
C530 C513 1.574 . S
C530 H524 0.949 . S
C530 C534 1.368 . S
C531 C512 1.429 . S
C531 C525 1.429 . S
C531 C532 1.523 . S
C532 C513 1.368 . S
C532 C526 1.368 . S
C532 C531 1.523 . S
C533 C517 1.429 . S
C533 C529 1.429 . S
C533 C534 1.523 . S
C534 C518 1.368 . S
C534 C530 1.368 . S
C534 C533 1.523 . S
H535 C510 0.950 . S
H536 C512 0.950 . S
H537 C513 0.949 . S
H538 C515 0.950 . S
H539 C517 0.950 . S
C540 C541 1.349 . S
C540 C542 1.327 1_554 S
C540 H565 0.950 1_554 S
C541 C540 1.349 . S
C541 C557 1.349 . S
C542 C540 1.327 1_556 S
C542 C561 1.429 . S
C542 H566 0.950 . S
C543 C560 1.574 . S
C543 C562 1.368 . S
C543 H567 0.949 1_556 S
H544 C548 0.949 . S
C545 C546 1.349 . S
C545 C547 1.327 . S
C545 H568 0.950 . S
C546 C545 1.349 . S
C546 C558 1.349 . S
C547 C545 1.327 . S
C547 C563 1.429 . S
C547 H569 0.950 . S
C548 H544 0.949 . S
C548 C556 1.574 . S
C548 C564 1.368 . S
H549 C557 0.950 . S
H550 C555 0.950 . S
H551 C556 0.949 . S
H552 C558 0.950 . S
H553 C559 0.950 . S
H554 C560 0.949 . S
C555 H550 0.950 . S
C555 C557 1.327 . S
C555 C561 1.429 1_554 S
C556 C548 1.574 . S
C556 H551 0.949 . S
C556 C562 1.368 . S
C557 C541 1.349 . S
C557 H549 0.950 . S
C557 C555 1.327 . S
C558 C546 1.349 . S
C558 H552 0.950 . S
C558 C559 1.327 . S
C559 H553 0.950 . S
C559 C558 1.327 . S
C559 C563 1.429 . S
C560 C543 1.574 . S
C560 H554 0.949 . S
C560 C564 1.368 . S
C561 C542 1.429 . S
C561 C555 1.429 1_556 S
C561 C562 1.523 . S
C562 C543 1.368 . S
C562 C556 1.368 . S
C562 C561 1.523 . S
C563 C547 1.429 . S
C563 C559 1.429 . S
C563 C564 1.523 . S
C564 C548 1.368 . S
C564 C560 1.368 . S
C564 C563 1.523 . S
H565 C540 0.950 1_556 S
H566 C542 0.950 . S
H567 C543 0.949 1_554 S
H568 C545 0.950 . S
H569 C547 0.950 . S
C570 C571 1.349 . S
C570 C572 1.327 . S
C570 H595 0.950 . S
C571 C570 1.349 . S
C571 C587 1.349 . S
C572 C570 1.327 . S
C572 C591 1.429 . S
C572 H596 0.950 . S
C573 C590 1.574 . S
C573 C592 1.368 . S
C573 H597 0.949 . S
H574 C578 0.949 . S
C575 C576 1.349 . S
C575 C577 1.327 . S
C575 H598 0.950 . S
C576 C575 1.349 . S
C576 C588 1.349 . S
C577 C575 1.327 . S
C577 C593 1.429 . S
C577 H599 0.950 . S
C578 H574 0.949 . S
C578 C586 1.574 . S
C578 C594 1.368 . S
H579 C587 0.950 . S
H580 C585 0.950 . S
H581 C586 0.949 . S
H582 C588 0.950 1_454 S
H583 C589 0.950 . S
H584 C590 0.949 . S
C585 H580 0.950 . S
C585 C587 1.327 . S
C585 C591 1.429 . S
C586 C578 1.574 . S
C586 H581 0.949 . S
C586 C592 1.368 . S
C587 C571 1.349 . S
C587 H579 0.950 . S
C587 C585 1.327 . S
C588 C576 1.349 . S
C588 H582 0.950 1_656 S
C588 C589 1.327 . S
C589 H583 0.950 . S
C589 C588 1.327 . S
C589 C593 1.429 . S
C590 C573 1.574 . S
C590 H584 0.949 . S
C590 C594 1.368 . S
C591 C572 1.429 . S
C591 C585 1.429 . S
C591 C592 1.523 . S
C592 C573 1.368 . S
C592 C586 1.368 . S
C592 C591 1.523 . S
C593 C577 1.429 . S
C593 C589 1.429 . S
C593 C594 1.523 . S
C594 C578 1.368 . S
C594 C590 1.368 . S
C594 C593 1.523 . S
H595 C570 0.950 . S
H596 C572 0.950 . S
H597 C573 0.949 . S
H598 C575 0.950 . S
H599 C577 0.950 . S
C600 C601 1.349 . S
C600 C602 1.327 . S
C600 H625 0.950 . S
C601 C600 1.349 . S
C601 C617 1.349 . S
C602 C600 1.327 . S
C602 C621 1.429 . S
C602 H626 0.950 . S
C603 C620 1.574 . S
C603 C622 1.368 . S
C603 H627 0.949 . S
H604 C608 0.949 . S
C605 C606 1.349 1_556 S
C605 C607 1.327 . S
C605 H628 0.950 . S
C606 C605 1.349 1_554 S
C606 C618 1.349 . S
C607 C605 1.327 . S
C607 C623 1.429 . S
C607 H629 0.950 . S
C608 H604 0.949 . S
C608 C616 1.574 . S
C608 C624 1.368 . S
H609 C617 0.950 . S
H610 C615 0.950 . S
H611 C616 0.949 . S
H612 C618 0.950 . S
H613 C619 0.950 . S
H614 C620 0.949 . S
C615 H610 0.950 . S
C615 C617 1.327 . S
C615 C621 1.429 . S
C616 C608 1.574 . S
C616 H611 0.949 . S
C616 C622 1.368 . S
C617 C601 1.349 . S
C617 H609 0.950 . S
C617 C615 1.327 . S
C618 C606 1.349 . S
C618 H612 0.950 . S
C618 C619 1.327 1_554 S
C619 H613 0.950 . S
C619 C618 1.327 1_556 S
C619 C623 1.429 . S
C620 C603 1.574 . S
C620 H614 0.949 . S
C620 C624 1.368 . S
C621 C602 1.429 . S
C621 C615 1.429 . S
C621 C622 1.523 . S
C622 C603 1.368 . S
C622 C616 1.368 . S
C622 C621 1.523 . S
C623 C607 1.429 . S
C623 C619 1.429 . S
C623 C624 1.523 . S
C624 C608 1.368 . S
C624 C620 1.368 . S
C624 C623 1.523 . S
H625 C600 0.950 . S
H626 C602 0.950 . S
H627 C603 0.949 . S
H628 C605 0.950 . S
H629 C607 0.950 . S
C630 C631 1.349 . S
C630 C632 1.327 . S
C630 H655 0.950 . S
C631 C630 1.349 . S
C631 C647 1.349 . S
C632 C630 1.327 . S
C632 C651 1.429 . S
C632 H656 0.950 . S
C633 C650 1.574 . S
C633 C652 1.368 . S
C633 H657 0.949 . S
H634 C638 0.949 . S
C635 C636 1.349 . S
C635 C637 1.327 . S
C635 H658 0.950 1_556 S
C636 C635 1.349 . S
C636 C648 1.349 . S
C637 C635 1.327 . S
C637 C653 1.429 . S
C637 H659 0.950 1_556 S
C638 H634 0.949 . S
C638 C646 1.574 . S
C638 C654 1.368 . S
H639 C647 0.950 . S
H640 C645 0.950 . S
H641 C646 0.949 . S
H642 C648 0.950 . S
H643 C649 0.950 . S
H644 C650 0.949 . S
C645 H640 0.950 . S
C645 C647 1.327 . S
C645 C651 1.429 . S
C646 C638 1.574 . S
C646 H641 0.949 . S
C646 C652 1.368 . S
C647 C631 1.349 . S
C647 H639 0.950 . S
C647 C645 1.327 . S
C648 C636 1.349 . S
C648 H642 0.950 . S
C648 C649 1.327 . S
C649 H643 0.950 . S
C649 C648 1.327 . S
C649 C653 1.429 . S
C650 C633 1.574 . S
C650 H644 0.949 . S
C650 C654 1.368 . S
C651 C632 1.429 . S
C651 C645 1.429 . S
C651 C652 1.523 . S
C652 C633 1.368 . S
C652 C646 1.368 . S
C652 C651 1.523 . S
C653 C637 1.429 . S
C653 C649 1.429 . S
C653 C654 1.523 . S
C654 C638 1.368 . S
C654 C650 1.368 . S
C654 C653 1.523 . S
H655 C630 0.950 . S
H656 C632 0.950 . S
H657 C633 0.949 . S
H658 C635 0.950 1_554 S
H659 C637 0.950 1_554 S
C660 C661 1.349 . S
C660 C662 1.327 . S
C660 H685 0.950 . S
C661 C660 1.349 . S
C661 C677 1.349 1_554 S
C662 C660 1.327 . S
C662 C681 1.429 1_554 S
C662 H686 0.950 . S
C663 C680 1.574 . S
C663 C682 1.368 . S
C663 H687 0.949 . S
H664 C668 0.949 . S
C665 C666 1.349 . S
C665 C667 1.327 . S
C665 H688 0.950 . S
C666 C665 1.349 . S
C666 C678 1.349 . S
C667 C665 1.327 . S
C667 C683 1.429 . S
C667 H689 0.950 . S
C668 H664 0.949 . S
C668 C676 1.574 . S
C668 C684 1.368 . S
H669 C677 0.950 . S
H670 C675 0.950 . S
H671 C676 0.949 . S
H672 C678 0.950 . S
H673 C679 0.950 . S
H674 C680 0.949 . S
C675 H670 0.950 . S
C675 C677 1.327 . S
C675 C681 1.429 . S
C676 C668 1.574 . S
C676 H671 0.949 . S
C676 C682 1.368 . S
C677 C661 1.349 1_556 S
C677 H669 0.950 . S
C677 C675 1.327 . S
C678 C666 1.349 . S
C678 H672 0.950 . S
C678 C679 1.327 . S
C679 H673 0.950 . S
C679 C678 1.327 . S
C679 C683 1.429 . S
C680 C663 1.574 . S
C680 H674 0.949 . S
C680 C684 1.368 . S
C681 C662 1.429 1_556 S
C681 C675 1.429 . S
C681 C682 1.523 . S
C682 C663 1.368 . S
C682 C676 1.368 . S
C682 C681 1.523 . S
C683 C667 1.429 . S
C683 C679 1.429 . S
C683 C684 1.523 . S
C684 C668 1.368 . S
C684 C680 1.368 . S
C684 C683 1.523 . S
H685 C660 0.950 . S
H686 C662 0.950 . S
H687 C663 0.949 . S
H688 C665 0.950 . S
H689 C667 0.950 . S
C690 C691 1.349 . S
C690 C692 1.327 . S
C690 H715 0.950 . S
C691 C690 1.349 . S
C691 C707 1.349 . S
C692 C690 1.327 . S
C692 C711 1.429 . S
C692 H716 0.950 . S
C693 C710 1.574 . S
C693 C712 1.368 . S
C693 H717 0.949 . S
H694 C698 0.949 . S
C695 C696 1.349 . S
C695 C697 1.327 . S
C695 H718 0.950 . S
C696 C695 1.349 . S
C696 C708 1.349 . S
C697 C695 1.327 . S
C697 C713 1.429 1_554 S
C697 H719 0.950 . S
C698 H694 0.949 . S
C698 C706 1.574 . S
C698 C714 1.368 . S
H699 C707 0.950 . S
H700 C705 0.950 . S
H701 C706 0.949 . S
H702 C708 0.950 . S
H703 C709 0.950 . S
H704 C710 0.949 . S
C705 H700 0.950 . S
C705 C707 1.327 . S
C705 C711 1.429 . S
C706 C698 1.574 . S
C706 H701 0.949 . S
C706 C712 1.368 . S
C707 C691 1.349 . S
C707 H699 0.950 . S
C707 C705 1.327 . S
C708 C696 1.349 . S
C708 H702 0.950 . S
C708 C709 1.327 1_554 S
C709 H703 0.950 . S
C709 C708 1.327 1_556 S
C709 C713 1.429 . S
C710 C693 1.574 . S
C710 H704 0.949 . S
C710 C714 1.368 . S
C711 C692 1.429 . S
C711 C705 1.429 . S
C711 C712 1.523 . S
C712 C693 1.368 . S
C712 C706 1.368 . S
C712 C711 1.523 . S
C713 C697 1.429 1_556 S
C713 C709 1.429 . S
C713 C714 1.523 . S
C714 C698 1.368 . S
C714 C710 1.368 . S
C714 C713 1.523 . S
H715 C690 0.950 . S
H716 C692 0.950 . S
H717 C693 0.949 . S
H718 C695 0.950 . S
H719 C697 0.950 . S
C720 C721 1.349 . S
C720 C722 1.327 . S
C720 H745 0.950 . S
C721 C720 1.349 . S
C721 C737 1.349 . S
C722 C720 1.327 . S
C722 C741 1.429 . S
C722 H746 0.950 . S
C723 C740 1.574 . S
C723 C742 1.368 . S
C723 H747 0.949 . S
H724 C728 0.949 . S
C725 C726 1.349 . S
C725 C727 1.327 . S
C725 H748 0.950 . S
C726 C725 1.349 . S
C726 C738 1.349 . S
C727 C725 1.327 . S
C727 C743 1.429 . S
C727 H749 0.950 . S
C728 H724 0.949 . S
C728 C736 1.574 . S
C728 C744 1.368 . S
H729 C737 0.950 . S
H730 C735 0.950 . S
H731 C736 0.949 . S
H732 C738 0.950 . S
H733 C739 0.950 . S
H734 C740 0.949 . S
C735 H730 0.950 . S
C735 C737 1.327 . S
C735 C741 1.429 . S
C736 C728 1.574 . S
C736 H731 0.949 . S
C736 C742 1.368 . S
C737 C721 1.349 . S
C737 H729 0.950 . S
C737 C735 1.327 . S
C738 C726 1.349 . S
C738 H732 0.950 . S
C738 C739 1.327 . S
C739 H733 0.950 . S
C739 C738 1.327 . S
C739 C743 1.429 . S
C740 C723 1.574 . S
C740 H734 0.949 . S
C740 C744 1.368 . S
C741 C722 1.429 . S
C741 C735 1.429 . S
C741 C742 1.523 . S
C742 C723 1.368 . S
C742 C736 1.368 . S
C742 C741 1.523 . S
C743 C727 1.429 . S
C743 C739 1.429 . S
C743 C744 1.523 . S
C744 C728 1.368 . S
C744 C740 1.368 . S
C744 C743 1.523 . S
H745 C720 0.950 . S
H746 C722 0.950 . S
H747 C723 0.949 . S
H748 C725 0.950 . S
H749 C727 0.950 . S
C750 C751 1.349 . S
C750 C752 1.327 . S
C750 H775 0.950 . S
C751 C750 1.349 . S
C751 C767 1.349 . S
C752 C750 1.327 . S
C752 C771 1.429 . S
C752 H776 0.950 . S
C753 C770 1.574 . S
C753 C772 1.368 . S
C753 H777 0.949 . S
H754 C758 0.949 . S
C755 C756 1.349 . S
C755 C757 1.327 . S
C755 H778 0.950 . S
C756 C755 1.349 . S
C756 C768 1.349 . S
C757 C755 1.327 . S
C757 C773 1.429 . S
C757 H779 0.950 . S
C758 H754 0.949 . S
C758 C766 1.574 . S
C758 C774 1.368 . S
H759 C767 0.950 . S
H760 C765 0.950 . S
H761 C766 0.949 . S
H762 C768 0.950 . S
H763 C769 0.950 . S
H764 C770 0.949 . S
C765 H760 0.950 . S
C765 C767 1.327 . S
C765 C771 1.429 . S
C766 C758 1.574 . S
C766 H761 0.949 . S
C766 C772 1.368 . S
C767 C751 1.349 . S
C767 H759 0.950 . S
C767 C765 1.327 . S
C768 C756 1.349 . S
C768 H762 0.950 . S
C768 C769 1.327 . S
C769 H763 0.950 . S
C769 C768 1.327 . S
C769 C773 1.429 . S
C770 C753 1.574 . S
C770 H764 0.949 . S
C770 C774 1.368 . S
C771 C752 1.429 . S
C771 C765 1.429 . S
C771 C772 1.523 . S
C772 C753 1.368 . S
C772 C766 1.368 . S
C772 C771 1.523 . S
C773 C757 1.429 . S
C773 C769 1.429 . S
C773 C774 1.523 . S
C774 C758 1.368 . S
C774 C770 1.368 . S
C774 C773 1.523 . S
H775 C750 0.950 . S
H776 C752 0.950 . S
H777 C753 0.949 . S
H778 C755 0.950 . S
H779 C757 0.950 . S
C780 C781 1.349 . S
C780 C782 1.327 . S
C780 H805 0.950 . S
C781 C780 1.349 . S
C781 C797 1.349 . S
C782 C780 1.327 . S
C782 C801 1.429 . S
C782 H806 0.950 . S
C783 C800 1.574 . S
C783 C802 1.368 . S
C783 H807 0.949 . S
H784 C788 0.949 . S
C785 C786 1.349 . S
C785 C787 1.327 . S
C785 H808 0.950 . S
C786 C785 1.349 . S
C786 C798 1.349 . S
C787 C785 1.327 . S
C787 C803 1.429 . S
C787 H809 0.950 . S
C788 H784 0.949 . S
C788 C796 1.574 . S
C788 C804 1.368 . S
H789 C797 0.950 . S
H790 C795 0.950 . S
H791 C796 0.949 . S
H792 C798 0.950 . S
H793 C799 0.950 . S
H794 C800 0.949 . S
C795 H790 0.950 . S
C795 C797 1.327 . S
C795 C801 1.429 . S
C796 C788 1.574 . S
C796 H791 0.949 . S
C796 C802 1.368 . S
C797 C781 1.349 . S
C797 H789 0.950 . S
C797 C795 1.327 . S
C798 C786 1.349 . S
C798 H792 0.950 . S
C798 C799 1.327 . S
C799 H793 0.950 . S
C799 C798 1.327 . S
C799 C803 1.429 . S
C800 C783 1.574 . S
C800 H794 0.949 . S
C800 C804 1.368 . S
C801 C782 1.429 . S
C801 C795 1.429 . S
C801 C802 1.523 . S
C802 C783 1.368 . S
C802 C796 1.368 . S
C802 C801 1.523 . S
C803 C787 1.429 . S
C803 C799 1.429 . S
C803 C804 1.523 . S
C804 C788 1.368 . S
C804 C800 1.368 . S
C804 C803 1.523 . S
H805 C780 0.950 . S
H806 C782 0.950 . S
H807 C783 0.949 . S
H808 C785 0.950 . S
H809 C787 0.950 . S
C810 C811 1.349 . S
C810 C812 1.327 . S
C810 H835 0.950 . S
C811 C810 1.349 . S
C811 C827 1.349 . S
C812 C810 1.327 . S
C812 C831 1.429 . S
C812 H836 0.950 . S
C813 C830 1.574 . S
C813 C832 1.368 . S
C813 H837 0.949 . S
H814 C818 0.949 . S
C815 C816 1.349 . S
C815 C817 1.327 . S
C815 H838 0.950 . S
C816 C815 1.349 . S
C816 C828 1.349 . S
C817 C815 1.327 . S
C817 C833 1.429 . S
C817 H839 0.950 . S
C818 H814 0.949 . S
C818 C826 1.574 . S
C818 C834 1.368 . S
H819 C827 0.950 . S
H820 C825 0.950 . S
H821 C826 0.949 . S
H822 C828 0.950 . S
H823 C829 0.950 . S
H824 C830 0.949 . S
C825 H820 0.950 . S
C825 C827 1.327 . S
C825 C831 1.429 . S
C826 C818 1.574 . S
C826 H821 0.949 . S
C826 C832 1.368 . S
C827 C811 1.349 . S
C827 H819 0.950 . S
C827 C825 1.327 . S
C828 C816 1.349 . S
C828 H822 0.950 . S
C828 C829 1.327 . S
C829 H823 0.950 . S
C829 C828 1.327 . S
C829 C833 1.429 . S
C830 C813 1.574 . S
C830 H824 0.949 . S
C830 C834 1.368 . S
C831 C812 1.429 . S
C831 C825 1.429 . S
C831 C832 1.523 . S
C832 C813 1.368 . S
C832 C826 1.368 . S
C832 C831 1.523 . S
C833 C817 1.429 . S
C833 C829 1.429 . S
C833 C834 1.523 . S
C834 C818 1.368 . S
C834 C830 1.368 . S
C834 C833 1.523 . S
H835 C810 0.950 . S
H836 C812 0.950 . S
H837 C813 0.949 . S
H838 C815 0.950 . S
H839 C817 0.950 . S
C840 C841 1.349 . S
C840 C842 1.327 . S
C840 H865 0.950 . S
C841 C840 1.349 . S
C841 C857 1.349 . S
C842 C840 1.327 . S
C842 C861 1.429 . S
C842 H866 0.950 . S
C843 C860 1.574 . S
C843 C862 1.368 . S
C843 H867 0.949 . S
H844 C848 0.949 . S
C845 C846 1.349 . S
C845 C847 1.327 . S
C845 H868 0.950 . S
C846 C845 1.349 . S
C846 C858 1.349 . S
C847 C845 1.327 . S
C847 C863 1.429 . S
C847 H869 0.950 . S
C848 H844 0.949 . S
C848 C856 1.574 . S
C848 C864 1.368 . S
H849 C857 0.950 . S
H850 C855 0.950 . S
H851 C856 0.949 . S
H852 C858 0.950 . S
H853 C859 0.950 . S
H854 C860 0.949 . S
C855 H850 0.950 . S
C855 C857 1.327 . S
C855 C861 1.429 . S
C856 C848 1.574 . S
C856 H851 0.949 . S
C856 C862 1.368 . S
C857 C841 1.349 . S
C857 H849 0.950 . S
C857 C855 1.327 . S
C858 C846 1.349 . S
C858 H852 0.950 . S
C858 C859 1.327 . S
C859 H853 0.950 . S
C859 C858 1.327 . S
C859 C863 1.429 . S
C860 C843 1.574 . S
C860 H854 0.949 . S
C860 C864 1.368 . S
C861 C842 1.429 . S
C861 C855 1.429 . S
C861 C862 1.523 . S
C862 C843 1.368 . S
C862 C856 1.368 . S
C862 C861 1.523 . S
C863 C847 1.429 . S
C863 C859 1.429 . S
C863 C864 1.523 1_565 S
C864 C848 1.368 . S
C864 C860 1.368 . S
C864 C863 1.523 1_545 S
H865 C840 0.950 . S
H866 C842 0.950 . S
H867 C843 0.949 . S
H868 C845 0.950 . S
H869 C847 0.950 . S
C870 C871 1.349 . S
C870 C872 1.327 . S
C870 H895 0.950 . S
C871 C870 1.349 . S
C871 C887 1.349 . S
C872 C870 1.327 . S
C872 C891 1.429 1_655 S
C872 H896 0.950 . S
C873 C890 1.574 . S
C873 C892 1.368 . S
C873 H897 0.949 . S
H874 C878 0.949 . S
C875 C876 1.349 . S
C875 C877 1.327 . S
C875 H898 0.950 . S
C876 C875 1.349 . S
C876 C888 1.349 . S
C877 C875 1.327 . S
C877 C893 1.429 . S
C877 H899 0.950 . S
C878 H874 0.949 . S
C878 C886 1.574 . S
C878 C894 1.368 . S
H879 C887 0.950 . S
H880 C885 0.950 . S
H881 C886 0.949 . S
H882 C888 0.950 . S
H883 C889 0.950 . S
H884 C890 0.949 . S
C885 H880 0.950 . S
C885 C887 1.327 1_455 S
C885 C891 1.429 . S
C886 C878 1.574 . S
C886 H881 0.949 . S
C886 C892 1.368 . S
C887 C871 1.349 . S
C887 H879 0.950 . S
C887 C885 1.327 1_655 S
C888 C876 1.349 . S
C888 H882 0.950 . S
C888 C889 1.327 . S
C889 H883 0.950 . S
C889 C888 1.327 . S
C889 C893 1.429 . S
C890 C873 1.574 . S
C890 H884 0.949 . S
C890 C894 1.368 . S
C891 C872 1.429 1_455 S
C891 C885 1.429 . S
C891 C892 1.523 . S
C892 C873 1.368 . S
C892 C886 1.368 . S
C892 C891 1.523 . S
C893 C877 1.429 . S
C893 C889 1.429 . S
C893 C894 1.523 . S
C894 C878 1.368 . S
C894 C890 1.368 . S
C894 C893 1.523 . S
H895 C870 0.950 . S
H896 C872 0.950 . S
H897 C873 0.949 . S
H898 C875 0.950 . S
H899 C877 0.950 . S
C900 C901 1.349 . S
C900 C902 1.327 . S
C900 H925 0.950 . S
C901 C900 1.349 . S
C901 C917 1.349 . S
C902 C900 1.327 . S
C902 C921 1.429 . S
C902 H926 0.950 . S
C903 C920 1.574 . S
C903 C922 1.368 . S
C903 H927 0.949 . S
H904 C908 0.949 . S
C905 C906 1.349 . S
C905 C907 1.327 . S
C905 H928 0.950 . S
C906 C905 1.349 . S
C906 C918 1.349 . S
C907 C905 1.327 . S
C907 C923 1.429 . S
C907 H929 0.950 . S
C908 H904 0.949 . S
C908 C916 1.574 . S
C908 C924 1.368 . S
H909 C917 0.950 . S
H910 C915 0.950 . S
H911 C916 0.949 . S
H912 C918 0.950 . S
H913 C919 0.950 . S
H914 C920 0.949 . S
C915 H910 0.950 . S
C915 C917 1.327 . S
C915 C921 1.429 . S
C916 C908 1.574 . S
C916 H911 0.949 . S
C916 C922 1.368 . S
C917 C901 1.349 . S
C917 H909 0.950 . S
C917 C915 1.327 . S
C918 C906 1.349 . S
C918 H912 0.950 . S
C918 C919 1.327 . S
C919 H913 0.950 . S
C919 C918 1.327 . S
C919 C923 1.429 . S
C920 C903 1.574 . S
C920 H914 0.949 . S
C920 C924 1.368 . S
C921 C902 1.429 . S
C921 C915 1.429 . S
C921 C922 1.523 . S
C922 C903 1.368 . S
C922 C916 1.368 . S
C922 C921 1.523 . S
C923 C907 1.429 . S
C923 C919 1.429 . S
C923 C924 1.523 . S
C924 C908 1.368 . S
C924 C920 1.368 . S
C924 C923 1.523 . S
H925 C900 0.950 . S
H926 C902 0.950 . S
H927 C903 0.949 . S
H928 C905 0.950 . S
H929 C907 0.950 . S
C930 C931 1.349 . S
C930 C932 1.327 . S
C930 H955 0.950 . S
C931 C930 1.349 . S
C931 C947 1.349 . S
C932 C930 1.327 . S
C932 C951 1.429 . S
C932 H956 0.950 . S
C933 C950 1.574 . S
C933 C952 1.368 . S
C933 H957 0.949 1_545 S
H934 C938 0.949 . S
C935 C936 1.349 . S
C935 C937 1.327 . S
C935 H958 0.950 . S
C936 C935 1.349 . S
C936 C948 1.349 . S
C937 C935 1.327 . S
C937 C953 1.429 . S
C937 H959 0.950 . S
C938 H934 0.949 . S
C938 C946 1.574 . S
C938 C954 1.368 . S
H939 C947 0.950 . S
H940 C945 0.950 . S
H941 C946 0.949 . S
H942 C948 0.950 . S
H943 C949 0.950 . S
H944 C950 0.949 . S
C945 H940 0.950 . S
C945 C947 1.327 . S
C945 C951 1.429 . S
C946 C938 1.574 . S
C946 H941 0.949 . S
C946 C952 1.368 . S
C947 C931 1.349 . S
C947 H939 0.950 . S
C947 C945 1.327 . S
C948 C936 1.349 . S
C948 H942 0.950 . S
C948 C949 1.327 . S
C949 H943 0.950 . S
C949 C948 1.327 . S
C949 C953 1.429 . S
C950 C933 1.574 . S
C950 H944 0.949 . S
C950 C954 1.368 . S
C951 C932 1.429 . S
C951 C945 1.429 . S
C951 C952 1.523 1_565 S
C952 C933 1.368 . S
C952 C946 1.368 . S
C952 C951 1.523 1_545 S
C953 C937 1.429 . S
C953 C949 1.429 . S
C953 C954 1.523 . S
C954 C938 1.368 . S
C954 C950 1.368 . S
C954 C953 1.523 . S
H955 C930 0.950 . S
H956 C932 0.950 . S
H957 C933 0.949 1_565 S
H958 C935 0.950 . S
H959 C937 0.950 . S
C960 C961 1.349 . S
C960 C962 1.327 . S
C960 H985 0.950 . S
C961 C960 1.349 . S
C961 C977 1.349 . S
C962 C960 1.327 . S
C962 C981 1.429 1_655 S
C962 H986 0.950 . S
C963 C980 1.574 . S
C963 C982 1.368 . S
C963 H987 0.949 . S
H964 C968 0.949 . S
C965 C966 1.349 . S
C965 C967 1.327 . S
C965 H988 0.950 . S
C966 C965 1.349 . S
C966 C978 1.349 . S
C967 C965 1.327 . S
C967 C983 1.429 . S
C967 H989 0.950 . S
C968 H964 0.949 . S
C968 C976 1.574 . S
C968 C984 1.368 . S
H969 C977 0.950 . S
H970 C975 0.950 . S
H971 C976 0.949 . S
H972 C978 0.950 . S
H973 C979 0.950 . S
H974 C980 0.949 . S
C975 H970 0.950 . S
C975 C977 1.327 1_455 S
C975 C981 1.429 . S
C976 C968 1.574 . S
C976 H971 0.949 . S
C976 C982 1.368 . S
C977 C961 1.349 . S
C977 H969 0.950 . S
C977 C975 1.327 1_655 S
C978 C966 1.349 . S
C978 H972 0.950 . S
C978 C979 1.327 . S
C979 H973 0.950 . S
C979 C978 1.327 . S
C979 C983 1.429 . S
C980 C963 1.574 . S
C980 H974 0.949 . S
C980 C984 1.368 . S
C981 C962 1.429 1_455 S
C981 C975 1.429 . S
C981 C982 1.523 . S
C982 C963 1.368 . S
C982 C976 1.368 . S
C982 C981 1.523 . S
C983 C967 1.429 . S
C983 C979 1.429 . S
C983 C984 1.523 . S
C984 C968 1.368 . S
C984 C980 1.368 . S
C984 C983 1.523 . S
H985 C960 0.950 . S
H986 C962 0.950 . S
H987 C963 0.949 . S
H988 C965 0.950 . S
H989 C967 0.950 . S
C181 C18 1.878 . S
C186 C19 1.878 . S
C211 C39 1.889 . S
C216 C38 1.889 . S
C241 C58 1.897 . S
C246 C59 1.898 . S
C271 C79 1.878 . S
C276 C78 1.878 . S
C301 C98 1.889 . S
C306 C99 1.889 . S
C331 C119 1.898 . S
C336 C118 1.898 . S
C361 C132 0.658 . S
C366 C129 0.658 . S
C391 C149 0.713 . S
C396 C152 0.713 . S
C421 C172 0.712 . S
C426 C169 0.712 . S
C451 C104 1.605 . S
C456 C12 1.661 . S
C481 C24 1.527 . S
C486 C64 1.538 . S
C511 C52 1.729 1_565 S
C516 C92 1.738 . S
C541 C44 1.176 . S
C546 C122 1.208 . S
C571 C159 1.274 . S
C576 C4 1.177 1_655 S
C601 C162 1.327 . S
C606 C32 1.349 . S
C631 C178 1.406 . S
C636 C9 1.347 . S
C661 C22 1.160 . S
C666 C138 1.249 . S
C691 C144 1.320 . S
C696 C49 1.343 . S
C721 C42 1.605 1_565 S
C726 C69 1.661 . S
C751 C82 1.527 . S
C756 C2 1.538 . S
C781 C29 1.738 . S
C786 C109 1.729 . S
C811 C179 1.406 . S
C816 C72 1.347 . S
C841 C139 1.249 . S
C846 C84 1.160 . S
C871 C142 1.320 . S
C876 C112 1.343 . S
C901 C124 1.208 . S
C906 C102 1.176 . S
C931 C62 1.177 . S
C936 C158 1.274 . S
C961 C164 1.327 . S
C966 C89 1.349 . S
