# Generated by pormake.
# Topology mer, (4)-cn, num edge types: 1
# Building blocks:
#     Node 0, Type 0, BuildingBlock: NAHDIM_clean_sbu_0, # of connection points: 4
#     Node 1, Type 0, BuildingBlock: NAHDIM_clean_sbu_0, # of connection points: 4
#     Node 2, Type 0, BuildingBlock: NAHDIM_clean_sbu_0, # of connection points: 4
#     Node 3, Type 0, BuildingBlock: NAHDIM_clean_sbu_0, # of connection points: 4
#     Node 4, Type 0, BuildingBlock: NAHDIM_clean_sbu_0, # of connection points: 4
#     Node 5, Type 0, BuildingBlock: NAHDIM_clean_sbu_0, # of connection points: 4
#     Node 6, Type 0, BuildingBlock: NAHDIM_clean_sbu_0, # of connection points: 4
#     Node 7, Type 0, BuildingBlock: NAHDIM_clean_sbu_0, # of connection points: 4
#     Node 8, Type 0, BuildingBlock: NAHDIM_clean_sbu_0, # of connection points: 4
#     Node 9, Type 0, BuildingBlock: NAHDIM_clean_sbu_0, # of connection points: 4
#     Node 10, Type 0, BuildingBlock: NAHDIM_clean_sbu_0, # of connection points: 4
#     Node 11, Type 0, BuildingBlock: NAHDIM_clean_sbu_0, # of connection points: 4
#     Node 12, Type 0, BuildingBlock: NAHDIM_clean_sbu_0, # of connection points: 4
#     Node 13, Type 0, BuildingBlock: NAHDIM_clean_sbu_0, # of connection points: 4
#     Node 14, Type 0, BuildingBlock: NAHDIM_clean_sbu_0, # of connection points: 4
#     Node 15, Type 0, BuildingBlock: NAHDIM_clean_sbu_0, # of connection points: 4
#     Node 16, Type 0, BuildingBlock: NAHDIM_clean_sbu_0, # of connection points: 4
#     Node 17, Type 0, BuildingBlock: NAHDIM_clean_sbu_0, # of connection points: 4
#     Node 18, Type 0, BuildingBlock: NAHDIM_clean_sbu_0, # of connection points: 4
#     Node 19, Type 0, BuildingBlock: NAHDIM_clean_sbu_0, # of connection points: 4
#     Node 20, Type 0, BuildingBlock: NAHDIM_clean_sbu_0, # of connection points: 4
#     Node 21, Type 0, BuildingBlock: NAHDIM_clean_sbu_0, # of connection points: 4
#     Node 22, Type 0, BuildingBlock: NAHDIM_clean_sbu_0, # of connection points: 4
#     Node 23, Type 0, BuildingBlock: NAHDIM_clean_sbu_0, # of connection points: 4
#     Node 24, Type 0, BuildingBlock: NAHDIM_clean_sbu_0, # of connection points: 4
#     Node 25, Type 0, BuildingBlock: NAHDIM_clean_sbu_0, # of connection points: 4
#     Node 26, Type 0, BuildingBlock: NAHDIM_clean_sbu_0, # of connection points: 4
#     Node 27, Type 0, BuildingBlock: NAHDIM_clean_sbu_0, # of connection points: 4
#     Node 28, Type 0, BuildingBlock: NAHDIM_clean_sbu_0, # of connection points: 4
#     Node 29, Type 0, BuildingBlock: NAHDIM_clean_sbu_0, # of connection points: 4
#     Node 30, Type 0, BuildingBlock: NAHDIM_clean_sbu_0, # of connection points: 4
#     Node 31, Type 0, BuildingBlock: NAHDIM_clean_sbu_0, # of connection points: 4
#     Edge 32, Type (0, 0), BuildingBlock: XUDNAN_clean_linker_2, # of connection points: 2
#     Edge 33, Type (0, 0), BuildingBlock: XUDNAN_clean_linker_2, # of connection points: 2
#     Edge 34, Type (0, 0), BuildingBlock: XUDNAN_clean_linker_2, # of connection points: 2
#     Edge 35, Type (0, 0), BuildingBlock: XUDNAN_clean_linker_2, # of connection points: 2
#     Edge 36, Type (0, 0), BuildingBlock: XUDNAN_clean_linker_2, # of connection points: 2
#     Edge 37, Type (0, 0), BuildingBlock: XUDNAN_clean_linker_2, # of connection points: 2
#     Edge 38, Type (0, 0), BuildingBlock: XUDNAN_clean_linker_2, # of connection points: 2
#     Edge 39, Type (0, 0), BuildingBlock: XUDNAN_clean_linker_2, # of connection points: 2
#     Edge 40, Type (0, 0), BuildingBlock: XUDNAN_clean_linker_2, # of connection points: 2
#     Edge 41, Type (0, 0), BuildingBlock: XUDNAN_clean_linker_2, # of connection points: 2
#     Edge 42, Type (0, 0), BuildingBlock: XUDNAN_clean_linker_2, # of connection points: 2
#     Edge 43, Type (0, 0), BuildingBlock: XUDNAN_clean_linker_2, # of connection points: 2
#     Edge 44, Type (0, 0), BuildingBlock: XUDNAN_clean_linker_2, # of connection points: 2
#     Edge 45, Type (0, 0), BuildingBlock: XUDNAN_clean_linker_2, # of connection points: 2
#     Edge 46, Type (0, 0), BuildingBlock: XUDNAN_clean_linker_2, # of connection points: 2
#     Edge 47, Type (0, 0), BuildingBlock: XUDNAN_clean_linker_2, # of connection points: 2
#     Edge 48, Type (0, 0), BuildingBlock: XUDNAN_clean_linker_2, # of connection points: 2
#     Edge 49, Type (0, 0), BuildingBlock: XUDNAN_clean_linker_2, # of connection points: 2
#     Edge 50, Type (0, 0), BuildingBlock: XUDNAN_clean_linker_2, # of connection points: 2
#     Edge 51, Type (0, 0), BuildingBlock: XUDNAN_clean_linker_2, # of connection points: 2
#     Edge 52, Type (0, 0), BuildingBlock: XUDNAN_clean_linker_2, # of connection points: 2
#     Edge 53, Type (0, 0), BuildingBlock: XUDNAN_clean_linker_2, # of connection points: 2
#     Edge 54, Type (0, 0), BuildingBlock: XUDNAN_clean_linker_2, # of connection points: 2
#     Edge 55, Type (0, 0), BuildingBlock: XUDNAN_clean_linker_2, # of connection points: 2
#     Edge 56, Type (0, 0), BuildingBlock: XUDNAN_clean_linker_2, # of connection points: 2
#     Edge 57, Type (0, 0), BuildingBlock: XUDNAN_clean_linker_2, # of connection points: 2
#     Edge 58, Type (0, 0), BuildingBlock: XUDNAN_clean_linker_2, # of connection points: 2
#     Edge 59, Type (0, 0), BuildingBlock: XUDNAN_clean_linker_2, # of connection points: 2
#     Edge 60, Type (0, 0), BuildingBlock: XUDNAN_clean_linker_2, # of connection points: 2
#     Edge 61, Type (0, 0), BuildingBlock: XUDNAN_clean_linker_2, # of connection points: 2
#     Edge 62, Type (0, 0), BuildingBlock: XUDNAN_clean_linker_2, # of connection points: 2
#     Edge 63, Type (0, 0), BuildingBlock: XUDNAN_clean_linker_2, # of connection points: 2
#     Edge 64, Type (0, 0), BuildingBlock: XUDNAN_clean_linker_2, # of connection points: 2
#     Edge 65, Type (0, 0), BuildingBlock: XUDNAN_clean_linker_2, # of connection points: 2
#     Edge 66, Type (0, 0), BuildingBlock: XUDNAN_clean_linker_2, # of connection points: 2
#     Edge 67, Type (0, 0), BuildingBlock: XUDNAN_clean_linker_2, # of connection points: 2
#     Edge 68, Type (0, 0), BuildingBlock: XUDNAN_clean_linker_2, # of connection points: 2
#     Edge 69, Type (0, 0), BuildingBlock: XUDNAN_clean_linker_2, # of connection points: 2
#     Edge 70, Type (0, 0), BuildingBlock: XUDNAN_clean_linker_2, # of connection points: 2
#     Edge 71, Type (0, 0), BuildingBlock: XUDNAN_clean_linker_2, # of connection points: 2
#     Edge 72, Type (0, 0), BuildingBlock: XUDNAN_clean_linker_2, # of connection points: 2
#     Edge 73, Type (0, 0), BuildingBlock: XUDNAN_clean_linker_2, # of connection points: 2
#     Edge 74, Type (0, 0), BuildingBlock: XUDNAN_clean_linker_2, # of connection points: 2
#     Edge 75, Type (0, 0), BuildingBlock: XUDNAN_clean_linker_2, # of connection points: 2
#     Edge 76, Type (0, 0), BuildingBlock: XUDNAN_clean_linker_2, # of connection points: 2
#     Edge 77, Type (0, 0), BuildingBlock: XUDNAN_clean_linker_2, # of connection points: 2
#     Edge 78, Type (0, 0), BuildingBlock: XUDNAN_clean_linker_2, # of connection points: 2
#     Edge 79, Type (0, 0), BuildingBlock: XUDNAN_clean_linker_2, # of connection points: 2
#     Edge 80, Type (0, 0), BuildingBlock: XUDNAN_clean_linker_2, # of connection points: 2
#     Edge 81, Type (0, 0), BuildingBlock: XUDNAN_clean_linker_2, # of connection points: 2
#     Edge 82, Type (0, 0), BuildingBlock: XUDNAN_clean_linker_2, # of connection points: 2
#     Edge 83, Type (0, 0), BuildingBlock: XUDNAN_clean_linker_2, # of connection points: 2
#     Edge 84, Type (0, 0), BuildingBlock: XUDNAN_clean_linker_2, # of connection points: 2
#     Edge 85, Type (0, 0), BuildingBlock: XUDNAN_clean_linker_2, # of connection points: 2
#     Edge 86, Type (0, 0), BuildingBlock: XUDNAN_clean_linker_2, # of connection points: 2
#     Edge 87, Type (0, 0), BuildingBlock: XUDNAN_clean_linker_2, # of connection points: 2
#     Edge 88, Type (0, 0), BuildingBlock: XUDNAN_clean_linker_2, # of connection points: 2
#     Edge 89, Type (0, 0), BuildingBlock: XUDNAN_clean_linker_2, # of connection points: 2
#     Edge 90, Type (0, 0), BuildingBlock: XUDNAN_clean_linker_2, # of connection points: 2
#     Edge 91, Type (0, 0), BuildingBlock: XUDNAN_clean_linker_2, # of connection points: 2
#     Edge 92, Type (0, 0), BuildingBlock: XUDNAN_clean_linker_2, # of connection points: 2
#     Edge 93, Type (0, 0), BuildingBlock: XUDNAN_clean_linker_2, # of connection points: 2
#     Edge 94, Type (0, 0), BuildingBlock: XUDNAN_clean_linker_2, # of connection points: 2
#     Edge 95, Type (0, 0), BuildingBlock: XUDNAN_clean_linker_2, # of connection points: 2
# Relax obj value: 0.160
# Max RMSD: 0.165
# Mean RMSD: 0.153
data_MOF--net-mer--node1-NAHDIM_clean_sbu_0--edge1-XUDNAN_clean_linker_2
_symmetry_space_group_name_H-M    P1
_symmetry_Int_Tables_number       1
_symmetry_cell_setting            triclinic
loop_
_symmetry_equiv_pos_as_xyz
'x, y, z'
_cell_length_a     69.234082
_cell_length_b     67.518787
_cell_length_c     44.209621
_cell_angle_alpha  89.992036
_cell_angle_beta   90.011748
_cell_angle_gamma 90.00617
loop_
_atom_site_label
_atom_site_type_symbol
_atom_site_fract_x
_atom_site_fract_y
_atom_site_fract_z
_atom_type_partial_charge
C0 C 0.05909 0.24503 0.28905 0.0
O1 O 0.06941 0.26011 0.27955 0.0
O2 O 0.10671 0.25944 0.30895 0.0
Zn3 Zn 0.09254 0.2363 0.32705 0.0
O4 O 0.08933 0.24099 0.37162 0.0
C5 C 0.11946 0.20885 0.29973 0.0
O6 O 0.12122 0.22287 0.27931 0.0
O7 O 0.0662 0.23308 0.30829 0.0
C8 C 0.10401 0.23982 0.38878 0.0
O9 O 0.12093 0.23578 0.37682 0.0
C10 C 0.10214 0.27712 0.31574 0.0
O11 O 0.08801 0.28023 0.335 0.0
O12 O 0.10787 0.21131 0.32166 0.0
C13 C 0.68209 0.11933 0.34 0.0
O14 O 0.67897 0.10322 0.35594 0.0
O15 O 0.73008 0.08872 0.34474 0.0
Zn16 Zn 0.72141 0.11488 0.36146 0.0
O17 O 0.74407 0.13313 0.35954 0.0
C18 C 0.70881 0.09613 0.41761 0.0
O19 O 0.70516 0.08065 0.40053 0.0
O20 O 0.699 0.12658 0.3389 0.0
C21 C 0.74872 0.14358 0.33681 0.0
O22 O 0.73797 0.14306 0.31233 0.0
C23 C 0.72261 0.07917 0.32292 0.0
O24 O 0.70738 0.08631 0.30898 0.0
O25 O 0.7151 0.11192 0.40549 0.0
C26 C 0.93942 0.74884 0.27255 0.0
O27 O 0.92851 0.75323 0.24917 0.0
O28 O 0.89211 0.71859 0.27284 0.0
Zn29 Zn 0.90335 0.7378 0.30259 0.0
O30 O 0.89955 0.72734 0.34459 0.0
C31 C 0.8706 0.76241 0.30038 0.0
O32 O 0.86243 0.74495 0.30334 0.0
O33 O 0.93167 0.7421 0.29646 0.0
C34 C 0.90433 0.7386 0.36635 0.0
O35 O 0.91139 0.75622 0.36028 0.0
C36 C 0.90115 0.70608 0.25673 0.0
O37 O 0.92005 0.70491 0.25863 0.0
O38 O 0.8889 0.76346 0.29914 0.0
C39 C 0.32264 0.86551 0.32304 0.0
O40 O 0.32463 0.88416 0.33096 0.0
O41 O 0.28572 0.89969 0.33258 0.0
Zn42 Zn 0.28345 0.87102 0.34411 0.0
O43 O 0.26001 0.85875 0.32485 0.0
C44 C 0.27961 0.88068 0.40845 0.0
O45 O 0.27803 0.89904 0.39896 0.0
O46 O 0.30656 0.85689 0.32735 0.0
C47 C 0.24392 0.85788 0.33858 0.0
O48 O 0.24233 0.86594 0.36551 0.0
C49 C 0.2717 0.91148 0.32832 0.0
O50 O 0.25394 0.90524 0.3326 0.0
O51 O 0.28225 0.8669 0.3893 0.0
C52 C 0.05576 0.75565 0.71159 0.0
O53 O 0.06761 0.75364 0.7346 0.0
O54 O 0.104 0.74106 0.70684 0.0
Zn55 Zn 0.09133 0.76127 0.67976 0.0
O56 O 0.09802 0.75646 0.63603 0.0
C57 C 0.10423 0.79454 0.717 0.0
O58 O 0.09867 0.78365 0.74002 0.0
O59 O 0.06263 0.75958 0.6856 0.0
C60 C 0.11493 0.76115 0.62743 0.0
O61 O 0.12719 0.76817 0.64744 0.0
C62 C 0.11419 0.72662 0.69763 0.0
O63 O 0.11707 0.72421 0.66851 0.0
O64 O 0.10164 0.7882 0.69026 0.0
C65 C 0.32166 0.11846 0.66265 0.0
O66 O 0.32193 0.09904 0.6608 0.0
O67 O 0.28264 0.08626 0.64591 0.0
Zn68 Zn 0.28437 0.11472 0.63312 0.0
O69 O 0.2604 0.12903 0.64628 0.0
C70 C 0.2998 0.10865 0.57314 0.0
O71 O 0.31412 0.10028 0.5879 0.0
O72 O 0.30735 0.12795 0.65198 0.0
C73 C 0.2439 0.12089 0.64412 0.0
O74 O 0.24263 0.10284 0.6332 0.0
C75 C 0.27666 0.08151 0.67208 0.0
O76 O 0.27203 0.09552 0.69138 0.0
O77 O 0.28581 0.11602 0.5879 0.0
C78 C 0.93489 0.26667 0.69983 0.0
O79 O 0.93019 0.2855 0.69914 0.0
O80 O 0.88622 0.2847 0.69403 0.0
Zn81 Zn 0.89788 0.26208 0.67081 0.0
O82 O 0.90243 0.27011 0.62766 0.0
C83 C 0.86759 0.23511 0.69106 0.0
O84 O 0.86585 0.24745 0.71387 0.0
O85 O 0.92316 0.25393 0.68935 0.0
C86 C 0.88799 0.27313 0.61054 0.0
O87 O 0.87051 0.27134 0.62179 0.0
C88 C 0.88938 0.30271 0.68721 0.0
O89 O 0.90048 0.30689 0.66397 0.0
O90 O 0.88008 0.23856 0.67067 0.0
C91 C 0.70743 0.87264 0.70131 0.0
O92 O 0.71654 0.8873 0.71465 0.0
O93 O 0.74348 0.90362 0.67326 0.0
Zn94 Zn 0.73896 0.87579 0.6591 0.0
O95 O 0.76029 0.85773 0.67294 0.0
C96 C 0.72286 0.88389 0.60053 0.0
O97 O 0.70895 0.89159 0.61697 0.0
O98 O 0.71418 0.86556 0.67685 0.0
C99 C 0.77319 0.85129 0.65504 0.0
O100 O 0.77309 0.85707 0.62667 0.0
C101 C 0.75977 0.91046 0.68142 0.0
O102 O 0.77503 0.89892 0.68079 0.0
O103 O 0.73721 0.87596 0.61371 0.0
C104 C 0.91956 0.71887 0.6904 0.0
O105 O 0.90673 0.71259 0.71009 0.0
O106 O 0.87768 0.68989 0.66926 0.0
Zn107 Zn 0.88842 0.71352 0.64755 0.0
O108 O 0.88965 0.70838 0.60296 0.0
C109 C 0.86385 0.7411 0.67979 0.0
O110 O 0.86773 0.72972 0.7031 0.0
O111 O 0.91493 0.72011 0.66266 0.0
C112 C 0.89553 0.72256 0.58649 0.0
O113 O 0.90068 0.73926 0.59948 0.0
C114 C 0.85995 0.68573 0.66556 0.0
O115 O 0.84954 0.69669 0.64719 0.0
O116 O 0.8711 0.73696 0.65416 0.0
C117 C 0.25829 0.93768 0.67469 0.0
O118 O 0.26944 0.92928 0.65435 0.0
O119 O 0.26072 0.88343 0.70992 0.0
Zn120 Zn 0.24407 0.89807 0.68017 0.0
O121 O 0.25189 0.89257 0.63706 0.0
C122 C 0.20942 0.88949 0.71274 0.0
O123 O 0.21942 0.89732 0.73499 0.0
O124 O 0.24602 0.92719 0.6888 0.0
C125 C 0.25284 0.87509 0.6265 0.0
O126 O 0.24885 0.86004 0.64428 0.0
C127 C 0.27748 0.87653 0.7049 0.0
O128 O 0.2854 0.87893 0.67815 0.0
O129 O 0.21687 0.88874 0.68649 0.0
C130 C 0.07314 0.25305 0.70332 0.0
O131 O 0.08041 0.27072 0.69824 0.0
O132 O 0.12165 0.26601 0.69149 0.0
Zn133 Zn 0.10825 0.24174 0.67492 0.0
O134 O 0.10226 0.24502 0.63057 0.0
C135 C 0.143 0.21884 0.68309 0.0
O136 O 0.15101 0.23646 0.68442 0.0
O137 O 0.08295 0.23788 0.69611 0.0
C138 C 0.11468 0.24139 0.61014 0.0
O139 O 0.13212 0.23573 0.61805 0.0
C140 C 0.12655 0.28052 0.67485 0.0
O141 O 0.12292 0.2799 0.64572 0.0
O142 O 0.12481 0.2175 0.67995 0.0
C143 C 0.74458 0.05314 0.70688 0.0
O144 O 0.72637 0.05763 0.70198 0.0
O145 O 0.72796 0.10304 0.72583 0.0
Zn146 Zn 0.74723 0.09378 0.69493 0.0
O147 O 0.734 0.09075 0.65459 0.0
C148 C 0.77286 0.12724 0.70821 0.0
O149 O 0.7617 0.13007 0.73184 0.0
O150 O 0.75709 0.06689 0.70622 0.0
C151 C 0.73501 0.10389 0.63409 0.0
O152 O 0.74458 0.12033 0.63945 0.0
C153 C 0.71712 0.11771 0.71985 0.0
O154 O 0.71904 0.12678 0.69374 0.0
O155 O 0.76945 0.11283 0.69052 0.0
C156 C 0.92239 0.26783 0.29511 0.0
O157 O 0.91927 0.28702 0.29604 0.0
O158 O 0.87275 0.28732 0.30682 0.0
Zn159 Zn 0.88664 0.26563 0.3289 0.0
O160 O 0.89427 0.27445 0.37064 0.0
C161 C 0.85524 0.23849 0.31575 0.0
O162 O 0.85317 0.24909 0.29104 0.0
O163 O 0.91012 0.25618 0.30688 0.0
C164 C 0.88099 0.27695 0.3901 0.0
O165 O 0.86291 0.27469 0.38175 0.0
C166 C 0.87414 0.30545 0.31415 0.0
O167 O 0.88595 0.31061 0.33603 0.0
O168 O 0.8686 0.24278 0.3343 0.0
C169 C 0.74082 0.93831 0.29247 0.0
O170 O 0.72598 0.93049 0.27833 0.0
O171 O 0.72576 0.8877 0.28983 0.0
Zn172 Zn 0.74631 0.8986 0.31728 0.0
O173 O 0.73704 0.89617 0.36037 0.0
C174 C 0.76977 0.86426 0.30975 0.0
O175 O 0.75283 0.85561 0.31197 0.0
O176 O 0.75139 0.92742 0.30908 0.0
C177 C 0.7474 0.88979 0.38202 0.0
O178 O 0.76523 0.88417 0.37659 0.0
C179 C 0.70797 0.8903 0.29569 0.0
O180 O 0.70308 0.90089 0.3194 0.0
O181 O 0.77073 0.88302 0.31134 0.0
C182 C 0.07917 0.75333 0.30744 0.0
O183 O 0.09366 0.75439 0.28834 0.0
O184 O 0.11799 0.71791 0.33311 0.0
Zn185 Zn 0.10979 0.74457 0.34894 0.0
O186 O 0.11137 0.74482 0.39464 0.0
C187 C 0.13768 0.76553 0.30986 0.0
O188 O 0.13646 0.75021 0.29165 0.0
O189 O 0.08258 0.74961 0.33512 0.0
C190 C 0.12723 0.75009 0.40677 0.0
O191 O 0.14183 0.75488 0.38928 0.0
C192 C 0.13522 0.71158 0.33532 0.0
O193 O 0.14832 0.72273 0.34841 0.0
O194 O 0.1274 0.76606 0.33364 0.0
C195 C 0.27535 0.05373 0.28606 0.0
O196 O 0.29052 0.06537 0.28447 0.0
O197 O 0.2736 0.10446 0.26431 0.0
Zn198 Zn 0.25856 0.09075 0.2973 0.0
O199 O 0.27151 0.09505 0.33758 0.0
C200 C 0.22542 0.11432 0.28015 0.0
O201 O 0.23705 0.12036 0.25858 0.0
O202 O 0.25884 0.06143 0.29039 0.0
C203 C 0.26428 0.10523 0.35893 0.0
O204 O 0.24752 0.11397 0.35493 0.0
C205 C 0.28831 0.11509 0.26995 0.0
O206 O 0.29429 0.11689 0.29801 0.0
O207 O 0.23128 0.10127 0.29875 0.0
C208 C 0.55238 0.76918 0.77708 0.0
O209 O 0.56407 0.78233 0.7651 0.0
O210 O 0.59961 0.78286 0.80501 0.0
Zn211 Zn 0.58485 0.75841 0.81694 0.0
O212 O 0.58108 0.75733 0.86196 0.0
C213 C 0.61775 0.73353 0.81056 0.0
O214 O 0.626 0.74888 0.82347 0.0
O215 O 0.55847 0.75792 0.79807 0.0
C216 C 0.59125 0.76647 0.88139 0.0
O217 O 0.60538 0.77799 0.87224 0.0
C218 C 0.60808 0.78335 0.77953 0.0
O219 O 0.60646 0.76809 0.76125 0.0
O220 O 0.59977 0.73413 0.80493 0.0
C221 C 0.19433 0.63483 0.8148 0.0
O222 O 0.20839 0.62837 0.79747 0.0
O223 O 0.21719 0.58762 0.84588 0.0
Zn224 Zn 0.21738 0.61597 0.8597 0.0
O225 O 0.24161 0.62967 0.84627 0.0
C226 C 0.20117 0.61444 0.91998 0.0
O227 O 0.18476 0.6125 0.90535 0.0
O228 O 0.19472 0.6309 0.8429 0.0
C229 C 0.25827 0.62297 0.85257 0.0
O230 O 0.25977 0.60634 0.86783 0.0
C231 C 0.22634 0.58158 0.82273 0.0
O232 O 0.23596 0.59436 0.80616 0.0
O233 O 0.21675 0.61631 0.90507 0.0
C234 C 0.44416 0.24967 0.76775 0.0
O235 O 0.43689 0.2344 0.75332 0.0
O236 O 0.3963 0.23002 0.76946 0.0
Zn237 Zn 0.4058 0.25285 0.79452 0.0
O238 O 0.40446 0.24489 0.83822 0.0
C239 C 0.37036 0.27351 0.78904 0.0
O240 O 0.36383 0.25533 0.79187 0.0
O241 O 0.43341 0.25982 0.78513 0.0
C242 C 0.40749 0.25768 0.85874 0.0
O243 O 0.41142 0.27601 0.8509 0.0
C244 C 0.40126 0.21241 0.77603 0.0
O245 O 0.4132 0.20941 0.79867 0.0
O246 O 0.38848 0.2764 0.7888 0.0
C247 C 0.81313 0.38701 0.82159 0.0
O248 O 0.81288 0.40605 0.8277 0.0
O249 O 0.76358 0.40862 0.83812 0.0
Zn250 Zn 0.77529 0.38323 0.85297 0.0
O251 O 0.75645 0.36146 0.844 0.0
C252 C 0.76993 0.39481 0.91501 0.0
O253 O 0.75476 0.40382 0.90363 0.0
O254 O 0.79933 0.37604 0.83038 0.0
C255 C 0.7424 0.35621 0.86061 0.0
O256 O 0.73953 0.36516 0.88659 0.0
C257 C 0.76539 0.41531 0.81141 0.0
O258 O 0.77605 0.40575 0.79167 0.0
O259 O 0.78096 0.38502 0.89756 0.0
C260 C 0.55464 0.24468 0.23348 0.0
O261 O 0.56518 0.23961 0.25694 0.0
O262 O 0.60288 0.22298 0.22293 0.0
Zn263 Zn 0.59062 0.24418 0.19766 0.0
O264 O 0.59144 0.23581 0.15419 0.0
C265 C 0.61944 0.27256 0.21813 0.0
O266 O 0.62609 0.25753 0.23387 0.0
O267 O 0.56268 0.24746 0.208 0.0
C268 C 0.60645 0.23752 0.1379 0.0
O269 O 0.62234 0.24472 0.14991 0.0
C270 C 0.59483 0.2062 0.2262 0.0
O271 O 0.57803 0.20291 0.21333 0.0
O272 O 0.60449 0.27022 0.20183 0.0
C273 C 0.80414 0.63123 0.14246 0.0
O274 O 0.80538 0.61871 0.11982 0.0
O275 O 0.75553 0.59909 0.15904 0.0
Zn276 Zn 0.76217 0.62488 0.13881 0.0
O277 O 0.74168 0.64446 0.14994 0.0
C278 C 0.76782 0.60496 0.08187 0.0
O279 O 0.77415 0.59074 0.09955 0.0
O280 O 0.78767 0.6355 0.15337 0.0
C281 C 0.73989 0.64963 0.17743 0.0
O282 O 0.75162 0.64207 0.19775 0.0
C283 C 0.76786 0.58777 0.17144 0.0
O284 O 0.78614 0.59296 0.17174 0.0
O285 O 0.76216 0.62114 0.09362 0.0
C286 C 0.43804 0.73455 0.21756 0.0
O287 O 0.4251 0.73868 0.23836 0.0
O288 O 0.395 0.76019 0.20029 0.0
Zn289 Zn 0.40531 0.73694 0.17724 0.0
O290 O 0.40529 0.74339 0.1327 0.0
C291 C 0.37113 0.71579 0.19331 0.0
O292 O 0.36462 0.73399 0.19573 0.0
O293 O 0.43265 0.73236 0.19027 0.0
C294 C 0.39127 0.7391 0.11534 0.0
O295 O 0.37605 0.73011 0.12659 0.0
C296 C 0.40389 0.77656 0.20288 0.0
O297 O 0.42071 0.77885 0.18957 0.0
O298 O 0.38864 0.71304 0.18567 0.0
C299 C 0.1796 0.36698 0.19065 0.0
O300 O 0.17564 0.38429 0.17857 0.0
O301 O 0.22094 0.39943 0.16776 0.0
Zn302 Zn 0.21628 0.37066 0.15876 0.0
O303 O 0.24117 0.35625 0.16583 0.0
C304 C 0.2126 0.38039 0.09522 0.0
O305 O 0.21926 0.39764 0.10417 0.0
O306 O 0.19576 0.35881 0.1852 0.0
C307 C 0.25664 0.36376 0.15547 0.0
O308 O 0.25581 0.3808 0.14117 0.0
C309 C 0.21745 0.40864 0.1922 0.0
O310 O 0.20921 0.39937 0.21491 0.0
O311 O 0.20958 0.36691 0.11474 0.0
C312 C 0.41643 0.23864 0.1909 0.0
O313 O 0.40126 0.23393 0.20722 0.0
O314 O 0.37444 0.21522 0.15798 0.0
Zn315 Zn 0.38928 0.23823 0.14111 0.0
O316 O 0.39404 0.23368 0.09683 0.0
C317 C 0.3592 0.26457 0.16272 0.0
O318 O 0.35375 0.24908 0.17854 0.0
O319 O 0.41456 0.24109 0.16254 0.0
C320 C 0.39867 0.24809 0.07984 0.0
O321 O 0.40083 0.26577 0.09179 0.0
C322 C 0.36142 0.2069 0.1422 0.0
O323 O 0.35809 0.21332 0.11463 0.0
O324 O 0.37397 0.26331 0.14578 0.0
C325 C 0.75381 0.44609 0.20256 0.0
O326 O 0.77101 0.43791 0.20164 0.0
O327 O 0.76429 0.39568 0.21542 0.0
Zn328 Zn 0.74293 0.40649 0.1894 0.0
O329 O 0.75044 0.40428 0.14547 0.0
C330 C 0.71539 0.37878 0.21638 0.0
O331 O 0.72907 0.37556 0.23636 0.0
O332 O 0.739 0.43527 0.19866 0.0
C333 C 0.76788 0.40388 0.1365 0.0
O334 O 0.78192 0.40493 0.15643 0.0
C335 C 0.77087 0.37834 0.21115 0.0
O336 O 0.76308 0.36716 0.1901 0.0
O337 O 0.71813 0.39138 0.19544 0.0
C338 C 0.57561 0.7617 0.20656 0.0
O339 O 0.58743 0.77093 0.22504 0.0
O340 O 0.61388 0.79356 0.17767 0.0
Zn341 Zn 0.60545 0.76758 0.16014 0.0
O342 O 0.60141 0.76959 0.11513 0.0
C343 C 0.63378 0.74532 0.19381 0.0
O344 O 0.62805 0.75664 0.21623 0.0
O345 O 0.58055 0.75895 0.17921 0.0
C346 C 0.59048 0.7567 0.10304 0.0
O347 O 0.58252 0.7431 0.12026 0.0
C348 C 0.63116 0.79927 0.17357 0.0
O349 O 0.6427 0.78846 0.1567 0.0
O350 O 0.62596 0.74725 0.16798 0.0
C351 C 0.22808 0.55204 0.21869 0.0
O352 O 0.21495 0.55863 0.23763 0.0
O353 O 0.21613 0.60476 0.23097 0.0
Zn354 Zn 0.23381 0.5936 0.19934 0.0
O355 O 0.22239 0.59958 0.15851 0.0
C356 C 0.26097 0.6252 0.20609 0.0
O357 O 0.24501 0.63565 0.20809 0.0
O358 O 0.23723 0.56419 0.20208 0.0
C359 C 0.233 0.60165 0.1353 0.0
O360 O 0.25184 0.60017 0.13818 0.0
C361 C 0.19794 0.60299 0.22828 0.0
O362 O 0.19095 0.59233 0.20594 0.0
O363 O 0.2598 0.60657 0.20261 0.0
C364 C 0.41235 0.76492 0.78593 0.0
O365 O 0.39893 0.77603 0.77356 0.0
O366 O 0.36629 0.77736 0.81455 0.0
Zn367 Zn 0.38277 0.75507 0.83055 0.0
O368 O 0.38803 0.7588 0.87512 0.0
C369 C 0.35271 0.72696 0.81409 0.0
O370 O 0.34368 0.7428 0.8042 0.0
O371 O 0.40836 0.7548 0.80936 0.0
C372 C 0.37749 0.75056 0.89504 0.0
O373 O 0.36254 0.73999 0.88639 0.0
C374 C 0.35369 0.78596 0.83082 0.0
O375 O 0.35138 0.78033 0.85901 0.0
O376 O 0.36959 0.72871 0.82506 0.0
C377 C 0.22477 0.43642 0.82374 0.0
O378 O 0.21159 0.42993 0.84268 0.0
O379 O 0.21414 0.38346 0.79091 0.0
Zn380 Zn 0.2337 0.39502 0.81968 0.0
O381 O 0.22637 0.3908 0.86347 0.0
C382 C 0.26031 0.36428 0.80261 0.0
O383 O 0.24421 0.35455 0.79749 0.0
O384 O 0.23605 0.4241 0.81114 0.0
C385 C 0.22469 0.37358 0.87484 0.0
O386 O 0.22743 0.35801 0.85758 0.0
C387 C 0.19819 0.37555 0.79838 0.0
O388 O 0.19305 0.37507 0.82695 0.0
O389 O 0.25945 0.38204 0.81206 0.0
C390 C 0.57929 0.23233 0.81361 0.0
O391 O 0.58514 0.2145 0.80606 0.0
O392 O 0.62335 0.20804 0.83353 0.0
Zn393 Zn 0.61259 0.23222 0.85389 0.0
O394 O 0.60655 0.22693 0.89762 0.0
C395 C 0.64282 0.25514 0.82759 0.0
O396 O 0.63941 0.24336 0.80455 0.0
O397 O 0.58876 0.24216 0.83309 0.0
C398 C 0.6195 0.22909 0.91774 0.0
O399 O 0.637 0.23435 0.90953 0.0
C400 C 0.6268 0.19173 0.8468 0.0
O401 O 0.62211 0.18962 0.8754 0.0
O402 O 0.63276 0.25337 0.85145 0.0
C403 C 0.73896 0.55314 0.77225 0.0
O404 O 0.75358 0.56084 0.75744 0.0
O405 O 0.75737 0.60269 0.77521 0.0
Zn406 Zn 0.73551 0.59219 0.8004 0.0
O407 O 0.74394 0.5916 0.84405 0.0
C408 C 0.71422 0.62811 0.79247 0.0
O409 O 0.73172 0.63565 0.79287 0.0
O410 O 0.7291 0.56404 0.78986 0.0
C411 C 0.74067 0.60477 0.86393 0.0
O412 O 0.73091 0.62072 0.85653 0.0
C413 C 0.77479 0.59877 0.78201 0.0
O414 O 0.77838 0.58707 0.80508 0.0
O415 O 0.71212 0.6095 0.79518 0.0
H416 H 0.21057 0.14565 0.24849 0.0
H417 H 0.19768 0.10527 0.32223 0.0
H418 H 0.16747 0.12352 0.33241 0.0
H419 H 0.19547 0.18859 0.28492 0.0
H420 H 0.18536 0.20017 0.25176 0.0
H421 H 0.20473 0.1826 0.24792 0.0
H422 H 0.18385 0.16156 0.21136 0.0
H423 H 0.16441 0.17914 0.21499 0.0
H424 H 0.16026 0.15334 0.22321 0.0
H425 H 0.14033 0.14791 0.33753 0.0
H426 H 0.11818 0.17653 0.33712 0.0
H427 H 0.14892 0.20098 0.26007 0.0
C428 C 0.20122 0.14038 0.2664 0.0
C429 C 0.20645 0.12398 0.28448 0.0
C430 C 0.19394 0.11775 0.30799 0.0
C431 C 0.17673 0.128 0.31392 0.0
C432 C 0.17221 0.14435 0.29604 0.0
C433 C 0.18405 0.15045 0.27266 0.0
C434 C 0.17658 0.16925 0.25812 0.0
C435 C 0.19142 0.18615 0.26086 0.0
C436 C 0.17094 0.1656 0.22495 0.0
C437 C 0.15897 0.17309 0.2775 0.0
C438 C 0.15659 0.15845 0.29904 0.0
C439 C 0.1419 0.15932 0.32052 0.0
C440 C 0.12943 0.17567 0.32014 0.0
C441 C 0.13177 0.19097 0.29849 0.0
C442 C 0.14661 0.18945 0.27671 0.0
H443 H 0.76178 0.17041 0.2946 0.0
H444 H 0.77538 0.14479 0.38222 0.0
H445 H 0.80463 0.16542 0.38518 0.0
H446 H 0.8112 0.17415 0.26767 0.0
H447 H 0.80732 0.19752 0.24892 0.0
H448 H 0.78765 0.18025 0.25299 0.0
H449 H 0.76721 0.20728 0.2796 0.0
H450 H 0.7868 0.22463 0.27557 0.0
H451 H 0.77681 0.21966 0.31245 0.0
H452 H 0.83188 0.18897 0.37947 0.0
H453 H 0.85533 0.21489 0.36591 0.0
H454 H 0.82419 0.2257 0.28216 0.0
C455 C 0.77096 0.16907 0.31433 0.0
C456 C 0.7663 0.15596 0.33815 0.0
C457 C 0.77863 0.15473 0.36368 0.0
C458 C 0.79532 0.16635 0.36557 0.0
C459 C 0.79948 0.17913 0.34177 0.0
C460 C 0.78768 0.18063 0.31666 0.0
C461 C 0.79529 0.19598 0.29466 0.0
C462 C 0.80069 0.1864 0.26426 0.0
C463 C 0.78066 0.21289 0.29033 0.0
C464 C 0.81307 0.20296 0.31153 0.0
C465 C 0.81525 0.19293 0.33855 0.0
C466 C 0.83039 0.1969 0.35833 0.0
C467 C 0.84364 0.21166 0.35039 0.0
C468 C 0.84161 0.22233 0.32296 0.0
C469 C 0.82617 0.21778 0.30323 0.0
H470 H 0.83117 0.76473 0.30129 0.0
H471 H 0.8829 0.80102 0.29772 0.0
H472 H 0.86268 0.83119 0.2981 0.0
H473 H 0.80156 0.79598 0.25318 0.0
H474 H 0.77993 0.79153 0.27481 0.0
H475 H 0.7985 0.77288 0.27307 0.0
H476 H 0.80037 0.77241 0.33163 0.0
H477 H 0.78185 0.79107 0.33356 0.0
H478 H 0.8048 0.79519 0.35176 0.0
H479 H 0.83674 0.85738 0.30078 0.0
H480 H 0.8071 0.87755 0.30517 0.0
H481 H 0.77258 0.82386 0.30681 0.0
C482 C 0.83828 0.779 0.3004 0.0
C483 C 0.85862 0.78053 0.29948 0.0
C484 C 0.86733 0.7995 0.29838 0.0
C485 C 0.85598 0.81671 0.29858 0.0
C486 C 0.83596 0.81467 0.29974 0.0
C487 C 0.8272 0.79629 0.30052 0.0
C488 C 0.80545 0.79809 0.30233 0.0
C489 C 0.7958 0.78909 0.27417 0.0
C490 C 0.79767 0.78863 0.33156 0.0
C491 C 0.80333 0.82038 0.30287 0.0
C492 C 0.82107 0.82969 0.30122 0.0
C493 C 0.82275 0.85025 0.30192 0.0
C494 C 0.80584 0.86157 0.30445 0.0
C495 C 0.78752 0.85229 0.30631 0.0
C496 C 0.78634 0.83142 0.30536 0.0
H497 H 0.147 0.79598 0.3478 0.0
H498 H 0.1624 0.76952 0.26161 0.0
H499 H 0.18952 0.79314 0.25683 0.0
H500 H 0.1607 0.8476 0.32902 0.0
H501 H 0.16994 0.85198 0.36655 0.0
H502 H 0.15023 0.83493 0.36095 0.0
H503 H 0.16974 0.80739 0.3881 0.0
H504 H 0.1895 0.82428 0.39366 0.0
H505 H 0.19349 0.80109 0.37446 0.0
H506 H 0.21695 0.81717 0.26428 0.0
H507 H 0.24253 0.83938 0.28339 0.0
H508 H 0.20906 0.84966 0.36493 0.0
C509 C 0.15576 0.79542 0.32752 0.0
C510 C 0.15251 0.78096 0.30498 0.0
C511 C 0.16455 0.78053 0.2791 0.0
C512 C 0.17996 0.79392 0.27616 0.0
C513 C 0.18303 0.80766 0.29921 0.0
C514 C 0.17119 0.80855 0.32432 0.0
C515 C 0.17848 0.82347 0.34716 0.0
C516 C 0.16397 0.84051 0.35114 0.0
C517 C 0.18308 0.81345 0.37763 0.0
C518 C 0.19663 0.83044 0.33143 0.0
C519 C 0.19889 0.82136 0.30362 0.0
C520 C 0.21519 0.82458 0.28581 0.0
C521 C 0.22966 0.83718 0.2969 0.0
C522 C 0.22778 0.8463 0.32564 0.0
C523 C 0.21086 0.84309 0.34276 0.0
H524 H 0.12417 0.81563 0.67455 0.0
H525 H 0.11145 0.81367 0.77064 0.0
H526 H 0.13443 0.84113 0.77922 0.0
H527 H 0.17311 0.82155 0.68207 0.0
H528 H 0.17613 0.83781 0.65009 0.0
H529 H 0.15641 0.82052 0.65081 0.0
H530 H 0.13206 0.84923 0.64303 0.0
H531 H 0.15177 0.86667 0.64209 0.0
H532 H 0.13228 0.87001 0.66863 0.0
H533 H 0.16155 0.86598 0.77796 0.0
H534 H 0.19082 0.88566 0.76719 0.0
H535 H 0.18597 0.87065 0.672 0.0
C536 C 0.12577 0.82132 0.69732 0.0
C537 C 0.1159 0.8126 0.72192 0.0
C538 C 0.11877 0.8202 0.75143 0.0
C539 C 0.13175 0.83583 0.7565 0.0
C540 C 0.14167 0.8437 0.73181 0.0
C541 C 0.13873 0.83675 0.70277 0.0
C542 C 0.15252 0.84626 0.68054 0.0
C543 C 0.16529 0.8306 0.66499 0.0
C544 C 0.1415 0.85879 0.6572 0.0
C545 C 0.16413 0.85917 0.70174 0.0
C546 C 0.15747 0.85777 0.73114 0.0
C547 C 0.16671 0.86742 0.75496 0.0
C548 C 0.18335 0.87854 0.74861 0.0
C549 C 0.19067 0.87973 0.71874 0.0
C550 C 0.18066 0.87019 0.69503 0.0
H551 H 0.24122 0.15985 0.66072 0.0
H552 H 0.20684 0.1068 0.64719 0.0
H553 H 0.17734 0.1256 0.65994 0.0
H554 H 0.21304 0.18031 0.72351 0.0
H555 H 0.21582 0.20543 0.71039 0.0
H556 H 0.23436 0.18738 0.70273 0.0
H557 H 0.23172 0.19486 0.64536 0.0
H558 H 0.21321 0.21291 0.65283 0.0
H559 H 0.20857 0.19286 0.62692 0.0
H560 H 0.15145 0.15066 0.67104 0.0
H561 H 0.13103 0.18026 0.67823 0.0
H562 H 0.1825 0.21683 0.68414 0.0
C563 C 0.22753 0.15209 0.66083 0.0
C564 C 0.22633 0.13184 0.65305 0.0
C565 C 0.2081 0.12231 0.65311 0.0
C566 C 0.19128 0.13284 0.66042 0.0
C567 C 0.19296 0.15285 0.66769 0.0
C568 C 0.21063 0.16237 0.66795 0.0
C569 C 0.20842 0.18421 0.67478 0.0
C570 C 0.21851 0.18964 0.70463 0.0
C571 C 0.21592 0.19695 0.6484 0.0
C572 C 0.1867 0.18558 0.67772 0.0
C573 C 0.17805 0.1673 0.67387 0.0
C574 C 0.15806 0.16502 0.67436 0.0
C575 C 0.14659 0.18193 0.67844 0.0
C576 C 0.15517 0.20087 0.68181 0.0
C577 C 0.17549 0.20257 0.68187 0.0
H578 H 0.78348 0.16056 0.73988 0.0
H579 H 0.79825 0.12542 0.6609 0.0
H580 H 0.82426 0.14898 0.64844 0.0
H581 H 0.79125 0.20792 0.70581 0.0
H582 H 0.80137 0.21898 0.73936 0.0
H583 H 0.78418 0.19908 0.74267 0.0
H584 H 0.80863 0.17901 0.7748 0.0
H585 H 0.82588 0.19888 0.77165 0.0
H586 H 0.83243 0.1742 0.75997 0.0
H587 H 0.84812 0.17657 0.6438 0.0
H588 H 0.86865 0.20629 0.64762 0.0
H589 H 0.83852 0.22359 0.72966 0.0
C590 C 0.79225 0.15775 0.72006 0.0
C591 C 0.78883 0.14111 0.7014 0.0
C592 C 0.80059 0.13803 0.67558 0.0
C593 C 0.81541 0.15133 0.66829 0.0
C594 C 0.8183 0.16763 0.68704 0.0
C595 C 0.80711 0.17089 0.71242 0.0
C596 C 0.81312 0.18971 0.72854 0.0
C597 C 0.79649 0.20481 0.72912 0.0
C598 C 0.82045 0.18517 0.76064 0.0
C599 C 0.82939 0.19655 0.70816 0.0
C600 C 0.83213 0.18358 0.68437 0.0
C601 C 0.84616 0.18681 0.66237 0.0
C602 C 0.85774 0.20376 0.66474 0.0
C603 C 0.85523 0.21728 0.68896 0.0
C604 C 0.84084 0.21354 0.71092 0.0
H605 H 0.85213 0.76668 0.63538 0.0
H606 H 0.84591 0.75428 0.73128 0.0
H607 H 0.82332 0.78243 0.73602 0.0
H608 H 0.84998 0.82039 0.64106 0.0
H609 H 0.83639 0.82299 0.60651 0.0
H610 H 0.85284 0.80253 0.61108 0.0
H611 H 0.82509 0.77787 0.59959 0.0
H612 H 0.80858 0.79822 0.59497 0.0
H613 H 0.80326 0.77886 0.62178 0.0
H614 H 0.80026 0.81095 0.72971 0.0
H615 H 0.77822 0.83747 0.71279 0.0
H616 H 0.79977 0.83109 0.62106 0.0
C617 C 0.84616 0.76996 0.65747 0.0
C618 C 0.85081 0.7583 0.68299 0.0
C619 C 0.84258 0.76303 0.71142 0.0
C620 C 0.82977 0.77901 0.71435 0.0
C621 C 0.82541 0.79011 0.68867 0.0
C622 C 0.83339 0.78581 0.66079 0.0
C623 C 0.82583 0.79956 0.63649 0.0
C624 C 0.84224 0.81211 0.623 0.0
C625 C 0.81505 0.78793 0.61176 0.0
C626 C 0.81213 0.81212 0.65498 0.0
C627 C 0.81217 0.80652 0.68505 0.0
C628 C 0.80021 0.81556 0.70627 0.0
C629 C 0.78772 0.83059 0.69642 0.0
C630 C 0.7873 0.83639 0.66561 0.0
C631 C 0.79985 0.82712 0.64479 0.0
H632 H 0.65702 0.72937 0.81292 0.0
H633 H 0.60428 0.69717 0.79279 0.0
H634 H 0.62338 0.66682 0.78376 0.0
H635 H 0.68709 0.70474 0.75669 0.0
H636 H 0.70813 0.70479 0.78071 0.0
H637 H 0.69032 0.7241 0.78431 0.0
H638 H 0.68655 0.71594 0.84131 0.0
H639 H 0.7043 0.6966 0.83788 0.0
H640 H 0.68064 0.691 0.85262 0.0
H641 H 0.6481 0.63952 0.78035 0.0
H642 H 0.67673 0.61764 0.78073 0.0
H643 H 0.7132 0.66815 0.80146 0.0
C644 C 0.64947 0.71599 0.80641 0.0
C645 C 0.62916 0.71561 0.80362 0.0
C646 C 0.61985 0.6978 0.79499 0.0
C647 C 0.63056 0.68049 0.78983 0.0
C648 C 0.65057 0.68134 0.79309 0.0
C649 C 0.65994 0.69866 0.80093 0.0
C650 C 0.68152 0.69557 0.80349 0.0
C651 C 0.6924 0.70804 0.77989 0.0
C652 C 0.68866 0.70004 0.83574 0.0
C653 C 0.68281 0.67371 0.79636 0.0
C654 C 0.66481 0.66575 0.79043 0.0
C655 C 0.66229 0.64563 0.78462 0.0
C656 C 0.67862 0.63332 0.78496 0.0
C657 C 0.69719 0.64122 0.79092 0.0
C658 C 0.69924 0.66171 0.79644 0.0
H659 H 0.25965 0.65898 0.82429 0.0
H660 H 0.29618 0.61306 0.86245 0.0
H661 H 0.32499 0.63349 0.85173 0.0
H662 H 0.29332 0.67521 0.7645 0.0
H663 H 0.2867 0.70087 0.76898 0.0
H664 H 0.26925 0.68168 0.77653 0.0
H665 H 0.26389 0.69583 0.83039 0.0
H666 H 0.28129 0.71501 0.82304 0.0
H667 H 0.28432 0.69893 0.85524 0.0
H668 H 0.34939 0.66022 0.84129 0.0
H669 H 0.36741 0.69124 0.83251 0.0
H670 H 0.31475 0.71947 0.80108 0.0
C671 C 0.27372 0.65303 0.82993 0.0
C672 C 0.27567 0.6344 0.84415 0.0
C673 C 0.29434 0.62728 0.85147 0.0
C674 C 0.31079 0.63874 0.84539 0.0
C675 C 0.30831 0.6572 0.83181 0.0
C676 C 0.29024 0.66425 0.82406 0.0
C677 C 0.29131 0.68511 0.81166 0.0
C678 C 0.28476 0.68575 0.77844 0.0
C679 C 0.27951 0.69956 0.83126 0.0
C680 C 0.31276 0.68894 0.81445 0.0
C681 C 0.32236 0.67259 0.82578 0.0
C682 C 0.34207 0.67302 0.83202 0.0
C683 C 0.35218 0.69072 0.827 0.0
C684 C 0.34251 0.70777 0.81599 0.0
C685 C 0.32262 0.70666 0.80915 0.0
H686 H 0.33093 0.27202 0.78553 0.0
H687 H 0.37903 0.31313 0.79107 0.0
H688 H 0.35609 0.34113 0.79298 0.0
H689 H 0.29997 0.3031 0.73847 0.0
H690 H 0.27824 0.29536 0.75757 0.0
H691 H 0.29852 0.27873 0.755 0.0
H692 H 0.29865 0.27499 0.81336 0.0
H693 H 0.27844 0.29165 0.81612 0.0
H694 H 0.30034 0.29681 0.83672 0.0
H695 H 0.32778 0.36443 0.79779 0.0
H696 H 0.29628 0.38131 0.80314 0.0
H697 H 0.26696 0.32483 0.7933 0.0
C698 C 0.33668 0.28691 0.78684 0.0
C699 C 0.35677 0.29039 0.78815 0.0
C700 C 0.36369 0.31011 0.78993 0.0
C701 C 0.35077 0.32611 0.79105 0.0
C702 C 0.33104 0.32213 0.79012 0.0
C703 C 0.32403 0.30302 0.78781 0.0
C704 C 0.30218 0.30266 0.78797 0.0
C705 C 0.29427 0.29448 0.75796 0.0
C706 C 0.29446 0.29083 0.81516 0.0
C707 C 0.29797 0.32453 0.79123 0.0
C708 C 0.31478 0.33554 0.7924 0.0
C709 C 0.31451 0.35599 0.79659 0.0
C710 C 0.29657 0.36543 0.79968 0.0
C711 C 0.27917 0.3544 0.79847 0.0
C712 C 0.27998 0.33371 0.794 0.0
H713 H 0.6529 0.28226 0.87088 0.0
H714 H 0.66868 0.26091 0.78156 0.0
H715 H 0.69585 0.28457 0.78028 0.0
H716 H 0.66402 0.33376 0.85728 0.0
H717 H 0.67327 0.33779 0.8949 0.0
H718 H 0.6549 0.31937 0.88851 0.0
H719 H 0.67677 0.29271 0.91318 0.0
H720 H 0.69523 0.31103 0.91955 0.0
H721 H 0.70081 0.28882 0.89869 0.0
H722 H 0.72163 0.30996 0.7892 0.0
H723 H 0.74387 0.33595 0.80708 0.0
H724 H 0.71106 0.34081 0.89051 0.0
C725 C 0.662 0.28259 0.85097 0.0
C726 C 0.65867 0.26974 0.8263 0.0
C727 C 0.67094 0.27064 0.8007 0.0
C728 C 0.68642 0.28401 0.79977 0.0
C729 C 0.68936 0.29637 0.82457 0.0
C730 C 0.67746 0.29585 0.84964 0.0
C731 C 0.6838 0.31065 0.87334 0.0
C732 C 0.66806 0.32632 0.87882 0.0
C733 C 0.68949 0.30017 0.90293 0.0
C734 C 0.70122 0.31952 0.85776 0.0
C735 C 0.70417 0.31107 0.82966 0.0
C736 C 0.71944 0.31673 0.81112 0.0
C737 C 0.73201 0.33149 0.82152 0.0
C738 C 0.7292 0.34043 0.8502 0.0
C739 C 0.71359 0.33429 0.86849 0.0
H740 H 0.65301 0.28201 0.24784 0.0
H741 H 0.60983 0.30613 0.18683 0.0
H742 H 0.62854 0.33711 0.18303 0.0
H743 H 0.66437 0.3288 0.28686 0.0
H744 H 0.68973 0.323 0.28958 0.0
H745 H 0.67208 0.30337 0.28964 0.0
H746 H 0.68938 0.28691 0.24414 0.0
H747 H 0.70702 0.30647 0.24389 0.0
H748 H 0.69339 0.30109 0.21015 0.0
H749 H 0.65321 0.36417 0.18219 0.0
H750 H 0.68197 0.3857 0.18511 0.0
H751 H 0.70881 0.34427 0.24736 0.0
C752 C 0.64732 0.29391 0.23405 0.0
C753 C 0.62993 0.29164 0.21768 0.0
C754 C 0.62309 0.30752 0.19965 0.0
C755 C 0.63359 0.3252 0.19738 0.0
C756 C 0.65082 0.32683 0.21344 0.0
C757 C 0.65759 0.31168 0.23158 0.0
C758 C 0.67703 0.31681 0.24522 0.0
C759 C 0.67571 0.31807 0.27988 0.0
C760 C 0.69262 0.30194 0.23524 0.0
C761 C 0.68033 0.33703 0.23134 0.0
C762 C 0.66499 0.34258 0.21322 0.0
C763 C 0.6652 0.36012 0.19663 0.0
C764 C 0.68162 0.37222 0.19837 0.0
C765 C 0.69757 0.36673 0.21661 0.0
C766 C 0.69673 0.34902 0.23359 0.0
H767 H 0.71258 0.66678 0.1411 0.0
H768 H 0.73293 0.66472 0.23397 0.0
H769 H 0.7076 0.68864 0.24868 0.0
H770 H 0.70171 0.71851 0.13945 0.0
H771 H 0.68049 0.71554 0.11626 0.0
H772 H 0.70006 0.6981 0.11328 0.0
H773 H 0.67641 0.66925 0.12453 0.0
H774 H 0.65676 0.68661 0.12757 0.0
H775 H 0.66191 0.66994 0.15838 0.0
H776 H 0.68025 0.71325 0.25295 0.0
H777 H 0.65302 0.73654 0.2464 0.0
H778 H 0.65073 0.72195 0.15079 0.0
C779 C 0.71173 0.67132 0.16456 0.0
C780 C 0.72474 0.66389 0.18639 0.0
C781 C 0.72311 0.67022 0.21684 0.0
C782 C 0.70877 0.68379 0.22543 0.0
C783 C 0.69619 0.69082 0.2033 0.0
C784 C 0.69753 0.68478 0.1735 0.0
C785 C 0.68235 0.69461 0.15403 0.0
C786 C 0.69172 0.70745 0.1293 0.0
C787 C 0.66854 0.67918 0.14033 0.0
C788 C 0.67228 0.7072 0.17749 0.0
C789 C 0.68045 0.70483 0.20578 0.0
C790 C 0.6737 0.71519 0.23092 0.0
C791 C 0.65824 0.72837 0.22697 0.0
C792 C 0.64972 0.73103 0.19811 0.0
C793 C 0.65685 0.7202 0.17318 0.0
H794 H 0.26844 0.66474 0.21331 0.0
H795 H 0.29659 0.60802 0.19917 0.0
H796 H 0.32824 0.62482 0.1971 0.0
H797 H 0.29731 0.69221 0.16296 0.0
H798 H 0.2979 0.71422 0.18601 0.0
H799 H 0.27766 0.69757 0.18843 0.0
H800 H 0.28299 0.69416 0.24624 0.0
H801 H 0.30325 0.71085 0.24401 0.0
H802 H 0.30629 0.68657 0.26029 0.0
H803 H 0.35665 0.64811 0.19363 0.0
H804 H 0.37952 0.67611 0.18933 0.0
H805 H 0.33256 0.71729 0.20614 0.0
C806 C 0.28126 0.6558 0.21009 0.0
C807 C 0.28003 0.63507 0.20643 0.0
C808 C 0.29717 0.62393 0.2021 0.0
C809 C 0.31523 0.63333 0.20093 0.0
C810 C 0.31589 0.65383 0.20429 0.0
C811 C 0.29937 0.66491 0.20892 0.0
C812 C 0.30391 0.68679 0.21081 0.0
C813 C 0.29359 0.69837 0.18554 0.0
C814 C 0.29881 0.69507 0.24221 0.0
C815 C 0.32552 0.68633 0.20592 0.0
C816 C 0.33221 0.66719 0.2024 0.0
C817 C 0.3516 0.66316 0.19661 0.0
C818 C 0.36447 0.67914 0.19417 0.0
C819 C 0.35784 0.69888 0.19745 0.0
C820 C 0.33813 0.70239 0.20368 0.0
H821 H 0.26299 0.32751 0.18159 0.0
H822 H 0.29195 0.37526 0.13387 0.0
H823 H 0.32224 0.35601 0.13422 0.0
H824 H 0.30446 0.31272 0.22876 0.0
H825 H 0.29857 0.28677 0.22611 0.0
H826 H 0.27965 0.30508 0.22459 0.0
H827 H 0.26802 0.29067 0.17338 0.0
H828 H 0.2869 0.27238 0.1747 0.0
H829 H 0.28487 0.2886 0.14246 0.0
H830 H 0.34844 0.33047 0.13562 0.0
H831 H 0.3689 0.3006 0.13877 0.0
H832 H 0.32296 0.26975 0.18624 0.0
C833 C 0.27577 0.33407 0.17162 0.0
C834 C 0.27511 0.3529 0.15772 0.0
C835 C 0.29211 0.36087 0.1447 0.0
C836 C 0.3094 0.35008 0.14484 0.0
C837 C 0.30947 0.33142 0.15828 0.0
C838 C 0.29314 0.32353 0.17161 0.0
C839 C 0.29678 0.30274 0.1831 0.0
C840 C 0.29475 0.30178 0.21769 0.0
C841 C 0.28335 0.28772 0.16746 0.0
C842 C 0.31756 0.29998 0.17343 0.0
C843 C 0.32466 0.31674 0.15935 0.0
C844 C 0.34315 0.31734 0.14696 0.0
C845 C 0.35463 0.30029 0.14879 0.0
C846 C 0.34756 0.28289 0.16289 0.0
C847 C 0.32887 0.2829 0.17568 0.0
H848 H 0.95424 0.28882 0.27697 0.0
H849 H 0.93316 0.22897 0.29097 0.0
H850 H 0.96591 0.21598 0.28226 0.0
H851 H 0.99259 0.27557 0.21899 0.0
H852 H 0.00894 0.29375 0.23435 0.0
H853 H 0.98324 0.29804 0.23546 0.0
H854 H 0.98516 0.30317 0.29347 0.0
H855 H 0.01073 0.29877 0.2926 0.0
H856 H 0.99552 0.28398 0.31677 0.0
H857 H 0.00126 0.21011 0.28252 0.0
H858 H 0.03667 0.21177 0.28893 0.0
H859 H 0.03501 0.27508 0.27268 0.0
C860 C 0.95638 0.27294 0.27717 0.0
C861 C 0.94114 0.25993 0.28467 0.0
C862 C 0.9446 0.23925 0.28525 0.0
C863 C 0.96315 0.2317 0.2802 0.0
C864 C 0.97804 0.24498 0.27413 0.0
C865 C 0.97482 0.26515 0.27209 0.0
C866 C 0.99361 0.2764 0.26857 0.0
C867 C 0.99466 0.28653 0.23748 0.0
C868 C 0.99641 0.29145 0.29439 0.0
C869 C 0.00793 0.25951 0.27073 0.0
C870 C -0.00136 0.24147 0.27348 0.0
C871 C 0.00873 0.22404 0.27949 0.0
C872 C 0.0288 0.22513 0.28325 0.0
C873 C 0.03852 0.2435 0.28087 0.0
C874 C 0.02798 0.26077 0.27376 0.0
H875 H 0.70503 0.04968 0.29033 0.0
H876 H 0.75802 0.06441 0.33776 0.0
H877 H 0.77034 0.03072 0.32846 0.0
H878 H 0.69989 0.00306 0.32083 0.0
H879 H 0.69045 0.99139 0.28727 0.0
H880 H 0.68706 0.01751 0.29302 0.0
H881 H 0.70327 0.02475 0.24134 0.0
H882 H 0.70669 -0.00143 0.2354 0.0
H883 H 0.72707 0.01515 0.2337 0.0
H884 H 0.77527 0.99478 0.31994 0.0
H885 H 0.77214 0.95864 0.31373 0.0
H886 H 0.71595 0.96689 0.27198 0.0
C887 C 0.71943 0.04596 0.29803 0.0
C888 C 0.73061 0.05966 0.31462 0.0
C889 C 0.74921 0.05413 0.32497 0.0
C890 C 0.75639 0.03507 0.31964 0.0
C891 C 0.74483 0.02174 0.30385 0.0
C892 C 0.72677 0.02692 0.29308 0.0
C893 C 0.71648 0.00921 0.27957 0.0
C894 C 0.69735 0.00505 0.29618 0.0
C895 C 0.71319 0.0121 0.24547 0.0
C896 C 0.73126 0.99315 0.28554 0.0
C897 C 0.74765 0.00077 0.29907 0.0
C898 C 0.76267 0.98865 0.30889 0.0
C899 C 0.76073 0.96813 0.30535 0.0
C900 C 0.74384 0.95996 0.29227 0.0
C901 C 0.72916 0.97271 0.28161 0.0
H902 H 0.04592 0.74771 0.3398 0.0
H903 H 0.06699 0.76305 0.25031 0.0
H904 H 0.03337 0.76468 0.23165 0.0
H905 H 0.00823 0.71619 0.31544 0.0
H906 H 0.99163 0.72361 0.34473 0.0
H907 H 0.01726 0.72482 0.35135 0.0
H908 H 0.0143 0.76205 0.36497 0.0
H909 H 0.98864 0.76093 0.3585 0.0
H910 H 0.00313 0.77882 0.33848 0.0
H911 H 0.99726 0.76355 0.22251 0.0
H912 H 0.96173 0.75952 0.22375 0.0
H913 H 0.96497 0.74448 0.31911 0.0
C914 C 0.0435 0.75162 0.31634 0.0
C915 C 0.05908 0.75531 0.29654 0.0
C916 C 0.05526 0.76019 0.26593 0.0
C917 C 0.03623 0.76118 0.25512 0.0
C918 C 0.02121 0.75724 0.2752 0.0
C919 C 0.02465 0.75259 0.30518 0.0
C920 C 0.00608 0.74833 0.32193 0.0
C921 C 0.00579 0.72697 0.33406 0.0
C922 C 0.00285 0.76344 0.34748 0.0
C923 C 0.99164 0.75112 0.29664 0.0
C924 C 0.00058 0.75637 0.26989 0.0
C925 C 0.9901 0.75951 0.24337 0.0
C926 C 0.96994 0.75718 0.24428 0.0
C927 C 0.96058 0.75165 0.27149 0.0
C928 C 0.97166 0.74867 0.29792 0.0
H929 H 0.24598 0.94238 0.32409 0.0
H930 H 0.3062 0.92692 0.30986 0.0
H931 H 0.31297 0.96111 0.29358 0.0
H932 H 0.24167 0.97687 0.26062 0.0
H933 H 0.22642 0.99377 0.28125 0.0
H934 H 0.22589 0.96769 0.28988 0.0
H935 H 0.2337 0.97535 0.34602 0.0
H936 H 0.23417 0.00142 0.33759 0.0
H937 H 0.25479 0.98984 0.35511 0.0
H938 H 0.31369 0.99708 0.28117 0.0
H939 H 0.30855 0.03302 0.2755 0.0
H940 H 0.24794 0.02536 0.29802 0.0
C941 C 0.26054 0.94613 0.31727 0.0
C942 C 0.27554 0.93196 0.31818 0.0
C943 C 0.29446 0.93752 0.30938 0.0
C944 C 0.29846 0.95689 0.29995 0.0
C945 C 0.28338 0.97051 0.29942 0.0
C946 C 0.26482 0.96544 0.30791 0.0
C947 C 0.25149 0.98322 0.30679 0.0
C948 C 0.23542 0.9802 0.28322 0.0
C949 C 0.24305 0.98772 0.33825 0.0
C950 C 0.26556 -0.00088 0.29685 0.0
C951 C 0.28382 0.99141 0.29243 0.0
C952 C 0.29942 0.0033 0.28434 0.0
C953 C 0.29635 0.02369 0.28119 0.0
C954 C 0.27785 0.032 0.28626 0.0
C955 C 0.26222 0.01944 0.29371 0.0
H956 H 0.02802 0.75478 0.66745 0.0
H957 H 0.03645 0.74712 0.76408 0.0
H958 H 0.00208 0.73802 0.76965 0.0
H959 H 0.97921 0.77514 0.67158 0.0
H960 H 0.97142 0.76233 0.63795 0.0
H961 H 0.99634 0.76955 0.64207 0.0
H962 H 0.00692 0.73316 0.63335 0.0
H963 H 0.98206 0.72582 0.6294 0.0
H964 H 0.99719 0.71391 0.65716 0.0
H965 H 0.96718 0.72796 0.76413 0.0
H966 H 0.9343 0.71836 0.74802 0.0
H967 H 0.94913 0.73251 0.65504 0.0
C968 C 0.02261 0.75146 0.68987 0.0
C969 C 0.03491 0.7517 0.71535 0.0
C970 C 0.02728 0.74707 0.74424 0.0
C971 C 0.00778 0.74189 0.74764 0.0
C972 C 0.99613 0.74147 0.72195 0.0
C973 C 0.00324 0.74623 0.69365 0.0
C974 C 0.98794 0.74393 0.66949 0.0
C975 C 0.98346 0.76393 0.65439 0.0
C976 C 0.99389 0.72827 0.64598 0.0
C977 C 0.97117 0.73686 0.68856 0.0
C978 C 0.97613 0.73562 0.71877 0.0
C979 C 0.96309 0.729 0.74055 0.0
C980 C 0.94447 0.72354 0.73118 0.0
C981 C 0.93914 0.72468 0.70029 0.0
C982 C 0.95272 0.73149 0.67883 0.0
H983 H 0.27743 0.96544 0.64109 0.0
H984 H 0.24265 0.95834 0.72206 0.0
H985 H 0.2451 0.99428 0.73188 0.0
H986 H 0.30938 0.00367 0.66989 0.0
H987 H 0.31015 0.01682 0.63443 0.0
H988 H 0.30656 0.9904 0.63478 0.0
H989 H 0.27505 0.99461 0.60374 0.0
H990 H 0.27856 0.02102 0.60325 0.0
H991 H 0.25634 0.01079 0.61765 0.0
H992 H 0.25084 0.03114 0.73221 0.0
H993 H 0.25793 0.06632 0.72153 0.0
H994 H 0.2882 0.0491 0.63963 0.0
C995 C 0.27048 0.9714 0.66105 0.0
C996 C 0.25993 0.9591 0.6809 0.0
C997 C 0.25081 0.96751 0.70655 0.0
C998 C 0.25218 0.98788 0.71238 0.0
C999 C 0.26265 -0.0004 0.69228 0.0
C1000 C 0.27155 0.99168 0.66705 0.0
C1001 C 0.28113 0.00759 0.6482 0.0
C1002 C 0.30311 0.00443 0.64675 0.0
C1003 C 0.27223 0.00855 0.61633 0.0
C1004 C 0.27608 0.02573 0.66661 0.0
C1005 C 0.26559 0.02082 0.69212 0.0
C1006 C 0.25909 0.03517 0.71235 0.0
C1007 C 0.26322 0.0551 0.70612 0.0
C1008 C 0.27359 0.06045 0.67974 0.0
C1009 C 0.28023 0.0455 0.65998 0.0
H1010 H 0.04711 0.28265 0.71385 0.0
H1011 H 0.053 0.21865 0.71296 0.0
H1012 H 0.01784 0.21526 0.72028 0.0
H1013 H 0.00541 0.28495 0.76895 0.0
H1014 H 0.99461 0.3052 0.74844 0.0
H1015 H 0.02052 0.30257 0.74949 0.0
H1016 H 0.02142 0.30276 0.69088 0.0
H1017 H 0.99561 0.30519 0.68962 0.0
H1018 H 0.00719 0.28492 0.67025 0.0
H1019 H 0.98197 0.21876 0.71841 0.0
H1020 H 0.94828 0.22893 0.70882 0.0
H1021 H 0.9658 0.29063 0.7114 0.0
C1022 C 0.04111 0.26791 0.71619 0.0
C1023 C 0.0528 0.25092 0.71287 0.0
C1024 C 0.04434 0.2319 0.71554 0.0
C1025 C 0.02438 0.22982 0.71981 0.0
C1026 C 0.01315 0.2469 0.72174 0.0
C1027 C 0.02125 0.2656 0.72041 0.0
C1028 C 0.00588 0.28153 0.71961 0.0
C1029 C 0.00666 0.29431 0.74834 0.0
C1030 C 0.00764 0.29433 0.69088 0.0
C1031 C 0.98789 0.26884 0.719 0.0
C1032 C 0.99235 0.24892 0.72081 0.0
C1033 C 0.97826 0.23432 0.71769 0.0
C1034 C 0.95918 0.24024 0.71209 0.0
C1035 C 0.95442 0.26057 0.70951 0.0
C1036 C 0.96892 0.27499 0.71376 0.0
H1037 H 0.72168 0.02039 0.70193 0.0
H1038 H 0.78105 0.03858 0.71706 0.0
H1039 H 0.79126 0.0035 0.71625 0.0
H1040 H 0.72355 0.97417 0.74621 0.0
H1041 H 0.70832 0.96124 0.71969 0.0
H1042 H 0.70554 0.98754 0.72501 0.0
H1043 H 0.71036 0.99304 0.66746 0.0
H1044 H 0.71329 0.96682 0.66199 0.0
H1045 H 0.73184 0.98364 0.64941 0.0
H1046 H 0.79525 0.96655 0.70924 0.0
H1047 H 0.79263 0.93092 0.69691 0.0
H1048 H 0.73063 0.93756 0.68599 0.0
C1049 C 0.73679 0.01703 0.7057 0.0
C1050 C 0.75056 0.03222 0.70967 0.0
C1051 C 0.77022 0.02716 0.71409 0.0
C1052 C 0.77616 0.00729 0.71371 0.0
C1053 C 0.76223 0.99269 0.70902 0.0
C1054 C 0.74294 0.99734 0.70528 0.0
C1055 C 0.731 0.97912 0.69857 0.0
C1056 C 0.71623 0.97529 0.72388 0.0
C1057 C 0.72105 0.98076 0.66751 0.0
C1058 C 0.74664 0.96353 0.69839 0.0
C1059 C 0.76454 0.97156 0.70476 0.0
C1060 C 0.78128 0.96007 0.70455 0.0
C1061 C 0.77965 0.93986 0.69746 0.0
C1062 C 0.76143 0.93145 0.69049 0.0
C1063 C 0.74477 0.94349 0.69132 0.0
H1064 H 0.52437 0.74525 0.80051 0.0
H1065 H 0.53358 0.79237 0.73527 0.0
H1066 H 0.49841 0.79374 0.72567 0.0
H1067 H 0.48314 0.72116 0.76148 0.0
H1068 H 0.47126 0.71579 0.79681 0.0
H1069 H 0.49725 0.71661 0.79504 0.0
H1070 H 0.49766 0.74273 0.83802 0.0
H1071 H 0.47174 0.74206 0.83985 0.0
H1072 H 0.48398 0.76527 0.83364 0.0
H1073 H 0.46192 0.79244 0.72769 0.0
H1074 H 0.4275 0.78889 0.74162 0.0
H1075 H 0.44282 0.74282 0.8058 0.0
C1076 C 0.51909 0.75558 0.78368 0.0
C1077 C 0.53173 0.76867 0.76858 0.0
C1078 C 0.52417 0.78213 0.74703 0.0
C1079 C 0.50422 0.78298 0.74136 0.0
C1080 C 0.49212 0.77017 0.75727 0.0
C1081 C 0.49932 0.75664 0.77785 0.0
C1082 C 0.4833 0.74571 0.79398 0.0
C1083 C 0.48377 0.7235 0.78636 0.0
C1084 C 0.48423 0.74917 0.8284 0.0
C1085 C 0.4659 0.75569 0.78008 0.0
C1086 C 0.47121 0.76953 0.75861 0.0
C1087 C 0.45758 0.78143 0.74414 0.0
C1088 C 0.43808 0.77932 0.75223 0.0
C1089 C 0.43247 0.76557 0.77478 0.0
C1090 C 0.44659 0.75339 0.78834 0.0
H1091 H 0.20669 0.46707 0.85282 0.0
H1092 H 0.24717 0.45417 0.78044 0.0
H1093 H 0.25068 0.48997 0.77045 0.0
H1094 H 0.18335 0.50919 0.81704 0.0
H1095 H 0.18108 0.52274 0.85198 0.0
H1096 H 0.18098 0.49606 0.85236 0.0
H1097 H 0.20949 0.49609 0.89039 0.0
H1098 H 0.20965 0.52274 0.89017 0.0
H1099 H 0.23134 0.50925 0.88105 0.0
H1100 H 0.25046 0.52723 0.76933 0.0
H1101 H 0.24742 0.56319 0.7784 0.0
H1102 H 0.20746 0.5515 0.85198 0.0
C1103 C 0.21617 0.47174 0.83468 0.0
C1104 C 0.2266 0.45782 0.81734 0.0
C1105 C 0.23902 0.46457 0.79402 0.0
C1106 C 0.24107 0.48487 0.78811 0.0
C1107 C 0.23063 0.4982 0.80573 0.0
C1108 C 0.21847 0.49192 0.82859 0.0
C1109 C 0.2095 0.50927 0.84506 0.0
C1110 C 0.18742 0.50931 0.84138 0.0
C1111 C 0.21535 0.50934 0.87865 0.0
C1112 C 0.21868 0.5263 0.8281 0.0
C1113 C 0.23069 0.51962 0.80533 0.0
C1114 C 0.24104 0.53264 0.78701 0.0
C1115 C 0.2392 0.55304 0.79232 0.0
C1116 C 0.22721 0.56017 0.81589 0.0
C1117 C 0.21671 0.54655 0.83374 0.0
H1118 H 0.4725 0.22356 0.75178 0.0
H1119 H 0.46323 0.28311 0.78564 0.0
H1120 H 0.4983 0.28682 0.79382 0.0
H1121 H 0.50495 0.21003 0.80537 0.0
H1122 H 0.52017 0.19512 0.78139 0.0
H1123 H 0.49516 0.19851 0.77191 0.0
H1124 H 0.50475 0.21207 0.71917 0.0
H1125 H 0.52989 0.20853 0.72838 0.0
H1126 H 0.52139 0.23253 0.71648 0.0
H1127 H 0.53307 0.28227 0.80577 0.0
H1128 H 0.56513 0.26984 0.82077 0.0
H1129 H 0.55186 0.21292 0.78006 0.0
C1130 C 0.47793 0.23764 0.75985 0.0
C1131 C 0.4652 0.25313 0.76782 0.0
C1132 C 0.47277 0.27111 0.77923 0.0
C1133 C 0.49267 0.27338 0.78383 0.0
C1134 C 0.50477 0.25755 0.77683 0.0
C1135 C 0.49772 0.24006 0.76488 0.0
C1136 C 0.51339 0.22446 0.76288 0.0
C1137 C 0.5081 0.20595 0.78151 0.0
C1138 C 0.51761 0.21909 0.72975 0.0
C1139 C 0.53012 0.2356 0.77687 0.0
C1140 C 0.52494 0.25479 0.7842 0.0
C1141 C 0.53743 0.26742 0.79962 0.0
C1142 C 0.55557 0.26017 0.80818 0.0
C1143 C 0.56101 0.24041 0.80153 0.0
C1144 C 0.54823 0.22816 0.7851 0.0
H1145 H 0.77787 0.44314 0.77102 0.0
H1146 H 0.73173 0.42975 0.8341 0.0
H1147 H 0.71677 0.46219 0.82341 0.0
H1148 H 0.78393 0.49137 0.79435 0.0
H1149 H 0.78945 0.50149 0.75762 0.0
H1150 H 0.79443 0.47589 0.76548 0.0
H1151 H 0.77362 0.4655 0.71938 0.0
H1152 H 0.76851 0.49116 0.71144 0.0
H1153 H 0.74896 0.47387 0.71668 0.0
H1154 H 0.70886 0.49695 0.8107 0.0
H1155 H 0.71004 0.53277 0.80059 0.0
H1156 H 0.76208 0.52448 0.74725 0.0
C1157 C 0.76432 0.44686 0.78184 0.0
C1158 C 0.75577 0.43395 0.80306 0.0
C1159 C 0.73841 0.43948 0.81765 0.0
C1160 C 0.72974 0.45777 0.81154 0.0
C1161 C 0.73869 0.47039 0.79093 0.0
C1162 C 0.75566 0.46526 0.77641 0.0
C1163 C 0.76372 0.48253 0.75855 0.0
C1164 C 0.78408 0.48815 0.76968 0.0
C1165 C 0.76369 0.47799 0.72449 0.0
C1166 C 0.74903 0.49838 0.76627 0.0
C1167 C 0.73446 0.49089 0.78432 0.0
C1168 C 0.72003 0.50294 0.79623 0.0
C1169 C 0.72085 0.5233 0.79039 0.0
C1170 C 0.73616 0.53144 0.77314 0.0
C1171 C 0.75006 0.51868 0.76017 0.0
H1172 H 0.44961 0.25119 0.1638 0.0
H1173 H 0.42689 0.23029 0.24957 0.0
H1174 H 0.45971 0.232 0.27166 0.0
H1175 H 0.49247 0.224 0.16519 0.0
H1176 H 0.50694 0.24312 0.148 0.0
H1177 H 0.4815 0.24179 0.1401 0.0
H1178 H 0.47734 0.27814 0.15794 0.0
H1179 H 0.50282 0.27958 0.16591 0.0
H1180 H 0.48552 0.28519 0.19513 0.0
H1181 H 0.49578 0.23377 0.28295 0.0
H1182 H 0.53152 0.23529 0.28215 0.0
H1183 H 0.52957 0.25535 0.18889 0.0
C1184 C 0.45144 0.24716 0.18734 0.0
C1185 C 0.4357 0.24059 0.20496 0.0
C1186 C 0.43876 0.23542 0.23566 0.0
C1187 C 0.45733 0.23637 0.24841 0.0
C1188 C 0.47258 0.2427 0.23021 0.0
C1189 C 0.46975 0.24809 0.20037 0.0
C1190 C 0.48851 0.25351 0.18507 0.0
C1191 C 0.49259 0.23978 0.15801 0.0
C1192 C 0.48854 0.27541 0.17546 0.0
C1193 C 0.50247 0.24986 0.2107 0.0
C1194 C 0.49308 0.2438 0.23668 0.0
C1195 C 0.50325 0.23872 0.26281 0.0
C1196 C 0.52353 0.23963 0.26216 0.0
C1197 C 0.53334 0.24546 0.23549 0.0
C1198 C 0.52255 0.25091 0.20971 0.0
H1199 H 0.7911 0.5565 0.18655 0.0
H1200 H 0.73101 0.57446 0.18068 0.0
H1201 H 0.72086 0.54058 0.19429 0.0
H1202 H 0.78532 0.51125 0.15161 0.0
H1203 H 0.80252 0.49802 0.17462 0.0
H1204 H 0.80513 0.52426 0.16911 0.0
H1205 H 0.80496 0.52968 0.22715 0.0
H1206 H 0.8024 0.50338 0.23287 0.0
H1207 H 0.78517 0.52021 0.24937 0.0
H1208 H 0.71721 0.50416 0.20275 0.0
H1209 H 0.72035 0.46776 0.2047 0.0
H1210 H 0.78282 0.47357 0.20466 0.0
C1211 C 0.77581 0.55345 0.18888 0.0
C1212 C 0.76184 0.56813 0.18271 0.0
C1213 C 0.74197 0.56344 0.18537 0.0
C1214 C 0.73606 0.54426 0.19322 0.0
C1215 C 0.7502 0.52999 0.19845 0.0
C1216 C 0.76967 0.53437 0.19652 0.0
C1217 C 0.78192 0.51598 0.20044 0.0
C1218 C 0.79445 0.51216 0.17226 0.0
C1219 C 0.79434 0.5174 0.22918 0.0
C1220 C 0.76628 0.50048 0.20381 0.0
C1221 C 0.74809 0.5089 0.20308 0.0
C1222 C 0.73138 0.49741 0.20381 0.0
C1223 C 0.73331 0.47675 0.20484 0.0
C1224 C 0.75183 0.46782 0.2049 0.0
C1225 C 0.76846 0.47993 0.20496 0.0
H1226 H 0.46808 0.7266 0.1795 0.0
H1227 H 0.45509 0.74485 0.27141 0.0
H1228 H 0.48986 0.75058 0.28067 0.0
H1229 H 0.51533 0.70265 0.19615 0.0
H1230 H 0.52556 0.71136 0.16109 0.0
H1231 H 0.50011 0.70593 0.16343 0.0
H1232 H 0.49229 0.7414 0.14459 0.0
H1233 H 0.51763 0.74699 0.14246 0.0
H1234 H 0.50188 0.7624 0.16483 0.0
H1235 H 0.52557 0.75836 0.27754 0.0
H1236 H 0.55907 0.76662 0.26264 0.0
H1237 H 0.54805 0.74307 0.17291 0.0
C1238 C 0.47255 0.73133 0.20184 0.0
C1239 C 0.45887 0.73525 0.22475 0.0
C1240 C 0.46532 0.74164 0.25355 0.0
C1241 C 0.48504 0.74493 0.25903 0.0
C1242 C 0.49809 0.74153 0.23558 0.0
C1243 C 0.49209 0.73465 0.20766 0.0
C1244 C 0.50865 0.73363 0.18545 0.0
C1245 C 0.51265 0.71211 0.17598 0.0
C1246 C 0.50488 0.7469 0.15772 0.0
C1247 C 0.52478 0.74172 0.20484 0.0
C1248 C 0.51854 0.74597 0.2338 0.0
C1249 C 0.53069 0.75478 0.25508 0.0
C1250 C 0.54967 0.75947 0.24639 0.0
C1251 C 0.55619 0.75546 0.21664 0.0
C1252 C 0.54359 0.7462 0.19589 0.0
H1253 H 0.2025 0.43693 0.23027 0.0
H1254 H 0.24515 0.42763 0.15972 0.0
H1255 H 0.25433 0.46284 0.16239 0.0
H1256 H 0.18651 0.48335 0.20328 0.0
H1257 H 0.18272 0.49408 0.24013 0.0
H1258 H 0.18079 0.46771 0.23511 0.0
H1259 H 0.20645 0.46223 0.27697 0.0
H1260 H 0.20847 0.48863 0.2821 0.0
H1261 H 0.22968 0.47412 0.2738 0.0
H1262 H 0.25789 0.49886 0.17055 0.0
H1263 H 0.25439 0.53437 0.18154 0.0
H1264 H 0.20867 0.52112 0.24577 0.0
C1265 C 0.21397 0.44228 0.21576 0.0
C1266 C 0.22321 0.42958 0.19491 0.0
C1267 C 0.23788 0.43714 0.17583 0.0
C1268 C 0.24328 0.45708 0.1773 0.0
C1269 C 0.23379 0.46927 0.19784 0.0
C1270 C 0.21937 0.46227 0.21664 0.0
C1271 C 0.21051 0.47893 0.23497 0.0
C1272 C 0.18885 0.48114 0.22794 0.0
C1273 C 0.21399 0.47578 0.26898 0.0
C1274 C 0.222 0.49639 0.22313 0.0
C1275 C 0.23552 0.49038 0.20206 0.0
C1276 C 0.24745 0.50378 0.18714 0.0
C1277 C 0.24531 0.52394 0.19354 0.0
C1278 C 0.23123 0.53056 0.21451 0.0
C1279 C 0.21964 0.51652 0.22979 0.0
H1280 H 0.13181 0.23453 0.43215 0.0
H1281 H 0.07156 0.25061 0.42023 0.0
H1282 H 0.06798 0.25381 0.4756 0.0
H1283 H 0.12512 0.205 0.49784 0.0
H1284 H 0.14734 0.21267 0.51558 0.0
H1285 H 0.14539 0.21256 0.47498 0.0
H1286 H 0.15516 0.24961 0.47341 0.0
H1287 H 0.15717 0.24982 0.51404 0.0
H1288 H 0.14162 0.26736 0.49528 0.0
H1289 H 0.07076 0.25436 0.53231 0.0
H1290 H 0.07962 0.25194 0.58628 0.0
H1291 H 0.13798 0.2352 0.56089 0.0
C1292 C 0.11789 0.23887 0.44112 0.0
C1293 C 0.10197 0.24236 0.42185 0.0
C1294 C 0.08397 0.24787 0.43455 0.0
C1295 C 0.08179 0.24975 0.46596 0.0
C1296 C 0.09775 0.24607 0.48432 0.0
C1297 C 0.11545 0.24076 0.47238 0.0
C1298 C 0.13018 0.23708 0.49706 0.0
C1299 C 0.13743 0.21555 0.49631 0.0
C1300 C 0.14703 0.25185 0.49481 0.0
C1301 C 0.11795 0.24099 0.52478 0.0
C1302 C 0.09932 0.24626 0.51696 0.0
C1303 C 0.08532 0.25032 0.53872 0.0
C1304 C 0.0905 0.24889 0.56932 0.0
C1305 C 0.10949 0.24338 0.57783 0.0
C1306 C 0.12335 0.23948 0.55516 0.0
H1307 H 0.73564 0.12843 0.58481 0.0
H1308 H 0.71563 0.07075 0.6149 0.0
H1309 H 0.70386 0.06358 0.56332 0.0
H1310 H 0.69619 0.13788 0.53058 0.0
H1311 H 0.71217 0.14974 0.50397 0.0
H1312 H 0.71717 0.15107 0.54392 0.0
H1313 H 0.75126 0.13637 0.53467 0.0
H1314 H 0.74636 0.13497 0.49478 0.0
H1315 H 0.75354 0.11304 0.51516 0.0
H1316 H 0.69709 0.0615 0.50735 0.0
H1317 H 0.6958 0.06483 0.45169 0.0
H1318 H 0.71991 0.12401 0.45892 0.0
C1319 C 0.72849 0.11441 0.58073 0.0
C1320 C 0.72654 0.10017 0.60391 0.0
C1321 C 0.71725 0.08193 0.59751 0.0
C1322 C 0.71047 0.07773 0.5683 0.0
C1323 C 0.71294 0.09198 0.54584 0.0
C1324 C 0.72163 0.11 0.55179 0.0
C1325 C 0.72361 0.12231 0.52337 0.0
C1326 C 0.71156 0.14138 0.5256 0.0
C1327 C 0.74496 0.12693 0.51661 0.0
C1328 C 0.7152 0.10817 0.50035 0.0
C1329 C 0.70895 0.09082 0.51373 0.0
C1330 C 0.70169 0.07513 0.49667 0.0
C1331 C 0.70104 0.07714 0.46507 0.0
C1332 C 0.70768 0.0947 0.45094 0.0
C1333 C 0.71452 0.11047 0.469 0.0
H1334 H 0.91213 0.75979 0.41765 0.0
H1335 H 0.89117 0.70265 0.38673 0.0
H1336 H 0.88716 0.69196 0.43983 0.0
H1337 H 0.93888 0.7418 0.48183 0.0
H1338 H 0.93268 0.76265 0.50537 0.0
H1339 H 0.93412 0.76561 0.46495 0.0
H1340 H 0.89908 0.77915 0.46403 0.0
H1341 H 0.89753 0.77624 0.50443 0.0
H1342 H 0.87989 0.76458 0.48031 0.0
H1343 H 0.88516 0.68772 0.4965 0.0
H1344 H 0.88497 0.69042 0.55226 0.0
H1345 H 0.90718 0.75041 0.54543 0.0
C1346 C 0.90674 0.745 0.42198 0.0
C1347 C 0.90198 0.73205 0.39804 0.0
C1348 C 0.89492 0.71284 0.40472 0.0
C1349 C 0.89261 0.70662 0.43479 0.0
C1350 C 0.89743 0.7198 0.45785 0.0
C1351 C 0.90433 0.73859 0.45177 0.0
C1352 C 0.90822 0.75001 0.48056 0.0
C1353 C 0.92975 0.75532 0.48333 0.0
C1354 C 0.89541 0.76859 0.48243 0.0
C1355 C 0.90237 0.73473 0.50383 0.0
C1356 C 0.89623 0.71738 0.49033 0.0
C1357 C 0.88997 0.70123 0.50732 0.0
C1358 C 0.88993 0.7029 0.53896 0.0
C1359 C 0.89607 0.72062 0.5532 0.0
C1360 C 0.90242 0.73665 0.53528 0.0
H1361 H 0.25811 0.90316 0.58241 0.0
H1362 H 0.2594 0.83968 0.59803 0.0
H1363 H 0.2676 0.83427 0.54428 0.0
H1364 H 0.23596 0.90103 0.50983 0.0
H1365 H 0.24963 0.92142 0.4945 0.0
H1366 H 0.24474 0.92032 0.53446 0.0
H1367 H 0.2814 0.92268 0.54577 0.0
H1368 H 0.28641 0.9238 0.50582 0.0
H1369 H 0.29769 0.90504 0.52885 0.0
H1370 H 0.27492 0.83577 0.48859 0.0
H1371 H 0.28014 0.84396 0.43481 0.0
H1372 H 0.27367 0.90648 0.45559 0.0
C1373 C 0.26024 0.88811 0.57462 0.0
C1374 C 0.25815 0.87183 0.59446 0.0
C1375 C 0.26092 0.85238 0.58326 0.0
C1376 C 0.26562 0.84916 0.55278 0.0
C1377 C 0.26747 0.86554 0.53382 0.0
C1378 C 0.26484 0.88463 0.54428 0.0
C1379 C 0.26707 0.89963 0.51905 0.0
C1380 C 0.24823 0.91128 0.51418 0.0
C1381 C 0.28416 0.91361 0.52525 0.0
C1382 C 0.27124 0.88599 0.49268 0.0
C1383 C 0.27151 0.86639 0.50171 0.0
C1384 C 0.2748 0.85106 0.48127 0.0
C1385 C 0.27776 0.85588 0.45077 0.0
C1386 C 0.27733 0.87587 0.44094 0.0
C1387 C 0.27413 0.89107 0.46234 0.0
H1388 H 0.09942 0.74366 0.45027 0.0
H1389 H 0.15972 0.75973 0.43846 0.0
H1390 H 0.16328 0.76308 0.49364 0.0
H1391 H 0.08964 0.77744 0.51017 0.0
H1392 H 0.07387 0.76086 0.53045 0.0
H1393 H 0.07616 0.75879 0.49001 0.0
H1394 H 0.08581 0.72189 0.4956 0.0
H1395 H 0.08353 0.72384 0.53609 0.0
H1396 H 0.10584 0.7153 0.51964 0.0
H1397 H 0.1602 0.76591 0.54962 0.0
H1398 H 0.15059 0.768 0.6032 0.0
H1399 H 0.09233 0.75005 0.57912 0.0
C1400 C 0.11341 0.74773 0.4593 0.0
C1401 C 0.12929 0.75139 0.44001 0.0
C1402 C 0.14733 0.75682 0.45274 0.0
C1403 C 0.14952 0.75874 0.48408 0.0
C1404 C 0.13357 0.75516 0.50243 0.0
C1405 C 0.11587 0.74974 0.49059 0.0
C1406 C 0.10094 0.74727 0.51538 0.0
C1407 C 0.08416 0.76197 0.51125 0.0
C1408 C 0.0936 0.7258 0.51675 0.0
C1409 C 0.113 0.75235 0.54291 0.0
C1410 C 0.13179 0.75679 0.5349 0.0
C1411 C 0.14555 0.76236 0.55623 0.0
C1412 C 0.13993 0.76353 0.58661 0.0
C1413 C 0.12072 0.75915 0.59539 0.0
C1414 C 0.10715 0.75338 0.57317 0.0
H1415 H 0.25063 0.12135 0.41166 0.0
H1416 H 0.30012 0.09086 0.37333 0.0
H1417 H 0.31569 0.09043 0.42355 0.0
H1418 H 0.27756 0.15158 0.46632 0.0
H1419 H 0.25911 0.14928 0.49486 0.0
H1420 H 0.25263 0.14868 0.45539 0.0
H1421 H 0.23569 0.11484 0.46338 0.0
H1422 H 0.24216 0.1153 0.50279 0.0
H1423 H 0.24911 0.09455 0.47957 0.0
H1424 H 0.32489 0.09133 0.47859 0.0
H1425 H 0.3269 0.0934 0.53431 0.0
H1426 H 0.27132 0.12319 0.53634 0.0
C1427 C 0.26487 0.11485 0.41369 0.0
C1428 C 0.27417 0.10619 0.38854 0.0
C1429 C 0.29271 0.09761 0.39227 0.0
C1430 C 0.3017 0.09734 0.42069 0.0
C1431 C 0.292 0.10574 0.44511 0.0
C1432 C 0.27402 0.1144 0.44188 0.0
C1433 C 0.26622 0.12146 0.47197 0.0
C1434 C 0.26374 0.14409 0.47214 0.0
C1435 C 0.24717 0.1109 0.47988 0.0
C1436 C 0.28244 0.11507 0.49272 0.0
C1437 C 0.29726 0.10619 0.4768 0.0
C1438 C 0.31346 0.09842 0.49129 0.0
C1439 C 0.31446 0.09965 0.52294 0.0
C1440 C 0.2993 0.10848 0.5397 0.0
C1441 C 0.28322 0.11645 0.52421 0.0
H1442 H 0.85612 0.27829 0.43814 0.0
H1443 H 0.91688 0.28285 0.41483 0.0
H1444 H 0.92512 0.28532 0.46906 0.0
H1445 H 0.85739 0.31182 0.50417 0.0
H1446 H 0.84046 0.29685 0.52505 0.0
H1447 H 0.83924 0.29774 0.48435 0.0
H1448 H 0.84197 0.25948 0.48222 0.0
H1449 H 0.84329 0.25847 0.52282 0.0
H1450 H 0.86213 0.24742 0.50031 0.0
H1451 H 0.92693 0.28407 0.52584 0.0
H1452 H 0.92216 0.27952 0.58076 0.0
H1453 H 0.86021 0.27577 0.56665 0.0
C1454 C 0.87114 0.28021 0.44435 0.0
C1455 C 0.88585 0.28044 0.42223 0.0
C1456 C 0.90535 0.2827 0.43138 0.0
C1457 C 0.91017 0.28415 0.46212 0.0
C1458 C 0.89532 0.28343 0.48338 0.0
C1459 C 0.87619 0.28164 0.47488 0.0
C1460 C 0.86309 0.27989 0.50214 0.0
C1461 C 0.84923 0.29764 0.50403 0.0
C1462 C 0.85197 0.26014 0.50184 0.0
C1463 C 0.87788 0.28044 0.52732 0.0
C1464 C 0.89637 0.28269 0.51607 0.0
C1465 C 0.9125 0.28256 0.53494 0.0
C1466 C 0.90964 0.27991 0.56609 0.0
C1467 C 0.89081 0.27734 0.57802 0.0
C1468 C 0.87477 0.27788 0.5583 0.0
H1469 H 0.75065 0.87193 0.56027 0.0
H1470 H 0.69381 0.89893 0.56525 0.0
H1471 H 0.69337 0.9022 0.50962 0.0
H1472 H 0.769 0.90262 0.50202 0.0
H1473 H 0.78253 0.8832 0.48377 0.0
H1474 H 0.77791 0.88197 0.52379 0.0
H1475 H 0.76218 0.84742 0.51705 0.0
H1476 H 0.76678 0.84852 0.47698 0.0
H1477 H 0.74258 0.84442 0.4906 0.0
H1478 H 0.69957 0.90349 0.45362 0.0
H1479 H 0.71213 0.90312 0.40138 0.0
H1480 H 0.76507 0.8756 0.43321 0.0
C1481 C 0.73802 0.87837 0.54968 0.0
C1482 C 0.72223 0.88514 0.56713 0.0
C1483 C 0.70606 0.89361 0.55237 0.0
C1484 C 0.70566 0.89551 0.52077 0.0
C1485 C 0.72153 0.88883 0.5043 0.0
C1486 C 0.73739 0.88042 0.51823 0.0
C1487 C 0.75283 0.875 0.49543 0.0
C1488 C 0.77168 0.88638 0.50163 0.0
C1489 C 0.75629 0.8525 0.49499 0.0
C1490 C 0.74329 0.88195 0.46652 0.0
C1491 C 0.72518 0.88974 0.47209 0.0
C1492 C 0.7137 0.89735 0.44896 0.0
C1493 C 0.72098 0.89708 0.41936 0.0
C1494 C 0.7396 0.88935 0.41318 0.0
C1495 C 0.75079 0.88161 0.43715 0.0
H1496 H 0.6093 0.77822 0.05915 0.0
H1497 H 0.56377 0.73481 0.07238 0.0
H1498 H 0.5583 0.73366 0.01732 0.0
H1499 H 0.58669 0.80454 0.99652 0.0
H1500 H 0.60917 0.8084 0.97682 0.0
H1501 H 0.60893 0.80661 0.01749 0.0
H1502 H 0.63396 0.77812 0.01502 0.0
H1503 H 0.63426 0.7798 0.97438 0.0
H1504 H 0.62879 0.75653 0.99243 0.0
H1505 H 0.55825 0.73641 0.96116 0.0
H1506 H 0.56403 0.74241 0.90696 0.0
H1507 H 0.60997 0.78367 0.92968 0.0
C1508 C 0.59806 0.76862 0.05048 0.0
C1509 C 0.58692 0.75664 0.07007 0.0
C1510 C 0.57249 0.74411 0.05782 0.0
C1511 C 0.56923 0.74338 0.02658 0.0
C1512 C 0.58054 0.75524 0.00788 0.0
C1513 C 0.59468 0.76761 0.01929 0.0
C1514 C 0.60526 0.77827 0.99407 0.0
C1515 C 0.60233 0.80079 0.99637 0.0
C1516 C 0.62684 0.77285 0.99398 0.0
C1517 C 0.59496 0.7698 0.96673 0.0
C1518 C 0.58067 0.75666 0.97528 0.0
C1519 C 0.56935 0.74673 0.95415 0.0
C1520 C 0.57277 0.75024 0.9234 0.0
C1521 C 0.58746 0.76351 0.91402 0.0
C1522 C 0.59861 0.77347 0.93609 0.0
H1523 H 0.23309 0.61577 0.9565 0.0
H1524 H 0.17054 0.6113 0.95907 0.0
H1525 H 0.17174 0.60899 0.01483 0.0
H1526 H 0.24244 0.58098 0.01445 0.0
H1527 H 0.2627 0.59434 0.02994 0.0
H1528 H 0.25679 0.59679 0.99047 0.0
H1529 H 0.25445 0.63489 0.99665 0.0
H1530 H 0.26037 0.63257 0.03617 0.0
H1531 H 0.23856 0.64513 0.02491 0.0
H1532 H 0.17993 0.60604 0.07024 0.0
H1533 H 0.19448 0.60215 0.1209 0.0
H1534 H 0.25165 0.60823 0.08156 0.0
C1535 C 0.21961 0.61448 0.96874 0.0
C1536 C 0.20171 0.61376 0.95341 0.0
C1537 C 0.18442 0.61192 0.97032 0.0
C1538 C 0.18495 0.61062 0.002 0.0
C1539 C 0.20287 0.61123 0.01636 0.0
C1540 C 0.21987 0.61313 0.00027 0.0
C1541 C 0.23728 0.61276 0.02097 0.0
C1542 C 0.25058 0.59517 0.01351 0.0
C1543 C 0.24831 0.63252 0.01959 0.0
C1544 C 0.22744 0.61006 0.05123 0.0
C1545 C 0.20758 0.60937 0.04814 0.0
C1546 C 0.19546 0.60665 0.07294 0.0
C1547 C 0.20387 0.60445 0.10162 0.0
C1548 C 0.22421 0.60487 0.1052 0.0
C1549 C 0.23606 0.60784 0.07961 0.0
H1550 H 0.40649 0.27624 0.03684 0.0
H1551 H 0.39509 0.21342 0.04813 0.0
H1552 H 0.397 0.20885 0.99281 0.0
H1553 H 0.37838 0.2827 0.97042 0.0
H1554 H 0.39478 0.30009 0.95316 0.0
H1555 H 0.39343 0.29827 0.99373 0.0
H1556 H 0.43026 0.29155 0.99628 0.0
H1557 H 0.43174 0.29342 0.95569 0.0
H1558 H 0.4404 0.27149 0.97458 0.0
H1559 H 0.39895 0.21136 0.93617 0.0
H1560 H 0.40118 0.2207 0.88229 0.0
H1561 H 0.41131 0.28187 0.9082 0.0
C1562 C 0.40455 0.26148 0.02774 0.0
C1563 C 0.40067 0.24518 0.04683 0.0
C1564 C 0.39811 0.22613 0.03396 0.0
C1565 C 0.39917 0.22338 0.00257 0.0
C1566 C 0.40284 0.23981 0.98439 0.0
C1567 C 0.40555 0.25847 0.99649 0.0
C1568 C 0.40883 0.27375 0.97196 0.0
C1569 C 0.3929 0.28963 0.97235 0.0
C1570 C 0.42901 0.2831 0.9748 0.0
C1571 C 0.40738 0.26078 0.94413 0.0
C1572 C 0.40397 0.24125 0.95178 0.0
C1573 C 0.40172 0.22659 0.9299 0.0
C1574 C 0.40297 0.23205 0.89936 0.0
C1575 C 0.40644 0.25201 0.89101 0.0
C1576 C 0.40872 0.26648 0.91381 0.0
H1577 H 0.74331 0.40977 0.08882 0.0
H1578 H 0.80242 0.39377 0.11065 0.0
H1579 H 0.80957 0.38994 0.05618 0.0
H1580 H 0.73703 0.37645 0.0269 0.0
H1581 H 0.72297 0.39358 0.0047 0.0
H1582 H 0.72258 0.39508 0.04536 0.0
H1583 H 0.73313 0.43188 0.04259 0.0
H1584 H 0.73354 0.4305 0.00191 0.0
H1585 H 0.75477 0.4384 0.0222 0.0
H1586 H 0.80982 0.38658 -0.00063 0.0
H1587 H 0.80363 0.38566 0.9443 0.0
H1588 H 0.74477 0.4053 0.95991 0.0
C1589 C 0.75777 0.40545 0.08216 0.0
C1590 C 0.7723 0.40198 0.10395 0.0
C1591 C 0.79107 0.39653 0.09432 0.0
C1592 C 0.79526 0.39428 0.06346 0.0
C1593 C 0.78057 0.39776 0.04257 0.0
C1594 C 0.76225 0.40338 0.05151 0.0
C1595 C 0.7491 0.40646 0.02457 0.0
C1596 C 0.73191 0.39203 0.02545 0.0
C1597 C 0.74224 0.4281 0.02271 0.0
C1598 C 0.76283 0.40151 0.99907 0.0
C1599 C 0.78089 0.39642 0.0099 0.0
C1600 C 0.79578 0.39068 0.99061 0.0
C1601 C 0.79212 0.39016 0.9594 0.0
C1602 C 0.77376 0.39553 0.94785 0.0
C1603 C 0.75901 0.40133 0.96803 0.0
H1604 H 0.63471 0.24278 0.09508 0.0
H1605 H 0.57609 0.22124 0.10704 0.0
H1606 H 0.57381 0.2148 0.05226 0.0
H1607 H 0.62639 0.26816 0.02683 0.0
H1608 H 0.64939 0.26206 0.01016 0.0
H1609 H 0.64704 0.2635 0.05064 0.0
H1610 H 0.66013 0.22768 0.0557 0.0
H1611 H 0.66257 0.22615 0.01519 0.0
H1612 H 0.64852 0.20789 0.03522 0.0
H1613 H 0.57702 0.21282 0.99595 0.0
H1614 H 0.5857 0.21517 0.94192 0.0
H1615 H 0.64226 0.23779 0.96668 0.0
C1616 C 0.62149 0.23645 0.08627 0.0
C1617 C 0.6056 0.23249 0.10538 0.0
C1618 C 0.58848 0.22439 0.09287 0.0
C1619 C 0.58704 0.22063 0.06178 0.0
C1620 C 0.60287 0.22497 0.04353 0.0
C1621 C 0.6198 0.23262 0.05529 0.0
C1622 C 0.63436 0.23679 0.03055 0.0
C1623 C 0.63959 0.25894 0.02949 0.0
C1624 C 0.65247 0.22385 0.0344 0.0
C1625 C 0.62283 0.23066 0.00301 0.0
C1626 C 0.60474 0.22377 0.01101 0.0
C1627 C 0.59121 0.218 0.98941 0.0
C1628 C 0.59626 0.21944 0.95878 0.0
C1629 C 0.61468 0.22661 0.95008 0.0
C1630 C 0.62814 0.23208 0.97259 0.0
H1631 H 0.75177 0.62971 0.0395 0.0
H1632 H 0.78121 0.57329 0.04948 0.0
H1633 H 0.77842 0.56766 0.99449 0.0
H1634 H 0.71782 0.61371 0.98443 0.0
H1635 H 0.71805 0.63661 0.96348 0.0
H1636 H 0.72322 0.63669 0.00339 0.0
H1637 H 0.75591 0.65415 0.99312 0.0
H1638 H 0.75083 0.65416 0.95315 0.0
H1639 H 0.77282 0.64315 0.96706 0.0
H1640 H 0.77159 0.5677 0.93884 0.0
H1641 H 0.76097 0.57321 0.88627 0.0
H1642 H 0.7357 0.62951 0.91266 0.0
C1643 C 0.75779 0.61625 0.03012 0.0
C1644 C 0.76675 0.60195 0.04879 0.0
C1645 C 0.77429 0.58446 0.03563 0.0
C1646 C 0.7728 0.58114 0.00442 0.0
C1647 C 0.76374 0.59545 0.98671 0.0
C1648 C 0.75637 0.61266 0.99905 0.0
C1649 C 0.7468 0.62539 0.97515 0.0
C1650 C 0.72519 0.62826 0.98203 0.0
C1651 C 0.75722 0.6454 0.97193 0.0
C1652 C 0.74979 0.61256 0.94748 0.0
C1653 C 0.75968 0.59541 0.95462 0.0
C1654 C 0.7639 0.5811 0.93293 0.0
C1655 C 0.75778 0.58438 0.90313 0.0
C1656 C 0.74749 0.6018 0.89531 0.0
C1657 C 0.74356 0.61607 0.91786 0.0
H1658 H 0.35735 0.73547 0.94314 0.0
H1659 H 0.40867 0.76934 0.92043 0.0
H1660 H 0.41738 0.77089 0.97456 0.0
H1661 H 0.34635 0.76131 0.01308 0.0
H1662 H 0.33825 0.73918 0.03203 0.0
H1663 H 0.33577 0.74138 0.9916 0.0
H1664 H 0.35488 0.70869 0.98453 0.0
H1665 H 0.35747 0.70642 0.0249 0.0
H1666 H 0.37858 0.70634 0.00104 0.0
H1667 H 0.42116 0.76752 0.03101 0.0
H1668 H 0.41936 0.7601 0.08564 0.0
H1669 H 0.36537 0.72875 0.07118 0.0
C1670 C 0.37036 0.74334 0.94951 0.0
C1671 C 0.38233 0.75228 0.92753 0.0
C1672 C 0.39925 0.7624 0.93687 0.0
C1673 C 0.40432 0.76336 0.96756 0.0
C1674 C 0.39228 0.75422 0.9886 0.0
C1675 C 0.3756 0.74449 0.98 0.0
C1676 C 0.36532 0.73559 0.00699 0.0
C1677 C 0.34524 0.74493 0.01116 0.0
C1678 C 0.364 0.71292 0.00419 0.0
C1679 C 0.37893 0.74165 0.03211 0.0
C1680 C 0.39438 0.75241 0.02107 0.0
C1681 C 0.40907 0.75921 0.03994 0.0
C1682 C 0.40793 0.75489 0.07093 0.0
C1683 C 0.39221 0.74388 0.08272 0.0
C1684 C 0.37752 0.73729 0.06294 0.0
H1685 H 0.22532 0.40188 0.91928 0.0
H1686 H 0.21344 0.33959 0.90356 0.0
H1687 H 0.20651 0.33514 0.95794 0.0
H1688 H 0.25009 0.39523 0.98816 0.0
H1689 H 0.24086 0.41743 0.00558 0.0
H1690 H 0.24317 0.41608 0.9651 0.0
H1691 H 0.20689 0.42473 0.95919 0.0
H1692 H 0.20446 0.42609 -0.00028 0.0
H1693 H 0.18902 0.40983 0.97823 0.0
H1694 H 0.20239 0.33713 0.01431 0.0
H1695 H 0.20284 0.34504 0.06882 0.0
H1696 H 0.21811 0.40588 0.04771 0.0
C1697 C 0.221 0.38736 0.92719 0.0
C1698 C 0.21982 0.3711 0.90717 0.0
C1699 C 0.21442 0.35227 0.91849 0.0
C1700 C 0.21038 0.34961 0.94931 0.0
C1701 C 0.21185 0.36591 0.96849 0.0
C1702 C 0.21708 0.38441 0.95789 0.0
C1703 C 0.21878 0.39921 0.98348 0.0
C1704 C 0.23945 0.40746 0.9857 0.0
C1705 C 0.20389 0.41595 0.97993 0.0
C1706 C 0.21398 0.38607 0.01018 0.0
C1707 C 0.2098 0.36698 0.00103 0.0
C1708 C 0.20552 0.35206 0.02174 0.0
C1709 C 0.2058 0.3567 0.05266 0.0
C1710 C 0.2105 0.37608 0.06257 0.0
C1711 C 0.21438 0.39095 0.04091 0.0
H1712 H 0.18011 0.32843 0.20932 0.0
H1713 H 0.14747 0.38306 0.21743 0.0
H1714 H 0.1245 0.36632 0.25185 0.0
H1715 H 0.13927 0.29604 0.20768 0.0
H1716 H 0.15108 0.27673 0.22892 0.0
H1717 H 0.16514 0.29327 0.20578 0.0
H1718 H 0.186 0.30262 0.25237 0.0
H1719 H 0.17195 0.28615 0.27567 0.0
H1720 H 0.17439 0.31185 0.28603 0.0
H1721 H 0.10534 0.34346 0.28592 0.0
H1722 H 0.09035 0.31586 0.31423 0.0
H1723 H 0.13522 0.27622 0.28202 0.0
C1724 C 0.16818 0.33693 0.21841 0.0
C1725 C 0.16561 0.35707 0.21084 0.0
C1726 C 0.14969 0.3676 0.22293 0.0
C1727 C 0.13662 0.35824 0.24257 0.0
C1728 C 0.13964 0.33835 0.24964 0.0
C1729 C 0.15495 0.3278 0.23772 0.0
C1730 C 0.15468 0.30644 0.24804 0.0
C1731 C 0.1524 0.2923 0.22099 0.0
C1732 C 0.17283 0.30148 0.26664 0.0
C1733 C 0.1368 0.30659 0.26764 0.0
C1734 C 0.1284 0.32515 0.26852 0.0
C1735 C 0.11177 0.32886 0.28534 0.0
C1736 C 0.1034 0.31311 0.3014 0.0
C1737 C 0.11159 0.2939 0.30025 0.0
C1738 C 0.12857 0.29072 0.28325 0.0
H1739 H 0.63191 0.20629 0.24744 0.0
H1740 H 0.57981 0.17055 0.24439 0.0
H1741 H 0.59638 0.14424 0.27342 0.0
H1742 H 0.66522 0.16622 0.23769 0.0
H1743 H 0.68305 0.17663 0.2628 0.0
H1744 H 0.66691 0.19269 0.24235 0.0
H1745 H 0.65582 0.20866 0.29276 0.0
H1746 H 0.67194 0.19267 0.31337 0.0
H1747 H 0.64659 0.1931 0.32258 0.0
H1748 H 0.61875 0.12201 0.30339 0.0
H1749 H 0.64536 0.10531 0.33068 0.0
H1750 H 0.68273 0.15557 0.31248 0.0
C1751 C 0.62392 0.19297 0.25296 0.0
C1752 C 0.60454 0.19048 0.24377 0.0
C1753 C 0.59467 0.17276 0.25123 0.0
C1754 C 0.60395 0.15775 0.26772 0.0
C1755 C 0.6231 0.16069 0.27637 0.0
C1756 C 0.63297 0.17784 0.26913 0.0
C1757 C 0.65354 0.17727 0.28062 0.0
C1758 C 0.66803 0.17825 0.25429 0.0
C1759 C 0.65717 0.19391 0.30371 0.0
C1760 C 0.65369 0.15714 0.29557 0.0
C1761 C 0.63601 0.14781 0.29301 0.0
C1762 C 0.63268 0.12915 0.30546 0.0
C1763 C 0.64786 0.1198 0.32094 0.0
C1764 C 0.66612 0.12911 0.32363 0.0
C1765 C 0.66898 0.148 0.31068 0.0
H1766 H 0.80587 0.66011 0.18555 0.0
H1767 H 0.84205 0.62272 0.12926 0.0
H1768 H 0.87119 0.63777 0.15218 0.0
H1769 H 0.83559 0.70354 0.18154 0.0
H1770 H 0.83082 0.71067 0.22011 0.0
H1771 H 0.81304 0.69686 0.19919 0.0
H1772 H 0.81272 0.66996 0.24105 0.0
H1773 H 0.83051 0.68368 0.26209 0.0
H1774 H 0.83505 0.65824 0.25199 0.0
H1775 H 0.89642 0.65691 0.18231 0.0
H1776 H 0.91535 0.67881 0.2161 0.0
H1777 H 0.86199 0.70348 0.25137 0.0
C1778 C 0.81989 0.65504 0.17798 0.0
C1779 C 0.82169 0.64021 0.15565 0.0
C1780 C 0.84034 0.63409 0.14633 0.0
C1781 C 0.85696 0.64253 0.15923 0.0
C1782 C 0.85463 0.65711 0.18127 0.0
C1783 C 0.83654 0.66333 0.19044 0.0
C1784 C 0.83782 0.67925 0.21435 0.0
C1785 C 0.82879 0.69873 0.20311 0.0
C1786 C 0.82848 0.67236 0.24413 0.0
C1787 C 0.85947 0.681 0.21736 0.0
C1788 C 0.86899 0.66813 0.19819 0.0
C1789 C 0.88911 0.66708 0.19735 0.0
C1790 C 0.89973 0.67955 0.21663 0.0
C1791 C 0.89016 0.69288 0.23633 0.0
C1792 C 0.86978 0.69352 0.23654 0.0
H1793 H 0.36966 0.77574 0.23347 0.0
H1794 H 0.41871 0.81367 0.21365 0.0
H1795 H 0.40395 0.84038 0.24423 0.0
H1796 H 0.33366 0.81294 0.22885 0.0
H1797 H 0.31937 0.80291 0.25929 0.0
H1798 H 0.33423 0.78675 0.2368 0.0
H1799 H 0.35135 0.77423 0.28533 0.0
H1800 H 0.33657 0.7904 0.308 0.0
H1801 H 0.36251 0.79184 0.31051 0.0
H1802 H 0.38317 0.86318 0.27617 0.0
H1803 H 0.35788 0.88035 0.30569 0.0
H1804 H 0.32287 0.82699 0.30404 0.0
C1805 C 0.37739 0.78962 0.23559 0.0
C1806 C 0.39535 0.79263 0.22118 0.0
C1807 C 0.40493 0.81104 0.22452 0.0
C1808 C 0.39668 0.82627 0.24187 0.0
C1809 C 0.37892 0.82278 0.25575 0.0
C1810 C 0.36942 0.80489 0.25276 0.0
C1811 C 0.35031 0.80493 0.26929 0.0
C1812 C 0.3334 0.8017 0.24724 0.0
C1813 C 0.35019 0.78943 0.2948 0.0
C1814 C 0.3504 0.82574 0.28181 0.0
C1815 C 0.36705 0.8358 0.27396 0.0
C1816 C 0.37012 0.85541 0.28255 0.0
C1817 C 0.35568 0.86503 0.29934 0.0
C1818 C 0.3384 0.85502 0.3072 0.0
C1819 C 0.33592 0.83506 0.29849 0.0
H1820 H 0.1895 0.64597 0.75571 0.0
H1821 H 0.1648 0.65302 0.84536 0.0
H1822 H 0.14068 0.67629 0.82467 0.0
H1823 H 0.18504 0.69587 0.73319 0.0
H1824 H 0.17895 0.69034 0.69446 0.0
H1825 H 0.19351 0.6733 0.71592 0.0
H1826 H 0.16915 0.64508 0.70467 0.0
H1827 H 0.15455 0.66203 0.68303 0.0
H1828 H 0.14402 0.64842 0.714 0.0
H1829 H 0.12074 0.70049 0.79491 0.0
H1830 H 0.10553 0.72291 0.75774 0.0
H1831 H 0.14286 0.69947 0.68743 0.0
C1832 C 0.17889 0.65222 0.77097 0.0
C1833 C 0.17904 0.64767 0.80216 0.0
C1834 C 0.16495 0.65625 0.82137 0.0
C1835 C 0.15119 0.66949 0.80984 0.0
C1836 C 0.15164 0.67387 0.77905 0.0
C1837 C 0.16503 0.66539 0.75984 0.0
C1838 C 0.16276 0.673 0.72783 0.0
C1839 C 0.18116 0.68376 0.71724 0.0
C1840 C 0.15729 0.65613 0.7061 0.0
C1841 C 0.14617 0.68731 0.73212 0.0
C1842 C 0.13996 0.68759 0.76182 0.0
C1843 C 0.12534 0.70026 0.77152 0.0
C1844 C 0.11685 0.71297 0.75027 0.0
C1845 C 0.12295 0.71286 0.71968 0.0
C1846 C 0.13773 0.69974 0.71057 0.0
H1847 H 0.32571 0.15856 0.66865 0.0
H1848 H 0.35254 0.1027 0.69324 0.0
H1849 H 0.37715 0.12082 0.72282 0.0
H1850 H 0.37035 0.1872 0.66201 0.0
H1851 H 0.35952 0.2092 0.6777 0.0
H1852 H 0.34491 0.19183 0.65684 0.0
H1853 H 0.32171 0.18874 0.70262 0.0
H1854 H 0.33626 0.20601 0.72364 0.0
H1855 H 0.33129 0.18182 0.73905 0.0
H1856 H 0.39733 0.14501 0.75275 0.0
H1857 H 0.41199 0.1734 0.77956 0.0
H1858 H 0.37201 0.21319 0.73445 0.0
C1859 C 0.33688 0.1501 0.67994 0.0
C1860 C 0.33721 0.12921 0.67863 0.0
C1861 C 0.35203 0.11872 0.69385 0.0
C1862 C 0.36607 0.12888 0.7107 0.0
C1863 C 0.36514 0.14949 0.71187 0.0
C1864 C 0.35099 0.15997 0.69671 0.0
C1865 C 0.3527 0.18199 0.70245 0.0
C1866 C 0.35714 0.19321 0.67299 0.0
C1867 C 0.33441 0.1901 0.71786 0.0
C1868 C 0.36981 0.18224 0.72369 0.0
C1869 C 0.37685 0.16338 0.72878 0.0
C1870 C 0.39208 0.15987 0.74868 0.0
C1871 C 0.40027 0.17607 0.76385 0.0
C1872 C 0.3932 0.19551 0.75899 0.0
C1873 C 0.37789 0.19855 0.73842 0.0
H1874 H 0.86356 0.29892 0.73352 0.0
H1875 H 0.8962 0.34269 0.6829 0.0
H1876 H 0.88194 0.36929 0.71423 0.0
H1877 H 0.82068 0.32692 0.73978 0.0
H1878 H 0.81511 0.3183 0.77736 0.0
H1879 H 0.82884 0.30287 0.7521 0.0
H1880 H 0.85623 0.30046 0.79194 0.0
H1881 H 0.84261 0.31598 0.81731 0.0
H1882 H 0.86685 0.32284 0.80675 0.0
H1883 H 0.8631 0.3912 0.75056 0.0
H1884 H 0.84011 0.40641 0.78669 0.0
H1885 H 0.82011 0.34783 0.81232 0.0
C1886 C 0.86786 0.31407 0.72911 0.0
C1887 C 0.88103 0.31873 0.70584 0.0
C1888 C 0.88612 0.33878 0.70065 0.0
C1889 C 0.87816 0.35398 0.71839 0.0
C1890 C 0.86518 0.34884 0.74117 0.0
C1891 C 0.86004 0.32935 0.74645 0.0
C1892 C 0.84517 0.32771 0.7713 0.0
C1893 C 0.82634 0.31841 0.75941 0.0
C1894 C 0.8532 0.31606 0.79843 0.0
C1895 C 0.84251 0.34933 0.77895 0.0
C1896 C 0.85428 0.36134 0.76163 0.0
C1897 C 0.85388 0.38193 0.76435 0.0
C1898 C 0.84083 0.39043 0.78496 0.0
C1899 C 0.82831 0.37831 0.80226 0.0
C1900 C 0.82947 0.35752 0.79942 0.0
H1901 H 0.68763 0.83971 0.68266 0.0
H1902 H 0.6889 0.88463 0.75292 0.0
H1903 H 0.66193 0.86785 0.77898 0.0
H1904 H 0.63509 0.83231 0.68197 0.0
H1905 H 0.63729 0.80601 0.67593 0.0
H1906 H 0.65551 0.82256 0.66151 0.0
H1907 H 0.68186 0.80287 0.69036 0.0
H1908 H 0.66374 0.78632 0.70494 0.0
H1909 H 0.67951 0.79931 0.73062 0.0
H1910 H 0.63646 0.84481 0.79924 0.0
H1911 H 0.61435 0.81734 0.81202 0.0
H1912 H 0.62995 0.78763 0.72841 0.0
C1913 C 0.68206 0.84622 0.70327 0.0
C1914 C 0.69034 0.86351 0.71572 0.0
C1915 C 0.68275 0.87141 0.74292 0.0
C1916 C 0.66741 0.86201 0.75786 0.0
C1917 C 0.6598 0.84479 0.74523 0.0
C1918 C 0.66681 0.83703 0.71848 0.0
C1919 C 0.65683 0.81779 0.71048 0.0
C1920 C 0.64551 0.8198 0.68071 0.0
C1921 C 0.67135 0.80056 0.70903 0.0
C1922 C 0.64337 0.81574 0.73723 0.0
C1923 C 0.64518 0.83153 0.75691 0.0
C1924 C 0.63477 0.83247 0.78385 0.0
C1925 C 0.62228 0.81679 0.79093 0.0
C1926 C 0.62038 0.80037 0.77117 0.0
C1927 C 0.63096 0.80003 0.74388 0.0
H1928 H 0.82162 0.67598 0.66773 0.0
H1929 H 0.87771 0.65923 0.70345 0.0
H1930 H 0.86218 0.6335 0.73486 0.0
H1931 H 0.79617 0.6714 0.73614 0.0
H1932 H 0.77445 0.66176 0.71914 0.0
H1933 H 0.79014 0.67767 0.69764 0.0
H1934 H 0.79291 0.65085 0.65591 0.0
H1935 H 0.77718 0.63484 0.67729 0.0
H1936 H 0.80072 0.62623 0.6659 0.0
H1937 H 0.84029 0.61099 0.7646 0.0
H1938 H 0.81367 0.59363 0.79072 0.0
H1939 H 0.77206 0.62541 0.73551 0.0
C1940 C 0.83069 0.66673 0.68182 0.0
C1941 C 0.85089 0.66956 0.68305 0.0
C1942 C 0.86221 0.65729 0.70209 0.0
C1943 C 0.85353 0.64262 0.71996 0.0
C1944 C 0.83355 0.64039 0.71847 0.0
C1945 C 0.82228 0.65209 0.69984 0.0
C1946 C 0.80104 0.64742 0.70352 0.0
C1947 C 0.7898 0.66564 0.71479 0.0
C1948 C 0.79246 0.63935 0.67389 0.0
C1949 C 0.80208 0.63148 0.7275 0.0
C1950 C 0.82095 0.62752 0.73568 0.0
C1951 C 0.82546 0.61384 0.7582 0.0
C1952 C 0.81024 0.60408 0.77293 0.0
C1953 C 0.79079 0.60813 0.76512 0.0
C1954 C 0.78676 0.62188 0.74188 0.0
H1955 H 0.3544 0.80068 0.77295 0.0
H1956 H 0.32451 0.80617 0.85892 0.0
H1957 H 0.3027 0.83106 0.8365 0.0
H1958 H 0.35122 0.85272 0.75155 0.0
H1959 H 0.34744 0.84725 0.71208 0.0
H1960 H 0.3613 0.83053 0.73528 0.0
H1961 H 0.33856 0.80167 0.72024 0.0
H1962 H 0.32462 0.81828 0.69705 0.0
H1963 H 0.31293 0.80411 0.72635 0.0
H1964 H 0.28314 0.85392 0.80425 0.0
H1965 H 0.26733 0.87371 0.76445 0.0
H1966 H 0.31019 0.85373 0.69954 0.0
C1967 C 0.34338 0.80723 0.78716 0.0
C1968 C 0.34117 0.80148 0.81772 0.0
C1969 C 0.32651 0.81035 0.83548 0.0
C1970 C 0.31405 0.82452 0.82296 0.0
C1971 C 0.31652 0.82971 0.79272 0.0
C1972 C 0.33085 0.82142 0.77506 0.0
C1973 C 0.33007 0.82919 0.74294 0.0
C1974 C 0.34861 0.84061 0.73501 0.0
C1975 C 0.32632 0.81231 0.72032 0.0
C1976 C 0.31287 0.84296 0.7452 0.0
C1977 C 0.30531 0.84307 0.77414 0.0
C1978 C 0.28901 0.85409 0.78156 0.0
C1979 C 0.28011 0.86525 0.75877 0.0
C1980 C 0.28756 0.86533 0.7289 0.0
C1981 C 0.30426 0.85413 0.7222 0.0
H1982 H 0.13159 0.28915 0.73493 0.0
H1983 H 0.14434 0.31079 0.64461 0.0
H1984 H 0.16229 0.33891 0.66662 0.0
H1985 H 0.12529 0.33786 0.76993 0.0
H1986 H 0.13635 0.33028 0.80499 0.0
H1987 H 0.12364 0.31243 0.78214 0.0
H1988 H 0.15416 0.29022 0.78075 0.0
H1989 H 0.16694 0.30796 0.80359 0.0
H1990 H 0.17668 0.30047 0.76756 0.0
H1991 H 0.18104 0.36297 0.69822 0.0
H1992 H 0.19843 0.38199 0.73743 0.0
H1993 H 0.17228 0.34552 0.80711 0.0
C1994 C 0.13803 0.29988 0.71976 0.0
C1995 C 0.13661 0.29777 0.68805 0.0
C1996 C 0.14521 0.31214 0.66898 0.0
C1997 C 0.15542 0.32816 0.68126 0.0
C1998 C 0.15668 0.32972 0.71261 0.0
C1999 C 0.1481 0.31606 0.73162 0.0
C2000 C 0.15205 0.32083 0.7645 0.0
C2001 C 0.13321 0.32564 0.78138 0.0
C2002 C 0.16312 0.30386 0.78 0.0
C2003 C 0.16456 0.33907 0.76099 0.0
C2004 C 0.16703 0.34396 0.73088 0.0
C2005 C 0.17899 0.35947 0.72189 0.0
C2006 C 0.18883 0.37015 0.74429 0.0
C2007 C 0.18653 0.36534 0.77525 0.0
C2008 C 0.17401 0.34977 0.78364 0.0
H2009 H 0.69403 0.15046 0.71576 0.0
H2010 H 0.70779 0.1008 0.77434 0.0
H2011 H 0.68419 0.113 0.81189 0.0
H2012 H 0.69003 0.18618 0.7736 0.0
H2013 H 0.67038 0.19939 0.75605 0.0
H2014 H 0.68732 0.18594 0.73304 0.0
H2015 H 0.65914 0.16614 0.70899 0.0
H2016 H 0.64209 0.17951 0.73203 0.0
H2017 H 0.64262 0.15283 0.73308 0.0
H2018 H 0.66022 0.13162 0.8441 0.0
H2019 H 0.63864 0.15576 0.86906 0.0
H2020 H 0.64082 0.19299 0.78902 0.0
C2021 C 0.69197 0.14202 0.73634 0.0
C2022 C 0.70271 0.12465 0.74209 0.0
C2023 C 0.6997 0.11415 0.76944 0.0
C2024 C 0.68628 0.12091 0.79085 0.0
C2025 C 0.67599 0.13815 0.78451 0.0
C2026 C 0.6787 0.14856 0.75792 0.0
C2027 C 0.66655 0.16717 0.75714 0.0
C2028 C 0.67933 0.18576 0.75483 0.0
C2029 C 0.65172 0.16635 0.73127 0.0
C2030 C 0.6568 0.16577 0.78767 0.0
C2031 C 0.66228 0.14887 0.80304 0.0
C2032 C 0.6557 0.14483 0.83219 0.0
C2033 C 0.64344 0.15862 0.84617 0.0
C2034 C 0.638 0.17624 0.83099 0.0
C2035 C 0.64458 0.17961 0.80118 0.0
H2036 H 0.78676 0.34119 0.21066 0.0
H2037 H 0.79262 0.39928 0.25182 0.0
H2038 H 0.82072 0.3874 0.28102 0.0
H2039 H 0.79841 0.31331 0.2768 0.0
H2040 H 0.8114 0.2944 0.25644 0.0
H2041 H 0.79215 0.30773 0.23814 0.0
H2042 H 0.81553 0.31793 0.19506 0.0
H2043 H 0.83489 0.30471 0.21332 0.0
H2044 H 0.83771 0.33057 0.20426 0.0
H2045 H 0.84792 0.36901 0.30626 0.0
H2046 H 0.87135 0.34505 0.32722 0.0
H2047 H 0.84741 0.29911 0.26956 0.0
C2048 C 0.79397 0.35145 0.22574 0.0
C2049 C 0.78752 0.37117 0.22893 0.0
C2050 C 0.7973 0.38409 0.24904 0.0
C2051 C 0.81331 0.3775 0.26564 0.0
C2052 C 0.81933 0.35798 0.26189 0.0
C2053 C 0.80992 0.34512 0.24254 0.0
C2054 C 0.81894 0.32472 0.24323 0.0
C2055 C 0.80436 0.30913 0.25432 0.0
C2056 C 0.82726 0.31917 0.21212 0.0
C2057 C 0.83482 0.32808 0.26617 0.0
C2058 C 0.8349 0.34738 0.27654 0.0
C2059 C 0.84805 0.35386 0.29825 0.0
C2060 C 0.86131 0.34016 0.30998 0.0
C2061 C 0.86123 0.32022 0.30002 0.0
C2062 C 0.84792 0.31425 0.27758 0.0
H2063 H 0.66871 0.81167 0.17713 0.0
H2064 H 0.61082 0.82566 0.20824 0.0
H2065 H 0.62401 0.85263 0.23982 0.0
H2066 H 0.69144 0.81778 0.24665 0.0
H2067 H 0.71328 0.82846 0.23162 0.0
H2068 H 0.69912 0.8119 0.20874 0.0
H2069 H 0.69659 0.83867 0.16688 0.0
H2070 H 0.71086 0.85532 0.18961 0.0
H2071 H 0.6874 0.86289 0.17622 0.0
H2072 H 0.6438 0.87596 0.27146 0.0
H2073 H 0.66868 0.89396 0.30058 0.0
H2074 H 0.71352 0.86448 0.24875 0.0
C2075 C 0.65874 0.82066 0.19007 0.0
C2076 C 0.63872 0.81663 0.19011 0.0
C2077 C 0.62621 0.82853 0.20778 0.0
C2078 C 0.63355 0.84391 0.22573 0.0
C2079 C 0.65342 0.84721 0.22566 0.0
C2080 C 0.66582 0.83599 0.20817 0.0
C2081 C 0.68668 0.84161 0.2137 0.0
C2082 C 0.6983 0.82389 0.22591 0.0
C2083 C 0.69592 0.85013 0.18489 0.0
C2084 C 0.68411 0.85743 0.23758 0.0
C2085 C 0.66482 0.86059 0.24398 0.0
C2086 C 0.65894 0.87379 0.26639 0.0
C2087 C 0.67318 0.8839 0.28285 0.0
C2088 C 0.69303 0.88068 0.27688 0.0
C2089 C 0.69847 0.86743 0.25367 0.0
H2090 H 0.17149 0.69576 0.33012 0.0
H2091 H 0.11124 0.6841 0.30942 0.0
H2092 H 0.12056 0.65294 0.28414 0.0
H2093 H 0.19 0.67969 0.26095 0.0
H2094 H 0.21162 0.66885 0.27649 0.0
H2095 H 0.20002 0.68905 0.29578 0.0
H2096 H 0.1976 0.66777 0.34446 0.0
H2097 H 0.2092 0.64745 0.32526 0.0
H2098 H 0.18599 0.64389 0.3429 0.0
H2099 H 0.13666 0.62464 0.25732 0.0
H2100 H 0.1584 0.60174 0.23016 0.0
H2101 H 0.20803 0.63188 0.26873 0.0
C2102 C 0.1602 0.6865 0.32074 0.0
C2103 C 0.14063 0.69233 0.32185 0.0
C2104 C 0.12634 0.67992 0.3089 0.0
C2105 C 0.13148 0.66215 0.2946 0.0
C2106 C 0.15094 0.65697 0.29356 0.0
C2107 C 0.16508 0.66876 0.30635 0.0
C2108 C 0.18505 0.66056 0.30033 0.0
C2109 C 0.19739 0.67542 0.28231 0.0
C2110 C 0.19504 0.65456 0.33001 0.0
C2111 C 0.17997 0.64259 0.28151 0.0
C2112 C 0.16022 0.64064 0.27812 0.0
C2113 C 0.15215 0.62585 0.26013 0.0
C2114 C 0.16461 0.61293 0.24477 0.0
C2115 C 0.1849 0.61495 0.24743 0.0
C2116 C 0.19258 0.62975 0.26655 0.0
H2117 H 0.31962 0.13965 0.27469 0.0
H2118 H 0.27876 0.11567 0.20976 0.0
H2119 H 0.29405 0.13542 0.1693 0.0
H2120 H 0.32024 0.18838 0.24581 0.0
H2121 H 0.34563 0.19229 0.25263 0.0
H2122 H 0.33225 0.17534 0.27604 0.0
H2123 H 0.35648 0.14733 0.26307 0.0
H2124 H 0.36997 0.16422 0.23964 0.0
H2125 H 0.36111 0.1413 0.22401 0.0
H2126 H 0.3127 0.15915 0.13654 0.0
H2127 H 0.33354 0.18486 0.11385 0.0
H2128 H 0.36217 0.19302 0.20038 0.0
C2129 C 0.31399 0.13837 0.25192 0.0
C2130 C 0.29802 0.12609 0.24538 0.0
C2131 C 0.29102 0.12494 0.2153 0.0
C2132 C 0.29961 0.13609 0.19216 0.0
C2133 C 0.31521 0.14822 0.19947 0.0
C2134 C 0.32238 0.14936 0.22859 0.0
C2135 C 0.33886 0.16401 0.23072 0.0
C2136 C 0.33394 0.18101 0.25259 0.0
C2137 C 0.35772 0.15358 0.2399 0.0
C2138 C 0.33967 0.17114 0.19833 0.0
C2139 C 0.32597 0.16181 0.18061 0.0
C2140 C 0.32359 0.16645 0.15013 0.0
C2141 C 0.33547 0.18109 0.13747 0.0
C2142 C 0.34952 0.1909 0.15531 0.0
C2143 C 0.35167 0.18569 0.18607 0.0
loop_
_geom_bond_atom_site_label_1
_geom_bond_atom_site_label_2
_geom_bond_distance
_geom_bond_site_symmetry_2
_ccdc_geom_bond_type
C0 O1 1.160 . S
C0 O7 1.185 . S
O1 C0 1.160 . S
O2 Zn3 1.899 . S
O2 C10 1.284 . S
Zn3 O2 1.899 . S
Zn3 O4 2.032 . S
Zn3 O7 2.086 . S
Zn3 O12 1.977 . S
O4 Zn3 2.032 . S
O4 C8 1.278 . S
C5 O6 1.203 . S
C5 O12 1.267 . S
O6 C5 1.203 . S
O7 C0 1.185 . S
O7 Zn3 2.086 . S
C8 O4 1.278 . S
C8 O9 1.211 . S
O9 C8 1.211 . S
C10 O2 1.284 . S
C10 O11 1.273 . S
O11 C10 1.273 . S
O12 Zn3 1.977 . S
O12 C5 1.267 . S
C13 O14 1.160 . S
C13 O20 1.185 . S
O14 C13 1.160 . S
O15 Zn16 1.899 . S
O15 C23 1.284 . S
Zn16 O15 1.899 . S
Zn16 O17 2.032 . S
Zn16 O20 2.086 . S
Zn16 O25 1.977 . S
O17 Zn16 2.032 . S
O17 C21 1.278 . S
C18 O19 1.203 . S
C18 O25 1.267 . S
O19 C18 1.203 . S
O20 C13 1.185 . S
O20 Zn16 2.086 . S
C21 O17 1.278 . S
C21 O22 1.211 . S
O22 C21 1.211 . S
C23 O15 1.284 . S
C23 O24 1.273 . S
O24 C23 1.273 . S
O25 Zn16 1.977 . S
O25 C18 1.267 . S
C26 O27 1.160 . S
C26 O33 1.185 . S
O27 C26 1.160 . S
O28 Zn29 1.899 . S
O28 C36 1.284 . S
Zn29 O28 1.899 . S
Zn29 O30 2.032 . S
Zn29 O33 2.086 . S
Zn29 O38 1.977 . S
O30 Zn29 2.032 . S
O30 C34 1.278 . S
C31 O32 1.203 . S
C31 O38 1.267 . S
O32 C31 1.203 . S
O33 C26 1.185 . S
O33 Zn29 2.086 . S
C34 O30 1.278 . S
C34 O35 1.211 . S
O35 C34 1.211 . S
C36 O28 1.284 . S
C36 O37 1.273 . S
O37 C36 1.273 . S
O38 Zn29 1.977 . S
O38 C31 1.267 . S
C39 O40 1.160 . S
C39 O46 1.185 . S
O40 C39 1.160 . S
O41 Zn42 1.899 . S
O41 C49 1.284 . S
Zn42 O41 1.899 . S
Zn42 O43 2.032 . S
Zn42 O46 2.086 . S
Zn42 O51 1.977 . S
O43 Zn42 2.032 . S
O43 C47 1.278 . S
C44 O45 1.203 . S
C44 O51 1.267 . S
O45 C44 1.203 . S
O46 C39 1.185 . S
O46 Zn42 2.086 . S
C47 O43 1.278 . S
C47 O48 1.211 . S
O48 C47 1.211 . S
C49 O41 1.284 . S
C49 O50 1.273 . S
O50 C49 1.273 . S
O51 Zn42 1.977 . S
O51 C44 1.267 . S
C52 O53 1.160 . S
C52 O59 1.185 . S
O53 C52 1.160 . S
O54 Zn55 1.899 . S
O54 C62 1.284 . S
Zn55 O54 1.899 . S
Zn55 O56 2.032 . S
Zn55 O59 2.086 . S
Zn55 O64 1.977 . S
O56 Zn55 2.032 . S
O56 C60 1.278 . S
C57 O58 1.203 . S
C57 O64 1.267 . S
O58 C57 1.203 . S
O59 C52 1.185 . S
O59 Zn55 2.086 . S
C60 O56 1.278 . S
C60 O61 1.211 . S
O61 C60 1.211 . S
C62 O54 1.284 . S
C62 O63 1.273 . S
O63 C62 1.273 . S
O64 Zn55 1.977 . S
O64 C57 1.267 . S
C65 O66 1.160 . S
C65 O72 1.185 . S
O66 C65 1.160 . S
O67 Zn68 1.899 . S
O67 C75 1.284 . S
Zn68 O67 1.899 . S
Zn68 O69 2.032 . S
Zn68 O72 2.086 . S
Zn68 O77 1.977 . S
O69 Zn68 2.032 . S
O69 C73 1.278 . S
C70 O71 1.203 . S
C70 O77 1.267 . S
O71 C70 1.203 . S
O72 C65 1.185 . S
O72 Zn68 2.086 . S
C73 O69 1.278 . S
C73 O74 1.211 . S
O74 C73 1.211 . S
C75 O67 1.284 . S
C75 O76 1.273 . S
O76 C75 1.273 . S
O77 Zn68 1.977 . S
O77 C70 1.267 . S
C78 O79 1.160 . S
C78 O85 1.185 . S
O79 C78 1.160 . S
O80 Zn81 1.899 . S
O80 C88 1.284 . S
Zn81 O80 1.899 . S
Zn81 O82 2.032 . S
Zn81 O85 2.086 . S
Zn81 O90 1.977 . S
O82 Zn81 2.032 . S
O82 C86 1.278 . S
C83 O84 1.203 . S
C83 O90 1.267 . S
O84 C83 1.203 . S
O85 C78 1.185 . S
O85 Zn81 2.086 . S
C86 O82 1.278 . S
C86 O87 1.211 . S
O87 C86 1.211 . S
C88 O80 1.284 . S
C88 O89 1.273 . S
O89 C88 1.273 . S
O90 Zn81 1.977 . S
O90 C83 1.267 . S
C91 O92 1.160 . S
C91 O98 1.185 . S
O92 C91 1.160 . S
O93 Zn94 1.899 . S
O93 C101 1.284 . S
Zn94 O93 1.899 . S
Zn94 O95 2.032 . S
Zn94 O98 2.086 . S
Zn94 O103 1.977 . S
O95 Zn94 2.032 . S
O95 C99 1.278 . S
C96 O97 1.203 . S
C96 O103 1.267 . S
O97 C96 1.203 . S
O98 C91 1.185 . S
O98 Zn94 2.086 . S
C99 O95 1.278 . S
C99 O100 1.211 . S
O100 C99 1.211 . S
C101 O93 1.284 . S
C101 O102 1.273 . S
O102 C101 1.273 . S
O103 Zn94 1.977 . S
O103 C96 1.267 . S
C104 O105 1.160 . S
C104 O111 1.185 . S
O105 C104 1.160 . S
O106 Zn107 1.899 . S
O106 C114 1.284 . S
Zn107 O106 1.899 . S
Zn107 O108 2.032 . S
Zn107 O111 2.086 . S
Zn107 O116 1.977 . S
O108 Zn107 2.032 . S
O108 C112 1.278 . S
C109 O110 1.203 . S
C109 O116 1.267 . S
O110 C109 1.203 . S
O111 C104 1.185 . S
O111 Zn107 2.086 . S
C112 O108 1.278 . S
C112 O113 1.211 . S
O113 C112 1.211 . S
C114 O106 1.284 . S
C114 O115 1.273 . S
O115 C114 1.273 . S
O116 Zn107 1.977 . S
O116 C109 1.267 . S
C117 O118 1.160 . S
C117 O124 1.185 . S
O118 C117 1.160 . S
O119 Zn120 1.899 . S
O119 C127 1.284 . S
Zn120 O119 1.899 . S
Zn120 O121 2.032 . S
Zn120 O124 2.086 . S
Zn120 O129 1.977 . S
O121 Zn120 2.032 . S
O121 C125 1.278 . S
C122 O123 1.203 . S
C122 O129 1.267 . S
O123 C122 1.203 . S
O124 C117 1.185 . S
O124 Zn120 2.086 . S
C125 O121 1.278 . S
C125 O126 1.211 . S
O126 C125 1.211 . S
C127 O119 1.284 . S
C127 O128 1.273 . S
O128 C127 1.273 . S
O129 Zn120 1.977 . S
O129 C122 1.267 . S
C130 O131 1.160 . S
C130 O137 1.185 . S
O131 C130 1.160 . S
O132 Zn133 1.899 . S
O132 C140 1.284 . S
Zn133 O132 1.899 . S
Zn133 O134 2.032 . S
Zn133 O137 2.086 . S
Zn133 O142 1.977 . S
O134 Zn133 2.032 . S
O134 C138 1.278 . S
C135 O136 1.203 . S
C135 O142 1.267 . S
O136 C135 1.203 . S
O137 C130 1.185 . S
O137 Zn133 2.086 . S
C138 O134 1.278 . S
C138 O139 1.211 . S
O139 C138 1.211 . S
C140 O132 1.284 . S
C140 O141 1.273 . S
O141 C140 1.273 . S
O142 Zn133 1.977 . S
O142 C135 1.267 . S
C143 O144 1.160 . S
C143 O150 1.185 . S
O144 C143 1.160 . S
O145 Zn146 1.899 . S
O145 C153 1.284 . S
Zn146 O145 1.899 . S
Zn146 O147 2.032 . S
Zn146 O150 2.086 . S
Zn146 O155 1.977 . S
O147 Zn146 2.032 . S
O147 C151 1.278 . S
C148 O149 1.203 . S
C148 O155 1.267 . S
O149 C148 1.203 . S
O150 C143 1.185 . S
O150 Zn146 2.086 . S
C151 O147 1.278 . S
C151 O152 1.211 . S
O152 C151 1.211 . S
C153 O145 1.284 . S
C153 O154 1.273 . S
O154 C153 1.273 . S
O155 Zn146 1.977 . S
O155 C148 1.267 . S
C156 O157 1.160 . S
C156 O163 1.185 . S
O157 C156 1.160 . S
O158 Zn159 1.899 . S
O158 C166 1.284 . S
Zn159 O158 1.899 . S
Zn159 O160 2.032 . S
Zn159 O163 2.086 . S
Zn159 O168 1.977 . S
O160 Zn159 2.032 . S
O160 C164 1.278 . S
C161 O162 1.203 . S
C161 O168 1.267 . S
O162 C161 1.203 . S
O163 C156 1.185 . S
O163 Zn159 2.086 . S
C164 O160 1.278 . S
C164 O165 1.211 . S
O165 C164 1.211 . S
C166 O158 1.284 . S
C166 O167 1.273 . S
O167 C166 1.273 . S
O168 Zn159 1.977 . S
O168 C161 1.267 . S
C169 O170 1.160 . S
C169 O176 1.185 . S
O170 C169 1.160 . S
O171 Zn172 1.899 . S
O171 C179 1.284 . S
Zn172 O171 1.899 . S
Zn172 O173 2.032 . S
Zn172 O176 2.086 . S
Zn172 O181 1.977 . S
O173 Zn172 2.032 . S
O173 C177 1.278 . S
C174 O175 1.203 . S
C174 O181 1.267 . S
O175 C174 1.203 . S
O176 C169 1.185 . S
O176 Zn172 2.086 . S
C177 O173 1.278 . S
C177 O178 1.211 . S
O178 C177 1.211 . S
C179 O171 1.284 . S
C179 O180 1.273 . S
O180 C179 1.273 . S
O181 Zn172 1.977 . S
O181 C174 1.267 . S
C182 O183 1.160 . S
C182 O189 1.185 . S
O183 C182 1.160 . S
O184 Zn185 1.899 . S
O184 C192 1.284 . S
Zn185 O184 1.899 . S
Zn185 O186 2.032 . S
Zn185 O189 2.086 . S
Zn185 O194 1.977 . S
O186 Zn185 2.032 . S
O186 C190 1.278 . S
C187 O188 1.203 . S
C187 O194 1.267 . S
O188 C187 1.203 . S
O189 C182 1.185 . S
O189 Zn185 2.086 . S
C190 O186 1.278 . S
C190 O191 1.211 . S
O191 C190 1.211 . S
C192 O184 1.284 . S
C192 O193 1.273 . S
O193 C192 1.273 . S
O194 Zn185 1.977 . S
O194 C187 1.267 . S
C195 O196 1.160 . S
C195 O202 1.185 . S
O196 C195 1.160 . S
O197 Zn198 1.899 . S
O197 C205 1.284 . S
Zn198 O197 1.899 . S
Zn198 O199 2.032 . S
Zn198 O202 2.086 . S
Zn198 O207 1.977 . S
O199 Zn198 2.032 . S
O199 C203 1.278 . S
C200 O201 1.203 . S
C200 O207 1.267 . S
O201 C200 1.203 . S
O202 C195 1.185 . S
O202 Zn198 2.086 . S
C203 O199 1.278 . S
C203 O204 1.211 . S
O204 C203 1.211 . S
C205 O197 1.284 . S
C205 O206 1.273 . S
O206 C205 1.273 . S
O207 Zn198 1.977 . S
O207 C200 1.267 . S
C208 O209 1.160 . S
C208 O215 1.185 . S
O209 C208 1.160 . S
O210 Zn211 1.899 . S
O210 C218 1.284 . S
Zn211 O210 1.899 . S
Zn211 O212 2.032 . S
Zn211 O215 2.086 . S
Zn211 O220 1.977 . S
O212 Zn211 2.032 . S
O212 C216 1.278 . S
C213 O214 1.203 . S
C213 O220 1.267 . S
O214 C213 1.203 . S
O215 C208 1.185 . S
O215 Zn211 2.086 . S
C216 O212 1.278 . S
C216 O217 1.211 . S
O217 C216 1.211 . S
C218 O210 1.284 . S
C218 O219 1.273 . S
O219 C218 1.273 . S
O220 Zn211 1.977 . S
O220 C213 1.267 . S
C221 O222 1.160 . S
C221 O228 1.185 . S
O222 C221 1.160 . S
O223 Zn224 1.899 . S
O223 C231 1.284 . S
Zn224 O223 1.899 . S
Zn224 O225 2.032 . S
Zn224 O228 2.086 . S
Zn224 O233 1.977 . S
O225 Zn224 2.032 . S
O225 C229 1.278 . S
C226 O227 1.203 . S
C226 O233 1.267 . S
O227 C226 1.203 . S
O228 C221 1.185 . S
O228 Zn224 2.086 . S
C229 O225 1.278 . S
C229 O230 1.211 . S
O230 C229 1.211 . S
C231 O223 1.284 . S
C231 O232 1.273 . S
O232 C231 1.273 . S
O233 Zn224 1.977 . S
O233 C226 1.267 . S
C234 O235 1.160 . S
C234 O241 1.185 . S
O235 C234 1.160 . S
O236 Zn237 1.899 . S
O236 C244 1.284 . S
Zn237 O236 1.899 . S
Zn237 O238 2.032 . S
Zn237 O241 2.086 . S
Zn237 O246 1.977 . S
O238 Zn237 2.032 . S
O238 C242 1.278 . S
C239 O240 1.203 . S
C239 O246 1.267 . S
O240 C239 1.203 . S
O241 C234 1.185 . S
O241 Zn237 2.086 . S
C242 O238 1.278 . S
C242 O243 1.211 . S
O243 C242 1.211 . S
C244 O236 1.284 . S
C244 O245 1.273 . S
O245 C244 1.273 . S
O246 Zn237 1.977 . S
O246 C239 1.267 . S
C247 O248 1.160 . S
C247 O254 1.185 . S
O248 C247 1.160 . S
O249 Zn250 1.899 . S
O249 C257 1.284 . S
Zn250 O249 1.899 . S
Zn250 O251 2.032 . S
Zn250 O254 2.086 . S
Zn250 O259 1.977 . S
O251 Zn250 2.032 . S
O251 C255 1.278 . S
C252 O253 1.203 . S
C252 O259 1.267 . S
O253 C252 1.203 . S
O254 C247 1.185 . S
O254 Zn250 2.086 . S
C255 O251 1.278 . S
C255 O256 1.211 . S
O256 C255 1.211 . S
C257 O249 1.284 . S
C257 O258 1.273 . S
O258 C257 1.273 . S
O259 Zn250 1.977 . S
O259 C252 1.267 . S
C260 O261 1.160 . S
C260 O267 1.185 . S
O261 C260 1.160 . S
O262 Zn263 1.899 . S
O262 C270 1.284 . S
Zn263 O262 1.899 . S
Zn263 O264 2.032 . S
Zn263 O267 2.086 . S
Zn263 O272 1.977 . S
O264 Zn263 2.032 . S
O264 C268 1.278 . S
C265 O266 1.203 . S
C265 O272 1.267 . S
O266 C265 1.203 . S
O267 C260 1.185 . S
O267 Zn263 2.086 . S
C268 O264 1.278 . S
C268 O269 1.211 . S
O269 C268 1.211 . S
C270 O262 1.284 . S
C270 O271 1.273 . S
O271 C270 1.273 . S
O272 Zn263 1.977 . S
O272 C265 1.267 . S
C273 O274 1.160 . S
C273 O280 1.185 . S
O274 C273 1.160 . S
O275 Zn276 1.899 . S
O275 C283 1.284 . S
Zn276 O275 1.899 . S
Zn276 O277 2.032 . S
Zn276 O280 2.086 . S
Zn276 O285 1.977 . S
O277 Zn276 2.032 . S
O277 C281 1.278 . S
C278 O279 1.203 . S
C278 O285 1.267 . S
O279 C278 1.203 . S
O280 C273 1.185 . S
O280 Zn276 2.086 . S
C281 O277 1.278 . S
C281 O282 1.211 . S
O282 C281 1.211 . S
C283 O275 1.284 . S
C283 O284 1.273 . S
O284 C283 1.273 . S
O285 Zn276 1.977 . S
O285 C278 1.267 . S
C286 O287 1.160 . S
C286 O293 1.185 . S
O287 C286 1.160 . S
O288 Zn289 1.899 . S
O288 C296 1.284 . S
Zn289 O288 1.899 . S
Zn289 O290 2.032 . S
Zn289 O293 2.086 . S
Zn289 O298 1.977 . S
O290 Zn289 2.032 . S
O290 C294 1.278 . S
C291 O292 1.203 . S
C291 O298 1.267 . S
O292 C291 1.203 . S
O293 C286 1.185 . S
O293 Zn289 2.086 . S
C294 O290 1.278 . S
C294 O295 1.211 . S
O295 C294 1.211 . S
C296 O288 1.284 . S
C296 O297 1.273 . S
O297 C296 1.273 . S
O298 Zn289 1.977 . S
O298 C291 1.267 . S
C299 O300 1.160 . S
C299 O306 1.185 . S
O300 C299 1.160 . S
O301 Zn302 1.899 . S
O301 C309 1.284 . S
Zn302 O301 1.899 . S
Zn302 O303 2.032 . S
Zn302 O306 2.086 . S
Zn302 O311 1.977 . S
O303 Zn302 2.032 . S
O303 C307 1.278 . S
C304 O305 1.203 . S
C304 O311 1.267 . S
O305 C304 1.203 . S
O306 C299 1.185 . S
O306 Zn302 2.086 . S
C307 O303 1.278 . S
C307 O308 1.211 . S
O308 C307 1.211 . S
C309 O301 1.284 . S
C309 O310 1.273 . S
O310 C309 1.273 . S
O311 Zn302 1.977 . S
O311 C304 1.267 . S
C312 O313 1.160 . S
C312 O319 1.185 . S
O313 C312 1.160 . S
O314 Zn315 1.899 . S
O314 C322 1.284 . S
Zn315 O314 1.899 . S
Zn315 O316 2.032 . S
Zn315 O319 2.086 . S
Zn315 O324 1.977 . S
O316 Zn315 2.032 . S
O316 C320 1.278 . S
C317 O318 1.203 . S
C317 O324 1.267 . S
O318 C317 1.203 . S
O319 C312 1.185 . S
O319 Zn315 2.086 . S
C320 O316 1.278 . S
C320 O321 1.211 . S
O321 C320 1.211 . S
C322 O314 1.284 . S
C322 O323 1.273 . S
O323 C322 1.273 . S
O324 Zn315 1.977 . S
O324 C317 1.267 . S
C325 O326 1.160 . S
C325 O332 1.185 . S
O326 C325 1.160 . S
O327 Zn328 1.899 . S
O327 C335 1.284 . S
Zn328 O327 1.899 . S
Zn328 O329 2.032 . S
Zn328 O332 2.086 . S
Zn328 O337 1.977 . S
O329 Zn328 2.032 . S
O329 C333 1.278 . S
C330 O331 1.203 . S
C330 O337 1.267 . S
O331 C330 1.203 . S
O332 C325 1.185 . S
O332 Zn328 2.086 . S
C333 O329 1.278 . S
C333 O334 1.211 . S
O334 C333 1.211 . S
C335 O327 1.284 . S
C335 O336 1.273 . S
O336 C335 1.273 . S
O337 Zn328 1.977 . S
O337 C330 1.267 . S
C338 O339 1.160 . S
C338 O345 1.185 . S
O339 C338 1.160 . S
O340 Zn341 1.899 . S
O340 C348 1.284 . S
Zn341 O340 1.899 . S
Zn341 O342 2.032 . S
Zn341 O345 2.086 . S
Zn341 O350 1.977 . S
O342 Zn341 2.032 . S
O342 C346 1.278 . S
C343 O344 1.203 . S
C343 O350 1.267 . S
O344 C343 1.203 . S
O345 C338 1.185 . S
O345 Zn341 2.086 . S
C346 O342 1.278 . S
C346 O347 1.211 . S
O347 C346 1.211 . S
C348 O340 1.284 . S
C348 O349 1.273 . S
O349 C348 1.273 . S
O350 Zn341 1.977 . S
O350 C343 1.267 . S
C351 O352 1.160 . S
C351 O358 1.185 . S
O352 C351 1.160 . S
O353 Zn354 1.899 . S
O353 C361 1.284 . S
Zn354 O353 1.899 . S
Zn354 O355 2.032 . S
Zn354 O358 2.086 . S
Zn354 O363 1.977 . S
O355 Zn354 2.032 . S
O355 C359 1.278 . S
C356 O357 1.203 . S
C356 O363 1.267 . S
O357 C356 1.203 . S
O358 C351 1.185 . S
O358 Zn354 2.086 . S
C359 O355 1.278 . S
C359 O360 1.211 . S
O360 C359 1.211 . S
C361 O353 1.284 . S
C361 O362 1.273 . S
O362 C361 1.273 . S
O363 Zn354 1.977 . S
O363 C356 1.267 . S
C364 O365 1.160 . S
C364 O371 1.185 . S
O365 C364 1.160 . S
O366 Zn367 1.899 . S
O366 C374 1.284 . S
Zn367 O366 1.899 . S
Zn367 O368 2.032 . S
Zn367 O371 2.086 . S
Zn367 O376 1.977 . S
O368 Zn367 2.032 . S
O368 C372 1.278 . S
C369 O370 1.203 . S
C369 O376 1.267 . S
O370 C369 1.203 . S
O371 C364 1.185 . S
O371 Zn367 2.086 . S
C372 O368 1.278 . S
C372 O373 1.211 . S
O373 C372 1.211 . S
C374 O366 1.284 . S
C374 O375 1.273 . S
O375 C374 1.273 . S
O376 Zn367 1.977 . S
O376 C369 1.267 . S
C377 O378 1.160 . S
C377 O384 1.185 . S
O378 C377 1.160 . S
O379 Zn380 1.899 . S
O379 C387 1.284 . S
Zn380 O379 1.899 . S
Zn380 O381 2.032 . S
Zn380 O384 2.086 . S
Zn380 O389 1.977 . S
O381 Zn380 2.032 . S
O381 C385 1.278 . S
C382 O383 1.203 . S
C382 O389 1.267 . S
O383 C382 1.203 . S
O384 C377 1.185 . S
O384 Zn380 2.086 . S
C385 O381 1.278 . S
C385 O386 1.211 . S
O386 C385 1.211 . S
C387 O379 1.284 . S
C387 O388 1.273 . S
O388 C387 1.273 . S
O389 Zn380 1.977 . S
O389 C382 1.267 . S
C390 O391 1.160 . S
C390 O397 1.185 . S
O391 C390 1.160 . S
O392 Zn393 1.899 . S
O392 C400 1.284 . S
Zn393 O392 1.899 . S
Zn393 O394 2.032 . S
Zn393 O397 2.086 . S
Zn393 O402 1.977 . S
O394 Zn393 2.032 . S
O394 C398 1.278 . S
C395 O396 1.203 . S
C395 O402 1.267 . S
O396 C395 1.203 . S
O397 C390 1.185 . S
O397 Zn393 2.086 . S
C398 O394 1.278 . S
C398 O399 1.211 . S
O399 C398 1.211 . S
C400 O392 1.284 . S
C400 O401 1.273 . S
O401 C400 1.273 . S
O402 Zn393 1.977 . S
O402 C395 1.267 . S
C403 O404 1.160 . S
C403 O410 1.185 . S
O404 C403 1.160 . S
O405 Zn406 1.899 . S
O405 C413 1.284 . S
Zn406 O405 1.899 . S
Zn406 O407 2.032 . S
Zn406 O410 2.086 . S
Zn406 O415 1.977 . S
O407 Zn406 2.032 . S
O407 C411 1.278 . S
C408 O409 1.203 . S
C408 O415 1.267 . S
O409 C408 1.203 . S
O410 C403 1.185 . S
O410 Zn406 2.086 . S
C411 O407 1.278 . S
C411 O412 1.211 . S
O412 C411 1.211 . S
C413 O405 1.284 . S
C413 O414 1.273 . S
O414 C413 1.273 . S
O415 Zn406 1.977 . S
O415 C408 1.267 . S
H416 C428 0.930 . S
H417 C430 0.930 . S
H418 C431 0.930 . S
H419 C435 0.959 . S
H420 C435 0.959 . S
H421 C435 0.961 . S
H422 C436 0.960 . S
H423 C436 0.961 . S
H424 C436 0.959 . S
H425 C439 0.929 . S
H426 C440 0.931 . S
H427 C442 0.930 . S
C428 H416 0.930 . S
C428 C429 1.399 . S
C428 C433 1.399 . S
C429 C428 1.399 . S
C429 C430 1.376 . S
C430 H417 0.930 . S
C430 C429 1.376 . S
C430 C431 1.388 . S
C431 H418 0.930 . S
C431 C430 1.388 . S
C431 C432 1.390 . S
C432 C431 1.390 . S
C432 C433 1.394 . S
C432 C438 1.465 . S
C433 C428 1.399 . S
C433 C432 1.394 . S
C433 C434 1.516 . S
C434 C433 1.516 . S
C434 C435 1.502 . S
C434 C436 1.561 . S
C434 C437 1.526 . S
C435 H419 0.959 . S
C435 H420 0.959 . S
C435 H421 0.961 . S
C435 C434 1.502 . S
C436 H422 0.960 . S
C436 H423 0.961 . S
C436 H424 0.959 . S
C436 C434 1.561 . S
C437 C434 1.526 . S
C437 C438 1.396 . S
C437 C442 1.390 . S
C438 C432 1.465 . S
C438 C437 1.396 . S
C438 C439 1.399 . S
C439 H425 0.929 . S
C439 C438 1.399 . S
C439 C440 1.385 . S
C440 H426 0.931 . S
C440 C439 1.385 . S
C440 C441 1.389 . S
C441 C440 1.389 . S
C441 C442 1.387 . S
C442 H427 0.930 . S
C442 C437 1.390 . S
C442 C441 1.387 . S
H443 C455 0.930 . S
H444 C457 0.930 . S
H445 C458 0.930 . S
H446 C462 0.959 . S
H447 C462 0.959 . S
H448 C462 0.961 . S
H449 C463 0.960 . S
H450 C463 0.961 . S
H451 C463 0.959 . S
H452 C466 0.929 . S
H453 C467 0.931 . S
H454 C469 0.930 . S
C455 H443 0.930 . S
C455 C456 1.399 . S
C455 C460 1.399 . S
C456 C455 1.399 . S
C456 C457 1.376 . S
C457 H444 0.930 . S
C457 C456 1.376 . S
C457 C458 1.388 . S
C458 H445 0.930 . S
C458 C457 1.388 . S
C458 C459 1.390 . S
C459 C458 1.390 . S
C459 C460 1.394 . S
C459 C465 1.465 . S
C460 C455 1.399 . S
C460 C459 1.394 . S
C460 C461 1.516 . S
C461 C460 1.516 . S
C461 C462 1.502 . S
C461 C463 1.561 . S
C461 C464 1.526 . S
C462 H446 0.959 . S
C462 H447 0.959 . S
C462 H448 0.961 . S
C462 C461 1.502 . S
C463 H449 0.960 . S
C463 H450 0.961 . S
C463 H451 0.959 . S
C463 C461 1.561 . S
C464 C461 1.526 . S
C464 C465 1.396 . S
C464 C469 1.390 . S
C465 C459 1.465 . S
C465 C464 1.396 . S
C465 C466 1.399 . S
C466 H452 0.929 . S
C466 C465 1.399 . S
C466 C467 1.385 . S
C467 H453 0.931 . S
C467 C466 1.385 . S
C467 C468 1.389 . S
C468 C467 1.389 . S
C468 C469 1.387 . S
C469 H454 0.930 . S
C469 C464 1.390 . S
C469 C468 1.387 . S
H470 C482 0.930 . S
H471 C484 0.930 . S
H472 C485 0.930 . S
H473 C489 0.959 . S
H474 C489 0.959 . S
H475 C489 0.961 . S
H476 C490 0.960 . S
H477 C490 0.961 . S
H478 C490 0.959 . S
H479 C493 0.929 . S
H480 C494 0.931 . S
H481 C496 0.930 . S
C482 H470 0.930 . S
C482 C483 1.399 . S
C482 C487 1.399 . S
C483 C482 1.399 . S
C483 C484 1.376 . S
C484 H471 0.930 . S
C484 C483 1.376 . S
C484 C485 1.388 . S
C485 H472 0.930 . S
C485 C484 1.388 . S
C485 C486 1.390 . S
C486 C485 1.390 . S
C486 C487 1.394 . S
C486 C492 1.465 . S
C487 C482 1.399 . S
C487 C486 1.394 . S
C487 C488 1.516 . S
C488 C487 1.516 . S
C488 C489 1.502 . S
C488 C490 1.561 . S
C488 C491 1.526 . S
C489 H473 0.959 . S
C489 H474 0.959 . S
C489 H475 0.961 . S
C489 C488 1.502 . S
C490 H476 0.960 . S
C490 H477 0.961 . S
C490 H478 0.959 . S
C490 C488 1.561 . S
C491 C488 1.526 . S
C491 C492 1.396 . S
C491 C496 1.390 . S
C492 C486 1.465 . S
C492 C491 1.396 . S
C492 C493 1.399 . S
C493 H479 0.929 . S
C493 C492 1.399 . S
C493 C494 1.385 . S
C494 H480 0.931 . S
C494 C493 1.385 . S
C494 C495 1.389 . S
C495 C494 1.389 . S
C495 C496 1.387 . S
C496 H481 0.930 . S
C496 C491 1.390 . S
C496 C495 1.387 . S
H497 C509 0.930 . S
H498 C511 0.930 . S
H499 C512 0.930 . S
H500 C516 0.959 . S
H501 C516 0.959 . S
H502 C516 0.961 . S
H503 C517 0.960 . S
H504 C517 0.961 . S
H505 C517 0.959 . S
H506 C520 0.929 . S
H507 C521 0.931 . S
H508 C523 0.930 . S
C509 H497 0.930 . S
C509 C510 1.399 . S
C509 C514 1.399 . S
C510 C509 1.399 . S
C510 C511 1.376 . S
C511 H498 0.930 . S
C511 C510 1.376 . S
C511 C512 1.388 . S
C512 H499 0.930 . S
C512 C511 1.388 . S
C512 C513 1.390 . S
C513 C512 1.390 . S
C513 C514 1.394 . S
C513 C519 1.465 . S
C514 C509 1.399 . S
C514 C513 1.394 . S
C514 C515 1.516 . S
C515 C514 1.516 . S
C515 C516 1.502 . S
C515 C517 1.561 . S
C515 C518 1.526 . S
C516 H500 0.959 . S
C516 H501 0.959 . S
C516 H502 0.961 . S
C516 C515 1.502 . S
C517 H503 0.960 . S
C517 H504 0.961 . S
C517 H505 0.959 . S
C517 C515 1.561 . S
C518 C515 1.526 . S
C518 C519 1.396 . S
C518 C523 1.390 . S
C519 C513 1.465 . S
C519 C518 1.396 . S
C519 C520 1.399 . S
C520 H506 0.929 . S
C520 C519 1.399 . S
C520 C521 1.385 . S
C521 H507 0.931 . S
C521 C520 1.385 . S
C521 C522 1.389 . S
C522 C521 1.389 . S
C522 C523 1.387 . S
C523 H508 0.930 . S
C523 C518 1.390 . S
C523 C522 1.387 . S
H524 C536 0.930 . S
H525 C538 0.930 . S
H526 C539 0.930 . S
H527 C543 0.959 . S
H528 C543 0.959 . S
H529 C543 0.961 . S
H530 C544 0.960 . S
H531 C544 0.961 . S
H532 C544 0.959 . S
H533 C547 0.929 . S
H534 C548 0.931 . S
H535 C550 0.930 . S
C536 H524 0.930 . S
C536 C537 1.399 . S
C536 C541 1.399 . S
C537 C536 1.399 . S
C537 C538 1.376 . S
C538 H525 0.930 . S
C538 C537 1.376 . S
C538 C539 1.388 . S
C539 H526 0.930 . S
C539 C538 1.388 . S
C539 C540 1.390 . S
C540 C539 1.390 . S
C540 C541 1.394 . S
C540 C546 1.465 . S
C541 C536 1.399 . S
C541 C540 1.394 . S
C541 C542 1.516 . S
C542 C541 1.516 . S
C542 C543 1.502 . S
C542 C544 1.561 . S
C542 C545 1.526 . S
C543 H527 0.959 . S
C543 H528 0.959 . S
C543 H529 0.961 . S
C543 C542 1.502 . S
C544 H530 0.960 . S
C544 H531 0.961 . S
C544 H532 0.959 . S
C544 C542 1.561 . S
C545 C542 1.526 . S
C545 C546 1.396 . S
C545 C550 1.390 . S
C546 C540 1.465 . S
C546 C545 1.396 . S
C546 C547 1.399 . S
C547 H533 0.929 . S
C547 C546 1.399 . S
C547 C548 1.385 . S
C548 H534 0.931 . S
C548 C547 1.385 . S
C548 C549 1.389 . S
C549 C548 1.389 . S
C549 C550 1.387 . S
C550 H535 0.930 . S
C550 C545 1.390 . S
C550 C549 1.387 . S
H551 C563 0.930 . S
H552 C565 0.930 . S
H553 C566 0.930 . S
H554 C570 0.959 . S
H555 C570 0.959 . S
H556 C570 0.961 . S
H557 C571 0.960 . S
H558 C571 0.961 . S
H559 C571 0.959 . S
H560 C574 0.929 . S
H561 C575 0.931 . S
H562 C577 0.930 . S
C563 H551 0.930 . S
C563 C564 1.399 . S
C563 C568 1.399 . S
C564 C563 1.399 . S
C564 C565 1.376 . S
C565 H552 0.930 . S
C565 C564 1.376 . S
C565 C566 1.388 . S
C566 H553 0.930 . S
C566 C565 1.388 . S
C566 C567 1.390 . S
C567 C566 1.390 . S
C567 C568 1.394 . S
C567 C573 1.465 . S
C568 C563 1.399 . S
C568 C567 1.394 . S
C568 C569 1.516 . S
C569 C568 1.516 . S
C569 C570 1.502 . S
C569 C571 1.561 . S
C569 C572 1.526 . S
C570 H554 0.959 . S
C570 H555 0.959 . S
C570 H556 0.961 . S
C570 C569 1.502 . S
C571 H557 0.960 . S
C571 H558 0.961 . S
C571 H559 0.959 . S
C571 C569 1.561 . S
C572 C569 1.526 . S
C572 C573 1.396 . S
C572 C577 1.390 . S
C573 C567 1.465 . S
C573 C572 1.396 . S
C573 C574 1.399 . S
C574 H560 0.929 . S
C574 C573 1.399 . S
C574 C575 1.385 . S
C575 H561 0.931 . S
C575 C574 1.385 . S
C575 C576 1.389 . S
C576 C575 1.389 . S
C576 C577 1.387 . S
C577 H562 0.930 . S
C577 C572 1.390 . S
C577 C576 1.387 . S
H578 C590 0.930 . S
H579 C592 0.930 . S
H580 C593 0.930 . S
H581 C597 0.959 . S
H582 C597 0.959 . S
H583 C597 0.961 . S
H584 C598 0.960 . S
H585 C598 0.961 . S
H586 C598 0.959 . S
H587 C601 0.929 . S
H588 C602 0.931 . S
H589 C604 0.930 . S
C590 H578 0.930 . S
C590 C591 1.399 . S
C590 C595 1.399 . S
C591 C590 1.399 . S
C591 C592 1.376 . S
C592 H579 0.930 . S
C592 C591 1.376 . S
C592 C593 1.388 . S
C593 H580 0.930 . S
C593 C592 1.388 . S
C593 C594 1.390 . S
C594 C593 1.390 . S
C594 C595 1.394 . S
C594 C600 1.465 . S
C595 C590 1.399 . S
C595 C594 1.394 . S
C595 C596 1.516 . S
C596 C595 1.516 . S
C596 C597 1.502 . S
C596 C598 1.561 . S
C596 C599 1.526 . S
C597 H581 0.959 . S
C597 H582 0.959 . S
C597 H583 0.961 . S
C597 C596 1.502 . S
C598 H584 0.960 . S
C598 H585 0.961 . S
C598 H586 0.959 . S
C598 C596 1.561 . S
C599 C596 1.526 . S
C599 C600 1.396 . S
C599 C604 1.390 . S
C600 C594 1.465 . S
C600 C599 1.396 . S
C600 C601 1.399 . S
C601 H587 0.929 . S
C601 C600 1.399 . S
C601 C602 1.385 . S
C602 H588 0.931 . S
C602 C601 1.385 . S
C602 C603 1.389 . S
C603 C602 1.389 . S
C603 C604 1.387 . S
C604 H589 0.930 . S
C604 C599 1.390 . S
C604 C603 1.387 . S
H605 C617 0.930 . S
H606 C619 0.930 . S
H607 C620 0.930 . S
H608 C624 0.959 . S
H609 C624 0.959 . S
H610 C624 0.961 . S
H611 C625 0.960 . S
H612 C625 0.961 . S
H613 C625 0.959 . S
H614 C628 0.929 . S
H615 C629 0.931 . S
H616 C631 0.930 . S
C617 H605 0.930 . S
C617 C618 1.399 . S
C617 C622 1.399 . S
C618 C617 1.399 . S
C618 C619 1.376 . S
C619 H606 0.930 . S
C619 C618 1.376 . S
C619 C620 1.388 . S
C620 H607 0.930 . S
C620 C619 1.388 . S
C620 C621 1.390 . S
C621 C620 1.390 . S
C621 C622 1.394 . S
C621 C627 1.465 . S
C622 C617 1.399 . S
C622 C621 1.394 . S
C622 C623 1.516 . S
C623 C622 1.516 . S
C623 C624 1.502 . S
C623 C625 1.561 . S
C623 C626 1.526 . S
C624 H608 0.959 . S
C624 H609 0.959 . S
C624 H610 0.961 . S
C624 C623 1.502 . S
C625 H611 0.960 . S
C625 H612 0.961 . S
C625 H613 0.959 . S
C625 C623 1.561 . S
C626 C623 1.526 . S
C626 C627 1.396 . S
C626 C631 1.390 . S
C627 C621 1.465 . S
C627 C626 1.396 . S
C627 C628 1.399 . S
C628 H614 0.929 . S
C628 C627 1.399 . S
C628 C629 1.385 . S
C629 H615 0.931 . S
C629 C628 1.385 . S
C629 C630 1.389 . S
C630 C629 1.389 . S
C630 C631 1.387 . S
C631 H616 0.930 . S
C631 C626 1.390 . S
C631 C630 1.387 . S
H632 C644 0.930 . S
H633 C646 0.930 . S
H634 C647 0.930 . S
H635 C651 0.959 . S
H636 C651 0.959 . S
H637 C651 0.961 . S
H638 C652 0.960 . S
H639 C652 0.961 . S
H640 C652 0.959 . S
H641 C655 0.929 . S
H642 C656 0.931 . S
H643 C658 0.930 . S
C644 H632 0.930 . S
C644 C645 1.399 . S
C644 C649 1.399 . S
C645 C644 1.399 . S
C645 C646 1.376 . S
C646 H633 0.930 . S
C646 C645 1.376 . S
C646 C647 1.388 . S
C647 H634 0.930 . S
C647 C646 1.388 . S
C647 C648 1.390 . S
C648 C647 1.390 . S
C648 C649 1.394 . S
C648 C654 1.465 . S
C649 C644 1.399 . S
C649 C648 1.394 . S
C649 C650 1.516 . S
C650 C649 1.516 . S
C650 C651 1.502 . S
C650 C652 1.561 . S
C650 C653 1.526 . S
C651 H635 0.959 . S
C651 H636 0.959 . S
C651 H637 0.961 . S
C651 C650 1.502 . S
C652 H638 0.960 . S
C652 H639 0.961 . S
C652 H640 0.959 . S
C652 C650 1.561 . S
C653 C650 1.526 . S
C653 C654 1.396 . S
C653 C658 1.390 . S
C654 C648 1.465 . S
C654 C653 1.396 . S
C654 C655 1.399 . S
C655 H641 0.929 . S
C655 C654 1.399 . S
C655 C656 1.385 . S
C656 H642 0.931 . S
C656 C655 1.385 . S
C656 C657 1.389 . S
C657 C656 1.389 . S
C657 C658 1.387 . S
C658 H643 0.930 . S
C658 C653 1.390 . S
C658 C657 1.387 . S
H659 C671 0.930 . S
H660 C673 0.930 . S
H661 C674 0.930 . S
H662 C678 0.959 . S
H663 C678 0.959 . S
H664 C678 0.961 . S
H665 C679 0.960 . S
H666 C679 0.961 . S
H667 C679 0.959 . S
H668 C682 0.929 . S
H669 C683 0.931 . S
H670 C685 0.930 . S
C671 H659 0.930 . S
C671 C672 1.399 . S
C671 C676 1.399 . S
C672 C671 1.399 . S
C672 C673 1.376 . S
C673 H660 0.930 . S
C673 C672 1.376 . S
C673 C674 1.388 . S
C674 H661 0.930 . S
C674 C673 1.388 . S
C674 C675 1.390 . S
C675 C674 1.390 . S
C675 C676 1.394 . S
C675 C681 1.465 . S
C676 C671 1.399 . S
C676 C675 1.394 . S
C676 C677 1.516 . S
C677 C676 1.516 . S
C677 C678 1.502 . S
C677 C679 1.561 . S
C677 C680 1.526 . S
C678 H662 0.959 . S
C678 H663 0.959 . S
C678 H664 0.961 . S
C678 C677 1.502 . S
C679 H665 0.960 . S
C679 H666 0.961 . S
C679 H667 0.959 . S
C679 C677 1.561 . S
C680 C677 1.526 . S
C680 C681 1.396 . S
C680 C685 1.390 . S
C681 C675 1.465 . S
C681 C680 1.396 . S
C681 C682 1.399 . S
C682 H668 0.929 . S
C682 C681 1.399 . S
C682 C683 1.385 . S
C683 H669 0.931 . S
C683 C682 1.385 . S
C683 C684 1.389 . S
C684 C683 1.389 . S
C684 C685 1.387 . S
C685 H670 0.930 . S
C685 C680 1.390 . S
C685 C684 1.387 . S
H686 C698 0.930 . S
H687 C700 0.930 . S
H688 C701 0.930 . S
H689 C705 0.959 . S
H690 C705 0.959 . S
H691 C705 0.961 . S
H692 C706 0.960 . S
H693 C706 0.961 . S
H694 C706 0.959 . S
H695 C709 0.929 . S
H696 C710 0.931 . S
H697 C712 0.930 . S
C698 H686 0.930 . S
C698 C699 1.399 . S
C698 C703 1.399 . S
C699 C698 1.399 . S
C699 C700 1.376 . S
C700 H687 0.930 . S
C700 C699 1.376 . S
C700 C701 1.388 . S
C701 H688 0.930 . S
C701 C700 1.388 . S
C701 C702 1.390 . S
C702 C701 1.390 . S
C702 C703 1.394 . S
C702 C708 1.465 . S
C703 C698 1.399 . S
C703 C702 1.394 . S
C703 C704 1.516 . S
C704 C703 1.516 . S
C704 C705 1.502 . S
C704 C706 1.561 . S
C704 C707 1.526 . S
C705 H689 0.959 . S
C705 H690 0.959 . S
C705 H691 0.961 . S
C705 C704 1.502 . S
C706 H692 0.960 . S
C706 H693 0.961 . S
C706 H694 0.959 . S
C706 C704 1.561 . S
C707 C704 1.526 . S
C707 C708 1.396 . S
C707 C712 1.390 . S
C708 C702 1.465 . S
C708 C707 1.396 . S
C708 C709 1.399 . S
C709 H695 0.929 . S
C709 C708 1.399 . S
C709 C710 1.385 . S
C710 H696 0.931 . S
C710 C709 1.385 . S
C710 C711 1.389 . S
C711 C710 1.389 . S
C711 C712 1.387 . S
C712 H697 0.930 . S
C712 C707 1.390 . S
C712 C711 1.387 . S
H713 C725 0.930 . S
H714 C727 0.930 . S
H715 C728 0.930 . S
H716 C732 0.959 . S
H717 C732 0.959 . S
H718 C732 0.961 . S
H719 C733 0.960 . S
H720 C733 0.961 . S
H721 C733 0.959 . S
H722 C736 0.929 . S
H723 C737 0.931 . S
H724 C739 0.930 . S
C725 H713 0.930 . S
C725 C726 1.399 . S
C725 C730 1.399 . S
C726 C725 1.399 . S
C726 C727 1.376 . S
C727 H714 0.930 . S
C727 C726 1.376 . S
C727 C728 1.388 . S
C728 H715 0.930 . S
C728 C727 1.388 . S
C728 C729 1.390 . S
C729 C728 1.390 . S
C729 C730 1.394 . S
C729 C735 1.465 . S
C730 C725 1.399 . S
C730 C729 1.394 . S
C730 C731 1.516 . S
C731 C730 1.516 . S
C731 C732 1.502 . S
C731 C733 1.561 . S
C731 C734 1.526 . S
C732 H716 0.959 . S
C732 H717 0.959 . S
C732 H718 0.961 . S
C732 C731 1.502 . S
C733 H719 0.960 . S
C733 H720 0.961 . S
C733 H721 0.959 . S
C733 C731 1.561 . S
C734 C731 1.526 . S
C734 C735 1.396 . S
C734 C739 1.390 . S
C735 C729 1.465 . S
C735 C734 1.396 . S
C735 C736 1.399 . S
C736 H722 0.929 . S
C736 C735 1.399 . S
C736 C737 1.385 . S
C737 H723 0.931 . S
C737 C736 1.385 . S
C737 C738 1.389 . S
C738 C737 1.389 . S
C738 C739 1.387 . S
C739 H724 0.930 . S
C739 C734 1.390 . S
C739 C738 1.387 . S
H740 C752 0.930 . S
H741 C754 0.930 . S
H742 C755 0.930 . S
H743 C759 0.959 . S
H744 C759 0.959 . S
H745 C759 0.961 . S
H746 C760 0.960 . S
H747 C760 0.961 . S
H748 C760 0.959 . S
H749 C763 0.929 . S
H750 C764 0.931 . S
H751 C766 0.930 . S
C752 H740 0.930 . S
C752 C753 1.399 . S
C752 C757 1.399 . S
C753 C752 1.399 . S
C753 C754 1.376 . S
C754 H741 0.930 . S
C754 C753 1.376 . S
C754 C755 1.388 . S
C755 H742 0.930 . S
C755 C754 1.388 . S
C755 C756 1.390 . S
C756 C755 1.390 . S
C756 C757 1.394 . S
C756 C762 1.465 . S
C757 C752 1.399 . S
C757 C756 1.394 . S
C757 C758 1.516 . S
C758 C757 1.516 . S
C758 C759 1.502 . S
C758 C760 1.561 . S
C758 C761 1.526 . S
C759 H743 0.959 . S
C759 H744 0.959 . S
C759 H745 0.961 . S
C759 C758 1.502 . S
C760 H746 0.960 . S
C760 H747 0.961 . S
C760 H748 0.959 . S
C760 C758 1.561 . S
C761 C758 1.526 . S
C761 C762 1.396 . S
C761 C766 1.390 . S
C762 C756 1.465 . S
C762 C761 1.396 . S
C762 C763 1.399 . S
C763 H749 0.929 . S
C763 C762 1.399 . S
C763 C764 1.385 . S
C764 H750 0.931 . S
C764 C763 1.385 . S
C764 C765 1.389 . S
C765 C764 1.389 . S
C765 C766 1.387 . S
C766 H751 0.930 . S
C766 C761 1.390 . S
C766 C765 1.387 . S
H767 C779 0.930 . S
H768 C781 0.930 . S
H769 C782 0.930 . S
H770 C786 0.959 . S
H771 C786 0.959 . S
H772 C786 0.961 . S
H773 C787 0.960 . S
H774 C787 0.961 . S
H775 C787 0.959 . S
H776 C790 0.929 . S
H777 C791 0.931 . S
H778 C793 0.930 . S
C779 H767 0.930 . S
C779 C780 1.399 . S
C779 C784 1.399 . S
C780 C779 1.399 . S
C780 C781 1.376 . S
C781 H768 0.930 . S
C781 C780 1.376 . S
C781 C782 1.388 . S
C782 H769 0.930 . S
C782 C781 1.388 . S
C782 C783 1.390 . S
C783 C782 1.390 . S
C783 C784 1.394 . S
C783 C789 1.465 . S
C784 C779 1.399 . S
C784 C783 1.394 . S
C784 C785 1.516 . S
C785 C784 1.516 . S
C785 C786 1.502 . S
C785 C787 1.561 . S
C785 C788 1.526 . S
C786 H770 0.959 . S
C786 H771 0.959 . S
C786 H772 0.961 . S
C786 C785 1.502 . S
C787 H773 0.960 . S
C787 H774 0.961 . S
C787 H775 0.959 . S
C787 C785 1.561 . S
C788 C785 1.526 . S
C788 C789 1.396 . S
C788 C793 1.390 . S
C789 C783 1.465 . S
C789 C788 1.396 . S
C789 C790 1.399 . S
C790 H776 0.929 . S
C790 C789 1.399 . S
C790 C791 1.385 . S
C791 H777 0.931 . S
C791 C790 1.385 . S
C791 C792 1.389 . S
C792 C791 1.389 . S
C792 C793 1.387 . S
C793 H778 0.930 . S
C793 C788 1.390 . S
C793 C792 1.387 . S
H794 C806 0.930 . S
H795 C808 0.930 . S
H796 C809 0.930 . S
H797 C813 0.959 . S
H798 C813 0.959 . S
H799 C813 0.961 . S
H800 C814 0.960 . S
H801 C814 0.961 . S
H802 C814 0.959 . S
H803 C817 0.929 . S
H804 C818 0.931 . S
H805 C820 0.930 . S
C806 H794 0.930 . S
C806 C807 1.399 . S
C806 C811 1.399 . S
C807 C806 1.399 . S
C807 C808 1.376 . S
C808 H795 0.930 . S
C808 C807 1.376 . S
C808 C809 1.388 . S
C809 H796 0.930 . S
C809 C808 1.388 . S
C809 C810 1.390 . S
C810 C809 1.390 . S
C810 C811 1.394 . S
C810 C816 1.465 . S
C811 C806 1.399 . S
C811 C810 1.394 . S
C811 C812 1.516 . S
C812 C811 1.516 . S
C812 C813 1.502 . S
C812 C814 1.561 . S
C812 C815 1.526 . S
C813 H797 0.959 . S
C813 H798 0.959 . S
C813 H799 0.961 . S
C813 C812 1.502 . S
C814 H800 0.960 . S
C814 H801 0.961 . S
C814 H802 0.959 . S
C814 C812 1.561 . S
C815 C812 1.526 . S
C815 C816 1.396 . S
C815 C820 1.390 . S
C816 C810 1.465 . S
C816 C815 1.396 . S
C816 C817 1.399 . S
C817 H803 0.929 . S
C817 C816 1.399 . S
C817 C818 1.385 . S
C818 H804 0.931 . S
C818 C817 1.385 . S
C818 C819 1.389 . S
C819 C818 1.389 . S
C819 C820 1.387 . S
C820 H805 0.930 . S
C820 C815 1.390 . S
C820 C819 1.387 . S
H821 C833 0.930 . S
H822 C835 0.930 . S
H823 C836 0.930 . S
H824 C840 0.959 . S
H825 C840 0.959 . S
H826 C840 0.961 . S
H827 C841 0.960 . S
H828 C841 0.961 . S
H829 C841 0.959 . S
H830 C844 0.929 . S
H831 C845 0.931 . S
H832 C847 0.930 . S
C833 H821 0.930 . S
C833 C834 1.399 . S
C833 C838 1.399 . S
C834 C833 1.399 . S
C834 C835 1.376 . S
C835 H822 0.930 . S
C835 C834 1.376 . S
C835 C836 1.388 . S
C836 H823 0.930 . S
C836 C835 1.388 . S
C836 C837 1.390 . S
C837 C836 1.390 . S
C837 C838 1.394 . S
C837 C843 1.465 . S
C838 C833 1.399 . S
C838 C837 1.394 . S
C838 C839 1.516 . S
C839 C838 1.516 . S
C839 C840 1.502 . S
C839 C841 1.561 . S
C839 C842 1.526 . S
C840 H824 0.959 . S
C840 H825 0.959 . S
C840 H826 0.961 . S
C840 C839 1.502 . S
C841 H827 0.960 . S
C841 H828 0.961 . S
C841 H829 0.959 . S
C841 C839 1.561 . S
C842 C839 1.526 . S
C842 C843 1.396 . S
C842 C847 1.390 . S
C843 C837 1.465 . S
C843 C842 1.396 . S
C843 C844 1.399 . S
C844 H830 0.929 . S
C844 C843 1.399 . S
C844 C845 1.385 . S
C845 H831 0.931 . S
C845 C844 1.385 . S
C845 C846 1.389 . S
C846 C845 1.389 . S
C846 C847 1.387 . S
C847 H832 0.930 . S
C847 C842 1.390 . S
C847 C846 1.387 . S
H848 C860 0.930 . S
H849 C862 0.930 . S
H850 C863 0.930 . S
H851 C867 0.959 . S
H852 C867 0.959 1_455 S
H853 C867 0.961 . S
H854 C868 0.960 . S
H855 C868 0.961 1_455 S
H856 C868 0.959 . S
H857 C871 0.929 . S
H858 C872 0.931 . S
H859 C874 0.930 . S
C860 H848 0.930 . S
C860 C861 1.399 . S
C860 C865 1.399 . S
C861 C860 1.399 . S
C861 C862 1.376 . S
C862 H849 0.930 . S
C862 C861 1.376 . S
C862 C863 1.388 . S
C863 H850 0.930 . S
C863 C862 1.388 . S
C863 C864 1.390 . S
C864 C863 1.390 . S
C864 C865 1.394 . S
C864 C870 1.465 1_655 S
C865 C860 1.399 . S
C865 C864 1.394 . S
C865 C866 1.516 . S
C866 C865 1.516 . S
C866 C867 1.502 . S
C866 C868 1.561 . S
C866 C869 1.526 1_655 S
C867 H851 0.959 . S
C867 H852 0.959 1_655 S
C867 H853 0.961 . S
C867 C866 1.502 . S
C868 H854 0.960 . S
C868 H855 0.961 1_655 S
C868 H856 0.959 . S
C868 C866 1.561 . S
C869 C866 1.526 1_455 S
C869 C870 1.396 . S
C869 C874 1.390 . S
C870 C864 1.465 1_455 S
C870 C869 1.396 . S
C870 C871 1.399 . S
C871 H857 0.929 . S
C871 C870 1.399 . S
C871 C872 1.385 . S
C872 H858 0.931 . S
C872 C871 1.385 . S
C872 C873 1.389 . S
C873 C872 1.389 . S
C873 C874 1.387 . S
C874 H859 0.930 . S
C874 C869 1.390 . S
C874 C873 1.387 . S
H875 C887 0.930 . S
H876 C889 0.930 . S
H877 C890 0.930 . S
H878 C894 0.959 . S
H879 C894 0.935 1_565 S
H880 C894 0.961 . S
H881 C895 0.960 . S
H882 C895 0.961 . S
H883 C895 0.959 . S
H884 C898 0.929 . S
H885 C899 0.931 . S
H886 C901 0.930 . S
C887 H875 0.930 . S
C887 C888 1.399 . S
C887 C892 1.399 . S
C888 C887 1.399 . S
C888 C889 1.376 . S
C889 H876 0.930 . S
C889 C888 1.376 . S
C889 C890 1.388 . S
C890 H877 0.930 . S
C890 C889 1.388 . S
C890 C891 1.390 . S
C891 C890 1.390 . S
C891 C892 1.394 . S
C891 C897 1.465 1_545 S
C892 C887 1.399 . S
C892 C891 1.394 . S
C892 C893 1.516 . S
C893 C892 1.516 . S
C893 C894 1.502 . S
C893 C895 1.561 . S
C893 C896 1.526 1_545 S
C894 H878 0.959 . S
C894 H879 0.935 1_545 S
C894 H880 0.961 . S
C894 C893 1.502 . S
C895 H881 0.960 . S
C895 H882 0.961 . S
C895 H883 0.959 . S
C895 C893 1.561 . S
C896 C893 1.526 1_565 S
C896 C897 1.396 . S
C896 C901 1.390 . S
C897 C891 1.465 1_565 S
C897 C896 1.396 . S
C897 C898 1.399 . S
C898 H884 0.929 . S
C898 C897 1.399 . S
C898 C899 1.385 . S
C899 H885 0.931 . S
C899 C898 1.385 . S
C899 C900 1.389 . S
C900 C899 1.389 . S
C900 C901 1.387 . S
C901 H886 0.930 . S
C901 C896 1.390 . S
C901 C900 1.387 . S
H902 C914 0.930 . S
H903 C916 0.930 . S
H904 C917 0.930 . S
H905 C921 0.959 . S
H906 C921 0.959 1_655 S
H907 C921 0.961 . S
H908 C922 0.960 . S
H909 C922 0.961 1_655 S
H910 C922 0.959 . S
H911 C925 0.929 . S
H912 C926 0.931 . S
H913 C928 0.930 . S
C914 H902 0.930 . S
C914 C915 1.399 . S
C914 C919 1.399 . S
C915 C914 1.399 . S
C915 C916 1.376 . S
C916 H903 0.930 . S
C916 C915 1.376 . S
C916 C917 1.388 . S
C917 H904 0.930 . S
C917 C916 1.388 . S
C917 C918 1.390 . S
C918 C917 1.390 . S
C918 C919 1.394 . S
C918 C924 1.465 1_455 S
C919 C914 1.399 . S
C919 C918 1.394 . S
C919 C920 1.516 . S
C920 C919 1.516 . S
C920 C921 1.502 . S
C920 C922 1.561 . S
C920 C923 1.526 1_455 S
C921 H905 0.959 . S
C921 H906 0.959 1_455 S
C921 H907 0.961 . S
C921 C920 1.502 . S
C922 H908 0.960 . S
C922 H909 0.961 1_455 S
C922 H910 0.959 . S
C922 C920 1.561 . S
C923 C920 1.526 1_655 S
C923 C924 1.396 . S
C923 C928 1.390 . S
C924 C918 1.465 1_655 S
C924 C923 1.396 . S
C924 C925 1.399 . S
C925 H911 0.929 . S
C925 C924 1.399 . S
C925 C926 1.385 . S
C926 H912 0.931 . S
C926 C925 1.385 . S
C926 C927 1.389 . S
C927 C926 1.389 . S
C927 C928 1.387 . S
C928 H913 0.930 . S
C928 C923 1.390 . S
C928 C927 1.387 . S
H929 C941 0.930 . S
H930 C943 0.930 . S
H931 C944 0.930 . S
H932 C948 0.959 . S
H933 C948 0.959 . S
H934 C948 0.961 . S
H935 C949 0.960 . S
H936 C949 0.961 . S
H937 C949 0.959 . S
H938 C952 0.929 . S
H939 C953 0.931 . S
H940 C955 0.930 . S
C941 H929 0.930 . S
C941 C942 1.399 . S
C941 C946 1.399 . S
C942 C941 1.399 . S
C942 C943 1.376 . S
C943 H930 0.930 . S
C943 C942 1.376 . S
C943 C944 1.388 . S
C944 H931 0.930 . S
C944 C943 1.388 . S
C944 C945 1.390 . S
C945 C944 1.390 . S
C945 C946 1.394 . S
C945 C951 1.465 1_565 S
C946 C941 1.399 . S
C946 C945 1.394 . S
C946 C947 1.516 . S
C947 C946 1.516 . S
C947 C948 1.502 . S
C947 C949 1.561 . S
C947 C950 1.526 1_565 S
C948 H932 0.959 . S
C948 H933 0.959 . S
C948 H934 0.961 . S
C948 C947 1.502 . S
C949 H935 0.960 . S
C949 H936 0.961 . S
C949 H937 0.959 . S
C949 C947 1.561 . S
C950 C947 1.526 1_545 S
C950 C951 1.396 . S
C950 C955 1.390 . S
C951 C945 1.465 1_545 S
C951 C950 1.396 . S
C951 C952 1.399 . S
C952 H938 0.929 . S
C952 C951 1.399 . S
C952 C953 1.385 . S
C953 H939 0.931 . S
C953 C952 1.385 . S
C953 C954 1.389 . S
C954 C953 1.389 . S
C954 C955 1.387 . S
C955 H940 0.930 . S
C955 C950 1.390 . S
C955 C954 1.387 . S
H956 C968 0.930 . S
H957 C970 0.930 . S
H958 C971 0.930 . S
H959 C975 0.959 . S
H960 C975 0.959 . S
H961 C975 0.961 1_455 S
H962 C976 0.960 1_455 S
H963 C976 0.961 . S
H964 C976 0.959 . S
H965 C979 0.929 . S
H966 C980 0.931 . S
H967 C982 0.930 . S
C968 H956 0.930 . S
C968 C969 1.399 . S
C968 C973 1.399 . S
C969 C968 1.399 . S
C969 C970 1.376 . S
C970 H957 0.930 . S
C970 C969 1.376 . S
C970 C971 1.388 . S
C971 H958 0.930 . S
C971 C970 1.388 . S
C971 C972 1.390 . S
C972 C971 1.390 . S
C972 C973 1.394 . S
C972 C978 1.465 1_455 S
C973 C968 1.399 . S
C973 C972 1.394 . S
C973 C974 1.516 1_455 S
C974 C973 1.516 1_655 S
C974 C975 1.502 . S
C974 C976 1.561 . S
C974 C977 1.526 . S
C975 H959 0.959 . S
C975 H960 0.959 . S
C975 H961 0.961 1_655 S
C975 C974 1.502 . S
C976 H962 0.960 1_655 S
C976 H963 0.961 . S
C976 H964 0.959 . S
C976 C974 1.561 . S
C977 C974 1.526 . S
C977 C978 1.396 . S
C977 C982 1.390 . S
C978 C972 1.465 1_655 S
C978 C977 1.396 . S
C978 C979 1.399 . S
C979 H965 0.929 . S
C979 C978 1.399 . S
C979 C980 1.385 . S
C980 H966 0.931 . S
C980 C979 1.385 . S
C980 C981 1.389 . S
C981 C980 1.389 . S
C981 C982 1.387 . S
C982 H967 0.930 . S
C982 C977 1.390 . S
C982 C981 1.387 . S
H983 C995 0.930 . S
H984 C997 0.930 . S
H985 C998 0.930 . S
H986 C1002 0.959 . S
H987 C1002 0.959 . S
H988 C1002 0.961 1_565 S
H989 C1003 0.960 1_565 S
H990 C1003 0.961 . S
H991 C1003 0.959 . S
H992 C1006 0.929 . S
H993 C1007 0.931 . S
H994 C1009 0.930 . S
C995 H983 0.930 . S
C995 C996 1.399 . S
C995 C1000 1.399 . S
C996 C995 1.399 . S
C996 C997 1.376 . S
C997 H984 0.930 . S
C997 C996 1.376 . S
C997 C998 1.388 . S
C998 H985 0.930 . S
C998 C997 1.388 . S
C998 C999 1.390 . S
C999 C998 1.390 . S
C999 C1000 1.394 . S
C999 C1005 1.465 1_565 S
C1000 C995 1.399 . S
C1000 C999 1.394 . S
C1000 C1001 1.516 1_565 S
C1001 C1000 1.516 1_545 S
C1001 C1002 1.502 . S
C1001 C1003 1.561 . S
C1001 C1004 1.526 . S
C1002 H986 0.959 . S
C1002 H987 0.959 . S
C1002 H988 0.961 1_545 S
C1002 C1001 1.502 . S
C1003 H989 0.960 1_545 S
C1003 H990 0.961 . S
C1003 H991 0.959 . S
C1003 C1001 1.561 . S
C1004 C1001 1.526 . S
C1004 C1005 1.396 . S
C1004 C1009 1.390 . S
C1005 C999 1.465 1_545 S
C1005 C1004 1.396 . S
C1005 C1006 1.399 . S
C1006 H992 0.929 . S
C1006 C1005 1.399 . S
C1006 C1007 1.385 . S
C1007 H993 0.931 . S
C1007 C1006 1.385 . S
C1007 C1008 1.389 . S
C1008 C1007 1.389 . S
C1008 C1009 1.387 . S
C1009 H994 0.930 . S
C1009 C1004 1.390 . S
C1009 C1008 1.387 . S
H1010 C1022 0.930 . S
H1011 C1024 0.930 . S
H1012 C1025 0.930 . S
H1013 C1029 0.959 . S
H1014 C1029 0.959 1_655 S
H1015 C1029 0.961 . S
H1016 C1030 0.960 . S
H1017 C1030 0.961 1_655 S
H1018 C1030 0.959 . S
H1019 C1033 0.929 . S
H1020 C1034 0.931 . S
H1021 C1036 0.930 . S
C1022 H1010 0.930 . S
C1022 C1023 1.399 . S
C1022 C1027 1.399 . S
C1023 C1022 1.399 . S
C1023 C1024 1.376 . S
C1024 H1011 0.930 . S
C1024 C1023 1.376 . S
C1024 C1025 1.388 . S
C1025 H1012 0.930 . S
C1025 C1024 1.388 . S
C1025 C1026 1.390 . S
C1026 C1025 1.390 . S
C1026 C1027 1.394 . S
C1026 C1032 1.465 1_455 S
C1027 C1022 1.399 . S
C1027 C1026 1.394 . S
C1027 C1028 1.516 . S
C1028 C1027 1.516 . S
C1028 C1029 1.502 . S
C1028 C1030 1.561 . S
C1028 C1031 1.526 1_455 S
C1029 H1013 0.959 . S
C1029 H1014 0.959 1_455 S
C1029 H1015 0.961 . S
C1029 C1028 1.502 . S
C1030 H1016 0.960 . S
C1030 H1017 0.961 1_455 S
C1030 H1018 0.959 . S
C1030 C1028 1.561 . S
C1031 C1028 1.526 1_655 S
C1031 C1032 1.396 . S
C1031 C1036 1.390 . S
C1032 C1026 1.465 1_655 S
C1032 C1031 1.396 . S
C1032 C1033 1.399 . S
C1033 H1019 0.929 . S
C1033 C1032 1.399 . S
C1033 C1034 1.385 . S
C1034 H1020 0.931 . S
C1034 C1033 1.385 . S
C1034 C1035 1.389 . S
C1035 C1034 1.389 . S
C1035 C1036 1.387 . S
C1036 H1021 0.930 . S
C1036 C1031 1.390 . S
C1036 C1035 1.387 . S
H1037 C1049 0.930 . S
H1038 C1051 0.930 . S
H1039 C1052 0.930 . S
H1040 C1056 0.959 . S
H1041 C1056 0.959 . S
H1042 C1056 0.961 1_545 S
H1043 C1057 0.960 1_545 S
H1044 C1057 0.961 . S
H1045 C1057 0.959 . S
H1046 C1060 0.929 . S
H1047 C1061 0.931 . S
H1048 C1063 0.930 . S
C1049 H1037 0.930 . S
C1049 C1050 1.399 . S
C1049 C1054 1.399 . S
C1050 C1049 1.399 . S
C1050 C1051 1.376 . S
C1051 H1038 0.930 . S
C1051 C1050 1.376 . S
C1051 C1052 1.388 . S
C1052 H1039 0.930 . S
C1052 C1051 1.388 . S
C1052 C1053 1.390 . S
C1053 C1052 1.390 . S
C1053 C1054 1.394 . S
C1053 C1059 1.465 1_545 S
C1054 C1049 1.399 . S
C1054 C1053 1.394 . S
C1054 C1055 1.516 1_545 S
C1055 C1054 1.516 1_565 S
C1055 C1056 1.502 . S
C1055 C1057 1.561 . S
C1055 C1058 1.526 . S
C1056 H1040 0.959 . S
C1056 H1041 0.959 . S
C1056 H1042 0.961 1_565 S
C1056 C1055 1.502 . S
C1057 H1043 0.960 1_565 S
C1057 H1044 0.961 . S
C1057 H1045 0.959 . S
C1057 C1055 1.561 . S
C1058 C1055 1.526 . S
C1058 C1059 1.396 . S
C1058 C1063 1.390 . S
C1059 C1053 1.465 1_565 S
C1059 C1058 1.396 . S
C1059 C1060 1.399 . S
C1060 H1046 0.929 . S
C1060 C1059 1.399 . S
C1060 C1061 1.385 . S
C1061 H1047 0.931 . S
C1061 C1060 1.385 . S
C1061 C1062 1.389 . S
C1062 C1061 1.389 . S
C1062 C1063 1.387 . S
C1063 H1048 0.930 . S
C1063 C1058 1.390 . S
C1063 C1062 1.387 . S
H1064 C1076 0.930 . S
H1065 C1078 0.930 . S
H1066 C1079 0.930 . S
H1067 C1083 0.959 . S
H1068 C1083 0.959 . S
H1069 C1083 0.961 . S
H1070 C1084 0.960 . S
H1071 C1084 0.961 . S
H1072 C1084 0.959 . S
H1073 C1087 0.929 . S
H1074 C1088 0.931 . S
H1075 C1090 0.930 . S
C1076 H1064 0.930 . S
C1076 C1077 1.399 . S
C1076 C1081 1.399 . S
C1077 C1076 1.399 . S
C1077 C1078 1.376 . S
C1078 H1065 0.930 . S
C1078 C1077 1.376 . S
C1078 C1079 1.388 . S
C1079 H1066 0.930 . S
C1079 C1078 1.388 . S
C1079 C1080 1.390 . S
C1080 C1079 1.390 . S
C1080 C1081 1.394 . S
C1080 C1086 1.465 . S
C1081 C1076 1.399 . S
C1081 C1080 1.394 . S
C1081 C1082 1.516 . S
C1082 C1081 1.516 . S
C1082 C1083 1.502 . S
C1082 C1084 1.561 . S
C1082 C1085 1.526 . S
C1083 H1067 0.959 . S
C1083 H1068 0.959 . S
C1083 H1069 0.961 . S
C1083 C1082 1.502 . S
C1084 H1070 0.960 . S
C1084 H1071 0.961 . S
C1084 H1072 0.959 . S
C1084 C1082 1.561 . S
C1085 C1082 1.526 . S
C1085 C1086 1.396 . S
C1085 C1090 1.390 . S
C1086 C1080 1.465 . S
C1086 C1085 1.396 . S
C1086 C1087 1.399 . S
C1087 H1073 0.929 . S
C1087 C1086 1.399 . S
C1087 C1088 1.385 . S
C1088 H1074 0.931 . S
C1088 C1087 1.385 . S
C1088 C1089 1.389 . S
C1089 C1088 1.389 . S
C1089 C1090 1.387 . S
C1090 H1075 0.930 . S
C1090 C1085 1.390 . S
C1090 C1089 1.387 . S
H1091 C1103 0.930 . S
H1092 C1105 0.930 . S
H1093 C1106 0.930 . S
H1094 C1110 0.959 . S
H1095 C1110 0.959 . S
H1096 C1110 0.961 . S
H1097 C1111 0.960 . S
H1098 C1111 0.961 . S
H1099 C1111 0.959 . S
H1100 C1114 0.929 . S
H1101 C1115 0.931 . S
H1102 C1117 0.930 . S
C1103 H1091 0.930 . S
C1103 C1104 1.399 . S
C1103 C1108 1.399 . S
C1104 C1103 1.399 . S
C1104 C1105 1.376 . S
C1105 H1092 0.930 . S
C1105 C1104 1.376 . S
C1105 C1106 1.388 . S
C1106 H1093 0.930 . S
C1106 C1105 1.388 . S
C1106 C1107 1.390 . S
C1107 C1106 1.390 . S
C1107 C1108 1.394 . S
C1107 C1113 1.465 . S
C1108 C1103 1.399 . S
C1108 C1107 1.394 . S
C1108 C1109 1.516 . S
C1109 C1108 1.516 . S
C1109 C1110 1.502 . S
C1109 C1111 1.561 . S
C1109 C1112 1.526 . S
C1110 H1094 0.959 . S
C1110 H1095 0.959 . S
C1110 H1096 0.961 . S
C1110 C1109 1.502 . S
C1111 H1097 0.960 . S
C1111 H1098 0.961 . S
C1111 H1099 0.959 . S
C1111 C1109 1.561 . S
C1112 C1109 1.526 . S
C1112 C1113 1.396 . S
C1112 C1117 1.390 . S
C1113 C1107 1.465 . S
C1113 C1112 1.396 . S
C1113 C1114 1.399 . S
C1114 H1100 0.929 . S
C1114 C1113 1.399 . S
C1114 C1115 1.385 . S
C1115 H1101 0.931 . S
C1115 C1114 1.385 . S
C1115 C1116 1.389 . S
C1116 C1115 1.389 . S
C1116 C1117 1.387 . S
C1117 H1102 0.930 . S
C1117 C1112 1.390 . S
C1117 C1116 1.387 . S
H1118 C1130 0.930 . S
H1119 C1132 0.930 . S
H1120 C1133 0.930 . S
H1121 C1137 0.959 . S
H1122 C1137 0.959 . S
H1123 C1137 0.961 . S
H1124 C1138 0.960 . S
H1125 C1138 0.961 . S
H1126 C1138 0.959 . S
H1127 C1141 0.929 . S
H1128 C1142 0.931 . S
H1129 C1144 0.930 . S
C1130 H1118 0.930 . S
C1130 C1131 1.399 . S
C1130 C1135 1.399 . S
C1131 C1130 1.399 . S
C1131 C1132 1.376 . S
C1132 H1119 0.930 . S
C1132 C1131 1.376 . S
C1132 C1133 1.388 . S
C1133 H1120 0.930 . S
C1133 C1132 1.388 . S
C1133 C1134 1.390 . S
C1134 C1133 1.390 . S
C1134 C1135 1.394 . S
C1134 C1140 1.465 . S
C1135 C1130 1.399 . S
C1135 C1134 1.394 . S
C1135 C1136 1.516 . S
C1136 C1135 1.516 . S
C1136 C1137 1.502 . S
C1136 C1138 1.561 . S
C1136 C1139 1.526 . S
C1137 H1121 0.959 . S
C1137 H1122 0.959 . S
C1137 H1123 0.961 . S
C1137 C1136 1.502 . S
C1138 H1124 0.960 . S
C1138 H1125 0.961 . S
C1138 H1126 0.959 . S
C1138 C1136 1.561 . S
C1139 C1136 1.526 . S
C1139 C1140 1.396 . S
C1139 C1144 1.390 . S
C1140 C1134 1.465 . S
C1140 C1139 1.396 . S
C1140 C1141 1.399 . S
C1141 H1127 0.929 . S
C1141 C1140 1.399 . S
C1141 C1142 1.385 . S
C1142 H1128 0.931 . S
C1142 C1141 1.385 . S
C1142 C1143 1.389 . S
C1143 C1142 1.389 . S
C1143 C1144 1.387 . S
C1144 H1129 0.930 . S
C1144 C1139 1.390 . S
C1144 C1143 1.387 . S
H1145 C1157 0.930 . S
H1146 C1159 0.930 . S
H1147 C1160 0.930 . S
H1148 C1164 0.959 . S
H1149 C1164 0.959 . S
H1150 C1164 0.961 . S
H1151 C1165 0.960 . S
H1152 C1165 0.961 . S
H1153 C1165 0.959 . S
H1154 C1168 0.929 . S
H1155 C1169 0.931 . S
H1156 C1171 0.930 . S
C1157 H1145 0.930 . S
C1157 C1158 1.399 . S
C1157 C1162 1.399 . S
C1158 C1157 1.399 . S
C1158 C1159 1.376 . S
C1159 H1146 0.930 . S
C1159 C1158 1.376 . S
C1159 C1160 1.388 . S
C1160 H1147 0.930 . S
C1160 C1159 1.388 . S
C1160 C1161 1.390 . S
C1161 C1160 1.390 . S
C1161 C1162 1.394 . S
C1161 C1167 1.465 . S
C1162 C1157 1.399 . S
C1162 C1161 1.394 . S
C1162 C1163 1.516 . S
C1163 C1162 1.516 . S
C1163 C1164 1.502 . S
C1163 C1165 1.561 . S
C1163 C1166 1.526 . S
C1164 H1148 0.959 . S
C1164 H1149 0.959 . S
C1164 H1150 0.961 . S
C1164 C1163 1.502 . S
C1165 H1151 0.960 . S
C1165 H1152 0.961 . S
C1165 H1153 0.959 . S
C1165 C1163 1.561 . S
C1166 C1163 1.526 . S
C1166 C1167 1.396 . S
C1166 C1171 1.390 . S
C1167 C1161 1.465 . S
C1167 C1166 1.396 . S
C1167 C1168 1.399 . S
C1168 H1154 0.929 . S
C1168 C1167 1.399 . S
C1168 C1169 1.385 . S
C1169 H1155 0.931 . S
C1169 C1168 1.385 . S
C1169 C1170 1.389 . S
C1170 C1169 1.389 . S
C1170 C1171 1.387 . S
C1171 H1156 0.930 . S
C1171 C1166 1.390 . S
C1171 C1170 1.387 . S
H1172 C1184 0.930 . S
H1173 C1186 0.930 . S
H1174 C1187 0.930 . S
H1175 C1191 0.959 . S
H1176 C1191 0.959 . S
H1177 C1191 0.961 . S
H1178 C1192 0.960 . S
H1179 C1192 0.961 . S
H1180 C1192 0.959 . S
H1181 C1195 0.929 . S
H1182 C1196 0.931 . S
H1183 C1198 0.930 . S
C1184 H1172 0.930 . S
C1184 C1185 1.399 . S
C1184 C1189 1.399 . S
C1185 C1184 1.399 . S
C1185 C1186 1.376 . S
C1186 H1173 0.930 . S
C1186 C1185 1.376 . S
C1186 C1187 1.388 . S
C1187 H1174 0.930 . S
C1187 C1186 1.388 . S
C1187 C1188 1.390 . S
C1188 C1187 1.390 . S
C1188 C1189 1.394 . S
C1188 C1194 1.465 . S
C1189 C1184 1.399 . S
C1189 C1188 1.394 . S
C1189 C1190 1.516 . S
C1190 C1189 1.516 . S
C1190 C1191 1.502 . S
C1190 C1192 1.561 . S
C1190 C1193 1.526 . S
C1191 H1175 0.959 . S
C1191 H1176 0.959 . S
C1191 H1177 0.961 . S
C1191 C1190 1.502 . S
C1192 H1178 0.960 . S
C1192 H1179 0.961 . S
C1192 H1180 0.959 . S
C1192 C1190 1.561 . S
C1193 C1190 1.526 . S
C1193 C1194 1.396 . S
C1193 C1198 1.390 . S
C1194 C1188 1.465 . S
C1194 C1193 1.396 . S
C1194 C1195 1.399 . S
C1195 H1181 0.929 . S
C1195 C1194 1.399 . S
C1195 C1196 1.385 . S
C1196 H1182 0.931 . S
C1196 C1195 1.385 . S
C1196 C1197 1.389 . S
C1197 C1196 1.389 . S
C1197 C1198 1.387 . S
C1198 H1183 0.930 . S
C1198 C1193 1.390 . S
C1198 C1197 1.387 . S
H1199 C1211 0.930 . S
H1200 C1213 0.930 . S
H1201 C1214 0.930 . S
H1202 C1218 0.959 . S
H1203 C1218 0.959 . S
H1204 C1218 0.961 . S
H1205 C1219 0.960 . S
H1206 C1219 0.961 . S
H1207 C1219 0.959 . S
H1208 C1222 0.929 . S
H1209 C1223 0.931 . S
H1210 C1225 0.930 . S
C1211 H1199 0.930 . S
C1211 C1212 1.399 . S
C1211 C1216 1.399 . S
C1212 C1211 1.399 . S
C1212 C1213 1.376 . S
C1213 H1200 0.930 . S
C1213 C1212 1.376 . S
C1213 C1214 1.388 . S
C1214 H1201 0.930 . S
C1214 C1213 1.388 . S
C1214 C1215 1.390 . S
C1215 C1214 1.390 . S
C1215 C1216 1.394 . S
C1215 C1221 1.465 . S
C1216 C1211 1.399 . S
C1216 C1215 1.394 . S
C1216 C1217 1.516 . S
C1217 C1216 1.516 . S
C1217 C1218 1.502 . S
C1217 C1219 1.561 . S
C1217 C1220 1.526 . S
C1218 H1202 0.959 . S
C1218 H1203 0.959 . S
C1218 H1204 0.961 . S
C1218 C1217 1.502 . S
C1219 H1205 0.960 . S
C1219 H1206 0.961 . S
C1219 H1207 0.959 . S
C1219 C1217 1.561 . S
C1220 C1217 1.526 . S
C1220 C1221 1.396 . S
C1220 C1225 1.390 . S
C1221 C1215 1.465 . S
C1221 C1220 1.396 . S
C1221 C1222 1.399 . S
C1222 H1208 0.929 . S
C1222 C1221 1.399 . S
C1222 C1223 1.385 . S
C1223 H1209 0.931 . S
C1223 C1222 1.385 . S
C1223 C1224 1.389 . S
C1224 C1223 1.389 . S
C1224 C1225 1.387 . S
C1225 H1210 0.930 . S
C1225 C1220 1.390 . S
C1225 C1224 1.387 . S
H1226 C1238 0.930 . S
H1227 C1240 0.930 . S
H1228 C1241 0.930 . S
H1229 C1245 0.959 . S
H1230 C1245 0.959 . S
H1231 C1245 0.961 . S
H1232 C1246 0.960 . S
H1233 C1246 0.961 . S
H1234 C1246 0.959 . S
H1235 C1249 0.929 . S
H1236 C1250 0.931 . S
H1237 C1252 0.930 . S
C1238 H1226 0.930 . S
C1238 C1239 1.399 . S
C1238 C1243 1.399 . S
C1239 C1238 1.399 . S
C1239 C1240 1.376 . S
C1240 H1227 0.930 . S
C1240 C1239 1.376 . S
C1240 C1241 1.388 . S
C1241 H1228 0.930 . S
C1241 C1240 1.388 . S
C1241 C1242 1.390 . S
C1242 C1241 1.390 . S
C1242 C1243 1.394 . S
C1242 C1248 1.465 . S
C1243 C1238 1.399 . S
C1243 C1242 1.394 . S
C1243 C1244 1.516 . S
C1244 C1243 1.516 . S
C1244 C1245 1.502 . S
C1244 C1246 1.561 . S
C1244 C1247 1.526 . S
C1245 H1229 0.959 . S
C1245 H1230 0.959 . S
C1245 H1231 0.961 . S
C1245 C1244 1.502 . S
C1246 H1232 0.960 . S
C1246 H1233 0.961 . S
C1246 H1234 0.959 . S
C1246 C1244 1.561 . S
C1247 C1244 1.526 . S
C1247 C1248 1.396 . S
C1247 C1252 1.390 . S
C1248 C1242 1.465 . S
C1248 C1247 1.396 . S
C1248 C1249 1.399 . S
C1249 H1235 0.929 . S
C1249 C1248 1.399 . S
C1249 C1250 1.385 . S
C1250 H1236 0.931 . S
C1250 C1249 1.385 . S
C1250 C1251 1.389 . S
C1251 C1250 1.389 . S
C1251 C1252 1.387 . S
C1252 H1237 0.930 . S
C1252 C1247 1.390 . S
C1252 C1251 1.387 . S
H1253 C1265 0.930 . S
H1254 C1267 0.930 . S
H1255 C1268 0.930 . S
H1256 C1272 0.959 . S
H1257 C1272 0.959 . S
H1258 C1272 0.961 . S
H1259 C1273 0.960 . S
H1260 C1273 0.961 . S
H1261 C1273 0.959 . S
H1262 C1276 0.929 . S
H1263 C1277 0.931 . S
H1264 C1279 0.930 . S
C1265 H1253 0.930 . S
C1265 C1266 1.399 . S
C1265 C1270 1.399 . S
C1266 C1265 1.399 . S
C1266 C1267 1.376 . S
C1267 H1254 0.930 . S
C1267 C1266 1.376 . S
C1267 C1268 1.388 . S
C1268 H1255 0.930 . S
C1268 C1267 1.388 . S
C1268 C1269 1.390 . S
C1269 C1268 1.390 . S
C1269 C1270 1.394 . S
C1269 C1275 1.465 . S
C1270 C1265 1.399 . S
C1270 C1269 1.394 . S
C1270 C1271 1.516 . S
C1271 C1270 1.516 . S
C1271 C1272 1.502 . S
C1271 C1273 1.561 . S
C1271 C1274 1.526 . S
C1272 H1256 0.959 . S
C1272 H1257 0.959 . S
C1272 H1258 0.961 . S
C1272 C1271 1.502 . S
C1273 H1259 0.960 . S
C1273 H1260 0.961 . S
C1273 H1261 0.959 . S
C1273 C1271 1.561 . S
C1274 C1271 1.526 . S
C1274 C1275 1.396 . S
C1274 C1279 1.390 . S
C1275 C1269 1.465 . S
C1275 C1274 1.396 . S
C1275 C1276 1.399 . S
C1276 H1262 0.929 . S
C1276 C1275 1.399 . S
C1276 C1277 1.385 . S
C1277 H1263 0.931 . S
C1277 C1276 1.385 . S
C1277 C1278 1.389 . S
C1278 C1277 1.389 . S
C1278 C1279 1.387 . S
C1279 H1264 0.930 . S
C1279 C1274 1.390 . S
C1279 C1278 1.387 . S
H1280 C1292 0.930 . S
H1281 C1294 0.930 . S
H1282 C1295 0.930 . S
H1283 C1299 0.959 . S
H1284 C1299 0.959 . S
H1285 C1299 0.961 . S
H1286 C1300 0.960 . S
H1287 C1300 0.961 . S
H1288 C1300 0.959 . S
H1289 C1303 0.929 . S
H1290 C1304 0.931 . S
H1291 C1306 0.930 . S
C1292 H1280 0.930 . S
C1292 C1293 1.399 . S
C1292 C1297 1.399 . S
C1293 C1292 1.399 . S
C1293 C1294 1.376 . S
C1294 H1281 0.930 . S
C1294 C1293 1.376 . S
C1294 C1295 1.388 . S
C1295 H1282 0.930 . S
C1295 C1294 1.388 . S
C1295 C1296 1.390 . S
C1296 C1295 1.390 . S
C1296 C1297 1.394 . S
C1296 C1302 1.465 . S
C1297 C1292 1.399 . S
C1297 C1296 1.394 . S
C1297 C1298 1.516 . S
C1298 C1297 1.516 . S
C1298 C1299 1.502 . S
C1298 C1300 1.561 . S
C1298 C1301 1.526 . S
C1299 H1283 0.959 . S
C1299 H1284 0.959 . S
C1299 H1285 0.961 . S
C1299 C1298 1.502 . S
C1300 H1286 0.960 . S
C1300 H1287 0.961 . S
C1300 H1288 0.959 . S
C1300 C1298 1.561 . S
C1301 C1298 1.526 . S
C1301 C1302 1.396 . S
C1301 C1306 1.390 . S
C1302 C1296 1.465 . S
C1302 C1301 1.396 . S
C1302 C1303 1.399 . S
C1303 H1289 0.929 . S
C1303 C1302 1.399 . S
C1303 C1304 1.385 . S
C1304 H1290 0.931 . S
C1304 C1303 1.385 . S
C1304 C1305 1.389 . S
C1305 C1304 1.389 . S
C1305 C1306 1.387 . S
C1306 H1291 0.930 . S
C1306 C1301 1.390 . S
C1306 C1305 1.387 . S
H1307 C1319 0.930 . S
H1308 C1321 0.930 . S
H1309 C1322 0.930 . S
H1310 C1326 0.959 . S
H1311 C1326 0.959 . S
H1312 C1326 0.961 . S
H1313 C1327 0.960 . S
H1314 C1327 0.961 . S
H1315 C1327 0.959 . S
H1316 C1330 0.929 . S
H1317 C1331 0.931 . S
H1318 C1333 0.930 . S
C1319 H1307 0.930 . S
C1319 C1320 1.399 . S
C1319 C1324 1.399 . S
C1320 C1319 1.399 . S
C1320 C1321 1.376 . S
C1321 H1308 0.930 . S
C1321 C1320 1.376 . S
C1321 C1322 1.388 . S
C1322 H1309 0.930 . S
C1322 C1321 1.388 . S
C1322 C1323 1.390 . S
C1323 C1322 1.390 . S
C1323 C1324 1.394 . S
C1323 C1329 1.465 . S
C1324 C1319 1.399 . S
C1324 C1323 1.394 . S
C1324 C1325 1.516 . S
C1325 C1324 1.516 . S
C1325 C1326 1.502 . S
C1325 C1327 1.561 . S
C1325 C1328 1.526 . S
C1326 H1310 0.959 . S
C1326 H1311 0.959 . S
C1326 H1312 0.961 . S
C1326 C1325 1.502 . S
C1327 H1313 0.960 . S
C1327 H1314 0.961 . S
C1327 H1315 0.959 . S
C1327 C1325 1.561 . S
C1328 C1325 1.526 . S
C1328 C1329 1.396 . S
C1328 C1333 1.390 . S
C1329 C1323 1.465 . S
C1329 C1328 1.396 . S
C1329 C1330 1.399 . S
C1330 H1316 0.929 . S
C1330 C1329 1.399 . S
C1330 C1331 1.385 . S
C1331 H1317 0.931 . S
C1331 C1330 1.385 . S
C1331 C1332 1.389 . S
C1332 C1331 1.389 . S
C1332 C1333 1.387 . S
C1333 H1318 0.930 . S
C1333 C1328 1.390 . S
C1333 C1332 1.387 . S
H1334 C1346 0.930 . S
H1335 C1348 0.930 . S
H1336 C1349 0.930 . S
H1337 C1353 0.959 . S
H1338 C1353 0.959 . S
H1339 C1353 0.961 . S
H1340 C1354 0.960 . S
H1341 C1354 0.961 . S
H1342 C1354 0.959 . S
H1343 C1357 0.929 . S
H1344 C1358 0.931 . S
H1345 C1360 0.930 . S
C1346 H1334 0.930 . S
C1346 C1347 1.399 . S
C1346 C1351 1.399 . S
C1347 C1346 1.399 . S
C1347 C1348 1.376 . S
C1348 H1335 0.930 . S
C1348 C1347 1.376 . S
C1348 C1349 1.388 . S
C1349 H1336 0.930 . S
C1349 C1348 1.388 . S
C1349 C1350 1.390 . S
C1350 C1349 1.390 . S
C1350 C1351 1.394 . S
C1350 C1356 1.465 . S
C1351 C1346 1.399 . S
C1351 C1350 1.394 . S
C1351 C1352 1.516 . S
C1352 C1351 1.516 . S
C1352 C1353 1.502 . S
C1352 C1354 1.561 . S
C1352 C1355 1.526 . S
C1353 H1337 0.959 . S
C1353 H1338 0.959 . S
C1353 H1339 0.961 . S
C1353 C1352 1.502 . S
C1354 H1340 0.960 . S
C1354 H1341 0.961 . S
C1354 H1342 0.959 . S
C1354 C1352 1.561 . S
C1355 C1352 1.526 . S
C1355 C1356 1.396 . S
C1355 C1360 1.390 . S
C1356 C1350 1.465 . S
C1356 C1355 1.396 . S
C1356 C1357 1.399 . S
C1357 H1343 0.929 . S
C1357 C1356 1.399 . S
C1357 C1358 1.385 . S
C1358 H1344 0.931 . S
C1358 C1357 1.385 . S
C1358 C1359 1.389 . S
C1359 C1358 1.389 . S
C1359 C1360 1.387 . S
C1360 H1345 0.930 . S
C1360 C1355 1.390 . S
C1360 C1359 1.387 . S
H1361 C1373 0.930 . S
H1362 C1375 0.930 . S
H1363 C1376 0.930 . S
H1364 C1380 0.959 . S
H1365 C1380 0.959 . S
H1366 C1380 0.961 . S
H1367 C1381 0.960 . S
H1368 C1381 0.961 . S
H1369 C1381 0.959 . S
H1370 C1384 0.929 . S
H1371 C1385 0.931 . S
H1372 C1387 0.930 . S
C1373 H1361 0.930 . S
C1373 C1374 1.399 . S
C1373 C1378 1.399 . S
C1374 C1373 1.399 . S
C1374 C1375 1.376 . S
C1375 H1362 0.930 . S
C1375 C1374 1.376 . S
C1375 C1376 1.388 . S
C1376 H1363 0.930 . S
C1376 C1375 1.388 . S
C1376 C1377 1.390 . S
C1377 C1376 1.390 . S
C1377 C1378 1.394 . S
C1377 C1383 1.465 . S
C1378 C1373 1.399 . S
C1378 C1377 1.394 . S
C1378 C1379 1.516 . S
C1379 C1378 1.516 . S
C1379 C1380 1.502 . S
C1379 C1381 1.561 . S
C1379 C1382 1.526 . S
C1380 H1364 0.959 . S
C1380 H1365 0.959 . S
C1380 H1366 0.961 . S
C1380 C1379 1.502 . S
C1381 H1367 0.960 . S
C1381 H1368 0.961 . S
C1381 H1369 0.959 . S
C1381 C1379 1.561 . S
C1382 C1379 1.526 . S
C1382 C1383 1.396 . S
C1382 C1387 1.390 . S
C1383 C1377 1.465 . S
C1383 C1382 1.396 . S
C1383 C1384 1.399 . S
C1384 H1370 0.929 . S
C1384 C1383 1.399 . S
C1384 C1385 1.385 . S
C1385 H1371 0.931 . S
C1385 C1384 1.385 . S
C1385 C1386 1.389 . S
C1386 C1385 1.389 . S
C1386 C1387 1.387 . S
C1387 H1372 0.930 . S
C1387 C1382 1.390 . S
C1387 C1386 1.387 . S
H1388 C1400 0.930 . S
H1389 C1402 0.930 . S
H1390 C1403 0.930 . S
H1391 C1407 0.959 . S
H1392 C1407 0.959 . S
H1393 C1407 0.961 . S
H1394 C1408 0.960 . S
H1395 C1408 0.961 . S
H1396 C1408 0.959 . S
H1397 C1411 0.929 . S
H1398 C1412 0.931 . S
H1399 C1414 0.930 . S
C1400 H1388 0.930 . S
C1400 C1401 1.399 . S
C1400 C1405 1.399 . S
C1401 C1400 1.399 . S
C1401 C1402 1.376 . S
C1402 H1389 0.930 . S
C1402 C1401 1.376 . S
C1402 C1403 1.388 . S
C1403 H1390 0.930 . S
C1403 C1402 1.388 . S
C1403 C1404 1.390 . S
C1404 C1403 1.390 . S
C1404 C1405 1.394 . S
C1404 C1410 1.465 . S
C1405 C1400 1.399 . S
C1405 C1404 1.394 . S
C1405 C1406 1.516 . S
C1406 C1405 1.516 . S
C1406 C1407 1.502 . S
C1406 C1408 1.561 . S
C1406 C1409 1.526 . S
C1407 H1391 0.959 . S
C1407 H1392 0.959 . S
C1407 H1393 0.961 . S
C1407 C1406 1.502 . S
C1408 H1394 0.960 . S
C1408 H1395 0.961 . S
C1408 H1396 0.959 . S
C1408 C1406 1.561 . S
C1409 C1406 1.526 . S
C1409 C1410 1.396 . S
C1409 C1414 1.390 . S
C1410 C1404 1.465 . S
C1410 C1409 1.396 . S
C1410 C1411 1.399 . S
C1411 H1397 0.929 . S
C1411 C1410 1.399 . S
C1411 C1412 1.385 . S
C1412 H1398 0.931 . S
C1412 C1411 1.385 . S
C1412 C1413 1.389 . S
C1413 C1412 1.389 . S
C1413 C1414 1.387 . S
C1414 H1399 0.930 . S
C1414 C1409 1.390 . S
C1414 C1413 1.387 . S
H1415 C1427 0.930 . S
H1416 C1429 0.930 . S
H1417 C1430 0.930 . S
H1418 C1434 0.959 . S
H1419 C1434 0.959 . S
H1420 C1434 0.961 . S
H1421 C1435 0.960 . S
H1422 C1435 0.961 . S
H1423 C1435 0.959 . S
H1424 C1438 0.929 . S
H1425 C1439 0.931 . S
H1426 C1441 0.930 . S
C1427 H1415 0.930 . S
C1427 C1428 1.399 . S
C1427 C1432 1.399 . S
C1428 C1427 1.399 . S
C1428 C1429 1.376 . S
C1429 H1416 0.930 . S
C1429 C1428 1.376 . S
C1429 C1430 1.388 . S
C1430 H1417 0.930 . S
C1430 C1429 1.388 . S
C1430 C1431 1.390 . S
C1431 C1430 1.390 . S
C1431 C1432 1.394 . S
C1431 C1437 1.465 . S
C1432 C1427 1.399 . S
C1432 C1431 1.394 . S
C1432 C1433 1.516 . S
C1433 C1432 1.516 . S
C1433 C1434 1.502 . S
C1433 C1435 1.561 . S
C1433 C1436 1.526 . S
C1434 H1418 0.959 . S
C1434 H1419 0.959 . S
C1434 H1420 0.961 . S
C1434 C1433 1.502 . S
C1435 H1421 0.960 . S
C1435 H1422 0.961 . S
C1435 H1423 0.959 . S
C1435 C1433 1.561 . S
C1436 C1433 1.526 . S
C1436 C1437 1.396 . S
C1436 C1441 1.390 . S
C1437 C1431 1.465 . S
C1437 C1436 1.396 . S
C1437 C1438 1.399 . S
C1438 H1424 0.929 . S
C1438 C1437 1.399 . S
C1438 C1439 1.385 . S
C1439 H1425 0.931 . S
C1439 C1438 1.385 . S
C1439 C1440 1.389 . S
C1440 C1439 1.389 . S
C1440 C1441 1.387 . S
C1441 H1426 0.930 . S
C1441 C1436 1.390 . S
C1441 C1440 1.387 . S
H1442 C1454 0.930 . S
H1443 C1456 0.930 . S
H1444 C1457 0.930 . S
H1445 C1461 0.959 . S
H1446 C1461 0.959 . S
H1447 C1461 0.961 . S
H1448 C1462 0.960 . S
H1449 C1462 0.961 . S
H1450 C1462 0.959 . S
H1451 C1465 0.929 . S
H1452 C1466 0.931 . S
H1453 C1468 0.930 . S
C1454 H1442 0.930 . S
C1454 C1455 1.399 . S
C1454 C1459 1.399 . S
C1455 C1454 1.399 . S
C1455 C1456 1.376 . S
C1456 H1443 0.930 . S
C1456 C1455 1.376 . S
C1456 C1457 1.388 . S
C1457 H1444 0.930 . S
C1457 C1456 1.388 . S
C1457 C1458 1.390 . S
C1458 C1457 1.390 . S
C1458 C1459 1.394 . S
C1458 C1464 1.465 . S
C1459 C1454 1.399 . S
C1459 C1458 1.394 . S
C1459 C1460 1.516 . S
C1460 C1459 1.516 . S
C1460 C1461 1.502 . S
C1460 C1462 1.561 . S
C1460 C1463 1.526 . S
C1461 H1445 0.959 . S
C1461 H1446 0.959 . S
C1461 H1447 0.961 . S
C1461 C1460 1.502 . S
C1462 H1448 0.960 . S
C1462 H1449 0.961 . S
C1462 H1450 0.959 . S
C1462 C1460 1.561 . S
C1463 C1460 1.526 . S
C1463 C1464 1.396 . S
C1463 C1468 1.390 . S
C1464 C1458 1.465 . S
C1464 C1463 1.396 . S
C1464 C1465 1.399 . S
C1465 H1451 0.929 . S
C1465 C1464 1.399 . S
C1465 C1466 1.385 . S
C1466 H1452 0.931 . S
C1466 C1465 1.385 . S
C1466 C1467 1.389 . S
C1467 C1466 1.389 . S
C1467 C1468 1.387 . S
C1468 H1453 0.930 . S
C1468 C1463 1.390 . S
C1468 C1467 1.387 . S
H1469 C1481 0.930 . S
H1470 C1483 0.930 . S
H1471 C1484 0.930 . S
H1472 C1488 0.959 . S
H1473 C1488 0.959 . S
H1474 C1488 0.961 . S
H1475 C1489 0.960 . S
H1476 C1489 0.961 . S
H1477 C1489 0.959 . S
H1478 C1492 0.929 . S
H1479 C1493 0.931 . S
H1480 C1495 0.930 . S
C1481 H1469 0.930 . S
C1481 C1482 1.399 . S
C1481 C1486 1.399 . S
C1482 C1481 1.399 . S
C1482 C1483 1.376 . S
C1483 H1470 0.930 . S
C1483 C1482 1.376 . S
C1483 C1484 1.388 . S
C1484 H1471 0.930 . S
C1484 C1483 1.388 . S
C1484 C1485 1.390 . S
C1485 C1484 1.390 . S
C1485 C1486 1.394 . S
C1485 C1491 1.465 . S
C1486 C1481 1.399 . S
C1486 C1485 1.394 . S
C1486 C1487 1.516 . S
C1487 C1486 1.516 . S
C1487 C1488 1.502 . S
C1487 C1489 1.561 . S
C1487 C1490 1.526 . S
C1488 H1472 0.959 . S
C1488 H1473 0.959 . S
C1488 H1474 0.961 . S
C1488 C1487 1.502 . S
C1489 H1475 0.960 . S
C1489 H1476 0.961 . S
C1489 H1477 0.959 . S
C1489 C1487 1.561 . S
C1490 C1487 1.526 . S
C1490 C1491 1.396 . S
C1490 C1495 1.390 . S
C1491 C1485 1.465 . S
C1491 C1490 1.396 . S
C1491 C1492 1.399 . S
C1492 H1478 0.929 . S
C1492 C1491 1.399 . S
C1492 C1493 1.385 . S
C1493 H1479 0.931 . S
C1493 C1492 1.385 . S
C1493 C1494 1.389 . S
C1494 C1493 1.389 . S
C1494 C1495 1.387 . S
C1495 H1480 0.930 . S
C1495 C1490 1.390 . S
C1495 C1494 1.387 . S
H1496 C1508 0.930 . S
H1497 C1510 0.930 . S
H1498 C1511 0.930 . S
H1499 C1515 0.959 . S
H1500 C1515 0.959 . S
H1501 C1515 0.961 1_554 S
H1502 C1516 0.960 1_554 S
H1503 C1516 0.961 . S
H1504 C1516 0.959 . S
H1505 C1519 0.929 . S
H1506 C1520 0.931 . S
H1507 C1522 0.930 . S
C1508 H1496 0.930 . S
C1508 C1509 1.399 . S
C1508 C1513 1.399 . S
C1509 C1508 1.399 . S
C1509 C1510 1.376 . S
C1510 H1497 0.930 . S
C1510 C1509 1.376 . S
C1510 C1511 1.388 . S
C1511 H1498 0.930 . S
C1511 C1510 1.388 . S
C1511 C1512 1.390 . S
C1512 C1511 1.390 . S
C1512 C1513 1.394 . S
C1512 C1518 1.465 1_554 S
C1513 C1508 1.399 . S
C1513 C1512 1.394 . S
C1513 C1514 1.516 1_554 S
C1514 C1513 1.516 1_556 S
C1514 C1515 1.502 . S
C1514 C1516 1.561 . S
C1514 C1517 1.526 . S
C1515 H1499 0.959 . S
C1515 H1500 0.959 . S
C1515 H1501 0.961 1_556 S
C1515 C1514 1.502 . S
C1516 H1502 0.960 1_556 S
C1516 H1503 0.961 . S
C1516 H1504 0.959 . S
C1516 C1514 1.561 . S
C1517 C1514 1.526 . S
C1517 C1518 1.396 . S
C1517 C1522 1.390 . S
C1518 C1512 1.465 1_556 S
C1518 C1517 1.396 . S
C1518 C1519 1.399 . S
C1519 H1505 0.929 . S
C1519 C1518 1.399 . S
C1519 C1520 1.385 . S
C1520 H1506 0.931 . S
C1520 C1519 1.385 . S
C1520 C1521 1.389 . S
C1521 C1520 1.389 . S
C1521 C1522 1.387 . S
C1522 H1507 0.930 . S
C1522 C1517 1.390 . S
C1522 C1521 1.387 . S
H1523 C1535 0.930 . S
H1524 C1537 0.930 . S
H1525 C1538 0.930 . S
H1526 C1542 0.959 . S
H1527 C1542 0.959 . S
H1528 C1542 0.961 1_556 S
H1529 C1543 0.960 1_556 S
H1530 C1543 0.961 . S
H1531 C1543 0.959 . S
H1532 C1546 0.929 . S
H1533 C1547 0.931 . S
H1534 C1549 0.930 . S
C1535 H1523 0.930 . S
C1535 C1536 1.399 . S
C1535 C1540 1.399 . S
C1536 C1535 1.399 . S
C1536 C1537 1.376 . S
C1537 H1524 0.930 . S
C1537 C1536 1.376 . S
C1537 C1538 1.388 . S
C1538 H1525 0.930 . S
C1538 C1537 1.388 . S
C1538 C1539 1.390 . S
C1539 C1538 1.390 . S
C1539 C1540 1.394 . S
C1539 C1545 1.465 1_556 S
C1540 C1535 1.399 . S
C1540 C1539 1.394 . S
C1540 C1541 1.516 1_556 S
C1541 C1540 1.516 1_554 S
C1541 C1542 1.502 . S
C1541 C1543 1.561 . S
C1541 C1544 1.526 . S
C1542 H1526 0.959 . S
C1542 H1527 0.959 . S
C1542 H1528 0.961 1_554 S
C1542 C1541 1.502 . S
C1543 H1529 0.960 1_554 S
C1543 H1530 0.961 . S
C1543 H1531 0.959 . S
C1543 C1541 1.561 . S
C1544 C1541 1.526 . S
C1544 C1545 1.396 . S
C1544 C1549 1.390 . S
C1545 C1539 1.465 1_554 S
C1545 C1544 1.396 . S
C1545 C1546 1.399 . S
C1546 H1532 0.929 . S
C1546 C1545 1.399 . S
C1546 C1547 1.385 . S
C1547 H1533 0.931 . S
C1547 C1546 1.385 . S
C1547 C1548 1.389 . S
C1548 C1547 1.389 . S
C1548 C1549 1.387 . S
C1549 H1534 0.930 . S
C1549 C1544 1.390 . S
C1549 C1548 1.387 . S
H1550 C1562 0.930 . S
H1551 C1564 0.930 . S
H1552 C1565 0.930 . S
H1553 C1569 0.959 . S
H1554 C1569 0.959 . S
H1555 C1569 0.961 1_554 S
H1556 C1570 0.960 1_554 S
H1557 C1570 0.961 . S
H1558 C1570 0.959 . S
H1559 C1573 0.929 . S
H1560 C1574 0.931 . S
H1561 C1576 0.930 . S
C1562 H1550 0.930 . S
C1562 C1563 1.399 . S
C1562 C1567 1.399 . S
C1563 C1562 1.399 . S
C1563 C1564 1.376 . S
C1564 H1551 0.930 . S
C1564 C1563 1.376 . S
C1564 C1565 1.388 . S
C1565 H1552 0.930 . S
C1565 C1564 1.388 . S
C1565 C1566 1.390 . S
C1566 C1565 1.390 . S
C1566 C1567 1.394 . S
C1566 C1572 1.465 1_554 S
C1567 C1562 1.399 . S
C1567 C1566 1.394 . S
C1567 C1568 1.516 1_554 S
C1568 C1567 1.516 1_556 S
C1568 C1569 1.502 . S
C1568 C1570 1.561 . S
C1568 C1571 1.526 . S
C1569 H1553 0.959 . S
C1569 H1554 0.959 . S
C1569 H1555 0.961 1_556 S
C1569 C1568 1.502 . S
C1570 H1556 0.960 1_556 S
C1570 H1557 0.961 . S
C1570 H1558 0.959 . S
C1570 C1568 1.561 . S
C1571 C1568 1.526 . S
C1571 C1572 1.396 . S
C1571 C1576 1.390 . S
C1572 C1566 1.465 1_556 S
C1572 C1571 1.396 . S
C1572 C1573 1.399 . S
C1573 H1559 0.929 . S
C1573 C1572 1.399 . S
C1573 C1574 1.385 . S
C1574 H1560 0.931 . S
C1574 C1573 1.385 . S
C1574 C1575 1.389 . S
C1575 C1574 1.389 . S
C1575 C1576 1.387 . S
C1576 H1561 0.930 . S
C1576 C1571 1.390 . S
C1576 C1575 1.387 . S
H1577 C1589 0.930 . S
H1578 C1591 0.930 . S
H1579 C1592 0.930 . S
H1580 C1596 0.959 . S
H1581 C1596 0.959 1_556 S
H1582 C1596 0.961 . S
H1583 C1597 0.960 . S
H1584 C1597 0.961 1_556 S
H1585 C1597 0.959 . S
H1586 C1600 0.929 . S
H1587 C1601 0.931 . S
H1588 C1603 0.930 . S
C1589 H1577 0.930 . S
C1589 C1590 1.399 . S
C1589 C1594 1.399 . S
C1590 C1589 1.399 . S
C1590 C1591 1.376 . S
C1591 H1578 0.930 . S
C1591 C1590 1.376 . S
C1591 C1592 1.388 . S
C1592 H1579 0.930 . S
C1592 C1591 1.388 . S
C1592 C1593 1.390 . S
C1593 C1592 1.390 . S
C1593 C1594 1.394 . S
C1593 C1599 1.465 1_554 S
C1594 C1589 1.399 . S
C1594 C1593 1.394 . S
C1594 C1595 1.516 . S
C1595 C1594 1.516 . S
C1595 C1596 1.502 . S
C1595 C1597 1.561 . S
C1595 C1598 1.526 1_554 S
C1596 H1580 0.959 . S
C1596 H1581 0.959 1_554 S
C1596 H1582 0.961 . S
C1596 C1595 1.502 . S
C1597 H1583 0.960 . S
C1597 H1584 0.961 1_554 S
C1597 H1585 0.959 . S
C1597 C1595 1.561 . S
C1598 C1595 1.526 1_556 S
C1598 C1599 1.396 . S
C1598 C1603 1.390 . S
C1599 C1593 1.465 1_556 S
C1599 C1598 1.396 . S
C1599 C1600 1.399 . S
C1600 H1586 0.929 . S
C1600 C1599 1.399 . S
C1600 C1601 1.385 . S
C1601 H1587 0.931 . S
C1601 C1600 1.385 . S
C1601 C1602 1.389 . S
C1602 C1601 1.389 . S
C1602 C1603 1.387 . S
C1603 H1588 0.930 . S
C1603 C1598 1.390 . S
C1603 C1602 1.387 . S
H1604 C1616 0.930 . S
H1605 C1618 0.930 . S
H1606 C1619 0.930 . S
H1607 C1623 0.959 . S
H1608 C1623 0.959 1_556 S
H1609 C1623 0.961 . S
H1610 C1624 0.960 . S
H1611 C1624 0.961 1_556 S
H1612 C1624 0.964 . S
H1613 C1627 0.929 . S
H1614 C1628 0.931 . S
H1615 C1630 0.930 . S
C1616 H1604 0.930 . S
C1616 C1617 1.399 . S
C1616 C1621 1.399 . S
C1617 C1616 1.399 . S
C1617 C1618 1.376 . S
C1618 H1605 0.930 . S
C1618 C1617 1.376 . S
C1618 C1619 1.388 . S
C1619 H1606 0.930 . S
C1619 C1618 1.388 . S
C1619 C1620 1.390 . S
C1620 C1619 1.390 . S
C1620 C1621 1.394 . S
C1620 C1626 1.465 1_554 S
C1621 C1616 1.399 . S
C1621 C1620 1.394 . S
C1621 C1622 1.516 . S
C1622 C1621 1.516 . S
C1622 C1623 1.502 . S
C1622 C1624 1.561 . S
C1622 C1625 1.526 1_554 S
C1623 H1607 0.959 . S
C1623 H1608 0.959 1_554 S
C1623 H1609 0.961 . S
C1623 C1622 1.502 . S
C1624 H1610 0.960 . S
C1624 H1611 0.961 1_554 S
C1624 H1612 0.964 . S
C1624 C1622 1.561 . S
C1625 C1622 1.526 1_556 S
C1625 C1626 1.396 . S
C1625 C1630 1.390 . S
C1626 C1620 1.465 1_556 S
C1626 C1625 1.396 . S
C1626 C1627 1.399 . S
C1627 H1613 0.929 . S
C1627 C1626 1.399 . S
C1627 C1628 1.385 . S
C1628 H1614 0.931 . S
C1628 C1627 1.385 . S
C1628 C1629 1.389 . S
C1629 C1628 1.389 . S
C1629 C1630 1.387 . S
C1630 H1615 0.930 . S
C1630 C1625 1.390 . S
C1630 C1629 1.387 . S
H1631 C1643 0.930 . S
H1632 C1645 0.930 . S
H1633 C1646 0.930 . S
H1634 C1650 0.959 . S
H1635 C1650 0.959 . S
H1636 C1650 0.961 1_554 S
H1637 C1651 0.960 1_554 S
H1638 C1651 0.961 . S
H1639 C1651 0.959 . S
H1640 C1654 0.929 . S
H1641 C1655 0.931 . S
H1642 C1657 0.930 . S
C1643 H1631 0.930 . S
C1643 C1644 1.399 . S
C1643 C1648 1.399 . S
C1644 C1643 1.399 . S
C1644 C1645 1.376 . S
C1645 H1632 0.930 . S
C1645 C1644 1.376 . S
C1645 C1646 1.388 . S
C1646 H1633 0.930 . S
C1646 C1645 1.388 . S
C1646 C1647 1.390 . S
C1647 C1646 1.390 . S
C1647 C1648 1.394 . S
C1647 C1653 1.465 1_554 S
C1648 C1643 1.399 . S
C1648 C1647 1.394 . S
C1648 C1649 1.516 1_554 S
C1649 C1648 1.516 1_556 S
C1649 C1650 1.502 . S
C1649 C1651 1.561 . S
C1649 C1652 1.526 . S
C1650 H1634 0.959 . S
C1650 H1635 0.959 . S
C1650 H1636 0.961 1_556 S
C1650 C1649 1.502 . S
C1651 H1637 0.960 1_556 S
C1651 H1638 0.961 . S
C1651 H1639 0.959 . S
C1651 C1649 1.561 . S
C1652 C1649 1.526 . S
C1652 C1653 1.396 . S
C1652 C1657 1.390 . S
C1653 C1647 1.465 1_556 S
C1653 C1652 1.396 . S
C1653 C1654 1.399 . S
C1654 H1640 0.929 . S
C1654 C1653 1.399 . S
C1654 C1655 1.385 . S
C1655 H1641 0.931 . S
C1655 C1654 1.385 . S
C1655 C1656 1.389 . S
C1656 C1655 1.389 . S
C1656 C1657 1.387 . S
C1657 H1642 0.930 . S
C1657 C1652 1.390 . S
C1657 C1656 1.387 . S
H1658 C1670 0.930 . S
H1659 C1672 0.930 . S
H1660 C1673 0.930 . S
H1661 C1677 0.959 . S
H1662 C1677 0.959 . S
H1663 C1677 0.961 1_556 S
H1664 C1678 0.960 1_556 S
H1665 C1678 0.961 . S
H1666 C1678 0.959 . S
H1667 C1681 0.929 . S
H1668 C1682 0.931 . S
H1669 C1684 0.930 . S
C1670 H1658 0.930 . S
C1670 C1671 1.399 . S
C1670 C1675 1.399 . S
C1671 C1670 1.399 . S
C1671 C1672 1.376 . S
C1672 H1659 0.930 . S
C1672 C1671 1.376 . S
C1672 C1673 1.388 . S
C1673 H1660 0.930 . S
C1673 C1672 1.388 . S
C1673 C1674 1.390 . S
C1674 C1673 1.390 . S
C1674 C1675 1.394 . S
C1674 C1680 1.465 1_556 S
C1675 C1670 1.399 . S
C1675 C1674 1.394 . S
C1675 C1676 1.516 1_556 S
C1676 C1675 1.516 1_554 S
C1676 C1677 1.502 . S
C1676 C1678 1.561 . S
C1676 C1679 1.526 . S
C1677 H1661 0.959 . S
C1677 H1662 0.959 . S
C1677 H1663 0.961 1_554 S
C1677 C1676 1.502 . S
C1678 H1664 0.960 1_554 S
C1678 H1665 0.961 . S
C1678 H1666 0.959 . S
C1678 C1676 1.561 . S
C1679 C1676 1.526 . S
C1679 C1680 1.396 . S
C1679 C1684 1.390 . S
C1680 C1674 1.465 1_554 S
C1680 C1679 1.396 . S
C1680 C1681 1.399 . S
C1681 H1667 0.929 . S
C1681 C1680 1.399 . S
C1681 C1682 1.385 . S
C1682 H1668 0.931 . S
C1682 C1681 1.385 . S
C1682 C1683 1.389 . S
C1683 C1682 1.389 . S
C1683 C1684 1.387 . S
C1684 H1669 0.930 . S
C1684 C1679 1.390 . S
C1684 C1683 1.387 . S
H1685 C1697 0.930 . S
H1686 C1699 0.930 . S
H1687 C1700 0.930 . S
H1688 C1704 0.959 . S
H1689 C1704 0.959 1_554 S
H1690 C1704 0.961 . S
H1691 C1705 0.960 . S
H1692 C1705 0.961 1_554 S
H1693 C1705 0.959 . S
H1694 C1708 0.929 . S
H1695 C1709 0.931 . S
H1696 C1711 0.930 . S
C1697 H1685 0.930 . S
C1697 C1698 1.399 . S
C1697 C1702 1.399 . S
C1698 C1697 1.399 . S
C1698 C1699 1.376 . S
C1699 H1686 0.930 . S
C1699 C1698 1.376 . S
C1699 C1700 1.388 . S
C1700 H1687 0.930 . S
C1700 C1699 1.388 . S
C1700 C1701 1.390 . S
C1701 C1700 1.390 . S
C1701 C1702 1.394 . S
C1701 C1707 1.465 1_556 S
C1702 C1697 1.399 . S
C1702 C1701 1.394 . S
C1702 C1703 1.516 . S
C1703 C1702 1.516 . S
C1703 C1704 1.502 . S
C1703 C1705 1.561 . S
C1703 C1706 1.526 1_556 S
C1704 H1688 0.959 . S
C1704 H1689 0.959 1_556 S
C1704 H1690 0.961 . S
C1704 C1703 1.502 . S
C1705 H1691 0.960 . S
C1705 H1692 0.961 1_556 S
C1705 H1693 0.959 . S
C1705 C1703 1.561 . S
C1706 C1703 1.526 1_554 S
C1706 C1707 1.396 . S
C1706 C1711 1.390 . S
C1707 C1701 1.465 1_554 S
C1707 C1706 1.396 . S
C1707 C1708 1.399 . S
C1708 H1694 0.929 . S
C1708 C1707 1.399 . S
C1708 C1709 1.385 . S
C1709 H1695 0.931 . S
C1709 C1708 1.385 . S
C1709 C1710 1.389 . S
C1710 C1709 1.389 . S
C1710 C1711 1.387 . S
C1711 H1696 0.930 . S
C1711 C1706 1.390 . S
C1711 C1710 1.387 . S
H1712 C1724 0.930 . S
H1713 C1726 0.930 . S
H1714 C1727 0.930 . S
H1715 C1731 0.959 . S
H1716 C1731 0.959 . S
H1717 C1731 0.961 . S
H1718 C1732 0.960 . S
H1719 C1732 0.961 . S
H1720 C1732 0.959 . S
H1721 C1735 0.929 . S
H1722 C1736 0.931 . S
H1723 C1738 0.930 . S
C1724 H1712 0.930 . S
C1724 C1725 1.399 . S
C1724 C1729 1.399 . S
C1725 C1724 1.399 . S
C1725 C1726 1.376 . S
C1726 H1713 0.930 . S
C1726 C1725 1.376 . S
C1726 C1727 1.388 . S
C1727 H1714 0.930 . S
C1727 C1726 1.388 . S
C1727 C1728 1.390 . S
C1728 C1727 1.390 . S
C1728 C1729 1.394 . S
C1728 C1734 1.465 . S
C1729 C1724 1.399 . S
C1729 C1728 1.394 . S
C1729 C1730 1.516 . S
C1730 C1729 1.516 . S
C1730 C1731 1.502 . S
C1730 C1732 1.561 . S
C1730 C1733 1.526 . S
C1731 H1715 0.959 . S
C1731 H1716 0.959 . S
C1731 H1717 0.961 . S
C1731 C1730 1.502 . S
C1732 H1718 0.960 . S
C1732 H1719 0.961 . S
C1732 H1720 0.959 . S
C1732 C1730 1.561 . S
C1733 C1730 1.526 . S
C1733 C1734 1.396 . S
C1733 C1738 1.390 . S
C1734 C1728 1.465 . S
C1734 C1733 1.396 . S
C1734 C1735 1.399 . S
C1735 H1721 0.929 . S
C1735 C1734 1.399 . S
C1735 C1736 1.385 . S
C1736 H1722 0.931 . S
C1736 C1735 1.385 . S
C1736 C1737 1.389 . S
C1737 C1736 1.389 . S
C1737 C1738 1.387 . S
C1738 H1723 0.930 . S
C1738 C1733 1.390 . S
C1738 C1737 1.387 . S
H1739 C1751 0.930 . S
H1740 C1753 0.930 . S
H1741 C1754 0.930 . S
H1742 C1758 0.959 . S
H1743 C1758 0.959 . S
H1744 C1758 0.961 . S
H1745 C1759 0.960 . S
H1746 C1759 0.961 . S
H1747 C1759 0.959 . S
H1748 C1762 0.929 . S
H1749 C1763 0.931 . S
H1750 C1765 0.930 . S
C1751 H1739 0.930 . S
C1751 C1752 1.399 . S
C1751 C1756 1.399 . S
C1752 C1751 1.399 . S
C1752 C1753 1.376 . S
C1753 H1740 0.930 . S
C1753 C1752 1.376 . S
C1753 C1754 1.388 . S
C1754 H1741 0.930 . S
C1754 C1753 1.388 . S
C1754 C1755 1.390 . S
C1755 C1754 1.390 . S
C1755 C1756 1.394 . S
C1755 C1761 1.465 . S
C1756 C1751 1.399 . S
C1756 C1755 1.394 . S
C1756 C1757 1.516 . S
C1757 C1756 1.516 . S
C1757 C1758 1.502 . S
C1757 C1759 1.561 . S
C1757 C1760 1.526 . S
C1758 H1742 0.959 . S
C1758 H1743 0.959 . S
C1758 H1744 0.961 . S
C1758 C1757 1.502 . S
C1759 H1745 0.960 . S
C1759 H1746 0.961 . S
C1759 H1747 0.959 . S
C1759 C1757 1.561 . S
C1760 C1757 1.526 . S
C1760 C1761 1.396 . S
C1760 C1765 1.390 . S
C1761 C1755 1.465 . S
C1761 C1760 1.396 . S
C1761 C1762 1.399 . S
C1762 H1748 0.929 . S
C1762 C1761 1.399 . S
C1762 C1763 1.385 . S
C1763 H1749 0.931 . S
C1763 C1762 1.385 . S
C1763 C1764 1.389 . S
C1764 C1763 1.389 . S
C1764 C1765 1.387 . S
C1765 H1750 0.930 . S
C1765 C1760 1.390 . S
C1765 C1764 1.387 . S
H1766 C1778 0.930 . S
H1767 C1780 0.930 . S
H1768 C1781 0.930 . S
H1769 C1785 0.959 . S
H1770 C1785 0.959 . S
H1771 C1785 0.961 . S
H1772 C1786 0.960 . S
H1773 C1786 0.961 . S
H1774 C1786 0.959 . S
H1775 C1789 0.929 . S
H1776 C1790 0.931 . S
H1777 C1792 0.930 . S
C1778 H1766 0.930 . S
C1778 C1779 1.399 . S
C1778 C1783 1.399 . S
C1779 C1778 1.399 . S
C1779 C1780 1.376 . S
C1780 H1767 0.930 . S
C1780 C1779 1.376 . S
C1780 C1781 1.388 . S
C1781 H1768 0.930 . S
C1781 C1780 1.388 . S
C1781 C1782 1.390 . S
C1782 C1781 1.390 . S
C1782 C1783 1.394 . S
C1782 C1788 1.465 . S
C1783 C1778 1.399 . S
C1783 C1782 1.394 . S
C1783 C1784 1.516 . S
C1784 C1783 1.516 . S
C1784 C1785 1.502 . S
C1784 C1786 1.561 . S
C1784 C1787 1.526 . S
C1785 H1769 0.959 . S
C1785 H1770 0.959 . S
C1785 H1771 0.961 . S
C1785 C1784 1.502 . S
C1786 H1772 0.960 . S
C1786 H1773 0.961 . S
C1786 H1774 0.959 . S
C1786 C1784 1.561 . S
C1787 C1784 1.526 . S
C1787 C1788 1.396 . S
C1787 C1792 1.390 . S
C1788 C1782 1.465 . S
C1788 C1787 1.396 . S
C1788 C1789 1.399 . S
C1789 H1775 0.929 . S
C1789 C1788 1.399 . S
C1789 C1790 1.385 . S
C1790 H1776 0.931 . S
C1790 C1789 1.385 . S
C1790 C1791 1.389 . S
C1791 C1790 1.389 . S
C1791 C1792 1.387 . S
C1792 H1777 0.930 . S
C1792 C1787 1.390 . S
C1792 C1791 1.387 . S
H1793 C1805 0.930 . S
H1794 C1807 0.930 . S
H1795 C1808 0.930 . S
H1796 C1812 0.959 . S
H1797 C1812 0.959 . S
H1798 C1812 0.961 . S
H1799 C1813 0.960 . S
H1800 C1813 0.961 . S
H1801 C1813 0.959 . S
H1802 C1816 0.929 . S
H1803 C1817 0.931 . S
H1804 C1819 0.930 . S
C1805 H1793 0.930 . S
C1805 C1806 1.399 . S
C1805 C1810 1.399 . S
C1806 C1805 1.399 . S
C1806 C1807 1.376 . S
C1807 H1794 0.930 . S
C1807 C1806 1.376 . S
C1807 C1808 1.388 . S
C1808 H1795 0.930 . S
C1808 C1807 1.388 . S
C1808 C1809 1.390 . S
C1809 C1808 1.390 . S
C1809 C1810 1.394 . S
C1809 C1815 1.465 . S
C1810 C1805 1.399 . S
C1810 C1809 1.394 . S
C1810 C1811 1.516 . S
C1811 C1810 1.516 . S
C1811 C1812 1.502 . S
C1811 C1813 1.561 . S
C1811 C1814 1.526 . S
C1812 H1796 0.959 . S
C1812 H1797 0.959 . S
C1812 H1798 0.961 . S
C1812 C1811 1.502 . S
C1813 H1799 0.960 . S
C1813 H1800 0.961 . S
C1813 H1801 0.959 . S
C1813 C1811 1.561 . S
C1814 C1811 1.526 . S
C1814 C1815 1.396 . S
C1814 C1819 1.390 . S
C1815 C1809 1.465 . S
C1815 C1814 1.396 . S
C1815 C1816 1.399 . S
C1816 H1802 0.929 . S
C1816 C1815 1.399 . S
C1816 C1817 1.385 . S
C1817 H1803 0.931 . S
C1817 C1816 1.385 . S
C1817 C1818 1.389 . S
C1818 C1817 1.389 . S
C1818 C1819 1.387 . S
C1819 H1804 0.930 . S
C1819 C1814 1.390 . S
C1819 C1818 1.387 . S
H1820 C1832 0.930 . S
H1821 C1834 0.930 . S
H1822 C1835 0.930 . S
H1823 C1839 0.959 . S
H1824 C1839 0.959 . S
H1825 C1839 0.961 . S
H1826 C1840 0.960 . S
H1827 C1840 0.961 . S
H1828 C1840 0.959 . S
H1829 C1843 0.929 . S
H1830 C1844 0.931 . S
H1831 C1846 0.930 . S
C1832 H1820 0.930 . S
C1832 C1833 1.399 . S
C1832 C1837 1.399 . S
C1833 C1832 1.399 . S
C1833 C1834 1.376 . S
C1834 H1821 0.930 . S
C1834 C1833 1.376 . S
C1834 C1835 1.388 . S
C1835 H1822 0.930 . S
C1835 C1834 1.388 . S
C1835 C1836 1.390 . S
C1836 C1835 1.390 . S
C1836 C1837 1.394 . S
C1836 C1842 1.465 . S
C1837 C1832 1.399 . S
C1837 C1836 1.394 . S
C1837 C1838 1.516 . S
C1838 C1837 1.516 . S
C1838 C1839 1.502 . S
C1838 C1840 1.561 . S
C1838 C1841 1.526 . S
C1839 H1823 0.959 . S
C1839 H1824 0.959 . S
C1839 H1825 0.961 . S
C1839 C1838 1.502 . S
C1840 H1826 0.960 . S
C1840 H1827 0.961 . S
C1840 H1828 0.959 . S
C1840 C1838 1.561 . S
C1841 C1838 1.526 . S
C1841 C1842 1.396 . S
C1841 C1846 1.390 . S
C1842 C1836 1.465 . S
C1842 C1841 1.396 . S
C1842 C1843 1.399 . S
C1843 H1829 0.929 . S
C1843 C1842 1.399 . S
C1843 C1844 1.385 . S
C1844 H1830 0.931 . S
C1844 C1843 1.385 . S
C1844 C1845 1.389 . S
C1845 C1844 1.389 . S
C1845 C1846 1.387 . S
C1846 H1831 0.930 . S
C1846 C1841 1.390 . S
C1846 C1845 1.387 . S
H1847 C1859 0.930 . S
H1848 C1861 0.930 . S
H1849 C1862 0.930 . S
H1850 C1866 0.959 . S
H1851 C1866 0.959 . S
H1852 C1866 0.961 . S
H1853 C1867 0.960 . S
H1854 C1867 0.961 . S
H1855 C1867 0.959 . S
H1856 C1870 0.929 . S
H1857 C1871 0.931 . S
H1858 C1873 0.930 . S
C1859 H1847 0.930 . S
C1859 C1860 1.399 . S
C1859 C1864 1.399 . S
C1860 C1859 1.399 . S
C1860 C1861 1.376 . S
C1861 H1848 0.930 . S
C1861 C1860 1.376 . S
C1861 C1862 1.388 . S
C1862 H1849 0.930 . S
C1862 C1861 1.388 . S
C1862 C1863 1.390 . S
C1863 C1862 1.390 . S
C1863 C1864 1.394 . S
C1863 C1869 1.465 . S
C1864 C1859 1.399 . S
C1864 C1863 1.394 . S
C1864 C1865 1.516 . S
C1865 C1864 1.516 . S
C1865 C1866 1.502 . S
C1865 C1867 1.561 . S
C1865 C1868 1.526 . S
C1866 H1850 0.959 . S
C1866 H1851 0.959 . S
C1866 H1852 0.961 . S
C1866 C1865 1.502 . S
C1867 H1853 0.960 . S
C1867 H1854 0.961 . S
C1867 H1855 0.959 . S
C1867 C1865 1.561 . S
C1868 C1865 1.526 . S
C1868 C1869 1.396 . S
C1868 C1873 1.390 . S
C1869 C1863 1.465 . S
C1869 C1868 1.396 . S
C1869 C1870 1.399 . S
C1870 H1856 0.929 . S
C1870 C1869 1.399 . S
C1870 C1871 1.385 . S
C1871 H1857 0.931 . S
C1871 C1870 1.385 . S
C1871 C1872 1.389 . S
C1872 C1871 1.389 . S
C1872 C1873 1.387 . S
C1873 H1858 0.930 . S
C1873 C1868 1.390 . S
C1873 C1872 1.387 . S
H1874 C1886 0.930 . S
H1875 C1888 0.930 . S
H1876 C1889 0.930 . S
H1877 C1893 0.959 . S
H1878 C1893 0.959 . S
H1879 C1893 0.961 . S
H1880 C1894 0.960 . S
H1881 C1894 0.961 . S
H1882 C1894 0.959 . S
H1883 C1897 0.929 . S
H1884 C1898 0.931 . S
H1885 C1900 0.930 . S
C1886 H1874 0.930 . S
C1886 C1887 1.399 . S
C1886 C1891 1.399 . S
C1887 C1886 1.399 . S
C1887 C1888 1.376 . S
C1888 H1875 0.930 . S
C1888 C1887 1.376 . S
C1888 C1889 1.388 . S
C1889 H1876 0.930 . S
C1889 C1888 1.388 . S
C1889 C1890 1.390 . S
C1890 C1889 1.390 . S
C1890 C1891 1.394 . S
C1890 C1896 1.465 . S
C1891 C1886 1.399 . S
C1891 C1890 1.394 . S
C1891 C1892 1.516 . S
C1892 C1891 1.516 . S
C1892 C1893 1.502 . S
C1892 C1894 1.561 . S
C1892 C1895 1.526 . S
C1893 H1877 0.959 . S
C1893 H1878 0.959 . S
C1893 H1879 0.961 . S
C1893 C1892 1.502 . S
C1894 H1880 0.960 . S
C1894 H1881 0.961 . S
C1894 H1882 0.959 . S
C1894 C1892 1.561 . S
C1895 C1892 1.526 . S
C1895 C1896 1.396 . S
C1895 C1900 1.390 . S
C1896 C1890 1.465 . S
C1896 C1895 1.396 . S
C1896 C1897 1.399 . S
C1897 H1883 0.929 . S
C1897 C1896 1.399 . S
C1897 C1898 1.385 . S
C1898 H1884 0.931 . S
C1898 C1897 1.385 . S
C1898 C1899 1.389 . S
C1899 C1898 1.389 . S
C1899 C1900 1.387 . S
C1900 H1885 0.930 . S
C1900 C1895 1.390 . S
C1900 C1899 1.387 . S
H1901 C1913 0.930 . S
H1902 C1915 0.930 . S
H1903 C1916 0.930 . S
H1904 C1920 0.959 . S
H1905 C1920 0.959 . S
H1906 C1920 0.961 . S
H1907 C1921 0.960 . S
H1908 C1921 0.961 . S
H1909 C1921 0.959 . S
H1910 C1924 0.929 . S
H1911 C1925 0.931 . S
H1912 C1927 0.930 . S
C1913 H1901 0.930 . S
C1913 C1914 1.399 . S
C1913 C1918 1.399 . S
C1914 C1913 1.399 . S
C1914 C1915 1.376 . S
C1915 H1902 0.930 . S
C1915 C1914 1.376 . S
C1915 C1916 1.388 . S
C1916 H1903 0.930 . S
C1916 C1915 1.388 . S
C1916 C1917 1.390 . S
C1917 C1916 1.390 . S
C1917 C1918 1.394 . S
C1917 C1923 1.465 . S
C1918 C1913 1.399 . S
C1918 C1917 1.394 . S
C1918 C1919 1.516 . S
C1919 C1918 1.516 . S
C1919 C1920 1.502 . S
C1919 C1921 1.561 . S
C1919 C1922 1.526 . S
C1920 H1904 0.959 . S
C1920 H1905 0.959 . S
C1920 H1906 0.961 . S
C1920 C1919 1.502 . S
C1921 H1907 0.960 . S
C1921 H1908 0.961 . S
C1921 H1909 0.959 . S
C1921 C1919 1.561 . S
C1922 C1919 1.526 . S
C1922 C1923 1.396 . S
C1922 C1927 1.390 . S
C1923 C1917 1.465 . S
C1923 C1922 1.396 . S
C1923 C1924 1.399 . S
C1924 H1910 0.929 . S
C1924 C1923 1.399 . S
C1924 C1925 1.385 . S
C1925 H1911 0.931 . S
C1925 C1924 1.385 . S
C1925 C1926 1.389 . S
C1926 C1925 1.389 . S
C1926 C1927 1.387 . S
C1927 H1912 0.930 . S
C1927 C1922 1.390 . S
C1927 C1926 1.387 . S
H1928 C1940 0.930 . S
H1929 C1942 0.930 . S
H1930 C1943 0.930 . S
H1931 C1947 0.959 . S
H1932 C1947 0.959 . S
H1933 C1947 0.961 . S
H1934 C1948 0.960 . S
H1935 C1948 0.961 . S
H1936 C1948 0.959 . S
H1937 C1951 0.929 . S
H1938 C1952 0.931 . S
H1939 C1954 0.930 . S
C1940 H1928 0.930 . S
C1940 C1941 1.399 . S
C1940 C1945 1.399 . S
C1941 C1940 1.399 . S
C1941 C1942 1.376 . S
C1942 H1929 0.930 . S
C1942 C1941 1.376 . S
C1942 C1943 1.388 . S
C1943 H1930 0.930 . S
C1943 C1942 1.388 . S
C1943 C1944 1.390 . S
C1944 C1943 1.390 . S
C1944 C1945 1.394 . S
C1944 C1950 1.465 . S
C1945 C1940 1.399 . S
C1945 C1944 1.394 . S
C1945 C1946 1.516 . S
C1946 C1945 1.516 . S
C1946 C1947 1.502 . S
C1946 C1948 1.561 . S
C1946 C1949 1.526 . S
C1947 H1931 0.959 . S
C1947 H1932 0.959 . S
C1947 H1933 0.961 . S
C1947 C1946 1.502 . S
C1948 H1934 0.960 . S
C1948 H1935 0.961 . S
C1948 H1936 0.959 . S
C1948 C1946 1.561 . S
C1949 C1946 1.526 . S
C1949 C1950 1.396 . S
C1949 C1954 1.390 . S
C1950 C1944 1.465 . S
C1950 C1949 1.396 . S
C1950 C1951 1.399 . S
C1951 H1937 0.929 . S
C1951 C1950 1.399 . S
C1951 C1952 1.385 . S
C1952 H1938 0.931 . S
C1952 C1951 1.385 . S
C1952 C1953 1.389 . S
C1953 C1952 1.389 . S
C1953 C1954 1.387 . S
C1954 H1939 0.930 . S
C1954 C1949 1.390 . S
C1954 C1953 1.387 . S
H1955 C1967 0.930 . S
H1956 C1969 0.930 . S
H1957 C1970 0.930 . S
H1958 C1974 0.959 . S
H1959 C1974 0.959 . S
H1960 C1974 0.961 . S
H1961 C1975 0.960 . S
H1962 C1975 0.961 . S
H1963 C1975 0.959 . S
H1964 C1978 0.929 . S
H1965 C1979 0.931 . S
H1966 C1981 0.930 . S
C1967 H1955 0.930 . S
C1967 C1968 1.399 . S
C1967 C1972 1.399 . S
C1968 C1967 1.399 . S
C1968 C1969 1.376 . S
C1969 H1956 0.930 . S
C1969 C1968 1.376 . S
C1969 C1970 1.388 . S
C1970 H1957 0.930 . S
C1970 C1969 1.388 . S
C1970 C1971 1.390 . S
C1971 C1970 1.390 . S
C1971 C1972 1.394 . S
C1971 C1977 1.465 . S
C1972 C1967 1.399 . S
C1972 C1971 1.394 . S
C1972 C1973 1.516 . S
C1973 C1972 1.516 . S
C1973 C1974 1.502 . S
C1973 C1975 1.561 . S
C1973 C1976 1.526 . S
C1974 H1958 0.959 . S
C1974 H1959 0.959 . S
C1974 H1960 0.961 . S
C1974 C1973 1.502 . S
C1975 H1961 0.960 . S
C1975 H1962 0.961 . S
C1975 H1963 0.959 . S
C1975 C1973 1.561 . S
C1976 C1973 1.526 . S
C1976 C1977 1.396 . S
C1976 C1981 1.390 . S
C1977 C1971 1.465 . S
C1977 C1976 1.396 . S
C1977 C1978 1.399 . S
C1978 H1964 0.929 . S
C1978 C1977 1.399 . S
C1978 C1979 1.385 . S
C1979 H1965 0.931 . S
C1979 C1978 1.385 . S
C1979 C1980 1.389 . S
C1980 C1979 1.389 . S
C1980 C1981 1.387 . S
C1981 H1966 0.930 . S
C1981 C1976 1.390 . S
C1981 C1980 1.387 . S
H1982 C1994 0.930 . S
H1983 C1996 0.930 . S
H1984 C1997 0.930 . S
H1985 C2001 0.959 . S
H1986 C2001 0.959 . S
H1987 C2001 0.961 . S
H1988 C2002 0.960 . S
H1989 C2002 0.961 . S
H1990 C2002 0.959 . S
H1991 C2005 0.929 . S
H1992 C2006 0.931 . S
H1993 C2008 0.930 . S
C1994 H1982 0.930 . S
C1994 C1995 1.399 . S
C1994 C1999 1.399 . S
C1995 C1994 1.399 . S
C1995 C1996 1.376 . S
C1996 H1983 0.930 . S
C1996 C1995 1.376 . S
C1996 C1997 1.388 . S
C1997 H1984 0.930 . S
C1997 C1996 1.388 . S
C1997 C1998 1.390 . S
C1998 C1997 1.390 . S
C1998 C1999 1.394 . S
C1998 C2004 1.465 . S
C1999 C1994 1.399 . S
C1999 C1998 1.394 . S
C1999 C2000 1.516 . S
C2000 C1999 1.516 . S
C2000 C2001 1.502 . S
C2000 C2002 1.561 . S
C2000 C2003 1.526 . S
C2001 H1985 0.959 . S
C2001 H1986 0.959 . S
C2001 H1987 0.961 . S
C2001 C2000 1.502 . S
C2002 H1988 0.960 . S
C2002 H1989 0.961 . S
C2002 H1990 0.959 . S
C2002 C2000 1.561 . S
C2003 C2000 1.526 . S
C2003 C2004 1.396 . S
C2003 C2008 1.390 . S
C2004 C1998 1.465 . S
C2004 C2003 1.396 . S
C2004 C2005 1.399 . S
C2005 H1991 0.929 . S
C2005 C2004 1.399 . S
C2005 C2006 1.385 . S
C2006 H1992 0.931 . S
C2006 C2005 1.385 . S
C2006 C2007 1.389 . S
C2007 C2006 1.389 . S
C2007 C2008 1.387 . S
C2008 H1993 0.930 . S
C2008 C2003 1.390 . S
C2008 C2007 1.387 . S
H2009 C2021 0.930 . S
H2010 C2023 0.930 . S
H2011 C2024 0.930 . S
H2012 C2028 0.959 . S
H2013 C2028 0.959 . S
H2014 C2028 0.961 . S
H2015 C2029 0.960 . S
H2016 C2029 0.961 . S
H2017 C2029 0.959 . S
H2018 C2032 0.929 . S
H2019 C2033 0.931 . S
H2020 C2035 0.930 . S
C2021 H2009 0.930 . S
C2021 C2022 1.399 . S
C2021 C2026 1.399 . S
C2022 C2021 1.399 . S
C2022 C2023 1.376 . S
C2023 H2010 0.930 . S
C2023 C2022 1.376 . S
C2023 C2024 1.388 . S
C2024 H2011 0.930 . S
C2024 C2023 1.388 . S
C2024 C2025 1.390 . S
C2025 C2024 1.390 . S
C2025 C2026 1.394 . S
C2025 C2031 1.465 . S
C2026 C2021 1.399 . S
C2026 C2025 1.394 . S
C2026 C2027 1.516 . S
C2027 C2026 1.516 . S
C2027 C2028 1.502 . S
C2027 C2029 1.561 . S
C2027 C2030 1.526 . S
C2028 H2012 0.959 . S
C2028 H2013 0.959 . S
C2028 H2014 0.961 . S
C2028 C2027 1.502 . S
C2029 H2015 0.960 . S
C2029 H2016 0.961 . S
C2029 H2017 0.959 . S
C2029 C2027 1.561 . S
C2030 C2027 1.526 . S
C2030 C2031 1.396 . S
C2030 C2035 1.390 . S
C2031 C2025 1.465 . S
C2031 C2030 1.396 . S
C2031 C2032 1.399 . S
C2032 H2018 0.929 . S
C2032 C2031 1.399 . S
C2032 C2033 1.385 . S
C2033 H2019 0.931 . S
C2033 C2032 1.385 . S
C2033 C2034 1.389 . S
C2034 C2033 1.389 . S
C2034 C2035 1.387 . S
C2035 H2020 0.930 . S
C2035 C2030 1.390 . S
C2035 C2034 1.387 . S
H2036 C2048 0.930 . S
H2037 C2050 0.930 . S
H2038 C2051 0.930 . S
H2039 C2055 0.959 . S
H2040 C2055 0.959 . S
H2041 C2055 0.961 . S
H2042 C2056 0.960 . S
H2043 C2056 0.961 . S
H2044 C2056 0.959 . S
H2045 C2059 0.929 . S
H2046 C2060 0.931 . S
H2047 C2062 0.930 . S
C2048 H2036 0.930 . S
C2048 C2049 1.399 . S
C2048 C2053 1.399 . S
C2049 C2048 1.399 . S
C2049 C2050 1.376 . S
C2050 H2037 0.930 . S
C2050 C2049 1.376 . S
C2050 C2051 1.388 . S
C2051 H2038 0.930 . S
C2051 C2050 1.388 . S
C2051 C2052 1.390 . S
C2052 C2051 1.390 . S
C2052 C2053 1.394 . S
C2052 C2058 1.465 . S
C2053 C2048 1.399 . S
C2053 C2052 1.394 . S
C2053 C2054 1.516 . S
C2054 C2053 1.516 . S
C2054 C2055 1.502 . S
C2054 C2056 1.561 . S
C2054 C2057 1.526 . S
C2055 H2039 0.959 . S
C2055 H2040 0.959 . S
C2055 H2041 0.961 . S
C2055 C2054 1.502 . S
C2056 H2042 0.960 . S
C2056 H2043 0.961 . S
C2056 H2044 0.959 . S
C2056 C2054 1.561 . S
C2057 C2054 1.526 . S
C2057 C2058 1.396 . S
C2057 C2062 1.390 . S
C2058 C2052 1.465 . S
C2058 C2057 1.396 . S
C2058 C2059 1.399 . S
C2059 H2045 0.929 . S
C2059 C2058 1.399 . S
C2059 C2060 1.385 . S
C2060 H2046 0.931 . S
C2060 C2059 1.385 . S
C2060 C2061 1.389 . S
C2061 C2060 1.389 . S
C2061 C2062 1.387 . S
C2062 H2047 0.930 . S
C2062 C2057 1.390 . S
C2062 C2061 1.387 . S
H2063 C2075 0.930 . S
H2064 C2077 0.930 . S
H2065 C2078 0.930 . S
H2066 C2082 0.959 . S
H2067 C2082 0.959 . S
H2068 C2082 0.961 . S
H2069 C2083 0.960 . S
H2070 C2083 0.961 . S
H2071 C2083 0.959 . S
H2072 C2086 0.929 . S
H2073 C2087 0.931 . S
H2074 C2089 0.930 . S
C2075 H2063 0.930 . S
C2075 C2076 1.399 . S
C2075 C2080 1.399 . S
C2076 C2075 1.399 . S
C2076 C2077 1.376 . S
C2077 H2064 0.930 . S
C2077 C2076 1.376 . S
C2077 C2078 1.388 . S
C2078 H2065 0.930 . S
C2078 C2077 1.388 . S
C2078 C2079 1.390 . S
C2079 C2078 1.390 . S
C2079 C2080 1.394 . S
C2079 C2085 1.465 . S
C2080 C2075 1.399 . S
C2080 C2079 1.394 . S
C2080 C2081 1.516 . S
C2081 C2080 1.516 . S
C2081 C2082 1.502 . S
C2081 C2083 1.561 . S
C2081 C2084 1.526 . S
C2082 H2066 0.959 . S
C2082 H2067 0.959 . S
C2082 H2068 0.961 . S
C2082 C2081 1.502 . S
C2083 H2069 0.960 . S
C2083 H2070 0.961 . S
C2083 H2071 0.959 . S
C2083 C2081 1.561 . S
C2084 C2081 1.526 . S
C2084 C2085 1.396 . S
C2084 C2089 1.390 . S
C2085 C2079 1.465 . S
C2085 C2084 1.396 . S
C2085 C2086 1.399 . S
C2086 H2072 0.929 . S
C2086 C2085 1.399 . S
C2086 C2087 1.385 . S
C2087 H2073 0.931 . S
C2087 C2086 1.385 . S
C2087 C2088 1.389 . S
C2088 C2087 1.389 . S
C2088 C2089 1.387 . S
C2089 H2074 0.930 . S
C2089 C2084 1.390 . S
C2089 C2088 1.387 . S
H2090 C2102 0.930 . S
H2091 C2104 0.930 . S
H2092 C2105 0.930 . S
H2093 C2109 0.959 . S
H2094 C2109 0.959 . S
H2095 C2109 0.961 . S
H2096 C2110 0.960 . S
H2097 C2110 0.961 . S
H2098 C2110 0.959 . S
H2099 C2113 0.929 . S
H2100 C2114 0.931 . S
H2101 C2116 0.930 . S
C2102 H2090 0.930 . S
C2102 C2103 1.399 . S
C2102 C2107 1.399 . S
C2103 C2102 1.399 . S
C2103 C2104 1.376 . S
C2104 H2091 0.930 . S
C2104 C2103 1.376 . S
C2104 C2105 1.388 . S
C2105 H2092 0.930 . S
C2105 C2104 1.388 . S
C2105 C2106 1.390 . S
C2106 C2105 1.390 . S
C2106 C2107 1.394 . S
C2106 C2112 1.465 . S
C2107 C2102 1.399 . S
C2107 C2106 1.394 . S
C2107 C2108 1.516 . S
C2108 C2107 1.516 . S
C2108 C2109 1.502 . S
C2108 C2110 1.561 . S
C2108 C2111 1.526 . S
C2109 H2093 0.959 . S
C2109 H2094 0.959 . S
C2109 H2095 0.961 . S
C2109 C2108 1.502 . S
C2110 H2096 0.960 . S
C2110 H2097 0.961 . S
C2110 H2098 0.959 . S
C2110 C2108 1.561 . S
C2111 C2108 1.526 . S
C2111 C2112 1.396 . S
C2111 C2116 1.390 . S
C2112 C2106 1.465 . S
C2112 C2111 1.396 . S
C2112 C2113 1.399 . S
C2113 H2099 0.929 . S
C2113 C2112 1.399 . S
C2113 C2114 1.385 . S
C2114 H2100 0.931 . S
C2114 C2113 1.385 . S
C2114 C2115 1.389 . S
C2115 C2114 1.389 . S
C2115 C2116 1.387 . S
C2116 H2101 0.930 . S
C2116 C2111 1.390 . S
C2116 C2115 1.387 . S
H2117 C2129 0.930 . S
H2118 C2131 0.930 . S
H2119 C2132 0.930 . S
H2120 C2136 0.959 . S
H2121 C2136 0.959 . S
H2122 C2136 0.961 . S
H2123 C2137 0.960 . S
H2124 C2137 0.961 . S
H2125 C2137 0.959 . S
H2126 C2140 0.929 . S
H2127 C2141 0.931 . S
H2128 C2143 0.930 . S
C2129 H2117 0.930 . S
C2129 C2130 1.399 . S
C2129 C2134 1.399 . S
C2130 C2129 1.399 . S
C2130 C2131 1.376 . S
C2131 H2118 0.930 . S
C2131 C2130 1.376 . S
C2131 C2132 1.388 . S
C2132 H2119 0.930 . S
C2132 C2131 1.388 . S
C2132 C2133 1.390 . S
C2133 C2132 1.390 . S
C2133 C2134 1.394 . S
C2133 C2139 1.465 . S
C2134 C2129 1.399 . S
C2134 C2133 1.394 . S
C2134 C2135 1.516 . S
C2135 C2134 1.516 . S
C2135 C2136 1.502 . S
C2135 C2137 1.561 . S
C2135 C2138 1.526 . S
C2136 H2120 0.959 . S
C2136 H2121 0.959 . S
C2136 H2122 0.961 . S
C2136 C2135 1.502 . S
C2137 H2123 0.960 . S
C2137 H2124 0.961 . S
C2137 H2125 0.959 . S
C2137 C2135 1.561 . S
C2138 C2135 1.526 . S
C2138 C2139 1.396 . S
C2138 C2143 1.390 . S
C2139 C2133 1.465 . S
C2139 C2138 1.396 . S
C2139 C2140 1.399 . S
C2140 H2126 0.929 . S
C2140 C2139 1.399 . S
C2140 C2141 1.385 . S
C2141 H2127 0.931 . S
C2141 C2140 1.385 . S
C2141 C2142 1.389 . S
C2142 C2141 1.389 . S
C2142 C2143 1.387 . S
C2143 H2128 0.930 . S
C2143 C2138 1.390 . S
C2143 C2142 1.387 . S
C429 C200 1.305 . S
C441 C5 1.295 . S
C456 C21 1.301 . S
C468 C161 1.274 . S
C483 C31 1.245 . S
C495 C174 1.254 . S
C510 C187 1.299 . S
C522 C47 1.358 . S
C537 C57 1.316 . S
C549 C122 1.309 . S
C564 C73 1.354 . S
C576 C135 1.353 . S
C591 C148 1.299 . S
C603 C83 1.290 . S
C618 C109 1.295 . S
C630 C99 1.355 . S
C645 C213 1.327 . S
C657 C408 1.325 . S
C672 C229 1.286 . S
C684 C369 1.286 . S
C699 C239 1.327 . S
C711 C382 1.326 . S
C726 C395 1.302 . S
C738 C255 1.359 . S
C753 C265 1.246 . S
C765 C330 1.255 . S
C780 C281 1.353 . S
C792 C343 1.354 . S
C807 C356 1.316 . S
C819 C291 1.309 . S
C834 C307 1.290 . S
C846 C317 1.281 . S
C861 C156 1.152 . S
C873 C0 1.140 . S
C888 C23 1.073 . S
C900 C169 1.099 . S
C915 C182 1.118 . S
C927 C26 1.103 . S
C942 C49 1.087 . S
C954 C195 1.072 . S
C969 C52 1.094 . S
C981 C104 1.105 . S
C996 C117 1.119 . S
C1008 C75 1.090 . S
C1023 C130 1.153 . S
C1035 C78 1.157 . S
C1050 C143 1.112 . S
C1062 C101 1.099 . S
C1077 C208 1.133 . S
C1089 C364 1.119 . S
C1104 C377 1.117 . S
C1116 C231 1.093 . S
C1131 C234 1.155 . S
C1143 C390 1.146 . S
C1158 C257 1.072 . S
C1170 C403 1.108 . S
C1185 C312 1.092 . S
C1197 C260 1.098 . S
C1212 C283 1.074 . S
C1224 C325 1.098 . S
C1239 C286 1.093 . S
C1251 C338 1.104 . S
C1266 C309 1.072 . S
C1278 C351 1.103 . S
C1293 C8 1.418 . S
C1305 C138 1.406 . S
C1320 C151 1.399 . S
C1332 C18 1.381 . S
C1347 C34 1.440 . S
C1359 C112 1.450 . S
C1374 C125 1.414 . S
C1386 C44 1.442 . S
C1401 C190 1.386 . S
C1413 C60 1.386 . S
C1428 C203 1.395 . S
C1440 C70 1.380 . S
C1455 C164 1.458 . S
C1467 C86 1.458 . S
C1482 C96 1.418 . S
C1494 C177 1.440 . S
C1509 C346 1.386 . S
C1521 C216 1.386 . S
C1536 C226 1.423 . S
C1548 C359 1.442 . S
C1563 C320 1.458 . S
C1575 C242 1.458 . S
C1590 C333 1.422 . S
C1602 C252 1.445 . S
C1617 C268 1.423 . S
C1629 C398 1.411 . S
C1644 C278 1.422 . S
C1656 C411 1.442 . S
C1671 C372 1.458 . S
C1683 C294 1.458 . S
C1698 C385 1.422 . S
C1710 C304 1.445 . S
C1725 C299 1.125 . S
C1737 C10 1.111 . S
C1752 C270 1.126 . S
C1764 C13 1.123 . S
C1779 C273 1.127 . S
C1791 C36 1.108 . S
C1806 C296 1.120 . S
C1818 C39 1.123 . S
C1833 C221 1.140 . S
C1845 C62 1.160 . S
C1860 C65 1.122 . S
C1872 C244 1.128 . S
C1887 C88 1.139 . S
C1899 C247 1.126 . S
C1914 C91 1.147 . S
C1926 C218 1.113 . S
C1941 C114 1.349 . S
C1953 C413 1.299 . S
C1968 C374 1.297 . S
C1980 C127 1.345 . S
C1995 C140 1.297 . S
C2007 C387 1.344 . S
C2022 C153 1.348 . S
C2034 C400 1.299 . S
C2049 C335 1.322 . S
C2061 C166 1.335 . S
C2076 C348 1.348 . S
C2088 C179 1.286 . S
C2103 C192 1.350 . S
C2115 C361 1.295 . S
C2130 C205 1.349 . S
C2142 C322 1.300 . S
