# Generated by pormake.
# Topology umk, (4)-cn, num edge types: 1
# Building blocks:
#     Node 0, Type 0, BuildingBlock: TATPOV_clean_sbu_0, # of connection points: 4
#     Node 1, Type 0, BuildingBlock: TATPOV_clean_sbu_0, # of connection points: 4
#     Node 2, Type 0, BuildingBlock: TATPOV_clean_sbu_0, # of connection points: 4
#     Node 3, Type 0, BuildingBlock: TATPOV_clean_sbu_0, # of connection points: 4
#     Node 4, Type 0, BuildingBlock: TATPOV_clean_sbu_0, # of connection points: 4
#     Node 5, Type 0, BuildingBlock: TATPOV_clean_sbu_0, # of connection points: 4
#     Node 6, Type 0, BuildingBlock: TATPOV_clean_sbu_0, # of connection points: 4
#     Node 7, Type 0, BuildingBlock: TATPOV_clean_sbu_0, # of connection points: 4
#     Node 8, Type 0, BuildingBlock: TATPOV_clean_sbu_0, # of connection points: 4
#     Node 9, Type 0, BuildingBlock: TATPOV_clean_sbu_0, # of connection points: 4
#     Node 10, Type 0, BuildingBlock: TATPOV_clean_sbu_0, # of connection points: 4
#     Node 11, Type 0, BuildingBlock: TATPOV_clean_sbu_0, # of connection points: 4
#     Node 12, Type 0, BuildingBlock: TATPOV_clean_sbu_0, # of connection points: 4
#     Node 13, Type 0, BuildingBlock: TATPOV_clean_sbu_0, # of connection points: 4
#     Node 14, Type 0, BuildingBlock: TATPOV_clean_sbu_0, # of connection points: 4
#     Node 15, Type 0, BuildingBlock: TATPOV_clean_sbu_0, # of connection points: 4
#     Node 16, Type 0, BuildingBlock: TATPOV_clean_sbu_0, # of connection points: 4
#     Node 17, Type 0, BuildingBlock: TATPOV_clean_sbu_0, # of connection points: 4
#     Node 18, Type 0, BuildingBlock: TATPOV_clean_sbu_0, # of connection points: 4
#     Node 19, Type 0, BuildingBlock: TATPOV_clean_sbu_0, # of connection points: 4
#     Node 20, Type 0, BuildingBlock: TATPOV_clean_sbu_0, # of connection points: 4
#     Node 21, Type 0, BuildingBlock: TATPOV_clean_sbu_0, # of connection points: 4
#     Node 22, Type 0, BuildingBlock: TATPOV_clean_sbu_0, # of connection points: 4
#     Node 23, Type 0, BuildingBlock: TATPOV_clean_sbu_0, # of connection points: 4
#     Edge 24, Type (0, 0), None
#     Edge 25, Type (0, 0), None
#     Edge 26, Type (0, 0), None
#     Edge 27, Type (0, 0), None
#     Edge 28, Type (0, 0), None
#     Edge 29, Type (0, 0), None
#     Edge 30, Type (0, 0), None
#     Edge 31, Type (0, 0), None
#     Edge 32, Type (0, 0), None
#     Edge 33, Type (0, 0), None
#     Edge 34, Type (0, 0), None
#     Edge 35, Type (0, 0), None
#     Edge 36, Type (0, 0), None
#     Edge 37, Type (0, 0), None
#     Edge 38, Type (0, 0), None
#     Edge 39, Type (0, 0), None
#     Edge 40, Type (0, 0), None
#     Edge 41, Type (0, 0), None
#     Edge 42, Type (0, 0), None
#     Edge 43, Type (0, 0), None
#     Edge 44, Type (0, 0), None
#     Edge 45, Type (0, 0), None
#     Edge 46, Type (0, 0), None
#     Edge 47, Type (0, 0), None
#     Edge 48, Type (0, 0), None
#     Edge 49, Type (0, 0), None
#     Edge 50, Type (0, 0), None
#     Edge 51, Type (0, 0), None
#     Edge 52, Type (0, 0), None
#     Edge 53, Type (0, 0), None
#     Edge 54, Type (0, 0), None
#     Edge 55, Type (0, 0), None
#     Edge 56, Type (0, 0), None
#     Edge 57, Type (0, 0), None
#     Edge 58, Type (0, 0), None
#     Edge 59, Type (0, 0), None
#     Edge 60, Type (0, 0), None
#     Edge 61, Type (0, 0), None
#     Edge 62, Type (0, 0), None
#     Edge 63, Type (0, 0), None
#     Edge 64, Type (0, 0), None
#     Edge 65, Type (0, 0), None
#     Edge 66, Type (0, 0), None
#     Edge 67, Type (0, 0), None
#     Edge 68, Type (0, 0), None
#     Edge 69, Type (0, 0), None
#     Edge 70, Type (0, 0), None
#     Edge 71, Type (0, 0), None
# Relax obj value: 0.088
# Max RMSD: 0.118
# Mean RMSD: 0.118
data_MOF--net-umk--node1-TATPOV_clean_sbu_0--edge1-none
_symmetry_space_group_name_H-M    P1
_symmetry_Int_Tables_number       1
_symmetry_cell_setting            triclinic
loop_
_symmetry_equiv_pos_as_xyz
'x, y, z'
_cell_length_a     29.506199
_cell_length_b     29.500467
_cell_length_c     20.477752
_cell_angle_alpha  89.677845
_cell_angle_beta   89.771561
_cell_angle_gamma 119.69145
loop_
_atom_site_label
_atom_site_type_symbol
_atom_site_fract_x
_atom_site_fract_y
_atom_site_fract_z
_atom_type_partial_charge
Zn0 Zn 0.45696 0.51041 0.13321 0.0
Zn1 Zn 0.3168 0.44365 0.06501 0.0
O2 O 0.30291 0.45974 0.15821 0.0
O3 O 0.38614 0.49075 0.17388 0.0
O4 O 0.25495 0.42921 0.01163 0.0
O5 O 0.46735 0.55106 0.0489 0.0
O6 O 0.38427 0.50253 0.01615 0.0
C7 C 0.34148 0.47817 0.19662 0.0
C8 C 0.36891 0.39673 0.09562 0.0
O9 O 0.32395 0.37811 0.07118 0.0
O10 O 0.3908 0.44412 0.11166 0.0
C11 C 0.21591 0.38506 -0.00126 0.0
O12 O 0.21363 0.34189 0.0199 0.0
C13 C 0.43173 0.53882 0.0062 0.0
Zn14 Zn 0.92311 0.44755 0.63331 0.0
Zn15 Zn 0.86214 0.30711 0.55845 0.0
O16 O 0.82788 0.28834 0.65348 0.0
O17 O 0.87513 0.36998 0.63926 0.0
O18 O 0.81855 0.24672 0.50355 0.0
O19 O 0.89621 0.4571 0.54605 0.0
O20 O 0.86745 0.3751 0.50925 0.0
C21 C 0.8455 0.33322 0.67718 0.0
C22 C 0.95987 0.36864 0.58495 0.0
O23 O 0.93909 0.32308 0.5614 0.0
O24 O 0.9289 0.38326 0.6064 0.0
C25 C 0.82256 0.20674 0.49169 0.0
O26 O 0.86154 0.20223 0.51495 0.0
C27 C 0.87646 0.42244 0.50135 0.0
Zn28 Zn 0.47404 0.92731 0.12986 0.0
Zn29 Zn 0.54729 0.85905 0.05404 0.0
O30 O 0.52971 0.82423 0.14913 0.0
O31 O 0.49914 0.87527 0.13684 0.0
O32 O 0.56111 0.81271 -0.00177 0.0
O33 O 0.43717 0.90173 0.04321 0.0
O34 O 0.4864 0.86784 0.00584 0.0
C35 C 0.50348 0.84317 0.17352 0.0
C36 C 0.58609 0.95691 0.07979 0.0
O37 O 0.61024 0.93528 0.0558 0.0
O38 O 0.54159 0.9268 0.10446 0.0
C39 C 0.60423 0.81488 -0.01439 0.0
O40 O 0.64805 0.85293 0.00849 0.0
C41 C 0.44984 0.87961 -0.00143 0.0
Zn42 Zn 0.53189 0.48003 0.63518 0.0
Zn43 Zn 0.67327 0.54577 0.55919 0.0
O44 O 0.68972 0.53133 0.65259 0.0
O45 O 0.60717 0.50197 0.65644 0.0
O46 O 0.73418 0.55729 0.5044 0.0
O47 O 0.52027 0.43981 0.54987 0.0
O48 O 0.60355 0.48657 0.51438 0.0
C49 C 0.64843 0.51229 0.68648 0.0
C50 C 0.62062 0.59365 0.58876 0.0
O51 O 0.66552 0.61145 0.5632 0.0
O52 O 0.59852 0.54653 0.60774 0.0
C53 C 0.77504 0.60061 0.49278 0.0
O54 O 0.77903 0.64427 0.51433 0.0
C55 C 0.55559 0.45094 0.50616 0.0
Zn56 Zn 0.0539 0.53631 0.13988 0.0
Zn57 Zn 0.12148 0.67483 0.0554 0.0
O58 O 0.14988 0.6966 0.14813 0.0
O59 O 0.10139 0.61354 0.15401 0.0
O60 O 0.16975 0.73462 -0.00131 0.0
O61 O 0.08633 0.52323 0.05822 0.0
O62 O 0.11631 0.60468 0.01917 0.0
C63 C 0.1288 0.65601 0.18325 0.0
C64 C 0.02043 0.61922 0.08461 0.0
O65 O 0.04684 0.66329 0.05665 0.0
O66 O 0.0455 0.59727 0.1044 0.0
C67 C 0.16849 0.77669 -0.00928 0.0
O68 O 0.13036 0.78182 0.01609 0.0
C69 C 0.10858 0.55789 0.01321 0.0
Zn70 Zn 0.51439 0.05494 0.63546 0.0
Zn71 Zn 0.44308 0.12385 0.55614 0.0
O72 O 0.45083 0.15183 0.64939 0.0
O73 O 0.48533 0.10274 0.65472 0.0
O74 O 0.43101 0.17225 0.4998 0.0
O75 O 0.55897 0.08777 0.55321 0.0
O76 O 0.50731 0.11845 0.51723 0.0
C77 C 0.4701 0.13027 0.68415 0.0
C78 C 0.39742 0.02244 0.58534 0.0
O79 O 0.38011 0.04963 0.55852 0.0
O80 O 0.44465 0.04648 0.60302 0.0
C81 C 0.38772 0.17059 0.49027 0.0
O82 O 0.34442 0.13237 0.51513 0.0
C83 C 0.54616 0.11048 0.5094 0.0
Zn84 Zn 0.47773 0.53144 0.81208 0.0
Zn85 Zn 0.54456 0.67193 0.88089 0.0
O86 O 0.52886 0.68637 0.78754 0.0
O87 O 0.49798 0.60316 0.77367 0.0
O88 O 0.55895 0.73368 0.93445 0.0
O89 O 0.43726 0.52098 0.89664 0.0
O90 O 0.48562 0.60412 0.92942 0.0
C91 C 0.51048 0.64748 0.74975 0.0
C92 C 0.59136 0.61955 0.85052 0.0
O93 O 0.60996 0.6645 0.875 0.0
O94 O 0.544 0.59771 0.83421 0.0
C95 C 0.60309 0.77271 0.94746 0.0
O96 O 0.64627 0.775 0.92643 0.0
C97 C 0.4494 0.55659 0.93931 0.0
Zn98 Zn 0.93341 0.47479 0.30891 0.0
Zn99 Zn 0.86445 0.54562 0.39013 0.0
O100 O 0.83624 0.53843 0.29706 0.0
O101 O 0.88543 0.5041 0.29208 0.0
O102 O 0.81615 0.55729 0.44699 0.0
O103 O 0.90082 0.42968 0.391 0.0
O104 O 0.87017 0.48115 0.42772 0.0
C105 C 0.85783 0.51921 0.26242 0.0
C106 C 0.96574 0.59123 0.36075 0.0
O107 O 0.93871 0.60853 0.38797 0.0
O108 O 0.94148 0.54418 0.34239 0.0
C109 C 0.81761 0.60053 0.45614 0.0
O110 O 0.85554 0.64378 0.43076 0.0
C111 C 0.87817 0.44226 0.43509 0.0
Zn112 Zn 0.45152 0.9346 0.80562 0.0
Zn113 Zn 0.31329 0.86688 0.89076 0.0
O114 O 0.29125 0.83812 0.79809 0.0
O115 O 0.37423 0.88682 0.79242 0.0
O116 O 0.25365 0.81863 0.94766 0.0
O117 O 0.46509 0.90277 0.88764 0.0
O118 O 0.38374 0.8725 0.92718 0.0
C119 C 0.33185 0.85921 0.76306 0.0
C120 C 0.36877 0.96788 0.8614 0.0
O121 O 0.3247 0.94152 0.88932 0.0
O122 O 0.39042 0.94264 0.84123 0.0
C123 C 0.21153 0.81978 0.95549 0.0
O124 O 0.20625 0.85778 0.92986 0.0
C125 C 0.43069 0.88057 0.9329 0.0
Zn126 Zn 0.50812 0.45633 0.31076 0.0
Zn127 Zn 0.44245 0.31495 0.38692 0.0
O128 O 0.45693 0.29849 0.29362 0.0
O129 O 0.48628 0.38108 0.28932 0.0
O130 O 0.4309 0.25404 0.44191 0.0
O131 O 0.54839 0.46797 0.39609 0.0
O132 O 0.50167 0.38467 0.43166 0.0
C133 C 0.47597 0.33973 0.25954 0.0
C134 C 0.39462 0.3676 0.35711 0.0
O135 O 0.3768 0.32269 0.38273 0.0
O136 O 0.4417 0.38964 0.33809 0.0
C137 C 0.3876 0.21316 0.45352 0.0
O138 O 0.34395 0.20907 0.43172 0.0
C139 C 0.53729 0.43264 0.43983 0.0
Zn140 Zn 0.06219 0.51569 0.81585 0.0
Zn141 Zn 0.12935 0.44112 0.89239 0.0
O142 O 0.16369 0.45807 0.79725 0.0
O143 O 0.11323 0.48933 0.80953 0.0
O144 O 0.17575 0.42703 0.94806 0.0
O145 O 0.08818 0.55219 0.90273 0.0
O146 O 0.12131 0.50231 0.94042 0.0
C147 C 0.1448 0.48432 0.77274 0.0
C148 C 0.03098 0.4028 0.86644 0.0
O149 O 0.05277 0.3788 0.89063 0.0
O150 O 0.06113 0.44772 0.84281 0.0
C151 C 0.17366 0.38392 0.96064 0.0
O152 O 0.13558 0.34008 0.93788 0.0
C153 C 0.10999 0.53918 0.9475 0.0
Zn154 Zn 0.54171 0.06666 0.31129 0.0
Zn155 Zn 0.68143 0.12618 0.3869 0.0
O156 O 0.70104 0.15967 0.29121 0.0
O157 O 0.61949 0.11362 0.30683 0.0
O158 O 0.74143 0.16988 0.44196 0.0
O159 O 0.53154 0.09352 0.39813 0.0
O160 O 0.61324 0.12123 0.43532 0.0
C161 C 0.65601 0.14204 0.26798 0.0
C162 C 0.61941 0.02829 0.36118 0.0
O163 O 0.66492 0.04899 0.38494 0.0
O164 O 0.60492 0.05935 0.33958 0.0
C165 C 0.78118 0.16552 0.45393 0.0
O166 O 0.78526 0.12628 0.43082 0.0
C167 C 0.56608 0.11274 0.44307 0.0
Zn168 Zn 0.53162 0.47568 0.80922 0.0
Zn169 Zn 0.67364 0.54448 0.88377 0.0
O170 O 0.69053 0.53039 0.79022 0.0
O171 O 0.6078 0.49976 0.78986 0.0
O172 O 0.73395 0.55722 0.9404 0.0
O173 O 0.52064 0.437 0.89653 0.0
O174 O 0.60397 0.48536 0.92944 0.0
C175 C 0.64882 0.51128 0.75785 0.0
C176 C 0.61954 0.59057 0.85175 0.0
O177 O 0.66439 0.60893 0.87691 0.0
O178 O 0.59723 0.54309 0.83545 0.0
C179 C 0.77393 0.60086 0.95265 0.0
O180 O 0.77806 0.64425 0.92911 0.0
C181 C 0.55632 0.44945 0.93954 0.0
Zn182 Zn 0.05507 0.53948 0.29856 0.0
Zn183 Zn 0.1248 0.67997 0.38045 0.0
O184 O 0.15095 0.70041 0.28536 0.0
O185 O 0.10178 0.6174 0.28792 0.0
O186 O 0.17253 0.73909 0.4382 0.0
O187 O 0.0921 0.52936 0.37745 0.0
O188 O 0.12392 0.61129 0.41494 0.0
C189 C 0.12909 0.65808 0.25432 0.0
C190 C 0.02271 0.62108 0.35803 0.0
O191 O 0.04885 0.66548 0.38427 0.0
O192 O 0.04856 0.60086 0.33539 0.0
C193 C 0.16879 0.77892 0.45274 0.0
O194 O 0.12955 0.7837 0.43102 0.0
C195 C 0.11709 0.56475 0.42014 0.0
Zn196 Zn 0.50978 0.05338 0.80247 0.0
Zn197 Zn 0.4413 0.12715 0.88179 0.0
O198 O 0.44824 0.15307 0.78663 0.0
O199 O 0.48071 0.10221 0.78857 0.0
O200 O 0.43015 0.17597 0.93825 0.0
O201 O 0.55671 0.09104 0.88033 0.0
O202 O 0.50847 0.12593 0.91674 0.0
C203 C 0.4681 0.13037 0.7553 0.0
C204 C 0.39691 0.02494 0.85993 0.0
O205 O 0.37912 0.05184 0.88611 0.0
O206 O 0.44314 0.04998 0.83805 0.0
C207 C 0.38694 0.17274 0.9538 0.0
O208 O 0.34285 0.1331 0.93416 0.0
C209 C 0.54755 0.11805 0.92183 0.0
Zn210 Zn 0.45162 0.51218 0.30954 0.0
Zn211 Zn 0.31061 0.44228 0.39148 0.0
O212 O 0.29202 0.45531 0.2969 0.0
O213 O 0.3742 0.48595 0.30294 0.0
O214 O 0.25088 0.43006 0.45101 0.0
O215 O 0.46389 0.55214 0.39521 0.0
O216 O 0.3814 0.50334 0.43335 0.0
C217 C 0.33548 0.47595 0.26761 0.0
C218 C 0.36616 0.39647 0.35929 0.0
O219 O 0.32155 0.37829 0.38609 0.0
O220 O 0.38811 0.44381 0.34128 0.0
C221 C 0.2092 0.38724 0.46229 0.0
O222 O 0.20233 0.34397 0.43551 0.0
C223 C 0.4292 0.53997 0.44018 0.0
Zn224 Zn 0.88891 0.40901 0.84763 0.0
Zn225 Zn 0.86481 0.32081 0.89054 0.0
O226 O 0.84279 0.31303 0.79094 0.0
O227 O 0.86092 0.39185 0.75999 0.0
O228 O 0.81554 0.25098 0.93615 0.0
O229 O 0.8606 0.43838 0.91249 0.0
O230 O 0.86371 0.37278 0.95897 0.0
C231 C 0.84496 0.3447 0.74648 0.0
C232 C 0.97529 0.38531 0.8722 0.0
O233 O 0.94124 0.33865 0.88791 0.0
O234 O 0.96166 0.41879 0.85809 0.0
C235 C 0.82004 0.21191 0.95378 0.0
O236 O 0.86295 0.21075 0.94 0.0
C237 C 0.8601 0.41402 0.96353 0.0
Zn238 Zn 0.4715 0.88571 0.34382 0.0
Zn239 Zn 0.53535 0.86397 0.38578 0.0
O240 O 0.52168 0.84271 0.28653 0.0
O241 O 0.45683 0.85456 0.25692 0.0
O242 O 0.55621 0.81468 0.42671 0.0
O243 O 0.41623 0.86204 0.41222 0.0
O244 O 0.4842 0.86356 0.45738 0.0
C245 C 0.49038 0.84147 0.24277 0.0
C246 C 0.5816 0.97269 0.36543 0.0
O247 O 0.59398 0.93898 0.38391 0.0
O248 O 0.53499 0.95882 0.34947 0.0
C249 C 0.59991 0.82138 0.4462 0.0
O250 O 0.6423 0.86687 0.43853 0.0
C251 C 0.43998 0.86117 0.46286 0.0
Zn252 Zn 0.5128 0.45647 0.13705 0.0
Zn253 Zn 0.4439 0.31446 0.06234 0.0
O254 O 0.45793 0.29744 0.15597 0.0
O255 O 0.48859 0.38017 0.15594 0.0
O256 O 0.43111 0.25422 0.00565 0.0
O257 O 0.55139 0.46757 0.04972 0.0
O258 O 0.503 0.38425 0.01672 0.0
C259 C 0.47705 0.3392 0.18818 0.0
C260 C 0.39789 0.36859 0.09435 0.0
O261 O 0.37952 0.32375 0.06916 0.0
O262 O 0.44538 0.39091 0.11064 0.0
C263 C 0.38751 0.21426 -0.00677 0.0
O264 O 0.34408 0.21005 0.01663 0.0
C265 C 0.5389 0.43192 0.00668 0.0
Zn266 Zn 0.10254 0.51631 0.60199 0.0
Zn267 Zn 0.12427 0.45251 0.56036 0.0
O268 O 0.14561 0.46617 0.6597 0.0
O269 O 0.13319 0.5307 0.68907 0.0
O270 O 0.17356 0.4317 0.51921 0.0
O271 O 0.12643 0.57187 0.53393 0.0
O272 O 0.12462 0.50378 0.48879 0.0
C273 C 0.14646 0.49731 0.70341 0.0
C274 C 0.01548 0.40639 0.58051 0.0
O275 O 0.04917 0.39389 0.56239 0.0
O276 O 0.0294 0.45307 0.59609 0.0
C277 C 0.16701 0.38806 0.49973 0.0
O278 O 0.12167 0.34552 0.50759 0.0
C279 C 0.12713 0.54808 0.48331 0.0
Zn280 Zn 0.57153 0.09306 0.09962 0.0
Zn281 Zn 0.66798 0.12377 0.05567 0.0
O282 O 0.67671 0.14776 0.15373 0.0
O283 O 0.59562 0.11961 0.18623 0.0
O284 O 0.73742 0.1723 0.00798 0.0
O285 O 0.55078 0.1296 0.03481 0.0
O286 O 0.61539 0.12442 -0.01107 0.0
C287 C 0.6436 0.14059 0.19875 0.0
C288 C 0.60221 0.01201 0.07194 0.0
O289 O 0.64944 0.0472 0.06085 0.0
O290 O 0.56682 0.02374 0.08219 0.0
C291 C 0.77707 0.16863 -0.00906 0.0
O292 O 0.77968 0.12677 0.0066 0.0
C293 C 0.57499 0.1294 -0.01595 0.0
Zn294 Zn 0.47633 0.53663 0.63657 0.0
Zn295 Zn 0.54602 0.67769 0.5544 0.0
O296 O 0.53305 0.69622 0.64889 0.0
O297 O 0.50249 0.61399 0.6437 0.0
O298 O 0.55814 0.73744 0.49479 0.0
O299 O 0.43626 0.52438 0.55092 0.0
O300 O 0.48494 0.6069 0.51271 0.0
C301 C 0.51258 0.65292 0.67863 0.0
C302 C 0.59184 0.6222 0.58665 0.0
O303 O 0.61002 0.66682 0.55978 0.0
O304 O 0.54455 0.60031 0.60478 0.0
C305 C 0.60089 0.77921 0.48356 0.0
O306 O 0.6442 0.78619 0.51042 0.0
C307 C 0.44833 0.5591 0.50594 0.0
Zn308 Zn 0.93377 0.47838 0.14633 0.0
Zn309 Zn 0.86119 0.54748 0.06484 0.0
O310 O 0.83526 0.54126 0.15986 0.0
O311 O 0.88568 0.50835 0.15811 0.0
O312 O 0.81242 0.55838 0.00779 0.0
O313 O 0.89643 0.43124 0.06847 0.0
O314 O 0.8627 0.4802 0.0307 0.0
C315 C 0.85775 0.5212 0.19131 0.0
C316 C 0.96341 0.59145 0.0867 0.0
O317 O 0.9366 0.6093 0.06028 0.0
O318 O 0.93827 0.5454 0.10934 0.0
C319 C 0.81549 0.60154 -0.00781 0.0
O320 O 0.85493 0.64569 0.01204 0.0
C321 C 0.87033 0.44094 0.02607 0.0
Zn322 Zn 0.44856 0.93265 0.6479 0.0
Zn323 Zn 0.3082 0.8634 0.5657 0.0
O324 O 0.28762 0.83708 0.66076 0.0
O325 O 0.37064 0.88603 0.65847 0.0
O326 O 0.24916 0.81578 0.50776 0.0
O327 O 0.45869 0.89583 0.56888 0.0
O328 O 0.37682 0.86426 0.53127 0.0
C329 C 0.32989 0.85881 0.69195 0.0
C330 C 0.36731 0.96545 0.58825 0.0
O331 O 0.3229 0.93946 0.56195 0.0
O332 O 0.38733 0.93942 0.61102 0.0
C333 C 0.20929 0.81945 0.49319 0.0
O334 O 0.20438 0.85858 0.51501 0.0
C335 C 0.42331 0.87101 0.5261 0.0
loop_
_geom_bond_atom_site_label_1
_geom_bond_atom_site_label_2
_geom_bond_distance
_geom_bond_site_symmetry_2
_ccdc_geom_bond_type
Zn0 O3 2.031 . S
Zn0 O5 2.049 . S
Zn0 O10 2.067 . S
Zn1 O2 1.962 . S
Zn1 O4 1.986 . S
Zn1 O6 1.996 . S
Zn1 O9 1.943 . S
O2 Zn1 1.962 . S
O2 C7 1.254 . S
O3 Zn0 2.031 . S
O3 C7 1.269 . S
O4 Zn1 1.986 . S
O4 C11 1.262 . S
O5 Zn0 2.049 . S
O5 C13 1.260 . S
O6 Zn1 1.996 . S
O6 C13 1.257 . S
C7 O2 1.254 . S
C7 O3 1.269 . S
C8 O9 1.249 . S
C8 O10 1.270 . S
O9 Zn1 1.943 . S
O9 C8 1.249 . S
O10 Zn0 2.067 . S
O10 C8 1.270 . S
C11 O4 1.262 . S
C11 O12 1.232 . S
O12 C11 1.232 . S
C13 O5 1.260 . S
C13 O6 1.257 . S
Zn14 O17 2.031 . S
Zn14 O19 2.049 . S
Zn14 O24 2.067 . S
Zn15 O16 1.962 . S
Zn15 O18 1.986 . S
Zn15 O20 1.996 . S
Zn15 O23 1.943 . S
O16 Zn15 1.962 . S
O16 C21 1.254 . S
O17 Zn14 2.031 . S
O17 C21 1.269 . S
O18 Zn15 1.986 . S
O18 C25 1.262 . S
O19 Zn14 2.049 . S
O19 C27 1.260 . S
O20 Zn15 1.996 . S
O20 C27 1.257 . S
C21 O16 1.254 . S
C21 O17 1.269 . S
C22 O23 1.249 . S
C22 O24 1.270 . S
O23 Zn15 1.943 . S
O23 C22 1.249 . S
O24 Zn14 2.067 . S
O24 C22 1.270 . S
C25 O18 1.262 . S
C25 O26 1.232 . S
O26 C25 1.232 . S
C27 O19 1.260 . S
C27 O20 1.257 . S
Zn28 O31 2.031 . S
Zn28 O33 2.049 . S
Zn28 O38 2.067 . S
Zn29 O30 1.962 . S
Zn29 O32 1.986 . S
Zn29 O34 1.996 . S
Zn29 O37 1.943 . S
O30 Zn29 1.962 . S
O30 C35 1.254 . S
O31 Zn28 2.031 . S
O31 C35 1.269 . S
O32 Zn29 1.986 . S
O32 C39 1.262 . S
O33 Zn28 2.049 . S
O33 C41 1.260 . S
O34 Zn29 1.996 . S
O34 C41 1.257 . S
C35 O30 1.254 . S
C35 O31 1.269 . S
C36 O37 1.249 . S
C36 O38 1.270 . S
O37 Zn29 1.943 . S
O37 C36 1.249 . S
O38 Zn28 2.067 . S
O38 C36 1.270 . S
C39 O32 1.262 . S
C39 O40 1.232 . S
O40 C39 1.232 . S
C41 O33 1.260 . S
C41 O34 1.257 . S
Zn42 O45 2.031 . S
Zn42 O47 2.049 . S
Zn42 O52 2.067 . S
Zn43 O44 1.962 . S
Zn43 O46 1.986 . S
Zn43 O48 1.996 . S
Zn43 O51 1.943 . S
O44 Zn43 1.962 . S
O44 C49 1.254 . S
O45 Zn42 2.031 . S
O45 C49 1.269 . S
O46 Zn43 1.986 . S
O46 C53 1.262 . S
O47 Zn42 2.049 . S
O47 C55 1.260 . S
O48 Zn43 1.996 . S
O48 C55 1.257 . S
C49 O44 1.254 . S
C49 O45 1.269 . S
C50 O51 1.249 . S
C50 O52 1.270 . S
O51 Zn43 1.943 . S
O51 C50 1.249 . S
O52 Zn42 2.067 . S
O52 C50 1.270 . S
C53 O46 1.262 . S
C53 O54 1.232 . S
O54 C53 1.232 . S
C55 O47 1.260 . S
C55 O48 1.257 . S
Zn56 O59 2.031 . S
Zn56 O61 2.049 . S
Zn56 O66 2.067 . S
Zn57 O58 1.962 . S
Zn57 O60 1.986 . S
Zn57 O62 1.996 . S
Zn57 O65 1.943 . S
O58 Zn57 1.962 . S
O58 C63 1.254 . S
O59 Zn56 2.031 . S
O59 C63 1.269 . S
O60 Zn57 1.986 . S
O60 C67 1.262 . S
O61 Zn56 2.049 . S
O61 C69 1.260 . S
O62 Zn57 1.996 . S
O62 C69 1.257 . S
C63 O58 1.254 . S
C63 O59 1.269 . S
C64 O65 1.249 . S
C64 O66 1.270 . S
O65 Zn57 1.943 . S
O65 C64 1.249 . S
O66 Zn56 2.067 . S
O66 C64 1.270 . S
C67 O60 1.262 . S
C67 O68 1.232 . S
O68 C67 1.232 . S
C69 O61 1.260 . S
C69 O62 1.257 . S
Zn70 O73 2.031 . S
Zn70 O75 2.049 . S
Zn70 O80 2.067 . S
Zn71 O72 1.962 . S
Zn71 O74 1.986 . S
Zn71 O76 1.996 . S
Zn71 O79 1.943 . S
O72 Zn71 1.962 . S
O72 C77 1.254 . S
O73 Zn70 2.031 . S
O73 C77 1.269 . S
O74 Zn71 1.986 . S
O74 C81 1.262 . S
O75 Zn70 2.049 . S
O75 C83 1.260 . S
O76 Zn71 1.996 . S
O76 C83 1.257 . S
C77 O72 1.254 . S
C77 O73 1.269 . S
C78 O79 1.249 . S
C78 O80 1.270 . S
O79 Zn71 1.943 . S
O79 C78 1.249 . S
O80 Zn70 2.067 . S
O80 C78 1.270 . S
C81 O74 1.262 . S
C81 O82 1.232 . S
O82 C81 1.232 . S
C83 O75 1.260 . S
C83 O76 1.257 . S
Zn84 O87 2.031 . S
Zn84 O89 2.049 . S
Zn84 O94 2.067 . S
Zn85 O86 1.962 . S
Zn85 O88 1.986 . S
Zn85 O90 1.996 . S
Zn85 O93 1.943 . S
O86 Zn85 1.962 . S
O86 C91 1.254 . S
O87 Zn84 2.031 . S
O87 C91 1.269 . S
O88 Zn85 1.986 . S
O88 C95 1.262 . S
O89 Zn84 2.049 . S
O89 C97 1.260 . S
O90 Zn85 1.996 . S
O90 C97 1.257 . S
C91 O86 1.254 . S
C91 O87 1.269 . S
C92 O93 1.249 . S
C92 O94 1.270 . S
O93 Zn85 1.943 . S
O93 C92 1.249 . S
O94 Zn84 2.067 . S
O94 C92 1.270 . S
C95 O88 1.262 . S
C95 O96 1.232 . S
O96 C95 1.232 . S
C97 O89 1.260 . S
C97 O90 1.257 . S
Zn98 O101 2.031 . S
Zn98 O103 2.049 . S
Zn98 O108 2.067 . S
Zn99 O100 1.962 . S
Zn99 O102 1.986 . S
Zn99 O104 1.996 . S
Zn99 O107 1.943 . S
O100 Zn99 1.962 . S
O100 C105 1.254 . S
O101 Zn98 2.031 . S
O101 C105 1.269 . S
O102 Zn99 1.986 . S
O102 C109 1.262 . S
O103 Zn98 2.049 . S
O103 C111 1.260 . S
O104 Zn99 1.996 . S
O104 C111 1.257 . S
C105 O100 1.254 . S
C105 O101 1.269 . S
C106 O107 1.249 . S
C106 O108 1.270 . S
O107 Zn99 1.943 . S
O107 C106 1.249 . S
O108 Zn98 2.067 . S
O108 C106 1.270 . S
C109 O102 1.262 . S
C109 O110 1.232 . S
O110 C109 1.232 . S
C111 O103 1.260 . S
C111 O104 1.257 . S
Zn112 O115 2.031 . S
Zn112 O117 2.049 . S
Zn112 O122 2.067 . S
Zn113 O114 1.962 . S
Zn113 O116 1.986 . S
Zn113 O118 1.996 . S
Zn113 O121 1.943 . S
O114 Zn113 1.962 . S
O114 C119 1.254 . S
O115 Zn112 2.031 . S
O115 C119 1.269 . S
O116 Zn113 1.986 . S
O116 C123 1.262 . S
O117 Zn112 2.049 . S
O117 C125 1.260 . S
O118 Zn113 1.996 . S
O118 C125 1.257 . S
C119 O114 1.254 . S
C119 O115 1.269 . S
C120 O121 1.249 . S
C120 O122 1.270 . S
O121 Zn113 1.943 . S
O121 C120 1.249 . S
O122 Zn112 2.067 . S
O122 C120 1.270 . S
C123 O116 1.262 . S
C123 O124 1.232 . S
O124 C123 1.232 . S
C125 O117 1.260 . S
C125 O118 1.257 . S
Zn126 O129 2.031 . S
Zn126 O131 2.049 . S
Zn126 O136 2.067 . S
Zn127 O128 1.962 . S
Zn127 O130 1.986 . S
Zn127 O132 1.996 . S
Zn127 O135 1.943 . S
O128 Zn127 1.962 . S
O128 C133 1.254 . S
O129 Zn126 2.031 . S
O129 C133 1.269 . S
O130 Zn127 1.986 . S
O130 C137 1.262 . S
O131 Zn126 2.049 . S
O131 C139 1.260 . S
O132 Zn127 1.996 . S
O132 C139 1.257 . S
C133 O128 1.254 . S
C133 O129 1.269 . S
C134 O135 1.249 . S
C134 O136 1.270 . S
O135 Zn127 1.943 . S
O135 C134 1.249 . S
O136 Zn126 2.067 . S
O136 C134 1.270 . S
C137 O130 1.262 . S
C137 O138 1.232 . S
O138 C137 1.232 . S
C139 O131 1.260 . S
C139 O132 1.257 . S
Zn140 O143 2.031 . S
Zn140 O145 2.049 . S
Zn140 O150 2.067 . S
Zn141 O142 1.962 . S
Zn141 O144 1.986 . S
Zn141 O146 1.996 . S
Zn141 O149 1.943 . S
O142 Zn141 1.962 . S
O142 C147 1.254 . S
O143 Zn140 2.031 . S
O143 C147 1.269 . S
O144 Zn141 1.986 . S
O144 C151 1.262 . S
O145 Zn140 2.049 . S
O145 C153 1.260 . S
O146 Zn141 1.996 . S
O146 C153 1.257 . S
C147 O142 1.254 . S
C147 O143 1.269 . S
C148 O149 1.249 . S
C148 O150 1.270 . S
O149 Zn141 1.943 . S
O149 C148 1.249 . S
O150 Zn140 2.067 . S
O150 C148 1.270 . S
C151 O144 1.262 . S
C151 O152 1.232 . S
O152 C151 1.232 . S
C153 O145 1.260 . S
C153 O146 1.257 . S
Zn154 O157 2.031 . S
Zn154 O159 2.049 . S
Zn154 O164 2.067 . S
Zn155 O156 1.962 . S
Zn155 O158 1.986 . S
Zn155 O160 1.996 . S
Zn155 O163 1.943 . S
O156 Zn155 1.962 . S
O156 C161 1.254 . S
O157 Zn154 2.031 . S
O157 C161 1.269 . S
O158 Zn155 1.986 . S
O158 C165 1.262 . S
O159 Zn154 2.049 . S
O159 C167 1.260 . S
O160 Zn155 1.996 . S
O160 C167 1.257 . S
C161 O156 1.254 . S
C161 O157 1.269 . S
C162 O163 1.249 . S
C162 O164 1.270 . S
O163 Zn155 1.943 . S
O163 C162 1.249 . S
O164 Zn154 2.067 . S
O164 C162 1.270 . S
C165 O158 1.262 . S
C165 O166 1.232 . S
O166 C165 1.232 . S
C167 O159 1.260 . S
C167 O160 1.257 . S
Zn168 O171 2.031 . S
Zn168 O173 2.049 . S
Zn168 O178 2.067 . S
Zn169 O170 1.962 . S
Zn169 O172 1.986 . S
Zn169 O174 1.996 . S
Zn169 O177 1.943 . S
O170 Zn169 1.962 . S
O170 C175 1.254 . S
O171 Zn168 2.031 . S
O171 C175 1.269 . S
O172 Zn169 1.986 . S
O172 C179 1.262 . S
O173 Zn168 2.049 . S
O173 C181 1.260 . S
O174 Zn169 1.996 . S
O174 C181 1.257 . S
C175 O170 1.254 . S
C175 O171 1.269 . S
C176 O177 1.249 . S
C176 O178 1.270 . S
O177 Zn169 1.943 . S
O177 C176 1.249 . S
O178 Zn168 2.067 . S
O178 C176 1.270 . S
C179 O172 1.262 . S
C179 O180 1.232 . S
O180 C179 1.232 . S
C181 O173 1.260 . S
C181 O174 1.257 . S
Zn182 O185 2.031 . S
Zn182 O187 2.049 . S
Zn182 O192 2.067 . S
Zn183 O184 1.962 . S
Zn183 O186 1.986 . S
Zn183 O188 1.996 . S
Zn183 O191 1.943 . S
O184 Zn183 1.962 . S
O184 C189 1.254 . S
O185 Zn182 2.031 . S
O185 C189 1.269 . S
O186 Zn183 1.986 . S
O186 C193 1.262 . S
O187 Zn182 2.049 . S
O187 C195 1.260 . S
O188 Zn183 1.996 . S
O188 C195 1.257 . S
C189 O184 1.254 . S
C189 O185 1.269 . S
C190 O191 1.249 . S
C190 O192 1.270 . S
O191 Zn183 1.943 . S
O191 C190 1.249 . S
O192 Zn182 2.067 . S
O192 C190 1.270 . S
C193 O186 1.262 . S
C193 O194 1.232 . S
O194 C193 1.232 . S
C195 O187 1.260 . S
C195 O188 1.257 . S
Zn196 O199 2.031 . S
Zn196 O201 2.049 . S
Zn196 O206 2.067 . S
Zn197 O198 1.962 . S
Zn197 O200 1.986 . S
Zn197 O202 1.996 . S
Zn197 O205 1.943 . S
O198 Zn197 1.962 . S
O198 C203 1.254 . S
O199 Zn196 2.031 . S
O199 C203 1.269 . S
O200 Zn197 1.986 . S
O200 C207 1.262 . S
O201 Zn196 2.049 . S
O201 C209 1.260 . S
O202 Zn197 1.996 . S
O202 C209 1.257 . S
C203 O198 1.254 . S
C203 O199 1.269 . S
C204 O205 1.249 . S
C204 O206 1.270 . S
O205 Zn197 1.943 . S
O205 C204 1.249 . S
O206 Zn196 2.067 . S
O206 C204 1.270 . S
C207 O200 1.262 . S
C207 O208 1.232 . S
O208 C207 1.232 . S
C209 O201 1.260 . S
C209 O202 1.257 . S
Zn210 O213 2.031 . S
Zn210 O215 2.049 . S
Zn210 O220 2.067 . S
Zn211 O212 1.962 . S
Zn211 O214 1.986 . S
Zn211 O216 1.996 . S
Zn211 O219 1.943 . S
O212 Zn211 1.962 . S
O212 C217 1.254 . S
O213 Zn210 2.031 . S
O213 C217 1.269 . S
O214 Zn211 1.986 . S
O214 C221 1.262 . S
O215 Zn210 2.049 . S
O215 C223 1.260 . S
O216 Zn211 1.996 . S
O216 C223 1.257 . S
C217 O212 1.254 . S
C217 O213 1.269 . S
C218 O219 1.249 . S
C218 O220 1.270 . S
O219 Zn211 1.943 . S
O219 C218 1.249 . S
O220 Zn210 2.067 . S
O220 C218 1.270 . S
C221 O214 1.262 . S
C221 O222 1.232 . S
O222 C221 1.232 . S
C223 O215 1.260 . S
C223 O216 1.257 . S
Zn224 O227 2.031 . S
Zn224 O229 2.049 . S
Zn224 O234 2.067 . S
Zn225 O226 1.962 . S
Zn225 O228 1.986 . S
Zn225 O230 1.996 . S
Zn225 O233 1.943 . S
O226 Zn225 1.962 . S
O226 C231 1.254 . S
O227 Zn224 2.031 . S
O227 C231 1.269 . S
O228 Zn225 1.986 . S
O228 C235 1.262 . S
O229 Zn224 2.049 . S
O229 C237 1.260 . S
O230 Zn225 1.996 . S
O230 C237 1.257 . S
C231 O226 1.254 . S
C231 O227 1.269 . S
C232 O233 1.249 . S
C232 O234 1.270 . S
O233 Zn225 1.943 . S
O233 C232 1.249 . S
O234 Zn224 2.067 . S
O234 C232 1.270 . S
C235 O228 1.262 . S
C235 O236 1.232 . S
O236 C235 1.232 . S
C237 O229 1.260 . S
C237 O230 1.257 . S
Zn238 O241 2.031 . S
Zn238 O243 2.049 . S
Zn238 O248 2.067 . S
Zn239 O240 1.962 . S
Zn239 O242 1.986 . S
Zn239 O244 1.996 . S
Zn239 O247 1.943 . S
O240 Zn239 1.962 . S
O240 C245 1.254 . S
O241 Zn238 2.031 . S
O241 C245 1.269 . S
O242 Zn239 1.986 . S
O242 C249 1.262 . S
O243 Zn238 2.049 . S
O243 C251 1.260 . S
O244 Zn239 1.996 . S
O244 C251 1.257 . S
C245 O240 1.254 . S
C245 O241 1.269 . S
C246 O247 1.249 . S
C246 O248 1.270 . S
O247 Zn239 1.943 . S
O247 C246 1.249 . S
O248 Zn238 2.067 . S
O248 C246 1.270 . S
C249 O242 1.262 . S
C249 O250 1.232 . S
O250 C249 1.232 . S
C251 O243 1.260 . S
C251 O244 1.257 . S
Zn252 O255 2.031 . S
Zn252 O257 2.049 . S
Zn252 O262 2.067 . S
Zn253 O254 1.962 . S
Zn253 O256 1.986 . S
Zn253 O258 1.996 . S
Zn253 O261 1.943 . S
O254 Zn253 1.962 . S
O254 C259 1.254 . S
O255 Zn252 2.031 . S
O255 C259 1.269 . S
O256 Zn253 1.986 . S
O256 C263 1.262 . S
O257 Zn252 2.049 . S
O257 C265 1.260 . S
O258 Zn253 1.996 . S
O258 C265 1.257 . S
C259 O254 1.254 . S
C259 O255 1.269 . S
C260 O261 1.249 . S
C260 O262 1.270 . S
O261 Zn253 1.943 . S
O261 C260 1.249 . S
O262 Zn252 2.067 . S
O262 C260 1.270 . S
C263 O256 1.262 . S
C263 O264 1.232 . S
O264 C263 1.232 . S
C265 O257 1.260 . S
C265 O258 1.257 . S
Zn266 O269 2.031 . S
Zn266 O271 2.049 . S
Zn266 O276 2.067 . S
Zn267 O268 1.962 . S
Zn267 O270 1.986 . S
Zn267 O272 1.996 . S
Zn267 O275 1.943 . S
O268 Zn267 1.962 . S
O268 C273 1.254 . S
O269 Zn266 2.031 . S
O269 C273 1.269 . S
O270 Zn267 1.986 . S
O270 C277 1.262 . S
O271 Zn266 2.049 . S
O271 C279 1.260 . S
O272 Zn267 1.996 . S
O272 C279 1.257 . S
C273 O268 1.254 . S
C273 O269 1.269 . S
C274 O275 1.249 . S
C274 O276 1.270 . S
O275 Zn267 1.943 . S
O275 C274 1.249 . S
O276 Zn266 2.067 . S
O276 C274 1.270 . S
C277 O270 1.262 . S
C277 O278 1.232 . S
O278 C277 1.232 . S
C279 O271 1.260 . S
C279 O272 1.257 . S
Zn280 O283 2.031 . S
Zn280 O285 2.049 . S
Zn280 O290 2.067 . S
Zn281 O282 1.962 . S
Zn281 O284 1.986 . S
Zn281 O286 1.996 . S
Zn281 O289 1.943 . S
O282 Zn281 1.962 . S
O282 C287 1.254 . S
O283 Zn280 2.031 . S
O283 C287 1.269 . S
O284 Zn281 1.986 . S
O284 C291 1.262 . S
O285 Zn280 2.049 . S
O285 C293 1.260 . S
O286 Zn281 1.996 . S
O286 C293 1.257 . S
C287 O282 1.254 . S
C287 O283 1.269 . S
C288 O289 1.249 . S
C288 O290 1.270 . S
O289 Zn281 1.943 . S
O289 C288 1.249 . S
O290 Zn280 2.067 . S
O290 C288 1.270 . S
C291 O284 1.262 . S
C291 O292 1.232 . S
O292 C291 1.232 . S
C293 O285 1.260 . S
C293 O286 1.257 . S
Zn294 O297 2.031 . S
Zn294 O299 2.049 . S
Zn294 O304 2.067 . S
Zn295 O296 1.962 . S
Zn295 O298 1.986 . S
Zn295 O300 1.996 . S
Zn295 O303 1.943 . S
O296 Zn295 1.962 . S
O296 C301 1.254 . S
O297 Zn294 2.031 . S
O297 C301 1.269 . S
O298 Zn295 1.986 . S
O298 C305 1.262 . S
O299 Zn294 2.049 . S
O299 C307 1.260 . S
O300 Zn295 1.996 . S
O300 C307 1.257 . S
C301 O296 1.254 . S
C301 O297 1.269 . S
C302 O303 1.249 . S
C302 O304 1.270 . S
O303 Zn295 1.943 . S
O303 C302 1.249 . S
O304 Zn294 2.067 . S
O304 C302 1.270 . S
C305 O298 1.262 . S
C305 O306 1.232 . S
O306 C305 1.232 . S
C307 O299 1.260 . S
C307 O300 1.257 . S
Zn308 O311 2.031 . S
Zn308 O313 2.049 . S
Zn308 O318 2.067 . S
Zn309 O310 1.962 . S
Zn309 O312 1.986 . S
Zn309 O314 1.996 . S
Zn309 O317 1.943 . S
O310 Zn309 1.962 . S
O310 C315 1.254 . S
O311 Zn308 2.031 . S
O311 C315 1.269 . S
O312 Zn309 1.986 . S
O312 C319 1.262 . S
O313 Zn308 2.049 . S
O313 C321 1.260 . S
O314 Zn309 1.996 . S
O314 C321 1.257 . S
C315 O310 1.254 . S
C315 O311 1.269 . S
C316 O317 1.249 . S
C316 O318 1.270 . S
O317 Zn309 1.943 . S
O317 C316 1.249 . S
O318 Zn308 2.067 . S
O318 C316 1.270 . S
C319 O312 1.262 . S
C319 O320 1.232 . S
O320 C319 1.232 . S
C321 O313 1.260 . S
C321 O314 1.257 . S
Zn322 O325 2.031 . S
Zn322 O327 2.049 . S
Zn322 O332 2.067 . S
Zn323 O324 1.962 . S
Zn323 O326 1.986 . S
Zn323 O328 1.996 . S
Zn323 O331 1.943 . S
O324 Zn323 1.962 . S
O324 C329 1.254 . S
O325 Zn322 2.031 . S
O325 C329 1.269 . S
O326 Zn323 1.986 . S
O326 C333 1.262 . S
O327 Zn322 2.049 . S
O327 C335 1.260 . S
O328 Zn323 1.996 . S
O328 C335 1.257 . S
C329 O324 1.254 . S
C329 O325 1.269 . S
C330 O331 1.249 . S
C330 O332 1.270 . S
O331 Zn323 1.943 . S
O331 C330 1.249 . S
O332 Zn322 2.067 . S
O332 C330 1.270 . S
C333 O326 1.262 . S
C333 O334 1.232 . S
O334 C333 1.232 . S
C335 O327 1.260 . S
C335 O328 1.257 . S
C7 C217 1.465 . S
C21 C231 1.465 . S
C245 C35 1.465 . S
C175 C49 1.465 . S
C189 C63 1.465 . S
C203 C77 1.465 . S
C301 C91 1.465 . S
C105 C315 1.465 . S
C329 C119 1.465 . S
C133 C259 1.465 . S
C273 C147 1.465 . S
C161 C287 1.465 . S
C151 C11 1.326 1_556 S
C165 C25 1.326 . S
C39 C95 1.326 1_554 S
C53 C109 1.326 . S
C123 C67 1.326 1_556 S
C81 C137 1.326 . S
C319 C179 1.326 1_554 S
C193 C333 1.326 . S
C207 C263 1.326 1_556 S
C277 C221 1.326 . S
C235 C291 1.326 1_556 S
C249 C305 1.326 . S
C8 C260 0.879 . S
C274 C22 0.879 1_455 S
C36 C288 0.879 1_565 S
C50 C302 0.879 . S
C316 C64 0.879 1_655 S
C78 C330 0.879 1_545 S
C92 C176 0.879 . S
C106 C190 0.879 1_655 S
C204 C120 0.879 1_545 S
C218 C134 0.879 . S
C148 C232 0.879 1_455 S
C246 C162 0.879 1_565 S
C97 C13 1.425 1_556 S
C27 C111 1.425 . S
C125 C41 1.425 1_556 S
C139 C55 1.425 . S
C153 C69 1.425 1_556 S
C83 C167 1.425 . S
C265 C181 1.425 1_554 S
C195 C279 1.425 . S
C293 C209 1.425 1_554 S
C307 C223 1.425 . S
C237 C321 1.425 1_556 S
C251 C335 1.425 . S
