# Generated by pormake.
# Topology wiv, (6)-cn, num edge types: 1
# Building blocks:
#     Node 0, Type 0, BuildingBlock: CUWYAW_clean_sbu_0, # of connection points: 6
#     Node 1, Type 0, BuildingBlock: CUWYAW_clean_sbu_0, # of connection points: 6
#     Node 2, Type 0, BuildingBlock: CUWYAW_clean_sbu_0, # of connection points: 6
#     Node 3, Type 0, BuildingBlock: CUWYAW_clean_sbu_0, # of connection points: 6
#     Node 4, Type 0, BuildingBlock: CUWYAW_clean_sbu_0, # of connection points: 6
#     Node 5, Type 0, BuildingBlock: CUWYAW_clean_sbu_0, # of connection points: 6
#     Node 6, Type 0, BuildingBlock: CUWYAW_clean_sbu_0, # of connection points: 6
#     Node 7, Type 0, BuildingBlock: CUWYAW_clean_sbu_0, # of connection points: 6
#     Node 8, Type 0, BuildingBlock: CUWYAW_clean_sbu_0, # of connection points: 6
#     Node 9, Type 0, BuildingBlock: CUWYAW_clean_sbu_0, # of connection points: 6
#     Node 10, Type 0, BuildingBlock: CUWYAW_clean_sbu_0, # of connection points: 6
#     Node 11, Type 0, BuildingBlock: CUWYAW_clean_sbu_0, # of connection points: 6
#     Node 12, Type 0, BuildingBlock: CUWYAW_clean_sbu_0, # of connection points: 6
#     Node 13, Type 0, BuildingBlock: CUWYAW_clean_sbu_0, # of connection points: 6
#     Node 14, Type 0, BuildingBlock: CUWYAW_clean_sbu_0, # of connection points: 6
#     Node 15, Type 0, BuildingBlock: CUWYAW_clean_sbu_0, # of connection points: 6
#     Edge 16, Type (0, 0), BuildingBlock: EZIPEK_clean_linker_0, # of connection points: 2
#     Edge 17, Type (0, 0), BuildingBlock: EZIPEK_clean_linker_0, # of connection points: 2
#     Edge 18, Type (0, 0), BuildingBlock: EZIPEK_clean_linker_0, # of connection points: 2
#     Edge 19, Type (0, 0), BuildingBlock: EZIPEK_clean_linker_0, # of connection points: 2
#     Edge 20, Type (0, 0), BuildingBlock: EZIPEK_clean_linker_0, # of connection points: 2
#     Edge 21, Type (0, 0), BuildingBlock: EZIPEK_clean_linker_0, # of connection points: 2
#     Edge 22, Type (0, 0), BuildingBlock: EZIPEK_clean_linker_0, # of connection points: 2
#     Edge 23, Type (0, 0), BuildingBlock: EZIPEK_clean_linker_0, # of connection points: 2
#     Edge 24, Type (0, 0), BuildingBlock: EZIPEK_clean_linker_0, # of connection points: 2
#     Edge 25, Type (0, 0), BuildingBlock: EZIPEK_clean_linker_0, # of connection points: 2
#     Edge 26, Type (0, 0), BuildingBlock: EZIPEK_clean_linker_0, # of connection points: 2
#     Edge 27, Type (0, 0), BuildingBlock: EZIPEK_clean_linker_0, # of connection points: 2
#     Edge 28, Type (0, 0), BuildingBlock: EZIPEK_clean_linker_0, # of connection points: 2
#     Edge 29, Type (0, 0), BuildingBlock: EZIPEK_clean_linker_0, # of connection points: 2
#     Edge 30, Type (0, 0), BuildingBlock: EZIPEK_clean_linker_0, # of connection points: 2
#     Edge 31, Type (0, 0), BuildingBlock: EZIPEK_clean_linker_0, # of connection points: 2
#     Edge 32, Type (0, 0), BuildingBlock: EZIPEK_clean_linker_0, # of connection points: 2
#     Edge 33, Type (0, 0), BuildingBlock: EZIPEK_clean_linker_0, # of connection points: 2
#     Edge 34, Type (0, 0), BuildingBlock: EZIPEK_clean_linker_0, # of connection points: 2
#     Edge 35, Type (0, 0), BuildingBlock: EZIPEK_clean_linker_0, # of connection points: 2
#     Edge 36, Type (0, 0), BuildingBlock: EZIPEK_clean_linker_0, # of connection points: 2
#     Edge 37, Type (0, 0), BuildingBlock: EZIPEK_clean_linker_0, # of connection points: 2
#     Edge 38, Type (0, 0), BuildingBlock: EZIPEK_clean_linker_0, # of connection points: 2
#     Edge 39, Type (0, 0), BuildingBlock: EZIPEK_clean_linker_0, # of connection points: 2
#     Edge 40, Type (0, 0), BuildingBlock: EZIPEK_clean_linker_0, # of connection points: 2
#     Edge 41, Type (0, 0), BuildingBlock: EZIPEK_clean_linker_0, # of connection points: 2
#     Edge 42, Type (0, 0), BuildingBlock: EZIPEK_clean_linker_0, # of connection points: 2
#     Edge 43, Type (0, 0), BuildingBlock: EZIPEK_clean_linker_0, # of connection points: 2
#     Edge 44, Type (0, 0), BuildingBlock: EZIPEK_clean_linker_0, # of connection points: 2
#     Edge 45, Type (0, 0), BuildingBlock: EZIPEK_clean_linker_0, # of connection points: 2
#     Edge 46, Type (0, 0), BuildingBlock: EZIPEK_clean_linker_0, # of connection points: 2
#     Edge 47, Type (0, 0), BuildingBlock: EZIPEK_clean_linker_0, # of connection points: 2
#     Edge 48, Type (0, 0), BuildingBlock: EZIPEK_clean_linker_0, # of connection points: 2
#     Edge 49, Type (0, 0), BuildingBlock: EZIPEK_clean_linker_0, # of connection points: 2
#     Edge 50, Type (0, 0), BuildingBlock: EZIPEK_clean_linker_0, # of connection points: 2
#     Edge 51, Type (0, 0), BuildingBlock: EZIPEK_clean_linker_0, # of connection points: 2
#     Edge 52, Type (0, 0), BuildingBlock: EZIPEK_clean_linker_0, # of connection points: 2
#     Edge 53, Type (0, 0), BuildingBlock: EZIPEK_clean_linker_0, # of connection points: 2
#     Edge 54, Type (0, 0), BuildingBlock: EZIPEK_clean_linker_0, # of connection points: 2
#     Edge 55, Type (0, 0), BuildingBlock: EZIPEK_clean_linker_0, # of connection points: 2
#     Edge 56, Type (0, 0), BuildingBlock: EZIPEK_clean_linker_0, # of connection points: 2
#     Edge 57, Type (0, 0), BuildingBlock: EZIPEK_clean_linker_0, # of connection points: 2
#     Edge 58, Type (0, 0), BuildingBlock: EZIPEK_clean_linker_0, # of connection points: 2
#     Edge 59, Type (0, 0), BuildingBlock: EZIPEK_clean_linker_0, # of connection points: 2
#     Edge 60, Type (0, 0), BuildingBlock: EZIPEK_clean_linker_0, # of connection points: 2
#     Edge 61, Type (0, 0), BuildingBlock: EZIPEK_clean_linker_0, # of connection points: 2
#     Edge 62, Type (0, 0), BuildingBlock: EZIPEK_clean_linker_0, # of connection points: 2
#     Edge 63, Type (0, 0), BuildingBlock: EZIPEK_clean_linker_0, # of connection points: 2
# Relax obj value: 0.187
# Max RMSD: 0.229
# Mean RMSD: 0.229
data_MOF--net-wiv--node1-CUWYAW_clean_sbu_0--edge1-EZIPEK_clean_linker_0
_symmetry_space_group_name_H-M    P1
_symmetry_Int_Tables_number       1
_symmetry_cell_setting            triclinic
loop_
_symmetry_equiv_pos_as_xyz
'x, y, z'
_cell_length_a     34.886125
_cell_length_b     34.973535
_cell_length_c     20.309034
_cell_angle_alpha  89.799033
_cell_angle_beta   90.129381
_cell_angle_gamma 90.03905
loop_
_atom_site_label
_atom_site_type_symbol
_atom_site_fract_x
_atom_site_fract_y
_atom_site_fract_z
_atom_type_partial_charge
C0 C 0.41473 0.10992 0.9716 0.0
Eu1 Eu 0.38019 0.0978 0.08402 0.0
C2 C 0.40185 0.11133 0.90138 0.0
C3 C 0.41324 0.08227 0.85778 0.0
C4 C 0.39938 0.08124 0.7929 0.0
C5 C 0.37413 0.1095 0.76965 0.0
C6 C 0.36359 0.13928 0.81226 0.0
C7 C 0.37711 0.14011 0.87755 0.0
C8 C 0.37655 0.02752 0.14418 0.0
C9 C 0.29098 0.08767 1.03955 0.0
C10 C 0.28172 0.07886 0.29637 0.0
Eu11 Eu 0.3226 0.09351 0.19217 0.0
C12 C 0.29207 0.08291 0.36768 0.0
C13 C 0.2769 0.11262 0.4063 0.0
C14 C 0.28853 0.11739 0.47222 0.0
C15 C 0.31592 0.09283 0.50076 0.0
C16 C 0.33091 0.06308 0.4625 0.0
C17 C 0.31899 0.05799 0.39716 0.0
C18 C 0.34899 0.16595 0.16957 0.0
C19 C 0.41217 0.10474 0.23079 0.0
O20 O 0.40422 0.13755 1.01111 0.0
O21 O 0.41265 0.07647 1.00013 0.0
O22 O 0.40769 0.04423 0.12429 0.0
O23 O 0.34822 0.04876 0.13019 0.0
O24 O 0.32729 0.08859 1.02263 0.0
O25 O 0.28055 0.08973 0.10288 0.0
O26 O 0.30076 0.05294 0.26395 0.0
O27 O 0.2771 0.11015 0.26146 0.0
O28 O 0.34283 0.1509 0.22655 0.0
O29 O 0.34033 0.14182 0.12545 0.0
O30 O 0.37967 0.08748 0.2464 0.0
O31 O 0.41837 0.11668 0.16964 0.0
H32 H 0.43239 0.05982 0.87434 0.0
H33 H 0.40804 0.05808 0.76093 0.0
H34 H 0.34452 0.16161 0.79515 0.0
H35 H 0.36774 0.16299 0.90948 0.0
H36 H 0.25632 0.13239 0.38535 0.0
H37 H 0.27654 0.14058 0.50073 0.0
H38 H 0.35202 0.04377 0.48328 0.0
H39 H 0.33154 0.03475 0.36948 0.0
C40 C 0.07024 0.70003 0.78868 0.0
Eu41 Eu 0.09032 0.66784 0.89974 0.0
C42 C 0.07199 0.6869 0.71868 0.0
C43 C 0.10678 0.68668 0.68362 0.0
C44 C 0.10835 0.67334 0.61858 0.0
C45 C 0.07533 0.65922 0.58713 0.0
C46 C 0.04054 0.65919 0.62202 0.0
C47 C 0.03882 0.67317 0.68674 0.0
C48 C 0.16302 0.65949 0.94735 0.0
C49 C 0.11182 0.57918 0.85207 0.0
C50 C 0.10703 0.56826 0.1142 0.0
Eu51 Eu 0.09578 0.60387 1.00217 0.0
C52 C 0.10278 0.58047 0.18421 0.0
C53 C 0.08294 0.5572 0.22933 0.0
C54 C 0.07759 0.56894 0.2948 0.0
C55 C 0.09197 0.60429 0.31664 0.0
C56 C 0.11169 0.62768 0.2716 0.0
C57 C 0.1171 0.61592 0.20624 0.0
C58 C 0.02743 0.60773 0.93747 0.0
C59 C 0.08263 0.69283 0.05254 0.0
O60 O 0.0462 0.68199 0.82708 0.0
O61 O 0.10265 0.70745 0.81871 0.0
O62 O 0.14651 0.69171 0.93199 0.0
O63 O 0.13946 0.63229 0.93623 0.0
O64 O 0.10356 0.61519 0.83788 0.0
O65 O 0.11416 0.56725 0.91447 0.0
O66 O 0.13451 0.58421 0.08013 0.0
O67 O 0.07542 0.56526 0.07997 0.0
O68 O 0.04083 0.57712 0.96514 0.0
O69 O 0.04789 0.6358 0.9561 0.0
O70 O 0.09266 0.65729 0.06496 0.0
O71 O 0.07629 0.70467 0.99089 0.0
H72 H 0.13298 0.69673 0.70643 0.0
H73 H 0.13552 0.67365 0.59289 0.0
H74 H 0.01469 0.64829 0.59912 0.0
H75 H 0.01156 0.67276 0.71214 0.0
H76 H 0.07128 0.53002 0.21379 0.0
H77 H 0.06212 0.55048 0.32845 0.0
H78 H 0.12286 0.65514 0.28706 0.0
H79 H 0.13234 0.63476 0.17295 0.0
C80 C 0.58563 0.89965 0.98214 0.0
Eu81 Eu 0.62243 0.90352 0.09443 0.0
C82 C 0.59763 0.90058 0.91159 0.0
C83 C 0.57484 0.91956 0.86451 0.0
C84 C 0.58663 0.92231 0.79846 0.0
C85 C 0.62162 0.90632 0.77808 0.0
C86 C 0.64438 0.88723 0.825 0.0
C87 C 0.63243 0.88416 0.89085 0.0
C88 C 0.63439 0.96822 0.16696 0.0
C89 C 0.712 0.9069 0.04304 0.0
C90 C 0.72286 0.90854 0.30665 0.0
Eu91 Eu 0.68589 0.89638 0.19567 0.0
C92 C 0.71025 0.91049 0.37717 0.0
C93 C 0.70694 0.87711 0.4158 0.0
C94 C 0.6931 0.87872 0.48065 0.0
C95 C 0.68124 0.91359 0.50842 0.0
C96 C 0.68489 0.94704 0.47013 0.0
C97 C 0.70024 0.94565 0.4062 0.0
C98 C 0.67088 0.829 0.13834 0.0
C99 C 0.59255 0.87858 0.23532 0.0
O100 O 0.59528 0.86951 1.01701 0.0
O101 O 0.59022 0.93141 1.01506 0.0
O102 O 0.60117 0.95719 0.14534 0.0
O103 O 0.66022 0.94603 0.14514 0.0
O104 O 0.67532 0.90298 1.03015 0.0
O105 O 0.72454 0.90775 0.10516 0.0
O106 O 0.71194 0.93603 0.26717 0.0
O107 O 0.72138 0.87539 0.27758 0.0
O108 O 0.70533 0.84134 0.15173 0.0
O109 O 0.64607 0.85413 0.15302 0.0
O110 O 0.6296 0.87824 0.25108 0.0
O111 O 0.58107 0.88543 0.17429 0.0
H112 H 0.54799 0.93257 0.87898 0.0
H113 H 0.56863 0.93728 0.76332 0.0
H114 H 0.67152 0.87477 0.81065 0.0
H115 H 0.65061 0.86912 0.92551 0.0
H116 H 0.71487 0.84957 0.39583 0.0
H117 H 0.69089 0.85248 0.50888 0.0
H118 H 0.67588 0.97434 0.48981 0.0
H119 H 0.70288 0.97205 0.37855 0.0
C120 C 0.90138 0.29016 0.7734 0.0
Eu121 Eu 0.89085 0.32907 0.88086 0.0
C122 C 0.9027 0.30361 0.70313 0.0
C123 C 0.87218 0.29543 0.65985 0.0
C124 C 0.87186 0.30978 0.59505 0.0
C125 C 0.90201 0.3328 0.57166 0.0
C126 C 0.93271 0.34083 0.61448 0.0
C127 C 0.93313 0.32637 0.67928 0.0
C128 C 0.81991 0.35307 0.91652 0.0
C129 C 0.88301 0.41849 0.84259 0.0
C130 C 0.8833 0.42827 0.09672 0.0
Eu131 Eu 0.89206 0.38648 0.99143 0.0
C132 C 0.88339 0.41664 0.16778 0.0
C133 C 0.90221 0.43916 0.21521 0.0
C134 C 0.90522 0.42677 0.28112 0.0
C135 C 0.88965 0.39143 0.3011 0.0
C136 C 0.87047 0.3691 0.25394 0.0
C137 C 0.86728 0.38157 0.18825 0.0
C138 C 0.96214 0.36738 0.93718 0.0
C139 C 0.89828 0.29872 1.03518 0.0
O140 O 0.92958 0.30034 0.81228 0.0
O141 O 0.86817 0.29253 0.80289 0.0
O142 O 0.83117 0.34736 0.85697 0.0
O143 O 0.84682 0.34507 0.95672 0.0
O144 O 0.89606 0.38466 0.82516 0.0
O145 O 0.8756 0.42645 0.90535 0.0
O146 O 0.85454 0.41653 0.06039 0.0
O147 O 0.916 0.42495 0.06596 0.0
O148 O 0.95687 0.37295 0.99958 0.0
O149 O 0.9312 0.37356 0.90836 0.0
O150 O 0.88814 0.33335 0.05173 0.0
O151 O 0.90432 0.28963 0.9719 0.0
H152 H 0.84833 0.27805 0.67633 0.0
H153 H 0.84786 0.30311 0.56318 0.0
H154 H 0.95624 0.35862 0.59789 0.0
H155 H 0.95708 0.33358 0.71093 0.0
H156 H 0.91515 0.46612 0.20106 0.0
H157 H 0.92018 0.44452 0.31642 0.0
H158 H 0.85824 0.34177 0.26788 0.0
H159 H 0.8526 0.3634 0.15329 0.0
C160 C 0.42003 0.39176 0.38165 0.0
Eu161 Eu 0.38513 0.3987 0.26806 0.0
C162 C 0.40522 0.39417 0.45007 0.0
C163 C 0.37063 0.41335 0.46256 0.0
C164 C 0.35513 0.41435 0.52576 0.0
C165 C 0.37487 0.39819 0.57936 0.0
C166 C 0.4105 0.38045 0.56779 0.0
C167 C 0.42521 0.37786 0.50339 0.0
C168 C 0.3827 0.46679 0.19934 0.0
C169 C 0.29475 0.40992 0.31189 0.0
C170 C 0.29168 0.43431 0.05253 0.0
Eu171 Eu 0.32251 0.40615 0.15908 0.0
C172 C 0.29716 0.427 0.98142 0.0
C173 C 0.30291 0.39005 0.95685 0.0
C174 C 0.31148 0.38435 0.89004 0.0
C175 C 0.31257 0.41521 0.8444 0.0
C176 C 0.31118 0.45233 0.87252 0.0
C177 C 0.30245 0.45804 0.93893 0.0
C178 C 0.33171 0.33002 0.18424 0.0
C179 C 0.41252 0.38027 0.12403 0.0
O180 O 0.40877 0.36237 0.34669 0.0
O181 O 0.41856 0.42361 0.34787 0.0
O182 O 0.41348 0.44938 0.21882 0.0
O183 O 0.35423 0.44735 0.21977 0.0
O184 O 0.32991 0.39918 0.32613 0.0
O185 O 0.28405 0.41726 0.24991 0.0
O186 O 0.32147 0.4491 0.08179 0.0
O187 O 0.27496 0.4079 0.08843 0.0
O188 O 0.30724 0.34431 0.14284 0.0
O189 O 0.34964 0.35721 0.21213 0.0
O190 O 0.3794 0.3956 0.10487 0.0
O191 O 0.42046 0.3735 0.18669 0.0
H192 H 0.35562 0.42817 0.42368 0.0
H193 H 0.32794 0.42867 0.53316 0.0
H194 H 0.42657 0.3682 0.60836 0.0
H195 H 0.45226 0.36343 0.49535 0.0
H196 H 0.3021 0.36558 0.98969 0.0
H197 H 0.31869 0.35556 0.87593 0.0
H198 H 0.31819 0.47773 0.84491 0.0
H199 H 0.30114 0.487 0.95767 0.0
C200 C 0.41171 0.70605 0.04948 0.0
Eu201 Eu 0.39609 0.66744 0.94342 0.0
C202 C 0.41159 0.69349 0.12034 0.0
C203 C 0.37783 0.69492 0.15827 0.0
C204 C 0.37713 0.68094 0.22328 0.0
C205 C 0.41003 0.66468 0.25212 0.0
C206 C 0.44388 0.66339 0.21464 0.0
C207 C 0.44474 0.67785 0.14989 0.0
C208 C 0.32505 0.64517 0.90789 0.0
C209 C 0.38242 0.57698 0.97934 0.0
C210 C 0.38851 0.56891 0.72619 0.0
Eu211 Eu 0.39683 0.6105 0.83166 0.0
C212 C 0.38972 0.5805 0.65519 0.0
C213 C 0.41082 0.559 0.60939 0.0
C214 C 0.41431 0.57122 0.54352 0.0
C215 C 0.39702 0.60542 0.52202 0.0
C216 C 0.37585 0.62689 0.56764 0.0
C217 C 0.37219 0.61458 0.63329 0.0
C218 C 0.4662 0.62868 0.89016 0.0
C219 C 0.40544 0.69803 0.7874 0.0
O220 O 0.43824 0.69131 1.01169 0.0
O221 O 0.37852 0.70824 1.01924 0.0
O222 O 0.33607 0.65253 0.96723 0.0
O223 O 0.35193 0.65217 0.86697 0.0
O224 O 0.39368 0.61105 1.00013 0.0
O225 O 0.37858 0.56973 0.91532 0.0
O226 O 0.35951 0.58122 0.76119 0.0
O227 O 0.4209 0.57144 0.75842 0.0
O228 O 0.46212 0.62307 0.8275 0.0
O229 O 0.4348 0.6221 0.91676 0.0
O230 O 0.39574 0.6634 0.76985 0.0
O231 O 0.41005 0.70674 0.85145 0.0
H232 H 0.35169 0.70658 0.13753 0.0
H233 H 0.35066 0.68236 0.25092 0.0
H234 H 0.46965 0.65096 0.23546 0.0
H235 H 0.47131 0.67611 0.12255 0.0
H236 H 0.42509 0.53296 0.62482 0.0
H237 H 0.43096 0.55424 0.50948 0.0
H238 H 0.36243 0.65344 0.55253 0.0
H239 H 0.35603 0.63214 0.66713 0.0
C240 C 0.57628 0.604 0.34797 0.0
Eu241 Eu 0.61216 0.59596 0.23596 0.0
C242 C 0.58848 0.60181 0.41838 0.0
C243 C 0.56575 0.58196 0.4643 0.0
C244 C 0.57783 0.5776 0.52998 0.0
C245 C 0.61294 0.59307 0.55132 0.0
C246 C 0.63558 0.61321 0.50561 0.0
C247 C 0.6235 0.61757 0.43994 0.0
C248 C 0.61926 0.53027 0.16559 0.0
C249 C 0.70172 0.58844 0.28662 0.0
C250 C 0.71276 0.58664 1.02344 0.0
Eu251 Eu 0.67529 0.59854 0.13363 0.0
C252 C 0.7001 0.5839 0.95289 0.0
C253 C 0.69575 0.61718 0.91426 0.0
C254 C 0.6822 0.61522 0.84926 0.0
C255 C 0.67167 0.58005 0.82108 0.0
C256 C 0.67618 0.54665 0.85933 0.0
C257 C 0.69121 0.54845 0.92369 0.0
C258 C 0.66341 0.66716 0.18876 0.0
C259 C 0.58225 0.61694 0.0932 0.0
O260 O 0.58891 0.63291 0.31286 0.0
O261 O 0.57722 0.57186 0.31525 0.0
O262 O 0.58736 0.54253 0.19031 0.0
O263 O 0.647 0.55085 0.18552 0.0
O264 O 0.66526 0.59333 0.29998 0.0
O265 O 0.71389 0.58681 0.22444 0.0
O266 O 0.70342 0.55899 0.06385 0.0
O267 O 0.70963 0.61995 0.05144 0.0
O268 O 0.69712 0.65299 0.17642 0.0
O269 O 0.63739 0.6432 0.17438 0.0
O270 O 0.61896 0.6141 0.07658 0.0
O271 O 0.5712 0.61413 0.15529 0.0
H272 H 0.53877 0.56937 0.44912 0.0
H273 H 0.55992 0.56185 0.56412 0.0
H274 H 0.66283 0.62526 0.52066 0.0
H275 H 0.64181 0.63295 0.40598 0.0
H276 H 0.70276 0.64499 0.9343 0.0
H277 H 0.67916 0.64144 0.82119 0.0
H278 H 0.66804 0.51913 0.83935 0.0
H279 H 0.69448 0.52215 0.95147 0.0
C280 C 0.56398 0.27891 0.04585 0.0
Eu281 Eu 0.58242 0.31822 0.94216 0.0
C282 C 0.56809 0.28928 0.11691 0.0
C283 C 0.59781 0.27373 0.15558 0.0
C284 C 0.60256 0.28459 0.2216 0.0
C285 C 0.5782 0.31187 0.25026 0.0
C286 C 0.54872 0.32771 0.21166 0.0
C287 C 0.54349 0.31633 0.14611 0.0
C288 C 0.65524 0.34289 0.91789 0.0
C289 C 0.59917 0.4063 0.9776 0.0
C290 C 0.59546 0.41056 0.71939 0.0
Eu291 Eu 0.58626 0.37622 0.83259 0.0
C292 C 0.59604 0.3966 0.65015 0.0
C293 C 0.56814 0.40968 0.60528 0.0
C294 C 0.56621 0.39494 0.54123 0.0
C295 C 0.59238 0.36703 0.5204 0.0
C296 C 0.6207 0.35431 0.56459 0.0
C297 C 0.6224 0.36872 0.62899 0.0
C298 C 0.51901 0.37617 0.9027 0.0
C299 C 0.57558 0.28749 0.79097 0.0
O300 O 0.53901 0.29873 1.01164 0.0
O301 O 0.59562 0.27275 1.01283 0.0
O302 O 0.64152 0.33459 0.97511 0.0
O303 O 0.63032 0.33572 0.87368 0.0
O304 O 0.58015 0.37529 0.99526 0.0
O305 O 0.6108 0.41089 0.91617 0.0
O306 O 0.62414 0.40124 0.75806 0.0
O307 O 0.56246 0.40785 0.74926 0.0
O308 O 0.53554 0.40629 0.87871 0.0
O309 O 0.53799 0.34721 0.88444 0.0
O310 O 0.5759 0.32356 0.77343 0.0
O311 O 0.57838 0.27674 0.8539 0.0
H312 H 0.61741 0.25306 0.13487 0.0
H313 H 0.62563 0.27206 0.25018 0.0
H314 H 0.52957 0.34882 0.23247 0.0
H315 H 0.52035 0.32917 0.11817 0.0
H316 H 0.54736 0.43095 0.62018 0.0
H317 H 0.5442 0.40522 0.5079 0.0
H318 H 0.64133 0.33305 0.54924 0.0
H319 H 0.64406 0.3577 0.66227 0.0
C320 C 0.91599 0.6143 0.46129 0.0
Eu321 Eu 0.88286 0.59967 0.57421 0.0
C322 C 0.90306 0.61265 0.39125 0.0
C323 C 0.92027 0.58646 0.34796 0.0
C324 C 0.90697 0.58245 0.28311 0.0
C325 C 0.87643 0.60489 0.25973 0.0
C326 C 0.85968 0.63171 0.30225 0.0
C327 C 0.87267 0.63542 0.36746 0.0
C328 C 0.88054 0.52675 0.62592 0.0
C329 C 0.79389 0.58792 0.53073 0.0
C330 C 0.7879 0.56643 0.78642 0.0
Eu331 Eu 0.82665 0.58774 0.68347 0.0
C332 C 0.79677 0.57114 0.85804 0.0
C333 C 0.78932 0.60565 0.89119 0.0
C334 C 0.80067 0.61059 0.95708 0.0
C335 C 0.82057 0.58153 0.99089 0.0
C336 C 0.82793 0.54705 0.95801 0.0
C337 C 0.8157 0.54172 0.89287 0.0
C338 C 0.84859 0.66171 0.67268 0.0
C339 C 0.91654 0.6037 0.71869 0.0
O340 O 0.90148 0.64082 0.49905 0.0
O341 O 0.91854 0.58149 0.49176 0.0
O342 O 0.91138 0.54494 0.60914 0.0
O343 O 0.85236 0.54821 0.61362 0.0
O344 O 0.82982 0.59193 0.51302 0.0
O345 O 0.78409 0.58583 0.59443 0.0
O346 O 0.81089 0.54378 0.75422 0.0
O347 O 0.77888 0.59696 0.75194 0.0
O348 O 0.84535 0.64302 0.72713 0.0
O349 O 0.84138 0.63999 0.62405 0.0
O350 O 0.88569 0.5831 0.73289 0.0
O351 O 0.92076 0.61903 0.65935 0.0
H352 H 0.9437 0.56855 0.3647 0.0
H353 H 0.92036 0.56165 0.25117 0.0
H354 H 0.83619 0.64936 0.28513 0.0
H355 H 0.85858 0.65577 0.39933 0.0
H356 H 0.77517 0.62907 0.86603 0.0
H357 H 0.79468 0.63747 0.98131 0.0
H358 H 0.84326 0.52423 0.98284 0.0
H359 H 0.82203 0.51477 0.86918 0.0
C360 C 0.55463 0.20249 0.28795 0.0
Eu361 Eu 0.58621 0.17446 0.39408 0.0
C362 C 0.56094 0.1936 0.21779 0.0
C363 C 0.59245 0.17121 0.19918 0.0
C364 C 0.59638 0.15864 0.13421 0.0
C365 C 0.56937 0.16911 0.08606 0.0
C366 C 0.5381 0.19214 0.10442 0.0
C367 C 0.53367 0.20387 0.17002 0.0
C368 C 0.66274 0.1701 0.42273 0.0
C369 C 0.62122 0.08845 0.36263 0.0
C370 C 0.61239 0.0788 0.6193 0.0
Eu371 Eu 0.59807 0.11227 0.50686 0.0
C372 C 0.60246 0.08897 0.68783 0.0
C373 C 0.57126 0.11323 0.70115 0.0
C374 C 0.56409 0.12565 0.76548 0.0
C375 C 0.58798 0.11401 0.81751 0.0
C376 C 0.61875 0.08927 0.80445 0.0
C377 C 0.62593 0.07686 0.74008 0.0
C378 C 0.52998 0.11094 0.4391 0.0
C379 C 0.57659 0.20047 0.54766 0.0
O380 O 0.54019 0.17423 0.3218 0.0
O381 O 0.58257 0.21964 0.31962 0.0
O382 O 0.6477 0.19288 0.37915 0.0
O383 O 0.63582 0.151 0.44931 0.0
O384 O 0.60068 0.11818 0.34199 0.0
O385 O 0.62991 0.08333 0.42532 0.0
O386 O 0.63645 0.10196 0.59021 0.0
O387 O 0.58396 0.06898 0.58071 0.0
O388 O 0.54619 0.0809 0.46465 0.0
O389 O 0.54878 0.1401 0.4571 0.0
O390 O 0.58553 0.16528 0.56459 0.0
O391 O 0.57337 0.21182 0.48489 0.0
H392 H 0.61365 0.16294 0.23537 0.0
H393 H 0.62061 0.14085 0.12131 0.0
H394 H 0.51682 0.20043 0.06818 0.0
H395 H 0.50891 0.22076 0.18353 0.0
H396 H 0.55284 0.12314 0.66165 0.0
H397 H 0.54035 0.14489 0.7745 0.0
H398 H 0.63754 0.08009 0.84397 0.0
H399 H 0.65027 0.05841 0.7309 0.0
C400 C 0.07302 0.38513 0.4962 0.0
Eu401 Eu 0.11623 0.39437 0.59977 0.0
C402 C 0.08253 0.39201 0.42578 0.0
C403 C 0.11518 0.41353 0.40877 0.0
C404 C 0.12709 0.41646 0.34297 0.0
C405 C 0.10662 0.39793 0.29264 0.0
C406 C 0.07347 0.3771 0.30936 0.0
C407 C 0.06159 0.37409 0.37536 0.0
C408 C 0.13867 0.46343 0.65287 0.0
C409 C 0.20433 0.40144 0.55665 0.0
C410 C 0.20914 0.39697 0.82319 0.0
Eu411 Eu 0.17629 0.39058 0.70802 0.0
C412 C 0.19335 0.39839 0.89152 0.0
C413 C 0.17003 0.36861 0.91597 0.0
C414 C 0.15555 0.36968 0.98026 0.0
C415 C 0.16391 0.40052 1.02191 0.0
C416 C 0.18676 0.43058 0.99766 0.0
C417 C 0.20123 0.42957 0.93303 0.0
C418 C 0.16361 0.32173 0.64944 0.0
C419 C 0.08433 0.3819 0.74656 0.0
O420 O 0.09218 0.35723 0.52403 0.0
O421 O 0.07087 0.41528 0.53425 0.0
O422 O 0.13168 0.45848 0.59067 0.0
O423 O 0.13287 0.43245 0.68148 0.0
O424 O 0.1708 0.38634 0.54302 0.0
O425 O 0.21273 0.41142 0.61861 0.0
O426 O 0.20264 0.42637 0.78468 0.0
O427 O 0.20528 0.36462 0.79195 0.0
O428 O 0.19709 0.3349 0.66592 0.0
O429 O 0.13835 0.34647 0.6629 0.0
O430 O 0.12052 0.38477 0.76584 0.0
O431 O 0.07431 0.38335 0.68344 0.0
H432 H 0.13211 0.42732 0.44664 0.0
H433 H 0.15281 0.4325 0.33146 0.0
H434 H 0.05731 0.36243 0.27148 0.0
H435 H 0.03661 0.357 0.3872 0.0
H436 H 0.16294 0.34425 0.88557 0.0
H437 H 0.13796 0.34623 0.99777 0.0
H438 H 0.19362 0.45468 1.02891 0.0
H439 H 0.21873 0.45307 0.91557 0.0
C440 C 0.41678 0.78187 0.27976 0.0
Eu441 Eu 0.40417 0.82114 0.38612 0.0
C442 C 0.41732 0.79466 0.20892 0.0
C443 C 0.38482 0.78995 0.16834 0.0
C444 C 0.38435 0.80376 0.10315 0.0
C445 C 0.41618 0.82314 0.07682 0.0
C446 C 0.44877 0.82782 0.11691 0.0
C447 C 0.44943 0.81361 0.18189 0.0
C448 C 0.33416 0.84591 0.42257 0.0
C449 C 0.39257 0.91115 0.34831 0.0
C450 C 0.40214 0.92058 0.60173 0.0
Eu451 Eu 0.40778 0.87868 0.49607 0.0
C452 C 0.40237 0.90915 0.67316 0.0
C453 C 0.43294 0.92012 0.7145 0.0
C454 C 0.43515 0.90713 0.78012 0.0
C455 C 0.40667 0.88307 0.80645 0.0
C456 C 0.37576 0.87257 0.76574 0.0
C457 C 0.3737 0.88525 0.69995 0.0
C458 C 0.47644 0.85886 0.43652 0.0
C459 C 0.40893 0.79081 0.54264 0.0
O460 O 0.44441 0.79435 0.31801 0.0
O461 O 0.38354 0.78196 0.30978 0.0
O462 O 0.34506 0.83986 0.36277 0.0
O463 O 0.36127 0.83804 0.46266 0.0
O464 O 0.40319 0.87676 0.32859 0.0
O465 O 0.38928 0.91923 0.4121 0.0
O466 O 0.37244 0.9106 0.56601 0.0
O467 O 0.43432 0.91595 0.56981 0.0
O468 O 0.47271 0.86436 0.49926 0.0
O469 O 0.44484 0.86562 0.41052 0.0
O470 O 0.40291 0.8265 0.5587 0.0
O471 O 0.41367 0.78109 0.47905 0.0
H472 H 0.35945 0.7759 0.18727 0.0
H473 H 0.35885 0.79976 0.07344 0.0
H474 H 0.47368 0.84268 0.09797 0.0
H475 H 0.47499 0.81808 0.21126 0.0
H476 H 0.45561 0.93825 0.69564 0.0
H477 H 0.45933 0.91562 0.81029 0.0
H478 H 0.35347 0.85401 0.78467 0.0
H479 H 0.34988 0.87577 0.66985 0.0
C480 C 0.92557 0.89531 0.85179 0.0
Eu481 Eu 0.88953 0.8998 0.73883 0.0
C482 C 0.91365 0.89876 0.92257 0.0
C483 C 0.91551 0.93417 0.95547 0.0
C484 C 0.90338 0.93766 1.02119 0.0
C485 C 0.88908 0.90586 0.05589 0.0
C486 C 0.88774 0.87037 1.02372 0.0
C487 C 0.90005 0.86681 0.9581 0.0
C488 C 0.88091 0.96369 0.66156 0.0
C489 C 0.80139 0.9059 0.79399 0.0
C490 C 0.78977 0.90344 0.52857 0.0
Eu491 Eu 0.82673 0.89421 0.64067 0.0
C492 C 0.80148 0.90721 0.4576 0.0
C493 C 0.80463 0.87462 0.41731 0.0
C494 C 0.81769 0.87756 0.35205 0.0
C495 C 0.82894 0.91301 0.32536 0.0
C496 C 0.82527 0.94573 0.36513 0.0
C497 C 0.81046 0.94303 0.42946 0.0
C498 C 0.83616 0.82654 0.70021 0.0
C499 C 0.91966 0.87514 0.60118 0.0
O500 O 0.91344 0.86534 0.81917 0.0
O501 O 0.92455 0.92639 0.81568 0.0
O502 O 0.91356 0.95102 0.68323 0.0
O503 O 0.85387 0.94411 0.68644 0.0
O504 O 0.83838 0.90597 0.80512 0.0
O505 O 0.788 0.9044 0.73228 0.0
O506 O 0.79778 0.93159 0.56863 0.0
O507 O 0.79551 0.87033 0.55671 0.0
O508 O 0.80304 0.84213 0.6881 0.0
O509 O 0.86357 0.84917 0.68456 0.0
O510 O 0.88318 0.87992 0.58439 0.0
O511 O 0.93081 0.87812 0.66293 0.0
H512 H 0.92613 0.95936 0.93027 0.0
H513 H 0.90481 0.96534 0.04486 0.0
H514 H 0.87686 0.84541 0.04929 0.0
H515 H 0.89848 0.83899 0.93499 0.0
H516 H 0.79724 0.84662 0.43637 0.0
H517 H 0.82001 0.85184 0.32276 0.0
H518 H 0.83386 0.97346 0.34633 0.0
H519 H 0.80767 0.96891 0.45817 0.0
C520 C 0.91566 0.2215 0.53807 0.0
Eu521 Eu 0.90076 0.17995 0.43471 0.0
C522 C 0.90938 0.2129 0.6091 0.0
C523 C 0.87611 0.19385 0.63041 0.0
C524 C 0.87292 0.18051 0.69544 0.0
C525 C 0.90241 0.18693 0.74146 0.0
C526 C 0.9353 0.20689 0.72058 0.0
C527 C 0.93888 0.21942 0.65503 0.0
C528 C 0.82789 0.15471 0.41189 0.0
C529 C 0.88803 0.09073 0.47221 0.0
C530 C 0.88831 0.08957 0.21444 0.0
Eu531 Eu 0.89747 0.12379 0.32788 0.0
C532 C 0.89056 0.10329 0.14492 0.0
C533 C 0.91753 0.13127 0.12593 0.0
C534 C 0.91951 0.14416 0.06052 0.0
C535 C 0.89485 0.12913 1.01238 0.0
C536 C 0.86798 0.10113 1.03102 0.0
C537 C 0.86584 0.08836 0.09666 0.0
C538 C 0.9668 0.12533 0.39211 0.0
C539 C 0.90703 0.21158 0.28224 0.0
O540 O 0.94081 0.19955 0.50968 0.0
O541 O 0.88552 0.22721 0.5006 0.0
O542 O 0.84311 0.16002 0.4689 0.0
O543 O 0.85216 0.16313 0.36757 0.0
O544 O 0.90562 0.12275 0.48911 0.0
O545 O 0.87558 0.08616 0.41103 0.0
O546 O 0.85957 0.1018 0.24997 0.0
O547 O 0.92042 0.08964 0.24755 0.0
O548 O 0.94853 0.09491 0.37402 0.0
O549 O 0.94719 0.15443 0.3756 0.0
O550 O 0.90869 0.1755 0.26612 0.0
O551 O 0.90327 0.22202 0.34523 0.0
H552 H 0.85289 0.18835 0.59633 0.0
H553 H 0.84736 0.16512 0.71004 0.0
H554 H 0.95857 0.21211 0.75481 0.0
H555 H 0.96501 0.23367 0.63988 0.0
H556 H 0.93726 0.14321 0.16156 0.0
H557 H 0.9403 0.16591 0.04744 0.0
H558 H 0.84856 0.08927 0.99475 0.0
H559 H 0.84488 0.06678 0.10974 0.0
C560 C 0.07675 0.11048 0.85807 0.0
Eu561 Eu 0.10898 0.09278 0.74654 0.0
C562 C 0.09209 0.10837 0.9268 0.0
C563 C 0.07086 0.09037 0.977 0.0
C564 C 0.08648 0.08551 1.04049 0.0
C565 C 0.12384 0.09819 0.05489 0.0
C566 C 0.14491 0.11647 1.00498 0.0
C567 C 0.12918 0.12178 0.94201 0.0
C568 C 0.1142 0.02222 0.69102 0.0
C569 C 0.19848 0.07983 0.79609 0.0
C570 C 0.20451 0.06211 0.53328 0.0
Eu571 Eu 0.17277 0.08464 0.64303 0.0
C572 C 0.19516 0.06662 0.46202 0.0
C573 C 0.17955 0.1006 0.43699 0.0
C574 C 0.17191 0.10476 0.36941 0.0
C575 C 0.18127 0.07583 0.3232 0.0
C576 C 0.19189 0.04003 0.35109 0.0
C577 C 0.19995 0.03595 0.41866 0.0
C578 C 0.16323 0.15753 0.68493 0.0
C579 C 0.0827 0.10485 0.59658 0.0
O580 O 0.09216 0.13593 0.81856 0.0
O581 O 0.07119 0.07769 0.82867 0.0
O582 O 0.08331 0.03581 0.71765 0.0
O583 O 0.14199 0.04416 0.7057 0.0
O584 O 0.16317 0.09085 0.80804 0.0
O585 O 0.2098 0.07166 0.73496 0.0
O586 O 0.1812 0.04074 0.56782 0.0
O587 O 0.2153 0.09273 0.5654 0.0
O588 O 0.19606 0.14268 0.66868 0.0
O589 O 0.13668 0.13335 0.67563 0.0
O590 O 0.11879 0.09645 0.58235 0.0
O591 O 0.07114 0.1086 0.65871 0.0
H592 H 0.04233 0.0796 0.96684 0.0
H593 H 0.06962 0.0714 0.07814 0.0
H594 H 0.17375 0.12654 1.01475 0.0
H595 H 0.14641 0.13597 0.90504 0.0
H596 H 0.17313 0.12411 0.46965 0.0
H597 H 0.15814 0.13101 0.35427 0.0
H598 H 0.19327 0.01423 0.32254 0.0
H599 H 0.20949 0.00845 0.43722 0.0
C600 C 0.07933 0.77631 0.56695 0.0
Eu601 Eu 0.0991 0.80841 0.45593 0.0
C602 C 0.08034 0.79036 0.63648 0.0
C603 C 0.11206 0.78241 0.67736 0.0
C604 C 0.11406 0.79681 0.74168 0.0
C605 C 0.08458 0.81988 0.76662 0.0
C606 C 0.05273 0.82778 0.72634 0.0
C607 C 0.05053 0.81305 0.66215 0.0
C608 C 0.17261 0.821 0.41878 0.0
C609 C 0.11381 0.90081 0.49017 0.0
C610 C 0.11438 0.91335 0.23768 0.0
Eu611 Eu 0.10022 0.87137 0.34058 0.0
C612 C 0.11188 0.90358 0.16609 0.0
C613 C 0.08198 0.91822 0.12669 0.0
C614 C 0.07733 0.90623 0.06115 0.0
C615 C 0.1027 0.87961 1.03333 0.0
C616 C 0.13316 0.86571 0.07183 0.0
C617 C 0.13766 0.87744 0.13739 0.0
C618 C 0.03067 0.85159 0.39519 0.0
C619 C 0.0912 0.78201 0.29914 0.0
O620 O 0.05474 0.79235 0.52673 0.0
O621 O 0.11239 0.77029 0.53852 0.0
O622 O 0.16227 0.7959 0.46224 0.0
O623 O 0.14295 0.8366 0.39457 0.0
O624 O 0.10795 0.86511 0.51093 0.0
O625 O 0.11362 0.91049 0.42672 0.0
O626 O 0.14135 0.89624 0.27194 0.0
O627 O 0.08189 0.9152 0.26996 0.0
O628 O 0.0349 0.86115 0.33369 0.0
O629 O 0.06254 0.85514 0.42258 0.0
O630 O 0.10186 0.81694 0.28301 0.0
O631 O 0.08433 0.77202 0.36219 0.0
H632 H 0.13567 0.76533 0.65937 0.0
H633 H 0.13889 0.79033 0.77181 0.0
H634 H 0.02964 0.84551 0.74454 0.0
H635 H 0.02571 0.81996 0.63235 0.0
H636 H 0.06162 0.93831 0.14707 0.0
H637 H 0.05363 0.91734 1.03235 0.0
H638 H 0.15302 0.84513 0.05146 0.0
H639 H 0.16096 0.86529 0.16589 0.0
C640 C 0.35035 0.95686 0.28178 0.0
C641 C 0.38714 0.9409 0.29524 0.0
C642 C 0.41103 0.97027 0.19257 0.0
C643 C 0.3767 0.99163 0.18629 0.0
N644 N 0.30864 0.98614 0.19988 0.0
N645 N 0.4534 0.93413 0.26352 0.0
C646 C 0.34463 0.97976 0.2239 0.0
C647 C 0.41757 0.94777 0.25009 0.0
N648 N 0.3208 0.95026 0.32416 0.0
N649 N 0.43611 0.96918 0.14102 0.0
H650 H 0.45977 0.91856 0.30588 0.0
H651 H 0.47745 0.94128 0.23587 0.0
H652 H 0.42989 0.98182 0.09564 0.0
H653 H 0.46001 0.9514 0.1396 0.0
H654 H 0.29465 0.96456 0.32128 0.0
H655 H 0.32348 0.93237 0.36492 0.0
H656 H 0.28397 0.97485 0.22122 0.0
H657 H 0.30385 -0.00099 0.15423 0.0
C658 C 0.95047 0.6398 0.81084 0.0
C659 C 0.94752 0.60701 0.77012 0.0
C660 C 0.99621 0.57447 0.83825 0.0
C661 C -0.0007 0.60727 0.88026 0.0
N662 N 0.97132 0.66708 0.91478 0.0
N663 N 0.97481 0.54794 0.73473 0.0
C664 C 0.97441 0.63898 0.86843 0.0
C665 C 0.97186 0.57548 0.78186 0.0
N666 N 0.93142 0.67235 0.79304 0.0
N667 N 0.01676 0.54193 0.8505 0.0
H668 H 0.96105 0.55029 0.68958 0.0
H669 H 0.99441 0.5256 0.73617 0.0
H670 H 0.0425 0.54093 0.87597 0.0
H671 H 0.00846 0.51519 0.83311 0.0
H672 H 0.93538 0.69864 0.81592 0.0
H673 H 0.91455 0.67398 0.75076 0.0
H674 H 0.95089 0.68872 0.91285 0.0
H675 H 0.98633 0.66669 0.95917 0.0
C676 C 0.64643 0.0374 0.20165 0.0
C677 C 0.63902 -0.00119 0.21884 0.0
C678 C 0.62141 0.01879 0.33103 0.0
C679 C 0.63027 0.05735 0.31498 0.0
N680 N 0.66183 0.10118 0.2409 0.0
N681 N 0.63265 0.95337 0.30595 0.0
C682 C 0.64584 0.0661 0.25181 0.0
C683 C 0.63017 0.98994 0.28529 0.0
N684 N 0.65342 0.04675 0.13749 0.0
N685 N 0.60374 0.00907 0.38896 0.0
H686 H 0.64705 0.93495 0.27629 0.0
H687 H 0.62778 0.94346 0.35358 0.0
H688 H 0.59667 0.02795 0.42625 0.0
H689 H 0.5919 0.98221 0.39777 0.0
H690 H 0.65493 0.07486 0.12057 0.0
H691 H 0.65554 0.02616 0.10059 0.0
H692 H 0.67646 0.10829 0.19793 0.0
H693 H 0.66396 0.12178 0.27778 0.0
C694 C 0.0112 0.33719 0.86427 0.0
C695 C -0.00054 0.36943 0.90109 0.0
C696 C 0.04724 0.40885 0.84257 0.0
C697 C 0.05461 0.37782 0.79908 0.0
N698 N 0.04322 0.31243 0.76732 0.0
N699 N 0.00702 0.43593 0.92846 0.0
C700 C 0.03654 0.34193 0.80976 0.0
C701 C 0.01822 0.40514 0.89193 0.0
N702 N -0.00089 0.30172 0.88341 0.0
N703 N 0.06778 0.44201 0.83619 0.0
H704 H 0.98702 0.4339 0.96633 0.0
H705 H 0.01614 0.46381 0.91997 0.0
H706 H 0.087 0.44695 0.79784 0.0
H707 H 0.06737 0.46407 0.87039 0.0
H708 H 0.0093 0.27637 0.86323 0.0
H709 H 0.98112 0.29767 0.92381 0.0
H710 H 0.02759 0.28705 0.76766 0.0
H711 H 0.06283 0.31418 0.72874 0.0
C712 C 0.41448 0.50307 0.10413 0.0
C713 C 0.38223 0.49807 0.14641 0.0
C714 C 0.34841 0.54667 0.07794 0.0
C715 C 0.37855 0.54584 1.03067 0.0
N716 N 0.43602 0.51518 0.99302 0.0
N717 N 0.31877 0.51937 0.17603 0.0
C718 C 0.40986 0.52107 1.04169 0.0
C719 C 0.34917 0.52115 0.13389 0.0
N720 N 0.4506 0.49468 0.12558 0.0
N721 N 0.31934 0.57241 0.06985 0.0
H722 H 0.32028 0.506 0.22187 0.0
H723 H 0.29194 0.53087 0.16551 0.0
H724 H 0.31668 0.58919 1.02761 0.0
H725 H 0.29879 0.5782 0.10548 0.0
H726 H 0.47487 0.50035 0.09752 0.0
H727 H 0.45722 0.48937 0.1747 0.0
H728 H 0.45756 0.49468 0.99698 0.0
H729 H 0.43344 0.52751 0.94644 0.0
C730 C 0.53511 0.58792 1.01293 0.0
C731 C 0.55314 0.62116 1.03885 0.0
C732 C 0.51971 0.66001 0.95461 0.0
C733 C 0.50265 0.62637 0.9287 0.0
N734 N 0.50322 0.5581 0.91989 0.0
N735 N 0.56605 0.68857 1.03 0.0
C736 C 0.51357 0.59027 0.95353 0.0
C737 C 0.54671 0.65716 1.00786 0.0
N738 N 0.53688 0.55428 0.04678 0.0
N739 N 0.50917 0.69465 0.92922 0.0
H740 H 0.58343 0.68778 0.07182 0.0
H741 H 0.56606 0.71492 1.00606 0.0
H742 H 0.4911 0.69706 0.88835 0.0
H743 H 0.51717 0.72077 0.94941 0.0
H744 H 0.52224 0.52969 1.0329 0.0
H745 H 0.55018 0.55196 0.09228 0.0
H746 H 0.51275 0.53078 0.93199 0.0
H747 H 0.48785 0.55924 0.87579 0.0
C748 C 0.61458 0.50501 0.04951 0.0
C749 C 0.62079 0.49762 0.11743 0.0
C750 C 0.61736 0.42899 0.09291 0.0
C751 C 0.60594 0.43731 1.02666 0.0
N752 N 0.58581 0.48547 0.94742 0.0
N753 N 0.62257 0.45164 0.20561 0.0
C754 C 0.60204 0.47594 1.00669 0.0
C755 C 0.62043 0.45928 0.13972 0.0
N756 N 0.62265 0.53994 1.02496 0.0
N757 N 0.62752 0.39274 0.11077 0.0
H758 H 0.62687 0.47296 0.2407 0.0
H759 H 0.61758 0.42455 0.22536 0.0
H760 H 0.62706 0.36963 0.07882 0.0
H761 H 0.64061 0.38652 0.15558 0.0
H762 H 0.61942 0.54843 0.97613 0.0
H763 H 0.63924 0.5575 0.05311 0.0
H764 H 0.57899 0.51338 0.93395 0.0
H765 H 0.57499 0.46588 0.91392 0.0
C766 C 0.47513 0.39754 0.07096 0.0
C767 C 0.44242 0.37369 0.07251 0.0
C768 C 0.46116 0.34819 0.96381 0.0
C769 C 0.49018 0.37677 0.95837 0.0
N770 N 0.51206 0.43803 1.00032 0.0
N771 N 0.40287 0.32675 1.01872 0.0
C772 C 0.49375 0.40406 1.01007 0.0
C773 C 0.43505 0.34904 1.01834 0.0
N774 N 0.48816 0.41497 0.12673 0.0
N775 N 0.45781 0.3208 0.91635 0.0
H776 H 0.3849 0.32467 0.05959 0.0
H777 H 0.39312 0.31169 0.97783 0.0
H778 H 0.47337 0.32144 0.87262 0.0
H779 H 0.44056 0.29667 0.92142 0.0
H780 H 0.51427 0.42948 0.12846 0.0
H781 H 0.47548 0.41146 0.17264 0.0
H782 H 0.5167 0.44925 0.95374 0.0
H783 H 0.51543 0.45846 1.03703 0.0
C784 C 0.84574 0.4573 0.75892 0.0
C785 C 0.88134 0.44789 0.78909 0.0
C786 C 0.9151 0.47733 0.69562 0.0
C787 C 0.88014 0.49299 0.67246 0.0
N788 N 0.81254 0.48146 0.66166 0.0
N789 N 0.95033 0.45089 0.78782 0.0
C790 C 0.84534 0.4782 0.69815 0.0
C791 C 0.91613 0.45841 0.75764 0.0
N792 N 0.81239 0.44645 0.78864 0.0
N793 N 0.94642 0.47707 0.65542 0.0
H794 H 0.95195 0.43818 0.83418 0.0
H795 H 0.97664 0.46033 0.76989 0.0
H796 H 0.9451 0.48623 0.60655 0.0
H797 H 0.97189 0.46305 0.66717 0.0
H798 H 0.78538 0.45574 0.77379 0.0
H799 H 0.81202 0.42998 0.83141 0.0
H800 H 0.78642 0.4693 0.67478 0.0
H801 H 0.81257 0.49269 0.61404 0.0
C802 C 0.49885 0.07967 0.3383 0.0
C803 C 0.49954 0.10982 0.38553 0.0
C804 C 0.44597 0.13994 0.32444 0.0
C805 C 0.443 0.10751 0.28257 0.0
N806 N 0.46139 0.04222 0.26281 0.0
N807 N 0.46695 0.16485 0.43008 0.0
C808 C 0.46772 0.07613 0.2938 0.0
C809 C 0.4711 0.13894 0.38045 0.0
N810 N 0.52905 0.05541 0.33211 0.0
N811 N 0.4252 0.17197 0.3105 0.0
H812 H 0.48363 0.16432 0.4727 0.0
H813 H 0.4444 0.18432 0.43211 0.0
H814 H 0.40669 0.17353 0.27041 0.0
H815 H 0.42906 0.19787 0.33484 0.0
H816 H 0.53199 0.03621 0.29329 0.0
H817 H 0.5534 0.05794 0.36024 0.0
H818 H 0.47569 0.01703 0.27526 0.0
H819 H 0.43926 0.03853 0.22951 0.0
C820 C 0.15567 0.53258 0.79123 0.0
C821 C 0.12023 0.55272 0.79484 0.0
C822 C 0.0994 0.51989 0.69286 0.0
C823 C 0.13476 0.50004 0.69018 0.0
N824 N 0.20087 0.49923 0.72144 0.0
N825 N 0.06466 0.57475 0.73242 0.0
C826 C 0.16416 0.50998 0.73481 0.0
C827 C 0.09417 0.54952 0.74034 0.0
N828 N 0.18165 0.53496 0.84124 0.0
N829 N 0.06995 0.50956 0.65215 0.0
H830 H 0.05759 0.59588 0.76595 0.0
H831 H 0.04875 0.5767 0.68905 0.0
H832 H 0.07241 0.48871 0.61599 0.0
H833 H 0.04223 0.52021 0.65659 0.0
H834 H 0.20559 0.51724 0.84484 0.0
H835 H 0.1782 0.55323 0.88082 0.0
H836 H 0.22434 0.51003 0.74711 0.0
H837 H 0.20788 0.4832 0.6799 0.0
C838 C 0.5565 0.83533 0.31519 0.0
C839 C 0.56369 0.87252 0.28933 0.0
C840 C 0.52382 0.9001 0.37738 0.0
C841 C 0.51266 0.86299 0.39772 0.0
N842 N 0.51856 0.79486 0.38849 0.0
N843 N 0.54886 0.93986 0.28983 0.0
C844 C 0.52945 0.83044 0.36771 0.0
C845 C 0.54608 0.90479 0.31914 0.0
N846 N 0.57509 0.80471 0.28866 0.0
N847 N 0.51258 0.93103 0.41347 0.0
H848 H 0.56318 0.94416 0.24565 0.0
H849 H 0.53395 0.96392 0.30548 0.0
H850 H 0.49608 0.92846 0.456 0.0
H851 H 0.5225 0.95871 0.40512 0.0
H852 H 0.57465 0.77731 0.30876 0.0
H853 H 0.59222 0.80712 0.24686 0.0
H854 H 0.52608 0.7696 0.36494 0.0
H855 H 0.50053 0.79079 0.42888 0.0
C856 C 0.88448 0.99014 0.54516 0.0
C857 C 0.87717 -0.00354 0.613 0.0
C858 C 0.87134 0.06506 0.58722 0.0
C859 C 0.88456 0.05864 0.52154 0.0
N860 N 0.9122 0.01388 0.44453 0.0
N861 N 0.86834 0.04192 0.70024 0.0
C862 C 0.89388 0.02086 0.50263 0.0
C863 C 0.87207 0.03459 0.63459 0.0
N864 N 0.87973 0.95475 0.51994 0.0
N865 N 0.85591 0.09948 0.60372 0.0
H866 H 0.8672 0.02023 0.73561 0.0
H867 H 0.86899 0.06949 0.71959 0.0
H868 H 0.85312 0.12175 0.57017 0.0
H869 H 0.842 0.10425 0.64826 0.0
H870 H 0.88459 0.94731 0.47109 0.0
H871 H 0.86399 0.93528 0.54632 0.0
H872 H 0.92221 0.98702 0.43114 0.0
H873 H 0.92118 0.03523 0.41254 0.0
C874 C 0.03775 0.14794 0.53028 0.0
C875 C 0.05585 0.11176 0.53932 0.0
C876 C 0.02433 0.08907 0.43744 0.0
C877 C 0.00331 0.12385 0.43288 0.0
N878 N 0.00939 0.19146 0.45063 0.0
N879 N 0.07672 0.05343 0.48547 0.0
C880 C 0.01546 0.15499 0.47221 0.0
C881 C 0.05231 0.08397 0.48813 0.0
N882 N 0.04259 0.17619 0.57579 0.0
N883 N 0.01848 0.06098 0.39192 0.0
H884 H 0.09649 0.04658 0.5218 0.0
H885 H 0.07949 0.0359 0.44443 0.0
H886 H 0.00634 0.06643 0.34588 0.0
H887 H 0.0263 0.03254 0.39935 0.0
H888 H 0.0266 0.20136 0.57507 0.0
H889 H 0.06116 0.17379 0.61586 0.0
H890 H 0.0208 0.21539 0.47405 0.0
H891 H 0.99692 0.19743 0.40506 0.0
C892 C 0.08387 0.95778 0.5453 0.0
C893 C 0.11502 0.93196 0.54101 0.0
C894 C 0.1462 0.96478 0.635 0.0
C895 C 0.11439 0.9904 0.64019 0.0
N896 N 0.0494 0.00604 0.60437 0.0
N897 N 0.17436 0.90795 0.58479 0.0
C898 C 0.0822 0.98508 0.59711 0.0
C899 C 0.14579 0.93469 0.58679 0.0
N900 N 0.05599 0.95744 0.49785 0.0
N901 N 0.17669 0.96874 0.67686 0.0
H902 H 0.1759 0.88702 0.54844 0.0
H903 H 0.19566 0.90506 0.62035 0.0
H904 H 0.17625 0.98624 0.7182 0.0
H905 H 0.20294 0.9552 0.67048 0.0
H906 H 0.0364 0.97956 0.49107 0.0
H907 H 0.0539 0.9365 0.46185 0.0
H908 H 0.02295 -0.00284 0.58598 0.0
H909 H 0.04797 0.03261 0.62664 0.0
C910 C 0.98182 0.89322 0.44964 0.0
C911 C 0.9948 0.85598 0.43455 0.0
C912 C 0.95963 0.83068 0.53046 0.0
C913 C 0.94828 0.8683 0.54741 0.0
N914 N 0.95949 0.93571 0.53468 0.0
N915 N 0.98773 0.78838 0.4488 0.0
C916 C 0.96198 0.8997 0.50969 0.0
C917 C 0.98117 0.82442 0.47164 0.0
N918 N 0.98804 0.92242 0.40616 0.0
N919 N 0.95278 0.80144 0.57349 0.0
H920 H 0.00297 0.78357 0.40547 0.0
H921 H 0.97557 0.76391 0.46935 0.0
H922 H 0.93849 0.80551 0.61799 0.0
H923 H 0.96482 0.77438 0.56862 0.0
H924 H 0.97666 0.94968 0.41183 0.0
H925 H 0.00173 0.91854 0.36117 0.0
H926 H 0.9717 0.95969 0.51267 0.0
H927 H 0.94869 0.94092 0.5814 0.0
C928 C 0.30765 0.22447 0.16722 0.0
C929 C 0.34481 0.20819 0.16333 0.0
C930 C 0.37348 0.27026 0.19194 0.0
C931 C 0.33665 0.28743 0.19137 0.0
N932 N 0.2683 0.27887 0.19742 0.0
N933 N 0.41299 0.2168 0.15777 0.0
C934 C 0.30358 0.26389 0.18373 0.0
C935 C 0.37768 0.23153 0.17144 0.0
N936 N 0.27627 0.20225 0.15398 0.0
N937 N 0.40395 0.28979 0.21703 0.0
H938 H 0.41657 0.18892 0.14083 0.0
H939 H 0.4379 0.23321 0.15635 0.0
H940 H 0.40032 0.3153 0.24222 0.0
H941 H 0.43122 0.27811 0.22263 0.0
H942 H 0.2485 0.2127 0.14931 0.0
H943 H 0.27817 0.17333 0.14235 0.0
H944 H 0.24294 0.26326 0.19846 0.0
H945 H 0.26483 0.30659 0.21484 0.0
C946 C 0.26576 0.68325 0.89512 0.0
C947 C 0.28316 0.64683 0.89513 0.0
C948 C 0.22406 0.61883 0.93998 0.0
C949 C 0.2061 0.65539 0.93945 0.0
N950 N 0.21795 0.7235 0.94507 0.0
N951 N 0.277 0.57893 0.90366 0.0
C952 C 0.22901 0.68808 0.92426 0.0
C953 C 0.2615 0.61433 0.91304 0.0
N954 N 0.28488 0.71346 0.86803 0.0
N955 N 0.20744 0.58943 0.97348 0.0
H956 H 0.3041 0.57543 0.88282 0.0
H957 H 0.26182 0.55353 0.91004 0.0
H958 H 0.18177 0.59268 0.99826 0.0
H959 H 0.22089 0.56337 0.9827 0.0
H960 H 0.27254 0.74028 0.86084 0.0
H961 H 0.31162 0.71016 0.84598 0.0
H962 H 0.2347 0.74794 0.93943 0.0
H963 H 0.19533 0.72747 0.97768 0.0
C964 C 0.65693 0.76299 0.09829 0.0
C965 C 0.66278 0.78801 0.15161 0.0
C966 C 0.65747 0.7339 0.22919 0.0
C967 C 0.65794 0.70851 0.17561 0.0
N968 N 0.66128 0.69847 0.05782 0.0
N969 N 0.67158 0.7971 0.26894 0.0
C970 C 0.65811 0.72291 0.10969 0.0
C971 C 0.66357 0.77346 0.21748 0.0
N972 N 0.65021 0.77753 1.03676 0.0
N973 N 0.65107 0.72017 0.29135 0.0
H974 H 0.67448 0.82634 0.26335 0.0
H975 H 0.67755 0.78751 0.31646 0.0
H976 H 0.64703 0.69115 0.30131 0.0
H977 H 0.6462 0.73767 0.33185 0.0
H978 H 0.64155 0.76084 0.99702 0.0
H979 H 0.64997 0.80683 1.0268 0.0
H980 H 0.66671 0.70731 1.00971 0.0
H981 H 0.6606 0.66905 0.06342 0.0
C982 C 0.75556 0.383 0.92451 0.0
C983 C 0.77813 0.34961 0.92994 0.0
C984 C 0.71953 0.31046 0.92188 0.0
C985 C 0.69769 0.34398 0.90896 0.0
N986 N 0.6973 0.41081 0.88107 0.0
N987 N 0.7824 0.28089 0.92776 0.0
C988 C 0.7164 0.37992 0.90564 0.0
C989 C 0.76027 0.31308 0.92737 0.0
N990 N 0.77159 0.41772 0.93801 0.0
N991 N 0.70122 0.27614 0.92917 0.0
H992 H 0.81206 0.2817 0.93398 0.0
H993 H 0.77166 0.25363 0.91881 0.0
H994 H 0.67198 0.27266 0.92002 0.0
H995 H 0.71456 0.25155 0.94691 0.0
H996 H 0.75583 0.44298 0.94028 0.0
H997 H 0.80007 0.42039 0.95319 0.0
H998 H 0.71008 0.43738 0.87333 0.0
H999 H 0.67038 0.40798 0.8596 0.0
C1000 C 0.81521 0.71975 0.71709 0.0
C1001 C 0.84258 0.70383 0.67318 0.0
C1002 C 0.85791 0.76831 0.63588 0.0
C1003 C 0.83856 0.78417 0.6911 0.0
N1004 N 0.79644 0.77365 0.78371 0.0
N1005 N 0.89343 0.71412 0.59511 0.0
C1006 C 0.81665 0.75942 0.73183 0.0
C1007 C 0.86508 0.72844 0.6339 0.0
N1008 N 0.78602 0.69762 0.74086 0.0
N1009 N 0.86535 0.79019 0.5818 0.0
H1010 H 0.90048 0.68521 0.59493 0.0
H1011 H 0.91185 0.73149 0.56796 0.0
H1012 H 0.85438 0.81765 0.57672 0.0
H1013 H 0.87664 0.77896 0.53847 0.0
H1014 H 0.76349 0.70839 0.76877 0.0
H1015 H 0.78145 0.66967 0.72511 0.0
H1016 H 0.78413 0.75633 0.81979 0.0
H1017 H 0.7935 0.80277 0.79236 0.0
C1018 C 0.76905 0.19625 0.4109 0.0
C1019 C 0.78553 0.15918 0.40607 0.0
C1020 C 0.72378 0.13096 0.43766 0.0
C1021 C 0.70558 0.16703 0.4318 0.0
N1022 N 0.71194 0.23544 0.42009 0.0
N1023 N 0.77688 0.09099 0.4043 0.0
C1024 C 0.72863 0.20009 0.42021 0.0
C1025 C 0.76224 0.1265 0.41585 0.0
N1026 N 0.79232 0.22775 0.40992 0.0
N1027 N 0.70568 0.10171 0.46905 0.0
H1028 H 0.80453 0.08702 0.38627 0.0
H1029 H 0.76028 0.0662 0.40538 0.0
H1030 H 0.68071 0.1064 0.49543 0.0
H1031 H 0.7184 0.07529 0.47842 0.0
H1032 H 0.78314 0.25525 0.42124 0.0
H1033 H 0.8217 0.22625 0.40115 0.0
H1034 H 0.72521 0.25999 0.40205 0.0
H1035 H 0.68435 0.24017 0.438 0.0
C1036 C 0.15549 0.2557 0.60237 0.0
C1037 C 0.15631 0.27993 0.65808 0.0
C1038 C 0.15782 0.22365 0.73164 0.0
C1039 C 0.15717 0.19941 0.67603 0.0
N1040 N 0.1492 0.19145 0.55875 0.0
N1041 N 0.14937 0.28732 0.7757 0.0
C1042 C 0.1539 0.21521 0.61144 0.0
C1043 C 0.1546 0.26396 0.72272 0.0
N1044 N 0.15751 0.27149 0.54078 0.0
N1045 N 0.16313 0.20819 0.79297 0.0
H1046 H 0.14747 0.31687 0.77162 0.0
H1047 H 0.14353 0.27739 0.823 0.0
H1048 H 0.16437 0.17878 0.80152 0.0
H1049 H 0.1688 0.22433 0.83484 0.0
H1050 H 0.16198 0.25582 0.49803 0.0
H1051 H 0.15628 0.30093 0.53257 0.0
H1052 H 0.14228 0.20082 0.51152 0.0
H1053 H 0.14985 0.16182 0.56288 0.0
C1054 C 0.2783 0.80216 0.42187 0.0
C1055 C 0.29299 0.83909 0.4355 0.0
C1056 C 0.22882 0.86669 0.42122 0.0
C1057 C 0.21395 0.82967 0.40817 0.0
N1058 N 0.2253 0.7638 0.38122 0.0
N1059 N 0.28214 0.90473 0.46255 0.0
C1060 C 0.23904 0.79783 0.40454 0.0
C1061 C 0.26811 0.87088 0.43943 0.0
N1062 N 0.30204 0.77117 0.42698 0.0
N1063 N 0.20593 0.89788 0.41276 0.0
H1064 H 0.31064 0.90764 0.47755 0.0
H1065 H 0.26526 0.92857 0.47228 0.0
H1066 H 0.17872 0.89553 0.39246 0.0
H1067 H 0.21524 0.926 0.41762 0.0
H1068 H 0.29287 0.74295 0.42348 0.0
H1069 H 0.33075 0.77357 0.44082 0.0
H1070 H 0.24229 0.74006 0.37156 0.0
H1071 H 0.19702 0.76047 0.36531 0.0
C1072 C 0.2183 0.05203 0.90786 0.0
C1073 C 0.22492 0.07893 0.85586 0.0
C1074 C 0.26616 0.11585 0.93245 0.0
C1075 C 0.26288 0.08694 0.98195 0.0
N1076 N 0.23795 0.02562 1.01416 0.0
N1077 N 0.25763 0.13526 0.81787 0.0
C1078 C 0.23924 0.05464 0.96904 0.0
C1079 C 0.24977 0.11037 0.86808 0.0
N1080 N 0.1914 0.02408 0.89907 0.0
N1081 N 0.28393 0.14948 0.94821 0.0
H1082 H 0.24629 0.13211 0.77068 0.0
H1083 H 0.27745 0.15737 0.82105 0.0
H1084 H 0.29492 0.15491 0.99511 0.0
H1085 H 0.28466 0.17335 0.91757 0.0
H1086 H 0.18133 0.00666 0.93694 0.0
H1087 H 0.17759 0.01959 0.85411 0.0
H1088 H 0.22503 -0.0007 1.00532 0.0
H1089 H 0.25174 0.02716 0.05969 0.0
C1090 C 0.0527 0.71376 0.16204 0.0
C1091 C 0.0812 0.71902 0.11234 0.0
C1092 C 0.11924 0.7559 0.19322 0.0
C1093 C 0.08896 0.75469 0.2405 0.0
N1094 N 0.02362 0.73689 0.26331 0.0
N1095 N 0.13841 0.75178 0.07847 0.0
C1096 C 0.05484 0.7346 0.22321 0.0
C1097 C 0.11336 0.74228 0.12739 0.0
N1098 N 0.02349 0.68855 0.15107 0.0
N1099 N 0.15454 0.76887 0.21214 0.0
H1100 H 0.13452 0.74296 1.02996 0.0
H1101 H 0.16042 0.77161 0.08443 0.0
H1102 H 0.16058 0.77721 0.26034 0.0
H1103 H 0.17875 0.76728 0.18236 0.0
H1104 H 0.00451 0.67978 0.18767 0.0
H1105 H 0.0196 0.67481 0.10601 0.0
H1106 H 0.99662 0.72671 0.25016 0.0
H1107 H 0.02415 0.75126 0.3081 0.0
C1108 C 0.7637 0.87857 0.96834 0.0
C1109 C 0.73831 0.90914 0.983 0.0
C1110 C 0.75124 0.93625 0.87089 0.0
C1111 C 0.77625 0.90533 0.85585 0.0
N1112 N 0.81107 0.85011 0.89643 0.0
N1113 N 0.70564 0.96592 0.94587 0.0
C1114 C 0.78367 0.87744 0.90645 0.0
C1115 C 0.7316 0.93761 0.93341 0.0
N1116 N 0.767 0.84897 1.01214 0.0
N1117 N 0.74852 0.966 0.82733 0.0
H1118 H 0.69378 0.9703 0.99236 0.0
H1119 H 0.69466 0.98423 0.91001 0.0
H1120 H 0.76187 0.9659 0.78146 0.0
H1121 H 0.73513 0.99184 0.8377 0.0
H1122 H 0.77964 0.82283 1.00116 0.0
H1123 H 0.75486 0.84941 0.05884 0.0
H1124 H 0.82207 0.83268 0.93352 0.0
H1125 H 0.82483 0.84588 0.8517 0.0
C1126 C 0.93748 0.26124 0.12024 0.0
C1127 C 0.90119 0.27111 0.09287 0.0
C1128 C 0.8707 0.25135 0.19829 0.0
C1129 C 0.90657 0.23889 0.22395 0.0
N1130 N 0.97373 0.22775 0.20538 0.0
N1131 N 0.83262 0.26976 0.10256 0.0
C1132 C 0.9398 0.24264 0.18352 0.0
C1133 C 0.86769 0.26444 0.13127 0.0
N1134 N 0.97 0.27116 0.08699 0.0
N1135 N 0.83932 0.25083 0.23837 0.0
H1136 H 0.82958 0.27856 0.05368 0.0
H1137 H 0.8068 0.2621 0.12452 0.0
H1138 H 0.84053 0.24124 0.28698 0.0
H1139 H 0.81304 0.2629 0.22577 0.0
H1140 H 0.99739 0.2693 0.10716 0.0
H1141 H 0.96931 0.28339 1.04011 0.0
H1142 H -0.00211 0.22493 0.17579 0.0
H1143 H 0.9771 0.21648 0.25271 0.0
C1144 C 0.25064 0.37584 0.39159 0.0
C1145 C 0.26743 0.4107 0.3702 0.0
C1146 C 0.24572 0.4405 0.47507 0.0
C1147 C 0.23179 0.40461 0.49847 0.0
N1148 N 0.22971 0.33643 0.4834 0.0
N1149 N 0.28598 0.4751 0.39685 0.0
C1150 C 0.23677 0.37188 0.45768 0.0
C1151 C 0.26641 0.4427 0.41364 0.0
N1152 N 0.24764 0.34631 0.34813 0.0
N1153 N 0.23794 0.47284 0.50999 0.0
H1154 H 0.29965 0.47831 0.3515 0.0
H1155 H 0.29055 0.49771 0.4292 0.0
H1156 H 0.22372 0.47229 0.55507 0.0
H1157 H 0.24336 0.5003 0.49233 0.0
H1158 H 0.23235 0.32134 0.35782 0.0
H1159 H 0.25716 0.34866 0.29969 0.0
H1160 H 0.2359 0.31108 0.45889 0.0
H1161 H 0.22168 0.33233 0.53237 0.0
C1162 C 0.38089 0.75212 0.71381 0.0
C1163 C 0.4106 0.726 0.72984 0.0
C1164 C 0.43966 0.73997 0.61959 0.0
C1165 C 0.4077 0.76298 0.60122 0.0
N1166 N 0.34372 0.78365 0.62802 0.0
N1167 N 0.4669 0.69222 0.69374 0.0
C1168 C 0.37722 0.76689 0.64784 0.0
C1169 C 0.43947 0.71911 0.68119 0.0
N1170 N 0.35618 0.76325 0.76205 0.0
N1171 N 0.47114 0.73936 0.57981 0.0
H1172 H 0.46983 0.67907 0.73963 0.0
H1173 H 0.48556 0.68186 0.65803 0.0
H1174 H 0.47202 0.75342 0.53449 0.0
H1175 H 0.49711 0.72695 0.59343 0.0
H1176 H 0.33577 0.78466 0.75568 0.0
H1177 H 0.35908 0.75399 0.81065 0.0
H1178 H 0.31915 0.78446 0.65697 0.0
H1179 H 0.33917 0.79297 0.57975 0.0
C1180 C 0.72548 0.55465 0.3911 0.0
C1181 C 0.72825 0.58616 0.34627 0.0
C1182 C 0.76496 0.62131 0.43166 0.0
C1183 C 0.76538 0.58861 0.47383 0.0
N1184 N 0.74946 0.52241 0.48969 0.0
N1185 N 0.75469 0.64811 0.32219 0.0
C1186 C 0.74632 0.55487 0.45253 0.0
C1187 C 0.74933 0.61899 0.36619 0.0
N1188 N 0.70243 0.52444 0.37522 0.0
N1189 N 0.77867 0.65522 0.45539 0.0
H1190 H 0.74395 0.64729 0.27435 0.0
H1191 H 0.77248 0.67147 0.33073 0.0
H1192 H 0.78938 0.65808 0.50316 0.0
H1193 H 0.77612 0.68121 0.43067 0.0
H1194 H 0.69507 0.50289 0.40838 0.0
H1195 H 0.68903 0.52193 0.32945 0.0
H1196 H 0.74046 0.49558 0.47382 0.0
H1197 H 0.76303 0.52203 0.5355 0.0
C1198 C 0.54149 0.22346 0.64904 0.0
C1199 C 0.5731 0.22724 0.60507 0.0
C1200 C 0.60903 0.26091 0.69229 0.0
C1201 C 0.57633 0.2601 0.73409 0.0
N1202 N 0.51003 0.24405 0.74991 0.0
N1203 N 0.63566 0.25279 0.58241 0.0
C1204 C 0.5422 0.24214 0.71185 0.0
C1205 C 0.60639 0.24718 0.62607 0.0
N1206 N 0.51105 0.20116 0.63118 0.0
N1207 N 0.64302 0.27415 0.71699 0.0
H1208 H 0.63439 0.24333 0.53381 0.0
H1209 H 0.6598 0.2693 0.59219 0.0
H1210 H 0.64598 0.2834 0.76555 0.0
H1211 H 0.66898 0.27286 0.69202 0.0
H1212 H 0.48937 0.19305 0.66349 0.0
H1213 H 0.50854 0.18915 0.58441 0.0
H1214 H 0.48296 0.23564 0.73381 0.0
H1215 H 0.5102 0.25593 0.79699 0.0
C1216 C 0.31529 0.07477 0.62181 0.0
C1217 C 0.32969 0.0984 0.57031 0.0
C1218 C 0.37408 0.12888 0.64919 0.0
C1219 C 0.35788 0.10697 0.70125 0.0
N1220 N 0.30919 0.06348 0.73954 0.0
N1221 N 0.37023 0.15048 0.53537 0.0
C1222 C 0.32731 0.08121 0.68816 0.0
C1223 C 0.35823 0.12634 0.58429 0.0
N1224 N 0.2909 0.0454 0.60703 0.0
N1225 N 0.40564 0.151 0.66137 0.0
H1226 H 0.36097 0.1482 0.48668 0.0
H1227 H 0.3876 0.17422 0.5434 0.0
H1228 H 0.41754 0.15405 0.70822 0.0
H1229 H 0.42172 0.16429 0.62474 0.0
H1230 H 0.2826 0.0245 0.64071 0.0
H1231 H 0.28098 0.04012 0.55947 0.0
H1232 H 0.28438 0.04723 0.73443 0.0
H1233 H 0.31721 0.06741 0.78857 0.0
C1234 C 0.05914 0.66321 0.46515 0.0
C1235 C 0.07763 0.64385 0.51813 0.0
C1236 C 0.1066 0.59919 0.43884 0.0
C1237 C 0.08619 0.61708 0.38649 0.0
N1238 N 0.03647 0.66066 0.35224 0.0
N1239 N 0.11195 0.58822 0.55659 0.0
C1240 C 0.06055 0.64753 0.4004 0.0
C1241 C 0.09932 0.61028 0.50525 0.0
N1242 N 0.04145 0.69745 0.47595 0.0
N1243 N 0.13401 0.57249 0.42505 0.0
H1244 H 0.10679 0.59509 0.60571 0.0
H1245 H 0.12427 0.56134 0.55055 0.0
H1246 H 0.14025 0.56363 0.37728 0.0
H1247 H 0.15275 0.56149 0.46031 0.0
H1248 H 0.03172 0.7151 0.43805 0.0
H1249 H 0.03923 0.70975 0.52243 0.0
H1250 H 0.01393 0.67939 0.36144 0.0
H1251 H 0.03662 0.65002 0.3043 0.0
C1252 C 0.6815 0.93603 0.62821 0.0
C1253 C 0.66408 0.9145 0.57671 0.0
C1254 C 0.61865 0.88737 0.65747 0.0
C1255 C 0.635 0.9102 0.70799 0.0
N1256 N 0.67533 0.96335 0.73734 0.0
N1257 N 0.60921 0.87818 0.54014 0.0
C1258 C 0.66444 0.93665 0.69205 0.0
C1259 C 0.63061 0.89261 0.59078 0.0
N1260 N 0.71528 0.95472 0.61731 0.0
N1261 N 0.59236 0.85987 0.6733 0.0
H1262 H 0.61607 0.88275 0.49076 0.0
H1263 H 0.58257 0.86528 0.54679 0.0
H1264 H 0.58257 0.85546 0.72123 0.0
H1265 H 0.5826 0.83951 0.63991 0.0
H1266 H 0.73166 0.96674 0.65489 0.0
H1267 H 0.72857 0.95573 0.57156 0.0
H1268 H 0.69305 0.98642 0.72593 0.0
H1269 H 0.66375 0.9646 0.78461 0.0
C1270 C 0.87008 0.39224 0.42156 0.0
C1271 C 0.89395 0.37741 0.37105 0.0
C1272 C 0.92357 0.33336 0.45191 0.0
C1273 C 0.90069 0.34927 0.50289 0.0
N1274 N 0.85794 0.39903 0.53882 0.0
N1275 N 0.94747 0.33806 0.33963 0.0
C1276 C 0.87558 0.38021 0.48834 0.0
C1277 C 0.92183 0.34909 0.38674 0.0
N1278 N 0.84118 0.41695 0.40535 0.0
N1279 N 0.94639 0.30257 0.4655 0.0
H1280 H 0.94688 0.34863 0.29155 0.0
H1281 H 0.97106 0.32067 0.34901 0.0
H1282 H 0.95013 0.29175 0.51296 0.0
H1283 H 0.95996 0.28632 0.42961 0.0
H1284 H 0.82001 0.4255 0.43821 0.0
H1285 H 0.83654 0.42676 0.35743 0.0
H1286 H 0.84271 0.42439 0.5327 0.0
H1287 H 0.86136 0.39119 0.5881 0.0
C1288 C 0.34843 0.43794 0.67178 0.0
C1289 C 0.35774 0.40125 0.6469 0.0
C1290 C 0.32295 0.37259 0.74064 0.0
C1291 C 0.3199 0.40935 0.77037 0.0
N1292 N 0.29971 0.47121 0.73138 0.0
N1293 N 0.35166 0.33258 0.65676 0.0
C1294 C 0.32414 0.44097 0.72711 0.0
C1295 C 0.3445 0.36819 0.68121 0.0
N1296 N 0.36286 0.47024 0.64323 0.0
N1297 N 0.2995 0.34376 0.76142 0.0
H1298 H 0.36386 0.32792 0.61072 0.0
H1299 H 0.34726 0.30764 0.68393 0.0
H1300 H 0.27768 0.34853 0.79534 0.0
H1301 H 0.29741 0.31734 0.73823 0.0
H1302 H 0.3582 0.49731 0.66306 0.0
H1303 H 0.38228 0.46961 0.60425 0.0
H1304 H 0.29936 0.49351 0.6971 0.0
H1305 H 0.27635 0.47055 0.76333 0.0
C1306 C 0.3866 0.61471 0.33372 0.0
C1307 C 0.40856 0.64823 0.32091 0.0
C1308 C 0.42721 0.65013 0.43832 0.0
C1309 C 0.40175 0.6194 0.45224 0.0
N1310 N 0.3538 0.57496 0.41428 0.0
N1311 N 0.44708 0.70014 0.36257 0.0
C1312 C 0.38059 0.60231 0.40013 0.0
C1313 C 0.42828 0.66645 0.37367 0.0
N1314 N 0.37264 0.59383 0.28214 0.0
N1315 N 0.45136 0.66298 0.48651 0.0
H1316 H 0.44972 0.71231 0.31594 0.0
H1317 H 0.45779 0.7174 0.40004 0.0
H1318 H 0.45121 0.65213 0.53443 0.0
H1319 H 0.4738 0.68195 0.47769 0.0
H1320 H 0.36002 0.56702 0.28756 0.0
H1321 H 0.37686 0.60162 0.23305 0.0
H1322 H 0.3344 0.5644 0.3798 0.0
H1323 H 0.34889 0.56486 0.46191 0.0
C1324 C 0.67355 0.56075 0.69962 0.0
C1325 C 0.65444 0.5792 0.75273 0.0
C1326 C 0.60809 0.60676 0.67377 0.0
C1327 C 0.62649 0.58746 0.6211 0.0
N1328 N 0.67141 0.53944 0.5859 0.0
N1329 N 0.59736 0.61062 0.79163 0.0
C1330 C 0.65769 0.56251 0.63469 0.0
C1331 C 0.61983 0.59949 0.74006 0.0
N1332 N 0.70755 0.54247 0.7105 0.0
N1333 N 0.58026 0.63319 0.66043 0.0
H1334 H 0.60434 0.60466 0.8406 0.0
H1335 H 0.57 0.62207 0.7858 0.0
H1336 H 0.57091 0.63944 0.61278 0.0
H1337 H 0.56872 0.65121 0.69596 0.0
H1338 H 0.72555 0.53326 0.67291 0.0
H1339 H 0.71903 0.53838 0.75726 0.0
H1340 H 0.69097 0.51747 0.59418 0.0
H1341 H 0.66069 0.53989 0.53791 0.0
C1342 C 0.61509 0.36529 0.40247 0.0
C1343 C 0.59008 0.35129 0.45204 0.0
C1344 C 0.55694 0.31163 0.36965 0.0
C1345 C 0.58335 0.32403 0.32064 0.0
N1346 N 0.642 0.35716 0.29355 0.0
N1347 N 0.54198 0.30601 0.48617 0.0
C1348 C 0.61384 0.34911 0.33813 0.0
C1349 C 0.56236 0.32294 0.43654 0.0
N1350 N 0.63912 0.39514 0.41622 0.0
N1351 N 0.52632 0.28942 0.35217 0.0
H1352 H 0.54513 0.31366 0.5355 0.0
H1353 H 0.52438 0.28229 0.47944 0.0
H1354 H 0.5223 0.27891 0.30469 0.0
H1355 H 0.50362 0.28322 0.38366 0.0
H1356 H 0.65462 0.40985 0.38043 0.0
H1357 H 0.64133 0.40735 0.46287 0.0
H1358 H 0.66713 0.37168 0.30544 0.0
H1359 H 0.64184 0.34671 0.24566 0.0
C1360 C 0.86678 0.61213 0.07156 0.0
C1361 C 0.83486 0.5876 0.06002 0.0
C1362 C 0.82892 0.57631 0.17966 0.0
C1363 C 0.86163 0.59967 0.19092 0.0
N1364 N 0.91387 0.63746 0.14874 0.0
N1365 N 0.78858 0.54235 0.10157 0.0
C1366 C 0.8811 0.617 0.13708 0.0
C1367 C 0.8168 0.56857 0.11375 0.0
N1368 N 0.88343 0.63078 1.01959 0.0
N1369 N 0.80913 0.5619 0.23233 0.0
H1370 H 0.77792 0.53685 0.05459 0.0
H1371 H 0.77713 0.52416 0.13707 0.0
H1372 H 0.81786 0.56566 0.28102 0.0
H1373 H 0.78285 0.54802 0.22866 0.0
H1374 H 0.90369 0.65242 1.02437 0.0
H1375 H 0.87596 0.62569 0.97066 0.0
H1376 H 0.93219 0.64736 0.11213 0.0
H1377 H 0.92409 0.64316 0.19601 0.0
C1378 C 0.55489 0.11103 0.92792 0.0
C1379 C 0.58184 0.12891 0.88546 0.0
C1380 C 0.60222 0.17124 0.97522 0.0
C1381 C 0.57354 0.15526 1.01673 0.0
N1382 N 0.52052 0.11175 1.03191 0.0
N1383 N 0.62581 0.1806 0.86407 0.0
C1384 C 0.54911 0.12578 0.99266 0.0
C1385 C 0.60397 0.16033 0.90785 0.0
N1386 N 0.53575 0.07916 0.90689 0.0
N1387 N 0.62857 0.19616 1.00046 0.0
H1388 H 0.6281 0.17334 0.81445 0.0
H1389 H 0.63894 0.20652 0.87541 0.0
H1390 H 0.6277 0.20614 0.04867 0.0
H1391 H 0.65295 0.20491 0.97503 0.0
H1392 H 0.51877 0.06212 0.93713 0.0
H1393 H 0.53868 0.06816 0.85949 0.0
H1394 H 0.4989 0.09369 1.01526 0.0
H1395 H 0.51713 0.11958 0.08103 0.0
C1396 C 0.10302 0.42232 0.17486 0.0
C1397 C 0.12113 0.39879 0.22299 0.0
C1398 C 0.16881 0.37883 0.1405 0.0
C1399 C 0.14937 0.40052 0.09146 0.0
N1400 N 0.09506 0.4387 0.05899 0.0
N1401 N 0.16767 0.35017 0.2496 0.0
C1402 C 0.11563 0.42114 0.10788 0.0
C1403 C 0.15315 0.37592 0.20524 0.0
N1404 N 0.0744 0.4466 0.19366 0.0
N1405 N 0.20277 0.36152 0.12543 0.0
H1406 H 0.15724 0.34728 0.29745 0.0
H1407 H 0.18795 0.32952 0.23773 0.0
H1408 H 0.21429 0.36145 0.07808 0.0
H1409 H 0.22099 0.34968 0.16058 0.0
H1410 H 0.06227 0.46707 0.16275 0.0
H1411 H 0.06444 0.44816 0.24197 0.0
H1412 H 0.06804 0.45061 0.06583 0.0
H1413 H 0.10379 0.43899 1.00989 0.0
C1414 C 0.3984 0.87571 0.99557 0.0
C1415 C 0.41497 0.83916 1.0077 0.0
C1416 C 0.42504 0.83097 0.88806 0.0
C1417 C 0.4097 0.86806 0.87608 0.0
N1418 N 0.38579 0.92769 0.9183 0.0
N1419 N 0.44942 0.78451 0.96725 0.0
C1420 C 0.39757 0.89098 0.92995 0.0
C1421 C 0.4298 0.81752 0.95431 0.0
N1422 N 0.38288 0.89558 0.04694 0.0
N1423 N 0.43465 0.80838 0.8358 0.0
H1424 H 0.45335 0.77385 1.01478 0.0
H1425 H 0.46429 0.76906 0.93192 0.0
H1426 H 0.43314 0.81769 0.78702 0.0
H1427 H 0.44207 0.77968 0.83996 0.0
H1428 H 0.36664 0.92032 1.04152 0.0
H1429 H 0.38456 0.88623 0.0957 0.0
H1430 H 0.38063 0.94762 0.95512 0.0
H1431 H 0.38323 0.9392 0.87105 0.0
C1432 C 0.82558 0.93211 0.20385 0.0
C1433 C 0.84616 0.91498 0.25704 0.0
C1434 C 0.89757 0.89686 0.17925 0.0
C1435 C 0.87479 0.90988 0.12552 0.0
N1436 N 0.81615 0.93777 0.08537 0.0
N1437 N 0.90267 0.88229 0.29625 0.0
C1438 C 0.83864 0.92718 0.13762 0.0
C1439 C 0.88248 0.89773 0.24481 0.0
N1440 N 0.79377 0.95358 0.21662 0.0
N1441 N 0.93429 0.88498 0.16764 0.0
H1442 H 0.89469 0.88578 0.34533 0.0
H1443 H 0.92672 0.86503 0.29073 0.0
H1444 H 0.94612 0.8839 0.12055 0.0
H1445 H 0.95413 0.87875 0.20445 0.0
H1446 H 0.77972 0.97025 0.1816 0.0
H1447 H 0.78297 0.9575 0.26376 0.0
H1448 H 0.78825 0.94781 0.08966 0.0
H1449 H 0.82446 0.93435 1.03645 0.0
C1450 C 0.9235 0.1279 0.89784 0.0
C1451 C 0.89651 0.14348 0.94268 0.0
C1452 C 0.87224 0.18643 0.85552 0.0
C1453 C 0.8997 0.17143 0.81069 0.0
N1454 N 0.94606 0.12266 0.78498 0.0
N1455 N 0.84943 0.19138 0.96824 0.0
C1456 C 0.92409 0.14089 0.83093 0.0
C1457 C 0.87187 0.17361 0.92242 0.0
N1458 N 0.94938 0.10141 0.91995 0.0
N1459 N 0.84547 0.21199 0.83363 0.0
H1460 H 0.84781 0.18252 1.01725 0.0
H1461 H 0.8346 0.21666 0.95941 0.0
H1462 H 0.84548 0.22356 0.78635 0.0
H1463 H 0.8214 0.21971 0.86052 0.0
H1464 H 0.97295 0.09226 0.89297 0.0
H1465 H 0.94881 0.09016 0.96757 0.0
H1466 H 0.96149 0.09776 0.79417 0.0
H1467 H 0.94649 0.13051 0.73541 0.0
C1468 C 0.14775 0.12457 0.16338 0.0
C1469 C 0.14146 0.09258 0.12185 0.0
C1470 C 0.17759 0.05283 0.20078 0.0
C1471 C 0.17598 0.08264 0.24846 0.0
N1472 N 0.18778 0.15054 0.24926 0.0
N1473 N 0.15147 0.02539 0.10092 0.0
C1474 C 0.16904 0.11995 0.22281 0.0
C1475 C 0.1565 0.0564 0.14071 0.0
N1476 N 0.13266 0.15938 0.1472 0.0
N1477 N 0.20514 0.02535 0.20582 0.0
H1478 H 0.13835 0.02705 0.05481 0.0
H1479 H 0.15825 -0.00234 0.11594 0.0
H1480 H 0.22765 0.0278 0.23934 0.0
H1481 H 0.20983 0.00466 0.16993 0.0
H1482 H 0.13328 0.1826 0.17927 0.0
H1483 H 0.11668 0.16407 0.10446 0.0
H1484 H 0.18689 0.17787 0.22864 0.0
H1485 H 0.20853 0.14722 0.28594 0.0
C1486 C 0.07082 0.81655 0.88877 0.0
C1487 C 0.08759 0.83624 0.83466 0.0
C1488 C 0.11099 0.88638 0.90998 0.0
C1489 C 0.09676 0.86515 0.96456 0.0
N1490 N 0.06573 0.80879 1.00753 0.0
N1491 N 0.12562 0.88845 0.79284 0.0
C1492 C 0.07735 0.82988 0.95431 0.0
C1493 C 0.10815 0.87086 0.84507 0.0
N1494 N 0.04795 0.7855 0.87717 0.0
N1495 N 0.12679 0.92168 0.92031 0.0
H1496 H 0.12278 0.87892 0.74445 0.0
H1497 H 0.14459 0.91126 0.79727 0.0
H1498 H 0.13068 0.93323 0.96713 0.0
H1499 H 0.13401 0.94066 0.88278 0.0
H1500 H 0.03164 0.77188 0.91309 0.0
H1501 H 0.043 0.77473 0.8301 0.0
H1502 H 0.05522 0.78103 1.00451 0.0
H1503 H 0.06852 0.81824 0.05596 0.0
loop_
_geom_bond_atom_site_label_1
_geom_bond_atom_site_label_2
_geom_bond_distance
_geom_bond_site_symmetry_2
_ccdc_geom_bond_type
C0 Eu1 2.835 1_556 S
C0 C2 1.500 . S
C0 O20 1.257 . S
C0 O21 1.260 . S
Eu1 C0 2.835 1_554 S
Eu1 O20 2.473 1_554 S
Eu1 O21 2.480 1_554 S
Eu1 O22 2.430 . S
Eu1 O23 2.670 . S
Eu1 O24 2.394 . S
Eu1 O29 2.355 . S
Eu1 O31 2.374 . S
C2 C0 1.500 . S
C2 C3 1.377 . S
C2 C7 1.377 . S
C3 C2 1.377 . S
C3 C4 1.395 . S
C3 H32 0.931 . S
C4 C3 1.395 . S
C4 C5 1.383 . S
C4 H33 0.931 . S
C5 C4 1.383 . S
C5 C6 1.394 . S
C6 C5 1.394 . S
C6 C7 1.378 . S
C6 H34 0.931 . S
C7 C2 1.377 . S
C7 C6 1.378 . S
C7 H35 0.931 . S
C8 O22 1.259 . S
C8 O23 1.270 . S
C9 O24 1.251 . S
C9 O25 1.251 . S
C10 Eu11 2.835 . S
C10 C12 1.500 . S
C10 O26 1.257 . S
C10 O27 1.260 . S
Eu11 C10 2.835 . S
Eu11 O23 2.355 . S
Eu11 O25 2.374 . S
Eu11 O26 2.473 . S
Eu11 O27 2.480 . S
Eu11 O28 2.430 . S
Eu11 O29 2.670 . S
Eu11 O30 2.394 . S
C12 C10 1.500 . S
C12 C13 1.377 . S
C12 C17 1.377 . S
C13 C12 1.377 . S
C13 C14 1.395 . S
C13 H36 0.931 . S
C14 C13 1.395 . S
C14 C15 1.383 . S
C14 H37 0.931 . S
C15 C14 1.383 . S
C15 C16 1.394 . S
C16 C15 1.394 . S
C16 C17 1.378 . S
C16 H38 0.931 . S
C17 C12 1.377 . S
C17 C16 1.378 . S
C17 H39 0.931 . S
C18 O28 1.259 . S
C18 O29 1.270 . S
C19 O30 1.251 . S
C19 O31 1.251 . S
O20 C0 1.257 . S
O20 Eu1 2.473 1_556 S
O21 C0 1.260 . S
O21 Eu1 2.480 1_556 S
O22 Eu1 2.430 . S
O22 C8 1.259 . S
O23 Eu1 2.670 . S
O23 C8 1.270 . S
O23 Eu11 2.355 . S
O24 Eu1 2.394 . S
O24 C9 1.251 . S
O25 C9 1.251 . S
O25 Eu11 2.374 . S
O26 C10 1.257 . S
O26 Eu11 2.473 . S
O27 C10 1.260 . S
O27 Eu11 2.480 . S
O28 Eu11 2.430 . S
O28 C18 1.259 . S
O29 Eu1 2.355 . S
O29 Eu11 2.670 . S
O29 C18 1.270 . S
O30 Eu11 2.394 . S
O30 C19 1.251 . S
O31 Eu1 2.374 . S
O31 C19 1.251 . S
H32 C3 0.931 . S
H33 C4 0.931 . S
H34 C6 0.931 . S
H35 C7 0.931 . S
H36 C13 0.931 . S
H37 C14 0.931 . S
H38 C16 0.931 . S
H39 C17 0.931 . S
C40 Eu41 2.835 . S
C40 C42 1.500 . S
C40 O60 1.257 . S
C40 O61 1.260 . S
Eu41 C40 2.835 . S
Eu41 O60 2.473 . S
Eu41 O61 2.480 . S
Eu41 O62 2.430 . S
Eu41 O63 2.670 . S
Eu41 O64 2.394 . S
Eu41 O69 2.355 . S
Eu41 O71 2.374 . S
C42 C40 1.500 . S
C42 C43 1.377 . S
C42 C47 1.377 . S
C43 C42 1.377 . S
C43 C44 1.395 . S
C43 H72 0.931 . S
C44 C43 1.395 . S
C44 C45 1.383 . S
C44 H73 0.931 . S
C45 C44 1.383 . S
C45 C46 1.394 . S
C46 C45 1.394 . S
C46 C47 1.378 . S
C46 H74 0.931 . S
C47 C42 1.377 . S
C47 C46 1.378 . S
C47 H75 0.931 . S
C48 O62 1.259 . S
C48 O63 1.270 . S
C49 O64 1.251 . S
C49 O65 1.251 . S
C50 Eu51 2.835 1_554 S
C50 C52 1.500 . S
C50 O66 1.257 . S
C50 O67 1.260 . S
Eu51 C50 2.835 1_556 S
Eu51 O63 2.355 . S
Eu51 O65 2.374 . S
Eu51 O66 2.473 1_556 S
Eu51 O67 2.480 1_556 S
Eu51 O68 2.430 . S
Eu51 O69 2.670 . S
Eu51 O70 2.394 . S
C52 C50 1.500 . S
C52 C53 1.377 . S
C52 C57 1.377 . S
C53 C52 1.377 . S
C53 C54 1.395 . S
C53 H76 0.931 . S
C54 C53 1.395 . S
C54 C55 1.383 . S
C54 H77 0.931 . S
C55 C54 1.383 . S
C55 C56 1.394 . S
C56 C55 1.394 . S
C56 C57 1.378 . S
C56 H78 0.931 . S
C57 C52 1.377 . S
C57 C56 1.378 . S
C57 H79 0.931 . S
C58 O68 1.259 . S
C58 O69 1.270 . S
C59 O70 1.251 . S
C59 O71 1.251 . S
O60 C40 1.257 . S
O60 Eu41 2.473 . S
O61 C40 1.260 . S
O61 Eu41 2.480 . S
O62 Eu41 2.430 . S
O62 C48 1.259 . S
O63 Eu41 2.670 . S
O63 C48 1.270 . S
O63 Eu51 2.355 . S
O64 Eu41 2.394 . S
O64 C49 1.251 . S
O65 C49 1.251 . S
O65 Eu51 2.374 . S
O66 C50 1.257 . S
O66 Eu51 2.473 1_554 S
O67 C50 1.260 . S
O67 Eu51 2.480 1_554 S
O68 Eu51 2.430 . S
O68 C58 1.259 . S
O69 Eu41 2.355 . S
O69 Eu51 2.670 . S
O69 C58 1.270 . S
O70 Eu51 2.394 . S
O70 C59 1.251 . S
O71 Eu41 2.374 . S
O71 C59 1.251 . S
H72 C43 0.931 . S
H73 C44 0.931 . S
H74 C46 0.931 . S
H75 C47 0.931 . S
H76 C53 0.931 . S
H77 C54 0.931 . S
H78 C56 0.931 . S
H79 C57 0.931 . S
C80 Eu81 2.835 1_556 S
C80 C82 1.500 . S
C80 O100 1.257 . S
C80 O101 1.260 . S
Eu81 C80 2.835 1_554 S
Eu81 O100 2.473 1_554 S
Eu81 O101 2.480 1_554 S
Eu81 O102 2.430 . S
Eu81 O103 2.670 . S
Eu81 O104 2.394 . S
Eu81 O109 2.355 . S
Eu81 O111 2.374 . S
C82 C80 1.500 . S
C82 C83 1.377 . S
C82 C87 1.377 . S
C83 C82 1.377 . S
C83 C84 1.395 . S
C83 H112 0.931 . S
C84 C83 1.395 . S
C84 C85 1.383 . S
C84 H113 0.931 . S
C85 C84 1.383 . S
C85 C86 1.394 . S
C86 C85 1.394 . S
C86 C87 1.378 . S
C86 H114 0.931 . S
C87 C82 1.377 . S
C87 C86 1.378 . S
C87 H115 0.931 . S
C88 O102 1.259 . S
C88 O103 1.270 . S
C89 O104 1.251 . S
C89 O105 1.251 . S
C90 Eu91 2.835 . S
C90 C92 1.500 . S
C90 O106 1.257 . S
C90 O107 1.260 . S
Eu91 C90 2.835 . S
Eu91 O103 2.355 . S
Eu91 O105 2.374 . S
Eu91 O106 2.473 . S
Eu91 O107 2.480 . S
Eu91 O108 2.430 . S
Eu91 O109 2.670 . S
Eu91 O110 2.394 . S
C92 C90 1.500 . S
C92 C93 1.377 . S
C92 C97 1.377 . S
C93 C92 1.377 . S
C93 C94 1.395 . S
C93 H116 0.931 . S
C94 C93 1.395 . S
C94 C95 1.383 . S
C94 H117 0.931 . S
C95 C94 1.383 . S
C95 C96 1.394 . S
C96 C95 1.394 . S
C96 C97 1.378 . S
C96 H118 0.931 . S
C97 C92 1.377 . S
C97 C96 1.378 . S
C97 H119 0.931 . S
C98 O108 1.259 . S
C98 O109 1.270 . S
C99 O110 1.251 . S
C99 O111 1.251 . S
O100 C80 1.257 . S
O100 Eu81 2.473 1_556 S
O101 C80 1.260 . S
O101 Eu81 2.480 1_556 S
O102 Eu81 2.430 . S
O102 C88 1.259 . S
O103 Eu81 2.670 . S
O103 C88 1.270 . S
O103 Eu91 2.355 . S
O104 Eu81 2.394 . S
O104 C89 1.251 . S
O105 C89 1.251 . S
O105 Eu91 2.374 . S
O106 C90 1.257 . S
O106 Eu91 2.473 . S
O107 C90 1.260 . S
O107 Eu91 2.480 . S
O108 Eu91 2.430 . S
O108 C98 1.259 . S
O109 Eu81 2.355 . S
O109 Eu91 2.670 . S
O109 C98 1.270 . S
O110 Eu91 2.394 . S
O110 C99 1.251 . S
O111 Eu81 2.374 . S
O111 C99 1.251 . S
H112 C83 0.931 . S
H113 C84 0.931 . S
H114 C86 0.931 . S
H115 C87 0.931 . S
H116 C93 0.931 . S
H117 C94 0.931 . S
H118 C96 0.931 . S
H119 C97 0.931 . S
C120 Eu121 2.835 . S
C120 C122 1.500 . S
C120 O140 1.257 . S
C120 O141 1.260 . S
Eu121 C120 2.835 . S
Eu121 O140 2.473 . S
Eu121 O141 2.480 . S
Eu121 O142 2.430 . S
Eu121 O143 2.670 . S
Eu121 O144 2.394 . S
Eu121 O149 2.355 . S
Eu121 O151 2.374 . S
C122 C120 1.500 . S
C122 C123 1.377 . S
C122 C127 1.377 . S
C123 C122 1.377 . S
C123 C124 1.395 . S
C123 H152 0.931 . S
C124 C123 1.395 . S
C124 C125 1.383 . S
C124 H153 0.931 . S
C125 C124 1.383 . S
C125 C126 1.394 . S
C126 C125 1.394 . S
C126 C127 1.378 . S
C126 H154 0.931 . S
C127 C122 1.377 . S
C127 C126 1.378 . S
C127 H155 0.931 . S
C128 O142 1.259 . S
C128 O143 1.270 . S
C129 O144 1.251 . S
C129 O145 1.251 . S
C130 Eu131 2.835 1_554 S
C130 C132 1.500 . S
C130 O146 1.257 . S
C130 O147 1.260 . S
Eu131 C130 2.835 1_556 S
Eu131 O143 2.355 . S
Eu131 O145 2.374 . S
Eu131 O146 2.473 1_556 S
Eu131 O147 2.480 1_556 S
Eu131 O148 2.430 . S
Eu131 O149 2.670 . S
Eu131 O150 2.394 . S
C132 C130 1.500 . S
C132 C133 1.377 . S
C132 C137 1.377 . S
C133 C132 1.377 . S
C133 C134 1.395 . S
C133 H156 0.931 . S
C134 C133 1.395 . S
C134 C135 1.383 . S
C134 H157 0.931 . S
C135 C134 1.383 . S
C135 C136 1.394 . S
C136 C135 1.394 . S
C136 C137 1.378 . S
C136 H158 0.931 . S
C137 C132 1.377 . S
C137 C136 1.378 . S
C137 H159 0.931 . S
C138 O148 1.259 . S
C138 O149 1.270 . S
C139 O150 1.251 . S
C139 O151 1.251 . S
O140 C120 1.257 . S
O140 Eu121 2.473 . S
O141 C120 1.260 . S
O141 Eu121 2.480 . S
O142 Eu121 2.430 . S
O142 C128 1.259 . S
O143 Eu121 2.670 . S
O143 C128 1.270 . S
O143 Eu131 2.355 . S
O144 Eu121 2.394 . S
O144 C129 1.251 . S
O145 C129 1.251 . S
O145 Eu131 2.374 . S
O146 C130 1.257 . S
O146 Eu131 2.473 1_554 S
O147 C130 1.260 . S
O147 Eu131 2.480 1_554 S
O148 Eu131 2.430 . S
O148 C138 1.259 . S
O149 Eu121 2.355 . S
O149 Eu131 2.670 . S
O149 C138 1.270 . S
O150 Eu131 2.394 . S
O150 C139 1.251 . S
O151 Eu121 2.374 . S
O151 C139 1.251 . S
H152 C123 0.931 . S
H153 C124 0.931 . S
H154 C126 0.931 . S
H155 C127 0.931 . S
H156 C133 0.931 . S
H157 C134 0.931 . S
H158 C136 0.931 . S
H159 C137 0.931 . S
C160 Eu161 2.835 . S
C160 C162 1.500 . S
C160 O180 1.257 . S
C160 O181 1.260 . S
Eu161 C160 2.835 . S
Eu161 O180 2.473 . S
Eu161 O181 2.480 . S
Eu161 O182 2.430 . S
Eu161 O183 2.670 . S
Eu161 O184 2.394 . S
Eu161 O189 2.355 . S
Eu161 O191 2.374 . S
C162 C160 1.500 . S
C162 C163 1.377 . S
C162 C167 1.377 . S
C163 C162 1.377 . S
C163 C164 1.395 . S
C163 H192 0.931 . S
C164 C163 1.395 . S
C164 C165 1.383 . S
C164 H193 0.931 . S
C165 C164 1.383 . S
C165 C166 1.394 . S
C166 C165 1.394 . S
C166 C167 1.378 . S
C166 H194 0.931 . S
C167 C162 1.377 . S
C167 C166 1.378 . S
C167 H195 0.931 . S
C168 O182 1.259 . S
C168 O183 1.270 . S
C169 O184 1.251 . S
C169 O185 1.251 . S
C170 Eu171 2.835 1_556 S
C170 C172 1.500 . S
C170 O186 1.257 . S
C170 O187 1.260 . S
Eu171 C170 2.835 1_554 S
Eu171 O183 2.355 . S
Eu171 O185 2.374 . S
Eu171 O186 2.473 1_554 S
Eu171 O187 2.480 1_554 S
Eu171 O188 2.430 . S
Eu171 O189 2.670 . S
Eu171 O190 2.394 . S
C172 C170 1.500 . S
C172 C173 1.377 . S
C172 C177 1.377 . S
C173 C172 1.377 . S
C173 C174 1.395 . S
C173 H196 0.931 . S
C174 C173 1.395 . S
C174 C175 1.383 . S
C174 H197 0.931 . S
C175 C174 1.383 . S
C175 C176 1.394 . S
C176 C175 1.394 . S
C176 C177 1.378 . S
C176 H198 0.931 . S
C177 C172 1.377 . S
C177 C176 1.378 . S
C177 H199 0.931 . S
C178 O188 1.259 . S
C178 O189 1.270 . S
C179 O190 1.251 . S
C179 O191 1.251 . S
O180 C160 1.257 . S
O180 Eu161 2.473 . S
O181 C160 1.260 . S
O181 Eu161 2.480 . S
O182 Eu161 2.430 . S
O182 C168 1.259 . S
O183 Eu161 2.670 . S
O183 C168 1.270 . S
O183 Eu171 2.355 . S
O184 Eu161 2.394 . S
O184 C169 1.251 . S
O185 C169 1.251 . S
O185 Eu171 2.374 . S
O186 C170 1.257 . S
O186 Eu171 2.473 1_556 S
O187 C170 1.260 . S
O187 Eu171 2.480 1_556 S
O188 Eu171 2.430 . S
O188 C178 1.259 . S
O189 Eu161 2.355 . S
O189 Eu171 2.670 . S
O189 C178 1.270 . S
O190 Eu171 2.394 . S
O190 C179 1.251 . S
O191 Eu161 2.374 . S
O191 C179 1.251 . S
H192 C163 0.931 . S
H193 C164 0.931 . S
H194 C166 0.931 . S
H195 C167 0.931 . S
H196 C173 0.931 . S
H197 C174 0.931 . S
H198 C176 0.931 . S
H199 C177 0.931 . S
C200 Eu201 2.835 1_554 S
C200 C202 1.500 . S
C200 O220 1.257 . S
C200 O221 1.260 . S
Eu201 C200 2.835 1_556 S
Eu201 O220 2.473 1_556 S
Eu201 O221 2.480 1_556 S
Eu201 O222 2.430 . S
Eu201 O223 2.670 . S
Eu201 O224 2.394 . S
Eu201 O229 2.355 . S
Eu201 O231 2.374 . S
C202 C200 1.500 . S
C202 C203 1.377 . S
C202 C207 1.377 . S
C203 C202 1.377 . S
C203 C204 1.395 . S
C203 H232 0.931 . S
C204 C203 1.395 . S
C204 C205 1.383 . S
C204 H233 0.931 . S
C205 C204 1.383 . S
C205 C206 1.394 . S
C206 C205 1.394 . S
C206 C207 1.378 . S
C206 H234 0.931 . S
C207 C202 1.377 . S
C207 C206 1.378 . S
C207 H235 0.931 . S
C208 O222 1.259 . S
C208 O223 1.270 . S
C209 O224 1.251 . S
C209 O225 1.251 . S
C210 Eu211 2.835 . S
C210 C212 1.500 . S
C210 O226 1.257 . S
C210 O227 1.260 . S
Eu211 C210 2.835 . S
Eu211 O223 2.355 . S
Eu211 O225 2.374 . S
Eu211 O226 2.473 . S
Eu211 O227 2.480 . S
Eu211 O228 2.430 . S
Eu211 O229 2.670 . S
Eu211 O230 2.394 . S
C212 C210 1.500 . S
C212 C213 1.377 . S
C212 C217 1.377 . S
C213 C212 1.377 . S
C213 C214 1.395 . S
C213 H236 0.931 . S
C214 C213 1.395 . S
C214 C215 1.383 . S
C214 H237 0.931 . S
C215 C214 1.383 . S
C215 C216 1.394 . S
C216 C215 1.394 . S
C216 C217 1.378 . S
C216 H238 0.931 . S
C217 C212 1.377 . S
C217 C216 1.378 . S
C217 H239 0.931 . S
C218 O228 1.259 . S
C218 O229 1.270 . S
C219 O230 1.251 . S
C219 O231 1.251 . S
O220 C200 1.257 . S
O220 Eu201 2.473 1_554 S
O221 C200 1.260 . S
O221 Eu201 2.480 1_554 S
O222 Eu201 2.430 . S
O222 C208 1.259 . S
O223 Eu201 2.670 . S
O223 C208 1.270 . S
O223 Eu211 2.355 . S
O224 Eu201 2.394 . S
O224 C209 1.251 . S
O225 C209 1.251 . S
O225 Eu211 2.374 . S
O226 C210 1.257 . S
O226 Eu211 2.473 . S
O227 C210 1.260 . S
O227 Eu211 2.480 . S
O228 Eu211 2.430 . S
O228 C218 1.259 . S
O229 Eu201 2.355 . S
O229 Eu211 2.670 . S
O229 C218 1.270 . S
O230 Eu211 2.394 . S
O230 C219 1.251 . S
O231 Eu201 2.374 . S
O231 C219 1.251 . S
H232 C203 0.931 . S
H233 C204 0.931 . S
H234 C206 0.931 . S
H235 C207 0.931 . S
H236 C213 0.931 . S
H237 C214 0.931 . S
H238 C216 0.931 . S
H239 C217 0.931 . S
C240 Eu241 2.835 . S
C240 C242 1.500 . S
C240 O260 1.257 . S
C240 O261 1.260 . S
Eu241 C240 2.835 . S
Eu241 O260 2.473 . S
Eu241 O261 2.480 . S
Eu241 O262 2.430 . S
Eu241 O263 2.670 . S
Eu241 O264 2.394 . S
Eu241 O269 2.355 . S
Eu241 O271 2.374 . S
C242 C240 1.500 . S
C242 C243 1.377 . S
C242 C247 1.377 . S
C243 C242 1.377 . S
C243 C244 1.395 . S
C243 H272 0.931 . S
C244 C243 1.395 . S
C244 C245 1.383 . S
C244 H273 0.931 . S
C245 C244 1.383 . S
C245 C246 1.394 . S
C246 C245 1.394 . S
C246 C247 1.378 . S
C246 H274 0.931 . S
C247 C242 1.377 . S
C247 C246 1.378 . S
C247 H275 0.931 . S
C248 O262 1.259 . S
C248 O263 1.270 . S
C249 O264 1.251 . S
C249 O265 1.251 . S
C250 Eu251 2.835 1_556 S
C250 C252 1.500 . S
C250 O266 1.257 . S
C250 O267 1.260 . S
Eu251 C250 2.835 1_554 S
Eu251 O263 2.355 . S
Eu251 O265 2.374 . S
Eu251 O266 2.473 1_554 S
Eu251 O267 2.480 1_554 S
Eu251 O268 2.430 . S
Eu251 O269 2.670 . S
Eu251 O270 2.394 . S
C252 C250 1.500 . S
C252 C253 1.377 . S
C252 C257 1.377 . S
C253 C252 1.377 . S
C253 C254 1.395 . S
C253 H276 0.931 . S
C254 C253 1.395 . S
C254 C255 1.383 . S
C254 H277 0.931 . S
C255 C254 1.383 . S
C255 C256 1.394 . S
C256 C255 1.394 . S
C256 C257 1.378 . S
C256 H278 0.931 . S
C257 C252 1.377 . S
C257 C256 1.378 . S
C257 H279 0.931 . S
C258 O268 1.259 . S
C258 O269 1.270 . S
C259 O270 1.251 . S
C259 O271 1.251 . S
O260 C240 1.257 . S
O260 Eu241 2.473 . S
O261 C240 1.260 . S
O261 Eu241 2.480 . S
O262 Eu241 2.430 . S
O262 C248 1.259 . S
O263 Eu241 2.670 . S
O263 C248 1.270 . S
O263 Eu251 2.355 . S
O264 Eu241 2.394 . S
O264 C249 1.251 . S
O265 C249 1.251 . S
O265 Eu251 2.374 . S
O266 C250 1.257 . S
O266 Eu251 2.473 1_556 S
O267 C250 1.260 . S
O267 Eu251 2.480 1_556 S
O268 Eu251 2.430 . S
O268 C258 1.259 . S
O269 Eu241 2.355 . S
O269 Eu251 2.670 . S
O269 C258 1.270 . S
O270 Eu251 2.394 . S
O270 C259 1.251 . S
O271 Eu241 2.374 . S
O271 C259 1.251 . S
H272 C243 0.931 . S
H273 C244 0.931 . S
H274 C246 0.931 . S
H275 C247 0.931 . S
H276 C253 0.931 . S
H277 C254 0.931 . S
H278 C256 0.931 . S
H279 C257 0.931 . S
C280 Eu281 2.835 1_554 S
C280 C282 1.500 . S
C280 O300 1.257 . S
C280 O301 1.260 . S
Eu281 C280 2.835 1_556 S
Eu281 O300 2.473 1_556 S
Eu281 O301 2.480 1_556 S
Eu281 O302 2.430 . S
Eu281 O303 2.670 . S
Eu281 O304 2.394 . S
Eu281 O309 2.355 . S
Eu281 O311 2.374 . S
C282 C280 1.500 . S
C282 C283 1.377 . S
C282 C287 1.377 . S
C283 C282 1.377 . S
C283 C284 1.395 . S
C283 H312 0.931 . S
C284 C283 1.395 . S
C284 C285 1.383 . S
C284 H313 0.931 . S
C285 C284 1.383 . S
C285 C286 1.394 . S
C286 C285 1.394 . S
C286 C287 1.378 . S
C286 H314 0.931 . S
C287 C282 1.377 . S
C287 C286 1.378 . S
C287 H315 0.931 . S
C288 O302 1.259 . S
C288 O303 1.270 . S
C289 O304 1.251 . S
C289 O305 1.251 . S
C290 Eu291 2.835 . S
C290 C292 1.500 . S
C290 O306 1.257 . S
C290 O307 1.260 . S
Eu291 C290 2.835 . S
Eu291 O303 2.355 . S
Eu291 O305 2.374 . S
Eu291 O306 2.473 . S
Eu291 O307 2.480 . S
Eu291 O308 2.430 . S
Eu291 O309 2.670 . S
Eu291 O310 2.394 . S
C292 C290 1.500 . S
C292 C293 1.377 . S
C292 C297 1.377 . S
C293 C292 1.377 . S
C293 C294 1.395 . S
C293 H316 0.931 . S
C294 C293 1.395 . S
C294 C295 1.383 . S
C294 H317 0.931 . S
C295 C294 1.383 . S
C295 C296 1.394 . S
C296 C295 1.394 . S
C296 C297 1.378 . S
C296 H318 0.931 . S
C297 C292 1.377 . S
C297 C296 1.378 . S
C297 H319 0.931 . S
C298 O308 1.259 . S
C298 O309 1.270 . S
C299 O310 1.251 . S
C299 O311 1.251 . S
O300 C280 1.257 . S
O300 Eu281 2.473 1_554 S
O301 C280 1.260 . S
O301 Eu281 2.480 1_554 S
O302 Eu281 2.430 . S
O302 C288 1.259 . S
O303 Eu281 2.670 . S
O303 C288 1.270 . S
O303 Eu291 2.355 . S
O304 Eu281 2.394 . S
O304 C289 1.251 . S
O305 C289 1.251 . S
O305 Eu291 2.374 . S
O306 C290 1.257 . S
O306 Eu291 2.473 . S
O307 C290 1.260 . S
O307 Eu291 2.480 . S
O308 Eu291 2.430 . S
O308 C298 1.259 . S
O309 Eu281 2.355 . S
O309 Eu291 2.670 . S
O309 C298 1.270 . S
O310 Eu291 2.394 . S
O310 C299 1.251 . S
O311 Eu281 2.374 . S
O311 C299 1.251 . S
H312 C283 0.931 . S
H313 C284 0.931 . S
H314 C286 0.931 . S
H315 C287 0.931 . S
H316 C293 0.931 . S
H317 C294 0.931 . S
H318 C296 0.931 . S
H319 C297 0.931 . S
C320 Eu321 2.835 . S
C320 C322 1.500 . S
C320 O340 1.257 . S
C320 O341 1.260 . S
Eu321 C320 2.835 . S
Eu321 O340 2.473 . S
Eu321 O341 2.480 . S
Eu321 O342 2.430 . S
Eu321 O343 2.670 . S
Eu321 O344 2.394 . S
Eu321 O349 2.355 . S
Eu321 O351 2.374 . S
C322 C320 1.500 . S
C322 C323 1.377 . S
C322 C327 1.377 . S
C323 C322 1.377 . S
C323 C324 1.395 . S
C323 H352 0.931 . S
C324 C323 1.395 . S
C324 C325 1.383 . S
C324 H353 0.931 . S
C325 C324 1.383 . S
C325 C326 1.394 . S
C326 C325 1.394 . S
C326 C327 1.378 . S
C326 H354 0.931 . S
C327 C322 1.377 . S
C327 C326 1.378 . S
C327 H355 0.931 . S
C328 O342 1.259 . S
C328 O343 1.270 . S
C329 O344 1.251 . S
C329 O345 1.251 . S
C330 Eu331 2.835 . S
C330 C332 1.500 . S
C330 O346 1.257 . S
C330 O347 1.260 . S
Eu331 C330 2.835 . S
Eu331 O343 2.355 . S
Eu331 O345 2.374 . S
Eu331 O346 2.473 . S
Eu331 O347 2.480 . S
Eu331 O348 2.430 . S
Eu331 O349 2.670 . S
Eu331 O350 2.394 . S
C332 C330 1.500 . S
C332 C333 1.377 . S
C332 C337 1.377 . S
C333 C332 1.377 . S
C333 C334 1.395 . S
C333 H356 0.931 . S
C334 C333 1.395 . S
C334 C335 1.383 1_556 S
C334 H357 0.931 1_556 S
C335 C334 1.383 1_554 S
C335 C336 1.394 1_554 S
C336 C335 1.394 1_556 S
C336 C337 1.378 . S
C336 H358 0.931 1_556 S
C337 C332 1.377 . S
C337 C336 1.378 . S
C337 H359 0.931 . S
C338 O348 1.259 . S
C338 O349 1.270 . S
C339 O350 1.251 . S
C339 O351 1.251 . S
O340 C320 1.257 . S
O340 Eu321 2.473 . S
O341 C320 1.260 . S
O341 Eu321 2.480 . S
O342 Eu321 2.430 . S
O342 C328 1.259 . S
O343 Eu321 2.670 . S
O343 C328 1.270 . S
O343 Eu331 2.355 . S
O344 Eu321 2.394 . S
O344 C329 1.251 . S
O345 C329 1.251 . S
O345 Eu331 2.374 . S
O346 C330 1.257 . S
O346 Eu331 2.473 . S
O347 C330 1.260 . S
O347 Eu331 2.480 . S
O348 Eu331 2.430 . S
O348 C338 1.259 . S
O349 Eu321 2.355 . S
O349 Eu331 2.670 . S
O349 C338 1.270 . S
O350 Eu331 2.394 . S
O350 C339 1.251 . S
O351 Eu321 2.374 . S
O351 C339 1.251 . S
H352 C323 0.931 . S
H353 C324 0.931 . S
H354 C326 0.931 . S
H355 C327 0.931 . S
H356 C333 0.931 . S
H357 C334 0.931 1_554 S
H358 C336 0.931 1_554 S
H359 C337 0.931 . S
C360 Eu361 2.835 . S
C360 C362 1.500 . S
C360 O380 1.257 . S
C360 O381 1.260 . S
Eu361 C360 2.835 . S
Eu361 O380 2.473 . S
Eu361 O381 2.480 . S
Eu361 O382 2.430 . S
Eu361 O383 2.670 . S
Eu361 O384 2.394 . S
Eu361 O389 2.355 . S
Eu361 O391 2.374 . S
C362 C360 1.500 . S
C362 C363 1.377 . S
C362 C367 1.377 . S
C363 C362 1.377 . S
C363 C364 1.395 . S
C363 H392 0.931 . S
C364 C363 1.395 . S
C364 C365 1.383 1_554 S
C364 H393 0.931 1_554 S
C365 C364 1.383 1_556 S
C365 C366 1.394 1_556 S
C366 C365 1.394 1_554 S
C366 C367 1.378 . S
C366 H394 0.931 1_554 S
C367 C362 1.377 . S
C367 C366 1.378 . S
C367 H395 0.931 . S
C368 O382 1.259 . S
C368 O383 1.270 . S
C369 O384 1.251 . S
C369 O385 1.251 . S
C370 Eu371 2.835 . S
C370 C372 1.500 . S
C370 O386 1.257 . S
C370 O387 1.260 . S
Eu371 C370 2.835 . S
Eu371 O383 2.355 . S
Eu371 O385 2.374 . S
Eu371 O386 2.473 . S
Eu371 O387 2.480 . S
Eu371 O388 2.430 . S
Eu371 O389 2.670 . S
Eu371 O390 2.394 . S
C372 C370 1.500 . S
C372 C373 1.377 . S
C372 C377 1.377 . S
C373 C372 1.377 . S
C373 C374 1.395 . S
C373 H396 0.931 . S
C374 C373 1.395 . S
C374 C375 1.383 . S
C374 H397 0.931 . S
C375 C374 1.383 . S
C375 C376 1.394 . S
C376 C375 1.394 . S
C376 C377 1.378 . S
C376 H398 0.931 . S
C377 C372 1.377 . S
C377 C376 1.378 . S
C377 H399 0.931 . S
C378 O388 1.259 . S
C378 O389 1.270 . S
C379 O390 1.251 . S
C379 O391 1.251 . S
O380 C360 1.257 . S
O380 Eu361 2.473 . S
O381 C360 1.260 . S
O381 Eu361 2.480 . S
O382 Eu361 2.430 . S
O382 C368 1.259 . S
O383 Eu361 2.670 . S
O383 C368 1.270 . S
O383 Eu371 2.355 . S
O384 Eu361 2.394 . S
O384 C369 1.251 . S
O385 C369 1.251 . S
O385 Eu371 2.374 . S
O386 C370 1.257 . S
O386 Eu371 2.473 . S
O387 C370 1.260 . S
O387 Eu371 2.480 . S
O388 Eu371 2.430 . S
O388 C378 1.259 . S
O389 Eu361 2.355 . S
O389 Eu371 2.670 . S
O389 C378 1.270 . S
O390 Eu371 2.394 . S
O390 C379 1.251 . S
O391 Eu361 2.374 . S
O391 C379 1.251 . S
H392 C363 0.931 . S
H393 C364 0.931 1_556 S
H394 C366 0.931 1_556 S
H395 C367 0.931 . S
H396 C373 0.931 . S
H397 C374 0.931 . S
H398 C376 0.931 . S
H399 C377 0.931 . S
C400 Eu401 2.835 . S
C400 C402 1.500 . S
C400 O420 1.257 . S
C400 O421 1.260 . S
Eu401 C400 2.835 . S
Eu401 O420 2.473 . S
Eu401 O421 2.480 . S
Eu401 O422 2.430 . S
Eu401 O423 2.670 . S
Eu401 O424 2.394 . S
Eu401 O429 2.355 . S
Eu401 O431 2.374 . S
C402 C400 1.500 . S
C402 C403 1.377 . S
C402 C407 1.377 . S
C403 C402 1.377 . S
C403 C404 1.395 . S
C403 H432 0.931 . S
C404 C403 1.395 . S
C404 C405 1.383 . S
C404 H433 0.931 . S
C405 C404 1.383 . S
C405 C406 1.394 . S
C406 C405 1.394 . S
C406 C407 1.378 . S
C406 H434 0.931 . S
C407 C402 1.377 . S
C407 C406 1.378 . S
C407 H435 0.931 . S
C408 O422 1.259 . S
C408 O423 1.270 . S
C409 O424 1.251 . S
C409 O425 1.251 . S
C410 Eu411 2.835 . S
C410 C412 1.500 . S
C410 O426 1.257 . S
C410 O427 1.260 . S
Eu411 C410 2.835 . S
Eu411 O423 2.355 . S
Eu411 O425 2.374 . S
Eu411 O426 2.473 . S
Eu411 O427 2.480 . S
Eu411 O428 2.430 . S
Eu411 O429 2.670 . S
Eu411 O430 2.394 . S
C412 C410 1.500 . S
C412 C413 1.377 . S
C412 C417 1.377 . S
C413 C412 1.377 . S
C413 C414 1.395 . S
C413 H436 0.931 . S
C414 C413 1.395 . S
C414 C415 1.383 1_556 S
C414 H437 0.931 1_556 S
C415 C414 1.383 1_554 S
C415 C416 1.394 1_554 S
C416 C415 1.394 1_556 S
C416 C417 1.378 . S
C416 H438 0.931 1_556 S
C417 C412 1.377 . S
C417 C416 1.378 . S
C417 H439 0.931 . S
C418 O428 1.259 . S
C418 O429 1.270 . S
C419 O430 1.251 . S
C419 O431 1.251 . S
O420 C400 1.257 . S
O420 Eu401 2.473 . S
O421 C400 1.260 . S
O421 Eu401 2.480 . S
O422 Eu401 2.430 . S
O422 C408 1.259 . S
O423 Eu401 2.670 . S
O423 C408 1.270 . S
O423 Eu411 2.355 . S
O424 Eu401 2.394 . S
O424 C409 1.251 . S
O425 C409 1.251 . S
O425 Eu411 2.374 . S
O426 C410 1.257 . S
O426 Eu411 2.473 . S
O427 C410 1.260 . S
O427 Eu411 2.480 . S
O428 Eu411 2.430 . S
O428 C418 1.259 . S
O429 Eu401 2.355 . S
O429 Eu411 2.670 . S
O429 C418 1.270 . S
O430 Eu411 2.394 . S
O430 C419 1.251 . S
O431 Eu401 2.374 . S
O431 C419 1.251 . S
H432 C403 0.931 . S
H433 C404 0.931 . S
H434 C406 0.931 . S
H435 C407 0.931 . S
H436 C413 0.931 . S
H437 C414 0.931 1_554 S
H438 C416 0.931 1_554 S
H439 C417 0.931 . S
C440 Eu441 2.835 . S
C440 C442 1.500 . S
C440 O460 1.257 . S
C440 O461 1.260 . S
Eu441 C440 2.835 . S
Eu441 O460 2.473 . S
Eu441 O461 2.480 . S
Eu441 O462 2.430 . S
Eu441 O463 2.670 . S
Eu441 O464 2.394 . S
Eu441 O469 2.355 . S
Eu441 O471 2.374 . S
C442 C440 1.500 . S
C442 C443 1.377 . S
C442 C447 1.377 . S
C443 C442 1.377 . S
C443 C444 1.395 . S
C443 H472 0.931 . S
C444 C443 1.395 . S
C444 C445 1.383 1_554 S
C444 H473 0.931 1_554 S
C445 C444 1.383 1_556 S
C445 C446 1.394 1_556 S
C446 C445 1.394 1_554 S
C446 C447 1.378 . S
C446 H474 0.931 1_554 S
C447 C442 1.377 . S
C447 C446 1.378 . S
C447 H475 0.931 . S
C448 O462 1.259 . S
C448 O463 1.270 . S
C449 O464 1.251 . S
C449 O465 1.251 . S
C450 Eu451 2.835 . S
C450 C452 1.500 . S
C450 O466 1.257 . S
C450 O467 1.260 . S
Eu451 C450 2.835 . S
Eu451 O463 2.355 . S
Eu451 O465 2.374 . S
Eu451 O466 2.473 . S
Eu451 O467 2.480 . S
Eu451 O468 2.430 . S
Eu451 O469 2.670 . S
Eu451 O470 2.394 . S
C452 C450 1.500 . S
C452 C453 1.377 . S
C452 C457 1.377 . S
C453 C452 1.377 . S
C453 C454 1.395 . S
C453 H476 0.931 . S
C454 C453 1.395 . S
C454 C455 1.383 . S
C454 H477 0.931 . S
C455 C454 1.383 . S
C455 C456 1.394 . S
C456 C455 1.394 . S
C456 C457 1.378 . S
C456 H478 0.931 . S
C457 C452 1.377 . S
C457 C456 1.378 . S
C457 H479 0.931 . S
C458 O468 1.259 . S
C458 O469 1.270 . S
C459 O470 1.251 . S
C459 O471 1.251 . S
O460 C440 1.257 . S
O460 Eu441 2.473 . S
O461 C440 1.260 . S
O461 Eu441 2.480 . S
O462 Eu441 2.430 . S
O462 C448 1.259 . S
O463 Eu441 2.670 . S
O463 C448 1.270 . S
O463 Eu451 2.355 . S
O464 Eu441 2.394 . S
O464 C449 1.251 . S
O465 C449 1.251 . S
O465 Eu451 2.374 . S
O466 C450 1.257 . S
O466 Eu451 2.473 . S
O467 C450 1.260 . S
O467 Eu451 2.480 . S
O468 Eu451 2.430 . S
O468 C458 1.259 . S
O469 Eu441 2.355 . S
O469 Eu451 2.670 . S
O469 C458 1.270 . S
O470 Eu451 2.394 . S
O470 C459 1.251 . S
O471 Eu441 2.374 . S
O471 C459 1.251 . S
H472 C443 0.931 . S
H473 C444 0.931 1_556 S
H474 C446 0.931 1_556 S
H475 C447 0.931 . S
H476 C453 0.931 . S
H477 C454 0.931 . S
H478 C456 0.931 . S
H479 C457 0.931 . S
C480 Eu481 2.835 . S
C480 C482 1.500 . S
C480 O500 1.257 . S
C480 O501 1.260 . S
Eu481 C480 2.835 . S
Eu481 O500 2.473 . S
Eu481 O501 2.480 . S
Eu481 O502 2.430 . S
Eu481 O503 2.670 . S
Eu481 O504 2.394 . S
Eu481 O509 2.355 . S
Eu481 O511 2.374 . S
C482 C480 1.500 . S
C482 C483 1.377 . S
C482 C487 1.377 . S
C483 C482 1.377 . S
C483 C484 1.395 . S
C483 H512 0.931 . S
C484 C483 1.395 . S
C484 C485 1.383 1_556 S
C484 H513 0.931 1_556 S
C485 C484 1.383 1_554 S
C485 C486 1.394 1_554 S
C486 C485 1.394 1_556 S
C486 C487 1.378 . S
C486 H514 0.940 . S
C487 C482 1.377 . S
C487 C486 1.378 . S
C487 H515 0.931 . S
C488 O502 1.259 . S
C488 O503 1.270 . S
C489 O504 1.251 . S
C489 O505 1.251 . S
C490 Eu491 2.835 . S
C490 C492 1.500 . S
C490 O506 1.257 . S
C490 O507 1.260 . S
Eu491 C490 2.835 . S
Eu491 O503 2.355 . S
Eu491 O505 2.374 . S
Eu491 O506 2.473 . S
Eu491 O507 2.480 . S
Eu491 O508 2.430 . S
Eu491 O509 2.670 . S
Eu491 O510 2.394 . S
C492 C490 1.500 . S
C492 C493 1.377 . S
C492 C497 1.377 . S
C493 C492 1.377 . S
C493 C494 1.395 . S
C493 H516 0.931 . S
C494 C493 1.395 . S
C494 C495 1.383 . S
C494 H517 0.931 . S
C495 C494 1.383 . S
C495 C496 1.394 . S
C496 C495 1.394 . S
C496 C497 1.378 . S
C496 H518 0.931 . S
C497 C492 1.377 . S
C497 C496 1.378 . S
C497 H519 0.931 . S
C498 O508 1.259 . S
C498 O509 1.270 . S
C499 O510 1.251 . S
C499 O511 1.251 . S
O500 C480 1.257 . S
O500 Eu481 2.473 . S
O501 C480 1.260 . S
O501 Eu481 2.480 . S
O502 Eu481 2.430 . S
O502 C488 1.259 . S
O503 Eu481 2.670 . S
O503 C488 1.270 . S
O503 Eu491 2.355 . S
O504 Eu481 2.394 . S
O504 C489 1.251 . S
O505 C489 1.251 . S
O505 Eu491 2.374 . S
O506 C490 1.257 . S
O506 Eu491 2.473 . S
O507 C490 1.260 . S
O507 Eu491 2.480 . S
O508 Eu491 2.430 . S
O508 C498 1.259 . S
O509 Eu481 2.355 . S
O509 Eu491 2.670 . S
O509 C498 1.270 . S
O510 Eu491 2.394 . S
O510 C499 1.251 . S
O511 Eu481 2.374 . S
O511 C499 1.251 . S
H512 C483 0.931 . S
H513 C484 0.931 1_554 S
H514 C486 0.940 . S
H515 C487 0.931 . S
H516 C493 0.931 . S
H517 C494 0.931 . S
H518 C496 0.931 . S
H519 C497 0.931 . S
C520 Eu521 2.835 . S
C520 C522 1.500 . S
C520 O540 1.257 . S
C520 O541 1.260 . S
Eu521 C520 2.835 . S
Eu521 O540 2.473 . S
Eu521 O541 2.480 . S
Eu521 O542 2.430 . S
Eu521 O543 2.670 . S
Eu521 O544 2.394 . S
Eu521 O549 2.355 . S
Eu521 O551 2.374 . S
C522 C520 1.500 . S
C522 C523 1.377 . S
C522 C527 1.377 . S
C523 C522 1.377 . S
C523 C524 1.395 . S
C523 H552 0.931 . S
C524 C523 1.395 . S
C524 C525 1.383 . S
C524 H553 0.931 . S
C525 C524 1.383 . S
C525 C526 1.394 . S
C526 C525 1.394 . S
C526 C527 1.378 . S
C526 H554 0.931 . S
C527 C522 1.377 . S
C527 C526 1.378 . S
C527 H555 0.931 . S
C528 O542 1.259 . S
C528 O543 1.270 . S
C529 O544 1.251 . S
C529 O545 1.251 . S
C530 Eu531 2.835 . S
C530 C532 1.500 . S
C530 O546 1.257 . S
C530 O547 1.260 . S
Eu531 C530 2.835 . S
Eu531 O543 2.355 . S
Eu531 O545 2.374 . S
Eu531 O546 2.473 . S
Eu531 O547 2.480 . S
Eu531 O548 2.430 . S
Eu531 O549 2.670 . S
Eu531 O550 2.394 . S
C532 C530 1.500 . S
C532 C533 1.377 . S
C532 C537 1.377 . S
C533 C532 1.377 . S
C533 C534 1.395 . S
C533 H556 0.931 . S
C534 C533 1.395 . S
C534 C535 1.383 1_554 S
C534 H557 0.931 1_554 S
C535 C534 1.383 1_556 S
C535 C536 1.394 1_556 S
C536 C535 1.394 1_554 S
C536 C537 1.378 . S
C536 H558 0.940 . S
C537 C532 1.377 . S
C537 C536 1.378 . S
C537 H559 0.931 . S
C538 O548 1.259 . S
C538 O549 1.270 . S
C539 O550 1.251 . S
C539 O551 1.251 . S
O540 C520 1.257 . S
O540 Eu521 2.473 . S
O541 C520 1.260 . S
O541 Eu521 2.480 . S
O542 Eu521 2.430 . S
O542 C528 1.259 . S
O543 Eu521 2.670 . S
O543 C528 1.270 . S
O543 Eu531 2.355 . S
O544 Eu521 2.394 . S
O544 C529 1.251 . S
O545 C529 1.251 . S
O545 Eu531 2.374 . S
O546 C530 1.257 . S
O546 Eu531 2.473 . S
O547 C530 1.260 . S
O547 Eu531 2.480 . S
O548 Eu531 2.430 . S
O548 C538 1.259 . S
O549 Eu521 2.355 . S
O549 Eu531 2.670 . S
O549 C538 1.270 . S
O550 Eu531 2.394 . S
O550 C539 1.251 . S
O551 Eu521 2.374 . S
O551 C539 1.251 . S
H552 C523 0.931 . S
H553 C524 0.931 . S
H554 C526 0.931 . S
H555 C527 0.931 . S
H556 C533 0.931 . S
H557 C534 0.931 1_556 S
H558 C536 0.940 . S
H559 C537 0.931 . S
C560 Eu561 2.835 . S
C560 C562 1.500 . S
C560 O580 1.257 . S
C560 O581 1.260 . S
Eu561 C560 2.835 . S
Eu561 O580 2.473 . S
Eu561 O581 2.480 . S
Eu561 O582 2.430 . S
Eu561 O583 2.670 . S
Eu561 O584 2.394 . S
Eu561 O589 2.355 . S
Eu561 O591 2.374 . S
C562 C560 1.500 . S
C562 C563 1.377 . S
C562 C567 1.377 . S
C563 C562 1.377 . S
C563 C564 1.395 . S
C563 H592 0.931 . S
C564 C563 1.395 . S
C564 C565 1.383 1_556 S
C564 H593 0.931 1_556 S
C565 C564 1.383 1_554 S
C565 C566 1.394 1_554 S
C566 C565 1.394 1_556 S
C566 C567 1.378 . S
C566 H594 0.940 . S
C567 C562 1.377 . S
C567 C566 1.378 . S
C567 H595 0.931 . S
C568 O582 1.259 . S
C568 O583 1.270 . S
C569 O584 1.251 . S
C569 O585 1.251 . S
C570 Eu571 2.835 . S
C570 C572 1.500 . S
C570 O586 1.257 . S
C570 O587 1.260 . S
Eu571 C570 2.835 . S
Eu571 O583 2.355 . S
Eu571 O585 2.374 . S
Eu571 O586 2.473 . S
Eu571 O587 2.480 . S
Eu571 O588 2.430 . S
Eu571 O589 2.670 . S
Eu571 O590 2.394 . S
C572 C570 1.500 . S
C572 C573 1.377 . S
C572 C577 1.377 . S
C573 C572 1.377 . S
C573 C574 1.395 . S
C573 H596 0.931 . S
C574 C573 1.395 . S
C574 C575 1.383 . S
C574 H597 0.931 . S
C575 C574 1.383 . S
C575 C576 1.394 . S
C576 C575 1.394 . S
C576 C577 1.378 . S
C576 H598 0.931 . S
C577 C572 1.377 . S
C577 C576 1.378 . S
C577 H599 0.931 . S
C578 O588 1.259 . S
C578 O589 1.270 . S
C579 O590 1.251 . S
C579 O591 1.251 . S
O580 C560 1.257 . S
O580 Eu561 2.473 . S
O581 C560 1.260 . S
O581 Eu561 2.480 . S
O582 Eu561 2.430 . S
O582 C568 1.259 . S
O583 Eu561 2.670 . S
O583 C568 1.270 . S
O583 Eu571 2.355 . S
O584 Eu561 2.394 . S
O584 C569 1.251 . S
O585 C569 1.251 . S
O585 Eu571 2.374 . S
O586 C570 1.257 . S
O586 Eu571 2.473 . S
O587 C570 1.260 . S
O587 Eu571 2.480 . S
O588 Eu571 2.430 . S
O588 C578 1.259 . S
O589 Eu561 2.355 . S
O589 Eu571 2.670 . S
O589 C578 1.270 . S
O590 Eu571 2.394 . S
O590 C579 1.251 . S
O591 Eu561 2.374 . S
O591 C579 1.251 . S
H592 C563 0.931 . S
H593 C564 0.931 1_554 S
H594 C566 0.940 . S
H595 C567 0.931 . S
H596 C573 0.931 . S
H597 C574 0.931 . S
H598 C576 0.931 . S
H599 C577 0.931 . S
C600 Eu601 2.835 . S
C600 C602 1.500 . S
C600 O620 1.257 . S
C600 O621 1.260 . S
Eu601 C600 2.835 . S
Eu601 O620 2.473 . S
Eu601 O621 2.480 . S
Eu601 O622 2.430 . S
Eu601 O623 2.670 . S
Eu601 O624 2.394 . S
Eu601 O629 2.355 . S
Eu601 O631 2.374 . S
C602 C600 1.500 . S
C602 C603 1.377 . S
C602 C607 1.377 . S
C603 C602 1.377 . S
C603 C604 1.395 . S
C603 H632 0.931 . S
C604 C603 1.395 . S
C604 C605 1.383 . S
C604 H633 0.931 . S
C605 C604 1.383 . S
C605 C606 1.394 . S
C606 C605 1.394 . S
C606 C607 1.378 . S
C606 H634 0.931 . S
C607 C602 1.377 . S
C607 C606 1.378 . S
C607 H635 0.931 . S
C608 O622 1.259 . S
C608 O623 1.270 . S
C609 O624 1.251 . S
C609 O625 1.251 . S
C610 Eu611 2.835 . S
C610 C612 1.500 . S
C610 O626 1.257 . S
C610 O627 1.260 . S
Eu611 C610 2.835 . S
Eu611 O623 2.355 . S
Eu611 O625 2.374 . S
Eu611 O626 2.473 . S
Eu611 O627 2.480 . S
Eu611 O628 2.430 . S
Eu611 O629 2.670 . S
Eu611 O630 2.394 . S
C612 C610 1.500 . S
C612 C613 1.377 . S
C612 C617 1.377 . S
C613 C612 1.377 . S
C613 C614 1.395 . S
C613 H636 0.931 . S
C614 C613 1.395 . S
C614 C615 1.383 1_554 S
C614 H637 0.931 1_554 S
C615 C614 1.383 1_556 S
C615 C616 1.394 1_556 S
C616 C615 1.394 1_554 S
C616 C617 1.378 . S
C616 H638 0.940 . S
C617 C612 1.377 . S
C617 C616 1.378 . S
C617 H639 0.931 . S
C618 O628 1.259 . S
C618 O629 1.270 . S
C619 O630 1.251 . S
C619 O631 1.251 . S
O620 C600 1.257 . S
O620 Eu601 2.473 . S
O621 C600 1.260 . S
O621 Eu601 2.480 . S
O622 Eu601 2.430 . S
O622 C608 1.259 . S
O623 Eu601 2.670 . S
O623 C608 1.270 . S
O623 Eu611 2.355 . S
O624 Eu601 2.394 . S
O624 C609 1.251 . S
O625 C609 1.251 . S
O625 Eu611 2.374 . S
O626 C610 1.257 . S
O626 Eu611 2.473 . S
O627 C610 1.260 . S
O627 Eu611 2.480 . S
O628 Eu611 2.430 . S
O628 C618 1.259 . S
O629 Eu601 2.355 . S
O629 Eu611 2.670 . S
O629 C618 1.270 . S
O630 Eu611 2.394 . S
O630 C619 1.251 . S
O631 Eu601 2.374 . S
O631 C619 1.251 . S
H632 C603 0.931 . S
H633 C604 0.931 . S
H634 C606 0.931 . S
H635 C607 0.931 . S
H636 C613 0.931 . S
H637 C614 0.931 1_556 S
H638 C616 0.940 . S
H639 C617 0.931 . S
C640 C641 1.363 . S
C640 C646 1.379 . S
C640 N648 1.356 . S
C641 C640 1.363 . S
C641 C647 1.363 . S
C642 C643 1.363 . S
C642 C647 1.379 . S
C642 N649 1.356 . S
C643 C642 1.363 . S
C643 C646 1.363 . S
N644 C646 1.356 1_545 S
N644 H656 0.984 . S
N644 H657 0.985 . S
N645 C647 1.356 . S
N645 H650 0.984 . S
N645 H651 0.985 . S
C646 C640 1.379 . S
C646 C643 1.363 . S
C646 N644 1.356 1_565 S
C647 C641 1.363 . S
C647 C642 1.379 . S
C647 N645 1.356 . S
N648 C640 1.356 . S
N648 H654 0.984 . S
N648 H655 0.984 . S
N649 C642 1.356 . S
N649 H652 0.984 1_565 S
N649 H653 0.985 . S
H650 N645 0.984 . S
H651 N645 0.985 . S
H652 N649 0.984 1_545 S
H653 N649 0.985 . S
H654 N648 0.984 . S
H655 N648 0.984 . S
H656 N644 0.984 . S
H657 N644 0.985 . S
C658 C659 1.363 . S
C658 C664 1.379 . S
C658 N666 1.356 . S
C659 C658 1.363 . S
C659 C665 1.363 . S
C660 C661 1.363 . S
C660 C665 1.379 . S
C660 N667 1.356 1_655 S
C661 C660 1.363 . S
C661 C664 1.363 . S
N662 C664 1.356 . S
N662 H674 0.984 . S
N662 H675 0.985 . S
N663 C665 1.356 . S
N663 H668 0.984 . S
N663 H669 0.985 . S
C664 C658 1.379 . S
C664 C661 1.363 . S
C664 N662 1.356 . S
C665 C659 1.363 . S
C665 C660 1.379 . S
C665 N663 1.356 . S
N666 C658 1.356 . S
N666 H672 0.984 . S
N666 H673 0.984 . S
N667 C660 1.356 1_455 S
N667 H670 0.984 . S
N667 H671 0.985 . S
H668 N663 0.984 . S
H669 N663 0.985 . S
H670 N667 0.984 . S
H671 N667 0.985 . S
H672 N666 0.984 . S
H673 N666 0.984 . S
H674 N662 0.984 . S
H675 N662 0.985 . S
C676 C677 1.363 . S
C676 C682 1.379 . S
C676 N684 1.356 . S
C677 C676 1.363 . S
C677 C683 1.363 . S
C678 C679 1.363 . S
C678 C683 1.379 . S
C678 N685 1.356 . S
C679 C678 1.363 . S
C679 C682 1.363 . S
N680 C682 1.356 . S
N680 H692 0.984 . S
N680 H693 0.985 . S
N681 C683 1.356 1_565 S
N681 H686 0.984 . S
N681 H687 0.985 . S
C682 C676 1.379 . S
C682 C679 1.363 . S
C682 N680 1.356 . S
C683 C677 1.363 . S
C683 C678 1.379 . S
C683 N681 1.356 1_545 S
N684 C676 1.356 . S
N684 H690 0.984 . S
N684 H691 0.984 . S
N685 C678 1.356 . S
N685 H688 0.984 . S
N685 H689 0.985 . S
H686 N681 0.984 . S
H687 N681 0.985 . S
H688 N685 0.984 . S
H689 N685 0.985 . S
H690 N684 0.984 . S
H691 N684 0.984 . S
H692 N680 0.984 . S
H693 N680 0.985 . S
C694 C695 1.363 . S
C694 C700 1.379 . S
C694 N702 1.356 . S
C695 C694 1.363 . S
C695 C701 1.363 . S
C696 C697 1.363 . S
C696 C701 1.379 . S
C696 N703 1.356 . S
C697 C696 1.363 . S
C697 C700 1.363 . S
N698 C700 1.356 . S
N698 H710 0.984 . S
N698 H711 0.985 . S
N699 C701 1.356 1_655 S
N699 H704 0.984 . S
N699 H705 0.985 . S
C700 C694 1.379 . S
C700 C697 1.363 . S
C700 N698 1.356 . S
C701 C695 1.363 . S
C701 C696 1.379 . S
C701 N699 1.356 1_455 S
N702 C694 1.356 . S
N702 H708 0.984 . S
N702 H709 0.984 . S
N703 C696 1.356 . S
N703 H706 0.984 . S
N703 H707 0.985 . S
H704 N699 0.984 . S
H705 N699 0.985 . S
H706 N703 0.984 . S
H707 N703 0.985 . S
H708 N702 0.984 . S
H709 N702 0.984 . S
H710 N698 0.984 . S
H711 N698 0.985 . S
C712 C713 1.363 . S
C712 C718 1.379 . S
C712 N720 1.356 . S
C713 C712 1.363 . S
C713 C719 1.363 . S
C714 C715 1.363 . S
C714 C719 1.379 . S
C714 N721 1.356 . S
C715 C714 1.363 . S
C715 C718 1.363 . S
N716 C718 1.356 1_556 S
N716 H728 0.984 . S
N716 H729 0.985 . S
N717 C719 1.356 . S
N717 H722 0.984 . S
N717 H723 0.985 . S
C718 C712 1.379 . S
C718 C715 1.363 . S
C718 N716 1.356 1_554 S
C719 C713 1.363 . S
C719 C714 1.379 . S
C719 N717 1.356 . S
N720 C712 1.356 . S
N720 H726 0.984 . S
N720 H727 0.984 . S
N721 C714 1.356 . S
N721 H724 0.984 . S
N721 H725 0.985 . S
H722 N717 0.984 . S
H723 N717 0.985 . S
H724 N721 0.984 . S
H725 N721 0.985 . S
H726 N720 0.984 . S
H727 N720 0.984 . S
H728 N716 0.984 . S
H729 N716 0.985 . S
C730 C731 1.363 . S
C730 C736 1.379 . S
C730 N738 1.356 1_556 S
C731 C730 1.363 . S
C731 C737 1.363 . S
C732 C733 1.363 . S
C732 C737 1.379 . S
C732 N739 1.356 . S
C733 C732 1.363 . S
C733 C736 1.363 . S
N734 C736 1.356 . S
N734 H746 0.984 . S
N734 H747 0.985 . S
N735 C737 1.356 1_554 S
N735 H740 0.984 . S
N735 H741 0.985 1_554 S
C736 C730 1.379 . S
C736 C733 1.363 . S
C736 N734 1.356 . S
C737 C731 1.363 . S
C737 C732 1.379 . S
C737 N735 1.356 1_556 S
N738 C730 1.356 1_554 S
N738 H744 0.985 1_554 S
N738 H745 0.984 . S
N739 C732 1.356 . S
N739 H742 0.984 . S
N739 H743 0.985 . S
H740 N735 0.984 . S
H741 N735 0.985 1_556 S
H742 N739 0.984 . S
H743 N739 0.985 . S
H744 N738 0.985 1_556 S
H745 N738 0.984 . S
H746 N734 0.984 . S
H747 N734 0.985 . S
C748 C749 1.363 . S
C748 C754 1.379 1_554 S
C748 N756 1.356 . S
C749 C748 1.363 . S
C749 C755 1.363 . S
C750 C751 1.363 . S
C750 C755 1.379 . S
C750 N757 1.356 . S
C751 C750 1.363 . S
C751 C754 1.363 1_554 S
N752 C754 1.356 . S
N752 H764 0.984 . S
N752 H765 0.985 . S
N753 C755 1.356 . S
N753 H758 0.984 . S
N753 H759 0.985 . S
C754 C748 1.379 1_556 S
C754 C751 1.363 1_556 S
C754 N752 1.356 . S
C755 C749 1.363 . S
C755 C750 1.379 . S
C755 N753 1.356 . S
N756 C748 1.356 . S
N756 H762 0.984 1_554 S
N756 H763 0.984 . S
N757 C750 1.356 . S
N757 H760 0.984 . S
N757 H761 0.985 . S
H758 N753 0.984 . S
H759 N753 0.985 . S
H760 N757 0.984 . S
H761 N757 0.985 . S
H762 N756 0.984 1_556 S
H763 N756 0.984 . S
H764 N752 0.984 . S
H765 N752 0.985 . S
C766 C767 1.363 1_554 S
C766 C772 1.379 1_554 S
C766 N774 1.356 . S
C767 C766 1.363 1_556 S
C767 C773 1.363 . S
C768 C769 1.363 . S
C768 C773 1.379 . S
C768 N775 1.356 . S
C769 C768 1.363 . S
C769 C772 1.363 . S
N770 C772 1.356 . S
N770 H782 0.984 1_556 S
N770 H783 0.985 . S
N771 C773 1.356 . S
N771 H776 0.984 . S
N771 H777 0.985 . S
C772 C766 1.379 1_556 S
C772 C769 1.363 . S
C772 N770 1.356 . S
C773 C767 1.363 . S
C773 C768 1.379 . S
C773 N771 1.356 . S
N774 C766 1.356 . S
N774 H780 0.984 . S
N774 H781 0.984 . S
N775 C768 1.356 . S
N775 H778 0.984 . S
N775 H779 0.985 . S
H776 N771 0.984 . S
H777 N771 0.985 . S
H778 N775 0.984 . S
H779 N775 0.985 . S
H780 N774 0.984 . S
H781 N774 0.984 . S
H782 N770 0.984 1_554 S
H783 N770 0.985 . S
C784 C785 1.363 . S
C784 C790 1.379 . S
C784 N792 1.356 . S
C785 C784 1.363 . S
C785 C791 1.363 . S
C786 C787 1.363 . S
C786 C791 1.379 . S
C786 N793 1.356 . S
C787 C786 1.363 . S
C787 C790 1.363 . S
N788 C790 1.356 . S
N788 H800 0.984 . S
N788 H801 0.985 . S
N789 C791 1.356 . S
N789 H794 0.984 . S
N789 H795 0.985 . S
C790 C784 1.379 . S
C790 C787 1.363 . S
C790 N788 1.356 . S
C791 C785 1.363 . S
C791 C786 1.379 . S
C791 N789 1.356 . S
N792 C784 1.356 . S
N792 H798 0.984 . S
N792 H799 0.984 . S
N793 C786 1.356 . S
N793 H796 0.984 . S
N793 H797 0.985 . S
H794 N789 0.984 . S
H795 N789 0.985 . S
H796 N793 0.984 . S
H797 N793 0.985 . S
H798 N792 0.984 . S
H799 N792 0.984 . S
H800 N788 0.984 . S
H801 N788 0.985 . S
C802 C803 1.363 . S
C802 C808 1.379 . S
C802 N810 1.356 . S
C803 C802 1.363 . S
C803 C809 1.363 . S
C804 C805 1.363 . S
C804 C809 1.379 . S
C804 N811 1.356 . S
C805 C804 1.363 . S
C805 C808 1.363 . S
N806 C808 1.356 . S
N806 H818 0.984 . S
N806 H819 0.985 . S
N807 C809 1.356 . S
N807 H812 0.984 . S
N807 H813 0.985 . S
C808 C802 1.379 . S
C808 C805 1.363 . S
C808 N806 1.356 . S
C809 C803 1.363 . S
C809 C804 1.379 . S
C809 N807 1.356 . S
N810 C802 1.356 . S
N810 H816 0.984 . S
N810 H817 0.984 . S
N811 C804 1.356 . S
N811 H814 0.984 . S
N811 H815 0.985 . S
H812 N807 0.984 . S
H813 N807 0.985 . S
H814 N811 0.984 . S
H815 N811 0.985 . S
H816 N810 0.984 . S
H817 N810 0.984 . S
H818 N806 0.984 . S
H819 N806 0.985 . S
C820 C821 1.363 . S
C820 C826 1.379 . S
C820 N828 1.356 . S
C821 C820 1.363 . S
C821 C827 1.363 . S
C822 C823 1.363 . S
C822 C827 1.379 . S
C822 N829 1.356 . S
C823 C822 1.363 . S
C823 C826 1.363 . S
N824 C826 1.356 . S
N824 H836 0.984 . S
N824 H837 0.985 . S
N825 C827 1.356 . S
N825 H830 0.984 . S
N825 H831 0.985 . S
C826 C820 1.379 . S
C826 C823 1.363 . S
C826 N824 1.356 . S
C827 C821 1.363 . S
C827 C822 1.379 . S
C827 N825 1.356 . S
N828 C820 1.356 . S
N828 H834 0.984 . S
N828 H835 0.984 . S
N829 C822 1.356 . S
N829 H832 0.984 . S
N829 H833 0.985 . S
H830 N825 0.984 . S
H831 N825 0.985 . S
H832 N829 0.984 . S
H833 N829 0.985 . S
H834 N828 0.984 . S
H835 N828 0.984 . S
H836 N824 0.984 . S
H837 N824 0.985 . S
C838 C839 1.363 . S
C838 C844 1.379 . S
C838 N846 1.356 . S
C839 C838 1.363 . S
C839 C845 1.363 . S
C840 C841 1.363 . S
C840 C845 1.379 . S
C840 N847 1.356 . S
C841 C840 1.363 . S
C841 C844 1.363 . S
N842 C844 1.356 . S
N842 H854 0.984 . S
N842 H855 0.985 . S
N843 C845 1.356 . S
N843 H848 0.984 . S
N843 H849 0.985 . S
C844 C838 1.379 . S
C844 C841 1.363 . S
C844 N842 1.356 . S
C845 C839 1.363 . S
C845 C840 1.379 . S
C845 N843 1.356 . S
N846 C838 1.356 . S
N846 H852 0.984 . S
N846 H853 0.984 . S
N847 C840 1.356 . S
N847 H850 0.984 . S
N847 H851 0.985 . S
H848 N843 0.984 . S
H849 N843 0.985 . S
H850 N847 0.984 . S
H851 N847 0.985 . S
H852 N846 0.984 . S
H853 N846 0.984 . S
H854 N842 0.984 . S
H855 N842 0.985 . S
C856 C857 1.363 . S
C856 C862 1.379 . S
C856 N864 1.356 1_545 S
C857 C856 1.363 . S
C857 C863 1.363 . S
C858 C859 1.363 . S
C858 C863 1.379 . S
C858 N865 1.356 . S
C859 C858 1.363 . S
C859 C862 1.363 . S
N860 C862 1.356 . S
N860 H872 0.984 . S
N860 H873 0.985 . S
N861 C863 1.356 . S
N861 H866 0.984 . S
N861 H867 0.985 . S
C862 C856 1.379 . S
C862 C859 1.363 . S
C862 N860 1.356 . S
C863 C857 1.363 . S
C863 C858 1.379 . S
C863 N861 1.356 . S
N864 C856 1.356 1_565 S
N864 H870 0.984 . S
N864 H871 0.984 . S
N865 C858 1.356 . S
N865 H868 0.984 . S
N865 H869 0.985 . S
H866 N861 0.984 . S
H867 N861 0.985 . S
H868 N865 0.984 . S
H869 N865 0.985 . S
H870 N864 0.984 . S
H871 N864 0.984 . S
H872 N860 0.984 . S
H873 N860 0.985 . S
C874 C875 1.363 . S
C874 C880 1.379 . S
C874 N882 1.356 . S
C875 C874 1.363 . S
C875 C881 1.363 . S
C876 C877 1.363 . S
C876 C881 1.379 . S
C876 N883 1.356 . S
C877 C876 1.363 . S
C877 C880 1.363 . S
N878 C880 1.356 1_655 S
N878 H890 0.984 . S
N878 H891 0.985 . S
N879 C881 1.356 . S
N879 H884 0.984 . S
N879 H885 0.985 . S
C880 C874 1.379 . S
C880 C877 1.363 . S
C880 N878 1.356 1_455 S
C881 C875 1.363 . S
C881 C876 1.379 . S
C881 N879 1.356 . S
N882 C874 1.356 . S
N882 H888 0.984 . S
N882 H889 0.984 . S
N883 C876 1.356 . S
N883 H886 0.992 . S
N883 H887 0.985 . S
H884 N879 0.984 . S
H885 N879 0.985 . S
H886 N883 0.992 . S
H887 N883 0.985 . S
H888 N882 0.984 . S
H889 N882 0.984 . S
H890 N878 0.984 . S
H891 N878 0.985 . S
C892 C893 1.363 . S
C892 C898 1.379 . S
C892 N900 1.356 . S
C893 C892 1.363 . S
C893 C899 1.363 . S
C894 C895 1.363 . S
C894 C899 1.379 . S
C894 N901 1.356 . S
C895 C894 1.363 . S
C895 C898 1.363 . S
N896 C898 1.356 1_545 S
N896 H908 0.984 . S
N896 H909 0.985 . S
N897 C899 1.356 . S
N897 H902 0.984 . S
N897 H903 0.985 . S
C898 C892 1.379 . S
C898 C895 1.363 . S
C898 N896 1.356 1_565 S
C899 C893 1.363 . S
C899 C894 1.379 . S
C899 N897 1.356 . S
N900 C892 1.356 . S
N900 H906 0.984 . S
N900 H907 0.984 . S
N901 C894 1.356 . S
N901 H904 0.984 . S
N901 H905 0.985 . S
H902 N897 0.984 . S
H903 N897 0.985 . S
H904 N901 0.984 . S
H905 N901 0.985 . S
H906 N900 0.984 . S
H907 N900 0.984 . S
H908 N896 0.984 . S
H909 N896 0.985 . S
C910 C911 1.363 . S
C910 C916 1.379 . S
C910 N918 1.356 1_655 S
C911 C910 1.363 . S
C911 C917 1.363 . S
C912 C913 1.363 . S
C912 C917 1.379 . S
C912 N919 1.356 . S
C913 C912 1.363 . S
C913 C916 1.363 . S
N914 C916 1.356 . S
N914 H926 0.984 . S
N914 H927 0.985 . S
N915 C917 1.356 . S
N915 H920 0.971 1_655 S
N915 H921 0.985 . S
C916 C910 1.379 . S
C916 C913 1.363 . S
C916 N914 1.356 . S
C917 C911 1.363 . S
C917 C912 1.379 . S
C917 N915 1.356 . S
N918 C910 1.356 1_455 S
N918 H924 0.984 . S
N918 H925 0.984 . S
N919 C912 1.356 . S
N919 H922 0.984 . S
N919 H923 0.985 . S
H920 N915 0.971 1_455 S
H921 N915 0.985 . S
H922 N919 0.984 . S
H923 N919 0.985 . S
H924 N918 0.984 . S
H925 N918 0.984 . S
H926 N914 0.984 . S
H927 N914 0.985 . S
C928 C929 1.363 . S
C928 C934 1.379 . S
C928 N936 1.356 . S
C929 C928 1.363 . S
C929 C935 1.363 . S
C930 C931 1.363 . S
C930 C935 1.379 . S
C930 N937 1.356 . S
C931 C930 1.363 . S
C931 C934 1.363 . S
N932 C934 1.356 . S
N932 H944 0.984 . S
N932 H945 0.985 . S
N933 C935 1.356 . S
N933 H938 0.984 . S
N933 H939 0.985 . S
C934 C928 1.379 . S
C934 C931 1.363 . S
C934 N932 1.356 . S
C935 C929 1.363 . S
C935 C930 1.379 . S
C935 N933 1.356 . S
N936 C928 1.356 . S
N936 H942 0.984 . S
N936 H943 0.984 . S
N937 C930 1.356 . S
N937 H940 0.984 . S
N937 H941 0.985 . S
H938 N933 0.984 . S
H939 N933 0.985 . S
H940 N937 0.984 . S
H941 N937 0.985 . S
H942 N936 0.984 . S
H943 N936 0.984 . S
H944 N932 0.984 . S
H945 N932 0.985 . S
C946 C947 1.363 . S
C946 C952 1.379 . S
C946 N954 1.356 . S
C947 C946 1.363 . S
C947 C953 1.363 . S
C948 C949 1.363 . S
C948 C953 1.379 . S
C948 N955 1.356 . S
C949 C948 1.363 . S
C949 C952 1.363 . S
N950 C952 1.356 . S
N950 H962 0.984 . S
N950 H963 0.985 . S
N951 C953 1.356 . S
N951 H956 0.984 . S
N951 H957 0.985 . S
C952 C946 1.379 . S
C952 C949 1.363 . S
C952 N950 1.356 . S
C953 C947 1.363 . S
C953 C948 1.379 . S
C953 N951 1.356 . S
N954 C946 1.356 . S
N954 H960 0.984 . S
N954 H961 0.984 . S
N955 C948 1.356 . S
N955 H958 0.984 . S
N955 H959 0.985 . S
H956 N951 0.984 . S
H957 N951 0.985 . S
H958 N955 0.984 . S
H959 N955 0.985 . S
H960 N954 0.984 . S
H961 N954 0.984 . S
H962 N950 0.984 . S
H963 N950 0.985 . S
C964 C965 1.363 . S
C964 C970 1.379 . S
C964 N972 1.356 . S
C965 C964 1.363 . S
C965 C971 1.363 . S
C966 C967 1.363 . S
C966 C971 1.379 . S
C966 N973 1.356 . S
C967 C966 1.363 . S
C967 C970 1.363 . S
N968 C970 1.356 . S
N968 H980 0.984 . S
N968 H981 0.985 . S
N969 C971 1.356 . S
N969 H974 0.984 . S
N969 H975 0.985 . S
C970 C964 1.379 . S
C970 C967 1.363 . S
C970 N968 1.356 . S
C971 C965 1.363 . S
C971 C966 1.379 . S
C971 N969 1.356 . S
N972 C964 1.356 . S
N972 H978 0.984 1_554 S
N972 H979 0.984 . S
N973 C966 1.356 . S
N973 H976 0.984 . S
N973 H977 0.985 . S
H974 N969 0.984 . S
H975 N969 0.985 . S
H976 N973 0.984 . S
H977 N973 0.985 . S
H978 N972 0.984 1_556 S
H979 N972 0.984 . S
H980 N968 0.984 . S
H981 N968 0.985 . S
C982 C983 1.363 . S
C982 C988 1.379 . S
C982 N990 1.356 . S
C983 C982 1.363 . S
C983 C989 1.363 . S
C984 C985 1.363 . S
C984 C989 1.379 . S
C984 N991 1.356 . S
C985 C984 1.363 . S
C985 C988 1.363 . S
N986 C988 1.356 . S
N986 H998 0.984 . S
N986 H999 0.985 . S
N987 C989 1.356 . S
N987 H992 0.984 . S
N987 H993 0.985 . S
C988 C982 1.379 . S
C988 C985 1.363 . S
C988 N986 1.356 . S
C989 C983 1.363 . S
C989 C984 1.379 . S
C989 N987 1.356 . S
N990 C982 1.356 . S
N990 H996 0.984 . S
N990 H997 0.984 . S
N991 C984 1.356 . S
N991 H994 0.984 . S
N991 H995 0.985 . S
H992 N987 0.984 . S
H993 N987 0.985 . S
H994 N991 0.984 . S
H995 N991 0.985 . S
H996 N990 0.984 . S
H997 N990 0.984 . S
H998 N986 0.984 . S
H999 N986 0.985 . S
C1000 C1001 1.363 . S
C1000 C1006 1.379 . S
C1000 N1008 1.356 . S
C1001 C1000 1.363 . S
C1001 C1007 1.363 . S
C1002 C1003 1.363 . S
C1002 C1007 1.379 . S
C1002 N1009 1.356 . S
C1003 C1002 1.363 . S
C1003 C1006 1.363 . S
N1004 C1006 1.356 . S
N1004 H1016 0.984 . S
N1004 H1017 0.985 . S
N1005 C1007 1.356 . S
N1005 H1010 0.984 . S
N1005 H1011 0.985 . S
C1006 C1000 1.379 . S
C1006 C1003 1.363 . S
C1006 N1004 1.356 . S
C1007 C1001 1.363 . S
C1007 C1002 1.379 . S
C1007 N1005 1.356 . S
N1008 C1000 1.356 . S
N1008 H1014 0.984 . S
N1008 H1015 0.984 . S
N1009 C1002 1.356 . S
N1009 H1012 0.984 . S
N1009 H1013 0.985 . S
H1010 N1005 0.984 . S
H1011 N1005 0.985 . S
H1012 N1009 0.984 . S
H1013 N1009 0.985 . S
H1014 N1008 0.984 . S
H1015 N1008 0.984 . S
H1016 N1004 0.984 . S
H1017 N1004 0.985 . S
C1018 C1019 1.363 . S
C1018 C1024 1.379 . S
C1018 N1026 1.356 . S
C1019 C1018 1.363 . S
C1019 C1025 1.363 . S
C1020 C1021 1.363 . S
C1020 C1025 1.379 . S
C1020 N1027 1.356 . S
C1021 C1020 1.363 . S
C1021 C1024 1.363 . S
N1022 C1024 1.356 . S
N1022 H1034 0.984 . S
N1022 H1035 0.985 . S
N1023 C1025 1.356 . S
N1023 H1028 0.984 . S
N1023 H1029 0.985 . S
C1024 C1018 1.379 . S
C1024 C1021 1.363 . S
C1024 N1022 1.356 . S
C1025 C1019 1.363 . S
C1025 C1020 1.379 . S
C1025 N1023 1.356 . S
N1026 C1018 1.356 . S
N1026 H1032 0.984 . S
N1026 H1033 0.984 . S
N1027 C1020 1.356 . S
N1027 H1030 0.984 . S
N1027 H1031 0.985 . S
H1028 N1023 0.984 . S
H1029 N1023 0.985 . S
H1030 N1027 0.984 . S
H1031 N1027 0.985 . S
H1032 N1026 0.984 . S
H1033 N1026 0.984 . S
H1034 N1022 0.984 . S
H1035 N1022 0.985 . S
C1036 C1037 1.363 . S
C1036 C1042 1.379 . S
C1036 N1044 1.356 . S
C1037 C1036 1.363 . S
C1037 C1043 1.363 . S
C1038 C1039 1.363 . S
C1038 C1043 1.379 . S
C1038 N1045 1.356 . S
C1039 C1038 1.363 . S
C1039 C1042 1.363 . S
N1040 C1042 1.356 . S
N1040 H1052 0.984 . S
N1040 H1053 0.985 . S
N1041 C1043 1.356 . S
N1041 H1046 0.984 . S
N1041 H1047 0.985 . S
C1042 C1036 1.379 . S
C1042 C1039 1.363 . S
C1042 N1040 1.356 . S
C1043 C1037 1.363 . S
C1043 C1038 1.379 . S
C1043 N1041 1.356 . S
N1044 C1036 1.356 . S
N1044 H1050 0.984 . S
N1044 H1051 0.984 . S
N1045 C1038 1.356 . S
N1045 H1048 0.984 . S
N1045 H1049 0.985 . S
H1046 N1041 0.984 . S
H1047 N1041 0.985 . S
H1048 N1045 0.984 . S
H1049 N1045 0.985 . S
H1050 N1044 0.984 . S
H1051 N1044 0.984 . S
H1052 N1040 0.984 . S
H1053 N1040 0.985 . S
C1054 C1055 1.363 . S
C1054 C1060 1.379 . S
C1054 N1062 1.356 . S
C1055 C1054 1.363 . S
C1055 C1061 1.363 . S
C1056 C1057 1.363 . S
C1056 C1061 1.379 . S
C1056 N1063 1.356 . S
C1057 C1056 1.363 . S
C1057 C1060 1.363 . S
N1058 C1060 1.356 . S
N1058 H1070 0.984 . S
N1058 H1071 0.985 . S
N1059 C1061 1.356 . S
N1059 H1064 0.984 . S
N1059 H1065 0.985 . S
C1060 C1054 1.379 . S
C1060 C1057 1.363 . S
C1060 N1058 1.356 . S
C1061 C1055 1.363 . S
C1061 C1056 1.379 . S
C1061 N1059 1.356 . S
N1062 C1054 1.356 . S
N1062 H1068 0.984 . S
N1062 H1069 0.984 . S
N1063 C1056 1.356 . S
N1063 H1066 0.984 . S
N1063 H1067 0.985 . S
H1064 N1059 0.984 . S
H1065 N1059 0.985 . S
H1066 N1063 0.984 . S
H1067 N1063 0.985 . S
H1068 N1062 0.984 . S
H1069 N1062 0.984 . S
H1070 N1058 0.984 . S
H1071 N1058 0.985 . S
C1072 C1073 1.363 . S
C1072 C1078 1.379 . S
C1072 N1080 1.356 . S
C1073 C1072 1.363 . S
C1073 C1079 1.363 . S
C1074 C1075 1.363 . S
C1074 C1079 1.379 . S
C1074 N1081 1.356 . S
C1075 C1074 1.363 . S
C1075 C1078 1.363 . S
N1076 C1078 1.356 . S
N1076 H1088 0.984 . S
N1076 H1089 0.985 . S
N1077 C1079 1.356 . S
N1077 H1082 0.984 . S
N1077 H1083 0.985 . S
C1078 C1072 1.379 . S
C1078 C1075 1.363 . S
C1078 N1076 1.356 . S
C1079 C1073 1.363 . S
C1079 C1074 1.379 . S
C1079 N1077 1.356 . S
N1080 C1072 1.356 . S
N1080 H1086 0.984 . S
N1080 H1087 0.984 . S
N1081 C1074 1.356 . S
N1081 H1084 0.984 . S
N1081 H1085 0.985 . S
H1082 N1077 0.984 . S
H1083 N1077 0.985 . S
H1084 N1081 0.984 . S
H1085 N1081 0.985 . S
H1086 N1080 0.984 . S
H1087 N1080 0.984 . S
H1088 N1076 0.984 . S
H1089 N1076 0.985 . S
C1090 C1091 1.363 . S
C1090 C1096 1.379 . S
C1090 N1098 1.356 . S
C1091 C1090 1.363 . S
C1091 C1097 1.363 . S
C1092 C1093 1.363 . S
C1092 C1097 1.379 . S
C1092 N1099 1.356 . S
C1093 C1092 1.363 . S
C1093 C1096 1.363 . S
N1094 C1096 1.356 . S
N1094 H1106 0.984 . S
N1094 H1107 0.985 . S
N1095 C1097 1.356 . S
N1095 H1100 0.984 . S
N1095 H1101 0.985 . S
C1096 C1090 1.379 . S
C1096 C1093 1.363 . S
C1096 N1094 1.356 . S
C1097 C1091 1.363 . S
C1097 C1092 1.379 . S
C1097 N1095 1.356 . S
N1098 C1090 1.356 . S
N1098 H1104 0.984 . S
N1098 H1105 0.984 . S
N1099 C1092 1.356 . S
N1099 H1102 0.984 . S
N1099 H1103 0.985 . S
H1100 N1095 0.984 . S
H1101 N1095 0.985 . S
H1102 N1099 0.984 . S
H1103 N1099 0.985 . S
H1104 N1098 0.984 . S
H1105 N1098 0.984 . S
H1106 N1094 0.984 . S
H1107 N1094 0.985 . S
C1108 C1109 1.363 . S
C1108 C1114 1.379 . S
C1108 N1116 1.356 . S
C1109 C1108 1.363 . S
C1109 C1115 1.363 . S
C1110 C1111 1.363 . S
C1110 C1115 1.379 . S
C1110 N1117 1.356 . S
C1111 C1110 1.363 . S
C1111 C1114 1.363 . S
N1112 C1114 1.356 . S
N1112 H1124 0.984 . S
N1112 H1125 0.985 . S
N1113 C1115 1.356 . S
N1113 H1118 0.984 . S
N1113 H1119 0.985 . S
C1114 C1108 1.379 . S
C1114 C1111 1.363 . S
C1114 N1112 1.356 . S
C1115 C1109 1.363 . S
C1115 C1110 1.379 . S
C1115 N1113 1.356 . S
N1116 C1108 1.356 . S
N1116 H1122 0.984 . S
N1116 H1123 0.984 . S
N1117 C1110 1.356 . S
N1117 H1120 0.984 . S
N1117 H1121 0.985 . S
H1118 N1113 0.984 . S
H1119 N1113 0.985 . S
H1120 N1117 0.984 . S
H1121 N1117 0.985 . S
H1122 N1116 0.984 . S
H1123 N1116 0.984 . S
H1124 N1112 0.984 . S
H1125 N1112 0.985 . S
C1126 C1127 1.363 . S
C1126 C1132 1.379 . S
C1126 N1134 1.356 . S
C1127 C1126 1.363 . S
C1127 C1133 1.363 . S
C1128 C1129 1.363 . S
C1128 C1133 1.379 . S
C1128 N1135 1.356 . S
C1129 C1128 1.363 . S
C1129 C1132 1.363 . S
N1130 C1132 1.356 . S
N1130 H1142 0.984 . S
N1130 H1143 0.985 . S
N1131 C1133 1.356 . S
N1131 H1136 0.984 . S
N1131 H1137 0.985 . S
C1132 C1126 1.379 . S
C1132 C1129 1.363 . S
C1132 N1130 1.356 . S
C1133 C1127 1.363 . S
C1133 C1128 1.379 . S
C1133 N1131 1.356 . S
N1134 C1126 1.356 . S
N1134 H1140 0.984 . S
N1134 H1141 0.984 . S
N1135 C1128 1.356 . S
N1135 H1138 0.984 . S
N1135 H1139 0.985 . S
H1136 N1131 0.984 . S
H1137 N1131 0.985 . S
H1138 N1135 0.984 . S
H1139 N1135 0.985 . S
H1140 N1134 0.984 . S
H1141 N1134 0.984 . S
H1142 N1130 0.984 . S
H1143 N1130 0.985 . S
C1144 C1145 1.363 . S
C1144 C1150 1.379 . S
C1144 N1152 1.356 . S
C1145 C1144 1.363 . S
C1145 C1151 1.363 . S
C1146 C1147 1.363 . S
C1146 C1151 1.379 . S
C1146 N1153 1.356 . S
C1147 C1146 1.363 . S
C1147 C1150 1.363 . S
N1148 C1150 1.356 . S
N1148 H1160 0.984 . S
N1148 H1161 0.985 . S
N1149 C1151 1.356 . S
N1149 H1154 0.984 . S
N1149 H1155 0.985 . S
C1150 C1144 1.379 . S
C1150 C1147 1.363 . S
C1150 N1148 1.356 . S
C1151 C1145 1.363 . S
C1151 C1146 1.379 . S
C1151 N1149 1.356 . S
N1152 C1144 1.356 . S
N1152 H1158 0.984 . S
N1152 H1159 0.984 . S
N1153 C1146 1.356 . S
N1153 H1156 0.984 . S
N1153 H1157 0.985 . S
H1154 N1149 0.984 . S
H1155 N1149 0.985 . S
H1156 N1153 0.984 . S
H1157 N1153 0.985 . S
H1158 N1152 0.984 . S
H1159 N1152 0.984 . S
H1160 N1148 0.984 . S
H1161 N1148 0.985 . S
C1162 C1163 1.363 . S
C1162 C1168 1.379 . S
C1162 N1170 1.356 . S
C1163 C1162 1.363 . S
C1163 C1169 1.363 . S
C1164 C1165 1.363 . S
C1164 C1169 1.379 . S
C1164 N1171 1.356 . S
C1165 C1164 1.363 . S
C1165 C1168 1.363 . S
N1166 C1168 1.356 . S
N1166 H1178 0.984 . S
N1166 H1179 0.985 . S
N1167 C1169 1.356 . S
N1167 H1172 0.984 . S
N1167 H1173 0.985 . S
C1168 C1162 1.379 . S
C1168 C1165 1.363 . S
C1168 N1166 1.356 . S
C1169 C1163 1.363 . S
C1169 C1164 1.379 . S
C1169 N1167 1.356 . S
N1170 C1162 1.356 . S
N1170 H1176 0.984 . S
N1170 H1177 0.984 . S
N1171 C1164 1.356 . S
N1171 H1174 0.984 . S
N1171 H1175 0.985 . S
H1172 N1167 0.984 . S
H1173 N1167 0.985 . S
H1174 N1171 0.984 . S
H1175 N1171 0.985 . S
H1176 N1170 0.984 . S
H1177 N1170 0.984 . S
H1178 N1166 0.984 . S
H1179 N1166 0.985 . S
C1180 C1181 1.363 . S
C1180 C1186 1.379 . S
C1180 N1188 1.356 . S
C1181 C1180 1.363 . S
C1181 C1187 1.363 . S
C1182 C1183 1.363 . S
C1182 C1187 1.379 . S
C1182 N1189 1.356 . S
C1183 C1182 1.363 . S
C1183 C1186 1.363 . S
N1184 C1186 1.356 . S
N1184 H1196 0.984 . S
N1184 H1197 0.985 . S
N1185 C1187 1.356 . S
N1185 H1190 0.984 . S
N1185 H1191 0.985 . S
C1186 C1180 1.379 . S
C1186 C1183 1.363 . S
C1186 N1184 1.356 . S
C1187 C1181 1.363 . S
C1187 C1182 1.379 . S
C1187 N1185 1.356 . S
N1188 C1180 1.356 . S
N1188 H1194 0.984 . S
N1188 H1195 0.984 . S
N1189 C1182 1.356 . S
N1189 H1192 0.984 . S
N1189 H1193 0.985 . S
H1190 N1185 0.984 . S
H1191 N1185 0.985 . S
H1192 N1189 0.984 . S
H1193 N1189 0.985 . S
H1194 N1188 0.984 . S
H1195 N1188 0.984 . S
H1196 N1184 0.984 . S
H1197 N1184 0.985 . S
C1198 C1199 1.363 . S
C1198 C1204 1.379 . S
C1198 N1206 1.356 . S
C1199 C1198 1.363 . S
C1199 C1205 1.363 . S
C1200 C1201 1.363 . S
C1200 C1205 1.379 . S
C1200 N1207 1.356 . S
C1201 C1200 1.363 . S
C1201 C1204 1.363 . S
N1202 C1204 1.356 . S
N1202 H1214 0.984 . S
N1202 H1215 0.985 . S
N1203 C1205 1.356 . S
N1203 H1208 0.984 . S
N1203 H1209 0.985 . S
C1204 C1198 1.379 . S
C1204 C1201 1.363 . S
C1204 N1202 1.356 . S
C1205 C1199 1.363 . S
C1205 C1200 1.379 . S
C1205 N1203 1.356 . S
N1206 C1198 1.356 . S
N1206 H1212 0.984 . S
N1206 H1213 0.984 . S
N1207 C1200 1.356 . S
N1207 H1210 0.984 . S
N1207 H1211 0.985 . S
H1208 N1203 0.984 . S
H1209 N1203 0.985 . S
H1210 N1207 0.984 . S
H1211 N1207 0.985 . S
H1212 N1206 0.984 . S
H1213 N1206 0.984 . S
H1214 N1202 0.984 . S
H1215 N1202 0.985 . S
C1216 C1217 1.363 . S
C1216 C1222 1.379 . S
C1216 N1224 1.356 . S
C1217 C1216 1.363 . S
C1217 C1223 1.363 . S
C1218 C1219 1.363 . S
C1218 C1223 1.379 . S
C1218 N1225 1.356 . S
C1219 C1218 1.363 . S
C1219 C1222 1.363 . S
N1220 C1222 1.356 . S
N1220 H1232 0.984 . S
N1220 H1233 0.985 . S
N1221 C1223 1.356 . S
N1221 H1226 0.984 . S
N1221 H1227 0.985 . S
C1222 C1216 1.379 . S
C1222 C1219 1.363 . S
C1222 N1220 1.356 . S
C1223 C1217 1.363 . S
C1223 C1218 1.379 . S
C1223 N1221 1.356 . S
N1224 C1216 1.356 . S
N1224 H1230 0.984 . S
N1224 H1231 0.984 . S
N1225 C1218 1.356 . S
N1225 H1228 0.984 . S
N1225 H1229 0.985 . S
H1226 N1221 0.984 . S
H1227 N1221 0.985 . S
H1228 N1225 0.984 . S
H1229 N1225 0.985 . S
H1230 N1224 0.984 . S
H1231 N1224 0.984 . S
H1232 N1220 0.984 . S
H1233 N1220 0.985 . S
C1234 C1235 1.363 . S
C1234 C1240 1.379 . S
C1234 N1242 1.356 . S
C1235 C1234 1.363 . S
C1235 C1241 1.363 . S
C1236 C1237 1.363 . S
C1236 C1241 1.379 . S
C1236 N1243 1.356 . S
C1237 C1236 1.363 . S
C1237 C1240 1.363 . S
N1238 C1240 1.356 . S
N1238 H1250 0.984 . S
N1238 H1251 0.985 . S
N1239 C1241 1.356 . S
N1239 H1244 0.984 . S
N1239 H1245 0.985 . S
C1240 C1234 1.379 . S
C1240 C1237 1.363 . S
C1240 N1238 1.356 . S
C1241 C1235 1.363 . S
C1241 C1236 1.379 . S
C1241 N1239 1.356 . S
N1242 C1234 1.356 . S
N1242 H1248 0.984 . S
N1242 H1249 0.984 . S
N1243 C1236 1.356 . S
N1243 H1246 0.984 . S
N1243 H1247 0.985 . S
H1244 N1239 0.984 . S
H1245 N1239 0.985 . S
H1246 N1243 0.984 . S
H1247 N1243 0.985 . S
H1248 N1242 0.984 . S
H1249 N1242 0.984 . S
H1250 N1238 0.984 . S
H1251 N1238 0.985 . S
C1252 C1253 1.363 . S
C1252 C1258 1.379 . S
C1252 N1260 1.356 . S
C1253 C1252 1.363 . S
C1253 C1259 1.363 . S
C1254 C1255 1.363 . S
C1254 C1259 1.379 . S
C1254 N1261 1.356 . S
C1255 C1254 1.363 . S
C1255 C1258 1.363 . S
N1256 C1258 1.356 . S
N1256 H1268 0.984 . S
N1256 H1269 0.985 . S
N1257 C1259 1.356 . S
N1257 H1262 0.984 . S
N1257 H1263 0.985 . S
C1258 C1252 1.379 . S
C1258 C1255 1.363 . S
C1258 N1256 1.356 . S
C1259 C1253 1.363 . S
C1259 C1254 1.379 . S
C1259 N1257 1.356 . S
N1260 C1252 1.356 . S
N1260 H1266 0.984 . S
N1260 H1267 0.984 . S
N1261 C1254 1.356 . S
N1261 H1264 0.984 . S
N1261 H1265 0.985 . S
H1262 N1257 0.984 . S
H1263 N1257 0.985 . S
H1264 N1261 0.984 . S
H1265 N1261 0.985 . S
H1266 N1260 0.984 . S
H1267 N1260 0.984 . S
H1268 N1256 0.984 . S
H1269 N1256 0.985 . S
C1270 C1271 1.363 . S
C1270 C1276 1.379 . S
C1270 N1278 1.356 . S
C1271 C1270 1.363 . S
C1271 C1277 1.363 . S
C1272 C1273 1.363 . S
C1272 C1277 1.379 . S
C1272 N1279 1.356 . S
C1273 C1272 1.363 . S
C1273 C1276 1.363 . S
N1274 C1276 1.356 . S
N1274 H1286 0.984 . S
N1274 H1287 0.985 . S
N1275 C1277 1.356 . S
N1275 H1280 0.984 . S
N1275 H1281 0.985 . S
C1276 C1270 1.379 . S
C1276 C1273 1.363 . S
C1276 N1274 1.356 . S
C1277 C1271 1.363 . S
C1277 C1272 1.379 . S
C1277 N1275 1.356 . S
N1278 C1270 1.356 . S
N1278 H1284 0.984 . S
N1278 H1285 0.984 . S
N1279 C1272 1.356 . S
N1279 H1282 0.984 . S
N1279 H1283 0.985 . S
H1280 N1275 0.984 . S
H1281 N1275 0.985 . S
H1282 N1279 0.984 . S
H1283 N1279 0.985 . S
H1284 N1278 0.984 . S
H1285 N1278 0.984 . S
H1286 N1274 0.984 . S
H1287 N1274 0.985 . S
C1288 C1289 1.363 . S
C1288 C1294 1.379 . S
C1288 N1296 1.356 . S
C1289 C1288 1.363 . S
C1289 C1295 1.363 . S
C1290 C1291 1.363 . S
C1290 C1295 1.379 . S
C1290 N1297 1.356 . S
C1291 C1290 1.363 . S
C1291 C1294 1.363 . S
N1292 C1294 1.356 . S
N1292 H1304 0.984 . S
N1292 H1305 0.985 . S
N1293 C1295 1.356 . S
N1293 H1298 0.984 . S
N1293 H1299 0.985 . S
C1294 C1288 1.379 . S
C1294 C1291 1.363 . S
C1294 N1292 1.356 . S
C1295 C1289 1.363 . S
C1295 C1290 1.379 . S
C1295 N1293 1.356 . S
N1296 C1288 1.356 . S
N1296 H1302 0.984 . S
N1296 H1303 0.984 . S
N1297 C1290 1.356 . S
N1297 H1300 0.984 . S
N1297 H1301 0.985 . S
H1298 N1293 0.984 . S
H1299 N1293 0.985 . S
H1300 N1297 0.984 . S
H1301 N1297 0.985 . S
H1302 N1296 0.984 . S
H1303 N1296 0.984 . S
H1304 N1292 0.984 . S
H1305 N1292 0.985 . S
C1306 C1307 1.363 . S
C1306 C1312 1.379 . S
C1306 N1314 1.356 . S
C1307 C1306 1.363 . S
C1307 C1313 1.363 . S
C1308 C1309 1.363 . S
C1308 C1313 1.379 . S
C1308 N1315 1.356 . S
C1309 C1308 1.363 . S
C1309 C1312 1.363 . S
N1310 C1312 1.356 . S
N1310 H1322 0.984 . S
N1310 H1323 0.985 . S
N1311 C1313 1.356 . S
N1311 H1316 0.984 . S
N1311 H1317 0.985 . S
C1312 C1306 1.379 . S
C1312 C1309 1.363 . S
C1312 N1310 1.356 . S
C1313 C1307 1.363 . S
C1313 C1308 1.379 . S
C1313 N1311 1.356 . S
N1314 C1306 1.356 . S
N1314 H1320 0.984 . S
N1314 H1321 0.984 . S
N1315 C1308 1.356 . S
N1315 H1318 0.984 . S
N1315 H1319 0.985 . S
H1316 N1311 0.984 . S
H1317 N1311 0.985 . S
H1318 N1315 0.984 . S
H1319 N1315 0.985 . S
H1320 N1314 0.984 . S
H1321 N1314 0.984 . S
H1322 N1310 0.984 . S
H1323 N1310 0.985 . S
C1324 C1325 1.363 . S
C1324 C1330 1.379 . S
C1324 N1332 1.356 . S
C1325 C1324 1.363 . S
C1325 C1331 1.363 . S
C1326 C1327 1.363 . S
C1326 C1331 1.379 . S
C1326 N1333 1.356 . S
C1327 C1326 1.363 . S
C1327 C1330 1.363 . S
N1328 C1330 1.356 . S
N1328 H1340 0.984 . S
N1328 H1341 0.985 . S
N1329 C1331 1.356 . S
N1329 H1334 0.984 . S
N1329 H1335 0.985 . S
C1330 C1324 1.379 . S
C1330 C1327 1.363 . S
C1330 N1328 1.356 . S
C1331 C1325 1.363 . S
C1331 C1326 1.379 . S
C1331 N1329 1.356 . S
N1332 C1324 1.356 . S
N1332 H1338 0.984 . S
N1332 H1339 0.984 . S
N1333 C1326 1.356 . S
N1333 H1336 0.984 . S
N1333 H1337 0.985 . S
H1334 N1329 0.984 . S
H1335 N1329 0.985 . S
H1336 N1333 0.984 . S
H1337 N1333 0.985 . S
H1338 N1332 0.984 . S
H1339 N1332 0.984 . S
H1340 N1328 0.984 . S
H1341 N1328 0.985 . S
C1342 C1343 1.363 . S
C1342 C1348 1.379 . S
C1342 N1350 1.356 . S
C1343 C1342 1.363 . S
C1343 C1349 1.363 . S
C1344 C1345 1.363 . S
C1344 C1349 1.379 . S
C1344 N1351 1.356 . S
C1345 C1344 1.363 . S
C1345 C1348 1.363 . S
N1346 C1348 1.356 . S
N1346 H1358 0.984 . S
N1346 H1359 0.985 . S
N1347 C1349 1.356 . S
N1347 H1352 0.984 . S
N1347 H1353 0.985 . S
C1348 C1342 1.379 . S
C1348 C1345 1.363 . S
C1348 N1346 1.356 . S
C1349 C1343 1.363 . S
C1349 C1344 1.379 . S
C1349 N1347 1.356 . S
N1350 C1342 1.356 . S
N1350 H1356 0.984 . S
N1350 H1357 0.984 . S
N1351 C1344 1.356 . S
N1351 H1354 0.984 . S
N1351 H1355 0.985 . S
H1352 N1347 0.984 . S
H1353 N1347 0.985 . S
H1354 N1351 0.984 . S
H1355 N1351 0.985 . S
H1356 N1350 0.984 . S
H1357 N1350 0.984 . S
H1358 N1346 0.984 . S
H1359 N1346 0.985 . S
C1360 C1361 1.363 . S
C1360 C1366 1.379 . S
C1360 N1368 1.356 . S
C1361 C1360 1.363 . S
C1361 C1367 1.363 . S
C1362 C1363 1.363 . S
C1362 C1367 1.379 . S
C1362 N1369 1.356 . S
C1363 C1362 1.363 . S
C1363 C1366 1.363 . S
N1364 C1366 1.356 . S
N1364 H1376 0.984 . S
N1364 H1377 0.985 . S
N1365 C1367 1.356 . S
N1365 H1370 0.984 . S
N1365 H1371 0.985 . S
C1366 C1360 1.379 . S
C1366 C1363 1.363 . S
C1366 N1364 1.356 . S
C1367 C1361 1.363 . S
C1367 C1362 1.379 . S
C1367 N1365 1.356 . S
N1368 C1360 1.356 . S
N1368 H1374 0.984 . S
N1368 H1375 0.984 . S
N1369 C1362 1.356 . S
N1369 H1372 0.984 . S
N1369 H1373 0.985 . S
H1370 N1365 0.984 . S
H1371 N1365 0.985 . S
H1372 N1369 0.984 . S
H1373 N1369 0.985 . S
H1374 N1368 0.984 . S
H1375 N1368 0.984 . S
H1376 N1364 0.984 . S
H1377 N1364 0.985 . S
C1378 C1379 1.363 . S
C1378 C1384 1.379 . S
C1378 N1386 1.356 . S
C1379 C1378 1.363 . S
C1379 C1385 1.363 . S
C1380 C1381 1.363 . S
C1380 C1385 1.379 . S
C1380 N1387 1.356 . S
C1381 C1380 1.363 . S
C1381 C1384 1.363 . S
N1382 C1384 1.356 . S
N1382 H1394 0.990 . S
N1382 H1395 0.985 1_556 S
N1383 C1385 1.356 . S
N1383 H1388 0.984 . S
N1383 H1389 0.985 . S
C1384 C1378 1.379 . S
C1384 C1381 1.363 . S
C1384 N1382 1.356 . S
C1385 C1379 1.363 . S
C1385 C1380 1.379 . S
C1385 N1383 1.356 . S
N1386 C1378 1.356 . S
N1386 H1392 0.984 . S
N1386 H1393 0.984 . S
N1387 C1380 1.356 . S
N1387 H1390 0.984 . S
N1387 H1391 0.985 . S
H1388 N1383 0.984 . S
H1389 N1383 0.985 . S
H1390 N1387 0.984 . S
H1391 N1387 0.985 . S
H1392 N1386 0.984 . S
H1393 N1386 0.984 . S
H1394 N1382 0.990 . S
H1395 N1382 0.985 1_554 S
C1396 C1397 1.363 . S
C1396 C1402 1.379 . S
C1396 N1404 1.356 . S
C1397 C1396 1.363 . S
C1397 C1403 1.363 . S
C1398 C1399 1.363 . S
C1398 C1403 1.379 . S
C1398 N1405 1.356 . S
C1399 C1398 1.363 . S
C1399 C1402 1.363 . S
N1400 C1402 1.356 . S
N1400 H1412 0.984 . S
N1400 H1413 0.985 1_554 S
N1401 C1403 1.356 . S
N1401 H1406 0.984 . S
N1401 H1407 0.985 . S
C1402 C1396 1.379 . S
C1402 C1399 1.363 . S
C1402 N1400 1.356 . S
C1403 C1397 1.363 . S
C1403 C1398 1.379 . S
C1403 N1401 1.356 . S
N1404 C1396 1.356 . S
N1404 H1410 0.984 . S
N1404 H1411 0.984 . S
N1405 C1398 1.356 . S
N1405 H1408 0.984 . S
N1405 H1409 0.985 . S
H1406 N1401 0.984 . S
H1407 N1401 0.985 . S
H1408 N1405 0.984 . S
H1409 N1405 0.985 . S
H1410 N1404 0.984 . S
H1411 N1404 0.984 . S
H1412 N1400 0.984 . S
H1413 N1400 0.985 1_556 S
C1414 C1415 1.363 . S
C1414 C1420 1.379 . S
C1414 N1422 1.356 . S
C1415 C1414 1.363 . S
C1415 C1421 1.363 . S
C1416 C1417 1.363 . S
C1416 C1421 1.379 . S
C1416 N1423 1.356 . S
C1417 C1416 1.363 . S
C1417 C1420 1.363 . S
N1418 C1420 1.356 . S
N1418 H1430 0.984 . S
N1418 H1431 0.985 . S
N1419 C1421 1.356 . S
N1419 H1424 0.984 . S
N1419 H1425 0.985 . S
C1420 C1414 1.379 . S
C1420 C1417 1.363 . S
C1420 N1418 1.356 . S
C1421 C1415 1.363 . S
C1421 C1416 1.379 . S
C1421 N1419 1.356 . S
N1422 C1414 1.356 . S
N1422 H1428 0.984 . S
N1422 H1429 0.984 . S
N1423 C1416 1.356 . S
N1423 H1426 0.984 . S
N1423 H1427 0.985 . S
H1424 N1419 0.984 . S
H1425 N1419 0.985 . S
H1426 N1423 0.984 . S
H1427 N1423 0.985 . S
H1428 N1422 0.984 . S
H1429 N1422 0.984 . S
H1430 N1418 0.984 . S
H1431 N1418 0.985 . S
C1432 C1433 1.363 . S
C1432 C1438 1.379 . S
C1432 N1440 1.356 . S
C1433 C1432 1.363 . S
C1433 C1439 1.363 . S
C1434 C1435 1.363 . S
C1434 C1439 1.379 . S
C1434 N1441 1.356 . S
C1435 C1434 1.363 . S
C1435 C1438 1.363 . S
N1436 C1438 1.356 . S
N1436 H1448 0.984 . S
N1436 H1449 0.985 . S
N1437 C1439 1.356 . S
N1437 H1442 0.984 . S
N1437 H1443 0.985 . S
C1438 C1432 1.379 . S
C1438 C1435 1.363 . S
C1438 N1436 1.356 . S
C1439 C1433 1.363 . S
C1439 C1434 1.379 . S
C1439 N1437 1.356 . S
N1440 C1432 1.356 . S
N1440 H1446 0.984 . S
N1440 H1447 0.984 . S
N1441 C1434 1.356 . S
N1441 H1444 0.984 . S
N1441 H1445 0.985 . S
H1442 N1437 0.984 . S
H1443 N1437 0.985 . S
H1444 N1441 0.984 . S
H1445 N1441 0.985 . S
H1446 N1440 0.984 . S
H1447 N1440 0.984 . S
H1448 N1436 0.984 . S
H1449 N1436 0.985 . S
C1450 C1451 1.363 . S
C1450 C1456 1.379 . S
C1450 N1458 1.356 . S
C1451 C1450 1.363 . S
C1451 C1457 1.363 . S
C1452 C1453 1.363 . S
C1452 C1457 1.379 . S
C1452 N1459 1.356 . S
C1453 C1452 1.363 . S
C1453 C1456 1.363 . S
N1454 C1456 1.356 . S
N1454 H1466 0.984 . S
N1454 H1467 0.985 . S
N1455 C1457 1.356 . S
N1455 H1460 0.984 1_556 S
N1455 H1461 0.985 . S
C1456 C1450 1.379 . S
C1456 C1453 1.363 . S
C1456 N1454 1.356 . S
C1457 C1451 1.363 . S
C1457 C1452 1.379 . S
C1457 N1455 1.356 . S
N1458 C1450 1.356 . S
N1458 H1464 0.984 . S
N1458 H1465 0.984 . S
N1459 C1452 1.356 . S
N1459 H1462 0.984 . S
N1459 H1463 0.985 . S
H1460 N1455 0.984 1_554 S
H1461 N1455 0.985 . S
H1462 N1459 0.984 . S
H1463 N1459 0.985 . S
H1464 N1458 0.984 . S
H1465 N1458 0.984 . S
H1466 N1454 0.984 . S
H1467 N1454 0.985 . S
C1468 C1469 1.363 . S
C1468 C1474 1.379 . S
C1468 N1476 1.356 . S
C1469 C1468 1.363 . S
C1469 C1475 1.363 . S
C1470 C1471 1.363 . S
C1470 C1475 1.379 . S
C1470 N1477 1.356 . S
C1471 C1470 1.363 . S
C1471 C1474 1.363 . S
N1472 C1474 1.356 . S
N1472 H1484 0.984 . S
N1472 H1485 0.985 . S
N1473 C1475 1.356 . S
N1473 H1478 0.984 . S
N1473 H1479 0.985 . S
C1474 C1468 1.379 . S
C1474 C1471 1.363 . S
C1474 N1472 1.356 . S
C1475 C1469 1.363 . S
C1475 C1470 1.379 . S
C1475 N1473 1.356 . S
N1476 C1468 1.356 . S
N1476 H1482 0.984 . S
N1476 H1483 0.984 1_554 S
N1477 C1470 1.356 . S
N1477 H1480 0.984 . S
N1477 H1481 0.985 . S
H1478 N1473 0.984 . S
H1479 N1473 0.985 . S
H1480 N1477 0.984 . S
H1481 N1477 0.985 . S
H1482 N1476 0.984 . S
H1483 N1476 0.984 1_556 S
H1484 N1472 0.984 . S
H1485 N1472 0.985 . S
C1486 C1487 1.363 . S
C1486 C1492 1.379 . S
C1486 N1494 1.356 . S
C1487 C1486 1.363 . S
C1487 C1493 1.363 . S
C1488 C1489 1.363 . S
C1488 C1493 1.379 . S
C1488 N1495 1.356 . S
C1489 C1488 1.363 . S
C1489 C1492 1.363 . S
N1490 C1492 1.356 . S
N1490 H1502 0.984 . S
N1490 H1503 0.985 1_556 S
N1491 C1493 1.356 . S
N1491 H1496 0.984 . S
N1491 H1497 0.985 . S
C1492 C1486 1.379 . S
C1492 C1489 1.363 . S
C1492 N1490 1.356 . S
C1493 C1487 1.363 . S
C1493 C1488 1.379 . S
C1493 N1491 1.356 . S
N1494 C1486 1.356 . S
N1494 H1500 0.984 . S
N1494 H1501 0.984 . S
N1495 C1488 1.356 . S
N1495 H1498 0.984 . S
N1495 H1499 0.985 . S
H1496 N1491 0.984 . S
H1497 N1491 0.985 . S
H1498 N1495 0.984 . S
H1499 N1495 0.985 . S
H1500 N1494 0.984 . S
H1501 N1494 0.984 . S
H1502 N1490 0.984 . S
H1503 N1490 0.985 1_554 S
C641 C449 1.772 . S
C643 C8 1.721 1_565 S
C659 C339 1.772 . S
C661 C58 1.721 1_655 S
C677 C88 1.721 1_545 S
C679 C369 1.772 . S
C695 C138 1.721 1_455 S
C697 C419 1.772 . S
C713 C168 1.721 . S
C715 C209 1.772 1_554 S
C731 C259 1.772 1_556 S
C733 C218 1.721 . S
C749 C248 1.721 . S
C751 C289 1.772 1_554 S
C767 C179 1.772 1_556 S
C769 C298 1.721 . S
C785 C129 1.772 . S
C787 C328 1.721 . S
C803 C378 1.721 . S
C805 C19 1.772 . S
C821 C49 1.772 . S
C823 C408 1.721 . S
C839 C99 1.772 . S
C841 C458 1.721 . S
C857 C488 1.721 1_545 S
C859 C529 1.772 . S
C875 C579 1.772 . S
C877 C538 1.721 1_455 S
C893 C609 1.772 . S
C895 C568 1.721 1_565 S
C911 C618 1.721 1_655 S
C913 C499 1.772 . S
C929 C18 1.253 . S
C931 C178 1.253 . S
C947 C208 1.253 . S
C949 C48 1.253 . S
C965 C98 1.253 . S
C967 C258 1.253 . S
C983 C128 1.253 . S
C985 C288 1.253 . S
C1001 C338 1.253 . S
C1003 C498 1.253 . S
C1019 C528 1.253 . S
C1021 C368 1.253 . S
C1037 C418 1.253 . S
C1039 C578 1.253 . S
C1055 C448 1.253 . S
C1057 C608 1.253 . S
C1073 C569 2.573 . S
C1075 C9 2.573 1_556 S
C1091 C59 2.573 1_554 S
C1093 C619 2.573 . S
C1109 C89 2.573 1_556 S
C1111 C489 2.573 . S
C1127 C139 2.573 1_554 S
C1129 C539 2.573 . S
C1145 C169 2.573 . S
C1147 C409 2.573 . S
C1163 C219 2.573 . S
C1165 C459 2.573 . S
C1181 C249 2.573 . S
C1183 C329 2.573 . S
C1199 C379 2.573 . S
C1201 C299 2.573 . S
C1217 C15 1.218 . S
C1219 C5 1.218 . S
C1235 C45 1.218 . S
C1237 C55 1.218 . S
C1253 C95 1.218 . S
C1255 C85 1.218 . S
C1271 C135 1.218 . S
C1273 C125 1.218 . S
C1289 C165 1.218 . S
C1291 C175 1.218 . S
C1307 C205 1.218 . S
C1309 C215 1.218 . S
C1325 C255 1.218 . S
C1327 C245 1.218 . S
C1343 C295 1.218 . S
C1345 C285 1.218 . S
C1361 C335 1.218 . S
C1363 C325 1.218 . S
C1379 C375 1.218 . S
C1381 C365 1.218 . S
C1397 C405 1.218 . S
C1399 C415 1.218 . S
C1415 C445 1.218 . S
C1417 C455 1.218 . S
C1433 C495 1.218 . S
C1435 C485 1.218 . S
C1451 C535 1.218 . S
C1453 C525 1.218 . S
C1469 C565 1.218 . S
C1471 C575 1.218 . S
C1487 C605 1.218 . S
C1489 C615 1.218 . S
