# Generated by pormake.
# Topology acs-h, (5)-cn, num edge types: 1
# Building blocks:
#     Node 0, Type 0, BuildingBlock: XOMCOT_clean_sbu_0, # of connection points: 5
#     Node 1, Type 0, BuildingBlock: XOMCOT_clean_sbu_0, # of connection points: 5
#     Node 2, Type 0, BuildingBlock: XOMCOT_clean_sbu_0, # of connection points: 5
#     Node 3, Type 0, BuildingBlock: XOMCOT_clean_sbu_0, # of connection points: 5
#     Node 4, Type 0, BuildingBlock: XOMCOT_clean_sbu_0, # of connection points: 5
#     Node 5, Type 0, BuildingBlock: XOMCOT_clean_sbu_0, # of connection points: 5
#     Node 6, Type 0, BuildingBlock: XOMCOT_clean_sbu_0, # of connection points: 5
#     Node 7, Type 0, BuildingBlock: XOMCOT_clean_sbu_0, # of connection points: 5
#     Node 8, Type 0, BuildingBlock: XOMCOT_clean_sbu_0, # of connection points: 5
#     Node 9, Type 0, BuildingBlock: XOMCOT_clean_sbu_0, # of connection points: 5
#     Node 10, Type 0, BuildingBlock: XOMCOT_clean_sbu_0, # of connection points: 5
#     Node 11, Type 0, BuildingBlock: XOMCOT_clean_sbu_0, # of connection points: 5
#     Edge 12, Type (0, 0), BuildingBlock: OJICUG_clean_linker_0, # of connection points: 2
#     Edge 13, Type (0, 0), BuildingBlock: OJICUG_clean_linker_0, # of connection points: 2
#     Edge 14, Type (0, 0), BuildingBlock: OJICUG_clean_linker_0, # of connection points: 2
#     Edge 15, Type (0, 0), BuildingBlock: OJICUG_clean_linker_0, # of connection points: 2
#     Edge 16, Type (0, 0), BuildingBlock: OJICUG_clean_linker_0, # of connection points: 2
#     Edge 17, Type (0, 0), BuildingBlock: OJICUG_clean_linker_0, # of connection points: 2
#     Edge 18, Type (0, 0), BuildingBlock: OJICUG_clean_linker_0, # of connection points: 2
#     Edge 19, Type (0, 0), BuildingBlock: OJICUG_clean_linker_0, # of connection points: 2
#     Edge 20, Type (0, 0), BuildingBlock: OJICUG_clean_linker_0, # of connection points: 2
#     Edge 21, Type (0, 0), BuildingBlock: OJICUG_clean_linker_0, # of connection points: 2
#     Edge 22, Type (0, 0), BuildingBlock: OJICUG_clean_linker_0, # of connection points: 2
#     Edge 23, Type (0, 0), BuildingBlock: OJICUG_clean_linker_0, # of connection points: 2
#     Edge 24, Type (0, 0), BuildingBlock: OJICUG_clean_linker_0, # of connection points: 2
#     Edge 25, Type (0, 0), BuildingBlock: OJICUG_clean_linker_0, # of connection points: 2
#     Edge 26, Type (0, 0), BuildingBlock: OJICUG_clean_linker_0, # of connection points: 2
#     Edge 27, Type (0, 0), BuildingBlock: OJICUG_clean_linker_0, # of connection points: 2
#     Edge 28, Type (0, 0), BuildingBlock: OJICUG_clean_linker_0, # of connection points: 2
#     Edge 29, Type (0, 0), BuildingBlock: OJICUG_clean_linker_0, # of connection points: 2
#     Edge 30, Type (0, 0), BuildingBlock: OJICUG_clean_linker_0, # of connection points: 2
#     Edge 31, Type (0, 0), BuildingBlock: OJICUG_clean_linker_0, # of connection points: 2
#     Edge 32, Type (0, 0), BuildingBlock: OJICUG_clean_linker_0, # of connection points: 2
#     Edge 33, Type (0, 0), BuildingBlock: OJICUG_clean_linker_0, # of connection points: 2
#     Edge 34, Type (0, 0), BuildingBlock: OJICUG_clean_linker_0, # of connection points: 2
#     Edge 35, Type (0, 0), BuildingBlock: OJICUG_clean_linker_0, # of connection points: 2
#     Edge 36, Type (0, 0), BuildingBlock: OJICUG_clean_linker_0, # of connection points: 2
#     Edge 37, Type (0, 0), BuildingBlock: OJICUG_clean_linker_0, # of connection points: 2
#     Edge 38, Type (0, 0), BuildingBlock: OJICUG_clean_linker_0, # of connection points: 2
#     Edge 39, Type (0, 0), BuildingBlock: OJICUG_clean_linker_0, # of connection points: 2
#     Edge 40, Type (0, 0), BuildingBlock: OJICUG_clean_linker_0, # of connection points: 2
#     Edge 41, Type (0, 0), BuildingBlock: OJICUG_clean_linker_0, # of connection points: 2
# Relax obj value: 0.882
# Max RMSD: 0.276
# Mean RMSD: 0.276
data_MOF--net-acs-h--node1-XOMCOT_clean_sbu_0--edge1-OJICUG_clean_linker_0
_symmetry_space_group_name_H-M    P1
_symmetry_Int_Tables_number       1
_symmetry_cell_setting            triclinic
loop_
_symmetry_equiv_pos_as_xyz
'x, y, z'
_cell_length_a     37.439903
_cell_length_b     37.336498
_cell_length_c     30.661438
_cell_angle_alpha  90.181561
_cell_angle_beta   89.908186
_cell_angle_gamma 119.90537
loop_
_atom_site_label
_atom_site_type_symbol
_atom_site_fract_x
_atom_site_fract_y
_atom_site_fract_z
_atom_type_partial_charge
Co0 Co 0.48919 0.17893 0.09483 0.0
C1 C 0.57401 0.20259 0.05773 0.0
C2 C 0.57065 0.25414 0.08308 0.0
C3 C 0.61021 0.2677 0.06967 0.0
N4 N 0.54716 0.21297 0.07574 0.0
N5 N 0.6124 0.23529 0.05405 0.0
H6 H 0.56707 0.17161 0.04985 0.0
H7 H 0.56112 0.27338 0.09995 0.0
C8 C 0.53351 0.15069 0.1549 0.0
O9 O 0.5493 0.14271 0.12069 0.0
N10 N 0.43312 0.14781 0.11507 0.0
C11 C 0.39856 0.13559 0.09149 0.0
C12 C 0.36791 0.13245 0.11912 0.0
C13 C 0.42272 0.15066 0.15641 0.0
N14 N 0.38332 0.14181 0.1599 0.0
C15 C 0.49251 0.13381 0.02132 0.0
C16 C 0.47659 0.06405 0.06787 0.0
C17 C 0.49454 0.07046 0.02639 0.0
C18 C 0.49954 0.1042 0.00169 0.0
C19 C 0.46987 0.09442 0.08603 0.0
N20 N 0.48273 0.13072 0.06447 0.0
H21 H 0.49981 0.16161 0.00355 0.0
H22 H 0.45835 0.09063 0.11904 0.0
H23 H 0.39727 0.13464 0.05624 0.0
H24 H 0.44526 0.16575 0.18204 0.0
O25 O 0.47278 0.20231 0.0482 0.0
O26 O 0.48987 0.22806 0.11505 0.0
O27 O 0.50831 0.16421 0.15048 0.0
C28 C 0.47948 0.23178 0.07547 0.0
H29 H 0.63642 0.29814 0.07538 0.0
H30 H 0.33844 0.12859 0.10925 0.0
H31 H 0.47019 0.03717 0.08702 0.0
H32 H 0.51223 0.10969 0.96904 0.0
Co33 Co 0.83936 0.33069 0.10553 0.0
C34 C 0.82101 0.39809 0.0938 0.0
C35 C 0.83261 0.37898 0.03207 0.0
C36 C 0.82417 0.4104 0.0252 0.0
N37 N 0.83148 0.37185 0.07527 0.0
N38 N 0.81691 0.42253 0.06412 0.0
H39 H 0.81429 0.39757 0.12813 0.0
H40 H 0.83749 0.3617 0.00682 0.0
C41 C 0.84922 0.36392 0.19571 0.0
O42 O 0.82208 0.32673 0.20907 0.0
N43 N 0.84697 0.28914 0.13598 0.0
C44 C 0.88139 0.28621 0.14045 0.0
C45 C 0.87221 0.25159 0.16472 0.0
C46 C 0.81741 0.25573 0.15699 0.0
N47 N 0.83185 0.23241 0.17452 0.0
C48 C 0.8986 0.35154 0.03746 0.0
C49 C 0.96208 0.41376 0.0847 0.0
C50 C 0.96229 0.41661 0.03923 0.0
C51 C 0.93213 0.38299 0.01535 0.0
C52 C 0.92757 0.3825 0.10521 0.0
N53 N 0.89441 0.35495 0.08117 0.0
H54 H 0.87356 0.32771 0.01877 0.0
H55 H 0.92667 0.38258 0.14036 0.0
H56 H 0.91137 0.30736 0.12732 0.0
H57 H 0.78601 0.24906 0.16106 0.0
O58 O 0.80732 0.29059 0.06062 0.0
O59 O 0.78205 0.30284 0.12085 0.0
O60 O 0.86089 0.36987 0.15616 0.0
C61 C 0.77532 0.283 0.08417 0.0
H62 H 0.8225 0.42244 0.99371 0.0
H63 H 0.89347 0.24142 0.17454 0.0
H64 H 0.98629 0.43774 0.10431 0.0
H65 H 0.93174 0.38316 0.98005 0.0
Co66 Co 0.66754 0.50173 0.11428 0.0
C67 C 0.60198 0.42801 0.06581 0.0
C68 C 0.65287 0.42002 0.08308 0.0
C69 C 0.62359 0.38468 0.06304 0.0
N70 N 0.63954 0.44766 0.08515 0.0
N71 N 0.59147 0.3896 0.0526 0.0
H72 H 0.58152 0.44034 0.06264 0.0
H73 H 0.68066 0.42351 0.09755 0.0
C74 C 0.58852 0.45728 0.1682 0.0
O75 O 0.56486 0.44903 0.13394 0.0
N76 N 0.69526 0.55427 0.14322 0.0
C77 C 0.718 0.59222 0.12595 0.0
C78 C 0.74018 0.61933 0.15922 0.0
C79 C 0.70317 0.55867 0.18608 0.0
N80 N 0.73061 0.59793 0.19695 0.0
C81 C 0.63422 0.51736 0.0384 0.0
C82 C 0.57899 0.53329 0.08226 0.0
C83 C 0.57299 0.52321 0.03776 0.0
C84 C 0.6029 0.51838 0.0151 0.0
C85 C 0.61094 0.5321 0.10417 0.0
N86 N 0.63476 0.51959 0.08275 0.0
H87 H 0.65493 0.50974 0.0215 0.0
H88 H 0.61407 0.53738 0.13899 0.0
H89 H 0.72078 0.59899 0.09143 0.0
H90 H 0.69277 0.53268 0.20802 0.0
O91 O 0.71311 0.51935 0.07379 0.0
O92 O 0.7077 0.48956 0.13785 0.0
O93 O 0.62775 0.47881 0.1651 0.0
C94 C 0.72855 0.50483 0.10215 0.0
H95 H 0.62395 0.35595 0.06054 0.0
H96 H 0.76371 0.65139 0.15547 0.0
H97 H 0.55754 0.53908 0.10045 0.0
H98 H 0.59991 0.51126 0.98058 0.0
Co99 Co 0.83918 0.50286 0.39182 0.0
C100 C 0.80824 0.41392 0.41405 0.0
C101 C 0.87316 0.45139 0.42324 0.0
C102 C 0.86254 0.41122 0.43117 0.0
N103 N 0.8391 0.45364 0.41344 0.0
N104 N 0.8218 0.38782 0.42535 0.0
H105 H 0.77716 0.40353 0.40304 0.0
H106 H 0.90429 0.47631 0.42052 0.0
C107 C 0.86182 0.49527 0.3028 0.0
O108 O 0.83325 0.5034 0.28988 0.0
N109 N 0.84048 0.55274 0.37018 0.0
C110 C 0.86857 0.59289 0.37815 0.0
C111 C 0.85717 0.61796 0.35662 0.0
C112 C 0.81179 0.5544 0.34502 0.0
N113 N 0.82129 0.5935 0.33641 0.0
C114 C 0.88301 0.53017 0.47127 0.0
C115 C 0.95938 0.56041 0.43247 0.0
C116 C 0.95288 0.54378 0.47459 0.0
C117 C 0.91577 0.53346 0.49583 0.0
C118 C 0.92559 0.55569 0.40885 0.0
N119 N 0.88729 0.53626 0.42733 0.0
H120 H 0.85279 0.51581 0.48598 0.0
H121 H 0.92942 0.56297 0.37448 0.0
H122 H 0.89545 0.60414 0.39854 0.0
H123 H 0.7848 0.52766 0.33202 0.0
O124 O 0.79569 0.49452 0.43229 0.0
O125 O 0.78604 0.46854 0.36551 0.0
O126 O 0.8734 0.50125 0.34246 0.0
C127 C 0.77001 0.47186 0.40182 0.0
H128 H 0.88359 0.39959 0.43597 0.0
H129 H 0.8737 0.6514 0.35601 0.0
H130 H 0.98834 0.5705 0.41571 0.0
H131 H 0.90972 0.52134 0.52872 0.0
Co132 Co 0.474 0.30518 0.38739 0.0
C133 C 0.56485 0.35671 0.39935 0.0
C134 C 0.5341 0.34049 0.46093 0.0
C135 C 0.57574 0.3636 0.46831 0.0
N136 N 0.52684 0.33752 0.41754 0.0
N137 N 0.59515 0.37426 0.42953 0.0
H138 H 0.5702 0.35773 0.36462 0.0
H139 H 0.51142 0.32505 0.48603 0.0
C140 C 0.51882 0.38195 0.33353 0.0
O141 O 0.52968 0.40383 0.36971 0.0
N142 N 0.42258 0.27208 0.35744 0.0
C143 C 0.38536 0.24751 0.37551 0.0
C144 C 0.35959 0.22056 0.34394 0.0
C145 C 0.41893 0.26038 0.31539 0.0
N146 N 0.38085 0.22907 0.30625 0.0
C147 C 0.45141 0.3419 0.45641 0.0
C148 C 0.44493 0.39761 0.40285 0.0
C149 C 0.45525 0.40775 0.4469 0.0
C150 C 0.45436 0.37746 0.47462 0.0
C151 C 0.44252 0.36164 0.38629 0.0
N152 N 0.45235 0.33826 0.41235 0.0
H153 H 0.45202 0.31919 0.47745 0.0
H154 H 0.43778 0.35545 0.35169 0.0
H155 H 0.37853 0.24685 0.40989 0.0
H156 H 0.44477 0.2715 0.29314 0.0
O157 O 0.45779 0.26339 0.43209 0.0
O158 O 0.49098 0.26656 0.37071 0.0
O159 O 0.49605 0.34258 0.33475 0.0
C160 C 0.47567 0.2483 0.40768 0.0
H161 H 0.59056 0.37057 0.49991 0.0
H162 H 0.32871 0.19497 0.34892 0.0
H163 H 0.44234 0.41881 0.3808 0.0
H164 H 0.45984 0.38261 0.50932 0.0
Co165 Co 0.66186 0.16 0.37995 0.0
C166 C 0.59699 0.17235 0.42454 0.0
C167 C 0.64949 0.22974 0.40644 0.0
C168 C 0.62098 0.2378 0.42503 0.0
N169 N 0.63474 0.18845 0.40591 0.0
N170 N 0.58787 0.20171 0.43606 0.0
H171 H 0.57549 0.13983 0.42837 0.0
H172 H 0.67782 0.25298 0.39185 0.0
C173 C 0.58422 0.12654 0.32403 0.0
O174 O 0.55903 0.11247 0.35731 0.0
N175 N 0.68916 0.13316 0.35404 0.0
C176 C 0.71171 0.11916 0.37425 0.0
C177 C 0.73754 0.11641 0.34385 0.0
C178 C 0.7007 0.13784 0.31203 0.0
N179 N 0.73058 0.12843 0.30481 0.0
C180 C 0.62636 0.1145 0.45739 0.0
C181 C 0.57231 0.04152 0.41561 0.0
C182 C 0.56556 0.047 0.45955 0.0
C183 C 0.59468 0.08299 0.4812 0.0
C184 C 0.60411 0.07411 0.393 0.0
N185 N 0.62783 0.11106 0.4133 0.0
H186 H 0.64686 0.14345 0.4734 0.0
H187 H 0.60773 0.07075 0.3585 0.0
H188 H 0.71257 0.11561 0.40916 0.0
H189 H 0.69173 0.15361 0.28867 0.0
O190 O 0.70742 0.18914 0.42029 0.0
O191 O 0.70228 0.21034 0.35423 0.0
O192 O 0.62304 0.14209 0.32876 0.0
C193 C 0.72315 0.21747 0.39011 0.0
H194 H 0.62259 0.26759 0.42599 0.0
H195 H 0.76217 0.11002 0.35074 0.0
H196 H 0.55179 0.01335 0.39822 0.0
H197 H 0.59121 0.08845 0.51523 0.0
Co198 Co 0.50019 0.84118 0.89791 0.0
C199 C 0.41538 0.82358 0.90527 0.0
C200 C 0.44308 0.84034 0.96839 0.0
C201 C 0.40272 0.83113 0.97173 0.0
N202 N 0.45147 0.83677 0.92625 0.0
N203 N 0.38531 0.82069 0.93186 0.0
H204 H 0.41115 0.81495 0.87117 0.0
H205 H 0.46325 0.84685 -0.0042 0.0
C206 C 0.47814 0.89651 0.84947 0.0
O207 O 0.47245 0.90997 0.88703 0.0
N208 N 0.54707 0.84371 0.86901 0.0
C209 C 0.5805 0.84638 0.88863 0.0
C210 C 0.60162 0.83639 0.85864 0.0
C211 C 0.54839 0.83261 0.82746 0.0
N212 N 0.58139 0.82792 0.82032 0.0
C213 C 0.53865 0.89481 0.97143 0.0
C214 C 0.56824 0.96575 0.92233 0.0
C215 C 0.55756 0.96644 0.96606 0.0
C216 C 0.54743 0.9317 0.99199 0.0
C217 C 0.55794 0.92792 0.90335 0.0
N218 N 0.53701 0.89262 0.92716 0.0
H219 H 0.52828 0.86713 0.99055 0.0
H220 H 0.56183 0.92651 0.86857 0.0
H221 H 0.58721 0.852 0.92309 0.0
H222 H 0.52376 0.82436 0.80417 0.0
O223 O 0.49994 0.80149 0.93881 0.0
O224 O 0.46603 0.78678 0.87574 0.0
O225 O 0.49191 0.87127 0.84792 0.0
C226 C 0.47491 0.77378 0.91105 0.0
H227 H 0.38727 0.83097 0.00162 0.0
H228 H 0.62833 0.8332 0.86505 0.0
H229 H 0.57909 0.99277 0.9018 0.0
H230 H 0.54118 0.93132 0.02652 0.0
Co231 Co 0.15593 0.67312 0.87055 0.0
C232 C 0.18881 0.61529 0.87622 0.0
C233 C 0.19147 0.64352 0.93795 0.0
C234 C 0.20775 0.618 0.94283 0.0
N235 N 0.17882 0.64134 0.89632 0.0
N236 N 0.20603 0.60015 0.90404 0.0
H237 H 0.1847 0.60842 0.8418 0.0
H238 H 0.1907 0.66352 0.96296 0.0
C239 C 0.11414 0.62826 0.78595 0.0
O240 O 0.09771 0.65172 0.7797 0.0
N241 N 0.13425 0.70599 0.84601 0.0
C242 C 0.10883 0.7173 0.86513 0.0
C243 C 0.10862 0.74823 0.84056 0.0
C244 C 0.14953 0.73045 0.81079 0.0
N245 N 0.13382 0.75567 0.80629 0.0
C246 C 0.10751 0.64208 0.94749 0.0
C247 C 0.04288 0.57516 0.90682 0.0
C248 C 0.04953 0.57302 0.95132 0.0
C249 C 0.08022 0.60825 0.97246 0.0
C250 C 0.07095 0.60954 0.88331 0.0
N251 N 0.10538 0.64006 0.90308 0.0
H252 H 0.13277 0.668 0.96364 0.0
H253 H 0.06583 0.60984 0.84905 0.0
H254 H 0.09364 0.70593 0.89616 0.0
H255 H 0.17314 0.73113 0.78979 0.0
O256 O 0.18624 0.71684 0.91227 0.0
O257 O 0.20958 0.71089 0.84762 0.0
O258 O 0.13571 0.63262 0.81995 0.0
C259 C 0.21653 0.7306 0.88447 0.0
H260 H 0.22159 0.61444 0.97226 0.0
H261 H 0.09299 0.76524 0.8483 0.0
H262 H 0.01777 0.54944 0.88987 0.0
H263 H 0.08541 0.6084 0.00722 0.0
Co264 Co 0.3324 0.48395 0.86047 0.0
C265 C 0.37766 0.57041 0.8957 0.0
C266 C 0.41814 0.54872 0.87473 0.0
C267 C 0.44168 0.5884 0.88994 0.0
N268 N 0.37789 0.53734 0.87809 0.0
N269 N 0.41616 0.60202 0.90288 0.0
H270 H 0.35025 0.57205 0.9026 0.0
H271 H 0.4299 0.52995 0.86104 0.0
C272 C 0.35532 0.48316 0.76967 0.0
O273 O 0.31668 0.47091 0.7604 0.0
N274 N 0.28765 0.42968 0.84295 0.0
C275 C 0.28848 0.39411 0.83782 0.0
C276 C 0.25186 0.36463 0.81949 0.0
C277 C 0.25013 0.42075 0.82823 0.0
N278 N 0.22783 0.38157 0.81376 0.0
C279 C 0.35509 0.46528 0.94126 0.0
C280 C 0.41395 0.4494 0.90654 0.0
C281 C 0.41773 0.46283 0.94982 0.0
C282 C 0.38615 0.46766 0.96817 0.0
C283 C 0.38254 0.44756 0.88077 0.0
N284 N 0.35581 0.45897 0.89748 0.0
H285 H 0.33389 0.474 0.95476 0.0
H286 H 0.38282 0.44123 0.84647 0.0
H287 H 0.3143 0.38982 0.84458 0.0
H288 H 0.24026 0.44322 0.8243 0.0
O289 O 0.2958 0.48919 0.90165 0.0
O290 O 0.30558 0.51089 0.83326 0.0
O291 O 0.36667 0.48637 0.80925 0.0
C292 C 0.28755 0.50759 0.87048 0.0
H293 H 0.47498 0.60662 0.88913 0.0
H294 H 0.2444 0.33396 0.809 0.0
H295 H 0.43721 0.44411 0.8917 0.0
H296 H 0.38781 0.47763 0.00169 0.0
Co297 Co 0.14353 0.47604 0.61098 0.0
C298 C 0.17623 0.56595 0.60988 0.0
C299 C 0.17285 0.54401 0.54469 0.0
C300 C 0.18857 0.58605 0.54345 0.0
N301 N 0.16325 0.53094 0.58631 0.0
N302 N 0.19027 0.59976 0.58453 0.0
H303 H 0.17574 0.56662 0.6451 0.0
H304 H 0.17136 0.52545 0.51708 0.0
C305 C 0.09616 0.50988 0.65527 0.0
O306 O 0.08723 0.51715 0.61602 0.0
N307 N 0.1257 0.42283 0.63626 0.0
C308 C 0.11364 0.38688 0.61517 0.0
C309 C 0.11282 0.35865 0.64466 0.0
C310 C 0.13152 0.4161 0.67791 0.0
N311 N 0.12415 0.37723 0.68404 0.0
C312 C 0.09642 0.45595 0.53215 0.0
C313 C 0.02384 0.43562 0.5747 0.0
C314 C 0.03093 0.45313 0.53294 0.0
C315 C 0.06552 0.4584 0.50963 0.0
C316 C 0.05608 0.43429 0.59582 0.0
N317 N 0.09376 0.45155 0.5762 0.0
H318 H 0.12411 0.462 0.51526 0.0
H319 H 0.05272 0.42582 0.6299 0.0
H320 H 0.10895 0.38253 0.58032 0.0
H321 H 0.14527 0.4405 0.70207 0.0
O322 O 0.17958 0.46838 0.57183 0.0
O323 O 0.1966 0.4973 0.63756 0.0
O324 O 0.11614 0.49045 0.65967 0.0
C325 C 0.2079 0.4875 0.60139 0.0
H326 H 0.19971 0.6052 0.51465 0.0
H327 H 0.10745 0.32802 0.63709 0.0
H328 H -0.00384 0.42837 0.59277 0.0
H329 H 0.07122 0.46928 0.47628 0.0
Co330 Co 0.49904 0.65818 0.5904 0.0
C331 C 0.41086 0.59968 0.5832 0.0
C332 C 0.43518 0.62053 0.5194 0.0
C333 C 0.39341 0.59372 0.516 0.0
N334 N 0.4465 0.62287 0.56158 0.0
N335 N 0.37821 0.58031 0.55628 0.0
H336 H 0.40904 0.59775 0.61832 0.0
H337 H 0.45464 0.63874 0.49295 0.0
C338 C 0.46556 0.57512 0.6312 0.0
O339 O 0.45964 0.55996 0.59143 0.0
N340 N 0.54967 0.69401 0.62045 0.0
C341 C 0.5847 0.72379 0.60224 0.0
C342 C 0.60725 0.75264 0.63392 0.0
C343 C 0.55168 0.70456 0.66277 0.0
N344 N 0.58636 0.74026 0.67183 0.0
C345 C 0.52519 0.63551 0.51203 0.0
C346 C 0.54635 0.584 0.55508 0.0
C347 C 0.53223 0.57495 0.51191 0.0
C348 C 0.52622 0.60386 0.48883 0.0
C349 C 0.54448 0.61588 0.57675 0.0
N350 N 0.52731 0.63605 0.55634 0.0
H351 H 0.51857 0.65676 0.49511 0.0
H352 H 0.55074 0.61988 0.61138 0.0
H353 H 0.59104 0.72687 0.56761 0.0
H354 H 0.52581 0.68957 0.68494 0.0
O355 O 0.50726 0.70363 0.55315 0.0
O356 O 0.47455 0.68698 0.61708 0.0
O357 O 0.4837 0.61436 0.63709 0.0
C358 C 0.48709 0.71098 0.5832 0.0
H359 H 0.37546 0.5865 0.48635 0.0
H360 H 0.63474 0.78222 0.62867 0.0
H361 H 0.55353 0.56358 0.57331 0.0
H362 H 0.51757 0.59938 0.45472 0.0
Co363 Co 0.32185 0.83554 0.63864 0.0
C364 C 0.38287 0.80991 0.60417 0.0
C365 C 0.3653 0.79639 0.67139 0.0
C366 C 0.39449 0.78569 0.66288 0.0
N367 N 0.35834 0.81249 0.63517 0.0
N368 N 0.4057 0.79442 0.6209 0.0
H369 H 0.3851 0.81951 0.57073 0.0
H370 H 0.3509 0.79392 0.7027 0.0
C371 C 0.39606 0.88853 0.69011 0.0
O372 O 0.41596 0.89124 0.65381 0.0
N373 N 0.2848 0.85672 0.6456 0.0
C374 C 0.26152 0.86076 0.61473 0.0
C375 C 0.22889 0.86145 0.63498 0.0
C376 C 0.26691 0.85604 0.68378 0.0
N377 N 0.23234 0.85824 0.67844 0.0
C378 C 0.35801 0.86996 0.55618 0.0
C379 C 0.40101 0.95097 0.58462 0.0
C380 C 0.41157 0.94013 0.54487 0.0
C381 C 0.38769 0.8998 0.5291 0.0
C382 C 0.37052 0.92008 0.61022 0.0
N383 N 0.35363 0.87966 0.59796 0.0
H384 H 0.34079 0.83844 0.54472 0.0
H385 H 0.36334 0.92815 0.64162 0.0
H386 H 0.26516 0.85835 0.58002 0.0
H387 H 0.2754 0.84749 0.71416 0.0
O388 O 0.28498 0.79542 0.59738 0.0
O389 O 0.28309 0.78522 0.66872 0.0
O390 O 0.35647 0.86965 0.69004 0.0
C391 C 0.26883 0.7704 0.63006 0.0
H392 H 0.4065 0.77222 0.68569 0.0
H393 H 0.20233 0.85961 0.61882 0.0
H394 H 0.41779 0.98238 0.59683 0.0
H395 H 0.39409 0.89071 0.49777 0.0
C396 C 0.59191 0.13209 0.24348 0.0
C397 C 0.56852 0.12854 0.28065 0.0
H398 H 0.59907 0.14181 0.17484 0.0
C399 C 0.53243 0.13103 0.27622 0.0
H400 H 0.61985 0.13029 0.24592 0.0
C401 C 0.5208 0.13842 0.23535 0.0
C402 C 0.54471 0.14264 0.19834 0.0
H403 H 0.514 0.12872 0.30446 0.0
H404 H 0.49327 0.14092 0.23276 0.0
C405 C 0.57999 0.13877 0.20276 0.0
C406 C 0.87099 0.43866 0.20542 0.0
C407 C 0.86074 0.40026 0.22407 0.0
H408 H 0.87843 0.49891 0.21588 0.0
C409 C 0.85765 0.39619 0.26958 0.0
H410 H 0.87434 0.44312 0.17048 0.0
C411 C 0.86221 0.42904 0.29567 0.0
C412 C 0.86851 0.46596 0.27658 0.0
H413 H 0.85029 0.36719 0.28487 0.0
H414 H 0.85773 0.42437 0.33049 0.0
C415 C 0.87376 0.47084 0.23134 0.0
C416 C 0.59053 0.45777 0.24974 0.0
C417 C 0.56956 0.43971 0.21073 0.0
H418 H 0.59038 0.45389 0.31943 0.0
C419 C 0.53095 0.40341 0.21255 0.0
H420 H 0.62029 0.48579 0.24927 0.0
C421 C 0.51424 0.38476 0.25255 0.0
C422 C 0.53537 0.40262 0.29149 0.0
H423 H 0.51417 0.38871 0.18298 0.0
H424 H 0.48486 0.35628 0.253 0.0
C425 C 0.57334 0.43963 0.28983 0.0
C426 C 0.42166 0.90016 0.81058 0.0
C427 C 0.4606 0.90312 0.80962 0.0
H428 H 0.36993 0.89259 0.77305 0.0
C429 C 0.47984 0.90638 0.76956 0.0
H430 H 0.40608 0.89713 0.84131 0.0
C431 C 0.45975 0.90476 0.73084 0.0
C432 C 0.41942 0.89857 0.73139 0.0
H433 H 0.5098 0.90857 0.76816 0.0
H434 H 0.47504 0.90582 0.70046 0.0
C435 C 0.40092 0.89738 0.77163 0.0
C436 C 0.07812 0.56107 0.685 0.0
C437 C 0.09385 0.53432 0.69203 0.0
H438 H 0.07266 0.61195 0.70879 0.0
C439 C 0.1127 0.53599 0.73212 0.0
H440 H 0.06319 0.56047 0.65456 0.0
C441 C 0.11808 0.56562 0.76333 0.0
C442 C 0.10494 0.59428 0.75498 0.0
H443 H 0.125 0.51572 0.73864 0.0
H444 H 0.13347 0.56662 0.79347 0.0
C445 C 0.08374 0.5908 0.71606 0.0
C446 C 0.40346 0.51166 0.65792 0.0
C447 C 0.44127 0.5474 0.66715 0.0
H448 H 0.3463 0.46341 0.68336 0.0
C449 C 0.45261 0.55873 0.71078 0.0
H450 H 0.39364 0.50237 0.62456 0.0
C451 C 0.4258 0.53572 0.74451 0.0
C452 C 0.38674 0.50173 0.73505 0.0
H453 H 0.48149 0.5862 0.71873 0.0
H454 H 0.43459 0.54622 0.77777 0.0
C455 C 0.37622 0.48937 0.69153 0.0
C456 C 0.53475 0.03444 0.03908 0.0
C457 C 0.51167 0.04467 0.01076 0.0
H458 H 0.5689 0.00282 0.04685 0.0
C459 C 0.507 0.03201 0.96711 0.0
H460 H 0.53972 0.04478 0.07271 0.0
C461 C 0.52409 0.00859 0.95227 0.0
C462 C 0.54639 -0.00261 0.98072 0.0
H463 H 0.48927 0.03934 0.94465 0.0
H464 H 0.51809 -0.00232 0.91886 0.0
C465 C 0.55192 0.01093 0.02421 0.0
C466 C 0.00445 0.45963 0.97622 0.0
C467 C 0.98807 0.457 0.018 0.0
H468 H 0.03684 0.49873 0.92241 0.0
C469 C 0.99232 0.49302 0.03787 0.0
H470 H 0.00177 0.4325 0.96021 0.0
C471 C 0.01215 0.53076 0.01627 0.0
C472 C 0.02772 0.53315 0.97421 0.0
H473 H 0.979 0.49189 0.06957 0.0
H474 H 0.01448 0.55785 0.03204 0.0
C475 C 0.02413 0.49741 0.95452 0.0
C476 C 0.49419 0.50528 0.95133 0.0
C477 C 0.45724 0.47843 0.97296 0.0
H478 H 0.55982 0.54181 0.95536 0.0
C479 C 0.4584 0.46915 0.017 0.0
H480 H 0.49399 0.514 0.91769 0.0
C481 C 0.49608 0.48532 0.03863 0.0
C482 C 0.53317 0.51134 0.01664 0.0
H483 H 0.43028 0.44878 0.0344 0.0
H484 H 0.49625 0.47618 0.07209 0.0
C485 C 0.53179 0.52158 0.97296 0.0
C486 C 0.00098 0.47605 0.47385 0.0
C487 C 0.00883 0.47445 0.51823 0.0
H488 H 0.9785 0.50025 0.42523 0.0
C489 C 0.00076 0.49832 0.5481 0.0
H490 H 0.00688 0.4581 0.45009 0.0
C491 C 0.9847 0.52287 0.53388 0.0
C492 C 0.97675 0.52434 0.48948 0.0
H493 H 0.00771 0.49883 0.58245 0.0
H494 H 0.97815 0.54039 0.5576 0.0
C495 C 0.98533 0.50084 0.45962 0.0
C496 C 0.46603 0.45916 0.50542 0.0
C497 C 0.47269 0.45089 0.46244 0.0
H498 H 0.48048 0.50471 0.55478 0.0
C499 C 0.50011 0.484 0.43579 0.0
H500 H 0.4448 0.43457 0.52665 0.0
C501 C 0.52051 0.52441 0.45191 0.0
C502 C 0.51441 0.53233 0.49517 0.0
H503 H 0.50675 0.47864 0.40279 0.0
H504 H 0.54126 0.54937 0.43075 0.0
C505 C 0.48683 0.49935 0.52166 0.0
C506 C 0.52498 0.00989 0.52594 0.0
C507 C 0.52623 0.01802 0.48111 0.0
H508 H 0.48724 0.97932 0.58127 0.0
C509 C 0.48903 0.00093 0.45751 0.0
H510 H 0.55302 0.02211 0.54495 0.0
C511 C 0.45148 0.97612 0.47827 0.0
C512 C 0.45044 0.96868 0.52309 0.0
H513 H 0.48875 0.0074 0.42315 0.0
H514 H 0.42325 0.96302 0.45945 0.0
C515 C 0.48739 0.98566 0.54678 0.0
C516 C 0.37849 0.22193 0.22665 0.0
C517 C 0.3704 0.2036 0.268 0.0
H518 H 0.38731 0.21518 0.15865 0.0
C519 C 0.35914 0.16177 0.27166 0.0
H520 H 0.38774 0.25429 0.22339 0.0
C521 C 0.3596 0.13971 0.23487 0.0
C522 C 0.37018 0.1589 0.19397 0.0
H523 H 0.35359 0.14736 0.30343 0.0
H524 H 0.35464 0.10873 0.23872 0.0
C525 C 0.37795 0.1996 0.18981 0.0
C526 C 0.80081 0.16736 0.27452 0.0
C527 C 0.75797 0.14381 0.26806 0.0
H528 H 0.85848 0.21471 0.24892 0.0
C529 C 0.74178 0.14369 0.22677 0.0
H530 H 0.81409 0.16829 0.30612 0.0
C531 C 0.76702 0.17049 0.1944 0.0
C532 C 0.80896 0.1976 0.20263 0.0
H533 H 0.70892 0.12549 0.22095 0.0
H534 H 0.75326 0.17218 0.16399 0.0
C535 C 0.8262 0.19409 0.24189 0.0
C536 C 0.81951 0.63106 0.27165 0.0
C537 C 0.79926 0.60536 0.30728 0.0
H538 H 0.81283 0.64913 0.20735 0.0
C539 C 0.75626 0.58573 0.31004 0.0
H540 H 0.85276 0.64637 0.26911 0.0
C541 C 0.73351 0.58803 0.27543 0.0
C542 C 0.75342 0.60902 0.23707 0.0
H543 H 0.74028 0.5662 0.33764 0.0
H544 H 0.7002 0.57004 0.27685 0.0
C545 C 0.79666 0.63279 0.23651 0.0
C546 C 0.59197 0.7736 0.78769 0.0
C547 C 0.58781 0.80875 0.78282 0.0
H548 H 0.59415 0.72359 0.75521 0.0
C549 C 0.58671 0.82291 0.74082 0.0
H550 H 0.59226 0.76189 0.81987 0.0
C551 C 0.58907 0.80184 0.70415 0.0
C552 C 0.59135 0.76566 0.70904 0.0
H553 H 0.58325 0.84981 0.73655 0.0
H554 H 0.58702 0.81251 0.67195 0.0
C555 C 0.59306 0.75182 0.751 0.0
C556 C 0.137 0.77953 0.73182 0.0
C557 C 0.14866 0.78869 0.77561 0.0
H558 H 0.15471 0.79615 0.66535 0.0
C559 C 0.18306 0.8267 0.78657 0.0
H560 H 0.11093 0.74988 0.72299 0.0
C561 C 0.2084 0.853 0.75376 0.0
C562 C 0.19946 0.84152 0.70974 0.0
H563 H 0.1928 0.83371 0.82026 0.0
H564 H 0.23728 0.88001 0.76269 0.0
C565 C 0.16202 0.80604 0.69898 0.0
C566 C 0.16342 0.3462 0.71397 0.0
C567 C 0.13916 0.36478 0.72067 0.0
H568 H 0.21135 0.33687 0.73941 0.0
C569 C 0.13734 0.37916 0.76247 0.0
H570 H 0.16546 0.33495 0.68201 0.0
C571 C 0.16349 0.38015 0.79529 0.0
C572 C 0.19193 0.36692 0.78673 0.0
H573 H 0.11839 0.39307 0.76847 0.0
H574 H 0.16423 0.39479 0.8261 0.0
C575 C 0.18972 0.34728 0.74687 0.0
C576 C 0.4938 0.30292 0.0898 0.0
C577 C 0.49018 0.27302 0.05954 0.0
H578 H 0.53004 0.36585 0.1102 0.0
C579 C 0.51119 0.28594 0.01955 0.0
H580 H 0.47775 0.29371 0.12076 0.0
C581 C 0.54198 0.32703 0.01419 0.0
C582 C 0.55051 0.35558 0.04788 0.0
H583 H 0.50888 0.26354 -0.00449 0.0
H584 H 0.56241 0.33537 0.98635 0.0
C585 C 0.52375 0.34422 0.08377 0.0
C586 C 0.7218 0.2706 0.02958 0.0
C587 C 0.73297 0.25847 0.0681 0.0
H588 H 0.67289 0.27243 -0.00503 0.0
C589 C 0.70213 0.23082 0.09642 0.0
H590 H 0.74526 0.29265 0.00783 0.0
C591 C 0.66087 0.21835 0.0883 0.0
C592 C 0.65018 0.23444 0.05253 0.0
H593 H 0.71024 0.22163 0.12663 0.0
H594 H 0.63791 0.20005 0.11252 0.0
C595 C 0.68059 0.25913 0.0222 0.0
C596 C 0.80231 0.46548 0.11477 0.0
C597 C 0.80261 0.45149 0.07216 0.0
H598 H 0.77906 0.49445 0.15763 0.0
C599 C 0.78567 0.46377 0.03827 0.0
H600 H 0.81629 0.45815 0.14155 0.0
C601 C 0.76543 0.48585 0.04746 0.0
C602 C 0.76134 0.49563 0.0907 0.0
H603 H 0.78545 0.45409 0.00498 0.0
H604 H 0.74978 0.49183 0.02121 0.0
C605 C 0.78156 0.48697 0.12398 0.0
C606 C 0.70734 0.4511 0.44794 0.0
C607 C 0.72492 0.44839 0.40854 0.0
H608 H 0.65229 0.43018 0.48529 0.0
C609 C 0.69913 0.42143 0.37585 0.0
H610 H 0.7264 0.47165 0.47368 0.0
C611 C 0.65671 0.3972 0.38264 0.0
C612 C 0.63898 0.39941 0.42226 0.0
H613 H 0.71176 0.41846 0.34513 0.0
H614 H 0.63806 0.37622 0.35705 0.0
C615 C 0.66484 0.42696 0.45469 0.0
C616 C 0.52087 0.18043 0.4038 0.0
C617 C 0.54756 0.19667 0.43964 0.0
H618 H 0.4755 0.18454 0.36519 0.0
C619 C 0.53999 0.21901 0.47156 0.0
H620 H 0.52659 0.16352 0.37864 0.0
C621 C 0.50984 0.22997 0.4646 0.0
C622 C 0.48831 0.21984 0.42491 0.0
H623 H 0.56056 0.23198 0.49919 0.0
H624 H 0.50787 0.25131 0.48716 0.0
C625 C 0.49171 0.19249 0.39609 0.0
C626 C 0.79097 0.33067 0.37375 0.0
C627 C 0.80116 0.34456 0.41671 0.0
H628 H 0.76048 0.2789 0.3313 0.0
C629 C 0.79179 0.3161 0.45056 0.0
H630 H 0.79877 0.35249 0.34735 0.0
C631 C 0.76916 0.27367 0.44176 0.0
C632 C 0.75659 0.25975 0.39887 0.0
H633 H 0.80033 0.32679 0.48382 0.0
H634 H 0.75944 0.25207 0.46865 0.0
C635 C 0.76946 0.28864 0.36475 0.0
C636 C 0.46596 0.67057 0.93292 0.0
C637 C 0.42784 0.64405 0.91296 0.0
H638 H 0.5108 0.73331 0.94892 0.0
C639 C 0.4033 0.66028 0.8984 0.0
H640 H 0.4852 0.65865 0.94483 0.0
C641 C 0.41796 0.70255 0.90048 0.0
C642 C 0.45712 0.72931 0.91772 0.0
H643 H 0.37399 0.64082 0.88262 0.0
H644 H 0.39937 0.71455 0.88676 0.0
C645 C 0.48043 0.71305 0.9356 0.0
C646 C 0.28922 0.78034 0.86482 0.0
C647 C 0.25872 0.76171 0.89691 0.0
H648 H 0.35342 0.81512 0.85078 0.0
C649 C 0.27016 0.76773 0.94103 0.0
H650 H 0.2811 0.77652 0.83054 0.0
C651 C 0.31173 0.78888 0.95273 0.0
C652 C 0.34261 0.80479 0.92049 0.0
H653 H 0.2472 0.75352 0.96645 0.0
H654 H 0.31939 0.79049 0.98692 0.0
C655 C 0.33073 0.80202 0.8765 0.0
C656 C 0.2266 0.54971 0.92746 0.0
C657 C 0.22257 0.57344 0.8943 0.0
H658 H 0.24994 0.50996 0.9459 0.0
C659 C 0.23689 0.5722 0.85224 0.0
H660 H 0.21512 0.54925 0.95998 0.0
C661 C 0.25652 0.54935 0.8441 0.0
C662 C 0.26218 0.52722 0.87781 0.0
H663 H 0.23451 0.59018 0.82598 0.0
H664 H 0.26847 0.55016 0.81169 0.0
C665 C 0.24623 0.52689 0.91932 0.0
C666 C 0.3065 0.52758 0.5374 0.0
C667 C 0.33585 0.55303 0.56858 0.0
H668 H 0.24279 0.48604 0.52348 0.0
C669 C 0.32288 0.5519 0.61194 0.0
H670 H 0.31537 0.52669 0.50401 0.0
C671 C 0.28148 0.52797 0.6232 0.0
C672 C 0.25194 0.50473 0.59143 0.0
H673 H 0.34413 0.57075 0.63715 0.0
H674 H 0.27243 0.52937 0.65646 0.0
C675 C 0.26492 0.50372 0.5487 0.0
C676 C 0.47131 0.79558 0.6219 0.0
C677 C 0.43476 0.78588 0.59981 0.0
H678 H 0.51748 0.77888 0.63295 0.0
C679 C 0.42263 0.75914 0.56376 0.0
H680 H 0.48104 0.81621 0.64977 0.0
C681 C 0.44378 0.73803 0.55383 0.0
C682 C 0.4771 0.74392 0.57985 0.0
H683 H 0.39425 0.75101 0.54674 0.0
H684 H 0.43131 0.71387 0.52929 0.0
C685 C 0.49218 0.77445 0.61221 0.0
C686 C 0.22417 0.71254 0.58038 0.0
C687 C 0.24148 0.72592 0.62195 0.0
H688 H 0.19379 0.66192 0.53615 0.0
C689 C 0.23799 0.69658 0.65269 0.0
H690 H 0.22612 0.73448 0.55611 0.0
C691 C 0.22008 0.65489 0.64095 0.0
C692 C 0.2052 0.64186 0.5983 0.0
H693 H 0.25135 0.7061 0.6849 0.0
H694 H 0.21981 0.63342 0.66471 0.0
C695 C 0.20613 0.67099 0.56874 0.0
loop_
_geom_bond_atom_site_label_1
_geom_bond_atom_site_label_2
_geom_bond_distance
_geom_bond_site_symmetry_2
_ccdc_geom_bond_type
Co0 N4 2.148 . S
Co0 N10 2.128 . S
Co0 N20 2.194 . S
Co0 O25 2.351 . S
Co0 O26 2.155 . S
Co0 O27 2.096 . S
C1 N4 1.301 . S
C1 N5 1.328 . S
C1 H6 0.930 1_554 S
C2 C3 1.333 . S
C2 N4 1.317 . S
C2 H7 0.930 . S
C3 C2 1.333 . S
C3 N5 1.350 . S
C3 H29 0.931 . S
N4 Co0 2.148 . S
N4 C1 1.301 . S
N4 C2 1.317 . S
N5 C1 1.328 . S
N5 C3 1.350 . S
H6 C1 0.930 1_556 S
H7 C2 0.930 . S
C8 O9 1.224 . S
C8 O27 1.247 . S
O9 C8 1.224 . S
N10 Co0 2.128 . S
N10 C11 1.355 . S
N10 C13 1.311 . S
C11 N10 1.355 . S
C11 C12 1.363 . S
C11 H23 0.929 . S
C12 C11 1.363 . S
C12 N14 1.375 . S
C12 H30 0.931 . S
C13 N10 1.311 . S
C13 N14 1.347 . S
C13 H24 0.929 . S
N14 C12 1.375 . S
N14 C13 1.347 . S
C15 C18 1.365 1_554 S
C15 N20 1.328 . S
C15 H21 0.929 1_554 S
C16 C17 1.362 . S
C16 C19 1.378 . S
C16 H31 0.929 . S
C17 C16 1.362 . S
C17 C18 1.366 1_554 S
C18 C15 1.365 1_556 S
C18 C17 1.366 1_556 S
C18 H32 0.930 . S
C19 C16 1.378 . S
C19 N20 1.315 . S
C19 H22 0.930 . S
N20 Co0 2.194 . S
N20 C15 1.328 . S
N20 C19 1.315 . S
H21 C15 0.929 1_556 S
H22 C19 0.930 . S
H23 C11 0.929 . S
H24 C13 0.929 . S
O25 Co0 2.351 . S
O25 C28 1.244 . S
O26 Co0 2.155 . S
O26 C28 1.240 . S
O27 Co0 2.096 . S
O27 C8 1.247 . S
C28 O25 1.244 . S
C28 O26 1.240 . S
H29 C3 0.931 . S
H30 C12 0.931 . S
H31 C16 0.929 . S
H32 C18 0.930 . S
Co33 N37 2.148 . S
Co33 N43 2.128 . S
Co33 N53 2.194 . S
Co33 O58 2.351 . S
Co33 O59 2.155 . S
Co33 O60 2.096 . S
C34 N37 1.301 . S
C34 N38 1.328 . S
C34 H39 0.930 1_554 S
C35 C36 1.333 . S
C35 N37 1.317 . S
C35 H40 0.930 . S
C36 C35 1.333 . S
C36 N38 1.350 . S
C36 H62 0.931 . S
N37 Co33 2.148 . S
N37 C34 1.301 . S
N37 C35 1.317 . S
N38 C34 1.328 . S
N38 C36 1.350 . S
H39 C34 0.930 1_556 S
H40 C35 0.930 . S
C41 O42 1.224 . S
C41 O60 1.247 . S
O42 C41 1.224 . S
N43 Co33 2.128 . S
N43 C44 1.355 . S
N43 C46 1.311 . S
C44 N43 1.355 . S
C44 C45 1.363 . S
C44 H56 0.929 . S
C45 C44 1.363 . S
C45 N47 1.375 . S
C45 H63 0.931 . S
C46 N43 1.311 . S
C46 N47 1.347 . S
C46 H57 0.929 . S
N47 C45 1.375 . S
N47 C46 1.347 . S
C48 C51 1.365 1_554 S
C48 N53 1.328 . S
C48 H54 0.929 1_554 S
C49 C50 1.362 . S
C49 C52 1.378 . S
C49 H64 0.929 . S
C50 C49 1.362 . S
C50 C51 1.366 1_554 S
C51 C48 1.365 1_556 S
C51 C50 1.366 1_556 S
C51 H65 0.930 . S
C52 C49 1.378 . S
C52 N53 1.315 . S
C52 H55 0.930 . S
N53 Co33 2.194 . S
N53 C48 1.328 . S
N53 C52 1.315 . S
H54 C48 0.929 1_556 S
H55 C52 0.930 . S
H56 C44 0.929 . S
H57 C46 0.929 . S
O58 Co33 2.351 . S
O58 C61 1.244 . S
O59 Co33 2.155 . S
O59 C61 1.240 . S
O60 Co33 2.096 . S
O60 C41 1.247 . S
C61 O58 1.244 . S
C61 O59 1.240 . S
H62 C36 0.931 . S
H63 C45 0.931 . S
H64 C49 0.929 . S
H65 C51 0.930 . S
Co66 N70 2.148 . S
Co66 N76 2.128 . S
Co66 N86 2.194 . S
Co66 O91 2.351 . S
Co66 O92 2.155 . S
Co66 O93 2.096 . S
C67 N70 1.301 . S
C67 N71 1.328 . S
C67 H72 0.930 1_554 S
C68 C69 1.333 . S
C68 N70 1.317 . S
C68 H73 0.930 . S
C69 C68 1.333 . S
C69 N71 1.350 . S
C69 H95 0.931 . S
N70 Co66 2.148 . S
N70 C67 1.301 . S
N70 C68 1.317 . S
N71 C67 1.328 . S
N71 C69 1.350 . S
H72 C67 0.930 1_556 S
H73 C68 0.930 . S
C74 O75 1.224 . S
C74 O93 1.247 . S
O75 C74 1.224 . S
N76 Co66 2.128 . S
N76 C77 1.355 . S
N76 C79 1.311 . S
C77 N76 1.355 . S
C77 C78 1.363 . S
C77 H89 0.929 . S
C78 C77 1.363 . S
C78 N80 1.375 . S
C78 H96 0.931 . S
C79 N76 1.311 . S
C79 N80 1.347 . S
C79 H90 0.929 . S
N80 C78 1.375 . S
N80 C79 1.347 . S
C81 C84 1.365 1_554 S
C81 N86 1.328 . S
C81 H87 0.929 1_554 S
C82 C83 1.362 . S
C82 C85 1.378 . S
C82 H97 0.929 . S
C83 C82 1.362 . S
C83 C84 1.366 1_554 S
C84 C81 1.365 1_556 S
C84 C83 1.366 1_556 S
C84 H98 0.930 . S
C85 C82 1.378 . S
C85 N86 1.315 . S
C85 H88 0.930 . S
N86 Co66 2.194 . S
N86 C81 1.328 . S
N86 C85 1.315 . S
H87 C81 0.929 1_556 S
H88 C85 0.930 . S
H89 C77 0.929 . S
H90 C79 0.929 . S
O91 Co66 2.351 . S
O91 C94 1.244 . S
O92 Co66 2.155 . S
O92 C94 1.240 . S
O93 Co66 2.096 . S
O93 C74 1.247 . S
C94 O91 1.244 . S
C94 O92 1.240 . S
H95 C69 0.931 . S
H96 C78 0.931 . S
H97 C82 0.929 . S
H98 C84 0.930 . S
Co99 N103 2.148 . S
Co99 N109 2.128 . S
Co99 N119 2.194 . S
Co99 O124 2.351 . S
Co99 O125 2.155 . S
Co99 O126 2.096 . S
C100 N103 1.301 . S
C100 N104 1.328 . S
C100 H105 0.930 . S
C101 C102 1.333 . S
C101 N103 1.317 . S
C101 H106 0.930 . S
C102 C101 1.333 . S
C102 N104 1.350 . S
C102 H128 0.931 . S
N103 Co99 2.148 . S
N103 C100 1.301 . S
N103 C101 1.317 . S
N104 C100 1.328 . S
N104 C102 1.350 . S
H105 C100 0.930 . S
H106 C101 0.930 . S
C107 O108 1.224 . S
C107 O126 1.247 . S
O108 C107 1.224 . S
N109 Co99 2.128 . S
N109 C110 1.355 . S
N109 C112 1.311 . S
C110 N109 1.355 . S
C110 C111 1.363 . S
C110 H122 0.929 . S
C111 C110 1.363 . S
C111 N113 1.375 . S
C111 H129 0.931 . S
C112 N109 1.311 . S
C112 N113 1.347 . S
C112 H123 0.929 . S
N113 C111 1.375 . S
N113 C112 1.347 . S
C114 C117 1.365 . S
C114 N119 1.328 . S
C114 H120 0.929 . S
C115 C116 1.362 . S
C115 C118 1.378 . S
C115 H130 0.929 . S
C116 C115 1.362 . S
C116 C117 1.366 . S
C117 C114 1.365 . S
C117 C116 1.366 . S
C117 H131 0.930 . S
C118 C115 1.378 . S
C118 N119 1.315 . S
C118 H121 0.930 . S
N119 Co99 2.194 . S
N119 C114 1.328 . S
N119 C118 1.315 . S
H120 C114 0.929 . S
H121 C118 0.930 . S
H122 C110 0.929 . S
H123 C112 0.929 . S
O124 Co99 2.351 . S
O124 C127 1.244 . S
O125 Co99 2.155 . S
O125 C127 1.240 . S
O126 Co99 2.096 . S
O126 C107 1.247 . S
C127 O124 1.244 . S
C127 O125 1.240 . S
H128 C102 0.931 . S
H129 C111 0.931 . S
H130 C115 0.929 . S
H131 C117 0.930 . S
Co132 N136 2.148 . S
Co132 N142 2.128 . S
Co132 N152 2.194 . S
Co132 O157 2.351 . S
Co132 O158 2.155 . S
Co132 O159 2.096 . S
C133 N136 1.301 . S
C133 N137 1.328 . S
C133 H138 0.930 . S
C134 C135 1.333 . S
C134 N136 1.317 . S
C134 H139 0.930 . S
C135 C134 1.333 . S
C135 N137 1.350 . S
C135 H161 0.931 . S
N136 Co132 2.148 . S
N136 C133 1.301 . S
N136 C134 1.317 . S
N137 C133 1.328 . S
N137 C135 1.350 . S
H138 C133 0.930 . S
H139 C134 0.930 . S
C140 O141 1.224 . S
C140 O159 1.247 . S
O141 C140 1.224 . S
N142 Co132 2.128 . S
N142 C143 1.355 . S
N142 C145 1.311 . S
C143 N142 1.355 . S
C143 C144 1.363 . S
C143 H155 0.929 . S
C144 C143 1.363 . S
C144 N146 1.375 . S
C144 H162 0.931 . S
C145 N142 1.311 . S
C145 N146 1.347 . S
C145 H156 0.929 . S
N146 C144 1.375 . S
N146 C145 1.347 . S
C147 C150 1.365 . S
C147 N152 1.328 . S
C147 H153 0.929 . S
C148 C149 1.362 . S
C148 C151 1.378 . S
C148 H163 0.929 . S
C149 C148 1.362 . S
C149 C150 1.366 . S
C150 C147 1.365 . S
C150 C149 1.366 . S
C150 H164 0.930 . S
C151 C148 1.378 . S
C151 N152 1.315 . S
C151 H154 0.930 . S
N152 Co132 2.194 . S
N152 C147 1.328 . S
N152 C151 1.315 . S
H153 C147 0.929 . S
H154 C151 0.930 . S
H155 C143 0.929 . S
H156 C145 0.929 . S
O157 Co132 2.351 . S
O157 C160 1.244 . S
O158 Co132 2.155 . S
O158 C160 1.240 . S
O159 Co132 2.096 . S
O159 C140 1.247 . S
C160 O157 1.244 . S
C160 O158 1.240 . S
H161 C135 0.931 . S
H162 C144 0.931 . S
H163 C148 0.929 . S
H164 C150 0.930 . S
Co165 N169 2.148 . S
Co165 N175 2.128 . S
Co165 N185 2.194 . S
Co165 O190 2.351 . S
Co165 O191 2.155 . S
Co165 O192 2.096 . S
C166 N169 1.301 . S
C166 N170 1.328 . S
C166 H171 0.930 . S
C167 C168 1.333 . S
C167 N169 1.317 . S
C167 H172 0.930 . S
C168 C167 1.333 . S
C168 N170 1.350 . S
C168 H194 0.931 . S
N169 Co165 2.148 . S
N169 C166 1.301 . S
N169 C167 1.317 . S
N170 C166 1.328 . S
N170 C168 1.350 . S
H171 C166 0.930 . S
H172 C167 0.930 . S
C173 O174 1.224 . S
C173 O192 1.247 . S
O174 C173 1.224 . S
N175 Co165 2.128 . S
N175 C176 1.355 . S
N175 C178 1.311 . S
C176 N175 1.355 . S
C176 C177 1.363 . S
C176 H188 0.929 . S
C177 C176 1.363 . S
C177 N179 1.375 . S
C177 H195 0.931 . S
C178 N175 1.311 . S
C178 N179 1.347 . S
C178 H189 0.929 . S
N179 C177 1.375 . S
N179 C178 1.347 . S
C180 C183 1.365 . S
C180 N185 1.328 . S
C180 H186 0.929 . S
C181 C182 1.362 . S
C181 C184 1.378 . S
C181 H196 0.929 . S
C182 C181 1.362 . S
C182 C183 1.366 . S
C183 C180 1.365 . S
C183 C182 1.366 . S
C183 H197 0.930 . S
C184 C181 1.378 . S
C184 N185 1.315 . S
C184 H187 0.930 . S
N185 Co165 2.194 . S
N185 C180 1.328 . S
N185 C184 1.315 . S
H186 C180 0.929 . S
H187 C184 0.930 . S
H188 C176 0.929 . S
H189 C178 0.929 . S
O190 Co165 2.351 . S
O190 C193 1.244 . S
O191 Co165 2.155 . S
O191 C193 1.240 . S
O192 Co165 2.096 . S
O192 C173 1.247 . S
C193 O190 1.244 . S
C193 O191 1.240 . S
H194 C168 0.931 . S
H195 C177 0.931 . S
H196 C181 0.929 . S
H197 C183 0.930 . S
Co198 N202 2.148 . S
Co198 N208 2.128 . S
Co198 N218 2.194 . S
Co198 O223 2.351 . S
Co198 O224 2.155 . S
Co198 O225 2.096 . S
C199 N202 1.301 . S
C199 N203 1.328 . S
C199 H204 0.930 1_556 S
C200 C201 1.333 . S
C200 N202 1.317 . S
C200 H205 0.930 . S
C201 C200 1.333 . S
C201 N203 1.350 . S
C201 H227 0.931 . S
N202 Co198 2.148 . S
N202 C199 1.301 . S
N202 C200 1.317 . S
N203 C199 1.328 . S
N203 C201 1.350 . S
H204 C199 0.930 1_554 S
H205 C200 0.930 . S
C206 O207 1.224 . S
C206 O225 1.247 . S
O207 C206 1.224 . S
N208 Co198 2.128 . S
N208 C209 1.355 . S
N208 C211 1.311 . S
C209 N208 1.355 . S
C209 C210 1.363 . S
C209 H221 0.929 . S
C210 C209 1.363 . S
C210 N212 1.375 . S
C210 H228 0.931 . S
C211 N208 1.311 . S
C211 N212 1.347 . S
C211 H222 0.929 . S
N212 C210 1.375 . S
N212 C211 1.347 . S
C213 C216 1.365 1_556 S
C213 N218 1.328 . S
C213 H219 0.929 1_556 S
C214 C215 1.362 . S
C214 C217 1.378 . S
C214 H229 0.929 . S
C215 C214 1.362 . S
C215 C216 1.366 1_556 S
C216 C213 1.365 1_554 S
C216 C215 1.366 1_554 S
C216 H230 0.930 . S
C217 C214 1.378 . S
C217 N218 1.315 . S
C217 H220 0.930 . S
N218 Co198 2.194 . S
N218 C213 1.328 . S
N218 C217 1.315 . S
H219 C213 0.929 1_554 S
H220 C217 0.930 . S
H221 C209 0.929 . S
H222 C211 0.929 . S
O223 Co198 2.351 . S
O223 C226 1.244 . S
O224 Co198 2.155 . S
O224 C226 1.240 . S
O225 Co198 2.096 . S
O225 C206 1.247 . S
C226 O223 1.244 . S
C226 O224 1.240 . S
H227 C201 0.931 . S
H228 C210 0.931 . S
H229 C214 0.929 . S
H230 C216 0.930 . S
Co231 N235 2.148 . S
Co231 N241 2.128 . S
Co231 N251 2.194 . S
Co231 O256 2.351 . S
Co231 O257 2.155 . S
Co231 O258 2.096 . S
C232 N235 1.301 . S
C232 N236 1.328 . S
C232 H237 0.930 1_556 S
C233 C234 1.333 . S
C233 N235 1.317 . S
C233 H238 0.930 . S
C234 C233 1.333 . S
C234 N236 1.350 . S
C234 H260 0.931 . S
N235 Co231 2.148 . S
N235 C232 1.301 . S
N235 C233 1.317 . S
N236 C232 1.328 . S
N236 C234 1.350 . S
H237 C232 0.930 1_554 S
H238 C233 0.930 . S
C239 O240 1.224 . S
C239 O258 1.247 . S
O240 C239 1.224 . S
N241 Co231 2.128 . S
N241 C242 1.355 . S
N241 C244 1.311 . S
C242 N241 1.355 . S
C242 C243 1.363 . S
C242 H254 0.929 . S
C243 C242 1.363 . S
C243 N245 1.375 . S
C243 H261 0.931 . S
C244 N241 1.311 . S
C244 N245 1.347 . S
C244 H255 0.929 . S
N245 C243 1.375 . S
N245 C244 1.347 . S
C246 C249 1.365 1_556 S
C246 N251 1.328 . S
C246 H252 0.929 1_556 S
C247 C248 1.362 . S
C247 C250 1.378 . S
C247 H262 0.929 . S
C248 C247 1.362 . S
C248 C249 1.366 1_556 S
C249 C246 1.365 1_554 S
C249 C248 1.366 1_554 S
C249 H263 0.930 . S
C250 C247 1.378 . S
C250 N251 1.315 . S
C250 H253 0.930 . S
N251 Co231 2.194 . S
N251 C246 1.328 . S
N251 C250 1.315 . S
H252 C246 0.929 1_554 S
H253 C250 0.930 . S
H254 C242 0.929 . S
H255 C244 0.929 . S
O256 Co231 2.351 . S
O256 C259 1.244 . S
O257 Co231 2.155 . S
O257 C259 1.240 . S
O258 Co231 2.096 . S
O258 C239 1.247 . S
C259 O256 1.244 . S
C259 O257 1.240 . S
H260 C234 0.931 . S
H261 C243 0.931 . S
H262 C247 0.929 . S
H263 C249 0.930 . S
Co264 N268 2.148 . S
Co264 N274 2.128 . S
Co264 N284 2.194 . S
Co264 O289 2.351 . S
Co264 O290 2.155 . S
Co264 O291 2.096 . S
C265 N268 1.301 . S
C265 N269 1.328 . S
C265 H270 0.930 1_556 S
C266 C267 1.333 . S
C266 N268 1.317 . S
C266 H271 0.930 . S
C267 C266 1.333 . S
C267 N269 1.350 . S
C267 H293 0.931 . S
N268 Co264 2.148 . S
N268 C265 1.301 . S
N268 C266 1.317 . S
N269 C265 1.328 . S
N269 C267 1.350 . S
H270 C265 0.930 1_554 S
H271 C266 0.930 . S
C272 O273 1.224 . S
C272 O291 1.247 . S
O273 C272 1.224 . S
N274 Co264 2.128 . S
N274 C275 1.355 . S
N274 C277 1.311 . S
C275 N274 1.355 . S
C275 C276 1.363 . S
C275 H287 0.929 . S
C276 C275 1.363 . S
C276 N278 1.375 . S
C276 H294 0.931 . S
C277 N274 1.311 . S
C277 N278 1.347 . S
C277 H288 0.929 . S
N278 C276 1.375 . S
N278 C277 1.347 . S
C279 C282 1.365 1_556 S
C279 N284 1.328 . S
C279 H285 0.929 1_556 S
C280 C281 1.362 . S
C280 C283 1.378 . S
C280 H295 0.929 . S
C281 C280 1.362 . S
C281 C282 1.366 1_556 S
C282 C279 1.365 1_554 S
C282 C281 1.366 1_554 S
C282 H296 0.930 . S
C283 C280 1.378 . S
C283 N284 1.315 . S
C283 H286 0.930 . S
N284 Co264 2.194 . S
N284 C279 1.328 . S
N284 C283 1.315 . S
H285 C279 0.929 1_554 S
H286 C283 0.930 . S
H287 C275 0.929 . S
H288 C277 0.929 . S
O289 Co264 2.351 . S
O289 C292 1.244 . S
O290 Co264 2.155 . S
O290 C292 1.240 . S
O291 Co264 2.096 . S
O291 C272 1.247 . S
C292 O289 1.244 . S
C292 O290 1.240 . S
H293 C267 0.931 . S
H294 C276 0.931 . S
H295 C280 0.929 . S
H296 C282 0.930 . S
Co297 N301 2.148 . S
Co297 N307 2.128 . S
Co297 N317 2.194 . S
Co297 O322 2.351 . S
Co297 O323 2.155 . S
Co297 O324 2.096 . S
C298 N301 1.301 . S
C298 N302 1.328 . S
C298 H303 0.930 . S
C299 C300 1.333 . S
C299 N301 1.317 . S
C299 H304 0.930 . S
C300 C299 1.333 . S
C300 N302 1.350 . S
C300 H326 0.931 . S
N301 Co297 2.148 . S
N301 C298 1.301 . S
N301 C299 1.317 . S
N302 C298 1.328 . S
N302 C300 1.350 . S
H303 C298 0.930 . S
H304 C299 0.930 . S
C305 O306 1.224 . S
C305 O324 1.247 . S
O306 C305 1.224 . S
N307 Co297 2.128 . S
N307 C308 1.355 . S
N307 C310 1.311 . S
C308 N307 1.355 . S
C308 C309 1.363 . S
C308 H320 0.929 . S
C309 C308 1.363 . S
C309 N311 1.375 . S
C309 H327 0.931 . S
C310 N307 1.311 . S
C310 N311 1.347 . S
C310 H321 0.929 . S
N311 C309 1.375 . S
N311 C310 1.347 . S
C312 C315 1.365 . S
C312 N317 1.328 . S
C312 H318 0.929 . S
C313 C314 1.362 . S
C313 C316 1.378 . S
C313 H328 0.929 . S
C314 C313 1.362 . S
C314 C315 1.366 . S
C315 C312 1.365 . S
C315 C314 1.366 . S
C315 H329 0.930 . S
C316 C313 1.378 . S
C316 N317 1.315 . S
C316 H319 0.930 . S
N317 Co297 2.194 . S
N317 C312 1.328 . S
N317 C316 1.315 . S
H318 C312 0.929 . S
H319 C316 0.930 . S
H320 C308 0.929 . S
H321 C310 0.929 . S
O322 Co297 2.351 . S
O322 C325 1.244 . S
O323 Co297 2.155 . S
O323 C325 1.240 . S
O324 Co297 2.096 . S
O324 C305 1.247 . S
C325 O322 1.244 . S
C325 O323 1.240 . S
H326 C300 0.931 . S
H327 C309 0.931 . S
H328 C313 0.929 . S
H329 C315 0.930 . S
Co330 N334 2.148 . S
Co330 N340 2.128 . S
Co330 N350 2.194 . S
Co330 O355 2.351 . S
Co330 O356 2.155 . S
Co330 O357 2.096 . S
C331 N334 1.301 . S
C331 N335 1.328 . S
C331 H336 0.930 . S
C332 C333 1.333 . S
C332 N334 1.317 . S
C332 H337 0.930 . S
C333 C332 1.333 . S
C333 N335 1.350 . S
C333 H359 0.931 . S
N334 Co330 2.148 . S
N334 C331 1.301 . S
N334 C332 1.317 . S
N335 C331 1.328 . S
N335 C333 1.350 . S
H336 C331 0.930 . S
H337 C332 0.930 . S
C338 O339 1.224 . S
C338 O357 1.247 . S
O339 C338 1.224 . S
N340 Co330 2.128 . S
N340 C341 1.355 . S
N340 C343 1.311 . S
C341 N340 1.355 . S
C341 C342 1.363 . S
C341 H353 0.929 . S
C342 C341 1.363 . S
C342 N344 1.375 . S
C342 H360 0.931 . S
C343 N340 1.311 . S
C343 N344 1.347 . S
C343 H354 0.929 . S
N344 C342 1.375 . S
N344 C343 1.347 . S
C345 C348 1.365 . S
C345 N350 1.328 . S
C345 H351 0.929 . S
C346 C347 1.362 . S
C346 C349 1.378 . S
C346 H361 0.929 . S
C347 C346 1.362 . S
C347 C348 1.366 . S
C348 C345 1.365 . S
C348 C347 1.366 . S
C348 H362 0.930 . S
C349 C346 1.378 . S
C349 N350 1.315 . S
C349 H352 0.930 . S
N350 Co330 2.194 . S
N350 C345 1.328 . S
N350 C349 1.315 . S
H351 C345 0.929 . S
H352 C349 0.930 . S
H353 C341 0.929 . S
H354 C343 0.929 . S
O355 Co330 2.351 . S
O355 C358 1.244 . S
O356 Co330 2.155 . S
O356 C358 1.240 . S
O357 Co330 2.096 . S
O357 C338 1.247 . S
C358 O355 1.244 . S
C358 O356 1.240 . S
H359 C333 0.931 . S
H360 C342 0.931 . S
H361 C346 0.929 . S
H362 C348 0.930 . S
Co363 N367 2.148 . S
Co363 N373 2.128 . S
Co363 N383 2.194 . S
Co363 O388 2.351 . S
Co363 O389 2.155 . S
Co363 O390 2.096 . S
C364 N367 1.301 . S
C364 N368 1.328 . S
C364 H369 0.930 . S
C365 C366 1.333 . S
C365 N367 1.317 . S
C365 H370 0.930 . S
C366 C365 1.333 . S
C366 N368 1.350 . S
C366 H392 0.931 . S
N367 Co363 2.148 . S
N367 C364 1.301 . S
N367 C365 1.317 . S
N368 C364 1.328 . S
N368 C366 1.350 . S
H369 C364 0.930 . S
H370 C365 0.930 . S
C371 O372 1.224 . S
C371 O390 1.247 . S
O372 C371 1.224 . S
N373 Co363 2.128 . S
N373 C374 1.355 . S
N373 C376 1.311 . S
C374 N373 1.355 . S
C374 C375 1.363 . S
C374 H386 0.929 . S
C375 C374 1.363 . S
C375 N377 1.375 . S
C375 H393 0.931 . S
C376 N373 1.311 . S
C376 N377 1.347 . S
C376 H387 0.929 . S
N377 C375 1.375 . S
N377 C376 1.347 . S
C378 C381 1.365 . S
C378 N383 1.328 . S
C378 H384 0.929 . S
C379 C380 1.362 . S
C379 C382 1.378 . S
C379 H394 0.929 . S
C380 C379 1.362 . S
C380 C381 1.366 . S
C381 C378 1.365 . S
C381 C380 1.366 . S
C381 H395 0.930 . S
C382 C379 1.378 . S
C382 N383 1.315 . S
C382 H385 0.930 . S
N383 Co363 2.194 . S
N383 C378 1.328 . S
N383 C382 1.315 . S
H384 C378 0.929 . S
H385 C382 0.930 . S
H386 C374 0.929 . S
H387 C376 0.929 . S
O388 Co363 2.351 . S
O388 C391 1.244 . S
O389 Co363 2.155 . S
O389 C391 1.240 . S
O390 Co363 2.096 . S
O390 C371 1.247 . S
C391 O388 1.244 . S
C391 O389 1.240 . S
H392 C366 0.931 . S
H393 C375 0.931 . S
H394 C379 0.929 . S
H395 C381 0.930 . S
C396 C397 1.387 . S
C396 H400 0.950 . S
C396 C405 1.390 . S
C397 C396 1.387 . S
C397 C399 1.387 . S
H398 C405 0.950 . S
C399 C397 1.387 . S
C399 C401 1.390 . S
C399 H403 0.950 . S
H400 C396 0.950 . S
C401 C399 1.390 . S
C401 C402 1.387 . S
C401 H404 0.950 . S
C402 C401 1.387 . S
C402 C405 1.387 . S
H403 C399 0.950 . S
H404 C401 0.950 . S
C405 C396 1.390 . S
C405 H398 0.950 . S
C405 C402 1.387 . S
C406 C407 1.387 . S
C406 H410 0.950 . S
C406 C415 1.390 . S
C407 C406 1.387 . S
C407 C409 1.387 . S
H408 C415 0.950 . S
C409 C407 1.387 . S
C409 C411 1.390 . S
C409 H413 0.950 . S
H410 C406 0.950 . S
C411 C409 1.390 . S
C411 C412 1.387 . S
C411 H414 0.950 . S
C412 C411 1.387 . S
C412 C415 1.387 . S
H413 C409 0.950 . S
H414 C411 0.950 . S
C415 C406 1.390 . S
C415 H408 0.950 . S
C415 C412 1.387 . S
C416 C417 1.387 . S
C416 H420 0.950 . S
C416 C425 1.390 . S
C417 C416 1.387 . S
C417 C419 1.387 . S
H418 C425 0.950 . S
C419 C417 1.387 . S
C419 C421 1.390 . S
C419 H423 0.950 . S
H420 C416 0.950 . S
C421 C419 1.390 . S
C421 C422 1.387 . S
C421 H424 0.950 . S
C422 C421 1.387 . S
C422 C425 1.387 . S
H423 C419 0.950 . S
H424 C421 0.950 . S
C425 C416 1.390 . S
C425 H418 0.950 . S
C425 C422 1.387 . S
C426 C427 1.387 . S
C426 H430 0.950 . S
C426 C435 1.390 . S
C427 C426 1.387 . S
C427 C429 1.387 . S
H428 C435 0.950 . S
C429 C427 1.387 . S
C429 C431 1.390 . S
C429 H433 0.950 . S
H430 C426 0.950 . S
C431 C429 1.390 . S
C431 C432 1.387 . S
C431 H434 0.950 . S
C432 C431 1.387 . S
C432 C435 1.387 . S
H433 C429 0.950 . S
H434 C431 0.950 . S
C435 C426 1.390 . S
C435 H428 0.950 . S
C435 C432 1.387 . S
C436 C437 1.387 . S
C436 H440 0.950 . S
C436 C445 1.390 . S
C437 C436 1.387 . S
C437 C439 1.387 . S
H438 C445 0.950 . S
C439 C437 1.387 . S
C439 C441 1.390 . S
C439 H443 0.950 . S
H440 C436 0.950 . S
C441 C439 1.390 . S
C441 C442 1.387 . S
C441 H444 0.950 . S
C442 C441 1.387 . S
C442 C445 1.387 . S
H443 C439 0.950 . S
H444 C441 0.950 . S
C445 C436 1.390 . S
C445 H438 0.950 . S
C445 C442 1.387 . S
C446 C447 1.387 . S
C446 H450 0.950 . S
C446 C455 1.390 . S
C447 C446 1.387 . S
C447 C449 1.387 . S
H448 C455 0.950 . S
C449 C447 1.387 . S
C449 C451 1.390 . S
C449 H453 0.950 . S
H450 C446 0.950 . S
C451 C449 1.390 . S
C451 C452 1.387 . S
C451 H454 0.950 . S
C452 C451 1.387 . S
C452 C455 1.387 . S
H453 C449 0.950 . S
H454 C451 0.950 . S
C455 C446 1.390 . S
C455 H448 0.950 . S
C455 C452 1.387 . S
C456 C457 1.387 1_554 S
C456 H460 0.950 . S
C456 C465 1.390 . S
C457 C456 1.387 1_556 S
C457 C459 1.387 1_545 S
H458 C465 0.950 . S
C459 C457 1.387 1_565 S
C459 C461 1.390 . S
C459 H463 0.950 . S
H460 C456 0.950 . S
C461 C459 1.390 . S
C461 C462 1.387 1_556 S
C461 H464 0.950 . S
C462 C461 1.387 1_554 S
C462 C465 1.387 1_565 S
H463 C459 0.950 . S
H464 C461 0.950 . S
C465 C456 1.390 . S
C465 H458 0.950 . S
C465 C462 1.387 1_545 S
C466 C467 1.387 . S
C466 H470 0.950 . S
C466 C475 1.390 1_655 S
C467 C466 1.387 . S
C467 C469 1.387 1_556 S
H468 C475 0.950 . S
C469 C467 1.387 1_554 S
C469 C471 1.390 1_655 S
C469 H473 0.950 . S
H470 C466 0.950 . S
C471 C469 1.390 1_455 S
C471 C472 1.387 . S
C471 H474 0.950 . S
C472 C471 1.387 . S
C472 C475 1.387 1_554 S
H473 C469 0.950 . S
H474 C471 0.950 . S
C475 C466 1.390 1_455 S
C475 H468 0.950 . S
C475 C472 1.387 1_556 S
C476 C477 1.387 1_556 S
C476 H480 0.950 . S
C476 C485 1.390 . S
C477 C476 1.387 1_554 S
C477 C479 1.387 . S
H478 C485 0.950 . S
C479 C477 1.387 . S
C479 C481 1.390 . S
C479 H483 0.950 . S
H480 C476 0.950 . S
C481 C479 1.390 . S
C481 C482 1.387 1_554 S
C481 H484 0.950 . S
C482 C481 1.387 1_556 S
C482 C485 1.387 . S
H483 C479 0.950 . S
H484 C481 0.950 . S
C485 C476 1.390 . S
C485 H478 0.950 . S
C485 C482 1.387 . S
C486 C487 1.387 . S
C486 H490 0.950 . S
C486 C495 1.390 1_455 S
C487 C486 1.387 . S
C487 C489 1.387 . S
H488 C495 0.950 . S
C489 C487 1.387 . S
C489 C491 1.390 1_455 S
C489 H493 0.950 . S
H490 C486 0.950 . S
C491 C489 1.390 1_655 S
C491 C492 1.387 . S
C491 H494 0.950 . S
C492 C491 1.387 . S
C492 C495 1.387 . S
H493 C489 0.950 . S
H494 C491 0.950 . S
C495 C486 1.390 1_655 S
C495 H488 0.950 . S
C495 C492 1.387 . S
C496 C497 1.387 . S
C496 H500 0.950 . S
C496 C505 1.390 . S
C497 C496 1.387 . S
C497 C499 1.387 . S
H498 C505 0.950 . S
C499 C497 1.387 . S
C499 C501 1.390 . S
C499 H503 0.950 . S
H500 C496 0.950 . S
C501 C499 1.390 . S
C501 C502 1.387 . S
C501 H504 0.950 . S
C502 C501 1.387 . S
C502 C505 1.387 . S
H503 C499 0.950 . S
H504 C501 0.950 . S
C505 C496 1.390 . S
C505 H498 0.950 . S
C505 C502 1.387 . S
C506 C507 1.387 1_565 S
C506 H510 0.950 . S
C506 C515 1.390 . S
C507 C506 1.387 1_545 S
C507 C509 1.387 . S
H508 C515 0.950 . S
C509 C507 1.387 . S
C509 C511 1.390 . S
C509 H513 0.950 . S
H510 C506 0.950 . S
C511 C509 1.390 . S
C511 C512 1.387 1_545 S
C511 H514 0.950 . S
C512 C511 1.387 1_565 S
C512 C515 1.387 . S
H513 C509 0.950 . S
H514 C511 0.950 . S
C515 C506 1.390 . S
C515 H508 0.950 . S
C515 C512 1.387 . S
C516 C517 1.387 . S
C516 H520 0.950 . S
C516 C525 1.390 . S
C517 C516 1.387 . S
C517 C519 1.387 . S
H518 C525 0.950 . S
C519 C517 1.387 . S
C519 C521 1.390 . S
C519 H523 0.950 . S
H520 C516 0.950 . S
C521 C519 1.390 . S
C521 C522 1.387 . S
C521 H524 0.950 . S
C522 C521 1.387 . S
C522 C525 1.387 . S
H523 C519 0.950 . S
H524 C521 0.950 . S
C525 C516 1.390 . S
C525 H518 0.950 . S
C525 C522 1.387 . S
C526 C527 1.387 . S
C526 H530 0.950 . S
C526 C535 1.390 . S
C527 C526 1.387 . S
C527 C529 1.387 . S
H528 C535 0.950 . S
C529 C527 1.387 . S
C529 C531 1.390 . S
C529 H533 0.950 . S
H530 C526 0.950 . S
C531 C529 1.390 . S
C531 C532 1.387 . S
C531 H534 0.950 . S
C532 C531 1.387 . S
C532 C535 1.387 . S
H533 C529 0.950 . S
H534 C531 0.950 . S
C535 C526 1.390 . S
C535 H528 0.950 . S
C535 C532 1.387 . S
C536 C537 1.387 . S
C536 H540 0.950 . S
C536 C545 1.390 . S
C537 C536 1.387 . S
C537 C539 1.387 . S
H538 C545 0.950 . S
C539 C537 1.387 . S
C539 C541 1.390 . S
C539 H543 0.950 . S
H540 C536 0.950 . S
C541 C539 1.390 . S
C541 C542 1.387 . S
C541 H544 0.950 . S
C542 C541 1.387 . S
C542 C545 1.387 . S
H543 C539 0.950 . S
H544 C541 0.950 . S
C545 C536 1.390 . S
C545 H538 0.950 . S
C545 C542 1.387 . S
C546 C547 1.387 . S
C546 H550 0.950 . S
C546 C555 1.390 . S
C547 C546 1.387 . S
C547 C549 1.387 . S
H548 C555 0.950 . S
C549 C547 1.387 . S
C549 C551 1.390 . S
C549 H553 0.950 . S
H550 C546 0.950 . S
C551 C549 1.390 . S
C551 C552 1.387 . S
C551 H554 0.950 . S
C552 C551 1.387 . S
C552 C555 1.387 . S
H553 C549 0.950 . S
H554 C551 0.950 . S
C555 C546 1.390 . S
C555 H548 0.950 . S
C555 C552 1.387 . S
C556 C557 1.387 . S
C556 H560 0.950 . S
C556 C565 1.390 . S
C557 C556 1.387 . S
C557 C559 1.387 . S
H558 C565 0.950 . S
C559 C557 1.387 . S
C559 C561 1.390 . S
C559 H563 0.950 . S
H560 C556 0.950 . S
C561 C559 1.390 . S
C561 C562 1.387 . S
C561 H564 0.950 . S
C562 C561 1.387 . S
C562 C565 1.387 . S
H563 C559 0.950 . S
H564 C561 0.950 . S
C565 C556 1.390 . S
C565 H558 0.950 . S
C565 C562 1.387 . S
C566 C567 1.387 . S
C566 H570 0.950 . S
C566 C575 1.390 . S
C567 C566 1.387 . S
C567 C569 1.387 . S
H568 C575 0.950 . S
C569 C567 1.387 . S
C569 C571 1.390 . S
C569 H573 0.950 . S
H570 C566 0.950 . S
C571 C569 1.390 . S
C571 C572 1.387 . S
C571 H574 0.950 . S
C572 C571 1.387 . S
C572 C575 1.387 . S
H573 C569 0.950 . S
H574 C571 0.950 . S
C575 C566 1.390 . S
C575 H568 0.950 . S
C575 C572 1.387 . S
C576 C577 1.387 . S
C576 H580 0.950 . S
C576 C585 1.390 . S
C577 C576 1.387 . S
C577 C579 1.387 1_554 S
H578 C585 0.950 . S
C579 C577 1.387 1_556 S
C579 C581 1.390 . S
C579 H583 0.950 . S
H580 C576 0.950 . S
C581 C579 1.390 . S
C581 C582 1.387 . S
C581 H584 0.950 . S
C582 C581 1.387 . S
C582 C585 1.387 1_556 S
H583 C579 0.950 . S
H584 C581 0.950 . S
C585 C576 1.390 . S
C585 H578 0.950 . S
C585 C582 1.387 1_554 S
C586 C587 1.387 . S
C586 H590 0.950 . S
C586 C595 1.390 1_554 S
C587 C586 1.387 . S
C587 C589 1.387 . S
H588 C595 0.950 . S
C589 C587 1.387 . S
C589 C591 1.390 . S
C589 H593 0.950 . S
H590 C586 0.950 . S
C591 C589 1.390 . S
C591 C592 1.387 1_554 S
C591 H594 0.950 . S
C592 C591 1.387 1_556 S
C592 C595 1.387 . S
H593 C589 0.950 . S
H594 C591 0.950 . S
C595 C586 1.390 1_556 S
C595 H588 0.950 . S
C595 C592 1.387 . S
C596 C597 1.387 1_554 S
C596 H600 0.950 . S
C596 C605 1.390 . S
C597 C596 1.387 1_556 S
C597 C599 1.387 . S
H598 C605 0.950 . S
C599 C597 1.387 . S
C599 C601 1.390 . S
C599 H603 0.950 . S
H600 C596 0.950 . S
C601 C599 1.390 . S
C601 C602 1.387 1_556 S
C601 H604 0.950 . S
C602 C601 1.387 1_554 S
C602 C605 1.387 . S
H603 C599 0.950 . S
H604 C601 0.950 . S
C605 C596 1.390 . S
C605 H598 0.950 . S
C605 C602 1.387 . S
C606 C607 1.387 . S
C606 H610 0.950 . S
C606 C615 1.390 . S
C607 C606 1.387 . S
C607 C609 1.387 . S
H608 C615 0.950 . S
C609 C607 1.387 . S
C609 C611 1.390 . S
C609 H613 0.950 . S
H610 C606 0.950 . S
C611 C609 1.390 . S
C611 C612 1.387 . S
C611 H614 0.950 . S
C612 C611 1.387 . S
C612 C615 1.387 . S
H613 C609 0.950 . S
H614 C611 0.950 . S
C615 C606 1.390 . S
C615 H608 0.950 . S
C615 C612 1.387 . S
C616 C617 1.387 . S
C616 H620 0.950 . S
C616 C625 1.390 . S
C617 C616 1.387 . S
C617 C619 1.387 . S
H618 C625 0.950 . S
C619 C617 1.387 . S
C619 C621 1.390 . S
C619 H623 0.950 . S
H620 C616 0.950 . S
C621 C619 1.390 . S
C621 C622 1.387 . S
C621 H624 0.950 . S
C622 C621 1.387 . S
C622 C625 1.387 . S
H623 C619 0.950 . S
H624 C621 0.950 . S
C625 C616 1.390 . S
C625 H618 0.950 . S
C625 C622 1.387 . S
C626 C627 1.387 . S
C626 H630 0.950 . S
C626 C635 1.390 . S
C627 C626 1.387 . S
C627 C629 1.387 . S
H628 C635 0.950 . S
C629 C627 1.387 . S
C629 C631 1.390 . S
C629 H633 0.950 . S
H630 C626 0.950 . S
C631 C629 1.390 . S
C631 C632 1.387 . S
C631 H634 0.950 . S
C632 C631 1.387 . S
C632 C635 1.387 . S
H633 C629 0.950 . S
H634 C631 0.950 . S
C635 C626 1.390 . S
C635 H628 0.950 . S
C635 C632 1.387 . S
C636 C637 1.387 . S
C636 H640 0.950 . S
C636 C645 1.390 . S
C637 C636 1.387 . S
C637 C639 1.387 1_554 S
H638 C645 0.950 . S
C639 C637 1.387 1_556 S
C639 C641 1.390 . S
C639 H643 0.950 . S
H640 C636 0.950 . S
C641 C639 1.390 . S
C641 C642 1.387 . S
C641 H644 0.950 . S
C642 C641 1.387 . S
C642 C645 1.387 1_556 S
H643 C639 0.950 . S
H644 C641 0.950 . S
C645 C636 1.390 . S
C645 H638 0.950 . S
C645 C642 1.387 1_554 S
C646 C647 1.387 . S
C646 H650 0.950 . S
C646 C655 1.390 . S
C647 C646 1.387 . S
C647 C649 1.387 1_556 S
H648 C655 0.950 . S
C649 C647 1.387 1_554 S
C649 C651 1.390 . S
C649 H653 0.950 . S
H650 C646 0.950 . S
C651 C649 1.390 . S
C651 C652 1.387 . S
C651 H654 0.950 . S
C652 C651 1.387 . S
C652 C655 1.387 1_554 S
H653 C649 0.950 . S
H654 C651 0.950 . S
C655 C646 1.390 . S
C655 H648 0.950 . S
C655 C652 1.387 1_556 S
C656 C657 1.387 . S
C656 H660 0.950 . S
C656 C665 1.390 1_554 S
C657 C656 1.387 . S
C657 C659 1.387 1_554 S
H658 C665 0.950 1_554 S
C659 C657 1.387 1_556 S
C659 C661 1.390 . S
C659 H663 0.950 . S
H660 C656 0.950 . S
C661 C659 1.390 . S
C661 C662 1.387 . S
C661 H664 0.950 . S
C662 C661 1.387 . S
C662 C665 1.387 . S
H663 C659 0.950 . S
H664 C661 0.950 . S
C665 C656 1.390 1_556 S
C665 H658 0.950 1_556 S
C665 C662 1.387 . S
C666 C667 1.387 . S
C666 H670 0.950 . S
C666 C675 1.390 . S
C667 C666 1.387 . S
C667 C669 1.387 . S
H668 C675 0.950 . S
C669 C667 1.387 . S
C669 C671 1.390 . S
C669 H673 0.950 . S
H670 C666 0.950 . S
C671 C669 1.390 . S
C671 C672 1.387 . S
C671 H674 0.950 . S
C672 C671 1.387 . S
C672 C675 1.387 . S
H673 C669 0.950 . S
H674 C671 0.950 . S
C675 C666 1.390 . S
C675 H668 0.950 . S
C675 C672 1.387 . S
C676 C677 1.387 . S
C676 H680 0.950 . S
C676 C685 1.390 . S
C677 C676 1.387 . S
C677 C679 1.387 . S
H678 C685 0.950 . S
C679 C677 1.387 . S
C679 C681 1.390 . S
C679 H683 0.950 . S
H680 C676 0.950 . S
C681 C679 1.390 . S
C681 C682 1.387 . S
C681 H684 0.950 . S
C682 C681 1.387 . S
C682 C685 1.387 . S
H683 C679 0.950 . S
H684 C681 0.950 . S
C685 C676 1.390 . S
C685 H678 0.950 . S
C685 C682 1.387 . S
C686 C687 1.387 . S
C686 H690 0.950 . S
C686 C695 1.390 . S
C687 C686 1.387 . S
C687 C689 1.387 . S
H688 C695 0.950 . S
C689 C687 1.387 . S
C689 C691 1.390 . S
C689 H693 0.950 . S
H690 C686 0.950 . S
C691 C689 1.390 . S
C691 C692 1.387 . S
C691 H694 0.950 . S
C692 C691 1.387 . S
C692 C695 1.387 . S
H693 C689 0.950 . S
H694 C691 0.950 . S
C695 C686 1.390 . S
C695 H688 0.950 . S
C695 C692 1.387 . S
C397 C173 1.739 . S
C402 C8 1.739 . S
C407 C41 1.740 . S
C412 C107 1.740 . S
C417 C74 1.739 . S
C422 C140 1.739 . S
C427 C206 1.739 . S
C432 C371 1.739 . S
C437 C305 1.739 . S
C442 C239 1.739 . S
C447 C338 1.740 . S
C452 C272 1.740 . S
C457 C17 2.504 1_556 S
C462 C215 2.504 1_554 S
C467 C50 2.507 1_556 S
C472 C248 2.507 1_554 S
C477 C281 2.507 1_554 S
C482 C83 2.507 1_556 S
C487 C314 2.503 . S
C492 C116 2.503 . S
C497 C149 2.507 . S
C502 C347 2.507 . S
C507 C182 2.507 . S
C512 C380 2.507 . S
C517 N146 1.942 . S
C522 N14 1.942 . S
C527 N179 1.942 . S
C532 N47 1.942 . S
C537 N113 1.940 . S
C542 N80 1.940 . S
C547 N212 1.940 . S
C552 N344 1.940 . S
C557 N245 1.940 . S
C562 N377 1.942 . S
C567 N311 1.942 . S
C572 N278 1.942 . S
C577 C28 0.826 . S
C582 N71 0.768 1_556 S
C587 C61 0.822 . S
C592 N5 0.776 1_556 S
C597 N38 0.773 1_556 S
C602 C94 0.825 . S
C607 C127 0.821 . S
C612 N137 0.770 . S
C617 N170 0.766 . S
C622 C160 0.825 . S
C627 N104 0.773 . S
C632 C193 0.826 . S
C637 N269 0.773 1_554 S
C642 C226 0.825 . S
C647 C259 0.822 . S
C652 N203 0.775 1_554 S
C657 N236 0.767 1_554 S
C662 C292 0.825 . S
C667 N335 0.772 . S
C672 C325 0.826 . S
C677 N368 0.776 . S
C682 C358 0.822 . S
C687 C391 0.825 . S
C692 N302 0.775 . S
