# Generated by pormake.
# Topology vmb, (5)-cn, num edge types: 1
# Building blocks:
#     Node 0, Type 0, BuildingBlock: BEQFEK_clean_sbu_0, # of connection points: 5
#     Node 1, Type 0, BuildingBlock: BEQFEK_clean_sbu_0, # of connection points: 5
#     Node 2, Type 0, BuildingBlock: BEQFEK_clean_sbu_0, # of connection points: 5
#     Node 3, Type 0, BuildingBlock: BEQFEK_clean_sbu_0, # of connection points: 5
#     Node 4, Type 0, BuildingBlock: BEQFEK_clean_sbu_0, # of connection points: 5
#     Node 5, Type 0, BuildingBlock: BEQFEK_clean_sbu_0, # of connection points: 5
#     Node 6, Type 0, BuildingBlock: BEQFEK_clean_sbu_0, # of connection points: 5
#     Node 7, Type 0, BuildingBlock: BEQFEK_clean_sbu_0, # of connection points: 5
#     Edge 8, Type (0, 0), BuildingBlock: OJICUG_clean_linker_0, # of connection points: 2
#     Edge 9, Type (0, 0), BuildingBlock: OJICUG_clean_linker_0, # of connection points: 2
#     Edge 10, Type (0, 0), BuildingBlock: OJICUG_clean_linker_0, # of connection points: 2
#     Edge 11, Type (0, 0), BuildingBlock: OJICUG_clean_linker_0, # of connection points: 2
#     Edge 12, Type (0, 0), BuildingBlock: OJICUG_clean_linker_0, # of connection points: 2
#     Edge 13, Type (0, 0), BuildingBlock: OJICUG_clean_linker_0, # of connection points: 2
#     Edge 14, Type (0, 0), BuildingBlock: OJICUG_clean_linker_0, # of connection points: 2
#     Edge 15, Type (0, 0), BuildingBlock: OJICUG_clean_linker_0, # of connection points: 2
#     Edge 16, Type (0, 0), BuildingBlock: OJICUG_clean_linker_0, # of connection points: 2
#     Edge 17, Type (0, 0), BuildingBlock: OJICUG_clean_linker_0, # of connection points: 2
#     Edge 18, Type (0, 0), BuildingBlock: OJICUG_clean_linker_0, # of connection points: 2
#     Edge 19, Type (0, 0), BuildingBlock: OJICUG_clean_linker_0, # of connection points: 2
#     Edge 20, Type (0, 0), BuildingBlock: OJICUG_clean_linker_0, # of connection points: 2
#     Edge 21, Type (0, 0), BuildingBlock: OJICUG_clean_linker_0, # of connection points: 2
#     Edge 22, Type (0, 0), BuildingBlock: OJICUG_clean_linker_0, # of connection points: 2
#     Edge 23, Type (0, 0), BuildingBlock: OJICUG_clean_linker_0, # of connection points: 2
#     Edge 24, Type (0, 0), BuildingBlock: OJICUG_clean_linker_0, # of connection points: 2
#     Edge 25, Type (0, 0), BuildingBlock: OJICUG_clean_linker_0, # of connection points: 2
#     Edge 26, Type (0, 0), BuildingBlock: OJICUG_clean_linker_0, # of connection points: 2
#     Edge 27, Type (0, 0), BuildingBlock: OJICUG_clean_linker_0, # of connection points: 2
# Relax obj value: 0.031
# Max RMSD: 0.082
# Mean RMSD: 0.082
data_MOF--net-vmb--node1-BEQFEK_clean_sbu_0--edge1-OJICUG_clean_linker_0
_symmetry_space_group_name_H-M    P1
_symmetry_Int_Tables_number       1
_symmetry_cell_setting            triclinic
loop_
_symmetry_equiv_pos_as_xyz
'x, y, z'
_cell_length_a     32.415434
_cell_length_b     29.359495
_cell_length_c     21.938813
_cell_angle_alpha  89.943627
_cell_angle_beta   111.2874
_cell_angle_gamma 90.107402
loop_
_atom_site_label
_atom_site_type_symbol
_atom_site_fract_x
_atom_site_fract_y
_atom_site_fract_z
_atom_type_partial_charge
Co0 Co 0.19548 0.0714 0.37207 0.0
Co1 Co 0.29899 0.05928 0.42601 0.0
C2 C 0.24426 0.00967 0.48661 0.0
O3 O 0.20958 0.02847 0.44664 0.0
O4 O 0.28224 0.0168 0.48353 0.0
C5 C 0.10861 0.03484 0.31599 0.0
O6 O 0.13024 -0.0038 0.33228 0.0
C7 C 0.38953 0.0215 0.46573 0.0
C8 C 0.42531 0.07937 0.44313 0.0
C9 C 0.4309 0.03508 0.46656 0.0
N10 N 0.36106 0.05625 0.44287 0.0
N11 N 0.38277 0.09079 0.42994 0.0
C12 C 0.37592 0.97521 0.48018 0.0
H13 H 0.34026 0.96932 0.45179 0.0
H14 H 0.39577 0.94831 0.46823 0.0
H15 H 0.38126 0.97301 0.533 0.0
C16 C 0.20737 0.04958 0.24762 0.0
N17 N 0.22341 0.0556 0.31292 0.0
N18 N 0.2663 0.04804 0.33577 0.0
C19 C 0.27872 0.03531 0.2859 0.0
C20 C 0.24183 0.03629 0.22805 0.0
C21 C 0.16046 0.05916 0.20462 0.0
H22 H 0.14763 0.08856 0.22399 0.0
H23 H 0.13973 0.02896 0.20412 0.0
H24 H 0.1578 0.06672 0.15375 0.0
O25 O 0.21507 0.13163 0.40953 0.0
O26 O 0.28801 0.1222 0.45083 0.0
H27 H 0.34649 0.04867 0.30047 0.0
H28 H 0.3244 -0.00186 0.25263 0.0
C29 C 0.32424 0.01892 0.29468 0.0
H30 H 0.33723 -0.00228 0.33928 0.0
H31 H 0.3683 0.12192 0.41096 0.0
O32 O 0.13022 0.07203 0.32785 0.0
C33 C 0.25377 0.14657 0.44165 0.0
Co34 Co 0.83127 0.07219 0.1339 0.0
Co35 Co 0.72788 0.05837 0.07869 0.0
C36 C 0.78348 0.01009 0.01884 0.0
O37 O 0.81784 0.02967 0.05855 0.0
O38 O 0.74544 0.01624 0.02207 0.0
C39 C 0.91771 0.03549 0.19131 0.0
O40 O 0.89573 -0.00302 0.17496 0.0
C41 C 0.63619 0.02162 0.03594 0.0
C42 C 0.60198 0.07852 0.06364 0.0
C43 C 0.59539 0.0351 0.03725 0.0
N44 N 0.66563 0.05529 0.06166 0.0
N45 N 0.6448 0.08927 0.07758 0.0
C46 C 0.64685 0.97859 0.00823 0.0
H47 H 0.66668 -0.01334 0.97779 0.0
H48 H 0.66702 0.95618 0.04882 0.0
H49 H 0.6165 0.96027 0.97748 0.0
C50 C 0.81844 0.04852 0.25762 0.0
N51 N 0.80289 0.05516 0.1924 0.0
N52 N 0.76012 0.04679 0.16872 0.0
C53 C 0.74734 0.03285 0.21774 0.0
C54 C 0.78378 0.03396 0.27611 0.0
C55 C 0.86504 0.05857 0.30159 0.0
H56 H 0.87802 0.08817 0.28267 0.0
H57 H 0.88611 0.02861 0.30274 0.0
H58 H 0.86699 0.06598 0.35216 0.0
O59 O 0.81181 0.13286 0.09732 0.0
O60 O 0.73913 0.12148 0.05492 0.0
H61 H 0.67937 0.04397 0.20385 0.0
H62 H 0.7022 -0.00758 0.24824 0.0
C63 C 0.70203 0.01496 0.20758 0.0
H64 H 0.68936 -0.0048 0.16153 0.0
H65 H 0.66003 0.11964 0.09881 0.0
O66 O 0.89646 0.07282 0.17901 0.0
C67 C 0.77288 0.14689 0.06474 0.0
Co68 Co 0.83038 0.89732 0.63312 0.0
Co69 Co 0.72708 0.91044 0.57948 0.0
C70 C 0.78171 0.95883 0.51781 0.0
O71 O 0.81624 0.93966 0.55759 0.0
O72 O 0.74378 0.95241 0.52142 0.0
C73 C 0.91682 0.93454 0.68858 0.0
O74 O 0.89473 0.97289 0.67195 0.0
C75 C 0.63641 0.94806 0.53944 0.0
C76 C 0.60085 0.89032 0.56283 0.0
C77 C 0.59508 0.93446 0.53883 0.0
N78 N 0.665 0.91346 0.56272 0.0
N79 N 0.64342 0.879 0.57612 0.0
C80 C 0.64985 -0.00576 0.52429 0.0
H81 H 0.68556 0.00022 0.55222 0.0
H82 H 0.63012 0.02124 0.5363 0.0
H83 H 0.64419 -0.00382 0.47135 0.0
C84 C 0.81879 0.92102 0.75754 0.0
N85 N 0.80268 0.91428 0.69234 0.0
N86 N 0.75984 0.92217 0.66944 0.0
C87 C 0.74753 0.93568 0.71906 0.0
C88 C 0.78442 0.935 0.77689 0.0
C89 C 0.86568 0.91159 0.80074 0.0
H90 H 0.87856 0.88199 0.78185 0.0
H91 H 0.88641 0.94173 0.80086 0.0
H92 H 0.86829 0.90448 0.8517 0.0
O93 O 0.81078 0.83654 0.59689 0.0
O94 O 0.73804 0.84736 0.55566 0.0
H95 H 0.67968 0.92283 0.70459 0.0
H96 H 0.70197 0.97357 0.75178 0.0
C97 C 0.70207 0.95242 0.71002 0.0
H98 H 0.6892 0.97334 0.66513 0.0
H99 H 0.658 0.84798 0.59547 0.0
O100 O 0.89564 0.89709 0.67715 0.0
C101 C 0.77181 0.82222 0.56495 0.0
Co102 Co 0.1945 0.90026 0.87134 0.0
Co103 Co 0.29811 0.9129 0.92689 0.0
C104 C 0.24243 0.96276 0.98533 0.0
O105 O 0.20791 0.94357 0.94545 0.0
O106 O 0.28053 0.95574 0.98275 0.0
C107 C 0.1077 0.93637 0.81326 0.0
O108 O 0.12925 0.97515 0.82925 0.0
C109 C 0.38979 0.94951 0.96956 0.0
C110 C 0.42403 0.89246 0.94227 0.0
C111 C 0.4306 0.93597 0.96837 0.0
N112 N 0.36037 0.9158 0.94405 0.0
N113 N 0.38121 0.88173 0.92838 0.0
C114 C 0.37907 -0.00736 0.99698 0.0
H115 H 0.35945 0.98464 0.02776 0.0
H116 H 0.35866 0.01481 0.95625 0.0
H117 H 0.40938 0.01118 0.02737 0.0
C118 C 0.2077 0.92184 0.74757 0.0
N119 N 0.22317 0.91585 0.81289 0.0
N120 N 0.26601 0.92385 0.83652 0.0
C121 C 0.27891 0.93703 0.78729 0.0
C122 C 0.24246 0.9357 0.7289 0.0
C123 C 0.16104 0.91182 0.7038 0.0
H124 H 0.14801 0.88245 0.72311 0.0
H125 H 0.14006 0.94191 0.70241 0.0
H126 H 0.15899 0.90403 0.65329 0.0
O127 O 0.21379 0.84026 0.90975 0.0
O128 O 0.2867 0.85009 0.95198 0.0
H129 H 0.34681 0.92543 0.80121 0.0
H130 H 0.3242 0.97684 0.7563 0.0
C131 C 0.32428 0.9546 0.79721 0.0
H132 H 0.33708 0.9746 0.84304 0.0
H133 H 0.36599 0.85131 0.90732 0.0
O134 O 0.12935 0.8993 0.826 0.0
C135 C 0.25241 0.8256 0.94259 0.0
Co136 Co 0.69019 0.57105 0.36982 0.0
Co137 Co 0.79383 0.55828 0.42387 0.0
C138 C 0.73888 0.50913 0.4845 0.0
O139 O 0.70427 0.52826 0.4448 0.0
O140 O 0.77682 0.51588 0.48107 0.0
C141 C 0.60345 0.53389 0.31284 0.0
O142 O 0.6254 0.49543 0.32907 0.0
C143 C 0.88431 0.51995 0.46261 0.0
C144 C 0.92131 0.57952 0.44764 0.0
C145 C 0.92634 0.53421 0.4668 0.0
N146 N 0.8562 0.55525 0.44195 0.0
N147 N 0.87864 0.59077 0.43357 0.0
C148 C 0.86978 0.47295 0.47232 0.0
H149 H 0.83372 0.46871 0.4452 0.0
H150 H 0.8881 0.44697 0.45551 0.0
H151 H 0.87645 0.4675 0.5251 0.0
C152 C 0.70229 0.54857 0.24549 0.0
N153 N 0.71832 0.55482 0.31078 0.0
N154 N 0.76124 0.54728 0.3336 0.0
C155 C 0.77369 0.53463 0.28374 0.0
C156 C 0.73677 0.53534 0.22594 0.0
C157 C 0.65534 0.55783 0.20237 0.0
H158 H 0.64235 0.58729 0.2214 0.0
H159 H 0.63476 0.52756 0.20217 0.0
H160 H 0.65265 0.56512 0.15142 0.0
O161 O 0.70974 0.63168 0.40702 0.0
O162 O 0.78254 0.62107 0.44822 0.0
H163 H 0.84167 0.54889 0.30067 0.0
H164 H 0.82019 0.4995 0.24966 0.0
C165 C 0.81941 0.51892 0.2925 0.0
H166 H 0.83203 0.49655 0.33589 0.0
H167 H 0.86465 0.62257 0.41733 0.0
O168 O 0.62477 0.57127 0.32519 0.0
C169 C 0.74868 0.64603 0.43916 0.0
Co170 Co 0.32539 0.56995 0.13033 0.0
Co171 Co 0.22105 0.56441 0.07982 0.0
C172 C 0.27251 0.51343 0.01379 0.0
O173 O 0.30959 0.52664 0.05508 0.0
O174 O 0.23596 0.52546 0.01804 0.0
C175 C 0.41252 0.53246 0.1858 0.0
O176 O 0.39095 0.49375 0.1691 0.0
C177 C 0.12971 0.52806 0.03736 0.0
C178 C 0.09521 0.58403 0.06647 0.0
C179 C 0.08891 0.54087 0.03922 0.0
N180 N 0.15892 0.5618 0.06364 0.0
N181 N 0.13795 0.59527 0.08039 0.0
C182 C 0.1407 0.48561 0.00866 0.0
H183 H 0.15764 0.49481 0.97465 0.0
H184 H 0.16382 0.4645 0.04838 0.0
H185 H 0.11074 0.46551 0.98117 0.0
C186 C 0.3137 0.54687 0.2553 0.0
N187 N 0.29748 0.55468 0.19033 0.0
N188 N 0.25426 0.54923 0.16813 0.0
C189 C 0.24176 0.53593 0.21766 0.0
C190 C 0.27893 0.53455 0.275 0.0
C191 C 0.36115 0.55396 0.29804 0.0
H192 H 0.37514 0.58317 0.27986 0.0
H193 H 0.38035 0.52301 0.29657 0.0
H194 H 0.36459 0.5606 0.34944 0.0
O195 O 0.30738 0.63153 0.09381 0.0
O196 O 0.23405 0.62733 0.06047 0.0
H197 H 0.17492 0.5513 0.20635 0.0
H198 H 0.19522 0.49853 0.24913 0.0
C199 C 0.19574 0.52092 0.20871 0.0
H200 H 0.18134 0.50173 0.16238 0.0
H201 H 0.153 0.62557 0.10219 0.0
O202 O 0.39085 0.56955 0.17423 0.0
C203 C 0.26926 0.64938 0.06688 0.0
Co204 Co 0.32576 0.40147 0.63395 0.0
Co205 Co 0.22161 0.40777 0.57551 0.0
C206 C 0.27718 0.45934 0.5166 0.0
O207 O 0.31225 0.44207 0.55764 0.0
O208 O 0.23919 0.45101 0.51906 0.0
C209 C 0.41412 0.43652 0.68017 0.0
O210 O 0.39422 0.47337 0.64944 0.0
C211 C 0.13219 0.44671 0.53991 0.0
C212 C 0.09208 0.38522 0.53694 0.0
C213 C 0.0893 0.43211 0.52944 0.0
N214 N 0.15888 0.41012 0.55307 0.0
N215 N 0.13461 0.37345 0.55064 0.0
C216 C 0.14854 0.49462 0.54262 0.0
H217 H 0.18413 0.49664 0.57408 0.0
H218 H 0.12901 0.51792 0.56149 0.0
H219 H 0.14491 0.50569 0.49256 0.0
C220 C 0.30988 0.4315 0.75328 0.0
N221 N 0.29536 0.41938 0.68967 0.0
N222 N 0.25181 0.41936 0.66611 0.0
C223 C 0.23717 0.42955 0.71461 0.0
C224 C 0.2734 0.43821 0.77151 0.0
C225 C 0.35759 0.44007 0.79345 0.0
H226 H 0.37266 0.46069 0.76468 0.0
H227 H 0.36191 0.45869 0.83924 0.0
H228 H 0.37538 0.40708 0.80526 0.0
O229 O 0.3083 0.33921 0.59863 0.0
O230 O 0.23521 0.34608 0.55379 0.0
H231 H 0.18582 0.42506 0.75585 0.0
H232 H 0.1724 0.45884 0.68229 0.0
C233 C 0.18949 0.42769 0.70764 0.0
H234 H 0.17334 0.39765 0.67811 0.0
H235 H 0.14726 0.34045 0.55958 0.0
O236 O 0.39098 0.4017 0.68121 0.0
C237 C 0.27032 0.32281 0.56553 0.0
Co238 Co 0.69051 0.3976 0.86995 0.0
Co239 Co 0.79374 0.41239 0.92497 0.0
C240 C 0.73765 0.46061 0.98398 0.0
O241 O 0.70347 0.44063 0.94452 0.0
O242 O 0.77575 0.45461 0.98092 0.0
C243 C 0.60462 0.43404 0.80908 0.0
O244 O 0.62719 0.47235 0.82138 0.0
C245 C 0.88456 0.45092 0.96841 0.0
C246 C 0.92028 0.39526 0.94103 0.0
C247 C 0.92578 0.4386 0.96766 0.0
N248 N 0.85594 0.41668 0.94222 0.0
N249 N 0.87764 0.38345 0.92645 0.0
C250 C 0.87271 0.49323 0.99638 0.0
H251 H 0.85502 0.48381 0.02931 0.0
H252 H 0.85001 0.51427 0.95613 0.0
H253 H 0.90236 0.51346 0.02478 0.0
C254 C 0.7032 0.42026 0.74578 0.0
N255 N 0.71874 0.41435 0.81115 0.0
N256 N 0.76141 0.42329 0.83475 0.0
C257 C 0.77407 0.43701 0.78552 0.0
C258 C 0.73769 0.43506 0.72712 0.0
C259 C 0.65689 0.40906 0.70178 0.0
H260 H 0.64407 0.37994 0.72191 0.0
H261 H 0.63534 0.43897 0.69852 0.0
H262 H 0.65548 0.40038 0.65183 0.0
O263 O 0.71059 0.33736 0.90744 0.0
O264 O 0.78324 0.34915 0.9496 0.0
H265 H 0.84213 0.42668 0.79928 0.0
H266 H 0.81865 0.47788 0.75447 0.0
C267 C 0.81915 0.45543 0.7954 0.0
H268 H 0.83167 0.47541 0.84127 0.0
H269 H 0.86316 0.35285 0.90497 0.0
O270 O 0.62533 0.39657 0.82511 0.0
C271 C 0.7496 0.32359 0.94009 0.0
C272 C 0.20426 0.97746 0.06359 0.0
C273 C 0.23898 -0.01227 0.04176 0.0
H274 H 0.17896 0.98327 0.14061 0.0
C275 C 0.27261 0.01761 0.07883 0.0
H276 H 0.17802 0.95421 0.03651 0.0
C277 C 0.27238 0.03535 0.13789 0.0
C278 C 0.23922 0.02254 0.16173 0.0
H279 H 0.29963 0.02638 0.06302 0.0
H280 H 0.29887 0.05802 0.16587 0.0
C281 C 0.20467 -0.00576 0.12328 0.0
C282 C 0.75166 0.03096 0.36451 0.0
C283 C 0.78572 0.01948 0.34192 0.0
H284 H 0.7234 0.02063 0.43804 0.0
C285 C 0.82053 -0.00816 0.38107 0.0
H286 H 0.72489 0.05305 0.33596 0.0
C287 C 0.82047 0.97456 0.44032 0.0
C288 C 0.78505 0.98369 0.46107 0.0
H289 H 0.84692 0.98184 0.36468 0.0
H290 H 0.84706 0.95197 0.46805 0.0
C291 C 0.751 0.01276 0.42315 0.0
C292 C 0.82141 0.97795 0.88105 0.0
C293 C 0.78699 0.94934 0.843 0.0
H294 H 0.84782 0.01867 0.96725 0.0
C295 C 0.75384 0.93675 0.86696 0.0
H296 H 0.84714 -0.01131 0.86362 0.0
C297 C 0.7535 0.95491 0.92572 0.0
C298 C 0.78698 0.98508 0.9624 0.0
H299 H 0.72745 0.91387 0.83931 0.0
H300 H 0.72652 0.94617 0.94164 0.0
C301 C 0.82168 -0.00476 0.94045 0.0
C302 C 0.20564 0.97725 0.62356 0.0
C303 C 0.24049 0.94976 0.66293 0.0
H304 H 0.17895 0.01664 0.53621 0.0
C305 C 0.27451 0.93806 0.64036 0.0
H306 H 0.17931 -0.01251 0.63994 0.0
C307 C 0.27509 0.95594 0.5815 0.0
C308 C 0.24097 0.98484 0.54335 0.0
H309 H 0.30133 0.91608 0.6691 0.0
H310 H 0.30268 0.94801 0.56662 0.0
C311 C 0.20557 -0.00587 0.56408 0.0
C312 C 0.76674 0.53453 0.13517 0.0
C313 C 0.73408 0.52122 0.15972 0.0
H314 H 0.7937 0.52568 0.05997 0.0
C315 C 0.70001 0.49206 0.12215 0.0
H316 H 0.79281 0.55786 0.16245 0.0
C317 C 0.69967 0.47488 0.06269 0.0
C318 C 0.73398 0.48568 0.04021 0.0
H319 H 0.67466 0.4808 0.14004 0.0
H320 H 0.67387 0.45099 0.0363 0.0
C321 C 0.76705 0.51645 0.07634 0.0
C322 C 0.31476 0.49037 0.37823 0.0
C323 C 0.28113 0.51991 0.34084 0.0
H324 H 0.34038 0.44907 0.46387 0.0
C325 C 0.24828 0.53307 0.36511 0.0
H326 H 0.34011 0.47898 0.3605 0.0
C327 C 0.24746 0.51461 0.42351 0.0
C328 C 0.28038 0.48389 0.4597 0.0
H329 H 0.2225 0.55667 0.33801 0.0
H330 H 0.22075 0.52374 0.43976 0.0
C331 C 0.31474 0.47304 0.43741 0.0
C332 C 0.30239 0.45734 0.95392 0.0
C333 C 0.27134 0.49072 0.95341 0.0
H334 H 0.3259 0.41252 0.89639 0.0
C335 C 0.24067 0.50576 0.89336 0.0
H336 H 0.32645 0.4454 0.99977 0.0
C337 C 0.24184 0.48888 0.83473 0.0
C338 C 0.27256 0.45527 0.83469 0.0
H339 H 0.21696 0.53217 0.89161 0.0
H340 H 0.21917 0.50295 0.78931 0.0
C341 C 0.30239 0.43903 0.89492 0.0
C342 C 0.7698 0.43793 0.6387 0.0
C343 C 0.73555 0.44907 0.66104 0.0
H344 H 0.79795 0.44827 0.56506 0.0
C345 C 0.70027 0.47594 0.6213 0.0
H346 H 0.79694 0.41641 0.6677 0.0
C347 C 0.70007 0.49288 0.56176 0.0
C348 C 0.73569 0.48419 0.54127 0.0
H349 H 0.67371 0.48567 0.63747 0.0
H350 H 0.67314 0.51496 0.53363 0.0
C351 C 0.77018 0.45578 0.57973 0.0
C352 C 0.54133 -0.00809 0.46835 0.0
C353 C 0.55332 0.96068 0.52036 0.0
H354 H 0.4931 0.03973 0.41067 0.0
C355 C 0.52434 0.95346 0.55404 0.0
H356 H 0.56214 -0.00278 0.44002 0.0
C357 C 0.48454 0.97748 0.5368 0.0
C358 C 0.47258 0.00875 0.48485 0.0
H359 H 0.53277 0.92969 0.59452 0.0
H360 H 0.4637 0.97216 0.5651 0.0
C361 C 0.50153 0.01595 0.45113 0.0
C362 C 0.47289 0.00815 0.9716 0.0
C363 C 0.4726 0.96176 0.98707 0.0
H364 H 0.51223 0.06761 0.97542 0.0
C365 C 0.51309 0.93926 0.01774 0.0
H366 H 0.44229 0.02602 0.94593 0.0
C367 C 0.55311 0.9629 0.03384 0.0
C368 C 0.55339 0.00931 0.01843 0.0
H369 H 0.51377 0.90346 0.03007 0.0
H370 H 0.58371 0.94503 0.05947 0.0
C371 C 0.51291 0.03181 0.98774 0.0
C372 C 0.99968 0.52045 0.45644 0.0
C373 C 0.96819 0.50797 0.48385 0.0
H374 H 0.0622 0.506 0.44832 0.0
C375 C 0.97782 0.47139 0.52816 0.0
H376 H 0.99339 0.5485 0.42217 0.0
C377 C 0.01726 0.44697 0.54292 0.0
C378 C 0.04844 0.45928 0.51504 0.0
H379 H 0.95545 0.46192 0.55247 0.0
H380 H 0.02364 0.41873 0.57691 0.0
C381 C 0.03932 0.49633 0.47176 0.0
C382 C 0.04765 0.46811 0.03633 0.0
C383 C 0.04727 0.51446 0.02029 0.0
H384 H 1.00925 0.40787 0.03211 0.0
C385 C 1.00651 0.53617 0.98851 0.0
H386 H 0.07849 0.45088 0.06283 0.0
C387 C 0.96688 0.51171 0.97163 0.0
C388 C 0.96728 0.4653 0.98745 0.0
H389 H 1.00534 0.57194 0.97579 0.0
H390 H 0.93605 0.52892 0.94505 0.0
C391 C 1.00805 0.44365 0.01945 0.0
C392 C 0.03642 0.07637 0.26868 0.0
C393 C 0.05978 0.03505 0.28406 0.0
H394 H 0.97331 0.10896 0.22764 0.0
C395 C 0.036 -0.00609 0.2689 0.0
H396 H 0.05372 0.10869 0.27975 0.0
C397 C 0.98988 -0.00593 0.23892 0.0
C398 C 0.96652 0.03538 0.22355 0.0
H399 H 0.05297 0.96147 0.28009 0.0
H400 H 0.97259 0.96175 0.22781 0.0
C401 C 0.99029 0.07653 0.23885 0.0
C402 C 0.03563 0.8944 0.76614 0.0
C403 C 0.0589 0.93587 0.78099 0.0
H404 H 0.97259 0.86142 0.72562 0.0
C405 C 0.03504 0.97687 0.76516 0.0
H406 H 0.053 0.8622 0.77772 0.0
C407 C 0.98893 0.97642 0.73518 0.0
C408 C 0.96565 0.93496 0.72048 0.0
H409 H 0.05195 0.0094 0.77591 0.0
H410 H 0.97156 0.00863 0.72363 0.0
C411 C 0.9895 0.89396 0.73632 0.0
C412 C 0.48468 0.5743 0.23424 0.0
C413 C 0.46136 0.53289 0.21829 0.0
H414 H 0.54772 0.60716 0.2763 0.0
C415 C 0.48521 0.49185 0.23361 0.0
H416 H 0.46734 0.60654 0.22311 0.0
C417 C 0.5313 0.49221 0.26424 0.0
C418 C 0.55462 0.53361 0.28014 0.0
H419 H 0.4683 0.45935 0.22204 0.0
H420 H 0.54862 0.45997 0.2754 0.0
C421 C 0.53079 0.57466 0.26471 0.0
C422 C 0.53369 0.47538 0.75086 0.0
C423 C 0.55589 0.43457 0.77625 0.0
H424 H 0.47161 0.50797 0.70049 0.0
C425 C 0.53105 0.39439 0.77014 0.0
H426 H 0.55185 0.50691 0.75468 0.0
C427 C 0.48497 0.39505 0.73944 0.0
C428 C 0.4628 0.43583 0.7137 0.0
H429 H 0.54716 0.3624 0.78931 0.0
H430 H 0.46678 0.36352 0.73549 0.0
C431 C 0.48767 0.47597 0.7197 0.0
C432 C 0.22477 0.25972 0.49755 0.0
C433 C 0.26662 0.27703 0.53591 0.0
H434 H 0.18797 0.20562 0.43726 0.0
C435 C 0.30451 0.25127 0.54243 0.0
H436 H 0.19484 0.27866 0.4912 0.0
C437 C 0.30053 0.20914 0.51105 0.0
C438 C 0.2586 0.19202 0.47251 0.0
H439 H 0.33725 0.26374 0.57133 0.0
H440 H 0.33031 0.18999 0.51721 0.0
C441 C 0.22082 0.21782 0.4662 0.0
C442 C 0.79818 0.26262 0.00991 0.0
C443 C 0.75573 0.27799 0.97088 0.0
H444 H 0.83689 0.20952 0.07066 0.0
C445 C 0.71894 0.25017 0.96391 0.0
H446 H 0.82724 0.28326 0.01659 0.0
C447 C 0.72445 0.20798 0.99524 0.0
C448 C 0.76689 0.19258 0.03422 0.0
H449 H 0.68573 0.26101 0.93448 0.0
H450 H 0.69538 0.18736 0.98852 0.0
C451 C 0.8037 0.2204 0.04124 0.0
C452 C 0.79713 0.7073 0.50849 0.0
C453 C 0.75463 0.69154 0.47015 0.0
H454 H 0.83589 0.76051 0.56901 0.0
C455 C 0.71776 0.71879 0.46427 0.0
H456 H 0.82626 0.68711 0.51435 0.0
C457 C 0.72327 0.76083 0.49598 0.0
C458 C 0.76578 0.77661 0.53426 0.0
H459 H 0.68452 0.70761 0.43542 0.0
H460 H 0.69415 0.78105 0.49009 0.0
C461 C 0.80264 0.74933 0.5402 0.0
C462 C 0.29918 0.76252 0.01021 0.0
C463 C 0.25715 0.78029 0.97391 0.0
H464 H 0.33609 0.70742 0.06865 0.0
C465 C 0.21932 0.75522 0.97013 0.0
H466 H 0.329 0.78109 0.01439 0.0
C467 C 0.22337 0.71332 0.00169 0.0
C468 C 0.26535 0.69531 0.03757 0.0
H469 H 0.1864 0.76799 0.94302 0.0
H470 H 0.19344 0.69486 0.99722 0.0
C471 C 0.30325 0.72041 0.04164 0.0
loop_
_geom_bond_atom_site_label_1
_geom_bond_atom_site_label_2
_geom_bond_distance
_geom_bond_site_symmetry_2
_ccdc_geom_bond_type
Co0 O3 1.970 . S
Co0 N17 1.989 . S
Co0 O25 1.967 . S
Co0 O32 1.920 . S
Co1 O4 1.966 . S
Co1 N10 2.022 . S
Co1 N18 1.993 . S
Co1 O26 1.941 . S
C2 O3 1.258 . S
C2 O4 1.263 . S
O3 Co0 1.970 . S
O3 C2 1.258 . S
O4 Co1 1.966 . S
O4 C2 1.263 . S
C5 O6 1.235 . S
C5 O32 1.289 . S
O6 C5 1.235 . S
C7 C9 1.400 . S
C7 N10 1.351 . S
C7 C12 1.501 1_545 S
C8 C9 1.387 . S
C8 N11 1.341 . S
C9 C7 1.400 . S
C9 C8 1.387 . S
N10 Co1 2.022 . S
N10 C7 1.351 . S
N10 N11 1.365 . S
N11 C8 1.341 . S
N11 N10 1.365 . S
N11 H31 0.862 . S
C12 C7 1.501 1_565 S
C12 H13 0.961 1_565 S
C12 H14 0.961 . S
C12 H15 0.960 . S
H13 C12 0.961 1_545 S
H14 C12 0.961 . S
H15 C12 0.960 . S
C16 N17 1.342 . S
C16 C20 1.401 . S
C16 C21 1.499 . S
N17 Co0 1.989 . S
N17 C16 1.342 . S
N17 N18 1.388 . S
N18 Co1 1.993 . S
N18 N17 1.388 . S
N18 C19 1.346 . S
C19 N18 1.346 . S
C19 C20 1.396 . S
C19 C29 1.510 . S
C20 C16 1.401 . S
C20 C19 1.396 . S
C21 C16 1.499 . S
C21 H22 0.959 . S
C21 H23 0.960 . S
C21 H24 0.961 . S
H22 C21 0.959 . S
H23 C21 0.960 . S
H24 C21 0.961 . S
O25 Co0 1.967 . S
O25 C33 1.258 . S
O26 Co1 1.941 . S
O26 C33 1.266 . S
H27 C29 0.959 . S
H28 C29 0.961 1_565 S
C29 C19 1.510 . S
C29 H27 0.959 . S
C29 H28 0.961 1_545 S
C29 H30 0.960 . S
H30 C29 0.960 . S
H31 N11 0.862 . S
O32 Co0 1.920 . S
O32 C5 1.289 . S
C33 O25 1.258 . S
C33 O26 1.266 . S
Co34 O37 1.970 . S
Co34 N51 1.989 . S
Co34 O59 1.967 . S
Co34 O66 1.920 . S
Co35 O38 1.966 . S
Co35 N44 2.022 . S
Co35 N52 1.993 . S
Co35 O60 1.941 . S
C36 O37 1.264 . S
C36 O38 1.269 . S
O37 Co34 1.970 . S
O37 C36 1.264 . S
O38 Co35 1.966 . S
O38 C36 1.269 . S
C39 O40 1.235 . S
C39 O66 1.289 . S
O40 C39 1.235 . S
C41 C43 1.400 . S
C41 N44 1.351 . S
C41 C46 1.501 1_544 S
C42 C43 1.387 . S
C42 N45 1.341 . S
C43 C41 1.400 . S
C43 C42 1.387 . S
N44 Co35 2.022 . S
N44 C41 1.351 . S
N44 N45 1.365 . S
N45 C42 1.341 . S
N45 N44 1.365 . S
N45 H65 0.862 . S
C46 C41 1.501 1_566 S
C46 H47 0.961 1_565 S
C46 H48 0.961 . S
C46 H49 0.960 . S
H47 C46 0.961 1_545 S
H48 C46 0.961 . S
H49 C46 0.960 . S
C50 N51 1.342 . S
C50 C54 1.401 . S
C50 C55 1.499 . S
N51 Co34 1.989 . S
N51 C50 1.342 . S
N51 N52 1.388 . S
N52 Co35 1.993 . S
N52 N51 1.388 . S
N52 C53 1.346 . S
C53 N52 1.346 . S
C53 C54 1.396 . S
C53 C63 1.510 . S
C54 C50 1.401 . S
C54 C53 1.396 . S
C55 C50 1.499 . S
C55 H56 0.959 . S
C55 H57 0.960 . S
C55 H58 0.961 . S
H56 C55 0.959 . S
H57 C55 0.960 . S
H58 C55 0.961 . S
O59 Co34 1.967 . S
O59 C67 1.258 . S
O60 Co35 1.941 . S
O60 C67 1.266 . S
H61 C63 0.959 . S
H62 C63 0.961 1_565 S
C63 C53 1.510 . S
C63 H61 0.959 . S
C63 H62 0.961 1_545 S
C63 H64 0.960 . S
H64 C63 0.960 . S
H65 N45 0.862 . S
O66 Co34 1.920 . S
O66 C39 1.289 . S
C67 O59 1.258 . S
C67 O60 1.266 . S
Co68 O71 1.970 . S
Co68 N85 1.989 . S
Co68 O93 1.967 . S
Co68 O100 1.920 . S
Co69 O72 1.966 . S
Co69 N78 2.022 . S
Co69 N86 1.993 . S
Co69 O94 1.941 . S
C70 O71 1.258 . S
C70 O72 1.263 . S
O71 Co68 1.970 . S
O71 C70 1.258 . S
O72 Co69 1.966 . S
O72 C70 1.263 . S
C73 O74 1.235 . S
C73 O100 1.289 . S
O74 C73 1.235 . S
C75 C77 1.400 . S
C75 N78 1.351 . S
C75 C80 1.501 1_565 S
C76 C77 1.387 . S
C76 N79 1.341 . S
C77 C75 1.400 . S
C77 C76 1.387 . S
N78 Co69 2.022 . S
N78 C75 1.351 . S
N78 N79 1.365 . S
N79 C76 1.341 . S
N79 N78 1.365 . S
N79 H99 0.862 . S
C80 C75 1.501 1_545 S
C80 H81 0.961 1_545 S
C80 H82 0.961 . S
C80 H83 0.960 . S
H81 C80 0.961 1_565 S
H82 C80 0.961 . S
H83 C80 0.960 . S
C84 N85 1.342 . S
C84 C88 1.401 . S
C84 C89 1.499 . S
N85 Co68 1.989 . S
N85 C84 1.342 . S
N85 N86 1.388 . S
N86 Co69 1.993 . S
N86 N85 1.388 . S
N86 C87 1.346 . S
C87 N86 1.346 . S
C87 C88 1.396 . S
C87 C97 1.510 . S
C88 C84 1.401 . S
C88 C87 1.396 . S
C89 C84 1.499 . S
C89 H90 0.959 . S
C89 H91 0.960 . S
C89 H92 0.961 . S
H90 C89 0.959 . S
H91 C89 0.960 . S
H92 C89 0.961 . S
O93 Co68 1.967 . S
O93 C101 1.258 . S
O94 Co69 1.941 . S
O94 C101 1.266 . S
H95 C97 0.959 . S
H96 C97 0.961 1_545 S
C97 C87 1.510 . S
C97 H95 0.959 . S
C97 H96 0.961 1_565 S
C97 H98 0.960 . S
H98 C97 0.960 . S
H99 N79 0.862 . S
O100 Co68 1.920 . S
O100 C73 1.289 . S
C101 O93 1.258 . S
C101 O94 1.266 . S
Co102 O105 1.970 . S
Co102 N119 1.989 . S
Co102 O127 1.967 . S
Co102 O134 1.920 . S
Co103 O106 1.966 . S
Co103 N112 2.022 . S
Co103 N120 1.993 . S
Co103 O128 1.941 . S
C104 O105 1.264 . S
C104 O106 1.269 . S
O105 Co102 1.970 . S
O105 C104 1.264 . S
O106 Co103 1.966 . S
O106 C104 1.269 . S
C107 O108 1.235 . S
C107 O134 1.289 . S
O108 C107 1.235 . S
C109 C111 1.400 . S
C109 N112 1.351 . S
C109 C114 1.501 1_566 S
C110 C111 1.387 . S
C110 N113 1.341 . S
C111 C109 1.400 . S
C111 C110 1.387 . S
N112 Co103 2.022 . S
N112 C109 1.351 . S
N112 N113 1.365 . S
N113 C110 1.341 . S
N113 N112 1.365 . S
N113 H133 0.862 . S
C114 C109 1.501 1_544 S
C114 H115 0.961 1_545 S
C114 H116 0.961 . S
C114 H117 0.960 . S
H115 C114 0.961 1_565 S
H116 C114 0.961 . S
H117 C114 0.960 . S
C118 N119 1.342 . S
C118 C122 1.401 . S
C118 C123 1.499 . S
N119 Co102 1.989 . S
N119 C118 1.342 . S
N119 N120 1.388 . S
N120 Co103 1.993 . S
N120 N119 1.388 . S
N120 C121 1.346 . S
C121 N120 1.346 . S
C121 C122 1.396 . S
C121 C131 1.510 . S
C122 C118 1.401 . S
C122 C121 1.396 . S
C123 C118 1.499 . S
C123 H124 0.959 . S
C123 H125 0.960 . S
C123 H126 0.961 . S
H124 C123 0.959 . S
H125 C123 0.960 . S
H126 C123 0.961 . S
O127 Co102 1.967 . S
O127 C135 1.258 . S
O128 Co103 1.941 . S
O128 C135 1.266 . S
H129 C131 0.959 . S
H130 C131 0.961 1_545 S
C131 C121 1.510 . S
C131 H129 0.959 . S
C131 H130 0.961 1_565 S
C131 H132 0.960 . S
H132 C131 0.960 . S
H133 N113 0.862 . S
O134 Co102 1.920 . S
O134 C107 1.289 . S
C135 O127 1.258 . S
C135 O128 1.266 . S
Co136 O139 1.970 . S
Co136 N153 1.989 . S
Co136 O161 1.967 . S
Co136 O168 1.920 . S
Co137 O140 1.966 . S
Co137 N146 2.022 . S
Co137 N154 1.993 . S
Co137 O162 1.941 . S
C138 O139 1.258 . S
C138 O140 1.263 . S
O139 Co136 1.970 . S
O139 C138 1.258 . S
O140 Co137 1.966 . S
O140 C138 1.263 . S
C141 O142 1.235 . S
C141 O168 1.289 . S
O142 C141 1.235 . S
C143 C145 1.400 . S
C143 N146 1.351 . S
C143 C148 1.501 . S
C144 C145 1.387 . S
C144 N147 1.341 . S
C145 C143 1.400 . S
C145 C144 1.387 . S
N146 Co137 2.022 . S
N146 C143 1.351 . S
N146 N147 1.365 . S
N147 C144 1.341 . S
N147 N146 1.365 . S
N147 H167 0.862 . S
C148 C143 1.501 . S
C148 H149 0.961 . S
C148 H150 0.961 . S
C148 H151 0.960 . S
H149 C148 0.961 . S
H150 C148 0.961 . S
H151 C148 0.960 . S
C152 N153 1.342 . S
C152 C156 1.401 . S
C152 C157 1.499 . S
N153 Co136 1.989 . S
N153 C152 1.342 . S
N153 N154 1.388 . S
N154 Co137 1.993 . S
N154 N153 1.388 . S
N154 C155 1.346 . S
C155 N154 1.346 . S
C155 C156 1.396 . S
C155 C165 1.510 . S
C156 C152 1.401 . S
C156 C155 1.396 . S
C157 C152 1.499 . S
C157 H158 0.959 . S
C157 H159 0.960 . S
C157 H160 0.961 . S
H158 C157 0.959 . S
H159 C157 0.960 . S
H160 C157 0.961 . S
O161 Co136 1.967 . S
O161 C169 1.258 . S
O162 Co137 1.941 . S
O162 C169 1.266 . S
H163 C165 0.959 . S
H164 C165 0.961 . S
C165 C155 1.510 . S
C165 H163 0.959 . S
C165 H164 0.961 . S
C165 H166 0.960 . S
H166 C165 0.960 . S
H167 N147 0.862 . S
O168 Co136 1.920 . S
O168 C141 1.289 . S
C169 O161 1.258 . S
C169 O162 1.266 . S
Co170 O173 1.970 . S
Co170 N187 1.989 . S
Co170 O195 1.967 . S
Co170 O202 1.920 . S
Co171 O174 1.966 . S
Co171 N180 2.022 . S
Co171 N188 1.993 . S
Co171 O196 1.941 . S
C172 O173 1.264 . S
C172 O174 1.269 . S
O173 Co170 1.970 . S
O173 C172 1.264 . S
O174 Co171 1.966 . S
O174 C172 1.269 . S
C175 O176 1.235 . S
C175 O202 1.289 . S
O176 C175 1.235 . S
C177 C179 1.400 . S
C177 N180 1.351 . S
C177 C182 1.501 1_554 S
C178 C179 1.387 . S
C178 N181 1.341 . S
C179 C177 1.400 . S
C179 C178 1.387 . S
N180 Co171 2.022 . S
N180 C177 1.351 . S
N180 N181 1.365 . S
N181 C178 1.341 . S
N181 N180 1.365 . S
N181 H201 0.862 . S
C182 C177 1.501 1_556 S
C182 H183 0.961 . S
C182 H184 0.961 . S
C182 H185 0.960 . S
H183 C182 0.961 . S
H184 C182 0.961 . S
H185 C182 0.960 . S
C186 N187 1.342 . S
C186 C190 1.401 . S
C186 C191 1.499 . S
N187 Co170 1.989 . S
N187 C186 1.342 . S
N187 N188 1.388 . S
N188 Co171 1.993 . S
N188 N187 1.388 . S
N188 C189 1.346 . S
C189 N188 1.346 . S
C189 C190 1.396 . S
C189 C199 1.510 . S
C190 C186 1.401 . S
C190 C189 1.396 . S
C191 C186 1.499 . S
C191 H192 0.959 . S
C191 H193 0.960 . S
C191 H194 0.961 . S
H192 C191 0.959 . S
H193 C191 0.960 . S
H194 C191 0.961 . S
O195 Co170 1.967 . S
O195 C203 1.258 . S
O196 Co171 1.941 . S
O196 C203 1.266 . S
H197 C199 0.959 . S
H198 C199 0.961 . S
C199 C189 1.510 . S
C199 H197 0.959 . S
C199 H198 0.961 . S
C199 H200 0.960 . S
H200 C199 0.960 . S
H201 N181 0.862 . S
O202 Co170 1.920 . S
O202 C175 1.289 . S
C203 O195 1.258 . S
C203 O196 1.266 . S
Co204 O207 1.970 . S
Co204 N221 1.989 . S
Co204 O229 1.967 . S
Co204 O236 1.920 . S
Co205 O208 1.966 . S
Co205 N214 2.022 . S
Co205 N222 1.993 . S
Co205 O230 1.941 . S
C206 O207 1.258 . S
C206 O208 1.263 . S
O207 Co204 1.970 . S
O207 C206 1.258 . S
O208 Co205 1.966 . S
O208 C206 1.263 . S
C209 O210 1.235 . S
C209 O236 1.289 . S
O210 C209 1.235 . S
C211 C213 1.400 . S
C211 N214 1.351 . S
C211 C216 1.501 . S
C212 C213 1.387 . S
C212 N215 1.341 . S
C213 C211 1.400 . S
C213 C212 1.387 . S
N214 Co205 2.022 . S
N214 C211 1.351 . S
N214 N215 1.365 . S
N215 C212 1.341 . S
N215 N214 1.365 . S
N215 H235 0.862 . S
C216 C211 1.501 . S
C216 H217 0.961 . S
C216 H218 0.961 . S
C216 H219 0.960 . S
H217 C216 0.961 . S
H218 C216 0.961 . S
H219 C216 0.960 . S
C220 N221 1.342 . S
C220 C224 1.401 . S
C220 C225 1.499 . S
N221 Co204 1.989 . S
N221 C220 1.342 . S
N221 N222 1.388 . S
N222 Co205 1.993 . S
N222 N221 1.388 . S
N222 C223 1.346 . S
C223 N222 1.346 . S
C223 C224 1.396 . S
C223 C233 1.510 . S
C224 C220 1.401 . S
C224 C223 1.396 . S
C225 C220 1.499 . S
C225 H226 0.959 . S
C225 H227 0.960 . S
C225 H228 0.961 . S
H226 C225 0.959 . S
H227 C225 0.960 . S
H228 C225 0.961 . S
O229 Co204 1.967 . S
O229 C237 1.258 . S
O230 Co205 1.941 . S
O230 C237 1.266 . S
H231 C233 0.959 . S
H232 C233 0.961 . S
C233 C223 1.510 . S
C233 H231 0.959 . S
C233 H232 0.961 . S
C233 H234 0.960 . S
H234 C233 0.960 . S
H235 N215 0.862 . S
O236 Co204 1.920 . S
O236 C209 1.289 . S
C237 O229 1.258 . S
C237 O230 1.266 . S
Co238 O241 1.970 . S
Co238 N255 1.989 . S
Co238 O263 1.967 . S
Co238 O270 1.920 . S
Co239 O242 1.966 . S
Co239 N248 2.022 . S
Co239 N256 1.993 . S
Co239 O264 1.941 . S
C240 O241 1.264 . S
C240 O242 1.269 . S
O241 Co238 1.970 . S
O241 C240 1.264 . S
O242 Co239 1.966 . S
O242 C240 1.269 . S
C243 O244 1.235 . S
C243 O270 1.289 . S
O244 C243 1.235 . S
C245 C247 1.400 . S
C245 N248 1.351 . S
C245 C250 1.501 1_556 S
C246 C247 1.387 . S
C246 N249 1.341 . S
C247 C245 1.400 . S
C247 C246 1.387 . S
N248 Co239 2.022 . S
N248 C245 1.351 . S
N248 N249 1.365 . S
N249 C246 1.341 . S
N249 N248 1.365 . S
N249 H269 0.862 . S
C250 C245 1.501 1_554 S
C250 H251 0.961 . S
C250 H252 0.961 . S
C250 H253 0.960 . S
H251 C250 0.961 . S
H252 C250 0.961 . S
H253 C250 0.960 . S
C254 N255 1.342 . S
C254 C258 1.401 . S
C254 C259 1.499 . S
N255 Co238 1.989 . S
N255 C254 1.342 . S
N255 N256 1.388 . S
N256 Co239 1.993 . S
N256 N255 1.388 . S
N256 C257 1.346 . S
C257 N256 1.346 . S
C257 C258 1.396 . S
C257 C267 1.510 . S
C258 C254 1.401 . S
C258 C257 1.396 . S
C259 C254 1.499 . S
C259 H260 0.959 . S
C259 H261 0.960 . S
C259 H262 0.961 . S
H260 C259 0.959 . S
H261 C259 0.960 . S
H262 C259 0.961 . S
O263 Co238 1.967 . S
O263 C271 1.258 . S
O264 Co239 1.941 . S
O264 C271 1.266 . S
H265 C267 0.959 . S
H266 C267 0.961 . S
C267 C257 1.510 . S
C267 H265 0.959 . S
C267 H266 0.961 . S
C267 H268 0.960 . S
H268 C267 0.960 . S
H269 N249 0.862 . S
O270 Co238 1.920 . S
O270 C243 1.289 . S
C271 O263 1.258 . S
C271 O264 1.266 . S
C272 C273 1.387 . S
C272 H276 0.950 . S
C272 C281 1.390 1_565 S
C273 C272 1.387 . S
C273 C275 1.387 . S
H274 C281 0.950 . S
C275 C273 1.387 . S
C275 C277 1.390 1_565 S
C275 H279 0.950 . S
H276 C272 0.950 . S
C277 C275 1.390 1_545 S
C277 C278 1.387 . S
C277 H280 0.950 . S
C278 C277 1.387 . S
C278 C281 1.387 . S
H279 C275 0.950 . S
H280 C277 0.950 . S
C281 C272 1.390 1_545 S
C281 H274 0.950 . S
C281 C278 1.387 . S
C282 C283 1.387 . S
C282 H286 0.950 . S
C282 C291 1.390 . S
C283 C282 1.387 . S
C283 C285 1.387 . S
H284 C291 0.950 . S
C285 C283 1.387 . S
C285 C287 1.390 1_545 S
C285 H289 0.950 . S
H286 C282 0.950 . S
C287 C285 1.390 1_565 S
C287 C288 1.387 . S
C287 H290 0.950 . S
C288 C287 1.387 . S
C288 C291 1.387 1_565 S
H289 C285 0.950 . S
H290 C287 0.950 . S
C291 C282 1.390 . S
C291 H284 0.950 . S
C291 C288 1.387 1_545 S
C292 C293 1.387 . S
C292 H296 0.950 . S
C292 C301 1.390 1_565 S
C293 C292 1.387 . S
C293 C295 1.387 . S
H294 C301 0.950 . S
C295 C293 1.387 . S
C295 C297 1.390 1_565 S
C295 H299 0.950 . S
H296 C292 0.950 . S
C297 C295 1.390 1_545 S
C297 C298 1.387 . S
C297 H300 0.950 . S
C298 C297 1.387 . S
C298 C301 1.387 . S
H299 C295 0.950 . S
H300 C297 0.950 . S
C301 C292 1.390 1_545 S
C301 H294 0.950 . S
C301 C298 1.387 . S
C302 C303 1.387 . S
C302 H306 0.950 . S
C302 C311 1.390 1_565 S
C303 C302 1.387 . S
C303 C305 1.387 . S
H304 C311 0.950 . S
C305 C303 1.387 . S
C305 C307 1.390 1_565 S
C305 H309 0.950 . S
H306 C302 0.950 . S
C307 C305 1.390 1_545 S
C307 C308 1.387 . S
C307 H310 0.950 . S
C308 C307 1.387 . S
C308 C311 1.387 . S
H309 C305 0.950 . S
H310 C307 0.950 . S
C311 C302 1.390 1_545 S
C311 H304 0.950 . S
C311 C308 1.387 . S
C312 C313 1.387 . S
C312 H316 0.950 . S
C312 C321 1.390 . S
C313 C312 1.387 . S
C313 C315 1.387 . S
H314 C321 0.950 . S
C315 C313 1.387 . S
C315 C317 1.390 . S
C315 H319 0.950 . S
H316 C312 0.950 . S
C317 C315 1.390 . S
C317 C318 1.387 . S
C317 H320 0.950 . S
C318 C317 1.387 . S
C318 C321 1.387 . S
H319 C315 0.950 . S
H320 C317 0.950 . S
C321 C312 1.390 . S
C321 H314 0.950 . S
C321 C318 1.387 . S
C322 C323 1.387 . S
C322 H326 0.950 . S
C322 C331 1.390 . S
C323 C322 1.387 . S
C323 C325 1.387 . S
H324 C331 0.950 . S
C325 C323 1.387 . S
C325 C327 1.390 . S
C325 H329 0.950 . S
H326 C322 0.950 . S
C327 C325 1.390 . S
C327 C328 1.387 . S
C327 H330 0.950 . S
C328 C327 1.387 . S
C328 C331 1.387 . S
H329 C325 0.950 . S
H330 C327 0.950 . S
C331 C322 1.390 . S
C331 H324 0.950 . S
C331 C328 1.387 . S
C332 C333 1.387 . S
C332 H336 0.950 . S
C332 C341 1.390 . S
C333 C332 1.387 . S
C333 C335 1.387 . S
H334 C341 0.950 . S
C335 C333 1.387 . S
C335 C337 1.390 . S
C335 H339 0.950 . S
H336 C332 0.950 . S
C337 C335 1.390 . S
C337 C338 1.387 . S
C337 H340 0.950 . S
C338 C337 1.387 . S
C338 C341 1.387 . S
H339 C335 0.950 . S
H340 C337 0.950 . S
C341 C332 1.390 . S
C341 H334 0.950 . S
C341 C338 1.387 . S
C342 C343 1.387 . S
C342 H346 0.950 . S
C342 C351 1.390 . S
C343 C342 1.387 . S
C343 C345 1.387 . S
H344 C351 0.950 . S
C345 C343 1.387 . S
C345 C347 1.390 . S
C345 H349 0.950 . S
H346 C342 0.950 . S
C347 C345 1.390 . S
C347 C348 1.387 . S
C347 H350 0.950 . S
C348 C347 1.387 . S
C348 C351 1.387 . S
H349 C345 0.950 . S
H350 C347 0.950 . S
C351 C342 1.390 . S
C351 H344 0.950 . S
C351 C348 1.387 . S
C352 C353 1.387 1_545 S
C352 H356 0.950 . S
C352 C361 1.390 . S
C353 C352 1.387 1_565 S
C353 C355 1.387 . S
H354 C361 0.950 . S
C355 C353 1.387 . S
C355 C357 1.390 . S
C355 H359 0.950 . S
H356 C352 0.950 . S
C357 C355 1.390 . S
C357 C358 1.387 1_565 S
C357 H360 0.950 . S
C358 C357 1.387 1_545 S
C358 C361 1.387 . S
H359 C355 0.950 . S
H360 C357 0.950 . S
C361 C352 1.390 . S
C361 H354 0.950 . S
C361 C358 1.387 . S
C362 C363 1.387 1_544 S
C362 H366 0.950 . S
C362 C371 1.390 . S
C363 C362 1.387 1_566 S
C363 C365 1.387 . S
H364 C371 0.950 . S
C365 C363 1.387 . S
C365 C367 1.390 . S
C365 H369 0.950 . S
H366 C362 0.950 . S
C367 C365 1.390 . S
C367 C368 1.387 1_566 S
C367 H370 0.950 . S
C368 C367 1.387 1_544 S
C368 C371 1.387 . S
H369 C365 0.950 . S
H370 C367 0.950 . S
C371 C362 1.390 . S
C371 H364 0.950 . S
C371 C368 1.387 . S
C372 C373 1.387 . S
C372 H376 0.950 . S
C372 C381 1.390 1_655 S
C373 C372 1.387 . S
C373 C375 1.387 . S
H374 C381 0.950 . S
C375 C373 1.387 . S
C375 C377 1.390 1_655 S
C375 H379 0.950 . S
H376 C372 0.950 . S
C377 C375 1.390 1_455 S
C377 C378 1.387 . S
C377 H380 0.950 . S
C378 C377 1.387 . S
C378 C381 1.387 . S
H379 C375 0.950 . S
H380 C377 0.950 . S
C381 C372 1.390 1_455 S
C381 H374 0.950 . S
C381 C378 1.387 . S
C382 C383 1.387 1_556 S
C382 H386 0.950 . S
C382 C391 1.390 1_455 S
C383 C382 1.387 1_554 S
C383 C385 1.387 . S
H384 C391 0.950 . S
C385 C383 1.387 . S
C385 C387 1.390 1_455 S
C385 H389 0.950 . S
H386 C382 0.950 . S
C387 C385 1.390 1_655 S
C387 C388 1.387 1_554 S
C387 H390 0.950 . S
C388 C387 1.387 1_556 S
C388 C391 1.387 . S
H389 C385 0.950 . S
H390 C387 0.950 . S
C391 C382 1.390 1_655 S
C391 H384 0.950 . S
C391 C388 1.387 . S
C392 C393 1.387 . S
C392 H396 0.950 . S
C392 C401 1.390 1_455 S
C393 C392 1.387 . S
C393 C395 1.387 . S
H394 C401 0.950 . S
C395 C393 1.387 . S
C395 C397 1.390 1_455 S
C395 H399 0.950 1_545 S
H396 C392 0.950 . S
C397 C395 1.390 1_655 S
C397 C398 1.387 . S
C397 H400 0.950 1_545 S
C398 C397 1.387 . S
C398 C401 1.387 . S
H399 C395 0.950 1_565 S
H400 C397 0.950 1_565 S
C401 C392 1.390 1_655 S
C401 H394 0.950 . S
C401 C398 1.387 . S
C402 C403 1.387 . S
C402 H406 0.950 . S
C402 C411 1.390 1_455 S
C403 C402 1.387 . S
C403 C405 1.387 . S
H404 C411 0.950 . S
C405 C403 1.387 . S
C405 C407 1.390 1_455 S
C405 H409 0.950 1_565 S
H406 C402 0.950 . S
C407 C405 1.390 1_655 S
C407 C408 1.387 . S
C407 H410 0.950 1_565 S
C408 C407 1.387 . S
C408 C411 1.387 . S
H409 C405 0.950 1_545 S
H410 C407 0.950 1_545 S
C411 C402 1.390 1_655 S
C411 H404 0.950 . S
C411 C408 1.387 . S
C412 C413 1.387 . S
C412 H416 0.950 . S
C412 C421 1.390 . S
C413 C412 1.387 . S
C413 C415 1.387 . S
H414 C421 0.950 . S
C415 C413 1.387 . S
C415 C417 1.390 . S
C415 H419 0.950 . S
H416 C412 0.950 . S
C417 C415 1.390 . S
C417 C418 1.387 . S
C417 H420 0.950 . S
C418 C417 1.387 . S
C418 C421 1.387 . S
H419 C415 0.950 . S
H420 C417 0.950 . S
C421 C412 1.390 . S
C421 H414 0.950 . S
C421 C418 1.387 . S
C422 C423 1.387 . S
C422 H426 0.950 . S
C422 C431 1.390 . S
C423 C422 1.387 . S
C423 C425 1.387 . S
H424 C431 0.950 . S
C425 C423 1.387 . S
C425 C427 1.390 . S
C425 H429 0.950 . S
H426 C422 0.950 . S
C427 C425 1.390 . S
C427 C428 1.387 . S
C427 H430 0.950 . S
C428 C427 1.387 . S
C428 C431 1.387 . S
H429 C425 0.950 . S
H430 C427 0.950 . S
C431 C422 1.390 . S
C431 H424 0.950 . S
C431 C428 1.387 . S
C432 C433 1.387 . S
C432 H436 0.950 . S
C432 C441 1.390 . S
C433 C432 1.387 . S
C433 C435 1.387 . S
H434 C441 0.950 . S
C435 C433 1.387 . S
C435 C437 1.390 . S
C435 H439 0.950 . S
H436 C432 0.950 . S
C437 C435 1.390 . S
C437 C438 1.387 . S
C437 H440 0.950 . S
C438 C437 1.387 . S
C438 C441 1.387 . S
H439 C435 0.950 . S
H440 C437 0.950 . S
C441 C432 1.390 . S
C441 H434 0.950 . S
C441 C438 1.387 . S
C442 C443 1.387 1_554 S
C442 H446 0.950 . S
C442 C451 1.390 . S
C443 C442 1.387 1_556 S
C443 C445 1.387 . S
H444 C451 0.950 . S
C445 C443 1.387 . S
C445 C447 1.390 . S
C445 H449 0.950 . S
H446 C442 0.950 . S
C447 C445 1.390 . S
C447 C448 1.387 1_556 S
C447 H450 0.950 . S
C448 C447 1.387 1_554 S
C448 C451 1.387 . S
H449 C445 0.950 . S
H450 C447 0.950 . S
C451 C442 1.390 . S
C451 H444 0.950 . S
C451 C448 1.387 . S
C452 C453 1.387 . S
C452 H456 0.950 . S
C452 C461 1.390 . S
C453 C452 1.387 . S
C453 C455 1.387 . S
H454 C461 0.950 . S
C455 C453 1.387 . S
C455 C457 1.390 . S
C455 H459 0.950 . S
H456 C452 0.950 . S
C457 C455 1.390 . S
C457 C458 1.387 . S
C457 H460 0.950 . S
C458 C457 1.387 . S
C458 C461 1.387 . S
H459 C455 0.950 . S
H460 C457 0.950 . S
C461 C452 1.390 . S
C461 H454 0.950 . S
C461 C458 1.387 . S
C462 C463 1.387 . S
C462 H466 0.950 . S
C462 C471 1.390 1_556 S
C463 C462 1.387 . S
C463 C465 1.387 . S
H464 C471 0.950 . S
C465 C463 1.387 . S
C465 C467 1.390 1_556 S
C465 H469 0.950 . S
H466 C462 0.950 . S
C467 C465 1.390 1_554 S
C467 C468 1.387 . S
C467 H470 0.950 . S
C468 C467 1.387 . S
C468 C471 1.387 . S
H469 C465 0.950 . S
H470 C467 0.950 . S
C471 C462 1.390 1_554 S
C471 H464 0.950 . S
C471 C468 1.387 . S
C273 C104 1.379 1_554 S
C278 C20 1.385 . S
C283 C54 1.386 . S
C288 C70 1.392 . S
C293 C88 1.386 . S
C298 C36 1.379 1_556 S
C303 C122 1.386 . S
C308 C2 1.392 . S
C313 C156 1.386 . S
C318 C240 1.379 1_554 S
C323 C190 1.385 . S
C328 C206 1.392 . S
C333 C172 1.379 1_556 S
C338 C224 1.386 . S
C343 C258 1.385 . S
C348 C138 1.392 . S
C353 C77 1.363 . S
C358 C9 1.363 . S
C363 C111 1.363 . S
C368 C43 1.363 . S
C373 C145 1.365 . S
C378 C213 1.365 . S
C383 C179 1.363 . S
C388 C247 1.363 . S
C393 C5 1.594 . S
C398 C39 1.594 . S
C403 C107 1.593 . S
C408 C73 1.593 . S
C413 C175 1.594 . S
C418 C141 1.594 . S
C423 C243 1.594 . S
C428 C209 1.594 . S
C433 C237 1.575 . S
C438 C33 1.575 . S
C443 C271 1.574 . S
C448 C67 1.574 . S
C453 C169 1.573 . S
C458 C101 1.573 . S
C463 C135 1.575 . S
C468 C203 1.575 . S
