# Generated by pormake.
# Topology reo, (8)-cn, num edge types: 1
# Building blocks:
#     Node 0, Type 0, BuildingBlock: TAGTUT_clean_sbu_3, # of connection points: 8
#     Node 1, Type 0, BuildingBlock: TAGTUT_clean_sbu_3, # of connection points: 8
#     Node 2, Type 0, BuildingBlock: TAGTUT_clean_sbu_3, # of connection points: 8
#     Edge 3, Type (0, 0), BuildingBlock: TEMPAE_clean_linker_10, # of connection points: 2
#     Edge 4, Type (0, 0), BuildingBlock: TEMPAE_clean_linker_10, # of connection points: 2
#     Edge 5, Type (0, 0), BuildingBlock: TEMPAE_clean_linker_10, # of connection points: 2
#     Edge 6, Type (0, 0), BuildingBlock: TEMPAE_clean_linker_10, # of connection points: 2
#     Edge 7, Type (0, 0), BuildingBlock: TEMPAE_clean_linker_10, # of connection points: 2
#     Edge 8, Type (0, 0), BuildingBlock: TEMPAE_clean_linker_10, # of connection points: 2
#     Edge 9, Type (0, 0), BuildingBlock: TEMPAE_clean_linker_10, # of connection points: 2
#     Edge 10, Type (0, 0), BuildingBlock: TEMPAE_clean_linker_10, # of connection points: 2
#     Edge 11, Type (0, 0), BuildingBlock: TEMPAE_clean_linker_10, # of connection points: 2
#     Edge 12, Type (0, 0), BuildingBlock: TEMPAE_clean_linker_10, # of connection points: 2
#     Edge 13, Type (0, 0), BuildingBlock: TEMPAE_clean_linker_10, # of connection points: 2
#     Edge 14, Type (0, 0), BuildingBlock: TEMPAE_clean_linker_10, # of connection points: 2
# Relax obj value: 0.169
# Max RMSD: 0.190
# Mean RMSD: 0.190
data_MOF--net-reo--node1-TAGTUT_clean_sbu_3--edge1-TEMPAE_clean_linker_10
_symmetry_space_group_name_H-M    P1
_symmetry_Int_Tables_number       1
_symmetry_cell_setting            triclinic
loop_
_symmetry_equiv_pos_as_xyz
'x, y, z'
_cell_length_a     23.927114
_cell_length_b     23.802808
_cell_length_c     23.86438
_cell_angle_alpha  90.717523
_cell_angle_beta   91.141463
_cell_angle_gamma 90.938883
loop_
_atom_site_label
_atom_site_type_symbol
_atom_site_fract_x
_atom_site_fract_y
_atom_site_fract_z
_atom_type_partial_charge
C0 C 0.94181 0.88213 0.54023 0.0
C1 C 0.76281 0.01734 0.54111 0.0
C2 C 0.849 0.0855 0.39639 0.0
Mg3 Mg 0.06743 0.91542 0.49658 0.0
Mg4 Mg 0.1089 0.04811 0.51289 0.0
O5 O 0.05725 -0.00265 0.47971 0.0
Mg6 Mg 0.9787 0.00747 0.50226 0.0
O7 O 0.89865 0.01403 0.52296 0.0
Mg8 Mg 0.86469 0.96265 0.46333 0.0
Mg9 Mg 0.87049 0.0881 0.52042 0.0
C10 C 0.01874 0.13182 0.46408 0.0
O11 O 0.00154 0.06104 0.58209 0.0
O12 O 0.15312 0.92695 0.45025 0.0
O13 O 0.93269 0.12487 0.57786 0.0
O14 O 0.11095 0.92995 0.5812 0.0
O15 O 0.17529 0.01893 0.46266 0.0
O16 O 0.12455 0.02131 0.59767 0.0
O17 O 0.95092 0.96002 0.42379 0.0
O18 O 0.02019 0.89934 0.41433 0.0
C19 C 0.97415 0.92024 0.39724 0.0
C20 C 0.18491 0.97026 0.44172 0.0
O21 O 0.98228 0.09186 0.46011 0.0
O22 O 0.78236 0.97602 0.51251 0.0
O23 O 0.06674 0.12617 0.48857 0.0
O24 O 0.84467 0.03283 0.40394 0.0
O25 O 0.7891 0.06435 0.54795 0.0
O26 O 0.86343 0.11926 0.43597 0.0
O27 O 0.98067 0.91999 0.54055 0.0
O28 O 0.89331 0.89096 0.51863 0.0
C29 C 0.12604 0.97045 0.61363 0.0
C30 C 0.9789 0.107 0.59891 0.0
C31 C 0.40443 0.99425 0.9091 0.0
C32 C 0.44131 0.20215 0.98556 0.0
C33 C 0.6098 0.14268 0.00314 0.0
Mg34 Mg 0.4661 0.88087 0.95182 0.0
Mg35 Mg 0.52159 0.87869 0.07924 0.0
O36 O 0.52321 0.91172 0.0072 0.0
Mg37 Mg 0.49974 0.99125 0.00633 0.0
O38 O 0.47531 0.07014 0.00326 0.0
Mg39 Mg 0.50179 0.08906 0.92642 0.0
Mg40 Mg 0.50129 0.11676 0.06302 0.0
C41 C 0.59637 0.9873 0.10571 0.0
O42 O 0.45264 0.98415 0.08784 0.0
O43 O 0.51673 0.79756 0.96206 0.0
O44 O 0.47245 0.0658 0.13331 0.0
O45 O 0.40498 0.8549 0.01922 0.0
O46 O 0.55075 0.79926 0.0511 0.0
O47 O 0.43713 0.86666 0.1069 0.0
O48 O 0.54389 0.00167 0.92362 0.0
O49 O 0.52333 0.91684 0.88548 0.0
C50 C 0.54475 0.96649 0.88237 0.0
C51 C 0.54478 0.77561 0.00279 0.0
O52 O 0.57691 0.0119 0.06207 0.0
O53 O 0.45526 0.17434 0.94134 0.0
O54 O 0.57772 0.93926 0.12178 0.0
O55 O 0.58349 0.12924 0.95793 0.0
O56 O 0.45464 0.18679 0.03529 0.0
O57 O 0.5877 0.13794 0.05108 0.0
O58 O 0.42465 0.96751 0.95096 0.0
O59 O 0.42339 0.04286 0.8958 0.0
C60 C 0.39773 0.85469 0.07198 0.0
C61 C 0.45121 0.01582 0.13155 0.0
C62 C 0.87638 0.53775 0.96426 0.0
C63 C 0.98606 0.54587 0.77043 0.0
C64 C 0.07599 0.40968 0.84552 0.0
Mg65 Mg 0.92923 0.50131 0.08602 0.0
Mg66 Mg 0.06546 0.517 0.11223 0.0
O67 O 0.00841 0.48497 0.06628 0.0
Mg68 Mg 0.00607 0.50746 0.98661 0.0
O69 O 0.00065 0.52802 0.90625 0.0
Mg70 Mg 0.95074 0.46413 0.87883 0.0
Mg71 Mg 0.07012 0.53348 0.87005 0.0
C72 C 0.13644 0.47339 0.01037 0.0
O73 O 0.05414 0.59103 0.00329 0.0
O74 O 0.95154 0.45877 0.17166 0.0
O75 O 0.10976 0.59372 0.92814 0.0
O76 O 0.95047 0.58774 0.12342 0.0
O77 O 0.04524 0.46699 0.18295 0.0
O78 O 0.04274 0.60192 0.1313 0.0
O79 O 0.96056 0.42544 0.96622 0.0
O80 O 0.91012 0.41685 0.04367 0.0
C81 C 0.92554 0.3984 -0.00411 0.0
C82 C -0.00263 0.44915 0.19895 0.0
O83 O 0.09231 0.47002 0.97911 0.0
O84 O 0.95 0.51382 0.79445 0.0
O85 O 0.13677 0.49512 0.06002 0.0
O86 O 0.02296 0.4108 0.84904 0.0
O87 O 0.03429 0.55805 0.79194 0.0
O88 O 0.10669 0.45276 0.85613 0.0
O89 O 0.91876 0.5419 -0.00192 0.0
O90 O 0.87996 0.51453 0.91571 0.0
C91 C 0.99274 0.61915 0.13556 0.0
C92 C 0.09519 0.61248 0.97638 0.0
C93 C 0.94942 0.40495 0.28058 0.0
C94 C -0.00342 0.41085 0.24711 0.0
C95 C 0.94833 0.3654 0.32388 0.0
C96 C -0.00543 0.32977 0.33206 0.0
C97 C 0.04258 0.33647 0.29898 0.0
C98 C 0.04327 0.37746 0.2576 0.0
C99 C 0.89726 0.36076 0.35973 0.0
C100 C 0.09216 0.29827 0.30505 0.0
C101 C 0.0257 0.23638 0.45569 0.0
C102 C 0.0065 0.18427 0.43463 0.0
C103 C 0.01751 0.28553 0.42479 0.0
C104 C 0.99161 0.28168 0.37091 0.0
C105 C 0.97024 0.22931 0.35066 0.0
C106 C 0.97733 0.18139 0.38317 0.0
C107 C 0.03877 0.34104 0.44865 0.0
C108 C 0.94346 0.223 0.29297 0.0
H109 H 0.91344 0.43105 0.27282 0.0
H110 H 0.07968 0.38147 0.23152 0.0
H111 H 0.87228 0.32293 0.34694 0.0
H112 H 0.90952 0.35601 0.4045 0.0
H113 H 0.87022 0.39803 0.35557 0.0
H114 H 0.12649 0.30966 0.27643 0.0
H115 H 0.1089 0.29991 0.3487 0.0
H116 H 0.07885 0.25416 0.29586 0.0
H117 H 0.04752 0.2386 0.49594 0.0
H118 H 0.96277 0.14094 0.36674 0.0
H119 H 0.00767 0.37439 0.4413 0.0
H120 H 0.07767 0.35373 0.42733 0.0
H121 H 0.0481 0.33867 0.49435 0.0
H122 H 0.90775 0.25179 0.28858 0.0
H123 H 0.92814 0.17943 0.28406 0.0
H124 H 0.97421 0.23458 0.26069 0.0
C125 C 0.79078 0.14092 0.33111 0.0
C126 C 0.8355 0.10479 0.33976 0.0
C127 C 0.75862 0.13674 0.28127 0.0
C128 C 0.77135 0.09472 0.24112 0.0
C129 C 0.82249 0.06603 0.24567 0.0
C130 C 0.85448 0.07207 0.29503 0.0
C131 C 0.70652 0.17107 0.27547 0.0
C132 C 0.83859 0.02166 0.20346 0.0
C133 C 0.64873 0.00155 0.19594 0.0
C134 C 0.64107 0.01574 0.13964 0.0
C135 C 0.69064 0.0276 0.22918 0.0
C136 C 0.72568 0.06942 0.20568 0.0
C137 C 0.71848 0.08389 0.14876 0.0
C138 C 0.67618 0.05675 0.11631 0.0
C139 C 0.69778 0.0096 0.28944 0.0
C140 C 0.75479 0.12823 0.12223 0.0
H141 H 0.77668 0.16691 0.36552 0.0
H142 H 0.89005 0.04504 0.30169 0.0
H143 H 0.69899 0.18275 0.2311 0.0
H144 H 0.66998 0.14577 0.28913 0.0
H145 H 0.70941 0.20988 0.3018 0.0
H146 H 0.88377 0.01186 0.20693 0.0
H147 H 0.81427 0.98248 0.21118 0.0
H148 H 0.82888 0.03498 0.16006 0.0
H149 H 0.62172 0.97002 0.21426 0.0
H150 H 0.67134 0.06685 0.07243 0.0
H151 H 0.69096 0.0458 0.31807 0.0
H152 H 0.74101 0.9949 0.29715 0.0
H153 H 0.66818 0.97523 0.30049 0.0
H154 H 0.73839 0.17024 0.13299 0.0
H155 H 0.75489 0.12344 0.0759 0.0
H156 H 0.7986 0.12714 0.13814 0.0
C157 C 0.92001 0.84245 0.35429 0.0
C158 C 0.94718 0.89426 0.34802 0.0
C159 C 0.91519 0.80463 0.30906 0.0
C160 C 0.93906 0.81928 0.25734 0.0
C161 C 0.95866 0.87483 0.24888 0.0
C162 C 0.96305 0.9119 0.2949 0.0
C163 C 0.89133 0.74657 0.31872 0.0
C164 C 0.98119 0.89271 0.1932 0.0
C165 C 0.02028 0.69813 0.19945 0.0
C166 C 0.98256 0.6751 0.15975 0.0
C167 C 0.00775 0.74728 0.22895 0.0
C168 C 0.95586 0.77368 0.21875 0.0
C169 C 0.9189 0.75236 0.17639 0.0
C170 C 0.93259 0.70293 0.14755 0.0
C171 C 0.04892 0.76916 0.27323 0.0
C172 C 0.86374 0.77935 0.1627 0.0
H173 H 0.90786 0.82927 0.39574 0.0
H174 H 0.984 0.95232 0.29051 0.0
H175 H 0.86366 0.73319 0.28297 0.0
H176 H 0.92595 0.7162 0.32178 0.0
H177 H 0.86718 0.74464 0.35796 0.0
H178 H 0.98412 0.9392 0.19014 0.0
H179 H 0.02363 0.87545 0.18802 0.0
H180 H 0.9542 0.87592 0.15829 0.0
H181 H 0.0586 0.67632 0.20929 0.0
H182 H 0.90337 0.6853 0.11649 0.0
H183 H 0.03008 0.76608 0.31524 0.0
H184 H 0.05906 0.81408 0.26598 0.0
H185 H 0.08852 0.74542 0.27368 0.0
H186 H 0.82918 0.75176 0.17713 0.0
H187 H 0.85861 0.78331 0.11659 0.0
H188 H 0.8595 0.8216 0.18212 0.0
C189 C 0.44007 0.00347 0.23452 0.0
C190 C 0.41964 0.99537 0.17966 0.0
C191 C 0.40762 0.98771 0.28032 0.0
C192 C 0.35271 0.96593 0.27072 0.0
C193 C 0.33317 0.95515 0.21514 0.0
C194 C 0.36738 0.96922 0.1703 0.0
C195 C 0.43086 -0.00276 0.33897 0.0
C196 C 0.2751 0.93171 0.20267 0.0
C197 C 0.25722 0.91709 0.38747 0.0
C198 C 0.23034 0.96733 0.40062 0.0
C199 C 0.29898 0.91593 0.3466 0.0
C200 C 0.31236 0.96567 0.31726 0.0
C201 C 0.28485 0.01616 0.33026 0.0
C202 C 0.24503 0.01649 0.37216 0.0
C203 C 0.32791 0.86147 0.33431 0.0
C204 C 0.29583 0.0697 0.29846 0.0
H205 H 0.48108 0.02266 0.24157 0.0
H206 H 0.35187 0.96281 0.12767 0.0
H207 H 0.41181 0.03509 0.35769 0.0
H208 H 0.42038 0.961 0.36588 0.0
H209 H 0.47697 0.00363 0.33939 0.0
H210 H 0.26299 0.93549 0.15772 0.0
H211 H 0.27354 0.88656 0.21351 0.0
H212 H 0.24348 0.95355 0.22801 0.0
H213 H 0.2459 0.87898 0.40922 0.0
H214 H 0.22381 0.05536 0.3812 0.0
H215 H 0.37326 0.8688 0.32791 0.0
H216 H 0.30989 0.84239 0.29521 0.0
H217 H 0.32255 0.83085 0.36863 0.0
H218 H 0.34023 0.08305 0.30396 0.0
H219 H 0.26924 0.1048 0.31252 0.0
H220 H 0.2878 0.06229 0.25297 0.0
C221 C 0.98579 0.82052 0.61173 0.0
C222 C 0.95213 0.82635 0.56369 0.0
C223 C 0.98928 0.76849 0.63846 0.0
C224 C 0.95959 0.72122 0.61546 0.0
C225 C 0.9285 0.72629 0.56488 0.0
C226 C 0.92449 0.77907 0.54001 0.0
C227 C 0.02267 0.76476 0.69263 0.0
C228 C 0.89811 0.67649 0.53797 0.0
C229 C 0.00854 0.58528 0.67806 0.0
C230 C 0.96985 0.5778 0.72072 0.0
C231 C 0.00305 0.62927 0.63999 0.0
C232 C 0.95889 0.66747 0.64625 0.0
C233 C 0.91724 0.6573 0.68648 0.0
C234 C 0.92289 0.61187 0.72292 0.0
C235 C 0.047 0.6374 0.59618 0.0
C236 C 0.86974 0.69738 0.69474 0.0
H237 H 0.00708 0.85717 0.62992 0.0
H238 H 0.8991 0.78352 0.50221 0.0
H239 H -0.00548 0.75284 0.7271 0.0
H240 H 0.05449 0.73161 0.6892 0.0
H241 H 0.04423 0.80508 0.70417 0.0
H242 H 0.88205 0.68593 0.49517 0.0
H243 H 0.92617 0.63993 0.53539 0.0
H244 H 0.86223 0.66396 0.56403 0.0
H245 H 0.04499 0.55883 0.6767 0.0
H246 H 0.89355 0.60648 0.75658 0.0
H247 H 0.07581 0.67231 0.60937 0.0
H248 H 0.02754 0.6489 0.55541 0.0
H249 H 0.07205 0.59899 0.59009 0.0
H250 H 0.88661 0.73795 0.71183 0.0
H251 H 0.83825 0.68077 0.72414 0.0
H252 H 0.84852 0.70621 0.65416 0.0
C253 C 0.36416 0.98057 0.81435 0.0
C254 C 0.36174 0.96857 0.87149 0.0
C255 C 0.31929 0.96763 0.77814 0.0
C256 C 0.27051 0.9422 0.79975 0.0
C257 C 0.26989 0.92497 0.85638 0.0
C258 C 0.31591 0.93845 0.89194 0.0
C259 C 0.32283 0.98498 0.71753 0.0
C260 C 0.22004 0.89547 0.88087 0.0
C261 C 0.15394 -0.00186 0.71151 0.0
C262 C 0.15093 0.95731 0.66883 0.0
C263 C 0.18736 0.99009 0.75947 0.0
C264 C 0.21934 0.94075 0.76378 0.0
C265 C 0.21072 0.8965 0.72443 0.0
C266 C 0.17634 0.90524 0.67724 0.0
C267 C 0.19278 0.0369 0.80254 0.0
C268 C 0.24226 0.84235 0.72911 0.0
H269 H 0.40042 0.00262 0.79834 0.0
H270 H 0.31442 0.92854 0.93611 0.0
H271 H 0.31039 0.94943 0.68923 0.0
H272 H 0.2936 0.01982 0.70943 0.0
H273 H 0.3656 -0.00064 0.70654 0.0
H274 H 0.23439 0.86021 0.90723 0.0
H275 H 0.19785 0.92536 0.90832 0.0
H276 H 0.1901 0.87862 0.84856 0.0
H277 H 0.13229 0.03737 0.7063 0.0
H278 H 0.17296 0.8728 0.64499 0.0
H279 H 0.23066 0.06269 0.79397 0.0
H280 H 0.19729 0.01986 0.84543 0.0
H281 H 0.15594 0.06469 0.80116 0.0
H282 H 0.28585 0.84935 0.71541 0.0
H283 H 0.22284 0.80844 0.70247 0.0
H284 H 0.24409 0.82819 0.77323 0.0
C285 C 0.11658 0.36044 0.7656 0.0
C286 C 0.09936 0.3588 0.82117 0.0
C287 C 0.11209 0.31219 0.73138 0.0
C288 C 0.09137 0.26151 0.75436 0.0
C289 C 0.08376 0.25788 0.81285 0.0
C290 C 0.08649 0.30716 0.8455 0.0
C291 C 0.12061 0.31816 0.66923 0.0
C292 C 0.06445 0.20401 0.8395 0.0
C293 C 0.97862 0.18754 0.66666 0.0
C294 C 0.00765 0.14324 0.64198 0.0
C295 C 0.00557 0.22583 0.70345 0.0
C296 C 0.06308 0.21937 0.71677 0.0
C297 C 0.0925 0.17413 0.69329 0.0
C298 C 0.06438 0.13681 0.6559 0.0
C299 C 0.97248 0.27394 0.72712 0.0
C300 C 0.15359 0.1656 0.70719 0.0
H301 H 0.12602 0.40071 0.74688 0.0
H302 H 0.0731 0.30619 0.88865 0.0
H303 H 0.07957 0.32535 0.64823 0.0
H304 H 0.14872 0.3544 0.66017 0.0
H305 H 0.13824 0.27958 0.65065 0.0
H306 H 0.07442 0.20414 0.88518 0.0
H307 H 0.01845 0.19934 0.83385 0.0
H308 H 0.084 0.16704 0.8196 0.0
H309 H 0.9347 0.19304 0.65651 0.0
H310 H 0.08725 0.10376 0.63643 0.0
H311 H 0.99264 0.31466 0.71653 0.0
H312 H 0.97167 0.2714 0.77348 0.0
H313 H 0.92864 0.27393 0.71089 0.0
H314 H 0.17823 0.20437 0.69899 0.0
H315 H 0.17143 0.13044 0.6827 0.0
H316 H 0.15879 0.15677 0.75249 0.0
C317 C 0.53653 0.96837 0.77897 0.0
C318 C 0.56643 0.98363 0.82806 0.0
C319 C 0.55926 0.97736 0.72619 0.0
C320 C 0.61396 0.0002 0.72281 0.0
C321 C 0.64329 0.01806 0.77235 0.0
C322 C 0.61862 0.01034 0.82462 0.0
C323 C 0.5257 0.96007 0.67438 0.0
C324 C 0.70196 0.04221 0.77044 0.0
C325 C 0.70796 0.95736 0.6047 0.0
C326 C 0.71377 0.00813 0.57627 0.0
C327 C 0.67327 0.95336 0.65117 0.0
C328 C 0.64268 0.00085 0.66831 0.0
C329 C 0.64398 0.05027 0.63608 0.0
C330 C 0.68025 0.05363 0.59079 0.0
C331 C 0.67322 0.89996 0.68471 0.0
C332 C 0.61012 0.10089 0.65164 0.0
H333 H 0.49566 0.94836 0.78195 0.0
H334 H 0.64146 0.02203 0.86283 0.0
H335 H 0.52889 0.99264 0.64168 0.0
H336 H 0.54258 0.92065 0.65673 0.0
H337 H 0.48085 0.95274 0.68365 0.0
H338 H 0.71808 0.05581 0.81252 0.0
H339 H 0.7304 0.01018 0.7533 0.0
H340 H 0.70331 0.07878 0.74215 0.0
H341 H 0.73428 0.92236 0.59387 0.0
H342 H 0.68461 0.09287 0.56856 0.0
H343 H 0.6298 0.88498 0.69152 0.0
H344 H 0.69283 0.90844 0.72658 0.0
H345 H 0.69649 0.86582 0.66382 0.0
H346 H 0.56698 0.08808 0.66277 0.0
H347 H 0.60792 0.13161 0.61702 0.0
H348 H 0.62956 0.12226 0.6889 0.0
C349 C 0.24031 0.46558 0.00501 0.0
C350 C 0.18673 0.4449 0.99088 0.0
C351 C 0.2877 0.43398 0.99283 0.0
C352 C 0.28075 0.37955 0.96869 0.0
C353 C 0.22683 0.36028 0.95102 0.0
C354 C 0.18061 0.39381 0.96146 0.0
C355 C 0.34485 0.45727 0.00905 0.0
C356 C 0.21682 0.30312 0.92389 0.0
C357 C 0.3978 0.28055 0.93053 0.0
C358 C 0.40418 0.251 0.98067 0.0
C359 C 0.35983 0.32499 0.92651 0.0
C360 C 0.32678 0.33876 0.97317 0.0
C361 C 0.33361 0.30928 0.02388 0.0
C362 C 0.37269 0.26655 0.02718 0.0
C363 C 0.35379 0.35584 0.872 0.0
C364 C 0.2974 0.32056 0.07394 0.0
H365 H 0.24506 0.50575 0.02667 0.0
H366 H 0.13911 0.37798 0.95016 0.0
H367 H 0.35921 0.43823 0.04889 0.0
H368 H 0.37566 0.44673 0.97653 0.0
H369 H 0.34442 0.50362 0.01512 0.0
H370 H 0.17372 0.28719 0.93114 0.0
H371 H 0.22193 0.30679 0.87796 0.0
H372 H 0.24645 0.27127 0.93943 0.0
H373 H 0.42214 0.26883 0.89452 0.0
H374 H 0.37678 0.24362 0.06597 0.0
H375 H 0.35057 0.40175 0.87977 0.0
H376 H 0.31481 0.34142 0.84994 0.0
H377 H 0.38947 0.3481 0.844 0.0
H378 H 0.30287 0.36479 0.08833 0.0
H379 H 0.30733 0.29282 0.10976 0.0
H380 H 0.25267 0.31404 0.06195 0.0
C381 C 0.18398 0.66789 0.9837 0.0
C382 C 0.13006 0.65756 0.00332 0.0
C383 C 0.21959 0.70768 0.00985 0.0
C384 C 0.20118 0.73788 0.05746 0.0
C385 C 0.14628 0.72901 0.07674 0.0
C386 C 0.11125 0.68884 0.04934 0.0
C387 C 0.27711 0.7173 0.98617 0.0
C388 C 0.12468 0.76042 0.12692 0.0
C389 C 0.33469 0.79038 0.1229 0.0
C390 C 0.34191 0.83854 0.09073 0.0
C391 C 0.28359 0.76049 0.12026 0.0
C392 C 0.24016 0.77959 0.08449 0.0
C393 C 0.24415 0.83374 0.06122 0.0
C394 C 0.29564 0.86239 0.06388 0.0
C395 C 0.27892 0.70468 0.14903 0.0
C396 C 0.19655 0.8578 0.02733 0.0
H397 H 0.19896 0.64412 0.94814 0.0
H398 H 0.06913 0.68225 0.0638 0.0
H399 H 0.28284 0.76215 0.97509 0.0
H400 H 0.30967 0.70711 0.01802 0.0
H401 H 0.28418 0.69128 0.94808 0.0
H402 H 0.13249 0.73506 0.16487 0.0
H403 H 0.14571 0.80183 0.13378 0.0
H404 H 0.07897 0.76699 0.12251 0.0
H405 H 0.37044 0.77252 0.14441 0.0
H406 H 0.30121 0.90076 0.04045 0.0
H407 H 0.28782 0.6705 0.11856 0.0
H408 H 0.23594 0.6977 0.16451 0.0
H409 H 0.30924 0.70196 0.18473 0.0
H410 H 0.18726 0.83076 0.99 0.0
H411 H 0.20598 0.90121 0.01334 0.0
H412 H 0.15821 0.85847 0.05266 0.0
C413 C 0.70062 0.15163 0.95493 0.0
C414 C 0.66568 0.1682 -0.00157 0.0
C415 C 0.75127 0.18013 0.94582 0.0
C416 C 0.76614 0.22707 0.98011 0.0
C417 C 0.73161 0.24288 0.02509 0.0
C418 C 0.68185 0.21291 0.0339 0.0
C419 C 0.78763 0.16122 0.89843 0.0
C420 C 0.74624 0.29261 0.06289 0.0
C421 C 0.90618 0.29727 0.0028 0.0
C422 C 0.89757 0.34753 0.97443 0.0
C423 C 0.86618 0.25374 -0.00055 0.0
C424 C 0.81618 0.26196 0.96825 0.0
C425 C 0.81046 0.31021 0.93454 0.0
C426 C 0.85169 0.35266 0.93792 0.0
C427 C 0.87453 0.20218 0.03464 0.0
C428 C 0.75777 0.32042 0.90063 0.0
H429 H 0.68791 0.11682 0.92753 0.0
H430 H 0.65452 0.22582 0.06723 0.0
H431 H 0.78224 0.18991 0.86253 0.0
H432 H 0.83247 0.16268 0.91127 0.0
H433 H 0.77649 0.11788 0.88387 0.0
H434 H 0.71489 0.29904 0.09599 0.0
H435 H 0.78763 0.28658 0.08347 0.0
H436 H 0.74911 0.33141 0.03771 0.0
H437 H 0.94176 0.29395 0.0314 0.0
H438 H 0.84506 0.39215 0.91676 0.0
H439 H 0.85722 0.16399 0.01302 0.0
H440 H 0.85224 0.20732 0.07467 0.0
H441 H 0.91949 0.19573 0.04472 0.0
H442 H 0.74414 0.28184 0.87732 0.0
H443 H 0.76344 0.35502 0.87034 0.0
H444 H 0.72375 0.33192 0.92935 0.0
C445 C 0.77274 0.53648 0.95839 0.0
C446 C 0.82239 0.56203 0.97894 0.0
C447 C 0.7213 0.56312 0.96361 0.0
C448 C 0.71989 0.61722 0.98858 0.0
C449 C 0.76964 0.64205 0.01174 0.0
C450 C 0.82036 0.61367 0.00732 0.0
C451 C 0.66898 0.53441 0.94024 0.0
C452 C 0.76983 0.69986 0.03852 0.0
C453 C 0.61042 0.72188 0.94422 0.0
C454 C 0.5788 0.72564 0.99277 0.0
C455 C 0.65517 0.68465 0.9412 0.0
C456 C 0.6674 0.64966 0.98736 0.0
C457 C 0.63215 0.64962 0.03421 0.0
C458 C 0.58863 0.68822 0.03667 0.0
C459 C 0.69209 0.68615 0.89063 0.0
C460 C 0.64256 0.61157 0.08332 0.0
H461 H 0.77436 0.4961 0.93696 0.0
H462 H 0.85886 0.63339 0.02296 0.0
H463 H 0.6348 0.53666 0.97091 0.0
H464 H 0.65462 0.55623 0.9019 0.0
H465 H 0.67599 0.48961 0.92929 0.0
H466 H 0.81213 0.71322 0.0539 0.0
H467 H 0.75475 0.73101 0.00772 0.0
H468 H 0.74095 0.70057 0.07427 0.0
H469 H 0.60326 0.7513 0.9106 0.0
H470 H 0.56398 0.69111 0.07422 0.0
H471 H 0.69798 0.64312 0.87369 0.0
H472 H 0.734 0.70325 0.90317 0.0
H473 H 0.67462 0.71263 0.85673 0.0
H474 H 0.65154 0.56828 0.06867 0.0
H475 H 0.60634 0.60992 0.11171 0.0
H476 H 0.67967 0.62717 0.1078 0.0
loop_
_geom_bond_atom_site_label_1
_geom_bond_atom_site_label_2
_geom_bond_distance
_geom_bond_site_symmetry_2
_ccdc_geom_bond_type
C0 O27 1.312 1_655 S
C0 O28 1.208 . S
C1 O22 1.331 . S
C1 O25 1.244 1_565 S
C2 O24 1.264 1_545 S
C2 O26 1.273 . S
Mg3 O5 1.936 1_565 S
Mg3 O12 2.081 . S
Mg3 O14 2.023 . S
Mg3 O18 2.031 . S
Mg3 O27 2.291 . S
Mg4 O5 1.963 . S
Mg4 O15 1.942 . S
Mg4 O16 1.955 . S
Mg4 O23 1.986 . S
O5 Mg3 1.936 1_545 S
O5 Mg4 1.963 . S
O5 Mg6 1.915 . S
Mg6 O5 1.915 . S
Mg6 O7 1.915 1_455 S
Mg6 O11 2.013 . S
Mg6 O17 2.114 1_445 S
Mg6 O21 2.013 1_455 S
Mg6 O27 2.114 1_545 S
O7 Mg6 1.915 1_655 S
O7 Mg8 1.936 1_545 S
O7 Mg9 1.963 . S
Mg8 O7 1.936 1_565 S
Mg8 O17 2.291 . S
Mg8 O22 2.081 . S
Mg8 O24 2.023 . S
Mg8 O28 2.031 . S
Mg9 O7 1.963 . S
Mg9 O13 1.986 . S
Mg9 O25 1.942 . S
Mg9 O26 1.955 . S
C10 O21 1.191 1_455 S
C10 O23 1.307 . S
O11 Mg6 2.013 . S
O11 C30 1.191 1_455 S
O12 Mg3 2.081 . S
O12 C20 1.331 . S
O13 Mg9 1.986 . S
O13 C30 1.307 . S
O14 Mg3 2.023 . S
O14 C29 1.264 1_565 S
O15 Mg4 1.942 . S
O15 C20 1.244 1_545 S
O16 Mg4 1.955 . S
O16 C29 1.273 . S
O17 Mg6 2.114 1_665 S
O17 Mg8 2.291 . S
O17 C19 1.312 1_655 S
O18 Mg3 2.031 . S
O18 C19 1.208 . S
C19 O17 1.312 1_455 S
C19 O18 1.208 . S
C20 O12 1.331 . S
C20 O15 1.244 1_565 S
O21 Mg6 2.013 1_655 S
O21 C10 1.191 1_655 S
O22 C1 1.331 . S
O22 Mg8 2.081 . S
O23 Mg4 1.986 . S
O23 C10 1.307 . S
O24 C2 1.264 1_565 S
O24 Mg8 2.023 . S
O25 C1 1.244 1_545 S
O25 Mg9 1.942 . S
O26 C2 1.273 . S
O26 Mg9 1.955 . S
O27 C0 1.312 1_455 S
O27 Mg3 2.291 . S
O27 Mg6 2.114 1_565 S
O28 C0 1.208 . S
O28 Mg8 2.031 . S
C29 O14 1.264 1_545 S
C29 O16 1.273 . S
C30 O11 1.191 1_655 S
C30 O13 1.307 . S
C31 O58 1.312 1_545 S
C31 O59 1.208 . S
C32 O53 1.331 . S
C32 O56 1.244 1_556 S
C33 O55 1.264 1_554 S
C33 O57 1.273 . S
Mg34 O36 1.936 1_556 S
Mg34 O43 2.081 . S
Mg34 O45 2.023 . S
Mg34 O49 2.031 . S
Mg34 O58 2.291 . S
Mg35 O36 1.963 . S
Mg35 O46 1.942 . S
Mg35 O47 1.955 . S
Mg35 O54 1.986 . S
O36 Mg34 1.936 1_554 S
O36 Mg35 1.963 . S
O36 Mg37 1.915 1_565 S
Mg37 O36 1.915 1_545 S
Mg37 O38 1.915 . S
Mg37 O42 2.013 1_545 S
Mg37 O48 2.114 1_554 S
Mg37 O52 2.013 . S
Mg37 O58 2.114 1_544 S
O38 Mg37 1.915 . S
O38 Mg39 1.936 1_554 S
O38 Mg40 1.963 . S
Mg39 O38 1.936 1_556 S
Mg39 O48 2.291 . S
Mg39 O53 2.081 . S
Mg39 O55 2.023 . S
Mg39 O59 2.031 . S
Mg40 O38 1.963 . S
Mg40 O44 1.986 . S
Mg40 O56 1.942 . S
Mg40 O57 1.955 . S
C41 O52 1.191 1_565 S
C41 O54 1.307 . S
O42 Mg37 2.013 1_565 S
O42 C61 1.191 1_565 S
O43 Mg34 2.081 . S
O43 C51 1.331 . S
O44 Mg40 1.986 . S
O44 C61 1.307 . S
O45 Mg34 2.023 . S
O45 C60 1.264 1_556 S
O46 Mg35 1.942 . S
O46 C51 1.244 1_554 S
O47 Mg35 1.955 . S
O47 C60 1.273 . S
O48 Mg37 2.114 1_556 S
O48 Mg39 2.291 . S
O48 C50 1.312 1_545 S
O49 Mg34 2.031 . S
O49 C50 1.208 . S
C50 O48 1.312 1_565 S
C50 O49 1.208 . S
C51 O43 1.331 . S
C51 O46 1.244 1_556 S
O52 Mg37 2.013 . S
O52 C41 1.191 1_545 S
O53 C32 1.331 . S
O53 Mg39 2.081 . S
O54 Mg35 1.986 . S
O54 C41 1.307 . S
O55 C33 1.264 1_556 S
O55 Mg39 2.023 . S
O56 C32 1.244 1_554 S
O56 Mg40 1.942 . S
O57 C33 1.273 . S
O57 Mg40 1.955 . S
O58 C31 1.312 1_565 S
O58 Mg34 2.291 . S
O58 Mg37 2.114 1_566 S
O59 C31 1.208 . S
O59 Mg39 2.031 . S
C60 O45 1.264 1_554 S
C60 O47 1.273 . S
C61 O42 1.191 1_545 S
C61 O44 1.307 . S
C62 O89 1.312 1_556 S
C62 O90 1.208 . S
C63 O84 1.331 . S
C63 O87 1.244 1_655 S
C64 O86 1.264 1_455 S
C64 O88 1.273 . S
Mg65 O67 1.936 1_655 S
Mg65 O74 2.081 . S
Mg65 O76 2.023 . S
Mg65 O80 2.031 . S
Mg65 O89 2.291 . S
Mg66 O67 1.963 . S
Mg66 O77 1.942 . S
Mg66 O78 1.955 . S
Mg66 O85 1.986 . S
O67 Mg65 1.936 1_455 S
O67 Mg66 1.963 . S
O67 Mg68 1.915 . S
Mg68 O67 1.915 . S
Mg68 O69 1.915 1_554 S
Mg68 O73 2.013 . S
Mg68 O79 2.114 1_454 S
Mg68 O83 2.013 1_554 S
Mg68 O89 2.114 1_455 S
O69 Mg68 1.915 1_556 S
O69 Mg70 1.936 1_455 S
O69 Mg71 1.963 . S
Mg70 O69 1.936 1_655 S
Mg70 O79 2.291 . S
Mg70 O84 2.081 . S
Mg70 O86 2.023 . S
Mg70 O90 2.031 . S
Mg71 O69 1.963 . S
Mg71 O75 1.986 . S
Mg71 O87 1.942 . S
Mg71 O88 1.955 . S
C72 O83 1.191 1_554 S
C72 O85 1.307 . S
O73 Mg68 2.013 . S
O73 C92 1.191 1_554 S
O74 Mg65 2.081 . S
O74 C82 1.331 . S
O75 Mg71 1.986 . S
O75 C92 1.307 . S
O76 Mg65 2.023 . S
O76 C91 1.264 1_655 S
O77 Mg66 1.942 . S
O77 C82 1.244 1_455 S
O78 Mg66 1.955 . S
O78 C91 1.273 . S
O79 Mg68 2.114 1_656 S
O79 Mg70 2.291 . S
O79 C81 1.312 1_556 S
O80 Mg65 2.031 . S
O80 C81 1.208 . S
C81 O79 1.312 1_554 S
C81 O80 1.208 . S
C82 O74 1.331 . S
C82 O77 1.244 1_655 S
O83 Mg68 2.013 1_556 S
O83 C72 1.191 1_556 S
O84 C63 1.331 . S
O84 Mg70 2.081 . S
O85 Mg66 1.986 . S
O85 C72 1.307 . S
O86 C64 1.264 1_655 S
O86 Mg70 2.023 . S
O87 C63 1.244 1_455 S
O87 Mg71 1.942 . S
O88 C64 1.273 . S
O88 Mg71 1.955 . S
O89 C62 1.312 1_554 S
O89 Mg65 2.291 . S
O89 Mg68 2.114 1_655 S
O90 C62 1.208 . S
O90 Mg70 2.031 . S
C91 O76 1.264 1_455 S
C91 O78 1.273 . S
C92 O73 1.191 1_556 S
C92 O75 1.307 . S
C93 C94 1.391 . S
C93 C95 1.394 . S
C93 H109 0.931 . S
C94 C93 1.391 . S
C94 C98 1.376 1_655 S
C95 C93 1.394 . S
C95 C96 1.369 . S
C95 C99 1.531 . S
C96 C95 1.369 . S
C96 C97 1.410 1_655 S
C96 C104 1.503 . S
C97 C96 1.410 1_455 S
C97 C98 1.392 . S
C97 C100 1.511 . S
C98 C94 1.376 1_455 S
C98 C97 1.392 . S
C98 H110 0.929 . S
C99 C95 1.531 . S
C99 H111 0.960 . S
C99 H112 0.962 . S
C99 H113 0.960 . S
C100 C97 1.511 . S
C100 H114 0.961 . S
C100 H115 0.961 . S
C100 H116 0.961 . S
C101 C102 1.370 . S
C101 C103 1.363 . S
C101 H117 0.931 . S
C102 C101 1.370 . S
C102 C106 1.408 1_455 S
C103 C101 1.363 . S
C103 C104 1.370 1_455 S
C103 C107 1.524 . S
C104 C96 1.503 . S
C104 C103 1.370 1_655 S
C104 C105 1.403 . S
C105 C104 1.403 . S
C105 C106 1.404 . S
C105 C108 1.539 . S
C106 C102 1.408 1_655 S
C106 C105 1.404 . S
C106 H118 0.930 . S
C107 C103 1.524 . S
C107 H119 0.956 . S
C107 H120 0.961 . S
C107 H121 0.961 . S
C108 C105 1.539 . S
C108 H122 0.958 . S
C108 H123 0.961 . S
C108 H124 0.960 . S
H109 C93 0.931 . S
H110 C98 0.929 . S
H111 C99 0.960 . S
H112 C99 0.962 . S
H113 C99 0.960 . S
H114 C100 0.961 . S
H115 C100 0.961 . S
H116 C100 0.961 . S
H117 C101 0.931 . S
H118 C106 0.930 . S
H119 C107 0.956 . S
H120 C107 0.961 . S
H121 C107 0.961 . S
H122 C108 0.958 . S
H123 C108 0.961 . S
H124 C108 0.960 . S
C125 C126 1.391 . S
C125 C127 1.394 . S
C125 H141 0.931 . S
C126 C125 1.391 . S
C126 C130 1.376 . S
C127 C125 1.394 . S
C127 C128 1.369 . S
C127 C131 1.531 . S
C128 C127 1.369 . S
C128 C129 1.410 . S
C128 C136 1.503 . S
C129 C128 1.410 . S
C129 C130 1.392 . S
C129 C132 1.513 . S
C130 C126 1.376 . S
C130 C129 1.392 . S
C130 H142 0.929 1_545 S
C131 C127 1.531 . S
C131 H143 0.960 . S
C131 H144 0.962 . S
C131 H145 0.960 . S
C132 C129 1.513 . S
C132 H146 0.951 1_545 S
C132 H147 0.955 1_545 S
C132 H148 0.974 . S
C133 C134 1.370 1_565 S
C133 C135 1.363 . S
C133 H149 0.931 . S
C134 C133 1.370 1_545 S
C134 C138 1.408 . S
C135 C133 1.363 . S
C135 C136 1.370 1_565 S
C135 C139 1.524 . S
C136 C128 1.503 . S
C136 C135 1.370 1_545 S
C136 C137 1.403 . S
C137 C136 1.403 . S
C137 C138 1.404 . S
C137 C140 1.539 . S
C138 C134 1.408 . S
C138 C137 1.404 . S
C138 H150 0.930 . S
C139 C135 1.524 . S
C139 H151 0.956 . S
C139 H152 0.961 . S
C139 H153 0.961 . S
C140 C137 1.539 . S
C140 H154 0.958 . S
C140 H155 0.961 . S
C140 H156 0.960 . S
H141 C125 0.931 . S
H142 C130 0.929 1_565 S
H143 C131 0.960 . S
H144 C131 0.962 . S
H145 C131 0.960 . S
H146 C132 0.951 1_565 S
H147 C132 0.955 1_565 S
H148 C132 0.974 . S
H149 C133 0.931 . S
H150 C138 0.930 . S
H151 C139 0.956 . S
H152 C139 0.961 . S
H153 C139 0.961 . S
H154 C140 0.958 . S
H155 C140 0.961 . S
H156 C140 0.960 . S
C157 C158 1.391 . S
C157 C159 1.394 . S
C157 H173 0.931 . S
C158 C157 1.391 . S
C158 C162 1.376 1_655 S
C159 C157 1.394 . S
C159 C160 1.369 1_655 S
C159 C163 1.531 . S
C160 C159 1.369 1_455 S
C160 C161 1.410 . S
C160 C168 1.503 . S
C161 C160 1.410 . S
C161 C162 1.392 . S
C161 C164 1.511 . S
C162 C158 1.376 1_455 S
C162 C161 1.392 . S
C162 H174 0.929 . S
C163 C159 1.531 . S
C163 H175 0.960 . S
C163 H176 0.962 . S
C163 H177 0.960 . S
C164 C161 1.511 . S
C164 H178 0.961 . S
C164 H179 0.961 . S
C164 H180 0.961 . S
C165 C166 1.370 . S
C165 C167 1.363 . S
C165 H181 0.931 . S
C166 C165 1.370 . S
C166 C170 1.408 . S
C167 C165 1.363 . S
C167 C168 1.370 . S
C167 C171 1.525 . S
C168 C160 1.503 . S
C168 C167 1.370 . S
C168 C169 1.403 . S
C169 C168 1.403 . S
C169 C170 1.404 . S
C169 C172 1.539 . S
C170 C166 1.408 . S
C170 C169 1.404 . S
C170 H182 0.930 . S
C171 C167 1.525 . S
C171 H183 0.952 1_455 S
C171 H184 0.964 . S
C171 H185 0.961 . S
C172 C169 1.539 . S
C172 H186 0.958 1_455 S
C172 H187 0.961 . S
C172 H188 0.960 . S
H173 C157 0.931 . S
H174 C162 0.929 . S
H175 C163 0.960 . S
H176 C163 0.962 . S
H177 C163 0.960 . S
H178 C164 0.961 . S
H179 C164 0.961 . S
H180 C164 0.961 . S
H181 C165 0.931 . S
H182 C170 0.930 . S
H183 C171 0.952 1_655 S
H184 C171 0.964 . S
H185 C171 0.961 . S
H186 C172 0.958 1_655 S
H187 C172 0.961 . S
H188 C172 0.960 . S
C189 C190 1.391 . S
C189 C191 1.394 . S
C189 H205 0.931 . S
C190 C189 1.391 . S
C190 C194 1.376 1_545 S
C191 C189 1.394 . S
C191 C192 1.369 . S
C191 C195 1.531 . S
C192 C191 1.369 . S
C192 C193 1.410 1_545 S
C192 C200 1.503 . S
C193 C192 1.410 1_565 S
C193 C194 1.392 . S
C193 C196 1.511 . S
C194 C190 1.376 1_565 S
C194 C193 1.392 . S
C194 H206 0.929 . S
C195 C191 1.531 . S
C195 H207 0.960 . S
C195 H208 0.962 . S
C195 H209 0.960 . S
C196 C193 1.511 . S
C196 H210 0.961 . S
C196 H211 0.961 . S
C196 H212 0.961 . S
C197 C198 1.370 . S
C197 C199 1.363 . S
C197 H213 0.931 . S
C198 C197 1.370 . S
C198 C202 1.408 1_565 S
C199 C197 1.363 . S
C199 C200 1.370 1_565 S
C199 C203 1.524 . S
C200 C192 1.503 . S
C200 C199 1.370 1_545 S
C200 C201 1.403 . S
C201 C200 1.403 . S
C201 C202 1.404 . S
C201 C204 1.539 . S
C202 C198 1.408 1_545 S
C202 C201 1.404 . S
C202 H214 0.930 . S
C203 C199 1.524 . S
C203 H215 0.956 . S
C203 H216 0.961 . S
C203 H217 0.961 . S
C204 C201 1.539 . S
C204 H218 0.958 . S
C204 H219 0.961 . S
C204 H220 0.960 . S
H205 C189 0.931 . S
H206 C194 0.929 . S
H207 C195 0.960 . S
H208 C195 0.962 . S
H209 C195 0.960 . S
H210 C196 0.961 . S
H211 C196 0.961 . S
H212 C196 0.961 . S
H213 C197 0.931 . S
H214 C202 0.930 . S
H215 C203 0.956 . S
H216 C203 0.961 . S
H217 C203 0.961 . S
H218 C204 0.958 . S
H219 C204 0.961 . S
H220 C204 0.960 . S
C221 C222 1.391 . S
C221 C223 1.394 . S
C221 H237 0.931 . S
C222 C221 1.391 . S
C222 C226 1.376 . S
C223 C221 1.394 . S
C223 C224 1.369 . S
C223 C227 1.531 . S
C224 C223 1.369 . S
C224 C225 1.410 . S
C224 C232 1.503 . S
C225 C224 1.410 . S
C225 C226 1.392 . S
C225 C228 1.511 . S
C226 C222 1.376 . S
C226 C225 1.392 . S
C226 H238 0.929 . S
C227 C223 1.531 . S
C227 H239 0.960 . S
C227 H240 0.962 1_655 S
C227 H241 0.960 . S
C228 C225 1.511 . S
C228 H242 0.961 1_655 S
C228 H243 0.961 . S
C228 H244 0.961 . S
C229 C230 1.370 1_455 S
C229 C231 1.363 . S
C229 H245 0.931 . S
C230 C229 1.370 1_655 S
C230 C234 1.408 . S
C231 C229 1.363 . S
C231 C232 1.370 1_455 S
C231 C235 1.524 . S
C232 C224 1.503 . S
C232 C231 1.370 1_655 S
C232 C233 1.403 . S
C233 C232 1.403 . S
C233 C234 1.404 . S
C233 C236 1.539 . S
C234 C230 1.408 . S
C234 C233 1.404 . S
C234 H246 0.930 . S
C235 C231 1.524 . S
C235 H247 0.956 . S
C235 H248 0.961 . S
C235 H249 0.961 . S
C236 C233 1.539 . S
C236 H250 0.958 . S
C236 H251 0.961 . S
C236 H252 0.960 . S
H237 C221 0.931 . S
H238 C226 0.929 . S
H239 C227 0.960 . S
H240 C227 0.962 1_455 S
H241 C227 0.960 . S
H242 C228 0.961 1_455 S
H243 C228 0.961 . S
H244 C228 0.961 . S
H245 C229 0.931 . S
H246 C234 0.930 . S
H247 C235 0.956 . S
H248 C235 0.961 . S
H249 C235 0.961 . S
H250 C236 0.958 . S
H251 C236 0.961 . S
H252 C236 0.960 . S
C253 C254 1.391 1_545 S
C253 C255 1.394 . S
C253 H269 0.931 . S
C254 C253 1.391 1_565 S
C254 C258 1.376 . S
C255 C253 1.394 . S
C255 C256 1.369 . S
C255 C259 1.531 . S
C256 C255 1.369 . S
C256 C257 1.410 1_545 S
C256 C264 1.503 . S
C257 C256 1.410 1_565 S
C257 C258 1.392 . S
C257 C260 1.511 . S
C258 C254 1.376 . S
C258 C257 1.392 . S
C258 H270 0.929 . S
C259 C255 1.531 . S
C259 H271 0.960 . S
C259 H272 0.962 . S
C259 H273 0.960 . S
C260 C257 1.511 . S
C260 H274 0.961 . S
C260 H275 0.961 . S
C260 H276 0.961 . S
C261 C262 1.370 . S
C261 C263 1.363 . S
C261 H277 0.931 . S
C262 C261 1.370 . S
C262 C266 1.408 . S
C263 C261 1.363 . S
C263 C264 1.370 . S
C263 C267 1.524 . S
C264 C256 1.503 . S
C264 C263 1.370 . S
C264 C265 1.403 . S
C265 C264 1.403 . S
C265 C266 1.404 . S
C265 C268 1.539 1_545 S
C266 C262 1.408 . S
C266 C265 1.404 . S
C266 H278 0.930 . S
C267 C263 1.524 . S
C267 H279 0.956 . S
C267 H280 0.961 1_545 S
C267 H281 0.961 . S
C268 C265 1.539 1_565 S
C268 H282 0.958 1_565 S
C268 H283 0.961 . S
C268 H284 0.960 . S
H269 C253 0.931 . S
H270 C258 0.929 . S
H271 C259 0.960 . S
H272 C259 0.962 . S
H273 C259 0.960 . S
H274 C260 0.961 . S
H275 C260 0.961 . S
H276 C260 0.961 . S
H277 C261 0.931 . S
H278 C266 0.930 . S
H279 C267 0.956 . S
H280 C267 0.961 1_565 S
H281 C267 0.961 . S
H282 C268 0.958 1_545 S
H283 C268 0.961 . S
H284 C268 0.960 . S
C285 C286 1.391 . S
C285 C287 1.394 . S
C285 H301 0.931 . S
C286 C285 1.391 . S
C286 C290 1.376 1_455 S
C287 C285 1.394 . S
C287 C288 1.367 1_455 S
C287 C291 1.531 . S
C288 C287 1.367 1_655 S
C288 C289 1.411 . S
C288 C296 1.503 1_655 S
C289 C288 1.411 . S
C289 C290 1.392 . S
C289 C292 1.511 . S
C290 C286 1.376 1_655 S
C290 C289 1.392 . S
C290 H302 0.929 . S
C291 C287 1.531 . S
C291 H303 0.960 . S
C291 H304 0.962 . S
C291 H305 0.960 . S
C292 C289 1.511 . S
C292 H306 0.961 . S
C292 H307 0.961 . S
C292 H308 0.961 . S
C293 C294 1.381 . S
C293 C295 1.363 . S
C293 H309 0.931 . S
C294 C293 1.381 . S
C294 C298 1.397 1_455 S
C295 C293 1.363 . S
C295 C296 1.369 . S
C295 C299 1.524 . S
C296 C288 1.503 1_455 S
C296 C295 1.369 . S
C296 C297 1.404 1_455 S
C297 C296 1.404 1_655 S
C297 C298 1.404 . S
C297 C300 1.539 . S
C298 C294 1.397 1_655 S
C298 C297 1.404 . S
C298 H310 0.930 . S
C299 C295 1.524 . S
C299 H311 0.956 . S
C299 H312 0.961 . S
C299 H313 0.961 . S
C300 C297 1.539 . S
C300 H314 0.958 . S
C300 H315 0.961 . S
C300 H316 0.960 . S
H301 C285 0.931 . S
H302 C290 0.929 . S
H303 C291 0.960 . S
H304 C291 0.962 . S
H305 C291 0.960 . S
H306 C292 0.961 . S
H307 C292 0.961 . S
H308 C292 0.961 . S
H309 C293 0.931 . S
H310 C298 0.930 . S
H311 C299 0.956 . S
H312 C299 0.961 . S
H313 C299 0.961 . S
H314 C300 0.958 . S
H315 C300 0.961 . S
H316 C300 0.960 . S
C317 C318 1.391 . S
C317 C319 1.394 . S
C317 H333 0.931 . S
C318 C317 1.391 . S
C318 C322 1.376 1_545 S
C319 C317 1.394 . S
C319 C320 1.369 . S
C319 C323 1.531 . S
C320 C319 1.369 . S
C320 C321 1.410 1_545 S
C320 C328 1.503 . S
C321 C320 1.410 1_565 S
C321 C322 1.392 . S
C321 C324 1.511 . S
C322 C318 1.376 1_565 S
C322 C321 1.392 . S
C322 H334 0.929 . S
C323 C319 1.531 . S
C323 H335 0.960 . S
C323 H336 0.962 . S
C323 H337 0.960 . S
C324 C321 1.511 . S
C324 H338 0.961 . S
C324 H339 0.961 . S
C324 H340 0.961 1_565 S
C325 C326 1.370 . S
C325 C327 1.363 . S
C325 H341 0.931 . S
C326 C325 1.370 . S
C326 C330 1.408 1_565 S
C327 C325 1.363 . S
C327 C328 1.370 1_565 S
C327 C331 1.524 . S
C328 C320 1.503 . S
C328 C327 1.370 1_545 S
C328 C329 1.403 . S
C329 C328 1.403 . S
C329 C330 1.404 . S
C329 C332 1.539 . S
C330 C326 1.408 1_545 S
C330 C329 1.404 . S
C330 H342 0.930 . S
C331 C327 1.524 . S
C331 H343 0.956 . S
C331 H344 0.961 . S
C331 H345 0.961 . S
C332 C329 1.539 . S
C332 H346 0.958 . S
C332 H347 0.961 . S
C332 H348 0.960 . S
H333 C317 0.931 . S
H334 C322 0.929 . S
H335 C323 0.960 . S
H336 C323 0.962 . S
H337 C323 0.960 . S
H338 C324 0.961 . S
H339 C324 0.961 . S
H340 C324 0.961 1_545 S
H341 C325 0.931 . S
H342 C330 0.930 . S
H343 C331 0.956 . S
H344 C331 0.961 . S
H345 C331 0.961 . S
H346 C332 0.958 . S
H347 C332 0.961 . S
H348 C332 0.960 . S
C349 C350 1.391 1_556 S
C349 C351 1.394 . S
C349 H365 0.931 . S
C350 C349 1.391 1_554 S
C350 C354 1.376 . S
C351 C349 1.394 . S
C351 C352 1.369 1_556 S
C351 C355 1.531 . S
C352 C351 1.369 1_554 S
C352 C353 1.410 . S
C352 C360 1.503 . S
C353 C352 1.410 . S
C353 C354 1.392 . S
C353 C356 1.511 . S
C354 C350 1.376 . S
C354 C353 1.392 . S
C354 H366 0.929 . S
C355 C351 1.531 . S
C355 H367 0.960 . S
C355 H368 0.962 . S
C355 H369 0.960 . S
C356 C353 1.511 . S
C356 H370 0.961 . S
C356 H371 0.961 . S
C356 H372 0.961 . S
C357 C358 1.370 . S
C357 C359 1.363 . S
C357 H373 0.931 . S
C358 C357 1.370 . S
C358 C362 1.408 1_556 S
C359 C357 1.363 . S
C359 C360 1.370 1_556 S
C359 C363 1.524 . S
C360 C352 1.503 . S
C360 C359 1.370 1_554 S
C360 C361 1.403 . S
C361 C360 1.403 . S
C361 C362 1.404 . S
C361 C364 1.539 . S
C362 C358 1.408 1_554 S
C362 C361 1.404 . S
C362 H374 0.930 . S
C363 C359 1.524 . S
C363 H375 0.956 . S
C363 H376 0.961 . S
C363 H377 0.961 . S
C364 C361 1.539 . S
C364 H378 0.958 . S
C364 H379 0.961 . S
C364 H380 0.960 . S
H365 C349 0.931 . S
H366 C354 0.929 . S
H367 C355 0.960 . S
H368 C355 0.962 . S
H369 C355 0.960 . S
H370 C356 0.961 . S
H371 C356 0.961 . S
H372 C356 0.961 . S
H373 C357 0.931 . S
H374 C362 0.930 . S
H375 C363 0.956 . S
H376 C363 0.961 . S
H377 C363 0.961 . S
H378 C364 0.958 . S
H379 C364 0.961 . S
H380 C364 0.960 . S
C381 C382 1.402 . S
C381 C383 1.394 . S
C381 H397 0.931 . S
C382 C381 1.402 . S
C382 C386 1.366 1_556 S
C383 C381 1.394 . S
C383 C384 1.369 . S
C383 C387 1.531 . S
C384 C383 1.369 . S
C384 C385 1.410 1_556 S
C384 C392 1.503 1_556 S
C385 C384 1.410 1_554 S
C385 C386 1.392 . S
C385 C388 1.511 . S
C386 C382 1.366 1_554 S
C386 C385 1.392 . S
C386 H398 0.929 . S
C387 C383 1.531 . S
C387 H399 0.960 . S
C387 H400 0.962 . S
C387 H401 0.960 . S
C388 C385 1.511 . S
C388 H402 0.961 . S
C388 H403 0.961 . S
C388 H404 0.961 . S
C389 C390 1.370 . S
C389 C391 1.363 . S
C389 H405 0.931 . S
C390 C389 1.370 . S
C390 C394 1.408 1_554 S
C391 C389 1.363 . S
C391 C392 1.382 . S
C391 C395 1.524 . S
C392 C384 1.503 1_554 S
C392 C391 1.382 . S
C392 C393 1.392 1_554 S
C393 C392 1.392 1_556 S
C393 C394 1.404 . S
C393 C396 1.539 . S
C394 C390 1.408 1_556 S
C394 C393 1.404 . S
C394 H406 0.930 . S
C395 C391 1.524 . S
C395 H407 0.956 . S
C395 H408 0.961 . S
C395 H409 0.961 . S
C396 C393 1.539 . S
C396 H410 0.958 . S
C396 H411 0.961 . S
C396 H412 0.960 . S
H397 C381 0.931 . S
H398 C386 0.929 . S
H399 C387 0.960 . S
H400 C387 0.962 . S
H401 C387 0.960 . S
H402 C388 0.961 . S
H403 C388 0.961 . S
H404 C388 0.961 . S
H405 C389 0.931 . S
H406 C394 0.930 . S
H407 C395 0.956 . S
H408 C395 0.961 . S
H409 C395 0.961 . S
H410 C396 0.958 . S
H411 C396 0.961 . S
H412 C396 0.960 . S
C413 C414 1.391 1_556 S
C413 C415 1.394 . S
C413 H429 0.931 . S
C414 C413 1.391 1_554 S
C414 C418 1.376 . S
C415 C413 1.394 . S
C415 C416 1.369 1_556 S
C415 C419 1.531 . S
C416 C415 1.369 1_554 S
C416 C417 1.410 . S
C416 C424 1.504 . S
C417 C416 1.410 . S
C417 C418 1.392 . S
C417 C420 1.511 . S
C418 C414 1.376 . S
C418 C417 1.392 . S
C418 H430 0.929 . S
C419 C415 1.531 . S
C419 H431 0.960 . S
C419 H432 0.962 . S
C419 H433 0.960 . S
C420 C417 1.511 . S
C420 H434 0.961 . S
C420 H435 0.961 . S
C420 H436 0.961 . S
C421 C422 1.370 1_554 S
C421 C423 1.363 . S
C421 H437 0.931 . S
C422 C421 1.370 1_556 S
C422 C426 1.408 . S
C423 C421 1.363 . S
C423 C424 1.378 . S
C423 C427 1.524 . S
C424 C416 1.504 . S
C424 C423 1.378 . S
C424 C425 1.394 1_554 S
C425 C424 1.394 1_556 S
C425 C426 1.404 . S
C425 C428 1.539 . S
C426 C422 1.408 . S
C426 C425 1.404 . S
C426 H438 0.930 . S
C427 C423 1.524 . S
C427 H439 0.956 . S
C427 H440 0.961 . S
C427 H441 0.961 . S
C428 C425 1.539 . S
C428 H442 0.958 . S
C428 H443 0.961 . S
C428 H444 0.960 . S
H429 C413 0.931 . S
H430 C418 0.929 . S
H431 C419 0.960 . S
H432 C419 0.962 . S
H433 C419 0.960 . S
H434 C420 0.961 . S
H435 C420 0.961 . S
H436 C420 0.961 . S
H437 C421 0.931 . S
H438 C426 0.930 . S
H439 C427 0.956 . S
H440 C427 0.961 . S
H441 C427 0.961 . S
H442 C428 0.958 . S
H443 C428 0.961 . S
H444 C428 0.960 . S
C445 C446 1.391 . S
C445 C447 1.394 . S
C445 H461 0.931 . S
C446 C445 1.391 . S
C446 C450 1.376 1_554 S
C447 C445 1.394 . S
C447 C448 1.369 . S
C447 C451 1.531 . S
C448 C447 1.369 . S
C448 C449 1.410 1_554 S
C448 C456 1.503 . S
C449 C448 1.410 1_556 S
C449 C450 1.392 . S
C449 C452 1.511 . S
C450 C446 1.376 1_556 S
C450 C449 1.392 . S
C450 H462 0.929 . S
C451 C447 1.531 . S
C451 H463 0.960 . S
C451 H464 0.962 . S
C451 H465 0.960 . S
C452 C449 1.511 . S
C452 H466 0.961 . S
C452 H467 0.961 . S
C452 H468 0.961 1_556 S
C453 C454 1.370 . S
C453 C455 1.363 . S
C453 H469 0.931 . S
C454 C453 1.370 . S
C454 C458 1.408 1_556 S
C455 C453 1.363 . S
C455 C456 1.370 1_556 S
C455 C459 1.524 . S
C456 C448 1.503 . S
C456 C455 1.370 1_554 S
C456 C457 1.403 . S
C457 C456 1.403 . S
C457 C458 1.404 . S
C457 C460 1.539 . S
C458 C454 1.408 1_554 S
C458 C457 1.404 . S
C458 H470 0.930 . S
C459 C455 1.524 . S
C459 H471 0.956 . S
C459 H472 0.961 . S
C459 H473 0.961 . S
C460 C457 1.539 . S
C460 H474 0.958 . S
C460 H475 0.961 . S
C460 H476 0.960 . S
H461 C445 0.931 . S
H462 C450 0.929 . S
H463 C451 0.960 . S
H464 C451 0.962 . S
H465 C451 0.960 . S
H466 C452 0.961 . S
H467 C452 0.961 . S
H468 C452 0.961 1_554 S
H469 C453 0.931 . S
H470 C458 0.930 . S
H471 C459 0.956 . S
H472 C459 0.961 . S
H473 C459 0.961 . S
H474 C460 0.958 . S
H475 C460 0.961 . S
H476 C460 0.960 . S
C94 C82 1.280 . S
C102 C10 1.257 . S
C126 C2 1.325 . S
C134 C41 1.297 1_545 S
C158 C19 1.346 1_655 S
C166 C91 1.393 . S
C190 C61 1.248 . S
C198 C20 1.272 . S
C222 C0 1.204 . S
C230 C63 1.304 . S
C254 C31 1.288 1_565 S
C262 C29 1.386 . S
C286 C64 1.320 . S
C294 C30 1.282 1_455 S
C318 C50 1.270 1_545 S
C326 C1 1.295 . S
C350 C72 1.208 . S
C358 C32 1.268 . S
C382 C92 1.289 . S
C390 C60 1.323 . S
C414 C33 1.377 . S
C422 C81 1.309 1_556 S
C446 C62 1.270 1_554 S
C454 C51 1.295 . S
