# Generated by pormake.
# Topology xfc, (7)-cn, num edge types: 1
# Building blocks:
#     Node 0, Type 0, BuildingBlock: HICVOG_clean_sbu_0, # of connection points: 7
#     Node 1, Type 0, BuildingBlock: HICVOG_clean_sbu_0, # of connection points: 7
#     Node 2, Type 0, BuildingBlock: HICVOG_clean_sbu_0, # of connection points: 7
#     Node 3, Type 0, BuildingBlock: HICVOG_clean_sbu_0, # of connection points: 7
#     Node 4, Type 0, BuildingBlock: HICVOG_clean_sbu_0, # of connection points: 7
#     Node 5, Type 0, BuildingBlock: HICVOG_clean_sbu_0, # of connection points: 7
#     Node 6, Type 0, BuildingBlock: HICVOG_clean_sbu_0, # of connection points: 7
#     Node 7, Type 0, BuildingBlock: HICVOG_clean_sbu_0, # of connection points: 7
#     Node 8, Type 0, BuildingBlock: HICVOG_clean_sbu_0, # of connection points: 7
#     Node 9, Type 0, BuildingBlock: HICVOG_clean_sbu_0, # of connection points: 7
#     Node 10, Type 0, BuildingBlock: HICVOG_clean_sbu_0, # of connection points: 7
#     Node 11, Type 0, BuildingBlock: HICVOG_clean_sbu_0, # of connection points: 7
#     Node 12, Type 0, BuildingBlock: HICVOG_clean_sbu_0, # of connection points: 7
#     Node 13, Type 0, BuildingBlock: HICVOG_clean_sbu_0, # of connection points: 7
#     Node 14, Type 0, BuildingBlock: HICVOG_clean_sbu_0, # of connection points: 7
#     Node 15, Type 0, BuildingBlock: HICVOG_clean_sbu_0, # of connection points: 7
#     Edge 16, Type (0, 0), BuildingBlock: OJICUG_clean_linker_0, # of connection points: 2
#     Edge 17, Type (0, 0), BuildingBlock: OJICUG_clean_linker_0, # of connection points: 2
#     Edge 18, Type (0, 0), BuildingBlock: OJICUG_clean_linker_0, # of connection points: 2
#     Edge 19, Type (0, 0), BuildingBlock: OJICUG_clean_linker_0, # of connection points: 2
#     Edge 20, Type (0, 0), BuildingBlock: OJICUG_clean_linker_0, # of connection points: 2
#     Edge 21, Type (0, 0), BuildingBlock: OJICUG_clean_linker_0, # of connection points: 2
#     Edge 22, Type (0, 0), BuildingBlock: OJICUG_clean_linker_0, # of connection points: 2
#     Edge 23, Type (0, 0), BuildingBlock: OJICUG_clean_linker_0, # of connection points: 2
#     Edge 24, Type (0, 0), BuildingBlock: OJICUG_clean_linker_0, # of connection points: 2
#     Edge 25, Type (0, 0), BuildingBlock: OJICUG_clean_linker_0, # of connection points: 2
#     Edge 26, Type (0, 0), BuildingBlock: OJICUG_clean_linker_0, # of connection points: 2
#     Edge 27, Type (0, 0), BuildingBlock: OJICUG_clean_linker_0, # of connection points: 2
#     Edge 28, Type (0, 0), BuildingBlock: OJICUG_clean_linker_0, # of connection points: 2
#     Edge 29, Type (0, 0), BuildingBlock: OJICUG_clean_linker_0, # of connection points: 2
#     Edge 30, Type (0, 0), BuildingBlock: OJICUG_clean_linker_0, # of connection points: 2
#     Edge 31, Type (0, 0), BuildingBlock: OJICUG_clean_linker_0, # of connection points: 2
#     Edge 32, Type (0, 0), BuildingBlock: OJICUG_clean_linker_0, # of connection points: 2
#     Edge 33, Type (0, 0), BuildingBlock: OJICUG_clean_linker_0, # of connection points: 2
#     Edge 34, Type (0, 0), BuildingBlock: OJICUG_clean_linker_0, # of connection points: 2
#     Edge 35, Type (0, 0), BuildingBlock: OJICUG_clean_linker_0, # of connection points: 2
#     Edge 36, Type (0, 0), BuildingBlock: OJICUG_clean_linker_0, # of connection points: 2
#     Edge 37, Type (0, 0), BuildingBlock: OJICUG_clean_linker_0, # of connection points: 2
#     Edge 38, Type (0, 0), BuildingBlock: OJICUG_clean_linker_0, # of connection points: 2
#     Edge 39, Type (0, 0), BuildingBlock: OJICUG_clean_linker_0, # of connection points: 2
#     Edge 40, Type (0, 0), BuildingBlock: OJICUG_clean_linker_0, # of connection points: 2
#     Edge 41, Type (0, 0), BuildingBlock: OJICUG_clean_linker_0, # of connection points: 2
#     Edge 42, Type (0, 0), BuildingBlock: OJICUG_clean_linker_0, # of connection points: 2
#     Edge 43, Type (0, 0), BuildingBlock: OJICUG_clean_linker_0, # of connection points: 2
#     Edge 44, Type (0, 0), BuildingBlock: OJICUG_clean_linker_0, # of connection points: 2
#     Edge 45, Type (0, 0), BuildingBlock: OJICUG_clean_linker_0, # of connection points: 2
#     Edge 46, Type (0, 0), BuildingBlock: OJICUG_clean_linker_0, # of connection points: 2
#     Edge 47, Type (0, 0), BuildingBlock: OJICUG_clean_linker_0, # of connection points: 2
#     Edge 48, Type (0, 0), BuildingBlock: OJICUG_clean_linker_0, # of connection points: 2
#     Edge 49, Type (0, 0), BuildingBlock: OJICUG_clean_linker_0, # of connection points: 2
#     Edge 50, Type (0, 0), BuildingBlock: OJICUG_clean_linker_0, # of connection points: 2
#     Edge 51, Type (0, 0), BuildingBlock: OJICUG_clean_linker_0, # of connection points: 2
#     Edge 52, Type (0, 0), BuildingBlock: OJICUG_clean_linker_0, # of connection points: 2
#     Edge 53, Type (0, 0), BuildingBlock: OJICUG_clean_linker_0, # of connection points: 2
#     Edge 54, Type (0, 0), BuildingBlock: OJICUG_clean_linker_0, # of connection points: 2
#     Edge 55, Type (0, 0), BuildingBlock: OJICUG_clean_linker_0, # of connection points: 2
#     Edge 56, Type (0, 0), BuildingBlock: OJICUG_clean_linker_0, # of connection points: 2
#     Edge 57, Type (0, 0), BuildingBlock: OJICUG_clean_linker_0, # of connection points: 2
#     Edge 58, Type (0, 0), BuildingBlock: OJICUG_clean_linker_0, # of connection points: 2
#     Edge 59, Type (0, 0), BuildingBlock: OJICUG_clean_linker_0, # of connection points: 2
#     Edge 60, Type (0, 0), BuildingBlock: OJICUG_clean_linker_0, # of connection points: 2
#     Edge 61, Type (0, 0), BuildingBlock: OJICUG_clean_linker_0, # of connection points: 2
#     Edge 62, Type (0, 0), BuildingBlock: OJICUG_clean_linker_0, # of connection points: 2
#     Edge 63, Type (0, 0), BuildingBlock: OJICUG_clean_linker_0, # of connection points: 2
#     Edge 64, Type (0, 0), BuildingBlock: OJICUG_clean_linker_0, # of connection points: 2
#     Edge 65, Type (0, 0), BuildingBlock: OJICUG_clean_linker_0, # of connection points: 2
#     Edge 66, Type (0, 0), BuildingBlock: OJICUG_clean_linker_0, # of connection points: 2
#     Edge 67, Type (0, 0), BuildingBlock: OJICUG_clean_linker_0, # of connection points: 2
#     Edge 68, Type (0, 0), BuildingBlock: OJICUG_clean_linker_0, # of connection points: 2
#     Edge 69, Type (0, 0), BuildingBlock: OJICUG_clean_linker_0, # of connection points: 2
#     Edge 70, Type (0, 0), BuildingBlock: OJICUG_clean_linker_0, # of connection points: 2
#     Edge 71, Type (0, 0), BuildingBlock: OJICUG_clean_linker_0, # of connection points: 2
# Relax obj value: 0.473
# Max RMSD: 0.253
# Mean RMSD: 0.251
data_MOF--net-xfc--node1-HICVOG_clean_sbu_0--edge1-OJICUG_clean_linker_0
_symmetry_space_group_name_H-M    P1
_symmetry_Int_Tables_number       1
_symmetry_cell_setting            triclinic
loop_
_symmetry_equiv_pos_as_xyz
'x, y, z'
_cell_length_a     32.704638
_cell_length_b     32.611365
_cell_length_c     19.348916
_cell_angle_alpha  89.872103
_cell_angle_beta   89.787348
_cell_angle_gamma 90.338746
loop_
_atom_site_label
_atom_site_type_symbol
_atom_site_fract_x
_atom_site_fract_y
_atom_site_fract_z
_atom_type_partial_charge
Zn0 Zn 0.07019 1.00477 0.28596 0.0
C1 C 0.97697 0.97135 0.41134 0.0
N2 N 1.00587 0.94953 0.44397 0.0
C3 C 0.04061 0.95933 0.41051 0.0
N4 N 0.03344 0.98611 0.35866 0.0
N5 N 0.99373 0.99478 0.35946 0.0
C6 C 0.91669 0.09589 0.25367 0.0
O7 O 0.92611 0.0792 0.19417 0.0
O8 O 0.11942 0.96953 0.27123 0.0
Zn9 Zn 0.96924 0.03063 0.28538 0.0
N10 N 0.0819 0.06248 0.29579 0.0
C11 C 0.05741 0.12626 0.33757 0.0
C12 C 0.05666 0.08368 0.33853 0.0
C13 C 0.10892 0.08218 0.25313 0.0
N14 N 0.0835 0.14593 0.29403 0.0
C15 C 0.10969 0.12528 0.25189 0.0
O16 O 1.00506 0.05099 0.20398 0.0
C17 C 0.02464 0.02663 0.16516 0.0
O18 O 0.04541 0.99838 0.19238 0.0
H19 H 0.03493 0.06772 0.37118 0.0
H20 H 0.128 0.06458 0.21846 0.0
C21 C 0.89232 1.00502 0.26226 0.0
C22 C 0.86022 0.99519 0.21903 0.0
C23 C 0.9072 0.96523 0.13965 0.0
C24 C 0.9392 0.97595 0.18278 0.0
N25 N 0.93093 0.99729 0.2413 0.0
N26 N 0.86864 0.97537 0.15848 0.0
H27 H 0.88683 0.01979 0.31143 0.0
C28 C 0.107 0.93491 0.2492 0.0
O29 O 0.06827 0.92511 0.25797 0.0
O30 O 0.93369 0.0822 0.3089 0.0
H31 H 0.97012 0.96862 0.1684 0.0
H32 H 0.03706 0.1436 0.37043 0.0
H33 H 0.91274 0.94911 0.09175 0.0
Zn34 Zn 0.27485 0.68698 0.52396 0.0
C35 C 0.32078 0.7745 0.65773 0.0
N36 N 0.32885 0.74236 0.69852 0.0
C37 C 0.31455 0.70984 0.66321 0.0
N38 N 0.29737 0.72176 0.60182 0.0
N39 N 0.30169 0.76268 0.59873 0.0
C40 C 0.34926 0.83786 0.46625 0.0
O41 O 0.35782 0.79862 0.46186 0.0
O42 O 0.21226 0.66991 0.52378 0.0
Zn43 Zn 0.28045 0.80044 0.52607 0.0
N44 N 0.30221 0.63471 0.51942 0.0
C45 C 0.36095 0.59406 0.49948 0.0
C46 C 0.34326 0.62984 0.52512 0.0
C47 C 0.27846 0.60482 0.49164 0.0
N48 N 0.33764 0.56762 0.46176 0.0
C49 C 0.29652 0.57305 0.45501 0.0
O50 O 0.27829 0.77634 0.43234 0.0
C51 C 0.28357 0.74409 0.39744 0.0
O52 O 0.2872 0.70939 0.42683 0.0
H53 H 0.36207 0.65406 0.54643 0.0
H54 H 0.24611 0.60887 0.48776 0.0
C55 C 0.20544 0.84653 0.50544 0.0
C56 C 0.16336 0.85337 0.51572 0.0
C57 C 0.16364 0.80523 0.60827 0.0
C58 C 0.20505 0.79812 0.59735 0.0
N59 N 0.22514 0.81858 0.54617 0.0
N60 N 0.14382 0.83216 0.56692 0.0
H61 H 0.22176 0.86152 0.46359 0.0
C62 C 0.1944 0.66648 0.46492 0.0
O63 O 0.21071 0.68529 0.41148 0.0
O64 O 0.31812 0.8486 0.50168 0.0
H65 H 0.22086 0.77565 0.62834 0.0
H66 H 0.39352 0.58964 0.50344 0.0
H67 H 0.14718 0.78901 0.64859 0.0
Zn68 Zn 0.47749 0.02057 0.76593 0.0
C69 C 0.55691 0.06693 0.91058 0.0
N70 N 0.52184 0.08053 0.93815 0.0
C71 C 0.49312 0.06724 0.89428 0.0
N72 N 0.50966 0.04595 0.84108 0.0
N73 N 0.55007 0.04575 0.85065 0.0
C74 C 0.64264 0.96339 0.7337 0.0
O75 O 0.64859 0.99096 0.68501 0.0
O76 O 0.43271 0.05886 0.73561 0.0
Zn77 Zn 0.5917 0.03053 0.77914 0.0
N78 N 0.45281 0.96789 0.79383 0.0
C79 C 0.44468 0.91939 0.88482 0.0
C80 C 0.46176 0.95544 0.85904 0.0
C81 C 0.42738 0.94504 0.75256 0.0
N82 N 0.41888 0.89717 0.8447 0.0
C83 C 0.40942 0.90858 0.77896 0.0
O84 O 0.57251 0.0334 0.67831 0.0
C85 C 0.5406 0.02261 0.64525 0.0
O86 O 0.50718 0.01446 0.67613 0.0
H87 H 0.48195 0.97354 0.89105 0.0
H88 H 0.42055 0.95552 0.70079 0.0
C89 C 0.67401 0.05739 0.79004 0.0
C90 C 0.70676 0.0851 0.78411 0.0
C91 C 0.65913 0.13987 0.79104 0.0
C92 C 0.62681 0.11185 0.78742 0.0
N93 N 0.63503 0.07105 0.78662 0.0
N94 N 0.69814 0.12598 0.78665 0.0
H95 H 0.67913 0.02503 0.79393 0.0
C96 C 0.44503 0.09182 0.70679 0.0
O97 O 0.48431 0.10054 0.70697 0.0
O98 O 0.6182 0.97194 0.78375 0.0
H99 H 0.5955 0.12233 0.78636 0.0
H100 H 0.45189 0.90915 0.9365 0.0
H101 H 0.6533 0.17247 0.7931 0.0
Zn102 Zn 0.25995 0.22597 0.03297 0.0
C103 C 0.23108 0.30979 0.18368 0.0
N104 N 0.21471 0.27571 0.21199 0.0
C105 C 0.22172 0.24632 0.16519 0.0
N106 N 0.24222 0.26121 0.10995 0.0
N107 N 0.24748 0.30138 0.11999 0.0
C108 C 0.33538 0.38405 1.00217 0.0
O109 O 0.31681 0.37418 0.94514 0.0
O110 O 0.2238 0.17619 0.0222 0.0
Zn111 Zn 0.26376 0.33978 0.04472 0.0
N112 N 0.31699 0.21024 0.03925 0.0
C113 C 0.38415 0.23043 0.07162 0.0
C114 C 0.34198 0.23545 0.07583 0.0
C115 C 0.33249 0.17934 0.99941 0.0
N116 N 0.39965 0.20057 0.03059 0.0
C117 C 0.37515 0.17443 0.99457 0.0
O118 O 0.25899 0.31783 0.9427 0.0
C119 C 0.25509 0.28447 0.90896 0.0
O120 O 0.25504 0.2504 0.94003 0.0
H121 H 0.32926 0.26024 0.10592 0.0
H122 H 0.31204 0.16031 0.96929 0.0
C123 C 0.23431 0.41353 1.00158 0.0
C124 C 0.2062 0.43472 0.96203 0.0
C125 C 0.15266 0.39702 0.01621 0.0
C126 C 0.18158 0.37172 0.04735 0.0
N127 N 0.22194 0.38033 0.03797 0.0
N128 N 0.16563 0.42674 0.97166 0.0
H129 H 0.26623 0.42053 0.99694 0.0
C130 C 0.19043 0.18372 0.99113 0.0
O131 O 0.18003 0.22209 0.98071 0.0
O132 O 0.32029 0.37046 0.05877 0.0
H133 H 0.17212 0.34442 0.07507 0.0
H134 H 0.4045 0.25063 0.09965 0.0
H135 H 0.12032 0.39087 0.02258 0.0
Zn136 Zn 0.05059 0.01898 0.74587 0.0
C137 C 0.96841 0.07167 0.61212 0.0
N138 N 1.00229 0.07887 0.57466 0.0
C139 C 0.03216 0.06218 0.61255 0.0
N140 N 0.01752 0.04521 0.67181 0.0
N141 N 0.97714 0.05074 0.67143 0.0
C142 C 0.91505 0.9511 0.80207 0.0
O143 O 0.93484 0.96406 0.85662 0.0
O144 O 0.08928 0.0614 0.7863 0.0
Zn145 Zn 0.94165 0.0319 0.74867 0.0
N146 N 0.0809 0.9719 0.71054 0.0
C147 C 0.09063 0.92491 0.61838 0.0
C148 C 0.07181 0.95947 0.64544 0.0
C149 C 0.1079 0.95036 0.75026 0.0
N150 N 0.1182 0.90416 0.65704 0.0
C151 C 0.1276 0.91574 0.72261 0.0
O152 O 0.96937 0.043 0.841 0.0
C153 C 0.99847 0.02303 0.86797 0.0
O154 O 0.01978 0.99913 0.83085 0.0
H155 H 0.04944 0.97575 0.61515 0.0
H156 H 0.11394 0.95969 0.80263 0.0
C157 C 0.86048 0.04095 0.78307 0.0
C158 C 0.83432 0.05795 0.83209 0.0
C159 C 0.86359 0.12332 0.80873 0.0
C160 C 0.89445 0.10463 0.77038 0.0
N161 N 0.89239 0.06364 0.7586 0.0
N162 N 0.8357 0.09928 0.84204 0.0
H163 H 0.86012 1.00826 0.77651 0.0
C164 C 0.10578 0.05483 0.84483 0.0
O165 O 0.10012 0.01932 0.87536 0.0
O166 O 0.91971 0.97082 0.74515 0.0
H167 H 0.92171 0.1217 0.75737 0.0
H168 H 0.08257 0.91411 0.56762 0.0
H169 H 0.86499 0.15584 0.81922 0.0
Zn170 Zn 0.27641 0.70612 0.97852 0.0
C171 C 0.21777 0.78619 0.84802 0.0
N172 N 0.20608 0.75273 0.81301 0.0
C173 C 0.2213 0.72146 0.85015 0.0
N174 N 0.24332 0.7356 0.90556 0.0
N175 N 0.23914 0.77622 0.90545 0.0
C176 C 0.19001 0.84528 0.03443 0.0
O177 O 0.18185 0.80584 0.02985 0.0
O178 O 0.32534 0.66762 0.95195 0.0
Zn179 Zn 0.25809 0.81226 0.98012 0.0
N180 N 0.24025 0.67 0.02256 0.0
C181 C 0.21118 0.64213 0.12462 0.0
C182 C 0.22447 0.67594 0.08677 0.0
C183 C 0.24118 0.63273 0.99272 0.0
N184 N 0.21299 0.60447 0.09527 0.0
C185 C 0.22778 0.59889 0.02983 0.0
O186 O 0.25723 0.78659 0.07444 0.0
C187 C 0.28255 0.76143 0.09901 0.0
O188 O 0.30152 0.73732 0.0592 0.0
H189 H 0.22388 0.70602 0.10959 0.0
H190 H 0.25299 0.62954 0.94065 0.0
C191 C 0.32995 0.86043 1.00488 0.0
C192 C 0.3725 0.8662 1.00615 0.0
C193 C 0.38034 0.81017 0.92898 0.0
C194 C 0.3382 0.80409 0.92872 0.0
N195 N 0.31395 0.8291 0.96686 0.0
N196 N 0.39646 0.84062 0.96822 0.0
H197 H 0.31004 0.87897 0.03668 0.0
C198 C 0.3357 0.64499 1.00353 0.0
O199 O 0.31688 0.64988 0.0628 0.0
O200 O 0.22108 0.85938 1.00221 0.0
H201 H 0.32501 0.77871 0.90047 0.0
H202 H 0.1991 0.64573 0.17636 0.0
H203 H 0.40019 0.79034 0.89944 0.0
Zn204 Zn 0.47058 0.0211 0.22879 0.0
C205 C 0.54747 0.9869 0.07028 0.0
N206 N 0.5112 0.97613 0.0431 0.0
C207 C 0.48378 0.9849 0.09254 0.0
N208 N 0.50211 1.00148 0.14826 0.0
N209 N 0.54209 1.00315 0.13499 0.0
C210 C 0.63962 0.07298 0.26128 0.0
O211 O 0.64039 0.0452 0.31039 0.0
O212 O 0.42811 0.97928 0.26097 0.0
Zn213 Zn 0.58314 1.01165 0.20745 0.0
N214 N 0.4443 0.07266 0.20516 0.0
C215 C 0.4405 0.12718 0.12384 0.0
C216 C 0.45712 0.09021 0.14507 0.0
C217 C 0.4156 0.09121 0.24591 0.0
N218 N 0.41137 0.14522 0.16322 0.0
C219 C 0.39824 0.12852 0.22397 0.0
O220 O 0.56472 1.00766 0.30837 0.0
C221 C 0.53459 0.0194 0.3448 0.0
O222 O 0.50091 0.02928 0.31729 0.0
H223 H 0.48036 0.07576 0.11385 0.0
H224 H 0.40612 0.07693 0.29396 0.0
C225 C 0.65816 0.97404 0.20657 0.0
C226 C 0.68356 0.94228 0.2267 0.0
C227 C 0.6314 0.89486 0.19454 0.0
C228 C 0.6039 0.92714 0.18973 0.0
N229 N 0.61815 0.96609 0.19733 0.0
N230 N 0.66998 0.90304 0.21653 0.0
H231 H 0.66824 1.00534 0.20671 0.0
C232 C 0.44309 0.94746 0.28926 0.0
O233 O 0.48277 0.94172 0.2853 0.0
O234 O 0.61672 0.06678 0.20838 0.0
H235 H 0.57173 0.92141 0.18085 0.0
H236 H 0.45084 0.14147 0.0764 0.0
H237 H 0.62133 0.86351 0.18743 0.0
Zn238 Zn 0.26604 0.2226 0.48415 0.0
C239 C 0.29409 0.31567 0.34422 0.0
N240 N 0.30616 0.28353 0.30624 0.0
C241 C 0.29884 0.25095 0.34674 0.0
N242 N 0.28197 0.2619 0.40807 0.0
N243 N 0.27764 0.30269 0.40595 0.0
C244 C 0.19157 0.37886 0.4818 0.0
O245 O 0.18251 0.34047 0.46759 0.0
O246 O 0.30963 0.18116 0.50853 0.0
Zn247 Zn 0.26541 0.3355 0.48934 0.0
N248 N 0.21613 0.19312 0.46004 0.0
C249 C 0.16315 0.18426 0.37792 0.0
C250 C 0.19922 0.20313 0.39839 0.0
C251 C 0.19792 0.16487 0.50288 0.0
N252 N 0.14541 0.15562 0.41942 0.0
C253 C 0.16155 0.14505 0.48168 0.0
O254 O 0.23404 0.30906 0.57165 0.0
C255 C 0.24246 0.27759 0.60761 0.0
O256 O 0.25699 0.24603 0.57892 0.0
H257 H 0.21336 0.22603 0.36555 0.0
H258 H 0.21162 0.15787 0.55232 0.0
C259 C 0.31604 0.3424 0.59803 0.0
C260 C 0.34707 0.32528 0.63768 0.0
C261 C 0.38642 0.3154 0.53606 0.0
C262 C 0.35353 0.32863 0.49644 0.0
N263 N 0.31876 0.34147 0.52867 0.0
N264 N 0.38211 0.31308 0.60572 0.0
H265 H 0.28786 0.35256 0.62098 0.0
C266 C 0.33768 0.19525 0.54745 0.0
O267 O 0.33937 0.23488 0.55854 0.0
O268 O 0.2295 0.38873 0.48254 0.0
H269 H 0.35498 0.32544 0.44111 0.0
H270 H 0.14904 0.19298 0.32986 0.0
H271 H 0.41414 0.30468 0.51156 0.0
Zn272 Zn 0.75969 0.19316 0.48225 0.0
C273 C 0.70802 0.28852 0.3757 0.0
N274 N 0.69709 0.26018 0.32951 0.0
C275 C 0.71303 0.22522 0.35386 0.0
N276 N 0.7339 0.23188 0.4142 0.0
N277 N 0.73057 0.27201 0.42688 0.0
C278 C 0.68352 0.34123 0.55106 0.0
O279 O 0.67352 0.30218 0.54804 0.0
O280 O 0.82167 0.1804 0.47092 0.0
Zn281 Zn 0.75266 0.30433 0.50367 0.0
N282 N 0.73458 0.13918 0.48319 0.0
C283 C 0.6802 0.09177 0.50172 0.0
C284 C 0.69419 0.12975 0.47716 0.0
C285 C 0.76087 0.1123 0.51222 0.0
N286 N 0.70573 0.06833 0.54056 0.0
C287 C 0.74583 0.07886 0.54924 0.0
O288 O 0.75069 0.27674 0.59521 0.0
C289 C 0.75031 0.24134 0.62187 0.0
O290 O 0.75284 0.20928 0.58468 0.0
H291 H 0.67299 0.15186 0.45636 0.0
H292 H 0.79214 0.12105 0.51901 0.0
C293 C 0.82713 0.351 0.52599 0.0
C294 C 0.86968 0.35692 0.52096 0.0
C295 C 0.87303 0.30314 0.43837 0.0
C296 C 0.83101 0.29707 0.44399 0.0
N297 N 0.80897 0.32066 0.48809 0.0
N298 N 0.89134 0.3324 0.47744 0.0
H299 H 0.80903 0.36886 0.56175 0.0
C300 C 0.84534 0.18723 0.52216 0.0
O301 O 0.83516 0.21594 0.56632 0.0
O302 O 0.71747 0.35273 0.52501 0.0
H303 H 0.81622 0.27285 0.41513 0.0
H304 H 0.64839 0.08315 0.49646 0.0
H305 H 0.89112 0.28426 0.40417 0.0
Zn306 Zn 0.77145 0.72447 0.98368 0.0
C307 C 0.80562 0.81484 0.85154 0.0
N308 N 0.82266 0.78374 0.81601 0.0
C309 C 0.81321 0.75041 0.85344 0.0
N310 N 0.79083 0.76035 0.90989 0.0
N311 N 0.78472 0.8007 0.90862 0.0
C312 C 0.68644 0.88622 0.01147 0.0
O313 O 0.68468 0.86381 0.06773 0.0
O314 O 0.80566 0.67479 0.99905 0.0
Zn315 Zn 0.75434 0.82853 0.98779 0.0
N316 N 0.71469 0.70993 0.97264 0.0
C317 C 0.64904 0.73061 0.93449 0.0
C318 C 0.69135 0.73506 0.93322 0.0
C319 C 0.69756 0.67969 0.01232 0.0
N320 N 0.63184 0.70141 0.97551 0.0
C321 C 0.65482 0.67541 0.01433 0.0
O322 O 0.72461 0.79306 0.06294 0.0
C323 C 0.74794 0.77294 0.1031 0.0
O324 O 0.77481 0.75021 0.07658 0.0
H325 H 0.70542 0.75936 0.90321 0.0
H326 H 0.71682 0.66082 0.0446 0.0
C327 C 0.78316 0.8773 0.09078 0.0
C328 C 0.80579 0.88601 0.14928 0.0
C329 C 0.8536 0.83484 0.11761 0.0
C330 C 0.83035 0.82595 0.05929 0.0
N331 N 0.79555 0.84748 0.04768 0.0
N332 N 0.84076 0.86463 0.16139 0.0
H333 H 0.75501 0.89291 0.08084 0.0
C334 C 0.83587 0.6818 0.03872 0.0
O335 O 0.84646 0.71988 0.05191 0.0
O336 O 0.71311 0.87726 0.9649 0.0
H337 H 0.83882 0.80111 0.02535 0.0
H338 H 0.62991 0.75072 0.90422 0.0
H339 H 0.88116 0.8179 0.12857 0.0
Zn340 Zn 0.77666 0.19272 0.04828 0.0
C341 C 0.79587 0.28901 0.17822 0.0
N342 N 0.80853 0.25979 0.22164 0.0
C343 C 0.80373 0.22502 0.18625 0.0
N344 N 0.78697 0.23258 0.12287 0.0
N345 N 0.78266 0.27316 0.11725 0.0
C346 C 0.83575 0.32421 0.95103 0.0
O347 O 0.84232 0.28454 0.9501 0.0
O348 O 0.71813 0.16566 0.0428 0.0
Zn349 Zn 0.76192 0.30341 0.03398 0.0
N350 N 0.81645 0.14982 0.06002 0.0
C351 C 0.88526 0.12731 0.06413 0.0
C352 C 0.85701 0.15891 0.05835 0.0
C353 C 0.8031 0.11061 0.06754 0.0
N354 N 0.87173 0.08786 0.06353 0.0
C355 C 0.83104 0.07817 0.06256 0.0
O356 O 0.73999 0.26746 0.95556 0.0
C357 C 0.75992 0.24074 0.92137 0.0
O358 O 0.78438 0.21633 0.95168 0.0
H359 H 0.86713 0.19045 0.05374 0.0
H360 H 0.77073 0.1049 0.0714 0.0
C361 C 0.7 0.36566 1.00682 0.0
C362 C 0.67543 0.39956 0.02491 0.0
C363 C 0.69133 0.38811 0.14278 0.0
C364 C 0.71442 0.35403 0.12505 0.0
N365 N 0.71978 0.34414 0.05749 0.0
N366 N 0.67245 0.40996 0.0927 0.0
H367 H 0.70416 0.3572 0.9532 0.0
C368 C 0.71201 0.1395 0.99427 0.0
O369 O 0.74224 0.13128 0.95171 0.0
O370 O 0.80612 0.33805 0.98666 0.0
H371 H 0.72851 0.3362 0.16511 0.0
H372 H 0.91771 0.1339 0.06465 0.0
H373 H 0.68834 0.39713 0.19601 0.0
Zn374 Zn 0.76802 0.73134 0.52288 0.0
C375 C 0.72588 0.8114 0.67187 0.0
N376 N 0.71769 0.7772 0.7073 0.0
C377 C 0.72975 0.74712 0.66503 0.0
N378 N 0.74518 0.76204 0.60433 0.0
N379 N 0.74328 0.80284 0.60922 0.0
C380 C 0.83215 0.87179 0.46069 0.0
O381 O 0.81404 0.85581 0.40672 0.0
O382 O 0.7284 0.6888 0.48458 0.0
Zn383 Zn 0.7554 0.84104 0.53174 0.0
N384 N 0.8201 0.70536 0.54555 0.0
C385 C 0.87995 0.70839 0.61483 0.0
C386 C 0.84135 0.72299 0.59794 0.0
C387 C 0.83647 0.67378 0.50809 0.0
N388 N 0.89577 0.67644 0.57905 0.0
C389 C 0.87536 0.65845 0.52586 0.0
O390 O 0.73735 0.81708 0.43739 0.0
C391 C 0.75569 0.78899 0.40399 0.0
O392 O 0.7795 0.76455 0.43539 0.0
H393 H 0.82851 0.74856 0.62593 0.0
H394 H 0.81954 0.66086 0.46531 0.0
C395 C 0.74116 0.92501 0.53206 0.0
C396 C 0.71943 0.95444 0.49555 0.0
C397 C 0.65816 0.92332 0.53612 0.0
C398 C 0.6801 0.88742 0.54885 0.0
N399 N 0.72165 0.8889 0.54429 0.0
N400 N 0.67816 0.95551 0.50605 0.0
H401 H 0.774 0.92518 0.52703 0.0
C402 C 0.69575 0.70233 0.45725 0.0
O403 O 0.6866 0.74119 0.46537 0.0
O404 O 0.81621 0.86537 0.52068 0.0
H405 H 0.66447 0.85887 0.5603 0.0
H406 H 0.89715 0.72215 0.65653 0.0
H407 H 0.62528 0.92393 0.54213 0.0
Zn408 Zn 0.55881 0.5214 0.77641 0.0
C409 C 0.47834 0.47987 0.92537 0.0
N410 N 0.51399 0.4701 0.9553 0.0
C411 C 0.54232 0.48242 0.90974 0.0
N412 N 0.52521 0.49974 0.85339 0.0
N413 N 0.48473 0.49877 0.86273 0.0
C414 C 0.3694 0.54759 0.75 0.0
O415 O 0.36651 0.51923 0.70216 0.0
O416 O 0.60228 0.48191 0.74623 0.0
Zn417 Zn 0.44524 0.50348 0.7854 0.0
N418 N 0.5857 0.57066 0.80575 0.0
C419 C 0.59225 0.62353 0.88886 0.0
C420 C 0.57338 0.58786 0.86609 0.0
C421 C 0.61585 0.58795 0.76631 0.0
N422 N 0.62275 0.64052 0.85042 0.0
C423 C 0.63527 0.62386 0.78942 0.0
O424 O 0.46518 0.52332 0.69285 0.0
C425 C 0.49648 0.53396 0.65847 0.0
O426 O 0.53159 0.53429 0.68601 0.0
H427 H 0.54901 0.57407 0.89619 0.0
H428 H 0.62475 0.57361 0.7182 0.0
C429 C 0.40919 0.42435 0.80416 0.0
C430 C 0.4135 0.38145 0.80614 0.0
C431 C 0.4713 0.38736 0.73182 0.0
C432 C 0.46589 0.4295 0.72881 0.0
N433 N 0.43583 0.44716 0.76682 0.0
N434 N 0.44513 0.36445 0.77024 0.0
H435 H 0.38469 0.43969 0.83043 0.0
C436 C 0.59125 0.44531 0.73419 0.0
O437 O 0.5547 0.43342 0.75379 0.0
O438 O 0.39628 0.54331 0.7976 0.0
H439 H 0.4871 0.4483 0.6998 0.0
H440 H 0.58242 0.63775 0.93642 0.0
H441 H 0.49589 0.37288 0.70361 0.0
Zn442 Zn 0.96935 0.51428 0.2786 0.0
C443 C 0.06058 0.55399 0.40825 0.0
N444 N 0.02868 0.56709 0.4459 0.0
C445 C 0.99598 0.55559 0.40912 0.0
N446 N 1.00696 0.53555 0.35058 0.0
N447 N 0.04772 0.53327 0.3507 0.0
C448 C 0.15006 0.45683 0.24579 0.0
O449 O 0.13082 0.45632 0.18679 0.0
O450 O 0.92914 0.55734 0.24855 0.0
Zn451 Zn 0.07972 0.50943 0.2724 0.0
N452 N 0.94039 0.46574 0.31174 0.0
C453 C 0.93342 0.41433 0.39821 0.0
C454 C 0.95228 0.44975 0.37328 0.0
C455 C 0.91038 0.44725 0.2738 0.0
N456 N 0.90296 0.3965 0.36114 0.0
C457 C 0.89073 0.41196 0.29921 0.0
O458 O 0.0522 0.46841 0.20513 0.0
C459 C 0.0244 0.47979 0.16359 0.0
O460 O 0.99472 0.5005 0.18645 0.0
H461 H 0.97659 0.46409 0.4024 0.0
H462 H 0.90157 0.45957 0.22459 0.0
C463 C 0.11586 0.54638 0.16276 0.0
C464 C 0.10966 0.55472 0.09276 0.0
C465 C 0.04746 0.58779 0.12159 0.0
C466 C 0.05186 0.57508 0.19007 0.0
N467 N 0.08546 0.5532 0.20804 0.0
N468 N 0.07589 0.57634 0.07408 0.0
H469 H 0.14291 0.53144 0.18134 0.0
C470 C 0.91185 0.55168 0.19043 0.0
O471 O 0.91807 0.51741 0.15701 0.0
O472 O 0.13496 0.47808 0.29554 0.0
H473 H 0.02695 0.57889 0.22635 0.0
H474 H 0.94337 0.40084 0.44625 0.0
H475 H 0.02048 0.60425 0.1055 0.0
Zn476 Zn 0.44002 0.52748 0.2238 0.0
C477 C 0.54109 0.55854 0.10636 0.0
N478 N 0.51397 0.56572 0.05641 0.0
C479 C 0.47775 0.55509 0.08434 0.0
N480 N 0.48249 0.54023 0.15028 0.0
N481 N 0.52254 0.54296 0.16303 0.0
C482 C 0.59019 0.60075 0.28833 0.0
O483 O 0.55116 0.61007 0.28746 0.0
O484 O 0.41372 0.46801 0.23242 0.0
Zn485 Zn 0.5545 0.52698 0.24379 0.0
N486 N 0.39444 0.56316 0.20717 0.0
C487 C 0.36461 0.62901 0.19967 0.0
C488 C 0.39923 0.60444 0.203 0.0
C489 C 0.35676 0.54558 0.20598 0.0
N490 N 0.32707 0.61144 0.20786 0.0
C491 C 0.32196 0.56995 0.2134 0.0
O492 O 0.52475 0.53028 0.33232 0.0
C493 C 0.49042 0.53739 0.35993 0.0
O494 O 0.45797 0.54008 0.32397 0.0
H495 H 0.42952 0.61793 0.20266 0.0
H496 H 0.35424 0.51278 0.20518 0.0
C497 C 0.59882 0.45368 0.28267 0.0
C498 C 0.61097 0.41274 0.27389 0.0
C499 C 0.57749 0.41122 0.16513 0.0
C500 C 0.56525 0.45163 0.1741 0.0
N501 N 0.57569 0.47196 0.23276 0.0
N502 N 0.59962 0.39269 0.21531 0.0
H503 H 0.60662 0.4704 0.3291 0.0
C504 C 0.39212 0.46245 0.28752 0.0
O505 O 0.39097 0.49223 0.333 0.0
O506 O 0.60122 0.56632 0.26382 0.0
H507 H 0.54706 0.46648 0.13493 0.0
H508 H 0.36771 0.66195 0.19558 0.0
H509 H 0.56923 0.39454 0.11892 0.0
Zn510 Zn 0.08646 0.50472 0.72676 0.0
C511 C 0.98923 0.47108 0.60617 0.0
N512 N 0.01828 0.46214 0.55957 0.0
C513 C 0.05355 0.47398 0.58933 0.0
N514 N 0.04614 0.49072 0.65307 0.0
N515 N 1.00579 0.48849 0.66299 0.0
C516 C 0.93674 0.433 0.78418 0.0
O517 O 0.97561 0.42335 0.77971 0.0
O518 O 0.11208 0.5648 0.732 0.0
Zn519 Zn 0.97405 0.5065 0.74381 0.0
N520 N 0.13188 0.47072 0.70487 0.0
C521 C 0.16504 0.40652 0.70549 0.0
C522 C 0.12921 0.42924 0.70871 0.0
C523 C 0.16828 0.48974 0.69439 0.0
N524 N 0.20146 0.42657 0.71148 0.0
C525 C 0.20365 0.46847 0.71258 0.0
O526 O 1.00324 0.49976 0.83304 0.0
C527 C 0.03654 0.49125 0.86295 0.0
O528 O 0.06988 0.48887 0.82847 0.0
H529 H 0.09979 0.4143 0.71474 0.0
H530 H 0.16913 0.52275 0.69029 0.0
C531 C 0.92718 0.58236 0.7696 0.0
C532 C 0.91887 0.62421 0.7578 0.0
C533 C 0.97238 0.62666 0.67463 0.0
C534 C 0.98049 0.58539 0.68614 0.0
N535 N 0.95782 0.56385 0.73293 0.0
N536 N 0.94184 0.64496 0.7104 0.0
H537 H 0.9095 0.56481 0.80681 0.0
C538 C 0.11042 0.58634 0.78734 0.0
O539 O 0.08508 0.5746 0.83637 0.0
O540 O 0.9257 0.4685 0.76389 0.0
H541 H 1.00487 0.57061 0.65796 0.0
H542 H 0.16364 0.37343 0.70624 0.0
H543 H 0.99009 0.64403 0.63727 0.0
C544 C 0.98568 0.05409 0.98539 0.0
C545 C 1.00464 0.02411 0.94417 0.0
H546 H 0.97771 0.07911 0.08694 0.0
C547 C 0.03037 0.99551 0.97635 0.0
H548 H 0.96565 0.07663 0.96239 0.0
C549 C 0.03732 0.99701 0.04755 0.0
C550 C 0.01855 0.027 0.08889 0.0
H551 H 0.04515 0.9717 0.94656 0.0
H552 H 0.05722 0.97425 0.07024 0.0
C553 C 0.99267 0.0556 0.05687 0.0
C554 C 0.27708 0.78623 0.28967 0.0
C555 C 0.28531 0.74805 0.32085 0.0
H556 H 0.26987 0.82023 0.19576 0.0
C557 C 0.29443 0.71451 0.27805 0.0
H558 H 0.2699 0.81286 0.3207 0.0
C559 C 0.29497 0.71913 0.20591 0.0
C560 C 0.28597 0.75713 0.17511 0.0
H561 H 0.30071 0.68466 0.30015 0.0
H562 H 0.30086 0.69263 0.17413 0.0
C563 C 0.2771 0.79059 0.21787 0.0
C564 C 0.50152 0.02346 0.46124 0.0
C565 C 0.53747 0.02014 0.42165 0.0
H566 H 0.47444 0.02675 0.56142 0.0
C567 C 0.57519 0.0176 0.45645 0.0
H568 H 0.47187 0.02523 0.43665 0.0
C569 C 0.57672 0.01888 0.52913 0.0
C570 C 0.5405 0.02195 0.56832 0.0
H571 H 0.6035 0.01489 0.42769 0.0
H572 H 0.6061 0.01697 0.55456 0.0
C573 C 0.50299 0.02413 0.53323 0.0
C574 C 0.25186 0.24454 0.72411 0.0
C575 C 0.24121 0.2793 0.68516 0.0
H576 H 0.26499 0.21914 0.82329 0.0
C577 C 0.23408 0.31619 0.72109 0.0
H578 H 0.2579 0.21556 0.69892 0.0
C579 C 0.23845 0.31847 0.79357 0.0
C580 C 0.25015 0.28378 0.83194 0.0
H581 H 0.22703 0.34378 0.69273 0.0
H582 H 0.23332 0.34749 0.81925 0.0
C583 C 0.25617 0.24672 0.79597 0.0
C584 C 0.72828 0.26523 0.81007 0.0
C585 C 0.7556 0.23911 0.84468 0.0
H586 H 0.70495 0.28602 0.71254 0.0
C587 C 0.77975 0.21239 0.80491 0.0
H588 H 0.70926 0.28636 0.83871 0.0
C589 C 0.77719 0.21228 0.73255 0.0
C590 C 0.75004 0.2384 0.6983 0.0
H591 H 0.80128 0.19211 0.82965 0.0
H592 H 0.79758 0.19288 0.70316 0.0
C593 C 0.7257 0.265 0.73776 0.0
C594 C 0.71801 0.79991 0.21668 0.0
C595 C 0.74848 0.77859 0.18002 0.0
H596 H 0.69567 0.81929 0.31643 0.0
C597 C 0.78103 0.76167 0.21801 0.0
H598 H 0.69245 0.81323 0.18944 0.0
C599 C 0.78312 0.76555 0.28977 0.0
C600 C 0.75279 0.78653 0.32684 0.0
H601 H 0.8054 0.74523 0.19229 0.0
H602 H 0.80888 0.75201 0.31625 0.0
C603 C 0.71999 0.80353 0.28943 0.0
C604 C 0.45446 0.53215 0.47522 0.0
C605 C 0.48946 0.54199 0.43625 0.0
H606 H 0.42895 0.52227 0.57617 0.0
C607 C 0.52551 0.55307 0.47135 0.0
H608 H 0.42632 0.52334 0.44983 0.0
C609 C 0.52714 0.55247 0.54348 0.0
C610 C 0.49278 0.54068 0.58266 0.0
H611 H 0.553 0.56121 0.44292 0.0
H612 H 0.55584 0.55993 0.56838 0.0
C613 C 0.45608 0.53151 0.54771 0.0
C614 C 0.99335 0.48096 0.04529 0.0
C615 C 0.02813 0.4749 0.08644 0.0
H616 H 0.96855 0.49062 0.94498 0.0
C617 C 0.06594 0.47002 0.05209 0.0
H618 H 0.96346 0.4837 0.06867 0.0
C619 C 0.0692 0.47472 0.9796 0.0
C620 C 0.03453 0.48334 0.93943 0.0
H621 H 0.09344 0.46491 0.08101 0.0
H622 H 0.09895 0.47288 0.9553 0.0
C623 C 0.99641 0.48504 0.97352 0.0
C624 C 0.15286 0.21632 0.15818 0.0
C625 C 0.19502 0.20968 0.16423 0.0
H626 H 0.09261 0.19399 0.17984 0.0
C627 C 0.20875 0.17087 0.18521 0.0
H628 H 0.14151 0.246 0.14205 0.0
C629 C 0.18055 0.14082 0.2072 0.0
C630 C 0.13845 0.14951 0.2085 0.0
H631 H 0.24099 0.16454 0.18916 0.0
H632 H 0.1919 0.1125 0.22904 0.0
C633 C 0.12487 0.18659 0.18002 0.0
C634 C 0.07159 0.89067 0.41901 0.0
C635 C 0.07741 0.93337 0.41865 0.0
H636 H 0.0948 0.8321 0.44864 0.0
C637 C 0.11563 0.94931 0.43874 0.0
H638 H 0.04253 0.87751 0.40357 0.0
C639 C 0.1461 0.92287 0.46459 0.0
C640 C 0.13836 0.88041 0.47081 0.0
H641 H 0.12074 0.98214 0.43957 0.0
H642 H 0.17404 0.93593 0.4851 0.0
C643 C 0.10157 0.8646 0.44474 0.0
C644 C 0.3257 0.83073 0.74382 0.0
C645 C 0.33541 0.81626 0.67743 0.0
H646 H 0.34015 0.87213 0.82609 0.0
C647 C 0.36765 0.8357 0.6414 0.0
H648 H 0.30297 0.81495 0.77499 0.0
C649 C 0.38976 0.86844 0.67134 0.0
C650 C 0.38087 0.88156 0.73903 0.0
H651 H 0.37842 0.82308 0.59319 0.0
H652 H 0.41591 0.88102 0.64391 0.0
C653 C 0.34767 0.86309 0.77375 0.0
C654 C 0.42238 0.15542 0.8988 0.0
C655 C 0.3949 0.14282 0.95068 0.0
H656 H 0.47432 0.13974 0.8368 0.0
C657 C 0.39388 0.10118 0.96975 0.0
H658 H 0.42416 0.18741 0.88375 0.0
C659 C 0.42284 0.07376 0.94251 0.0
C660 C 0.4527 0.08731 0.89532 0.0
H661 H 0.37359 0.0908 0.01065 0.0
H662 H 0.42461 0.04306 0.96311 0.0
C663 C 0.45079 0.12793 0.87117 0.0
C664 C 0.21377 0.84264 0.7622 0.0
C665 C 0.20266 0.8272 0.82747 0.0
H666 H 0.19936 0.88339 0.67879 0.0
C667 C 0.16875 0.84446 0.8612 0.0
H668 H 0.23803 0.82843 0.7329 0.0
C669 C 0.14621 0.87604 0.83001 0.0
C670 C 0.1563 0.88992 0.76316 0.0
H671 H 0.1572 0.831 0.90845 0.0
H672 H 0.11888 0.88698 0.85561 0.0
C673 C 0.19109 0.87372 0.73063 0.0
C674 C 0.41082 0.97031 0.06235 0.0
C675 C 0.44678 0.95905 0.09666 0.0
H676 H 0.35789 0.9491 1.00684 0.0
C677 C 0.45268 0.91766 0.11381 0.0
H678 H 0.40539 1.00204 0.04956 0.0
C679 C 0.42603 0.88754 0.08929 0.0
C680 C 0.3925 0.89831 0.04823 0.0
H681 H 0.4805 0.90813 0.13941 0.0
H682 H 0.43343 0.85559 0.09783 0.0
C683 C 0.3836 0.94005 0.0384 0.0
C684 C 0.34828 0.19297 0.36365 0.0
C685 C 0.31577 0.21059 0.32686 0.0
H686 H 0.39947 0.15171 0.36086 0.0
C687 C 0.30865 0.19721 0.25919 0.0
H688 H 0.35742 0.20565 0.41271 0.0
C689 C 0.33339 0.16769 0.22824 0.0
C690 C 0.36664 0.15099 0.26394 0.0
H691 H 0.28626 0.21256 0.22784 0.0
H692 H 0.32821 0.16 0.1745 0.0
C693 C 0.37307 0.16279 0.33299 0.0
C694 C 0.09718 0.10149 0.6285 0.0
C695 C 0.07534 0.07052 0.59372 0.0
H696 H 0.14249 0.14941 0.62056 0.0
C697 C 0.08815 0.05941 0.52703 0.0
H698 H 0.08686 0.11201 0.6786 0.0
C699 C 0.11926 0.08134 0.49321 0.0
C700 C 0.13847 0.11495 0.52525 0.0
H701 H 0.07121 0.03649 0.49826 0.0
H702 H 0.12613 0.07398 0.43985 0.0
C703 C 0.12874 0.12335 0.59473 0.0
C704 C 0.86253 0.89952 0.75728 0.0
C705 C 0.88173 0.91984 0.81243 0.0
H706 H 0.82183 0.85085 0.72682 0.0
C707 C 0.86825 0.91055 0.88008 0.0
H708 H 0.87137 0.90629 0.70446 0.0
C709 C 0.83877 0.88004 0.89261 0.0
C710 C 0.82218 0.85706 0.83844 0.0
H711 H 0.88144 0.926 0.92426 0.0
H712 H 0.83194 0.87232 0.94513 0.0
C713 C 0.83347 0.86825 0.77023 0.0
C714 C 0.90413 0.16656 0.59742 0.0
C715 C 0.87712 0.15681 0.5434 0.0
H716 H 0.95426 0.1473 0.66035 0.0
C717 C 0.87849 0.11677 0.51594 0.0
H718 H 0.90455 0.19707 0.61947 0.0
C719 C 0.90554 0.08731 0.54299 0.0
C720 C 0.93192 0.09714 0.59791 0.0
H721 H 0.85867 0.10808 0.47369 0.0
H722 H 0.90698 0.05732 0.51916 0.0
C723 C 0.93174 0.13756 0.62278 0.0
C724 C 0.64272 0.14939 0.26346 0.0
C725 C 0.66241 0.11196 0.27294 0.0
H726 H 0.64249 0.2134 0.28382 0.0
C727 C 0.70154 0.11209 0.30397 0.0
H728 H 0.61263 0.15044 0.2403 0.0
C729 C 0.71976 0.14878 0.32735 0.0
C730 C 0.69808 0.18562 0.32402 0.0
H731 H 0.71781 0.08378 0.31187 0.0
H732 H 0.74993 0.14805 0.3501 0.0
C733 C 0.66005 0.18553 0.28919 0.0
C734 C 0.65984 0.95766 0.03431 0.0
C735 C 0.65473 0.9186 1.00385 0.0
H736 H 0.63033 1.01134 0.07694 0.0
C737 C 0.61505 0.9061 0.98674 0.0
H738 H 0.69005 0.96792 0.04951 0.0
C739 C 0.5812 0.92996 1.00473 0.0
C740 C 0.58558 0.96723 0.04132 0.0
H741 H 0.60985 0.87601 0.96464 0.0
H742 H 0.55119 0.91732 0.99408 0.0
C743 C 0.62558 0.98218 0.05143 0.0
C744 C 0.81666 0.1504 0.2196 0.0
C745 C 0.83088 0.19027 0.20547 0.0
H746 H 0.83326 0.0886 0.24715 0.0
C747 C 0.87241 0.19939 0.21833 0.0
H748 H 0.78474 0.14268 0.21214 0.0
C749 C 0.89952 0.16928 0.24113 0.0
C750 C 0.88599 0.12907 0.2523 0.0
H751 H 0.88429 0.23003 0.20923 0.0
H752 H 0.93163 0.177 0.24642 0.0
C753 C 0.84423 0.11983 0.24142 0.0
C754 C 0.59813 0.12331 0.9652 0.0
C755 C 0.59667 0.08334 0.93696 0.0
H756 H 0.63524 0.17214 1.00634 0.0
C757 C 0.63262 0.06033 0.93677 0.0
H758 H 0.57078 0.14182 0.96762 0.0
C759 C 0.66976 0.07821 0.95792 0.0
C760 C 0.67166 0.11894 0.98251 0.0
H761 H 0.63234 0.02911 0.91775 0.0
H762 H 0.69712 0.06025 0.95334 0.0
C763 C 0.63506 0.14079 0.98792 0.0
C764 C 0.72744 0.88807 0.68973 0.0
C765 C 0.70705 0.85052 0.69494 0.0
H766 H 0.72128 0.95268 0.68978 0.0
C767 C 0.66744 0.84986 0.72467 0.0
H768 H 0.75846 0.88948 0.67001 0.0
C769 C 0.64733 0.88634 0.74251 0.0
C770 C 0.66601 0.92431 0.72935 0.0
H771 H 0.65122 0.82109 0.73173 0.0
H772 H 0.61633 0.88487 0.76228 0.0
C773 C 0.70639 0.9245 0.70331 0.0
C774 C 0.92021 0.92738 0.36813 0.0
C775 C 0.93401 0.95589 0.41719 0.0
H776 H 0.87972 0.87765 0.34462 0.0
C777 C 0.91398 0.95641 0.48204 0.0
H778 H 0.93642 0.92399 0.31957 0.0
C779 C 0.88109 0.92939 0.49707 0.0
C780 C 0.86798 0.90024 0.4482 0.0
H781 H 0.92517 0.97639 0.52253 0.0
H782 H 0.86648 0.93085 0.54733 0.0
C783 C 0.88806 0.9 0.38343 0.0
C784 C 0.68964 0.68238 0.64589 0.0
C785 C 0.71859 0.70457 0.68442 0.0
H786 H 0.64011 0.63868 0.64873 0.0
C787 C 0.72371 0.69419 0.7545 0.0
H788 H 0.68249 0.6916 0.59384 0.0
C789 C 0.69931 0.66459 0.7863 0.0
C790 C 0.66798 0.64514 0.74962 0.0
H791 H 0.74303 0.71266 0.78749 0.0
H792 H 0.70259 0.65963 0.8414 0.0
C793 C 0.66463 0.65261 0.67811 0.0
C794 C 0.58797 0.42225 0.90552 0.0
C795 C 0.58385 0.46492 0.91374 0.0
H796 H 0.62149 0.36812 0.93191 0.0
C797 C 0.61505 0.48664 0.94711 0.0
H798 H 0.56356 0.4045 0.88224 0.0
C799 C 0.6475 0.46554 0.97831 0.0
C800 C 0.64987 0.42244 0.97466 0.0
H801 H 0.61231 0.51938 0.95437 0.0
H802 H 0.66918 0.48262 1.00935 0.0
C803 C 0.62104 0.4013 0.93454 0.0
C804 C 0.86345 0.38104 0.18881 0.0
C805 C 0.85851 0.39001 0.2596 0.0
H806 H 0.84596 0.34144 0.10525 0.0
C807 C 0.82513 0.37285 0.29518 0.0
H808 H 0.88921 0.39349 0.1602 0.0
C809 C 0.79965 0.34437 0.26282 0.0
C810 C 0.80722 0.33176 0.19461 0.0
H811 H 0.82045 0.37922 0.34958 0.0
H812 H 0.77711 0.32824 0.29389 0.0
C813 C 0.83812 0.35179 0.15665 0.0
C814 C 0.9067 0.62825 0.41808 0.0
C815 C 0.89605 0.62449 0.48837 0.0
H816 H 0.94792 0.60955 0.33758 0.0
C817 C 0.91307 0.59225 0.52675 0.0
H818 H 0.89514 0.65364 0.38785 0.0
C819 C 0.94218 0.56625 0.49718 0.0
C820 C 0.95506 0.57152 0.42837 0.0
H821 H 0.90604 0.589 0.58127 0.0
H822 H 0.95757 0.54441 0.53018 0.0
C823 C 0.9364 0.60237 0.38867 0.0
C824 C 0.61689 0.35362 0.35289 0.0
C825 C 0.63443 0.38957 0.3261 0.0
H826 H 0.62741 0.2938 0.39383 0.0
C827 C 0.67663 0.39644 0.33508 0.0
H828 H 0.58448 0.34763 0.34675 0.0
C829 C 0.70163 0.365 0.36107 0.0
C830 C 0.68435 0.32694 0.3793 0.0
H831 H 0.69082 0.42412 0.31502 0.0
H832 H 0.73444 0.36923 0.36097 0.0
C833 C 0.64155 0.32283 0.3799 0.0
C834 C 0.91542 0.45894 0.57429 0.0
C835 C 0.95151 0.44575 0.60655 0.0
H836 H 0.85979 0.44069 0.52321 0.0
C837 C 0.95595 0.40381 0.62125 0.0
H838 H 0.91149 0.49087 0.561 0.0
C839 C 0.92687 0.37526 0.59911 0.0
C840 C 0.89241 0.38791 0.562 0.0
H841 H 0.9839 0.39264 0.6444 0.0
H842 H 0.93291 0.34291 0.60645 0.0
C843 C 0.88577 0.43019 0.5528 0.0
C844 C 0.86621 0.69726 0.87968 0.0
C845 C 0.83323 0.71048 0.83902 0.0
H846 H 0.91886 0.65815 0.88692 0.0
C847 C 0.82693 0.69128 0.77499 0.0
H848 H 0.87446 0.71403 0.9257 0.0
C849 C 0.85183 0.65902 0.75311 0.0
C850 C 0.88548 0.64682 0.79257 0.0
H851 H 0.80493 0.70325 0.73893 0.0
H852 H 0.84697 0.64605 0.70228 0.0
C853 C 0.89198 0.66558 0.85695 0.0
C854 C 0.57148 0.62678 0.1207 0.0
C855 C 0.57786 0.58489 0.10841 0.0
H856 H 0.59131 0.68828 0.10064 0.0
C857 C 0.61456 0.57264 0.07712 0.0
H858 H 0.54305 0.63706 0.14368 0.0
C859 C 0.64242 0.6022 0.05187 0.0
C860 C 0.63348 0.64426 0.0575 0.0
H861 H 0.6201 0.5405 0.06766 0.0
H862 H 0.66884 0.59219 0.02267 0.0
C863 C 0.59886 0.65613 0.0953 0.0
C864 C 0.31619 0.38871 0.3749 0.0
C865 C 0.31166 0.35729 0.3262 0.0
H866 H 0.34751 0.44381 0.40348 0.0
C867 C 0.33145 0.36271 0.26136 0.0
H868 H 0.30109 0.38678 0.42429 0.0
C869 C 0.35731 0.39651 0.24798 0.0
C870 C 0.36446 0.42605 0.29913 0.0
H871 H 0.32829 0.33979 0.22125 0.0
H872 H 0.37226 0.39901 0.19808 0.0
C873 C 0.34297 0.42183 0.36238 0.0
C874 C 0.44436 0.61167 0.01844 0.0
C875 C 0.44025 0.57365 0.05343 0.0
H876 H 0.4145 0.66331 0.97232 0.0
C877 C 0.40138 0.55548 0.05644 0.0
H878 H 0.47393 0.62653 0.0134 0.0
C879 C 0.36693 0.57732 0.03328 0.0
C880 C 0.37107 0.61681 1.00363 0.0
H881 H 0.3974 0.52549 0.07971 0.0
H882 H 0.33678 0.56438 0.04219 0.0
C883 C 0.41032 0.63281 0.99362 0.0
C884 C 0.13359 0.64653 0.85988 0.0
C885 C 0.14016 0.6208 0.80231 0.0
H886 H 0.15596 0.69557 0.9237 0.0
C887 C 0.17702 0.62614 0.76511 0.0
H888 H 0.1056 0.64401 0.88969 0.0
C889 C 0.20598 0.65634 0.78485 0.0
C890 C 0.19977 0.68108 0.84368 0.0
H891 H 0.18344 0.60716 0.72056 0.0
H892 H 0.23258 0.6615 0.75253 0.0
C893 C 0.16306 0.67556 0.88071 0.0
C894 C 0.1617 0.44883 0.51897 0.0
C895 C 0.15801 0.40598 0.50916 0.0
H896 H 0.13184 0.50475 0.5518 0.0
C897 C 0.12084 0.38722 0.52865 0.0
H898 H 0.18981 0.46448 0.5049 0.0
C899 C 0.08871 0.40976 0.55665 0.0
C900 C 0.09174 0.45237 0.56641 0.0
H901 H 0.11636 0.35447 0.52307 0.0
H902 H 0.06089 0.39348 0.57069 0.0
C903 C 0.12857 0.47192 0.54628 0.0
C904 C 0.35894 0.66279 0.73194 0.0
C905 C 0.32469 0.66734 0.68826 0.0
H906 H 0.39878 0.62256 0.78705 0.0
C907 C 0.30155 0.63197 0.67341 0.0
H908 H 0.37732 0.68912 0.7464 0.0
C909 C 0.31493 0.59288 0.69559 0.0
C910 C 0.35047 0.58859 0.7364 0.0
H911 H 0.2736 0.63439 0.64399 0.0
H912 H 0.29778 0.56596 0.67998 0.0
C913 C 0.37132 0.62435 0.75605 0.0
C914 C 0.14249 0.61283 0.50499 0.0
C915 C 0.16238 0.63419 0.45137 0.0
H916 H 0.09526 0.56983 0.53286 0.0
C917 C 0.15279 0.62307 0.3826 0.0
H918 H 0.1493 0.61986 0.55842 0.0
C919 C 0.12298 0.59311 0.3679 0.0
C920 C 0.10133 0.57355 0.42132 0.0
H921 H 0.1678 0.63816 0.33943 0.0
H922 H 0.11489 0.58773 0.31473 0.0
C923 C 0.11209 0.58338 0.49012 0.0
C924 C 0.21555 0.42537 0.20577 0.0
C925 C 0.1828 0.42578 0.25361 0.0
H926 H 0.25979 0.38903 0.15059 0.0
C927 C 0.17345 0.38937 0.28876 0.0
H928 H 0.22366 0.45308 0.17778 0.0
C929 C 0.19206 0.35248 0.26939 0.0
C930 C 0.2208 0.35093 0.21449 0.0
H931 H 0.1483 0.38839 0.32539 0.0
H932 H 0.18119 0.32465 0.29414 0.0
C933 C 0.23529 0.38844 0.18815 0.0
C934 C 0.44447 0.42004 0.98397 0.0
C935 C 0.44032 0.45861 0.95094 0.0
H936 H 0.41489 0.36696 0.02772 0.0
C937 C 0.40091 0.47516 0.94597 0.0
H938 H 0.47428 0.40618 0.98983 0.0
C939 C 0.3665 0.45199 0.96788 0.0
C940 C 0.37098 0.41254 0.99738 0.0
H941 H 0.39652 0.50495 0.92253 0.0
H942 H 0.33622 0.46412 0.95884 0.0
C943 C 0.41043 0.39744 1.00677 0.0
C944 C 0.13511 0.85225 0.12268 0.0
C945 C 0.16861 0.8697 0.08751 0.0
H946 H 0.09059 0.85847 0.20272 0.0
C947 C 0.18356 0.90814 0.10894 0.0
H948 H 0.12304 0.82251 0.1081 0.0
C949 C 0.16501 0.92876 0.1642 0.0
C950 C 0.13118 0.91127 0.19868 0.0
H951 H 0.20976 0.92208 0.08355 0.0
H952 H 0.17644 0.95877 0.17863 0.0
C953 C 0.11673 0.87269 0.17756 0.0
C954 C 0.4337 0.8815 0.35334 0.0
C955 C 0.41784 0.91959 0.333 0.0
H956 H 0.42485 0.82646 0.41171 0.0
C957 C 0.37948 0.93154 0.35915 0.0
H958 H 0.46319 0.87138 0.33455 0.0
C959 C 0.35762 0.90586 0.40481 0.0
C960 C 0.3735 0.86757 0.42441 0.0
H961 H 0.36664 0.96093 0.34512 0.0
H962 H 0.32796 0.91558 0.4235 0.0
C963 C 0.41177 0.8558 0.39804 0.0
C964 C 0.35544 0.12661 0.59782 0.0
C965 C 0.36571 0.16789 0.58538 0.0
H966 H 0.37202 0.07031 0.64784 0.0
C967 C 0.40169 0.18399 0.61442 0.0
H968 H 0.32763 0.11352 0.57682 0.0
C969 C 0.42709 0.15931 0.65452 0.0
C970 C 0.41668 0.1182 0.66768 0.0
H971 H 0.41028 0.21577 0.60614 0.0
H972 H 0.45482 0.17254 0.67562 0.0
C973 C 0.38053 0.10207 0.6392 0.0
C974 C 0.14315 0.15995 0.89852 0.0
C975 C 0.16757 0.15066 0.95612 0.0
H976 H 0.10534 0.13692 0.8171 0.0
C977 C 0.17189 0.10959 0.97638 0.0
H978 H 0.13961 0.19132 0.88112 0.0
C979 C 0.15197 0.07842 0.93985 0.0
C980 C 0.128 0.0877 0.88164 0.0
H981 H 0.1906 0.10159 0.02044 0.0
H982 H 0.15556 0.04701 0.957 0.0
C983 C 0.12386 0.12877 0.8613 0.0
C984 C 0.78323 0.03926 0.92281 0.0
C985 C 0.82093 0.03218 0.89068 0.0
H986 H 0.75294 0.0473 0.01992 0.0
C987 C 0.85209 0.01411 0.93024 0.0
H988 H 0.75777 0.05087 0.8935 0.0
C989 C 0.84977 0.01531 1.00214 0.0
C990 C 0.81801 0.03801 0.03204 0.0
H991 H 0.88146 1.00759 0.90747 0.0
H992 H 0.87785 1.01029 0.03009 0.0
C993 C 0.78094 0.03783 0.99509 0.0
C994 C 0.78219 0.10023 0.65585 0.0
C995 C 0.76631 0.06789 0.61507 0.0
H996 H 0.77583 0.1305 0.75292 0.0
C997 C 0.75476 0.03178 0.64936 0.0
H998 H 0.79495 0.12779 0.63306 0.0
C999 C 0.74788 0.03308 0.7208 0.0
C1000 C 0.74635 0.07154 0.75332 0.0
H1001 H 0.74556 1.00503 0.62023 0.0
H1002 H 0.73588 1.00648 0.74688 0.0
C1003 C 0.77155 0.10211 0.72551 0.0
C1004 C 0.73828 0.92019 0.38731 0.0
C1005 C 0.73211 0.95746 0.42264 0.0
H1006 H 0.72755 0.88613 0.29625 0.0
C1007 C 0.72488 0.99285 0.38418 0.0
H1008 H 0.74507 0.89215 0.41414 0.0
C1009 C 0.71772 0.98936 0.31333 0.0
C1010 C 0.71336 0.95018 0.28263 0.0
H1011 H 0.7212 0.02221 0.4094 0.0
H1012 H 0.71152 0.01697 0.28507 0.0
C1013 C 0.72756 0.91632 0.31897 0.0
C1014 C 0.81586 0.96023 0.29203 0.0
C1015 C 0.81833 0.99379 0.24689 0.0
H1016 H 0.81857 0.89436 0.28755 0.0
C1017 C 0.78879 0.99468 0.1948 0.0
H1018 H 0.83073 0.96148 0.34188 0.0
C1019 C 0.7794 0.95728 0.16336 0.0
C1020 C 0.79505 0.92083 0.19302 0.0
H1021 H 0.78294 0.0229 0.1671 0.0
H1022 H 0.76568 0.95797 0.1126 0.0
C1023 C 0.80971 0.92208 0.26107 0.0
C1024 C 0.65175 0.43345 0.6568 0.0
C1025 C 0.61607 0.41859 0.68928 0.0
H1026 H 0.7008 0.42092 0.58628 0.0
C1027 C 0.60227 0.3788 0.67405 0.0
H1028 H 0.66294 0.46417 0.66699 0.0
C1029 C 0.62354 0.35437 0.62734 0.0
C1030 C 0.65926 0.36905 0.59491 0.0
H1031 H 0.5748 0.36648 0.69788 0.0
H1032 H 0.61214 0.32371 0.61734 0.0
C1033 C 0.67315 0.40889 0.60995 0.0
C1034 C 0.84939 0.39335 0.89652 0.0
C1035 C 0.86077 0.35219 0.90691 0.0
H1036 H 0.86386 0.45107 0.84821 0.0
C1037 C 0.8957 0.33751 0.8727 0.0
H1038 H 0.8224 0.40557 0.92149 0.0
C1039 C 0.9193 0.36351 0.83081 0.0
C1040 C 0.90841 0.4048 0.82135 0.0
H1041 H 0.90522 0.30596 0.87893 0.0
H1042 H 0.94653 0.35134 0.80652 0.0
C1043 C 0.87284 0.41932 0.85387 0.0
C1044 C 0.89538 0.62567 0.1755 0.0
C1045 C 0.89003 0.58481 0.15508 0.0
H1046 H 0.88305 0.68854 0.15343 0.0
C1047 C 0.86665 0.57594 0.09602 0.0
H1048 H 0.91352 0.63337 0.22041 0.0
C1049 C 0.84927 0.60746 0.05751 0.0
C1050 C 0.85536 0.64835 0.07706 0.0
H1051 H 0.86211 0.54461 0.07904 0.0
H1052 H 0.83139 0.59982 0.01225 0.0
C1053 C 0.87839 0.65721 0.13652 0.0
C1054 C 0.65683 0.61232 0.35048 0.0
C1055 C 0.61911 0.62731 0.32685 0.0
H1056 H 0.71042 0.6239 0.4114 0.0
C1057 C 0.60724 0.66703 0.34605 0.0
H1058 H 0.66668 0.58169 0.33711 0.0
C1059 C 0.63208 0.69103 0.38857 0.0
C1060 C 0.66937 0.67587 0.41356 0.0
H1061 H 0.57838 0.67953 0.32885 0.0
H1062 H 0.62178 0.72146 0.40226 0.0
C1063 C 0.68165 0.63631 0.39368 0.0
C1064 C 0.25511 0.58584 0.34945 0.0
C1065 C 0.27573 0.55751 0.39216 0.0
H1066 H 0.25007 0.60925 0.24734 0.0
C1067 C 0.28815 0.52054 0.36252 0.0
H1068 H 0.24323 0.6142 0.36969 0.0
C1069 C 0.28999 0.51733 0.29048 0.0
C1070 C 0.28514 0.55335 0.25056 0.0
H1071 H 0.30113 0.49675 0.39435 0.0
H1072 H 0.30372 0.49017 0.26884 0.0
C1073 C 0.25863 0.58282 0.27782 0.0
C1074 C 0.14351 0.56525 0.97934 0.0
C1075 C 0.14056 0.54283 0.04098 0.0
H1076 H 0.18601 0.59232 0.90809 0.0
C1077 C 0.1738 0.51744 0.05923 0.0
H1078 H 0.1178 0.58215 0.95941 0.0
C1079 C 0.21245 0.52693 0.03311 0.0
C1080 C 0.21593 0.562 0.99197 0.0
H1081 H 0.17174 0.49504 0.10008 0.0
H1082 H 0.23912 0.51403 0.05786 0.0
C1083 C 0.18222 0.57134 0.95058 0.0
C1084 C 0.25459 0.44722 0.86267 0.0
C1085 C 0.22029 0.45915 0.90219 0.0
H1086 H 0.28103 0.44669 0.7613 0.0
C1087 C 0.19642 0.49112 0.87784 0.0
H1088 H 0.27369 0.42244 0.8793 0.0
C1089 C 0.20673 0.51043 0.81609 0.0
C1090 C 0.22934 0.48739 0.76766 0.0
H1091 H 0.16855 0.4993 0.90422 0.0
H1092 H 0.18705 0.53511 0.79977 0.0
C1093 C 0.25978 0.46216 0.7953 0.0
C1094 C 0.37006 0.29824 0.75131 0.0
C1095 C 0.34399 0.32393 0.71324 0.0
H1096 H 0.4109 0.29651 0.83698 0.0
C1097 C 0.32476 0.35643 0.74778 0.0
H1098 H 0.38317 0.27103 0.72831 0.0
C1099 C 0.34096 0.36975 0.8097 0.0
C1100 C 0.37927 0.35437 0.82866 0.0
H1101 H 0.30253 0.37596 0.7232 0.0
H1102 H 0.33097 0.39936 0.82739 0.0
C1103 C 0.38531 0.31257 0.81432 0.0
loop_
_geom_bond_atom_site_label_1
_geom_bond_atom_site_label_2
_geom_bond_distance
_geom_bond_site_symmetry_2
_ccdc_geom_bond_type
Zn0 N4 2.020 . S
Zn0 O8 2.019 . S
Zn0 N10 2.119 . S
Zn0 O18 1.975 . S
C1 N2 1.334 1_645 S
C1 N5 1.336 . S
N2 C1 1.334 1_465 S
N2 C3 1.334 . S
C3 N2 1.334 . S
C3 N4 1.336 1_565 S
N4 Zn0 2.020 . S
N4 C3 1.336 1_545 S
N4 N5 1.354 1_455 S
N5 C1 1.336 . S
N5 N4 1.354 1_655 S
N5 Zn9 2.020 . S
C6 O7 1.244 . S
C6 O30 1.257 . S
O7 C6 1.244 . S
O8 Zn0 2.019 . S
O8 C28 1.257 1_545 S
Zn9 N5 2.020 . S
Zn9 O16 1.975 . S
Zn9 N25 2.119 1_545 S
Zn9 O30 2.019 . S
N10 Zn0 2.119 . S
N10 C12 1.334 . S
N10 C13 1.328 . S
C11 C12 1.391 . S
C11 N14 1.329 . S
C11 H32 0.930 . S
C12 N10 1.334 . S
C12 C11 1.391 . S
C12 H19 0.930 . S
C13 N10 1.328 . S
C13 C15 1.392 . S
C13 H20 0.930 . S
N14 C11 1.329 . S
N14 C15 1.331 . S
C15 C13 1.392 . S
C15 N14 1.331 . S
O16 Zn9 1.975 . S
O16 C17 1.252 1_655 S
C17 O16 1.252 1_455 S
C17 O18 1.252 . S
O18 Zn0 1.975 . S
O18 C17 1.252 . S
H19 C12 0.930 . S
H20 C13 0.930 . S
C21 C22 1.392 . S
C21 N25 1.328 . S
C21 H27 0.930 . S
C22 C21 1.392 . S
C22 N26 1.331 . S
C23 C24 1.391 . S
C23 N26 1.329 . S
C23 H33 0.930 . S
C24 C23 1.391 . S
C24 N25 1.334 . S
C24 H31 0.930 . S
N25 Zn9 2.119 1_565 S
N25 C21 1.328 . S
N25 C24 1.334 . S
N26 C22 1.331 . S
N26 C23 1.329 . S
H27 C21 0.930 . S
C28 O8 1.257 1_565 S
C28 O29 1.244 . S
O29 C28 1.244 . S
O30 C6 1.257 . S
O30 Zn9 2.019 . S
H31 C24 0.930 . S
H32 C11 0.930 . S
H33 C23 0.930 . S
Zn34 N38 2.020 . S
Zn34 O42 2.019 . S
Zn34 N44 2.119 . S
Zn34 O52 1.975 . S
C35 N36 1.334 . S
C35 N39 1.336 . S
N36 C35 1.334 . S
N36 C37 1.334 . S
C37 N36 1.334 . S
C37 N38 1.336 . S
N38 Zn34 2.020 . S
N38 C37 1.336 . S
N38 N39 1.354 . S
N39 C35 1.336 . S
N39 N38 1.354 . S
N39 Zn43 2.020 . S
C40 O41 1.244 . S
C40 O64 1.257 . S
O41 C40 1.244 . S
O42 Zn34 2.019 . S
O42 C62 1.257 . S
Zn43 N39 2.020 . S
Zn43 O50 1.975 . S
Zn43 N59 2.119 . S
Zn43 O64 2.019 . S
N44 Zn34 2.119 . S
N44 C46 1.334 . S
N44 C47 1.328 . S
C45 C46 1.391 . S
C45 N48 1.329 . S
C45 H66 0.930 . S
C46 N44 1.334 . S
C46 C45 1.391 . S
C46 H53 0.930 . S
C47 N44 1.328 . S
C47 C49 1.392 . S
C47 H54 0.930 . S
N48 C45 1.329 . S
N48 C49 1.331 . S
C49 C47 1.392 . S
C49 N48 1.331 . S
O50 Zn43 1.975 . S
O50 C51 1.252 . S
C51 O50 1.252 . S
C51 O52 1.252 . S
O52 Zn34 1.975 . S
O52 C51 1.252 . S
H53 C46 0.930 . S
H54 C47 0.930 . S
C55 C56 1.392 . S
C55 N59 1.328 . S
C55 H61 0.930 . S
C56 C55 1.392 . S
C56 N60 1.331 . S
C57 C58 1.391 . S
C57 N60 1.329 . S
C57 H67 0.930 . S
C58 C57 1.391 . S
C58 N59 1.334 . S
C58 H65 0.930 . S
N59 Zn43 2.119 . S
N59 C55 1.328 . S
N59 C58 1.334 . S
N60 C56 1.331 . S
N60 C57 1.329 . S
H61 C55 0.930 . S
C62 O42 1.257 . S
C62 O63 1.244 . S
O63 C62 1.244 . S
O64 C40 1.257 . S
O64 Zn43 2.019 . S
H65 C58 0.930 . S
H66 C45 0.930 . S
H67 C57 0.930 . S
Zn68 N72 2.020 . S
Zn68 O76 2.019 . S
Zn68 N78 2.119 . S
Zn68 O86 1.975 . S
C69 N70 1.334 1_565 S
C69 N73 1.336 . S
N70 C69 1.334 1_545 S
N70 C71 1.334 . S
C71 N70 1.334 . S
C71 N72 1.336 1_545 S
N72 Zn68 2.020 . S
N72 C71 1.336 1_565 S
N72 N73 1.354 . S
N73 C69 1.336 . S
N73 N72 1.354 . S
N73 Zn77 2.020 . S
C74 O75 1.244 . S
C74 O98 1.257 . S
O75 C74 1.244 . S
O76 Zn68 2.019 . S
O76 C96 1.257 1_565 S
Zn77 N73 2.020 . S
Zn77 O84 1.975 . S
Zn77 N93 2.119 1_565 S
Zn77 O98 2.019 . S
N78 Zn68 2.119 . S
N78 C80 1.334 . S
N78 C81 1.328 . S
C79 C80 1.391 . S
C79 N82 1.329 . S
C79 H100 0.930 . S
C80 N78 1.334 . S
C80 C79 1.391 . S
C80 H87 0.930 . S
C81 N78 1.328 . S
C81 C83 1.392 . S
C81 H88 0.930 . S
N82 C79 1.329 . S
N82 C83 1.331 . S
C83 C81 1.392 . S
C83 N82 1.331 . S
O84 Zn77 1.975 . S
O84 C85 1.252 . S
C85 O84 1.252 . S
C85 O86 1.252 . S
O86 Zn68 1.975 . S
O86 C85 1.252 . S
H87 C80 0.930 . S
H88 C81 0.930 . S
C89 C90 1.392 . S
C89 N93 1.328 . S
C89 H95 0.930 . S
C90 C89 1.392 . S
C90 N94 1.331 . S
C91 C92 1.391 . S
C91 N94 1.329 . S
C91 H101 0.930 . S
C92 C91 1.391 . S
C92 N93 1.334 . S
C92 H99 0.930 . S
N93 Zn77 2.119 1_545 S
N93 C89 1.328 . S
N93 C92 1.334 . S
N94 C90 1.331 . S
N94 C91 1.329 . S
H95 C89 0.930 . S
C96 O76 1.257 1_545 S
C96 O97 1.244 . S
O97 C96 1.244 . S
O98 C74 1.257 . S
O98 Zn77 2.019 . S
H99 C92 0.930 . S
H100 C79 0.930 . S
H101 C91 0.930 . S
Zn102 N106 2.020 1_556 S
Zn102 O110 2.019 . S
Zn102 N112 2.119 1_556 S
Zn102 O120 1.975 . S
C103 N104 1.334 . S
C103 N107 1.336 . S
N104 C103 1.334 . S
N104 C105 1.334 . S
C105 N104 1.334 . S
C105 N106 1.336 . S
N106 Zn102 2.020 1_554 S
N106 C105 1.336 . S
N106 N107 1.354 . S
N107 C103 1.336 . S
N107 N106 1.354 . S
N107 Zn111 2.020 1_554 S
C108 O109 1.244 . S
C108 O132 1.257 1_554 S
O109 C108 1.244 . S
O110 Zn102 2.019 . S
O110 C130 1.257 . S
Zn111 N107 2.020 1_556 S
Zn111 O118 1.975 . S
Zn111 N127 2.119 . S
Zn111 O132 2.019 . S
N112 Zn102 2.119 1_554 S
N112 C114 1.334 . S
N112 C115 1.328 . S
C113 C114 1.391 . S
C113 N116 1.329 . S
C113 H134 0.930 . S
C114 N112 1.334 . S
C114 C113 1.391 . S
C114 H121 0.930 . S
C115 N112 1.328 . S
C115 C117 1.392 . S
C115 H122 0.930 . S
N116 C113 1.329 . S
N116 C117 1.331 . S
C117 C115 1.392 . S
C117 N116 1.331 . S
O118 Zn111 1.975 . S
O118 C119 1.252 . S
C119 O118 1.252 . S
C119 O120 1.252 . S
O120 Zn102 1.975 . S
O120 C119 1.252 . S
H121 C114 0.930 . S
H122 C115 0.930 . S
C123 C124 1.392 . S
C123 N127 1.328 . S
C123 H129 0.930 . S
C124 C123 1.392 . S
C124 N128 1.331 . S
C125 C126 1.391 . S
C125 N128 1.329 . S
C125 H135 0.930 . S
C126 C125 1.391 . S
C126 N127 1.334 . S
C126 H133 0.930 . S
N127 Zn111 2.119 . S
N127 C123 1.328 . S
N127 C126 1.334 . S
N128 C124 1.331 . S
N128 C125 1.329 . S
H129 C123 0.930 . S
C130 O110 1.257 . S
C130 O131 1.244 . S
O131 C130 1.244 . S
O132 C108 1.257 1_556 S
O132 Zn111 2.019 . S
H133 C126 0.930 . S
H134 C113 0.930 . S
H135 C125 0.930 . S
Zn136 N140 2.020 . S
Zn136 O144 2.019 . S
Zn136 N146 2.119 . S
Zn136 O154 1.975 . S
C137 N138 1.334 1_665 S
C137 N141 1.336 . S
N138 C137 1.334 1_445 S
N138 C139 1.334 . S
C139 N138 1.334 . S
C139 N140 1.336 1_545 S
N140 Zn136 2.020 . S
N140 C139 1.336 1_565 S
N140 N141 1.354 1_455 S
N141 C137 1.336 . S
N141 N140 1.354 1_655 S
N141 Zn145 2.020 . S
C142 O143 1.244 . S
C142 O166 1.257 . S
O143 C142 1.244 . S
O144 Zn136 2.019 . S
O144 C164 1.257 1_565 S
Zn145 N141 2.020 . S
Zn145 O152 1.975 . S
Zn145 N161 2.119 1_565 S
Zn145 O166 2.019 . S
N146 Zn136 2.119 . S
N146 C148 1.334 . S
N146 C149 1.328 . S
C147 C148 1.391 . S
C147 N150 1.329 . S
C147 H168 0.930 . S
C148 N146 1.334 . S
C148 C147 1.391 . S
C148 H155 0.930 . S
C149 N146 1.328 . S
C149 C151 1.392 . S
C149 H156 0.930 . S
N150 C147 1.329 . S
N150 C151 1.331 . S
C151 C149 1.392 . S
C151 N150 1.331 . S
O152 Zn145 1.975 . S
O152 C153 1.252 1_655 S
C153 O152 1.252 1_455 S
C153 O154 1.252 . S
O154 Zn136 1.975 . S
O154 C153 1.252 . S
H155 C148 0.930 . S
H156 C149 0.930 . S
C157 C158 1.392 . S
C157 N161 1.328 . S
C157 H163 0.930 . S
C158 C157 1.392 . S
C158 N162 1.331 . S
C159 C160 1.391 . S
C159 N162 1.329 . S
C159 H169 0.930 . S
C160 C159 1.391 . S
C160 N161 1.334 . S
C160 H167 0.930 . S
N161 Zn145 2.119 1_545 S
N161 C157 1.328 . S
N161 C160 1.334 . S
N162 C158 1.331 . S
N162 C159 1.329 . S
H163 C157 0.930 . S
C164 O144 1.257 1_545 S
C164 O165 1.244 . S
O165 C164 1.244 . S
O166 C142 1.257 . S
O166 Zn145 2.019 . S
H167 C160 0.930 . S
H168 C147 0.930 . S
H169 C159 0.930 . S
Zn170 N174 2.020 1_554 S
Zn170 O178 2.019 . S
Zn170 N180 2.119 . S
Zn170 O188 1.975 . S
C171 N172 1.334 . S
C171 N175 1.336 . S
N172 C171 1.334 . S
N172 C173 1.334 . S
C173 N172 1.334 . S
C173 N174 1.336 . S
N174 Zn170 2.020 1_556 S
N174 C173 1.336 . S
N174 N175 1.354 . S
N175 C171 1.336 . S
N175 N174 1.354 . S
N175 Zn179 2.020 1_556 S
C176 O177 1.244 . S
C176 O200 1.257 . S
O177 C176 1.244 . S
O178 Zn170 2.019 . S
O178 C198 1.257 1_554 S
Zn179 N175 2.020 1_554 S
Zn179 O186 1.975 . S
Zn179 N195 2.119 1_554 S
Zn179 O200 2.019 . S
N180 Zn170 2.119 . S
N180 C182 1.334 . S
N180 C183 1.328 . S
C181 C182 1.391 . S
C181 N184 1.329 . S
C181 H202 0.930 . S
C182 N180 1.334 . S
C182 C181 1.391 . S
C182 H189 0.930 . S
C183 N180 1.328 . S
C183 C185 1.392 . S
C183 H190 0.930 . S
N184 C181 1.329 . S
N184 C185 1.331 . S
C185 C183 1.392 . S
C185 N184 1.331 . S
O186 Zn179 1.975 . S
O186 C187 1.252 . S
C187 O186 1.252 . S
C187 O188 1.252 . S
O188 Zn170 1.975 . S
O188 C187 1.252 . S
H189 C182 0.930 . S
H190 C183 0.930 . S
C191 C192 1.392 . S
C191 N195 1.328 . S
C191 H197 0.930 . S
C192 C191 1.392 . S
C192 N196 1.331 . S
C193 C194 1.391 . S
C193 N196 1.329 . S
C193 H203 0.930 . S
C194 C193 1.391 . S
C194 N195 1.334 . S
C194 H201 0.930 . S
N195 Zn179 2.119 1_556 S
N195 C191 1.328 . S
N195 C194 1.334 . S
N196 C192 1.331 . S
N196 C193 1.329 . S
H197 C191 0.930 . S
C198 O178 1.257 1_556 S
C198 O199 1.244 . S
O199 C198 1.244 . S
O200 C176 1.257 . S
O200 Zn179 2.019 . S
H201 C194 0.930 . S
H202 C181 0.930 . S
H203 C193 0.930 . S
Zn204 N208 2.020 . S
Zn204 O212 2.019 . S
Zn204 N214 2.119 . S
Zn204 O222 1.975 . S
C205 N206 1.334 1_545 S
C205 N209 1.336 . S
N206 C205 1.334 1_565 S
N206 C207 1.334 . S
C207 N206 1.334 . S
C207 N208 1.336 1_565 S
N208 Zn204 2.020 . S
N208 C207 1.336 1_545 S
N208 N209 1.354 . S
N209 C205 1.336 . S
N209 N208 1.354 . S
N209 Zn213 2.020 . S
C210 O211 1.244 . S
C210 O234 1.257 . S
O211 C210 1.244 . S
O212 Zn204 2.019 . S
O212 C232 1.257 1_545 S
Zn213 N209 2.020 . S
Zn213 O220 1.975 . S
Zn213 N229 2.119 1_545 S
Zn213 O234 2.019 . S
N214 Zn204 2.119 . S
N214 C216 1.334 . S
N214 C217 1.328 . S
C215 C216 1.391 . S
C215 N218 1.329 . S
C215 H236 0.930 . S
C216 N214 1.334 . S
C216 C215 1.391 . S
C216 H223 0.930 . S
C217 N214 1.328 . S
C217 C219 1.392 . S
C217 H224 0.930 . S
N218 C215 1.329 . S
N218 C219 1.331 . S
C219 C217 1.392 . S
C219 N218 1.331 . S
O220 Zn213 1.975 . S
O220 C221 1.252 . S
C221 O220 1.252 . S
C221 O222 1.252 . S
O222 Zn204 1.975 . S
O222 C221 1.252 . S
H223 C216 0.930 . S
H224 C217 0.930 . S
C225 C226 1.392 . S
C225 N229 1.328 . S
C225 H231 0.930 . S
C226 C225 1.392 . S
C226 N230 1.331 . S
C227 C228 1.391 . S
C227 N230 1.329 . S
C227 H237 0.930 . S
C228 C227 1.391 . S
C228 N229 1.334 . S
C228 H235 0.930 . S
N229 Zn213 2.119 1_565 S
N229 C225 1.328 . S
N229 C228 1.334 . S
N230 C226 1.331 . S
N230 C227 1.329 . S
H231 C225 0.930 . S
C232 O212 1.257 1_565 S
C232 O233 1.244 . S
O233 C232 1.244 . S
O234 C210 1.257 . S
O234 Zn213 2.019 . S
H235 C228 0.930 . S
H236 C215 0.930 . S
H237 C227 0.930 . S
Zn238 N242 2.020 . S
Zn238 O246 2.019 . S
Zn238 N248 2.119 . S
Zn238 O256 1.975 . S
C239 N240 1.334 . S
C239 N243 1.336 . S
N240 C239 1.334 . S
N240 C241 1.334 . S
C241 N240 1.334 . S
C241 N242 1.336 . S
N242 Zn238 2.020 . S
N242 C241 1.336 . S
N242 N243 1.354 . S
N243 C239 1.336 . S
N243 N242 1.354 . S
N243 Zn247 2.020 . S
C244 O245 1.244 . S
C244 O268 1.257 . S
O245 C244 1.244 . S
O246 Zn238 2.019 . S
O246 C266 1.257 . S
Zn247 N243 2.020 . S
Zn247 O254 1.975 . S
Zn247 N263 2.119 . S
Zn247 O268 2.019 . S
N248 Zn238 2.119 . S
N248 C250 1.334 . S
N248 C251 1.328 . S
C249 C250 1.391 . S
C249 N252 1.329 . S
C249 H270 0.930 . S
C250 N248 1.334 . S
C250 C249 1.391 . S
C250 H257 0.930 . S
C251 N248 1.328 . S
C251 C253 1.392 . S
C251 H258 0.930 . S
N252 C249 1.329 . S
N252 C253 1.331 . S
C253 C251 1.392 . S
C253 N252 1.331 . S
O254 Zn247 1.975 . S
O254 C255 1.252 . S
C255 O254 1.252 . S
C255 O256 1.252 . S
O256 Zn238 1.975 . S
O256 C255 1.252 . S
H257 C250 0.930 . S
H258 C251 0.930 . S
C259 C260 1.392 . S
C259 N263 1.328 . S
C259 H265 0.930 . S
C260 C259 1.392 . S
C260 N264 1.331 . S
C261 C262 1.391 . S
C261 N264 1.329 . S
C261 H271 0.930 . S
C262 C261 1.391 . S
C262 N263 1.334 . S
C262 H269 0.930 . S
N263 Zn247 2.119 . S
N263 C259 1.328 . S
N263 C262 1.334 . S
N264 C260 1.331 . S
N264 C261 1.329 . S
H265 C259 0.930 . S
C266 O246 1.257 . S
C266 O267 1.244 . S
O267 C266 1.244 . S
O268 C244 1.257 . S
O268 Zn247 2.019 . S
H269 C262 0.930 . S
H270 C249 0.930 . S
H271 C261 0.930 . S
Zn272 N276 2.020 . S
Zn272 O280 2.019 . S
Zn272 N282 2.119 . S
Zn272 O290 1.975 . S
C273 N274 1.334 . S
C273 N277 1.336 . S
N274 C273 1.334 . S
N274 C275 1.334 . S
C275 N274 1.334 . S
C275 N276 1.336 . S
N276 Zn272 2.020 . S
N276 C275 1.336 . S
N276 N277 1.354 . S
N277 C273 1.336 . S
N277 N276 1.354 . S
N277 Zn281 2.020 . S
C278 O279 1.244 . S
C278 O302 1.257 . S
O279 C278 1.244 . S
O280 Zn272 2.019 . S
O280 C300 1.257 . S
Zn281 N277 2.020 . S
Zn281 O288 1.975 . S
Zn281 N297 2.119 . S
Zn281 O302 2.019 . S
N282 Zn272 2.119 . S
N282 C284 1.334 . S
N282 C285 1.328 . S
C283 C284 1.391 . S
C283 N286 1.329 . S
C283 H304 0.930 . S
C284 N282 1.334 . S
C284 C283 1.391 . S
C284 H291 0.930 . S
C285 N282 1.328 . S
C285 C287 1.392 . S
C285 H292 0.930 . S
N286 C283 1.329 . S
N286 C287 1.331 . S
C287 C285 1.392 . S
C287 N286 1.331 . S
O288 Zn281 1.975 . S
O288 C289 1.252 . S
C289 O288 1.252 . S
C289 O290 1.252 . S
O290 Zn272 1.975 . S
O290 C289 1.252 . S
H291 C284 0.930 . S
H292 C285 0.930 . S
C293 C294 1.392 . S
C293 N297 1.328 . S
C293 H299 0.930 . S
C294 C293 1.392 . S
C294 N298 1.331 . S
C295 C296 1.391 . S
C295 N298 1.329 . S
C295 H305 0.930 . S
C296 C295 1.391 . S
C296 N297 1.334 . S
C296 H303 0.930 . S
N297 Zn281 2.119 . S
N297 C293 1.328 . S
N297 C296 1.334 . S
N298 C294 1.331 . S
N298 C295 1.329 . S
H299 C293 0.930 . S
C300 O280 1.257 . S
C300 O301 1.244 . S
O301 C300 1.244 . S
O302 C278 1.257 . S
O302 Zn281 2.019 . S
H303 C296 0.930 . S
H304 C283 0.930 . S
H305 C295 0.930 . S
Zn306 N310 2.020 1_554 S
Zn306 O314 2.019 . S
Zn306 N316 2.119 1_554 S
Zn306 O324 1.975 . S
C307 N308 1.334 . S
C307 N311 1.336 . S
N308 C307 1.334 . S
N308 C309 1.334 . S
C309 N308 1.334 . S
C309 N310 1.336 . S
N310 Zn306 2.020 1_556 S
N310 C309 1.336 . S
N310 N311 1.354 . S
N311 C307 1.336 . S
N311 N310 1.354 . S
N311 Zn315 2.020 1_556 S
C312 O313 1.244 . S
C312 O336 1.257 1_556 S
O313 C312 1.244 . S
O314 Zn306 2.019 . S
O314 C334 1.257 . S
Zn315 N311 2.020 1_554 S
Zn315 O322 1.975 . S
Zn315 N331 2.119 . S
Zn315 O336 2.019 . S
N316 Zn306 2.119 1_556 S
N316 C318 1.334 . S
N316 C319 1.328 . S
C317 C318 1.391 . S
C317 N320 1.329 . S
C317 H338 0.930 . S
C318 N316 1.334 . S
C318 C317 1.391 . S
C318 H325 0.930 . S
C319 N316 1.328 . S
C319 C321 1.392 . S
C319 H326 0.930 . S
N320 C317 1.329 . S
N320 C321 1.331 . S
C321 C319 1.392 . S
C321 N320 1.331 . S
O322 Zn315 1.975 . S
O322 C323 1.252 . S
C323 O322 1.252 . S
C323 O324 1.252 . S
O324 Zn306 1.975 . S
O324 C323 1.252 . S
H325 C318 0.930 . S
H326 C319 0.930 . S
C327 C328 1.392 . S
C327 N331 1.328 . S
C327 H333 0.930 . S
C328 C327 1.392 . S
C328 N332 1.331 . S
C329 C330 1.391 . S
C329 N332 1.329 . S
C329 H339 0.930 . S
C330 C329 1.391 . S
C330 N331 1.334 . S
C330 H337 0.930 . S
N331 Zn315 2.119 . S
N331 C327 1.328 . S
N331 C330 1.334 . S
N332 C328 1.331 . S
N332 C329 1.329 . S
H333 C327 0.930 . S
C334 O314 1.257 . S
C334 O335 1.244 . S
O335 C334 1.244 . S
O336 C312 1.257 1_554 S
O336 Zn315 2.019 . S
H337 C330 0.930 . S
H338 C317 0.930 . S
H339 C329 0.930 . S
Zn340 N344 2.020 1_556 S
Zn340 O348 2.019 . S
Zn340 N350 2.119 . S
Zn340 O358 1.975 . S
C341 N342 1.334 . S
C341 N345 1.336 . S
N342 C341 1.334 . S
N342 C343 1.334 . S
C343 N342 1.334 . S
C343 N344 1.336 . S
N344 Zn340 2.020 1_554 S
N344 C343 1.336 . S
N344 N345 1.354 . S
N345 C341 1.336 . S
N345 N344 1.354 . S
N345 Zn349 2.020 1_554 S
C346 O347 1.244 . S
C346 O370 1.257 . S
O347 C346 1.244 . S
O348 Zn340 2.019 . S
O348 C368 1.257 1_556 S
Zn349 N345 2.020 1_556 S
Zn349 O356 1.975 . S
Zn349 N365 2.119 1_556 S
Zn349 O370 2.019 . S
N350 Zn340 2.119 . S
N350 C352 1.334 . S
N350 C353 1.328 . S
C351 C352 1.391 . S
C351 N354 1.329 . S
C351 H372 0.930 . S
C352 N350 1.334 . S
C352 C351 1.391 . S
C352 H359 0.930 . S
C353 N350 1.328 . S
C353 C355 1.392 . S
C353 H360 0.930 . S
N354 C351 1.329 . S
N354 C355 1.331 . S
C355 C353 1.392 . S
C355 N354 1.331 . S
O356 Zn349 1.975 . S
O356 C357 1.252 . S
C357 O356 1.252 . S
C357 O358 1.252 . S
O358 Zn340 1.975 . S
O358 C357 1.252 . S
H359 C352 0.930 . S
H360 C353 0.930 . S
C361 C362 1.392 . S
C361 N365 1.328 . S
C361 H367 0.930 . S
C362 C361 1.392 . S
C362 N366 1.331 . S
C363 C364 1.391 . S
C363 N366 1.329 . S
C363 H373 0.930 . S
C364 C363 1.391 . S
C364 N365 1.334 . S
C364 H371 0.930 . S
N365 Zn349 2.119 1_554 S
N365 C361 1.328 . S
N365 C364 1.334 . S
N366 C362 1.331 . S
N366 C363 1.329 . S
H367 C361 0.930 . S
C368 O348 1.257 1_554 S
C368 O369 1.244 . S
O369 C368 1.244 . S
O370 C346 1.257 . S
O370 Zn349 2.019 . S
H371 C364 0.930 . S
H372 C351 0.930 . S
H373 C363 0.930 . S
Zn374 N378 2.020 . S
Zn374 O382 2.019 . S
Zn374 N384 2.119 . S
Zn374 O392 1.975 . S
C375 N376 1.334 . S
C375 N379 1.336 . S
N376 C375 1.334 . S
N376 C377 1.334 . S
C377 N376 1.334 . S
C377 N378 1.336 . S
N378 Zn374 2.020 . S
N378 C377 1.336 . S
N378 N379 1.354 . S
N379 C375 1.336 . S
N379 N378 1.354 . S
N379 Zn383 2.020 . S
C380 O381 1.244 . S
C380 O404 1.257 . S
O381 C380 1.244 . S
O382 Zn374 2.019 . S
O382 C402 1.257 . S
Zn383 N379 2.020 . S
Zn383 O390 1.975 . S
Zn383 N399 2.119 . S
Zn383 O404 2.019 . S
N384 Zn374 2.119 . S
N384 C386 1.334 . S
N384 C387 1.328 . S
C385 C386 1.391 . S
C385 N388 1.329 . S
C385 H406 0.930 . S
C386 N384 1.334 . S
C386 C385 1.391 . S
C386 H393 0.930 . S
C387 N384 1.328 . S
C387 C389 1.392 . S
C387 H394 0.930 . S
N388 C385 1.329 . S
N388 C389 1.331 . S
C389 C387 1.392 . S
C389 N388 1.331 . S
O390 Zn383 1.975 . S
O390 C391 1.252 . S
C391 O390 1.252 . S
C391 O392 1.252 . S
O392 Zn374 1.975 . S
O392 C391 1.252 . S
H393 C386 0.930 . S
H394 C387 0.930 . S
C395 C396 1.392 . S
C395 N399 1.328 . S
C395 H401 0.930 . S
C396 C395 1.392 . S
C396 N400 1.331 . S
C397 C398 1.391 . S
C397 N400 1.329 . S
C397 H407 0.930 . S
C398 C397 1.391 . S
C398 N399 1.334 . S
C398 H405 0.930 . S
N399 Zn383 2.119 . S
N399 C395 1.328 . S
N399 C398 1.334 . S
N400 C396 1.331 . S
N400 C397 1.329 . S
H401 C395 0.930 . S
C402 O382 1.257 . S
C402 O403 1.244 . S
O403 C402 1.244 . S
O404 C380 1.257 . S
O404 Zn383 2.019 . S
H405 C398 0.930 . S
H406 C385 0.930 . S
H407 C397 0.930 . S
Zn408 N412 2.020 . S
Zn408 O416 2.019 . S
Zn408 N418 2.119 . S
Zn408 O426 1.975 . S
C409 N410 1.334 . S
C409 N413 1.336 . S
N410 C409 1.334 . S
N410 C411 1.334 . S
C411 N410 1.334 . S
C411 N412 1.336 . S
N412 Zn408 2.020 . S
N412 C411 1.336 . S
N412 N413 1.354 . S
N413 C409 1.336 . S
N413 N412 1.354 . S
N413 Zn417 2.020 . S
C414 O415 1.244 . S
C414 O438 1.257 . S
O415 C414 1.244 . S
O416 Zn408 2.019 . S
O416 C436 1.257 . S
Zn417 N413 2.020 . S
Zn417 O424 1.975 . S
Zn417 N433 2.119 . S
Zn417 O438 2.019 . S
N418 Zn408 2.119 . S
N418 C420 1.334 . S
N418 C421 1.328 . S
C419 C420 1.391 . S
C419 N422 1.329 . S
C419 H440 0.930 . S
C420 N418 1.334 . S
C420 C419 1.391 . S
C420 H427 0.930 . S
C421 N418 1.328 . S
C421 C423 1.392 . S
C421 H428 0.930 . S
N422 C419 1.329 . S
N422 C423 1.331 . S
C423 C421 1.392 . S
C423 N422 1.331 . S
O424 Zn417 1.975 . S
O424 C425 1.252 . S
C425 O424 1.252 . S
C425 O426 1.252 . S
O426 Zn408 1.975 . S
O426 C425 1.252 . S
H427 C420 0.930 . S
H428 C421 0.930 . S
C429 C430 1.392 . S
C429 N433 1.328 . S
C429 H435 0.930 . S
C430 C429 1.392 . S
C430 N434 1.331 . S
C431 C432 1.391 . S
C431 N434 1.329 . S
C431 H441 0.930 . S
C432 C431 1.391 . S
C432 N433 1.334 . S
C432 H439 0.930 . S
N433 Zn417 2.119 . S
N433 C429 1.328 . S
N433 C432 1.334 . S
N434 C430 1.331 . S
N434 C431 1.329 . S
H435 C429 0.930 . S
C436 O416 1.257 . S
C436 O437 1.244 . S
O437 C436 1.244 . S
O438 C414 1.257 . S
O438 Zn417 2.019 . S
H439 C432 0.930 . S
H440 C419 0.930 . S
H441 C431 0.930 . S
Zn442 N446 2.020 . S
Zn442 O450 2.019 . S
Zn442 N452 2.119 . S
Zn442 O460 1.975 . S
C443 N444 1.334 . S
C443 N447 1.336 . S
N444 C443 1.334 . S
N444 C445 1.334 1_455 S
C445 N444 1.334 1_655 S
C445 N446 1.336 . S
N446 Zn442 2.020 . S
N446 C445 1.336 . S
N446 N447 1.354 1_655 S
N447 C443 1.336 . S
N447 N446 1.354 1_455 S
N447 Zn451 2.020 . S
C448 O449 1.244 . S
C448 O472 1.257 . S
O449 C448 1.244 . S
O450 Zn442 2.019 . S
O450 C470 1.257 . S
Zn451 N447 2.020 . S
Zn451 O458 1.975 . S
Zn451 N467 2.119 . S
Zn451 O472 2.019 . S
N452 Zn442 2.119 . S
N452 C454 1.334 . S
N452 C455 1.328 . S
C453 C454 1.391 . S
C453 N456 1.329 . S
C453 H474 0.930 . S
C454 N452 1.334 . S
C454 C453 1.391 . S
C454 H461 0.930 . S
C455 N452 1.328 . S
C455 C457 1.392 . S
C455 H462 0.930 . S
N456 C453 1.329 . S
N456 C457 1.331 . S
C457 C455 1.392 . S
C457 N456 1.331 . S
O458 Zn451 1.975 . S
O458 C459 1.252 . S
C459 O458 1.252 . S
C459 O460 1.252 1_455 S
O460 Zn442 1.975 . S
O460 C459 1.252 1_655 S
H461 C454 0.930 . S
H462 C455 0.930 . S
C463 C464 1.392 . S
C463 N467 1.328 . S
C463 H469 0.930 . S
C464 C463 1.392 . S
C464 N468 1.331 . S
C465 C466 1.391 . S
C465 N468 1.329 . S
C465 H475 0.930 . S
C466 C465 1.391 . S
C466 N467 1.334 . S
C466 H473 0.930 . S
N467 Zn451 2.119 . S
N467 C463 1.328 . S
N467 C466 1.334 . S
N468 C464 1.331 . S
N468 C465 1.329 . S
H469 C463 0.930 . S
C470 O450 1.257 . S
C470 O471 1.244 . S
O471 C470 1.244 . S
O472 C448 1.257 . S
O472 Zn451 2.019 . S
H473 C466 0.930 . S
H474 C453 0.930 . S
H475 C465 0.930 . S
Zn476 N480 2.020 . S
Zn476 O484 2.019 . S
Zn476 N486 2.119 . S
Zn476 O494 1.975 . S
C477 N478 1.334 . S
C477 N481 1.336 . S
N478 C477 1.334 . S
N478 C479 1.334 . S
C479 N478 1.334 . S
C479 N480 1.336 . S
N480 Zn476 2.020 . S
N480 C479 1.336 . S
N480 N481 1.354 . S
N481 C477 1.336 . S
N481 N480 1.354 . S
N481 Zn485 2.020 . S
C482 O483 1.244 . S
C482 O506 1.257 . S
O483 C482 1.244 . S
O484 Zn476 2.019 . S
O484 C504 1.257 . S
Zn485 N481 2.020 . S
Zn485 O492 1.975 . S
Zn485 N501 2.119 . S
Zn485 O506 2.019 . S
N486 Zn476 2.119 . S
N486 C488 1.334 . S
N486 C489 1.328 . S
C487 C488 1.391 . S
C487 N490 1.329 . S
C487 H508 0.930 . S
C488 N486 1.334 . S
C488 C487 1.391 . S
C488 H495 0.930 . S
C489 N486 1.328 . S
C489 C491 1.392 . S
C489 H496 0.930 . S
N490 C487 1.329 . S
N490 C491 1.331 . S
C491 C489 1.392 . S
C491 N490 1.331 . S
O492 Zn485 1.975 . S
O492 C493 1.252 . S
C493 O492 1.252 . S
C493 O494 1.252 . S
O494 Zn476 1.975 . S
O494 C493 1.252 . S
H495 C488 0.930 . S
H496 C489 0.930 . S
C497 C498 1.392 . S
C497 N501 1.328 . S
C497 H503 0.930 . S
C498 C497 1.392 . S
C498 N502 1.331 . S
C499 C500 1.391 . S
C499 N502 1.329 . S
C499 H509 0.930 . S
C500 C499 1.391 . S
C500 N501 1.334 . S
C500 H507 0.930 . S
N501 Zn485 2.119 . S
N501 C497 1.328 . S
N501 C500 1.334 . S
N502 C498 1.331 . S
N502 C499 1.329 . S
H503 C497 0.930 . S
C504 O484 1.257 . S
C504 O505 1.244 . S
O505 C504 1.244 . S
O506 C482 1.257 . S
O506 Zn485 2.019 . S
H507 C500 0.930 . S
H508 C487 0.930 . S
H509 C499 0.930 . S
Zn510 N514 2.020 . S
Zn510 O518 2.019 . S
Zn510 N520 2.119 . S
Zn510 O528 1.975 . S
C511 N512 1.334 1_655 S
C511 N515 1.336 . S
N512 C511 1.334 1_455 S
N512 C513 1.334 . S
C513 N512 1.334 . S
C513 N514 1.336 . S
N514 Zn510 2.020 . S
N514 C513 1.336 . S
N514 N515 1.354 1_455 S
N515 C511 1.336 . S
N515 N514 1.354 1_655 S
N515 Zn519 2.020 . S
C516 O517 1.244 . S
C516 O540 1.257 . S
O517 C516 1.244 . S
O518 Zn510 2.019 . S
O518 C538 1.257 . S
Zn519 N515 2.020 . S
Zn519 O526 1.975 . S
Zn519 N535 2.119 . S
Zn519 O540 2.019 . S
N520 Zn510 2.119 . S
N520 C522 1.334 . S
N520 C523 1.328 . S
C521 C522 1.391 . S
C521 N524 1.329 . S
C521 H542 0.930 . S
C522 N520 1.334 . S
C522 C521 1.391 . S
C522 H529 0.930 . S
C523 N520 1.328 . S
C523 C525 1.392 . S
C523 H530 0.930 . S
N524 C521 1.329 . S
N524 C525 1.331 . S
C525 C523 1.392 . S
C525 N524 1.331 . S
O526 Zn519 1.975 . S
O526 C527 1.252 1_655 S
C527 O526 1.252 1_455 S
C527 O528 1.252 . S
O528 Zn510 1.975 . S
O528 C527 1.252 . S
H529 C522 0.930 . S
H530 C523 0.930 . S
C531 C532 1.392 . S
C531 N535 1.328 . S
C531 H537 0.930 . S
C532 C531 1.392 . S
C532 N536 1.331 . S
C533 C534 1.391 . S
C533 N536 1.329 . S
C533 H543 0.930 . S
C534 C533 1.391 . S
C534 N535 1.334 . S
C534 H541 0.930 . S
N535 Zn519 2.119 . S
N535 C531 1.328 . S
N535 C534 1.334 . S
N536 C532 1.331 . S
N536 C533 1.329 . S
H537 C531 0.930 . S
C538 O518 1.257 . S
C538 O539 1.244 . S
O539 C538 1.244 . S
O540 C516 1.257 . S
O540 Zn519 2.019 . S
H541 C534 0.930 . S
H542 C521 0.930 . S
H543 C533 0.930 . S
C544 C545 1.387 1_655 S
C544 H548 0.950 . S
C544 C553 1.390 1_566 S
C545 C544 1.387 1_455 S
C545 C547 1.387 . S
H546 C553 0.950 . S
C547 C545 1.387 . S
C547 C549 1.390 1_566 S
C547 H551 0.950 . S
H548 C544 0.950 . S
C549 C547 1.390 1_544 S
C549 C550 1.387 . S
C549 H552 0.950 . S
C550 C549 1.387 . S
C550 C553 1.387 1_455 S
H551 C547 0.950 . S
H552 C549 0.950 . S
C553 C544 1.390 1_544 S
C553 H546 0.950 . S
C553 C550 1.387 1_655 S
C554 C555 1.387 . S
C554 H558 0.950 . S
C554 C563 1.390 . S
C555 C554 1.387 . S
C555 C557 1.387 . S
H556 C563 0.950 . S
C557 C555 1.387 . S
C557 C559 1.390 . S
C557 H561 0.950 . S
H558 C554 0.950 . S
C559 C557 1.390 . S
C559 C560 1.387 . S
C559 H562 0.950 . S
C560 C559 1.387 . S
C560 C563 1.387 . S
H561 C557 0.950 . S
H562 C559 0.950 . S
C563 C554 1.390 . S
C563 H556 0.950 . S
C563 C560 1.387 . S
C564 C565 1.387 . S
C564 H568 0.950 . S
C564 C573 1.390 1_545 S
C565 C564 1.387 . S
C565 C567 1.387 . S
H566 C573 0.950 . S
C567 C565 1.387 . S
C567 C569 1.390 1_545 S
C567 H571 0.950 . S
H568 C564 0.950 . S
C569 C567 1.390 1_565 S
C569 C570 1.387 . S
C569 H572 0.950 . S
C570 C569 1.387 . S
C570 C573 1.387 . S
H571 C567 0.950 . S
H572 C569 0.950 . S
C573 C564 1.390 1_565 S
C573 H566 0.950 . S
C573 C570 1.387 . S
C574 C575 1.387 . S
C574 H578 0.950 . S
C574 C583 1.390 . S
C575 C574 1.387 . S
C575 C577 1.387 . S
H576 C583 0.950 . S
C577 C575 1.387 . S
C577 C579 1.390 . S
C577 H581 0.950 . S
H578 C574 0.950 . S
C579 C577 1.390 . S
C579 C580 1.387 . S
C579 H582 0.950 . S
C580 C579 1.387 . S
C580 C583 1.387 . S
H581 C577 0.950 . S
H582 C579 0.950 . S
C583 C574 1.390 . S
C583 H576 0.950 . S
C583 C580 1.387 . S
C584 C585 1.387 . S
C584 H588 0.950 . S
C584 C593 1.390 . S
C585 C584 1.387 . S
C585 C587 1.387 . S
H586 C593 0.950 . S
C587 C585 1.387 . S
C587 C589 1.390 . S
C587 H591 0.950 . S
H588 C584 0.950 . S
C589 C587 1.390 . S
C589 C590 1.387 . S
C589 H592 0.950 . S
C590 C589 1.387 . S
C590 C593 1.387 . S
H591 C587 0.950 . S
H592 C589 0.950 . S
C593 C584 1.390 . S
C593 H586 0.950 . S
C593 C590 1.387 . S
C594 C595 1.387 . S
C594 H598 0.950 . S
C594 C603 1.390 . S
C595 C594 1.387 . S
C595 C597 1.387 . S
H596 C603 0.950 . S
C597 C595 1.387 . S
C597 C599 1.390 . S
C597 H601 0.950 . S
H598 C594 0.950 . S
C599 C597 1.390 . S
C599 C600 1.387 . S
C599 H602 0.950 . S
C600 C599 1.387 . S
C600 C603 1.387 . S
H601 C597 0.950 . S
H602 C599 0.950 . S
C603 C594 1.390 . S
C603 H596 0.950 . S
C603 C600 1.387 . S
C604 C605 1.387 . S
C604 H608 0.950 . S
C604 C613 1.390 . S
C605 C604 1.387 . S
C605 C607 1.387 . S
H606 C613 0.950 . S
C607 C605 1.387 . S
C607 C609 1.390 . S
C607 H611 0.950 . S
H608 C604 0.950 . S
C609 C607 1.390 . S
C609 C610 1.387 . S
C609 H612 0.950 . S
C610 C609 1.387 . S
C610 C613 1.387 . S
H611 C607 0.950 . S
H612 C609 0.950 . S
C613 C604 1.390 . S
C613 H606 0.950 . S
C613 C610 1.387 . S
C614 C615 1.387 1_655 S
C614 H618 0.950 . S
C614 C623 1.390 1_554 S
C615 C614 1.387 1_455 S
C615 C617 1.387 . S
H616 C623 0.950 . S
C617 C615 1.387 . S
C617 C619 1.390 1_554 S
C617 H621 0.950 . S
H618 C614 0.950 . S
C619 C617 1.390 1_556 S
C619 C620 1.387 . S
C619 H622 0.950 . S
C620 C619 1.387 . S
C620 C623 1.387 1_455 S
H621 C617 0.950 . S
H622 C619 0.950 . S
C623 C614 1.390 1_556 S
C623 H616 0.950 . S
C623 C620 1.387 1_655 S
C624 C625 1.387 . S
C624 H628 0.950 . S
C624 C633 1.390 . S
C625 C624 1.387 . S
C625 C627 1.387 . S
H626 C633 0.950 . S
C627 C625 1.387 . S
C627 C629 1.390 . S
C627 H631 0.950 . S
H628 C624 0.950 . S
C629 C627 1.390 . S
C629 C630 1.387 . S
C629 H632 0.950 . S
C630 C629 1.387 . S
C630 C633 1.387 . S
H631 C627 0.950 . S
H632 C629 0.950 . S
C633 C624 1.390 . S
C633 H626 0.950 . S
C633 C630 1.387 . S
C634 C635 1.387 . S
C634 H638 0.950 . S
C634 C643 1.390 . S
C635 C634 1.387 . S
C635 C637 1.387 . S
H636 C643 0.950 . S
C637 C635 1.387 . S
C637 C639 1.390 . S
C637 H641 0.944 1_565 S
H638 C634 0.950 . S
C639 C637 1.390 . S
C639 C640 1.387 . S
C639 H642 0.950 . S
C640 C639 1.387 . S
C640 C643 1.387 . S
H641 C637 0.944 1_545 S
H642 C639 0.950 . S
C643 C634 1.390 . S
C643 H636 0.950 . S
C643 C640 1.387 . S
C644 C645 1.387 . S
C644 H648 0.950 . S
C644 C653 1.390 . S
C645 C644 1.387 . S
C645 C647 1.387 . S
H646 C653 0.950 . S
C647 C645 1.387 . S
C647 C649 1.390 . S
C647 H651 0.950 . S
H648 C644 0.950 . S
C649 C647 1.390 . S
C649 C650 1.387 . S
C649 H652 0.950 . S
C650 C649 1.387 . S
C650 C653 1.387 . S
H651 C647 0.950 . S
H652 C649 0.950 . S
C653 C644 1.390 . S
C653 H646 0.950 . S
C653 C650 1.387 . S
C654 C655 1.387 . S
C654 H658 0.950 . S
C654 C663 1.390 . S
C655 C654 1.387 . S
C655 C657 1.387 1_556 S
H656 C663 0.950 . S
C657 C655 1.387 1_554 S
C657 C659 1.390 1_554 S
C657 H661 0.950 . S
H658 C654 0.950 . S
C659 C657 1.390 1_556 S
C659 C660 1.387 . S
C659 H662 0.950 . S
C660 C659 1.387 . S
C660 C663 1.387 . S
H661 C657 0.950 . S
H662 C659 0.950 . S
C663 C654 1.390 . S
C663 H656 0.950 . S
C663 C660 1.387 . S
C664 C665 1.387 . S
C664 H668 0.950 . S
C664 C673 1.390 . S
C665 C664 1.387 . S
C665 C667 1.387 . S
H666 C673 0.950 . S
C667 C665 1.387 . S
C667 C669 1.390 . S
C667 H671 0.950 . S
H668 C664 0.950 . S
C669 C667 1.390 . S
C669 C670 1.387 . S
C669 H672 0.950 . S
C670 C669 1.387 . S
C670 C673 1.387 . S
H671 C667 0.950 . S
H672 C669 0.950 . S
C673 C664 1.390 . S
C673 H666 0.950 . S
C673 C670 1.387 . S
C674 C675 1.387 . S
C674 H678 0.950 1_554 S
C674 C683 1.390 1_554 S
C675 C674 1.387 . S
C675 C677 1.387 . S
H676 C683 0.950 . S
C677 C675 1.387 . S
C677 C679 1.390 . S
C677 H681 0.950 . S
H678 C674 0.950 1_556 S
C679 C677 1.390 . S
C679 C680 1.387 . S
C679 H682 0.950 . S
C680 C679 1.387 . S
C680 C683 1.387 1_554 S
H681 C677 0.950 . S
H682 C679 0.950 . S
C683 C674 1.390 1_556 S
C683 H676 0.950 . S
C683 C680 1.387 1_556 S
C684 C685 1.387 . S
C684 H688 0.950 . S
C684 C693 1.390 . S
C685 C684 1.387 . S
C685 C687 1.387 . S
H686 C693 0.950 . S
C687 C685 1.387 . S
C687 C689 1.390 . S
C687 H691 0.950 . S
H688 C684 0.950 . S
C689 C687 1.390 . S
C689 C690 1.387 . S
C689 H692 0.950 . S
C690 C689 1.387 . S
C690 C693 1.387 . S
H691 C687 0.950 . S
H692 C689 0.950 . S
C693 C684 1.390 . S
C693 H686 0.950 . S
C693 C690 1.387 . S
C694 C695 1.387 . S
C694 H698 0.950 . S
C694 C703 1.390 . S
C695 C694 1.387 . S
C695 C697 1.387 . S
H696 C703 0.950 . S
C697 C695 1.387 . S
C697 C699 1.390 . S
C697 H701 0.950 1_545 S
H698 C694 0.950 . S
C699 C697 1.390 . S
C699 C700 1.387 . S
C699 H702 0.950 . S
C700 C699 1.387 . S
C700 C703 1.387 . S
H701 C697 0.950 1_565 S
H702 C699 0.950 . S
C703 C694 1.390 . S
C703 H696 0.950 . S
C703 C700 1.387 . S
C704 C705 1.387 . S
C704 H708 0.950 . S
C704 C713 1.390 . S
C705 C704 1.387 . S
C705 C707 1.387 . S
H706 C713 0.950 . S
C707 C705 1.387 . S
C707 C709 1.390 . S
C707 H711 0.950 . S
H708 C704 0.950 . S
C709 C707 1.390 . S
C709 C710 1.387 . S
C709 H712 0.950 . S
C710 C709 1.387 . S
C710 C713 1.387 . S
H711 C707 0.950 . S
H712 C709 0.950 . S
C713 C704 1.390 . S
C713 H706 0.950 . S
C713 C710 1.387 . S
C714 C715 1.387 . S
C714 H718 0.950 . S
C714 C723 1.390 . S
C715 C714 1.387 . S
C715 C717 1.387 . S
H716 C723 0.950 . S
C717 C715 1.387 . S
C717 C719 1.390 . S
C717 H721 0.950 . S
H718 C714 0.950 . S
C719 C717 1.390 . S
C719 C720 1.387 . S
C719 H722 0.950 . S
C720 C719 1.387 . S
C720 C723 1.387 . S
H721 C717 0.950 . S
H722 C719 0.950 . S
C723 C714 1.390 . S
C723 H716 0.950 . S
C723 C720 1.387 . S
C724 C725 1.387 . S
C724 H728 0.950 . S
C724 C733 1.390 . S
C725 C724 1.387 . S
C725 C727 1.387 . S
H726 C733 0.950 . S
C727 C725 1.387 . S
C727 C729 1.390 . S
C727 H731 0.950 . S
H728 C724 0.950 . S
C729 C727 1.390 . S
C729 C730 1.387 . S
C729 H732 0.950 . S
C730 C729 1.387 . S
C730 C733 1.387 . S
H731 C727 0.950 . S
H732 C729 0.950 . S
C733 C724 1.390 . S
C733 H726 0.950 . S
C733 C730 1.387 . S
C734 C735 1.387 . S
C734 H738 0.950 . S
C734 C743 1.390 . S
C735 C734 1.387 . S
C735 C737 1.387 1_554 S
H736 C743 0.950 . S
C737 C735 1.387 1_556 S
C737 C739 1.390 1_556 S
C737 H741 0.950 . S
H738 C734 0.950 . S
C739 C737 1.390 1_554 S
C739 C740 1.387 . S
C739 H742 0.950 1_554 S
C740 C739 1.387 . S
C740 C743 1.387 . S
H741 C737 0.950 . S
H742 C739 0.950 1_556 S
C743 C734 1.390 . S
C743 H736 0.950 . S
C743 C740 1.387 . S
C744 C745 1.387 . S
C744 H748 0.950 . S
C744 C753 1.390 . S
C745 C744 1.387 . S
C745 C747 1.387 . S
H746 C753 0.950 . S
C747 C745 1.387 . S
C747 C749 1.390 . S
C747 H751 0.950 . S
H748 C744 0.950 . S
C749 C747 1.390 . S
C749 C750 1.387 . S
C749 H752 0.950 . S
C750 C749 1.387 . S
C750 C753 1.387 . S
H751 C747 0.950 . S
H752 C749 0.950 . S
C753 C744 1.390 . S
C753 H746 0.950 . S
C753 C750 1.387 . S
C754 C755 1.387 . S
C754 H758 0.950 . S
C754 C763 1.390 . S
C755 C754 1.387 . S
C755 C757 1.387 . S
H756 C763 0.950 . S
C757 C755 1.387 . S
C757 C759 1.392 . S
C757 H761 0.950 1_545 S
H758 C754 0.950 . S
C759 C757 1.392 . S
C759 C760 1.389 . S
C759 H762 0.946 1_556 S
C760 C759 1.389 . S
C760 C763 1.387 . S
H761 C757 0.950 1_565 S
H762 C759 0.946 1_554 S
C763 C754 1.390 . S
C763 H756 0.950 . S
C763 C760 1.387 . S
C764 C765 1.387 . S
C764 H768 0.950 . S
C764 C773 1.390 . S
C765 C764 1.387 . S
C765 C767 1.387 . S
H766 C773 0.950 . S
C767 C765 1.387 . S
C767 C769 1.390 . S
C767 H771 0.950 . S
H768 C764 0.950 . S
C769 C767 1.390 . S
C769 C770 1.387 . S
C769 H772 0.950 . S
C770 C769 1.387 . S
C770 C773 1.387 . S
H771 C767 0.950 . S
H772 C769 0.950 . S
C773 C764 1.390 . S
C773 H766 0.950 . S
C773 C770 1.387 . S
C774 C775 1.387 . S
C774 H778 0.950 . S
C774 C783 1.390 . S
C775 C774 1.387 . S
C775 C777 1.387 . S
H776 C783 0.950 . S
C777 C775 1.387 . S
C777 C779 1.390 . S
C777 H781 0.950 . S
H778 C774 0.950 . S
C779 C777 1.390 . S
C779 C780 1.387 . S
C779 H782 0.950 . S
C780 C779 1.387 . S
C780 C783 1.387 . S
H781 C777 0.950 . S
H782 C779 0.950 . S
C783 C774 1.390 . S
C783 H776 0.950 . S
C783 C780 1.387 . S
C784 C785 1.387 . S
C784 H788 0.950 . S
C784 C793 1.390 . S
C785 C784 1.387 . S
C785 C787 1.387 . S
H786 C793 0.950 . S
C787 C785 1.387 . S
C787 C789 1.390 . S
C787 H791 0.950 . S
H788 C784 0.950 . S
C789 C787 1.390 . S
C789 C790 1.387 . S
C789 H792 0.950 . S
C790 C789 1.387 . S
C790 C793 1.387 . S
H791 C787 0.950 . S
H792 C789 0.950 . S
C793 C784 1.390 . S
C793 H786 0.950 . S
C793 C790 1.387 . S
C794 C795 1.387 . S
C794 H798 0.950 . S
C794 C803 1.390 . S
C795 C794 1.387 . S
C795 C797 1.387 . S
H796 C803 0.950 . S
C797 C795 1.387 . S
C797 C799 1.390 1_556 S
C797 H801 0.950 . S
H798 C794 0.950 . S
C799 C797 1.390 1_554 S
C799 C800 1.387 1_554 S
C799 H802 0.950 . S
C800 C799 1.387 1_556 S
C800 C803 1.387 . S
H801 C797 0.950 . S
H802 C799 0.950 . S
C803 C794 1.390 . S
C803 H796 0.950 . S
C803 C800 1.387 . S
C804 C805 1.387 . S
C804 H808 0.950 . S
C804 C813 1.390 . S
C805 C804 1.387 . S
C805 C807 1.387 . S
H806 C813 0.950 . S
C807 C805 1.387 . S
C807 C809 1.390 . S
C807 H811 0.950 . S
H808 C804 0.950 . S
C809 C807 1.390 . S
C809 C810 1.387 . S
C809 H812 0.950 . S
C810 C809 1.387 . S
C810 C813 1.387 . S
H811 C807 0.950 . S
H812 C809 0.950 . S
C813 C804 1.390 . S
C813 H806 0.950 . S
C813 C810 1.387 . S
C814 C815 1.387 . S
C814 H818 0.950 . S
C814 C823 1.390 . S
C815 C814 1.387 . S
C815 C817 1.387 . S
H816 C823 0.950 . S
C817 C815 1.387 . S
C817 C819 1.390 . S
C817 H821 0.950 . S
H818 C814 0.950 . S
C819 C817 1.390 . S
C819 C820 1.387 . S
C819 H822 0.950 . S
C820 C819 1.387 . S
C820 C823 1.387 . S
H821 C817 0.950 . S
H822 C819 0.950 . S
C823 C814 1.390 . S
C823 H816 0.950 . S
C823 C820 1.387 . S
C824 C825 1.387 . S
C824 H828 0.950 . S
C824 C833 1.390 . S
C825 C824 1.387 . S
C825 C827 1.387 . S
H826 C833 0.950 . S
C827 C825 1.387 . S
C827 C829 1.390 . S
C827 H831 0.950 . S
H828 C824 0.950 . S
C829 C827 1.390 . S
C829 C830 1.387 . S
C829 H832 0.950 . S
C830 C829 1.387 . S
C830 C833 1.387 . S
H831 C827 0.950 . S
H832 C829 0.950 . S
C833 C824 1.390 . S
C833 H826 0.950 . S
C833 C830 1.387 . S
C834 C835 1.387 . S
C834 H838 0.950 . S
C834 C843 1.390 . S
C835 C834 1.387 . S
C835 C837 1.387 . S
H836 C843 0.950 . S
C837 C835 1.387 . S
C837 C839 1.390 . S
C837 H841 0.950 . S
H838 C834 0.950 . S
C839 C837 1.390 . S
C839 C840 1.387 . S
C839 H842 0.950 . S
C840 C839 1.387 . S
C840 C843 1.387 . S
H841 C837 0.950 . S
H842 C839 0.950 . S
C843 C834 1.390 . S
C843 H836 0.950 . S
C843 C840 1.387 . S
C844 C845 1.387 . S
C844 H848 0.950 . S
C844 C853 1.390 . S
C845 C844 1.387 . S
C845 C847 1.387 . S
H846 C853 0.950 . S
C847 C845 1.387 . S
C847 C849 1.390 . S
C847 H851 0.950 . S
H848 C844 0.950 . S
C849 C847 1.390 . S
C849 C850 1.387 . S
C849 H852 0.950 . S
C850 C849 1.387 . S
C850 C853 1.387 . S
H851 C847 0.950 . S
H852 C849 0.950 . S
C853 C844 1.390 . S
C853 H846 0.950 . S
C853 C850 1.387 . S
C854 C855 1.387 . S
C854 H858 0.950 . S
C854 C863 1.390 . S
C855 C854 1.387 . S
C855 C857 1.387 . S
H856 C863 0.950 . S
C857 C855 1.387 . S
C857 C859 1.390 1_554 S
C857 H861 0.950 1_554 S
H858 C854 0.950 . S
C859 C857 1.390 1_556 S
C859 C860 1.387 1_556 S
C859 H862 0.950 . S
C860 C859 1.387 1_554 S
C860 C863 1.387 . S
H861 C857 0.950 1_556 S
H862 C859 0.950 . S
C863 C854 1.390 . S
C863 H856 0.950 . S
C863 C860 1.387 . S
C864 C865 1.387 . S
C864 H868 0.950 . S
C864 C873 1.390 . S
C865 C864 1.387 . S
C865 C867 1.387 . S
H866 C873 0.950 . S
C867 C865 1.387 . S
C867 C869 1.390 . S
C867 H871 0.950 . S
H868 C864 0.950 . S
C869 C867 1.390 . S
C869 C870 1.387 . S
C869 H872 0.950 . S
C870 C869 1.387 . S
C870 C873 1.387 . S
H871 C867 0.950 . S
H872 C869 0.950 . S
C873 C864 1.390 . S
C873 H866 0.950 . S
C873 C870 1.387 . S
C874 C875 1.387 . S
C874 H878 0.950 . S
C874 C883 1.390 . S
C875 C874 1.387 . S
C875 C877 1.387 . S
H876 C883 0.950 . S
C877 C875 1.387 . S
C877 C879 1.390 1_554 S
C877 H881 0.950 1_554 S
H878 C874 0.950 . S
C879 C877 1.390 1_556 S
C879 C880 1.387 1_556 S
C879 H882 0.950 . S
C880 C879 1.387 1_554 S
C880 C883 1.387 . S
H881 C877 0.950 1_556 S
H882 C879 0.950 . S
C883 C874 1.390 . S
C883 H876 0.950 . S
C883 C880 1.387 . S
C884 C885 1.387 . S
C884 H888 0.950 . S
C884 C893 1.390 . S
C885 C884 1.387 . S
C885 C887 1.387 . S
H886 C893 0.950 . S
C887 C885 1.387 . S
C887 C889 1.390 . S
C887 H891 0.950 . S
H888 C884 0.950 . S
C889 C887 1.390 . S
C889 C890 1.387 . S
C889 H892 0.950 . S
C890 C889 1.387 . S
C890 C893 1.387 . S
H891 C887 0.950 . S
H892 C889 0.950 . S
C893 C884 1.390 . S
C893 H886 0.950 . S
C893 C890 1.387 . S
C894 C895 1.387 . S
C894 H898 0.950 . S
C894 C903 1.390 . S
C895 C894 1.387 . S
C895 C897 1.387 . S
H896 C903 0.950 . S
C897 C895 1.387 . S
C897 C899 1.390 . S
C897 H901 0.950 . S
H898 C894 0.950 . S
C899 C897 1.390 . S
C899 C900 1.387 . S
C899 H902 0.950 . S
C900 C899 1.387 . S
C900 C903 1.387 . S
H901 C897 0.950 . S
H902 C899 0.950 . S
C903 C894 1.390 . S
C903 H896 0.950 . S
C903 C900 1.387 . S
C904 C905 1.387 . S
C904 H908 0.950 . S
C904 C913 1.390 . S
C905 C904 1.387 . S
C905 C907 1.387 . S
H906 C913 0.950 . S
C907 C905 1.387 . S
C907 C909 1.390 . S
C907 H911 0.950 . S
H908 C904 0.950 . S
C909 C907 1.390 . S
C909 C910 1.387 . S
C909 H912 0.950 . S
C910 C909 1.387 . S
C910 C913 1.387 . S
H911 C907 0.950 . S
H912 C909 0.950 . S
C913 C904 1.390 . S
C913 H906 0.950 . S
C913 C910 1.387 . S
C914 C915 1.387 . S
C914 H918 0.950 . S
C914 C923 1.390 . S
C915 C914 1.387 . S
C915 C917 1.387 . S
H916 C923 0.950 . S
C917 C915 1.387 . S
C917 C919 1.390 . S
C917 H921 0.950 . S
H918 C914 0.950 . S
C919 C917 1.390 . S
C919 C920 1.387 . S
C919 H922 0.950 . S
C920 C919 1.387 . S
C920 C923 1.387 . S
H921 C917 0.950 . S
H922 C919 0.950 . S
C923 C914 1.390 . S
C923 H916 0.950 . S
C923 C920 1.387 . S
C924 C925 1.387 . S
C924 H928 0.950 . S
C924 C933 1.390 . S
C925 C924 1.387 . S
C925 C927 1.387 . S
H926 C933 0.950 . S
C927 C925 1.387 . S
C927 C929 1.390 . S
C927 H931 0.950 . S
H928 C924 0.950 . S
C929 C927 1.390 . S
C929 C930 1.387 . S
C929 H932 0.950 . S
C930 C929 1.387 . S
C930 C933 1.387 . S
H931 C927 0.950 . S
H932 C929 0.950 . S
C933 C924 1.390 . S
C933 H926 0.950 . S
C933 C930 1.387 . S
C934 C935 1.387 . S
C934 H938 0.950 1_556 S
C934 C943 1.390 1_556 S
C935 C934 1.387 . S
C935 C937 1.387 . S
H936 C943 0.950 . S
C937 C935 1.387 . S
C937 C939 1.390 . S
C937 H941 0.950 . S
H938 C934 0.950 1_554 S
C939 C937 1.390 . S
C939 C940 1.387 . S
C939 H942 0.950 . S
C940 C939 1.387 . S
C940 C943 1.387 1_556 S
H941 C937 0.950 . S
H942 C939 0.950 . S
C943 C934 1.390 1_554 S
C943 H936 0.950 . S
C943 C940 1.387 1_554 S
C944 C945 1.387 . S
C944 H948 0.950 . S
C944 C953 1.390 . S
C945 C944 1.387 . S
C945 C947 1.387 . S
H946 C953 0.950 . S
C947 C945 1.387 . S
C947 C949 1.390 . S
C947 H951 0.950 . S
H948 C944 0.950 . S
C949 C947 1.390 . S
C949 C950 1.387 . S
C949 H952 0.950 . S
C950 C949 1.387 . S
C950 C953 1.387 . S
H951 C947 0.950 . S
H952 C949 0.950 . S
C953 C944 1.390 . S
C953 H946 0.950 . S
C953 C950 1.387 . S
C954 C955 1.387 . S
C954 H958 0.950 . S
C954 C963 1.390 . S
C955 C954 1.387 . S
C955 C957 1.387 . S
H956 C963 0.950 . S
C957 C955 1.387 . S
C957 C959 1.390 . S
C957 H961 0.950 . S
H958 C954 0.950 . S
C959 C957 1.390 . S
C959 C960 1.387 . S
C959 H962 0.950 . S
C960 C959 1.387 . S
C960 C963 1.387 . S
H961 C957 0.950 . S
H962 C959 0.950 . S
C963 C954 1.390 . S
C963 H956 0.950 . S
C963 C960 1.387 . S
C964 C965 1.387 . S
C964 H968 0.950 . S
C964 C973 1.390 . S
C965 C964 1.387 . S
C965 C967 1.387 . S
H966 C973 0.950 . S
C967 C965 1.387 . S
C967 C969 1.390 . S
C967 H971 0.950 . S
H968 C964 0.950 . S
C969 C967 1.390 . S
C969 C970 1.387 . S
C969 H972 0.950 . S
C970 C969 1.387 . S
C970 C973 1.387 . S
H971 C967 0.950 . S
H972 C969 0.950 . S
C973 C964 1.390 . S
C973 H966 0.950 . S
C973 C970 1.387 . S
C974 C975 1.387 . S
C974 H978 0.950 . S
C974 C983 1.390 . S
C975 C974 1.387 . S
C975 C977 1.387 . S
H976 C983 0.950 . S
C977 C975 1.387 . S
C977 C979 1.390 . S
C977 H981 0.950 . S
H978 C974 0.950 . S
C979 C977 1.390 . S
C979 C980 1.387 . S
C979 H982 0.950 . S
C980 C979 1.387 . S
C980 C983 1.387 . S
H981 C977 0.950 . S
H982 C979 0.950 . S
C983 C974 1.390 . S
C983 H976 0.950 . S
C983 C980 1.387 . S
C984 C985 1.387 . S
C984 H988 0.950 . S
C984 C993 1.390 . S
C985 C984 1.387 . S
C985 C987 1.387 . S
H986 C993 0.950 . S
C987 C985 1.387 . S
C987 C989 1.390 . S
C987 H991 0.950 . S
H988 C984 0.950 . S
C989 C987 1.390 . S
C989 C990 1.387 . S
C989 H992 0.950 . S
C990 C989 1.387 . S
C990 C993 1.387 . S
H991 C987 0.950 . S
H992 C989 0.950 . S
C993 C984 1.390 . S
C993 H986 0.950 . S
C993 C990 1.387 . S
C994 C995 1.387 . S
C994 H998 0.950 . S
C994 C1003 1.390 . S
C995 C994 1.387 . S
C995 C997 1.387 . S
H996 C1003 0.950 . S
C997 C995 1.387 . S
C997 C999 1.390 . S
C997 H1001 0.950 . S
H998 C994 0.950 . S
C999 C997 1.390 . S
C999 C1000 1.387 . S
C999 H1002 0.950 . S
C1000 C999 1.387 . S
C1000 C1003 1.387 . S
H1001 C997 0.950 . S
H1002 C999 0.950 . S
C1003 C994 1.390 . S
C1003 H996 0.950 . S
C1003 C1000 1.387 . S
C1004 C1005 1.387 . S
C1004 H1008 0.950 . S
C1004 C1013 1.390 . S
C1005 C1004 1.387 . S
C1005 C1007 1.387 . S
H1006 C1013 0.950 . S
C1007 C1005 1.387 . S
C1007 C1009 1.390 . S
C1007 H1011 0.950 . S
H1008 C1004 0.950 . S
C1009 C1007 1.390 . S
C1009 C1010 1.387 . S
C1009 H1012 0.950 . S
C1010 C1009 1.387 . S
C1010 C1013 1.387 . S
H1011 C1007 0.950 . S
H1012 C1009 0.950 . S
C1013 C1004 1.390 . S
C1013 H1006 0.950 . S
C1013 C1010 1.387 . S
C1014 C1015 1.387 . S
C1014 H1018 0.950 . S
C1014 C1023 1.390 . S
C1015 C1014 1.387 . S
C1015 C1017 1.387 . S
H1016 C1023 0.950 . S
C1017 C1015 1.387 . S
C1017 C1019 1.390 . S
C1017 H1021 0.950 . S
H1018 C1014 0.950 . S
C1019 C1017 1.390 . S
C1019 C1020 1.387 . S
C1019 H1022 0.950 . S
C1020 C1019 1.387 . S
C1020 C1023 1.387 . S
H1021 C1017 0.950 . S
H1022 C1019 0.950 . S
C1023 C1014 1.390 . S
C1023 H1016 0.950 . S
C1023 C1020 1.387 . S
C1024 C1025 1.387 . S
C1024 H1028 0.950 . S
C1024 C1033 1.390 . S
C1025 C1024 1.387 . S
C1025 C1027 1.387 . S
H1026 C1033 0.950 . S
C1027 C1025 1.387 . S
C1027 C1029 1.390 . S
C1027 H1031 0.950 . S
H1028 C1024 0.950 . S
C1029 C1027 1.390 . S
C1029 C1030 1.387 . S
C1029 H1032 0.950 . S
C1030 C1029 1.387 . S
C1030 C1033 1.387 . S
H1031 C1027 0.950 . S
H1032 C1029 0.950 . S
C1033 C1024 1.390 . S
C1033 H1026 0.950 . S
C1033 C1030 1.387 . S
C1034 C1035 1.387 . S
C1034 H1038 0.950 . S
C1034 C1043 1.390 . S
C1035 C1034 1.387 . S
C1035 C1037 1.387 . S
H1036 C1043 0.950 . S
C1037 C1035 1.387 . S
C1037 C1039 1.390 . S
C1037 H1041 0.950 . S
H1038 C1034 0.950 . S
C1039 C1037 1.390 . S
C1039 C1040 1.387 . S
C1039 H1042 0.950 . S
C1040 C1039 1.387 . S
C1040 C1043 1.387 . S
H1041 C1037 0.950 . S
H1042 C1039 0.950 . S
C1043 C1034 1.390 . S
C1043 H1036 0.950 . S
C1043 C1040 1.387 . S
C1044 C1045 1.387 . S
C1044 H1048 0.950 . S
C1044 C1053 1.390 . S
C1045 C1044 1.387 . S
C1045 C1047 1.387 . S
H1046 C1053 0.950 . S
C1047 C1045 1.387 . S
C1047 C1049 1.390 . S
C1047 H1051 0.950 . S
H1048 C1044 0.950 . S
C1049 C1047 1.390 . S
C1049 C1050 1.387 . S
C1049 H1052 0.950 . S
C1050 C1049 1.387 . S
C1050 C1053 1.387 . S
H1051 C1047 0.950 . S
H1052 C1049 0.950 . S
C1053 C1044 1.390 . S
C1053 H1046 0.950 . S
C1053 C1050 1.387 . S
C1054 C1055 1.387 . S
C1054 H1058 0.950 . S
C1054 C1063 1.390 . S
C1055 C1054 1.387 . S
C1055 C1057 1.387 . S
H1056 C1063 0.950 . S
C1057 C1055 1.387 . S
C1057 C1059 1.390 . S
C1057 H1061 0.950 . S
H1058 C1054 0.950 . S
C1059 C1057 1.390 . S
C1059 C1060 1.387 . S
C1059 H1062 0.950 . S
C1060 C1059 1.387 . S
C1060 C1063 1.387 . S
H1061 C1057 0.950 . S
H1062 C1059 0.950 . S
C1063 C1054 1.390 . S
C1063 H1056 0.950 . S
C1063 C1060 1.387 . S
C1064 C1065 1.387 . S
C1064 H1068 0.950 . S
C1064 C1073 1.390 . S
C1065 C1064 1.387 . S
C1065 C1067 1.387 . S
H1066 C1073 0.950 . S
C1067 C1065 1.387 . S
C1067 C1069 1.390 . S
C1067 H1071 0.950 . S
H1068 C1064 0.950 . S
C1069 C1067 1.390 . S
C1069 C1070 1.387 . S
C1069 H1072 0.950 . S
C1070 C1069 1.387 . S
C1070 C1073 1.387 . S
H1071 C1067 0.950 . S
H1072 C1069 0.950 . S
C1073 C1064 1.390 . S
C1073 H1066 0.950 . S
C1073 C1070 1.387 . S
C1074 C1075 1.387 . S
C1074 H1078 0.950 . S
C1074 C1083 1.390 . S
C1075 C1074 1.387 . S
C1075 C1077 1.387 . S
H1076 C1083 0.950 . S
C1077 C1075 1.387 . S
C1077 C1079 1.390 . S
C1077 H1081 0.950 . S
H1078 C1074 0.950 . S
C1079 C1077 1.390 . S
C1079 C1080 1.387 . S
C1079 H1082 0.950 . S
C1080 C1079 1.387 . S
C1080 C1083 1.387 . S
H1081 C1077 0.950 . S
H1082 C1079 0.950 . S
C1083 C1074 1.390 . S
C1083 H1076 0.950 . S
C1083 C1080 1.387 . S
C1084 C1085 1.387 . S
C1084 H1088 0.950 . S
C1084 C1093 1.390 . S
C1085 C1084 1.387 . S
C1085 C1087 1.387 . S
H1086 C1093 0.950 . S
C1087 C1085 1.387 . S
C1087 C1089 1.390 . S
C1087 H1091 0.950 . S
H1088 C1084 0.950 . S
C1089 C1087 1.390 . S
C1089 C1090 1.387 . S
C1089 H1092 0.950 . S
C1090 C1089 1.387 . S
C1090 C1093 1.387 . S
H1091 C1087 0.950 . S
H1092 C1089 0.950 . S
C1093 C1084 1.390 . S
C1093 H1086 0.950 . S
C1093 C1090 1.387 . S
C1094 C1095 1.387 . S
C1094 H1098 0.950 . S
C1094 C1103 1.390 . S
C1095 C1094 1.387 . S
C1095 C1097 1.387 . S
H1096 C1103 0.950 . S
C1097 C1095 1.387 . S
C1097 C1099 1.390 . S
C1097 H1101 0.950 . S
H1098 C1094 0.950 . S
C1099 C1097 1.390 . S
C1099 C1100 1.387 . S
C1099 H1102 0.950 . S
C1100 C1099 1.387 . S
C1100 C1103 1.387 . S
H1101 C1097 0.950 . S
H1102 C1099 0.950 . S
C1103 C1094 1.390 . S
C1103 H1096 0.950 . S
C1103 C1100 1.387 . S
C545 C153 1.951 . S
C550 C17 1.951 . S
C555 C51 1.871 . S
C560 C187 1.871 . S
C565 C221 1.912 . S
C570 C85 1.912 . S
C575 C255 1.871 . S
C580 C119 1.871 . S
C585 C357 1.873 . S
C590 C289 1.869 . S
C595 C323 1.869 . S
C600 C391 1.865 . S
C605 C493 1.908 . S
C610 C425 1.908 . S
C615 C459 1.955 . S
C620 C527 1.955 . S
C625 C105 1.606 . S
C630 C15 1.595 . S
C635 C3 1.584 . S
C640 C56 1.578 . S
C645 C35 1.562 . S
C650 C83 1.547 . S
C655 C117 1.520 1_556 S
C660 C71 1.527 . S
C665 C171 1.609 . S
C670 C151 1.593 . S
C675 C207 1.531 . S
C680 C192 1.516 1_554 S
C685 C241 1.561 . S
C690 C219 1.551 . S
C695 C139 1.584 . S
C700 C253 1.577 . S
C705 C142 2.250 . S
C710 C307 2.108 . S
C715 C300 2.245 . S
C720 C137 2.097 1_545 S
C725 C210 2.219 . S
C730 C275 2.071 . S
C735 C312 2.195 1_554 S
C740 C205 2.047 1_565 S
C745 C343 2.110 . S
C750 C6 2.249 . S
C755 C69 2.047 1_545 S
C760 C368 2.196 1_556 S
C765 C375 2.073 . S
C770 C74 2.217 . S
C775 C1 2.097 1_565 S
C780 C380 2.246 . S
C785 C377 1.561 . S
C790 C423 1.551 . S
C795 C411 1.527 . S
C800 C362 1.517 1_556 S
C805 C457 1.592 . S
C810 C341 1.607 . S
C815 C389 1.578 . S
C820 C445 1.584 . S
C825 C498 1.548 . S
C830 C273 1.561 . S
C835 C511 1.588 . S
C840 C294 1.576 . S
C845 C309 1.607 . S
C850 C532 1.596 . S
C855 C477 1.527 . S
C860 C321 1.519 1_554 S
C865 C239 2.074 . S
C870 C504 2.218 . S
C875 C479 2.048 . S
C880 C198 2.195 1_554 S
C885 C538 2.250 . S
C890 C173 2.111 . S
C895 C244 2.245 . S
C900 C513 2.094 . S
C905 C37 2.071 . S
C910 C414 2.219 . S
C915 C62 2.245 . S
C920 C443 2.094 . S
C925 C448 2.249 . S
C930 C103 2.111 . S
C935 C409 2.045 . S
C940 C108 2.195 1_556 S
C945 C176 1.620 . S
C950 C28 1.618 . S
C955 C232 1.651 . S
C960 C40 1.649 . S
C965 C266 1.649 . S
C970 C96 1.649 . S
C975 C130 1.619 . S
C980 C164 1.618 . S
C985 C158 0.617 . S
C990 C355 0.623 . S
C995 C287 0.640 . S
C1000 C90 0.633 . S
C1005 C396 0.637 . S
C1010 C226 0.633 . S
C1015 C22 0.616 . S
C1020 C328 0.621 . S
C1025 C436 1.649 . S
C1030 C278 1.649 . S
C1035 C346 1.619 . S
C1040 C516 1.617 . S
C1045 C470 1.619 . S
C1050 C334 1.618 . S
C1055 C482 1.649 . S
C1060 C402 1.650 . S
C1065 C49 0.637 . S
C1070 C491 0.633 . S
C1075 C464 0.619 . S
C1080 C185 0.616 . S
C1085 C124 0.620 . S
C1090 C525 0.617 . S
C1095 C260 0.637 . S
C1100 C430 0.634 . S
